Mass Spectrum: Benzyl chloride
Formula: C7H7Cl
CAS: 100-44-7
Molecular weight: 126
m/z	intensity
26	3
27	7
28	3
35	2
37	7
38	18
39	67
40	4
41	9
43	4
44	3
45	10
49	4
50	28
51	37
52	9
53	1
61	11
62	27
63	69
64	17
65	107
66	5
73	5
74	5
75	4
76	2
77	4
85	3
86	6
87	3
89	57
90	24
91	999
92	77
93	1
99	7
101	1
125	27
126	248
127	26
128	78
129	5
