Mass Spectrum: Benzaldehyde
Formula: C7H6O
CAS: 100-52-7
Molecular weight: 106
m/z	intensity
17	1
18	3
25	5
26	22
27	42
28	7
29	50
36	6
37	49
38	60
39	73
40	5
43	5
49	46
50	296
51	495
52	139
53	26
60	7
61	19
62	26
63	30
73	30
74	97
75	44
76	7
77	999
78	164
79	10
85	4
86	6
105	889
106	935
107	75
