Mass Spectrum: Benzylamine
Formula: C7H9N
CAS: 100-46-9
Molecular weight: 107
m/z	intensity
26	15
27	38
28	158
29	26
30	230
38	16
39	48
50	54
51	89
52	38
53	18
54	11
63	27
65	50
74	13
77	195
78	122
79	370
80	29
89	36
90	12
91	169
92	28
103	18
104	86
105	31
106	999
107	741
108	56
109	2
