Mass Spectrum: Nicotinyl alcohol
Formula: C6H7NO
CAS: 100-55-0
Molecular weight: 109
m/z	intensity
14	2
15	3
16	1
17	3
18	10
25	5
26	46
27	135
28	55
29	73
30	7
31	81
32	7
36	4
37	34
38	70
39	234
40	21
41	31
42	8
43	5
44	4
45	1
46	1
48	3
49	23
50	120
51	238
52	159
53	343
54	74
55	48
56	9
57	1
60	3
61	13
62	25
63	76
64	98
65	145
66	16
67	5
68	3
69	4
70	2
71	2
74	1
75	9
76	10
77	6
78	155
79	93
80	882
81	146
82	17
83	1
84	1
88	1
90	4
91	200
92	96
93	19
94	2
106	34
107	28
108	948
109	999
110	68
111	4
