Mass Spectrum: Triisobutylaluminum
Formula: C12H27Al
CAS: 100-99-2
Molecular weight: 198
m/z	intensity
27	144
28	73
29	86
30	3
31	0
32	1
36	0
37	3
38	14
39	201
40	49
41	489
42	246
43	441
44	11
45	0
46	1
47	4
49	1
50	6
51	12
52	3
53	20
54	5
55	59
56	157
57	236
58	13
59	0
61	1
63	7
67	0
68	1
69	11
70	4
71	4
73	0
77	0
78	1
79	0
80	1
81	1
82	1
83	15
84	25
85	999
86	44
87	1
91	2
92	0
95	0
97	6
98	5
99	96
100	5
101	1
103	6
104	0
105	0
111	1
112	4
113	3
115	0
117	0
119	1
121	1
123	0
125	3
126	0
127	1
128	0
129	1
139	1
140	1
141	427
142	33
143	1
145	1
147	1
148	0
155	2
163	0
164	0
165	1
166	0
167	2
168	0
169	1
171	1
175	0
178	2
179	1
180	0
182	0
183	0
184	0
185	0
187	0
189	0
191	2
192	0
193	0
197	0
198	9
199	1
