Mass Spectrum: Benzenemethanaminium, N,N-dimethyl-N-(phenylmethyl)-, chloride
Formula: C16H20ClN
CAS: 100-94-7
Molecular weight: 261
m/z	intensity
15	16
16	1
26	5
27	12
28	8
29	5
30	28
31	1
35	2
36	3
37	8
38	17
39	89
40	9
41	26
42	101
43	17
44	57
45	19
46	1
47	1
48	1
49	5
50	36
51	53
52	15
53	3
54	1
55	2
56	4
57	22
58	588
59	24
60	2
61	10
62	27
63	69
64	20
65	144
66	9
67	8
68	1
69	2
70	1
73	6
74	7
75	7
76	5
77	19
78	7
79	2
83	1
84	1
85	3
86	6
87	5
88	2
89	57
90	24
91	999
92	111
93	7
97	1
99	5
101	2
103	3
104	3
105	3
106	2
116	2
117	3
118	20
119	5
120	13
121	2
125	18
126	146
127	18
128	48
129	4
131	1
132	12
133	3
134	199
135	281
136	28
137	2
210	6
211	19
212	3
