Mass Spectrum: Styrene
Formula: C8H8
CAS: 100-42-5
Molecular weight: 104
m/z	intensity
15	1
25	1
26	9
27	21
36	1
37	11
38	20
39	68
40	3
41	2
43	1
48	1
49	14
50	136
51	267
52	88
53	12
54	1
60	2
61	16
62	33
63	79
64	9
65	15
66	1
72	1
73	12
74	63
75	43
76	52
77	219
78	464
79	31
80	1
84	1
85	3
86	5
87	8
88	1
89	21
90	2
97	2
98	9
99	2
101	9
102	84
103	485
104	999
105	92
106	3
