Mass Spectrum: 3-Pyridinecarbonitrile
Formula: C6H4N2
CAS: 100-54-9
Molecular weight: 104
m/z	intensity
12	1
24	1
25	5
26	65
27	9
28	26
36	5
37	25
38	30
39	16
40	4
41	1
48	7
49	33
50	215
51	125
52	53
53	42
54	1
57	1
60	2
61	4
62	7
63	7
64	36
65	2
74	9
75	79
76	170
77	557
78	50
79	2
100	2
101	2
103	32
104	999
105	75
106	2
