Mass Spectrum: Hydrazine, phenyl-
Formula: C6H8N2
CAS: 100-63-0
Molecular weight: 108
m/z	intensity
27	32
28	10
29	42
30	14
31	28
39	147
40	17
41	26
42	3
43	5
44	1
45	1
46	0
48	0
49	5
50	57
51	146
52	52
53	32
54	50
55	2
56	1
57	1
60	1
61	8
62	15
63	62
64	103
65	499
66	39
67	4
68	0
69	0
71	0
73	3
74	16
75	9
76	9
77	210
78	145
79	132
80	41
81	23
82	2
83	0
86	0
87	1
88	1
89	0
90	8
91	193
92	438
93	93
94	4
95	0
97	0
105	2
106	1
107	43
108	999
109	67
110	1
