Mass Spectrum: Disulfide, bis(2-sulfhydrylethyl)-
Formula: C4H10S4
CAS: 10008-38-5
Molecular weight: 186
m/z	intensity
41	6
42	1
43	5
44	9
45	104
46	47
47	98
48	7
49	4
55	3
56	3
57	20
58	55
59	112
60	56
61	999
62	32
63	49
64	52
65	28
66	7
67	4
69	11
70	1
71	2
73	1
75	1
77	2
78	3
79	15
80	1
81	2
83	2
85	0
88	0
89	0
90	1
91	8
92	26
93	30
94	37
95	5
96	10
97	44
98	5
99	6
100	2
101	0
105	1
111	5
113	4
114	0
119	21
120	2
121	8
123	2
124	18
125	13
126	39
127	4
128	8
129	3
130	1
131	5
132	1
133	1
152	1
158	1
168	0
169	2
184	6
186	78
187	6
188	15
