Mass Spectrum: Pyrimidin-2(1H)-one, 3,4-dihydro-5-acetyl-4-(2-furyl)-6-methyl-
Formula: C11H12N2O3
CAS: 100060-89-7
Molecular weight: 220
m/z	intensity
37	60
38	175
39	561
40	92
41	151
42	695
43	999
44	73
45	9
47	1
50	68
51	161
52	198
53	138
54	70
55	57
56	13
57	5
58	4
59	4
61	15
62	42
63	152
64	90
65	204
66	150
67	123
68	202
69	42
70	14
71	4
72	0
74	20
75	18
76	29
77	168
78	82
79	107
80	78
81	56
82	37
83	24
84	15
85	5
86	3
87	7
88	8
89	30
90	22
91	36
92	63
93	60
94	127
95	40
96	34
97	31
98	3
99	2
100	0
101	1
102	8
103	12
104	56
105	42
106	109
107	45
108	70
109	31
110	67
111	16
112	1
114	0
115	2
116	11
117	15
118	34
119	50
120	58
121	126
122	117
123	63
124	52
125	5
126	1
128	1
129	2
130	8
131	24
132	48
133	26
134	175
135	50
136	33
137	24
138	36
139	3
140	0
142	1
143	1
144	5
145	8
146	15
147	22
148	55
149	109
150	18
151	42
152	8
153	99
154	8
155	1
156	3
157	6
158	29
159	51
160	36
161	42
162	61
163	43
164	34
165	119
166	128
167	12
168	1
171	1
172	1
173	15
174	38
175	50
176	32
177	754
178	81
179	9
180	1
183	0
184	1
185	7
187	12
188	2
189	1
190	5
191	129
192	24
193	2
197	0
199	0
200	1
201	29
202	9
203	135
204	19
205	62
206	6
207	0
212	0
216	1
217	1
219	32
220	177
221	24
222	2
