Mass Spectrum: 5-Oxazolidinone, 3-acetyl-2-benzylidene-
Formula: C12H11NO3
CAS: 100063-44-3
Molecular weight: 217
m/z	intensity
43	315
44	11
64	7
65	6
77	10
89	76
90	326
91	67
92	6
103	16
104	6
116	63
117	20
118	999
119	116
120	8
130	15
146	12
147	77
148	6
149	6
175	226
176	32
217	199
218	29
