Mass Spectrum: N,N'',N'''-tris(trifluoroacetyl)arginine n-butyl ester
Formula: C16H19F9N4O5
CAS: 10003-39-1
Molecular weight: 518
m/z	intensity
39	119
40	17
41	999
42	116
43	314
44	313
45	64
46	11
47	12
50	41
51	75
53	139
54	72
55	220
56	193
57	759
58	45
59	3
66	20
67	30
68	147
69	933
70	601
71	447
72	28
73	22
74	9
77	4
78	55
81	45
82	38
83	19
84	26
85	12
86	37
87	5
90	3
91	54
92	3
93	8
94	28
95	73
96	149
97	66
98	57
99	86
100	6
101	2
104	5
109	11
110	24
111	24
112	31
113	13
114	135
115	7
117	6
119	14
121	9
122	9
123	21
124	12
125	10
126	97
127	11
128	34
129	21
132	5
136	16
137	48
138	64
139	153
140	89
141	18
142	4
144	4
148	28
149	15
151	21
152	49
153	49
154	23
155	3
156	19
164	74
165	171
166	736
167	101
168	18
170	47
171	20
174	10
179	78
180	67
181	65
182	60
183	13
184	13
189	4
190	4
191	63
192	34
193	48
194	17
195	16
196	123
197	6
198	7
206	17
207	12
208	68
209	76
210	252
211	44
212	149
213	15
221	20
222	33
223	5
224	5
227	3
234	298
235	60
236	53
237	7
252	64
254	13
260	3
261	7
264	31
265	240
266	32
267	49
268	31
269	4
274	28
276	7
277	22
278	154
279	49
280	17
291	10
292	585
293	58
294	4
303	7
304	548
305	102
306	19
319	18
331	8
336	124
337	18
343	2
347	12
349	12
350	2
375	9
393	67
394	13
405	7
417	141
418	23
433	20
443	8
444	8
445	24
446	5
447	5
448	6
449	497
450	91
451	35
452	3
463	17
499	8
518	133
519	36
520	4
