Mass Spectrum: Tetrasiloxane, 1,1,3,3,5,5,7,7-octamethyl-
Formula: C8H26O3Si4
CAS: 1000-05-1
Molecular weight: 282
m/z	intensity
27	0
29	0
31	13
39	1
40	0
41	0
42	1
43	10
44	3
45	63
46	4
47	4
55	0
57	3
58	5
59	115
60	9
61	9
66	3
71	2
72	3
73	999
74	77
75	49
76	2
77	1
80	3
81	4
82	1
83	1
85	3
87	5
88	6
89	5
95	2
96	5
101	2
102	1
103	16
104	2
105	7
110	3
111	1
115	6
116	1
117	15
118	12
119	22
120	3
121	2
125	4
126	11
127	2
129	1
131	15
132	2
133	63
134	9
135	7
139	5
140	6
141	2
145	2
147	10
148	2
149	7
150	1
151	1
152	1
153	1
159	2
160	7
161	10
162	3
163	13
164	3
165	4
167	1
172	1
173	1
175	11
176	7
177	39
178	10
179	63
180	14
181	9
182	2
183	1
184	1
185	1
187	2
188	2
189	17
190	5
191	53
192	20
193	789
194	143
195	91
196	15
197	4
203	2
204	1
205	6
207	566
208	114
209	69
210	10
211	3
221	1
233	2
235	5
236	1
237	3
247	3
248	1
249	5
250	2
251	26
252	7
253	4
254	1
263	1
265	27
267	338
268	95
269	58
270	12
271	4
279	3
280	4
281	22
282	7
283	4
