Mass Spectrum: 2-Cyclohexen-1-one, 5,5-dimethyl-3-propenyl-
Formula: C11H16O
CAS: 100056-76-6
Molecular weight: 164
m/z	intensity
26	2
27	77
28	15
29	58
38	14
39	174
40	36
41	132
42	10
43	27
50	18
51	55
52	48
53	69
54	10
55	86
56	10
57	8
62	6
63	26
64	8
65	71
66	39
67	41
68	18
69	23
72	2
74	3
75	4
76	3
77	126
78	67
79	443
80	999
81	90
82	9
83	16
89	4
91	88
92	17
93	81
94	17
95	11
96	19
103	11
104	4
105	42
106	12
107	62
108	791
109	78
110	5
115	5
119	11
120	8
121	115
122	21
123	4
124	4
131	4
135	9
136	37
137	6
149	331
150	32
164	561
165	77
