Mass Spectrum: Pregn-5-ene-12,20-dione, 3,14,15-trihydroxy-, (3.beta.,14.beta.,15.alpha.)-
Formula: C21H30O5
CAS: 10005-77-3
Molecular weight: 362
m/z	intensity
39	130
40	40
41	539
42	63
43	999
44	697
45	79
50	34
51	40
52	27
53	180
54	45
55	449
56	67
57	207
58	34
60	94
65	108
66	49
67	310
68	63
69	382
70	56
71	169
73	49
77	229
78	79
79	337
80	67
81	382
82	67
83	236
84	117
85	157
91	517
92	112
93	292
94	72
95	303
96	108
97	175
98	79
99	45
100	45
103	67
104	56
105	472
106	117
107	337
108	94
109	999
110	191
111	184
112	348
113	101
114	34
115	94
116	56
117	157
118	85
119	243
120	135
121	175
122	112
123	139
124	63
125	225
126	180
127	184
128	101
129	130
130	79
131	247
132	63
133	117
134	56
135	175
136	49
137	213
138	90
139	108
141	63
142	45
143	146
144	101
145	528
146	153
147	124
148	45
149	90
150	40
151	135
152	63
153	45
154	27
155	56
156	34
157	124
158	85
159	139
160	49
161	117
162	45
163	85
164	94
165	67
166	40
167	63
168	27
169	63
170	27
171	67
172	34
173	79
174	34
175	67
176	27
177	49
179	34
180	371
181	108
182	40
183	63
184	27
185	85
186	40
187	34
188	112
189	63
190	22
191	56
192	34
193	40
195	63
196	27
197	63
198	40
199	90
200	27
201	49
202	22
203	63
204	22
205	34
206	34
207	34
209	45
210	27
211	90
212	34
213	45
214	34
215	40
217	27
221	27
222	22
223	85
224	34
225	79
226	34
227	63
228	67
229	45
230	34
231	22
232	22
233	45
237	45
238	22
239	34
240	27
241	63
242	45
243	45
244	45
245	40
247	67
248	40
249	34
251	45
255	34
257	40
258	34
260	108
261	34
263	472
264	108
265	94
266	40
267	40
269	27
275	45
276	45
277	22
283	94
284	45
285	34
293	27
300	27
301	180
302	56
303	34
308	22
311	34
318	787
319	191
320	112
321	34
326	40
327	18
329	27
330	34
344	67
345	27
362	22
