Mass Spectrum: Ethyl 3-ethoxyacrylate
Formula: C7H12O3
CAS: 1001-26-9
Molecular weight: 144
m/z	intensity
13	2
14	11
15	50
16	1
17	1
18	3
25	2
26	35
27	166
28	42
29	338
30	7
31	44
32	2
39	4
41	11
42	66
43	134
44	48
45	83
46	6
47	36
53	8
54	31
55	17
56	15
57	5
58	2
59	5
60	12
61	3
68	1
69	83
70	261
71	999
72	59
73	51
74	2
75	9
77	2
81	1
82	4
83	14
84	1
85	1
86	1
87	44
88	139
89	10
90	1
97	6
98	20
99	689
100	52
101	124
102	7
103	15
105	4
115	33
116	47
117	7
129	118
130	8
143	1
144	76
145	12
146	1
