Mass Spectrum: Dodecanoic acid, 3,7,11-trimethyl-, methyl ester
Formula: C16H32O2
CAS: 1001-08-7
Molecular weight: 256
m/z	intensity
39	16
41	112
42	16
43	206
44	5
53	7
54	3
55	153
56	46
57	182
58	6
59	53
67	15
68	4
69	240
70	36
71	118
72	5
73	38
74	639
75	161
76	8
79	2
80	4
81	27
82	9
83	76
84	7
85	26
86	5
87	34
88	22
93	2
94	2
95	29
96	24
97	125
98	22
99	5
101	999
102	71
103	6
107	5
109	12
110	5
111	84
112	26
113	8
115	9
121	11
123	7
124	6
125	23
126	16
127	6
129	13
131	5
136	6
137	8
139	42
140	8
141	4
143	77
144	10
145	4
147	5
149	13
151	15
152	4
153	6
163	4
171	108
172	14
180	7
181	6
182	15
183	4
185	3
199	7
206	6
207	3
209	6
213	23
225	4
241	8
256	17
257	2
