Mass Spectrum: 1-(p-Toluenesulfonyl)-2-pyrrolidinone
Formula: C11H13NO3S
CAS: 10019-95-1
Molecular weight: 239
m/z	intensity
56	90
65	260
86	60
89	70
91	999
120	75
139	30
155	150
174	150
175	700
176	80
184	2
211	3
239	3
