Mass Spectrum: 4-(3-Methoxycarbonylpropyl)-4-butanolide
Formula: C9H14O4
CAS: 100145-24-2
Molecular weight: 186
m/z	intensity
38	39
39	88
40	15
41	116
42	100
43	145
44	13
45	16
53	17
54	26
55	154
56	63
57	99
58	2
59	130
60	14
67	34
68	25
69	24
70	25
71	35
72	16
73	18
74	149
75	14
79	21
80	16
81	38
82	21
83	38
85	999
86	55
87	3
95	4
97	13
98	69
99	65
100	14
101	27
102	22
103	31
108	31
109	35
110	22
111	80
112	46
113	2
114	34
115	33
125	26
126	235
127	54
128	2
129	38
136	158
137	91
140	45
141	26
142	6
143	30
144	28
154	34
155	149
158	42
