Mass Spectrum: 2,5-Dimethoxy-3,4-diacetamidonitrobenzene
Formula: C12H15N3O6
CAS: 100139-12-6
Molecular weight: 297
m/z	intensity
43	999
44	21
45	1
47	1
49	23
51	30
52	17
53	87
54	26
55	13
56	4
57	5
58	4
59	3
60	3
62	5
63	2
64	18
65	17
66	29
67	20
68	16
69	38
70	6
71	3
76	8
77	6
78	18
79	7
80	58
81	17
82	25
84	25
86	14
88	2
90	3
91	6
92	20
93	25
94	32
95	21
96	18
97	8
98	1
105	22
106	11
107	10
108	45
109	29
110	6
111	9
112	5
117	3
118	2
119	6
120	6
121	29
122	23
123	23
124	18
125	13
126	1
131	4
132	1
133	22
134	3
135	28
136	18
137	17
138	16
139	4
140	31
147	4
148	12
149	20
150	27
151	83
152	24
154	17
155	9
161	12
163	21
165	132
166	51
167	28
168	12
177	28
178	7
179	18
181	52
183	38
190	10
191	6
192	8
193	3
194	4
196	92
198	210
199	10
205	4
207	39
208	13
209	2
210	3
213	380
214	25
220	1
221	1
222	19
223	11
224	37
225	20
226	2
237	139
238	104
240	60
241	3
248	16
255	187
256	7
266	252
267	6
268	2
297	89
298	13
