Mass Spectrum: 2-Heptyn-1-ol
Formula: C7H12O
CAS: 1002-36-4
Molecular weight: 112
m/z	intensity
12	1
13	1
14	6
15	39
16	1
17	4
18	20
25	3
26	43
27	542
28	46
29	314
30	16
31	155
32	6
36	2
37	23
38	58
39	556
40	224
41	999
42	344
43	378
44	36
45	40
46	2
47	2
48	1
49	8
50	68
51	133
52	429
53	341
54	91
55	641
56	145
57	147
58	19
59	9
60	7
61	8
62	13
63	27
64	7
65	114
66	60
67	259
68	267
69	416
70	781
71	75
72	6
73	5
74	6
75	3
76	1
77	110
78	21
79	425
80	47
81	142
82	27
83	791
84	105
85	28
86	2
87	1
89	1
90	1
91	35
92	5
93	45
94	28
95	32
96	6
97	110
98	9
99	4
100	1
101	6
103	1
105	2
107	2
108	1
109	9
110	1
111	25
112	17
113	3
