Mass Spectrum: Butanoic acid, 3-methoxy-
Formula: C5H10O3
CAS: 10024-70-1
Molecular weight: 118
m/z	intensity
13	1
14	8
15	79
16	2
17	5
18	22
19	1
26	10
27	75
28	35
29	172
30	7
31	172
32	8
33	120
34	2
36	2
37	6
38	14
39	89
40	20
41	146
42	104
43	400
44	19
45	138
46	3
47	2
49	1
50	9
51	5
52	1
53	4
55	9
56	3
57	11
58	18
59	999
60	404
61	11
62	5
65	5
67	2
68	15
69	27
70	5
71	116
72	76
73	74
74	12
75	27
76	8
77	5
84	93
85	20
86	20
87	170
88	12
89	2
97	1
99	11
100	8
101	12
102	2
103	177
104	9
117	5
118	1
