Mass Spectrum: 1-Hexen-4-ol, 1-chloro-3,5-dimethyl-
Formula: C8H15ClO
CAS: 100244-09-5
Molecular weight: 162
m/z	intensity
25	0
26	9
27	72
28	8
29	38
30	2
31	33
35	0
36	0
37	1
38	4
39	52
40	6
41	51
42	5
43	175
44	4
45	56
46	1
47	0
48	0
49	3
50	7
51	17
52	5
53	78
54	19
55	482
56	26
57	35
58	7
59	3
60	0
61	4
62	3
63	4
64	1
65	11
66	1
67	15
68	3
69	7
70	1
71	17
72	25
73	999
74	44
75	10
76	1
77	7
78	1
79	3
80	0
81	3
82	3
83	15
84	1
85	5
86	0
87	1
88	1
89	50
90	13
91	20
92	4
93	3
94	0
95	2
96	0
97	0
98	0
99	0
100	0
101	1
102	3
103	4
104	4
105	2
106	1
107	0
109	5
110	0
111	1
115	0
117	0
118	3
119	13
120	2
121	4
122	0
124	0
125	0
126	0
129	1
131	0
133	0
134	0
135	0
137	0
144	0
145	2
147	1
