Mass Spectrum: Crinamine, 6-O-acetyl-11-O-acetyl-
Formula: C21H23NO7
CAS: 100232-92-6
Molecular weight: 401
m/z	intensity
43	999
45	84
47	14
49	72
50	10
51	44
52	9
53	21
54	22
55	33
56	55
57	15
58	9
59	10
60	27
61	8
62	6
63	27
64	7
65	27
66	7
67	17
68	13
69	12
70	15
71	37
72	5
73	4
74	6
75	15
76	19
77	54
78	16
79	12
80	13
81	7
82	8
84	54
85	8
86	31
87	78
88	15
89	24
90	8
91	23
92	6
93	6
94	6
95	5
96	4
97	5
98	4
99	4
100	4
101	15
102	25
103	28
104	12
105	10
106	7
107	3
111	3
112	4
113	11
114	13
115	91
116	19
117	15
118	11
119	5
120	3
121	6
122	3
125	4
126	16
127	43
128	47
129	24
130	11
131	14
132	4
133	6
134	5
135	12
138	6
139	65
140	29
141	65
142	15
143	16
144	7
145	7
146	5
147	7
148	3
149	11
150	5
151	21
152	62
153	54
154	36
155	22
156	11
157	11
158	4
159	15
160	7
161	5
162	6
163	15
164	8
165	22
166	49
167	44
168	27
169	30
170	10
171	17
172	13
173	21
174	16
175	15
176	6
177	4
178	6
179	8
180	38
181	59
182	22
183	23
184	9
185	18
186	13
187	17
188	11
189	9
190	6
191	5
192	5
193	14
194	11
195	10
196	19
197	26
198	21
199	19
200	34
201	25
202	12
203	5
204	4
209	481
210	107
211	51
212	59
213	27
214	15
215	11
216	5
217	3
222	160
223	154
224	206
225	88
226	60
227	159
228	31
229	17
230	10
231	5
236	5
237	24
238	61
239	49
240	88
241	33
242	31
243	12
244	31
245	8
248	6
249	4
250	22
251	6
252	35
253	12
254	45
255	34
256	35
257	8
258	6
266	192
267	152
268	255
269	67
270	18
271	3
272	4
282	12
284	240
285	46
286	9
298	50
299	55
300	12
301	6
304	5
308	3
310	46
311	9
314	12
315	4
326	9
327	71
328	16
329	4
340	10
341	9
342	73
343	17
358	7
359	30
360	7
368	4
369	3
370	40
371	8
386	30
387	19
388	4
401	61
402	15
