Mass Spectrum: 5-Methyl-1-phenyloctane
Formula: C15H24
CAS: 100216-99-7
Molecular weight: 204
m/z	intensity
51	20
57	200
65	70
71	180
77	30
78	40
79	30
91	810
92	999
93	80
105	60
106	20
110	20
119	20
120	20
133	100
134	20
204	170
