Mass Spectrum: Silane, 3-butenylethenylmethoxymethyl-
Formula: C8H16OSi
CAS: 100222-20-6
Molecular weight: 156
m/z	intensity
26	3
27	14
28	0
29	4
30	1
31	5
38	1
39	12
40	0
41	7
42	4
43	32
44	5
45	106
46	7
47	8
50	2
51	1
52	1
53	9
54	4
55	23
56	3
57	10
58	13
59	155
60	11
61	33
62	2
63	2
65	1
66	2
67	4
68	1
69	14
70	10
71	148
72	15
73	11
74	16
75	265
76	23
77	10
78	1
79	4
80	3
81	7
82	2
83	15
84	2
85	11
86	5
87	68
88	24
89	8
90	1
91	1
93	1
95	6
96	27
97	48
98	8
99	31
101	999
102	95
103	39
104	2
105	7
106	1
107	3
109	46
110	7
111	12
112	2
113	91
114	14
115	20
116	2
117	2
119	1
124	7
125	1
128	219
129	36
130	11
131	1
132	2
141	37
142	6
143	1
