Mass Spectrum: Suberoyl chloride
Formula: C8H12Cl2O2
CAS: 10027-07-3
Molecular weight: 210
m/z	intensity
14	1
15	5
25	1
26	19
27	139
28	71
29	69
30	1
31	1
33	1
34	1
35	18
36	82
37	10
38	41
39	187
40	44
41	429
42	146
43	69
44	9
45	2
47	1
48	3
49	14
50	13
51	25
52	10
53	67
54	75
55	999
56	111
57	18
58	1
60	2
61	10
62	5
63	103
64	4
65	47
66	17
67	134
68	174
69	381
70	36
71	3
73	3
74	2
75	13
76	5
77	32
78	98
79	57
80	33
81	62
82	111
83	287
84	138
85	8
86	1
87	1
88	5
89	6
90	10
91	30
92	11
93	92
94	25
95	44
96	31
97	263
98	18
99	2
101	1
102	12
103	9
104	8
105	10
106	2
107	3
108	1
109	21
110	144
111	147
112	12
113	1
114	1
115	3
117	4
118	27
119	4
120	18
121	61
122	6
123	1
128	1
130	1
131	2
132	1
133	3
134	1
135	1
137	5
138	66
139	240
140	21
141	2
145	3
146	14
147	2
148	5
159	1
175	196
176	18
177	65
178	6
179	1
