Mass Spectrum: Zinc, butylpentyl-
Formula: C9H20Zn
CAS: 100289-33-6
Molecular weight: 192
m/z	intensity
26	71
27	439
28	168
29	487
30	8
31	2
36	1
37	10
38	28
39	203
40	30
41	348
42	285
43	999
44	33
48	1
49	4
50	22
51	18
52	6
53	21
54	5
55	68
56	17
57	270
58	81
59	3
61	1
62	1
63	1
64	59
65	13
66	28
67	11
68	16
69	10
70	20
71	203
72	43
73	2
77	1
78	7
79	4
80	4
81	3
82	2
83	1
89	1
91	4
92	12
93	10
94	8
95	9
96	2
97	4
98	0
100	1
106	1
107	4
108	1
109	1
110	1
111	1
112	1
120	1
121	61
122	4
123	37
124	4
125	34
134	1
135	82
136	11
137	47
138	11
139	29
140	5
141	1
145	0
147	1
149	33
151	15
152	2
153	10
155	1
156	0
163	23
164	16
165	14
166	13
167	9
168	4
179	1
180	0
189	1
192	58
193	5
194	32
195	10
196	24
197	2
198	1
