Mass Spectrum: 1,2-Propadiene, 1-bromo-
Formula: C3H3Br
CAS: 10024-18-7
Molecular weight: 118
m/z	intensity
15	7
17	1
18	6
19	41
24	208
25	387
26	295
27	44
28	9
29	3
31	5
32	2
36	516
37	999
38	846
39	913
40	8
58	4
59	22
60	16
74	1
77	1
79	444
80	54
81	297
82	31
91	29
92	22
93	32
94	22
95	1
103	5
104	8
105	6
106	8
115	11
116	18
117	106
118	670
119	62
120	372
121	9
