Mass Spectrum: Ethanone, 1-(2,3-dihydro-5-dimethylaminosulfonyl-1-indolyl)-
Formula: C12H16N2O3S
CAS: 100254-51-1
Molecular weight: 268
m/z	intensity
33	2
34	1
36	0
37	4
38	21
39	115
40	43
41	61
42	286
43	999
44	202
45	46
46	31
47	1
48	3
50	27
51	61
52	25
53	14
54	5
55	4
56	2
57	4
58	5
59	3
62	34
63	108
64	44
65	95
66	13
67	6
68	2
69	6
70	2
71	4
72	0
74	4
75	12
76	16
77	35
78	20
79	11
80	4
81	1
82	1
83	2
84	2
85	1
86	2
87	6
89	219
90	166
91	141
92	21
93	5
94	2
95	2
96	1
97	2
98	0
99	0
100	0
101	1
102	6
103	6
104	9
105	7
106	5
107	1
108	3
109	2
111	3
112	0
113	1
114	3
116	67
117	261
118	405
119	108
120	8
121	2
122	1
123	1
124	0
125	0
126	0
127	0
128	1
129	1
130	7
131	9
132	8
134	328
135	27
136	2
137	0
138	0
139	0
141	0
143	0
144	1
145	2
146	5
147	8
149	7
150	4
151	1
153	0
154	0
157	0
158	2
160	107
161	18
162	5
163	0
164	0
166	29
167	3
168	1
171	0
174	0
176	9
177	0
178	0
180	6
182	211
183	25
184	10
185	0
193	0
198	0
199	1
202	0
204	0
205	0
207	0
208	2
209	1
218	0
219	0
221	0
223	1
224	18
226	198
227	21
228	10
229	0
232	0
233	0
239	0
264	0
265	1
266	2
268	181
269	25
270	9
271	1
