Mass Spectrum: 5-Chloro-6-hydroxy-1,3-dimethyl-5,6-dihydrothymine
Formula: C7H11ClN2O3
CAS: 100201-55-6
Molecular weight: 206
m/z	intensity
61	699
63	135
68	134
69	107
86	136
90	999
92	475
114	145
117	344
149	218
205	3
206	287
207	63
208	98
209	21
210	2
