Mass Spectrum: Zinc, crotyl-menthyl-
Formula: C14H26Zn
CAS: 100289-38-1
Molecular weight: 258
m/z	intensity
27	651
28	86
29	469
30	10
33	0
36	2
37	36
38	49
39	512
40	109
41	359
42	27
43	140
44	5
45	0
47	0
48	5
49	30
50	96
51	100
52	49
53	234
54	225
55	999
56	74
57	78
58	4
59	0
62	1
63	4
64	41
65	20
66	27
67	100
68	42
69	159
70	13
71	12
72	0
73	1
74	0
75	0
76	0
77	32
78	2
79	41
80	4
81	104
82	42
83	322
84	24
85	1
86	0
89	1
90	0
91	18
92	2
93	10
94	4
95	42
96	16
97	34
98	1
99	0
103	1
104	0
105	2
106	0
107	2
108	0
109	3
115	0
117	0
118	0
119	3
120	3
121	1
122	2
133	0
134	0
137	9
139	43
140	5
150	0
159	0
160	0
173	0
175	1
177	1
189	0
190	0
193	0
201	0
202	1
203	16
204	3
205	10
206	2
207	7
208	1
209	0
215	3
216	0
217	1
218	0
219	1
220	0
229	0
232	0
258	28
259	5
260	17
261	4
262	12
263	2
264	0
