Mass Spectrum: Acetic acid, undec-2-enyl ester
Formula: C13H24O2
CAS: 100288-67-3
Molecular weight: 212
m/z	intensity
26	1
27	42
28	3
29	71
30	1
31	1
38	0
39	42
40	5
41	232
42	30
43	999
44	14
45	2
50	0
51	3
52	2
53	26
54	291
55	216
56	62
57	114
58	13
59	3
60	0
61	11
62	0
63	0
65	5
66	13
67	109
68	99
69	73
70	25
71	38
72	16
73	5
74	0
75	0
77	4
78	1
79	11
80	9
81	90
82	118
83	45
84	8
85	6
86	6
87	2
91	2
92	0
93	2
94	3
95	65
96	83
97	30
98	6
99	13
100	18
101	4
102	0
103	0
105	0
107	0
108	0
109	29
110	35
111	6
112	2
113	10
114	18
115	6
116	0
121	0
122	0
123	11
124	49
125	4
126	2
127	4
128	4
129	0
137	2
138	0
141	8
142	1
151	1
152	24
153	3
154	0
155	3
156	0
169	8
170	24
171	2
183	1
197	0
212	1
