Mass Spectrum: Disulfide, bis(2-bromoethyl)
Formula: C4H8Br2S2
CAS: 1002-40-0
Molecular weight: 278
m/z	intensity
27	470
45	120
58	70
59	150
60	130
64	140
92	140
107	999
109	950
143	150
145	160
171	140
173	150
199	210
201	220
250	170
252	360
254	190
278	180
279	11
280	390
281	23
282	220
283	15
