Mass Spectrum: (S)-(+)-3-Chloro-1-phenyl-1-propanol
Formula: C9H11ClO
CAS: 100306-34-1
Molecular weight: 170
m/z	intensity
35	0
36	0
37	2
38	7
39	30
40	2
41	2
42	1
43	7
44	0
45	0
46	0
47	0
49	7
50	37
51	97
52	26
53	18
55	11
56	1
57	12
61	4
62	10
63	36
64	5
65	22
66	7
68	0
69	0
73	3
74	14
75	12
77	323
78	101
79	599
80	57
81	2
82	0
85	1
86	2
87	3
89	16
91	49
92	5
93	5
94	0
95	0
96	0
97	0
98	0
99	0
100	0
101	1
102	5
103	22
105	106
107	999
108	146
109	9
110	0
111	0
112	0
113	1
115	35
116	8
117	24
118	3
119	0
120	1
121	0
123	0
125	1
126	0
127	0
128	0
129	0
131	1
132	0
133	6
134	0
135	0
136	0
138	0
139	0
141	0
149	0
151	0
153	21
154	2
155	7
156	0
167	0
170	171
171	21
172	56
173	6
174	0
