Mass Spectrum: 3-Chloro-4,5-dihydro-1H-1,2,4-triazol-5-one
Formula: C2H2ClN3O
CAS: 1003-34-5
Molecular weight: 119
m/z	intensity
35	157
36	36
37	44
38	20
40	21
41	158
42	99
43	251
44	64
47	89
48	130
49	42
50	40
54	53
55	5
56	10
61	85
62	555
63	100
64	175
65	21
76	999
77	20
78	324
83	73
84	310
85	13
119	817
120	40
121	263
122	9
