Mass Spectrum: Hydrogen bromide
Formula: BrH
CAS: 10035-10-6
Molecular weight: 80
m/z	intensity
79	390
80	999
81	378
82	982
83	0
