Mass Spectrum: Bicyclo[3.3.1]nonan-3-ol, exo-
Formula: C9H16O
CAS: 10036-08-5
Molecular weight: 140
m/z	intensity
41	204
42	28
43	52
44	26
45	19
51	31
52	13
53	62
54	195
55	216
56	44
57	57
65	28
66	39
67	206
68	133
69	46
70	73
71	26
77	46
78	28
79	178
80	362
81	999
82	83
83	62
84	26
93	165
94	108
95	91
96	52
97	74
98	15
107	75
108	10
109	10
121	16
122	651
123	67
140	13
