Mass Spectrum: Heptane, 1,1-dimethoxy-
Formula: C9H20O2
CAS: 10032-05-0
Molecular weight: 160
m/z	intensity
26	9
27	62
39	35
41	131
42	14
43	72
44	5
45	142
47	89
52	2
53	9
54	5
55	162
56	12
57	11
58	57
59	11
67	14
68	8
69	23
70	6
71	107
72	7
73	3
75	999
76	33
77	4
81	9
85	15
96	4
97	67
98	5
99	2
128	5
129	67
130	6
159	3
