Mass Spectrum: 1H-Pyrrole-2-carboxaldehyde
Formula: C5H5NO
CAS: 1003-29-8
Molecular weight: 95
m/z	intensity
15	3
17	1
18	6
25	3
26	7
27	7
28	73
29	24
30	3
32	6
33	15
36	6
37	48
38	87
39	269
40	80
41	66
42	9
43	4
44	18
45	2
47	2
48	1
49	6
50	13
51	12
52	13
53	7
55	1
58	1
62	3
63	7
64	15
65	17
66	534
67	41
68	5
72	3
73	1
74	1
75	1
76	1
78	1
79	2
93	5
94	674
95	999
96	69
97	4
