Mass Spectrum: Vitamin B6, triacetate
Formula: C14H17NO6
CAS: 10030-93-0
Molecular weight: 295
m/z	intensity
14	2
15	18
26	2
27	9
28	6
29	4
30	1
31	1
37	1
38	6
39	51
40	6
41	13
42	53
43	999
44	25
45	4
50	13
51	52
52	34
53	44
54	29
55	13
56	2
60	1
61	3
62	3
63	22
64	34
65	42
66	19
67	26
68	8
69	4
70	1
71	1
73	1
75	1
76	2
77	43
78	30
79	33
80	32
81	23
82	51
83	4
84	3
89	1
90	1
91	4
92	15
93	19
94	130
95	35
96	7
97	1
98	2
99	1
103	1
104	28
105	101
106	350
107	130
108	47
109	15
110	16
111	2
112	3
118	1
119	1
120	27
121	13
122	142
123	461
124	62
125	4
126	1
127	2
132	1
133	60
134	34
135	14
136	25
137	5
138	27
139	5
140	3
147	1
148	3
149	11
150	84
151	995
152	216
153	18
154	1
162	1
163	1
164	2
165	13
166	8
167	3
168	19
169	2
175	22
176	3
180	1
182	5
183	1
193	488
194	91
195	10
196	1
207	1
210	92
211	15
212	2
224	1
235	111
236	17
237	2
253	191
254	26
255	4
295	4
296	3
