Mass Spectrum: 2,4,6-Heptatrienoic acid, methyl ester
Formula: C8H10O2
CAS: 100378-49-2
Molecular weight: 138
m/z	intensity
26	16
27	122
28	7
29	13
30	3
31	4
33	0
34	0
36	0
37	7
38	20
39	102
40	10
41	28
42	1
43	5
44	2
45	18
46	0
47	0
48	0
49	4
50	54
51	132
52	67
53	70
54	6
55	15
56	1
57	0
58	1
59	42
60	8
61	4
62	5
63	16
64	3
65	13
66	8
67	43
68	4
69	4
71	1
72	0
73	2
74	9
75	14
76	7
77	462
78	284
79	999
80	65
81	5
82	1
83	2
84	1
85	1
89	0
90	0
91	8
92	1
93	7
94	3
95	29
96	4
97	1
98	0
105	34
106	50
107	123
108	11
109	8
110	4
111	13
112	0
121	1
122	0
123	25
124	2
136	1
137	34
138	227
139	19
140	2
