Mass Spectrum: Bicyclo[3.3.1]nonan-2-ol, exo-
Formula: C9H16O
CAS: 10036-15-4
Molecular weight: 140
m/z	intensity
41	430
42	48
43	79
44	79
45	26
51	38
52	21
53	137
54	272
55	575
56	58
57	270
58	364
59	39
65	47
66	79
67	626
68	350
69	76
70	87
71	74
77	87
78	55
79	430
80	404
81	999
82	243
83	396
84	42
91	55
92	18
93	287
94	815
95	151
96	705
97	147
98	21
99	18
107	190
108	17
109	167
110	21
111	37
112	50
121	30
122	935
123	89
124	18
138	26
139	10
140	248
141	26
