Mass Spectrum: 1-(Benzenesulfonyl)-3-(3-methylbutyl)urea
Formula: C12H18N2O3S
CAS: 100317-39-3
Molecular weight: 270
m/z	intensity
35	4
36	6
37	11
38	27
39	195
40	41
41	327
42	190
43	605
44	227
45	39
46	9
48	31
50	218
51	606
52	45
53	41
54	18
55	114
56	90
57	271
58	10
60	6
61	8
62	8
63	18
64	20
65	60
66	19
67	6
68	9
69	32
70	119
71	54
73	236
74	68
75	41
77	999
78	120
79	8
81	3
82	4
84	5
85	11
86	45
87	8
91	4
92	31
93	91
94	107
95	12
97	24
99	6
106	6
109	3
112	4
113	49
114	6
120	2
125	9
129	33
132	1
133	1
135	4
141	137
142	7
143	4
149	5
157	3
158	6
183	2
191	1
200	89
201	9
213	21
214	151
215	21
227	15
228	2
241	7
255	17
256	3
270	160
271	24
272	9
