Mass Spectrum: Phosphinous bromide, dicyclohexyl-
Formula: C12H22BrP
CAS: 100384-03-0
Molecular weight: 276
m/z	intensity
27	137
28	20
29	160
30	2
31	0
33	0
35	1
36	5
37	1
38	3
39	136
40	15
41	511
42	25
43	40
44	3
45	27
46	1
47	5
48	1
49	2
50	4
51	15
52	8
53	80
54	38
55	762
56	30
57	39
58	7
59	14
60	1
61	10
62	1
63	2
64	0
65	15
66	11
67	84
68	11
69	16
70	4
71	37
72	3
73	22
74	3
75	1
76	0
77	22
78	6
79	56
80	16
81	150
82	76
83	999
84	61
85	22
86	3
87	12
88	1
89	0
90	1
91	1
92	0
93	1
94	0
95	3
96	1
97	5
98	1
99	2
100	0
101	0
102	0
103	0
104	1
105	0
107	0
108	0
109	1
110	2
111	3
112	2
113	32
114	5
115	59
116	8
117	18
118	1
121	0
123	0
124	0
125	3
126	0
127	5
128	0
129	2
130	0
131	0
132	15
133	14
134	1
136	0
137	6
138	2
139	8
140	2
141	2
142	0
143	3
144	0
149	0
150	1
151	6
152	1
153	4
154	1
155	0
156	0
157	1
158	0
159	6
160	0
163	0
165	0
166	0
167	1
168	1
169	0
171	0
172	0
173	0
177	0
179	0
181	0
183	1
185	0
189	0
191	0
192	0
193	4
194	73
195	132
196	75
197	126
198	13
199	3
208	0
210	0
213	0
214	5
215	1
221	4
222	0
223	4
224	0
232	1
233	0
234	1
235	1
236	0
237	1
242	0
243	0
247	0
249	0
250	0
251	0
261	3
262	0
263	3
264	0
272	0
274	0
275	1
276	78
277	13
278	80
279	11
280	0
