Mass Spectrum: p-Acetamidobenzenesulphohydroxamic acid
Formula: C8H10N2O4S
CAS: 100340-87-2
Molecular weight: 230
m/z	intensity
41	35
42	83
43	999
44	23
45	26
46	6
48	13
49	2
50	35
51	31
52	57
53	34
54	9
58	3
60	6
61	7
62	33
63	142
64	141
65	315
66	30
67	3
69	8
70	4
74	8
75	9
76	16
77	14
78	16
79	35
80	43
81	12
89	2
90	27
91	73
92	205
93	94
94	6
95	3
96	4
104	8
105	12
106	21
107	55
108	210
109	23
112	1
123	10
124	11
133	11
134	211
135	42
136	4
139	4
140	88
141	6
142	1
150	23
151	5
156	110
157	68
158	7
166	1
172	180
173	19
174	7
182	11
184	1
198	722
199	217
200	55
201	8
214	69
215	21
216	4
230	97
231	9
232	2
