Mass Spectrum: Benzenesulfonoyl chloride, 3,4-dinitro-
Formula: C6H3ClN2O6S
CAS: 100367-66-6
Molecular weight: 266
m/z	intensity
35	4
36	10
37	95
38	93
39	22
43	3
45	2
46	138
47	15
48	2
49	71
50	168
51	52
52	20
53	47
55	0
57	1
60	24
61	88
62	117
63	517
64	51
65	5
66	1
68	0
72	44
73	209
74	697
75	999
76	170
77	11
79	93
80	5
81	1
82	1
84	189
85	41
86	96
87	34
88	24
89	30
90	5
91	30
92	3
93	3
97	12
98	74
99	8
100	20
101	1
102	0
104	2
107	144
108	42
109	464
110	610
111	206
112	218
113	28
114	6
116	0
121	15
122	0
125	2
126	212
127	33
128	78
129	4
140	9
141	12
142	4
143	6
151	0
155	0
156	65
157	1
158	23
172	88
173	3
174	16
178	0
182	0
186	12
188	1
200	2
201	2
202	730
203	47
204	202
205	7
266	1
