Mass Spectrum: Benzenesulfonic acid, 4-hydroxy-, ethyl ester
Formula: C8H10O4S
CAS: 100378-86-7
Molecular weight: 202
m/z	intensity
26	29
27	150
29	256
30	23
37	11
38	84
39	574
40	17
41	5
42	17
43	44
45	19
46	7
48	12
50	54
51	54
52	17
53	192
54	32
55	48
61	16
62	72
63	234
64	138
65	772
66	80
67	12
69	30
70	7
71	5
74	29
75	24
76	13
77	6
79	8
81	283
82	43
85	11
86	6
91	7
92	42
93	820
94	515
95	46
97	10
108	6
109	999
110	379
111	25
113	8
125	5
141	57
142	5
157	953
158	91
159	47
174	891
175	72
176	53
187	5
202	658
203	73
204	43
