Mass Spectrum: 3.alpha.-Acetylcuauhtemone
Formula: C17H26O4
CAS: 100325-18-6
Molecular weight: 294
m/z	intensity
41	93
43	999
55	107
67	126
73	130
81	100
83	100
91	126
95	144
107	130
109	152
121	244
123	148
125	159
133	96
149	122
201	85
216	100
234	11
252	15
294	137
295	37
