Mass Spectrum: Bicyclo[3.3.1]nonan-2-ol, endo-
Formula: C9H16O
CAS: 10036-25-6
Molecular weight: 140
m/z	intensity
41	426
42	46
43	76
44	57
45	32
51	34
52	21
53	136
54	280
55	567
56	48
57	237
58	320
59	26
65	49
66	77
67	619
68	250
69	64
70	89
71	26
77	89
78	56
79	446
80	546
81	999
82	202
83	341
84	30
91	49
93	300
94	779
95	133
96	702
97	146
107	184
108	17
109	160
110	20
111	26
112	42
121	21
122	797
123	82
140	181
141	20
