Mass Spectrum: 4-Amino-4,5(1H)-dihydro-1,2,4-triazole-5-one
Formula: C2H4N4O
CAS: 1003-23-2
Molecular weight: 100
m/z	intensity
41	29
42	140
43	329
44	171
45	39
55	30
57	29
58	30
69	30
100	999
