Mass Spectrum: 5-Oxazolecarbonitrile, 4-methyl-
Formula: C5H4N2O
CAS: 1003-52-7
Molecular weight: 108
m/z	intensity
36	9
37	49
38	88
39	38
40	45
41	17
42	61
43	73
44	4
49	2
50	21
51	100
52	256
53	999
54	252
55	111
56	3
62	6
63	16
64	19
65	6
66	11
67	93
68	3
76	4
77	8
78	7
79	76
80	678
81	40
82	2
106	4
108	547
109	31
110	0
