Mass Spectrum: Phosphinothioic acid, (4-morpholinyl)phenyl-, O-ethyl ester
Formula: C12H18NO2PS
CAS: 100316-49-2
Molecular weight: 271
m/z	intensity
41	34
42	47
43	28
44	24
45	28
47	85
51	38
55	28
56	94
57	28
58	38
63	75
70	28
72	19
77	94
78	47
79	19
84	19
85	28
86	999
87	57
105	19
107	19
109	57
110	47
125	84
139	19
140	19
142	57
153	165
154	28
157	264
158	33
159	19
185	170
186	85
187	23
194	23
210	19
214	24
226	19
228	42
238	42
239	9
271	302
272	47
273	28
