Mass Spectrum: Cyclopropane, (methoxymethyl)-
Formula: C5H10O
CAS: 1003-13-0
Molecular weight: 86
m/z	intensity
31	37
39	202
40	20
41	12
42	25
43	229
44	7
45	510
46	10
50	25
51	25
52	5
53	75
54	27
55	300
56	25
57	25
58	999
59	50
85	5
86	227
87	25
