Mass Spectrum: 2-Methylthiolane, S,S-dioxide
Formula: C5H10O2S
CAS: 1003-46-9
Molecular weight: 134
m/z	intensity
53	40
54	20
55	520
56	60
57	10
67	20
68	30
69	999
70	340
71	30
84	10
92	10
106	10
117	10
134	30
135	2
136	1
