Mass Spectrum: 2-Butene, 1-methoxy-, (E)-
Formula: C5H10O
CAS: 10034-14-7
Molecular weight: 86
m/z	intensity
25	1
26	50
27	431
28	48
29	306
30	12
31	28
32	1
33	11
34	0
36	1
37	19
38	45
39	396
40	32
41	752
42	29
43	106
44	4
45	268
46	5
47	0
48	0
49	7
50	32
51	45
52	17
53	165
54	79
55	431
56	47
57	7
58	18
59	13
60	0
65	0
66	0
67	0
68	1
69	18
70	4
71	999
72	45
73	2
84	1
85	51
86	267
87	13
88	0
