Mass Spectrum: Cyclohexane, 1,2-diethenyl-, cis-
Formula: C10H16
CAS: 1004-84-8
Molecular weight: 136
m/z	intensity
26	8
27	85
28	35
29	95
30	2
32	0
36	0
38	0
39	190
40	44
41	610
42	41
43	17
47	4
50	2
51	13
52	20
53	177
54	847
55	207
56	10
57	2
58	2
59	0
63	3
64	1
65	71
66	100
67	999
68	196
69	45
70	3
75	3
76	1
77	127
78	78
79	743
80	502
81	286
82	200
83	12
85	0
90	2
91	100
92	23
93	556
94	588
95	622
96	46
97	1
103	1
104	0
105	15
106	6
107	380
108	321
109	30
110	1
117	0
119	3
120	2
121	324
122	32
123	1
135	22
136	158
137	18
