Mass Spectrum: 5,9-Undecadien-1-yne, 6,10-dimethyl-
Formula: C13H20
CAS: 100451-98-7
Molecular weight: 176
m/z	intensity
26	6
27	121
28	3
29	107
38	11
39	177
40	40
41	489
42	38
43	98
44	5
50	11
51	43
52	22
53	117
54	19
55	179
56	30
57	34
63	18
64	8
65	76
66	29
67	162
68	94
69	999
70	94
71	17
75	8
77	135
78	42
79	219
80	64
81	413
82	86
83	38
84	9
85	7
89	12
91	306
92	123
93	245
94	76
95	159
96	75
97	14
102	10
103	17
104	12
105	231
106	96
107	129
108	54
109	139
110	18
111	11
115	18
116	10
117	33
118	15
119	145
120	165
121	123
122	27
123	81
124	20
127	4
128	6
129	7
131	20
132	20
133	371
134	115
135	46
136	45
137	199
138	30
139	5
145	5
146	6
147	50
148	41
157	4
159	9
160	10
161	379
162	82
163	9
174	3
175	8
176	73
177	11
178	2
