Mass Spectrum: 4H-Quinolizine, 1,6,9,9a-tetrahydro-
Formula: C9H13N
CAS: 1004-88-2
Molecular weight: 135
m/z	intensity
39	180
40	19
41	78
42	17
50	17
51	41
52	39
53	172
54	999
55	84
65	23
66	9
67	39
68	19
77	17
78	19
79	39
80	247
81	156
82	60
91	15
93	37
94	39
106	29
107	9
117	23
118	9
120	96
130	17
132	49
133	17
134	313
135	413
136	39
