Mass Spectrum: 2-Butylamine, N,N-diethyl-4-phenyl-
Formula: C14H23N
CAS: 100482-74-4
Molecular weight: 205
m/z	intensity
26	2
27	19
28	25
29	33
30	13
31	0
37	0
38	1
39	14
40	2
41	15
42	37
43	6
44	66
45	2
47	0
49	0
50	3
51	11
52	4
53	3
54	4
55	7
56	35
57	8
58	37
59	1
62	1
63	5
64	1
65	27
66	2
67	0
68	2
69	1
70	25
71	13
72	67
73	4
74	1
75	1
76	1
77	16
78	9
79	7
80	0
81	0
82	1
83	0
84	16
85	4
86	29
87	2
88	0
89	5
90	3
91	162
92	19
93	1
94	0
95	1
96	0
97	0
98	13
99	11
100	999
101	73
102	3
103	6
104	6
105	8
106	1
107	0
108	0
109	0
110	0
111	0
112	3
113	1
114	13
115	7
116	2
117	11
118	1
119	0
120	0
121	0
122	0
123	0
124	0
125	0
126	0
127	1
128	1
129	1
130	1
131	2
132	3
133	1
134	3
135	0
136	0
137	0
138	0
139	0
140	0
141	0
142	0
143	0
144	0
145	0
146	0
147	0
148	0
149	0
150	0
151	0
152	0
153	0
154	0
155	0
156	0
157	0
158	0
159	0
160	2
161	0
162	1
163	0
165	0
166	0
167	0
168	0
169	0
170	0
172	0
173	0
174	1
175	0
176	0
177	0
186	0
187	0
188	3
189	1
190	73
191	11
192	0
193	0
203	0
204	6
205	29
206	4
