Mass Spectrum: 2,4-Dimethyl-1,5-diazabicyclo[3.1.0]hexane (cis)
Formula: C6H12N2
CAS: 100463-01-2
Molecular weight: 112
m/z	intensity
39	31
40	11
41	292
42	479
43	92
44	41
53	10
54	51
55	322
56	245
57	21
58	11
67	13
68	74
69	454
70	201
71	31
80	12
82	13
84	14
97	999
98	71
99	5
111	61
112	54
113	21
114	3
