Mass Spectrum: 2H-Quinolizine, 1,3,4,6,9,9a-hexahydro-
Formula: C9H15N
CAS: 1004-86-0
Molecular weight: 137
m/z	intensity
39	219
40	39
41	294
42	169
43	15
51	39
52	39
53	154
54	411
55	792
56	98
65	39
66	19
67	79
68	59
69	4
70	4
77	31
78	19
79	61
80	181
81	118
82	199
83	999
84	106
91	5
92	5
93	43
94	85
95	100
96	39
106	33
108	175
109	55
122	237
123	19
134	94
135	19
136	733
137	705
138	77
