Mass Spectrum: 2,5-Cyclooctadien-1-ol
Formula: C8H12O
CAS: 10054-74-7
Molecular weight: 124
m/z	intensity
25	8
26	95
27	704
28	1
29	345
30	13
31	134
33	3
34	1
35	2
36	5
37	36
38	115
39	999
40	169
41	569
42	184
43	281
44	20
45	17
46	3
47	4
48	3
49	11
50	155
51	306
52	143
53	298
54	245
55	468
56	30
57	230
58	12
59	2
60	5
61	13
62	36
63	83
64	18
65	262
66	182
67	464
68	266
69	231
70	491
71	23
72	4
73	5
74	23
75	13
76	24
77	432
78	798
79	640
80	189
81	193
82	93
83	88
84	6
85	2
86	2
87	5
88	0
89	11
91	499
92	43
93	60
94	39
95	493
96	618
97	42
98	5
99	0
100	2
101	4
102	8
103	45
104	16
105	99
106	121
107	28
108	18
109	74
110	6
111	0
113	2
115	1
116	0
117	0
118	3
119	0
120	0
121	1
122	9
123	11
124	10
125	0
