Mass Spectrum: 1,2-Ethanediol, 1,2-dimyrtenyl-
Formula: C20H30O2
CAS: 1005182-93-3
Molecular weight: 302
m/z	intensity
26	2
27	59
28	27
29	77
31	12
38	1
39	64
40	67
41	283
42	14
43	166
44	5
45	6
50	2
51	17
52	7
53	62
54	8
55	130
56	12
57	31
58	3
59	144
60	4
63	3
64	1
65	38
66	18
67	164
68	17
69	121
70	55
71	116
72	6
73	21
74	1
75	1
77	90
78	22
79	247
80	36
81	189
82	19
83	54
84	9
85	7
89	3
90	3
91	190
92	28
93	208
94	72
95	172
96	53
97	11
98	1
99	1
102	1
103	12
104	5
105	110
106	20
107	221
108	70
109	999
110	80
111	14
112	1
115	16
116	5
117	27
118	9
119	32
120	9
121	41
122	7
123	68
124	81
125	6
127	2
128	9
129	14
130	5
131	17
132	5
133	89
134	34
135	17
136	6
137	18
138	2
141	10
142	4
143	16
144	4
145	12
146	4
147	8
148	7
149	14
150	9
151	264
152	406
153	51
154	4
155	12
156	4
157	12
158	3
159	13
160	2
161	3
162	2
163	3
164	1
165	2
166	2
167	8
168	2
169	7
170	2
171	10
172	3
173	8
174	1
175	1
176	1
179	2
181	4
182	2
183	4
184	2
185	9
186	3
187	6
188	2
195	2
197	5
198	1
199	6
200	1
201	3
202	2
203	1
209	1
211	2
212	1
213	5
214	4
215	13
216	5
223	10
224	1
225	3
226	3
227	3
228	3
233	2
240	2
241	23
242	4
243	5
244	2
246	10
247	1
253	2
255	13
256	4
259	1
266	3
267	1
268	4
269	5
270	1
284	15
285	3
302	29
303	6
