Mass Spectrum: Oxirane, 2-(chloromethyl)-2-phenyl-
Formula: C9H9ClO
CAS: 1005-91-0
Molecular weight: 168
m/z	intensity
51	150
77	330
91	390
102	120
103	999
104	590
133	190
167	170
168	80
169	58
170	20
171	2
