Mass Spectrum: 6-Isopropenyl-4,8a-dimethyl-1,2,3,5,6,7,8,8a-octahydronaphthalene-2,3-diol
Formula: C15H24O2
CAS: 1005284-62-7
Molecular weight: 236
m/z	intensity
26	3
27	231
28	30
29	310
30	5
31	56
37	3
38	7
39	378
40	77
41	999
42	63
43	574
44	52
45	62
46	2
47	8
50	10
51	93
52	51
53	423
54	58
55	591
56	49
57	114
58	15
59	39
60	8
61	6
62	4
63	35
64	16
65	206
66	72
67	426
68	122
69	396
70	37
71	88
72	15
73	23
74	7
75	18
76	9
77	436
78	103
79	473
80	109
81	470
82	266
83	158
84	100
85	71
86	16
87	108
88	13
89	15
90	10
91	650
92	120
93	606
94	262
95	645
96	117
97	80
98	39
99	13
100	42
101	11
102	18
103	66
104	35
105	470
106	171
107	839
108	440
109	740
110	217
111	103
112	32
113	24
114	65
115	100
116	50
117	124
118	44
119	445
120	167
121	541
122	356
123	462
124	170
125	64
126	13
127	26
128	58
129	72
130	35
131	237
132	92
133	388
134	317
135	366
136	321
137	235
138	40
139	37
140	37
141	34
142	29
143	103
144	37
145	138
146	56
147	323
148	139
149	755
150	229
151	56
152	31
153	20
154	267
155	40
156	13
157	150
158	37
159	151
160	60
161	274
162	106
163	287
164	69
165	33
166	10
167	13
168	4
169	5
170	7
171	19
172	21
173	25
174	59
175	395
176	118
177	173
178	28
179	22
180	13
181	3
185	63
186	12
187	22
188	7
189	84
190	76
191	26
192	367
193	154
194	24
195	4
199	4
200	51
201	25
202	15
203	360
204	54
205	14
206	3
207	20
208	12
209	2
217	8
218	249
219	52
220	9
221	101
222	17
223	3
234	3
235	5
236	628
237	100
238	9
