Mass Spectrum: Bicyclo[3.2.0]heptan-2-one, 6-hydroxy-5-methyl-6-vinyl-
Formula: C10H14O2
CAS: 1005276-66-3
Molecular weight: 166
m/z	intensity
26	17
27	243
28	30
29	40
30	1
31	11
37	2
38	11
39	119
40	43
41	229
42	55
43	153
44	8
45	2
47	0
49	0
50	14
51	31
52	16
53	60
54	11
55	229
56	15
57	16
58	0
59	0
60	0
61	1
62	3
63	7
64	2
65	28
66	11
67	69
68	21
69	62
70	151
71	9
72	0
74	1
75	0
76	1
77	44
78	8
79	77
80	7
81	29
82	13
83	17
84	8
85	1
89	1
91	26
92	4
93	17
94	17
95	43
96	23
97	999
98	66
99	4
100	0
103	1
104	0
105	11
106	3
107	10
108	4
109	21
110	12
111	24
112	2
115	1
117	0
119	2
120	2
121	5
122	11
123	9
124	2
125	4
126	0
127	0
129	0
130	0
131	1
132	0
133	6
134	0
135	1
136	6
137	6
138	6
139	2
142	0
147	2
148	4
149	4
150	1
151	6
165	1
166	6
167	0
