Mass Spectrum: 4,7-Methanoisobenzofuran-1-ol, 1,3,3a,4,7,7a-hexahydro-
Formula: C9H12O2
CAS: 100557-82-2
Molecular weight: 152
m/z	intensity
27	25
28	9
29	17
39	59
40	21
41	86
42	21
43	11
51	13
53	11
55	13
57	16
65	43
66	261
67	98
68	21
69	999
70	51
71	11
73	13
77	42
78	27
79	37
80	21
85	47
86	38
87	31
91	51
92	10
93	12
97	15
103	10
105	28
106	22
115	4
121	34
134	33
135	173
136	19
152	28
153	10
