Mass Spectrum: 3-[2-(2-Ethoxycarbonyl-1-methyl-ethylidenamino)-ethylimino]-butanoic acid, ethyl ester
Formula: C14H24N2O4
CAS: 10054-25-8
Molecular weight: 284
m/z	intensity
14	3
15	12
16	3
17	13
18	37
19	1
26	10
27	79
28	60
29	178
30	57
31	27
32	2
36	1
38	3
39	44
40	17
41	91
42	131
43	33
44	23
45	16
46	2
52	3
53	9
54	37
55	114
56	35
57	17
58	4
59	10
60	3
65	2
66	3
67	51
68	79
69	53
70	44
71	173
72	10
73	7
75	3
76	5
80	18
81	19
82	153
83	43
84	46
85	19
86	9
92	3
93	2
94	9
95	19
96	999
97	110
98	57
99	10
100	3
101	3
105	5
108	9
109	75
110	53
111	11
112	9
113	8
114	30
115	9
121	2
122	2
123	3
124	3
125	3
126	9
127	6
128	5
129	3
130	75
131	5
135	2
136	2
137	3
138	3
140	2
142	440
143	114
144	11
149	3
150	2
151	11
152	5
153	2
155	355
156	47
157	8
163	2
165	22
166	4
167	2
168	5
169	3
171	2
182	3
184	2
193	67
194	10
195	2
196	3
197	6
209	2
210	1
211	13
212	2
237	1
239	63
240	9
241	3
254	1
269	2
284	59
285	9
