Mass Spectrum: Ergometrinine, 2TMS derivative
Formula: C25H39N3O2Si2
CAS: 1005254-12-5
Molecular weight: 469
m/z	intensity
29	4
41	17
42	29
43	26
44	63
45	73
46	6
47	10
55	36
56	18
58	36
59	39
60	4
61	4
68	4
69	10
70	7
71	9
72	18
73	999
74	99
75	99
76	7
77	7
79	4
81	9
82	4
83	13
84	8
85	14
86	4
88	4
89	5
93	4
94	4
97	10
100	18
101	6
102	5
103	28
105	5
109	8
112	103
113	8
115	17
116	8
117	4
125	7
126	6
127	8
128	25
129	6
130	17
131	7
132	6
133	7
137	4
139	8
140	8
146	20
147	10
148	6
151	17
152	30
153	18
154	22
155	8
164	5
165	22
166	12
167	17
168	14
169	6
174	9
177	7
178	18
179	20
180	26
181	18
182	8
185	4
186	19
190	11
191	14
192	23
193	15
194	16
195	12
196	14
198	5
202	8
203	4
204	5
205	34
206	33
207	40
208	18
209	19
210	8
211	4
219	20
220	34
221	65
222	26
223	18
224	13
225	6
226	28
227	8
228	4
233	5
234	7
235	4
236	17
237	10
238	6
239	41
240	37
241	6
248	4
249	12
250	29
251	37
252	52
253	279
254	77
255	21
256	4
262	5
263	16
264	47
265	30
266	19
267	22
268	204
269	63
270	15
275	4
276	6
277	25
278	31
279	253
280	100
281	43
282	13
291	9
292	33
293	315
294	147
295	216
296	59
297	19
306	5
307	10
308	4
309	5
320	4
321	21
322	13
323	32
324	8
335	5
336	9
337	7
338	8
339	8
365	4
366	21
367	6
368	11
369	6
396	5
397	12
411	77
412	30
413	10
425	8
426	7
427	4
454	9
455	4
469	454
470	173
471	66
472	18
