Mass Spectrum: Methoxyformic acid, TMS derivative
Formula: C5H12O3Si
CAS: 100509-18-0
Molecular weight: 148
m/z	intensity
43	84
44	720
59	999
61	229
73	512
75	643
89	874
133	304
148	442
