Mass Spectrum: 3-(3-Chlorophenyl)-1,2-oxazole-5-carboxylic acid
Formula: C10H6ClNO3
CAS: 100517-43-9
Molecular weight: 223
m/z	intensity
35	30
36	81
37	63
38	144
39	227
40	155
41	216
42	107
43	115
44	203
45	999
49	41
50	440
51	240
52	41
53	36
55	63
56	30
57	87
59	15
60	22
61	84
62	138
63	190
64	44
65	34
67	51
68	36
69	31
70	27
71	75
73	149
74	189
75	641
76	193
77	35
83	18
84	34
85	81
86	52
87	87
88	50
89	33
97	35
99	50
101	28
102	89
111	411
112	35
113	144
114	48
115	16
123	127
124	21
125	47
133	26
137	51
139	18
150	239
151	32
152	74
153	11
177	26
178	603
179	48
180	203
181	16
223	147
224	23
225	49
226	8
