Mass Spectrum: 6,6-Dimethyl-2-methylenebicyclo[3.2.0]heptan-3-ol
Formula: C10H16O
CAS: 1005276-05-0
Molecular weight: 152
m/z	intensity
27	46
29	53
31	11
38	11
39	164
40	32
41	300
42	34
43	70
50	20
51	74
52	33
53	121
54	36
55	261
56	45
57	27
59	49
63	19
65	78
66	121
67	328
69	133
70	232
71	23
72	21
77	101
78	111
79	132
80	11
81	192
82	25
83	199
84	24
91	121
92	155
94	24
95	695
96	999
97	72
105	17
106	24
107	21
108	8
109	56
110	8
115	13
117	9
119	162
124	15
134	94
135	13
137	7
152	13
