Mass Spectrum: 1,3,2-Dioxaphosphorinane, 2-methoxy-5,5-dimethyl-, 2-oxide
Formula: C6H13O4P
CAS: 1005-96-5
Molecular weight: 180
m/z	intensity
40	31
41	233
42	23
43	25
45	65
47	23
51	10
53	45
54	16
55	116
56	833
57	50
58	10
59	28
65	11
67	106
68	416
69	58
71	50
74	233
77	10
79	31
95	200
96	63
110	16
113	999
114	13
117	10
125	100
126	20
127	31
152	46
165	28
180	15
