Mass Spectrum: 6,10,13-Trimethyltetradecyl isovalerate
Formula: C22H44O2
CAS: 100508-44-9
Molecular weight: 340
m/z	intensity
41	496
42	125
43	668
44	28
45	13
47	4
48	2
52	1
53	24
54	29
55	507
56	289
57	999
58	45
59	20
60	29
61	20
65	4
66	4
67	55
68	79
69	333
70	158
71	206
72	12
73	4
77	3
78	0
79	9
80	3
81	49
82	36
83	155
84	70
85	346
86	24
87	23
88	3
89	2
91	2
93	3
94	2
95	35
96	197
97	529
98	82
99	40
100	5
101	8
102	36
103	515
104	27
105	3
107	0
108	1
109	14
110	17
111	99
112	108
113	50
114	4
115	7
116	4
121	0
123	6
124	7
125	28
126	69
127	26
128	3
129	2
130	0
137	2
138	4
139	12
140	12
141	9
142	3
143	3
151	0
152	1
153	4
154	12
155	6
157	1
158	11
159	0
166	2
167	10
168	9
169	11
170	1
171	1
172	2
181	1
182	50
183	13
184	1
196	0
199	2
200	0
210	8
211	1
223	2
238	32
239	6
283	15
284	3
339	1
340	4
341	0
