Mass Spectrum: 2,6-Diamino-3H-pyrimidin-4-one
Formula: C4H6N4O
CAS: 100643-27-4
Molecular weight: 126
m/z	intensity
38	53
39	102
40	215
41	310
42	472
43	999
44	112
53	75
54	27
55	113
56	169
57	12
65	6
66	24
67	76
68	300
69	49
71	11
83	21
85	39
86	48
98	202
99	20
110	12
126	605
127	30
