Mass Spectrum: Phenol, 2-(4-benzyloxybenzylidenamino)-
Formula: C20H17NO2
CAS: 100627-66-5
Molecular weight: 303
m/z	intensity
33	0
34	1
35	0
36	2
37	1
39	72
40	19
41	12
42	1
43	4
44	3
45	1
46	0
48	0
50	13
51	36
52	14
53	7
54	1
55	5
56	1
57	2
58	0
60	1
61	1
63	33
65	175
66	9
67	1
68	0
69	2
70	1
71	1
73	1
74	2
75	4
76	8
77	19
78	8
79	4
80	2
81	1
82	0
83	1
84	1
85	0
86	0
87	1
89	14
91	999
92	74
93	16
94	4
95	0
96	0
97	0
98	0
99	0
100	0
101	1
102	4
103	3
104	1
105	1
106	1
107	1
108	1
109	2
110	0
111	0
112	0
113	0
114	0
115	3
116	1
117	1
119	3
120	24
121	2
122	0
123	0
125	0
126	1
127	8
128	12
129	10
130	2
131	0
132	1
133	0
135	0
137	0
138	0
139	2
140	2
141	1
142	0
143	0
144	0
149	1
150	0
151	0
152	1
153	2
154	15
155	6
156	6
157	2
158	1
159	0
164	0
165	1
166	2
167	4
168	1
169	0
170	0
171	0
172	0
177	0
178	0
179	0
180	0
181	1
182	3
183	12
184	26
185	3
186	0
194	0
195	2
196	1
197	1
198	1
199	0
208	0
209	0
210	1
211	7
212	54
213	11
214	1
225	0
226	0
241	0
242	0
256	0
272	0
274	0
286	1
287	0
300	0
301	4
302	12
303	125
304	27
305	3
306	0
