Mass Spectrum: 6H-Purin-6-one, 3,7-dihydro-3-methyl-
Formula: C6H6N4O
CAS: 1006-11-7
Molecular weight: 150
m/z	intensity
41	600
42	140
52	40
53	470
54	50
55	40
64	40
65	40
66	60
67	140
68	999
69	50
81	30
94	100
95	340
96	80
122	90
123	330
124	40
149	20
150	700
151	80
