Mass Spectrum: Bicyclo[3.3.1]non-3-en-2-ol, exo-
Formula: C9H14O
CAS: 10060-21-6
Molecular weight: 138
m/z	intensity
39	260
40	50
41	310
42	50
43	140
51	100
52	50
53	200
54	100
55	430
56	50
57	140
65	90
66	140
67	310
68	210
69	80
70	340
71	180
77	190
78	130
79	430
80	290
81	260
82	90
83	460
91	190
92	110
93	80
94	200
95	270
96	999
97	200
105	60
107	50
108	50
109	310
110	70
123	50
136	150
137	60
138	170
