Mass Spectrum: Benzenebutanoic acid, .alpha.-ethyl-.gamma.-oxo-, methyl ester
Formula: C13H16O3
CAS: 100612-53-1
Molecular weight: 220
m/z	intensity
12	0
13	0
14	1
15	49
16	1
17	3
18	9
19	0
25	0
26	4
27	38
28	15
29	35
30	3
31	4
32	0
33	1
36	0
37	0
38	3
39	26
40	3
41	30
42	4
43	8
44	1
45	4
49	0
50	23
51	90
52	8
53	8
54	2
55	35
56	8
57	3
58	0
59	38
60	1
61	0
62	2
63	4
64	1
65	7
66	1
67	1
68	1
69	14
70	2
71	2
72	0
73	8
74	8
75	7
76	20
77	371
78	46
79	3
80	0
81	1
82	0
83	8
84	1
85	2
86	0
87	7
88	1
89	3
90	1
91	16
92	4
93	1
94	0
95	0
96	0
97	1
98	0
99	0
100	0
101	27
102	3
103	5
105	999
106	81
107	6
108	0
109	0
110	0
111	0
112	0
113	0
114	0
115	14
116	3
117	2
118	1
120	415
121	44
122	3
123	0
125	0
126	0
127	1
128	4
129	2
130	0
131	4
132	4
133	6
134	2
135	0
137	0
139	0
141	1
142	1
143	4
144	1
145	6
146	1
147	1
149	0
150	0
159	8
160	38
161	8
162	1
163	0
165	0
167	0
171	1
173	1
174	0
175	0
176	0
177	0
178	0
187	1
188	2
189	74
190	10
191	2
192	5
193	0
202	1
203	0
205	0
209	0
219	0
220	17
221	3
222	0
