Mass Spectrum: N-Formyldithiocarbamic acid
Formula: C2H3NOS2
CAS: 100647-03-8
Molecular weight: 121
m/z	intensity
45	447
58	213
59	999
60	691
61	107
62	65
64	42
76	984
77	109
78	131
88	85
93	64
121	447
