Mass Spectrum: 3-tert-Butyl-5-phenyl-1,3-oxoazolidine
Formula: C13H19NO
CAS: 100617-74-1
Molecular weight: 205
m/z	intensity
14	1
15	19
26	4
27	40
28	30
29	118
30	187
31	9
37	2
38	6
39	69
40	11
41	219
42	160
43	899
44	375
45	19
46	4
49	1
50	21
51	68
52	20
53	15
54	16
55	115
56	53
57	401
58	71
59	33
60	9
61	1
62	6
63	22
64	8
65	37
66	4
67	7
68	19
69	10
70	270
71	36
72	48
73	72
74	9
75	9
76	9
77	171
78	64
79	146
80	16
81	6
82	9
83	35
84	69
85	17
86	156
87	10
88	1
89	31
90	30
91	212
92	29
93	11
94	20
95	30
96	3
97	3
98	31
99	999
100	259
101	20
102	13
103	119
104	104
105	124
106	66
107	454
108	36
109	4
110	1
111	1
112	2
113	1
114	3
115	14
116	6
117	29
118	132
119	53
120	123
121	39
122	9
123	6
124	1
125	2
126	1
127	12
128	50
129	19
130	12
131	9
132	7
133	21
134	8
135	5
136	2
137	17
138	2
139	1
141	4
142	4
143	16
144	30
145	15
146	7
147	9
148	44
149	36
150	6
151	1
152	1
153	1
154	1
155	2
156	2
157	4
158	5
159	7
160	998
161	136
162	35
163	7
164	1
165	2
167	2
168	1
169	3
170	8
171	3
172	1
173	1
174	18
175	10
176	5
177	3
178	4
179	2
180	16
181	3
182	2
183	1
184	1
185	16
186	3
187	4
188	2
189	4
190	781
191	107
192	14
193	1
200	9
201	2
202	1
203	7
204	8
205	39
206	6
