Mass Spectrum: Lanceol, cis
Formula: C15H24O
CAS: 10067-28-4
Molecular weight: 220
m/z	intensity
27	61
29	118
31	42
39	185
40	62
41	449
43	631
45	23
51	62
52	42
53	272
54	37
55	344
56	52
57	120
65	131
66	74
67	618
68	299
69	186
77	346
78	74
79	742
80	173
81	354
82	51
83	107
84	315
91	465
92	289
93	999
94	497
95	336
97	75
98	31
103	53
105	454
106	190
107	491
108	127
109	145
117	85
118	198
119	680
120	207
121	314
122	62
123	295
125	41
126	13
131	168
132	107
133	180
134	590
135	129
136	37
139	43
145	106
146	35
147	68
159	424
160	86
161	56
173	68
174	54
187	130
188	21
189	46
201	11
202	108
203	22
