Mass Spectrum: Methyl 7-hydroxy-9-(methoxymethoxy)-6,8-dimethyl-2,4-nonadienoate, (E,E)-, TBDMS derivative
Formula: C20H38O5Si
CAS: 100649-15-8
Molecular weight: 386
m/z	intensity
26	1
27	10
29	30
30	2
31	6
39	17
40	4
41	55
42	10
43	41
44	12
45	999
46	18
47	12
50	4
51	6
52	5
53	15
54	4
55	43
56	11
57	45
58	15
59	174
60	12
61	21
62	2
63	3
65	8
66	4
67	14
68	6
69	27
70	6
71	26
72	7
73	837
74	58
75	243
76	15
77	39
78	9
79	68
80	24
81	37
82	6
83	13
84	4
85	44
86	4
87	28
88	4
89	438
90	32
91	49
92	8
93	30
94	6
95	21
96	4
97	11
98	4
99	22
100	6
101	31
102	3
103	9
104	3
105	29
106	4
107	35
108	25
109	15
110	2
111	22
112	3
113	7
114	6
115	293
116	33
117	24
118	4
119	69
120	8
121	22
122	2
123	6
124	2
125	7
126	2
127	5
128	2
129	31
130	3
131	53
132	6
133	30
134	3
135	11
136	2
137	61
138	6
139	21
140	3
141	10
142	4
143	9
144	1
145	747
146	86
147	36
148	4
149	19
150	2
151	21
152	9
153	9
154	0
155	3
156	1
157	4
158	0
159	19
160	3
161	35
162	4
163	8
164	0
165	16
166	2
167	4
168	0
169	3
170	1
171	7
172	36
173	19
174	2
175	12
176	1
177	5
178	0
179	11
180	0
181	3
182	0
183	1
185	922
186	144
187	349
188	46
189	14
190	0
191	6
192	1
193	16
194	5
195	6
196	7
197	5
198	0
199	4
200	0
201	4
202	0
203	3
204	0
205	7
206	0
207	0
209	4
211	7
212	0
213	0
217	4
219	0
223	14
224	1
225	7
226	1
227	5
228	0
229	1
235	9
236	1
237	2
239	1
245	1
247	27
248	3
249	1
251	0
252	0
253	13
254	18
255	4
256	0
257	2
259	1
265	2
267	12
268	2
269	4
270	0
271	3
272	0
279	1
282	0
283	52
284	11
285	4
296	0
297	13
298	2
299	16
300	3
301	0
325	4
329	10
330	2
354	1
355	6
356	2
