Mass Spectrum: 6-Hydroxy-3-[2-methyl-2-[2-hydroxy-3-(2-cyanophenyl)propylamino]propyl]indol
Formula: C22H25N3O3
CAS: 100634-12-6
Molecular weight: 379
m/z	intensity
62	10
63	64
64	23
65	13
68	15
70	999
71	441
72	79
75	18
77	13
79	10
82	23
84	15
89	89
90	41
91	41
96	77
97	10
98	36
100	191
101	15
102	28
103	13
104	10
114	43
116	5
117	69
118	56
119	26
120	43
130	23
132	23
133	20
145	125
146	151
147	46
158	38
160	8
172	8
187	13
188	15
217	41
233	556
234	82
