Mass Spectrum: Methyl 3-hydroxy-1,2-oxazole-5-carboxylate
Formula: C5H5NO4
CAS: 10068-07-2
Molecular weight: 143
m/z	intensity
33	16
34	4
35	9
36	58
37	49
38	207
39	438
40	196
41	737
42	349
43	225
44	365
45	152
46	6
47	5
50	24
51	25
52	91
53	696
54	163
55	336
56	999
57	66
58	12
59	680
60	64
61	4
63	2
64	2
67	190
68	111
69	193
70	42
71	10
72	6
74	7
75	3
77	2
78	5
80	2
81	5
82	32
83	161
84	53
85	156
86	40
87	14
88	11
91	9
94	1
98	103
99	7
100	11
101	15
105	3
112	966
113	53
114	11
115	7
116	12
117	1
127	18
128	19
129	7
130	6
143	837
144	53
145	8
