Mass Spectrum: L-Alanine, methyl ester
Formula: C4H9NO2
CAS: 10065-72-2
Molecular weight: 103
m/z	intensity
26	11
27	71
28	183
29	82
30	60
31	19
33	82
39	11
40	27
41	49
42	183
43	60
44	999
45	38
56	11
57	11
60	19
61	19
72	41
88	49
103	60
