Mass Spectrum: l-Arabinitol, 2,4-deoxy-3-O-[(1,1-dimethylethyl)dimethylsilyl]-2,4-dimethyl-5-O-(phenylmethyl)-
Formula: C20H36O3Si
CAS: 100649-11-4
Molecular weight: 352
m/z	intensity
27	4
28	21
29	13
31	8
39	9
40	2
41	29
42	3
43	20
44	2
45	10
47	9
51	3
53	3
55	16
56	3
57	21
58	7
59	29
60	3
61	8
63	3
65	31
66	1
67	5
68	2
69	11
70	2
71	12
72	4
73	140
74	15
75	174
76	12
77	27
78	3
79	13
81	6
82	3
83	21
84	2
85	14
86	3
87	4
89	111
90	16
91	999
92	86
93	5
95	25
96	3
97	7
99	11
100	2
101	5
103	3
105	41
106	4
107	18
108	4
111	12
112	5
113	25
114	6
115	38
116	4
117	10
118	2
119	4
128	2
129	8
130	2
131	21
132	7
133	4
135	4
141	2
143	7
145	57
146	7
147	9
149	3
155	2
157	4
159	4
161	2
165	2
169	2
171	2
173	17
174	3
181	2
183	2
185	11
186	2
187	95
188	14
189	6
195	3
199	2
203	65
204	11
205	4
220	3
221	4
243	1
293	11
294	3
295	8
296	2
