Mass Spectrum: 1,4-Dioxan-2-ol, TMS derivative
Formula: C7H16O3Si
CAS: 100604-29-3
Molecular weight: 176
m/z	intensity
23	0
24	0
25	1
26	20
27	94
28	134
29	140
30	35
31	94
33	1
34	0
36	1
37	1
38	1
39	7
40	0
41	11
42	37
43	262
44	60
45	451
46	28
47	163
48	7
49	4
50	0
51	1
52	0
53	11
54	5
55	24
56	6
57	36
58	112
59	282
60	46
61	111
62	7
63	5
64	0
65	0
66	2
67	3
68	5
69	3
70	5
71	21
72	51
73	999
74	109
75	770
76	56
77	36
78	1
79	1
80	1
81	0
82	0
83	1
84	0
85	8
86	14
87	19
88	7
89	401
90	35
91	20
92	1
93	0
94	2
95	2
96	0
97	5
98	2
99	5
100	2
101	188
102	27
103	944
104	82
105	37
106	2
107	0
108	0
109	0
110	0
112	0
113	1
114	0
115	3
116	38
117	611
118	63
119	461
120	44
121	22
122	3
123	0
129	1
130	0
131	1
132	1
133	3
134	0
136	0
137	0
139	0
141	0
142	1
143	0
144	0
145	2
146	327
147	39
148	13
149	0
150	0
159	0
160	0
161	10
162	0
165	0
175	0
176	90
177	10
178	3
179	0
