Mass Spectrum: Propane, 1-chloro-3-[2-(2-methoxyethoxy)ethoxy]-
Formula: C8H17ClO3
CAS: 100688-50-4
Molecular weight: 196
m/z	intensity
22	1
25	0
26	16
27	104
29	128
30	13
31	249
33	9
35	2
36	17
37	2
38	5
39	65
40	10
41	461
42	44
43	113
44	42
45	801
46	21
47	11
49	32
50	0
51	8
53	0
54	1
55	7
56	5
57	20
58	259
59	999
60	34
61	3
62	1
63	10
64	0
65	2
67	0
69	0
71	14
72	14
73	18
74	1
75	11
76	49
77	102
78	11
79	35
80	0
84	3
85	30
86	4
87	11
89	166
90	9
91	5
92	4
93	4
94	1
95	1
101	22
102	8
103	15
104	1
105	36
106	2
107	24
108	1
109	6
115	8
119	1
120	43
121	58
122	18
123	19
124	2
129	17
130	2
133	1
136	0
137	2
149	1
151	17
152	1
153	4
164	0
