Mass Spectrum: Benzenesulfonic acid, 4-methyl-, 7-chlorobicyclo[2.2.1]hept-2-yl ester
Formula: C14H17ClO3S
CAS: 100793-59-7
Molecular weight: 300
m/z	intensity
33	0
34	1
35	3
36	10
37	5
38	24
39	319
40	57
41	265
42	22
43	27
44	19
45	13
46	1
47	1
48	7
49	19
50	32
51	88
52	34
53	132
54	34
55	53
56	5
57	10
58	3
59	2
60	4
61	7
62	22
63	88
64	47
65	486
66	812
67	519
68	43
69	15
70	3
71	4
72	1
73	9
74	7
75	61
77	185
78	40
79	197
80	42
81	249
82	24
83	4
84	2
85	2
86	3
87	6
88	15
89	81
90	69
91	999
92	209
93	151
94	14
95	22
96	2
97	2
98	1
99	5
100	48
101	47
102	18
103	16
104	3
105	11
106	8
107	29
108	20
109	104
110	169
111	15
112	1
113	3
114	0
115	7
116	1
117	3
118	1
119	2
120	0
121	2
122	1
123	2
124	3
125	2
126	1
127	9
128	212
129	25
130	64
131	7
132	0
133	1
134	28
135	3
136	1
137	0
139	25
140	4
141	2
142	0
143	1
144	2
145	23
146	2
147	8
148	1
149	2
151	4
152	1
153	2
155	484
156	47
157	64
158	5
159	2
166	0
167	0
170	10
171	5
172	14
173	6
174	1
183	1
185	0
191	1
193	0
197	0
198	81
199	51
200	8
201	2
211	1
238	1
257	1
265	1
272	0
300	2
302	1
