Mass Spectrum: 4-(Phenylmethyl)benzenemethanamine
Formula: C14H15N
CAS: 100710-32-5
Molecular weight: 197
m/z	intensity
29	27
30	328
31	6
37	1
38	7
39	76
40	6
41	16
42	7
50	24
51	61
52	16
53	11
54	7
60	1
62	10
63	38
64	10
65	71
66	7
67	2
69	2
70	3
71	11
74	6
75	9
76	18
77	52
78	22
79	90
80	8
82	13
83	8
85	11
86	2
87	5
88	5
89	39
90	10
91	325
92	30
93	4
96	1
97	25
98	26
99	1
101	2
102	7
103	9
104	12
106	999
107	75
108	2
113	3
114	1
115	29
116	7
117	5
118	20
119	20
120	2
126	4
127	7
128	14
129	3
130	1
139	13
140	2
141	9
142	1
150	1
151	10
152	47
153	17
154	3
155	1
163	10
164	13
165	133
166	42
167	21
168	5
176	6
177	5
178	39
179	107
180	66
181	16
190	2
191	1
192	2
193	13
194	7
195	4
196	121
197	53
