Mass Spectrum: Acetone, dipentyl acetal
Formula: C13H28O2
CAS: 10076-57-0
Molecular weight: 216
m/z	intensity
24	0
25	0
26	31
27	351
28	28
29	53
30	19
31	328
33	1
34	0
36	0
37	8
38	16
39	269
40	45
41	754
42	706
43	999
44	99
45	35
46	2
49	1
50	6
51	8
52	3
53	26
54	15
55	600
56	82
57	111
58	639
59	965
60	36
61	52
62	1
63	1
65	1
66	0
67	8
68	3
69	52
70	306
71	82
72	6
73	4
74	0
75	0
79	0
80	0
81	0
83	0
84	0
85	8
86	3
87	2
89	0
95	0
99	24
100	1
101	0
109	0
111	0
113	128
114	11
115	0
126	0
128	5
129	170
130	16
131	6
132	0
199	0
201	4
202	0
