Mass Spectrum: Norbornane, carbanilide
Formula: C14H17NO
CAS: 100717-55-3
Molecular weight: 215
m/z	intensity
26	3
27	43
28	2
29	14
37	2
38	7
39	82
40	19
41	112
42	6
43	3
50	8
51	37
52	11
53	41
54	11
55	51
56	3
62	2
63	11
64	12
65	79
66	51
67	179
68	19
69	3
70	1
74	2
75	2
76	3
77	104
78	11
79	29
80	9
81	12
82	2
89	1
90	2
91	28
92	36
93	999
94	115
95	661
96	46
97	2
103	2
104	7
105	2
106	12
107	4
113	1
115	2
117	3
118	5
119	18
120	19
121	4
122	30
123	28
124	3
128	1
130	5
131	1
132	5
133	1
134	2
135	4
143	1
144	2
145	1
146	4
147	2
148	77
149	7
158	2
160	3
161	3
172	2
174	7
186	12
187	3
214	3
215	182
216	30
217	4
