Mass Spectrum: 4-Pyridinemethanol, acetate (ester)
Formula: C8H9NO2
CAS: 1007-48-3
Molecular weight: 151
m/z	intensity
38	40
39	200
43	999
50	80
51	140
52	80
53	90
63	50
64	60
65	130
78	40
79	60
80	240
91	60
92	150
108	160
109	880
110	70
151	270
152	30
