Mass Spectrum: N-Methyl-N-phenyl-2-pyridinecarboxamide
Formula: C13H12N2O
CAS: 100723-89-5
Molecular weight: 212
m/z	intensity
15	1
26	1
27	12
28	11
30	3
37	1
38	3
39	18
40	1
41	1
42	2
50	13
51	114
52	36
53	6
54	1
62	2
63	9
64	8
65	11
66	3
74	2
75	3
76	6
77	128
78	614
79	445
80	43
81	1
83	4
84	1
89	1
90	4
91	11
92	9
93	9
98	1
102	1
103	1
104	32
105	47
106	999
107	128
108	6
114	1
115	2
116	1
117	4
118	1
119	26
120	6
127	4
128	3
129	1
130	2
134	9
135	1
140	2
141	3
142	3
143	1
146	2
153	1
154	26
155	22
156	9
157	1
166	1
167	4
168	15
169	5
181	3
182	3
183	60
184	34
185	5
196	1
197	4
211	40
212	955
213	184
214	17
215	1
