Mass Spectrum: 1H-Pyrrole, 1-(3-bromopropyl)-
Formula: C7H10BrN
CAS: 100779-91-7
Molecular weight: 187
m/z	intensity
65	10
66	17
67	52
68	22
77	24
78	73
79	45
80	828
81	999
82	62
93	76
94	14
95	11
103	11
106	89
107	39
108	261
109	19
117	14
118	13
187	674
188	162
189	638
190	149
