Mass Spectrum: 1,3,5-Triazine-2,4-diamine, 6-chloro-N-ethyl-
Formula: C5H8ClN5
CAS: 1007-28-9
Molecular weight: 173
m/z	intensity
35	30
36	120
37	10
38	50
39	30
40	50
42	250
43	870
44	999
45	20
52	20
53	80
54	30
55	220
56	20
62	90
64	50
66	10
67	50
68	480
69	230
70	20
71	50
79	70
80	20
88	90
90	30
92	160
94	80
95	50
96	80
97	30
102	20
104	160
105	20
106	50
110	180
111	20
116	20
130	100
131	20
132	50
139	20
145	340
146	30
147	110
148	20
158	470
159	30
160	160
161	30
172	80
173	500
174	70
175	170
176	20
