Mass Spectrum: 3-Pyridinemethanol, acetate
Formula: C8H9NO2
CAS: 10072-09-0
Molecular weight: 151
m/z	intensity
15	232
26	87
27	104
28	78
29	99
31	45
33	10
34	18
35	1
37	82
38	90
39	370
40	56
41	62
42	78
43	999
44	54
46	40
49	13
50	115
51	156
52	112
53	104
54	4
55	23
56	9
59	10
61	47
62	65
63	114
64	206
65	256
66	56
68	9
71	20
73	11
74	10
76	31
78	115
79	67
80	218
81	74
82	9
85	9
86	11
87	12
89	20
91	440
92	463
93	82
99	9
101	21
104	19
105	11
106	68
108	316
109	564
110	91
120	21
123	9
136	142
137	27
138	9
150	3
151	348
152	39
153	1
