Mass Spectrum: 1,3,2-Dioxaphosphorinane, 2-ethoxy-5,5-dimethyl-
Formula: C7H15O3P
CAS: 1007-57-4
Molecular weight: 178
m/z	intensity
37	7
39	465
40	113
41	999
42	185
43	165
44	14
45	32
47	448
48	61
49	20
50	12
51	23
53	131
55	703
56	812
57	130
58	107
59	8
61	5
62	6
63	10
65	862
66	17
67	163
68	425
69	629
70	238
71	100
72	6
73	4
75	5
76	32
77	87
78	20
79	14
80	13
81	28
82	77
83	525
84	4
85	30
86	107
87	5
91	34
93	460
94	19
95	21
96	133
97	41
104	5
105	6
106	4
109	54
110	62
111	315
112	6
113	7
117	7
119	16
121	11
122	24
123	12
124	10
133	269
134	26
135	124
136	9
137	25
148	44
149	43
150	273
151	285
152	17
163	93
164	9
178	235
179	16
