Mass Spectrum: Phenylalanine, N-Trifluoroacetyl-4-amino-
Formula: C11H11F3N2O3
CAS: 100892-80-6
Molecular weight: 276
m/z	intensity
41	25
42	16
43	14
44	29
45	86
46	15
47	2
48	0
49	0
50	27
51	62
52	42
53	35
54	20
55	9
56	5
57	5
58	8
59	2
60	2
61	2
62	7
63	27
64	11
65	45
66	27
67	14
68	2
69	178
70	4
71	2
72	1
73	4
74	5
75	5
76	9
77	160
78	91
79	66
80	25
81	3
82	1
83	3
84	1
85	1
86	11
87	2
88	1
89	32
90	25
91	49
92	13
93	27
94	8
95	4
96	19
97	12
98	0
99	0
100	0
101	6
102	5
103	5
104	40
105	33
106	481
107	999
108	2
109	0
110	1
111	1
112	0
113	1
114	2
115	9
116	17
117	41
118	53
119	21
120	18
121	4
122	8
123	1
124	10
125	1
126	0
127	1
128	2
129	1
130	1
131	9
132	18
133	18
134	25
135	7
136	7
137	10
138	1
139	0
140	0
141	0
142	1
143	4
144	2
145	32
146	23
147	9
148	8
149	2
150	0
151	0
152	0
153	0
154	0
155	0
156	0
157	0
158	0
159	1
160	29
161	12
162	23
163	97
164	12
165	2
166	1
167	0
168	0
169	0
170	6
171	0
173	1
174	0
175	1
176	6
177	3
178	1
179	0
180	1
181	0
182	1
183	0
186	0
187	0
188	0
189	1
190	0
191	2
195	0
196	0
202	1
203	0
207	1
209	4
210	1
211	6
212	0
213	3
214	1
215	1
221	0
223	0
224	0
229	3
230	5
231	10
232	1
237	0
239	0
244	2
245	0
254	0
257	1
258	1
259	0
260	1
261	1
262	0
273	0
274	0
276	290
277	40
278	4
279	0
