Mass Spectrum: Boron, (bromodifluoromethyl)(N,N-dimethylmethanamine)difluoro-, (t-4)-
Formula: C4H9BBrF4N
CAS: 100809-54-9
Molecular weight: 237
m/z	intensity
27	30
28	34
29	24
30	78
31	115
33	2
36	1
38	1
39	5
40	16
41	24
42	174
43	24
44	20
45	10
46	1
47	0
48	20
49	79
50	20
51	2
52	1
53	0
54	2
55	3
56	9
57	16
58	465
59	154
60	6
61	0
62	0
63	1
65	0
66	1
67	0
68	1
69	2
70	1
71	7
72	5
73	3
74	10
75	9
76	28
77	4
78	4
79	8
80	4
81	9
82	2
83	0
85	0
88	1
89	2
90	13
91	54
92	224
93	57
94	2
98	11
99	42
100	0
104	0
105	1
106	3
107	238
108	999
109	34
110	2
111	3
112	1
123	0
124	2
126	0
128	1
129	4
130	0
131	7
136	0
140	0
151	1
152	4
153	4
154	4
155	2
157	16
158	67
159	3
160	0
161	2
167	3
168	9
169	3
170	10
217	0
218	2
219	0
220	1
228	0
230	1
