Mass Spectrum: Benzonitrile, 4-(4'-ethyl[1,1'-bicyclohexyl]-4-yl)-2-fluoro-
Formula: C21H28FN
CAS: 100822-13-7
Molecular weight: 313
m/z	intensity
27	79
29	142
39	100
41	529
42	46
46	76
51	14
53	70
54	145
55	522
56	39
57	46
65	35
67	184
69	999
70	49
77	32
79	91
80	38
81	249
82	95
83	64
91	19
93	18
94	24
95	110
96	38
97	33
107	45
108	39
109	94
110	127
111	477
112	45
120	20
121	63
122	38
134	249
135	55
140	23
146	34
147	170
148	121
149	27
158	40
159	18
160	111
161	32
163	37
172	37
173	24
174	33
175	22
186	63
187	18
188	33
189	94
190	74
192	32
200	27
201	60
202	98
203	101
204	77
207	25
216	31
284	28
285	11
293	21
313	248
314	59
315	6
