Mass Spectrum: Furan-2,4-dicarbonitrile, 2,3-dihydro-5-amino-2-phenyl-
Formula: C12H9N3O
CAS: 100805-20-7
Molecular weight: 211
m/z	intensity
33	2
34	0
36	5
37	23
38	65
39	72
40	20
41	14
42	37
43	11
44	4
45	3
50	275
51	453
52	151
53	34
54	3
55	3
56	2
57	1
61	9
62	18
63	25
64	12
65	33
66	4
67	1
69	0
70	0
71	0
73	16
74	57
75	42
76	136
77	601
78	54
79	21
80	8
81	3
82	3
83	0
84	1
85	3
86	2
87	2
88	2
89	9
90	5
91	17
92	1
97	0
98	1
99	0
100	1
101	3
102	7
103	7
104	179
105	999
106	78
107	12
108	0
109	0
113	0
115	0
117	0
118	1
119	0
127	0
128	1
129	0
130	1
149	0
155	0
183	12
184	55
185	6
