Mass Spectrum: Acetamide, N-(3,4,5,6-tetrahydro-4,6-dioxo-2-mercapto-5-pymidyl)-
Formula: C6H7N3O3S
CAS: 10082-59-4
Molecular weight: 201
m/z	intensity
33	15
34	3
35	3
36	15
38	10
39	7
40	15
41	34
43	999
44	200
45	104
47	13
48	1
49	0
50	1
51	4
52	8
53	17
54	36
55	13
56	10
57	15
59	106
60	110
61	18
62	19
64	2
65	0
66	1
67	2
68	9
69	28
70	18
71	60
72	225
76	34
78	3
79	1
80	2
81	2
82	3
83	2
84	7
86	42
87	6
88	2
89	2
90	0
91	0
92	0
93	0
94	0
95	1
96	3
97	3
100	180
101	7
103	20
104	14
105	3
106	0
107	0
108	0
109	0
110	2
111	1
112	1
114	21
115	1
116	1
117	3
118	0
119	0
120	0
123	1
124	4
125	5
126	2
127	4
128	1
130	20
131	8
132	1
133	0
134	0
139	0
140	1
142	54
143	3
144	2
145	0
149	0
150	0
151	0
152	0
153	0
154	0
159	442
160	23
161	18
162	1
166	0
167	0
169	0
172	1
173	0
182	0
183	0
186	1
187	0
198	7
201	407
202	29
203	20
204	1
205	0
