Mass Spectrum: 2,4,6-Pyrimidinetrione, 5,5-diallyl-1-(methylthiomethyl)-
Formula: C12H16N2O3S
CAS: 100849-46-5
Molecular weight: 268
m/z	intensity
41	999
42	133
45	331
46	155
47	248
51	95
52	114
53	278
55	105
56	377
61	643
65	129
67	120
68	169
70	105
77	178
79	227
80	130
81	150
91	159
93	197
102	64
108	66
109	120
121	105
136	69
178	31
179	59
180	138
220	35
221	44
268	130
