Mass Spectrum: 1-Ethoxypentan-3-ol
Formula: C7H16O2
CAS: 100910-92-7
Molecular weight: 132
m/z	intensity
26	22
27	155
28	364
29	567
30	18
31	869
32	2
39	40
40	7
41	150
42	43
43	94
44	41
45	683
46	17
47	98
53	12
54	5
55	79
56	39
57	644
58	40
59	999
60	21
61	6
67	10
68	10
69	49
70	31
71	17
72	6
73	7
74	70
75	18
83	4
84	5
85	185
86	58
87	2
99	30
101	9
103	171
104	5
114	36
