Mass Spectrum: Imidazo[4,5-d]imidazole-2,5-(1H,3H)dione, tetrahydro-1,3,4,6-tetramethyl-
Formula: C8H14N4O2
CAS: 10095-06-4
Molecular weight: 198
m/z	intensity
35	1
37	0
38	2
39	5
40	35
41	100
42	999
43	129
44	44
45	1
47	1
51	1
52	9
53	8
54	17
55	95
56	155
57	46
58	56
59	3
60	0
65	0
66	2
67	10
68	13
69	104
70	25
71	72
72	61
73	4
77	0
78	0
79	0
80	1
81	4
83	392
84	74
85	179
86	27
87	2
88	1
94	0
95	2
96	3
97	32
98	21
99	36
100	4
101	5
102	0
106	0
108	1
109	3
111	147
112	643
113	55
114	4
115	0
122	0
124	5
126	449
127	34
128	3
129	0
131	0
136	0
138	1
139	11
140	91
141	275
142	24
143	2
149	0
153	1
154	1
155	1
156	6
157	1
167	0
169	0
170	0
181	0
183	0
196	5
198	685
199	68
200	6
201	0
