Mass Spectrum: 6-Bromohexanoic acid, 2-ethylhexyl ester
Formula: C14H27BrO2
CAS: 100912-95-6
Molecular weight: 306
m/z	intensity
25	2
26	15
27	65
28	28
29	78
30	3
31	5
35	2
36	14
37	3
38	6
39	78
40	19
41	372
42	98
43	179
44	16
45	5
48	2
49	1
50	6
51	9
52	6
53	37
54	35
55	378
56	176
57	368
58	18
59	7
60	61
61	22
62	2
63	2
65	8
66	5
67	45
68	58
69	631
70	999
71	269
72	18
73	33
74	40
75	3
77	6
78	3
79	12
80	10
81	18
82	42
83	262
84	141
85	15
86	15
87	32
88	2
91	6
92	1
93	3
94	1
95	10
96	26
97	144
98	30
99	25
100	4
101	15
102	1
104	2
105	2
106	2
107	22
108	3
109	20
110	12
111	29
112	651
113	113
114	68
115	81
116	7
117	4
118	1
119	1
121	4
123	2
125	2
126	2
127	11
128	3
129	16
130	2
132	3
133	3
134	4
135	3
137	2
139	5
141	18
142	5
143	2
144	1
148	5
149	20
150	6
151	21
152	2
154	1
155	2
157	20
158	2
167	1
169	1
172	7
173	1
176	4
177	594
178	41
179	575
180	38
181	4
191	1
193	1
194	32
195	105
196	40
197	104
198	7
205	1
206	1
220	14
221	2
222	13
223	2
233	3
234	1
235	3
236	1
249	4
251	4
259	2
261	1
263	1
265	1
277	2
279	2
