Mass Spectrum: Methanesulfonic acid, 2-methylphenyl ester
Formula: C8H10O3S
CAS: 1009-01-4
Molecular weight: 186
m/z	intensity
14	36
15	113
27	68
28	2
32	0
39	125
50	73
51	164
52	110
53	103
63	56
64	29
65	51
75	46
77	542
78	218
79	395
80	44
106	66
107	999
108	732
109	68
122	24
186	461
187	49
188	29
