Mass Spectrum: 2-Butenedioic acid (Z)-, bis(1-methylethyl) ester
Formula: C10H16O4
CAS: 10099-70-4
Molecular weight: 200
m/z	intensity
26	61
27	160
28	80
29	16
30	0
31	15
36	0
37	4
38	6
39	71
40	14
41	203
42	70
43	451
44	17
45	189
46	5
47	0
48	0
49	0
50	1
51	0
52	1
53	18
54	76
55	72
56	5
57	5
58	5
59	117
60	3
61	1
63	0
65	0
67	2
68	1
69	58
70	5
71	25
72	73
73	11
74	0
75	0
76	0
77	0
79	0
80	0
81	8
82	51
83	1
84	5
85	1
86	1
87	36
88	2
89	2
91	0
92	0
94	0
95	2
96	3
97	2
99	999
100	350
101	19
102	3
105	0
109	0
110	0
111	0
112	3
113	35
114	6
115	0
116	0
117	246
118	11
119	2
120	0
122	0
123	0
124	0
125	0
127	0
128	1
131	1
137	0
138	0
139	0
140	69
141	209
142	36
143	9
144	1
149	2
150	0
151	0
152	0
155	0
157	2
158	30
159	34
160	3
161	0
164	0
165	0
166	0
178	0
201	0
