Mass Spectrum: Carbamic acid, (1-cyanoethyl)-, 1,1-dimethylethyl ester, (R)-
Formula: C8H14N2O2
CAS: 100927-09-1
Molecular weight: 170
m/z	intensity
26	11
27	74
28	71
29	158
30	5
31	43
37	2
38	7
39	75
40	22
41	281
42	41
43	87
44	60
45	7
49	0
50	4
51	6
52	11
53	20
54	45
55	65
56	177
57	999
58	58
59	794
60	33
61	2
67	1
68	2
69	5
70	20
71	23
72	1
73	6
81	7
82	1
83	1
84	2
85	1
87	1
88	45
89	3
95	0
96	2
97	5
99	1
111	31
112	2
114	2
115	84
116	5
126	8
127	1
155	14
156	1
