Mass Spectrum: Butanamide, N-(4-hydroxyphenyl)-
Formula: C10H13NO2
CAS: 101-91-7
Molecular weight: 179
m/z	intensity
15	1
18	2
26	2
27	23
28	8
29	3
37	1
38	2
39	18
40	3
41	30
42	5
43	97
44	4
50	2
51	6
52	13
53	20
54	6
55	9
56	1
57	1
61	1
62	2
63	6
64	5
65	15
66	3
67	2
68	3
69	3
70	2
71	32
72	2
73	2
74	1
75	3
76	1
77	2
78	2
79	5
80	32
81	35
82	9
83	1
89	1
90	1
91	3
92	2
93	10
94	5
95	1
103	1
105	1
106	1
107	10
108	55
109	999
110	73
111	5
115	1
116	1
117	1
118	1
119	8
120	4
121	4
122	3
130	1
131	1
132	1
133	3
134	3
135	7
136	8
137	1
144	1
145	1
146	33
147	3
148	1
149	1
150	2
151	2
159	3
160	3
161	16
162	2
164	2
178	3
179	240
180	28
181	3
