Mass Spectrum: 2,2'-(Benzylimino)-diethanol
Formula: C11H17NO2
CAS: 101-32-6
Molecular weight: 195
m/z	intensity
14	1
15	9
17	3
18	13
26	3
27	15
28	13
29	8
30	10
31	8
36	3
37	1
38	3
39	25
40	3
41	14
42	47
43	8
44	7
45	20
50	7
51	16
52	5
53	2
54	3
55	2
56	21
57	1
58	8
59	2
60	1
61	1
62	4
63	13
64	5
65	70
66	4
67	1
70	1
72	11
73	2
74	11
75	2
76	2
77	12
78	5
79	8
81	3
82	1
86	4
89	14
90	10
91	999
92	91
93	4
100	1
102	1
103	3
104	8
105	9
106	12
107	6
108	1
116	2
117	5
118	13
119	3
120	61
121	6
129	1
130	2
131	2
132	5
133	3
134	2
146	6
147	1
148	1
150	5
151	2
154	1
158	1
159	1
160	1
162	18
163	4
164	399
165	47
166	3
175	1
176	1
177	1
194	4
195	7
196	1
