Mass Spectrum: N-(2-Phenylamino-ethyl)-pentadecafluoro-octanamide
Formula: C16H11F15N2O
CAS: 10107-44-5
Molecular weight: 532
m/z	intensity
69	49
77	100
79	39
104	40
106	999
107	90
118	30
120	70
532	80
