Mass Spectrum: 24S--Ethyl-5.alpha.-cholesta-2,22E-dien-6-one
Formula: C29H46O
CAS: 101046-86-0
Molecular weight: 410
m/z	intensity
55	999
69	500
83	466
95	330
97	364
123	386
149	114
175	57
215	45
229	129
245	159
269	227
271	557
283	102
297	227
298	170
312	80
349	20
367	375
381	45
395	36
410	466
411	227
