Mass Spectrum: 1,3,4-Thiadiazole, 2,5-bis(benzylthio)-
Formula: C16H14N2S3
CAS: 10106-21-5
Molecular weight: 330
m/z	intensity
34	1
39	27
40	6
41	5
43	0
44	3
45	19
47	1
50	9
51	25
52	7
53	1
55	0
58	3
59	7
61	1
62	5
63	28
64	14
65	138
66	7
69	2
70	0
71	2
73	1
74	2
76	24
77	29
78	11
79	7
86	0
87	1
88	0
89	39
91	999
92	73
93	6
95	0
97	0
102	1
103	1
104	6
105	14
106	5
108	0
109	0
111	5
113	0
115	16
116	7
117	4
118	2
119	3
120	17
121	45
122	20
123	23
124	8
125	1
126	0
127	2
128	2
129	0
130	0
131	0
132	2
133	3
134	24
135	36
136	5
140	1
141	1
142	3
143	32
144	5
145	0
146	3
148	593
149	68
150	29
151	3
152	0
153	1
154	1
155	0
156	1
160	1
161	3
162	6
163	4
165	1
166	0
167	2
169	3
170	1
171	1
173	0
174	3
175	1
178	1
179	1
180	9
181	30
182	5
183	3
184	1
185	11
186	1
188	1
189	5
190	1
191	12
192	2
196	0
203	0
206	6
207	3
208	11
209	1
217	10
218	1
221	4
223	2
224	0
231	3
235	1
239	11
240	15
241	3
242	1
243	0
254	0
264	0
297	42
298	6
299	4
328	5
330	519
331	94
332	77
333	9
334	2
