Mass Spectrum: Benzenepropanoic acid, .beta.,.beta.-dimethyl-
Formula: C11H14O2
CAS: 1010-48-6
Molecular weight: 178
m/z	intensity
26	4
27	45
28	59
29	35
30	1
31	14
32	6
36	0
37	2
38	7
39	105
40	10
41	193
42	26
43	122
44	6
45	39
46	1
47	0
48	0
49	1
50	30
51	92
52	23
53	2
54	21
55	3
56	6
57	6
58	5
59	3
60	8
61	1
62	8
63	29
64	7
65	45
66	4
67	2
68	0
69	2
70	2
71	1
72	1
73	1
74	10
75	13
76	13
77	118
78	57
79	75
80	6
81	1
82	0
83	0
84	0
85	1
86	1
87	3
88	1
89	14
90	5
91	422
92	33
93	4
94	1
95	1
96	0
97	0
98	0
99	0
100	0
101	3
102	17
103	67
104	12
105	15
106	1
107	1
108	0
109	0
110	0
111	0
112	0
113	2
114	2
115	68
116	21
117	120
118	57
119	999
120	97
121	197
122	17
123	1
124	0
125	0
126	0
127	2
128	3
129	3
130	0
131	6
132	9
133	2
134	0
135	1
136	0
139	0
141	0
142	0
143	0
144	1
145	25
146	3
157	0
158	0
159	3
160	4
161	2
162	0
163	20
164	2
165	0
178	195
179	23
180	1
