Mass Spectrum: Nitric oxide
Formula: NO
CAS: 10102-43-9
Molecular weight: 30
m/z	intensity
14	75
15	24
16	15
30	999
31	4
32	2
