Mass Spectrum: Piperazine, 1,4-bis(diethylphosphonatomethyl)-
Formula: C14H32N2O6P2
CAS: 101098-23-1
Molecular weight: 386
m/z	intensity
33	1
34	0
36	0
37	0
39	6
41	86
42	385
43	43
44	51
45	24
47	20
48	2
49	1
50	0
51	0
52	2
54	77
55	160
56	442
57	80
58	50
59	3
60	0
61	1
62	2
63	3
65	94
68	93
70	504
71	31
72	8
73	0
74	0
75	0
76	1
77	3
78	8
79	11
80	31
81	95
82	159
83	110
84	87
85	15
86	4
87	0
88	0
91	15
92	5
93	22
95	31
96	41
97	155
98	176
99	36
100	2
102	2
103	0
104	0
106	4
108	19
109	52
111	999
112	63
113	8
114	1
115	0
116	0
117	0
118	0
120	3
121	11
122	4
123	3
124	15
125	24
127	17
129	1
131	0
132	2
133	0
134	0
135	1
136	4
137	7
138	20
139	7
140	0
141	0
143	0
145	2
146	0
147	0
148	1
150	12
152	40
153	2
154	0
155	0
157	0
159	0
161	1
162	1
163	2
164	5
165	6
166	3
167	0
168	1
169	0
171	0
173	13
174	1
175	1
178	16
180	44
182	3
189	1
191	14
192	21
193	36
194	138
196	11
202	0
203	2
204	3
206	52
207	105
209	13
210	0
217	1
219	38
220	25
221	6
222	1
232	0
233	2
235	9
237	1
243	0
244	1
247	39
249	46
250	180
251	17
252	2
253	0
264	0
265	0
342	0
344	0
369	0
370	0
371	3
373	0
381	0
382	0
383	1
386	22
388	3
389	0
