Mass Spectrum: N-Chloroacetyl-dl-alpha-aminobutyric acid
Formula: C6H10ClNO3
CAS: 101072-54-2
Molecular weight: 179
m/z	intensity
13	1
14	10
15	20
16	1
17	2
18	7
25	1
26	15
27	76
28	195
29	40
30	44
31	11
35	4
36	35
37	2
38	11
39	31
40	9
41	130
42	76
43	64
44	26
45	49
46	11
47	1
48	6
49	96
50	3
51	34
52	5
53	2
54	11
55	14
56	84
57	38
58	999
59	39
60	2
64	1
67	1
68	13
69	21
70	14
71	26
72	2
73	5
74	253
75	9
76	9
77	103
78	6
79	33
80	1
82	9
83	4
84	82
85	5
86	15
87	24
88	6
92	1
93	1
94	56
95	3
96	16
97	3
98	13
99	14
100	47
101	4
102	76
103	5
104	2
105	3
106	1
107	1
116	2
117	3
118	5
119	2
120	4
122	2
125	4
126	4
130	2
132	1
133	34
134	652
135	54
136	216
137	13
138	1
144	13
145	2
146	2
150	17
151	21
152	6
153	8
161	3
163	1
179	39
180	3
181	12
182	1
