Mass Spectrum: Octadecanoic acid, 3-hydroxypropyl ester
Formula: C21H42O3
CAS: 10108-23-3
Molecular weight: 342
m/z	intensity
26	10
27	100
28	90
29	300
30	20
31	310
39	60
40	10
41	610
42	160
43	999
44	40
45	50
53	30
54	70
55	670
56	180
57	670
58	850
59	250
60	150
61	250
62	10
63	10
65	10
66	10
67	100
68	80
69	400
70	120
71	280
72	130
73	190
74	20
75	160
76	10
77	150
78	10
79	20
80	20
81	100
82	80
83	300
84	580
85	180
86	30
87	40
88	20
89	10
91	10
93	20
94	20
95	100
96	60
97	260
98	960
99	110
100	180
101	70
102	10
103	10
104	10
107	20
108	10
109	50
110	30
111	140
112	330
113	180
114	20
115	20
116	10
117	10
118	580
119	50
120	10
121	30
122	10
123	30
124	20
125	60
126	60
127	20
128	10
129	30
131	120
132	10
135	20
136	10
137	10
138	10
139	30
140	40
141	20
142	10
143	10
145	10
149	10
150	10
151	10
152	10
153	20
154	80
155	20
156	10
157	10
159	10
160	60
161	10
163	10
166	10
167	20
168	40
169	20
170	10
171	10
172	30
173	10
175	10
178	10
185	10
186	30
187	10
189	10
209	10
210	60
211	10
222	10
223	20
224	30
225	10
237	10
238	10
239	10
248	10
263	10
264	20
265	140
266	270
267	50
268	10
270	10
281	10
282	10
283	10
284	20
285	260
286	50
287	10
311	10
312	20
324	20
325	10
342	10
