Mass Spectrum: Bromoacetic acid, 2,2-dimethylpropyl ester
Formula: C7H13BrO2
CAS: 101001-73-4
Molecular weight: 208
m/z	intensity
25	1
26	10
27	32
28	11
29	83
30	3
31	4
35	4
36	34
37	2
38	11
39	52
40	9
41	168
42	42
43	87
44	4
45	4
49	4
50	20
51	26
52	53
53	16
54	4
55	166
56	179
57	999
58	46
59	1
67	2
69	12
70	43
71	58
72	11
73	67
74	3
75	3
76	2
77	4
78	12
79	92
80	6
81	4
82	6
83	3
87	13
91	1
92	3
93	53
94	5
95	53
96	2
108	4
110	1
111	1
120	6
121	227
122	11
123	218
124	5
129	7
139	3
141	3
151	2
152	2
153	87
154	5
155	83
156	3
193	35
194	3
195	35
196	2
