Mass Spectrum: d-Valine, N-[N-[(phenylmethoxy)carbonyl]-l-seryl]-, phenylmethyl ester
Formula: C23H28N2O6
CAS: 101067-14-5
Molecular weight: 428
m/z	intensity
26	1
27	8
28	14
29	6
30	9
31	4
38	2
39	18
40	2
41	15
42	26
43	13
44	4
45	1
50	6
51	16
52	5
53	4
54	2
55	25
56	21
57	6
58	5
59	1
60	38
61	3
62	2
63	8
64	3
65	48
66	3
68	1
69	6
70	6
71	5
72	140
73	11
74	3
75	1
76	1
77	29
78	7
79	44
80	4
82	1
83	5
84	2
85	4
86	36
87	7
88	1
89	11
90	13
91	999
92	108
93	6
97	1
98	5
99	3
100	1
104	11
105	5
106	2
107	33
108	43
109	4
113	1
115	1
116	11
117	1
118	3
120	2
124	3
125	1
126	1
127	2
130	1
132	10
133	9
134	2
141	1
142	3
143	1
144	1
145	1
147	1
148	1
149	1
150	71
151	8
157	4
159	1
162	38
163	5
164	3
167	2
170	5
176	2
177	25
178	5
179	1
180	2
181	3
185	61
186	10
187	1
190	2
192	1
194	21
195	5
203	2
208	5
210	2
213	11
214	1
222	24
223	3
229	1
231	22
232	2
236	1
238	2
239	12
240	2
249	8
250	1
251	2
253	6
255	1
272	1
293	41
294	7
295	1
319	1
320	1
321	1
337	1
353	1
385	1
398	31
399	8
400	1
428	3
429	2
