Mass Spectrum: 8-Bromo-3-methyl-7-(3-oxobutan-2-yl)-1H-purine-2,6-dione
Formula: C10H11BrN4O3
CAS: 101072-03-1
Molecular weight: 314
m/z	intensity
37	9
38	51
39	87
40	79
41	113
42	344
43	999
44	69
45	5
50	14
51	39
52	71
53	82
54	83
55	28
56	19
57	5
58	3
64	16
65	17
66	51
67	170
68	44
69	11
70	54
71	3
76	4
77	19
78	22
79	46
80	62
81	34
82	11
83	3
91	13
93	24
94	32
95	39
96	4
105	3
106	12
107	7
108	12
109	1
117	1
119	2
120	24
121	8
122	28
123	19
124	1
130	2
133	1
134	1
143	1
148	3
149	3
150	2
151	3
172	1
173	1
175	3
193	25
194	2
201	1
203	1
220	3
227	3
228	2
229	3
230	2
235	28
236	4
244	6
246	6
253	2
254	1
255	1
257	1
259	1
271	34
272	33
273	34
274	33
275	3
299	7
301	7
314	213
315	36
316	212
317	36
318	2
