Mass Spectrum: Nitrogen dioxide
Formula: NO2
CAS: 10102-44-0
Molecular weight: 46
m/z	intensity
14	96
16	223
30	999
46	370
47	1
