Mass Spectrum: Silane, trimethyl(1-methyl-1-propenyl)-, (E)-
Formula: C7H16Si
CAS: 10111-13-4
Molecular weight: 128
m/z	intensity
26	5
27	6
28	24
29	5
30	0
31	13
38	0
39	3
40	0
41	2
42	1
43	38
44	19
45	91
46	5
47	3
50	0
51	0
52	0
53	2
54	0
55	5
56	1
57	8
58	18
59	122
60	9
61	4
67	0
68	0
69	4
70	3
71	12
72	13
73	999
74	80
75	34
76	1
77	0
78	1
79	0
81	1
82	0
83	3
84	0
85	58
86	5
87	3
88	0
91	0
93	0
95	3
96	0
97	8
98	1
99	1
105	0
107	0
109	0
111	2
112	1
113	49
114	5
115	1
121	0
123	0
128	88
129	11
130	3
131	0
