Mass Spectrum: N-Ethyl-2-nitroaniline
Formula: C8H10N2O2
CAS: 10112-15-9
Molecular weight: 166
m/z	intensity
15	14
18	16
26	36
27	230
28	157
29	148
30	87
31	13
32	7
37	28
38	79
39	211
40	30
41	60
42	98
43	135
44	32
45	9
46	10
50	133
51	269
52	217
53	53
54	15
59	14
61	19
62	56
63	247
64	241
65	603
66	159
67	24
73	4
74	63
75	77
76	127
77	560
78	484
79	318
80	123
81	7
83	4
88	4
89	39
90	74
91	560
92	379
93	620
94	74
102	11
103	87
104	402
105	637
106	999
107	117
108	19
116	12
117	116
118	418
119	282
120	105
121	183
122	33
123	18
130	3
131	185
132	127
133	163
134	30
135	13
136	19
147	18
149	60
150	10
151	974
152	73
153	1
165	7
166	879
167	81
168	3
