Mass Spectrum: Urea, 1-benzyl-3-methyl-3-phenyl-
Formula: C15H16N2O
CAS: 101112-21-4
Molecular weight: 240
m/z	intensity
33	16
34	17
36	7
37	11
38	36
39	176
40	62
41	39
42	20
43	18
44	62
45	3
48	4
50	80
51	217
52	59
53	18
54	9
55	10
56	11
57	5
58	3
61	5
62	15
63	65
64	45
65	230
66	38
67	6
68	1
69	5
70	2
71	1
73	1
74	13
75	15
76	32
77	390
78	104
79	118
80	17
81	7
82	4
83	0
84	0
87	0
89	24
91	523
92	51
93	13
94	2
95	1
97	0
103	5
104	85
105	65
106	586
107	999
108	100
109	6
112	0
117	0
118	7
119	13
120	32
121	3
129	0
132	24
133	19
134	40
135	5
138	5
140	4
141	2
147	0
148	2
149	4
152	2
153	1
154	0
161	2
163	3
165	1
167	4
168	0
171	1
178	1
180	2
181	1
182	10
183	4
189	0
196	9
197	1
235	0
237	0
238	11
240	290
241	44
242	2
