Mass Spectrum: N'-[.alpha.-Naphthyl]morpholino-N-carboxamide
Formula: C15H16N2O2
CAS: 101112-53-2
Molecular weight: 256
m/z	intensity
41	18
42	226
43	19
44	15
45	57
50	6
51	18
54	12
55	12
56	79
57	117
58	20
62	12
63	32
64	3
65	14
70	874
71	30
72	10
74	9
75	15
76	9
77	25
85	10
86	103
87	87
88	26
89	34
101	14
113	63
114	999
115	378
116	43
126	25
127	73
128	26
129	12
140	96
141	80
142	64
143	82
144	80
145	6
154	20
155	10
156	13
168	3
169	483
170	68
182	12
211	10
212	31
255	12
256	575
257	107
258	11
