Mass Spectrum: 2-Bromo-1,3,4-trihydroxy-1,2,3,4-tetrahydrobenzo[a]pyrene, (1R,2R,3S,4S-)
Formula: C20H15BrO3
CAS: 101144-58-5
Molecular weight: 382
m/z	intensity
41	105
43	171
44	74
45	96
46	29
47	21
55	173
56	34
57	55
60	26
63	28
67	16
69	41
70	13
71	41
73	23
74	14
75	6
77	22
78	13
79	135
80	156
81	78
82	157
83	23
87	29
88	14
91	13
93	41
94	41
95	27
97	25
98	23
99	36
100	77
101	66
105	119
106	167
107	67
111	35
112	80
113	212
114	13
115	6
118	999
120	618
121	15
122	30
123	23
124	43
125	32
128	105
129	6
133	76
134	92
135	16
142	22
149	16
158	30
160	18
163	19
165	19
173	146
174	175
187	35
189	32
198	14
199	29
200	74
201	83
202	193
203	102
204	8
211	49
212	24
213	83
214	58
215	125
216	24
224	43
225	38
226	164
227	89
228	35
229	38
230	32
231	15
233	14
235	78
236	53
237	380
238	227
239	821
240	213
241	45
242	40
243	47
244	7
250	13
255	153
256	109
257	95
258	21
259	6
266	13
267	96
268	450
269	96
284	41
285	68
286	45
302	122
303	27
317	31
319	32
334	21
346	620
347	147
348	634
349	134
350	13
364	22
366	26
382	112
383	24
384	109
385	24
