Mass Spectrum: 4-(4-Nitrophenylazo)-benzoic acid, methoxycarbonylmethyl ester
Formula: C16H13N3O6
CAS: 101118-11-0
Molecular weight: 343
m/z	intensity
26	4
27	14
28	7
29	41
30	30
31	18
33	6
37	13
38	26
39	53
40	5
41	10
42	22
43	35
44	20
45	149
46	7
49	3
50	245
51	56
52	22
53	14
54	3
55	15
56	4
57	8
58	2
59	50
60	4
61	8
62	23
63	73
64	67
65	36
66	7
67	4
68	2
69	6
70	2
71	5
73	31
74	37
75	257
76	353
77	68
78	10
79	5
80	3
81	3
82	2
83	4
84	2
85	3
86	2
87	6
88	6
89	10
90	25
91	10
92	203
93	21
94	2
95	4
96	2
97	3
98	2
99	3
101	3
102	10
103	999
104	254
105	44
106	51
107	8
108	5
109	4
110	2
111	2
112	4
114	2
115	2
116	1
117	4
118	4
119	22
120	66
121	13
122	317
123	36
124	4
125	4
126	6
127	10
128	2
129	2
130	4
131	1
132	1
133	6
134	11
135	12
136	2
137	2
138	2
139	12
140	5
141	3
142	6
143	7
145	2
146	2
149	7
150	149
151	35
152	33
153	8
154	4
161	4
162	2
163	2
165	3
166	3
167	6
168	12
169	9
178	3
179	8
180	10
181	5
193	558
194	97
195	16
196	12
197	4
198	2
207	7
208	35
209	8
210	2
211	2
212	2
221	134
222	15
223	4
224	13
225	4
226	9
227	2
228	2
238	5
239	2
254	200
255	35
256	5
257	2
282	4
283	2
296	3
297	2
312	39
313	36
314	8
315	2
327	15
328	4
343	201
344	40
345	9
