Mass Spectrum: 3-Phenylbicyclo[3.2.1]octa-2,6-diene
Formula: C14H14
CAS: 101166-06-7
Molecular weight: 182
m/z	intensity
26	10
27	68
28	55
29	10
30	1
31	4
37	0
38	7
39	131
40	19
41	34
42	3
43	9
44	16
50	43
51	174
52	51
53	39
54	3
55	6
56	2
57	9
58	12
59	2
62	15
63	88
64	44
65	85
66	29
67	24
68	1
69	16
70	16
71	6
72	0
74	19
75	45
76	125
77	403
78	191
79	334
80	47
81	14
82	34
83	98
84	26
85	2
86	5
87	13
88	20
89	136
90	54
91	564
92	46
93	3
94	0
95	3
97	2
98	2
99	3
100	2
101	13
102	69
103	316
104	999
105	122
106	7
107	1
109	1
111	2
113	11
114	8
115	241
116	41
117	45
118	8
119	0
120	5
121	2
122	6
123	0
125	2
126	19
127	49
128	143
129	44
130	5
132	2
137	1
138	2
139	37
140	8
141	255
142	41
143	4
149	1
150	9
151	40
152	203
153	160
154	204
155	94
156	13
157	1
158	1
163	8
164	22
165	249
166	161
167	507
168	69
169	5
176	12
177	11
178	49
179	37
180	15
181	149
182	690
183	105
184	14
