Mass Spectrum: 2,3-Diethoxy-propionic acid, ethyl ester
Formula: C9H18O4
CAS: 10120-24-8
Molecular weight: 190
m/z	intensity
26	14
27	115
28	11
29	291
30	9
31	46
39	6
41	21
42	49
43	277
44	145
45	159
46	5
47	401
48	8
49	2
53	2
54	5
55	43
56	9
57	14
58	2
59	8
60	48
61	34
67	6
68	4
69	14
70	18
71	546
72	70
73	35
74	4
75	464
76	18
77	5
79	4
80	2
81	10
82	4
83	7
84	2
85	4
87	51
88	14
89	263
90	10
91	4
93	3
94	3
95	7
96	2
97	5
98	4
99	34
100	7
101	16
102	9
103	999
104	68
105	13
109	4
110	4
111	3
112	2
113	3
115	130
116	14
117	293
118	19
119	5
121	3
122	2
123	3
125	3
127	2
129	7
133	27
134	3
135	2
137	2
144	10
145	533
146	69
147	10
161	96
162	8
189	4
