Mass Spectrum: Hexanediamide, N,N'-bis(2-pyridyl)-
Formula: C16H18N4O2
CAS: 101290-05-5
Molecular weight: 298
m/z	intensity
33	25
34	3
36	1
37	24
38	92
39	528
40	137
41	286
42	72
43	42
44	26
45	27
46	3
47	1
48	1
50	46
51	237
52	98
53	85
55	615
57	11
59	11
60	4
61	1
62	2
63	9
64	33
65	60
66	143
67	596
69	16
70	3
71	2
72	1
73	2
74	1
75	4
76	11
78	683
79	78
80	18
81	10
82	7
83	52
84	6
85	2
86	0
87	1
88	1
89	1
90	2
91	6
92	34
94	999
95	820
96	71
98	4
100	2
101	4
102	0
103	1
104	2
105	11
106	9
107	29
108	4
109	2
111	25
112	2
113	0
114	0
115	0
116	2
117	3
118	8
119	34
120	39
121	374
122	40
123	3
124	0
125	0
126	0
127	0
128	0
129	2
130	2
131	29
132	12
133	13
134	30
135	37
136	393
137	34
138	2
139	0
141	0
142	0
143	1
144	2
145	9
146	5
147	17
149	512
150	99
151	9
152	0
154	0
155	0
156	0
157	3
159	55
160	14
161	95
163	469
164	54
165	6
166	0
168	0
169	0
170	2
171	1
172	0
173	0
175	10
176	9
177	62
178	47
179	5
180	0
182	0
184	0
185	1
186	2
187	31
188	3
189	0
190	0
191	0
194	1
195	0
201	0
202	1
203	6
204	6
205	30
206	4
207	0
213	0
220	0
221	0
222	1
223	0
269	0
279	0
293	0
294	0
295	3
298	54
299	7
300	0
