Mass Spectrum: 5.beta.,14.beta.-Androstane-17.beta.-carboxylic acid, 3.beta.,14-dihydroxy-, .gamma.-lactone, acetate
Formula: C22H32O4
CAS: 10124-02-4
Molecular weight: 360
m/z	intensity
39	151
40	33
41	655
42	77
43	999
44	155
45	44
53	217
54	93
55	577
56	44
57	93
60	26
61	71
65	84
66	44
67	555
68	144
69	188
70	26
71	44
77	262
78	66
79	744
80	144
81	511
82	222
83	106
91	555
92	217
93	999
94	999
95	911
96	137
97	115
105	377
106	322
107	777
108	466
109	255
110	106
111	100
115	44
117	93
118	62
119	211
120	151
121	166
122	48
123	84
124	33
129	44
131	115
132	40
133	217
134	111
135	111
136	40
137	48
138	44
139	26
143	40
144	17
145	155
146	66
147	288
148	128
149	511
150	71
151	26
157	26
158	26
159	88
160	77
161	115
162	155
163	128
164	26
165	26
171	22
172	17
173	48
174	40
175	71
176	40
177	44
185	26
187	26
189	22
192	22
201	44
202	26
203	33
204	22
213	26
215	22
229	26
230	22
231	22
239	22
241	71
242	11
243	11
244	17
245	17
246	48
255	11
256	160
257	66
258	22
259	22
272	115
273	26
285	100
286	17
300	177
301	55
312	11
329	44
331	48
332	11
359	4
360	1
