Mass Spectrum: 4,4,6-Trimethyl-2-phenylamino-5,6-dihydro-4H-1,3-oxazine
Formula: C13H18N2O
CAS: 101264-52-2
Molecular weight: 218
m/z	intensity
38	10
39	243
40	112
41	343
42	949
43	163
44	41
50	38
51	140
52	36
53	33
54	29
55	97
56	190
57	59
58	76
62	10
63	41
64	71
65	161
66	82
67	48
68	20
69	21
70	22
71	12
74	8
75	11
76	22
77	303
78	36
79	11
80	10
81	15
82	25
83	45
84	729
85	61
91	139
92	154
93	999
94	121
96	6
98	14
104	9
106	9
107	9
110	7
118	83
119	527
120	286
121	36
133	9
134	19
135	64
159	6
161	11
175	29
176	60
189	10
203	519
204	69
217	138
218	299
219	44
