Mass Spectrum: N-Methyldecahydroquinoline-10-ol
Formula: C10H19NO
CAS: 101276-50-0
Molecular weight: 169
m/z	intensity
42	999
43	225
44	607
45	34
46	5
47	1
48	0
49	3
50	6
51	20
52	14
53	65
54	56
55	210
56	123
57	448
58	696
59	20
60	26
62	8
63	5
64	5
65	27
66	14
67	82
68	100
69	100
70	396
71	239
72	72
73	25
74	3
75	0
77	38
78	13
79	42
80	20
81	41
82	151
83	108
84	463
85	55
86	22
87	5
89	1
91	32
92	4
93	28
94	53
95	37
96	152
97	112
98	154
99	66
100	47
101	3
103	2
104	1
105	4
106	13
107	10
108	64
109	15
110	164
112	638
113	711
114	56
115	15
116	0
117	3
118	2
119	3
120	24
121	2
122	54
123	52
124	27
126	274
127	8
128	91
129	5
130	0
131	1
132	3
133	3
134	6
136	47
137	11
138	12
140	119
141	18
142	2
144	1
145	0
146	1
147	1
148	8
150	135
151	121
152	297
154	109
155	14
156	1
158	1
160	0
163	0
164	1
166	3
168	487
169	736
170	95
171	7
172	0
