Mass Spectrum: Bornyl tiglate
Formula: C15H24O2
CAS: 101223-92-1
Molecular weight: 236
m/z	intensity
26	1
27	16
29	32
30	1
31	1
38	1
39	40
40	9
41	107
42	8
43	54
44	4
45	2
50	2
51	5
52	4
53	46
54	21
55	349
56	21
57	32
58	2
59	3
60	1
63	1
65	18
66	7
67	80
68	26
69	133
70	11
71	11
72	2
75	1
77	31
78	8
79	49
80	42
81	75
82	29
83	999
84	65
85	12
86	1
91	29
92	44
93	161
94	30
95	129
96	20
97	14
98	4
99	2
100	1
101	4
103	2
105	17
106	3
107	46
108	149
109	277
110	52
111	24
112	3
113	1
117	7
121	132
122	17
123	14
124	4
125	4
126	1
127	14
128	3
129	1
130	2
131	5
132	7
133	6
135	23
136	211
137	53
138	9
139	2
140	1
141	1
142	1
143	2
144	1
145	1
149	13
151	2
152	8
153	26
154	7
155	1
157	1
158	1
159	12
160	2
161	3
162	3
164	5
165	3
166	1
167	3
168	1
174	1
175	2
177	6
178	2
179	1
180	1
184	1
185	1
187	3
189	2
191	4
192	3
193	4
194	1
203	1
204	2
205	1
207	2
219	1
220	3
221	16
222	2
236	106
237	20
238	1
