Mass Spectrum: d-Glucitol, 2,5-anhydro-1-O-octyl-
Formula: C14H28O5
CAS: 101221-94-7
Molecular weight: 276
m/z	intensity
26	28
27	359
28	188
29	606
30	20
31	319
33	1
37	2
38	6
39	172
40	78
41	803
42	183
43	721
44	87
45	294
46	8
47	14
49	9
50	3
51	8
52	5
53	47
54	32
55	356
56	161
57	999
58	126
59	51
60	80
61	177
62	5
63	2
65	8
66	9
67	48
68	56
69	364
70	197
71	523
72	40
73	839
74	183
75	101
76	6
77	17
78	3
79	11
80	5
81	46
82	44
83	108
84	62
85	279
86	82
87	120
88	26
89	11
90	2
91	93
92	4
93	6
94	4
95	16
96	17
97	667
98	630
99	110
100	45
101	26
102	20
103	56
104	6
105	5
107	4
108	4
109	9
110	134
111	148
112	83
113	33
114	20
115	341
116	176
117	92
118	8
119	10
121	4
122	3
123	9
124	10
125	7
126	8
127	31
128	31
129	79
130	15
131	5
132	12
133	94
134	7
135	6
136	0
137	5
138	2
139	8
140	9
141	176
142	17
143	23
144	3
145	5
146	9
147	20
148	0
149	2
150	6
153	0
154	0
155	4
156	1
157	5
158	34
159	13
160	0
165	29
166	2
167	1
168	14
169	7
171	1
173	6
183	0
184	3
185	358
186	121
187	15
201	7
203	24
204	3
207	0
210	1
227	13
228	34
229	5
245	7
246	4
258	1
277	7
