Mass Spectrum: 6-Methylquinolinic acid diamide
Formula: C8H9N3O2
CAS: 101258-01-9
Molecular weight: 179
m/z	intensity
41	89
42	82
43	132
44	999
50	108
51	101
52	245
53	180
62	45
63	203
64	189
65	209
66	107
68	30
76	32
77	33
78	37
80	180
91	106
92	291
93	497
107	123
119	136
120	532
135	69
136	955
137	46
163	133
164	24
179	136
180	13
