Mass Spectrum: 1,3,2-Dioxaphosphorinane, 2-butoxy-5,5-dimethyl-
Formula: C9H19O3P
CAS: 1012-19-7
Molecular weight: 206
m/z	intensity
37	3
39	292
41	950
42	100
43	97
44	7
45	15
47	186
48	11
49	8
50	5
51	12
53	67
55	335
56	421
57	317
58	60
59	3
61	3
62	3
63	3
65	121
67	94
68	409
69	999
70	112
71	50
72	3
73	5
75	2
77	56
78	13
79	4
80	4
81	9
83	664
84	2
85	17
86	25
87	3
89	2
91	18
92	3
93	5
94	0
96	61
97	18
99	5
100	0
101	0
102	2
103	6
104	2
105	6
106	1
107	1
109	38
110	6
111	10
117	4
118	1
119	10
120	14
121	88
122	20
123	35
124	2
133	299
134	18
135	88
136	4
137	4
138	2
139	6
150	232
151	769
152	42
153	6
161	2
163	5
164	8
167	2
176	4
177	23
178	19
179	1
191	82
192	6
205	2
206	2
