Mass Spectrum: 1-Hexanamine, N-nitro-N-propyl-
Formula: C9H20N2O2
CAS: 101218-46-6
Molecular weight: 188
m/z	intensity
29	394
30	244
41	430
42	537
43	999
55	328
70	930
71	605
72	654
84	310
85	101
98	79
112	155
113	42
117	517
142	276
159	45
