Mass Spectrum: Tetrahydropyrrolo[2,1-c][1,4]oxazin-4-one
Formula: C7H11NO2
CAS: 101250-37-7
Molecular weight: 141
m/z	intensity
26	12
27	80
28	106
29	63
30	16
31	6
37	2
38	6
39	80
40	31
41	172
42	158
43	36
44	23
45	6
50	3
51	8
52	8
53	49
54	50
55	439
56	47
57	11
58	1
63	1
64	1
65	6
66	5
67	122
68	75
69	53
70	194
71	16
72	1
77	5
78	2
79	3
80	9
81	9
82	53
83	999
84	57
85	6
86	2
91	9
92	2
93	1
94	1
95	4
96	2
97	3
98	1
99	1
104	1
105	2
106	1
107	1
108	1
109	2
110	4
111	325
112	36
113	5
115	2
139	1
140	4
141	477
142	49
143	4
