Mass Spectrum: 2,6,10,14-Tetramethylpentadecan-3-one
Formula: C19H38O
CAS: 101395-45-3
Molecular weight: 282
m/z	intensity
27	119
29	267
41	672
42	145
43	822
55	809
56	381
57	809
58	136
59	413
67	157
68	109
69	890
70	411
71	877
81	297
83	543
85	450
86	999
87	590
95	402
97	202
99	445
109	260
111	225
123	123
126	178
165	51
196	156
239	73
282	103
