Mass Spectrum: Bicyclo[3.1.1]heptan-3-one, 2-hydroxy-2,6,6-trimethyl-
Formula: C10H16O2
CAS: 10136-65-9
Molecular weight: 168
m/z	intensity
15	1
26	2
27	55
28	12
29	35
30	1
31	9
37	2
38	8
39	151
40	24
41	269
42	40
43	620
44	22
45	17
50	12
51	31
52	15
53	103
54	22
55	147
56	39
57	18
58	27
59	16
61	2
62	4
63	9
64	2
65	31
66	14
67	78
68	29
69	236
70	189
71	999
72	46
73	4
74	1
77	36
78	7
79	94
81	100
82	62
83	96
84	50
85	24
86	4
87	1
93	26
94	4
95	18
96	6
97	92
98	25
99	760
100	61
101	5
102	1
107	43
108	81
109	28
110	11
111	154
112	15
113	3
122	15
123	3
124	3
125	98
126	117
127	10
135	4
139	4
140	24
141	2
150	5
153	5
168	19
169	2
