Mass Spectrum: 2,4(1H,3H)-Pyrimidinedione, 1,3-bis(methoxymethyl)-
Formula: C8H12N2O4
CAS: 101348-33-8
Molecular weight: 200
m/z	intensity
25	1
26	31
27	51
28	93
29	128
30	21
31	7
33	2
36	0
37	0
38	1
39	3
40	37
41	17
42	45
43	2
44	9
45	999
46	23
47	2
48	0
49	0
51	1
52	9
53	22
54	10
55	22
56	22
57	2
58	16
59	3
60	23
61	1
66	1
67	3
68	13
69	5
70	9
71	1
72	2
74	8
75	1
79	1
80	1
81	3
82	125
83	8
84	7
85	4
86	55
87	2
89	0
94	1
95	4
96	160
97	9
98	4
99	1
100	1
108	1
109	2
110	3
111	1
112	38
113	5
114	2
123	2
124	1
125	76
126	10
127	18
128	2
133	0
134	1
135	0
137	1
138	11
139	2
140	5
141	4
142	0
144	0
145	0
153	3
154	0
155	11
156	2
157	159
158	11
159	1
168	6
169	32
170	53
171	5
172	1
185	58
186	3
187	0
200	32
201	3
202	0
