Mass Spectrum: Silane, ethylfluorodimethyl-
Formula: C4H11FSi
CAS: 10132-71-5
Molecular weight: 106
m/z	intensity
47	280
49	150
63	509
77	999
91	280
106	80
