Mass Spectrum: Silane, dichloroethenylethyl-
Formula: C4H8Cl2Si
CAS: 10138-21-3
Molecular weight: 154
m/z	intensity
26	18
27	94
28	10
29	37
30	1
31	1
35	1
37	0
38	1
39	10
40	1
41	9
42	2
43	3
44	0
48	0
49	0
50	1
51	0
52	2
53	32
54	7
55	17
56	9
57	2
58	0
63	164
64	17
65	73
66	6
67	10
68	0
76	1
77	3
78	1
79	2
80	0
81	0
82	4
83	3
87	0
88	6
89	12
90	34
91	37
92	20
93	13
94	3
95	0
98	57
99	249
100	52
101	155
102	14
103	32
104	1
105	1
109	1
111	1
112	10
113	126
114	15
115	92
116	5
117	22
118	15
119	62
120	9
121	22
122	2
123	8
124	3
125	999
126	222
127	727
128	141
129	149
130	30
131	8
132	0
139	3
140	0
141	2
142	0
143	0
147	0
152	0
154	7
155	1
156	4
158	0
