Mass Spectrum: 1,2-Bis(trimethylsilyl)-3-methylcyclohexa-1,4-diene
Formula: C13H26Si2
CAS: 101300-61-2
Molecular weight: 238
m/z	intensity
26	11
27	19
29	28
31	25
39	26
41	25
42	9
43	152
44	34
45	283
46	15
47	9
51	17
52	6
53	40
54	4
55	30
56	13
57	21
58	96
59	130
60	17
63	6
64	6
65	15
66	9
67	60
68	478
70	9
71	15
72	42
73	999
74	113
75	53
77	9
79	11
81	25
83	53
85	19
91	23
93	21
95	23
96	19
97	59
99	9
105	38
107	28
109	36
110	9
115	12
119	28
120	8
121	40
122	9
123	6
125	13
129	8
131	28
133	19
135	391
136	57
137	23
141	15
145	15
147	9
149	326
150	142
151	40
155	261
156	40
157	32
164	57
165	49
166	9
191	11
205	11
207	8
223	66
224	17
238	34
239	3
