Mass Spectrum: 1-(3-Phenyl-2-prop-2-ynyl)1,4-dihydrobenzoic acid
Formula: C16H14O2
CAS: 101325-67-1
Molecular weight: 238
m/z	intensity
50	68
51	146
52	36
62	32
63	118
65	70
77	324
78	76
79	343
80	46
89	108
91	67
92	12
105	142
106	13
114	16
115	999
116	697
117	71
122	47
123	72
124	9
165	49
166	7
178	39
179	10
189	10
190	67
191	30
192	26
193	69
238	20
