Mass Spectrum: Silane, trichloro-3-cyclohexen-1-yl-
Formula: C6H9Cl3Si
CAS: 10137-69-6
Molecular weight: 214
m/z	intensity
26	8
27	45
28	2
29	6
37	3
38	10
39	94
40	11
41	58
42	3
50	24
51	43
52	28
53	84
54	61
55	13
62	2
63	59
64	5
65	40
66	15
67	46
68	2
74	3
75	1
76	2
77	77
78	23
79	254
80	78
81	999
82	72
83	2
98	22
99	15
100	15
101	11
102	3
103	2
112	2
113	1
114	1
115	4
123	6
125	8
127	2
129	3
131	2
133	109
134	6
135	110
136	7
137	49
138	5
139	13
140	1
141	2
149	1
150	2
151	2
152	1
163	6
165	4
177	4
179	4
181	1
186	4
188	4
214	44
215	6
216	44
217	5
218	15
220	1
