Mass Spectrum: 3-Bromo-4-hydroxy-2,3'-dimethyl-5,5',8,8'-tetramethoxy-1,2'-binaphthalene-1',4'-dione
Formula: C26H23BrO7
CAS: 101459-34-1
Molecular weight: 526
m/z	intensity
41	990
42	174
43	443
44	36
45	2
46	1
48	1
50	25
51	52
52	6
53	52
54	35
55	224
56	79
57	201
58	15
59	10
60	32
61	10
62	19
63	18
64	20
65	32
67	105
68	70
69	999
70	145
71	117
72	19
73	25
74	13
75	15
76	57
77	67
78	26
79	63
80	89
81	54
82	74
83	43
84	4
85	15
87	7
89	17
90	5
91	51
92	19
93	73
94	267
95	84
96	210
97	12
98	8
100	39
101	10
102	7
103	8
104	15
105	18
106	39
107	94
108	27
109	60
110	15
111	14
113	20
114	7
115	28
116	13
117	30
118	2
119	14
120	16
121	34
122	23
123	22
125	5
126	19
127	43
128	28
129	23
130	9
131	6
132	12
133	29
134	32
135	29
136	19
137	9
138	11
139	16
141	16
142	15
143	9
144	6
145	5
147	4
148	154
149	128
150	153
151	156
152	31
154	9
155	12
156	7
157	10
158	8
159	2
161	8
162	5
163	62
164	21
165	59
166	19
167	19
169	10
172	16
173	31
174	4
176	2
177	22
178	13
179	7
180	13
181	6
183	8
184	16
185	29
186	35
187	23
188	8
189	8
190	13
191	28
192	11
193	36
194	18
195	15
196	15
197	14
198	11
199	5
201	32
202	15
203	16
204	6
205	14
206	56
207	71
208	56
209	12
210	7
211	16
212	7
213	15
214	16
215	6
216	28
217	7
218	11
219	31
220	13
221	10
223	67
224	18
225	24
226	29
227	7
228	13
229	15
230	5
231	17
232	41
233	27
234	15
235	15
238	8
239	5
240	15
241	27
244	7
246	5
247	7
248	26
249	12
254	12
256	7
262	4
263	24
264	50
265	4
270	4
273	5
274	4
275	4
276	2
278	3
279	6
280	6
281	13
282	11
283	16
284	5
286	7
287	6
291	9
292	3
293	26
294	10
295	10
296	8
297	6
298	14
303	18
304	17
305	12
306	14
308	5
310	20
312	14
313	10
314	8
317	5
318	7
319	23
320	26
321	14
323	2
324	3
325	3
326	10
327	14
328	20
329	6
330	14
331	11
333	20
335	22
336	7
339	7
341	5
343	18
344	29
345	10
346	5
351	12
353	2
354	9
356	4
357	15
358	5
359	13
360	4
366	7
369	110
370	37
371	10
372	13
373	6
374	14
379	3
383	8
385	10
386	8
387	20
388	11
389	27
392	7
394	7
395	4
397	5
399	9
400	5
401	14
402	7
404	19
405	5
407	6
409	12
411	12
413	9
415	17
416	8
417	46
418	12
419	36
420	4
421	9
423	2
424	5
425	7
429	4
431	24
432	109
433	29
434	9
435	22
437	12
439	20
441	3
446	6
447	45
448	26
449	28
450	18
451	22
452	10
453	22
454	8
455	8
463	15
464	10
465	21
466	25
467	25
468	11
469	20
470	9
479	33
480	48
481	84
482	54
483	115
484	24
485	41
487	3
495	13
496	32
497	31
498	58
499	11
500	7
509	18
510	7
511	216
512	64
513	209
514	63
515	14
525	7
526	745
527	220
528	764
529	219
530	33
531	7
