Mass Spectrum: 4,4'-Diacetoxy-3,3'-dibromo-7,7'-dimethyl-1,1'-binaphthalene-5,5',8,8'-tetrone
Formula: C26H16Br2O8
CAS: 101459-14-7
Molecular weight: 614
m/z	intensity
41	33
42	68
43	999
44	42
45	13
53	10
55	10
57	13
63	10
67	42
68	14
69	49
77	10
89	10
137	11
161	17
162	53
163	89
164	34
165	15
175	10
176	13
187	12
191	23
192	28
200	17
201	10
202	23
213	10
219	15
220	14
229	13
231	13
247	20
248	20
250	12
259	17
270	10
271	11
287	14
298	13
299	13
300	12
301	12
303	15
317	10
326	23
327	40
328	35
329	36
331	14
339	14
354	10
355	59
356	22
357	57
358	15
365	13
366	10
367	16
368	10
374	63
375	16
379	11
380	12
381	16
383	10
394	13
395	38
396	20
397	33
406	30
407	19
408	59
409	21
410	27
416	13
419	11
422	12
423	37
424	14
425	41
426	10
434	55
435	24
436	99
437	25
438	50
447	10
452	28
454	29
459	88
460	25
461	185
462	43
463	133
464	37
465	21
473	20
474	15
475	38
476	25
477	24
478	10
485	21
487	70
488	18
489	79
490	24
491	43
501	12
502	19
503	29
504	39
505	27
506	22
529	10
530	422
531	123
532	846
533	212
534	447
535	106
536	20
572	88
573	26
574	164
575	45
576	89
577	27
