Mass Spectrum: 2,4,5-Trichlorophenol, TMS derivative
Formula: C9H11Cl3OSi
CAS: 1014-29-5
Molecular weight: 268
m/z	intensity
15	4
26	1
27	5
28	5
29	14
30	1
31	3
35	1
36	1
37	3
38	2
39	4
41	2
42	11
43	68
44	28
45	116
46	8
47	10
48	1
49	2
50	8
51	12
52	2
53	19
54	3
55	15
56	3
57	12
58	12
59	10
60	5
61	21
62	53
63	132
64	11
65	128
66	9
67	33
68	2
69	2
70	5
71	6
72	25
73	395
74	63
75	35
76	7
77	23
78	12
79	66
80	8
81	24
82	2
83	9
84	10
85	9
86	6
87	10
88	3
89	12
90	5
91	10
93	999
94	81
95	377
96	39
97	123
98	13
99	41
100	5
101	5
102	4
103	11
104	3
105	10
106	2
107	27
108	17
109	37
110	8
111	17
113	36
114	4
115	25
116	2
117	8
118	2
119	6
120	2
121	3
122	1
123	22
124	5
125	17
126	60
127	62
128	22
131	7
132	29
133	14
134	19
135	9
136	5
137	5
138	2
139	7
140	1
141	3
142	1
143	8
144	8
145	9
146	6
147	12
148	4
149	3
150	1
151	1
152	1
153	3
154	1
155	5
156	1
157	5
158	3
159	49
160	12
161	32
162	7
163	7
164	1
165	1
167	29
168	4
169	29
170	3
171	10
172	1
173	3
174	1
175	3
176	1
177	2
179	2
180	1
181	14
182	12
183	24
184	7
185	6
186	1
187	1
188	2
189	6
190	2
191	4
192	1
193	5
194	1
195	12
196	2
197	9
198	2
199	3
200	1
201	2
202	2
203	9
204	3
205	6
206	1
207	1
215	4
216	2
217	55
218	33
219	40
220	23
221	9
222	4
223	6
224	1
225	5
226	1
227	2
229	1
232	1
233	1
234	1
235	1
236	1
237	1
238	1
239	1
241	1
249	1
250	1
251	2
253	517
254	72
255	504
256	71
257	182
258	24
259	23
260	3
261	1
268	146
269	22
270	148
271	22
272	51
273	7
274	7
275	1
