Mass Spectrum: N-(4-Aminophenyl)-N'-phenyl-urea
Formula: C13H13N3O
CAS: 10141-46-5
Molecular weight: 227
m/z	intensity
64	238
65	230
66	261
79	240
80	279
81	208
91	298
92	149
93	801
105	180
106	248
107	250
108	999
119	552
134	500
227	400
