Mass Spectrum: Acetate, (2,5,5,8a-tetramethyl-1,2,3,5,6,7,8,8a-octahydro-1-naphthalenyl) ester
Formula: C16H26O2
CAS: 101447-86-3
Molecular weight: 250
m/z	intensity
26	6
27	93
28	21
29	170
30	5
31	7
38	3
39	120
40	23
41	324
42	36
43	472
44	23
45	13
50	6
51	33
52	16
53	119
54	18
55	257
56	36
57	57
58	18
59	9
60	5
61	4
62	2
63	13
64	8
65	46
66	13
67	104
68	16
69	164
70	17
71	19
77	106
78	27
79	150
80	29
81	125
82	27
83	71
84	7
85	8
91	178
92	27
93	164
94	83
95	115
96	17
97	14
103	16
104	7
105	999
106	178
107	241
108	82
109	83
110	19
111	4
112	12
113	4
114	35
115	17
116	51
117	24
118	57
119	580
120	377
121	191
122	59
123	38
124	16
126	4
127	8
128	20
129	21
130	11
131	48
132	15
133	211
134	100
135	448
136	86
137	26
138	5
139	6
140	5
141	8
142	5
143	8
144	7
145	32
146	17
147	164
148	29
149	20
150	47
151	17
152	3
153	3
155	2
157	2
158	3
159	30
160	13
161	48
162	14
163	15
164	3
165	4
166	3
167	2
173	6
174	7
175	845
176	126
177	3
178	3
190	491
191	87
192	5
206	2
207	2
250	3
