Mass Spectrum: Butane, 1,3-dimethoxy-
Formula: C6H14O2
CAS: 10143-66-5
Molecular weight: 118
m/z	intensity
39	79
41	184
42	55
43	168
45	850
46	30
51	9
53	25
54	20
55	114
56	54
57	28
58	75
59	999
60	48
61	6
64	11
69	6
71	355
72	23
73	38
75	22
85	28
86	405
87	39
88	30
103	46
