Mass Spectrum: Isovaline, 3-hydroxy-
Formula: C5H11NO3
CAS: 10148-74-0
Molecular weight: 133
m/z	intensity
26	11
27	96
28	94
29	44
30	57
31	10
39	20
40	16
41	86
42	802
43	999
44	126
45	188
46	9
51	5
52	5
53	22
54	23
55	29
56	44
57	18
58	9
59	15
60	12
67	4
68	6
69	12
70	225
71	452
72	128
73	30
74	29
76	5
83	8
86	14
87	8
88	674
89	667
90	32
91	6
97	6
98	8
115	7
116	27
117	1
118	32
119	1
134	117
135	9
