Mass Spectrum: Urea, N,N-diethyl-N'-phenyl-
Formula: C11H16N2O
CAS: 1014-72-8
Molecular weight: 192
m/z	intensity
15	5
26	2
27	29
28	27
29	190
30	43
37	1
38	6
39	26
40	5
41	9
42	36
43	5
44	173
45	3
50	6
51	29
52	8
53	1
54	3
55	2
56	27
57	5
58	124
59	4
62	2
63	10
64	17
65	55
66	19
67	2
70	11
71	5
72	687
73	31
74	3
75	1
76	2
77	68
78	7
79	4
80	1
84	1
87	4
88	5
89	1
90	2
91	22
92	31
93	47
94	4
96	3
99	1
100	999
101	79
102	4
104	2
105	2
106	14
107	1
118	1
119	42
120	26
121	2
134	2
135	4
147	3
148	6
149	1
163	25
164	3
175	2
177	9
178	1
191	29
192	602
193	85
194	7
