Mass Spectrum: 4,4'-Diacetoxy-3-bromo-7,7'-dimethyl-1,1'-binaphthyl-5,5',8,8'-tetrone
Formula: C26H17BrO8
CAS: 101459-15-8
Molecular weight: 536
m/z	intensity
41	360
42	503
43	999
44	577
45	298
46	17
47	67
48	37
49	492
50	23
51	178
52	10
53	30
54	14
55	149
56	240
57	234
58	57
59	39
60	559
61	48
62	9
63	15
64	35
65	14
66	10
67	40
68	26
69	100
70	54
71	109
72	274
73	77
74	15
75	17
76	26
77	31
78	6
79	19
80	9
81	40
82	37
83	51
84	398
85	42
86	275
87	34
88	66
89	40
90	15
91	20
92	6
93	14
94	11
95	33
96	25
97	44
98	26
99	26
100	11
101	20
102	10
103	11
104	27
105	10
106	3
107	14
108	8
109	25
110	18
111	25
112	12
113	15
114	7
115	26
116	10
117	36
118	7
119	14
121	18
122	11
123	6
124	16
125	42
126	9
127	10
128	10
129	31
130	12
131	7
133	10
135	10
136	8
137	19
138	8
139	21
140	8
141	17
143	6
144	2
145	2
146	19
147	16
148	6
149	10
150	13
151	9
152	13
153	8
154	10
155	8
156	6
157	6
158	5
160	1
162	11
163	44
164	25
165	21
166	4
167	11
168	7
169	8
170	4
172	20
173	21
174	17
175	6
176	10
177	4
178	8
179	14
181	10
182	4
183	5
184	3
185	5
186	5
187	4
188	2
189	6
190	2
191	14
192	30
193	18
195	6
196	10
197	3
198	2
199	3
200	40
201	7
202	23
203	3
204	4
205	6
206	5
207	4
208	6
209	2
211	16
212	5
213	9
215	3
216	3
218	2
219	5
220	7
221	18
224	1
225	2
226	4
228	3
229	6
230	2
231	8
232	3
234	4
235	2
238	4
239	36
240	7
241	2
242	37
243	2
245	7
246	2
248	23
249	24
250	7
251	2
259	8
260	4
261	4
265	3
269	1
270	2
271	5
272	3
273	7
275	10
276	9
277	27
278	3
279	3
285	3
287	13
288	8
289	5
299	4
300	4
301	15
302	5
311	1
316	6
317	26
318	5
321	3
323	2
324	1
325	5
327	9
328	44
329	21
330	50
331	8
339	4
340	8
341	6
342	5
343	1
344	7
345	52
346	8
352	3
353	6
355	10
356	56
357	27
358	52
359	14
367	4
368	25
369	8
370	8
372	4
373	2
374	5
378	5
379	7
380	8
381	123
382	24
383	131
384	38
385	20
386	9
388	1
390	24
391	12
395	35
396	18
397	27
398	25
399	4
406	2
407	27
408	16
409	80
410	25
411	66
412	17
416	5
419	2
423	18
425	23
426	24
427	8
435	11
436	3
437	5
451	17
452	641
453	178
454	613
455	137
456	21
468	3
474	1
479	2
494	139
495	37
496	144
497	41
498	5
536	16
537	5
538	19
539	5
