Mass Spectrum: 1-Propyne, 3-phenyl-
Formula: C9H8
CAS: 10147-11-2
Molecular weight: 116
m/z	intensity
26	2
27	4
37	6
38	14
39	47
40	2
41	2
43	1
49	4
50	50
51	72
52	9
53	1
55	2
57	30
60	1
61	17
62	49
63	111
64	16
65	41
66	3
73	5
74	31
75	21
76	8
77	16
78	4
84	2
85	9
86	20
87	27
88	18
89	131
90	18
91	7
98	2
99	1
109	2
110	3
111	1
113	25
114	29
115	999
116	633
117	58
118	2
