Mass Spectrum: 1-(2-Ethoxyethoxy)-2-(vinyloxy)-ethane
Formula: C8H16O3
CAS: 10143-53-0
Molecular weight: 160
m/z	intensity
41	30
42	35
43	189
44	84
45	474
46	10
47	12
49	0
55	3
56	13
57	32
58	15
59	127
60	16
61	23
62	2
63	1
69	3
70	94
71	55
72	999
73	134
74	21
75	16
76	0
83	1
85	3
86	10
87	104
88	14
89	34
90	2
91	2
97	0
99	2
100	3
101	23
102	2
103	11
104	4
105	2
113	1
114	0
115	5
116	6
117	58
118	4
119	1
129	3
130	1
131	3
133	2
135	4
143	5
145	27
146	2
157	0
158	14
159	9
160	78
161	21
