Mass Spectrum: 5,9-Methanobenzocycloocten-11-one, 5,6,7,8,9,10-hexahydro-7-nitro-8-phenyl-, [5s-(5.alpha.,7.alpha.,8.alpha.,9.alpha.)]-
Formula: C19H17NO3
CAS: 101401-33-6
Molecular weight: 307
m/z	intensity
26	3
27	28
28	11
29	5
30	6
31	3
38	3
39	77
40	5
41	20
42	2
43	8
49	3
50	17
51	73
52	21
53	14
54	2
55	31
56	3
57	10
59	8
62	9
63	50
64	12
65	80
66	6
67	3
69	4
70	5
71	5
74	7
75	18
76	28
77	130
78	38
79	21
80	6
81	4
82	4
83	5
84	2
85	2
86	2
87	7
88	13
89	64
90	17
91	999
92	79
93	7
94	4
95	11
96	6
97	2
98	2
99	2
100	5
101	41
102	53
103	111
104	38
105	342
106	31
107	27
108	31
109	17
110	2
111	2
113	13
114	21
115	532
116	182
117	914
118	122
119	20
120	5
121	6
125	2
126	11
127	84
128	186
129	863
130	125
131	45
132	12
133	57
134	7
135	4
136	31
137	7
139	15
140	5
141	95
142	25
143	28
144	38
145	65
146	10
147	3
149	15
150	4
151	10
152	26
153	46
154	18
155	122
156	28
157	61
158	11
159	5
160	2
161	5
163	5
164	3
165	26
166	6
167	5
168	16
169	28
170	6
171	12
172	2
173	6
174	3
175	2
176	7
177	4
178	22
179	11
180	2
181	7
182	3
183	6
184	2
187	2
188	3
189	19
190	11
191	38
192	31
193	17
194	3
199	8
200	5
201	5
202	41
203	38
204	35
205	203
206	42
207	10
208	2
213	4
215	60
216	34
217	51
218	18
219	9
220	4
221	4
226	6
227	3
228	8
229	10
230	4
231	207
232	60
233	91
234	17
235	3
241	14
242	7
243	7
244	6
245	4
249	82
250	18
251	2
259	62
260	54
261	24
262	6
273	1
277	63
278	14
290	1
307	12
308	2
