Mass Spectrum: Bicyclo[3.1.0]hexane-2-undecanoic acid, methyl ester
Formula: C18H32O2
CAS: 10152-73-5
Molecular weight: 280
m/z	intensity
39	150
40	34
41	560
42	85
43	300
44	40
45	230
46	9
51	21
52	15
53	140
54	157
55	520
56	72
57	110
58	28
59	190
60	13
61	9
65	38
66	47
67	460
68	180
69	240
70	43
71	81
72	21
73	290
74	260
75	43
77	64
78	21
79	170
80	120
81	999
82	280
83	170
84	47
85	58
86	15
87	170
88	21
91	47
92	15
93	72
94	81
95	310
96	590
97	170
98	38
99	30
100	9
101	30
104	9
105	21
106	9
107	43
108	38
109	170
110	72
111	64
112	17
113	17
115	21
119	15
120	9
121	30
122	17
123	60
124	34
125	38
126	11
127	13
128	9
129	21
133	15
134	9
135	47
136	17
137	34
138	17
139	21
140	9
141	11
143	30
149	26
150	17
151	17
152	17
153	72
154	13
157	11
163	9
164	9
165	11
166	9
167	17
171	9
185	68
186	9
189	9
199	17
220	13
248	47
249	60
250	11
265	9
270	13
280	30
281	6
