Mass Spectrum: 1,3-Dithiolane, 2-(28-norurs-12-en-17-yl)-
Formula: C32H52S2
CAS: 10153-89-6
Molecular weight: 500
m/z	intensity
40	60
41	940
42	190
43	950
44	260
45	270
46	40
47	20
51	20
53	160
54	40
55	999
56	110
57	220
58	30
59	70
60	40
61	320
63	10
65	70
66	20
67	360
68	110
69	850
70	70
71	60
73	20
77	70
78	30
79	160
80	40
81	390
82	60
83	120
84	20
85	30
91	160
92	30
93	180
94	40
95	420
96	50
97	90
98	20
99	20
103	20
105	830
106	70
107	230
108	30
109	230
110	30
111	50
115	20
116	20
117	60
118	20
119	170
120	30
121	130
122	20
123	130
124	20
125	20
128	20
129	40
130	20
131	110
132	20
133	110
134	30
135	90
136	20
137	120
138	20
141	20
142	20
143	40
144	20
145	90
146	30
147	60
148	20
149	70
150	20
151	20
155	20
157	30
159	40
161	70
162	10
163	80
165	40
171	10
173	40
175	70
176	20
177	60
179	20
185	10
187	40
188	20
189	90
190	30
191	450
192	70
193	20
201	30
202	20
203	170
204	30
205	60
213	10
215	30
217	30
231	40
243	10
245	10
257	50
271	10
299	20
325	10
394	60
395	190
396	60
397	10
472	20
473	10
