Mass Spectrum: Cyclopropaneoctanoic acid, 2-[[2-[(2-ethylcyclopropyl)methyl]cyclopropyl]methyl]-, methyl ester
Formula: C22H38O2
CAS: 10152-71-3
Molecular weight: 334
m/z	intensity
38	13
39	250
40	53
41	999
42	130
43	400
44	71
45	150
50	13
51	33
52	27
53	190
54	480
55	930
56	130
57	220
58	36
59	250
60	13
61	13
63	13
65	71
66	120
67	890
68	350
69	430
70	84
71	160
72	22
73	180
74	160
75	27
77	120
78	58
79	430
80	280
81	760
82	340
83	260
84	62
85	110
86	18
87	120
88	18
89	9
91	130
92	44
93	320
94	240
95	550
96	420
97	190
98	53
99	53
100	13
101	31
103	13
104	13
105	80
106	31
107	240
108	220
109	270
110	98
111	98
112	27
113	36
114	9
115	31
117	16
118	9
119	62
120	31
121	270
122	130
123	120
124	40
125	40
126	16
127	18
128	9
129	31
130	9
131	22
132	11
133	40
134	27
135	160
136	100
137	67
138	22
139	24
140	13
141	18
142	9
143	31
145	13
147	31
148	18
149	100
150	80
151	36
152	13
153	18
154	11
155	11
157	13
159	9
161	22
162	9
163	76
164	44
165	22
166	9
167	9
168	9
171	9
173	9
175	20
177	53
178	27
179	16
185	11
187	9
189	9
191	22
192	53
193	18
205	9
206	9
207	9
219	9
220	9
221	9
222	9
223	13
224	62
225	13
235	9
236	9
237	11
238	9
249	13
250	9
251	9
252	9
263	13
264	13
265	9
277	16
278	9
279	9
289	9
291	22
303	16
305	16
334	9
