Mass Spectrum: 1,4-[[2-Benzylsulfinyl ethyl]dithio]butane
Formula: C22H30O2S6
CAS: 101544-14-3
Molecular weight: 518
m/z	intensity
41	37
42	4
43	8
44	3
45	109
46	26
47	35
48	9
49	5
50	13
51	26
52	8
53	16
54	8
55	155
56	11
57	13
58	44
59	79
60	47
61	25
62	11
63	36
64	55
65	128
66	13
67	2
68	1
69	6
70	2
71	7
72	2
73	15
74	5
75	4
76	7
77	30
78	14
79	15
80	3
81	6
82	2
83	3
84	4
85	24
86	12
87	89
88	24
89	38
90	33
91	999
92	91
93	11
94	2
95	2
96	4
97	3
98	1
99	1
101	1
103	3
104	1
105	12
106	1
107	40
108	6
109	8
110	3
111	2
112	3
113	1
115	4
116	2
117	9
118	8
119	42
120	280
121	38
122	34
123	23
124	16
125	2
126	2
128	1
133	3
134	0
135	1
137	8
138	2
139	4
140	12
141	3
142	1
143	0
145	1
146	1
147	23
148	2
149	6
150	7
151	14
152	13
153	4
154	3
155	4
156	2
157	0
165	1
167	2
177	3
179	195
180	16
181	31
182	8
183	9
184	4
185	0
196	2
197	1
198	0
199	78
200	16
201	16
202	2
203	1
207	2
210	1
211	11
212	0
213	6
214	4
215	2
216	0
228	1
230	0
231	0
232	4
233	22
234	3
235	3
236	0
238	1
240	0
243	4
244	0
245	0
246	2
258	1
259	4
271	0
319	29
320	5
321	5
322	1
398	3
