Mass Spectrum: Cyclopropaneoctanoic acid, 2-octyl-, methyl ester
Formula: C20H38O2
CAS: 10152-62-2
Molecular weight: 310
m/z	intensity
41	887
42	168
43	617
44	28
45	36
53	101
54	207
55	999
56	309
57	351
58	16
59	224
60	11
67	323
68	213
69	657
70	219
71	132
73	56
74	606
75	89
76	11
77	28
78	11
79	84
80	42
81	280
82	174
83	477
84	351
85	101
86	11
87	365
88	39
91	22
92	11
93	50
94	56
95	219
96	359
97	410
98	280
99	50
100	11
101	70
102	16
105	22
106	11
107	28
108	42
109	129
110	196
111	219
112	84
113	39
114	39
115	84
116	22
119	28
120	22
121	50
122	22
123	132
124	103
125	118
126	39
127	39
128	56
129	67
130	22
133	22
134	22
135	61
136	22
137	89
138	134
139	146
140	39
141	73
142	22
143	84
144	11
147	19
148	19
149	28
150	11
151	56
152	101
153	112
154	28
155	22
156	11
157	42
158	11
160	22
162	16
163	22
164	11
165	50
166	50
167	28
168	22
169	22
170	11
171	56
172	11
178	22
179	28
180	56
181	22
182	11
183	28
184	11
185	61
186	11
193	22
194	118
195	11
196	11
197	22
198	11
199	22
207	22
208	28
209	11
213	22
214	16
221	22
222	28
223	16
228	22
229	16
234	61
235	42
236	162
237	42
249	28
250	28
260	28
261	22
268	22
270	22
278	581
279	252
280	42
281	11
291	28
292	16
298	22
310	89
311	22
