Mass Spectrum: Bis-[2-benzylsulfinyl]trisulfide
Formula: C18H22O2S5
CAS: 101544-09-6
Molecular weight: 430
m/z	intensity
41	13
42	0
43	2
44	1
45	56
46	6
47	12
48	9
49	33
50	27
51	52
52	11
53	3
54	1
55	2
56	1
57	8
58	32
59	53
60	23
61	13
62	14
63	43
64	37
65	152
66	13
67	1
68	0
69	6
70	1
71	1
73	4
74	3
75	4
76	8
77	44
78	12
79	11
80	1
81	4
82	1
83	1
84	7
85	6
86	7
87	2
88	1
89	42
90	24
91	999
92	119
93	14
94	2
95	1
96	3
97	1
98	0
103	2
104	3
105	4
106	2
107	94
108	10
109	6
110	1
111	0
112	3
115	1
116	1
117	10
118	4
119	6
120	1
121	26
122	15
123	55
124	13
125	5
126	1
128	0
134	0
135	1
136	2
137	15
138	4
139	5
140	75
141	9
142	4
143	0
147	0
149	3
150	19
151	20
152	2
153	2
154	0
155	1
156	1
160	0
167	1
181	5
182	11
183	12
184	2
185	0
192	1
198	1
199	174
200	23
201	18
202	2
213	0
214	5
215	4
216	0
231	16
232	7
233	3
234	0
238	3
259	2
263	0
264	0
290	1
291	7
292	0
293	1
322	15
323	3
324	2
430	2
431	0
432	0
