Mass Spectrum: Formamide, N-(1,1,3,3-tetramethylbutyl)-
Formula: C9H19NO
CAS: 10151-02-7
Molecular weight: 157
m/z	intensity
15	11
18	12
27	46
28	23
29	117
30	11
39	81
40	13
41	204
42	145
43	45
44	9
46	72
51	3
53	18
54	5
55	77
56	58
57	175
58	467
59	25
67	4
69	14
70	6
72	7
79	3
81	2
84	3
85	7
86	999
87	51
97	132
98	11
100	6
112	13
128	2
130	1
142	10
