Mass Spectrum: Cyclopropaneoctanoic acid, 2-hexyl-, methyl ester
Formula: C18H34O2
CAS: 10152-61-1
Molecular weight: 282
m/z	intensity
39	160
40	32
41	890
42	190
43	480
44	20
45	32
51	9
52	7
53	96
54	200
55	999
56	330
57	710
58	23
59	360
60	14
65	21
66	20
67	290
68	210
69	700
70	230
71	96
72	11
73	46
74	630
75	79
76	7
77	21
78	7
79	54
80	32
81	220
82	150
83	400
84	320
85	68
87	330
88	43
91	16
92	7
93	30
94	43
95	160
96	320
97	300
98	230
99	32
100	7
101	63
102	9
105	11
107	21
108	25
109	93
110	160
111	160
112	61
113	27
114	38
115	61
116	11
119	18
120	9
121	29
122	12
123	100
124	75
125	80
126	27
127	27
128	46
129	43
130	12
133	14
134	14
135	39
136	11
137	57
138	100
139	96
140	25
141	52
142	18
143	46
144	7
147	14
148	11
149	14
150	11
151	39
152	79
153	61
154	11
155	23
156	5
157	25
161	11
163	7
165	29
166	95
167	27
169	14
170	7
171	34
172	7
179	18
180	21
181	7
183	7
185	29
186	9
193	12
194	11
199	11
206	38
207	21
208	110
209	29
221	12
222	18
232	20
233	11
250	300
251	140
252	21
282	61
283	14
