Mass Spectrum: Cyclopropanedodecanoic acid, 2-octyl-, methyl ester
Formula: C24H46O2
CAS: 10152-65-5
Molecular weight: 366
m/z	intensity
26	40
27	33
28	190
29	550
30	26
31	160
32	12
37	7
38	16
39	270
40	61
41	999
42	220
43	660
44	41
45	69
46	4
47	12
48	3
49	3
50	20
51	53
52	24
53	110
54	150
55	840
56	240
57	300
58	20
59	200
60	10
61	10
62	10
63	27
64	10
65	100
66	29
67	220
68	94
69	380
70	130
71	98
72	14
73	55
74	320
75	45
76	10
77	69
78	29
79	69
80	24
81	140
82	73
83	220
84	90
85	69
86	8
87	120
88	16
89	24
90	12
91	150
92	20
93	33
94	20
95	90
96	73
97	140
98	73
99	41
100	8
101	24
102	8
103	16
104	16
105	37
106	10
107	16
108	12
109	45
110	37
111	57
112	18
113	20
114	8
115	24
116	8
117	33
118	180
119	130
120	24
121	16
122	8
123	29
124	20
125	29
126	12
127	12
128	12
129	20
130	16
131	12
132	45
133	16
134	10
135	12
136	6
137	16
138	14
139	20
140	8
141	14
142	6
143	27
144	10
145	5
146	33
147	14
148	6
149	20
150	5
151	10
152	16
153	12
154	10
155	8
156	4
157	8
158	4
159	6
160	2
161	4
162	3
163	5
164	3
165	10
166	10
167	10
168	8
169	8
170	4
171	8
172	2
173	3
174	2
175	8
176	3
177	4
178	5
179	6
180	8
181	8
182	3
183	4
184	3
185	5
186	3
187	4
188	2
189	5
190	2
191	5
192	3
193	5
194	8
195	8
196	3
197	4
198	2
199	8
200	2
201	2
202	4
203	3
204	2
205	4
206	2
207	5
208	7
209	8
210	4
211	3
212	3
213	6
214	3
215	2
216	1
217	2
218	2
219	2
220	2
221	6
222	8
223	5
224	3
225	3
226	2
227	8
228	3
229	1
230	1
231	1
232	1
233	1
234	2
235	5
236	11
237	4
238	3
239	5
240	2
241	5
242	2
243	1
245	1
246	1
247	1
248	1
249	4
250	12
251	8
252	8
253	4
254	3
255	3
256	2
257	1
258	1
259	1
263	4
264	5
265	5
266	33
267	8
268	3
269	3
270	2
271	2
272	1
273	1
274	1
275	1
276	4
277	4
278	2
279	2
280	3
281	3
282	2
283	2
284	2
285	1
286	1
287	1
288	1
289	1
290	3
291	4
292	8
293	3
294	1
295	2
296	1
297	1
298	2
299	1
305	4
306	4
307	1
308	1
309	1
310	1
311	1
312	1
316	3
317	2
320	1
321	1
322	1
323	2
324	1
326	3
327	2
334	61
335	29
336	6
337	2
366	8
367	3
368	1
