Mass Spectrum: Urs-12-en-28-ol
Formula: C30H50O
CAS: 10153-88-5
Molecular weight: 426
m/z	intensity
40	44
41	755
42	155
43	755
44	200
45	111
53	88
54	66
55	999
56	177
57	533
58	44
61	14
65	37
66	22
67	281
68	111
69	688
70	81
71	81
73	14
77	88
78	14
79	185
80	51
81	400
82	88
83	170
84	29
85	51
91	177
92	29
93	200
94	51
95	325
96	51
97	96
98	22
99	14
103	14
104	14
105	192
106	51
107	177
108	37
109	177
110	22
111	44
113	14
115	22
116	14
117	66
118	29
119	177
120	66
121	118
122	37
123	103
124	14
125	37
127	14
128	22
129	37
130	14
131	103
132	44
133	296
134	59
135	66
136	22
137	51
138	14
139	14
141	14
142	14
143	29
144	14
145	74
146	29
147	59
148	14
149	51
150	14
151	14
155	14
157	22
159	44
160	14
161	37
163	37
171	14
173	29
175	29
176	14
177	74
178	14
187	29
188	14
189	44
190	14
191	185
192	59
193	14
201	29
202	14
203	740
204	140
205	51
206	14
215	14
216	51
217	29
234	88
235	22
257	7
395	7
