Mass Spectrum: 1H-Imidazole-1-acetic acid, 2-methyl-5-nitro-, ethyl ester
Formula: C8H11N3O4
CAS: 1016-40-6
Molecular weight: 213
m/z	intensity
38	16
39	73
40	60
41	128
42	344
43	245
44	163
45	43
46	19
47	43
50	5
51	41
52	442
53	999
54	344
55	144
56	101
57	41
58	27
59	54
60	32
77	21
78	16
79	71
80	546
81	109
82	169
83	273
84	46
85	13
86	21
91	24
92	16
93	49
94	101
95	73
96	68
97	32
98	19
99	5
100	8
103	16
104	5
105	16
106	35
107	21
108	27
109	207
110	62
111	234
112	46
113	8
114	5
134	10
135	10
136	10
137	87
138	19
139	540
140	98
141	16
164	16
165	5
166	16
167	754
168	292
169	21
170	2
178	35
179	5
180	8
213	890
214	95
215	8
