Mass Spectrum: 8,9,10,11-Tetrakis(trimethylsilyl)tricyclo[5.2.2.0(2,6)]undeca-3,8,10-triene
Formula: C23H44Si4
CAS: 101652-98-6
Molecular weight: 432
m/z	intensity
27	5
31	8
38	8
39	28
40	32
41	5
43	21
44	8
45	142
46	9
47	5
55	5
57	5
59	60
60	5
61	5
63	6
65	51
66	95
67	8
69	9
72	8
73	999
74	88
75	36
83	28
85	6
93	6
95	5
97	35
98	5
99	5
107	6
109	5
115	5
121	5
123	6
125	6
131	13
133	6
135	6
139	5
141	9
143	5
144	5
145	30
146	5
147	5
149	5
152	43
153	14
155	52
156	11
157	8
159	16
160	8
161	6
163	6
165	11
168	6
169	5
173	29
174	6
175	16
177	9
179	6
183	6
187	6
189	14
190	5
191	19
192	5
197	5
203	6
204	9
205	24
206	5
217	5
231	5
233	5
235	5
245	8
247	57
248	17
249	11
255	8
261	27
262	8
263	301
264	90
265	46
266	9
271	6
277	19
278	17
279	19
280	6
287	17
292	9
293	101
294	3
305	5
319	17
320	6
321	9
329	9
335	167
336	63
337	37
338	101
339	3
351	836
352	309
353	164
354	44
355	14
417	5
418	2
432	0
