Mass Spectrum: Ethylenimine, N-chloro-
Formula: C2H4ClN
CAS: 10165-13-6
Molecular weight: 77
m/z	intensity
28	249
29	19
39	41
40	126
41	306
42	999
43	102
44	21
49	109
51	37
52	8
62	85
63	12
64	28
65	4
77	231
78	6
79	75
80	2
