Mass Spectrum: 2-Heptenoic acid, 4-[[(1,1-dimethylethoxy)carbonyl]amino]-6-methyl-, [S-(E)]-
Formula: C13H23NO4
CAS: 101670-81-9
Molecular weight: 257
m/z	intensity
21	0
26	2
27	45
28	17
29	121
30	13
31	12
33	0
36	0
38	1
39	33
40	6
41	174
42	17
43	40
44	11
45	4
46	1
47	0
50	0
51	2
52	5
53	15
54	19
55	28
56	42
57	999
58	42
59	101
60	2
61	0
62	2
63	0
64	0
65	1
66	0
67	4
68	5
69	5
70	18
71	5
72	4
73	5
74	2
77	3
78	1
79	4
80	2
81	8
82	19
83	11
84	4
85	1
86	10
87	1
88	2
89	1
90	0
91	1
92	0
93	2
94	2
95	19
96	21
97	12
98	7
99	10
100	431
101	43
102	3
103	0
107	0
108	0
109	3
110	2
111	1
112	9
113	1
114	13
115	15
116	1
117	0
118	0
120	0
121	0
122	2
123	8
124	3
125	3
126	4
127	5
128	5
129	0
130	5
131	0
137	0
138	3
139	7
140	18
141	9
142	14
143	1
144	158
145	23
146	2
147	0
149	0
150	0
154	0
155	4
156	22
157	15
158	3
159	1
160	0
165	0
166	19
167	2
168	0
170	0
172	2
173	0
174	1
175	0
183	1
184	7
185	0
186	3
187	0
198	0
200	99
201	78
202	9
203	0
212	0
214	0
215	0
224	1
225	0
242	5
243	0
