Mass Spectrum: cis-1-Chloro-1,4-dimethylsilacyclohexane
Formula: C7H15ClSi
CAS: 101772-62-7
Molecular weight: 162
m/z	intensity
63	220
78	220
79	460
81	170
92	510
93	610
94	260
95	230
105	310
106	999
107	320
108	320
119	460
121	150
134	900
136	320
147	180
149	60
162	260
164	110
