Mass Spectrum: 3(2H)-Benzofuranone, 2-(4-methoxybenzoyl)-
Formula: C16H12O4
CAS: 10173-84-9
Molecular weight: 268
m/z	intensity
41	39
42	9
50	39
51	59
53	9
55	19
56	9
57	9
62	9
63	39
64	39
65	39
74	9
75	19
76	59
77	168
78	59
79	9
91	9
92	118
93	39
94	19
104	39
105	39
106	39
107	999
108	79
120	59
121	29
134	39
135	356
136	59
149	19
151	19
152	49
160	49
161	49
197	49
225	19
237	19
239	19
252	29
253	29
267	69
268	564
269	108
270	39
