Mass Spectrum: 2,3,4,5 Tetra-kis(trifluoromethyl)cyclotetraphosphinesulfide
Formula: C4F12P4S
CAS: 10175-67-4
Molecular weight: 432
m/z	intensity
31	59
32	52
34	2
50	74
51	1
62	96
63	999
64	8
65	44
69	807
70	10
75	266
76	1
77	12
81	52
82	1
93	459
94	377
95	3
96	17
100	52
101	1
112	32
113	725
114	6
119	118
120	1
125	59
126	1
127	3
131	207
132	2
143	81
144	1
163	622
164	12
165	27
181	111
182	4
213	237
214	5
215	10
225	37
226	1
227	2
231	81
232	192
233	6
234	8
262	37
263	1
281	104
282	4
313	67
314	2
315	3
363	281
364	12
365	12
400	37
401	2
413	30
414	2
415	1
432	932
433	49
434	42
435	2
