Mass Spectrum: trans-1-Chloro-1,2-dimethylsilacyclohexane
Formula: C7H15ClSi
CAS: 101772-71-8
Molecular weight: 162
m/z	intensity
63	240
65	100
78	350
79	720
80	170
81	300
92	350
93	630
94	180
95	290
97	230
105	450
106	999
107	470
108	350
109	100
111	140
119	550
120	100
121	230
133	130
134	670
136	230
147	180
149	85
162	310
164	110
