Mass Spectrum: 1,1,4-Trimethylsilacyclohexane
Formula: C8H18Si
CAS: 101772-54-7
Molecular weight: 142
m/z	intensity
59	250
71	110
72	360
73	130
85	410
86	220
97	120
99	999
100	100
114	450
127	960
128	100
142	30
