Mass Spectrum: cis-1,2-Dimethylsilacyclohexane
Formula: C7H16Si
CAS: 101772-57-0
Molecular weight: 128
m/z	intensity
58	210
59	190
71	230
72	740
73	360
85	650
86	230
97	110
99	270
100	999
101	100
113	330
127	60
128	650
