Mass Spectrum: 6-(3-Bromopropyl)-2(1H)-pyridinone
Formula: C8H10BrNO
CAS: 101773-69-7
Molecular weight: 215
m/z	intensity
109	999
134	117
135	145
136	116
187	2
189	2
215	107
217	104
