Mass Spectrum: 2-Ethylthiolane, S,S-dioxide
Formula: C6H12O2S
CAS: 10178-59-3
Molecular weight: 148
m/z	intensity
53	40
54	40
55	810
56	999
57	60
67	60
69	140
70	10
81	50
82	130
83	540
84	50
92	6
121	6
148	20
149	1
150	1
