Mass Spectrum: 2-(3,3-Diethoxypropyl)-2,5-dihydro-6-methoxypyridine
Formula: C13H23NO3
CAS: 101773-78-8
Molecular weight: 241
m/z	intensity
103	739
110	999
123	547
180	299
194	391
195	373
196	748
212	337
241	3
