Mass Spectrum: 5-[[7-Chloro-1-oxo-4-quinolinyl]amino]-3-[[diethylamino]methyl]-2',5'-dimethoxyphenylphenol
Formula: C28H30ClN3O4
CAS: 101712-75-8
Molecular weight: 507
m/z	intensity
42	160
43	53
44	188
49	32
54	8
55	8
56	73
57	22
58	999
59	39
72	148
73	320
74	21
78	8
84	21
86	31
135	9
418	69
419	20
420	35
434	105
435	22
436	48
491	26
493	8
