Mass Spectrum: 5-[[7-Chloro-1-oxo-4-quinolinyl]amino]-3-[[diethylamino]methyl-3',4'-dimethoxyphenyl-phenol
Formula: C28H30ClN3O4
CAS: 101712-77-0
Molecular weight: 507
m/z	intensity
41	90
42	141
43	75
44	179
45	8
49	8
51	11
52	8
53	7
54	17
55	13
56	112
57	29
58	999
59	72
63	2
65	2
67	5
68	12
69	7
70	13
71	25
72	168
73	305
74	32
75	5
76	2
77	11
78	14
79	2
81	2
82	4
83	7
84	10
85	2
86	12
87	2
89	5
91	6
94	2
95	2
96	2
97	2
99	8
100	4
101	7
102	2
105	2
106	12
107	7
111	3
113	4
114	7
115	10
116	2
119	2
121	10
123	6
124	11
125	5
126	11
127	15
128	9
129	5
131	5
133	7
134	7
135	13
137	4
138	7
139	9
140	10
141	6
145	7
146	6
147	2
149	5
150	8
151	11
152	8
153	8
154	6
155	7
157	4
158	5
160	3
161	5
162	19
163	11
164	9
165	10
166	7
167	6
168	5
169	5
171	6
172	2
173	2
174	6
175	5
176	6
177	4
178	16
179	15
180	9
181	5
182	12
183	5
185	4
186	7
187	6
188	6
189	5
192	2
193	6
194	10
195	7
197	4
198	2
200	2
201	12
202	6
209	6
214	3
215	5
216	2
227	6
228	5
229	12
230	5
231	5
239	7
241	11
242	9
246	13
247	2
252	5
253	6
254	4
255	5
256	2
266	2
267	6
268	6
279	4
280	2
289	5
291	4
297	2
303	4
331	2
358	2
359	5
372	9
373	8
374	2
375	5
387	12
388	5
389	11
390	2
391	3
401	11
403	10
404	10
405	2
406	3
417	12
418	126
419	46
420	51
421	15
422	2
433	2
434	68
435	23
436	34
437	7
438	2
461	18
462	6
463	7
489	7
491	27
492	8
493	8
