Mass Spectrum: trans-1,1,2,6-Tetramethylsilacyclohexane
Formula: C9H20Si
CAS: 101772-66-1
Molecular weight: 156
m/z	intensity
43	130
55	110
58	240
59	650
71	180
72	240
73	480
81	260
85	999
86	930
87	210
91	110
97	140
99	660
100	610
101	190
113	360
114	640
115	120
141	170
156	450
