Mass Spectrum: 1,3,2-Dioxaborolane, 2-ethyl-
Formula: C4H9BO2
CAS: 10173-38-3
Molecular weight: 100
m/z	intensity
27	260
28	486
29	192
30	7
31	17
33	2
34	0
35	1
36	9
37	29
40	253
41	223
42	436
43	304
44	82
45	359
46	5
48	11
49	3
50	2
51	2
52	16
53	53
54	40
55	181
56	484
57	111
58	37
59	117
60	1
63	0
64	0
65	5
66	5
67	19
68	124
69	556
70	809
71	377
72	999
73	32
74	4
77	1
81	1
82	3
83	6
84	18
85	66
86	3
87	0
88	0
91	6
92	2
95	0
96	3
97	12
98	66
99	413
100	551
101	31
102	3
