Mass Spectrum: N-Acetyl-D-phenylalanine
Formula: C11H13NO3
CAS: 10172-89-1
Molecular weight: 207
m/z	intensity
14	2
15	20
16	1
17	2
18	7
26	3
27	10
28	9
30	4
37	1
38	6
39	35
40	4
41	10
42	13
43	248
44	8
45	1
46	2
50	13
51	35
52	9
53	2
54	1
55	1
58	1
60	5
61	2
62	6
63	20
64	6
65	61
66	4
68	6
70	1
72	4
73	1
74	45
75	5
76	6
77	29
78	17
79	3
86	1
87	1
88	2
89	15
90	10
91	999
92	87
93	5
102	9
103	22
104	25
105	3
115	1
116	4
117	16
118	21
119	34
120	27
121	3
128	2
130	10
131	4
132	1
144	4
145	2
146	2
147	32
148	96
149	9
159	1
161	10
162	3
163	3
187	3
189	96
190	12
191	1
207	3
