Mass Spectrum: trans-1-Chloro-1,4-dimethylsilacyclohexane
Formula: C7H15ClSi
CAS: 101772-73-0
Molecular weight: 162
m/z	intensity
63	220
78	220
79	460
81	170
92	460
93	630
94	350
95	260
105	260
106	999
107	260
108	330
119	470
121	160
134	920
136	320
147	180
149	60
162	320
164	100
