Mass Spectrum: trans-1,2-Dimethylsilacyclohexane
Formula: C7H16Si
CAS: 101772-68-3
Molecular weight: 128
m/z	intensity
58	140
59	150
71	230
72	830
73	280
85	580
86	210
97	100
99	210
100	999
101	120
113	310
127	20
128	440
