Mass Spectrum: (2-Benzylsulfanyl-phenyl)-morpholin-4-yl-methanone
Formula: C18H19NO2S
CAS: 101729-82-2
Molecular weight: 313
m/z	intensity
33	3
34	16
36	7
37	1
38	11
39	69
40	26
41	41
42	43
43	36
44	8
45	38
46	4
47	6
48	6
50	18
51	43
52	11
53	5
54	13
55	26
56	96
57	66
58	22
59	2
60	0
61	2
62	8
63	47
64	27
65	200
66	22
67	3
69	54
70	21
71	11
72	8
74	5
75	11
76	22
77	78
78	17
79	8
80	1
81	6
82	22
83	9
84	6
85	16
86	122
87	101
88	57
89	30
91	999
92	105
93	69
94	5
95	1
96	1
97	7
98	2
100	1
102	2
103	5
104	13
105	82
106	21
108	98
109	131
110	10
111	8
112	4
113	5
114	1
115	12
116	0
117	1
118	5
119	20
120	19
121	26
122	6
123	6
124	2
125	1
127	4
128	3
131	7
132	6
133	4
134	14
135	49
136	118
137	306
138	32
139	17
140	1
143	15
146	0
147	0
149	42
150	13
151	15
152	30
153	13
154	2
155	1
160	4
163	2
164	5
165	42
166	11
167	18
168	1
169	2
171	9
172	0
176	2
177	1
178	57
179	13
180	10
181	37
182	9
185	0
190	24
191	4
192	6
193	22
194	22
195	20
196	16
197	38
198	13
199	5
219	4
220	11
222	794
223	100
224	46
225	16
226	169
227	89
228	19
229	3
280	2
313	237
314	45
315	13
