Mass Spectrum: cis-1-Chloro-1,2-dimethylsilacyclohexane
Formula: C7H15ClSi
CAS: 101772-60-5
Molecular weight: 162
m/z	intensity
63	280
65	150
67	100
78	350
79	780
80	200
81	320
92	410
93	530
94	200
95	220
97	210
105	490
106	999
107	520
108	340
109	170
111	130
119	490
120	120
121	180
133	100
134	560
135	60
136	200
147	190
149	63
162	340
164	110
