Mass Spectrum: 1-Naphthalenecarboxylic acid, decahydro-1,4a-dimethyl-6-methylene-5-(3-methyl-2,4-pentadienyl)-, methyl ester, [1S-[1.alpha.,4a.alpha.,5.alpha.(Z),8a.beta.]]-
Formula: C21H32O2
CAS: 10178-35-5
Molecular weight: 316
m/z	intensity
37	10
39	190
40	80
41	999
42	50
43	509
45	470
51	50
52	30
53	410
54	30
55	559
56	40
57	40
59	290
65	120
66	50
67	270
68	30
69	160
70	10
72	40
73	170
75	10
77	290
78	60
79	699
80	170
81	659
82	50
83	20
85	20
88	50
89	30
91	519
92	110
93	519
94	120
95	150
96	30
97	10
98	20
101	60
104	20
105	420
106	120
107	380
108	50
109	150
114	20
115	40
117	90
118	50
119	410
120	150
121	420
122	40
123	60
124	10
125	20
128	20
129	40
130	10
131	120
132	30
133	250
134	250
135	120
136	30
139	20
141	10
145	90
146	30
147	300
148	170
149	60
150	20
157	20
158	20
159	60
160	40
161	180
162	30
163	50
167	20
171	10
172	10
173	50
174	30
175	410
176	70
181	10
185	50
186	20
187	70
188	20
189	20
199	30
200	50
201	100
202	30
203	20
205	20
211	10
227	40
234	10
241	140
242	30
245	30
256	40
257	70
258	10
259	10
260	30
301	30
316	50
