Mass Spectrum: cis-1,1,2,6-Tetramethylsilacyclohexane
Formula: C9H20Si
CAS: 101772-55-8
Molecular weight: 156
m/z	intensity
58	120
59	390
72	180
73	390
81	230
85	999
86	830
87	180
97	120
99	640
100	650
101	200
113	360
114	610
115	120
141	230
156	530
