Mass Spectrum: Propan-2-ol, 1-(4-methoxyphenyl)-3-(4-morpholyl)-
Formula: C14H21NO3
CAS: 101776-97-0
Molecular weight: 251
m/z	intensity
33	5
35	0
36	1
37	2
39	25
40	11
41	46
42	139
44	93
45	183
46	68
50	6
51	25
52	17
53	8
54	14
55	26
56	145
57	36
58	11
59	1
61	0
62	2
63	13
64	6
65	18
66	2
67	2
68	3
70	54
72	30
74	2
75	2
77	62
78	55
79	16
80	3
82	4
83	1
84	2
86	7
87	17
89	5
90	15
91	49
92	7
94	3
95	1
96	0
98	8
100	999
102	7
103	4
104	1
105	6
106	4
107	9
108	10
109	2
112	14
113	1
115	2
116	0
117	1
118	2
119	2
121	105
122	9
123	2
124	0
126	0
128	0
129	2
130	24
131	3
132	1
133	4
134	1
135	4
136	1
137	0
141	0
144	0
146	0
147	8
148	2
150	7
151	2
152	0
158	0
160	0
163	0
164	0
165	0
174	0
175	1
176	0
178	0
180	0
190	0
202	0
204	0
206	1
207	0
219	0
220	0
221	0
233	46
234	7
235	0
250	0
251	10
252	1
254	0
