Mass Spectrum: Ethyleneglycol-n-butylboronate
Formula: C6H13BO2
CAS: 10173-39-4
Molecular weight: 128
m/z	intensity
55	615
56	285
69	158
71	67
72	82
85	262
86	999
87	51
97	63
98	148
99	550
100	88
112	39
113	139
127	40
128	50
