Mass Spectrum: trans-1,3-Dimethylsilacyclohexane
Formula: C7H16Si
CAS: 101772-69-4
Molecular weight: 128
m/z	intensity
58	220
59	130
71	120
72	120
85	630
86	310
100	160
113	999
114	100
127	30
128	180
