Mass Spectrum: 1,1,3-Trimethylsilacyclohexane
Formula: C8H18Si
CAS: 101772-53-6
Molecular weight: 142
m/z	intensity
41	120
43	280
45	100
55	110
59	580
71	180
72	530
73	190
85	690
86	130
97	100
99	999
100	180
127	500
142	30
