Mass Spectrum: 4-[[7-Chloro-4-quinolinyl]amino]-2-[[diethylamino]methyl]-6-[1-naphthalenyl]phenol, Nquin)-oxide
Formula: C30H28ClN3O2
CAS: 101712-81-6
Molecular weight: 497
m/z	intensity
41	5
42	29
43	18
44	59
51	3
52	5
54	10
55	9
56	91
58	999
59	32
63	3
68	7
69	4
70	10
71	24
72	151
73	314
74	39
75	5
77	5
78	13
81	3
83	7
84	4
86	8
99	8
106	6
115	5
124	10
126	3
127	6
128	7
135	5
138	3
148	5
150	6
151	10
152	12
153	5
155	4
158	3
162	6
163	7
164	7
165	10
171	5
173	3
176	4
177	5
178	18
179	7
182	3
188	4
189	21
190	17
191	5
193	3
195	3
196	4
201	5
202	28
203	19
204	6
205	5
206	8
215	3
216	4
218	10
227	3
231	15
232	9
251	26
252	4
374	4
376	4
377	3
379	8
392	5
393	3
394	4
395	4
407	11
408	58
409	23
410	22
411	5
424	30
425	10
426	15
451	3
479	4
481	19
482	5
483	5
