Mass Spectrum: Benzoic acid 2-[benzoyl-(2-hydroxy-ethyl)-amino]-ethyl ester
Formula: C18H19NO4
CAS: 101730-22-7
Molecular weight: 313
m/z	intensity
50	4
51	44
55	17
56	24
64	2
69	35
72	7
74	3
76	8
77	283
78	20
91	3
104	6
105	999
106	79
107	1
134	8
145	1
147	2
148	47
149	38
160	13
161	10
163	9
166	13
167	1
173	3
175	2
178	57
179	4
190	1
191	71
192	7
208	1
252	6
270	31
271	4
282	46
283	8
295	5
