Mass Spectrum: 5-[[7-Chloro-4-quinolinyl]amino]-3-[[1,1-dimethylethyl]aminomethyl]-1,1'-biphenyl-2-ol, N-oxide
Formula: C26H26ClN3O2
CAS: 101712-68-9
Molecular weight: 447
m/z	intensity
41	172
42	122
43	43
44	10
45	2
49	4
50	7
51	12
52	9
53	8
54	13
55	32
56	32
57	145
58	999
59	31
60	3
63	3
65	6
66	3
67	3
68	2
69	10
70	26
71	9
72	4
73	9
74	6
75	5
76	2
77	20
78	28
79	3
81	2
82	3
83	8
84	8
85	7
86	2
89	3
91	7
94	7
95	2
97	6
98	2
99	7
100	3
101	3
102	8
103	4
105	7
106	13
107	2
111	5
112	2
113	3
114	5
115	13
116	3
121	4
122	3
123	3
124	12
125	3
126	6
127	11
128	9
129	4
133	2
135	10
137	3
138	4
139	13
140	7
141	14
142	3
143	2
146	3
147	3
149	2
150	6
151	7
152	19
153	16
154	6
155	2
156	3
157	2
161	3
162	7
163	8
164	8
165	8
166	6
167	12
168	14
169	7
170	4
171	2
172	2
177	4
178	7
179	9
180	6
181	25
182	14
183	3
185	3
188	2
189	6
190	4
191	4
192	3
193	2
194	5
195	3
196	9
197	5
201	3
202	4
203	3
204	2
205	3
206	2
207	2
208	16
209	7
213	3
215	4
216	3
217	4
218	7
219	2
226	2
227	3
228	3
236	3
239	6
240	3
241	3
242	2
251	3
252	6
253	9
254	5
255	5
256	2
264	3
265	2
266	4
267	6
268	3
269	3
279	8
280	5
281	6
282	3
289	2
290	2
291	5
292	14
293	22
294	27
295	12
296	3
302	4
303	4
304	3
305	2
308	5
309	5
310	4
313	2
314	2
315	10
316	3
317	5
318	2
319	2
320	3
321	5
322	5
323	7
324	3
326	3
327	8
328	10
329	41
330	16
331	15
332	4
342	5
343	6
344	7
345	12
346	6
347	9
348	2
355	7
356	6
357	48
358	249
359	93
360	99
361	27
362	4
370	2
371	4
372	30
373	57
374	69
375	30
376	23
377	4
378	2
385	2
387	3
388	3
390	3
414	3
416	3
428	8
429	72
430	29
431	118
432	40
433	36
434	8
443	3
445	10
446	3
447	3
