Mass Spectrum: 2-Ethoxymethamphetamine
Formula: C12H19NO
CAS: 101862-67-3
Molecular weight: 193
m/z	intensity
39	24
42	66
43	25
51	19
57	240
58	999
59	60
65	15
77	53
78	25
79	15
89	9
90	8
91	41
106	8
107	28
108	13
115	6
117	3
119	3
133	6
135	13
136	5
146	2
147	2
149	2
163	1
178	5
192	2
193	2
