Mass Spectrum: Difluoromethyl difluoromethanesulfonate
Formula: C2H2F4O3S
CAS: 101817-80-5
Molecular weight: 182
m/z	intensity
48	67
51	999
64	45
65	46
67	3
99	19
115	99
131	7
