Mass Spectrum: 5-Norbornene-2,3-diacetonitrile
Formula: C11H12N2
CAS: 101832-55-7
Molecular weight: 172
m/z	intensity
26	4
27	26
28	6
29	4
37	3
38	9
39	86
40	34
41	23
42	2
43	5
49	1
50	10
51	30
52	19
53	18
54	4
55	4
56	1
57	6
60	0
61	1
62	4
63	16
64	9
65	58
66	999
67	60
68	2
69	3
70	1
71	2
74	2
75	3
76	5
77	30
78	15
79	19
80	5
81	2
83	1
84	1
85	1
87	1
88	1
89	7
90	3
91	53
92	11
93	2
94	1
95	1
97	1
101	1
102	3
103	15
104	13
105	30
106	4
107	3
109	0
111	0
115	5
116	5
117	14
118	7
119	1
127	2
128	2
129	1
130	13
131	3
132	14
133	1
141	0
143	1
144	5
145	6
146	1
171	1
172	1
173	3
