Mass Spectrum: 2,2-Dimethyl-5-hydroxy-7-methoxy-chromanone
Formula: C12H14O4
CAS: 1019-60-9
Molecular weight: 222
m/z	intensity
81	100
83	371
95	835
96	120
108	80
109	90
110	999
111	148
123	218
136	109
137	198
138	808
139	89
166	89
167	171
207	179
222	69
