Mass Spectrum: 2-Cyanoimino-1,3-dithiane
Formula: C5H6N2S2
CAS: 10191-73-8
Molecular weight: 158
m/z	intensity
12	41
13	10
14	38
15	74
16	5
17	15
18	47
19	1
24	16
25	14
26	181
27	349
28	123
29	30
30	1
32	296
33	43
34	25
35	6
36	6
37	53
38	114
39	528
40	79
41	709
42	66
44	102
45	831
46	999
47	155
48	50
49	5
50	1
51	2
52	19
53	17
54	2
55	3
56	10
57	38
58	216
59	147
60	48
61	15
62	2
64	114
65	6
66	12
67	4
68	9
69	41
70	29
71	70
72	61
73	110
74	78
76	88
77	14
78	53
79	4
80	4
81	1
82	1
84	203
85	78
86	12
87	4
88	1
89	1
90	5
91	1
92	1
93	1
94	0
97	0
98	3
99	5
100	2
101	1
102	1
103	3
104	4
106	824
107	45
108	74
109	3
110	2
111	1
112	1
113	1
115	1
116	4
117	2
118	1
125	9
126	1
130	0
131	2
133	0
143	0
150	0
158	547
159	67
160	55
161	6
162	1
