Mass Spectrum: (R)-1-Benzyl-3-pyrrolidinol
Formula: C11H15NO
CAS: 101930-07-8
Molecular weight: 177
m/z	intensity
15	9
26	1
27	13
28	22
29	14
30	17
31	9
38	2
39	40
40	6
41	46
42	863
43	55
44	34
45	2
50	6
51	24
52	7
53	5
54	5
55	21
56	11
57	20
58	12
59	4
60	2
62	3
63	21
64	8
65	172
66	10
67	3
68	11
69	2
70	13
71	5
72	1
74	1
75	2
76	3
77	23
78	9
79	7
80	2
81	1
82	10
83	1
84	2
86	365
87	17
88	1
89	33
90	17
91	999
92	134
93	7
98	1
99	3
100	238
101	14
102	2
103	7
104	40
105	23
106	9
107	1
115	2
116	2
117	8
118	25
119	4
120	21
121	4
127	1
128	1
129	2
130	9
131	10
132	270
133	370
134	42
135	2
146	8
147	3
148	1
154	1
156	3
157	19
158	11
159	9
160	3
174	1
175	2
176	174
177	433
178	58
179	4
