Mass Spectrum: 4.alpha.,5.beta.-Epoxy-9.alpha.-hydroxygermacra-1(10),11(13)-dien-6,12-olide 8.alpha.-(4-hydroxysenecioate)
Formula: C20H26O7
CAS: 101910-57-0
Molecular weight: 378
m/z	intensity
39	540
40	270
41	570
42	260
43	999
44	130
45	200
51	220
52	120
53	510
54	170
55	620
57	180
65	180
67	310
68	180
69	600
70	130
71	670
77	320
79	300
81	200
82	400
83	320
84	290
87	190
91	320
93	220
95	220
96	120
97	450
98	220
99	830
105	200
107	130
109	170
115	130
121	130
175	100
186	100
262	190
279	80
378	70
