Mass Spectrum: Tanguticacine
Formula: C53H72O11
CAS: 101910-66-1
Molecular weight: 884
m/z	intensity
105	999
122	330
149	990
166	100
253	100
271	60
281	80
289	100
299	30
311	50
317	10
322	40
327	20
340	40
358	40
359	20
481	20
597	20
615	10
646	10
718	100
719	60
762	10
884	30
