Mass Spectrum: 3-Aza-3-butenoic acid, 4-[2-fluorophenyl-4-[2-methylamino-5-nitrophenyl]-
Formula: C16H14FN3O4
CAS: 101973-34-6
Molecular weight: 331
m/z	intensity
42	484
43	424
44	999
45	128
46	20
47	2
50	49
51	70
52	41
53	22
54	24
55	59
56	28
57	65
59	382
60	201
61	13
62	23
63	70
64	21
65	41
66	39
67	22
68	22
69	41
70	22
71	29
72	62
73	33
74	32
75	94
76	81
77	68
78	51
79	25
80	13
81	27
82	20
83	41
84	17
85	25
86	10
87	14
88	20
89	27
90	308
91	49
92	29
93	27
94	31
95	131
96	30
97	19
98	15
99	23
100	11
101	14
102	50
103	28
104	86
105	63
106	22
107	29
108	9
109	119
110	36
111	18
112	15
113	13
114	10
115	18
116	22
117	42
118	30
119	43
120	42
121	37
122	46
123	86
124	17
125	13
126	8
127	7
128	6
129	15
130	16
131	37
132	24
133	57
134	24
135	26
136	111
137	14
138	14
139	9
140	6
141	4
142	6
143	25
144	19
145	27
146	59
147	14
149	58
150	21
151	29
152	18
153	8
155	8
156	5
157	27
158	13
159	10
160	4
161	8
162	9
163	18
164	14
165	26
166	9
167	10
168	11
169	17
170	39
171	16
172	7
173	4
174	3
175	7
176	19
177	21
178	23
179	37
180	15
181	20
182	25
183	101
184	26
185	22
186	7
187	3
188	3
189	3
190	26
191	15
192	77
193	17
194	7
195	13
196	16
197	23
198	57
199	28
200	8
201	3
202	2
203	4
204	5
205	28
206	12
207	9
208	16
209	29
210	81
211	461
212	80
213	29
214	8
215	4
216	2
218	3
219	9
220	13
221	10
222	18
223	26
224	32
225	44
226	137
227	40
228	15
229	5
232	2
233	2
234	2
236	12
237	11
238	15
239	29
240	98
241	36
242	7
243	7
244	5
245	3
249	6
250	10
251	28
252	10
253	8
254	11
255	40
256	49
257	515
258	84
259	16
260	3
266	22
267	5
268	22
269	20
270	55
272	581
273	127
274	184
275	29
276	4
284	14
285	6
286	94
287	407
288	98
289	11
301	4
312	5
314	8
315	37
316	9
330	30
331	114
332	25
333	4
