Mass Spectrum: Boroxin, trimethoxy-
Formula: C3H9B3O6
CAS: 102-24-9
Molecular weight: 174
m/z	intensity
11	1
13	1
14	7
15	153
16	2
17	2
18	7
27	6
28	53
29	145
30	23
31	286
32	193
33	5
39	3
40	4
41	19
42	72
43	234
44	9
45	33
50	2
51	6
53	1
54	6
55	14
56	47
57	66
58	53
59	125
60	1
61	1
68	1
69	2
70	15
71	78
72	444
73	999
74	28
75	9
78	8
79	9
82	1
83	5
84	19
85	47
86	71
87	19
88	15
89	57
90	9
91	6
95	3
96	14
97	22
98	10
99	15
100	12
101	11
102	20
103	129
104	247
105	12
106	1
110	1
111	8
112	22
113	24
114	11
115	23
116	18
117	28
118	1
125	5
126	22
127	74
128	196
129	264
130	15
131	15
140	10
141	97
142	362
143	478
144	28
145	23
146	3
147	2
154	1
155	3
156	18
157	140
158	533
159	725
160	41
161	28
162	1
169	1
170	6
171	39
172	185
173	401
174	321
175	30
176	4
177	1
