Mass Spectrum: Benzeneethanamine, .alpha.,3,4-trimethyl-
Formula: C11H17N
CAS: 102-31-8
Molecular weight: 163
m/z	intensity
41	350
42	300
44	999
45	310
51	260
65	260
77	480
78	280
79	250
91	640
103	310
104	290
105	880
115	340
117	270
119	610
120	520
163	10
