Mass Spectrum: Resorcinol-bis(2-hydroxyethyl)ether
Formula: C10H14O4
CAS: 102-40-9
Molecular weight: 198
m/z	intensity
14	3
15	11
16	1
17	2
18	7
25	1
26	8
27	46
28	10
29	63
30	1
31	11
37	2
38	11
39	52
40	7
41	9
42	13
43	69
44	62
45	208
46	5
50	18
51	20
52	9
53	31
54	13
55	17
56	1
57	3
61	2
62	7
63	36
64	45
65	150
66	19
67	13
68	12
69	56
70	3
71	4
74	4
75	6
76	29
77	29
78	9
79	19
80	9
81	55
82	174
83	30
84	3
85	1
89	2
90	3
91	11
92	28
93	99
94	31
95	30
96	4
97	2
98	3
103	1
104	1
105	8
106	3
107	48
108	14
109	28
110	999
111	915
112	62
113	5
118	4
119	9
120	2
121	9
122	2
123	71
124	35
125	6
126	3
131	2
133	3
134	22
135	45
136	74
137	148
138	15
139	2
147	9
148	1
149	4
150	1
151	2
152	4
153	14
154	268
155	344
156	31
157	3
158	1
160	3
161	3
162	8
163	1
167	9
168	2
178	2
179	2
180	23
181	3
196	1
198	841
199	99
200	11
201	1
