Mass Spectrum: Morpholine, 4-(2-benzothiazolylthio)-2,6-dimethyl-
Formula: C13H16N2OS2
CAS: 102-78-3
Molecular weight: 280
m/z	intensity
38	201
40	641
41	649
43	123
45	148
50	61
51	80
55	39
56	98
58	45
60	56
63	46
68	94
69	150
70	765
71	107
73	44
77	176
78	26
82	37
84	36
91	18
96	32
102	77
108	119
112	281
113	70
114	999
115	121
122	49
123	17
135	79
146	21
162	90
163	96
166	74
167	824
168	102
169	74
193	21
233	16
280	56
