Mass Spectrum: Phenylpropanamide
Formula: C9H11NO
CAS: 102-93-2
Molecular weight: 149
m/z	intensity
14	1
15	1
16	1
17	10
18	56
26	3
27	42
28	9
29	2
30	8
37	3
38	9
39	71
40	6
41	14
42	9
43	4
44	114
45	22
46	9
49	2
50	44
51	142
52	33
53	15
54	6
55	47
56	3
57	1
58	2
59	2
61	3
62	12
63	45
64	9
65	139
66	13
67	1
70	1
71	9
72	144
73	7
74	16
75	15
76	16
77	238
78	237
79	178
80	11
85	1
86	2
87	2
89	29
90	9
91	999
92	81
93	24
94	5
95	2
98	2
101	4
102	20
103	182
104	610
105	760
106	203
107	25
108	2
115	7
116	2
117	4
118	2
119	1
120	6
121	1
122	1
128	2
129	1
130	19
131	187
132	207
133	78
134	9
135	1
146	3
147	2
148	136
149	952
150	106
151	7
