Mass Spectrum: Butane, 1,1-bis(ethenyloxy)-
Formula: C8H14O2
CAS: 102-68-1
Molecular weight: 142
m/z	intensity
26	58
27	323
28	125
29	356
31	117
39	141
41	205
42	120
43	563
44	112
45	111
53	37
55	759
56	44
57	770
58	31
69	83
70	32
71	45
73	55
79	23
81	154
83	21
98	7
99	999
100	77
101	7
141	5
142	1
