Mass Spectrum: 1-Acetyl-3-phenylurea
Formula: C9H10N2O2
CAS: 102-03-4
Molecular weight: 178
m/z	intensity
13	1
14	7
15	54
16	3
17	2
18	2
26	5
27	13
28	22
29	4
30	4
31	4
36	1
37	15
38	34
39	77
40	19
41	26
42	31
43	347
44	76
45	6
46	1
49	3
50	20
51	43
52	21
53	3
54	4
58	1
59	62
60	6
61	7
62	11
63	46
64	99
65	105
66	51
67	6
70	9
73	1
74	6
75	4
76	5
77	38
78	5
79	1
80	2
85	1
86	1
87	2
88	1
90	10
91	197
92	55
93	436
94	31
95	1
102	2
106	3
107	1
118	3
119	999
120	85
121	6
129	3
134	1
135	20
136	4
178	281
179	33
180	2
