Mass Spectrum: Benzeneacetic acid, 3,4-dihydroxy-
Formula: C8H8O4
CAS: 102-32-9
Molecular weight: 168
m/z	intensity
14	1
15	1
17	2
18	11
26	4
27	13
28	8
29	8
31	2
36	2
37	5
38	12
39	40
40	9
41	10
42	4
43	6
44	7
45	13
46	1
47	4
49	3
50	16
51	87
52	10
53	13
54	3
55	21
56	1
57	1
60	1
61	8
62	6
63	9
64	4
65	23
66	19
67	11
68	3
69	2
71	2
73	2
74	4
75	5
76	8
77	127
78	18
79	4
81	2
82	1
90	1
92	1
93	5
94	20
95	11
96	1
97	3
102	1
104	1
105	26
106	5
107	4
110	1
111	1
121	4
122	17
123	999
124	84
125	19
126	2
139	1
149	1
150	2
167	5
168	381
169	34
170	5
