Mass Spectrum: Acetamide, N-(3-aminophenyl)-
Formula: C8H10N2O
CAS: 102-28-3
Molecular weight: 150
m/z	intensity
14	1
15	10
18	1
26	2
27	9
28	5
29	3
30	3
37	4
38	15
39	39
40	16
41	29
42	26
43	172
44	5
49	1
50	13
51	30
52	68
53	94
54	27
55	5
56	2
60	1
61	4
62	10
63	26
64	22
65	44
66	18
67	19
68	6
69	4
74	2
75	5
76	5
77	6
78	18
79	23
80	263
81	178
82	13
87	1
88	1
89	2
90	7
91	36
92	17
93	8
94	4
104	2
105	17
106	9
107	71
108	999
109	84
110	3
119	1
120	1
121	7
122	3
132	1
134	18
135	6
150	539
151	52
152	3
