Mass Spectrum: 1.beta.,2.beta.,3.beta.,14.alpha.,20R,22R,24Xi,25-octahydroxy-5.beta.-cholest-7-en-6-one
Formula: C27H44O9
CAS: 102099-20-7
Molecular weight: 512
m/z	intensity
97	999
115	600
281	210
283	210
299	150
300	230
301	170
316	250
325	270
326	350
343	240
344	250
360	110
361	150
367	20
368	50
369	20
379	40
391	30
422	30
425	60
440	40
458	100
476	20
495	10
