Mass Spectrum: 17,18-Dinor-8.beta.H,9.beta.H-labda-13(16),14-diene-19,20-dioic acid, 15,16-epoxy-1.beta.,4,12-trihydroxy-, di-.delta.-lactone
Formula: C20H24O6
CAS: 10207-58-6
Molecular weight: 360
m/z	intensity
27	73
28	57
29	16
31	345
32	27
40	51
41	196
42	73
43	355
44	196
45	67
53	79
55	310
56	90
57	207
58	140
60	73
65	62
66	51
67	162
68	230
69	258
70	67
71	157
73	230
77	146
79	308
80	112
81	538
82	185
83	162
84	79
85	117
86	146
91	291
92	79
93	360
94	999
95	660
96	134
97	225
105	315
106	140
107	492
108	432
109	660
110	217
111	145
119	335
120	134
121	651
122	157
123	162
125	107
131	179
132	112
133	360
134	179
135	229
137	129
145	174
146	67
147	285
148	162
149	151
151	101
152	173
153	207
159	196
160	157
161	224
163	118
171	90
173	134
175	129
178	145
189	134
190	165
191	203
203	157
204	179
205	247
206	101
231	84
247	77
259	95
272	84
311	224
312	90
314	218
315	84
332	67
342	39
345	34
360	286
361	84
