Mass Spectrum: Methyl .beta.-dimethylaminoisobutyrate
Formula: C7H15NO2
CAS: 10205-34-2
Molecular weight: 145
m/z	intensity
15	101
16	1
18	11
26	5
27	27
28	36
29	29
30	60
31	6
32	1
37	1
38	3
39	26
40	8
41	43
42	138
43	33
44	32
45	9
52	1
53	1
54	2
55	9
56	19
58	999
59	52
60	1
68	5
69	6
70	13
71	12
72	2
73	1
74	1
86	9
88	5
89	3
96	9
100	2
102	1
114	1
126	1
130	2
