Mass Spectrum: 4-Acetamidophenyl-2-[1,4-dihydroxynaphthyl]sulfone
Formula: C18H15NO5S
CAS: 102028-78-4
Molecular weight: 357
m/z	intensity
43	303
50	474
51	114
53	136
54	69
63	129
65	83
73	41
74	381
75	299
76	696
77	160
93	119
101	117
102	999
103	92
104	801
105	98
108	63
124	64
125	65
129	62
130	617
131	42
136	248
140	122
157	34
158	673
159	61
357	44
