Mass Spectrum: .alpha.-Muurolene
Formula: C15H24
CAS: 10208-80-7
Molecular weight: 204
m/z	intensity
25	1
27	62
29	62
30	1
37	1
38	2
39	70
40	11
41	237
42	12
43	128
44	3
45	0
50	4
51	20
52	11
53	70
54	7
55	127
56	12
57	24
58	3
59	2
60	1
61	0
62	1
63	9
64	6
65	45
66	13
67	63
68	12
69	89
70	9
71	5
72	2
73	2
74	1
75	4
76	4
77	122
78	28
79	152
80	30
81	245
82	19
83	10
84	1
85	1
86	0
87	1
88	2
89	5
90	2
91	198
92	51
93	293
94	319
95	87
96	9
97	3
98	0
99	0
100	0
101	2
102	4
103	20
104	15
105	999
106	156
107	96
108	32
109	20
110	14
111	2
112	1
113	1
114	1
115	33
116	15
117	41
118	17
119	193
120	42
121	97
122	27
123	69
124	7
125	1
126	1
127	11
128	22
129	23
130	13
131	29
132	12
133	106
134	59
135	32
136	21
137	4
138	0
139	1
140	1
141	7
142	4
143	6
144	5
145	33
146	10
147	86
148	56
149	34
150	5
151	0
152	1
153	1
154	1
155	1
156	1
157	2
158	2
159	15
160	32
161	491
162	77
163	7
164	0
165	0
167	0
168	0
173	1
174	0
175	18
176	5
177	0
178	0
179	0
183	1
185	1
186	0
187	1
188	1
189	90
190	15
191	1
198	0
200	0
202	1
203	2
204	249
205	42
206	4
