Mass Spectrum: Hexylidencyclohexane
Formula: C12H22
CAS: 10201-62-4
Molecular weight: 166
m/z	intensity
39	108
41	678
42	75
43	312
53	126
54	264
55	762
56	102
57	96
66	36
67	999
68	216
69	192
71	48
77	60
79	114
80	57
81	681
82	510
83	342
84	42
91	72
93	36
95	180
96	384
97	102
109	336
110	84
166	168
167	22
168	1
