Mass Spectrum: Bicyclo[2.2.2]octan-1-amine, 4-phenyl-
Formula: C14H19N
CAS: 10206-89-0
Molecular weight: 201
m/z	intensity
26	15
27	17
28	260
29	225
30	78
31	283
32	179
38	8
39	68
41	100
42	85
43	87
44	154
45	59
46	8
50	24
51	55
52	20
53	39
54	52
55	61
56	52
57	52
63	25
64	11
65	35
66	12
67	41
68	28
69	999
70	170
71	40
72	7
73	76
74	9
75	9
76	15
77	71
78	43
79	39
80	24
81	51
82	165
83	43
84	23
85	18
86	18
87	15
89	10
91	175
92	29
93	29
94	29
95	44
96	62
97	33
98	16
101	12
102	18
103	33
104	21
105	35
107	15
108	25
109	25
110	20
113	93
114	13
115	88
116	32
117	48
123	18
124	18
125	24
126	38
127	36
128	53
129	70
130	37
131	23
132	18
139	123
140	19
141	35
142	17
143	40
144	30
145	24
152	52
153	23
154	17
155	37
156	28
157	37
158	116
159	17
170	14
171	34
172	148
173	79
174	13
184	28
185	32
186	22
198	35
199	34
200	52
201	308
202	57
203	6
