Mass Spectrum: 3-(4,8,12-Trimethyltridecyl)thiophene
Formula: C20H36S
CAS: 102037-89-8
Molecular weight: 308
m/z	intensity
50	3
51	9
52	6
53	50
54	9
55	171
56	50
57	186
58	21
59	6
61	3
63	3
65	18
66	9
67	32
68	9
69	65
70	18
71	62
72	6
73	3
75	3
76	3
77	24
78	12
79	18
80	3
81	21
82	33
84	21
85	77
86	18
87	6
91	15
93	9
95	18
97	613
98	999
99	165
100	77
101	9
105	6
107	6
109	15
110	41
111	192
112	53
113	21
114	3
119	3
120	3
121	3
124	18
125	41
127	18
128	3
129	3
133	3
134	3
135	6
136	3
137	3
138	3
139	6
140	3
141	3
148	3
149	3
151	6
152	35
154	18
155	12
156	6
161	3
167	27
168	12
169	9
170	3
179	3
181	12
182	15
183	3
195	21
196	6
198	3
201	3
207	3
214	3
223	6
224	3
237	6
238	3
239	3
251	3
261	3
265	9
266	3
279	3
280	3
293	9
294	3
306	3
308	130
309	35
