Mass Spectrum: Pyridazin-3(2H)-one, 4-chloro-2-(3-chlorophenyl)-5-methoxy-
Formula: C11H8Cl2N2O2
CAS: 102051-81-0
Molecular weight: 270
m/z	intensity
38	5
39	31
40	12
43	33
44	33
50	11
51	13
53	9
60	6
63	46
64	4
74	1
75	98
76	35
85	7
88	1
90	15
103	202
104	77
105	70
106	5
111	999
112	340
113	348
114	82
125	22
136	1
137	4
138	1
139	322
140	523
141	53
269	173
270	384
271	203
272	278
273	67
274	1
