Mass Spectrum: 3,6,9,12-Tetraoxa-15-azapentacosan-1-ol, TMS derivative
Formula: C23H51NO5Si
CAS: 102145-78-8
Molecular weight: 449
m/z	intensity
29	235
30	222
32	63
39	65
41	274
42	191
43	520
44	999
45	308
55	170
56	245
57	170
58	175
59	117
60	115
61	31
67	29
68	29
69	99
70	112
71	110
72	100
73	637
74	57
75	198
77	60
81	29
82	31
83	44
84	81
85	26
86	47
87	44
88	42
89	39
91	29
98	50
100	94
101	44
102	29
103	214
105	26
116	50
117	151
118	42
135	47
147	68
168	68
169	23
170	475
171	65
182	39
184	112
197	31
226	39
228	57
322	70
