Mass Spectrum: 7-Chloro-3-[2,4-dichlorophenyl]-1-[[2,6-dimethyl-1-piperidinyl]imino]-1,3,4,10-tetrahydro-10-hydroxy-9(2H)-acridinone
Formula: C26H26Cl3N3O2
CAS: 102192-59-6
Molecular weight: 517
m/z	intensity
41	223
42	268
43	91
44	97
45	11
47	20
48	3
52	7
53	30
54	38
55	302
56	111
57	50
58	194
59	13
63	9
64	3
65	17
66	8
67	38
68	56
69	140
70	165
71	40
72	81
73	13
75	20
77	24
78	35
79	14
80	11
81	33
82	38
83	114
84	15
85	32
86	71
87	7
88	16
89	11
91	15
94	13
95	17
96	50
97	40
98	504
99	52
100	7
101	18
102	15
105	11
106	28
107	18
108	3
109	9
110	57
111	288
112	999
113	148
114	37
115	20
119	7
121	29
122	23
123	21
124	30
125	25
126	31
127	31
128	18
129	3
131	3
135	20
136	29
137	29
138	29
139	26
140	23
141	13
142	3
145	13
147	13
148	20
149	33
150	23
151	20
152	25
153	27
154	17
155	14
159	139
160	19
161	90
162	22
163	25
164	42
165	13
166	24
167	13
170	3
171	12
172	14
173	19
174	20
175	15
176	17
177	17
178	13
179	14
180	8
182	3
183	8
187	6
188	13
189	14
190	7
191	11
193	7
195	13
197	4
200	10
201	3
202	8
203	15
204	7
205	11
209	3
214	7
215	7
216	20
217	24
218	30
219	21
220	13
228	7
229	7
230	17
231	36
232	18
233	16
234	11
236	3
238	8
239	3
240	16
241	14
242	7
243	27
244	30
245	38
246	26
247	15
248	3
251	36
252	31
253	14
259	20
260	3
261	15
269	3
270	8
272	4
275	7
289	3
303	3
304	11
305	3
318	20
319	7
320	3
338	3
339	6
340	8
341	3
352	7
353	33
354	17
355	25
356	13
371	3
388	15
389	21
390	36
391	29
392	28
393	18
394	7
405	7
407	3
418	3
420	3
486	47
487	14
488	46
489	9
490	16
501	22
503	20
517	18
518	5
519	18
520	5
521	6
522	1
