Mass Spectrum: 1,1-Dichloro-1,4,4-trimethyl-4-vinyldisilethylene
Formula: C7H16Cl2Si2
CAS: 102105-37-3
Molecular weight: 226
m/z	intensity
59	167
60	8
71	37
78	8
85	999
86	88
87	37
93	27
95	7
97	28
105	38
106	50
107	18
108	19
113	10
198	9
199	30
201	18
211	81
213	60
215	9
