Mass Spectrum: Methyl N-methyl-N-formyldithiocarbamate
Formula: C4H7NOS2
CAS: 102127-58-2
Molecular weight: 149
m/z	intensity
41	117
42	584
44	227
45	650
46	174
47	612
48	172
59	94
72	219
73	336
74	999
76	170
88	161
91	113
121	274
149	581
