Mass Spectrum: (O-Butylphenoxy)acetic acid
Formula: C12H16O3
CAS: 102167-36-2
Molecular weight: 208
m/z	intensity
17	3
18	1
27	9
28	7
29	6
31	3
38	1
39	13
40	1
41	9
42	2
43	5
44	2
45	2
50	3
51	12
52	5
53	5
55	12
60	1
62	1
63	7
64	3
65	25
66	2
75	1
76	2
77	50
78	17
79	25
80	1
81	1
89	10
90	5
91	118
92	11
93	4
94	6
95	1
102	2
103	9
104	2
105	11
106	2
107	999
108	82
109	22
110	1
115	8
116	2
117	9
118	2
119	21
120	8
121	63
122	9
123	1
127	1
128	2
129	1
131	6
132	8
133	23
134	4
135	4
137	159
138	13
139	1
145	2
147	9
148	11
149	32
150	7
151	2
152	25
153	2
161	6
162	2
163	6
164	4
165	486
166	73
167	8
179	11
180	2
190	11
191	1
207	1
208	559
209	74
210	8
