Mass Spectrum: 1,1,1,4-Tetrachloro-4,4-divinyldisilethylene
Formula: C6H10Cl4Si2
CAS: 102105-72-6
Molecular weight: 278
m/z	intensity
63	117
64	20
65	98
67	27
90	80
91	347
92	56
93	141
94	42
116	37
117	999
118	117
119	346
120	58
121	80
122	37
125	81
126	28
127	60
128	18
129	19
133	20
135	19
137	7
215	28
217	27
219	10
224	42
226	47
228	30
247	39
248	7
249	40
250	8
251	80
252	18
253	92
254	9
255	48
257	10
278	5
280	7
282	3
