Mass Spectrum: 1,1,1,4,7,7,7-Heptamethyl-4-vinyltrisilethylene
Formula: C13H32Si3
CAS: 102105-40-8
Molecular weight: 272
m/z	intensity
59	267
60	21
61	8
71	38
72	8
73	999
74	78
75	37
85	427
86	136
87	41
97	481
98	70
99	28
111	35
113	19
115	30
116	8
117	37
127	30
128	22
129	87
130	8
131	77
141	38
142	7
143	88
144	17
145	37
155	50
156	18
157	146
158	19
159	20
171	708
172	137
173	57
244	16
272	61
