Mass Spectrum: 7-Chloro-3-[2,4-dichlorophenyl]-1,3,4,10-tetrahydro-10-hydroxy-1-[(piperidin-1-yl)imino]-9(2H)-acridinone
Formula: C24H22Cl3N3O2
CAS: 102192-58-5
Molecular weight: 489
m/z	intensity
41	381
42	474
43	176
44	250
45	22
49	12
50	47
51	58
52	58
53	58
54	151
55	577
56	384
57	218
58	18
59	9
62	8
63	22
64	7
65	17
66	8
67	38
68	53
69	31
70	74
71	11
73	9
74	11
75	41
76	12
77	14
78	17
79	46
80	28
82	138
83	216
84	999
85	280
86	54
87	10
88	7
89	13
90	6
96	6
97	13
98	41
99	110
100	70
101	25
102	20
106	7
109	9
110	18
111	24
112	11
113	23
114	20
115	15
119	12
121	16
123	19
124	14
125	22
126	24
127	22
128	15
135	26
137	51
138	27
139	21
140	17
141	9
142	7
145	16
147	12
148	16
149	15
150	17
151	15
152	20
153	16
154	12
155	12
159	98
161	74
162	25
163	22
164	39
165	10
166	18
167	7
168	6
169	6
170	9
171	9
172	14
173	14
174	15
175	11
176	14
177	13
178	8
179	11
180	7
181	6
183	10
184	6
187	7
188	10
189	11
190	8
193	7
195	8
200	7
201	6
202	8
203	9
204	6
210	7
213	6
214	8
215	6
216	11
217	13
218	40
219	23
220	16
221	8
227	7
230	10
231	52
232	15
233	18
234	6
236	17
237	15
239	7
240	13
241	10
242	9
243	19
244	24
245	64
246	23
247	16
253	7
261	13
262	7
263	7
274	7
275	7
289	9
290	8
291	7
303	7
304	7
305	6
314	13
316	12
317	11
318	27
319	13
320	10
325	6
326	10
327	6
328	8
334	6
338	11
339	15
340	14
341	12
342	7
352	19
353	61
354	35
355	63
356	27
357	31
358	11
359	6
360	10
362	15
363	6
364	9
369	15
370	7
371	27
372	11
373	18
374	9
375	12
376	7
377	9
387	45
388	115
389	109
390	278
391	176
392	222
393	126
394	75
395	35
396	12
403	7
404	29
405	27
406	39
407	28
408	22
409	14
410	6
439	10
455	6
470	26
471	38
472	40
473	236
474	83
475	208
476	64
477	68
478	20
479	10
487	15
488	7
489	148
490	43
491	137
492	36
493	46
494	12
