Mass Spectrum: Benzene, 1-(3-chloro-2-propenyloxy)-2-(3-chloro-2-propenyl)-
Formula: C12H12Cl2O
CAS: 102117-72-6
Molecular weight: 242
m/z	intensity
35	2
36	5
37	11
38	35
39	254
40	17
41	6
42	0
43	3
44	1
45	0
46	0
47	3
48	4
49	89
50	43
51	135
52	36
53	19
55	19
57	7
59	0
60	2
61	12
62	21
63	63
64	13
65	26
66	4
67	1
68	0
69	1
70	1
71	1
72	3
73	22
74	26
75	999
77	561
78	88
79	12
80	0
81	0
83	0
84	2
85	3
86	4
87	8
88	5
89	43
90	14
91	28
92	3
93	0
94	2
95	0
96	0
97	1
98	2
99	7
101	24
102	40
103	173
104	36
105	14
106	18
107	77
108	6
109	0
110	0
111	1
112	1
113	11
114	9
115	80
116	13
117	9
118	20
119	57
120	6
121	0
123	0
125	11
126	1
127	10
128	17
129	8
131	546
132	97
133	40
134	3
135	0
136	0
137	1
138	0
139	10
140	1
141	14
142	3
143	18
144	9
145	24
146	3
147	0
148	0
149	4
150	1
151	3
152	3
153	11
154	2
155	1
156	1
157	4
158	1
159	14
160	1
161	0
162	0
163	0
165	9
166	2
167	225
168	25
169	81
170	15
171	125
172	17
173	1
175	0
176	0
177	0
178	1
179	2
180	1
181	2
182	0
183	0
184	0
189	0
191	0
193	2
194	0
195	0
201	0
202	0
203	0
204	0
205	13
206	22
207	59
208	14
209	17
210	2
211	0
213	0
227	0
240	0
242	122
243	17
244	81
245	10
246	14
247	1
