Mass Spectrum: Cyclododecane, 1,5,9-tris(acetoxy)-
Formula: C18H30O6
CAS: 102175-50-8
Molecular weight: 342
m/z	intensity
26	0
27	5
29	2
31	2
39	12
40	2
41	103
42	24
43	999
44	40
45	13
51	0
52	0
53	24
54	112
55	190
56	22
57	87
58	31
59	7
60	4
61	42
62	1
65	9
66	27
67	255
68	106
69	83
70	61
71	101
72	10
73	4
77	17
78	25
79	150
80	236
81	309
82	173
83	137
84	239
85	187
86	33
87	7
91	68
92	81
93	163
94	153
95	207
96	112
97	182
98	324
99	69
100	12
101	28
102	1
103	37
104	7
105	39
106	38
107	75
108	168
109	108
110	72
111	180
112	65
113	22
114	12
115	13
116	1
117	5
118	7
119	114
120	80
121	126
122	45
123	73
124	77
125	32
126	27
127	16
128	24
129	3
130	1
131	3
132	2
133	104
134	120
135	25
136	106
137	111
138	94
139	27
140	11
141	10
142	4
143	2
144	1
145	5
146	25
147	31
148	6
149	9
150	4
151	44
152	60
153	10
154	4
155	26
156	4
157	4
158	0
160	2
161	23
162	225
163	58
164	25
165	15
166	4
167	0
168	1
169	4
170	5
171	2
176	4
177	0
178	6
179	21
180	271
181	62
182	6
183	2
186	4
193	0
194	16
195	2
196	0
197	31
198	6
199	0
204	15
205	2
207	1
212	4
215	1
222	62
223	13
224	1
225	4
226	0
239	6
240	24
241	4
254	9
255	0
282	10
283	7
284	0
285	3
