Mass Spectrum: Carbamodithioic acid, formyl-, methyl ester
Formula: C3H5NOS2
CAS: 102118-25-2
Molecular weight: 135
m/z	intensity
44	249
45	650
47	667
48	647
58	175
59	623
60	999
62	119
64	192
74	304
76	243
77	74
79	170
88	130
91	125
107	173
135	409
