Mass Spectrum: 3-Heptadecyl-1H-1,2,4-triazole
Formula: C19H37N3
CAS: 102181-06-6
Molecular weight: 307
m/z	intensity
27	4
28	3
29	11
30	0
39	2
40	0
41	22
42	4
43	32
44	20
45	1
46	0
52	0
53	1
54	2
55	14
56	3
57	11
58	0
59	0
60	2
61	0
65	0
66	0
67	2
68	1
69	4
70	2
71	3
72	0
73	1
74	0
77	0
78	0
79	0
80	0
81	1
82	4
83	999
84	8
85	1
86	0
87	0
91	0
93	0
94	0
95	1
96	88
97	20
98	1
99	0
105	0
107	0
108	0
109	1
110	18
111	3
112	0
115	0
120	0
121	0
122	1
123	1
124	9
125	6
126	0
127	0
129	0
136	0
137	0
138	29
139	5
140	0
141	0
152	24
153	3
154	0
164	0
165	0
166	8
167	1
168	0
178	0
180	7
181	2
182	0
192	0
194	9
195	2
196	0
205	0
206	0
208	9
209	2
210	0
220	0
222	8
223	2
224	0
227	0
236	6
237	2
238	0
239	0
250	7
251	2
252	0
256	0
262	0
264	21
265	5
266	0
267	0
276	0
277	0
278	15
279	3
280	0
292	2
293	0
306	12
307	85
308	18
309	1
310	0
