Mass Spectrum: p-Toluenesulfonamide, N-methoxy(butylamino)methylidene
Formula: C13H20N2O3S
CAS: 10219-48-4
Molecular weight: 284
m/z	intensity
27	161
28	25
29	177
30	153
39	134
41	408
43	215
55	203
56	158
57	117
58	177
65	203
72	300
77	66
87	280
91	999
92	219
104	44
105	85
106	33
107	77
111	26
112	38
113	22
114	46
120	47
121	77
124	98
129	582
155	601
163	79
176	40
184	60
185	30
186	26
187	53
195	22
198	30
212	48
219	39
223	49
229	80
241	52
242	30
253	60
255	48
269	80
284	169
