Mass Spectrum: 1,1-Dichloro-1,4-dimethyl-4,4-divinyldisilethylene
Formula: C8H16Cl2Si2
CAS: 102105-43-1
Molecular weight: 238
m/z	intensity
71	157
85	18
86	7
97	999
98	117
99	46
105	50
106	31
117	29
119	8
184	51
186	30
211	60
213	39
223	21
225	11
