Mass Spectrum: Propanenitrile, 3-[(2-ethylhexyl)oxy]-
Formula: C11H21NO
CAS: 10213-75-9
Molecular weight: 183
m/z	intensity
15	2
26	8
27	93
28	36
29	151
30	6
31	44
32	1
37	1
38	3
39	93
40	19
41	417
42	90
43	333
44	20
45	78
46	2
50	3
51	11
52	16
53	45
54	328
55	479
56	338
57	999
58	72
59	6
63	1
65	6
66	2
67	22
68	20
69	127
70	215
71	84
72	85
73	4
74	1
77	4
78	1
79	4
80	2
81	7
82	33
83	162
84	120
85	89
86	85
87	5
91	1
93	1
94	3
95	3
96	10
97	20
98	53
99	11
100	1
108	3
109	1
110	42
111	29
112	165
113	27
114	7
122	3
123	1
124	82
125	31
126	95
127	30
128	4
136	2
137	1
138	60
139	7
140	81
141	15
142	1
152	12
153	4
154	107
155	21
156	2
166	2
168	22
169	3
182	7
183	1
