Mass Spectrum: 1,1,4-Trimethyl-1,4-dichloro-4-vinyldisilethylene
Formula: C7H16Cl2Si2
CAS: 102105-51-1
Molecular weight: 226
m/z	intensity
57	57
58	416
59	288
60	45
63	50
65	81
67	29
69	48
70	298
71	227
72	60
73	86
78	57
79	261
80	38
81	95
82	17
83	177
84	29
85	272
86	999
87	118
88	40
93	507
94	47
95	187
96	65
97	323
98	314
99	61
100	12
105	566
106	91
107	202
108	27
117	88
119	35
171	30
173	18
175	29
177	10
191	21
193	7
199	90
201	28
211	158
212	27
213	111
214	18
215	31
226	10
