Mass Spectrum: 1,1,1-Trimethyl-4-chloro-4,4-divinyldisilethylene
Formula: C9H19ClSi2
CAS: 102105-60-2
Molecular weight: 218
m/z	intensity
59	87
73	999
74	78
75	37
82	278
83	46
84	24
85	31
98	46
99	18
109	26
110	152
111	24
112	55
113	56
141	23
156	17
157	16
175	23
176	5
177	9
178	1
179	1
203	237
204	35
205	78
206	17
207	7
218	31
220	10
