Mass Spectrum: 1,1,1,7,7,7-Hexamethyl-4-vinyl-4-chlorotrisilethylene
Formula: C12H29ClSi3
CAS: 102105-62-4
Molecular weight: 292
m/z	intensity
59	218
73	999
74	81
75	46
85	338
86	87
87	39
89	78
90	19
97	318
98	17
127	58
128	227
129	76
130	17
141	278
142	47
143	98
144	18
145	66
146	18
155	48
156	608
157	345
158	110
159	37
165	30
167	8
169	191
170	58
171	36
172	20
173	91
174	28
184	9
187	287
188	71
189	48
190	9
191	47
193	19
277	90
278	19
279	28
280	10
292	48
293	9
294	21
