Mass Spectrum: 1,1,1,4,-Tetramethyl-4,4-divinyldisilethylene
Formula: C10H22Si2
CAS: 102105-39-5
Molecular weight: 198
m/z	intensity
58	67
59	137
71	430
72	37
73	888
74	80
75	39
85	227
86	285
87	41
97	999
98	137
99	48
155	451
156	76
157	39
170	41
171	19
183	70
184	11
198	42
