Mass Spectrum: 2-[7-Chloro-3,4,9,10-tetrahydro-10-hydroxy-9-oxo-3-[3-[trifluoromethylphenyl]-1(2H)-acridinylidene]hydrazinecarboxamide
Formula: C21H17ClF3N5O2
CAS: 102192-43-8
Molecular weight: 463
m/z	intensity
42	265
43	999
44	429
45	75
49	48
50	37
51	67
58	73
59	253
60	203
63	65
69	96
74	47
75	124
76	42
77	75
78	52
84	68
86	46
87	37
88	37
89	37
95	35
99	63
100	51
101	53
102	62
103	52
106	40
109	63
110	70
111	86
112	47
113	77
114	96
115	57
119	56
120	38
121	35
122	35
123	49
124	69
125	97
126	122
127	134
128	94
129	38
133	61
135	35
136	91
137	54
138	116
139	111
140	120
141	58
142	40
143	35
145	176
146	63
147	41
148	67
149	57
150	65
151	204
152	117
153	130
154	85
155	75
158	34
159	163
160	59
161	43
162	62
163	68
164	152
165	64
166	106
167	56
169	41
170	39
171	51
172	73
173	52
174	61
175	42
176	50
177	50
178	51
179	60
180	40
181	37
182	44
183	57
184	56
185	54
187	87
188	81
189	55
190	41
192	35
193	40
194	75
195	81
200	41
202	61
203	41
204	46
205	43
207	37
213	47
214	44
215	43
216	106
217	74
218	154
219	86
220	61
224	76
227	43
228	47
229	108
230	162
231	127
232	81
233	82
234	35
238	36
240	75
241	88
242	98
243	155
244	107
245	223
246	134
247	86
248	43
253	48
254	38
255	47
256	47
258	61
259	35
260	70
261	50
262	50
263	35
269	54
270	71
271	80
272	43
275	437
276	91
277	167
278	43
283	41
284	60
285	90
286	36
287	55
288	104
289	57
290	70
291	39
297	36
298	57
302	50
303	47
304	69
305	52
306	56
308	52
309	61
310	52
318	68
319	53
320	41
321	38
323	46
324	42
326	45
332	56
334	42
338	46
339	45
347	38
348	46
352	51
353	47
354	49
360	84
361	39
362	50
367	55
369	69
371	41
372	76
373	359
374	162
375	158
376	64
386	95
387	280
388	881
389	394
390	658
391	220
392	147
393	44
397	56
398	46
399	36
402	40
403	133
404	108
405	141
406	86
407	44
416	96
417	35
428	44
429	48
430	59
431	42
445	72
446	59
447	627
448	172
449	213
450	51
463	190
464	38
465	64
