Mass Spectrum: 3-(p-Hydroxyphenyl)-1-propanol
Formula: C9H12O2
CAS: 10210-17-0
Molecular weight: 152
m/z	intensity
15	3
18	1
26	2
27	30
28	8
29	7
30	1
31	21
37	1
38	5
39	49
40	7
41	10
42	1
43	9
44	1
45	2
50	9
51	31
52	15
53	23
54	2
55	22
56	1
57	5
58	2
61	1
62	7
63	15
64	5
65	34
66	8
67	3
68	1
74	3
75	4
76	1
77	127
78	27
79	23
80	4
81	5
87	1
89	6
90	5
91	42
92	7
93	7
94	26
95	11
96	6
101	1
102	3
103	25
104	3
105	21
106	6
107	999
108	127
109	9
110	1
115	5
116	7
117	12
118	3
119	17
120	12
121	21
122	2
123	4
131	2
132	3
133	147
134	174
135	15
136	1
150	1
152	311
153	30
154	2
