Mass Spectrum: Ethyl N-methyl-N-formyldithiocarbamate
Formula: C5H9NOS2
CAS: 102127-59-3
Molecular weight: 163
m/z	intensity
41	198
42	364
43	58
44	339
45	496
46	190
47	446
58	82
59	124
60	74
61	124
62	430
72	396
73	727
74	999
75	99
76	264
77	165
88	74
102	74
105	41
107	289
135	512
163	397
