Mass Spectrum: 2-Benzoyl-8-octanelactam
Formula: C15H19NO2
CAS: 102222-14-0
Molecular weight: 245
m/z	intensity
26	29
27	225
29	126
38	26
39	176
40	36
41	286
42	58
43	126
44	73
50	66
51	264
52	36
53	60
54	38
55	324
56	121
57	77
58	26
60	11
62	11
63	38
64	24
65	52
66	20
67	67
68	28
69	82
70	60
71	35
74	17
75	21
76	46
77	819
78	104
79	58
80	17
81	60
82	44
83	37
84	58
85	72
86	13
89	20
91	74
92	20
93	25
94	20
95	62
96	25
97	38
98	187
99	604
100	53
102	13
103	28
104	21
105	999
106	93
107	19
108	10
109	18
110	13
111	26
112	159
113	54
115	71
116	21
117	26
118	12
120	56
121	19
122	32
123	37
124	75
125	56
126	27
127	17
128	32
129	44
130	23
131	33
132	15
133	120
134	21
135	15
139	23
140	52
141	32
142	13
146	23
147	82
148	29
157	23
158	23
159	20
164	20
165	13
169	13
176	17
177	24
185	12
187	23
188	19
189	12
202	13
204	14
211	9
215	11
216	12
217	12
226	7
227	19
228	13
244	9
245	34
246	10
