Mass Spectrum: 4-Acetoxy-1,2,3,5,6,7,8,8a-octahydroazulene
Formula: C12H18O2
CAS: 102261-82-5
Molecular weight: 194
m/z	intensity
39	340
41	590
43	999
53	200
55	260
67	560
79	290
81	260
95	510
110	360
111	590
123	320
152	710
194	20
