Mass Spectrum: 2-Hexanone, 6-bromo-
Formula: C6H11BrO
CAS: 10226-29-6
Molecular weight: 178
m/z	intensity
41	50
42	30
43	999
44	20
51	10
53	20
55	130
56	10
58	10
71	40
83	10
97	10
98	20
99	180
135	10
137	10
