Mass Spectrum: 1-Hydroxy-4-methoxyiminomethyl-2,2,5,5-tetramethyl-3-imidazoline-3-oxide
Formula: C9H17N3O3
CAS: 102231-12-9
Molecular weight: 215
m/z	intensity
37	23
38	47
39	480
40	126
41	999
42	689
43	220
44	41
45	56
46	5
49	3
50	17
51	46
52	64
53	390
54	189
55	330
56	420
57	40
58	819
59	62
60	6
61	6
63	6
64	14
65	36
66	134
67	116
68	214
69	288
70	126
71	76
72	26
73	176
74	909
75	34
76	4
77	6
78	9
79	13
80	400
81	370
82	146
83	61
84	340
85	132
86	8
87	2
88	3
91	4
92	4
93	38
94	68
95	64
96	48
97	252
98	86
99	14
100	6
105	3
106	5
107	16
113	68
114	5
115	5
117	2
118	3
119	4
120	16
121	39
122	62
123	44
124	11
125	102
126	110
127	218
128	6
129	2
130	2
133	3
134	13
135	19
136	42
137	90
138	21
139	12
140	2
141	54
142	709
143	82
144	8
145	6
150	7
151	6
152	42
153	76
154	7
166	6
167	18
168	52
169	152
170	16
182	12
183	13
184	46
185	6
198	2
199	30
200	19
214	17
215	254
216	32
217	3
