Mass Spectrum: 5-Thio-d-glucopyranose
Formula: C6H12O5S
CAS: 10227-19-7
Molecular weight: 196
m/z	intensity
41	182
42	760
43	717
45	872
47	464
55	281
57	365
58	182
59	605
60	999
61	309
71	196
73	703
74	71
76	71
77	67
85	75
87	67
89	122
97	27
98	23
101	100
102	33
113	14
116	9
119	33
127	10
129	22
131	9
147	29
160	9
178	5
