Mass Spectrum: 2-[(2RS)-2-(2-Hydroxyethoxy)propyl]-2-methyl-1,3-dioxolane
Formula: C9H18O4
CAS: 102275-52-5
Molecular weight: 190
m/z	intensity
31	100
43	330
45	140
69	90
87	999
89	110
99	90
101	80
113	50
115	50
175	40
