Mass Spectrum: Perhydrodi[1,3]dioxolo[4,5-b:4,5-d]pyran, 2,2,7,7-tetramethyl-3a-(bromomethyl)
Formula: C12H19BrO5
CAS: 10225-89-5
Molecular weight: 322
m/z	intensity
26	5
27	63
28	7
29	65
30	2
31	44
38	2
39	66
40	13
41	135
42	39
43	999
44	28
45	15
49	2
50	1
51	6
52	3
53	26
54	7
55	50
56	9
57	60
58	34
59	352
60	16
61	11
65	3
66	1
67	8
68	78
69	151
70	10
71	31
72	2
73	18
74	1
75	1
77	7
79	3
80	1
81	36
82	19
83	40
84	21
85	86
86	25
87	9
91	1
93	22
94	4
95	22
96	2
97	49
98	7
99	40
100	16
101	45
102	3
105	1
107	2
109	13
110	4
111	11
112	1
113	229
114	15
115	5
116	1
117	5
118	1
119	3
120	2
121	134
122	5
123	125
124	2
125	3
126	15
127	174
128	12
129	5
130	1
131	1
133	4
135	4
137	2
139	8
140	1
141	1
143	4
145	11
146	3
147	33
148	4
149	29
150	2
151	2
153	2
155	14
156	1
157	1
161	28
162	2
163	33
164	5
165	9
166	3
167	3
169	5
171	36
172	4
173	3
175	4
177	8
179	9
181	3
184	2
185	4
189	181
190	11
191	176
192	28
193	9
194	18
195	6
205	9
206	12
207	25
208	13
209	16
213	4
229	22
230	2
231	1
233	1
235	1
247	8
249	60
250	5
251	53
252	4
307	534
308	61
309	543
310	63
311	8
322	1
324	1
