Mass Spectrum: 1,3-Butanedione, 2-allyl-1-phenyl-
Formula: C13H14O2
CAS: 10225-38-4
Molecular weight: 202
m/z	intensity
27	29
28	3
29	1
31	0
38	1
39	22
40	0
41	13
42	2
43	186
44	3
45	0
49	0
50	18
51	76
52	8
53	18
54	6
55	16
57	1
62	1
63	5
64	1
65	4
66	0
67	0
69	4
71	0
72	0
73	0
74	3
75	5
76	10
77	283
78	22
79	5
80	0
81	16
82	5
83	4
85	0
86	0
89	2
90	0
91	16
92	2
97	26
98	1
101	0
102	2
103	4
104	3
105	999
106	65
107	5
108	0
109	2
114	0
115	9
116	3
117	5
118	1
119	1
120	4
121	0
125	1
126	0
127	5
128	3
129	6
130	1
131	9
132	1
133	2
139	0
141	9
142	9
143	3
144	27
145	15
146	1
147	1
157	1
158	1
159	95
160	40
161	5
162	2
163	0
169	0
173	0
174	0
183	2
184	3
185	0
187	1
200	1
201	5
202	20
203	3
