Mass Spectrum: 2-Phenyl-4(3H)-quinazolinone
Formula: C14H10N2O
CAS: 1022-45-3
Molecular weight: 222
m/z	intensity
26	1
27	3
28	15
29	1
37	1
38	5
39	16
40	1
41	5
43	4
44	2
50	28
51	31
52	8
53	1
55	4
56	2
57	7
61	1
62	5
63	23
64	27
65	9
66	2
67	1
69	3
70	2
71	5
74	8
75	13
76	41
77	111
78	12
79	1
81	2
82	2
83	26
84	4
85	3
87	1
88	2
89	5
90	48
91	25
92	89
93	6
94	1
95	2
96	11
97	14
98	3
99	1
101	1
102	14
103	13
104	65
105	39
106	2
109	1
110	5
111	54
112	1
113	1
115	1
116	2
117	6
118	5
119	999
120	83
121	6
125	1
126	1
127	1
128	2
129	1
133	1
135	2
138	1
139	4
140	5
141	1
144	2
145	9
149	2
150	2
151	12
152	10
153	5
154	1
164	2
165	2
166	10
167	5
168	2
176	1
177	6
178	24
179	24
180	4
191	1
192	8
193	17
194	16
195	7
196	1
203	1
204	1
205	29
206	5
220	2
221	32
222	906
223	145
224	12
