Mass Spectrum: Acetyl-2,3,4,6-tetra-O-acetyl-5-thio-d-glucopyranoside
Formula: C16H22O10S
CAS: 10227-18-6
Molecular weight: 406
m/z	intensity
43	999
45	9
55	3
57	3
58	4
59	5
60	4
61	5
69	7
71	4
73	13
76	1
81	5
85	11
86	3
87	4
89	1
97	13
98	3
99	4
101	14
102	7
103	10
113	37
114	40
115	14
125	10
129	23
131	4
142	83
143	22
144	4
155	14
156	2
169	1
171	19
173	2
184	86
185	119
186	15
202	6
213	10
226	20
227	51
228	6
244	4
245	4
286	2
346	1
347	1
