Mass Spectrum: p-Cyclohexanedione dioxime
Formula: C6H10N2O2
CAS: 10220-83-4
Molecular weight: 142
m/z	intensity
27	560
28	682
30	125
39	335
40	147
41	552
42	411
44	166
52	194
53	545
54	860
55	255
56	131
65	141
66	201
67	881
68	163
69	165
79	117
80	255
81	161
82	85
84	114
92	75
93	85
94	999
95	127
96	165
98	94
107	82
108	130
110	150
111	83
123	103
124	320
125	110
141	38
142	438
143	55
144	6
