Mass Spectrum: O,N-Dibenzoyl-6-hexenelactim
Formula: C20H19NO3
CAS: 102222-04-8
Molecular weight: 321
m/z	intensity
27	20
29	8
39	17
41	19
42	17
43	6
50	16
51	71
52	5
54	63
55	16
57	6
67	10
76	13
77	380
78	29
95	42
96	5
104	5
105	999
106	80
107	5
159	5
188	187
189	24
199	6
216	11
293	5
321	46
322	10
