Mass Spectrum: 2,4-Pentanedione, 3-isopentyl-
Formula: C10H18O2
CAS: 10225-31-7
Molecular weight: 170
m/z	intensity
39	80
41	140
42	40
43	999
53	40
55	100
56	30
57	30
58	130
59	30
68	30
69	150
70	140
71	600
72	60
81	30
85	220
86	40
87	30
88	30
95	130
98	30
99	30
100	310
101	150
110	260
111	40
113	160
128	110
155	30
170	50
