Mass Spectrum: syn-Benzaldoxime Methyl ether
Formula: C8H9NO
CAS: 10229-53-5
Molecular weight: 135
m/z	intensity
50	310
51	650
52	90
63	110
64	60
65	340
74	80
75	110
76	440
77	990
78	710
89	140
90	90
92	70
93	60
102	70
103	999
104	710
105	240
106	230
108	360
118	70
119	50
135	990
136	270
