Mass Spectrum: 2-Benzoyl-12-dodecanelactam
Formula: C19H27NO2
CAS: 102222-15-1
Molecular weight: 301
m/z	intensity
26	24
27	176
29	154
30	198
31	12
38	17
39	165
40	26
41	363
42	61
43	154
44	99
45	19
50	41
51	154
52	23
53	60
54	36
55	330
56	110
57	88
58	30
60	11
62	11
63	34
64	23
65	53
66	17
67	82
68	28
69	93
70	53
71	35
72	28
76	32
77	626
78	88
79	56
81	73
82	29
83	45
84	56
85	38
86	37
89	16
91	73
92	20
93	24
94	15
95	52
96	31
97	37
98	58
99	46
100	42
102	13
103	28
104	21
105	999
106	88
107	25
109	26
110	17
111	25
112	99
113	26
114	20
115	73
116	18
117	29
118	12
119	24
120	62
121	27
122	12
123	16
124	11
125	13
126	24
127	20
128	35
129	49
130	24
131	29
132	20
133	132
134	29
135	17
145	23
146	17
147	93
148	16
152	12
154	50
155	46
156	12
157	26
158	25
159	19
164	69
167	11
168	24
169	20
176	24
177	40
178	26
179	11
181	11
182	49
183	11
188	13
189	15
191	16
196	209
197	36
202	13
204	17
205	13
216	12
218	16
232	11
244	9
246	11
258	9
260	19
272	8
273	5
284	5
285	5
288	4
300	9
301	110
302	29
303	5
