Mass Spectrum: 1-(.beta.-d-2-Desoxyfuranosyl)-4-O-difluoromethyl-5-bromouracil
Formula: C10H11BrF2N2O5
CAS: 102302-65-8
Molecular weight: 356
m/z	intensity
12	9
13	10
14	14
15	84
16	7
17	4
18	13
19	90
20	14
24	4
25	22
26	39
27	191
28	195
29	302
30	28
31	334
32	22
33	3
35	4
36	6
37	13
38	64
39	183
40	186
41	203
42	157
43	540
44	187
45	412
46	34
47	89
48	7
49	5
50	20
51	252
52	45
53	194
54	75
55	104
56	27
57	149
58	28
59	16
60	22
61	17
62	2
63	2
64	5
65	9
66	23
67	66
68	62
69	199
70	176
71	210
72	19
73	344
74	92
75	15
76	3
77	4
78	11
79	26
80	16
81	70
82	19
83	14
84	7
85	53
86	15
87	9
88	2
89	2
90	6
91	38
92	73
93	46
94	75
95	33
96	24
97	43
98	30
99	205
100	13
101	5
103	3
104	47
105	13
106	54
107	17
108	13
109	8
110	2
111	7
112	3
113	11
114	4
115	9
117	999
118	120
119	39
120	276
121	31
122	222
123	9
124	4
125	3
127	6
128	9
130	4
131	12
132	9
133	17
134	12
135	9
136	9
137	2
139	1
141	3
143	3
144	2
145	5
146	17
147	314
148	36
149	304
150	24
151	3
152	1
153	3
157	2
158	5
159	4
160	10
161	11
162	8
163	10
164	3
165	1
167	1
169	1
172	1
173	9
174	51
175	13
176	49
177	4
178	5
180	3
184	1
186	7
187	2
188	7
189	3
190	4
191	5
192	4
193	5
198	3
199	1
200	4
201	1
202	3
204	2
212	22
213	1
214	31
215	2
216	7
217	3
219	2
220	4
221	7
222	5
223	8
224	1
230	0
240	142
241	22
242	139
243	20
244	2
247	2
249	2
257	1
266	0
267	5
268	5
269	5
270	4
277	1
279	0
295	0
296	0
297	1
298	1
307	0
309	1
313	2
315	2
325	0
327	0
356	6
357	0
358	7
359	0
