Mass Spectrum: Dodecanoic acid, 1-methylethyl ester
Formula: C15H30O2
CAS: 10233-13-3
Molecular weight: 242
m/z	intensity
41	514
42	166
43	999
44	58
45	55
46	1
47	2
49	0
50	3
51	8
53	25
54	31
55	367
56	88
57	548
58	31
59	219
60	829
61	495
62	19
63	3
64	2
65	4
66	5
67	61
68	40
69	200
70	74
71	266
72	22
73	356
74	84
75	4
76	1
77	4
78	3
79	13
80	7
81	66
82	31
83	194
84	89
85	219
86	21
87	133
88	24
89	34
90	1
93	14
94	4
95	86
96	37
97	122
98	78
99	41
100	7
101	92
102	497
103	79
104	6
105	0
107	16
108	2
109	57
110	15
111	49
112	23
113	11
114	3
115	113
116	12
117	10
119	2
120	2
121	11
122	2
123	16
124	4
125	13
126	2
127	1
129	160
130	21
131	4
132	1
133	0
135	7
136	3
137	2
138	9
139	7
140	21
141	6
143	68
144	7
145	0
147	1
149	5
151	3
152	2
153	3
157	97
158	11
159	0
162	2
163	14
164	3
165	4
167	2
168	0
171	40
172	6
173	1
175	2
176	1
180	3
181	16
182	5
183	186
184	31
185	1
191	0
193	0
199	2
200	241
201	186
202	22
203	2
207	1
222	0
227	1
242	5
