Mass Spectrum: 1-(.beta.-d-2-Desoxyribofuranosyl)-4-O-difluormethyl-thymine
Formula: C11H14F2N2O5
CAS: 102302-63-6
Molecular weight: 292
m/z	intensity
12	12
13	10
14	39
15	220
16	14
17	14
18	37
19	207
20	19
24	2
25	19
26	165
27	574
28	405
29	564
30	63
31	581
32	32
33	6
36	6
37	27
38	71
39	362
40	177
41	357
42	230
43	999
44	220
45	589
46	41
47	90
48	12
49	5
50	26
51	255
52	127
53	157
54	476
55	940
56	116
57	201
58	30
59	21
60	24
61	22
62	2
63	6
64	7
65	25
66	26
67	58
68	67
69	220
70	111
71	271
73	422
74	95
75	20
76	6
77	20
78	10
79	15
80	90
81	126
82	130
83	81
84	34
85	49
86	19
87	15
88	2
89	3
90	2
91	10
92	29
93	17
94	107
95	30
96	28
97	75
98	59
99	226
100	20
101	8
102	2
103	3
104	5
105	5
106	3
107	14
108	118
109	39
110	174
111	24
112	7
113	7
114	12
115	8
117	669
118	41
119	7
120	7
121	7
122	46
123	17
124	12
125	11
126	48
127	18
128	21
129	3
130	2
131	2
132	2
133	2
134	5
135	5
136	5
137	4
138	9
139	11
140	4
141	2
145	2
146	2
147	2
148	7
149	11
150	15
151	4
152	2
153	2
154	4
156	56
157	26
158	3
159	4
162	2
163	1
165	2
167	3
168	2
169	2
174	2
176	110
177	42
178	5
179	1
181	1
183	4
184	2
187	1
189	1
202	1
203	6
204	5
205	1
206	9
207	4
231	1
233	2
249	2
256	2
259	2
292	4
293	1
