Mass Spectrum: 4-[p-Fluorobenzylamino]-1-.beta.-d-ribofuranosylpyrazolo[3,4-d]pyrimidine
Formula: C17H18FN5O4
CAS: 102353-73-1
Molecular weight: 375
m/z	intensity
41	31
42	28
43	82
44	21
45	58
49	11
51	22
52	28
53	13
55	50
56	14
57	78
58	5
59	25
60	36
61	26
63	23
64	21
65	13
66	44
67	23
68	12
69	23
71	23
73	69
77	31
78	43
79	12
81	19
83	105
84	14
85	20
89	17
92	5
93	41
94	13
95	28
97	39
106	32
107	39
108	14
109	999
110	73
119	32
120	69
121	33
122	22
124	351
125	30
133	13
134	5
135	13
148	33
242	147
243	336
244	710
245	109
256	68
272	553
273	89
286	300
287	48
298	43
344	12
345	63
375	100
376	20
377	2
