Mass Spectrum: Methanone, [1-(1,1-dimethylethyl)-2-phenyl-3-azetidinyl]phenyl-, trans-
Formula: C20H23NO
CAS: 10235-75-3
Molecular weight: 293
m/z	intensity
41	54
55	60
57	170
70	252
77	338
91	83
103	62
104	164
105	664
106	79
115	63
117	999
132	63
133	84
146	97
160	123
167	19
236	399
237	67
238	239
239	59
276	100
277	49
293	79
