Mass Spectrum: 3-Pyridinecarboxylic acid, 1,4,5,6-tetrahydro-2,4-dimethyl-6-oxo-, ethyl ester
Formula: C10H15NO3
CAS: 10230-57-6
Molecular weight: 197
m/z	intensity
40	133
41	644
42	944
43	388
44	88
45	200
50	166
51	277
52	444
53	866
54	333
55	555
56	166
57	277
58	55
59	55
60	88
62	88
63	55
64	222
65	222
66	444
67	466
68	611
69	166
70	166
71	55
72	111
73	55
77	133
78	55
79	166
80	444
81	444
82	333
83	222
84	555
85	111
86	88
87	55
92	111
93	166
94	244
95	222
96	222
97	55
98	55
99	55
106	88
107	88
108	166
109	111
110	422
111	88
112	88
113	55
120	33
121	55
122	55
123	999
124	200
125	88
126	33
135	55
136	888
137	133
138	88
139	55
140	55
149	88
150	111
151	88
152	666
153	55
154	777
155	55
168	311
169	33
182	999
183	111
197	444
198	88
