Mass Spectrum: Propane-1,3-dione, 2-(1-adamantyl)-1,3-diphenyl-
Formula: C25H26O2
CAS: 102402-86-8
Molecular weight: 358
m/z	intensity
34	0
39	10
40	9
41	23
42	2
43	13
44	3
45	0
50	4
51	27
52	2
53	10
54	1
55	22
56	6
57	2
58	3
63	1
64	0
65	10
66	4
67	21
68	1
69	11
70	0
71	0
74	0
75	1
77	325
78	34
79	57
80	8
81	15
82	1
83	1
84	0
89	2
90	2
91	69
92	60
93	48
94	5
95	5
96	0
97	1
98	1
99	0
101	0
102	3
103	6
105	999
106	84
107	20
108	2
109	1
111	0
112	0
113	0
114	0
115	11
116	2
117	7
118	4
119	11
120	3
121	7
122	0
126	0
127	4
128	8
129	7
130	1
131	6
132	2
133	22
134	13
135	63
136	7
137	0
139	0
140	0
141	5
142	1
143	4
144	2
145	2
146	1
147	12
148	1
149	0
150	0
151	1
152	4
153	2
154	1
155	4
156	0
157	5
158	3
159	2
160	0
161	0
165	5
166	2
167	4
168	0
169	1
170	1
171	2
172	0
173	0
174	3
175	2
176	1
177	1
178	10
179	14
180	2
181	2
182	0
183	1
184	0
185	0
189	0
190	0
191	1
192	1
193	2
194	1
195	4
196	3
197	1
198	0
205	0
207	2
208	5
209	6
210	1
211	1
212	0
220	0
221	0
223	23
224	8
225	7
226	2
227	2
228	0
231	0
232	0
233	1
235	44
236	10
237	1
238	4
239	2
240	0
249	0
251	16
252	83
253	151
254	29
255	2
263	0
281	1
282	0
312	0
330	0
337	0
340	102
341	25
342	3
343	0
357	8
358	23
359	6
360	0
