Mass Spectrum: N-Nitroso-N-cyanomethylamphetamine
Formula: C11H13N3O
CAS: 10242-52-1
Molecular weight: 203
m/z	intensity
50	15
51	40
52	15
53	7
54	29
55	3
56	40
57	3
62	7
63	29
64	10
65	128
66	10
67	47
68	3
74	9
75	7
76	3
77	27
78	10
79	7
81	40
82	7
87	4
89	35
91	999
92	91
93	4
102	4
103	9
104	7
105	4
112	29
113	4
115	15
116	7
117	22
118	52
119	7
130	7
131	4
132	4
144	4
146	4
149	1
152	1
155	1
157	7
158	4
172	7
173	81
174	12
203	2
