Mass Spectrum: N-Phenyl-2-furancarbothioamide
Formula: C11H9NOS
CAS: 10243-03-5
Molecular weight: 203
m/z	intensity
39	443
45	49
51	198
55	29
63	60
65	89
66	29
69	49
71	50
72	30
74	59
76	29
77	309
82	28
83	70
93	29
94	157
100	30
102	59
103	29
109	60
110	345
111	999
149	39
151	29
170	326
202	598
203	845
