Mass Spectrum: Thiourea, N,N'-bis(2-furanylmethyl)-
Formula: C11H12N2O2S
CAS: 10248-89-2
Molecular weight: 236
m/z	intensity
33	3
34	2
35	1
36	5
37	20
38	63
39	215
40	50
41	164
42	42
43	31
45	61
47	9
48	1
49	3
50	55
51	143
52	122
53	691
54	49
55	59
57	10
58	10
59	22
60	98
61	4
62	6
63	5
64	6
65	8
66	20
67	26
68	45
69	206
70	14
71	10
72	16
73	7
74	4
75	2
76	2
77	5
78	21
79	12
81	923
82	65
83	16
84	10
85	41
86	3
87	4
88	0
89	3
90	1
91	3
92	1
93	5
94	53
96	999
97	61
98	6
99	9
100	9
101	13
102	1
103	1
104	1
105	1
106	7
107	1
108	2
109	1
110	3
111	4
112	10
113	34
114	4
115	3
116	0
117	0
118	1
119	1
120	2
121	19
122	1
123	1
125	9
126	5
127	9
128	9
129	1
130	1
131	2
132	1
133	0
135	1
137	17
138	8
139	5
140	1
141	4
142	1
144	0
145	0
146	1
147	3
148	1
149	0
150	0
151	0
153	4
155	203
156	16
157	9
159	6
160	6
161	3
162	0
163	0
165	0
166	0
167	1
168	4
169	0
170	0
171	0
172	0
173	0
174	0
175	2
176	1
177	0
178	0
179	0
180	0
181	0
184	0
185	0
187	0
189	0
190	0
192	0
193	0
194	0
195	0
201	0
202	0
203	0
204	0
205	0
207	6
208	0
217	0
218	0
232	0
234	9
236	164
237	20
238	8
239	0
240	0
