Mass Spectrum: Phenylthio 4-methylpent-3-enoate
Formula: C12H14OS
CAS: 102496-83-3
Molecular weight: 206
m/z	intensity
26	5
27	78
29	31
39	156
40	20
41	661
42	35
43	17
44	9
45	27
50	20
51	60
52	10
53	70
54	13
55	7
58	9
59	7
63	14
65	116
66	50
67	51
68	20
69	999
70	61
71	3
76	3
77	43
78	8
81	24
82	12
91	6
95	9
96	229
97	208
98	14
99	16
108	16
109	188
110	220
111	27
112	10
119	6
121	5
123	5
137	9
154	8
177	9
206	36
207	3
