Mass Spectrum: d-Ribonamide, n-octyl-
Formula: C13H27NO5
CAS: 102404-77-3
Molecular weight: 277
m/z	intensity
26	6
27	62
28	21
29	138
30	477
31	46
39	24
40	91
41	199
42	43
43	242
44	80
45	51
46	18
47	3
53	9
54	7
55	93
56	35
57	312
58	34
59	23
60	49
61	135
62	7
65	3
67	10
68	10
69	62
70	23
71	267
72	26
73	999
74	94
75	20
76	15
77	6
79	2
81	5
82	5
83	11
84	22
85	33
86	79
87	21
88	53
89	46
90	6
91	44
95	3
96	4
97	4
98	14
99	14
100	47
101	25
102	25
103	90
104	32
105	4
109	2
110	3
111	6
112	10
113	12
114	26
115	11
116	11
117	10
118	3
124	4
125	4
126	8
128	33
129	18
130	36
131	3
132	4
138	3
140	3
141	3
142	10
143	8
144	23
145	3
148	4
149	2
150	3
154	4
155	2
156	476
157	49
158	18
160	4
161	4
170	3
174	8
178	6
179	35
180	3
181	2
182	2
185	3
186	104
187	316
188	42
189	4
192	12
193	3
197	3
198	16
199	12
200	24
201	3
202	3
206	15
207	4
210	3
211	3
216	360
217	48
218	5
220	10
223	3
228	28
229	15
230	3
234	7
241	5
242	2
246	34
247	5
248	7
259	5
262	2
276	3
277	16
278	11
