Mass Spectrum: 2-Methyl-3-methoxycarbonyl-4,5-dihydro-1,4-oxathiine
Formula: C7H10O3S
CAS: 102437-87-6
Molecular weight: 174
m/z	intensity
43	999
45	51
57	22
58	43
62	21
87	95
104	294
142	109
143	146
146	73
174	463
175	29
176	13
