Mass Spectrum: 2,4-Dinitro-1-propoxybenzene
Formula: C9H10N2O5
CAS: 10242-17-8
Molecular weight: 226
m/z	intensity
26	12
27	235
28	17
29	26
30	126
31	4
37	12
38	41
39	119
40	16
41	409
42	194
43	999
44	30
45	2
46	10
49	2
50	34
51	74
52	25
53	54
54	7
55	8
56	1
57	5
58	5
59	5
60	1
61	18
62	83
63	193
64	44
65	16
66	7
67	6
68	11
69	3
70	1
71	1
73	5
74	53
75	66
76	27
77	29
78	9
79	107
80	17
81	4
82	3
83	2
84	1
87	1
88	1
89	4
90	3
91	90
92	44
93	67
94	7
95	3
96	9
97	1
98	1
102	1
103	2
104	2
105	7
106	4
107	112
108	18
109	5
110	3
111	0
115	1
118	1
119	2
120	4
121	5
122	6
123	2
124	1
126	1
137	1
138	16
139	3
151	16
152	64
153	7
154	122
155	9
156	2
167	35
168	80
169	8
170	1
184	509
185	227
186	20
187	2
196	4
197	1
211	3
226	80
227	10
228	1
