Mass Spectrum: Diphenyl ether, 2,4,6,4'-tetranitro-
Formula: C12H6N4O9
CAS: 10242-31-6
Molecular weight: 350
m/z	intensity
30	999
46	40
50	220
51	100
52	80
53	110
62	200
63	260
64	290
66	180
69	100
74	170
75	300
76	200
80	360
86	60
87	90
88	90
92	180
120	40
122	80
126	120
137	200
138	350
139	90
165	80
166	130
167	140
174	40
212	650
213	80
225	10
241	10
297	30
304	10
317	10
333	10
334	10
350	430
351	60
