Mass Spectrum: 2,2'-Bipyridine, 3,3'-dinitro-
Formula: C10H6N4O4
CAS: 1024-94-8
Molecular weight: 246
m/z	intensity
36	208
37	41
38	211
39	999
40	137
41	29
46	10
49	30
50	353
51	283
52	295
53	137
54	162
55	94
56	19
61	37
62	139
63	130
64	203
65	139
66	84
67	28
68	5
70	52
73	17
74	115
75	129
76	274
77	219
78	119
79	54
80	57
81	229
82	105
83	16
85	6
86	21
87	67
88	274
89	100
90	97
91	624
92	79
93	50
94	48
95	4
96	10
97	6
98	56
99	91
100	123
101	98
102	61
103	167
104	56
105	57
106	6
107	48
108	5
109	613
110	30
111	4
113	8
114	289
115	598
116	105
117	229
118	47
119	226
120	23
121	7
126	26
127	77
128	48
129	204
130	35
131	6
132	10
135	46
140	6
141	31
142	117
143	35
144	418
145	81
146	11
153	30
154	27
156	19
157	26
158	13
168	6
169	64
170	116
171	14
172	226
173	36
182	33
183	4
184	25
200	330
201	34
214	3
230	4
