Mass Spectrum: Toluene-4-sulfonic acid, benzyl ester
Formula: C14H14O3S
CAS: 1024-41-5
Molecular weight: 262
m/z	intensity
26	2
27	17
28	10
29	5
30	0
31	0
32	4
36	1
37	1
38	7
39	92
40	7
41	35
42	2
43	6
44	2
45	2
46	2
48	1
49	0
50	21
51	70
52	19
53	10
54	2
55	7
56	1
57	8
58	3
59	3
60	0
61	2
62	9
63	46
64	15
65	222
66	12
67	3
68	0
69	3
70	1
71	3
73	2
74	3
75	6
76	5
77	95
78	22
79	85
80	9
81	3
82	1
83	2
84	0
85	2
86	1
87	2
88	2
89	50
90	35
91	999
92	345
93	24
94	1
95	2
96	1
97	2
98	0
99	0
101	0
103	1
104	1
105	22
106	4
107	857
108	85
109	6
110	1
111	2
112	0
113	0
115	2
117	0
119	1
120	0
121	1
122	0
123	1
124	1
125	0
127	0
128	1
129	0
131	0
133	1
135	0
138	0
139	15
140	1
141	2
147	0
149	0
151	1
152	4
153	2
154	1
155	15
156	55
157	11
158	3
159	0
162	0
163	0
164	0
165	10
166	6
167	13
168	1
169	0
172	2
175	0
178	1
179	1
180	1
181	4
182	1
183	1
190	0
191	0
197	0
200	0
205	3
206	1
220	1
262	16
263	2
264	0
