Mass Spectrum: dl-2-Acetamido-2-methylsuccinic acid
Formula: C7H11NO5
CAS: 10249-29-3
Molecular weight: 189
m/z	intensity
14	5
15	48
16	2
17	7
18	15
26	4
27	17
28	42
29	19
30	11
31	9
37	1
38	4
39	41
40	18
41	66
42	361
43	591
44	80
45	62
46	3
50	1
51	1
52	3
53	2
54	7
55	9
56	32
57	232
58	162
59	15
60	89
61	9
66	1
67	4
68	10
69	8
70	18
71	8
72	2
73	3
81	1
82	9
83	19
84	392
85	55
86	28
87	8
88	143
89	5
90	1
96	1
97	1
98	10
99	97
100	23
101	13
102	999
103	52
104	5
110	12
111	2
112	6
113	32
114	23
115	2
116	1
126	22
127	3
128	11
129	2
130	45
131	6
132	25
133	1
143	6
144	474
145	50
146	12
147	6
148	1
149	2
156	2
171	1
172	15
173	2
174	1
189	48
190	4
