Mass Spectrum: Diethyl 4,4'-trithiobis[butanesulfinate]
Formula: C12H26O4S5
CAS: 102563-73-5
Molecular weight: 394
m/z	intensity
41	284
42	74
43	56
44	4
45	516
46	360
47	323
48	125
49	27
50	33
51	34
52	11
53	120
54	163
55	999
56	64
57	67
58	116
59	217
60	454
61	98
62	34
63	47
64	390
65	59
66	81
67	13
68	6
69	25
70	8
71	55
72	10
73	93
74	10
75	64
77	32
78	30
79	61
80	14
81	18
82	8
83	7
84	21
85	143
86	73
87	481
88	235
89	137
90	21
91	76
92	14
93	111
94	35
95	180
96	39
97	29
98	5
99	3
100	2
101	16
102	8
103	58
104	8
105	29
106	2
107	26
108	2
109	7
110	13
111	3
112	2
115	19
116	12
117	50
118	16
119	127
120	233
121	119
122	34
123	11
124	2
125	24
126	2
127	11
128	14
129	3
130	3
133	7
134	2
135	50
136	15
137	52
138	3
139	3
143	2
146	4
147	9
148	4
149	238
150	20
151	25
152	134
153	217
154	37
155	23
156	2
160	26
162	8
165	10
166	2
167	3
168	2
169	3
178	4
179	9
180	3
181	266
182	23
183	30
184	55
185	17
186	16
188	2
190	2
192	23
194	5
203	2
210	2
213	111
214	14
215	19
216	9
217	2
218	3
224	12
226	4
234	2
240	2
242	6
244	2
245	19
246	17
247	3
256	4
258	4
269	36
270	5
271	5
274	21
276	2
278	2
285	15
290	3
306	11
322	2
362	6
394	2
