Mass Spectrum: Xylose, 1-O-(2-nitrophenyl)-
Formula: C17H19NO10
CAS: 10256-24-3
Molecular weight: 397
m/z	intensity
35	0
36	1
37	1
38	3
39	11
40	3
41	20
43	999
44	22
45	5
47	0
49	0
50	5
51	4
52	0
53	2
55	9
56	1
57	8
58	0
59	0
60	4
61	5
62	3
63	10
64	5
65	11
66	1
67	0
68	13
69	52
70	4
71	7
73	17
74	3
75	13
76	2
77	4
78	0
79	0
81	2
82	0
83	1
84	2
85	17
86	4
87	2
89	1
91	0
92	0
93	1
94	4
95	1
97	334
98	22
99	18
100	4
101	5
102	4
103	4
104	0
107	0
111	10
112	2
113	11
114	13
115	34
116	1
121	0
125	0
127	12
128	62
129	7
130	19
131	3
132	0
133	0
139	176
140	13
141	3
143	0
144	0
145	0
155	1
156	8
157	130
158	9
159	1
162	0
164	0
165	1
167	0
169	0
170	2
171	0
172	0
173	0
174	0
175	0
181	0
183	1
185	0
199	41
200	3
201	0
207	0
211	0
216	1
217	0
259	42
260	4
261	0
