Mass Spectrum: Clozapine, N-acetyl-
Formula: C20H21ClN4O
CAS: 1025951-76-1
Molecular weight: 368
m/z	intensity
15	6
26	1
27	5
28	17
29	10
30	10
38	2
39	9
41	13
42	223
43	346
44	42
49	1
50	6
51	14
52	5
53	2
54	14
55	18
56	142
57	30
58	34
59	1
62	6
63	28
64	10
65	8
66	2
67	2
68	6
70	849
71	143
72	12
73	4
74	4
75	19
76	16
77	11
78	3
82	100
83	999
84	64
85	6
86	1
87	3
88	6
89	11
90	13
91	5
95	3
96	2
97	24
98	28
99	23
100	9
101	6
102	26
103	11
104	3
110	2
111	3
112	3
113	4
114	7
115	5
116	5
117	4
118	2
124	14
125	5
126	9
127	4
128	5
129	7
130	2
131	1
136	4
137	4
138	9
139	6
140	8
142	4
144	1
149	2
150	3
151	5
152	6
153	5
154	2
155	1
157	1
159	1
162	3
163	10
164	54
165	29
166	13
167	4
168	2
169	1
170	1
171	1
172	1
173	2
174	4
175	1
176	3
177	6
178	5
179	10
180	4
181	2
184	3
185	8
186	1
187	1
188	1
189	5
190	8
191	94
192	139
193	26
194	4
198	2
199	2
200	16
201	6
202	6
203	3
204	4
205	13
206	9
207	5
212	2
213	3
214	10
215	8
216	5
217	6
218	8
219	12
220	7
221	5
222	1
225	4
226	41
227	134
228	44
229	46
230	13
231	4
232	4
233	5
234	10
235	2
238	1
239	12
240	13
241	24
242	15
251	1
252	3
253	9
254	29
255	33
256	155
257	33
258	48
259	8
263	3
264	1
265	1
266	3
267	9
268	31
269	31
270	20
271	11
272	4
273	1
276	1
279	1
280	4
281	7
282	8
283	5
284	4
285	14
286	53
287	13
288	16
289	4
294	1
295	2
296	5
298	245
299	47
300	82
301	15
302	2
310	75
311	108
312	53
313	39
314	10
324	17
325	19
326	5
327	6
337	1
338	3
339	2
340	1
353	3
355	1
366	2
367	4
368	43
369	11
370	15
371	4
