Mass Spectrum: Ethene, (methylsulfinyl)-
Formula: C3H6OS
CAS: 10258-86-3
Molecular weight: 90
m/z	intensity
24	4
25	26
26	201
27	838
29	172
30	14
31	53
33	25
34	18
35	46
36	2
37	6
38	6
39	41
41	96
42	28
43	22
44	35
45	295
46	235
47	671
48	167
49	78
50	9
51	2
56	4
57	45
58	91
59	85
60	13
61	999
62	43
63	293
64	544
65	21
66	25
68	1
69	5
70	0
71	4
72	4
73	13
74	41
75	79
76	4
77	4
90	658
91	32
92	31
