Mass Spectrum: Tricyclo[4.1.1.0(7,8)]oct-3-ene
Formula: C8H10
CAS: 102575-25-7
Molecular weight: 106
m/z	intensity
26	24
27	149
28	29
29	4
37	7
38	33
39	329
40	37
41	85
42	2
44	0
46	1
49	3
50	94
51	220
52	180
53	73
54	22
55	2
61	3
62	19
63	65
64	12
65	195
66	64
67	18
68	0
73	1
74	17
75	21
76	19
77	388
78	834
79	422
80	35
81	1
86	1
87	1
89	17
90	6
91	999
92	77
93	4
98	1
101	2
102	16
103	129
104	29
105	287
106	246
107	20
108	0
