Mass Spectrum: p-(Morpholinosulfonyl)benzoic acid
Formula: C11H13NO5S
CAS: 10252-82-1
Molecular weight: 271
m/z	intensity
15	17
17	1
18	1
26	5
27	30
28	138
29	77
30	44
31	8
38	2
39	36
40	4
41	21
42	98
43	9
44	7
45	12
48	1
49	1
50	42
51	37
52	4
53	8
54	25
55	50
56	823
57	42
58	18
59	7
60	2
62	2
63	8
64	5
65	156
66	9
67	1
69	3
70	2
71	1
72	139
73	6
74	14
75	36
76	51
77	17
78	5
79	1
81	1
82	1
84	32
85	25
86	999
87	54
88	7
89	3
90	3
91	3
92	3
93	17
94	2
95	2
96	1
97	1
102	1
103	10
104	20
105	9
106	1
107	1
108	1
109	1
113	1
117	1
118	7
119	1
120	2
121	297
122	27
123	3
124	1
125	1
131	1
132	6
133	1
134	4
135	3
136	52
137	5
138	1
139	1
140	4
141	2
148	5
149	13
150	3
154	1
162	1
163	4
169	6
170	1
176	21
177	3
184	1
185	224
186	19
187	12
188	1
189	2
190	4
206	3
207	2
214	17
215	1
216	1
226	1
227	1
228	304
229	34
230	16
231	1
240	74
241	9
242	5
254	10
255	1
256	13
257	1
270	7
271	307
272	48
273	19
274	2
