Mass Spectrum: 1-Cyano-3,5-dimethyl-5-phenylhydantoin
Formula: C12H11N3O2
CAS: 102617-86-7
Molecular weight: 229
m/z	intensity
51	40
67	40
77	190
78	40
103	160
104	410
118	40
129	999
143	60
144	370
146	50
157	30
172	90
214	870
228	30
229	690
