Mass Spectrum: 1,3-Cyclohexadiene, 5,6-dimethoxy-, trans--
Formula: C8H12O2
CAS: 102698-33-9
Molecular weight: 140
m/z	intensity
37	10
38	33
39	236
41	236
42	14
43	56
45	77
46	1
47	40
49	3
50	51
51	95
52	57
53	123
54	42
55	40
56	5
57	10
58	1
59	159
60	4
61	4
62	8
63	35
64	13
65	294
66	107
67	135
68	13
69	13
71	6
73	2
74	7
75	999
76	37
77	142
78	172
79	75
80	8
81	56
82	124
83	7
84	4
88	0
91	4
92	6
93	47
94	75
95	19
96	17
97	181
98	12
107	6
108	69
109	110
110	18
111	1
124	2
125	97
126	6
127	0
139	6
140	264
141	22
142	1
