Mass Spectrum: 1-Naphthalenecarboxylic acid, 5-[2-(3-furanyl)ethyl]decahydro-1,4a-dimethyl-6-methylene-, [1R-(1.alpha.,4a.beta.,5.beta.,8a.alpha.)]-
Formula: C20H28O3
CAS: 10267-14-8
Molecular weight: 316
m/z	intensity
17	14
18	70
26	4
27	120
28	36
29	88
38	4
39	128
40	32
41	328
42	34
43	206
44	42
45	38
50	10
51	48
52	40
53	400
54	42
55	264
56	28
57	66
58	4
59	26
63	12
64	4
65	96
66	38
67	216
68	46
69	104
70	14
71	32
73	8
74	8
75	2
76	2
77	194
78	54
79	274
80	50
81	999
82	496
83	76
84	8
85	14
86	2
87	36
89	8
91	276
92	52
93	224
94	226
95	284
96	40
97	56
98	8
99	8
100	2
101	2
102	2
103	36
104	22
105	196
106	48
107	220
108	58
109	130
110	16
111	28
112	8
113	12
114	12
115	50
116	24
117	60
118	22
119	142
120	50
121	591
122	98
123	122
124	14
125	36
126	2
127	12
128	36
129	34
130	12
131	52
132	20
133	168
134	60
135	92
136	44
137	28
138	4
139	216
140	24
141	18
142	6
143	16
144	8
145	40
146	16
147	140
148	124
149	152
150	48
151	18
152	8
153	14
155	10
156	2
157	14
158	2
159	40
160	26
161	94
162	54
163	32
164	4
165	10
166	12
167	118
168	12
169	4
171	8
172	4
173	50
174	16
175	46
176	24
177	60
178	12
179	22
180	2
187	16
188	22
189	190
191	4
192	2
193	20
194	2
195	2
197	4
200	4
201	22
202	6
203	6
204	6
205	4
206	8
207	56
208	12
209	2
211	2
213	2
215	12
216	2
217	18
218	4
219	24
220	34
221	36
222	46
223	10
234	44
235	48
236	8
237	6
241	4
242	4
253	12
255	36
256	6
257	4
270	40
271	34
272	14
273	10
283	4
287	12
288	14
290	32
298	6
301	36
302	6
316	296
317	66
318	8
