Mass Spectrum: Benzaldehyde, 2-nitro-, diaminomethylidenhydrazone
Formula: C8H9N5O2
CAS: 102632-31-5
Molecular weight: 207
m/z	intensity
33	0
34	0
36	1
37	12
38	30
39	114
40	15
41	27
42	68
43	645
44	999
45	42
46	3
47	0
48	1
49	6
50	95
51	151
52	72
53	14
54	3
55	4
56	1
57	6
58	65
59	11
60	3
61	14
62	60
63	142
64	83
65	100
66	13
67	4
68	3
69	2
70	1
71	1
73	9
74	26
75	36
76	76
77	111
78	39
79	64
80	11
81	2
82	1
83	2
84	2
85	24
86	11
87	10
88	10
89	47
90	42
91	104
92	112
93	14
94	1
95	1
96	0
97	0
98	0
99	1
100	1
101	2
102	18
103	15
104	25
105	22
106	4
107	4
108	5
109	4
110	0
111	0
113	0
114	0
115	1
116	4
117	11
118	41
119	199
120	42
121	6
122	0
123	0
125	0
126	0
127	0
128	0
129	0
130	0
131	2
132	4
133	3
134	4
135	32
136	7
137	1
138	0
139	0
143	1
144	3
145	21
146	3
147	1
148	2
149	2
150	0
151	0
152	0
153	1
155	0
158	0
159	1
160	5
161	52
162	5
163	0
164	2
165	0
166	0
167	0
172	0
173	0
174	0
175	1
176	0
177	2
178	0
190	0
191	0
205	1
207	162
208	17
209	1
