Mass Spectrum: 3-Aza-2-oxabicyclo[2.2.2]oct-5-ene, 3-trifluoroacetoxy-7-endo,8-exo-dimethoxy-
Formula: C10H12F3NO4
CAS: 102698-35-1
Molecular weight: 267
m/z	intensity
36	0
37	3
38	10
39	79
40	50
41	61
42	24
43	24
44	17
45	236
46	6
47	10
50	13
51	20
52	19
53	47
54	34
55	53
56	18
57	7
58	45
59	46
60	1
61	2
62	1
63	5
64	3
65	39
66	30
67	25
68	15
69	171
70	16
71	13
72	4
73	415
74	27
75	67
76	4
77	23
78	28
79	14
80	11
81	28
82	157
83	13
84	14
85	8
86	1
87	1
88	999
89	60
90	7
91	1
92	3
93	8
94	19
95	13
96	12
97	38
98	3
99	3
101	5
102	2
103	1
104	1
106	3
107	3
108	12
109	25
110	15
111	9
112	4
113	0
114	0
116	0
122	6
123	3
124	6
125	15
126	4
127	8
128	2
131	7
136	0
137	0
138	9
139	8
140	11
141	0
148	6
149	1
150	3
151	2
152	1
153	1
154	5
163	1
164	2
175	1
176	61
177	5
178	0
179	7
190	0
192	1
194	3
203	2
204	1
206	1
207	0
208	1
222	0
267	3
