Mass Spectrum: Uracil, 5-allyl-6-methyl-2-thio-
Formula: C8H10N2OS
CAS: 102613-14-9
Molecular weight: 182
m/z	intensity
33	6
35	7
36	15
37	35
39	261
40	96
42	999
43	120
44	125
45	25
47	9
48	2
50	57
51	132
52	153
53	243
54	126
55	156
56	38
57	20
58	27
59	104
60	111
61	7
62	8
63	16
64	15
65	58
66	35
67	81
68	70
69	39
70	18
71	4
72	43
73	4
75	19
76	15
77	164
78	68
79	183
80	228
81	104
82	31
83	18
84	19
85	9
86	25
87	4
88	2
89	3
91	66
92	19
94	533
95	117
96	145
97	24
98	8
100	3
101	9
104	17
105	29
106	14
107	42
108	87
109	15
110	10
111	10
112	8
113	5
114	7
118	3
120	10
121	25
122	60
123	8
124	66
125	8
126	6
127	12
128	4
133	9
135	16
136	8
137	9
138	10
139	14
142	29
144	2
147	6
149	16
150	65
153	10
155	7
156	2
161	8
164	20
165	46
167	554
168	56
169	23
180	16
182	838
183	83
184	44
