Mass Spectrum: N,N'-Bis[p-tolylsulfonyl]-N,N'-dimethyl-1,4-butanediamine
Formula: C20H28N2O4S2
CAS: 102600-39-5
Molecular weight: 424
m/z	intensity
41	37
42	173
43	41
44	191
45	9
47	4
48	2
49	25
50	5
51	21
52	4
53	4
54	2
55	17
56	18
57	105
58	54
59	2
62	3
63	19
64	7
65	123
66	7
67	7
68	10
69	7
70	95
71	44
72	5
73	0
75	1
76	2
77	12
78	4
79	4
80	1
81	0
82	32
84	999
85	71
86	16
87	2
88	1
89	26
90	25
91	639
92	52
93	2
95	0
97	1
98	2
99	3
105	4
106	2
107	4
108	1
111	5
112	2
113	11
114	2
115	0
117	0
118	5
119	2
120	2
121	1
123	2
132	0
133	1
134	3
139	25
140	2
141	0
155	260
156	21
157	13
158	1
165	0
198	81
199	8
200	4
226	0
238	3
240	1
269	230
270	33
271	12
272	2
423	0
424	2
