Mass Spectrum: 2,5-Furandicarboxylic acid, tetrahydro-, dimethyl ester
Formula: C8H12O5
CAS: 10260-41-0
Molecular weight: 188
m/z	intensity
27	120
29	120
39	150
41	280
42	140
45	50
55	90
59	380
69	670
70	90
101	999
102	60
129	570
188	50
