Mass Spectrum: 3-Aza-2-oxabicyclo[2.2.2]oct-5-ene, 3-benzoyl-7-endo,8-exo-dimethoxy-
Formula: C15H17NO4
CAS: 102698-36-2
Molecular weight: 275
m/z	intensity
37	6
38	26
39	23
41	1
42	3
45	35
46	0
47	2
49	1
50	21
51	84
52	37
53	13
54	3
58	0
59	6
62	1
63	4
64	4
65	14
66	6
73	51
74	7
75	44
76	15
77	410
78	50
79	7
80	3
81	9
82	34
88	447
89	20
90	2
91	1
92	1
93	3
94	16
95	3
101	0
102	1
103	3
104	6
105	999
106	121
107	8
108	9
109	25
110	8
112	8
119	1
120	0
121	3
122	6
123	8
124	3
137	0
138	17
139	7
140	10
141	0
142	0
143	2
144	0
147	9
154	5
158	9
159	2
160	1
164	1
170	5
171	1
184	3
187	40
188	4
189	2
202	1
214	0
216	0
226	1
227	17
228	4
244	0
246	1
258	1
275	9
276	1
