Mass Spectrum: 4-Propylcyclohexylamine
Formula: C9H19N
CAS: 102653-37-2
Molecular weight: 141
m/z	intensity
28	92
29	77
30	102
39	59
40	9
41	100
42	59
43	253
44	21
53	16
54	14
55	38
56	999
57	49
65	3
67	18
68	6
69	7
70	32
77	3
79	6
81	19
82	14
83	2
95	8
96	2
98	4
112	4
124	2
141	8
