Mass Spectrum: Benzeneacetic acid, 4-benzyloxy-3-ethoxy-.alpha.-hydroxy-
Formula: C17H18O5
CAS: 102743-87-3
Molecular weight: 302
m/z	intensity
41	16
42	4
43	16
44	27
45	19
47	1
48	1
49	12
50	7
51	23
52	11
53	20
54	7
55	18
56	4
57	5
60	3
62	4
63	16
64	8
65	109
66	9
67	5
68	1
69	5
71	3
73	3
75	1
76	1
77	9
78	3
79	7
80	2
81	18
82	11
83	13
84	8
85	1
86	5
89	14
90	8
91	999
92	76
93	31
94	5
95	2
97	1
105	4
106	1
107	3
108	1
109	10
110	4
111	22
112	1
115	1
119	1
120	1
121	9
122	13
123	7
125	1
136	1
137	21
138	6
139	9
149	8
150	2
151	7
152	2
153	1
155	1
165	8
166	4
167	15
168	2
179	1
181	1
183	4
193	4
194	5
195	1
196	1
211	13
212	8
213	1
227	2
239	1
255	4
256	11
257	23
258	5
286	2
302	134
303	26
304	4
