Mass Spectrum: 1,1'-Bicyclohexyl, 4-methoxy-4'-pentyl-
Formula: C18H34O
CAS: 102714-95-4
Molecular weight: 266
m/z	intensity
15	26
27	134
28	70
29	337
30	11
31	13
39	118
41	730
42	74
43	427
45	139
53	119
54	111
55	661
56	53
57	162
58	178
59	40
65	45
67	563
68	130
69	386
71	690
72	114
73	12
77	69
79	292
80	200
81	999
82	379
83	468
84	40
85	36
91	78
92	20
93	148
94	82
95	354
96	226
97	336
98	26
105	24
107	101
108	132
109	189
110	87
111	123
112	22
113	21
115	14
119	13
121	157
122	170
123	117
124	47
125	32
133	12
135	108
136	41
137	194
138	82
139	18
149	65
150	66
151	237
152	139
153	23
163	365
164	125
165	24
166	36
167	18
177	48
178	67
179	26
180	8
191	21
192	22
193	15
194	9
195	8
205	165
206	52
207	11
208	9
219	14
234	424
235	94
236	6
