Mass Spectrum: Benzene, [(3-phenyl-2-propenyl)thio]-
Formula: C15H14S
CAS: 10276-14-9
Molecular weight: 226
m/z	intensity
26	0
27	7
28	6
29	1
30	0
31	2
37	0
38	5
39	70
40	4
41	6
42	0
43	1
44	1
45	18
47	1
50	15
51	51
52	10
53	2
55	1
57	2
58	3
59	2
61	1
62	8
63	35
64	7
65	93
66	10
67	1
69	23
70	1
71	3
73	1
74	7
75	10
76	9
77	33
78	15
79	2
80	0
81	2
82	7
83	4
84	3
85	0
86	2
87	4
88	3
89	30
90	4
91	191
92	18
93	1
94	0
95	1
96	0
97	0
98	0
99	0
101	2
102	16
103	5
104	1
105	1
106	0
107	1
108	10
109	86
110	22
111	6
112	1
113	3
114	4
115	386
116	113
117	999
118	164
119	7
120	0
121	3
122	0
123	2
128	0
131	0
132	0
133	0
134	2
135	1
136	0
137	0
139	0
141	1
145	1
147	8
148	1
149	3
150	0
151	0
152	1
153	0
163	0
164	0
165	2
166	0
167	1
168	0
176	0
177	0
178	1
179	0
184	0
185	0
186	0
187	0
189	1
190	0
191	1
192	1
193	0
196	0
197	0
198	0
199	0
203	0
205	0
218	1
219	0
220	0
222	1
223	0
226	161
227	30
228	10
229	1
