Mass Spectrum: Phosphoric acid dimethyl-2,3,5,6-tetrachloro-4-methoxy phenyl ester
Formula: C9H9Cl4O5P
CAS: 102754-14-3
Molecular weight: 368
m/z	intensity
41	5
42	2
43	10
45	11
47	113
49	94
51	29
52	4
53	3
55	4
57	2
59	2
60	11
61	9
63	44
65	9
67	2
71	8
73	10
77	13
79	244
81	7
83	9
84	41
87	240
89	79
93	125
95	50
96	18
97	31
98	6
99	8
106	5
107	8
109	999
111	41
113	17
115	4
118	31
120	21
122	9
124	5
127	12
130	31
131	15
132	22
133	16
134	5
135	6
141	3
142	6
143	5
144	4
145	4
147	7
149	5
153	30
155	25
157	9
159	2
161	8
163	5
165	29
167	34
169	20
171	7
175	9
177	9
179	6
180	2
181	46
183	44
185	19
188	14
190	18
192	9
194	1
195	1
197	3
202	2
209	52
211	52
213	22
215	10
216	5
218	14
219	5
220	3
221	2
225	5
227	4
229	3
233	5
239	2
241	1
244	2
245	1
247	4
257	2
259	30
261	37
262	10
263	11
264	6
265	2
267	1
268	2
269	1
275	4
277	1
283	6
285	4
288	4
289	1
290	1
298	3
302	14
303	11
304	28
306	11
308	3
318	65
319	3
320	63
322	31
323	5
324	6
326	4
331	4
333	750
335	735
336	277
337	222
338	15
339	3
367	2
368	83
369	5
370	106
372	52
373	10
