Mass Spectrum: [1,1'-Bicyclohexyl]-4-carboxylic acid, 4'-butyl-, 4-pentylcyclohexyl ester
Formula: C28H50O2
CAS: 102714-86-3
Molecular weight: 418
m/z	intensity
15	10
27	76
28	53
29	185
39	68
41	518
42	55
43	367
44	17
51	9
53	67
54	203
55	917
56	87
57	243
58	10
65	26
67	544
68	123
69	563
70	69
71	125
73	30
77	39
79	157
81	902
82	518
83	852
84	55
85	31
91	40
92	14
93	72
95	320
96	999
97	757
98	49
99	11
105	10
107	43
108	39
109	309
110	134
111	168
112	16
119	14
121	45
123	181
124	108
125	122
126	26
127	157
128	56
129	32
133	27
135	44
137	115
138	30
139	77
140	11
147	17
149	39
150	14
152	657
153	96
154	9
161	30
163	47
165	34
166	10
169	15
175	26
177	14
179	18
180	14
183	32
189	18
191	23
192	12
217	10
219	35
220	14
221	31
222	9
229	9
231	238
232	47
237	9
247	12
248	40
249	38
265	12
267	924
268	167
269	18
