Mass Spectrum: 1-Butanol, 2-ethyl-3-[(triethylsilyl)oxy]-, [r-(R*,S*)]-
Formula: C12H28O2Si
CAS: 102736-51-6
Molecular weight: 232
m/z	intensity
26	2
27	33
29	50
31	24
34	3
39	18
40	38
41	83
42	9
43	47
44	105
45	75
46	5
47	135
48	7
49	5
51	5
52	9
53	10
54	3
55	141
56	85
57	45
58	40
59	174
60	18
61	36
62	4
63	20
64	3
65	7
66	34
67	8
69	13
70	13
71	39
72	8
73	35
74	29
75	443
76	40
77	29
79	4
80	35
81	8
82	6
83	239
84	20
85	19
86	15
87	181
88	26
89	20
91	58
92	5
93	3
94	25
95	8
97	4
99	9
100	5
101	24
102	18
103	999
104	105
105	655
106	61
107	30
108	4
113	6
114	5
115	179
116	26
117	66
118	7
119	26
121	21
123	2
127	7
128	3
129	28
130	5
131	40
132	29
133	162
134	19
135	8
141	9
142	3
143	9
144	21
145	11
147	85
148	11
149	14
155	4
157	27
158	5
159	143
160	26
161	76
162	11
163	5
173	7
175	7
185	48
186	10
187	9
189	129
190	25
191	12
199	2
201	2
203	117
204	19
205	10
214	9
215	3
217	231
218	53
219	32
220	5
