Mass Spectrum: 2-Chloro-1,3-difluoropropane
Formula: C3H5ClF2
CAS: 102738-79-4
Molecular weight: 114
m/z	intensity
27	413
33	873
39	154
45	613
46	135
57	130
59	472
61	500
62	182
63	177
77	346
78	992
79	159
80	358
81	999
82	137
83	355
114	94
116	31
