Mass Spectrum: Benzene, [(3-methyl-2-butenyl)thio]-
Formula: C11H14S
CAS: 10276-04-7
Molecular weight: 178
m/z	intensity
25	0
26	2
27	45
28	4
29	13
37	1
38	7
39	106
40	13
41	550
42	21
43	14
44	6
45	33
46	1
47	2
49	0
50	16
51	44
52	6
53	43
54	5
55	4
56	0
57	4
58	8
59	10
60	0
61	2
62	4
63	13
64	2
65	106
66	39
67	38
68	18
69	999
70	60
71	6
72	0
73	1
74	5
75	5
76	4
77	41
78	7
79	3
80	0
81	4
82	12
83	9
84	16
85	5
86	1
87	0
89	1
90	0
91	10
92	2
93	2
94	0
95	1
96	0
97	3
98	0
99	7
100	0
101	1
102	1
103	1
104	0
105	5
106	1
107	1
108	23
109	165
110	765
111	73
112	37
113	2
114	0
115	4
116	1
117	1
118	0
119	0
120	0
121	3
122	0
123	9
124	0
125	0
127	1
128	5
129	5
130	3
131	0
133	0
134	3
135	21
136	3
137	1
138	0
140	1
141	1
142	0
143	1
144	2
145	0
147	2
148	1
160	1
161	3
162	0
163	2
164	0
176	0
177	1
178	344
179	46
180	18
181	3
