Mass Spectrum: Semicarbazide, 4-(1,7,7-trimethylbicyclo[2.2.1]heptyl-2-ideno)-
Formula: C11H19N3O
CAS: 10281-41-1
Molecular weight: 209
m/z	intensity
25	15
26	79
27	386
28	179
29	266
30	117
31	77
32	39
37	17
38	35
39	533
40	137
41	727
42	193
43	399
44	213
45	59
50	55
51	151
52	99
53	135
54	126
55	622
56	166
57	133
58	119
59	22
60	55
61	219
62	15
63	42
64	26
65	199
66	119
67	577
68	93
69	453
70	113
71	37
72	53
74	44
75	11
76	13
77	399
78	111
80	213
81	599
82	193
83	326
84	128
85	26
86	11
87	13
89	13
91	119
92	133
93	777
94	379
95	999
96	233
97	199
98	59
99	84
100	88
101	124
102	22
103	28
104	31
105	128
106	666
107	511
108	533
109	577
110	166
111	66
112	15
113	17
115	106
116	17
117	37
118	28
119	86
120	91
121	213
122	239
123	777
124	137
125	51
126	326
127	53
128	11
131	15
132	33
133	62
134	777
135	219
136	146
137	119
138	75
139	51
140	82
141	17
147	11
148	166
149	266
150	777
151	353
152	151
153	97
154	59
163	15
164	26
165	146
166	777
167	166
168	57
169	26
177	55
180	19
181	533
182	64
191	15
192	53
193	24
194	75
195	31
208	22
209	266
210	148
211	17
