Mass Spectrum: 6,6-Dimethyl-4,5-tetramethylene-2-phenyl-5,6-dihydro-4H-1,3-oxazine
Formula: C16H21NO
CAS: 102869-93-2
Molecular weight: 243
m/z	intensity
12	7
13	2
14	19
15	45
16	30
17	28
18	143
19	2
25	3
26	47
27	127
28	83
29	145
30	67
31	27
32	16
34	3
35	7
36	45
37	3
38	12
39	58
40	21
41	254
42	50
43	290
44	32
45	12
50	16
51	50
52	14
53	48
54	43
55	163
56	72
57	159
58	12
59	14
60	6
61	2
63	5
65	16
66	14
67	90
68	34
69	136
70	58
71	81
72	12
73	32
74	7
75	13
76	32
77	362
78	38
79	52
80	19
81	74
82	59
83	88
84	30
85	56
86	7
87	9
88	6
89	7
91	21
92	7
93	43
94	19
95	92
96	39
97	63
98	34
99	27
100	7
101	10
102	16
103	38
104	67
105	999
106	85
107	163
108	28
109	43
110	19
111	45
112	12
113	15
115	12
120	10
121	21
122	707
123	79
124	12
125	30
126	10
127	25
128	12
129	18
133	10
134	23
135	30
136	7
137	18
138	21
139	16
140	10
141	11
160	27
161	18
175	25
194	14
200	25
228	21
229	5
242	26
243	272
244	43
245	7
