Mass Spectrum: 3-Methoxycarbonyl-2-methyl-5-(2,3,4-tri-O-acetyl-.alpha.-d-ribopyranosyl)pyrrole
Formula: C18H23NO9
CAS: 102803-64-5
Molecular weight: 397
m/z	intensity
43	999
57	62
69	462
85	17
136	108
138	11
139	44
140	32
152	46
166	64
167	62
168	554
180	18
181	54
191	25
193	1
194	22
218	181
219	33
234	22
235	31
277	46
278	42
279	8
324	3
337	13
338	3
366	28
397	32
398	6
