Mass Spectrum: 6-Methyl-4,5-tetramethylene-2-phenyl-5,6-dihydro-4H-1,3-oxazine
Formula: C15H19NO
CAS: 102853-18-9
Molecular weight: 229
m/z	intensity
37	7
38	10
39	80
40	15
41	143
42	47
43	124
44	38
45	4
50	40
51	96
52	19
53	40
54	57
55	107
56	47
57	67
58	12
59	4
60	2
63	7
64	2
65	14
66	12
67	78
68	25
69	47
70	66
71	36
72	7
73	12
74	12
75	16
76	53
77	467
78	38
79	40
80	14
81	40
82	34
83	32
84	16
85	19
91	23
92	7
93	45
94	12
95	23
96	38
97	34
98	10
99	9
103	63
104	74
105	999
106	72
107	14
108	67
109	29
110	12
111	14
113	7
115	10
116	4
117	14
118	8
119	10
120	7
124	40
125	14
133	12
134	14
144	21
186	16
187	10
200	57
201	14
214	23
228	70
229	196
230	29
231	3
