Mass Spectrum: Myristoyl-glycinamide
Formula: C16H32N2O2
CAS: 102806-87-1
Molecular weight: 284
m/z	intensity
41	195
42	55
43	300
44	98
45	13
46	1
47	13
51	1
53	13
54	23
55	237
56	68
57	245
58	53
59	17
60	5
65	3
66	1
67	38
68	15
69	89
70	28
71	135
72	24
73	127
74	75
75	251
76	7
77	3
78	0
79	9
80	3
81	33
82	10
83	53
84	53
85	70
86	103
87	16
88	6
91	4
93	6
94	2
95	38
96	7
97	36
98	49
99	336
100	39
101	12
102	2
105	0
107	3
108	1
109	23
110	4
111	19
112	82
113	15
114	5
115	5
116	999
117	53
118	6
121	3
123	10
124	2
125	3
126	16
127	3
128	10
129	64
130	7
135	2
137	4
138	0
139	1
140	14
141	3
142	13
143	6
149	3
151	0
153	0
154	21
155	3
156	4
157	3
158	4
167	1
168	22
169	3
170	3
171	4
172	6
182	7
183	1
184	3
185	5
196	5
197	0
198	11
199	2
209	1
210	11
211	158
212	29
213	3
224	15
225	3
226	3
227	0
238	8
239	2
240	89
241	44
242	7
252	1
255	1
266	5
267	52
268	10
269	0
284	46
285	15
286	1
