Mass Spectrum: Tricyclo[4.4.0.0(3,9)]decan-4-ol, stereoisomer
Formula: C10H16O
CAS: 102861-21-2
Molecular weight: 152
m/z	intensity
26	13
27	199
28	27
29	137
31	69
38	15
39	308
40	56
41	445
42	47
43	104
44	23
45	13
50	23
51	84
52	46
53	155
54	141
55	211
56	92
57	176
58	18
59	139
63	28
64	14
65	116
66	616
67	742
68	102
69	61
70	110
71	33
75	10
77	274
78	281
79	854
80	884
81	226
82	34
83	62
84	25
85	12
91	534
92	999
93	649
94	91
95	149
96	48
97	30
98	12
103	15
104	15
105	263
106	236
107	56
108	64
109	76
110	29
111	38
115	14
117	15
119	294
120	45
121	103
122	13
123	18
133	36
134	677
135	84
152	14
