Mass Spectrum: Pentan-2-ol, 4-allyloxy-2-methyl-
Formula: C9H18O2
CAS: 102840-52-8
Molecular weight: 158
m/z	intensity
35	0
36	0
37	6
38	21
39	284
40	46
41	689
42	117
43	999
44	28
45	99
46	2
47	0
49	0
50	3
51	5
52	2
53	19
54	11
55	90
56	52
57	168
58	104
59	852
60	29
61	4
62	0
63	1
65	6
66	2
67	48
68	5
69	93
70	7
71	47
72	4
73	2
74	0
75	1
76	0
77	1
78	0
79	2
80	0
81	9
82	29
83	46
84	124
85	305
86	17
87	8
88	0
89	0
91	0
92	0
93	0
94	0
95	0
96	8
97	3
98	3
99	39
100	17
101	11
102	2
103	4
104	0
107	0
109	0
110	0
111	3
112	0
113	0
114	0
115	0
116	0
117	2
118	0
125	10
126	1
127	0
139	0
140	2
141	0
142	0
143	66
144	5
145	0
159	0
