Mass Spectrum: 8-Acetamido-3,7,10-trimethyl-benzo[g]pteridin-2,4(3H,10H]-dione
Formula: C15H15N5O3
CAS: 102880-91-1
Molecular weight: 313
m/z	intensity
30	45
31	6
32	67
37	5
38	16
39	83
40	28
41	39
42	97
43	999
44	49
45	9
50	48
51	92
52	69
53	43
54	45
55	25
56	63
57	16
58	10
59	3
60	4
61	4
62	16
63	52
64	44
65	66
66	45
67	42
68	10
69	11
70	11
71	3
72	6
73	3
74	12
75	43
76	85
77	116
78	54
79	31
80	20
81	13
82	5
83	66
84	4
86	7
87	7
88	15
89	26
90	54
91	56
92	40
93	28
94	12
95	2
96	1
98	3
99	17
100	21
101	16
102	74
103	53
104	104
105	51
106	26
107	15
112	2
114	16
115	21
116	41
117	59
118	112
119	63
120	11
121	10
126	2
127	11
128	24
129	73
130	50
131	104
132	76
133	22
134	19
135	6
140	3
141	14
142	26
143	47
144	42
145	47
146	24
147	5
148	1
150	2
153	1
154	7
155	11
156	57
157	56
158	97
159	120
160	26
161	5
167	2
168	14
169	18
170	48
171	131
172	101
173	26
174	8
175	2
181	2
182	7
183	18
184	23
185	211
186	447
187	68
188	29
189	4
195	1
196	5
197	10
198	21
199	35
200	37
201	44
202	12
203	1
209	1
210	1
211	11
212	17
213	46
214	191
215	75
216	23
217	4
224	1
225	5
226	8
227	32
228	37
229	12
230	36
231	6
239	1
240	13
241	37
242	133
243	101
244	18
245	2
253	1
254	4
255	5
256	210
257	80
258	13
259	2
268	2
269	4
270	42
271	86
272	15
273	2
274	0
282	0
283	2
284	23
285	12
286	3
287	0
296	0
297	7
298	75
299	104
300	20
301	3
302	0
311	1
312	10
313	333
314	62
315	9
316	1
