Mass Spectrum: 1H-Indole-3-ethanol, 2-(5-ethyl-1-azabicyclo[2.2.2]oct-2-yl)-, [1S-(1.alpha.,2.alpha.,4.alpha.,5.beta.)]-
Formula: C19H26N2O
CAS: 10283-68-8
Molecular weight: 298
m/z	intensity
110	250
123	999
144	200
156	300
169	130
187	70
201	70
211	50
223	100
241	100
253	60
268	250
280	230
298	300
