Mass Spectrum: 3-Methoxycarbonyl-2-methyl-5-(2,3,5-tri-O-acetyl-.beta.-d-ribofuranosyl)pyrrole
Formula: C18H23NO9
CAS: 102803-65-6
Molecular weight: 397
m/z	intensity
43	999
57	27
69	185
85	127
136	121
138	12
139	39
140	18
152	37
166	51
167	39
168	246
180	36
181	54
191	4
194	40
218	846
219	104
234	8
235	8
277	2
278	60
279	12
324	3
337	18
338	3
366	18
397	7
398	1
