Mass Spectrum: 1-Acetamindo-7-nitronaphthalene
Formula: C12H10N2O3
CAS: 102877-10-1
Molecular weight: 230
m/z	intensity
41	10
42	120
43	999
44	14
46	11
50	16
51	21
52	8
61	6
62	12
63	51
64	6
65	6
74	13
75	8
76	8
86	6
87	17
88	28
89	12
102	40
113	104
114	179
115	425
116	38
126	12
127	6
128	6
130	100
131	7
140	63
141	56
142	111
154	8
156	5
158	19
160	7
172	7
188	452
189	15
230	124
231	19
