Mass Spectrum: 2',4'-Dichlorobenzanilide
Formula: C13H9Cl2NO
CAS: 10286-76-7
Molecular weight: 265
m/z	intensity
27	2
28	2
36	3
37	1
38	2
39	2
49	1
50	10
51	53
52	4
61	1
62	3
63	7
64	2
65	1
73	5
74	5
75	6
76	10
77	334
78	22
80	1
82	1
83	1
85	1
88	1
89	1
90	3
91	1
97	2
98	2
99	4
100	1
101	1
103	1
104	3
105	999
106	82
107	5
109	2
111	1
115	1
124	3
125	3
126	3
127	2
128	1
133	9
134	1
135	6
136	1
137	1
139	2
140	1
160	1
161	19
162	3
163	11
164	2
165	2
166	2
167	1
201	2
229	2
230	203
231	30
232	66
233	9
264	1
265	153
266	23
267	100
268	13
269	15
270	2
