Mass Spectrum: 2'-Chloro-5'-methylbenzanilide
Formula: C14H12ClNO
CAS: 10286-87-0
Molecular weight: 245
m/z	intensity
27	5
28	4
36	1
38	2
39	9
41	1
50	16
51	85
52	9
53	2
62	2
63	7
64	2
65	2
73	3
74	5
75	8
76	17
77	464
78	38
79	3
87	1
89	4
90	2
99	1
102	2
103	1
104	9
105	999
106	80
107	6
112	1
113	6
115	2
125	1
132	1
140	3
141	5
142	2
143	1
152	1
165	1
166	1
167	1
180	5
181	3
208	6
209	7
210	631
211	100
212	8
244	1
245	144
246	23
247	48
248	7
