Mass Spectrum: 3-Diethylaminomethyl-2-methyl-4-hydroxyquinoline
Formula: C15H20N2O
CAS: 10299-17-9
Molecular weight: 244
m/z	intensity
41	16
42	64
43	12
44	46
45	3
50	25
51	42
52	16
53	24
54	7
55	9
56	29
57	11
58	999
59	35
62	7
63	25
64	14
65	19
66	5
67	4
68	4
70	7
72	235
73	133
74	42
75	28
76	49
77	135
78	14
84	2
85	10
86	53
87	6
88	3
89	24
90	13
91	18
92	14
93	2
94	11
100	5
101	26
102	101
103	37
104	11
105	5
107	17
115	104
116	24
117	23
118	144
119	13
120	2
122	16
127	10
128	24
129	10
130	60
131	11
132	2
140	7
141	5
142	30
143	63
144	56
145	8
146	1
156	15
158	9
159	16
160	13
167	3
168	1
170	39
171	128
172	618
173	253
174	26
185	16
186	75
187	4
188	146
189	16
203	42
204	12
215	45
216	6
229	20
243	1
244	392
245	70
246	11
