Mass Spectrum: Ethyl N-formyldithiocarbamate
Formula: C4H7NOS2
CAS: 102933-65-3
Molecular weight: 149
m/z	intensity
44	205
45	195
46	216
47	632
58	195
59	999
60	649
61	189
62	800
76	276
77	65
78	43
87	65
89	43
93	97
121	389
149	514
