Mass Spectrum: 4-Chlorohistidine
Formula: C6H8ClN3O2
CAS: 102974-88-9
Molecular weight: 189
m/z	intensity
41	5
42	46
43	29
44	49
45	22
46	26
47	11
48	4
49	8
50	3
51	8
52	41
53	20
54	74
55	14
56	7
57	13
61	13
62	10
63	8
64	9
65	4
66	6
67	4
68	1
69	8
72	11
73	12
74	79
75	18
76	6
77	5
78	1
79	7
80	7
81	113
82	29
83	4
84	0
86	1
87	1
88	22
89	35
90	15
91	16
92	4
93	2
94	0
95	1
97	1
100	5
101	3
102	6
103	6
104	1
105	2
107	4
108	20
109	15
110	4
114	2
115	329
116	999
117	153
118	329
119	17
121	0
127	5
128	7
129	3
130	3
137	3
143	12
144	33
145	8
146	11
147	0
154	3
156	3
158	1
173	3
174	0
188	1
189	66
190	13
191	23
192	4
