Mass Spectrum: Propylure
Formula: C18H32O2
CAS: 10297-61-7
Molecular weight: 280
m/z	intensity
27	119
28	29
29	153
31	19
39	117
40	24
41	546
42	70
43	999
51	14
52	17
53	104
54	82
55	497
56	59
57	89
61	42
65	44
66	32
67	335
68	89
69	571
70	50
71	30
72	5
73	25
75	13
76	60
77	64
78	35
79	241
80	303
81	236
82	82
83	303
84	45
85	17
91	50
92	7
93	191
94	42
95	149
96	50
97	30
98	10
105	20
106	5
107	45
108	231
109	87
110	25
111	15
112	17
113	7
115	5
121	42
122	25
123	40
124	25
125	74
126	5
133	5
135	25
136	2
137	17
138	15
139	5
149	17
150	5
151	45
152	17
153	5
163	5
164	2
165	10
166	5
177	37
178	7
179	2
191	17
192	5
193	5
220	2
221	2
222	2
237	40
238	75
239	2
251	17
252	5
