Mass Spectrum: 2-Propyl-5-oxohexanoic acid
Formula: C9H16O3
CAS: 10297-76-4
Molecular weight: 172
m/z	intensity
38	10
39	202
40	36
41	552
42	162
43	999
44	129
45	240
46	6
47	3
50	7
51	18
52	6
53	62
54	24
55	691
56	456
57	127
58	669
59	144
60	24
61	17
63	2
65	10
66	4
67	55
68	162
69	516
70	88
71	444
72	34
73	586
74	24
75	2
77	7
79	19
80	2
81	29
82	22
83	389
84	750
85	122
86	18
87	58
88	6
91	5
93	17
94	63
95	17
96	21
97	545
98	46
99	13
100	5
101	33
102	162
103	9
107	4
108	19
109	14
110	13
111	193
112	182
113	15
114	11
115	192
116	13
121	2
123	4
125	138
126	578
127	70
128	5
129	75
130	156
131	10
136	2
137	2
139	6
143	13
144	3
153	2
154	214
155	40
156	2
157	11
172	2
