Mass Spectrum: Urea, N'-(3,5-dichlorophenyl)-N,N-dimethyl-
Formula: C9H10Cl2N2O
CAS: 10290-38-7
Molecular weight: 232
m/z	intensity
28	107
32	13
36	43
38	16
41	11
42	54
43	25
44	92
45	20
56	17
61	11
62	18
63	24
72	999
73	45
74	14
75	12
88	10
97	10
124	42
126	15
133	13
159	11
161	15
187	84
189	54
232	126
233	16
234	80
235	10
236	14
