Mass Spectrum: Bicyclo[2.2.1]heptan-2-one, 5-bromo-1,7,7-trimethyl-, (1R-exo)-
Formula: C10H15BrO
CAS: 10293-00-2
Molecular weight: 230
m/z	intensity
26	8
27	156
28	23
29	78
31	11
38	11
39	204
40	35
41	466
42	33
43	232
44	16
45	10
50	15
51	48
52	26
53	114
54	24
55	247
56	16
57	132
58	7
59	34
60	10
63	9
65	51
66	15
67	201
68	25
69	271
70	27
71	12
77	78
78	21
79	77
80	24
81	307
82	44
83	162
84	13
85	7
91	84
92	14
93	80
94	34
95	111
96	13
97	24
105	17
107	100
108	57
109	999
110	99
111	12
121	37
122	17
123	428
124	44
125	6
133	12
135	8
137	23
138	5
149	14
150	9
151	182
152	34
153	7
154	6
161	12
162	1
163	11
164	1
173	6
174	0
175	7
176	0
186	4
187	0
188	6
189	0
190	5
191	0
229	4
230	55
231	8
232	55
233	6
234	0
