Mass Spectrum: 2-Azido-4,5-dimethylthiazole
Formula: C5H6N4S
CAS: 10296-41-0
Molecular weight: 154
m/z	intensity
14	6
15	36
25	1
26	12
27	40
28	281
29	2
31	1
32	7
33	2
34	1
37	7
38	11
39	39
40	29
41	56
42	166
43	16
44	11
45	36
46	7
47	3
48	1
49	3
50	15
51	25
52	18
53	28
54	8
55	3
56	2
57	26
58	245
59	999
60	62
61	60
62	2
63	5
64	4
65	2
66	10
67	163
68	24
69	17
70	15
71	22
72	8
73	4
74	1
76	1
77	7
78	1
79	2
81	2
82	6
83	6
84	20
85	158
86	15
87	8
93	4
95	9
96	2
98	2
99	39
100	8
101	2
108	1
110	1
111	3
113	3
114	3
125	3
126	399
127	45
128	61
129	5
130	2
135	2
154	389
155	35
156	18
157	1
