Mass Spectrum: Acetamide, N-phenyl-
Formula: C8H9NO
CAS: 103-84-4
Molecular weight: 135
m/z	intensity
26	5
27	10
28	15
29	0
30	1
37	8
38	24
39	88
40	17
41	13
42	12
43	223
44	5
46	2
47	2
49	1
50	17
51	36
52	17
53	4
54	8
60	1
61	3
62	9
63	27
64	26
65	99
66	112
67	12
73	1
74	5
75	3
76	4
77	31
78	7
79	2
87	0
88	0
89	0
90	2
91	14
92	37
93	999
94	66
95	1
104	1
106	5
119	5
120	3
121	2
134	4
135	266
136	23
137	1
