Mass Spectrum: Acetaminophen
Formula: C8H9NO2
CAS: 103-90-2
Molecular weight: 151
m/z	intensity
14	1
15	9
18	1
26	6
27	21
28	12
29	4
30	1
31	1
37	3
38	7
39	20
40	3
41	6
42	10
43	153
44	5
49	1
50	8
51	16
52	46
53	62
54	17
55	14
56	2
57	2
61	3
62	7
63	12
64	8
65	14
66	4
67	2
68	6
69	2
70	1
71	1
74	1
75	1
76	1
77	2
78	4
79	9
80	126
81	90
82	16
83	2
89	1
90	1
91	4
92	2
93	3
94	3
95	1
106	1
107	9
108	115
109	999
110	79
111	5
120	2
122	4
135	7
136	3
149	2
150	5
151	440
152	40
153	4
