Mass Spectrum: 4-Undecanol, 7-ethyl-2-methyl-
Formula: C14H30O
CAS: 103-20-8
Molecular weight: 214
m/z	intensity
26	0
27	94
29	215
30	4
31	19
39	41
40	8
41	375
42	49
43	425
44	36
45	186
46	4
47	0
50	0
51	2
52	0
53	21
54	16
55	383
56	79
57	484
58	34
59	11
60	0
64	0
65	4
66	2
67	29
68	18
69	999
70	250
71	123
72	7
73	4
77	2
78	0
79	3
80	1
81	30
82	17
83	600
84	89
85	31
86	54
87	431
88	24
89	1
91	1
93	1
94	0
95	12
96	21
97	226
98	90
99	21
100	2
101	3
102	0
107	0
108	0
109	9
110	3
111	47
112	126
113	39
114	4
115	1
123	1
124	3
125	22
126	74
127	21
128	5
129	0
137	1
138	7
139	35
140	11
141	1
152	0
153	1
154	35
155	5
156	6
157	218
158	23
159	2
166	1
167	12
168	5
169	0
181	0
185	0
195	0
196	177
197	29
198	2
199	1
213	2
214	0
