Mass Spectrum: 2-Nonanol, 5-ethyl-
Formula: C11H24O
CAS: 103-08-2
Molecular weight: 172
m/z	intensity
25	0
26	4
27	160
28	5
29	269
30	8
31	28
38	0
39	83
40	34
41	440
42	104
43	365
44	43
45	999
46	16
47	2
48	0
49	0
50	1
51	4
52	2
53	27
54	19
55	655
56	203
57	698
58	36
59	34
60	0
63	0
65	4
66	2
67	31
68	17
69	407
70	569
71	172
72	10
73	10
74	1
77	3
78	0
79	5
80	1
81	24
82	17
83	276
84	122
85	34
86	2
87	2
88	13
89	0
91	1
93	0
94	0
95	8
96	26
97	190
98	298
99	61
100	4
101	2
103	0
105	0
109	1
110	2
111	22
112	385
113	45
114	2
115	7
116	1
117	0
123	0
124	4
125	52
126	38
127	17
128	5
129	0
139	1
140	0
143	3
144	0
153	2
154	203
155	25
156	1
157	24
158	2
159	0
171	2
172	0
