Mass Spectrum: Acetic acid, (butylthio)-, methyl ester
Formula: C7H14O2S
CAS: 10309-14-5
Molecular weight: 162
m/z	intensity
28	70
29	20
30	160
39	50
40	20
41	260
42	50
43	160
44	30
45	280
46	110
47	240
48	20
53	30
54	40
55	510
56	200
57	150
58	30
59	150
60	60
61	670
62	30
63	30
73	80
74	900
75	240
76	40
87	60
88	120
89	999
90	70
91	120
92	20
101	20
102	10
103	180
104	30
105	30
106	180
107	70
108	20
119	60
130	20
131	20
133	20
162	500
163	80
164	40
