Mass Spectrum: 3-Thietanol
Formula: C3H6OS
CAS: 10304-16-2
Molecular weight: 90
m/z	intensity
43	381
45	385
46	769
47	343
48	37
57	31
58	14
59	22
60	14
61	310
62	53
89	45
90	999
91	30
92	30
