Mass Spectrum: 3.alpha.-Hydroxy-3-methyl-6-phenyl-4-piperidone
Formula: C12H15NO2
CAS: 103021-97-2
Molecular weight: 205
m/z	intensity
91	420
103	190
104	800
105	670
106	490
118	999
119	620
120	140
133	210
134	100
162	90
177	200
187	190
188	80
205	380
