Mass Spectrum: Cholestan-22(26)-isoepoxy-3.beta.-ol
Formula: C27H46O2
CAS: 103099-02-1
Molecular weight: 402
m/z	intensity
41	97
42	58
43	180
44	7
45	4
47	2
49	10
51	5
53	19
55	220
57	59
58	1
59	2
65	6
67	56
68	15
69	39
70	6
71	19
72	1
73	0
77	12
79	39
81	302
82	14
83	27
84	8
85	7
86	3
88	1
91	28
93	54
94	14
95	42
96	5
98	312
99	999
100	58
101	4
103	1
105	27
106	9
107	41
108	11
109	15
110	2
111	3
113	0
115	2
117	5
118	0
119	11
120	5
121	16
122	6
123	9
124	3
125	2
126	10
127	1
131	5
132	0
133	13
134	4
135	12
136	2
137	2
139	6
143	2
145	6
146	0
147	13
148	4
149	6
153	0
159	4
160	0
161	7
162	2
163	5
165	6
166	0
173	3
175	3
177	1
187	2
189	1
201	2
215	6
216	2
217	1
229	0
233	2
257	1
273	5
274	19
275	4
287	1
302	4
303	1
387	2
