Mass Spectrum: 1-Hexanesulfonic acid, methyl ester
Formula: C7H16O3S
CAS: 10307-26-3
Molecular weight: 180
m/z	intensity
26	9
27	173
29	232
30	0
31	29
33	63
34	0
39	84
40	25
41	537
42	317
43	892
44	22
45	50
46	1
47	0
48	1
53	19
54	30
55	463
56	999
57	137
58	4
59	7
60	5
64	1
66	2
67	16
68	8
69	289
70	16
71	4
72	0
80	40
82	2
83	28
84	229
85	61
86	3
87	0
91	7
95	6
96	33
97	271
98	7
99	15
107	3
110	15
111	1
112	1
117	0
121	0
123	30
124	14
126	0
137	5
138	2
139	0
147	0
149	1
150	0
151	3
153	0
181	5
182	0
