Mass Spectrum: Cyclopentanemethanol, .alpha.-cyclohexyl-2-nitro-
Formula: C12H21NO3
CAS: 103077-58-3
Molecular weight: 227
m/z	intensity
26	5
27	79
28	21
29	98
30	15
31	41
38	3
39	109
40	28
41	504
42	48
43	59
44	10
45	16
46	5
47	35
48	6
51	13
52	9
53	80
54	46
55	573
56	57
57	106
58	9
59	2
65	30
66	36
67	612
68	317
69	287
70	58
71	14
72	3
75	4
77	40
78	9
79	415
80	60
81	232
82	50
83	601
84	61
85	20
91	26
92	5
93	39
94	18
95	999
96	83
97	826
98	74
99	40
100	4
105	7
106	2
107	9
108	2
109	8
110	8
111	68
112	36
113	325
114	31
115	14
119	8
120	3
121	10
128	3
129	28
133	6
144	40
145	10
161	14
162	35
163	34
164	3
179	21
180	8
181	11
182	3
