Mass Spectrum: Cyclopent[d][1,3]oxazin-2(1H)-one, hexahydro-4-phenyl-, (4.alpha.,4a.alpha.,7a.beta.)-
Formula: C13H15NO2
CAS: 103077-84-5
Molecular weight: 217
m/z	intensity
26	3
27	38
28	65
29	16
30	18
36	2
38	4
39	76
40	16
41	75
42	20
43	166
44	31
45	5
50	19
51	75
52	20
53	31
54	26
55	20
56	77
57	8
61	4
62	6
63	25
65	41
66	15
67	90
68	163
69	26
70	5
71	2
72	2
73	2
74	5
76	12
77	123
78	43
79	59
80	10
81	5
82	78
83	7
84	4
87	4
88	2
89	18
90	6
91	184
92	21
93	3
94	4
97	3
101	3
102	19
103	23
104	20
105	60
106	24
107	393
108	33
109	2
113	3
114	3
115	209
116	54
117	82
118	11
126	2
127	16
128	53
129	289
130	999
131	123
132	12
133	2
138	2
139	2
142	2
143	8
144	37
145	30
146	4
150	7
155	4
157	4
158	6
170	3
171	4
172	50
173	93
174	24
175	2
189	0
217	99
218	15
