Mass Spectrum: 1,2-Benzenediol, mono(methylcarbamate)
Formula: C8H9NO3
CAS: 10309-97-4
Molecular weight: 167
m/z	intensity
15	150
27	60
63	50
64	100
110	999
167	90
