Mass Spectrum: Adamantane-1,3-diamine
Formula: C10H18N2
CAS: 10303-95-4
Molecular weight: 166
m/z	intensity
33	16
39	65
41	148
42	161
44	44
45	3
46	0
47	0
48	6
51	16
52	10
53	30
54	34
55	55
57	106
58	33
59	11
61	3
62	4
63	7
65	31
66	17
67	31
68	27
69	12
70	17
72	2
73	6
75	1
77	40
78	8
79	20
80	25
81	39
82	44
83	30
84	21
85	0
89	1
91	40
92	29
93	68
94	203
96	40
97	27
98	3
99	0
103	1
104	1
106	45
107	68
109	999
110	190
112	0
115	1
116	1
117	1
118	1
119	1
120	3
121	5
123	42
124	11
125	8
127	0
128	0
129	0
130	0
131	1
132	2
133	1
134	20
135	3
136	2
137	2
138	0
143	0
146	0
148	16
149	52
150	18
151	41
152	3
164	1
166	184
167	16
168	0
