Mass Spectrum: 4-Amino-4'-methoxycarbonylazobenzene
Formula: C14H13N3O2
CAS: 103072-48-6
Molecular weight: 255
m/z	intensity
27	8
28	9
38	10
39	79
40	3
41	18
42	8
44	6
50	33
51	16
52	27
53	13
54	9
57	5
59	11
63	26
64	33
65	285
66	35
74	4
75	31
76	46
77	26
78	7
79	13
80	8
90	6
91	28
92	999
93	80
103	35
104	22
105	12
106	6
107	7
108	13
112	3
119	13
120	376
121	31
135	55
136	3
151	12
167	17
168	8
224	26
254	3
255	274
256	48
257	5
