Mass Spectrum: Benzene, (2-chloropropyl)-
Formula: C9H11Cl
CAS: 10304-81-1
Molecular weight: 154
m/z	intensity
26	2
27	33
28	35
34	1
36	4
38	3
39	19
41	23
42	0
44	1
46	2
51	16
52	2
55	1
61	0
63	14
64	1
65	48
66	3
77	1
89	6
90	11
91	999
92	85
93	5
99	0
105	5
118	45
119	10
120	2
154	50
155	2
156	28
157	3
