Mass Spectrum: Tricyclo[4.3.0.0(3,8)]nonan-7-one
Formula: C9H12O
CAS: 103001-16-7
Molecular weight: 136
m/z	intensity
26	21
27	190
28	16
29	35
37	7
38	23
39	269
40	48
41	194
42	14
43	14
44	9
45	5
50	31
51	75
52	44
53	104
54	362
55	162
56	9
57	43
58	533
59	21
62	7
63	20
64	5
65	80
66	283
67	246
68	37
69	9
70	12
71	7
74	5
75	4
76	4
77	155
78	164
79	999
80	414
81	141
82	25
83	6
85	4
91	97
92	54
93	170
94	28
95	20
97	5
103	5
105	14
107	34
108	24
109	6
117	13
118	30
119	7
121	10
135	9
136	195
137	25
