Mass Spectrum: 2-Furanmethanol, .alpha.-(2-nitropropyl)-, (R*,R*)-
Formula: C8H11NO4
CAS: 103077-75-4
Molecular weight: 185
m/z	intensity
26	11
27	81
28	19
29	68
30	35
31	14
37	13
38	39
39	267
40	49
41	378
42	54
43	60
44	10
45	43
46	12
50	17
51	49
52	17
53	46
54	12
55	63
56	10
57	110
58	8
59	4
60	8
61	3
62	6
63	17
64	9
65	39
66	22
67	38
68	64
69	122
70	12
71	33
72	7
73	4
74	4
75	5
76	5
77	46
78	12
79	22
80	5
81	46
82	12
83	30
84	11
85	26
86	4
87	2
88	3
89	4
90	4
91	36
92	8
93	20
94	25
95	895
96	101
97	999
98	113
99	13
100	5
103	10
104	4
105	4
106	3
107	11
108	4
109	11
110	55
111	14
112	4
113	50
114	6
116	3
118	9
119	5
120	5
121	46
122	7
123	144
124	17
136	3
137	67
138	25
139	14
140	3
141	4
142	3
151	4
152	3
164	3
165	4
166	5
167	4
185	3
