Mass Spectrum: Oxetane, 3-(1-methylethyl)-
Formula: C6H12O
CAS: 10317-17-6
Molecular weight: 100
m/z	intensity
26	12
27	160
28	26
29	160
30	4
31	12
37	1
38	8
39	147
40	14
41	187
42	294
43	58
44	4
45	4
50	4
51	9
52	3
53	23
54	16
55	999
56	35
57	7
59	1
67	4
68	1
69	19
70	616
71	26
85	2
99	2
100	3
