Mass Spectrum: 2,4-Hexadienedioic acid, 2-fluoro-
Formula: C6H5FO4
CAS: 10318-01-1
Molecular weight: 160
m/z	intensity
31	30
33	40
37	30
38	50
39	200
40	20
42	20
44	30
45	140
49	30
50	110
51	140
52	20
53	30
55	20
57	30
58	30
59	160
66	30
67	50
68	50
69	120
70	70
71	20
73	40
77	20
86	120
87	200
94	20
95	110
97	140
114	80
115	999
116	70
140	20
143	20
160	30
