Mass Spectrum: cis-Bicyclo[4.2.0]octa-3,7-diene
Formula: C8H10
CAS: 103148-59-0
Molecular weight: 106
m/z	intensity
50	134
51	257
52	209
65	156
77	352
78	999
79	457
91	955
92	74
105	216
106	213
107	18
