Mass Spectrum: 2,6-Octadiene-4,5-diol, 3,6-dimethyl-
Formula: C10H18O2
CAS: 10317-05-2
Molecular weight: 170
m/z	intensity
39	297
41	267
43	79
51	9
53	39
54	9
55	79
56	9
57	79
58	9
65	19
67	79
68	39
69	9
71	277
72	9
81	9
83	19
84	29
85	999
86	574
87	29
109	12
123	3
170	19
171	6
