Mass Spectrum: N-carbobenzyloxy-glutamic acid, dibenzyl ester
Formula: C27H27NO6
CAS: 103156-77-0
Molecular weight: 461
m/z	intensity
41	11
42	4
43	9
44	18
45	2
46	0
47	3
48	1
49	13
50	7
51	19
52	5
53	1
54	2
55	5
56	9
57	9
58	1
60	2
61	2
62	5
63	16
64	5
65	78
66	4
67	0
68	1
69	2
70	1
71	1
72	1
73	1
74	1
75	1
76	2
77	23
78	6
79	18
80	1
82	3
83	2
84	21
85	8
86	8
87	2
88	1
89	22
90	12
91	999
92	88
93	3
96	1
97	1
100	2
101	2
102	3
103	1
104	1
105	8
106	3
107	48
108	14
109	1
110	1
111	0
114	1
115	0
117	1
118	1
128	1
129	1
130	12
131	1
132	2
144	0
145	0
146	3
148	0
149	0
152	0
165	1
167	1
174	3
175	1
178	1
179	1
180	7
181	25
182	4
190	2
191	0
192	19
193	8
194	1
197	10
198	4
220	18
221	2
227	1
236	3
242	2
247	0
264	43
265	6
266	1
282	80
283	16
284	2
326	54
327	11
328	1
370	0
461	1
