Mass Spectrum: 2,3-Dibromobicyclo[4.1.1]oct-3-ene
Formula: C8H10Br2
CAS: 103149-68-4
Molecular weight: 264
m/z	intensity
26	19
27	223
28	85
29	95
36	7
37	11
38	63
39	503
40	54
41	159
42	4
43	3
44	7
49	2
50	143
51	465
52	209
53	142
54	21
55	15
61	7
62	37
63	125
64	28
65	216
66	102
67	42
68	4
73	1
74	31
75	35
76	34
77	901
78	560
79	927
80	107
81	33
82	45
83	1
87	2
89	30
90	21
91	397
92	50
93	13
95	6
101	2
102	28
103	212
104	122
105	999
106	237
107	41
117	6
119	28
121	18
122	5
131	1
132	6
134	7
138	5
143	7
144	8
145	9
146	9
156	46
157	535
158	83
159	518
160	36
169	12
171	15
173	2
184	75
185	406
186	111
187	392
188	36
264	61
265	3
266	115
267	9
268	57
269	3
