Mass Spectrum: 3-Bromobicyclo[4.1.1]oct-2-ene
Formula: C8H11Br
CAS: 103149-70-8
Molecular weight: 186
m/z	intensity
26	22
27	223
28	64
29	94
37	6
38	44
39	546
40	106
41	258
42	9
44	2
50	69
51	205
52	85
53	148
54	78
55	29
62	18
63	68
64	17
65	897
66	918
67	173
68	7
74	7
75	9
76	7
77	355
78	169
79	999
80	83
81	6
82	5
83	5
89	9
90	3
91	372
92	85
93	12
95	7
103	22
104	6
105	98
106	32
107	349
108	28
117	3
119	10
121	3
132	10
134	9
144	41
145	50
146	43
147	48
156	35
157	272
158	102
159	266
160	65
171	10
173	7
185	6
186	96
187	14
188	90
189	6
