Mass Spectrum: 2H-Pyran-2-one, 4-hydroxy-6-(2-oxopropyl)-
Formula: C8H8O4
CAS: 10310-07-3
Molecular weight: 168
m/z	intensity
41	30
42	100
43	999
44	55
51	20
52	12
53	20
55	55
58	30
66	12
67	25
69	250
70	12
84	80
85	62
87	100
97	25
98	62
109	12
111	50
126	524
127	50
153	100
154	12
168	87
169	12
