Mass Spectrum: N-carbobenzyloxy-prolyl-leucyl-glycine (N-hydroxy)amide
Formula: C21H30N4O6
CAS: 103145-74-0
Molecular weight: 434
m/z	intensity
41	133
42	68
43	154
44	178
45	19
46	3
47	4
48	2
49	19
50	24
51	44
52	15
53	18
54	18
55	52
56	34
57	14
58	10
59	6
60	7
61	5
62	12
63	32
64	11
65	110
66	9
67	10
68	51
69	61
70	282
71	18
72	12
73	6
74	13
75	4
76	8
77	49
78	12
79	62
80	8
81	7
82	12
83	15
84	23
85	6
86	60
87	5
88	5
89	29
91	999
92	80
93	4
94	3
95	5
96	11
97	12
98	9
99	4
100	5
101	1
102	2
103	1
104	2
105	6
106	3
107	30
108	43
109	5
110	4
111	5
112	10
113	5
114	33
115	4
116	1
117	2
118	1
119	1
120	1
121	1
122	3
123	3
124	5
125	16
126	4
127	1
128	2
129	2
130	2
131	2
132	1
133	1
134	1
135	2
136	6
137	3
138	4
139	10
140	5
141	20
142	2
143	1
144	1
145	1
146	1
148	0
149	2
150	1
151	3
152	4
153	7
154	8
155	2
156	2
157	2
158	4
160	218
161	24
162	2
163	1
164	1
165	2
166	2
167	11
168	3
169	8
170	1
171	1
172	0
174	0
176	22
177	3
178	0
179	1
180	2
181	15
182	3
183	3
184	0
185	2
191	0
192	2
193	2
194	1
195	1
197	3
198	1
199	1
204	84
205	11
206	2
207	1
208	1
209	17
210	9
211	2
225	1
226	6
227	3
228	0
229	0
232	17
233	2
240	0
241	1
243	0
255	3
256	0
257	0
268	0
273	1
283	1
284	4
285	0
298	2
305	0
317	37
318	8
319	2
344	2
345	1
361	1
362	0
363	0
402	0
419	1
434	1
