Mass Spectrum: 1-Methyl-3-(1'-methylcyclopropyl)cyclopentene
Formula: C10H16
CAS: 103240-53-5
Molecular weight: 136
m/z	intensity
32	50
39	330
41	350
43	40
51	100
53	230
55	100
63	20
65	60
77	260
79	450
81	999
82	70
91	260
93	990
94	200
103	10
105	50
108	950
109	60
121	100
136	80
