Mass Spectrum: Borane, isopropyldipropyl-
Formula: C9H21B
CAS: 10325-43-6
Molecular weight: 140
m/z	intensity
2	5
10	1
11	2
12	2
13	8
14	4
15	11
24	2
25	6
26	81
27	297
28	13
29	25
36	5
37	21
38	24
39	100
40	277
41	999
42	69
43	26
49	4
50	16
51	30
52	40
53	129
54	65
55	157
56	6
57	2
63	3
64	3
65	5
66	4
67	14
68	21
69	23
70	4
71	11
81	4
82	2
83	1
95	3
96	93
97	354
98	24
139	2
140	8
