Mass Spectrum: Benzene-1,3-diol, O,O'-acetyl-2-nitro-
Formula: C10H9NO6
CAS: 103264-33-1
Molecular weight: 239
m/z	intensity
33	0
34	0
36	0
37	6
38	14
39	61
40	10
41	8
42	75
43	999
44	42
45	5
46	0
48	0
49	1
50	14
51	27
52	16
53	19
54	9
55	7
56	1
57	1
58	0
59	0
60	1
61	2
62	5
63	8
64	4
65	5
66	5
67	2
68	3
69	1
70	2
71	0
72	0
73	0
74	0
75	0
76	0
77	1
78	1
79	5
80	4
81	21
82	2
83	0
84	0
85	0
86	0
90	0
91	1
92	1
93	11
94	5
95	26
96	4
97	1
98	0
105	0
106	0
107	3
108	5
109	126
110	9
111	1
112	0
119	0
120	0
121	0
122	6
123	1
124	0
125	1
126	0
127	0
131	0
132	0
133	0
135	0
136	1
137	107
138	9
139	23
140	1
141	0
146	0
148	0
149	4
150	1
151	1
152	0
154	3
155	336
156	24
157	3
158	0
163	0
168	0
177	0
179	0
181	0
182	0
193	0
196	0
197	72
198	6
199	1
238	0
239	6
240	0
