Mass Spectrum: Silacycloheptan-4-one, 1,1-dimethyl-
Formula: C8H16OSi
CAS: 10325-26-5
Molecular weight: 156
m/z	intensity
58	90
59	160
61	70
65	30
72	50
73	430
74	40
75	270
77	50
85	140
86	50
87	30
95	60
99	90
100	70
101	40
113	999
114	110
115	40
127	220
128	759
129	80
130	30
139	10
141	180
142	20
155	30
156	160
157	20
