Mass Spectrum: 1-Phenyl-5-methylocta-3,4-dien-6-yne
Formula: C15H16
CAS: 103240-62-6
Molecular weight: 196
m/z	intensity
51	720
52	160
53	310
63	370
64	110
65	999
77	810
78	200
79	290
89	140
91	790
103	220
115	160
128	150
129	110
141	130
152	130
153	240
165	770
166	630
167	490
179	130
180	100
181	970
182	150
196	20
