Mass Spectrum: Acetic acid, (2,3-dichlorophenyl)methyl ester
Formula: C9H8Cl2O2
CAS: 10328-87-7
Molecular weight: 218
m/z	intensity
14	5
15	32
16	1
26	3
27	4
28	2
29	18
30	2
31	3
35	3
36	3
37	10
38	13
39	32
40	2
41	3
42	26
43	999
44	37
45	6
47	3
48	1
49	16
50	60
51	57
52	6
53	2
55	1
56	1
60	5
61	32
62	70
63	104
64	7
65	2
71	1
72	10
73	65
74	80
75	164
76	21
77	74
78	10
79	10
80	7
81	1
83	5
84	30
85	36
86	32
87	37
88	14
89	139
90	11
91	1
94	1
95	1
96	7
97	33
98	4
99	32
100	2
101	8
102	1
103	3
104	1
105	12
106	3
107	10
108	5
109	78
110	31
111	201
112	44
113	81
114	13
115	8
118	1
119	3
120	2
121	3
123	417
124	72
125	138
126	23
127	2
131	1
133	34
134	2
135	21
136	1
137	5
138	3
139	52
140	59
141	835
142	82
143	265
144	22
145	66
146	20
147	90
148	16
149	40
150	4
151	5
155	53
156	5
157	21
158	73
159	503
160	84
161	319
162	31
163	53
164	4
165	1
167	1
169	1
173	44
174	6
175	55
176	283
177	43
178	185
179	17
180	30
181	3
183	574
184	60
185	186
186	18
187	2
218	42
219	4
220	27
221	3
222	4
