Mass Spectrum: N,N',N''-Tris(4-methylphenyl)triptycene-1,8,16-tricarboxamide
Formula: C44H35N3O3
CAS: 103259-25-2
Molecular weight: 653
m/z	intensity
64	230
79	510
86	460
91	370
106	999
125	190
133	50
149	100
171	200
176	220
184	100
198	80
207	110
221	150
239	50
250	380
278	50
307	50
341	60
355	70
366	50
384	100
394	50
413	100
547	810
653	100
