Mass Spectrum: 1,5-Diphenylhex-3-ene
Formula: C18H20
CAS: 103240-60-4
Molecular weight: 236
m/z	intensity
51	170
65	310
77	180
91	999
92	120
105	300
106	110
115	130
117	320
118	370
129	100
131	220
145	260
236	20
