Mass Spectrum: Octadecanoic acid, 1-[(dodecyloxy)methyl]-1,2-ethanediyl ester
Formula: C51H100O5
CAS: 10322-32-4
Molecular weight: 792
m/z	intensity
25	2
26	6
27	34
28	79
29	119
30	5
31	7
32	9
33	4
37	4
38	3
39	25
40	7
41	243
42	59
43	645
44	32
45	22
50	2
51	3
52	2
53	12
54	33
55	354
56	105
57	999
58	79
59	19
60	89
61	30
62	2
65	4
66	6
67	76
68	61
69	277
70	84
71	603
72	39
73	195
74	22
75	30
76	4
77	6
78	4
79	15
80	12
81	100
82	79
83	227
84	111
85	423
86	36
87	26
88	4
89	4
90	1
91	6
92	3
93	19
94	14
95	132
96	59
97	206
98	142
99	137
100	37
101	21
102	10
103	5
104	2
105	4
106	2
107	11
108	8
109	82
110	35
111	116
112	89
113	111
114	12
115	28
116	20
117	17
118	4
119	5
120	3
121	18
122	8
123	46
124	23
125	48
126	22
127	44
128	13
129	62
130	8
131	3
132	2
133	3
134	3
135	17
136	8
137	29
138	22
139	18
140	14
141	16
142	8
143	11
144	3
145	2
146	2
147	3
148	2
149	13
150	4
151	15
152	9
153	14
154	11
155	12
156	5
157	9
158	6
159	2
160	1
161	3
162	2
163	9
164	5
165	11
166	22
167	21
168	14
169	84
170	12
171	17
172	5
173	3
174	2
175	2
176	2
177	6
178	4
179	6
180	6
181	12
182	7
183	15
184	5
185	30
186	4
187	2
188	2
189	2
190	2
191	4
192	2
193	5
194	5
195	25
196	13
197	31
198	6
199	57
200	11
201	2
202	2
203	2
204	2
205	2
206	4
207	6
208	3
209	7
210	9
211	10
212	2
213	9
214	3
215	2
216	2
217	2
218	2
219	4
220	3
221	4
222	9
223	12
224	79
225	359
226	82
227	19
228	4
229	3
230	2
234	2
235	3
236	2
237	6
238	5
239	10
240	5
241	634
242	129
243	18
244	3
245	5
246	2
247	4
248	3
249	6
250	3
251	5
252	4
253	7
254	5
255	8
256	4
257	4
258	2
259	2
260	1
261	5
262	4
263	3
264	12
265	17
266	21
267	486
268	105
269	17
270	3
271	3
272	2
273	1
274	1
275	1
276	1
277	2
278	3
279	7
280	5
281	15
282	9
283	11
284	60
285	116
286	22
287	4
288	2
289	2
291	1
292	1
293	6
294	4
295	9
296	11
297	206
298	41
299	8
300	2
303	7
304	7
305	6
306	5
307	3
308	3
309	7
310	3
311	17
312	5
313	3
314	2
315	2
316	2
317	2
318	2
321	33
322	38
323	15
324	111
325	41
326	10
327	14
328	5
329	3
330	2
331	2
332	2
333	2
335	3
336	2
337	4
338	3
339	142
340	35
341	306
342	69
343	13
344	3
345	2
349	2
350	2
351	3
352	3
353	79
354	20
355	4
356	1
357	2
358	1
359	4
360	2
365	2
366	2
367	10
368	4
369	3
370	2
371	2
372	1
379	1
380	1
381	8
382	15
383	12
384	3
385	2
393	2
394	1
395	26
396	10
397	3
398	1
399	2
407	1
408	1
409	19
410	7
411	2
412	1
413	1
414	1
415	1
419	1
420	1
421	1
422	2
423	14
424	6
425	4
427	2
428	1
429	1
433	1
434	2
435	3
436	2
437	10
438	4
439	2
440	1
441	1
449	1
450	2
451	14
452	7
453	27
454	11
455	3
456	2
457	1
458	1
463	2
464	2
465	44
466	18
467	5
468	2
469	1
470	1
479	16
480	8
481	4
482	2
483	2
484	1
491	3
492	3
493	9
494	5
495	4
496	2
497	1
506	8
507	47
508	259
509	444
510	153
511	30
512	5
513	2
521	2
522	2
523	2
525	11
526	5
527	20
528	7
529	2
533	2
534	1
535	2
536	2
537	2
538	1
539	1
549	3
550	5
551	3
552	2
553	2
554	1
564	4
565	2
566	2
568	7
569	4
570	1
577	2
578	2
579	2
580	1
591	2
592	2
593	10
594	4
595	2
604	2
605	11
606	33
607	51
608	21
609	5
610	2
637	4
638	2
