Mass Spectrum: Oxazirane, 2-(dimethylethyl)-3-methoxy-
Formula: C6H13NO2
CAS: 103202-91-1
Molecular weight: 131
m/z	intensity
39	300
40	90
41	999
42	270
43	100
55	900
56	900
75	110
76	160
100	140
101	80
114	18
115	16
116	26
129	8
130	6
131	4
