Mass Spectrum: 3,4-Dimethyl-4-nitroso-2-pyrazolin-5-one
Formula: C5H7N3O2
CAS: 103248-40-4
Molecular weight: 141
m/z	intensity
31	470
37	176
38	313
39	470
40	274
41	156
42	745
43	352
51	313
52	999
53	490
54	588
55	137
56	196
58	98
67	392
69	78
70	58
82	607
83	392
84	156
98	39
110	117
141	431
142	39
