Mass Spectrum: 2-Anilino-3-[2-diethylaminoethylimino]-5-phenyl-3,5-dihydrophenazine
Formula: C30H31N5
CAS: 103276-37-5
Molecular weight: 461
m/z	intensity
41	7
42	22
43	9
44	47
45	3
50	2
51	9
52	1
54	1
55	2
56	12
58	184
59	3
63	0
65	2
66	1
69	0
70	2
71	1
72	18
73	28
74	2
76	1
77	24
78	1
86	999
87	31
89	2
91	1
93	4
100	4
102	4
103	0
104	1
106	0
114	0
115	2
127	2
128	1
129	1
139	1
140	3
141	1
143	0
149	1
151	1
152	2
155	1
164	1
166	2
167	3
168	1
169	1
173	0
178	1
179	1
181	3
187	7
192	2
193	5
194	3
195	0
203	0
204	0
220	1
221	3
231	2
241	0
242	2
243	2
244	0
245	1
246	0
253	0
255	3
256	2
257	1
258	1
267	0
268	2
269	4
270	5
271	2
272	2
273	0
282	2
283	3
284	1
285	2
287	0
295	3
296	2
297	37
298	9
299	3
307	1
308	1
309	10
310	2
311	4
313	0
344	2
346	2
349	1
359	2
360	5
361	6
362	3
363	2
364	1
372	0
373	5
374	14
375	42
376	16
377	16
378	4
383	1
384	20
385	8
386	9
387	4
389	2
458	1
459	15
460	9
461	32
462	11
463	0
