Mass Spectrum: 1-Phenyl-5-methylheptane
Formula: C14H22
CAS: 103240-92-2
Molecular weight: 190
m/z	intensity
51	60
55	100
57	500
65	130
77	60
78	60
79	50
91	980
92	999
93	80
105	90
133	70
190	130
