Mass Spectrum: 2,6-Diphenylhexa-2,3-diene
Formula: C18H18
CAS: 103240-58-0
Molecular weight: 234
m/z	intensity
51	360
63	120
65	330
77	310
91	999
92	120
103	17
105	17
115	32
127	18
128	80
129	40
130	11
141	19
142	11
143	38
206	11
219	170
234	320
