Mass Spectrum: 3-Methyl-7-phenylhepta-1,3,4-triene
Formula: C14H16
CAS: 103240-61-5
Molecular weight: 184
m/z	intensity
63	100
65	430
77	810
78	200
79	150
91	999
92	110
93	170
115	100
128	140
129	170
141	280
154	120
155	160
156	260
169	430
184	60
