Mass Spectrum: 2,6-Bis(2-nitrobenzylidene)cyclohexanone
Formula: C20H16N2O5
CAS: 10329-06-3
Molecular weight: 364
m/z	intensity
40	10
41	82
42	139
43	35
44	11
50	19
51	83
52	48
53	43
54	9
55	376
56	15
57	12
62	9
63	88
64	92
65	152
66	17
67	15
68	10
69	30
70	47
71	14
74	10
75	36
76	120
77	323
78	89
79	84
80	9
81	10
82	5
83	13
85	6
87	9
88	26
89	178
90	127
91	242
92	571
93	77
94	10
95	18
97	5
100	5
101	45
102	89
103	117
104	187
105	85
106	24
107	27
108	14
109	18
111	7
113	32
114	41
115	310
116	106
117	149
118	53
119	999
120	497
121	59
122	12
126	24
127	106
128	257
129	163
130	206
131	141
132	82
133	45
134	45
135	197
136	22
139	30
140	15
141	57
142	46
143	57
144	195
145	193
146	339
147	54
148	21
149	45
150	8
151	17
152	50
153	37
154	60
155	30
156	151
157	50
158	144
159	73
160	28
161	43
162	25
163	10
164	5
165	40
166	23
167	37
168	69
169	35
170	58
171	82
172	256
173	189
174	57
175	13
176	16
177	5
178	10
180	8
181	34
182	35
183	29
184	175
185	37
186	74
187	21
188	13
189	22
190	25
191	7
195	8
196	7
197	6
198	13
199	145
200	60
201	38
202	82
203	20
204	14
205	6
211	10
212	34
213	16
214	7
215	24
216	16
217	19
218	13
219	7
226	16
227	11
228	22
229	11
230	60
231	19
232	10
233	8
234	6
239	25
240	11
241	16
242	15
243	16
244	37
245	18
246	7
247	6
254	21
255	23
256	26
257	27
258	12
259	8
260	9
268	8
269	15
270	16
271	55
272	39
273	17
283	9
284	14
285	20
286	11
287	6
300	14
301	19
302	6
317	5
318	483
319	100
320	11
