Mass Spectrum: 4-Pyridinecarboxylic acid, octadecyl ester
Formula: C24H41NO2
CAS: 103225-02-1
Molecular weight: 375
m/z	intensity
26	1
27	19
28	4
29	71
30	2
31	1
37	1
39	15
40	4
41	153
42	41
43	239
44	9
45	1
49	1
50	7
51	49
52	7
53	10
54	37
55	187
56	62
57	140
58	7
59	1
65	1
66	2
67	34
68	32
69	108
70	39
71	47
72	3
76	1
77	4
78	107
79	53
80	44
81	19
82	22
83	74
84	20
85	22
86	1
91	1
92	1
93	21
94	2
95	8
96	9
97	42
98	11
99	3
104	1
105	2
106	179
107	114
108	9
109	3
110	3
111	15
112	6
113	1
119	2
120	10
121	6
122	2
123	19
124	999
125	91
126	8
127	1
128	0
131	1
132	0
133	1
134	3
135	5
136	1
137	6
138	1
139	2
140	2
141	1
145	1
146	1
147	1
148	3
149	5
150	4
151	5
152	1
153	1
154	2
155	1
161	1
162	4
163	4
164	9
165	5
166	1
167	1
168	2
174	1
175	1
176	4
177	4
178	6
179	3
180	1
181	1
182	1
190	3
191	4
192	6
193	2
204	3
205	3
206	7
207	3
208	0
218	4
219	3
220	9
221	4
222	0
223	0
224	1
232	4
233	4
234	11
235	4
236	1
246	3
247	6
248	14
249	3
250	1
251	0
252	2
260	3
261	3
262	16
263	4
264	0
274	4
275	2
276	19
277	5
278	1
288	7
289	3
290	21
291	5
292	1
302	2
303	3
304	22
305	5
306	0
316	0
317	1
318	23
319	5
320	1
330	3
331	42
332	33
333	7
334	0
335	0
346	20
347	5
348	0
360	8
361	2
362	0
373	1
374	11
375	24
376	7
377	1
