Mass Spectrum: 2,5-Diphenylcyclokexanone
Formula: C18H18O
CAS: 103386-24-9
Molecular weight: 250
m/z	intensity
27	14
28	3
38	2
39	46
40	4
41	18
42	2
43	6
49	8
50	13
51	56
52	19
53	10
55	7
57	7
59	2
62	4
63	28
64	8
65	46
66	5
69	4
71	4
74	4
75	8
76	13
77	137
78	153
79	24
81	3
83	3
84	7
85	2
86	4
87	3
88	3
89	35
90	28
91	225
92	21
94	2
97	3
101	6
102	37
103	209
104	999
105	260
106	18
107	2
111	6
113	3
114	3
115	148
116	45
117	859
118	199
119	14
120	4
125	2
127	9
128	24
129	25
130	11
131	468
132	59
133	51
134	5
139	2
141	5
143	11
144	24
145	35
146	123
147	13
148	2
152	4
153	2
159	9
160	2
163	2
165	8
166	2
167	10
170	3
172	3
178	6
179	6
180	3
189	2
191	5
193	6
194	2
200	2
202	3
203	3
205	6
206	382
207	65
208	5
222	2
232	8
248	2
250	457
251	87
252	9
