Mass Spectrum: trans-1,3-Cyclohexanedicarbonitrile
Formula: C8H10N2
CAS: 10339-99-8
Molecular weight: 134
m/z	intensity
41	470
51	110
52	160
53	160
54	999
66	120
67	240
80	270
81	630
94	520
106	130
107	260
134	50
