Mass Spectrum: 2,3-Diphenyl-5-methoxyfuran
Formula: C17H14O2
CAS: 103363-90-2
Molecular weight: 250
m/z	intensity
50	20
51	110
52	10
63	69
74	40
75	69
76	119
77	516
78	40
88	29
89	40
90	39
102	171
103	30
105	999
106	99
152	29
163	20
164	19
165	49
176	20
177	29
178	59
179	30
189	90
192	20
193	39
235	280
236	49
250	199
251	80
