Mass Spectrum: N-(2-Methylphenyl)-benzene-sulfenamide
Formula: C13H13NS
CAS: 103375-52-6
Molecular weight: 215
m/z	intensity
65	68
66	40
77	202
78	68
79	169
104	39
105	30
106	999
107	130
109	70
110	89
180	20
181	9
182	20
183	9
199	10
200	19
201	10
214	20
215	500
216	60
217	39
