Mass Spectrum: Selenocyanic acid, 4-aminophenyl ester
Formula: C7H6N2Se
CAS: 10336-11-5
Molecular weight: 198
m/z	intensity
25	12
26	21
27	43
29	1
36	21
37	40
38	118
39	15
40	45
41	12
48	3
49	25
50	21
51	54
52	21
53	18
60	18
61	35
62	89
63	59
64	215
65	31
66	31
72	3
73	14
74	6
75	6
76	3
77	12
78	3
79	84
80	7
81	3
83	3
84	6
85	12
86	4
87	3
88	9
89	31
90	148
91	54
92	31
93	3
94	7
98	3
101	4
102	6
103	4
104	10
105	10
106	4
107	4
113	6
114	15
115	7
116	35
117	999
118	85
119	6
127	6
128	6
129	6
131	6
138	4
139	3
140	9
141	7
142	12
143	9
144	18
145	4
146	4
165	3
166	1
167	21
168	20
169	50
171	87
172	10
173	18
192	4
194	34
195	28
196	84
197	12
198	182
199	15
200	31
201	4
