Mass Spectrum: Silane, bicyclo[4.1.0]hepta-1,3,5-trien-7-ylidenebis[trimethyl-
Formula: C13H22Si2
CAS: 103322-20-9
Molecular weight: 234
m/z	intensity
26	0
27	1
28	1
29	10
30	0
31	10
33	0
38	0
39	4
41	1
42	2
43	61
44	13
45	113
46	7
47	3
50	1
51	3
52	0
53	26
54	3
55	11
56	1
57	8
58	10
59	77
60	6
61	2
62	1
63	4
64	0
65	1
66	5
67	11
68	2
69	7
70	1
71	2
72	5
73	999
74	73
75	33
76	2
77	8
78	2
79	8
80	1
81	4
82	1
83	11
84	2
85	3
86	0
87	0
88	1
89	5
90	3
91	7
92	1
93	11
94	1
95	3
96	1
97	3
98	0
99	1
100	0
101	1
102	2
103	6
104	1
105	35
106	5
107	10
108	1
109	2
110	1
111	0
112	0
113	1
114	0
115	11
116	3
117	8
118	3
119	20
120	4
121	12
122	1
123	0
124	0
125	1
126	0
127	0
128	1
129	8
130	7
131	54
132	9
133	23
134	3
135	39
136	6
137	2
138	0
139	0
140	0
141	2
142	1
143	15
144	9
145	208
146	258
147	46
148	14
149	2
150	0
155	1
156	0
157	2
158	2
159	31
160	37
161	53
162	9
163	18
164	2
165	1
167	0
171	0
173	1
174	0
175	4
176	4
177	11
178	2
179	1
185	0
187	0
189	3
190	1
191	23
192	4
193	2
194	0
201	0
203	3
204	1
205	0
207	0
208	0
215	0
217	2
218	1
219	6
220	1
221	1
234	16
235	4
236	1
237	0
