Mass Spectrum: Silanediamine, 1-chloro-N,N,N',N',1-pentamethyl-
Formula: C5H15ClN2Si
CAS: 10339-02-3
Molecular weight: 166
m/z	intensity
15	116
18	19
28	67
29	42
30	37
31	6
40	17
41	33
42	417
43	94
44	999
45	103
46	2
56	29
57	21
58	58
59	31
61	28
63	43
64	10
65	37
67	21
70	5
72	32
74	1
75	2
77	16
78	8
79	88
80	13
81	22
82	13
83	3
87	12
88	97
89	10
90	2
93	4
102	3
106	61
107	15
108	107
109	5
110	31
115	17
117	8
120	20
121	49
122	67
123	24
124	40
125	13
126	15
129	5
130	30
131	129
132	16
133	5
149	5
151	90
152	8
153	34
160	7
163	2
165	75
166	248
167	27
168	120
169	14
