Mass Spectrum: Tricyclo[5.2.1.0(2,6)]decan-10-one
Formula: C10H14O
CAS: 103385-97-3
Molecular weight: 150
m/z	intensity
29	62
39	462
40	97
41	321
42	76
51	113
52	65
53	213
54	186
55	116
63	32
65	128
66	186
67	412
68	155
77	268
78	154
79	999
80	544
81	388
82	63
91	237
92	69
93	350
94	138
95	51
105	55
106	853
107	316
108	169
109	400
117	45
119	64
121	222
122	107
132	24
135	39
149	32
150	424
151	49
152	2
