Mass Spectrum: Bromoacetanilide
Formula: C8H8BrNO
CAS: 103373-69-9
Molecular weight: 213
m/z	intensity
28	6
39	31
41	6
42	8
43	12
51	18
52	8
63	2
64	9
65	172
66	55
67	5
76	4
77	110
78	15
79	12
91	19
92	111
93	999
94	109
95	11
104	8
105	2
106	56
107	5
119	15
120	96
121	18
123	18
132	6
133	8
134	15
135	4
213	290
214	26
215	287
216	23
217	1
