Mass Spectrum: 1,4-Dibenzylpiperazine
Formula: C18H22N2
CAS: 1034-11-3
Molecular weight: 266
m/z	intensity
41	18
42	52
43	5
44	19
50	4
51	17
52	6
53	3
54	12
55	22
56	31
57	5
58	3
62	3
63	14
64	4
65	102
66	7
68	3
70	10
72	28
73	3
77	12
78	7
79	3
83	8
84	3
89	20
90	18
91	999
92	87
93	3
103	5
104	34
105	19
106	17
107	19
117	15
118	40
119	67
120	252
121	19
130	5
131	8
132	86
133	44
134	82
135	17
136	6
144	6
145	3
146	79
147	16
148	42
149	5
160	9
161	8
173	6
174	4
175	226
176	30
189	4
207	3
265	6
266	58
267	13
