Mass Spectrum: .gamma.-Linolenic acid, picolinyl ester
Formula: C24H35NO2
CAS: 103418-44-6
Molecular weight: 369
m/z	intensity
16	1
26	2
27	29
28	5
29	70
30	2
31	1
37	1
38	5
39	113
40	12
41	294
42	28
43	102
44	4
45	5
50	7
51	26
52	16
53	75
54	73
55	281
56	21
57	43
58	2
59	3
60	2
61	1
62	2
63	18
64	26
65	249
66	62
67	401
68	42
69	101
70	7
71	25
72	2
73	6
74	1
75	1
77	151
78	75
79	393
80	181
81	191
82	26
83	33
84	3
85	23
86	1
87	4
88	1
89	2
90	2
91	285
92	999
93	673
94	101
95	116
96	20
97	19
98	3
99	8
101	3
102	1
103	12
104	7
105	102
106	42
107	86
108	374
109	156
110	66
111	9
112	1
113	6
114	1
115	12
116	5
117	37
118	14
119	119
120	25
121	50
122	9
123	17
124	5
125	3
127	6
128	5
129	9
130	10
131	24
132	12
133	58
134	13
135	38
136	7
137	11
138	1
139	1
141	2
142	2
143	9
144	7
145	11
146	8
147	36
148	10
149	23
150	22
151	129
152	17
153	4
154	1
155	1
156	3
157	7
158	6
159	6
160	7
161	44
162	7
163	15
164	169
165	27
166	4
167	2
168	2
169	3
170	4
171	7
172	6
173	4
174	4
175	15
176	4
177	10
178	30
179	26
180	4
181	3
182	2
183	4
184	6
185	3
186	4
187	2
188	3
189	6
190	13
191	7
192	15
193	9
194	2
195	1
196	1
197	1
198	5
199	2
200	2
201	2
202	3
203	5
204	17
205	6
206	13
207	5
208	2
209	1
210	1
211	1
212	3
213	2
214	4
215	3
216	3
217	8
218	19
219	10
220	19
221	4
222	1
224	1
226	2
227	1
228	3
229	2
230	4
231	8
232	25
233	25
234	10
235	2
237	1
238	1
239	1
240	12
241	4
242	5
243	1
244	15
245	15
246	19
247	10
248	5
249	1
252	1
253	1
254	6
255	1
256	4
257	2
258	65
259	30
260	18
261	4
262	2
266	1
268	2
269	1
270	11
271	12
272	51
273	11
274	8
275	3
276	1
277	9
278	2
280	2
282	1
283	1
284	15
285	7
286	8
287	3
288	5
289	2
290	2
294	1
296	1
298	35
299	11
300	9
301	3
302	3
303	1
304	1
308	1
310	1
312	55
313	17
314	8
315	6
316	1
324	1
326	23
327	8
328	10
329	2
330	1
340	14
341	8
342	2
350	1
351	1
354	6
355	2
368	32
369	114
370	27
371	4
