Mass Spectrum: Benzeneethanamine, 5-benzyloxy-2-fluoro-.beta.-hydroxy-N-methyl-
Formula: C16H18FNO2
CAS: 103439-00-5
Molecular weight: 275
m/z	intensity
42	35
44	999
45	8
46	1
49	1
50	4
51	11
52	3
53	1
54	0
55	1
56	2
57	9
58	5
59	1
60	0
61	0
62	2
63	15
64	6
65	73
66	4
67	0
68	0
69	0
70	1
71	0
72	0
73	1
74	2
75	4
76	2
77	8
78	2
79	1
80	0
81	2
82	2
83	10
84	9
85	1
86	0
87	0
88	0
89	12
90	8
91	327
92	38
93	3
94	2
95	7
96	4
97	4
98	0
99	0
101	0
102	0
103	0
104	0
105	2
106	0
107	2
108	0
109	4
110	1
111	2
112	9
113	5
114	0
115	0
116	0
117	0
118	1
119	0
120	0
121	0
122	1
123	4
124	1
125	4
126	1
127	0
128	0
133	1
134	0
135	0
136	2
137	1
138	3
139	2
140	6
141	10
142	0
146	1
147	0
148	0
149	0
150	0
151	1
152	1
153	6
154	0
155	0
163	0
164	5
165	2
166	2
167	1
168	0
169	0
170	0
171	0
181	0
182	0
183	1
184	7
185	1
199	0
214	2
215	0
224	0
225	0
228	0
230	1
231	2
232	39
233	6
234	0
238	3
239	0
240	0
241	0
244	0
254	4
255	24
256	4
257	1
258	5
259	0
274	0
275	27
276	13
277	6
278	0
