Mass Spectrum: cis-4-Hydroxytricyclo[3.1.0.0(2,6)]hexane-3-carbonitrile
Formula: C7H7NO
CAS: 103495-49-4
Molecular weight: 121
m/z	intensity
25	1
26	50
27	103
28	2
29	96
30	6
31	26
32	0
37	44
38	87
39	305
40	118
41	88
42	24
43	23
44	10
45	1
49	12
50	128
51	177
52	615
53	105
54	30
55	37
56	1
57	8
61	11
62	22
63	65
64	73
65	300
66	999
67	176
68	61
69	9
74	8
75	21
76	39
77	70
78	38
79	10
80	10
81	45
82	3
90	3
91	33
92	154
93	140
94	46
95	6
102	7
103	12
104	14
105	1
106	5
120	28
121	55
122	3
