Mass Spectrum: Pregn-5-en-20-one, 3,17-dihydroxy-, 3-acetate
Formula: C23H34O4
CAS: 10343-51-8
Molecular weight: 374
m/z	intensity
41	201
43	999
45	89
53	61
55	224
57	62
60	48
65	28
67	165
68	22
69	79
71	70
77	99
78	18
79	207
80	27
81	352
82	16
83	38
84	15
85	64
87	40
91	269
92	43
93	219
94	51
95	154
97	56
103	20
105	257
106	91
107	238
108	62
109	104
110	19
111	28
115	29
117	85
118	43
119	175
120	83
121	160
122	38
123	90
124	25
125	21
128	46
129	80
130	21
131	126
132	28
133	138
134	31
135	81
136	16
137	27
141	36
142	23
143	127
144	46
145	208
146	35
147	126
148	38
149	83
151	15
155	30
156	15
157	117
158	91
159	132
160	40
161	107
162	15
163	25
169	24
171	73
172	20
173	57
174	17
175	23
176	15
177	22
183	35
185	54
186	25
187	34
189	20
195	16
197	54
198	21
199	45
200	17
201	22
211	55
212	21
213	284
214	65
215	52
225	19
226	81
227	131
228	125
229	72
251	25
253	277
254	49
255	61
256	35
263	17
267	16
268	16
269	45
270	106
271	289
272	56
281	52
283	15
286	52
287	27
288	33
296	156
297	33
298	80
299	38
312	49
313	27
314	372
315	84
316	21
330	26
331	38
374	38
