Mass Spectrum: Benzenepropanamine, N,N-dimethyl-
Formula: C11H17N
CAS: 10344-82-8
Molecular weight: 163
m/z	intensity
39	230
40	30
41	130
42	600
43	190
44	430
45	80
50	60
51	120
52	60
53	30
54	10
55	20
56	140
57	120
58	999
59	420
62	20
63	90
64	20
65	260
66	20
70	90
71	150
72	30
74	10
75	20
76	20
77	150
78	80
79	60
80	50
81	20
84	40
85	20
89	60
90	30
91	650
92	80
102	20
103	80
104	70
105	30
116	100
117	40
118	150
119	60
160	30
161	20
162	30
163	420
164	60
