Mass Spectrum: Undecanedioic acid, 2-methyl-
Formula: C12H22O4
CAS: 10348-31-9
Molecular weight: 230
m/z	intensity
26	7
27	242
28	79
29	354
30	23
31	49
39	144
40	27
41	702
42	133
43	241
44	11
45	178
46	4
47	7
51	4
52	1
53	55
54	46
55	766
56	145
57	151
58	13
59	90
60	311
61	35
62	1
65	9
66	6
67	101
68	64
69	565
70	82
71	93
72	7
73	505
74	999
75	40
76	2
77	8
78	1
79	43
80	22
81	112
82	66
83	263
84	348
85	64
86	7
87	387
88	52
89	5
91	7
92	1
93	40
94	49
95	91
96	48
97	203
98	812
99	60
100	17
101	95
102	12
105	3
106	1
107	16
108	17
109	29
110	44
111	93
112	701
113	61
114	17
115	64
116	10
119	6
120	2
121	171
122	32
123	30
124	63
125	44
126	250
127	33
128	8
129	192
130	21
133	3
134	8
135	19
136	7
137	20
138	48
139	190
140	29
141	3
142	9
143	167
144	20
147	6
148	11
149	10
150	7
151	18
152	255
153	134
154	18
155	6
156	27
157	96
158	12
165	9
166	62
167	12
170	103
171	39
172	4
176	18
184	12
185	12
186	380
187	46
188	6
193	1
194	56
195	7
212	11
213	10
