Mass Spectrum: Benzeneethanamine, 2-fluoro-.beta.,3-dihydroxy-N-methyl-
Formula: C9H12FNO2
CAS: 103439-04-9
Molecular weight: 185
m/z	intensity
41	12
42	58
43	36
44	999
45	136
46	52
47	1
48	1
49	2
50	6
51	16
52	3
53	8
54	1
55	6
56	8
57	20
58	7
59	4
60	2
61	2
62	5
63	14
64	11
65	39
66	5
67	2
68	1
69	3
70	2
71	2
72	8
73	6
74	4
75	6
76	2
77	19
78	8
79	2
80	1
81	4
82	2
83	12
84	4
85	2
86	2
87	1
88	1
89	3
90	1
91	3
92	3
93	10
94	4
95	12
96	3
97	2
98	0
99	1
100	0
101	0
103	0
104	1
105	1
106	3
107	4
108	1
109	3
110	1
111	3
112	4
113	9
114	1
116	0
117	0
118	2
119	1
120	2
121	4
122	2
123	2
124	3
125	5
126	1
129	0
133	1
134	1
135	1
136	1
137	1
138	6
139	10
140	3
141	4
142	1
146	2
147	0
148	1
149	1
150	1
151	1
152	0
153	1
154	1
155	0
164	1
165	3
166	1
167	3
168	2
182	0
185	0
186	1
