Mass Spectrum: Benzaldehyde, 3-benzyloxy-2-fluoro-
Formula: C14H11FO2
CAS: 103438-90-0
Molecular weight: 230
m/z	intensity
41	9
43	7
50	10
51	18
56	3
57	21
62	10
63	29
64	8
65	97
66	4
75	9
77	10
81	12
82	13
83	36
89	25
90	21
91	999
92	75
110	9
139	12
181	1
197	1
230	51
231	9
