Mass Spectrum: cis-1,3-Cyclohexanedicarbonitrile
Formula: C8H10N2
CAS: 10340-01-9
Molecular weight: 134
m/z	intensity
41	360
52	120
53	130
54	999
66	150
67	350
80	390
81	470
94	280
107	310
134	30
