Mass Spectrum: 2-Cyclohexenol, 1R-4-trans-acetamido-5-cis-,6-cis-dimethoxy-
Formula: C10H17NO4
CAS: 1034974-38-3
Molecular weight: 215
m/z	intensity
39	59
40	49
41	116
42	43
43	431
44	126
45	154
51	11
52	6
53	62
54	40
55	77
56	402
57	72
58	16
59	35
60	45
65	27
66	23
67	124
68	101
69	24
70	15
71	14
73	153
74	38
75	117
80	98
81	76
82	55
83	39
84	155
85	999
86	69
88	421
89	9
93	13
95	11
96	77
97	21
98	27
99	35
100	17
108	51
109	54
110	39
111	23
112	50
123	79
124	47
125	18
126	14
127	669
128	31
140	86
141	81
154	9
156	25
165	17
183	33
