Mass Spectrum: 2,3,4,6-Tetra-O-acetyl-D-glucopyranose
Formula: C14H20O10
CAS: 10343-06-3
Molecular weight: 348
m/z	intensity
25	16
26	73
27	219
28	229
29	299
30	29
31	99
32	12
36	17
37	7
38	12
39	109
40	21
41	90
42	329
43	999
44	299
45	719
46	8
50	16
51	31
52	44
53	139
54	26
55	169
56	63
57	63
58	15
60	569
61	159
68	65
69	179
70	109
71	79
72	9
73	359
74	53
75	7
79	8
80	39
81	179
82	26
83	16
84	81
85	259
86	239
87	26
89	8
94	7
95	8
96	129
97	999
98	659
99	109
100	15
101	129
102	289
103	399
104	21
108	7
109	86
110	26
111	8
112	27
113	99
114	159
115	849
116	159
117	16
122	0
125	12
126	219
127	129
128	44
129	17
131	31
132	8
133	8
139	79
140	119
141	37
142	7
143	86
144	139
145	139
146	12
155	33
156	81
157	419
158	99
159	12
161	7
168	54
169	49
170	21
171	8
173	17
174	1
175	17
182	12
184	0
185	7
186	60
187	44
188	0
199	34
200	86
201	8
203	34
204	3
211	3
215	269
217	13
228	8
229	13
233	6
242	18
243	4
245	19
246	5
247	1
259	1
275	15
289	6
331	4
