Mass Spectrum: Tricyclo[2.1.1.0(5,6)]hexane-2-carbonitrile, 3-[[(4-methylphenyl)sulfonyl]oxy]-
Formula: C14H13NO3S
CAS: 103495-50-7
Molecular weight: 275
m/z	intensity
36	37
37	19
38	54
39	255
40	53
41	165
42	42
43	116
44	46
45	37
48	7
49	7
50	87
51	151
52	153
53	142
54	16
55	81
56	107
57	144
58	9
60	11
62	16
63	76
64	64
65	406
66	136
67	49
68	17
69	57
70	20
71	72
73	8
74	14
75	26
76	92
77	274
78	75
79	95
80	30
81	40
82	14
83	41
84	9
85	25
89	54
90	47
91	999
92	227
93	52
94	21
95	36
96	13
97	32
98	7
99	17
102	24
103	107
104	189
105	26
107	88
108	97
109	28
110	10
111	20
119	13
120	164
121	23
122	7
123	12
124	8
125	11
134	7
135	8
139	27
149	27
155	405
156	40
157	23
167	7
172	72
173	57
174	6
275	21
276	3
