Mass Spectrum: cis-1,3-Bis(aminomethyl)cyclohexane
Formula: C8H18N2
CAS: 10340-00-8
Molecular weight: 142
m/z	intensity
30	999
41	120
43	50
53	50
54	170
55	140
56	150
67	200
68	100
79	80
81	160
82	150
95	160
96	150
108	50
112	100
113	600
125	420
142	5
