Mass Spectrum: Benzeneethanamine, 2-fluoro-.beta.,5-dihydroxy-N-methyl-
Formula: C9H12FNO2
CAS: 103439-07-2
Molecular weight: 185
m/z	intensity
41	11
42	38
43	31
44	999
45	44
46	15
48	3
49	1
50	5
51	10
52	4
53	6
54	1
55	6
56	8
57	24
58	6
59	3
60	3
61	2
62	3
63	10
64	8
65	22
66	3
67	2
68	2
69	4
70	3
71	3
72	3
73	3
74	3
75	5
76	2
77	12
78	21
79	3
81	4
82	3
83	15
84	6
85	2
86	4
87	1
89	0
91	1
92	0
93	4
94	2
95	16
96	3
97	2
98	0
99	0
100	6
101	0
105	2
106	8
107	3
108	0
109	4
110	0
111	4
112	5
113	10
114	0
121	3
122	1
123	2
124	8
125	6
126	1
133	0
135	1
136	0
137	0
138	4
139	12
140	4
141	5
142	0
146	0
148	0
149	1
151	3
153	0
154	1
164	0
165	1
166	2
167	0
168	1
185	8
186	1
