Mass Spectrum: Pentanoic acid, 2,4-dimethyl-5-oxo-, methyl ester
Formula: C8H14O3
CAS: 10348-62-6
Molecular weight: 158
m/z	intensity
26	14
27	152
28	84
29	175
30	11
31	60
33	8
38	9
39	136
40	25
41	436
42	140
43	418
44	23
45	111
51	13
53	40
54	13
55	343
56	464
57	361
58	59
59	294
60	16
61	6
65	10
67	36
68	14
69	467
70	71
71	48
72	18
73	206
74	23
77	14
78	6
79	15
81	27
82	34
83	288
84	44
85	21
87	93
88	999
89	45
91	7
95	19
96	10
97	78
98	94
99	84
100	11
101	183
102	17
110	24
111	70
112	17
113	65
115	72
116	62
126	127
127	168
128	181
129	210
130	28
136	13
141	9
142	94
143	182
144	16
156	39
157	208
158	21
159	4
