Mass Spectrum: Xanthine, 1,3-diallyl-8-[4-carboxymethoxypheny]-
Formula: C19H18N4O5
CAS: 103445-56-3
Molecular weight: 382
m/z	intensity
41	261
42	123
43	233
44	999
45	181
46	103
47	9
50	47
51	68
52	37
53	58
54	56
55	172
56	178
57	116
58	38
59	28
60	74
61	26
62	21
63	45
64	33
65	107
66	48
67	67
68	38
69	67
70	55
71	66
72	34
73	118
74	28
75	17
76	50
77	112
78	140
79	45
80	14
81	34
82	52
83	62
84	41
85	34
86	9
87	20
88	1
89	23
90	18
91	39
92	22
93	78
94	64
95	42
96	25
97	43
98	28
99	28
100	10
101	10
102	8
103	17
104	35
105	46
106	104
107	128
108	61
109	22
110	18
111	24
112	9
113	15
114	1
115	29
116	16
117	16
118	14
119	38
120	50
121	292
122	285
123	44
124	81
125	19
126	2
127	78
128	10
129	25
130	9
131	16
132	23
133	27
134	44
135	44
136	14
137	2
138	13
141	7
143	31
144	8
145	16
146	11
147	2
148	16
149	47
150	14
151	17
152	20
155	1
157	6
159	15
160	19
161	17
163	5
164	8
165	13
168	6
173	9
174	17
178	27
179	42
180	42
181	17
185	8
186	6
189	2
197	8
198	1
200	15
202	9
203	23
207	2
209	1
212	22
213	21
214	4
225	3
226	20
227	19
228	28
240	21
241	35
242	24
253	14
254	17
255	35
256	20
268	11
269	2
282	17
283	8
284	3
285	4
309	14
321	5
323	26
324	97
325	18
336	17
337	8
338	141
339	30
382	16
