Mass Spectrum: 7-Oxa-8-aza-tetracyclo[4.3.0(1,6).0(2,4).0(3,5)]non-8-ene
Formula: C7H7NO
CAS: 103495-75-6
Molecular weight: 121
m/z	intensity
24	0
25	3
26	60
27	104
28	148
29	71
30	16
31	12
33	91
37	39
38	110
39	755
40	133
41	61
42	16
43	14
44	7
45	2
46	2
47	1
48	0
49	9
50	109
51	163
52	999
53	78
54	12
55	18
56	2
57	6
58	1
60	0
61	10
62	29
63	78
64	38
65	257
66	316
67	89
68	40
69	7
70	2
71	1
73	1
74	7
75	8
76	22
77	86
78	446
79	48
80	12
81	15
82	3
83	1
85	0
86	1
87	1
88	1
89	13
90	5
91	56
92	157
93	48
94	24
95	33
96	8
97	1
102	3
103	11
104	11
105	11
106	7
107	7
108	2
109	1
110	0
117	1
118	0
119	2
120	16
121	34
122	5
123	1
