Mass Spectrum: Phenethylamine, 3-benzyloxy-2-fluoro-N-formyl-.beta.-hydroxy-
Formula: C16H16FNO3
CAS: 103438-97-7
Molecular weight: 289
m/z	intensity
41	11
42	3
43	6
44	24
45	2
46	1
50	6
51	16
52	4
53	1
54	0
55	2
56	2
57	8
58	47
59	193
60	7
61	1
62	4
63	20
64	10
65	115
66	7
67	0
68	1
69	2
70	3
71	2
72	0
73	3
74	1
75	6
76	5
77	16
78	10
79	3
80	0
81	3
82	2
83	14
84	12
85	3
86	0
87	1
88	0
89	22
90	14
91	999
92	132
93	9
94	4
95	8
96	7
97	7
98	1
99	0
103	1
104	60
105	12
106	5
107	6
108	1
109	2
110	1
111	3
112	13
113	6
114	0
115	1
119	1
120	1
121	1
122	3
123	5
124	11
125	4
126	1
127	4
128	1
129	0
132	1
133	3
134	2
135	1
136	1
137	0
138	6
139	14
140	13
141	17
142	1
146	0
147	0
148	1
149	23
150	32
151	4
152	8
153	112
154	10
155	2
165	3
166	1
167	0
168	1
169	0
170	2
171	1
177	0
178	11
179	1
180	0
181	5
182	1
183	7
184	1
194	0
195	0
196	0
197	6
198	31
199	4
200	0
209	1
211	1
212	0
213	1
214	0
215	0
224	8
225	1
226	4
227	1
228	0
229	1
230	1
231	471
232	70
233	7
234	0
240	0
241	5
242	1
243	1
244	88
245	15
246	1
251	3
252	0
269	1
270	0
271	14
272	13
273	2
288	0
289	104
290	21
291	2
