Mass Spectrum: 2-([(4-Chlorophenyl)methyl]amino)-1-(4-nitrophenyl)ethanol
Formula: C15H15ClN2O3
CAS: 1034736-76-9
Molecular weight: 306
m/z	intensity
36	13
37	34
38	39
39	127
40	27
41	71
42	37
43	14
50	126
51	178
52	43
61	20
62	42
63	104
64	19
65	53
66	15
73	14
74	48
75	54
76	37
77	154
78	71
86	12
89	174
90	73
91	46
99	55
101	15
105	29
106	38
111	15
125	999
126	74
127	329
128	20
136	23
138	16
140	8
149	17
150	33
151	31
152	51
153	35
154	437
155	23
156	148
306	215
307	38
308	78
309	12
