Mass Spectrum: Nonanedioic acid, 2-propyl-
Formula: C12H22O4
CAS: 10348-26-2
Molecular weight: 230
m/z	intensity
26	7
27	208
28	13
29	247
30	7
31	35
39	116
40	18
41	529
42	80
43	200
44	7
45	110
46	1
47	4
51	5
52	3
53	51
54	37
55	554
56	76
57	88
58	9
59	55
60	155
61	13
65	9
66	6
67	100
68	59
69	422
70	55
71	51
72	4
73	999
74	54
75	5
77	10
78	2
79	23
80	16
81	85
82	52
83	284
84	449
85	56
86	19
87	55
88	21
91	4
92	3
93	21
94	9
95	52
96	76
97	116
98	330
99	43
100	19
101	53
102	587
103	33
105	3
107	20
108	7
109	28
110	42
111	196
112	59
113	16
114	87
115	55
116	12
119	6
121	11
122	13
123	30
124	179
125	47
126	96
127	21
128	26
129	114
130	11
134	6
135	5
137	30
138	46
139	16
140	7
141	8
142	100
143	46
144	4
147	4
148	8
149	9
150	3
151	15
152	640
153	88
154	9
155	4
156	9
157	13
165	22
166	86
167	18
170	296
171	58
172	5
183	7
184	18
185	12
186	61
187	7
188	50
189	5
194	97
195	10
211	1
212	8
213	10
