Mass Spectrum: Cholestan-22(26)-epoxy-3.beta.-ol acetate
Formula: C29H48O3
CAS: 103403-13-0
Molecular weight: 444
m/z	intensity
41	74
42	41
43	281
44	11
47	4
48	0
49	2
51	1
53	13
55	183
56	3
57	43
58	2
61	3
65	4
66	0
67	48
68	12
69	36
70	6
71	18
72	0
73	1
77	10
79	36
81	321
82	22
83	22
84	19
85	8
86	11
88	0
91	30
93	60
94	15
95	48
96	3
98	262
99	999
100	64
101	4
103	0
104	0
105	30
106	10
107	43
108	10
109	16
110	2
111	3
113	1
115	2
117	5
118	0
119	12
120	5
121	19
122	7
123	9
124	2
125	2
126	11
127	2
129	0
131	6
132	0
133	16
134	5
135	14
136	2
137	2
139	6
143	2
145	9
146	2
147	18
148	4
149	5
151	0
153	1
157	0
159	4
160	1
161	9
162	3
163	5
165	0
173	4
174	1
175	5
176	4
177	2
187	3
189	2
191	0
199	0
201	4
202	2
203	3
213	2
215	10
216	3
217	2
231	1
232	1
241	2
255	2
257	3
271	4
286	21
287	19
288	4
315	3
316	17
317	3
344	4
347	2
384	1
