Mass Spectrum: 5-Androstene-3.beta.,17.beta.-diol 17-benzoate-3-isocaproate
Formula: C32H44O4
CAS: 103512-31-8
Molecular weight: 492
m/z	intensity
41	67
43	280
44	8
45	4
49	0
50	1
51	21
53	14
55	71
57	18
59	1
65	4
67	46
69	27
71	43
73	2
76	1
77	153
79	81
81	144
83	8
85	3
91	62
93	69
94	28
95	40
97	10
99	18
103	3
105	999
106	89
107	86
108	23
109	15
110	0
111	1
115	8
117	33
118	14
119	31
120	31
121	136
122	27
123	16
125	1
127	2
128	4
129	15
130	6
131	45
132	16
133	142
134	35
135	22
136	11
137	1
141	7
142	7
143	42
144	21
145	48
146	101
147	47
148	34
149	58
150	7
151	0
154	1
155	5
156	2
157	24
158	26
159	50
160	33
161	21
162	5
163	6
165	0
167	2
169	9
171	16
172	10
173	13
174	4
175	2
177	2
181	1
183	25
184	4
185	11
186	3
187	8
188	0
189	3
195	2
197	18
198	3
199	19
200	4
201	2
211	11
212	16
213	19
214	5
215	2
223	0
225	10
226	6
227	6
228	3
229	2
237	0
239	74
240	15
241	2
242	0
243	2
253	9
254	34
255	38
256	9
257	5
259	0
270	2
271	14
272	3
322	2
334	2
361	20
362	6
375	5
376	729
377	203
378	24
379	1
