Mass Spectrum: Cyclohexanol, 1R-4cis-acetamido-5,6cis-epoxy-2trans,3cis-dimethoxy-
Formula: C10H17NO5
CAS: 1035374-54-9
Molecular weight: 231
m/z	intensity
37	2
38	9
39	69
40	49
41	162
42	175
43	999
44	134
45	279
46	22
47	12
50	2
51	13
52	12
53	53
54	58
55	118
56	124
57	170
58	162
59	107
60	141
61	46
63	1
64	2
65	7
66	8
67	22
68	95
69	128
70	112
71	300
72	599
73	249
74	146
75	58
77	2
78	8
79	7
80	71
81	87
82	66
83	80
84	302
85	262
86	355
87	523
88	215
89	21
90	2
92	2
93	4
94	5
95	14
96	71
97	104
98	264
99	172
100	99
101	84
102	55
103	12
104	5
106	1
108	21
109	25
110	46
111	244
112	182
113	93
114	168
115	106
116	32
117	16
118	2
121	1
122	11
123	9
124	33
125	38
126	59
127	67
128	157
129	46
130	6
138	45
139	49
140	269
141	40
142	20
143	226
144	21
145	50
146	9
150	2
152	8
153	4
154	11
155	10
156	17
157	36
158	4
166	3
167	1
170	27
171	4
172	52
173	6
181	7
182	6
183	3
184	7
199	2
200	1
