Mass Spectrum: Benzophenone, 2-[N-methyl-N-acetylamino]-5-nitro-
Formula: C16H14N2O4
CAS: 103697-03-6
Molecular weight: 298
m/z	intensity
43	999
44	20
45	4
47	15
48	4
49	32
50	43
51	182
52	26
53	16
54	7
55	8
56	13
57	4
58	1
60	4
62	27
63	74
64	11
65	11
66	14
67	5
68	2
69	4
70	2
71	6
74	15
75	22
76	58
77	325
78	50
79	13
80	4
81	2
82	2
83	2
84	13
86	38
87	5
88	18
89	14
90	12
91	53
92	8
93	2
94	0
95	1
96	0
97	1
98	2
99	2
100	1
101	2
102	5
103	9
104	31
105	155
106	14
107	2
109	1
110	0
111	1
112	1
113	5
114	4
115	14
116	4
117	3
118	2
119	2
120	1
121	1
122	0
123	0
124	0
125	2
126	8
127	7
128	2
129	1
130	1
131	19
132	6
133	40
134	3
135	1
137	1
138	1
139	19
140	11
141	6
142	1
143	1
145	1
146	0
147	18
149	10
150	15
151	22
152	54
153	16
154	5
155	1
161	2
162	4
163	5
164	5
165	15
166	14
167	18
168	7
169	1
170	1
175	0
177	16
178	13
179	51
180	51
181	15
182	3
183	1
190	1
191	3
192	8
193	351
194	47
195	21
196	7
197	5
198	1
206	0
207	1
208	13
209	51
210	13
211	4
212	0
221	1
222	5
223	1
224	0
225	3
226	5
227	1
228	0
238	26
239	82
240	20
241	6
242	1
253	0
255	184
256	114
257	20
258	2
268	1
283	0
298	5
299	1
