Mass Spectrum: Cinnamic acid, 2-(diethylamino)ethyl ester
Formula: C15H21NO2
CAS: 10369-88-7
Molecular weight: 247
m/z	intensity
38	0
39	4
40	1
41	5
42	32
43	11
44	14
45	0
46	0
50	5
51	18
52	3
53	1
54	2
55	3
56	28
57	9
58	76
59	3
62	0
63	3
64	0
65	1
66	0
67	0
68	1
69	2
70	11
71	22
72	11
73	1
74	2
75	3
76	6
77	49
78	4
79	0
80	0
81	0
82	0
83	0
84	16
86	999
87	61
88	1
89	0
90	0
91	2
92	0
93	0
95	0
96	0
97	0
98	2
99	121
100	9
101	2
102	12
103	54
104	5
105	1
106	0
107	0
109	0
112	0
113	1
114	0
115	3
116	0
117	0
118	0
120	0
127	0
128	1
129	1
130	1
131	35
132	4
133	0
143	0
144	0
145	0
146	1
147	0
148	0
157	0
160	1
161	0
172	0
173	0
174	16
175	2
176	0
188	0
201	0
202	0
217	0
231	0
244	0
245	0
246	1
247	0
