Mass Spectrum: 3,6-Nonadienedioic acid, 5,5-dimethyl-, dimethyl ester
Formula: C13H20O4
CAS: 103620-11-7
Molecular weight: 240
m/z	intensity
24	0
25	1
26	10
27	181
28	100
29	192
30	14
31	28
32	14
33	7
35	0
36	0
37	5
38	21
39	322
40	57
41	436
42	49
43	185
44	11
45	62
46	2
47	1
48	0
49	0
50	19
51	77
52	37
53	175
54	30
55	201
56	14
57	13
58	5
59	516
60	13
61	7
62	6
63	28
64	9
65	138
66	46
67	199
68	32
69	31
70	2
71	23
72	3
73	13
74	340
75	36
76	6
77	263
78	64
79	428
80	54
81	119
82	46
83	16
84	5
85	32
86	2
87	10
88	13
89	9
90	5
91	497
92	145
93	463
94	83
95	58
96	10
97	21
98	9
99	107
100	9
101	6
102	4
103	28
104	12
105	688
106	430
107	999
108	108
109	77
110	9
111	16
112	6
113	5
114	3
115	9
116	3
117	10
118	3
119	67
120	119
121	248
122	41
123	96
124	14
125	40
126	6
127	11
128	1
129	2
130	6
131	16
132	7
133	125
134	84
135	178
136	17
137	25
138	5
139	16
140	6
141	40
142	4
143	2
144	0
145	1
146	1
147	15
148	357
149	126
150	15
151	29
152	9
153	15
154	6
155	1
156	0
157	0
158	1
159	18
160	2
161	52
162	7
163	2
164	2
165	159
166	121
167	63
168	5
169	0
171	0
172	5
173	0
175	2
176	239
177	215
178	24
179	4
180	169
181	22
182	2
183	2
184	0
185	0
190	3
191	1
193	42
194	4
197	2
207	0
208	124
209	19
210	2
222	2
225	13
226	1
240	12
241	1
