Mass Spectrum: Cyclooctanone, 2-methyl-
Formula: C9H16O
CAS: 10363-27-6
Molecular weight: 140
m/z	intensity
25	1
26	18
27	215
29	199
30	5
31	4
33	1
34	3
35	1
37	2
38	8
39	224
40	63
41	731
42	515
43	325
44	26
45	6
46	2
47	1
48	4
49	1
50	7
51	17
52	8
53	64
54	142
55	999
56	606
57	127
58	49
59	5
60	1
61	1
62	1
63	4
64	1
65	13
66	15
67	142
68	141
69	461
70	325
71	56
72	48
73	4
74	1
75	1
76	1
77	12
78	6
79	63
80	40
81	171
82	92
83	385
84	283
85	35
86	5
87	1
91	8
92	3
93	101
94	56
95	16
96	123
97	215
98	851
99	56
100	4
101	1
105	2
106	1
107	36
108	4
109	13
110	3
111	106
112	153
113	13
114	1
115	1
119	1
120	1
121	2
122	15
123	3
124	1
125	18
126	3
127	1
128	1
129	2
133	1
138	1
139	1
140	171
141	23
142	2
