Mass Spectrum: Ecdysterone 22-O-benzoate
Formula: C34H48O8
CAS: 103654-38-2
Molecular weight: 584
m/z	intensity
43	530
51	530
69	520
77	530
81	520
99	520
105	999
109	560
122	810
126	810
152	800
231	240
232	240
249	800
250	840
251	390
300	540
301	560
315	240
327	230
329	240
345	240
353	250
357	240
363	390
375	240
393	240
408	230
411	560
426	840
427	390
429	230
444	230
445	70
462	8
530	3
533	4
548	2
566	1
584	0
