Mass Spectrum: Ecdysterone 2,3-acetonide 22-O-benzoate
Formula: C37H52O8
CAS: 103654-40-6
Molecular weight: 624
m/z	intensity
43	520
59	220
77	230
81	220
99	370
105	999
122	520
126	530
139	370
163	280
267	220
290	220
327	210
385	210
403	460
451	210
466	220
487	40
502	9
573	9
591	9
609	150
624	0
