Mass Spectrum: (1R,4aR,4bS,10aR)-7-Isopropyl-1,4a-dimethyl-1,2,3,4,4a,4b,5,9,10,10a-decahydrophenanthrene-1-carbaldehyde
Formula: C20H30O
CAS: 103654-28-0
Molecular weight: 286
m/z	intensity
27	58
29	76
39	62
41	325
43	492
53	76
55	240
57	47
59	17
65	62
66	19
67	148
69	172
70	34
71	80
72	14
77	106
79	179
80	22
81	227
82	29
83	47
84	293
85	23
87	8
91	999
92	790
93	253
94	42
96	64
97	65
98	15
103	47
104	51
105	393
107	143
109	95
111	138
112	12
114	9
117	241
118	42
119	151
120	43
121	63
122	21
123	248
124	14
131	124
133	760
134	467
135	308
136	114
139	33
143	56
146	285
147	104
159	62
162	39
164	13
179	16
186	26
187	163
188	26
203	12
225	16
226	7
251	8
255	43
256	13
257	32
286	179
287	27
288	8
