Mass Spectrum: Hexanoic acid, undecyl ester
Formula: C17H34O2
CAS: 103677-76-5
Molecular weight: 270
m/z	intensity
26	6
27	23
29	49
30	1
31	1
36	2
37	1
38	2
39	25
40	7
41	150
42	57
43	328
44	15
45	6
50	1
51	2
52	1
53	11
54	26
55	225
56	186
57	237
58	11
59	3
60	46
61	54
62	1
65	2
66	3
67	38
68	69
69	255
70	262
71	277
72	15
73	65
74	8
75	8
77	2
78	1
79	6
80	5
81	23
82	120
83	281
84	220
85	95
86	6
87	53
88	4
89	20
91	2
92	2
93	3
95	10
96	58
97	311
98	148
99	620
100	35
101	16
102	3
109	3
110	23
111	163
112	87
113	12
114	7
115	17
116	120
117	999
118	88
119	8
123	1
124	11
125	85
126	178
127	22
128	1
129	8
130	6
134	3
135	1
139	1
141	2
142	1
143	7
144	1
152	4
153	1
154	328
155	39
156	3
157	10
158	1
167	1
169	6
170	1
171	5
172	15
173	1
181	1
184	2
185	2
186	1
198	1
199	38
200	5
214	5
215	1
227	4
270	2
271	2
