Mass Spectrum: 3-Aminobenzoic acid, 2-diethylaminoethyl ester
Formula: C13H20N2O2
CAS: 10369-94-5
Molecular weight: 236
m/z	intensity
26	1
27	10
28	17
29	29
30	60
31	1
38	2
39	14
40	1
41	10
42	34
43	8
44	19
45	1
46	1
50	1
51	2
52	4
53	2
54	5
55	8
56	39
57	12
58	95
59	4
60	1
62	1
63	6
64	8
65	54
66	9
67	1
68	1
69	4
70	19
71	35
72	12
73	1
74	1
75	1
76	1
77	3
78	1
79	1
80	1
81	1
82	2
83	1
84	36
85	6
86	999
87	72
88	3
89	0
90	2
91	13
92	82
93	12
94	2
95	1
96	1
97	2
98	4
99	201
100	32
101	1
104	1
105	2
106	2
107	0
109	1
110	1
111	2
113	0
114	1
115	1
116	1
117	1
118	2
119	9
120	94
121	11
122	1
123	0
133	0
134	0
135	0
136	1
137	18
138	1
149	9
150	1
163	5
164	72
165	10
166	1
207	0
221	8
222	1
234	1
235	2
236	3
237	2
