Mass Spectrum: Anthraergostatrienol
Formula: C28H44O
CAS: 103673-66-1
Molecular weight: 396
m/z	intensity
41	305
43	999
44	29
47	7
49	4
51	1
53	29
55	335
57	163
58	2
65	5
67	39
69	151
71	125
72	2
77	17
79	28
81	39
83	79
84	20
85	22
86	12
89	2
91	42
93	21
95	34
97	54
103	7
105	22
107	12
109	16
111	15
115	25
116	4
117	16
119	13
121	2
122	2
123	6
125	2
127	9
128	42
129	38
130	10
131	16
132	2
133	14
141	68
142	56
143	44
144	11
145	27
147	11
152	12
153	59
154	20
155	100
156	59
157	100
158	18
159	13
165	50
166	29
167	73
168	53
169	73
170	30
171	43
172	3
173	51
174	6
175	31
178	6
179	81
180	39
181	81
182	58
183	94
184	34
185	25
186	10
187	7
189	9
191	13
192	11
193	39
194	54
195	105
196	23
197	704
198	127
199	27
201	42
202	7
203	2
205	10
206	2
207	29
209	300
210	78
211	69
212	19
213	25
214	38
215	265
216	42
217	5
219	5
220	4
221	24
222	3
223	55
224	143
225	81
227	386
228	98
229	27
230	2
235	20
236	24
237	28
238	9
239	7
241	37
242	99
243	19
249	11
250	3
251	433
252	91
253	24
254	2
255	2
263	2
267	9
269	16
279	15
280	2
281	2
352	4
353	12
363	59
364	16
377	4
378	216
379	71
380	10
381	7
395	12
396	547
397	156
398	22
