Mass Spectrum: 3-Octenedioic acid, 5-isopropenyl-, dimethyl ester
Formula: C13H20O4
CAS: 103620-12-8
Molecular weight: 240
m/z	intensity
23	0
25	0
26	16
27	214
28	30
29	143
30	12
31	35
33	8
34	0
35	0
36	0
37	5
38	19
39	338
40	56
41	396
42	56
43	168
44	12
45	66
46	4
47	1
48	0
49	1
50	24
51	89
52	56
53	188
54	32
55	228
56	18
57	29
58	6
59	406
60	14
61	8
62	7
63	26
64	9
65	120
66	46
67	143
68	25
69	28
70	2
71	22
72	4
73	7
74	143
75	31
76	8
77	392
78	84
79	627
80	77
81	112
82	15
83	17
84	9
85	20
86	3
87	22
88	77
89	14
90	5
91	433
92	170
93	999
94	130
95	61
96	12
97	30
98	11
99	22
100	5
101	10
102	3
103	16
104	9
105	196
106	354
107	635
108	69
109	33
110	6
111	91
112	12
113	2
114	1
115	6
116	3
117	11
118	2
119	39
120	135
121	203
122	37
123	19
124	7
125	22
126	4
127	2
128	1
129	2
130	23
131	38
132	6
133	56
134	77
135	137
136	15
137	12
138	4
139	6
140	3
141	4
142	0
143	1
144	1
145	1
146	2
147	19
148	471
149	164
150	22
151	14
152	5
153	13
154	4
155	1
156	0
157	1
158	2
159	18
160	2
161	48
162	6
163	2
164	1
165	18
166	20
167	17
168	2
170	0
171	0
172	0
173	1
174	0
175	3
176	303
177	248
178	30
179	4
180	101
181	16
182	1
183	0
185	0
190	1
191	3
192	0
193	8
194	1
195	0
197	26
198	3
199	0
200	0
203	0
204	0
205	0
207	1
208	259
209	73
210	8
211	0
222	3
225	3
226	0
240	5
241	0
