Mass Spectrum: Cyclobutanone, 2-ethyl-
Formula: C6H10O
CAS: 10374-14-8
Molecular weight: 98
m/z	intensity
27	420
28	240
29	200
39	440
40	100
41	999
42	780
43	240
44	30
53	70
54	30
55	960
56	520
57	20
69	80
70	720
71	30
80	60
83	30
98	320
99	20
