Mass Spectrum: 1,1-(Diethylcarbamoyl)succinimide
Formula: C9H14N2O3
CAS: 103744-99-6
Molecular weight: 198
m/z	intensity
41	21
42	154
43	31
44	164
55	338
56	484
57	33
58	723
59	23
70	269
71	528
72	999
73	41
83	10
84	10
98	9
99	21
100	152
126	138
127	10
183	12
198	49
