Mass Spectrum: Thiomorpholine-3-carboxylic acid amide
Formula: C5H10N2OS
CAS: 103742-31-0
Molecular weight: 146
m/z	intensity
33	10
34	15
35	10
36	2
37	2
38	5
39	27
40	65
41	143
42	197
43	135
44	657
45	406
46	168
47	65
48	18
49	5
50	3
51	4
52	11
53	14
54	75
55	201
56	381
57	206
58	63
59	84
60	29
61	32
62	5
63	2
64	2
65	1
66	1
67	11
68	25
69	14
70	49
72	276
73	73
74	279
75	56
76	17
77	19
78	4
79	2
80	2
81	2
82	18
83	15
84	14
85	26
86	30
87	14
88	19
89	6
90	7
91	10
92	2
93	1
94	1
95	1
96	13
97	2
99	137
100	72
102	999
103	52
104	44
105	5
106	9
111	3
113	127
114	11
115	2
117	39
118	7
119	4
128	4
129	19
130	4
131	3
146	173
147	11
148	8
149	1
