Mass Spectrum: Silane, trimethyl(1,1-diphenylethyl)-
Formula: C17H22Si
CAS: 103716-61-6
Molecular weight: 254
m/z	intensity
25	0
26	1
27	0
28	4
29	0
33	0
34	0
35	0
38	0
39	6
40	0
41	0
42	2
43	24
44	13
45	67
46	6
47	3
48	0
49	0
50	3
51	18
52	3
53	7
54	0
55	5
56	0
57	7
58	12
59	11
60	1
61	0
62	2
63	11
64	2
65	7
66	1
67	2
68	1
69	2
70	2
71	3
72	12
73	999
74	95
75	39
76	10
77	89
78	12
79	5
80	1
81	1
82	1
83	2
84	0
85	0
86	0
87	2
88	4
89	9
90	1
91	9
92	1
93	3
95	0
96	0
98	1
99	1
100	0
101	5
102	15
103	119
104	12
105	16
106	2
107	9
108	1
109	3
110	1
112	0
113	3
114	1
115	18
116	2
117	2
118	0
119	5
120	3
121	9
122	1
123	0
124	0
125	0
126	4
127	4
128	6
129	4
130	2
131	4
132	1
133	2
134	1
135	133
136	18
137	5
138	1
139	12
140	0
141	6
142	2
143	2
145	4
146	0
147	1
148	0
149	2
150	3
151	11
152	24
153	13
154	3
155	1
157	1
159	2
160	0
161	1
162	3
163	9
164	11
165	149
166	77
167	13
168	1
171	0
172	0
173	1
174	1
175	2
176	14
177	12
178	46
179	46
180	160
181	127
182	18
183	4
186	0
189	1
191	1
192	0
193	1
194	0
195	2
196	1
197	16
198	3
199	1
203	0
206	0
207	0
208	0
209	0
210	0
213	0
217	0
221	1
222	0
223	1
224	0
229	0
237	2
239	24
240	7
241	2
254	151
255	37
256	9
257	1
