Mass Spectrum: N-(.alpha.-Methoxybenzyl)benzamide
Formula: C15H15NO2
CAS: 10387-93-6
Molecular weight: 241
m/z	intensity
34	3
36	0
37	4
38	16
39	46
40	24
41	9
42	3
43	8
44	15
45	1
47	0
49	4
50	70
51	210
52	31
53	6
54	1
55	3
56	1
57	3
58	5
59	0
60	2
61	1
62	4
63	14
64	5
65	13
66	5
67	1
68	0
70	2
71	0
73	0
74	18
75	16
76	40
77	590
78	79
79	8
80	3
81	2
82	2
83	1
84	0
87	1
88	0
89	9
91	70
92	9
93	10
94	1
95	3
96	0
98	0
102	1
103	9
104	92
105	999
106	84
107	8
108	0
109	0
118	0
119	3
121	206
122	20
123	6
124	0
125	0
127	4
128	4
130	0
131	0
132	2
133	0
134	3
135	1
136	3
137	0
139	0
141	0
149	0
151	0
152	2
153	1
154	0
164	4
165	1
166	0
171	0
180	1
181	1
196	0
198	0
208	0
209	22
210	23
211	10
212	0
223	0
225	0
226	189
227	31
228	3
240	0
241	0
