Mass Spectrum: Caffeine, 8-bromo-
Formula: C8H9BrN4O2
CAS: 10381-82-5
Molecular weight: 272
m/z	intensity
51	37
52	10
53	33
54	45
55	506
56	86
57	136
58	6
65	2
66	95
67	999
68	59
69	28
70	35
71	6
79	8
80	17
81	128
82	363
83	42
84	2
85	69
86	2
107	10
108	380
109	116
110	9
111	1
135	6
136	7
137	3
186	1
187	276
188	22
189	275
190	18
191	11
193	112
194	6
214	7
215	40
216	12
217	41
218	1
243	9
244	5
245	11
270	5
271	7
272	649
273	97
274	673
275	42
