Mass Spectrum: 1,7,7-Trimethylbicyclo[2.2.1]heptan-2-ol
Formula: C10H18O
CAS: 10385-78-1
Molecular weight: 154
m/z	intensity
26	4
27	85
28	6
29	70
30	3
31	11
36	2
37	1
38	4
39	111
40	19
41	238
42	26
43	138
44	35
45	13
50	5
51	19
52	11
53	71
54	14
55	160
56	24
57	53
58	5
59	13
60	2
62	2
63	5
64	2
65	24
66	9
67	109
68	25
69	119
70	42
71	105
72	42
73	4
75	2
77	45
78	11
79	55
80	15
81	56
82	75
83	65
84	58
85	15
86	3
90	1
91	29
92	39
93	111
94	21
95	999
96	102
97	20
98	8
99	16
100	3
103	2
104	2
105	17
106	5
107	20
108	36
109	40
110	272
111	56
112	5
113	10
114	2
119	3
120	2
121	77
122	8
123	8
124	2
125	5
126	2
136	74
137	10
138	2
139	96
140	12
141	2
152	3
153	1
154	9
155	2
