Mass Spectrum: 4-Imidazolidineacetic acid, 3-benzoyl-2-(1,1-dimethylethyl)-1,4-dimethyl-5-oxo-, (2S-cis)-
Formula: C18H24N2O4
CAS: 103825-49-6
Molecular weight: 332
m/z	intensity
26	14
27	20
28	3
29	10
31	2
39	10
40	4
41	39
42	92
43	8
44	3
45	4
50	8
51	31
52	3
53	3
54	8
55	9
56	6
57	27
58	4
59	5
60	2
68	7
69	8
70	3
71	2
74	3
75	2
76	12
77	278
78	22
82	5
83	6
85	7
86	2
96	2
97	3
98	5
99	2
100	2
102	2
103	2
104	8
105	999
106	78
107	5
110	3
111	22
112	4
121	2
125	76
126	11
127	5
136	2
139	10
142	3
149	3
153	201
154	18
155	2
161	3
163	2
165	2
167	9
257	4
261	15
275	200
276	35
277	5
289	5
317	3
