Mass Spectrum: Ethyl N-isopropyl-3-phenylpropanimidate
Formula: C14H21NO
CAS: 103818-64-0
Molecular weight: 219
m/z	intensity
39	250
40	80
41	370
42	220
43	640
44	840
45	100
46	50
50	40
51	110
57	30
58	999
59	30
60	30
63	30
65	140
73	50
77	80
78	90
79	40
86	90
91	680
100	100
103	40
104	90
105	150
106	30
131	60
132	60
190	30
191	30
219	50
