Mass Spectrum: (+-)-trans-4-Isopentyl-5-methyloxazolidinone
Formula: C9H17NO2
CAS: 103866-60-0
Molecular weight: 171
m/z	intensity
39	110
41	210
43	150
55	90
56	430
70	110
95	90
99	110
100	999
171	120
