Mass Spectrum: Methyl N-cyclohexyl-3-phenylpropanimidate
Formula: C16H23NO
CAS: 103818-66-2
Molecular weight: 245
m/z	intensity
39	400
41	940
42	240
43	200
44	120
51	180
53	140
54	220
55	660
56	220
57	120
58	200
65	220
67	180
70	120
77	180
78	70
79	90
81	110
82	70
83	230
91	999
98	860
104	90
105	180
117	50
131	70
154	70
245	50
