Mass Spectrum: Methyl N-isopropyl-3,3,3-trimethoxypropanimidate
Formula: C10H21NO4
CAS: 103818-69-5
Molecular weight: 219
m/z	intensity
39	180
40	80
41	250
42	370
43	480
44	210
56	90
57	110
58	999
68	230
69	160
74	70
75	80
84	100
100	290
126	270
156	110
