Mass Spectrum: (+-)-cis-4-Isopentyl-5-methyloxazolidinone
Formula: C9H17NO2
CAS: 103845-48-3
Molecular weight: 171
m/z	intensity
39	100
41	190
43	150
56	410
70	100
71	70
99	90
100	999
101	70
171	100
