Mass Spectrum: Eseroline, dimethylcarbamate(ester)
Formula: C16H23N3O2
CAS: 103877-07-2
Molecular weight: 289
m/z	intensity
42	373
43	60
44	134
45	11
46	3
48	0
49	3
50	6
51	20
52	13
53	17
54	11
55	24
56	80
57	36
58	27
59	2
60	2
61	0
62	4
63	17
64	8
65	28
66	21
67	20
68	19
69	6
70	15
72	999
73	40
74	5
75	4
76	6
77	36
78	20
79	16
80	17
81	24
82	19
83	5
84	4
85	3
86	3
87	3
88	2
89	17
90	11
91	26
92	11
93	9
94	18
95	6
96	59
97	13
98	2
99	1
100	1
101	5
102	9
103	16
104	10
105	9
106	13
107	9
108	5
109	2
110	1
111	2
113	1
114	2
115	24
116	15
117	31
118	19
119	7
120	7
121	4
122	6
123	2
124	6
125	2
127	4
128	7
129	18
130	34
131	53
132	115
133	18
134	5
135	1
136	2
140	1
141	2
142	8
143	14
144	29
145	34
146	26
147	7
148	4
149	2
150	0
152	0
154	2
155	2
156	7
157	13
158	24
159	27
160	302
161	47
162	10
163	2
168	2
169	6
170	15
171	7
172	7
173	16
174	54
175	15
176	8
177	2
178	0
183	1
184	2
185	5
186	18
187	19
188	24
189	6
190	3
193	4
195	0
199	2
200	2
201	11
202	6
203	5
204	2
207	1
210	0
212	0
214	0
215	2
216	0
217	298
218	54
219	6
221	1
223	0
229	1
230	1
231	41
232	46
233	18
234	5
235	1
237	0
239	0
243	0
244	0
245	79
246	16
247	7
248	7
249	2
257	2
258	1
259	9
260	3
261	2
262	1
263	0
266	0
272	0
273	2
274	10
275	5
276	1
287	0
288	5
289	278
290	52
291	5
