Mass Spectrum: N-Methyl-4-phenyl-butyramide
Formula: C11H13NO2
CAS: 103859-83-2
Molecular weight: 191
m/z	intensity
12	2
13	2
14	15
15	170
16	5
25	2
26	54
27	258
28	328
29	79
30	109
31	32
32	127
33	2
37	7
38	24
39	105
40	13
41	26
42	94
43	41
44	41
45	8
50	132
51	369
52	63
53	34
54	17
55	269
56	79
57	37
58	372
59	13
60	4
61	3
62	15
63	43
64	12
65	47
66	34
67	12
68	54
69	14
70	22
71	6
73	15
74	33
75	32
76	62
77	698
78	600
79	90
81	25
83	2
84	9
85	9
86	225
87	16
88	4
89	23
90	11
91	90
92	21
93	3
94	2
96	5
97	2
98	2
99	1
101	2
102	12
103	49
105	999
106	88
107	16
108	2
112	2
114	765
115	110
116	25
117	54
118	78
119	10
120	14
121	2
127	2
128	2
129	2
130	7
131	11
133	129
134	105
135	24
136	61
137	6
143	2
144	9
145	3
146	9
147	3
148	4
159	2
160	11
161	44
162	21
163	19
164	2
172	5
173	7
174	118
175	15
176	1
190	20
191	161
192	27
193	3
