Mass Spectrum: Butanoic acid, 4-(phenylmethoxy)-
Formula: C11H14O3
CAS: 10385-30-5
Molecular weight: 194
m/z	intensity
38	10
39	70
40	10
41	60
42	20
43	60
44	10
45	50
50	10
51	60
52	20
55	10
57	10
60	40
62	10
63	30
64	10
65	140
66	10
69	10
70	20
73	10
74	10
75	10
77	110
78	30
79	180
80	10
85	240
87	70
88	10
89	30
90	20
91	999
92	200
93	10
103	30
104	20
105	70
106	30
107	880
108	180
109	10
115	1
116	1
117	12
118	1
119	2
120	2
122	12
123	1
131	1
132	8
133	1
135	1
145	2
147	30
148	14
149	2
159	2
160	5
161	1
165	1
166	7
167	1
175	1
176	27
177	4
179	5
180	1
194	40
195	6
196	1
