Mass Spectrum: Pregn-5,7-diene-3-ol-20-one
Formula: C21H30O2
CAS: 103957-01-3
Molecular weight: 314
m/z	intensity
41	92
43	999
44	28
45	5
49	2
51	7
53	37
55	64
57	25
58	2
59	5
63	1
65	13
66	3
67	34
68	1
69	14
71	46
72	1
77	41
78	12
79	57
81	79
83	16
84	2
85	65
86	3
89	4
91	81
92	8
93	33
94	5
95	31
96	3
97	17
98	1
99	4
102	2
103	12
104	4
105	65
106	10
107	37
108	3
109	17
111	3
112	0
113	3
115	42
116	16
117	37
118	20
119	44
120	7
121	8
122	2
123	6
124	3
125	7
127	12
128	36
129	38
130	14
131	41
132	13
133	22
134	2
135	6
136	0
137	3
138	0
139	4
141	50
142	31
143	160
144	19
145	43
146	3
147	11
148	1
149	4
150	0
151	5
152	8
153	15
154	8
155	24
156	13
157	44
158	29
159	53
160	8
161	8
162	0
163	1
165	12
166	4
167	12
168	8
169	33
170	14
171	30
172	6
173	8
174	0
175	8
176	3
177	10
178	4
179	6
180	2
181	10
182	6
183	22
184	8
185	16
186	7
187	7
188	2
189	4
191	2
193	3
194	2
195	12
196	7
197	24
198	7
199	11
200	2
201	2
202	2
203	0
205	2
207	5
208	0
209	7
211	41
212	10
213	12
214	2
215	3
216	0
217	1
218	2
221	4
222	2
223	20
224	7
225	12
226	12
227	4
228	0
229	6
230	1
231	4
232	0
235	1
236	0
237	9
238	7
239	10
240	2
241	9
242	3
243	3
244	6
245	2
249	0
251	3
252	0
253	25
255	140
256	41
257	9
258	1
263	6
264	1
265	0
267	4
268	3
269	2
270	1
271	7
272	1
278	2
279	3
281	211
282	46
283	7
285	1
294	0
295	5
296	20
297	13
298	1
299	12
300	2
301	0
312	2
313	2
314	248
315	46
316	8
317	0
