Mass Spectrum: 2-Naphthoic acid, 1-nitro-
Formula: C11H7NO4
CAS: 103987-83-3
Molecular weight: 217
m/z	intensity
37	2
38	1
39	333
40	22
41	85
42	35
43	600
44	55
45	60
46	31
47	2
48	3
49	18
50	143
51	201
52	43
53	119
54	101
55	78
56	18
57	54
58	10
59	39
60	33
61	80
62	305
63	812
64	92
65	176
66	22
67	24
68	10
69	49
70	13
71	31
72	14
73	35
74	155
75	168
76	145
77	309
78	53
79	28
80	7
81	22
82	25
83	32
84	13
85	46
86	109
87	159
88	166
89	883
90	121
91	79
92	22
93	18
94	6
95	15
96	7
97	20
98	27
99	31
100	23
101	48
102	73
103	221
104	147
105	194
106	23
107	11
108	4
109	12
110	11
111	13
112	7
113	74
114	101
115	999
116	279
117	202
118	62
119	48
120	21
121	10
122	9
123	14
124	3
125	15
126	10
127	15
128	24
129	34
130	35
131	157
132	53
133	54
134	22
135	16
136	5
137	5
138	3
139	11
140	6
141	11
142	26
143	247
144	155
145	53
146	32
147	36
148	13
149	36
150	6
151	5
152	2
153	4
154	4
155	7
156	6
157	12
158	13
159	204
160	60
161	42
162	11
163	31
164	6
165	3
166	1
167	5
168	3
169	4
170	10
171	195
172	297
173	45
174	8
175	21
176	23
177	12
178	8
179	3
180	2
181	2
183	2
184	3
185	5
186	8
187	92
188	43
189	18
190	9
191	12
192	14
193	8
194	3
195	3
196	1
197	2
198	5
199	5
200	196
201	30
202	8
203	5
204	0
215	3
216	5
217	459
218	61
219	11
