Mass Spectrum: 2-Cycloheptylidenepropanedinitrile
Formula: C10H12N2
CAS: 10394-94-2
Molecular weight: 160
m/z	intensity
25	0
26	53
27	501
28	28
29	280
30	16
36	0
37	23
38	51
39	548
40	10
41	999
42	137
43	118
44	5
45	1
46	0
47	0
49	3
50	61
51	123
52	86
53	103
54	72
55	519
56	560
57	28
58	0
59	0
61	6
62	23
63	83
64	117
65	99
66	71
67	290
68	126
69	863
70	41
71	0
72	0
73	0
74	5
75	29
76	66
77	133
78	123
79	84
80	64
81	56
82	111
83	7
86	1
87	4
88	12
89	26
90	39
91	154
92	149
93	85
94	93
95	79
96	6
97	0
99	1
100	3
101	5
102	22
103	29
104	84
105	169
106	157
107	54
108	10
109	0
113	0
114	4
115	12
116	33
117	28
118	146
119	122
120	96
121	8
122	0
127	0
128	18
129	8
130	11
131	118
132	298
133	89
134	13
135	1
140	0
141	1
142	15
143	21
144	11
145	270
146	29
147	1
155	0
157	4
158	2
159	198
160	307
161	44
162	3
