Mass Spectrum: Benzamide, 4-methyl-N-[4-(4-methyylphenyl)-2-thiazolyl]-
Formula: C18H16N2OS
CAS: 103966-02-5
Molecular weight: 308
m/z	intensity
33	0
36	1
38	3
39	20
41	7
42	1
43	2
45	16
46	0
47	0
50	5
51	12
52	2
53	1
55	0
57	0
58	0
59	0
60	0
62	8
63	24
65	92
66	3
67	0
69	4
70	1
71	1
72	0
74	3
75	4
76	4
77	14
78	3
79	0
81	1
82	1
83	0
84	0
85	0
86	1
87	3
89	49
91	339
92	18
93	3
94	2
95	2
97	1
98	0
99	0
101	2
102	6
103	12
104	4
105	10
106	1
107	0
108	1
109	0
115	16
116	14
117	8
119	999
120	71
121	9
122	1
123	1
124	0
126	0
127	0
128	1
129	2
130	1
131	1
132	1
133	2
134	5
135	9
136	1
137	0
141	0
143	5
144	1
145	7
147	93
148	74
149	9
150	3
151	0
153	0
154	0
155	0
157	0
159	1
160	4
161	1
162	6
163	1
164	0
165	0
171	0
172	1
174	17
175	2
176	1
177	0
187	5
189	22
190	55
191	7
192	2
193	0
215	0
216	0
217	0
218	0
220	0
221	0
265	0
266	0
275	0
278	0
279	5
280	9
281	1
282	0
283	0
284	0
293	0
294	6
295	1
296	0
304	0
305	1
306	2
308	508
309	106
310	32
311	5
312	0
