Mass Spectrum: Butyl 2-butoxyacetate
Formula: C10H20O3
CAS: 10397-22-5
Molecular weight: 188
m/z	intensity
14	1
15	5
16	1
19	1
26	7
27	90
28	46
29	296
30	11
31	39
33	1
37	1
38	2
39	65
40	10
41	376
42	64
43	52
44	34
45	23
46	1
49	8
50	1
51	2
52	1
53	10
54	4
55	80
56	586
57	999
58	48
59	10
60	293
61	156
62	4
63	1
69	6
70	2
71	13
72	4
73	26
74	3
75	2
76	6
77	22
78	1
85	5
86	3
87	127
88	11
89	58
90	2
91	1
101	27
102	2
103	4
114	1
115	1
116	14
117	7
118	1
131	1
132	2
133	1
145	1
159	1
