Mass Spectrum: 1,3-Propanediol, 2-dodecyl
Formula: C15H32O2
CAS: 10395-09-2
Molecular weight: 244
m/z	intensity
26	8
27	215
28	36
29	463
30	16
31	276
33	2
38	2
39	170
40	36
41	999
42	215
43	932
44	49
45	37
47	3
49	13
51	7
52	4
53	78
54	173
55	916
56	324
57	484
58	79
59	15
61	2
65	8
66	17
67	152
68	151
69	331
70	179
71	193
72	25
73	6
74	3
77	9
79	15
80	11
81	148
82	203
83	275
84	118
85	64
86	6
91	3
93	5
94	5
95	90
96	132
97	196
98	67
99	15
109	35
110	39
111	81
112	42
113	8
123	14
124	18
125	37
126	26
127	4
137	8
138	11
139	14
140	15
141	2
151	3
152	8
153	6
154	11
166	5
167	3
168	25
169	5
180	7
196	58
197	9
208	5
226	7
244	1
