Mass Spectrum: 1,3-Dioxolane-4-methanol, 2-(2-iodoethyl)-
Formula: C6H11IO3
CAS: 104-08-5
Molecular weight: 258
m/z	intensity
15	25
19	18
26	18
27	125
29	343
30	36
31	325
32	9
37	4
38	16
39	249
40	62
41	710
42	87
43	296
44	89
45	469
46	13
47	8
50	4
53	12
54	6
55	72
56	17
57	999
58	80
59	96
60	7
61	18
69	17
70	11
71	251
72	16
73	92
74	93
75	473
76	18
77	2
82	3
83	26
85	88
86	8
87	222
88	12
89	7
99	162
100	11
101	41
102	2
103	8
113	23
116	6
117	74
118	5
127	83
128	31
129	11
130	12
131	305
132	19
133	4
140	3
141	40
142	21
153	16
155	26
167	22
168	10
169	112
170	16
171	42
183	8
184	5
185	18
197	2
199	7
226	37
227	184
228	11
258	45
259	1
