Mass Spectrum: Urocanic acid
Formula: C6H6N2O2
CAS: 104-98-3
Molecular weight: 138
m/z	intensity
12	1
13	1
14	2
15	9
16	1
24	1
25	6
26	19
27	42
28	90
29	28
30	2
36	9
37	71
38	210
39	511
40	120
41	114
42	11
43	5
44	23
45	48
46	22
47	9
48	1
49	4
50	13
51	18
52	41
53	15
54	44
55	74
56	9
57	6
60	7
62	4
63	11
64	27
65	147
66	206
67	56
68	239
69	14
70	3
71	2
79	1
80	6
81	26
82	11
83	9
84	15
85	2
91	1
92	194
93	608
94	999
95	68
96	3
97	3
98	1
104	1
109	17
110	16
111	4
119	7
120	332
121	125
122	9
137	2
138	630
139	49
140	5
