Mass Spectrum: n-Dodecylpyridinium chloride
Formula: C17H30ClN
CAS: 104-74-5
Molecular weight: 283
m/z	intensity
12	1
14	1
15	3
24	1
25	4
26	47
27	147
28	38
29	258
30	7
35	4
36	31
37	11
38	17
39	137
40	19
41	517
42	149
43	999
44	33
48	4
49	23
50	100
51	158
52	385
53	74
54	39
55	523
56	209
57	913
58	41
60	1
61	2
62	3
63	20
64	2
65	8
66	4
67	39
68	35
69	433
70	146
71	368
72	21
74	2
75	14
76	9
77	20
78	73
79	565
80	64
81	17
82	30
83	205
84	89
85	174
86	11
89	2
90	4
91	838
92	41
93	274
94	19
95	9
96	11
97	118
98	43
99	14
100	1
103	2
104	19
105	221
106	30
107	76
108	7
109	3
110	4
111	41
112	18
113	8
114	1
117	2
118	8
119	49
120	8
121	14
122	3
123	1
124	1
125	9
126	8
127	4
128	1
129	1
130	2
131	2
132	8
133	17
134	4
135	6
136	2
139	2
140	6
141	1
144	1
146	5
147	9
148	3
149	4
150	1
155	2
156	5
157	1
160	3
161	8
162	3
163	3
164	1
168	6
169	1
170	2
171	1
174	3
175	5
176	2
177	2
181	3
183	3
184	1
190	1
192	1
195	1
202	1
204	9
205	1
206	2
218	1
220	1
232	2
234	1
246	3
247	2
248	77
249	24
250	4
