Mass Spectrum: 1-Propanamine, 3-chloro-N,N-diethyl-
Formula: C7H16ClN
CAS: 104-77-8
Molecular weight: 149
m/z	intensity
26	11
27	88
28	103
29	98
30	227
31	3
35	25
36	155
37	8
38	49
39	32
40	6
41	106
42	114
43	19
44	75
49	13
51	5
52	3
54	16
55	8
56	65
57	18
58	262
59	10
68	5
70	16
71	8
72	200
73	10
75	4
77	8
79	3
84	16
85	4
86	999
87	62
92	3
98	14
106	4
112	12
118	4
120	6
132	3
134	166
135	11
136	52
137	4
148	13
149	64
150	9
151	20
