Mass Spectrum: Benzenamine, 4-methoxy-
Formula: C7H9NO
CAS: 104-94-9
Molecular weight: 123
m/z	intensity
14	2
15	17
25	1
26	14
27	36
28	55
29	6
30	5
31	1
37	9
38	21
39	67
40	11
41	34
42	7
43	1
44	1
45	1
46	2
47	8
49	3
50	17
51	32
52	104
53	143
54	37
55	3
60	1
61	25
62	16
63	31
64	16
65	66
66	12
67	5
68	2
74	4
75	3
76	3
77	6
78	11
79	19
80	368
81	24
90	3
91	5
92	19
93	4
94	4
95	22
96	1
106	2
107	5
108	999
109	71
110	4
120	1
122	27
123	804
124	68
125	4
