Mass Spectrum: 4-Nonylphenol
Formula: C15H24O
CAS: 104-40-5
Molecular weight: 220
m/z	intensity
55	9
65	6
77	38
78	10
79	8
91	10
94	12
107	999
108	98
109	8
120	15
121	7
133	7
220	189
221	32
