Mass Spectrum: Pyridine, 5-ethyl-2-methyl-
Formula: C8H11N
CAS: 104-90-5
Molecular weight: 121
m/z	intensity
15	8
26	8
27	57
28	16
29	8
30	3
37	6
38	14
39	97
40	11
41	23
42	16
43	3
44	1
45	1
46	1
49	2
50	27
51	62
52	38
53	54
54	10
55	3
56	1
58	4
59	2
60	2
61	4
62	8
63	22
64	10
65	55
66	16
67	8
68	2
74	3
75	4
76	4
77	162
78	46
79	152
80	20
81	2
86	1
87	1
89	5
90	2
91	28
92	19
93	45
94	9
103	1
104	9
105	7
106	999
107	80
108	3
117	2
118	8
119	9
120	170
121	580
122	53
123	2
