Mass Spectrum: 1,2-Bis-(2-diisopropylaminoethyl) ethane
Formula: C14H32N2
CAS: 104017-39-2
Molecular weight: 228
m/z	intensity
39	34
41	191
42	125
43	253
44	133
56	97
58	30
70	102
71	23
72	386
84	36
85	13
86	27
98	12
112	9
114	999
115	78
128	31
155	7
169	5
228	8
