Mass Spectrum: Eprazinone
Formula: C24H32N2O2
CAS: 10402-90-1
Molecular weight: 380
m/z	intensity
15	2
26	2
27	11
28	22
29	29
30	10
31	3
37	2
38	4
39	28
40	4
41	43
42	102
43	37
44	44
45	3
49	2
50	27
51	86
52	11
53	5
54	16
55	68
56	191
57	46
58	34
59	5
61	1
62	3
63	7
64	2
65	8
66	1
67	3
68	18
69	24
70	144
71	16
72	6
73	2
74	10
75	7
76	15
77	348
78	47
79	122
80	11
81	6
82	28
83	37
84	32
85	9
86	2
87	1
88	1
89	6
90	3
91	47
92	5
93	2
94	2
95	4
96	11
97	70
98	66
99	520
100	33
101	6
102	5
103	42
104	34
105	999
106	81
107	68
108	6
109	3
111	356
112	44
113	13
114	2
115	17
116	4
117	30
118	56
119	8
120	2
121	9
122	1
123	2
124	5
125	5
126	1
127	2
128	4
129	5
130	12
131	11
132	5
133	7
134	5
135	25
136	3
137	1
139	97
140	12
141	1
142	1
143	2
144	6
145	13
146	65
147	16
148	3
149	1
156	1
157	1
158	3
159	2
160	3
161	1
162	2
168	1
169	1
170	1
171	1
172	1
173	1
174	2
175	1
176	1
182	1
184	1
185	1
186	1
187	2
188	4
189	4
190	2
196	1
199	1
200	1
201	11
202	3
203	2
215	1
217	1
225	4
226	1
227	1
229	2
230	1
231	1
232	1
243	7
245	799
246	134
247	19
248	2
275	1
334	1
335	2
