Mass Spectrum: 3-Benzoyl-2-t-butyl-4-isopropyl-4-methyl-oxazolidin-5-one
Formula: C18H25NO3
CAS: 104057-75-2
Molecular weight: 303
m/z	intensity
26	2
27	18
28	12
29	33
30	1
37	0
38	1
39	19
40	3
41	74
42	28
43	41
44	5
45	1
46	0
50	7
51	32
52	4
53	7
54	4
55	40
56	13
57	58
58	2
59	0
60	0
61	0
62	0
63	1
64	0
65	2
66	0
67	7
68	4
69	33
70	17
71	18
72	1
73	0
74	1
75	2
76	9
77	198
78	17
79	3
80	1
81	5
82	6
83	14
84	5
85	9
86	5
87	3
88	0
89	1
90	0
91	6
92	1
93	1
94	1
95	4
96	10
97	9
98	7
99	3
100	0
102	0
103	1
104	7
105	999
106	80
107	5
108	1
109	2
110	2
111	4
112	2
113	2
114	1
115	3
116	1
117	3
118	1
119	3
120	1
121	0
122	3
123	1
124	9
125	2
126	0
127	1
128	2
129	1
130	1
131	2
132	1
133	2
134	0
135	0
136	0
137	1
138	2
139	5
140	1
141	5
142	3
143	1
144	2
153	2
154	12
155	3
156	2
157	0
158	0
159	2
160	2
161	0
162	0
163	0
165	0
166	0
167	0
168	0
169	1
170	1
171	0
172	3
173	1
174	3
175	0
176	1
177	0
180	0
181	0
182	0
183	0
186	0
187	1
188	1
189	1
190	2
191	0
192	0
193	0
201	0
202	2
203	0
204	0
205	1
206	0
208	0
218	0
228	2
229	0
240	0
243	1
244	0
246	55
247	8
248	0
260	2
261	0
288	1
303	0
