Mass Spectrum: Cyclohexane, (heptylthio)-
Formula: C13H26S
CAS: 10406-95-8
Molecular weight: 214
m/z	intensity
25	1
26	12
27	47
28	41
29	254
30	5
32	3
34	4
35	7
36	1
37	4
38	5
39	133
40	19
41	615
42	80
43	219
44	13
45	78
46	16
47	84
48	4
49	6
50	6
51	12
52	7
53	72
54	190
55	962
56	142
57	421
58	30
59	28
60	58
61	106
62	7
63	7
64	0
65	12
66	15
67	775
68	74
69	101
70	105
71	28
72	8
73	16
74	11
75	15
76	14
77	16
78	9
79	37
80	14
81	267
82	999
83	604
84	41
85	16
86	5
87	110
88	13
89	24
90	1
91	4
92	0
93	1
94	0
95	33
96	25
97	85
98	73
99	18
100	2
101	19
102	2
103	8
104	0
105	1
106	0
107	0
108	0
109	4
110	17
111	4
112	1
113	2
114	16
115	171
116	82
117	40
118	6
119	2
120	0
121	0
122	0
123	0
124	0
125	0
126	0
127	0
128	1
129	64
130	78
131	522
132	53
133	84
134	7
135	3
136	0
137	0
138	0
139	0
140	0
141	0
142	0
143	14
144	1
145	11
146	2
147	1
148	0
149	0
150	0
151	0
152	0
153	0
154	0
155	0
156	0
157	3
158	0
159	2
160	0
161	0
163	0
164	0
165	0
166	0
167	0
168	0
169	0
170	0
171	46
172	5
173	2
174	0
175	0
176	0
177	0
178	0
179	1
180	1
181	0
182	0
183	0
184	0
185	4
186	0
187	0
191	0
192	0
193	0
194	0
195	0
196	1
197	0
198	0
199	0
200	0
214	273
215	43
216	15
217	1
218	0
