Mass Spectrum: 5-Oxazolidinone, 3-benzoyl-2-(1,1-dimethylethyl)-4-[2-(methylthio)ethyl]-, (2S-cis)-
Formula: C17H23NO3S
CAS: 104057-70-7
Molecular weight: 321
m/z	intensity
27	11
28	10
29	23
30	1
36	4
39	13
40	2
41	43
42	4
43	5
45	6
46	2
47	6
48	2
49	2
50	6
51	39
52	3
53	2
54	6
55	12
56	11
57	37
58	1
59	3
60	1
61	72
62	3
63	4
68	4
69	7
70	3
71	6
73	1
74	7
75	19
76	13
77	206
78	22
79	2
82	3
84	7
85	7
86	6
87	15
88	4
89	1
91	2
96	1
97	6
98	5
100	2
102	21
103	2
104	10
105	999
106	78
107	5
108	1
110	1
112	6
114	44
115	4
116	6
117	3
122	1
123	2
124	4
130	6
131	1
132	1
133	7
142	6
143	4
146	2
149	2
156	25
157	3
158	2
160	13
161	7
162	1
168	4
171	99
172	15
173	5
174	3
184	2
192	4
199	117
200	15
201	6
207	25
209	3
210	1
216	66
217	8
218	3
235	2
236	41
237	5
238	2
260	1
264	3
306	1
321	19
322	3
323	1
