Mass Spectrum: Allopregna-5,16-diene-20-one
Formula: C21H30O2
CAS: 104010-41-5
Molecular weight: 314
m/z	intensity
41	48
43	999
44	6
45	15
47	5
49	17
51	9
53	23
55	43
57	8
61	8
65	14
67	35
69	13
71	3
77	39
78	7
79	60
81	43
82	2
83	2
84	9
85	3
86	6
91	88
92	13
93	41
94	3
95	20
97	4
103	9
105	74
106	9
107	50
108	7
109	15
111	1
115	18
116	2
117	37
118	3
119	33
120	5
121	50
122	12
123	13
124	3
125	1
127	5
128	11
129	17
130	6
131	36
133	36
135	39
136	7
137	38
138	5
141	16
142	4
143	26
144	3
145	55
146	7
147	21
148	6
149	7
150	2
151	5
153	5
155	10
157	24
158	7
159	30
160	12
161	20
162	5
165	1
167	5
169	7
171	12
172	1
173	13
174	2
175	23
176	3
177	3
179	2
181	5
183	7
185	9
186	14
187	5
188	19
189	6
191	1
193	1
195	5
197	7
198	4
199	3
200	2
201	4
204	1
211	5
212	1
213	2
215	1
221	1
223	1
225	8
227	1
237	3
238	1
239	6
251	5
253	16
263	4
267	4
269	3
279	3
281	31
282	2
283	5
295	4
296	161
297	33
298	4
313	1
314	19
315	4
