Mass Spectrum: 1(2H)-Naphthalenone, octahydro-8a-hydroxy-
Formula: C10H16O2
CAS: 10407-42-8
Molecular weight: 168
m/z	intensity
26	10
27	220
28	54
29	144
30	6
31	41
35	4
36	25
37	2
38	11
39	223
40	53
41	448
42	124
43	259
44	21
45	16
46	3
47	4
48	7
50	13
51	43
52	21
53	106
54	84
55	631
56	106
57	70
58	43
59	6
60	2
61	2
62	3
63	10
64	3
65	51
66	29
67	204
68	63
69	207
70	235
71	52
72	5
73	4
74	2
75	3
77	93
78	22
79	148
80	37
81	100
82	38
83	366
84	246
85	23
86	3
87	2
89	3
91	65
92	9
93	110
94	40
95	33
96	49
97	557
98	779
99	109
100	8
103	4
104	9
105	8
106	13
107	17
108	19
109	33
110	14
111	999
112	107
113	11
115	5
116	2
117	6
119	4
120	2
121	15
122	29
123	8
124	318
125	37
126	5
127	6
128	2
129	2
131	4
132	11
133	4
134	3
135	10
136	2
137	2
138	3
139	7
140	49
141	6
149	5
150	105
151	17
152	3
168	269
169	34
170	5
