Mass Spectrum: 3-Methylthiophene-2,5-disulfonamide
Formula: C5H8N2O4S3
CAS: 104096-20-0
Molecular weight: 256
m/z	intensity
14	1
15	1
16	7
17	31
18	155
24	2
25	1
26	10
27	33
28	64
29	2
30	5
32	20
33	7
34	20
36	3
37	8
38	12
39	43
40	7
41	18
42	10
43	25
44	32
45	89
46	84
47	12
48	84
49	9
50	37
51	85
52	54
53	20
54	8
55	6
56	4
57	18
58	41
59	65
60	19
61	8
62	8
63	49
64	228
65	29
66	20
67	14
68	56
69	112
70	113
71	42
72	30
73	5
74	4
75	9
76	19
77	12
78	13
79	7
80	20
81	9
82	11
83	22
84	41
85	77
86	9
87	8
88	3
89	12
90	5
91	4
92	4
93	30
94	18
95	999
96	247
97	80
98	16
99	8
100	9
101	6
102	2
103	5
105	1
106	2
108	1
109	13
110	16
111	47
112	486
113	49
114	24
115	6
116	8
117	3
118	2
124	2
125	1
126	3
127	10
128	38
129	37
130	12
131	8
132	3
133	1
136	1
140	5
141	18
142	5
143	11
144	4
145	3
146	2
147	3
148	3
149	4
154	3
156	12
157	7
158	5
159	6
160	4
161	7
162	1
172	2
173	8
174	4
175	894
176	86
177	96
178	9
179	4
186	1
190	2
191	25
192	60
193	9
194	7
202	5
204	2
207	2
209	5
219	1
220	5
221	3
222	4
223	3
224	6
238	3
239	32
240	101
241	12
242	13
256	319
257	27
258	44
259	4
260	3
