Mass Spectrum: 1H-Thieno[3,4-d]imidazole-4-pentanoic acid, hexahydro-2-oxo-, 5-oxide, [3as-(3a.alpha.,4.beta.,6a.alpha.)]-
Formula: C10H16N2O4S
CAS: 10406-89-0
Molecular weight: 260
m/z	intensity
78	46
79	131
80	209
81	170
82	240
83	93
84	542
85	821
86	139
87	147
88	31
89	31
90	15
91	139
92	46
93	147
94	147
95	124
96	62
97	999
98	953
99	348
100	224
101	77
102	15
105	15
106	54
107	69
108	69
109	54
110	147
111	379
112	232
113	186
114	131
115	85
119	23
120	23
122	54
123	720
124	139
125	108
126	139
127	31
128	31
129	23
130	23
134	31
135	54
136	77
137	139
138	54
139	62
140	54
141	93
142	38
143	62
144	46
145	38
146	23
147	85
148	7
149	46
150	139
151	170
152	77
153	62
154	54
155	46
156	31
157	15
158	54
159	124
160	23
161	15
163	15
164	15
165	62
166	23
167	31
168	23
169	124
170	7
178	69
179	62
180	54
181	922
182	139
183	162
184	23
193	23
194	46
196	31
197	100
198	62
199	62
201	209
260	170
