Mass Spectrum: Mitindomide
Formula: C14H12N2O4
CAS: 10403-51-7
Molecular weight: 272
m/z	intensity
43	53
44	72
50	60
51	155
52	273
53	39
54	48
63	67
64	87
65	67
70	59
76	36
77	165
78	999
79	65
80	22
89	10
91	51
96	19
98	9
102	56
103	96
104	121
115	97
127	49
128	112
129	176
130	206
131	63
132	10
136	102
146	92
148	10
156	21
172	20
174	11
175	94
200	46
201	139
216	68
227	38
244	89
255	62
272	331
273	62
