Mass Spectrum: 1-Hepten-6-one, 2-methyl-
Formula: C8H14O
CAS: 10408-15-8
Molecular weight: 126
m/z	intensity
25	0
26	15
27	169
28	7
29	117
30	3
31	6
33	0
34	0
37	3
38	11
39	192
40	49
41	269
42	26
43	999
44	22
45	7
46	0
48	0
49	0
50	7
51	18
52	9
53	74
54	15
55	166
56	43
57	16
58	332
59	25
60	1
61	0
62	1
63	3
64	0
65	9
66	6
67	132
68	208
69	152
70	11
71	138
72	12
73	1
74	0
75	0
76	0
77	8
78	2
79	7
80	1
81	9
82	8
83	47
84	8
85	4
86	0
87	0
89	0
90	0
91	5
92	1
93	57
94	4
95	4
96	2
97	8
98	3
99	1
100	1
101	0
103	0
105	1
106	0
107	0
108	141
109	15
110	1
111	55
112	5
113	0
114	1
119	0
120	0
122	0
123	1
124	0
125	1
126	18
127	2
128	0
