Mass Spectrum: Pentanoic acid, 3,7-dimethyl-2,6-octadienyl ester, (E)-
Formula: C15H26O2
CAS: 10402-47-8
Molecular weight: 238
m/z	intensity
26	5
27	130
29	108
30	4
31	8
37	4
38	14
39	150
41	747
42	59
43	147
44	26
45	48
50	8
51	25
52	9
53	89
54	13
55	53
56	18
57	284
58	12
59	17
60	193
61	13
62	3
63	6
65	25
66	19
67	95
68	560
69	999
70	54
71	10
73	7
74	15
77	52
78	13
79	67
80	151
81	58
82	1
83	4
84	19
85	263
86	19
87	30
89	3
91	54
92	82
93	532
94	75
95	8
97	4
103	8
105	25
106	6
107	49
108	16
109	4
117	3
119	15
121	139
122	17
123	5
133	5
134	5
135	4
136	123
137	29
154	11
169	6
