Mass Spectrum: 1,3-Dioxolan-4-one, 2-(1,1-dimethylethyl)-5-methyl-5-(2-nitroethyl)-, (2R-trans)-
Formula: C10H17NO5
CAS: 104194-10-7
Molecular weight: 231
m/z	intensity
26	6
27	84
28	26
29	139
30	26
31	6
37	3
39	67
41	189
42	34
43	634
44	24
45	14
46	3
50	2
51	5
52	2
53	24
54	12
55	84
56	30
57	448
58	26
59	35
60	3
61	5
67	2
69	19
70	33
71	999
72	58
73	5
74	5
81	2
82	4
83	3
84	3
85	13
86	7
87	48
88	2
99	39
100	26
102	3
118	86
119	4
129	7
141	0
146	7
157	2
158	4
160	1
174	201
175	14
176	3
188	1
232	0
