Mass Spectrum: trans-Cyclohexane-1,4-dimethanol, diacetate
Formula: C12H20O4
CAS: 10412-78-9
Molecular weight: 228
m/z	intensity
29	14
30	1
31	7
38	1
39	38
40	7
41	78
42	30
43	999
44	21
45	4
50	1
51	3
52	3
53	25
54	43
55	59
56	5
57	12
58	4
59	2
60	1
61	21
65	22
66	186
67	283
68	50
69	20
70	12
71	12
72	5
73	48
74	8
75	1
76	1
77	46
78	111
79	546
80	366
81	105
82	15
83	12
84	6
85	1
86	3
89	1
90	2
91	57
92	24
93	565
94	61
95	224
96	24
97	9
98	2
99	1
103	2
104	1
105	11
106	10
107	85
108	649
109	89
110	7
111	4
112	1
113	3
114	1
121	1
123	3
124	3
125	7
126	19
127	2
135	1
137	2
138	6
140	1
150	2
168	11
169	1
