Mass Spectrum: Benzene, 1-butyl-2-ethynyl-
Formula: C12H14
CAS: 104190-19-4
Molecular weight: 158
m/z	intensity
20	87
23	0
24	0
25	12
26	55
27	288
29	11
30	39
33	31
35	7
36	16
37	16
39	127
41	430
42	21
43	716
44	29
45	9
46	4
49	16
50	40
51	114
52	21
53	9
55	5
57	43
58	2
59	3
60	6
61	8
62	30
63	118
64	43
65	58
71	41
74	33
75	66
76	13
77	39
78	34
79	2
81	5
82	2
83	0
85	2
86	29
87	3
88	16
89	160
90	7
91	6
92	21
95	4
96	0
100	0
101	3
102	29
103	25
104	4
107	0
109	1
110	3
111	15
113	31
114	12
115	999
116	274
117	22
118	7
121	0
122	0
123	2
124	2
125	1
126	25
127	53
128	333
129	362
130	131
131	18
132	2
133	1
134	0
138	1
139	4
140	2
141	21
142	10
143	304
144	45
146	5
148	0
150	9
152	5
153	3
156	2
157	5
158	311
159	47
161	0
