Mass Spectrum: 2,3-Dichloro-iso-butyric acid
Formula: C4H6Cl2O2
CAS: 10411-52-6
Molecular weight: 156
m/z	intensity
12	4
13	4
14	11
15	64
16	5
17	2
18	7
24	3
25	12
26	47
27	177
28	80
29	81
30	4
31	19
32	5
35	54
36	438
37	58
38	137
39	763
40	214
41	999
42	52
43	303
44	74
45	211
46	7
47	10
48	9
49	151
50	6
51	50
52	3
53	20
54	4
55	31
56	9
57	63
58	32
59	10
60	7
61	51
62	26
63	31
64	8
65	9
66	2
67	9
68	23
69	56
70	5
71	9
72	3
73	14
74	32
75	408
76	672
77	150
78	219
79	37
80	4
81	9
82	4
83	23
84	3
85	315
86	144
87	10
88	1
89	30
90	24
91	11
92	32
93	8
94	8
95	4
96	1
97	6
98	1
99	3
101	2
102	25
103	52
104	10
105	18
106	6
107	41
108	3
109	13
110	46
111	402
112	39
113	250
114	12
115	41
116	2
119	1
120	163
121	207
122	61
123	66
124	3
125	1
135	1
139	4
141	2
