Mass Spectrum: 3(2H)-Furanone, 2-(1-hydroxy-1-methyl-2-oxopropyl)-2,5-dimethyl-
Formula: C10H14O4
CAS: 10410-20-5
Molecular weight: 198
m/z	intensity
25	6
26	32
27	67
28	38
29	48
30	4
31	8
37	14
38	33
39	181
40	542
41	92
42	91
43	999
44	75
45	75
50	8
51	6
52	4
53	15
54	9
55	22
56	7
57	7
67	15
68	542
69	73
70	6
71	12
84	14
85	15
86	228
87	12
97	14
98	3
111	7
112	457
113	35
114	3
