Mass Spectrum: Furane-3,4(2H,5H)-dione, 2,2-dimethyl-5-spiro-cyclohexane-, dioxime
Formula: C11H18N2O3
CAS: 104116-53-2
Molecular weight: 226
m/z	intensity
33	3
34	3
36	0
37	7
39	410
40	139
41	999
42	348
43	600
44	60
45	17
46	4
48	1
50	18
51	51
52	76
53	218
54	119
55	821
56	65
57	62
58	33
59	231
60	11
61	3
62	2
63	12
64	25
65	71
66	93
67	133
68	211
69	325
70	63
71	26
72	5
73	17
74	5
75	4
76	9
77	71
78	45
79	137
80	68
81	315
82	75
83	41
84	42
85	41
86	38
87	4
88	0
89	2
91	48
92	25
93	52
94	80
95	113
96	83
97	116
98	35
99	77
100	6
102	6
103	5
104	11
105	27
106	33
107	32
108	70
109	63
110	39
111	52
112	28
113	12
114	3
115	4
116	6
117	10
118	13
119	14
120	23
121	27
122	40
123	42
124	87
125	25
126	13
127	6
128	3
129	2
130	1
131	8
132	8
133	23
134	21
135	33
136	55
137	23
138	18
139	14
140	6
141	2
142	11
143	1
144	0
145	2
146	8
147	9
148	21
149	49
150	56
151	116
152	24
153	9
154	5
155	12
156	1
157	1
159	2
160	3
161	9
162	14
163	66
164	45
165	19
166	25
167	22
168	3
169	1
170	0
171	3
173	3
174	15
175	14
176	9
177	27
178	50
179	41
180	18
181	6
183	81
184	7
188	1
189	5
191	83
192	114
193	24
194	14
195	85
196	535
197	61
198	4
202	0
206	1
207	4
209	342
210	52
211	45
212	4
226	156
227	18
228	4
229	0
