Mass Spectrum: 1,3-Dioxolan-4-one, 5-[1-(bromomethyl)-2-nitroethyl]-2-(1,1-dimethylethyl)-5-methyl-, [2R-[2.alpha.,5.beta.(R*)]]-
Formula: C11H18BrNO5
CAS: 104194-08-3
Molecular weight: 323
m/z	intensity
25	5
27	80
28	30
29	174
30	39
31	11
36	2
37	2
38	5
39	112
40	21
41	296
42	46
43	999
44	53
45	23
46	2
48	2
50	3
51	8
52	5
53	37
54	18
55	102
56	51
57	670
58	32
59	2
61	8
65	10
66	5
67	35
68	7
69	56
70	54
71	168
72	31
73	3
80	6
81	2
82	5
83	47
84	7
85	20
86	14
87	165
88	27
90	2
93	3
95	3
96	2
97	3
99	17
100	9
101	3
103	2
111	13
112	6
113	2
114	6
115	5
119	4
121	5
123	2
128	4
129	72
130	22
131	11
132	2
133	11
134	3
136	2
141	2
142	2
143	3
145	10
147	2
149	10
150	7
152	5
157	42
158	15
159	4
163	338
164	21
165	329
166	20
173	3
179	2
186	2
191	16
192	21
193	17
194	20
210	22
211	2
212	22
216	2
238	4
239	1
240	3
266	94
267	7
268	92
269	7
