Mass Spectrum: 1,3-Dioxolane-4-acetic acid, 2-t-butyl-5-oxo-4-(1-methyl-2-nitroethyl)-
Formula: C12H19NO7
CAS: 104194-06-1
Molecular weight: 289
m/z	intensity
25	1
26	17
27	176
28	39
29	360
30	71
31	26
36	5
37	5
38	12
39	203
40	44
41	712
42	168
43	422
44	142
45	67
46	8
47	2
48	4
49	1
50	9
51	19
52	15
53	74
54	61
55	204
56	96
57	999
58	47
59	48
60	53
61	2
62	1
63	1
64	0
65	16
66	9
67	70
68	21
69	474
70	117
71	214
72	30
73	27
74	8
75	4
76	2
77	7
78	2
79	7
80	10
81	22
82	25
83	47
84	24
85	34
86	34
87	385
88	25
89	5
90	1
91	12
92	2
93	7
94	6
95	30
96	12
97	23
98	18
99	22
100	9
101	4
102	1
103	2
104	1
105	10
106	3
107	8
108	5
109	14
110	9
111	177
112	51
113	17
114	4
115	8
116	348
117	21
118	3
119	5
120	2
121	6
122	3
123	11
124	22
125	18
126	6
127	15
128	10
129	499
130	35
131	8
132	2
133	3
134	2
135	6
136	5
137	7
138	5
139	39
140	14
141	16
142	20
143	8
144	3
145	3
146	2
147	2
148	1
149	19
150	3
151	4
152	13
153	7
154	3
155	7
156	6
157	18
158	235
159	19
160	3
161	2
162	1
163	4
164	1
165	3
166	1
167	4
168	12
169	4
170	4
171	3
172	1
173	8
174	0
175	1
176	16
177	3
178	2
179	2
180	1
181	3
182	1
183	2
184	1
185	4
186	28
187	4
188	1
189	1
190	0
191	5
192	1
193	3
194	0
195	1
196	1
197	2
198	9
199	3
200	1
201	4
202	2
203	1
204	4
205	2
206	1
207	1
208	0
209	0
210	2
211	1
212	0
213	1
214	17
215	3
216	2
217	1
218	1
219	1
220	1
221	1
222	0
223	1
224	1
225	1
226	1
227	2
228	1
229	1
232	152
233	14
234	5
235	1
236	1
