Mass Spectrum: 2-Furanmethanol, 5-ethenyltetrahydro-.alpha.,5-dimethyl-
Formula: C9H16O2
CAS: 104188-13-8
Molecular weight: 156
m/z	intensity
27	63
28	25
29	61
31	20
32	22
38	4
39	99
40	21
41	212
42	46
43	301
44	44
45	237
46	6
50	11
51	13
52	18
53	117
54	7
55	583
56	45
57	45
58	58
59	16
62	7
63	3
65	49
66	24
67	334
68	338
69	182
70	62
71	355
72	23
73	6
77	91
78	13
79	94
80	17
81	193
83	203
84	37
85	15
88	2
91	117
92	10
93	612
94	126
95	17
97	27
98	8
105	6
108	4
110	22
111	999
112	99
119	4
121	3
123	21
129	14
139	3
141	87
142	6
156	3
