Mass Spectrum: Heptanedioic acid, 3,5-dimethyl-, dimethyl ester
Formula: C11H20O4
CAS: 104116-37-2
Molecular weight: 216
m/z	intensity
38	2
39	95
40	16
41	356
42	95
43	300
44	27
45	35
46	2
47	2
48	7
49	10
50	2
51	3
52	2
53	34
54	14
55	458
56	58
57	13
58	6
59	428
60	12
61	4
63	26
64	1
65	8
66	3
67	55
68	25
69	575
70	33
71	24
72	5
73	146
74	489
75	29
76	2
77	12
78	2
79	16
80	5
81	69
82	197
83	999
84	71
85	40
86	10
87	63
88	4
91	5
92	3
93	11
94	2
95	32
96	85
97	88
98	9
99	45
100	11
101	283
102	32
103	3
105	1
106	8
107	30
108	11
109	63
110	116
111	750
112	56
113	10
114	43
115	57
116	8
119	0
122	1
123	11
124	74
125	66
126	7
127	26
128	30
129	4
133	0
134	0
135	4
136	0
137	37
138	4
139	100
140	15
141	47
142	61
143	764
144	62
145	5
148	0
151	4
152	28
153	158
154	17
155	3
156	102
157	19
158	0
159	1
160	5
161	0
166	5
167	8
168	0
169	57
170	6
174	3
182	0
183	3
184	15
185	187
186	18
187	2
