Mass Spectrum: 1-Methyl-16-methoxyaspidospermidin-4-one
Formula: C21H28N2O2
CAS: 104112-78-9
Molecular weight: 340
m/z	intensity
27	35
28	45
29	67
30	18
39	41
40	12
41	129
42	109
43	48
44	12
51	12
52	13
53	43
54	38
55	143
56	38
57	13
58	6
63	11
64	3
65	21
66	10
67	55
68	34
69	101
70	28
71	3
76	6
77	42
78	15
79	22
80	32
81	37
82	25
83	16
84	7
89	17
90	9
91	23
92	7
93	12
94	45
95	37
96	29
97	5
101	4
102	12
103	19
104	7
105	5
106	6
107	7
108	26
109	45
110	12
111	5
114	7
115	33
116	17
117	18
118	12
119	4
120	7
121	8
122	32
123	15
124	999
125	119
126	7
127	9
128	17
129	9
130	19
131	56
132	12
133	3
134	4
136	5
137	3
138	49
139	5
140	3
141	11
142	10
143	14
144	26
146	9
147	2
148	8
154	4
155	11
156	12
157	13
158	10
159	27
160	10
166	73
167	8
168	4
170	14
171	2
172	11
173	11
174	76
175	10
186	3
187	14
188	41
189	4
200	7
201	3
202	2
297	4
298	34
299	5
312	2
340	38
341	6
