Mass Spectrum: Thiazole, 4,5-dihydro-4-methyl-2-amino-
Formula: C4H8N2S
CAS: 10416-81-6
Molecular weight: 116
m/z	intensity
41	325
42	178
43	390
44	25
45	168
46	112
47	45
48	10
49	4
52	5
53	9
54	15
55	14
56	21
57	30
58	37
59	134
60	120
61	10
62	5
63	0
64	0
65	0
66	1
67	5
68	4
69	209
70	180
71	29
72	10
73	72
74	215
75	21
76	10
77	2
78	2
79	1
81	3
82	3
83	4
84	4
85	2
86	1
87	0
88	14
89	0
90	0
91	0
95	1
96	1
97	2
98	1
99	1
100	6
101	999
102	54
103	5
114	0
115	49
116	467
117	52
118	23
119	2
