Mass Spectrum: .alpha.-Tetrahydropyronyl ether of dihydrocrinamidine
Formula: C22H29NO6
CAS: 104268-21-5
Molecular weight: 403
m/z	intensity
41	999
43	499
44	185
45	43
47	23
49	66
50	15
51	56
52	17
53	61
54	65
55	279
56	329
57	444
58	34
59	15
60	10
62	7
63	28
64	14
65	45
66	7
67	280
68	107
69	51
70	31
71	20
72	10
73	5
74	5
75	11
76	16
77	92
78	38
79	35
80	23
81	17
82	24
83	34
84	97
85	794
86	64
87	9
88	11
89	39
90	18
91	68
92	16
93	14
94	12
95	10
96	15
97	9
98	23
99	6
100	6
101	19
102	33
103	75
104	24
105	29
106	14
107	15
108	10
109	8
113	6
114	17
115	110
116	42
117	39
118	22
119	15
120	9
121	10
123	7
124	7
127	32
128	48
129	37
130	31
131	50
132	29
133	34
134	9
135	12
136	6
139	7
140	5
141	22
142	17
143	36
144	37
145	48
146	24
147	31
148	8
149	7
150	26
152	9
153	10
154	13
155	15
156	17
157	27
158	20
159	38
160	18
161	21
163	8
165	66
166	21
167	10
168	9
169	10
170	14
171	25
172	25
173	46
174	21
175	30
176	11
177	10
178	13
179	26
180	7
181	6
182	8
183	10
184	10
185	20
186	20
187	32
188	20
189	45
190	31
191	46
192	16
193	8
197	8
198	11
199	14
200	21
201	28
202	44
203	98
204	144
205	139
206	65
207	11
211	10
212	8
213	15
214	14
215	178
216	83
217	104
218	83
219	43
220	12
223	9
224	6
225	8
226	7
227	12
228	25
229	37
230	146
231	382
232	215
233	50
234	25
235	7
239	9
240	10
241	25
242	27
243	31
244	87
245	58
246	62
247	24
248	26
249	7
252	12
253	23
254	38
255	38
256	31
257	21
258	67
259	45
260	34
261	13
262	7
270	17
271	54
272	98
273	29
274	78
275	68
276	19
282	10
284	58
285	16
286	118
287	23
288	49
289	14
290	55
291	14
300	26
301	28
302	249
303	54
304	12
316	6
318	166
319	50
320	10
346	7
347	12
348	7
373	6
374	11
375	11
388	26
389	7
402	14
403	396
404	103
405	18
