Mass Spectrum: 1H-Inden-1-one, octahydro-7a-hydroxy-
Formula: C9H14O2
CAS: 10421-80-4
Molecular weight: 154
m/z	intensity
26	3
27	29
29	18
31	4
36	1
37	1
38	5
39	62
40	13
41	81
42	32
43	45
44	13
45	5
50	8
51	19
52	16
53	37
54	20
55	141
56	29
57	33
58	8
60	6
63	5
65	18
66	13
67	54
68	19
69	64
70	418
71	30
72	5
73	7
77	43
78	15
79	110
80	37
81	42
82	45
83	192
84	37
85	9
91	31
92	14
93	44
94	84
95	38
96	12
97	162
98	999
99	67
100	5
104	4
105	7
107	27
108	32
109	14
110	26
111	85
112	13
113	5
115	4
117	6
118	5
119	6
121	11
122	4
123	5
125	4
126	34
127	4
135	19
136	69
137	12
154	220
155	26
