Mass Spectrum: Phosphoric acid, ethenyl dimethyl ester
Formula: C4H9O4P
CAS: 10429-10-4
Molecular weight: 152
m/z	intensity
31	999
39	15
40	13
41	41
42	99
43	334
45	120
47	47
49	28
50	99
52	28
55	44
57	28
79	83
80	47
81	23
109	96
110	20
151	15
152	23
