Mass Spectrum: Crinamine, 6-O-acetyl-11-O-acetyl-1,2-dihydro-
Formula: C21H25NO7
CAS: 104268-28-2
Molecular weight: 403
m/z	intensity
43	999
45	145
50	11
51	37
52	14
53	46
54	37
55	89
56	181
57	46
58	56
59	26
60	60
61	17
62	10
63	40
64	14
65	68
66	8
67	42
68	39
69	30
71	214
72	16
73	34
74	9
75	19
76	28
77	109
78	29
79	35
80	25
81	18
82	25
83	13
84	16
85	18
86	20
87	57
88	16
89	60
90	18
91	84
92	15
93	21
94	18
95	8
96	12
97	11
98	12
99	7
100	17
101	22
102	48
103	74
104	25
105	27
106	10
107	8
108	7
109	7
110	7
112	6
113	11
114	22
115	133
116	44
117	42
118	19
119	24
120	14
121	14
122	12
126	11
127	38
128	66
129	45
130	36
131	47
132	13
133	23
134	12
135	55
136	7
139	17
140	13
141	50
142	24
143	37
144	25
145	25
146	11
147	66
148	43
149	168
150	19
151	11
152	18
153	34
154	21
155	25
156	18
157	21
158	13
159	43
160	26
161	27
162	18
163	34
164	8
165	17
166	10
167	18
168	14
169	25
170	16
171	23
172	31
173	56
174	54
175	73
176	33
177	24
178	7
179	5
180	6
181	40
182	13
183	15
184	11
185	61
186	54
187	63
188	89
189	53
190	20
191	12
192	5
193	5
194	6
195	6
196	6
197	12
198	110
199	56
200	75
201	67
202	55
203	49
204	19
205	9
206	7
209	18
211	175
212	54
213	46
214	58
215	43
216	47
217	35
218	9
223	11
224	138
225	123
226	77
227	41
228	62
229	50
230	32
231	15
232	19
238	7
239	12
240	49
241	36
242	110
243	57
244	42
245	21
246	22
247	6
251	6
252	17
253	10
254	11
256	130
257	36
258	77
259	20
260	12
261	6
263	6
268	23
269	37
270	75
271	23
272	45
273	15
274	29
275	44
276	9
283	9
284	16
285	4
286	25
287	7
288	68
289	15
290	6
300	38
301	53
302	35
303	6
312	16
316	6
317	16
318	21
319	6
328	6
330	22
331	10
332	6
359	4
360	74
361	225
362	76
363	13
403	39
404	14
