Mass Spectrum: Methanone, (4-amino-1,2,5-oxadiazol-3-yl)phenyl-
Formula: C9H7N3O2
CAS: 10425-39-5
Molecular weight: 189
m/z	intensity
31	32
32	26
36	1
37	2
38	9
39	20
41	2
42	7
43	5
44	16
45	2
49	2
50	70
51	221
52	12
53	18
54	26
55	2
56	1
57	2
58	14
61	2
62	4
63	10
64	1
70	4
73	4
74	17
75	16
76	31
77	591
78	63
79	1
81	2
87	1
88	26
89	3
99	2
103	4
104	4
105	999
106	66
121	5
122	4
129	1
131	1
132	7
189	168
190	13
