Mass Spectrum: 2-(Benzylamino)-5-[3-[3-(piperidinomethyl)phenoxy]propylamino]-1,3,4-oxadiazole
Formula: C24H31N5O2
CAS: 104379-14-8
Molecular weight: 421
m/z	intensity
41	150
42	120
51	150
56	210
58	150
65	120
77	260
78	180
79	150
84	999
91	740
98	350
105	240
106	260
107	240
108	120
133	240
190	120
191	210
231	20
247	30
248	30
273	90
274	90
338	10
421	1
