Mass Spectrum: (-)-(2S,8Ar)-(camphorsulfonyl)oxaziridine
Formula: C10H15NO3S
CAS: 104372-31-8
Molecular weight: 229
m/z	intensity
14	1
15	13
16	1
26	11
27	218
28	69
29	134
30	25
31	3
32	9
34	2
37	4
38	17
39	377
40	90
41	668
42	145
43	383
44	26
45	7
46	3
47	1
48	72
49	2
50	28
51	101
52	63
53	288
54	130
55	395
56	65
57	111
58	17
59	35
60	8
61	2
62	8
63	32
64	134
65	145
66	81
67	648
68	154
69	374
70	79
71	12
72	3
73	9
74	3
75	6
76	6
77	299
78	72
79	441
80	173
81	311
82	355
83	81
84	21
85	11
86	3
87	1
88	1
89	9
90	6
91	375
92	89
93	924
94	363
95	180
96	61
97	109
98	10
99	2
100	1
101	1
102	3
103	18
104	36
105	153
106	184
107	430
108	999
109	563
110	76
111	15
112	2
113	1
115	8
116	7
117	30
118	24
119	59
120	97
121	73
122	591
123	205
124	48
125	8
126	1
127	1
128	1
129	3
130	8
131	22
132	63
133	54
134	344
135	141
136	82
137	60
138	17
139	3
141	1
143	1
144	2
145	4
146	27
147	23
148	238
149	139
150	178
151	33
152	9
153	3
155	4
157	1
161	9
162	1
163	2
164	83
165	143
166	16
167	9
168	3
169	1
170	1
171	1
172	1
181	1
185	1
186	39
187	9
188	3
197	1
199	26
200	3
201	110
202	11
203	6
212	5
213	5
214	3
229	47
230	8
231	4
