Mass Spectrum: Cyclopentanone, 2-(1-butyl-2-nitro-2-propenyl)-
Formula: C12H19NO3
CAS: 104313-58-8
Molecular weight: 225
m/z	intensity
25	16
27	264
28	6
29	272
30	45
31	12
37	2
38	9
39	245
40	64
41	471
42	54
43	199
44	37
45	10
46	6
50	15
51	61
52	50
53	198
54	66
55	487
56	55
57	111
58	8
59	15
60	7
61	2
62	4
63	21
64	9
65	110
66	120
67	321
68	44
69	114
70	12
71	130
72	8
73	7
74	3
75	5
76	2
77	212
78	47
79	309
80	63
81	219
82	36
83	197
84	999
85	120
86	10
87	7
89	6
90	3
91	146
92	27
93	260
94	76
95	356
96	38
97	65
98	9
99	29
100	5
101	2
102	7
103	4
104	50
105	12
106	71
107	72
108	77
109	18
110	27
111	7
112	11
114	5
117	10
118	3
119	32
120	10
121	97
122	34
123	59
124	17
125	17
126	6
127	3
131	8
132	3
133	25
134	9
135	72
136	50
137	55
138	13
139	3
141	6
142	5
145	3
147	3
148	4
149	29
150	12
151	14
152	8
153	11
154	3
159	5
161	23
162	6
163	3
164	6
165	2
166	4
167	2
168	6
169	4
177	19
178	33
179	420
180	60
181	7
182	4
190	5
195	5
208	8
226	2
