Mass Spectrum: trans-13-Docosenamide
Formula: C22H43NO
CAS: 10436-09-6
Molecular weight: 337
m/z	intensity
16	1
17	5
18	30
26	3
27	33
28	18
29	116
30	11
31	1
32	1
38	1
39	35
40	9
41	419
42	77
43	420
44	83
45	3
46	1
50	1
51	3
52	3
53	37
54	155
55	786
56	221
57	360
58	28
59	999
60	265
61	9
62	1
63	1
65	11
66	12
67	228
68	118
69	596
70	231
71	149
72	879
73	98
74	5
75	1
76	1
77	13
78	6
79	59
80	44
81	220
82	201
83	515
84	204
85	88
86	113
87	19
88	2
89	1
91	23
92	8
93	39
94	56
95	186
96	222
97	440
98	236
99	50
100	85
101	35
102	4
103	3
104	3
105	20
106	9
107	32
108	53
109	110
110	178
111	220
112	251
113	54
114	126
115	53
116	5
117	6
118	3
119	23
120	12
121	36
122	273
123	130
124	152
125	114
126	257
127	49
128	123
129	16
130	2
131	4
132	2
133	22
134	27
135	37
136	268
137	125
138	134
139	63
140	89
141	23
142	52
143	9
144	2
145	4
146	1
147	18
148	21
149	25
150	126
151	81
152	125
153	46
154	77
155	19
156	38
157	8
158	1
159	2
160	1
161	14
162	10
163	14
164	90
165	51
166	95
167	35
168	39
169	9
170	34
171	9
172	2
173	1
174	1
175	10
176	9
177	10
178	86
179	37
180	74
181	29
182	29
183	8
184	36
185	7
186	2
187	1
188	1
189	8
190	7
191	8
192	86
193	43
194	54
195	19
196	18
197	6
198	30
199	5
200	2
201	1
203	6
204	5
205	5
206	81
207	45
208	43
209	15
210	15
211	6
212	23
213	7
214	1
215	1
216	1
217	3
218	4
219	4
220	74
221	51
222	40
223	10
224	16
225	9
226	20
227	6
230	1
231	2
232	4
233	3
234	77
235	59
236	42
237	13
238	18
239	10
240	37
241	8
242	1
245	1
246	3
247	3
248	69
249	54
250	29
251	8
252	14
253	8
254	24
255	9
256	2
257	1
259	1
260	2
261	1
262	80
263	61
264	25
265	8
266	11
267	4
268	10
269	3
270	1
272	1
273	2
274	3
276	108
277	62
278	44
279	10
280	13
281	5
282	11
283	3
284	1
288	1
289	1
290	55
291	42
292	13
293	2
294	38
295	11
296	7
297	1
301	1
302	9
304	17
305	7
308	17
309	5
310	1
311	1
313	3
315	2
316	1
317	8
318	15
319	282
320	242
321	54
322	8
323	1
335	2
336	6
337	416
338	110
339	15
340	2
