Mass Spectrum: 2-(tert-Butylaminooxy)-3,3-dimethylbutyranilide
Formula: C16H26N2O2
CAS: 104351-13-5
Molecular weight: 278
m/z	intensity
43	870
56	600
57	640
71	999
83	380
93	610
120	760
134	460
142	430
150	190
162	300
176	680
190	680
263	540
278	680
