Mass Spectrum: N,N'-Methylenebis(oleamide), (Z, Z)-
Formula: C37H70N2O2
CAS: 10436-16-5
Molecular weight: 574
m/z	intensity
15	2
26	3
27	69
28	30
29	172
30	218
31	5
32	27
38	1
39	75
40	15
41	548
42	93
43	466
44	127
45	137
46	5
50	1
51	5
52	5
53	61
54	174
55	778
56	157
57	289
58	34
59	999
60	150
61	6
63	1
65	17
66	15
67	339
68	136
69	505
70	100
71	109
72	818
73	226
74	16
75	1
77	19
78	8
79	79
80	44
81	311
82	133
83	351
84	137
85	69
86	168
87	32
88	3
89	1
91	25
92	7
93	58
94	41
95	257
96	128
97	239
98	246
99	66
100	110
101	31
102	3
103	1
104	1
105	15
106	6
107	45
108	34
109	145
110	93
111	117
112	199
113	65
114	129
115	36
116	4
117	2
118	1
119	19
120	9
121	66
122	45
123	98
124	61
125	52
126	203
127	54
128	121
129	19
130	5
131	3
132	2
133	19
134	16
135	61
136	43
137	74
138	58
139	42
140	102
141	33
142	57
143	11
144	2
145	2
146	1
147	19
148	10
149	38
150	31
151	61
152	65
153	43
154	90
155	25
156	43
157	9
158	1
159	2
160	1
161	11
162	6
163	20
164	23
165	42
166	68
167	28
168	53
169	19
170	44
171	9
172	2
173	2
175	7
176	3
177	13
178	22
179	24
180	110
181	32
182	51
183	16
184	50
185	10
186	1
187	1
189	4
190	2
191	8
192	13
193	15
194	76
195	33
196	40
197	13
198	35
199	10
200	1
201	1
203	2
204	1
205	5
206	9
207	15
208	45
209	21
210	27
211	10
212	19
213	5
214	1
217	1
218	2
219	4
220	23
221	23
222	58
223	16
224	20
225	7
226	13
227	3
228	1
231	1
232	1
233	3
234	16
235	14
236	47
237	14
238	41
239	24
240	10
241	2
245	7
246	7
247	21
248	12
249	6
250	57
251	17
252	26
253	7
254	5
255	4
256	13
257	3
261	1
262	13
263	27
264	144
265	264
266	56
267	11
268	4
269	1
270	1
274	1
275	2
276	22
277	6
278	11
279	15
280	40
281	332
282	302
283	58
284	11
285	1
290	1
291	4
292	16
293	362
294	139
295	31
296	26
297	5
298	1
307	1
308	2
309	44
310	11
311	4
320	1
321	3
322	2
323	1
336	1
337	4
338	1
349	1
352	11
353	3
354	1
365	9
366	3
407	1
418	1
420	1
421	5
422	2
432	2
433	1
435	1
446	2
447	2
448	1
460	1
461	2
462	1
474	1
475	4
476	3
477	1
489	3
490	2
503	1
516	3
517	2
531	1
545	8
546	4
547	1
548	15
549	6
550	1
559	1
574	406
575	171
576	42
577	5
578	1
