Mass Spectrum: 2-(4-Chlorophenylamino)-5-[3-[3-(piperidinomethyl)phenoxy]propylamino]-1,3,4-oxadiazole
Formula: C23H28ClN5O2
CAS: 104379-27-3
Molecular weight: 441
m/z	intensity
41	270
42	230
56	350
63	190
65	150
76	230
77	270
84	999
90	230
91	230
98	540
107	350
111	180
127	420
152	150
153	150
190	150
191	230
251	80
273	120
274	120
320	120
441	40
