Mass Spectrum: 4H-4a,7-Methanooxazirino[3,2-I][2,1]benzisothiazole, tetrahydro-9,9-dimethyl-, 3,3-dioxide, [4as-(4a.alpha.,7.alpha.,8ar*)]-
Formula: C10H15NO3S
CAS: 104322-63-6
Molecular weight: 229
m/z	intensity
14	1
15	11
16	1
26	10
27	207
28	68
29	129
30	24
31	2
32	8
34	2
37	3
38	16
39	346
40	87
41	624
42	128
43	359
44	26
45	7
46	2
47	1
48	66
49	2
50	26
51	90
52	57
53	256
54	115
55	355
56	58
57	100
58	14
59	35
60	9
61	2
62	8
63	27
64	144
65	127
66	76
67	568
68	136
69	337
70	71
71	11
72	3
73	9
74	3
75	4
76	6
77	268
78	64
79	396
80	151
81	285
82	327
83	74
84	19
85	11
86	3
87	1
88	1
89	8
90	5
91	344
92	81
93	863
94	322
95	165
96	60
97	97
98	10
99	2
100	1
102	3
103	14
104	32
105	153
106	168
107	405
108	999
109	515
110	69
111	14
112	2
113	1
115	7
116	7
117	29
118	24
119	53
120	92
121	65
122	528
123	186
124	44
125	9
126	1
128	1
129	3
130	9
131	19
132	59
133	51
134	298
135	121
136	79
137	57
138	19
139	3
141	1
143	1
144	2
145	3
146	22
147	21
148	216
149	130
150	155
151	37
152	9
153	3
155	3
157	1
161	7
162	1
163	2
164	72
165	135
166	15
167	11
168	3
172	1
181	1
186	37
187	9
188	3
197	1
199	25
200	2
201	100
202	11
203	5
212	5
213	7
214	3
215	1
229	51
230	9
231	3
