Mass Spectrum: Isobutyric acid, 2-chlorophenyl ester
Formula: C10H11ClO2
CAS: 104316-25-8
Molecular weight: 198
m/z	intensity
25	3
26	19
27	114
28	1
29	9
39	124
40	31
41	147
42	47
43	999
44	8
50	30
51	38
52	26
53	13
54	3
55	19
56	6
60	5
61	10
62	25
63	92
64	74
65	39
66	16
67	4
69	5
70	254
71	628
72	40
73	71
74	15
75	35
76	13
77	13
78	9
79	37
80	7
86	4
87	3
88	4
89	6
90	3
91	12
92	33
93	7
94	23
96	3
99	70
100	9
101	24
102	7
103	9
105	4
107	5
108	14
109	4
110	7
111	27
113	8
115	26
117	4
127	21
128	571
129	103
130	195
131	36
139	4
155	3
198	35
199	3
200	13
201	1
