Mass Spectrum: (Z)-Allyl(prop-1-en-1-yl)sulfane
Formula: C6H10S
CAS: 104324-69-8
Molecular weight: 114
m/z	intensity
27	45
29	40
37	34
38	65
39	608
41	722
42	24
45	999
46	75
47	137
50	31
53	84
54	37
55	90
57	57
58	76
59	100
60	62
61	29
65	105
66	46
67	87
68	139
69	128
71	339
72	461
73	534
74	100
75	26
77	30
79	251
80	134
81	700
82	32
83	20
85	206
86	33
87	17
99	891
100	47
101	15
113	71
114	926
115	62
116	63
