Mass Spectrum: Pivalate, (2-nitro-1H-1-indenyl) ester
Formula: C14H15NO4
CAS: 104313-33-9
Molecular weight: 261
m/z	intensity
25	1
27	21
28	8
29	101
30	4
31	1
37	1
38	4
39	47
40	5
41	222
42	21
43	13
44	3
45	2
50	12
51	18
52	8
53	4
55	15
56	13
57	999
58	39
59	5
61	2
63	37
64	12
65	3
69	18
70	4
71	2
74	13
75	23
76	35
77	22
78	3
83	2
85	270
86	16
87	18
88	34
89	25
90	10
91	6
98	1
99	1
100	1
101	19
102	292
103	35
104	10
105	3
112	2
113	48
114	95
115	57
116	27
117	10
118	9
119	20
120	2
128	2
129	8
130	68
131	897
132	66
133	6
135	1
141	1
143	13
144	35
145	26
146	4
147	6
156	4
157	1
159	70
160	66
161	40
162	7
169	6
171	1
172	1
176	1
177	87
178	9
187	400
188	60
189	3
215	335
216	37
217	3
261	11
262	4
