Mass Spectrum: Oxazole, 5-(diethoxymethyl)-
Formula: C8H13NO3
CAS: 104336-01-8
Molecular weight: 171
m/z	intensity
25	0
26	11
27	82
28	42
29	201
30	10
31	22
38	2
39	12
40	62
41	36
42	40
43	50
44	6
45	20
46	1
47	209
48	3
49	3
50	1
51	2
52	14
53	9
54	4
55	10
56	7
57	25
58	8
59	5
60	1
65	1
67	2
68	82
69	17
70	36
71	16
72	5
73	5
74	1
75	125
76	3
77	3
78	1
79	2
80	1
81	5
82	6
83	11
84	2
85	6
86	5
87	4
88	1
91	1
95	1
96	10
97	10
98	999
99	60
100	7
101	3
102	2
103	150
104	9
105	2
106	1
109	1
110	0
111	1
112	1
113	1
114	20
115	10
116	2
125	1
126	741
127	66
128	7
129	2
130	1
140	1
141	2
142	5
143	5
144	5
155	2
170	2
171	17
172	2
