Mass Spectrum: Bis(dodecanamido)methane
Formula: C45H90N2O2
CAS: 10436-15-4
Molecular weight: 690
m/z	intensity
27	24
28	19
29	91
30	31
32	5
39	20
40	5
41	235
42	54
43	467
44	53
45	17
53	13
54	26
55	295
56	84
57	481
58	37
59	999
60	162
61	6
65	3
67	52
68	22
69	175
70	78
71	255
72	470
73	105
74	7
77	3
79	9
80	6
81	61
82	35
83	152
84	63
85	162
86	86
87	14
91	4
93	9
94	6
95	89
96	41
97	148
98	103
99	65
100	31
101	30
107	7
108	4
109	54
110	40
111	76
112	36
113	41
114	79
115	61
116	5
121	9
122	5
123	34
124	30
125	35
126	27
127	29
128	101
129	12
130	6
135	8
136	4
137	23
138	21
139	17
140	28
141	20
142	20
143	8
149	7
151	10
152	14
153	10
154	18
155	14
156	15
157	5
163	3
165	5
166	11
167	7
168	13
169	10
170	22
171	5
179	4
180	9
181	7
182	11
183	8
184	21
185	4
193	3
194	10
195	8
196	9
197	6
198	12
199	3
208	11
209	11
210	11
211	6
212	10
213	3
222	13
223	12
224	10
225	4
226	10
227	4
236	14
237	13
238	9
239	4
240	14
241	4
250	15
251	12
252	11
253	4
254	14
255	4
264	15
265	10
266	10
267	4
268	9
278	16
279	8
280	9
281	4
282	9
283	3
292	10
293	4
294	9
295	7
296	45
297	9
305	9
306	5
308	15
309	5
310	20
311	6
320	3
321	24
322	26
323	323
324	81
325	11
336	3
338	10
339	163
340	48
341	7
350	7
351	15
352	5
353	4
367	21
368	5
410	10
411	3
690	4
