Mass Spectrum: 2-Nitrohept-2-en-1-ol
Formula: C7H13NO3
CAS: 104313-51-1
Molecular weight: 159
m/z	intensity
26	28
27	419
28	114
29	356
30	96
31	183
37	7
38	23
39	338
40	92
41	999
42	256
43	726
44	68
45	62
46	11
47	18
48	8
50	21
51	50
52	32
53	364
54	94
55	747
56	208
57	551
58	58
59	44
60	32
62	9
63	13
65	49
66	41
67	314
68	90
69	345
70	265
71	564
72	47
73	57
74	17
75	12
77	83
78	16
79	152
80	44
81	81
82	29
83	109
84	47
85	43
86	254
87	86
88	13
89	8
91	44
93	116
94	84
95	388
96	81
97	45
98	66
99	88
100	57
101	10
102	8
104	14
105	27
106	8
107	13
109	8
110	9
111	20
112	42
113	38
114	12
116	43
117	10
123	8
124	21
125	9
126	9
128	7
130	37
131	7
141	22
142	24
