Mass Spectrum: 1,3,4-Oxadiazol-2-amine, N-isopropyl-5-[3-[3-(piperidinomethyl)phenoxy]propylamino]-
Formula: C20H31N5O2
CAS: 104379-26-2
Molecular weight: 373
m/z	intensity
41	320
42	360
43	550
44	180
55	140
56	180
57	180
58	180
70	450
84	999
98	410
100	410
107	270
108	230
142	270
184	320
190	140
191	230
273	110
274	20
290	90
373	50
