Mass Spectrum: Quifenadine
Formula: C20H23NO
CAS: 10447-39-9
Molecular weight: 293
m/z	intensity
15	5
26	2
27	22
28	26
29	28
30	20
31	1
37	1
38	2
39	40
40	6
41	96
42	435
43	92
44	212
45	7
46	1
47	1
49	1
50	17
51	90
52	18
53	53
54	91
55	247
56	96
57	41
58	69
59	4
60	2
61	2
62	3
63	13
64	3
65	23
66	7
67	33
68	71
69	153
70	123
71	38
72	5
73	2
74	23
75	9
76	22
77	506
78	70
79	47
80	29
81	56
82	216
83	55
84	13
85	2
86	6
87	3
88	3
89	15
90	14
91	158
92	16
94	35
95	86
96	906
97	999
98	116
99	7
100	2
101	6
102	12
103	31
104	12
105	773
106	61
107	6
108	36
109	26
110	186
111	266
112	35
113	12
114	4
115	100
116	22
117	29
118	14
119	4
120	5
121	1
122	1
124	1
125	2
126	11
127	28
128	45
129	45
130	17
131	40
132	15
133	23
134	4
135	1
138	10
139	12
140	2
141	17
142	6
143	8
144	9
145	19
146	12
147	2
148	1
150	4
151	13
152	49
153	24
154	15
155	15
156	3
157	5
158	79
159	38
160	17
161	3
162	3
163	13
164	9
165	58
166	14
167	34
168	6
169	2
170	2
171	2
172	17
173	31
174	14
175	18
176	15
177	6
178	30
179	12
180	4
181	16
182	16
183	438
184	59
185	8
186	10
187	4
188	101
189	32
190	12
191	22
192	9
193	9
194	3
195	3
196	6
197	1
198	6
199	1
200	3
201	2
202	59
203	27
204	15
205	11
206	4
207	2
208	1
209	3
210	1
213	1
214	3
215	11
216	10
217	7
218	4
219	3
220	2
221	3
222	12
223	2
224	1
228	1
229	2
230	1
231	5
232	2
233	2
234	2
235	1
236	2
237	1
243	1
244	1
246	1
247	1
248	1
249	1
252	3
253	1
262	1
263	1
264	1
274	7
275	10
276	76
277	19
278	2
291	1
292	47
293	176
294	39
295	5
