Mass Spectrum: 2,5-Dihydro-5-methoxy-2-furanone
Formula: C5H6O3
CAS: 10449-66-8
Molecular weight: 114
m/z	intensity
15	48
17	2
19	1
25	24
26	235
27	362
28	26
29	348
30	3
31	33
32	141
34	3
37	47
38	85
39	246
40	165
41	147
42	319
43	31
44	16
45	18
48	7
50	9
52	8
53	101
54	328
55	781
56	26
57	31
58	47
59	58
60	5
61	12
64	3
68	17
69	166
70	798
71	23
82	80
83	999
84	12
85	327
86	66
87	3
92	2
99	33
100	3
113	144
114	10
115	2
