Mass Spectrum: 2H-Quinolizin-1-ol, octahydro-, cis-
Formula: C9H17NO
CAS: 10447-19-5
Molecular weight: 155
m/z	intensity
53	33
54	70
55	261
56	81
57	29
67	27
68	43
69	75
70	45
71	29
80	23
81	23
82	102
83	999
84	154
94	14
96	114
97	218
98	659
99	61
110	186
111	625
112	73
113	26
114	10
120	4
122	6
124	148
125	20
126	41
127	14
134	7
136	33
137	8
138	65
139	7
140	14
154	261
155	454
156	45
