Mass Spectrum: (4-Bromobenzenesulfon)-O-toluide
Formula: C13H12BrNO2S
CAS: 10443-94-4
Molecular weight: 325
m/z	intensity
26	1
27	10
28	13
29	1
30	21
37	1
38	4
39	23
40	3
41	4
42	1
44	1
45	1
50	37
51	32
52	21
53	17
54	5
62	2
63	9
64	5
65	10
66	5
67	3
69	1
73	1
74	9
75	44
76	45
77	141
78	62
79	101
80	11
89	5
90	2
91	6
92	3
93	1
96	2
102	1
103	1
104	52
105	57
106	999
107	98
108	5
115	1
129	1
131	1
152	1
153	1
154	1
155	29
156	3
157	29
158	2
165	1
166	1
167	9
168	1
180	9
181	7
182	36
183	5
203	3
205	4
219	6
221	6
246	4
247	1
248	3
260	5
261	6
262	5
263	5
325	179
326	28
327	184
328	28
329	9
330	1
