Mass Spectrum: 3,5-Diphenyl-4,4-dimethyl-pyrazole-1,2-dioxide
Formula: C17H16N2O2
CAS: 104410-21-1
Molecular weight: 280
m/z	intensity
77	19
103	999
161	20
193	29
208	29
220	39
222	40
250	894
264	10
280	69
