Mass Spectrum: Decanoic acid, hexyl ester
Formula: C16H32O2
CAS: 10448-26-7
Molecular weight: 256
m/z	intensity
24	0
26	27
27	350
28	118
29	539
30	14
31	28
37	2
39	169
41	748
42	292
43	999
44	41
45	20
47	1
48	0
49	0
50	2
51	5
53	35
54	41
55	411
56	407
57	236
58	15
59	16
60	122
61	212
62	6
63	1
64	0
65	5
66	3
67	40
68	27
69	202
70	31
71	106
73	137
74	16
75	3
77	2
79	7
80	3
81	31
82	12
83	62
84	296
85	98
86	10
87	40
88	4
89	23
90	1
91	1
93	3
95	26
96	4
97	24
98	18
99	6
100	2
101	15
102	3
103	18
104	1
107	3
108	1
109	2
110	6
111	9
112	5
113	2
114	2
115	19
116	3
117	6
121	0
123	1
125	2
126	1
127	2
129	54
130	5
131	2
135	4
136	1
137	2
139	1
143	9
144	4
145	3
152	1
153	3
155	85
156	10
157	5
158	0
170	1
172	20
173	160
174	17
175	2
185	0
199	1
213	3
256	1
257	1
