Mass Spectrum: 2-Dimethylamino-4-(p-chlorophenyl)-(4H)-1,3-oxazine-5-carboxaldehyde
Formula: C13H13ClN2O2
CAS: 104409-68-9
Molecular weight: 264
m/z	intensity
26	18
27	97
29	91
30	24
36	80
38	23
39	68
40	23
41	90
42	250
43	110
44	220
45	19
50	100
51	170
52	34
53	80
54	20
55	70
56	33
57	66
58	14
61	12
62	28
63	59
64	16
65	24
66	10
67	25
68	10
69	360
70	190
71	999
72	240
73	17
74	68
75	190
76	68
77	150
78	25
79	16
81	27
82	38
83	25
84	8
85	17
86	9
87	12
89	22
91	30
92	10
93	10
95	23
96	10
97	48
98	60
99	51
100	19
101	180
102	210
103	310
104	40
105	18
111	80
112	32
113	25
114	23
115	33
116	10
117	11
119	11
123	16
125	20
126	10
127	11
128	16
129	19
130	11
131	620
132	85
133	12
135	11
136	20
137	85
138	74
139	80
140	24
141	19
150	10
151	10
152	34
153	260
154	24
157	23
158	11
159	280
160	30
163	10
164	10
165	160
166	140
167	67
168	45
169	13
175	15
192	15
193	22
194	45
195	17
196	15
207	45
208	9
209	17
210	10
211	10
213	10
221	45
223	14
229	140
230	20
235	130
236	35
237	39
238	13
263	35
264	230
265	42
266	73
267	10
