Mass Spectrum: 1,3-Propanediol, 2-((acetyloxy)methyl)-2-ethyl-, diacetate
Formula: C12H20O6
CAS: 10441-87-9
Molecular weight: 260
m/z	intensity
14	3
15	36
26	1
27	18
28	21
29	37
30	2
31	9
32	1
36	3
38	1
39	22
40	10
41	84
42	28
43	999
44	50
45	11
51	2
52	2
53	23
54	8
55	45
56	14
57	40
58	10
59	1
60	4
61	94
62	2
65	5
66	4
67	136
68	413
69	167
70	66
71	90
72	10
73	32
74	5
75	1
77	1
79	12
80	39
81	33
82	9
83	63
84	23
85	221
86	950
87	63
88	4
89	2
91	1
94	1
95	2
96	7
97	142
98	192
99	49
100	6
101	2
103	166
104	7
105	1
109	2
110	27
111	7
112	53
113	8
114	3
115	9
116	9
117	1
121	8
122	9
123	4
125	8
126	3
127	58
128	340
129	39
130	4
131	2
133	2
139	9
140	106
141	10
145	17
146	1
157	40
158	7
159	1
163	1
172	1
175	2
187	30
188	3
200	3
201	3
