Mass Spectrum: 4-Pyridinamine, N-methyl-N,3-dinitro-
Formula: C6H6N4O4
CAS: 104503-82-4
Molecular weight: 198
m/z	intensity
50	290
51	470
52	340
53	390
54	90
55	40
63	50
64	160
65	400
66	200
67	100
68	90
76	60
77	50
78	999
79	470
80	730
81	50
92	130
93	60
94	50
95	50
105	130
106	230
107	120
108	60
120	60
135	220
136	8
152	10
153	810
154	100
168	2
