Mass Spectrum: 7-Nitro-1-tetralone oxime acetate
Formula: C12H12N2O4
CAS: 104509-63-9
Molecular weight: 248
m/z	intensity
41	32
43	999
44	21
45	1
46	3
47	3
49	28
50	15
51	44
52	12
53	7
54	13
55	7
57	4
58	2
60	4
61	1
62	15
63	38
64	10
65	16
66	1
67	2
70	1
71	1
74	8
75	15
76	18
77	44
78	14
79	12
80	1
84	19
86	15
87	8
88	17
89	34
90	12
91	21
92	3
94	5
100	1
101	7
102	19
103	25
104	16
105	14
106	5
107	24
109	1
113	7
114	26
115	99
116	39
117	17
118	14
119	1
120	8
122	5
123	1
126	6
127	27
128	52
129	16
130	32
131	25
132	30
133	7
135	24
136	6
140	11
141	10
142	20
143	32
144	9
145	6
148	7
152	8
153	46
154	1
155	1
157	4
158	8
159	14
160	15
161	5
162	6
163	7
166	1
172	1
173	1
174	4
176	1
178	6
187	3
188	7
189	35
190	8
191	6
192	1
202	1
204	16
206	289
207	46
208	4
218	1
220	1
246	1
248	24
249	2
