Mass Spectrum: Stigmasta-5,22-diene, 3-methoxy-, (3.beta.,22E)-
Formula: C30H50O
CAS: 10453-25-5
Molecular weight: 426
m/z	intensity
41	412
42	32
43	510
44	17
45	44
47	20
48	8
49	10
50	5
51	3
52	4
53	70
55	999
56	50
57	162
58	15
59	7
65	32
66	15
67	244
68	33
69	410
70	40
71	278
72	18
73	15
77	89
78	8
79	217
80	34
81	398
82	74
83	575
84	116
85	58
86	43
87	3
88	6
91	221
92	45
93	237
94	61
95	237
96	75
97	216
98	20
99	5
103	14
104	7
105	243
106	49
107	198
108	37
109	106
110	41
111	41
112	6
113	3
115	21
116	13
117	72
118	24
119	130
120	72
121	102
122	35
123	106
124	32
125	13
126	3
127	6
128	17
129	34
130	18
131	87
132	32
133	194
134	39
135	74
136	13
137	52
138	21
139	52
140	7
141	11
142	12
143	57
144	30
145	167
146	40
147	125
148	20
149	33
150	6
151	30
152	7
153	4
154	3
155	12
156	10
157	48
158	40
159	136
160	32
161	65
162	15
163	29
164	7
165	21
166	24
167	5
169	9
170	4
171	26
172	12
173	58
174	16
175	30
176	10
177	21
178	8
179	4
180	5
181	3
183	10
184	5
185	31
186	12
187	31
188	9
189	19
190	6
191	10
192	3
197	14
198	6
199	33
200	9
201	18
202	5
203	13
204	3
205	6
211	20
212	12
213	68
214	20
215	37
216	11
217	19
218	4
219	3
225	11
226	6
227	21
228	21
229	22
230	8
231	13
232	4
233	3
239	16
240	11
241	21
242	6
243	18
244	8
245	14
246	7
253	33
254	25
255	185
256	43
257	16
258	17
259	8
260	8
267	23
268	7
269	6
270	14
271	55
272	44
273	25
274	5
281	14
282	26
283	28
284	22
285	81
286	44
287	25
288	6
295	7
296	7
297	3
299	22
300	49
301	19
302	4
309	9
310	3
313	15
314	63
315	17
327	15
328	16
329	4
351	63
352	26
353	8
354	3
355	5
365	5
369	14
370	4
379	25
380	6
383	11
384	5
394	58
395	19
396	4
397	8
398	3
410	16
411	80
412	25
413	5
426	160
427	49
428	9
