Mass Spectrum: 2(5H)-Furanone, 3-bromo-5-((dimethylamino)methyl)-4,5-dimethyl-
Formula: C9H14BrNO2
CAS: 104502-47-8
Molecular weight: 247
m/z	intensity
42	420
43	400
44	220
57	320
58	999
59	360
65	100
67	250
96	80
100	100
108	60
124	150
149	60
187	30
189	30
203	50
205	40
247	30
249	30
