Mass Spectrum: trans-4-Octylcyclohexylmethanol trimethylsilyl ether
Formula: C18H38OSi
CAS: 104519-19-9
Molecular weight: 298
m/z	intensity
41	245
43	234
44	87
45	71
54	48
55	247
57	108
58	38
59	90
61	78
67	279
68	70
69	167
71	51
73	667
74	58
75	999
76	70
77	59
79	48
81	553
82	97
83	139
89	178
93	49
95	547
96	129
97	100
103	529
104	48
105	79
109	275
110	69
111	78
123	128
125	40
137	49
151	38
179	39
207	130
208	59
283	765
284	168
285	49
