Mass Spectrum: Stannane, tributyl(pentafluorophenyl)-
Formula: C18H27F5Sn
CAS: 1045-56-3
Molecular weight: 458
m/z	intensity
26	71
27	265
28	156
29	999
30	27
31	25
36	23
37	13
38	15
39	168
40	22
41	771
42	34
43	33
44	14
50	16
51	13
52	3
53	22
54	10
55	86
56	61
57	409
58	23
68	7
69	7
74	7
75	15
79	13
80	14
99	39
116	15
117	14
118	23
119	16
120	27
122	6
124	6
135	41
136	21
137	65
138	23
139	85
141	13
143	16
151	9
152	6
153	18
154	7
155	25
156	2
157	10
159	6
168	59
169	6
173	12
174	8
175	21
176	10
177	30
178	6
179	14
181	7
211	7
212	6
213	12
214	7
215	15
216	2
217	6
219	4
230	4
232	6
234	7
265	27
266	16
267	48
268	25
269	67
270	12
271	27
273	12
283	31
284	20
285	108
286	51
287	168
288	42
289	144
291	27
293	24
333	12
341	45
342	31
343	78
344	36
345	108
346	12
347	15
348	18
397	68
398	47
399	126
400	57
401	180
402	25
403	24
405	32
