Mass Spectrum: Dimethyl(1-methylvinyl)chlorosilane
Formula: C5H11ClSi
CAS: 104583-59-7
Molecular weight: 134
m/z	intensity
39	117
40	7
41	60
63	177
64	19
65	178
66	7
67	50
78	47
79	138
80	30
81	46
92	37
93	999
94	98
95	337
96	21
106	60
108	8
119	527
120	58
121	176
122	18
133	40
134	141
135	17
136	49
137	8
