Mass Spectrum: 5.alpha.,14.beta.-Pregn-16-en-20-one, 3.beta.,14,15.alpha.-trihydroxy-
Formula: C21H32O4
CAS: 10453-01-7
Molecular weight: 348
m/z	intensity
26	11
27	58
29	216
30	23
31	171
33	3
34	2
36	4
37	4
38	8
39	66
40	23
41	288
42	35
43	999
44	74
45	35
46	5
47	9
48	3
49	3
50	9
51	22
52	14
53	124
54	28
55	359
56	32
57	148
58	19
59	15
60	23
61	9
62	7
63	10
64	11
65	60
66	28
67	51
68	256
69	177
70	30
71	70
72	12
73	20
74	10
75	8
76	11
77	136
78	33
79	183
80	62
81	207
82	59
83	102
84	31
85	38
86	13
87	11
88	7
89	16
90	7
91	195
92	43
93	185
94	69
95	160
96	51
97	129
98	28
99	36
100	40
101	12
102	14
103	23
104	28
105	139
106	67
107	205
108	83
109	153
110	57
111	99
112	33
113	24
114	13
115	38
116	19
117	58
118	27
119	105
120	42
121	162
122	125
123	117
124	114
125	719
126	107
127	88
128	27
129	44
130	23
131	76
132	39
133	107
134	44
135	147
136	44
137	89
138	69
139	73
140	100
141	31
142	24
143	48
144	32
145	104
146	45
147	153
148	52
149	117
150	278
151	390
152	91
153	88
154	30
155	27
156	13
157	41
158	27
159	81
160	32
161	95
162	111
163	212
164	100
165	56
166	15
167	28
168	55
169	25
170	11
171	40
172	25
173	115
174	27
175	68
176	20
177	51
178	17
179	13
180	10
181	218
182	35
183	24
184	8
185	44
186	35
187	234
188	178
189	70
190	25
191	138
192	25
193	14
194	7
195	16
196	7
197	18
198	7
199	25
200	100
201	33
202	12
203	34
204	18
205	60
206	84
207	18
208	9
209	6
210	4
211	12
212	15
213	32
214	9
215	23
216	7
217	16
218	8
219	11
220	5
221	9
222	6
223	9
224	6
225	15
226	4
227	14
228	5
229	6
230	11
231	22
232	13
233	11
234	4
235	9
236	6
237	15
238	4
239	16
240	4
241	15
242	6
243	31
244	6
245	5
246	3
247	3
248	10
249	13
250	78
251	37
252	10
253	8
254	6
255	14
256	8
257	23
258	7
259	9
260	2
261	7
262	3
263	6
264	3
265	8
266	6
267	4
268	6
269	56
270	19
271	9
272	3
273	43
274	13
275	2
276	4
277	7
278	5
279	35
280	6
281	7
282	4
283	70
284	22
285	12
286	7
287	109
288	33
289	11
290	3
291	4
292	4
293	5
294	9
295	5
296	4
297	66
298	15
299	7
300	3
301	26
302	14
303	4
304	3
305	18
306	7
309	9
312	76
313	42
314	16
315	89
316	19
317	6
318	3
319	29
320	14
321	12
322	3
323	5
324	3
325	3
326	2
327	2
328	5
329	5
330	160
331	45
332	11
333	23
334	7
335	3
346	5
347	4
348	486
349	129
350	19
351	5
