Mass Spectrum: 2(5H)-Furanone, 3-chloro-5-((dimethylamino)methyl)-4,5-dimethyl-
Formula: C9H14ClNO2
CAS: 104502-43-4
Molecular weight: 203
m/z	intensity
42	430
43	450
44	240
57	270
58	999
59	320
65	120
67	200
96	60
100	70
108	20
124	40
145	60
147	20
159	30
161	10
188	10
203	30
205	10
