Mass Spectrum: 3-Chloro-2,5-dihydro-4,5-dimethyl-5-[(4-morpholino)methyl]-2-furanone
Formula: C11H16ClNO3
CAS: 104502-46-7
Molecular weight: 245
m/z	intensity
41	370
42	460
43	450
44	270
57	530
58	250
59	500
60	90
70	410
72	370
78	80
98	430
99	70
100	999
101	450
102	80
145	80
146	40
147	40
149	60
245	30
247	10
