Mass Spectrum: Diacetyl-5-timolol-l-tartaric acid monoester
Formula: C21H32N4O10S
CAS: 104535-44-6
Molecular weight: 532
m/z	intensity
43	967
56	579
57	371
60	242
74	126
86	999
96	163
112	825
113	100
114	130
128	84
130	165
144	60
154	44
170	33
172	50
187	55
188	46
211	16
230	27
243	17
244	15
258	9
286	26
301	75
317	131
330	21
332	11
346	201
347	31
371	7
385	5
388	34
403	5
413	3
429	22
430	5
445	2
459	3
473	2
475	2
487	3
502	1
503	6
517	68
518	12
532	54
533	11
