Mass Spectrum: 2-(4-Chloro-2-nitrophenyl)-5-methylfuran
Formula: C11H8ClNO3
CAS: 1045704-63-9
Molecular weight: 237
m/z	intensity
29	69
30	286
34	2
35	9
36	21
37	43
38	56
39	91
40	33
41	49
43	999
45	9
46	12
47	6
49	33
50	169
51	208
52	68
53	113
54	14
55	23
56	70
60	11
61	46
62	80
63	201
64	65
67	3
68	15
69	50
70	5
71	10
72	17
73	63
74	154
75	207
76	41
77	75
78	46
79	11
81	9
82	4
84	20
85	32
86	64
87	89
88	53
89	40
90	7
95	4
97	80
98	28
99	41
100	17
101	63
102	52
103	13
104	3
105	1
108	3
109	15
110	88
111	115
112	44
113	163
114	51
115	109
116	69
117	7
119	11
121	4
122	21
123	164
124	122
125	92
126	119
127	209
128	266
129	32
130	6
132	3
135	13
136	26
137	11
138	114
139	32
140	36
141	9
143	5
144	32
145	3
147	14
148	26
150	378
151	91
152	138
153	42
154	14
155	17
156	6
157	2
158	2
159	4
160	8
161	6
162	29
163	13
164	29
165	6
166	42
167	10
168	27
169	5
170	7
171	3
173	2
176	4
178	226
179	47
180	84
181	13
182	2
183	4
184	2
185	4
186	20
187	5
190	1
192	10
193	1
194	8
195	90
196	11
197	29
198	3
204	15
205	1
206	11
207	4
208	3
209	2
220	11
222	428
223	51
224	142
225	19
226	14
228	7
236	8
237	244
238	32
239	83
240	6
