Mass Spectrum: 6,6-Dimethyl-1,5-diazabicyclo[3.1.0]hexane
Formula: C6H12N2
CAS: 104518-69-6
Molecular weight: 112
m/z	intensity
27	102
28	178
29	35
30	51
38	18
39	162
40	58
41	258
42	571
43	76
44	56
45	4
54	79
55	147
56	402
57	33
58	3
68	100
69	245
70	164
71	85
72	7
82	49
83	765
84	137
85	16
111	999
112	349
113	24
114	6
