Mass Spectrum: 4,6-dimethyl-2-(propan-2-yl)-1,3,5-dithiazinane
Formula: C8H17NS2
CAS: 104691-40-9
Molecular weight: 191
m/z	intensity
42	22
44	999
55	52
56	71
59	18
60	33
69	251
70	259
71	342
88	33
103	131
190	63
191	101
