Mass Spectrum: 2,3,5,6,7,8,9-Heptahydro-1-phenyl-5-(p-bromophenylimino)-1H-benzo[e][1,4]thiazepine
Formula: C21H21BrN2S
CAS: 104672-84-6
Molecular weight: 412
m/z	intensity
15	16
17	18
18	50
25	14
26	49
27	174
28	87
29	54
32	13
34	18
35	23
38	27
39	160
40	27
41	131
42	23
44	14
45	215
46	22
47	18
50	104
51	333
52	68
53	54
54	39
55	41
57	14
58	58
59	182
60	160
61	105
62	27
63	73
64	41
65	108
66	63
67	78
68	18
69	32
70	30
71	37
72	16
74	24
75	119
76	182
77	999
78	122
79	50
80	17
82	14
84	18
85	18
86	17
87	17
88	73
89	55
90	64
91	104
92	40
93	68
94	22
97	17
99	14
100	19
101	25
102	68
103	67
104	78
105	23
106	19
108	17
109	25
110	14
111	18
112	17
113	18
114	41
115	91
116	50
117	287
118	76
119	103
120	21
121	16
122	18
126	17
127	46
128	70
129	49
130	178
131	31
132	21
134	17
135	30
136	40
137	17
138	34
139	33
140	50
141	46
142	41
143	94
144	40
145	51
146	23
149	14
150	14
151	23
152	78
153	32
154	48
155	158
156	35
157	105
158	24
159	27
160	18
164	23
165	27
166	87
167	123
168	64
169	40
170	137
171	49
172	18
173	27
174	23
175	22
177	21
178	23
179	32
180	59
181	40
182	55
183	30
184	42
185	25
186	40
187	21
188	41
189	17
190	32
191	19
192	18
193	37
194	18
195	67
196	46
197	119
198	32
199	42
200	26
201	22
202	64
203	27
204	32
205	23
206	59
207	66
208	46
209	21
210	35
211	17
212	26
213	46
214	67
215	51
216	34
217	50
218	32
219	15
221	16
223	23
224	14
225	15
227	14
228	23
229	63
230	43
231	37
232	14
233	27
234	14
235	23
240	16
241	22
242	224
243	114
244	105
245	46
246	32
247	27
248	23
249	19
250	23
255	22
256	16
257	32
258	23
259	17
260	17
261	15
263	15
266	16
267	14
268	26
269	17
270	23
271	86
272	57
273	27
274	22
275	23
276	23
277	25
278	14
284	16
286	15
292	22
293	17
294	19
295	21
296	23
297	26
298	23
299	24
305	18
307	22
308	13
309	30
310	15
311	23
318	15
320	95
321	41
322	104
323	50
324	45
325	100
326	50
327	90
328	23
333	18
335	18
336	14
337	18
338	13
349	21
350	16
351	63
352	82
353	73
354	76
355	41
357	27
358	14
365	31
366	18
367	26
368	19
369	18
371	13
379	33
380	17
381	41
382	33
383	96
384	342
385	160
386	338
387	91
388	27
397	23
399	23
410	21
411	55
412	283
413	114
414	285
415	81
416	32
