Mass Spectrum: Cyclohexanamine, N-cyclohexylidene-
Formula: C12H21N
CAS: 10468-40-3
Molecular weight: 179
m/z	intensity
25	1
26	21
27	209
28	116
29	168
30	105
31	4
32	5
35	0
36	1
37	3
38	9
39	207
40	38
41	614
42	183
43	138
44	26
45	2
46	1
47	0
48	0
49	1
50	7
51	21
52	18
53	127
54	405
55	680
56	456
57	32
58	5
59	1
60	2
61	0
62	1
63	3
64	1
65	19
66	17
67	168
68	108
69	237
70	128
71	9
72	1
73	2
74	0
75	2
76	0
77	33
78	8
79	64
80	102
81	161
82	159
83	308
84	23
85	1
86	0
87	0
89	0
90	0
91	13
92	6
93	13
94	58
95	30
96	153
97	80
98	999
99	107
100	7
101	0
103	1
104	1
105	3
106	8
107	6
108	46
109	20
110	37
111	26
112	2
115	0
116	0
117	1
118	1
119	3
120	6
121	4
122	77
123	75
124	100
125	37
126	3
127	1
128	0
131	0
132	2
133	2
134	10
135	3
136	483
137	107
138	69
139	6
143	0
147	0
148	3
149	4
150	109
151	31
152	3
159	0
162	1
163	0
164	55
165	6
166	0
175	0
176	2
177	3
178	75
179	335
180	50
181	6
