Mass Spectrum: Spiro[3.4]octan-5-one
Formula: C8H12O
CAS: 10468-36-7
Molecular weight: 124
m/z	intensity
26	27
27	190
28	66
29	35
30	0
31	1
37	6
38	27
39	313
40	322
41	190
42	59
43	22
45	9
46	1
47	1
50	24
51	44
52	27
53	194
54	114
55	152
56	22
57	18
60	6
61	1
62	6
63	12
64	3
65	32
66	60
67	761
68	999
69	56
70	8
77	20
78	12
79	59
80	55
81	157
82	49
83	30
84	4
91	19
92	2
93	16
94	4
95	171
96	363
98	2
105	1
106	15
107	4
109	53
110	3
123	27
124	364
125	32
