Mass Spectrum: Benzene, 1-isocyano-2-methyl-
Formula: C8H7N
CAS: 10468-64-1
Molecular weight: 117
m/z	intensity
50	65
51	85
52	24
62	65
63	141
64	61
65	44
75	30
76	24
77	44
86	10
87	16
88	24
89	384
90	622
91	91
92	10
93	10
103	20
114	10
115	20
116	576
117	999
118	97
119	6
