Mass Spectrum: 6-Amino-2-(pyrrolidin-1-yl)-3H-pyrimidin-4-one
Formula: C8H12N4O
CAS: 104637-60-7
Molecular weight: 180
m/z	intensity
37	10
38	68
39	457
40	369
41	837
42	592
43	511
44	90
45	11
50	8
51	17
52	28
53	167
54	73
55	355
56	58
57	32
64	6
65	18
66	52
67	133
68	764
69	273
70	999
71	42
72	5
78	13
81	8
82	17
83	37
84	124
85	86
92	5
93	18
94	9
95	90
96	13
97	58
98	11
99	4
109	6
110	180
111	123
112	18
124	8
125	51
126	3
138	42
139	24
150	6
151	809
152	367
153	30
162	5
163	7
179	32
180	486
181	51
182	5
