Mass Spectrum: 2,4-dimethyl-6-(propan-2-yl)-1,3,5-dithiazinane
Formula: C8H17NS2
CAS: 104691-41-0
Molecular weight: 191
m/z	intensity
41	19
42	38
44	999
55	73
56	182
57	46
59	58
60	118
72	759
84	260
87	13
88	66
97	31
98	211
99	143
131	99
191	147
