Mass Spectrum: 4-Hydroxy-N,N-diethylcyclohexanamine
Formula: C10H21NO
CAS: 104618-20-4
Molecular weight: 171
m/z	intensity
41	196
42	306
43	240
44	260
46	18
47	1
49	17
51	12
52	4
53	52
54	86
56	508
58	214
59	6
60	3
63	4
65	6
66	2
68	134
70	276
71	263
72	305
74	51
75	1
77	16
79	49
81	175
82	43
84	267
85	31
86	31
87	2
93	1
94	11
96	111
97	87
98	241
99	210
100	12
101	1
106	1
108	9
110	18
112	999
113	308
114	33
115	2
116	2
122	5
124	81
125	15
126	5
127	0
129	2
134	2
136	2
138	15
139	1
141	81
142	6
143	5
149	2
151	5
152	16
154	96
155	36
156	3
168	2
169	5
170	290
171	402
172	28
