Mass Spectrum: 1-Nitrocyclopropanecarboxylic acid, 2,6-di-t-butyl-4-methoxy-phenyl ester
Formula: C19H27NO5
CAS: 104755-90-0
Molecular weight: 349
m/z	intensity
25	2
26	8
27	36
28	22
29	125
30	280
31	10
36	2
37	4
38	10
39	110
40	193
41	306
42	19
43	58
44	7
45	18
46	2
50	5
51	20
52	10
53	44
54	8
55	142
56	16
57	999
58	49
59	48
60	4
61	1
62	2
63	9
64	5
65	38
66	12
67	65
68	46
69	73
70	10
71	8
72	2
73	568
74	31
75	5
76	4
77	72
78	21
79	60
80	9
81	30
82	5
83	42
84	8
85	7
86	1
87	2
88	2
89	8
90	5
91	130
92	22
93	37
94	9
95	22
96	5
97	11
98	8
99	10
100	1
101	4
102	7
103	32
104	14
105	86
106	15
107	55
108	14
109	23
110	7
111	5
112	1
113	18
114	111
115	47
116	22
117	38
118	13
119	97
120	22
121	74
122	25
123	34
124	14
125	9
126	3
127	14
128	30
129	38
130	21
131	37
132	15
133	75
134	29
135	143
136	38
137	53
138	12
139	11
140	3
141	12
142	8
143	14
144	13
145	43
146	25
147	55
148	21
149	66
150	23
151	74
152	13
153	10
154	3
155	6
156	3
157	10
158	13
159	24
160	20
161	50
162	25
163	33
164	83
165	56
166	8
167	9
168	2
169	2
170	4
171	6
172	9
173	13
174	8
175	192
176	34
177	89
178	23
179	538
180	77
181	8
182	2
183	4
184	2
185	4
186	3
187	8
188	11
189	14
190	9
191	19
192	9
193	17
194	3
195	3
199	2
200	2
201	3
202	3
203	55
204	14
205	84
206	14
207	141
208	23
209	3
213	4
214	13
215	5
216	3
217	7
218	4
219	23
220	31
221	20
222	4
227	2
228	2
229	2
230	3
231	5
232	4
233	3
234	12
235	976
236	185
237	21
238	2
245	3
246	6
247	20
248	4
249	2
250	1
255	2
256	1
257	1
258	1
259	1
260	8
261	3
262	2
263	1
269	2
270	15
271	4
272	1
273	3
274	2
275	1
276	4
277	1
278	7
279	1
280	2
284	1
287	1
288	1
289	2
290	1
291	1
292	3
293	3
294	2
302	1
303	1
304	1
316	11
317	2
318	1
333	4
334	23
335	5
336	1
349	387
350	88
351	15
352	2
