Mass Spectrum: 5,6-Secocholestan-6-oic acid, 3-(acetyloxy)-5-oxo-, (3.beta.)-
Formula: C29H48O5
CAS: 10473-42-4
Molecular weight: 476
m/z	intensity
41	76
42	100
43	193
45	188
60	188
79	39
81	80
83	38
105	53
107	61
108	50
109	80
110	999
111	137
119	24
121	24
122	12
247	30
331	14
357	19
370	11
398	8
