Mass Spectrum: Tris(perfluoro(2-isopropoxyethyl))-methylsilane
Formula: C16H3F33O3Si
CAS: 104745-21-3
Molecular weight: 898
m/z	intensity
69	999
81	68
85	179
95	67
97	129
100	103
119	48
131	204
147	103
159	48
169	288
181	204
197	27
216	109
235	124
247	34
265	20
267	48
297	103
319	41
325	26
333	13
347	274
375	13
397	12
463	19
479	19
491	13
513	260
514	20
532	34
