Mass Spectrum: Imidazole, 4-trifluoromethyl-5-nitro-
Formula: C4H2F3N3O2
CAS: 104752-68-3
Molecular weight: 181
m/z	intensity
41	29
43	40
44	60
45	36
46	149
50	69
51	30
53	185
54	26
55	25
57	35
58	280
65	28
66	91
69	999
70	176
71	13
76	24
77	46
78	22
81	121
84	67
85	24
