Mass Spectrum: 3-Buten-2-ol, 2,3-dimethyl-
Formula: C6H12O
CAS: 10473-13-9
Molecular weight: 100
m/z	intensity
14	2
15	25
18	1
19	1
26	6
27	51
28	10
29	89
30	3
31	102
36	1
37	10
38	34
39	300
40	34
41	442
42	92
43	709
44	11
45	24
50	15
51	25
52	9
53	32
54	13
55	126
56	13
57	477
58	120
59	892
63	11
64	1
65	27
67	117
69	24
84	44
85	999
86	66
99	2
100	29
