Mass Spectrum: 2-(E)-Hexenoic acid, (4S)-4-[(t-butoxycarbonyl)amino]-5-methyl-, ethyl ester
Formula: C14H25NO4
CAS: 104700-38-1
Molecular weight: 271
m/z	intensity
26	3
27	37
28	17
29	108
30	7
31	8
35	0
37	0
38	0
39	26
40	5
41	137
42	12
43	33
44	4
45	6
46	0
47	0
50	0
51	1
52	3
53	10
54	21
55	40
56	42
57	999
58	45
59	34
60	1
61	11
62	1
63	0
65	3
66	2
67	9
68	2
69	6
70	4
71	5
72	24
73	6
74	1
77	1
78	0
79	4
80	3
81	19
82	45
83	22
84	10
85	2
86	0
87	2
88	1
89	0
91	0
92	0
93	0
94	1
95	11
96	5
97	2
98	27
99	5
100	26
101	2
102	0
103	0
106	0
107	0
108	1
109	21
110	12
111	2
112	1
113	0
114	0
115	0
116	14
117	1
119	0
120	1
122	0
123	0
124	10
125	8
126	73
127	22
128	622
129	50
130	6
131	3
139	0
140	0
141	1
142	24
143	3
144	1
145	0
146	0
151	0
152	18
153	1
154	6
155	10
156	7
157	0
160	1
164	1
167	0
168	0
169	5
170	8
171	9
172	269
173	29
174	4
175	0
183	0
184	12
185	5
186	0
187	1
190	0
198	49
199	6
200	2
201	0
214	1
215	48
216	6
217	0
220	0
225	0
226	0
228	146
229	18
230	2
256	1
257	0
271	14
272	2
273	0
