Mass Spectrum: Bis(perfluoro(2-isopropyloxyethyl)-dimethylsilane
Formula: C12H6F22O2Si
CAS: 104745-20-2
Molecular weight: 628
m/z	intensity
69	137
77	999
81	58
85	68
147	80
193	40
197	39
243	978
247	671
266	40
347	50
