Mass Spectrum: 2-Butenoic acid, 4-[(t-butoxycarbonyl)amino]-, ethyl ester
Formula: C11H19NO4
CAS: 104700-36-9
Molecular weight: 229
m/z	intensity
26	2
27	24
28	25
29	151
30	18
31	19
38	0
39	29
40	11
41	215
42	11
43	24
44	8
45	9
46	0
47	5
50	0
51	0
52	1
53	4
54	23
55	52
56	163
57	999
58	48
59	124
60	4
62	0
66	12
67	3
68	36
69	2
70	2
71	5
72	5
73	4
74	1
75	0
80	0
81	2
82	86
83	237
84	302
85	55
86	4
87	1
89	1
90	0
95	0
96	1
97	0
98	3
99	15
100	268
101	41
102	2
109	20
110	75
111	3
112	4
113	15
114	1
117	5
118	0
123	0
124	0
126	12
127	350
128	143
129	165
130	22
131	1
142	1
144	39
145	3
146	0
147	0
155	2
156	239
157	20
158	2
170	7
171	0
172	0
173	335
174	30
175	3
183	1
214	0
