Mass Spectrum: (E)-3,7-Dimethylocta-2,6-dien-1-yl decanoate
Formula: C20H36O2
CAS: 10471-94-0
Molecular weight: 308
m/z	intensity
27	24
28	58
29	69
31	6
38	7
39	70
40	27
41	529
42	63
43	241
50	5
52	16
53	63
54	12
55	139
56	34
57	141
59	14
60	11
65	14
66	14
67	210
68	606
69	999
70	44
71	151
72	12
77	28
79	60
80	326
81	123
82	26
84	17
85	101
87	7
91	21
92	128
93	555
94	119
95	54
98	7
107	91
108	30
109	20
110	10
111	9
116	5
118	8
119	16
120	6
121	407
122	28
123	54
133	17
135	17
136	135
137	42
138	5
139	8
143	8
154	24
155	98
156	10
157	4
159	5
178	6
201	3
206	6
208	9
223	5
239	7
