Mass Spectrum: Imidazole, 2-trifluoromethyl-4,5-dinitro-
Formula: C4HF3N4O4
CAS: 104752-70-7
Molecular weight: 226
m/z	intensity
42	27
43	33
44	32
45	108
46	999
47	199
51	377
52	9
53	7
55	18
56	10
57	21
58	13
59	8
60	8
61	17
62	2
63	28
65	317
67	7
69	15
70	5
71	12
73	7
74	6
75	7
76	2
77	23
78	73
79	15
81	8
83	7
85	8
87	3
89	27
91	26
92	10
93	10
94	6
95	23
97	9
99	6
101	2
103	22
104	11
105	15
106	31
107	105
108	9
109	6
111	6
113	2
114	13
115	12
116	14
117	23
118	7
119	8
121	7
122	3
123	3
124	27
125	10
127	2
129	5
130	2
131	2
132	3
135	2
139	4
141	2
149	8
167	3
177	5
182	9
226	2
