Mass Spectrum: 2-Propenoic acid, 2-propynyl ester
Formula: C6H6O2
CAS: 10477-47-1
Molecular weight: 110
m/z	intensity
13	1
15	1
24	2
25	14
26	74
27	263
29	23
30	1
31	1
36	3
37	40
38	81
39	304
40	27
41	3
42	3
43	7
44	5
45	6
50	3
51	4
52	6
53	45
54	90
55	999
56	41
57	3
63	2
64	3
65	26
66	9
68	15
69	2
81	44
82	43
83	2
84	1
92	6
95	1
109	1
