Mass Spectrum: 3-Nitrobenzoic acid, 2-diethylaminoethyl ester
Formula: C13H18N2O4
CAS: 10474-98-3
Molecular weight: 266
m/z	intensity
27	11
28	30
29	43
30	89
31	2
40	5
41	10
42	38
43	10
44	24
50	14
51	4
54	5
55	7
56	50
57	16
58	127
59	4
63	3
64	4
65	7
68	2
69	4
70	19
71	21
72	11
74	3
75	14
76	58
77	9
81	2
83	2
84	29
85	4
86	999
87	89
88	2
91	4
92	14
93	3
97	3
98	3
99	38
100	18
103	3
104	69
105	7
114	2
115	2
119	3
120	8
121	4
122	3
136	3
137	2
140	2
148	22
149	9
150	91
151	8
164	6
167	3
178	3
194	130
195	14
196	2
251	30
252	4
265	5
266	15
267	3
