Mass Spectrum: Benzenepropanamine, N,N,.alpha.-trimethyl-
Formula: C12H19N
CAS: 104828-64-0
Molecular weight: 177
m/z	intensity
26	1
27	10
28	7
29	7
30	4
38	1
39	15
40	2
41	12
42	36
43	9
44	35
45	4
46	1
49	0
50	3
51	12
52	4
53	3
54	2
55	7
56	27
57	11
58	34
59	1
62	1
63	6
64	2
65	25
66	1
67	0
68	2
69	2
70	31
71	25
72	999
73	55
74	1
75	1
76	2
77	13
78	7
79	5
81	0
82	1
83	1
84	7
85	9
86	6
89	5
90	2
91	142
92	12
93	1
97	0
98	2
99	3
100	1
101	0
102	2
103	5
104	6
105	5
106	1
113	1
115	6
116	3
117	14
118	2
127	1
128	2
129	1
130	1
131	3
132	3
133	1
134	1
141	1
142	0
143	0
144	0
146	1
161	1
162	68
163	9
164	0
176	4
177	32
178	4
