Mass Spectrum: 4,5-Tetramethylenetetrahydro-1,3-oxazine-2-thione
Formula: C8H13NOS
CAS: 104893-74-5
Molecular weight: 171
m/z	intensity
12	6
13	2
14	18
15	69
16	22
17	58
18	112
19	4
25	4
26	40
27	580
28	675
29	301
30	148
31	41
32	36
33	14
38	26
39	740
40	12
41	999
42	243
43	851
44	78
45	44
46	10
47	17
50	24
51	76
52	63
53	270
54	466
55	432
56	513
57	121
58	13
59	47
60	66
61	31
62	16
63	13
64	6
65	59
66	43
67	378
68	269
69	168
70	175
71	14
72	31
73	6
74	10
75	7
76	4
77	76
78	22
79	176
80	49
81	108
82	378
83	175
84	24
85	13
86	16
87	5
88	4
89	4
90	2
91	35
92	4
93	39
94	66
95	149
96	229
97	18
98	10
99	8
100	9
101	2
102	11
108	5
109	6
110	68
111	13
112	9
113	4
114	4
115	16
116	17
117	6
128	14
129	4
138	31
139	5
140	4
156	6
170	6
171	472
172	45
173	18
