Mass Spectrum: 5.beta.,6.beta.-Epoxy-7-bromocholestan-3-one
Formula: C27H43BrO2
CAS: 104825-82-3
Molecular weight: 478
m/z	intensity
41	569
42	109
43	999
44	141
45	40
53	132
55	672
56	98
57	464
65	59
66	53
67	300
68	75
69	363
70	54
71	228
77	155
78	37
79	291
80	84
81	401
82	86
83	220
85	40
91	216
92	40
93	239
94	70
95	330
96	39
97	155
99	33
105	224
106	48
107	198
108	49
109	195
110	40
111	74
115	30
117	61
119	114
120	34
121	167
122	70
123	97
129	45
131	81
133	101
134	38
135	131
136	55
137	120
138	82
139	157
143	45
145	83
147	134
148	28
149	88
157	43
159	67
160	30
161	72
163	49
165	33
171	40
173	80
175	67
177	34
185	44
186	32
187	47
188	31
189	42
190	35
191	45
199	45
201	38
213	30
215	34
227	223
228	48
229	42
241	131
242	30
243	37
245	47
259	32
261	43
267	32
269	36
285	44
381	284
382	115
383	39
398	74
399	721
400	295
401	51
