Mass Spectrum: Benzene, 1-bromo-4-(4-nitrobenzylidenamino)-
Formula: C13H9BrN2O2
CAS: 10480-19-0
Molecular weight: 304
m/z	intensity
34	6
35	0
36	3
37	74
38	179
39	364
40	102
41	36
43	46
44	46
46	67
48	3
50	957
51	471
52	86
53	14
54	6
55	16
56	6
57	13
58	4
59	2
60	5
61	62
62	219
63	456
64	126
65	210
66	15
67	5
68	2
69	9
70	7
71	7
72	3
73	35
74	250
75	683
76	999
77	284
78	26
79	21
80	19
81	17
82	19
83	7
84	7
85	12
86	36
87	48
88	57
89	248
91	19
92	17
93	45
94	5
95	5
96	1
97	5
98	11
99	20
100	15
101	25
102	106
103	42
104	12
105	7
106	4
107	6
108	2
109	2
110	3
111	5
112	5
113	12
114	14
115	13
116	7
117	11
118	7
119	11
120	3
121	2
122	2
123	4
124	5
125	16
126	29
127	16
128	16
129	19
130	6
131	11
132	0
133	0
134	1
135	1
136	0
137	2
138	3
139	26
140	22
141	6
142	2
143	4
144	1
145	3
146	1
147	1
148	2
149	10
150	52
151	143
152	236
153	62
154	24
155	263
156	37
157	248
158	19
159	0
160	0
162	0
163	0
164	4
165	6
166	35
167	120
168	17
169	2
170	1
171	2
172	0
173	2
174	0
175	2
176	11
177	58
178	145
179	65
180	14
181	16
182	114
184	127
185	8
186	0
187	0
191	0
192	1
193	2
194	3
195	11
196	2
197	0
199	0
200	0
203	0
205	0
206	1
207	0
208	2
209	0
219	1
220	0
221	0
223	0
224	1
225	2
226	1
227	0
230	1
231	2
232	1
233	1
234	0
244	1
245	8
247	7
248	1
252	1
253	2
255	9
256	32
257	148
258	41
259	115
260	20
261	2
270	0
271	0
272	0
273	6
274	4
275	4
276	4
277	0
283	0
288	0
290	0
294	0
295	0
296	0
297	1
298	1
299	6
301	63
303	174
304	281
305	126
306	242
307	31
308	3
