Mass Spectrum: 6-Octen-1-ol, 3,7-dimethyl-, benzoate
Formula: C17H24O2
CAS: 10482-77-6
Molecular weight: 260
m/z	intensity
27	14
28	12
29	31
37	4
38	3
39	40
40	11
41	328
42	36
50	27
51	103
52	9
53	42
54	23
55	161
56	50
57	53
58	14
60	8
65	8
66	13
67	353
68	195
69	345
70	49
73	9
76	25
77	479
78	41
79	59
80	44
81	676
82	507
83	72
94	36
95	554
96	123
97	11
105	999
106	69
108	7
109	230
110	59
115	9
118	4
122	17
123	710
124	58
137	14
138	543
139	50
140	5
144	4
153	6
155	7
