Mass Spectrum: Cyclopropanecarboxylic acid, 2-phenyl-, methyl ester, (1R-trans)-
Formula: C11H12O2
CAS: 10488-03-6
Molecular weight: 176
m/z	intensity
26	22
27	111
28	46
29	58
30	9
31	14
32	6
36	2
37	8
38	45
39	291
40	26
41	33
42	5
43	11
44	3
45	7
50	98
51	206
52	44
53	16
55	70
56	2
58	148
59	121
61	14
62	61
63	181
64	42
65	150
66	9
68	2
69	1
72	1
73	3
74	32
75	29
76	34
77	139
78	66
79	21
83	1
85	5
86	10
87	16
88	11
89	129
90	35
91	401
92	25
93	1
98	1
101	3
102	36
103	46
104	33
105	53
106	3
113	7
115	937
116	411
117	999
118	97
119	5
120	1
121	290
122	23
127	68
128	8
129	1
131	9
132	1
133	65
134	43
135	2
144	299
145	146
146	13
161	6
175	6
176	310
177	32
