Mass Spectrum: 5-Methyl-5,6,7,8-tetrahydro-2-thioxo-4-quinazolinone
Formula: C9H12N2OS
CAS: 104829-70-1
Molecular weight: 196
m/z	intensity
41	341
54	301
55	421
65	208
91	999
99	176
101	274
107	230
122	818
153	182
155	267
162	155
181	878
182	136
196	770
