Mass Spectrum: (2E,6E)-3,7,11-Trimethyldodeca-2,6,10-trienyl propionate
Formula: C18H30O2
CAS: 104857-55-8
Molecular weight: 278
m/z	intensity
39	13
40	10
41	208
42	14
45	1
50	2
51	9
52	6
53	73
54	8
55	77
56	9
57	329
58	11
63	2
65	25
66	10
67	184
68	293
69	999
70	56
72	1
75	4
77	50
78	10
79	96
80	111
81	370
82	47
83	16
84	25
85	33
86	3
89	1
91	68
92	70
93	429
94	76
95	119
97	10
98	7
104	2
105	51
106	16
107	180
108	39
109	58
110	12
112	2
115	3
116	1
117	4
118	2
119	71
120	27
121	149
122	55
123	105
124	16
125	3
128	1
131	2
133	34
134	25
135	90
136	214
137	65
140	6
141	11
142	1
145	1
147	34
148	23
149	13
150	2
153	1
154	11
155	1
161	73
162	17
163	3
175	10
176	7
179	1
189	59
190	10
191	4
192	1
204	23
205	5
206	1
209	4
221	1
222	2
235	1
278	8
279	2
