Mass Spectrum: Pentafluorobenzoic acid, benzyl ester
Formula: C14H7F5O2
CAS: 104856-46-4
Molecular weight: 302
m/z	intensity
26	1
27	4
28	1
29	2
31	3
37	1
38	5
39	39
40	3
41	10
44	1
50	19
51	56
52	14
53	5
55	1
61	2
62	10
63	37
64	12
65	134
66	8
69	2
71	1
73	1
74	9
75	5
76	5
77	115
78	20
79	194
80	13
85	2
86	5
87	2
89	121
90	378
91	999
92	76
93	33
94	1
98	23
99	5
105	61
106	26
107	133
108	12
109	2
110	2
117	145
118	9
125	10
126	1
127	1
129	3
130	1
136	1
137	1
148	20
149	3
155	1
157	2
164	1
167	221
168	22
169	1
176	3
177	6
178	1
181	1
188	1
189	1
192	1
195	859
196	68
197	5
205	2
206	1
207	2
212	1
218	2
219	5
224	1
225	2
234	1
235	2
236	3
237	22
238	19
239	3
243	1
253	2
254	2
255	2
256	2
257	26
258	4
263	4
264	2
265	1
282	8
283	6
284	4
285	1
302	950
303	142
304	15
305	1
