Mass Spectrum: 2-Phenylethyl docosanoate
Formula: C30H52O2
CAS: 104899-74-3
Molecular weight: 444
m/z	intensity
29	4
41	11
43	40
44	3
55	24
57	34
60	5
65	5
71	17
73	7
77	7
78	7
79	9
85	9
91	11
92	7
97	6
103	14
104	999
105	335
106	27
323	4
