Mass Spectrum: Pregn-4-ene-3,20-dione, 17-ethyl-
Formula: C23H34O2
CAS: 1048-01-7
Molecular weight: 342
m/z	intensity
41	313
43	999
51	24
53	139
55	363
56	11
57	52
65	70
66	26
67	205
68	17
69	74
71	24
77	192
78	35
79	262
80	35
81	159
83	69
86	11
91	308
92	39
93	190
94	38
95	182
97	105
99	246
103	23
104	12
105	216
106	43
107	136
108	20
109	148
111	26
112	54
113	20
115	26
116	17
117	58
119	122
120	64
121	195
122	115
123	185
124	114
125	30
128	22
129	34
131	78
132	19
133	129
134	33
135	100
136	104
137	25
138	13
143	34
145	53
146	19
147	114
148	73
149	131
157	28
158	11
159	74
160	13
161	92
162	27
163	51
169	18
171	30
173	71
174	69
175	100
177	34
183	13
184	12
185	26
187	37
189	11
197	11
199	18
200	14
201	51
203	18
211	41
212	11
215	36
216	15
226	16
229	272
230	53
231	24
243	24
244	970
256	24
257	15
269	20
281	112
282	26
284	14
297	20
298	29
299	301
300	105
312	11
313	23
317	21
324	23
327	23
342	300
343	75
