Mass Spectrum: 1H-Indene, 2-bromo-
Formula: C9H7Br
CAS: 10485-09-3
Molecular weight: 194
m/z	intensity
27	7
28	7
29	0
36	0
37	9
38	15
39	41
40	1
41	2
43	4
44	3
48	0
49	4
50	27
51	17
52	3
53	0
55	7
56	5
57	18
58	12
60	1
61	15
62	40
63	73
64	12
65	26
66	1
68	0
69	0
72	0
73	4
74	21
75	15
76	5
77	1
79	1
80	0
81	2
82	1
83	0
84	1
85	8
86	18
87	28
88	28
89	48
90	3
91	0
93	0
96	0
97	10
98	10
99	0
100	0
104	0
106	0
108	0
109	2
110	3
111	1
112	1
113	29
114	46
115	999
116	88
117	4
118	0
119	1
128	0
130	0
141	0
142	0
143	0
145	0
165	0
167	0
183	0
193	6
194	97
195	15
196	93
197	9
198	0
