Mass Spectrum: 4-(Hexyloxy)phthalonitrile
Formula: C14H16N2O
CAS: 104949-82-8
Molecular weight: 228
m/z	intensity
15	2
26	2
27	60
28	15
29	94
30	3
31	1
37	4
38	4
39	36
40	7
41	193
42	52
43	999
44	37
45	1
50	5
51	5
52	4
53	8
54	5
55	87
56	117
57	201
58	9
61	2
62	6
63	7
64	11
65	4
66	1
67	2
68	1
69	68
70	4
71	1
73	1
74	2
75	8
76	10
77	2
78	1
79	1
83	5
84	166
85	221
86	14
87	2
88	8
89	8
90	3
91	1
99	2
100	26
101	9
102	7
103	3
115	12
116	16
117	3
118	2
127	44
128	20
129	12
130	1
134	1
141	1
142	1
143	7
144	56
145	77
146	7
157	15
158	22
159	3
171	1
173	3
228	102
229	38
230	5
