Mass Spectrum: 3-Octadecylthiophene
Formula: C22H40S
CAS: 104934-54-5
Molecular weight: 336
m/z	intensity
27	4
28	1
29	16
39	5
41	40
42	5
43	61
44	1
45	9
47	1
53	8
54	2
55	31
56	4
57	29
58	1
65	2
66	1
67	8
68	1
69	11
70	2
71	9
77	4
78	1
79	4
80	1
81	4
82	1
83	5
84	5
85	17
86	2
87	2
91	3
92	1
93	3
94	1
95	3
96	1
97	247
98	999
99	84
100	49
101	3
105	2
107	2
108	1
109	2
110	6
111	84
112	11
113	5
114	1
119	1
121	2
123	4
124	2
125	7
126	4
127	1
133	1
135	1
137	1
139	19
140	22
141	4
142	1
153	9
154	9
155	2
167	5
168	7
169	1
181	5
182	5
183	1
195	2
196	2
209	2
210	1
223	1
224	1
237	1
238	1
240	1
251	1
252	2
265	1
266	2
275	1
279	2
280	1
289	8
290	2
293	4
294	4
295	1
303	1
307	3
308	2
335	4
336	166
337	42
338	11
339	2
