Mass Spectrum: Thiazolidin-4-one, 2-hydroxymethylimino-
Formula: C4H6N2O2S
CAS: 104959-22-0
Molecular weight: 146
m/z	intensity
33	31
34	13
35	2
36	2
38	21
39	21
40	69
41	155
42	643
43	822
44	109
45	419
46	999
47	111
48	62
49	5
50	5
51	4
52	3
53	12
54	7
55	12
56	7
57	9
58	24
59	45
60	43
61	7
62	2
64	6
65	1
66	1
69	125
70	88
71	14
72	19
73	22
74	53
75	4
76	8
77	2
78	1
80	0
81	0
82	1
83	0
84	2
86	5
87	3
88	21
89	2
90	9
91	1
92	0
97	0
98	1
99	5
100	1
101	4
102	1
103	2
104	5
105	1
106	0
111	0
112	0
116	647
117	31
118	31
119	1
120	0
127	0
128	0
129	1
130	0
131	1
133	0
134	0
145	10
146	6
147	2
