Mass Spectrum: 8-Hydrazinyl-3,9-diazatricyclo[8.4.0.0(3,7)]tetradeca-1(10),8,11,13-tetraen-2-one
Formula: C12H14N4O
CAS: 1049031-93-7
Molecular weight: 230
m/z	intensity
37	26
38	98
39	383
40	123
41	549
42	163
43	267
44	29
45	12
50	168
51	176
52	107
53	64
54	56
55	50
56	40
57	21
58	7
59	9
60	6
61	11
62	59
63	231
64	209
65	144
66	46
67	52
68	181
70	999
71	53
72	2
73	12
74	53
75	100
76	190
77	239
78	55
79	17
80	16
81	8
82	8
83	9
84	8
85	6
86	7
87	6
89	110
90	365
91	116
92	251
93	34
95	61
96	5
97	7
98	16
99	6
102	107
103	49
104	114
105	75
106	15
107	2
109	2
110	4
111	1
112	4
115	29
116	111
117	105
119	417
120	98
121	6
127	3
128	9
129	20
130	78
131	27
132	108
133	34
134	7
140	1
141	4
144	574
145	443
146	117
147	68
148	6
154	3
155	3
156	7
157	9
158	13
160	183
161	124
162	69
163	5
168	3
169	7
170	12
171	47
172	28
173	52
174	17
175	18
176	2
182	3
183	9
184	22
185	53
186	43
187	122
188	34
189	14
196	4
197	28
199	99
200	99
201	51
202	6
212	51
213	16
214	76
215	11
216	2
230	871
231	138
232	10
