Mass Spectrum: [Bi-1,4-cyclohexadien-1-yl]-3,3',6,6'-tetrone, 4,4'-dihydroxy-2,2',5,5'-tetramethyl-
Formula: C16H14O6
CAS: 10493-51-3
Molecular weight: 302
m/z	intensity
51	80
52	50
53	70
55	390
56	150
57	450
60	60
65	50
67	190
68	70
69	320
70	130
71	290
73	80
77	120
78	70
79	100
81	190
82	110
83	999
84	100
85	210
91	100
93	50
94	80
95	190
96	110
97	260
98	80
99	70
105	50
107	80
109	130
110	70
111	170
112	60
113	60
115	60
123	90
124	60
125	100
126	50
127	50
129	50
135	50
137	70
139	50
149	90
151	50
163	60
190	50
191	730
192	130
218	130
219	190
256	50
302	570
303	100
304	30
