Mass Spectrum: 2-Butyne-1,4-diamine, N,N,N',N'-tetraethyl-
Formula: C12H24N2
CAS: 105-18-0
Molecular weight: 196
m/z	intensity
14	3
15	15
18	18
26	15
27	189
28	178
29	457
30	217
31	2
38	10
39	82
40	34
41	180
42	485
43	45
44	162
45	4
50	18
51	74
52	89
53	271
54	319
55	154
56	652
57	80
58	713
59	29
60	2
62	3
64	7
65	67
66	60
67	163
68	350
69	98
70	119
71	87
72	230
73	657
74	39
75	1
76	4
77	48
78	31
79	112
80	219
81	157
82	238
83	101
84	43
85	8
86	530
87	34
90	5
91	23
92	19
93	81
94	432
95	178
96	223
97	23
98	9
100	9
101	1
105	8
106	15
107	40
108	528
109	135
110	353
111	32
112	6
120	8
121	31
122	839
123	521
124	253
125	999
126	99
127	6
135	3
136	14
137	161
138	23
139	2
150	3
151	42
152	100
153	13
165	3
166	18
167	6
181	23
182	1
197	4
