Mass Spectrum: Rhodopin
Formula: C40H58O
CAS: 105-92-0
Molecular weight: 554
m/z	intensity
12	5
13	4
14	15
15	39
16	10
17	63
18	242
24	3
25	10
26	53
27	104
28	142
29	117
30	5
31	13
36	5
37	12
38	23
39	138
40	33
41	583
42	20
43	8
45	8
50	6
51	6
52	27
53	19
54	83
55	475
56	117
57	433
58	25
59	63
60	8
61	5
62	7
63	19
64	8
65	45
66	21
67	217
68	55
69	999
70	121
71	283
72	16
73	27
74	10
75	6
76	8
77	117
78	37
79	200
80	55
81	504
82	113
83	292
84	54
85	175
86	13
87	5
88	3
89	11
90	6
91	300
92	71
93	283
94	67
95	333
96	92
97	238
98	38
99	67
100	7
101	5
102	8
103	28
104	20
105	342
106	92
107	267
108	50
109	263
110	55
111	171
112	30
113	49
114	7
115	71
116	30
117	96
118	32
119	308
120	67
121	204
122	38
123	129
124	32
125	92
126	24
127	58
128	83
129	117
130	59
131	146
132	60
133	208
134	49
135	92
136	22
137	71
138	23
139	46
140	17
141	83
142	83
143	167
144	71
145	276
146	58
147	133
148	25
149	45
150	15
151	35
152	30
153	50
154	29
155	96
156	79
157	208
158	67
159	146
160	32
161	50
162	15
163	29
164	12
165	56
166	32
167	55
168	34
169	129
170	45
171	138
172	39
173	96
174	23
175	39
176	13
177	33
178	28
179	51
180	35
181	75
182	41
183	129
184	40
185	100
186	26
187	53
188	20
189	27
190	16
191	25
192	24
193	48
194	39
195	96
196	43
197	113
198	38
199	67
200	19
201	25
202	15
203	30
204	13
205	22
206	21
207	50
208	33
209	125
210	37
211	100
212	25
213	41
214	13
215	21
216	13
217	18
218	11
219	24
220	19
221	50
222	26
223	56
224	25
225	38
226	13
227	18
228	9
229	16
230	9
231	16
232	11
233	25
234	16
235	41
236	18
237	39
238	17
239	26
240	12
241	19
242	9
243	33
244	13
245	15
246	10
247	24
248	13
249	33
250	17
251	26
252	15
253	23
254	11
255	24
256	14
257	12
258	8
259	15
260	10
261	25
262	15
263	25
264	14
265	22
266	11
267	30
268	13
269	35
270	12
271	9
272	6
273	17
274	9
275	23
276	10
277	24
278	13
279	18
280	14
281	22
282	9
283	9
284	6
285	9
286	5
287	18
288	8
289	12
290	9
291	14
292	10
293	16
294	10
295	13
296	4
297	4
298	3
299	6
300	4
301	8
302	4
303	10
304	4
305	15
306	8
307	10
308	7
309	14
310	4
311	4
312	2
313	4
314	2
315	4
316	3
317	9
318	5
319	11
320	8
321	10
322	8
323	8
324	6
325	3
327	5
328	3
329	6
330	5
331	9
332	5
333	15
334	8
335	9
336	10
337	7
338	4
339	3
340	3
341	3
342	3
343	8
344	6
345	8
346	12
347	11
348	6
349	6
350	5
351	6
352	3
353	3
354	5
355	3
356	3
357	4
358	3
359	8
360	4
361	28
362	12
363	6
364	5
365	5
368	3
369	3
370	2
371	4
372	2
373	4
374	2
375	11
376	6
377	5
378	13
379	16
380	7
381	2
383	3
384	3
385	5
386	5
387	6
388	4
389	5
390	4
391	5
392	5
393	7
394	3
395	3
396	9
397	6
398	5
399	11
400	6
401	6
402	4
403	5
404	5
405	4
406	5
407	5
408	3
409	3
410	2
411	5
412	5
413	5
414	3
415	4
416	3
417	5
418	3
419	3
420	2
421	4
425	6
426	3
427	4
428	5
429	5
430	92
431	34
432	11
433	6
434	4
435	4
436	2
439	2
441	2
442	3
443	3
444	26
445	13
446	6
447	4
448	79
449	28
450	8
451	3
453	3
454	3
455	3
456	3
457	6
458	4
459	4
460	4
461	3
462	22
463	10
464	3
465	3
466	2
467	20
468	10
469	6
470	4
471	3
472	2
473	3
474	4
475	4
476	3
477	3
478	2
479	2
480	2
481	2
483	2
484	2
485	6
486	4
487	4
488	2
489	3
490	2
491	2
501	2
502	3
503	2
504	2
505	2
513	2
514	2
517	2
521	4
522	2
523	2
524	2
526	2
527	2
528	3
529	3
530	3
531	2
532	3
533	3
534	8
535	6
536	113
537	45
538	19
539	8
540	4
541	3
542	3
543	3
544	3
545	3
546	3
547	3
550	3
551	3
552	5
553	5
554	67
