Mass Spectrum: Butanoic acid, ethyl ester
Formula: C6H12O2
CAS: 105-54-4
Molecular weight: 116
m/z	intensity
13	4
14	24
15	71
16	5
17	1
19	7
26	85
27	491
28	120
29	588
30	35
31	23
32	3
37	10
38	23
39	165
40	31
41	356
42	233
43	937
44	58
45	185
46	10
47	11
55	48
56	6
57	13
58	2
59	2
60	232
61	100
68	3
69	17
70	176
71	999
72	56
73	210
74	8
86	5
88	568
89	159
90	11
101	90
102	9
116	34
