Mass Spectrum: 1,2-Ethanediamine, N,N'-dimethyl-N-[2-(methylamino)ethyl]-
Formula: C7H19N3
CAS: 105-84-0
Molecular weight: 145
m/z	intensity
15	7
18	9
27	6
28	35
29	15
30	69
31	3
32	3
40	3
41	12
42	93
43	42
44	189
45	6
46	2
54	4
55	3
56	48
57	49
58	999
59	59
60	1
69	1
70	42
71	20
72	63
73	3
83	4
84	1
85	4
86	2
87	2
89	11
97	1
99	27
100	3
101	226
102	58
103	3
113	1
114	19
115	3
