Mass Spectrum: (m-Chlorophenoxy)(phenylimino)methyl N,N-dimethyldithiocarbamate
Formula: C16H15ClN2OS2
CAS: 10506-03-3
Molecular weight: 350
m/z	intensity
15	8
17	1
18	1
26	1
27	5
28	2
30	3
32	2
34	1
36	2
37	3
38	7
39	11
40	2
41	3
42	38
43	8
44	32
45	9
46	2
47	16
49	3
50	22
51	64
52	5
53	1
54	3
55	1
56	17
57	3
58	2
59	1
60	2
61	11
62	4
63	16
64	14
65	11
66	1
67	12
68	1
69	3
70	2
71	3
72	506
73	64
74	12
75	36
76	26
77	233
78	15
79	1
81	1
82	2
83	2
84	3
85	2
86	1
87	5
88	999
89	50
90	52
91	24
92	4
93	6
94	1
95	1
96	1
97	1
99	9
100	4
101	3
102	3
103	9
104	5
105	1
106	1
107	2
108	18
109	11
110	2
111	85
112	6
113	26
114	2
119	5
120	6
121	1
122	1
123	1
125	2
127	4
128	31
129	3
130	10
131	4
132	16
133	2
134	3
135	377
136	40
137	19
138	2
139	4
140	1
141	1
143	5
144	1
145	2
147	109
148	12
149	2
150	2
151	1
152	4
153	5
163	2
164	3
165	1
166	6
167	28
168	4
171	2
173	1
177	4
178	1
179	4
180	1
181	1
182	1
190	3
194	1
195	17
196	3
198	1
199	1
202	12
203	2
204	4
205	1
207	149
208	17
209	8
210	1
212	18
213	3
214	7
215	54
216	6
217	19
218	2
219	1
223	32
224	4
225	3
230	270
231	40
232	89
233	12
234	1
239	6
240	1
241	18
242	2
243	6
244	1
262	2
264	1
273	1
274	7
275	2
276	2
350	125
351	24
352	53
353	9
354	5
355	1
