Mass Spectrum: 4,6-Bis(1,1-dimethylethyl)-1,1'-biphenyl-2-ol
Formula: C20H26O
CAS: 105071-80-5
Molecular weight: 282
m/z	intensity
20	16
26	1
27	24
29	152
31	5
34	4
36	3
39	27
40	77
41	173
42	9
43	62
44	31
45	6
47	4
51	6
53	11
55	47
56	13
57	999
58	45
60	8
62	3
63	3
65	8
67	14
68	5
69	25
70	12
71	14
73	6
76	5
77	21
78	6
79	8
81	13
82	11
83	30
84	4
85	18
87	2
88	3
89	16
91	27
92	3
93	2
95	8
96	7
97	23
98	7
101	12
102	5
103	7
104	19
105	11
107	2
109	6
111	13
112	55
113	2
115	23
116	4
117	3
118	4
119	4
123	2
126	37
127	7
128	16
129	21
131	2
133	2
134	4
139	8
141	12
142	4
143	4
147	2
149	3
151	5
152	20
153	17
154	4
155	5
164	2
165	44
166	16
167	12
168	4
169	5
170	2
171	7
176	6
177	11
178	39
179	19
180	3
181	17
182	7
183	21
184	4
189	9
190	5
191	12
192	11
193	21
194	10
195	25
196	11
197	5
202	9
203	11
204	7
205	4
206	1
207	7
208	4
209	11
210	3
211	145
212	24
215	2
218	1
219	5
221	6
222	3
223	5
225	9
234	4
236	1
237	6
239	7
249	7
251	6
253	2
267	367
268	78
269	9
282	408
283	91
284	9
