Mass Spectrum: (Phenylimino)(p-tolyloxy)methyl N,N-dimethyldithiocarbamate
Formula: C17H18N2OS2
CAS: 10506-00-0
Molecular weight: 330
m/z	intensity
15	5
26	1
27	8
28	1
29	1
30	2
32	2
37	2
38	4
39	15
40	2
41	4
42	28
43	6
44	19
45	8
46	1
47	12
49	1
50	16
51	53
52	8
53	5
54	3
55	1
56	14
57	1
58	1
59	1
60	1
61	8
62	3
63	10
64	7
65	30
66	2
67	9
68	1
69	2
70	2
71	3
72	314
73	44
74	8
75	7
76	16
77	184
78	16
79	12
80	2
82	1
83	1
84	2
87	3
88	999
89	52
90	51
91	104
92	9
93	2
96	15
97	2
99	2
102	1
103	8
104	3
105	2
106	1
107	33
108	35
109	11
110	2
119	8
120	3
121	2
123	8
124	2
131	3
132	17
133	2
134	2
135	265
136	29
137	13
138	2
147	103
148	10
149	2
150	2
151	1
152	1
153	3
163	2
164	4
165	3
166	1
167	5
168	1
178	2
179	5
180	2
181	1
182	16
183	3
190	2
191	1
192	23
193	3
194	1
195	86
196	9
197	4
198	1
207	377
208	47
209	19
210	107
211	16
212	1
221	2
223	20
224	3
225	2
239	2
242	3
254	4
330	86
331	17
332	9
333	1
