Mass Spectrum: o-(p-Nitrophenyl) 4,4-dimethyl-2-phenyl-1,3-dithioallophanate
Formula: C16H15N3O3S2
CAS: 10506-46-4
Molecular weight: 361
m/z	intensity
15	11
17	3
18	1
26	2
27	5
28	7
29	2
30	10
32	8
34	1
37	3
38	9
39	12
40	2
41	3
42	38
43	14
44	34
45	8
46	2
47	12
49	1
50	25
51	61
52	8
53	3
54	3
55	1
56	15
57	1
58	5
59	1
60	15
61	9
62	5
63	18
64	18
65	15
66	2
67	9
68	1
69	4
70	2
71	5
72	907
73	61
74	11
75	19
76	203
77	221
78	20
79	2
80	2
81	2
82	2
83	2
84	2
87	7
88	999
89	47
90	51
91	33
92	10
93	7
94	1
95	1
96	2
99	2
102	1
103	9
104	9
105	2
106	6
107	6
108	14
109	15
110	2
111	1
117	1
118	2
119	23
120	6
121	1
122	17
123	8
124	2
125	1
131	16
132	84
133	9
134	5
135	330
136	42
137	16
138	2
139	15
140	2
142	1
146	2
147	412
148	44
149	6
150	4
151	1
152	1
153	5
154	4
155	1
161	1
162	1
163	5
164	12
165	2
166	5
167	13
168	2
178	6
179	6
180	3
181	1
182	4
183	2
184	1
190	3
192	13
193	2
194	1
195	6
196	5
197	1
206	1
207	68
208	9
209	4
210	2
211	1
214	1
220	1
222	1
223	45
224	7
225	6
226	17
227	5
228	1
238	2
239	8
240	1
241	141
242	21
243	2
252	76
253	9
254	4
255	3
269	2
273	1
284	5
285	119
286	21
287	2
301	9
302	1
361	192
362	38
363	20
364	3
