Mass Spectrum: Benzenepropanoyl bromide
Formula: C9H9BrO
CAS: 10500-29-5
Molecular weight: 212
m/z	intensity
37	7
38	16
39	136
40	12
41	22
42	10
49	20
50	260
51	564
52	152
53	30
54	16
55	110
56	7
57	3
61	21
62	66
63	163
64	61
65	170
66	32
67	2
73	16
74	97
75	142
76	90
77	503
78	575
79	240
80	167
81	72
82	150
89	55
90	23
91	999
92	78
93	1
101	11
102	101
103	653
104	800
105	797
106	20
107	5
