Mass Spectrum: o-(m-Chlorophenyl) 4,4-dimethyl-2-phenyl-1,3-dithioallophanate
Formula: C16H15ClN2OS2
CAS: 10506-40-8
Molecular weight: 350
m/z	intensity
15	6
26	1
27	3
28	2
29	1
30	2
32	2
36	1
37	2
38	4
39	8
40	1
41	2
42	31
43	6
44	21
45	7
46	1
47	13
49	2
50	14
51	47
52	3
54	2
55	1
56	12
57	1
58	1
59	1
60	1
61	9
62	3
63	10
64	9
65	8
66	1
67	9
68	1
69	2
70	2
71	3
72	373
73	51
74	9
75	24
76	19
77	169
78	12
79	1
82	1
83	1
84	2
85	2
87	6
88	999
89	48
90	50
91	18
92	3
93	3
95	1
96	1
99	8
100	2
101	2
102	2
103	6
104	5
105	1
106	1
107	1
108	12
109	12
110	2
111	47
112	4
113	14
114	1
119	3
120	2
121	1
123	1
125	2
127	2
128	17
129	2
130	6
131	4
132	16
133	2
134	2
135	268
136	31
137	14
138	2
139	3
141	1
143	6
144	1
145	2
147	127
148	12
149	2
150	2
152	2
153	5
163	2
164	3
165	1
166	2
167	10
168	2
171	2
173	1
177	2
178	1
179	4
180	1
181	1
190	3
195	7
196	2
199	1
202	6
203	1
204	2
207	188
208	23
209	9
210	1
212	9
213	1
214	4
215	36
216	4
217	12
218	1
223	41
224	5
225	4
230	151
231	21
232	49
233	7
239	7
240	1
241	23
242	3
243	8
244	1
262	2
264	1
273	2
274	5
275	1
276	2
350	134
351	26
352	55
353	10
354	5
355	1
