Mass Spectrum: d-Ascorbic acid
Formula: C6H8O6
CAS: 10504-35-5
Molecular weight: 176
m/z	intensity
25	8
26	67
27	186
29	713
30	223
31	491
33	8
36	12
37	14
38	23
39	67
41	28
42	282
43	879
44	459
45	125
46	28
47	30
50	5
51	5
53	52
54	153
55	181
56	68
57	78
58	218
59	185
60	72
61	392
62	11
63	5
68	20
69	113
70	213
71	259
72	92
73	110
74	30
75	6
76	75
83	9
84	45
85	587
86	34
87	156
88	65
89	30
91	91
92	5
95	13
98	21
99	18
100	127
101	146
102	128
103	13
112	18
113	10
114	11
115	28
116	999
117	72
118	21
119	228
120	10
127	13
128	19
129	9
130	19
140	8
144	6
145	22
146	8
158	6
176	96
177	12
