Mass Spectrum: 5-Ethoxy-4-ethoxycarbonylmethyloxazole
Formula: C9H13NO4
CAS: 10500-74-0
Molecular weight: 199
m/z	intensity
26	122
27	402
28	187
29	999
30	50
32	1
37	1
38	4
39	14
40	78
41	490
42	378
43	218
44	47
45	93
46	6
47	24
51	9
52	33
53	106
54	109
55	25
56	7
57	9
58	3
59	19
60	124
61	41
62	1
66	1
67	7
68	85
69	80
70	569
71	200
72	26
73	10
74	1
75	1
80	3
81	4
82	7
83	1
84	3
86	350
87	76
88	110
89	13
90	1
97	888
98	626
99	48
100	8
101	1
110	2
114	99
115	249
116	22
117	2
124	40
125	319
126	368
127	27
128	3
138	2
142	137
143	838
144	55
145	6
153	7
154	1
169	4
171	56
172	6
173	1
184	2
197	15
199	349
200	44
201	5
