Mass Spectrum: Azetidine-2-one, 3-hexyl-3-methyl-
Formula: C10H19NO
CAS: 105037-97-6
Molecular weight: 169
m/z	intensity
33	6
34	2
35	1
36	7
37	1
38	8
39	134
40	66
41	394
42	123
43	190
44	42
45	3
47	1
48	0
50	2
51	7
52	6
53	38
54	33
55	273
56	999
57	256
58	16
59	1
63	1
64	0
65	5
66	3
67	34
68	47
69	235
70	118
71	16
72	3
73	1
77	3
78	0
79	4
80	1
81	9
82	21
83	42
84	53
85	10
86	2
87	1
91	1
92	0
93	1
94	0
95	2
97	15
98	51
99	4
109	1
110	5
111	55
112	17
113	1
114	0
115	5
123	1
125	2
126	93
127	9
128	0
140	3
