Mass Spectrum: Benzenesulfonamide, N-benzyl-4-chloro-
Formula: C13H12ClNO2S
CAS: 10504-90-2
Molecular weight: 281
m/z	intensity
34	1
35	0
36	5
37	0
38	5
39	20
40	5
41	5
43	1
44	1
45	1
48	1
49	1
50	35
51	66
52	16
53	4
54	1
55	1
56	0
57	2
58	0
61	2
63	12
64	6
65	36
66	3
69	2
70	0
71	1
73	3
74	15
75	69
76	21
77	111
78	54
79	125
80	8
83	0
84	0
85	6
87	2
89	8
91	132
92	10
93	0
95	1
96	0
97	0
99	3
100	1
101	1
102	0
104	125
106	999
107	79
108	5
109	2
111	118
112	46
113	39
114	14
115	2
120	0
122	0
124	0
125	1
126	0
127	5
128	7
129	1
130	1
131	4
133	1
138	0
144	1
152	4
153	1
159	37
161	17
162	1
165	1
171	0
175	21
177	34
178	2
179	10
180	1
181	1
216	3
218	1
280	1
281	2
282	0
283	1
