Mass Spectrum: o-Phenyl 4,4-dimethyl-2-phenyl-1,3-dithioallophanate
Formula: C16H16N2OS2
CAS: 10506-38-4
Molecular weight: 316
m/z	intensity
15	7
26	1
27	6
28	1
29	1
30	3
32	2
34	1
37	3
38	6
39	24
40	4
41	3
42	36
43	7
44	25
45	8
46	1
47	15
49	2
50	19
51	77
52	6
53	1
54	3
55	3
56	16
57	2
58	1
59	1
60	2
61	9
62	3
63	9
64	9
65	25
66	7
67	9
68	1
69	3
70	2
71	4
72	305
73	50
74	9
75	7
76	21
77	296
78	22
79	1
82	1
83	2
84	3
85	1
87	5
88	999
89	48
90	48
91	24
92	2
93	9
94	33
95	3
96	3
97	1
99	2
102	2
103	9
104	5
105	6
106	2
107	1
108	13
109	27
110	4
111	2
119	4
120	3
121	1
123	1
131	5
132	23
133	3
134	3
135	286
136	36
137	17
138	2
147	132
148	14
149	3
150	4
151	2
152	2
153	6
154	1
163	3
164	5
165	2
166	1
167	3
168	26
169	4
175	2
177	1
178	40
179	10
180	3
181	65
182	8
183	4
190	3
196	195
197	28
198	3
207	296
208	36
209	15
210	2
223	31
224	4
225	3
228	4
229	1
239	7
240	6
241	1
264	3
266	3
268	1
316	182
317	36
318	19
319	3
