Mass Spectrum: 7.epsilon.-Hydroxysolasodine
Formula: C27H43NO3
CAS: 105001-53-4
Molecular weight: 429
m/z	intensity
41	159
43	314
44	56
45	22
49	1
51	2
53	45
55	309
57	184
58	18
59	5
60	1
61	17
65	19
67	104
68	55
69	62
70	37
71	17
72	8
73	6
77	43
79	86
81	98
82	34
83	37
84	30
85	5
86	14
91	95
93	112
94	34
95	80
96	53
98	289
99	9
100	1
101	1
103	10
105	88
107	90
108	41
109	41
110	41
111	53
113	246
114	999
115	66
116	3
117	34
118	3
119	44
120	23
121	52
122	23
123	15
124	90
125	98
126	20
127	5
128	15
129	14
131	35
133	61
134	14
135	37
136	28
138	762
139	76
140	46
141	12
142	3
143	29
145	45
146	13
147	25
148	15
149	11
150	17
151	2
152	27
153	12
154	12
155	12
156	8
157	24
158	24
159	22
160	7
161	29
162	17
163	14
164	34
165	3
166	39
167	9
168	12
169	9
171	24
172	9
173	16
174	6
175	21
176	15
177	7
178	16
179	7
180	7
181	7
182	2
183	10
184	3
185	13
186	4
187	10
188	5
189	5
190	6
191	5
192	19
193	3
194	2
195	7
196	1
197	13
198	3
199	7
201	5
202	1
204	2
205	1
206	2
207	1
209	5
211	6
212	6
213	7
214	1
215	6
216	5
223	4
225	5
227	3
228	2
229	1
230	17
231	4
239	4
241	4
246	5
247	5
248	2
251	6
258	1
265	22
266	5
267	3
269	18
270	5
274	5
280	50
281	57
282	13
283	8
287	6
298	79
299	32
300	5
314	6
315	4
341	1
368	4
372	2
373	4
383	1
384	1
386	7
394	1
396	7
399	1
400	14
401	30
402	7
410	3
412	12
413	4
414	8
415	1
427	1
428	13
429	57
430	16
431	6
