Mass Spectrum: o-(2-Naphthyl) 4,4-dimethyl-2-phenyl-1,3-dithioallophanate
Formula: C20H18N2OS2
CAS: 10506-48-6
Molecular weight: 366
m/z	intensity
15	5
26	1
27	4
28	1
30	2
32	3
34	1
37	2
38	4
39	10
40	1
41	2
42	27
43	5
44	16
45	6
46	1
47	11
49	1
50	18
51	57
52	5
54	2
56	14
57	2
58	2
59	1
60	1
61	9
62	5
63	17
64	8
65	9
67	10
68	1
69	2
70	2
71	1
72	461
73	47
74	10
75	11
76	19
77	195
78	13
79	1
82	1
83	1
84	2
86	1
87	5
88	999
89	61
90	49
91	16
92	1
93	1
99	2
100	1
101	5
102	2
103	9
104	2
107	1
108	11
109	7
110	1
113	3
114	4
115	68
116	13
117	1
119	2
120	1
121	1
126	9
127	57
128	9
129	1
131	3
132	14
133	2
134	2
135	321
136	31
137	15
138	1
141	1
143	5
144	63
145	8
146	2
147	80
148	8
149	1
153	1
155	2
158	1
159	5
160	2
163	1
164	2
171	1
179	2
185	1
207	349
208	43
209	17
210	2
215	2
217	1
218	7
219	1
223	12
224	1
225	1
228	6
229	1
230	1
231	157
232	24
233	9
234	1
239	1
246	19
247	4
290	7
291	1
366	14
367	3
368	1
