Mass Spectrum: (p-Chlorophenylimino)phenoxymethyl N,N-dimethyldithiocarbamate
Formula: C16H15ClN2OS2
CAS: 10506-16-8
Molecular weight: 350
m/z	intensity
15	6
26	1
27	3
28	1
30	2
32	2
34	1
36	2
37	2
38	5
39	16
40	3
41	1
42	31
43	8
44	33
45	7
46	1
47	14
49	2
50	17
51	31
52	2
53	1
55	2
56	13
57	1
58	1
59	1
60	1
61	10
62	4
63	10
64	5
65	20
66	7
67	1
69	2
70	2
71	2
72	347
73	51
74	12
75	62
76	18
77	221
78	15
79	2
81	1
82	1
83	2
84	10
85	6
86	1
87	6
88	999
89	51
90	53
91	6
92	1
93	8
94	43
95	3
96	1
97	1
98	1
99	5
100	1
101	1
102	8
105	5
106	1
107	3
108	4
109	14
110	4
111	120
112	9
113	38
114	3
118	1
120	7
121	1
122	1
124	1
125	16
126	2
127	10
128	1
129	2
132	1
133	6
134	27
135	4
136	2
137	19
138	4
139	6
140	2
141	1
142	6
143	5
144	3
145	2
146	1
147	1
149	8
150	1
151	1
152	1
153	8
154	1
155	2
163	3
164	1
165	3
166	18
167	18
168	8
169	340
170	32
171	123
172	12
173	5
174	1
177	3
178	5
179	1
180	1
181	188
182	20
183	36
184	5
187	5
189	2
194	1
195	14
196	2
197	1
198	5
199	1
200	1
202	13
203	2
204	4
207	35
208	6
209	2
212	24
213	5
214	9
215	2
224	1
230	270
231	39
232	88
233	12
234	1
239	1
241	161
242	19
243	59
244	7
245	2
257	43
258	6
259	17
260	2
261	2
262	2
264	1
273	2
274	2
275	1
276	1
323	1
350	125
351	24
352	52
353	9
354	4
