Mass Spectrum: (p-Chlorophenoxy)(phenylimino)methyl N,N-dimethyldithiocarbamate
Formula: C16H15ClN2OS2
CAS: 10506-02-2
Molecular weight: 350
m/z	intensity
15	7
26	1
27	5
28	1
30	2
32	2
34	1
36	1
37	3
38	6
39	10
40	1
41	2
42	35
43	7
44	27
45	8
46	2
47	15
49	3
50	21
51	59
52	4
53	1
54	3
55	1
56	16
57	2
58	2
59	1
60	1
61	9
62	4
63	13
64	11
65	10
66	1
67	10
68	1
69	3
70	2
71	3
72	429
73	59
74	12
75	31
76	21
77	197
78	13
79	1
82	1
83	2
84	3
85	2
86	1
87	4
88	999
89	48
90	50
91	20
92	3
93	6
94	1
95	1
96	1
97	1
99	14
100	4
101	4
102	2
103	9
104	3
105	1
106	1
107	2
108	15
109	9
110	2
111	68
112	5
113	21
114	2
119	4
120	5
121	1
122	1
123	1
125	1
127	9
128	29
129	5
130	9
131	3
132	13
133	2
134	2
135	316
136	33
137	14
138	2
139	4
140	1
141	1
143	5
144	1
145	2
147	79
148	9
149	2
150	2
151	1
152	3
153	4
163	1
164	3
166	5
167	20
168	3
171	1
177	4
178	1
179	3
180	1
181	1
190	2
195	12
196	2
199	1
202	8
203	1
204	3
207	236
208	29
209	12
210	1
212	12
213	2
214	5
215	45
216	5
217	16
218	2
219	1
223	25
224	3
225	2
230	194
231	28
232	64
233	9
234	1
239	2
241	3
243	1
262	1
274	4
275	1
276	1
350	64
351	12
352	27
353	5
354	2
