Mass Spectrum: o-(p-Tolyl) 4,4-dimethyl-2-(p-tolyl)-1,3-dithioallophanate
Formula: C18H20N2OS2
CAS: 10508-44-8
Molecular weight: 344
m/z	intensity
15	4
17	1
18	1
27	5
28	3
30	1
32	1
37	1
38	3
39	21
40	2
41	6
42	22
43	4
44	14
45	11
46	1
47	10
50	7
51	13
52	5
53	4
54	1
56	10
59	1
60	1
61	8
62	4
63	15
64	5
65	49
66	3
69	1
70	2
71	2
72	376
73	40
74	8
75	4
76	9
77	23
78	8
79	11
80	2
83	1
86	1
87	3
88	999
89	68
90	58
91	207
92	16
93	1
96	19
97	3
99	2
102	1
103	1
104	9
105	7
106	1
107	39
108	28
109	2
110	1
116	10
117	16
118	5
119	5
120	2
121	13
122	4
123	15
124	3
132	2
133	2
134	1
135	1
136	1
145	3
146	17
147	2
148	82
149	310
150	39
151	17
152	2
161	120
162	14
163	2
164	3
165	1
166	1
167	5
177	1
178	4
179	3
180	1
181	5
182	1
191	2
192	1
193	4
194	2
195	126
196	30
197	9
198	1
204	2
206	19
207	3
208	1
209	3
210	1
221	385
222	51
223	20
224	97
225	15
226	1
237	44
238	6
239	4
253	3
256	3
268	7
269	1
344	116
345	25
346	12
347	2
