Mass Spectrum: o-(p-(Methoxycarbonyl)phenyl) 4,4-dimethyl-2-phenyl-1,3-dithioallophanate
Formula: C18H18N2O3S2
CAS: 10506-45-3
Molecular weight: 374
m/z	intensity
15	10
26	1
27	4
28	2
29	1
30	2
32	2
34	1
37	2
38	6
39	11
40	1
41	4
42	30
43	6
44	21
45	7
46	1
47	11
49	1
50	22
51	56
52	6
53	2
54	3
55	1
56	13
57	1
58	2
59	9
60	2
61	8
62	4
63	13
64	13
65	11
66	1
67	10
68	2
69	3
70	2
71	3
72	603
73	51
74	10
75	14
76	33
77	213
78	15
79	2
80	1
82	4
83	2
84	2
87	5
88	999
89	49
90	48
91	22
92	10
93	11
94	1
95	3
96	1
99	2
102	1
103	23
104	9
105	2
106	1
107	3
108	15
109	10
110	1
117	1
119	8
120	10
121	48
122	4
123	4
131	5
132	25
133	3
134	3
135	408
136	45
137	19
138	2
139	2
146	1
147	176
148	18
149	4
150	2
151	3
152	21
153	5
154	1
163	6
164	3
165	2
166	4
167	11
168	2
178	2
179	5
180	2
181	1
182	2
190	3
191	1
192	7
193	1
194	5
195	8
196	1
205	2
206	1
207	218
208	41
209	12
210	3
222	2
223	35
224	6
225	3
226	2
238	1
239	71
240	9
241	4
254	141
255	24
256	3
265	15
266	2
267	2
268	1
286	2
297	2
298	24
299	5
374	126
375	27
376	14
377	2
