Mass Spectrum: Butane, 1-(2-chloroethoxy)-
Formula: C6H13ClO
CAS: 10503-96-5
Molecular weight: 136
m/z	intensity
15	5
18	2
26	7
27	115
28	29
29	141
30	5
31	39
36	4
38	2
39	26
40	5
41	209
42	16
43	23
44	6
45	29
49	6
50	2
51	2
53	3
54	1
55	32
56	189
57	999
58	49
59	4
61	1
62	6
63	361
64	9
65	114
66	2
69	4
71	5
72	1
73	2
75	1
77	1
79	2
81	2
87	292
88	15
89	1
93	198
94	6
95	64
96	2
101	1
107	2
135	2
136	4
137	3
138	1
