Mass Spectrum: o-(m-Methoxyphenyl) 4,4-dimethyl-2-phenyl-1,3-dithioallophanate
Formula: C17H18N2O2S2
CAS: 10506-43-1
Molecular weight: 346
m/z	intensity
15	6
26	1
27	5
28	4
29	1
30	2
32	2
34	1
37	2
38	6
39	12
40	1
41	9
42	26
43	6
44	17
45	6
46	1
47	10
49	1
50	16
51	51
52	10
53	4
54	3
55	2
56	12
57	1
58	1
59	1
60	1
61	8
62	3
63	13
64	18
65	8
66	3
67	9
68	1
69	4
70	2
71	2
72	358
73	41
74	8
75	7
76	18
77	204
78	15
79	3
80	4
81	4
82	1
83	1
84	2
87	3
88	999
89	50
90	48
91	18
92	19
93	3
94	10
95	17
96	2
97	1
99	2
102	1
103	9
104	3
105	3
106	1
107	59
108	16
109	9
110	1
111	1
119	2
120	2
121	2
123	5
124	28
125	3
131	3
132	15
133	2
134	2
135	312
136	34
137	15
138	2
139	5
140	2
147	111
148	11
149	2
150	2
153	3
163	2
164	4
166	1
167	3
178	1
179	4
180	1
183	6
184	1
190	2
193	1
195	3
196	3
198	13
199	2
207	309
208	50
209	17
210	3
211	132
212	15
213	7
214	1
223	27
224	4
225	3
226	88
227	13
228	1
237	3
239	3
258	3
270	5
271	1
346	116
347	24
348	12
349	2
