Mass Spectrum: (p-Chlorophenylimino)(p-tolyloxy)methyl N,N-dimethyldithiocarbamate
Formula: C17H17ClN2OS2
CAS: 10506-15-7
Molecular weight: 364
m/z	intensity
15	5
26	1
27	6
28	2
30	2
32	2
36	1
37	3
38	4
39	12
40	1
41	3
42	28
43	6
44	20
45	9
46	1
47	12
49	2
50	17
51	16
52	5
53	5
54	1
55	1
56	13
57	1
58	1
59	1
60	1
61	9
62	4
63	11
64	5
65	25
66	3
67	1
69	2
70	2
71	2
72	411
73	49
74	13
75	57
76	14
77	21
78	5
79	11
80	2
81	1
82	1
83	2
84	11
85	6
86	2
87	5
88	999
89	53
90	55
91	106
92	9
96	20
97	3
98	1
99	4
100	1
101	1
102	7
105	2
106	1
107	37
108	32
109	4
110	3
111	106
112	8
113	34
114	3
118	1
119	4
120	3
121	2
123	9
124	3
125	12
126	1
127	6
129	1
133	6
134	26
135	4
136	2
137	15
138	3
139	5
140	1
142	6
143	4
144	2
145	2
146	1
149	5
151	2
153	2
155	1
161	1
163	2
165	2
166	11
167	2
168	5
169	327
170	31
171	120
172	10
173	5
178	4
179	1
180	2
181	78
182	9
183	24
184	3
187	3
189	1
191	1
195	117
196	13
197	7
198	1
203	9
205	6
207	1
208	1
209	6
210	1
211	1
213	1
215	1
216	5
217	1
218	1
221	5
226	8
227	1
228	2
241	255
242	31
243	95
244	82
245	14
246	23
247	3
257	25
258	3
259	10
260	1
273	1
275	2
277	1
278	2
280	1
288	2
364	62
365	12
366	25
367	5
368	2
