Mass Spectrum: o-(p-Bromophenyl) 2-phenyl-4,4-dimethyl-1,3-dithioallophanate
Formula: C16H15BrN2OS2
CAS: 10506-41-9
Molecular weight: 394
m/z	intensity
15	6
26	1
27	3
28	1
30	2
32	2
34	1
37	3
38	7
39	9
40	1
41	2
42	29
43	6
44	18
45	7
46	1
47	12
49	2
50	21
51	47
52	4
53	1
54	2
55	1
56	14
57	1
58	1
59	1
60	1
61	9
62	4
63	15
64	11
65	10
66	1
67	9
68	1
69	3
70	2
71	2
72	429
73	47
74	10
75	19
76	28
77	174
78	12
79	1
80	1
82	2
83	2
84	2
86	1
87	4
88	999
89	48
90	65
91	19
92	3
93	9
94	1
95	1
96	1
97	1
99	2
102	2
103	7
104	4
105	1
106	1
107	1
108	15
109	11
110	2
111	1
117	2
119	4
120	2
121	1
131	4
132	16
133	2
134	2
135	279
136	31
137	14
138	1
143	6
145	6
146	1
147	106
148	11
149	2
150	1
152	1
153	4
155	19
156	2
157	18
158	1
163	2
164	3
165	1
166	1
167	10
168	2
169	1
171	4
172	16
173	4
174	16
175	1
178	1
179	4
180	4
181	1
183	2
185	2
187	3
188	1
189	3
190	2
195	12
196	3
198	1
207	287
208	35
209	15
210	2
215	1
217	1
223	24
224	3
225	3
227	1
239	3
258	1
259	27
260	4
261	28
262	3
263	1
274	39
275	6
276	38
277	6
285	2
287	2
316	1
317	1
318	3
319	1
320	3
394	30
395	6
396	32
397	6
398	3
