Mass Spectrum: 5,12-Naphthacenedione, 7,8,9,10-tetrahydro-8-ethyl-10-((3-(4-morpholinyl)-2,3,6-trideoxy-.alpha.-L-lyxo-hexopyranosyl)oxy)-1,6,7,8,11-pentahydroxy-
Formula: C30H35NO11
CAS: 105026-50-4
Molecular weight: 585
m/z	intensity
41	893
42	759
43	832
44	207
45	405
46	8
47	71
48	26
52	58
53	140
54	359
55	927
56	536
57	867
58	188
59	40
60	31
61	12
62	11
63	33
64	16
65	86
66	50
67	205
68	273
69	293
70	255
71	224
72	82
73	32
74	15
75	16
76	13
77	52
78	70
79	31
80	64
81	70
82	296
83	493
84	429
85	132
86	200
87	160
88	66
89	22
90	1
91	20
92	19
93	30
94	224
95	121
96	137
97	82
98	171
99	25
100	101
101	19
102	10
103	10
105	16
106	23
107	17
108	21
109	18
110	59
111	229
112	351
113	543
114	201
115	31
116	9
118	6
119	14
120	12
121	32
122	23
123	5
124	999
125	87
126	87
127	31
128	62
129	41
130	31
131	14
133	1
137	7
138	19
139	18
140	105
141	553
142	879
143	98
144	19
145	15
146	4
147	3
149	14
150	8
151	11
152	25
153	35
154	17
155	17
156	24
157	6
158	25
160	6
163	10
165	11
166	16
167	5
168	7
170	16
171	4
172	18
173	14
174	8
175	6
179	4
181	24
183	1
184	13
189	6
197	9
198	13
199	28
200	180
201	29
202	11
203	13
209	1
215	1
216	10
217	19
218	4
219	10
221	1
237	2
240	1
241	1
255	1
256	1
257	2
265	3
267	1
270	10
283	17
284	10
285	2
293	6
294	21
295	30
296	43
297	11
311	31
312	24
313	1
314	24
319	3
322	5
323	7
334	44
335	17
350	29
351	13
352	1
368	25
369	5
