Mass Spectrum: Tetracyclo[3.3.1.1(3,7).0(2,4)]decane
Formula: C10H14
CAS: 10501-16-3
Molecular weight: 134
m/z	intensity
26	8
27	129
28	10
29	34
30	1
31	1
37	4
38	17
39	263
40	38
41	188
42	10
43	13
44	2
45	2
49	1
50	29
51	98
52	48
53	85
54	18
55	34
56	92
57	11
58	11
59	4
60	1
61	2
62	10
63	41
64	18
65	141
66	127
67	162
68	17
69	6
70	3
71	2
73	1
74	6
75	8
76	7
77	443
78	277
79	820
80	395
81	36
82	4
83	3
84	1
85	2
86	2
87	2
89	15
90	6
91	727
92	999
93	441
94	41
95	7
96	1
97	2
98	1
99	1
101	2
102	6
103	28
104	16
105	204
106	130
107	19
108	4
109	2
111	1
114	1
115	28
116	9
117	29
118	6
119	314
120	35
121	6
122	1
123	1
127	3
128	6
129	3
131	4
132	1
133	22
134	652
135	90
136	14
137	2
138	1
