Mass Spectrum: Furan, 2,3,5-trimethyl-
Formula: C7H10O
CAS: 10504-04-8
Molecular weight: 110
m/z	intensity
25	1
26	9
27	41
28	73
29	4
30	2
31	7
36	3
37	10
38	23
39	183
40	41
41	153
42	16
43	999
44	11
45	3
46	1
50	11
51	24
52	7
53	27
54	18
55	16
62	12
63	22
64	8
65	65
66	31
67	589
68	18
72	2
75	2
77	10
79	13
81	10
82	2
86	3
89	4
93	9
94	3
95	718
96	18
105	3
108	20
109	869
110	941
111	36
