Mass Spectrum: o-(p-Tolyl) 2-(p-chlorophenyl)-4,4-dimethyl-1,3-dithioallophanate
Formula: C17H17ClN2OS2
CAS: 10508-45-9
Molecular weight: 364
m/z	intensity
15	5
27	5
28	2
30	2
32	2
36	1
37	2
38	3
39	10
40	1
41	3
42	25
43	6
44	18
45	8
46	1
47	11
49	2
50	15
51	14
52	4
53	4
54	1
55	1
56	10
57	1
58	1
59	1
60	1
61	9
62	4
63	9
64	4
65	21
66	3
67	1
69	2
70	2
71	2
72	399
73	45
74	10
75	53
76	13
77	18
78	4
79	10
80	2
81	1
82	1
83	1
84	11
85	5
86	1
87	5
88	999
89	52
90	54
91	88
92	7
96	21
97	3
99	3
101	1
102	7
105	2
106	1
107	33
108	31
109	4
110	2
111	104
112	8
113	33
114	3
118	1
119	4
120	2
121	1
123	9
124	3
125	13
126	1
127	6
133	5
134	25
135	4
136	2
137	14
138	3
139	5
140	1
142	6
143	4
144	2
145	1
146	1
149	5
151	2
153	2
155	1
161	1
163	2
165	2
166	11
167	2
168	4
169	327
170	30
171	119
172	10
173	5
178	4
179	2
180	1
181	80
182	9
183	25
184	3
187	3
189	1
191	1
195	120
196	14
197	7
198	1
209	5
210	1
213	1
216	4
218	1
221	5
226	6
227	1
228	2
241	279
242	34
243	103
244	65
245	12
246	17
247	2
257	27
258	4
259	10
260	1
261	1
273	1
288	2
364	71
365	14
366	30
367	6
368	2
