Mass Spectrum: (p-(Ethoxycarbonyl)phenoxy)(phenylimino)methyl N,N-dimethyldithiocarbamate
Formula: C19H20N2O3S2
CAS: 10506-08-8
Molecular weight: 388
m/z	intensity
15	9
17	1
18	1
26	2
27	11
28	11
29	25
30	4
32	3
34	1
37	4
38	9
39	18
40	2
41	4
42	36
43	9
44	28
45	9
46	1
47	13
49	2
50	29
51	72
52	7
53	4
54	4
55	3
56	17
57	3
58	2
59	2
60	3
61	9
62	4
63	16
64	17
65	32
66	3
67	13
68	2
69	5
70	2
71	3
72	775
73	61
74	13
75	16
76	42
77	237
78	17
79	2
81	6
82	4
83	2
84	3
85	1
87	7
88	999
89	52
90	48
91	27
92	9
93	21
94	3
95	1
96	1
97	1
98	1
99	1
102	1
103	36
104	10
105	3
106	2
107	3
108	17
109	15
110	2
111	2
117	1
118	1
119	5
120	6
121	93
122	9
123	2
125	1
131	6
132	30
133	4
134	3
135	376
136	41
137	20
138	22
139	2
146	1
147	193
148	21
149	38
150	5
151	4
152	1
153	4
154	1
161	1
163	3
164	3
165	2
166	22
167	7
168	11
169	5
171	1
177	3
178	9
179	5
180	2
181	5
182	1
190	2
191	1
194	1
195	3
196	8
197	1
207	187
208	47
209	12
210	2
212	1
219	3
221	1
222	2
223	27
224	6
225	3
239	4
240	2
241	1
253	53
254	8
255	3
267	1
268	123
269	22
270	2
279	9
280	1
300	1
311	1
312	28
313	6
388	76
389	17
390	9
391	1
