Mass Spectrum: (p-(Methoxycarbonyl)phenoxy)(phenylimino)methyl N,N-dimethyldithiocarbamate
Formula: C18H18N2O3S2
CAS: 10516-20-8
Molecular weight: 374
m/z	intensity
15	9
17	1
18	1
27	3
28	2
29	1
30	1
32	2
34	1
37	2
38	5
39	9
40	1
41	2
42	24
43	6
44	21
45	6
46	1
47	10
49	1
50	16
51	53
52	5
53	1
54	3
55	1
56	9
57	1
58	1
59	9
60	3
61	7
62	2
63	9
64	9
65	9
66	1
67	10
68	2
69	2
70	1
71	3
72	591
73	46
74	9
75	12
76	42
77	223
78	15
79	2
82	3
83	1
84	2
87	4
88	999
89	52
90	48
91	23
92	7
93	13
94	1
95	2
96	1
99	1
102	1
103	25
104	9
105	2
106	1
107	4
108	16
109	9
110	1
111	2
117	1
119	7
120	10
121	58
122	5
123	4
131	5
132	27
133	4
134	4
135	430
136	46
137	20
138	2
139	2
146	1
147	198
148	21
149	4
150	2
151	4
152	27
153	6
154	1
163	6
164	3
165	3
166	4
167	11
168	2
169	6
171	2
178	2
179	5
180	2
181	2
182	3
190	3
191	1
192	8
193	1
194	6
195	9
196	2
205	4
206	1
207	202
208	41
209	12
210	3
222	3
223	36
224	6
225	4
226	2
227	1
238	1
239	85
240	11
241	6
254	175
255	29
256	3
265	16
266	2
267	2
286	2
288	1
297	2
298	36
299	7
300	1
314	1
374	158
375	35
376	17
377	3
