Mass Spectrum: Benzyl hexyl maleate
Formula: C17H22O4
CAS: 105113-87-9
Molecular weight: 290
m/z	intensity
39	79
41	130
42	37
43	621
51	29
54	46
55	247
56	121
57	445
63	29
64	12
65	113
69	42
72	50
77	105
78	16
79	92
81	16
82	138
84	42
85	197
89	46
90	109
91	819
92	100
99	205
100	999
101	79
105	63
106	37
107	134
108	42
115	25
116	21
117	42
133	16
144	16
161	138
162	113
163	21
183	46
184	176
185	33
188	25
189	50
245	29
246	12
290	25
291	12
