Mass Spectrum: o-(p-Methoxyphenyl) 4,4-dimethyl-2-phenyl-1,3-dithioallophanate
Formula: C17H18N2O2S2
CAS: 10516-28-6
Molecular weight: 346
m/z	intensity
15	4
17	1
26	1
27	3
28	2
30	1
32	1
37	1
38	3
39	6
40	1
41	7
42	17
43	3
44	10
45	4
47	8
49	1
50	9
51	33
52	6
53	3
54	4
55	1
56	8
58	1
61	5
62	2
63	8
64	10
65	5
67	7
68	1
69	2
70	1
71	1
72	276
73	31
74	5
75	4
76	10
77	140
78	9
79	2
80	2
81	4
82	2
83	1
84	1
87	2
88	999
89	47
90	46
91	11
92	10
93	1
95	7
96	1
99	1
102	1
103	7
104	2
105	3
106	1
107	15
108	9
109	22
110	2
119	1
120	1
121	1
123	14
124	24
125	2
131	2
132	10
133	1
134	2
135	260
136	26
137	12
138	1
139	6
140	1
147	56
148	6
149	1
153	1
154	1
163	1
164	2
167	1
179	2
180	1
183	1
195	2
196	1
198	2
207	444
208	58
209	23
210	3
211	120
212	14
213	6
223	22
224	3
225	3
226	17
227	3
239	1
270	4
346	22
347	5
348	2
