Mass Spectrum: Benzyl heptyl maleate
Formula: C18H24O4
CAS: 105113-88-0
Molecular weight: 304
m/z	intensity
39	61
41	244
42	69
43	346
51	16
53	16
54	57
55	342
56	93
57	559
58	12
65	77
68	44
70	65
71	8
77	53
79	65
81	12
82	110
89	28
90	93
91	840
92	65
96	12
97	16
98	24
99	142
100	999
101	40
104	40
106	16
107	134
108	28
115	32
116	8
117	44
131	8
133	20
144	16
145	8
160	8
161	106
162	89
163	20
188	28
189	40
190	12
197	16
198	114
199	28
259	9
260	3
304	9
305	3
