Mass Spectrum: (p-Chlorophenoxy)(p-chlorophenylimino)methyl N,N-dimethyldithiocarbamate
Formula: C16H14Cl2N2OS2
CAS: 10516-22-0
Molecular weight: 384
m/z	intensity
15	8
26	1
27	3
28	2
29	1
30	3
32	2
34	1
36	4
37	4
38	6
39	9
40	1
41	2
42	38
43	7
44	32
45	9
46	2
47	17
49	3
50	24
51	14
52	1
53	1
55	1
56	16
57	2
58	1
59	1
60	2
61	14
62	6
63	15
64	9
65	9
66	4
67	2
69	3
70	2
71	3
72	502
73	68
74	18
75	101
76	21
77	5
78	1
79	3
81	1
82	1
83	2
84	15
85	9
86	2
87	6
88	999
89	51
90	59
91	3
92	1
93	1
94	1
95	1
97	1
98	1
99	15
100	5
101	5
102	10
103	1
107	4
108	6
109	3
110	2
111	212
112	14
113	66
114	5
118	2
120	5
124	1
125	17
126	1
127	18
128	39
129	6
130	12
131	1
133	6
134	32
135	4
136	2
137	18
138	3
139	9
140	2
141	1
142	7
143	9
144	4
145	4
146	1
149	5
151	1
153	6
155	2
163	1
165	2
166	10
167	2
168	4
169	323
170	30
171	118
172	10
173	6
176	1
178	2
181	49
182	5
183	15
184	2
187	3
189	1
193	2
198	1
199	1
200	1
201	9
202	1
203	3
211	1
213	1
214	1
215	43
216	5
217	15
218	1
229	9
230	2
231	4
232	1
236	3
238	2
241	134
242	16
243	49
244	6
245	2
246	4
248	3
257	24
258	3
259	10
260	1
261	1
264	87
265	12
266	56
267	8
268	9
269	1
273	1
308	1
384	21
385	4
386	15
387	3
388	3
