Mass Spectrum: o-(4-Biphenylyl) 4,4-dimethyl-2-phenyl-1,3-dithioallophanate
Formula: C22H20N2OS2
CAS: 10516-31-1
Molecular weight: 392
m/z	intensity
15	6
26	1
27	5
28	1
30	2
32	2
34	1
37	3
38	5
39	11
40	1
41	2
42	27
43	8
44	17
45	6
46	1
47	11
49	2
50	20
51	62
52	5
53	1
54	3
55	3
56	13
57	2
58	3
59	1
60	1
61	8
62	4
63	15
64	8
65	6
67	13
68	1
69	3
70	3
71	2
72	737
73	52
74	11
75	10
76	29
77	221
78	15
79	1
82	1
83	2
84	5
85	5
86	1
87	4
88	999
89	57
90	49
91	21
92	3
93	1
99	2
101	1
102	5
103	13
104	2
106	1
107	1
108	15
109	7
110	1
113	2
114	2
115	33
116	4
119	2
120	1
121	1
126	3
127	5
128	7
129	1
131	3
132	16
133	2
134	3
135	412
136	40
137	19
138	2
139	11
140	3
141	32
142	5
147	99
148	9
149	1
150	4
151	10
152	40
153	33
154	6
155	1
163	1
164	2
167	1
168	2
169	18
170	118
171	15
172	2
178	1
179	2
180	1
181	4
184	5
185	10
186	3
197	1
200	1
207	367
208	46
209	19
210	2
223	12
224	2
225	1
239	1
241	2
244	6
245	1
254	4
255	1
256	1
257	186
258	32
259	10
260	1
272	19
273	5
316	11
317	3
392	10
393	2
394	1
