Mass Spectrum: Benzyl pentyl maleate
Formula: C16H20O4
CAS: 105113-86-8
Molecular weight: 276
m/z	intensity
39	120
41	219
42	34
43	512
51	77
54	116
55	284
57	366
63	21
65	129
69	30
70	112
71	241
72	12
77	129
78	17
81	17
82	150
89	30
90	155
91	857
92	116
99	189
100	999
101	47
105	86
106	17
107	150
108	30
115	21
117	25
133	21
144	17
161	116
162	94
163	17
169	34
170	193
171	21
188	12
189	30
207	12
231	21
232	8
276	25
277	12
