Mass Spectrum: Hydrazinecarbothioamide, 2-(3,5-diacetoxyphenyl)methylene-
Formula: C12H13N3O4S
CAS: 105142-75-4
Molecular weight: 295
m/z	intensity
25	0
26	5
27	17
29	12
30	3
31	8
33	6
34	13
35	0
36	2
37	2
38	11
39	26
40	5
41	33
42	34
43	999
44	30
45	12
46	4
47	2
48	5
49	1
50	12
51	28
52	18
53	15
54	11
55	24
56	14
57	41
58	2
59	24
60	106
61	6
62	10
63	16
64	6
65	16
66	14
67	16
68	11
69	53
70	9
71	18
72	1
73	6
74	7
75	13
76	387
77	186
78	36
79	35
80	16
81	40
82	16
83	18
84	8
85	19
86	2
87	2
88	1
89	2
90	3
91	4
92	5
93	14
94	21
95	30
96	17
97	13
98	4
99	4
100	2
101	6
102	166
103	10
104	11
105	31
106	21
107	34
108	46
109	90
110	48
111	12
112	4
113	3
114	2
115	3
116	3
117	4
118	9
119	41
120	9
121	17
122	32
123	79
124	26
125	41
126	5
127	3
128	1
129	2
130	1
131	2
132	2
133	8
134	21
135	264
136	168
137	92
138	28
139	4
140	17
141	8
142	4
143	2
144	3
145	1
146	1
147	1
148	4
149	41
150	44
151	128
152	186
153	19
154	8
155	5
156	1
157	1
158	0
159	1
160	2
161	2
162	2
163	1
164	3
165	6
166	10
167	7
168	11
169	8
170	1
171	1
172	0
173	0
174	0
175	1
176	4
177	107
178	98
179	26
180	14
181	5
182	7
183	4
184	1
185	1
186	0
187	0
188	0
189	0
190	0
191	0
192	2
193	22
194	120
195	14
196	6
197	1
198	0
199	0
200	0
201	0
202	0
203	0
204	0
205	1
206	0
207	1
208	0
209	3
210	14
211	4
212	1
213	0
214	0
215	0
216	0
217	0
218	0
219	23
220	86
221	13
222	8
223	3
224	1
225	0
226	0
227	0
228	0
229	0
230	0
234	1
235	6
236	51
237	7
238	3
239	1
240	0
241	0
250	1
251	2
252	7
253	19
254	3
255	1
256	0
257	0
261	4
262	2
263	1
264	4
265	1
266	0
267	0
268	0
278	10
279	2
280	0
281	0
293	1
294	6
295	270
296	44
297	18
298	2
299	0
