Mass Spectrum: 1,4-Butanedione, 1,2,3,4-tetraphenyl-
Formula: C28H22O2
CAS: 10516-92-4
Molecular weight: 390
m/z	intensity
51	30
76	9
77	421
78	33
90	6
102	8
105	999
106	149
107	10
152	20
165	49
166	12
167	21
176	6
177	9
178	52
179	65
180	57
181	9
195	8
223	5
267	8
268	287
269	71
270	13
284	7
285	129
286	30
373	9
388	9
390	59
391	21
392	6
