Mass Spectrum: o-(m-Tolyl) 4,4-dimethyl-2-phenyl-1,3-dithioallophanate
Formula: C17H18N2OS2
CAS: 10516-27-5
Molecular weight: 330
m/z	intensity
15	4
17	1
27	4
28	1
30	2
32	1
37	1
38	2
39	11
40	1
41	3
42	20
43	5
44	16
45	6
47	9
50	8
51	31
52	4
53	3
54	1
56	9
58	1
61	5
62	1
63	7
64	4
65	23
66	2
67	7
69	1
70	1
71	2
72	218
73	33
74	5
75	4
76	11
77	127
78	12
79	9
80	1
83	1
84	1
87	3
88	999
89	49
90	48
91	120
92	9
93	2
96	13
97	2
99	2
102	1
103	6
104	4
105	2
106	1
107	20
108	23
109	11
110	2
119	5
120	2
121	1
123	9
124	2
131	3
132	15
133	2
134	2
135	214
136	26
137	11
138	1
147	141
148	14
149	1
150	3
151	2
152	1
153	4
163	2
164	4
165	3
166	1
167	4
178	1
179	7
180	2
182	20
183	3
190	3
191	1
192	34
193	5
194	1
195	73
196	9
197	4
198	1
207	387
208	48
209	20
210	173
211	26
212	2
221	8
222	1
223	35
224	5
225	3
239	5
241	1
242	6
243	1
253	1
254	4
330	253
331	52
332	27
333	4
334	1
