Mass Spectrum: Benzyl ethyl maleate
Formula: C13H14O4
CAS: 105113-84-6
Molecular weight: 234
m/z	intensity
39	90
43	21
45	12
51	64
52	12
53	12
54	72
55	347
56	21
63	30
65	240
71	17
72	55
77	115
78	25
79	94
81	8
82	253
83	17
89	55
90	115
91	999
92	81
99	600
100	510
101	25
105	30
107	64
108	12
115	34
116	12
117	72
118	12
127	85
128	935
129	72
133	21
144	17
161	38
162	17
188	17
189	60
190	17
234	30
235	12
