Mass Spectrum: Cyclopentaneacetic acid, 2-(hydroxymethyl)-3-methyl-, .delta.-lactone
Formula: C9H14O2
CAS: 105181-38-2
Molecular weight: 154
m/z	intensity
26	5
27	41
29	44
38	14
39	169
40	41
41	265
42	54
43	46
51	47
52	22
53	124
54	135
55	191
56	45
57	32
61	4
62	5
65	45
66	38
67	999
68	250
69	121
70	21
71	28
77	60
79	106
80	88
81	634
82	493
83	44
92	22
93	43
94	83
95	311
96	194
97	32
98	12
99	46
108	71
111	25
121	20
123	21
124	76
125	40
136	40
154	161
155	12
