Mass Spectrum: o-(p-(Ethoxycarbonyl)phenyl) 4,4-dimethyl-2-phenyl-1,3-dithioallophanate
Formula: C19H20N2O3S2
CAS: 10516-29-7
Molecular weight: 388
m/z	intensity
15	8
17	1
18	2
26	2
27	9
28	9
29	21
30	3
32	2
37	3
38	7
39	13
40	1
41	2
42	31
43	8
44	24
45	8
46	1
47	12
49	2
50	24
51	59
52	6
53	3
54	4
55	1
56	14
57	2
58	2
59	2
60	2
61	8
62	3
63	13
64	14
65	26
66	3
67	12
68	2
69	3
70	2
71	3
72	680
73	53
74	11
75	13
76	34
77	211
78	15
79	1
81	4
82	3
83	2
84	3
87	6
88	999
89	51
90	49
91	22
92	9
93	15
94	2
95	1
96	1
97	1
99	2
102	1
103	30
104	9
105	2
106	1
107	2
108	15
109	15
110	2
111	1
117	1
119	3
120	5
121	68
122	7
123	1
125	1
131	6
132	28
133	3
134	3
135	343
136	38
137	18
138	16
139	2
146	1
147	190
148	20
149	34
150	5
151	3
152	1
153	5
154	1
163	3
164	3
165	2
166	17
167	6
168	10
169	1
177	3
178	9
179	5
180	2
181	5
182	1
190	2
191	1
192	1
194	1
195	2
196	8
197	1
207	219
208	49
209	14
210	3
212	1
219	2
222	1
223	31
224	6
225	3
237	1
239	4
240	2
241	1
253	57
254	9
255	4
267	1
268	119
269	22
270	2
272	1
279	11
280	2
300	1
311	1
312	26
313	5
388	94
389	21
390	10
391	2
