Mass Spectrum: o-(p-Tolyl) 4,4-dimethyl-2-phenyl-1,3-dithioallophanate
Formula: C17H18N2OS2
CAS: 10516-26-4
Molecular weight: 330
m/z	intensity
15	4
17	4
18	25
26	1
27	8
28	8
30	2
32	2
34	1
37	2
38	4
39	13
40	1
41	4
42	26
43	5
44	17
45	8
46	1
47	11
49	1
50	16
51	56
52	8
53	4
54	3
55	1
56	12
57	1
58	1
59	1
60	1
61	8
62	3
63	9
64	7
65	24
66	2
67	10
68	1
69	2
70	2
71	2
72	402
73	46
74	9
75	7
76	16
77	216
78	18
79	12
80	2
82	1
83	1
84	2
87	3
88	999
89	53
90	51
91	90
92	7
93	1
96	20
97	3
99	1
102	1
103	9
104	3
105	2
106	2
107	37
108	42
109	10
110	2
119	7
120	2
121	2
123	9
124	2
131	3
132	15
133	2
134	3
135	364
136	38
137	18
138	2
147	102
148	10
149	1
150	2
151	1
152	1
153	3
163	2
164	3
165	2
167	3
178	2
179	5
180	2
182	12
183	2
190	2
191	1
192	17
193	3
194	1
195	135
196	16
197	7
198	1
207	350
208	43
209	18
210	73
211	11
212	1
221	2
222	1
223	19
224	3
225	2
239	2
242	3
254	6
255	1
330	99
331	19
332	10
333	1
