Mass Spectrum: Benzyl nonyl maleate
Formula: C20H28O4
CAS: 105113-90-4
Molecular weight: 332
m/z	intensity
39	131
41	393
42	151
43	528
50	24
51	49
52	20
54	110
55	397
56	151
57	459
63	32
65	77
67	28
68	32
69	213
70	110
71	241
72	49
77	122
78	32
79	61
81	49
82	131
83	32
85	114
89	16
90	28
91	815
92	151
93	32
95	16
96	36
97	69
99	106
100	999
101	49
105	122
106	49
107	151
108	65
115	16
117	24
131	8
133	24
143	8
144	28
160	8
161	131
162	77
163	8
188	16
189	36
225	12
226	81
227	12
287	7
288	3
332	8
333	1
