Mass Spectrum: 3-Pyridinecarbonitrile, 2-nitro-
Formula: C6H3N3O2
CAS: 105151-36-8
Molecular weight: 149
m/z	intensity
50	60
51	100
52	80
63	30
64	60
75	120
76	550
77	80
91	70
103	999
104	100
119	20
149	60
