Mass Spectrum: Benzyl methyl maleate
Formula: C12H12O4
CAS: 105113-83-5
Molecular weight: 220
m/z	intensity
39	158
43	38
51	98
53	42
55	227
59	150
63	17
65	227
66	12
77	180
78	38
79	167
82	128
85	124
86	107
89	120
90	296
91	999
92	175
99	111
105	38
107	171
108	17
113	291
114	969
115	167
133	12
144	34
160	12
161	47
175	55
176	21
188	17
189	42
220	51
221	12
