Mass Spectrum: Boron, 1,5-cyclooctanediyl[2-(methylamino)ethanolato-N,O]-, (t-4)-
Formula: C11H22BNO
CAS: 105142-25-4
Molecular weight: 195
m/z	intensity
28	149
29	173
30	533
31	10
36	1
37	10
38	6
39	92
41	186
42	137
43	151
44	856
45	21
49	0
50	7
51	21
52	12
53	48
54	45
55	97
56	190
57	74
58	999
59	35
61	0
62	1
63	5
64	7
65	26
66	16
67	86
68	35
69	41
70	44
71	29
72	8
75	1
76	3
77	13
78	6
79	22
80	12
81	36
82	32
83	49
84	64
85	29
86	62
87	2
88	0
89	2
90	2
91	11
92	5
93	8
94	5
95	19
96	48
97	86
98	211
99	556
100	30
101	1
105	1
106	1
107	3
108	7
109	46
110	166
111	126
112	264
113	71
114	4
120	0
121	2
122	6
123	40
124	182
125	223
126	73
127	26
128	1
135	1
136	6
137	74
138	297
139	94
140	21
141	18
142	0
149	0
150	3
151	34
152	140
153	32
154	14
155	0
164	2
165	29
166	109
167	18
168	1
179	6
180	29
181	3
182	0
193	6
194	61
195	166
196	23
197	1
