Mass Spectrum: Cyclohexanecarboxylic acid, 3-(acetyloxy)
Formula: C9H14O4
CAS: 105207-65-6
Molecular weight: 186
m/z	intensity
25	0
26	6
27	72
28	17
29	64
30	2
31	10
33	0
34	0
35	2
36	10
37	0
38	6
39	75
40	13
41	139
42	48
43	999
44	45
45	41
46	1
47	5
48	0
49	0
50	4
51	9
52	9
53	31
54	77
55	96
56	17
57	52
58	12
59	4
60	15
61	132
62	4
63	2
64	1
65	7
66	9
67	52
68	17
69	59
70	46
71	19
72	4
73	31
74	12
75	5
76	1
77	13
78	3
79	50
80	281
81	322
82	48
83	52
84	70
85	12
86	5
87	4
88	1
89	0
90	0
91	1
92	1
93	3
94	1
95	5
96	3
97	84
98	98
99	14
100	3
101	3
102	8
103	1
104	1
105	2
106	0
107	3
108	230
109	25
110	3
111	15
112	3
113	2
114	0
115	4
116	1
117	2
118	0
119	1
120	0
121	2
122	1
123	2
124	1
125	31
126	115
127	14
128	1
129	3
140	15
141	2
142	1
143	20
144	2
168	3
169	0
171	0
185	1
186	0
