Mass Spectrum: 4H-Pyran-3-carbonitrile, 5-acetyl-2-amino-4-(2-furyl)-6-methyl-
Formula: C13H12N2O3
CAS: 105263-08-9
Molecular weight: 244
m/z	intensity
36	4
37	15
38	46
39	142
40	59
41	36
42	70
43	999
44	127
45	14
50	27
51	60
52	40
53	35
54	11
55	28
56	9
57	12
58	6
59	5
61	8
62	25
63	71
64	43
65	65
66	32
67	50
68	49
69	11
70	34
71	6
72	6
73	7
74	10
75	23
76	30
77	59
78	21
79	19
80	11
81	21
82	6
83	11
84	5
85	15
86	8
87	8
88	12
89	24
90	30
91	34
92	18
93	12
94	6
95	10
96	4
99	9
100	13
101	18
102	24
103	45
104	20
105	18
106	8
107	8
108	11
114	3
115	12
116	14
117	21
118	25
119	30
120	7
121	31
122	4
126	10
127	6
128	27
129	15
130	34
131	32
132	21
133	10
134	12
135	22
141	3
142	4
143	8
144	18
145	57
146	25
147	9
148	11
149	6
150	2
155	17
156	40
157	17
158	35
159	44
160	16
161	7
162	6
163	8
170	5
171	8
172	9
173	37
174	17
175	10
177	13
178	4
183	6
184	12
185	8
186	4
187	9
188	4
189	6
190	15
197	4
198	10
199	9
200	10
201	185
202	24
211	10
212	3
215	11
216	116
217	16
218	2
225	0
226	2
227	3
228	0
229	7
230	1
242	0
244	39
245	5
246	0
