Mass Spectrum: Ethanol, 1,1'-oxybis-, diacetate
Formula: C8H14O5
CAS: 10526-21-3
Molecular weight: 190
m/z	intensity
14	30
15	135
16	5
17	0
19	4
26	7
27	23
28	11
29	42
31	3
41	6
42	32
43	999
44	37
45	84
60	14
61	7
71	12
86	13
87	287
88	14
89	3
103	28
131	65
132	4
