Mass Spectrum: Cyclohexanepropanol, .alpha.-methyl-
Formula: C10H20O
CAS: 10528-67-3
Molecular weight: 156
m/z	intensity
15	8
17	9
18	39
19	10
26	3
27	74
28	33
29	89
30	3
31	16
32	6
38	3
39	96
40	17
41	310
42	45
43	146
44	41
45	999
46	24
47	3
49	2
50	4
51	15
52	7
53	53
54	113
55	589
56	89
57	39
58	41
59	19
63	6
65	20
66	31
67	455
68	122
69	115
70	14
71	46
72	8
73	2
77	23
78	15
79	38
80	21
81	595
82	577
83	509
84	38
85	5
89	2
91	63
92	27
93	13
94	15
95	142
96	741
97	102
98	7
99	2
100	1
103	5
104	5
105	20
106	3
107	5
108	4
109	78
110	70
111	36
112	56
113	7
115	3
117	37
118	4
121	11
123	80
124	7
125	3
131	4
132	22
133	5
134	4
135	2
136	5
137	6
138	23
139	17
140	2
141	30
142	3
147	11
148	12
149	4
150	4
154	3
155	1
