Mass Spectrum: 3-Penten-2-one, 5-phenyl-
Formula: C11H12O
CAS: 10521-97-8
Molecular weight: 160
m/z	intensity
41	10
42	10
43	530
44	20
50	10
51	50
62	10
63	40
64	10
65	30
74	10
77	30
78	10
87	10
89	30
91	150
92	20
102	20
103	10
104	10
105	10
113	10
115	270
116	80
117	999
118	130
119	10
127	60
128	20
129	20
141	10
142	10
143	10
144	10
145	60
146	10
157	10
158	20
159	10
160	380
161	50
