Mass Spectrum: 1,5-Dioxaspiro[5.5]undecane-2,4-dione, 7-isopropyl-10-methyl-
Formula: C13H20O4
CAS: 105252-83-3
Molecular weight: 240
m/z	intensity
25	3
26	5
27	106
28	14
29	135
30	8
31	5
34	0
37	2
38	2
39	105
40	34
41	549
42	203
43	298
44	43
45	15
46	2
47	3
48	4
49	1
50	2
51	7
52	9
53	63
54	30
55	485
56	254
57	74
58	17
59	25
60	7
61	1
62	0
63	2
65	15
66	9
67	74
68	66
69	999
70	231
71	48
72	22
73	11
74	1
77	17
78	4
79	28
80	35
81	85
82	34
83	188
84	156
85	28
86	19
87	45
88	4
89	0
91	13
92	21
93	80
94	53
95	189
96	39
97	188
98	240
99	28
100	6
101	4
102	0
103	2
105	6
106	2
107	54
108	24
109	62
110	210
111	312
112	971
113	78
114	10
115	10
116	1
119	2
120	1
121	355
122	41
123	19
124	6
125	52
126	32
127	7
128	3
129	3
130	3
135	11
136	695
137	90
138	10
139	375
140	43
141	7
142	3
143	0
144	0
145	12
146	2
147	0
148	0
149	0
151	4
152	22
153	87
154	231
155	166
156	17
157	7
158	4
159	0
162	0
163	3
164	3
165	3
166	4
167	2
168	2
169	4
170	17
171	6
172	6
178	4
179	1
180	1
181	1
182	2
183	0
184	9
185	3
193	1
194	4
196	1
197	1
198	3
204	0
212	1
221	1
225	0
240	10
241	2
