Mass Spectrum: 2-Oxo-3-[3-methoxybenzoyl]propanoic acid
Formula: C11H10O5
CAS: 105356-66-9
Molecular weight: 222
m/z	intensity
42	64
43	30
44	22
45	129
46	3
47	1
49	5
50	68
51	90
52	28
53	37
54	3
55	13
56	3
57	12
59	7
61	9
62	35
63	133
64	102
65	68
66	20
67	6
69	999
70	31
71	17
73	4
74	23
75	24
76	38
77	217
78	62
79	22
80	1
81	6
82	1
83	4
84	2
85	6
86	4
87	6
89	94
90	15
91	33
92	109
93	38
94	97
95	8
96	1
97	3
98	1
99	1
101	5
102	16
103	7
104	3
105	26
106	3
107	88
109	337
110	22
111	2
112	0
113	0
115	1
116	2
117	7
118	10
119	7
120	2
121	10
122	2
125	1
127	1
129	0
131	1
132	11
133	1
134	29
135	148
136	13
137	1
139	0
145	5
146	4
147	8
148	2
150	20
151	2
152	0
159	0
160	1
161	3
162	11
163	5
164	0
169	0
171	0
173	3
175	6
176	0
177	806
178	84
179	9
180	1
181	0
191	1
194	1
220	0
221	1
222	313
223	41
224	5
225	0
