Mass Spectrum: Phenothiazine, 10-(2-(2-piperidyl)-ethyl)-2-methylthio-,
Formula: C20H24N2S2
CAS: 10538-32-6
Molecular weight: 356
m/z	intensity
42	22
44	31
50	8
53	19
54	38
55	82
56	229
57	22
58	7
63	21
65	14
67	24
68	59
69	43
70	21
71	9
73	2
76	5
77	12
79	5
80	17
81	14
82	89
83	40
84	999
85	71
89	8
95	27
96	61
97	31
98	70
99	8
104	3
105	4
106	4
107	2
108	30
109	24
110	131
111	235
112	285
113	33
114	5
115	11
119	2
121	11
122	7
124	3
125	5
126	11
127	26
128	13
129	10
133	2
134	3
138	5
139	36
140	25
141	30
142	3
146	4
147	3
150	7
152	30
153	34
154	24
165	9
166	21
167	80
168	14
170	16
171	27
172	10
176	4
178	33
179	54
180	19
181	7
183	8
184	27
185	220
186	71
187	15
191	7
192	8
194	8
195	2
196	54
197	51
198	117
199	66
200	17
201	5
205	2
206	3
210	68
211	149
212	80
213	29
214	13
222	15
223	32
224	28
225	59
226	127
227	23
228	30
229	74
230	54
231	22
234	2
236	13
238	5
240	3
244	147
245	352
246	82
247	44
248	7
252	2
253	1
255	4
257	8
258	152
259	109
260	27
261	14
269	5
271	17
272	18
274	3
281	2
283	3
285	2
286	1
310	2
354	4
355	5
356	343
357	80
358	46
359	7
