Mass Spectrum: 2-Propanamine, N-(1,1-dimethylethyl)-N-hydroxy-2-methyl-
Formula: C8H19NO
CAS: 10531-39-2
Molecular weight: 145
m/z	intensity
25	1
26	7
27	81
28	65
29	241
30	21
31	2
32	3
33	0
34	3
35	0
37	2
38	4
39	112
40	4
41	396
42	68
43	46
44	2
47	0
49	0
50	3
51	8
52	6
53	42
54	26
55	151
56	76
57	999
58	96
59	3
60	0
61	1
62	2
63	3
64	1
65	21
66	10
67	610
68	37
69	8
70	13
71	5
72	294
73	16
74	513
75	19
76	1
77	20
78	5
79	44
80	15
81	64
82	8
83	3
84	1
85	0
86	0
87	0
88	119
89	532
90	29
91	11
92	1
93	9
94	3
95	2
96	0
97	1
98	24
99	1
105	1
106	0
107	7
108	4
109	248
110	23
111	0
112	0
113	1
114	3
115	0
123	0
124	0
128	0
129	0
130	6
131	0
144	7
145	136
146	12
147	0
