Mass Spectrum: 4-(4-Methylbenzoylmethyl)-2H-1,4-benzoxazin-3(4H)-one
Formula: C17H15NO3
CAS: 105492-44-2
Molecular weight: 281
m/z	intensity
77	100
78	30
79	19
107	39
119	999
120	110
134	110
162	40
281	179
