Mass Spectrum: Imidazole, 4-trifluoroacetyl-
Formula: C5H3F3N2O
CAS: 105480-28-2
Molecular weight: 164
m/z	intensity
41	40
42	5
43	8
44	6
45	2
46	2
47	2
50	41
51	14
52	17
53	37
54	5
55	8
56	5
57	5
58	17
59	3
60	1
62	2
63	3
64	2
65	6
66	33
67	396
68	256
69	199
70	13
71	5
72	0
73	1
74	4
75	3
76	0
77	1
78	4
79	0
81	8
82	3
83	3
84	1
85	5
86	2
88	2
89	4
90	3
91	2
93	5
94	21
95	999
96	74
97	7
98	0
100	2
101	1
106	1
108	16
109	2
111	1
113	3
115	1
117	2
120	1
121	0
124	0
125	0
135	0
136	1
143	0
145	1
163	1
164	375
165	43
166	2
