Mass Spectrum: 4-(Benzoylmethyl)-2H-1,4-benzoxazin-3-one
Formula: C16H13NO3
CAS: 105492-43-1
Molecular weight: 267
m/z	intensity
41	144
43	138
50	85
51	183
52	42
63	52
65	128
77	617
78	104
79	94
91	145
92	52
105	999
106	130
107	112
134	416
135	60
162	224
163	33
267	415
268	68
