Mass Spectrum: 4-(2-Hydroxyethyl)-2-phenyl-1,3-dioxane
Formula: C12H16O3
CAS: 105402-06-0
Molecular weight: 208
m/z	intensity
27	8
28	355
29	67
30	3
31	69
39	20
40	4
41	19
42	20
43	37
44	25
45	7
50	4
51	86
52	15
53	9
54	16
55	188
56	43
57	110
58	8
59	2
60	1
65	2
66	4
67	204
68	113
69	8
70	4
71	4
72	1
73	7
74	3
75	4
76	6
77	469
78	107
79	327
80	5
81	2
82	2
83	5
84	10
85	19
86	10
89	5
90	4
91	57
92	4
93	2
100	1
101	6
102	3
103	1
104	6
105	999
106	279
107	391
108	9
109	5
123	96
124	6
125	1
131	44
132	6
133	3
134	21
135	3
149	0
152	1
163	99
164	5
177	7
178	2
206	17
207	543
208	628
209	50
210	2
