Mass Spectrum: Propanal, 2-[(benzyloxycarbonyl)amino]-
Formula: C11H13NO3
CAS: 105499-10-3
Molecular weight: 207
m/z	intensity
26	16
27	40
28	28
29	93
30	2
31	60
38	6
39	88
40	2
41	47
42	25
43	94
46	13
50	16
51	33
52	6
53	8
54	0
55	4
56	28
57	59
58	19
62	10
63	40
64	0
65	43
66	5
67	9
68	2
69	19
70	15
71	31
73	16
74	6
75	9
76	2
77	49
78	17
79	84
80	10
89	24
90	14
91	999
92	79
105	18
106	3
107	88
109	6
110	2
111	14
112	4
113	2
133	2
134	141
135	30
136	0
137	2
177	4
178	285
179	28
180	14
181	0
191	2
192	11
193	5
206	0
207	13
208	2
