Mass Spectrum: Bis-(methylthio)-phosphine
Formula: C2H7PS2
CAS: 105414-86-6
Molecular weight: 126
m/z	intensity
45	412
46	177
47	388
48	174
61	133
64	98
78	73
79	618
80	153
81	62
94	999
95	36
96	59
108	16
111	79
126	752
127	40
128	102
