Mass Spectrum: Cyclic octaatomic sulfur
Formula: S8
CAS: 10544-50-0
Molecular weight: 256
m/z	intensity
32	210
33	3
34	10
64	999
65	20
66	108
96	210
97	6
98	30
128	520
129	17
130	102
160	530
161	17
162	102
163	3
164	6
192	408
193	17
194	105
195	3
196	10
224	180
225	7
226	54
256	704
257	47
258	251
259	13
260	44
