Mass Spectrum: N-Carbomethoxy-N-nitroso-N-ethylamine
Formula: C4H8N2O3
CAS: 10546-23-3
Molecular weight: 132
m/z	intensity
56	33
58	17
70	33
71	33
72	176
73	22
77	22
88	999
89	33
101	44
102	33
103	396
104	22
117	33
132	176
133	11
134	1
