Mass Spectrum: 4-(Benzoylmethyl)-6-methyl-2H-1,4-benzoxazin-3-one
Formula: C17H15NO3
CAS: 105492-53-3
Molecular weight: 281
m/z	intensity
91	240
92	50
93	49
105	999
121	138
134	19
148	687
176	447
281	638
