Mass Spectrum: Phenol, 2-methoxy-4-(2-furfurylimino)methyl-
Formula: C13H13NO3
CAS: 105482-68-6
Molecular weight: 231
m/z	intensity
33	1
37	27
38	86
39	183
40	25
41	59
42	16
43	8
45	1
49	6
50	117
51	244
52	259
53	610
54	44
55	36
56	2
57	1
61	5
62	37
63	83
64	42
65	121
66	48
67	27
68	17
69	12
71	1
73	0
74	12
75	13
76	22
77	69
78	37
79	67
80	69
81	999
82	65
83	6
86	0
87	2
88	2
89	9
90	12
91	19
92	27
93	28
94	25
95	9
96	0
98	0
100	3
101	1
102	8
103	12
104	21
105	17
106	66
107	51
108	79
109	13
110	2
113	0
114	1
115	19
116	5
117	7
118	5
119	19
120	23
121	12
122	17
123	86
124	7
125	0
127	2
128	2
129	3
130	24
131	17
132	11
133	9
134	38
135	32
136	7
137	31
138	3
140	1
141	4
142	5
143	4
144	4
145	3
146	4
147	7
148	21
149	22
150	50
151	6
152	0
155	0
157	0
158	7
159	7
160	11
161	5
162	17
163	15
164	4
168	0
169	1
170	15
171	6
172	4
173	5
174	2
175	4
176	2
177	0
178	1
182	2
184	1
186	9
187	11
188	13
189	4
190	1
192	0
198	4
199	2
200	8
202	37
203	22
204	4
212	1
213	2
214	9
215	4
216	11
217	1
227	0
228	1
229	2
230	62
231	707
232	109
233	12
