Mass Spectrum: 1,4,10,13-Tetraoxa-7,16-diazacyclooctadecane, 7,16-bis(1-oxodecyl)-
Formula: C32H62N2O6
CAS: 105400-04-2
Molecular weight: 570
m/z	intensity
25	3
26	23
27	101
28	77
29	221
30	103
31	27
33	2
36	7
37	3
38	6
39	60
40	16
41	411
42	169
43	999
44	406
45	202
46	9
50	5
51	7
52	4
53	25
54	48
55	410
56	555
57	798
58	279
59	109
60	48
61	12
62	10
63	4
64	1
65	13
66	7
67	91
68	72
69	687
70	414
71	552
72	243
73	121
74	228
75	15
76	6
77	12
78	6
79	25
80	14
81	107
82	68
83	167
84	116
85	305
86	337
87	213
88	188
89	23
90	7
91	91
92	11
93	18
94	26
95	101
96	51
97	102
98	162
99	157
100	432
101	105
102	76
103	55
104	23
105	12
106	24
107	15
108	11
109	33
110	28
111	73
112	205
113	194
114	211
115	87
116	70
117	25
118	330
119	31
120	13
121	14
122	9
123	22
124	28
125	35
126	155
127	67
128	94
129	132
130	196
131	126
132	202
133	23
134	8
135	11
136	7
137	18
138	22
139	22
140	49
141	35
142	88
143	61
144	250
145	43
146	26
147	28
148	33
151	5
152	21
153	20
154	43
155	116
156	428
157	115
158	88
159	24
160	17
161	40
162	14
163	6
164	6
165	7
166	14
167	12
168	41
169	30
170	46
171	52
172	34
173	305
174	77
175	32
176	15
177	6
178	7
179	7
180	16
181	9
182	36
183	17
184	33
185	29
186	76
187	135
188	30
189	13
190	13
191	11
192	10
193	6
194	38
195	14
196	44
197	44
198	280
199	91
200	35
201	38
202	13
203	32
204	11
205	7
206	5
207	3
208	22
209	11
210	74
211	56
212	67
213	23
214	24
215	22
216	30
217	21
218	13
219	10
220	11
221	8
222	11
223	95
224	113
225	65
226	88
227	27
228	33
229	28
230	15
231	12
232	6
233	5
234	6
235	6
236	7
237	7
238	16
239	31
240	164
241	72
242	130
243	38
244	14
245	12
246	5
247	3
248	2
249	5
250	4
251	4
252	6
253	10
254	34
255	36
256	36
257	21
258	26
259	26
260	86
261	44
262	12
263	23
264	5
265	6
266	7
267	29
268	62
269	28
270	35
271	18
272	60
273	26
274	14
275	4
276	1
277	1
278	1
279	3
280	5
281	5
282	12
283	14
284	67
285	97
286	313
287	67
288	16
289	6
290	1
291	1
292	1
293	2
294	2
295	3
296	4
297	52
298	112
299	35
300	73
301	21
302	71
303	31
304	20
305	4
306	2
307	1
308	1
309	6
310	5
311	45
312	52
313	19
314	8
315	198
316	44
317	13
318	3
319	1
320	1
321	1
322	1
323	66
324	15
325	6
326	3
327	28
328	43
329	57
330	23
331	7
332	2
333	0
334	0
335	0
336	1
337	3
338	2
339	6
340	3
341	267
342	62
343	14
344	7
345	16
346	15
347	4
348	70
349	15
350	3
351	1
352	1
353	24
354	22
355	48
356	12
357	16
358	8
359	15
360	4
361	1
362	2
366	1
367	2
368	2
369	3
370	6
371	49
372	16
373	20
374	18
375	4
376	1
379	1
380	1
381	3
382	1
383	8
384	3
385	9
386	4
387	9
388	2
389	1
395	1
396	3
397	14
398	5
399	28
400	7
401	4
402	1
407	0
408	0
409	5
410	2
411	7
412	2
413	8
414	10
415	145
416	61
417	38
418	8
419	1
420	0
421	1
422	0
423	0
424	0
425	3
426	1
427	2
428	1
429	1
430	1
437	1
438	1
439	3
440	16
441	6
442	1
443	9
444	3
445	0
451	1
452	1
453	3
454	1
455	3
456	2
457	12
458	7
459	1
460	1
463	1
464	1
465	1
466	1
467	2
468	0
469	4
470	2
471	21
472	7
473	1
479	1
480	1
481	3
482	9
483	25
484	8
485	11
486	3
487	1
493	1
494	1
495	9
496	4
497	4
498	1
499	12
500	4
501	1
502	21
503	6
504	1
507	1
508	9
509	19
510	7
511	3
512	1
513	9
514	3
515	0
522	0
523	0
524	0
525	18
526	7
527	21
528	7
529	1
530	2
539	2
540	0
541	11
542	4
543	0
550	0
551	1
552	4
553	2
554	1
555	8
556	2
557	0
567	1
568	1
569	91
570	61
571	22
572	5
573	1
