Mass Spectrum: o-(p-Nitrophenyl) 1-azetidinecarbothioate
Formula: C10H10N2O3S
CAS: 10554-22-0
Molecular weight: 238
m/z	intensity
15	4
26	13
27	31
28	52
29	11
30	49
32	2
37	7
38	39
39	73
40	13
41	339
42	29
43	2
44	6
45	57
46	12
47	3
49	2
50	72
51	20
52	12
53	9
54	12
55	6
56	230
57	8
58	9
59	6
60	14
61	9
62	26
63	100
64	56
65	19
66	3
67	4
68	3
69	15
70	9
71	10
72	999
73	41
74	71
75	48
76	51
77	8
78	4
79	4
80	3
81	5
82	10
83	1
84	647
85	32
86	2
88	4
89	1
90	2
91	3
92	14
93	5
94	1
95	4
96	6
97	2
98	5
99	2
100	683
101	38
102	31
103	3
104	3
105	6
106	5
107	2
108	10
109	11
110	1
116	1
120	1
121	1
122	16
123	3
124	5
125	2
134	1
135	1
136	5
137	1
138	1
139	4
149	3
150	4
151	4
152	2
154	4
155	3
159	1
162	1
163	10
164	10
165	2
166	1
170	1
180	1
182	4
183	1
191	5
192	4
193	1
197	1
205	2
208	3
209	2
210	1
237	1
238	83
239	10
240	4
