Mass Spectrum: 1,5-Anhydro-2,4,6-trideoxy-2,4,6-trimethyl-7-O-(phenylmethyl)-dl-manno-hept-1-enitol
Formula: C17H24O3
CAS: 105539-44-4
Molecular weight: 276
m/z	intensity
69	420
82	130
83	130
85	110
87	110
91	999
92	110
95	50
97	40
98	50
99	40
101	90
107	60
109	150
111	70
167	40
187	40
276	20
