Mass Spectrum: Dipropylsulfide, 3,3'-bis(benzylamino)-3,3'-dioxo-
Formula: C20H24N2O2S
CAS: 105596-07-4
Molecular weight: 356
m/z	intensity
33	1
35	6
36	0
37	1
38	7
39	53
40	7
41	26
42	16
43	19
44	25
45	26
46	22
47	17
48	2
49	1
50	22
51	66
52	21
53	9
54	14
55	74
56	16
57	15
58	12
59	29
60	22
61	30
62	7
63	26
64	12
65	138
66	10
67	2
69	2
70	2
71	3
72	3
73	7
74	7
75	9
76	13
77	106
78	47
79	74
80	6
83	0
84	8
85	5
86	2
87	7
88	3
89	37
91	999
92	74
93	4
98	0
99	0
101	0
102	2
103	14
104	71
105	57
106	247
107	84
108	9
109	1
111	0
112	0
113	0
115	5
116	5
117	21
118	10
119	3
120	2
121	1
123	3
127	0
128	0
129	0
130	2
131	2
132	10
133	8
134	10
135	3
136	0
137	1
139	0
141	0
143	5
144	2
146	2
147	1
148	13
149	4
151	0
152	1
160	10
161	20
162	63
163	112
164	17
165	1
167	0
179	0
188	0
193	5
194	24
195	22
196	7
197	2
221	0
250	1
300	6
356	19
357	3
358	1
