Mass Spectrum: (+-)-[2.alpha.(S*),3.alpha.,6.beta.]-3,6-Dihydro-6-methoxy-3,5-dimethyl-2-[1-methyl-2-(phenylmethoxy)ethyl]-2H-pyran
Formula: C18H26O3
CAS: 105562-31-0
Molecular weight: 290
m/z	intensity
81	60
85	60
91	300
95	70
97	290
109	210
111	200
112	999
113	150
121	80
123	90
125	50
126	50
134	50
137	80
139	60
141	50
149	30
150	20
151	80
152	330
153	140
161	20
166	50
167	250
168	40
169	20
171	90
184	60
199	20
258	203
259	84
260	15
272	6
275	3
289	4
290	3
