Mass Spectrum: o-(p-Chlorophenyl) 1-azetidinecarbothioate
Formula: C10H10ClNOS
CAS: 10554-21-9
Molecular weight: 227
m/z	intensity
15	1
26	6
27	16
28	23
29	3
30	2
32	1
36	1
37	6
38	17
39	50
40	9
41	228
42	17
43	1
44	5
45	37
46	4
47	4
49	6
50	30
51	15
52	3
53	3
54	5
55	3
56	144
57	5
58	6
59	4
60	9
61	9
62	18
63	56
64	15
65	16
66	2
67	2
68	1
69	5
70	6
71	9
72	978
73	92
74	66
75	91
76	13
77	5
78	1
81	34
82	8
83	3
84	668
85	37
86	3
87	3
88	2
89	1
90	1
91	2
92	2
93	3
95	4
96	2
97	1
98	7
99	77
100	999
101	80
102	49
103	3
105	1
107	2
108	12
109	4
110	2
111	72
112	6
113	24
114	2
115	1
122	1
125	20
126	2
127	30
128	65
129	11
130	23
131	2
132	1
133	1
134	1
136	1
138	5
139	9
140	9
141	9
142	4
143	19
144	14
145	7
146	5
149	2
151	1
153	3
155	1
157	2
159	1
164	2
166	1
167	5
168	1
169	2
170	1
171	4
173	1
186	1
192	3
194	2
198	3
199	1
200	1
226	2
227	561
228	69
229	211
230	24
231	9
232	1
