Mass Spectrum: 1-Acetyl-4-hydroxy-pyrrolidin-2-one
Formula: C6H9NO3
CAS: 105595-44-6
Molecular weight: 143
m/z	intensity
26	15
27	33
28	76
29	44
30	318
31	29
37	3
38	6
39	29
40	13
41	40
42	120
43	999
44	147
45	40
46	3
50	5
51	11
52	8
53	64
54	88
55	97
56	37
57	38
58	34
59	9
60	26
66	10
67	4
68	12
69	16
70	6
71	42
72	208
73	82
74	5
77	4
81	4
82	39
83	135
84	85
85	10
86	27
87	17
96	4
97	75
98	10
99	5
100	37
101	120
102	105
103	5
105	7
106	2
110	10
111	2
113	6
115	357
116	24
117	3
125	50
126	7
141	5
142	4
143	367
144	31
145	4
