Mass Spectrum: 3,5-Dimethyl-4-chloroisoxazole
Formula: C5H6ClNO
CAS: 10557-86-5
Molecular weight: 131
m/z	intensity
26	68
27	145
29	29
30	13
36	20
37	28
38	52
39	130
40	56
41	65
42	224
43	999
45	13
47	55
48	20
49	34
50	24
51	51
52	58
53	18
54	222
55	57
60	15
61	67
62	240
63	67
64	80
65	31
66	13
67	10
68	19
74	13
75	15
76	13
86	15
87	10
88	203
89	340
90	95
91	137
96	17
101	11
102	104
104	34
116	127
118	47
130	40
131	380
132	42
133	158
