Mass Spectrum: Methyl (1RS,6RS)-5-oxobicyclo[4.2.0]octane-1-carboxylate
Formula: C10H14O3
CAS: 105539-58-0
Molecular weight: 182
m/z	intensity
39	780
40	280
41	760
42	110
43	100
51	90
53	170
55	999
59	220
65	190
66	230
67	580
68	190
77	90
79	280
80	110
81	210
83	110
94	190
95	390
98	140
104	200
105	270
111	80
122	230
123	220
126	280
139	40
150	170
154	90
164	100
182	80
