Mass Spectrum: 9-Oxabicyclo[3.3.1]nonan-2-ol, acetate
Formula: C10H16O3
CAS: 10555-34-7
Molecular weight: 184
m/z	intensity
26	13
27	130
28	36
29	142
30	6
31	30
37	3
38	8
39	140
40	26
41	218
42	66
43	999
44	56
45	20
47	3
49	8
50	10
51	22
52	13
53	66
54	54
55	137
56	28
57	96
58	17
59	3
60	3
61	8
62	2
63	5
64	2
65	17
66	21
67	112
68	87
69	71
70	58
71	24
72	5
73	4
74	2
75	2
77	21
78	22
79	102
80	119
81	213
82	50
83	44
84	25
85	98
86	100
87	14
88	2
89	2
91	12
92	3
93	16
94	6
95	135
96	77
97	65
98	30
99	34
100	6
102	3
105	13
106	18
107	9
108	2
109	10
110	4
111	2
112	9
113	16
114	9
115	2
122	2
123	33
124	296
125	39
126	3
127	2
128	6
140	2
141	48
142	17
143	2
155	2
184	10
185	1
