Mass Spectrum: Isoxazole, 4-methyl-3,5-diphenyl-
Formula: C16H13NO
CAS: 10557-77-4
Molecular weight: 235
m/z	intensity
26	13
27	39
29	23
39	48
41	29
50	56
51	282
55	23
56	11
57	18
60	13
63	48
67	11
69	19
74	17
75	28
76	56
77	852
78	102
79	11
81	11
83	15
84	10
85	10
89	26
91	14
97	12
98	12
101	14
102	26
103	87
104	93
105	999
106	87
115	41
116	39
128	11
129	13
130	91
131	31
132	28
143	13
158	48
165	69
166	24
180	39
206	356
207	98
208	10
220	17
234	98
235	490
236	98
237	14
