Mass Spectrum: 2,3-Dichloro-N,N-dimethyl-propionamide
Formula: C5H9Cl2NO
CAS: 105552-94-1
Molecular weight: 169
m/z	intensity
25	16
26	80
27	172
28	90
29	18
30	12
31	3
35	16
36	11
37	13
38	12
39	15
40	27
41	47
42	189
43	60
44	139
45	25
46	31
47	6
48	9
49	54
50	5
51	21
52	7
53	24
54	11
55	114
56	58
57	6
58	27
59	4
60	16
61	108
62	25
63	40
64	8
65	4
66	5
67	3
68	5
69	3
70	9
71	16
72	999
73	65
74	7
75	3
76	12
77	2
78	6
79	2
80	2
82	3
83	2
84	2
85	2
86	2
87	2
88	2
89	55
90	5
91	21
92	23
93	2
94	8
95	8
96	8
97	51
98	61
99	30
100	2
101	5
102	2
104	3
105	4
106	10
107	4
108	3
110	2
120	4
123	5
125	6
126	4
127	2
128	3
131	4
132	7
133	6
134	189
135	17
136	82
137	6
138	1
140	5
141	1
142	3
143	1
144	1
154	1
155	1
156	1
157	1
168	7
169	78
170	13
171	50
172	5
173	8
174	1
