Mass Spectrum: (+-)-2,4,6-Trideoxy-2,4,6-trimethyl-3,5-O-(1-methylethylidene)-7-O-(phenylmethyl)-d-glycero-d-talo-heptose
Formula: C20H30O4
CAS: 105539-49-9
Molecular weight: 334
m/z	intensity
59	310
68	20
69	190
70	30
71	30
82	20
83	70
85	40
91	999
92	100
95	30
97	30
98	80
99	40
100	30
107	170
108	20
109	30
111	40
127	20
129	30
149	40
170	20
179	120
218	20
319	20
