Mass Spectrum: Pyrimido[4,5-d]pyrimidine-2,7-dione, perhydro-4,5-dimethyl-
Formula: C8H14N4O2
CAS: 10554-40-2
Molecular weight: 198
m/z	intensity
33	0
34	4
35	5
36	24
37	7
38	27
39	170
40	157
41	339
42	437
43	279
44	749
45	84
46	1
49	0
50	10
51	19
52	32
53	43
54	62
55	50
56	53
57	51
58	14
59	4
60	19
61	8
62	1
63	5
64	3
65	15
66	25
67	62
68	166
69	108
70	191
71	47
72	4
73	5
74	1
75	0
76	2
77	7
78	8
79	27
80	26
81	12
82	22
83	31
84	72
85	35
86	5
87	20
88	11
89	1
90	0
91	6
92	3
93	14
94	31
95	28
97	946
98	39
99	13
100	5
101	1
103	0
104	1
105	2
107	0
108	1
109	8
111	999
112	110
113	49
114	3
118	0
119	0
120	2
121	3
123	67
124	6
125	12
126	6
127	3
128	4
129	0
131	0
135	0
137	67
138	452
139	41
140	10
146	0
149	1
152	2
153	1
154	8
155	4
166	1
170	6
181	1
183	8
197	1
198	0
