Mass Spectrum: 3,7-Diazabicyclo[3.3.1]nonane, 9,9-dimethyl-
Formula: C9H18N2
CAS: 10564-26-8
Molecular weight: 154
m/z	intensity
26	57
27	552
28	620
29	681
30	827
31	121
33	8
37	24
38	68
39	892
40	184
41	999
42	596
43	812
44	826
45	79
46	8
49	11
50	54
51	138
52	106
53	441
54	244
55	389
56	774
57	354
58	255
59	40
60	10
61	9
62	16
63	36
64	17
65	130
66	87
67	454
68	839
69	981
70	731
71	175
72	48
73	16
74	7
75	12
76	11
77	128
78	48
79	228
80	273
81	418
82	345
83	359
84	535
85	349
86	87
87	24
91	41
92	42
93	175
94	405
95	194
96	650
97	243
98	340
99	61
100	17
104	11
105	24
106	56
107	74
108	253
109	83
110	485
111	235
112	174
113	35
114	7
119	8
120	19
121	13
122	266
123	79
124	384
125	231
126	89
127	15
128	8
136	17
137	146
138	38
139	72
140	17
151	55
152	32
153	168
154	888
155	235
156	45
