Mass Spectrum: 2,6-Pyridinediethanol, .alpha.2-ethyl-1,2,3,6-tetrahydro-.alpha.',1-dimethyl-
Formula: C13H25NO2
CAS: 105694-51-7
Molecular weight: 227
m/z	intensity
41	170
42	390
43	95
44	100
45	170
53	40
55	40
56	110
57	190
58	370
59	85
67	95
68	120
70	20
79	40
80	30
81	45
82	40
86	130
94	470
95	70
96	999
97	85
108	90
110	200
116	150
138	30
154	250
155	85
168	500
169	75
182	15
198	50
212	30
227	10
