Mass Spectrum: N,N'-Bis(3-aminopropyl)ethylenediamine
Formula: C8H22N4
CAS: 10563-26-5
Molecular weight: 174
m/z	intensity
14	1
15	9
16	7
17	4
26	3
27	12
28	58
29	19
30	222
31	10
32	3
34	1
39	7
40	2
41	52
42	67
43	46
44	999
45	42
46	1
47	8
49	4
51	1
52	1
53	2
54	8
55	12
56	65
57	75
58	89
59	8
60	1
63	1
65	1
66	1
67	4
68	9
69	9
70	54
71	73
72	11
73	8
74	1
75	14
76	1
77	30
78	2
79	5
80	2
81	19
82	8
83	9
84	21
85	19
86	7
87	305
88	27
89	7
91	1
92	1
93	1
94	2
95	2
96	5
97	5
98	10
99	14
100	30
101	9
102	1
106	1
109	1
110	1
111	9
112	13
113	11
114	3
115	2
116	1
118	2
120	1
123	1
124	2
125	3
126	4
127	6
128	3
137	1
138	2
139	1
140	5
141	1
142	1
144	3
151	1
152	1
153	1
154	7
155	3
156	1
174	1
175	8
