Mass Spectrum: Dichloroacetic acid, phenyl ester
Formula: C8H6Cl2O2
CAS: 10565-20-5
Molecular weight: 204
m/z	intensity
25	6
26	27
27	24
28	2
29	12
39	365
40	33
41	30
42	4
43	5
50	96
51	162
52	44
53	21
54	3
55	15
56	2
57	4
60	3
61	18
62	38
63	100
64	49
65	480
66	72
67	7
68	2
69	3
71	3
73	7
74	16
75	12
76	75
77	839
78	88
79	53
80	2
81	6
82	12
83	268
84	11
85	162
86	3
87	26
89	3
90	2
91	5
92	9
93	76
94	999
95	146
96	8
101	3
103	2
105	7
106	2
107	2
108	2
110	7
111	9
112	13
113	37
114	4
115	9
117	3
119	2
121	71
122	7
125	35
126	3
127	11
128	6
129	8
130	12
131	2
132	2
139	2
141	147
142	15
143	56
144	13
203	4
204	170
205	20
206	114
207	14
208	19
209	2
