Mass Spectrum: Pyrazolidine-3,5-dione, 1,2-diphenyl-4-methylthioethyl-
Formula: C18H18N2O2S
CAS: 10561-02-1
Molecular weight: 326
m/z	intensity
41	157
42	16
43	19
44	38
45	80
46	23
47	68
48	16
49	47
50	33
51	207
52	25
53	14
54	5
55	179
56	8
57	8
58	5
59	18
60	5
61	243
62	12
63	49
64	80
65	86
66	12
67	6
68	18
69	62
70	8
71	13
72	8
73	29
74	13
75	140
76	32
77	999
78	80
79	7
80	4
81	13
82	3
83	7
84	19
85	7
86	15
87	10
88	12
89	7
90	8
91	100
92	58
93	123
94	22
95	6
96	2
97	8
98	3
99	5
100	2
101	3
102	6
103	11
104	76
105	113
106	43
107	6
108	1
109	2
110	1
111	2
112	1
113	2
114	3
115	19
116	11
117	24
118	56
119	38
120	20
121	3
122	3
123	4
124	2
125	1
126	3
127	6
128	17
129	9
130	44
131	11
132	31
133	9
134	2
135	1
136	3
137	2
138	2
139	7
140	2
141	4
142	2
143	63
144	99
145	16
146	13
147	2
148	2
149	4
150	4
151	11
152	46
153	20
154	10
155	3
156	4
157	5
158	13
159	8
160	35
161	4
162	6
163	6
164	5
165	1
166	9
167	22
168	12
169	9
170	3
171	8
172	35
173	6
174	6
175	1
178	1
179	1
180	7
181	14
182	21
183	487
184	159
185	50
186	16
187	5
188	2
189	0
190	16
191	2
192	3
193	2
194	4
195	18
196	5
197	8
198	4
199	0
200	0
201	0
204	1
205	1
206	4
207	5
208	2
209	4
210	3
211	163
212	25
213	2
217	0
218	27
219	42
220	10
221	18
222	4
223	8
224	2
225	0
229	0
232	1
233	1
234	1
235	21
236	4
237	9
238	2
247	34
248	8
249	5
250	3
251	54
252	848
253	156
254	17
255	1
259	1
260	5
261	2
262	2
263	6
264	124
265	570
266	103
267	11
268	1
270	0
277	5
278	20
279	14
280	24
281	4
298	0
309	2
311	58
312	12
313	4
315	0
325	0
326	557
327	120
328	39
329	6
