Mass Spectrum: 2,6-Pyridinediethanol, .alpha.,.alpha.'-diethyl-1,2,3,6-tetrahydro-1-methyl-
Formula: C14H27NO2
CAS: 105694-50-6
Molecular weight: 241
m/z	intensity
41	200
42	380
44	90
53	35
55	45
56	110
57	130
58	370
59	180
67	80
68	110
70	35
79	35
81	40
82	35
86	120
94	470
95	60
96	999
97	70
108	85
110	160
116	130
138	10
168	760
169	140
182	10
212	95
213	15
226	15
241	10
