Mass Spectrum: Pth-glutamine
Formula: C12H13N3O2S
CAS: 10567-86-9
Molecular weight: 263
m/z	intensity
12	7
13	4
14	17
15	17
16	33
17	23
18	119
24	2
25	9
26	81
27	181
28	213
29	18
30	19
31	6
32	78
33	33
34	101
35	2
36	7
37	33
38	72
39	198
40	67
41	213
42	68
43	75
44	156
45	35
46	6
47	3
48	2
49	8
50	107
51	343
52	101
53	78
54	139
55	148
56	79
57	17
58	28
59	393
60	28
61	13
62	18
63	64
64	96
65	96
66	76
67	28
68	29
69	18
70	81
71	23
72	36
73	43
74	25
75	33
76	93
77	999
78	110
79	13
80	33
81	39
82	40
83	68
84	79
85	68
86	140
87	14
88	14
89	15
90	34
91	134
92	82
93	347
94	54
95	35
96	13
97	16
98	57
99	60
100	22
101	11
102	9
103	176
104	449
105	96
106	25
107	4
108	95
109	129
110	23
111	137
112	41
113	6
114	7
115	8
116	10
117	72
118	73
119	142
120	133
121	13
122	4
123	9
124	13
125	21
126	45
127	18
128	19
129	12
130	39
131	26
132	24
133	20
134	16
135	728
136	331
137	60
138	16
139	2
140	4
141	5
142	16
143	20
144	24
145	48
146	65
147	17
148	5
149	10
150	13
151	24
152	5
153	4
154	2
155	7
156	12
157	24
158	24
159	21
160	41
161	13
162	10
163	14
164	4
165	2
166	2
167	2
168	14
169	6
170	16
171	13
172	74
173	29
174	16
175	32
176	12
177	9
178	2
179	1
180	1
182	1
183	4
184	23
185	30
186	66
187	49
188	21
189	54
190	11
191	26
192	75
193	10
194	6
195	3
196	1
198	2
199	2
200	6
201	11
202	24
203	241
204	498
205	250
206	51
207	12
208	2
209	1
210	2
211	23
212	31
213	35
214	64
215	13
216	63
217	85
218	209
219	36
220	16
221	3
225	1
226	2
227	4
228	3
229	30
230	10
231	24
232	7
233	5
234	1
235	1
236	1
241	1
242	13
243	65
244	162
245	329
246	593
247	97
248	34
249	5
259	3
260	2
261	44
262	9
263	511
264	77
265	29
266	3
