Mass Spectrum: 2-((1S,2S-Dimethyl-3-methoxycarbonyl)-propyl)-1,3-dithiane
Formula: C11H20O2S2
CAS: 105705-04-2
Molecular weight: 248
m/z	intensity
41	61
59	71
69	80
106	79
119	999
120	60
121	89
248	69
249	10
