Mass Spectrum: 1,2:5,6-di-O-Isopropylidene-.alpha.-D-ribo-3-hexofuranosulose
Formula: C12H20O7
CAS: 10578-85-5
Molecular weight: 276
m/z	intensity
26	22
27	96
28	17
29	120
30	13
31	126
39	104
40	25
41	179
42	78
43	999
44	52
45	35
54	19
55	77
56	15
57	79
58	38
59	391
60	79
61	55
69	37
71	215
72	73
73	130
74	11
83	72
84	16
85	635
86	37
87	14
89	17
97	72
99	52
100	335
101	848
102	84
103	11
113	28
114	15
115	27
125	43
127	9
129	29
142	28
143	58
145	34
157	36
160	67
161	15
185	9
203	36
243	111
244	14
261	29
