Mass Spectrum: Androstanolone benzoate
Formula: C26H34O3
CAS: 1057-07-4
Molecular weight: 394
m/z	intensity
26	1
27	15
28	7
29	24
37	1
38	4
39	20
40	5
41	89
42	5
43	25
44	4
45	3
47	1
49	2
50	12
51	40
52	7
53	31
54	7
55	97
56	6
57	10
58	1
59	1
61	1
62	1
63	2
65	15
66	8
67	74
68	19
69	31
70	2
71	8
72	2
73	3
74	4
75	3
76	12
77	236
78	27
79	89
80	18
81	91
82	11
83	13
84	2
85	6
86	1
87	1
89	1
91	66
92	16
93	83
94	149
95	101
96	13
97	16
98	4
99	3
100	1
101	1
103	5
104	6
105	999
106	86
107	81
108	25
109	36
110	10
111	12
112	1
113	1
115	6
116	3
117	13
118	8
119	36
120	14
121	40
122	58
123	38
124	71
125	11
126	2
127	1
128	5
129	7
130	2
131	20
132	7
133	35
134	13
135	37
136	13
137	26
138	3
139	3
141	2
142	1
143	7
144	10
145	24
146	15
147	55
148	71
149	157
150	22
151	6
152	1
153	1
154	1
155	2
156	1
157	7
158	5
159	21
160	9
161	70
162	22
163	26
164	5
165	5
166	1
167	1
168	1
169	2
170	1
171	9
172	4
173	12
174	7
175	16
176	8
177	6
178	5
179	6
180	1
181	1
183	3
184	2
185	7
186	4
187	13
188	4
189	8
190	3
191	2
192	1
193	1
196	1
197	5
198	1
199	9
200	14
201	22
202	12
203	7
204	4
205	1
210	1
211	3
212	3
213	19
214	10
215	18
216	10
217	13
218	3
219	2
225	2
226	2
227	3
228	2
229	13
230	14
231	25
232	6
233	3
237	1
238	1
239	12
240	5
241	1
242	1
243	7
244	31
245	8
246	8
247	2
248	1
252	1
253	8
254	11
255	5
256	3
257	173
258	34
259	4
260	1
264	1
268	1
270	4
271	50
272	468
273	96
274	12
275	1
288	2
289	13
290	3
291	1
322	2
323	1
324	1
351	1
376	1
377	2
379	2
392	1
394	9
395	3
