Mass Spectrum: 5-Hexen-2-ol, 1-(benzoyloxy)-3-phthalimido-2-O-(imidazolylthiocarbonyl)-, (2R,3S)-
Formula: C25H21N3O5S
CAS: 105763-44-8
Molecular weight: 475
m/z	intensity
60	120
77	160
78	90
79	100
105	999
130	80
148	90
160	80
200	100
225	570
226	130
242	70
306	80
347	70
348	110
475	70
476	20
