Mass Spectrum: Benzene, (1-methylpropoxy)-
Formula: C10H14O
CAS: 10574-17-1
Molecular weight: 150
m/z	intensity
26	7
27	59
28	7
29	110
30	3
31	0
37	3
38	16
39	114
40	23
41	91
42	4
43	11
45	1
50	18
51	69
52	6
53	6
54	1
55	21
56	16
57	39
58	2
59	1
61	1
62	6
63	17
64	8
65	76
66	73
67	4
68	1
70	0
71	1
73	1
74	4
75	3
76	5
77	107
78	10
79	4
91	8
92	2
93	13
94	999
95	91
96	5
103	2
104	1
105	1
106	0
107	7
108	0
121	30
122	2
134	0
135	4
136	0
149	1
150	94
151	10
152	0
