Mass Spectrum: 1,3-Butadiene, 1-(methylthio)-
Formula: C5H8S
CAS: 10574-97-7
Molecular weight: 100
m/z	intensity
26	17
27	178
34	28
36	0
37	15
38	21
39	110
41	79
44	2
45	462
46	42
47	69
48	26
50	66
51	88
52	37
53	78
57	8
58	60
59	20
61	1
65	27
66	15
69	20
71	12
73	18
77	4
82	13
84	42
85	999
86	59
87	46
97	14
100	238
101	17
