Mass Spectrum: Methyl-5-thio.beta.D-glucopyranoside
Formula: C7H14O5S
CAS: 10579-05-2
Molecular weight: 210
m/z	intensity
45	441
47	181
55	83
57	336
59	304
60	631
61	136
69	73
70	167
71	94
73	315
74	739
75	146
77	999
78	37
79	41
85	210
87	332
89	94
101	122
103	164
115	24
116	66
118	188
119	153
127	19
129	30
130	19
131	17
132	13
133	27
142	10
143	10
144	11
148	8
160	22
161	62
174	17
178	28
192	46
210	46
