Mass Spectrum: 2-(1S,2S-Dimethyl-4-hydroxybutyl)-1,3-dithiane
Formula: C10H20OS2
CAS: 105705-07-5
Molecular weight: 220
m/z	intensity
45	68
73	60
106	70
113	90
119	999
120	60
121	89
147	40
220	50
