Mass Spectrum: Ethyl N-hydroxyacetimidate
Formula: C4H9NO2
CAS: 10576-12-2
Molecular weight: 103
m/z	intensity
13	1
14	7
15	61
16	2
18	2
25	1
26	13
27	98
28	49
29	167
30	15
31	49
32	2
33	19
38	2
39	6
40	17
41	24
42	216
43	999
44	46
45	64
46	38
55	2
56	16
57	41
58	51
59	7
60	17
61	18
69	1
70	6
73	3
74	4
75	204
76	9
77	1
86	14
88	6
103	186
104	10
105	1
