Mass Spectrum: Ethylamine, N-tertbutoxycarbonyl-2-[[2-aminocarbonylpyrrolidinyl]carbonyl]-3-[[2-trifluoromethyl]imidazo-4-yl]-
Formula: C17H24F3N5O4
CAS: 105751-69-7
Molecular weight: 419
m/z	intensity
41	178
42	31
43	59
44	70
45	27
47	4
49	19
50	9
51	19
52	5
53	13
54	20
55	42
56	68
57	660
58	34
59	29
60	3
66	4
67	15
68	50
69	66
70	999
71	54
72	17
73	4
76	2
77	5
78	5
79	2
80	2
81	12
82	11
83	9
84	33
85	7
86	13
87	3
88	1
91	2
95	4
96	10
97	8
98	10
99	5
102	19
103	3
106	4
108	4
109	4
111	1
112	2
113	73
114	15
115	35
116	3
117	1
124	5
125	176
126	36
127	5
129	17
130	14
131	7
136	2
141	10
142	5
143	6
145	4
148	6
149	59
150	195
151	20
152	9
153	154
154	29
155	7
156	1
158	6
159	3
161	21
162	19
163	6
169	6
170	167
171	17
176	6
177	31
178	376
179	30
184	10
187	2
188	1
189	43
190	9
198	38
199	3
203	1
204	33
205	6
206	2
214	123
215	79
216	9
221	13
222	126
223	28
230	1
231	1
232	4
234	2
250	100
251	10
257	10
258	342
259	55
260	6
270	5
271	18
272	1
275	15
277	4
278	41
279	7
280	7
283	3
285	9
300	6
301	7
302	344
303	54
304	6
306	6
319	48
320	9
346	43
347	7
363	6
375	28
376	6
419	10
420	9
