Mass Spectrum: D-Homo-24-nor-17-oxachola-20,22-diene-3,7,16-trione, 14,15:21,23-diepoxy-4,4,8-trimethyl-, (5.alpha.,13.alpha.,14.beta.,15.beta.,17a.alpha.)-
Formula: C26H32O6
CAS: 10584-64-2
Molecular weight: 440
m/z	intensity
26	2
27	6
28	999
29	19
30	1
31	1
32	24
35	1
36	8
37	1
38	3
39	12
40	13
41	42
42	5
43	34
44	214
45	3
46	1
50	1
51	2
52	1
53	10
54	4
55	7
56	2
57	3
58	2
59	2
63	1
65	6
66	2
67	21
68	4
69	16
70	3
71	5
77	14
78	3
79	15
80	4
81	19
82	5
83	7
84	1
85	2
86	1
89	1
91	20
92	4
93	14
94	3
95	33
96	8
97	3
98	2
99	3
103	2
104	2
105	13
106	4
107	13
108	7
109	15
110	3
111	4
112	1
113	1
115	4
116	1
117	4
118	1
119	15
120	3
121	15
122	4
123	12
124	2
125	6
126	1
127	3
128	6
129	4
130	2
131	5
132	3
133	13
134	4
135	13
136	7
137	19
138	4
139	5
140	1
141	3
142	2
143	4
144	2
145	8
146	4
147	12
148	7
149	9
150	7
151	5
152	2
153	3
154	1
155	2
156	1
157	4
158	2
159	6
160	3
161	11
162	5
163	7
164	2
165	8
166	2
167	2
168	1
169	3
170	1
171	5
172	4
173	6
174	3
175	12
176	3
177	5
178	3
179	5
180	1
181	2
182	1
183	3
184	1
185	4
186	2
187	6
188	4
189	5
190	1
191	3
192	2
193	3
194	1
195	3
196	3
197	3
198	1
199	4
200	1
201	1
202	1
203	4
204	1
205	2
206	3
207	1
209	1
210	1
211	2
212	1
213	4
214	2
215	4
216	1
217	2
218	1
219	3
220	1
221	1
223	1
224	1
225	2
226	1
227	3
228	1
229	3
230	1
231	2
232	1
233	1
234	7
235	1
237	1
239	3
240	1
241	3
242	1
243	2
244	1
245	2
246	1
247	1
251	1
253	2
254	1
255	2
256	1
257	4
258	5
259	3
260	1
261	1
263	1
265	1
267	1
269	1
270	1
271	2
272	1
273	3
274	1
281	3
282	2
283	2
284	1
285	2
286	1
287	1
288	5
289	2
293	1
295	1
297	1
298	1
299	7
300	4
301	3
302	1
304	1
310	2
311	1
313	1
315	7
316	3
317	117
318	24
319	5
320	1
326	1
327	1
328	6
329	2
351	1
353	1
367	1
368	1
379	1
380	1
381	5
382	1
383	2
384	1
394	1
395	1
396	3
397	2
415	1
440	1
