Mass Spectrum: D-(+)-Ribono-1,4-lactone (R,S,R)-, 3TMS derivative
Formula: C14H32O5Si3
CAS: 10589-36-3
Molecular weight: 364
m/z	intensity
27	10
31	10
41	20
43	20
44	20
45	100
47	10
55	10
59	50
61	10
69	40
72	20
73	999
74	90
75	110
89	20
101	20
102	70
103	70
117	180
118	20
119	20
129	30
130	60
131	40
133	60
135	10
143	10
147	230
148	30
149	60
189	60
191	10
193	10
203	10
204	70
205	20
215	50
216	10
217	160
218	40
219	20
231	70
232	20
244	4
245	3
246	62
247	13
248	5
257	4
259	34
260	8
261	5
262	3
265	2
274	3
283	2
291	3
293	2
305	3
306	3
307	1
319	2
321	4
322	2
341	2
349	25
350	7
351	3
352	1
364	59
365	14
366	9
367	2
