Mass Spectrum: Stearic acid, 2-phenyl-m-dioxan-5-yl ester, cis-
Formula: C28H46O4
CAS: 10588-88-2
Molecular weight: 446
m/z	intensity
26	8
27	55
28	50
29	183
30	6
31	16
32	7
39	29
40	10
41	300
42	70
43	633
44	29
45	15
46	2
47	2
50	10
51	31
52	9
53	18
54	48
55	383
56	94
57	591
58	61
59	27
60	18
61	13
62	3
63	5
64	3
65	13
66	5
67	86
68	39
69	250
70	55
71	250
72	20
73	32
74	55
75	15
76	10
77	166
78	47
79	133
80	17
81	89
82	47
83	183
84	58
85	150
86	15
87	42
88	8
89	10
90	16
91	200
92	30
93	19
94	10
95	108
96	35
97	150
98	75
99	45
100	208
101	40
102	5
103	8
104	12
105	999
106	150
107	150
108	28
109	59
110	20
111	61
112	23
113	291
114	29
115	17
116	191
117	35
118	29
119	20
120	12
121	19
122	15
123	40
124	13
125	27
126	8
127	33
128	8
129	141
130	16
131	6
132	4
133	17
134	14
135	20
136	7
137	20
138	11
139	18
140	6
141	15
142	8
143	20
144	15
145	8
146	4
147	5
148	6
149	92
150	11
151	10
152	15
153	19
154	8
155	52
156	14
157	40
158	10
159	4
160	3
161	8
162	375
163	108
164	20
165	33
166	10
167	11
168	5
169	108
170	15
171	21
172	6
173	3
174	4
175	3
176	3
177	7
178	11
179	41
180	13
181	15
182	5
183	12
184	10
185	51
186	8
187	12
188	4
189	2
190	1
191	2
192	4
193	5
194	5
195	5
196	4
197	40
198	7
199	12
200	8
201	6
202	2
203	1
204	1
205	5
206	5
207	9
208	5
209	4
210	5
211	20
212	5
213	10
214	3
215	2
217	2
218	2
219	3
220	12
221	5
222	10
223	10
224	5
225	30
226	5
227	17
228	4
229	45
230	8
233	27
234	7
235	4
236	4
237	3
238	3
239	25
240	7
241	15
242	12
243	7
244	4
245	2
246	4
247	5
248	9
249	4
250	2
251	2
252	2
253	17
254	5
255	12
256	7
257	2
261	5
262	5
263	11
264	45
265	28
266	10
267	250
268	54
269	15
270	5
271	20
272	4
275	9
276	3
278	4
279	5
280	3
281	75
282	18
283	34
284	18
285	6
286	3
287	1
289	9
290	4
291	2
292	1
293	1
294	2
295	19
296	30
297	28
298	6
299	4
303	6
304	4
305	1
309	4
310	9
311	15
312	6
313	10
314	4
315	2
316	1
317	7
318	2
319	2
320	1
321	2
324	416
325	100
326	19
327	6
328	1
331	5
332	3
333	2
334	1
335	1
336	1
337	5
338	5
339	62
340	91
341	25
342	5
343	1
344	3
345	5
346	2
347	1
351	1
352	5
353	2
354	4
355	14
356	5
357	1
359	3
360	2
367	3
368	13
369	75
370	19
371	5
372	2
373	10
374	5
375	2
376	1
381	1
382	1
384	1
387	1
388	1
389	3
390	2
401	2
402	1
417	7
418	11
419	3
420	1
428	2
431	5
432	7
433	2
445	283
446	441
447	125
448	33
449	5
