Mass Spectrum: Tetramethylammonium acetate
Formula: C6H15NO2
CAS: 10581-12-1
Molecular weight: 133
m/z	intensity
12	1
13	5
14	28
15	283
16	5
17	4
18	26
25	1
26	7
27	18
28	63
29	62
30	291
31	27
32	5
33	1
38	2
39	5
40	18
41	31
42	278
43	999
44	47
45	24
50	1
51	1
52	2
54	3
55	1
56	29
57	63
58	929
59	550
60	33
73	2
74	261
75	13
76	1
142	1
