Mass Spectrum: 1,2-Propanediamine, N(1),N(1),N(2)-trichloro-N(2),1,1,2,3,3,3-heptafluoro-
Formula: C3Cl3F7N2
CAS: 105882-91-5
Molecular weight: 302
m/z	intensity
50	73
64	15
69	999
80	329
82	100
99	157
101	51
114	39
119	272
134	65
136	43
138	6
168	13
170	4
180	184
182	55
194	229
196	76
