Mass Spectrum: 1,2-Ethanediamine, N,N-dichloro-N',N',1,1,2,2-hexafluoro-
Formula: C2Cl2F6N2
CAS: 105882-88-0
Molecular weight: 236
m/z	intensity
31	194
35	53
37	13
50	269
69	999
80	439
81	18
82	137
99	59
100	74
101	17
102	15
114	35
130	617
132	198
134	95
136	61
236	22
238	13
