Mass Spectrum: 2-Propen-1-ol, 1-[(1,1-dimethylethyl)dimethylsilyl]-
Formula: C9H20OSi
CAS: 105875-75-0
Molecular weight: 172
m/z	intensity
25	0
26	3
27	26
28	1
29	57
30	1
31	53
33	0
37	0
38	1
39	20
40	2
41	46
42	6
43	73
44	14
45	75
46	5
47	22
48	1
49	1
50	1
51	2
52	1
53	4
54	1
55	15
56	13
57	66
58	34
59	109
60	13
61	73
62	6
63	3
65	1
66	1
67	4
68	1
69	5
70	4
71	7
72	8
73	999
74	101
75	260
76	23
77	12
78	1
79	1
81	2
82	1
83	8
84	2
85	18
86	3
87	38
88	4
89	2
90	0
91	7
92	3
93	0
95	2
96	1
97	14
98	9
99	33
100	5
101	15
102	1
103	1
105	2
106	1
107	0
109	0
111	2
112	1
113	5
114	4
115	271
116	39
117	16
118	1
119	0
120	0
122	0
123	0
125	0
127	0
128	0
129	2
130	0
131	1
132	0
133	1
137	0
139	2
155	0
157	1
171	0
172	2
173	0
