Mass Spectrum: 4-Chloro-N-(2-methyl-4-nitrophenyl)-benzenesulfonamide
Formula: C13H11ClN2O4S
CAS: 10589-64-7
Molecular weight: 326
m/z	intensity
15	1
26	3
27	14
28	19
29	3
30	48
31	1
35	2
36	3
37	4
38	11
39	45
40	9
41	18
42	13
43	8
45	7
46	2
47	3
48	5
49	5
50	92
51	133
52	92
53	35
54	25
55	3
57	3
58	2
60	2
61	10
62	11
63	41
64	23
65	53
66	48
67	19
68	5
69	11
70	2
71	2
72	2
73	15
74	42
75	262
76	95
77	202
78	157
79	53
80	19
81	11
82	15
83	3
84	6
85	28
86	4
87	11
88	2
89	9
90	6
91	9
92	21
93	130
94	63
95	11
96	5
97	2
98	2
99	11
100	4
101	6
102	15
103	12
104	318
105	317
106	44
107	7
108	17
109	13
110	12
111	999
112	94
113	324
114	28
115	6
116	2
117	3
118	4
119	23
120	30
121	831
122	94
123	6
124	3
125	4
126	3
127	14
128	10
129	5
130	5
131	16
132	3
133	17
134	11
135	11
136	8
137	7
138	1
139	7
140	6
141	6
142	5
143	6
144	18
145	3
146	7
147	11
148	3
149	8
150	15
151	289
152	37
153	8
154	5
155	3
156	2
157	2
158	1
159	44
160	9
161	16
162	5
163	2
164	3
165	2
166	4
167	3
168	3
169	4
171	3
175	978
176	73
177	350
178	29
179	26
180	15
181	15
182	4
183	2
184	1
187	1
188	1
189	1
190	1
195	4
196	3
197	4
198	3
199	1
200	1
201	2
202	2
203	2
204	1
205	1
210	2
214	6
215	3
216	9
217	10
218	4
219	4
220	1
225	5
226	3
227	3
230	1
232	7
233	4
234	3
235	2
245	1
246	2
247	1
249	2
251	1
259	1
261	2
262	3
263	1
264	1
267	2
281	4
282	1
283	1
285	1
295	1
296	40
297	7
298	12
299	2
305	2
308	1
310	9
311	2
312	4
313	1
326	433
327	69
328	168
329	27
330	8
331	1
