Mass Spectrum: N,N'-Methylenebis(myristamide)
Formula: C29H58N2O2
CAS: 10586-58-0
Molecular weight: 466
m/z	intensity
15	2
26	2
27	46
28	21
29	112
30	120
31	2
32	3
39	32
40	8
41	271
42	65
43	465
44	74
45	436
46	11
51	2
52	1
53	15
54	24
55	262
56	70
57	454
58	32
59	999
60	96
61	4
65	4
66	2
67	51
68	17
69	152
70	44
71	251
72	404
73	98
74	8
77	3
78	1
79	9
80	5
81	58
82	21
83	101
84	68
85	146
86	109
87	34
88	10
89	14
91	3
92	1
93	8
94	4
95	83
96	25
97	87
98	99
99	55
100	44
101	22
102	4
106	2
107	9
108	3
109	50
110	21
111	50
112	36
113	28
114	74
115	36
116	4
121	8
122	3
123	24
124	14
125	14
126	26
127	20
128	80
129	15
130	176
131	11
132	1
135	7
136	2
137	13
138	9
139	9
140	37
141	12
142	31
143	95
144	12
149	6
150	2
151	4
152	6
153	5
154	27
155	11
156	19
157	12
158	3
163	2
164	1
165	1
166	7
167	4
168	18
169	8
170	22
171	7
172	8
180	4
181	3
182	15
183	7
184	51
185	15
186	7
191	4
192	1
193	4
194	3
195	2
196	21
197	8
198	26
199	9
200	4
208	3
209	8
210	46
211	515
212	85
213	10
214	3
222	5
223	2
224	4
225	4
226	63
227	153
228	275
229	40
230	3
237	3
238	11
239	64
240	54
241	14
242	6
253	2
254	1
255	692
256	126
257	14
268	1
269	7
270	1
282	3
283	4
296	1
298	514
299	100
300	10
311	48
312	10
313	1
322	1
325	3
326	2
336	1
339	3
340	3
353	4
354	2
367	3
368	1
381	2
395	2
408	6
409	3
423	3
437	3
451	1
464	3
465	3
466	203
467	68
468	10
