Mass Spectrum: Stannane, (acetyloxy)tritetradecyl-
Formula: C44H90O2Sn
CAS: 105868-41-5
Molecular weight: 770
m/z	intensity
25	2
26	25
27	271
28	94
29	408
30	10
31	2
33	1
37	8
38	19
39	252
40	55
41	838
42	400
43	999
44	37
45	51
50	10
51	18
52	11
53	80
54	122
55	654
56	626
57	724
58	41
59	1
60	33
61	1
62	2
63	5
64	1
65	13
66	8
67	83
68	105
69	410
70	504
71	342
72	18
77	9
78	2
79	11
80	4
81	29
82	75
83	291
84	288
85	182
86	12
91	7
93	2
94	2
95	10
96	27
97	173
98	143
99	31
100	1
105	2
106	0
107	1
108	0
109	3
110	11
111	67
112	76
113	22
114	1
115	1
116	6
117	15
118	19
119	26
120	24
121	28
122	3
123	9
124	4
125	21
126	43
127	17
128	1
129	0
130	0
131	2
132	3
133	18
134	9
135	24
136	11
137	29
138	1
139	5
140	25
141	13
142	2
143	1
144	1
145	1
146	1
147	3
148	2
149	12
150	1
151	3
152	1
153	2
154	17
155	9
156	1
159	2
160	1
161	3
162	1
163	3
164	1
165	2
166	1
167	1
168	11
169	4
170	0
171	5
172	1
173	5
174	3
175	83
176	44
177	140
178	55
179	185
180	5
181	29
182	1
183	32
185	2
188	1
189	3
190	1
191	2
192	1
193	1
194	1
195	1
196	36
197	15
198	17
199	2
200	0
201	1
202	0
203	2
204	0
205	1
215	1
216	1
217	2
218	1
219	2
220	1
221	2
222	1
223	2
224	0
225	1
226	1
227	1
228	1
229	2
230	1
231	2
232	0
233	2
234	2
235	1
236	4
237	2
238	6
239	1
240	1
241	1
242	1
243	2
244	0
245	3
246	1
247	2
248	1
249	1
255	1
256	1
257	1
258	0
259	2
260	2
261	2
262	1
263	2
264	1
270	1
271	1
272	2
273	1
274	2
275	1
276	2
277	1
286	2
287	1
288	2
289	1
290	3
291	0
292	1
294	1
300	2
301	1
302	3
303	1
304	4
305	0
306	1
308	1
309	1
310	2
311	2
312	10
313	7
315	22
316	11
317	28
318	8
319	18
320	3
321	5
322	1
323	2
329	2
330	1
331	4
332	1
333	5
334	1
335	1
371	5
372	5
373	9
374	6
375	12
376	4
377	2
378	1
379	2
387	4
388	2
389	8
390	4
391	11
392	1
393	1
394	0
395	1
401	1
402	0
403	2
404	1
405	2
415	3
416	2
417	6
418	2
419	8
420	1
421	0
423	1
429	3
430	2
431	5
432	2
433	9
434	1
435	0
437	1
443	1
444	0
445	2
446	0
447	3
485	1
486	0
487	2
488	1
497	0
498	0
499	1
500	1
501	2
502	0
503	0
504	0
505	1
507	1
508	0
509	4
510	3
511	16
512	11
513	23
514	12
515	19
516	5
517	5
518	1
519	2
520	1
523	0
524	0
525	1
526	1
528	1
529	3
530	2
531	4
532	1
533	2
534	0
541	0
542	1
543	1
544	1
545	3
546	1
547	3
548	2
549	4
550	1
551	1
552	0
553	1
554	0
555	1
556	0
557	2
558	1
559	2
565	20
566	6
567	16
568	13
569	319
570	275
571	570
572	366
573	755
574	247
575	155
576	38
577	127
578	40
579	5
580	0
593	0
599	0
600	0
601	0
707	10
708	9
709	21
710	12
711	26
712	9
713	3
715	1
