Mass Spectrum: 1-Propanamine, N,N-dichloro-1,1,3,3,3-pentafluoro-2-(fluoroimino)-, (Z)-
Formula: C3Cl2F6N2
CAS: 105882-90-4
Molecular weight: 248
m/z	intensity
50	62
69	999
80	230
82	73
99	137
101	45
114	42
194	258
196	88
248	26
250	16
252	1
