Mass Spectrum: 1,2-Ethanediamine, N,N,N'-trichloro-N',1,1,2,2-pentafluoro-
Formula: C2Cl3F5N2
CAS: 105882-92-6
Molecular weight: 252
m/z	intensity
49	324
50	92
51	118
64	75
69	999
80	220
82	62
84	212
86	127
88	19
99	231
100	51
101	74
114	59
134	89
136	60
138	9
184	14
186	7
252	26
254	25
256	5
