Mass Spectrum: Ethanamine, 2,2'-azobis[N,N,1,1,2,2-hexafluoro-
Formula: C4F12N4
CAS: 105882-89-1
Molecular weight: 332
m/z	intensity
28	412
31	99
50	105
52	2
69	999
81	26
100	274
114	46
119	79
