Mass Spectrum: 1-Aza-7-oxa-bicyclo[3.2.0]heptan-6-one, 3-hydroxy-
Formula: C7H13NO3
CAS: 105869-44-1
Molecular weight: 159
m/z	intensity
42	574
44	510
45	99
46	4
47	2
49	2
50	9
51	16
53	55
55	181
56	28
58	999
59	40
60	1
61	2
62	1
63	1
65	10
67	44
68	23
70	69
72	200
73	5
74	2
77	5
79	31
82	293
84	66
86	38
88	9
89	1
91	4
92	3
94	29
96	27
97	58
98	19
100	300
101	19
102	8
103	1
105	2
106	1
107	8
108	6
109	2
110	1
111	0
114	28
115	3
116	8
117	0
118	1
120	4
122	8
124	5
126	7
127	5
129	3
130	1
132	6
140	3
141	26
142	7
144	3
145	1
157	0
158	1
159	12
160	1
