Mass Spectrum: D-(+)-Ribono-1,4-lactone (R,R,R)-, 3TMS derivative
Formula: C14H32O5Si3
CAS: 10589-34-1
Molecular weight: 364
m/z	intensity
27	5
28	19
29	14
31	6
39	4
41	11
42	2
43	33
44	28
45	135
46	6
47	14
53	5
55	21
56	3
57	11
58	10
59	59
60	6
61	13
62	11
66	4
67	3
68	1
69	46
70	3
71	5
72	15
73	999
74	85
75	94
76	5
77	5
83	3
85	4
86	0
87	9
89	36
90	0
91	1
95	0
99	6
101	24
102	74
103	96
104	12
105	6
107	0
111	2
113	6
115	9
116	6
117	219
118	20
119	21
120	0
121	2
127	3
128	2
129	40
130	93
131	35
132	9
133	84
134	14
135	13
136	3
141	1
142	2
143	19
144	1
145	3
147	373
148	64
149	70
150	8
151	3
157	9
159	3
161	0
163	5
169	5
173	1
175	7
176	0
177	7
185	1
187	3
189	122
190	24
191	31
192	6
193	15
201	5
203	47
204	160
205	58
206	18
207	10
215	197
216	40
217	233
218	59
219	34
220	6
221	17
222	4
223	0
229	0
230	8
231	177
232	39
233	31
234	5
235	0
244	71
245	19
246	203
247	43
248	18
249	2
257	5
259	197
260	42
261	20
262	1
274	9
275	1
291	53
292	15
293	6
303	3
305	15
306	3
307	5
319	17
320	5
321	8
322	1
331	5
349	184
350	57
351	26
352	4
364	155
365	47
366	23
367	3
