Mass Spectrum: Ethanamine, N-(1-propylbutylidene)-
Formula: C9H19N
CAS: 10599-79-8
Molecular weight: 141
m/z	intensity
40	49
41	594
42	237
43	693
44	128
51	19
52	19
53	39
54	108
55	79
56	29
57	29
67	19
68	29
69	29
70	999
71	59
82	9
84	59
85	277
86	19
98	386
99	29
112	19
113	69
126	108
140	9
141	49
142	19
