Mass Spectrum: Methane, bis(2-chlorophenylthio)-
Formula: C13H10Cl2S2
CAS: 105972-85-8
Molecular weight: 300
m/z	intensity
13	1
35	3
36	5
37	14
38	34
39	75
45	999
46	59
47	54
48	4
49	21
50	123
51	92
52	11
53	2
57	12
58	30
60	6
61	20
62	36
63	96
64	11
65	9
66	2
69	134
70	14
71	12
73	53
74	56
75	198
76	34
77	132
78	41
79	16
81	31
82	51
83	7
84	14
85	25
86	6
87	12
89	17
90	3
91	3
92	2
93	10
94	3
95	7
96	4
97	6
99	43
100	6
101	14
102	1
103	4
104	1
105	6
106	7
108	194
109	28
110	14
111	34
112	10
113	22
114	3
115	3
117	1
118	2
119	3
121	117
122	68
123	14
124	5
125	30
126	3
127	7
131	3
139	5
141	1
143	54
144	13
145	21
146	4
150	1
151	1
153	18
154	9
155	23
157	637
158	72
159	238
160	23
161	11
182	1
183	1
184	4
187	1
231	1
265	104
266	17
267	45
268	6
269	4
300	43
301	10
302	33
303	6
304	7
305	1
