Mass Spectrum: N-Furfuryl-N-methylaniline
Formula: C12H13NO
CAS: 105909-65-7
Molecular weight: 187
m/z	intensity
15	2
26	1
27	26
28	6
29	3
30	2
37	1
38	5
39	20
40	2
41	4
42	16
43	1
44	2
50	10
51	42
52	10
53	119
54	7
55	4
62	2
63	8
64	5
65	10
66	3
67	1
68	7
74	3
75	2
76	3
77	95
78	17
79	13
80	2
81	999
82	65
83	4
84	2
86	1
89	2
90	3
91	13
92	3
93	6
94	2
95	1
96	1
102	1
103	3
104	38
105	23
106	49
107	26
108	2
115	9
116	3
117	7
118	6
119	2
120	41
121	5
127	2
128	3
129	3
130	4
131	6
132	6
133	2
135	1
141	1
142	4
143	9
144	44
145	8
146	1
154	1
156	4
157	4
158	21
159	80
160	9
168	2
170	6
171	2
172	9
184	1
186	38
187	500
188	66
189	5
