Mass Spectrum: 6-Oxabicyclo[3.1.0]hex-2-en-4-one, 1,2,3,5-tetraphenyl-
Formula: C29H20O2
CAS: 1059-46-7
Molecular weight: 400
m/z	intensity
39	29
41	20
42	16
43	73
44	16
50	15
51	79
52	7
55	10
56	22
57	19
58	28
63	24
65	8
69	7
71	9
74	6
75	7
76	14
77	497
78	36
79	7
84	5
87	5
89	35
91	11
102	5
105	999
106	79
107	17
113	11
115	22
119	5
122	16
125	5
126	17
131	6
132	24
133	27
137	6
138	15
139	21
146	11
147	14
149	8
150	20
151	24
152	23
157	10
161	9
162	14
163	44
164	24
165	189
166	34
167	6
169	11
170	9
171	6
175	12
176	42
177	21
178	102
179	28
180	14
186	33
187	13
188	14
189	77
190	18
191	11
192	50
193	7
199	16
200	51
201	7
202	9
213	6
224	5
226	16
237	14
238	7
239	42
240	9
250	20
251	8
252	66
253	18
261	7
262	5
263	90
264	30
265	227
266	65
267	778
268	184
269	20
276	10
277	7
278	6
293	19
294	14
295	22
311	11
321	10
322	6
323	13
326	5
339	9
352	6
353	7
355	6
356	6
371	19
372	872
373	274
374	44
375	5
381	10
384	7
399	717
400	739
401	195
402	37
