Mass Spectrum: Imidazole, 2-bromo-4-methyl-5-nitro-
Formula: C4H4BrN3O2
CAS: 105983-46-8
Molecular weight: 205
m/z	intensity
41	123
42	999
43	106
44	17
45	20
46	79
50	19
51	175
52	551
53	408
54	209
55	253
56	15
57	12
58	11
64	9
65	14
66	17
67	104
68	65
69	26
70	10
76	9
77	35
78	41
79	283
80	115
81	50
82	48
83	90
84	7
91	31
92	4
93	32
94	11
95	87
96	22
105	41
106	311
107	68
108	307
109	59
110	18
117	51
118	12
119	50
120	63
121	5
122	50
124	15
130	8
131	60
132	312
133	135
134	295
135	85
136	7
138	3
141	4
147	78
148	30
149	82
150	28
157	120
158	136
159	224
160	156
161	118
162	25
163	9
174	3
175	85
176	14
177	70
178	11
187	124
188	92
189	136
190	92
191	12
205	594
206	84
207	560
208	62
