Mass Spectrum: cis-3-[(E)-2-Chloro-1-methyl-1-butenyl]-5-methyl-1,2,4-trioxolane
Formula: C8H13ClO3
CAS: 105949-82-4
Molecular weight: 192
m/z	intensity
39	250
43	420
44	90
51	120
53	250
65	200
67	650
68	140
69	230
75	110
77	110
79	130
81	170
95	160
97	300
103	270
105	90
107	130
117	150
119	170
120	110
125	999
131	210
132	680
133	140
134	230
148	210
149	90
150	80
192	220
194	70
