Mass Spectrum: Benzene, (1-octyldecyl)-
Formula: C24H42
CAS: 10596-71-1
Molecular weight: 330
m/z	intensity
27	35
28	37
29	73
30	1
38	0
39	12
40	3
41	86
42	11
43	106
44	4
50	0
51	2
52	1
53	5
54	3
55	45
56	7
57	60
58	3
63	0
65	5
66	1
67	6
68	2
69	25
70	3
71	29
72	2
74	0
75	1
76	1
77	17
78	18
79	12
80	1
81	5
82	2
83	15
84	2
85	11
86	1
87	0
89	3
90	4
91	999
92	92
93	5
94	1
95	1
96	0
97	4
98	0
102	4
103	19
104	109
105	176
106	17
107	1
111	2
113	3
115	19
116	9
117	79
118	25
119	68
120	7
125	1
127	1
128	5
129	6
130	3
131	13
132	4
133	48
134	5
141	1
142	1
143	1
145	3
146	2
147	37
148	4
158	1
160	2
161	20
162	3
169	0
174	1
175	6
176	1
189	1
190	0
201	8
202	23
203	188
204	41
205	4
216	9
217	163
218	36
219	4
231	1
245	1
259	0
302	0
330	74
331	20
332	2
