Mass Spectrum: (E)-4-Chloro-3-methyl-3-hexen-2-one
Formula: C7H11ClO
CAS: 105949-80-2
Molecular weight: 146
m/z	intensity
36	1
37	8
38	18
39	136
40	31
41	171
42	33
43	999
44	23
45	5
47	2
48	2
49	15
50	29
51	64
52	20
53	109
54	9
55	52
56	4
57	5
58	4
60	3
61	15
62	19
63	50
64	7
65	125
66	29
67	510
68	52
69	14
71	1
72	5
73	14
74	6
75	92
76	7
77	61
78	6
79	16
80	2
81	12
82	2
83	18
85	1
87	7
88	3
89	9
90	1
91	22
92	3
93	39
94	5
95	39
96	7
97	2
99	2
101	3
102	2
103	30
104	3
105	8
106	1
109	13
110	27
111	216
112	17
113	5
115	2
116	2
117	4
118	1
119	1
127	1
128	1
129	3
130	2
131	492
132	37
133	177
134	11
135	1
143	2
146	605
147	46
148	191
149	16
150	1
