Mass Spectrum: Methanamine, N-pentylidene-
Formula: C6H13N
CAS: 10599-75-4
Molecular weight: 99
m/z	intensity
41	150
42	999
43	30
44	20
51	20
52	20
53	20
54	30
55	30
56	90
57	790
58	30
68	30
70	200
71	20
84	20
99	5
100	2
101	2
