Mass Spectrum: (+)-N-Acetylmuramic acid
Formula: C11H19NO8
CAS: 10597-89-4
Molecular weight: 293
m/z	intensity
12	1
13	4
14	13
15	52
16	6
17	17
18	76
19	5
24	1
25	4
26	19
27	90
28	53
29	140
30	18
31	34
32	9
33	5
36	1
37	2
38	5
39	15
40	8
41	33
42	75
43	512
44	104
45	999
46	35
47	9
50	2
51	5
52	8
53	12
54	12
55	27
56	30
57	11
58	12
59	76
60	205
61	11
62	1
63	1
65	1
66	3
67	4
68	14
69	19
70	13
71	9
72	60
73	12
74	9
75	10
76	1
77	1
78	4
79	7
80	10
81	16
82	9
83	23
84	36
85	20
86	12
87	12
88	4
89	3
90	4
91	1
93	1
94	4
95	9
96	36
97	34
98	21
99	6
100	19
101	18
102	4
103	2
104	1
105	1
106	2
107	2
108	9
109	9
110	9
111	4
112	16
113	9
114	64
115	9
116	2
117	1
122	2
123	4
124	9
125	40
126	25
127	9
128	5
129	2
130	2
131	1
132	1
135	1
136	2
137	1
138	11
139	6
140	9
141	3
142	12
143	9
144	12
145	3
149	2
151	2
152	1
153	1
154	8
155	4
156	8
157	9
158	4
159	1
160	2
165	1
166	3
167	10
168	3
169	4
170	4
171	1
172	2
173	1
174	1
184	2
185	4
186	18
187	4
188	1
197	1
198	1
199	1
200	1
202	1
212	1
214	1
215	1
216	1
229	1
230	2
244	3
246	1
257	1
