Mass Spectrum: 1-Hydroxy-5-methylpyrazin-2-one
Formula: C5H6N2O2
CAS: 105985-14-6
Molecular weight: 126
m/z	intensity
36	13
37	68
38	173
39	344
40	115
41	118
42	999
43	236
44	189
45	16
50	14
51	160
52	304
53	109
54	559
55	43
56	14
57	19
69	9
70	62
71	130
72	4
80	6
81	26
82	20
97	21
98	193
99	11
109	9
126	363
127	23
128	2
