Mass Spectrum: Methylamine, N-cyclopentylidene-
Formula: C6H11N
CAS: 10599-83-4
Molecular weight: 97
m/z	intensity
40	110
41	190
43	60
51	20
52	20
53	30
54	70
55	110
56	20
66	10
67	30
68	999
69	260
70	20
82	20
96	140
97	310
98	20
