Mass Spectrum: Ethanamine, N-pentylidene-
Formula: C7H15N
CAS: 10599-76-5
Molecular weight: 113
m/z	intensity
40	30
41	280
42	70
43	100
44	30
52	20
53	20
54	60
55	60
56	999
57	90
58	20
67	20
68	40
69	40
70	70
71	770
72	40
82	20
84	260
85	30
98	40
113	40
