Mass Spectrum: 3-(1-Chloroethenyl)-1,2,4-trioxolane
Formula: C4H5ClO3
CAS: 105949-84-6
Molecular weight: 136
m/z	intensity
38	130
39	440
40	150
41	350
42	380
43	160
45	120
47	220
49	220
51	60
53	100
60	120
61	999
62	340
63	440
64	90
69	320
75	440
76	120
77	100
78	70
79	70
89	80
90	80
91	110
101	30
103	120
104	470
105	70
106	240
107	130
136	220
138	70
