Mass Spectrum: 3-[(Z)-2-Chloro-1-methyl-1-butenyl]-3-methyl-1,2,4-trioxolane
Formula: C8H13ClO3
CAS: 105949-79-9
Molecular weight: 192
m/z	intensity
33	1
35	2
36	3
37	11
38	21
39	197
40	43
41	225
42	51
43	999
44	57
45	69
46	18
47	5
48	3
49	22
50	36
51	68
52	22
53	164
54	11
55	47
56	9
57	43
58	9
59	11
60	31
61	27
62	21
63	53
64	8
65	148
66	38
67	537
68	141
69	96
70	10
71	48
72	8
73	23
74	5
75	101
76	8
77	64
78	8
79	31
80	4
81	23
82	5
83	43
84	16
85	57
86	112
87	56
88	10
89	93
90	5
91	24
92	6
93	36
94	44
95	150
96	42
97	24
98	4
99	27
100	6
101	27
102	13
103	86
104	15
105	214
106	14
107	75
108	6
109	22
110	25
111	231
112	57
113	64
114	13
115	22
117	32
118	9
119	186
120	295
121	88
122	99
123	11
124	1
125	128
126	16
127	116
128	14
129	14
130	11
131	723
132	58
133	287
134	24
135	14
136	2
137	1
138	3
139	4
140	4
141	11
142	66
143	9
144	10
145	21
146	734
147	78
148	364
149	32
150	54
151	5
152	6
153	1
155	1
156	7
157	3
160	3
162	42
163	5
164	15
165	3
166	1
167	1
168	1
169	1
175	2
177	18
178	2
179	5
180	2
182	3
184	3
186	1
192	130
193	13
194	46
195	4
