Mass Spectrum: Methylamine, N-(1-propylbutylidene)-
Formula: C8H17N
CAS: 10599-78-7
Molecular weight: 127
m/z	intensity
41	70
42	999
43	350
44	30
53	20
54	60
55	120
56	60
57	40
58	20
68	60
70	40
71	350
72	20
82	20
84	820
85	50
99	80
112	130
113	20
126	20
127	40
128	30
