Mass Spectrum: Ethylamine, N-(1-butylpentylidene)-
Formula: C11H23N
CAS: 10599-82-3
Molecular weight: 169
m/z	intensity
41	400
42	180
43	70
44	90
53	40
54	140
55	170
56	60
57	330
58	50
67	40
68	40
69	40
70	80
71	20
82	30
83	10
84	700
85	999
86	60
96	20
98	110
99	20
110	10
112	310
113	20
127	40
140	180
141	20
154	30
168	10
169	10
170	30
