Mass Spectrum: 3-(1-Chloroethenyl)-3-methyl-1,2,4-trioxolane
Formula: C5H7ClO3
CAS: 105949-85-7
Molecular weight: 150
m/z	intensity
42	90
43	999
53	140
61	230
63	80
83	40
84	60
86	40
89	160
117	24
119	9
135	7
137	3
150	8
152	3
