Mass Spectrum: Methylamine, N-(1-butylpentylidene)-
Formula: C10H21N
CAS: 10599-81-2
Molecular weight: 155
m/z	intensity
40	150
41	20
42	930
43	500
44	90
45	30
53	40
54	70
55	180
56	100
57	250
67	20
68	120
69	20
70	40
71	999
72	40
82	20
84	100
96	20
98	650
99	50
113	60
126	170
127	20
140	20
154	10
155	10
156	20
