Mass Spectrum: 1-Butanamine, N-pentylidene-
Formula: C9H19N
CAS: 10599-77-6
Molecular weight: 141
m/z	intensity
40	60
41	990
42	690
43	210
44	120
51	20
53	40
54	110
55	130
56	720
57	999
58	50
67	20
68	60
69	110
70	270
71	40
82	20
84	760
85	50
98	130
99	200
100	20
112	190
113	30
125	20
139	20
141	60
