Mass Spectrum: Crotonic acid, 2-benzamido-, methyl ester
Formula: C12H13NO3
CAS: 105909-91-9
Molecular weight: 219
m/z	intensity
26	4
27	23
28	19
29	5
30	1
31	5
33	1
37	1
38	3
39	13
40	2
41	4
42	3
43	5
44	1
45	3
49	1
50	35
51	125
52	14
53	4
54	60
55	28
56	3
57	2
58	1
59	7
60	0
61	1
62	1
63	3
64	1
65	1
66	0
67	1
68	1
69	2
70	1
71	1
73	1
74	8
75	9
76	19
77	369
78	35
79	1
81	0
82	1
83	1
84	0
85	1
86	1
87	0
88	0
89	2
90	1
91	2
92	0
93	0
94	0
95	0
96	0
97	0
98	0
99	0
100	0
101	0
102	1
103	3
104	9
105	999
106	82
107	5
108	0
109	0
110	0
111	0
112	0
113	0
114	79
115	6
116	3
117	1
118	0
119	0
120	0
121	0
122	0
128	1
129	0
130	3
131	1
132	1
133	1
134	0
135	0
141	0
142	0
143	0
144	1
145	0
146	0
147	0
148	0
149	1
157	0
158	1
159	5
160	6
161	1
162	0
172	4
173	1
174	0
175	0
176	2
177	0
185	0
186	1
187	79
188	24
189	2
201	2
202	2
203	0
204	6
205	1
219	59
220	9
221	1
