Mass Spectrum: (4Z)-5-Chloro-3,4-dimethyl-2,4-heptadiene
Formula: C9H15Cl
CAS: 105949-75-5
Molecular weight: 158
m/z	intensity
37	62
38	150
39	999
40	162
41	700
42	100
49	312
50	200
51	575
52	300
53	425
54	87
55	225
60	62
61	100
62	162
63	337
64	112
65	425
66	162
67	325
68	87
73	87
74	112
75	150
76	87
77	562
78	212
79	487
80	75
81	287
82	62
89	75
91	637
92	100
93	362
94	62
95	112
103	62
105	200
106	62
107	487
108	75
123	162
143	62
145	75
158	175
160	87
