Mass Spectrum: 3-Methoxycarbonyl-3-methyl-1,2,4-trioxolane
Formula: C5H8O5
CAS: 105949-86-8
Molecular weight: 148
m/z	intensity
42	90
43	999
44	90
45	190
59	240
60	60
73	60
89	310
102	90
148	1
