Mass Spectrum: 2,5-Piperazinedione
Formula: C4H6N2O2
CAS: 106-57-0
Molecular weight: 114
m/z	intensity
12	2
13	3
14	14
15	13
16	3
17	3
18	10
25	1
26	8
27	48
28	194
29	121
30	999
31	26
38	4
39	5
40	10
41	23
42	111
43	101
44	24
45	6
51	2
52	2
53	2
54	3
55	5
56	26
57	11
58	18
59	11
60	2
66	1
67	1
68	3
69	1
70	1
71	180
72	8
73	1
74	4
75	2
80	2
82	2
84	1
85	6
86	26
87	2
96	2
114	276
115	14
116	1
