Mass Spectrum: 7-Oxabicyclo[4.1.0]heptane, 3-oxiranyl-
Formula: C8H12O2
CAS: 106-87-6
Molecular weight: 140
m/z	intensity
15	66
18	9
26	59
27	433
28	103
29	370
30	22
31	125
32	3
37	21
38	98
39	689
40	179
41	822
42	282
43	268
44	91
45	24
49	11
50	68
51	120
52	75
53	331
54	193
55	504
56	88
57	138
58	17
62	12
63	30
65	168
66	170
67	507
68	373
69	278
70	145
71	43
73	12
77	286
78	196
79	999
80	236
81	425
82	78
83	209
84	56
85	13
91	204
92	67
93	127
94	72
95	181
96	107
97	119
98	20
103	13
104	45
105	10
106	8
107	43
108	21
109	158
110	22
111	45
121	18
122	27
123	7
140	26
