Mass Spectrum: 1-Butene
Formula: C4H8
CAS: 106-98-9
Molecular weight: 56
m/z	intensity
2	1
15	22
16	1
19	1
20	1
24	1
25	9
26	82
27	251
28	270
29	125
30	4
36	2
37	26
38	43
39	339
40	64
41	999
42	33
43	1
48	3
49	16
50	51
51	42
52	13
53	54
54	24
55	181
56	388
57	17
58	1
