Mass Spectrum: Butanoic acid, 2-ethyl-3-hydroxy-4-(1,1-dimethylethoxy)-, methyl ester
Formula: C11H22O4
CAS: 106059-00-1
Molecular weight: 218
m/z	intensity
26	2
27	30
28	9
29	90
30	2
31	21
33	7
39	30
40	6
41	142
42	16
43	154
44	10
45	9
53	7
54	3
55	40
56	44
57	999
58	27
59	54
60	6
61	31
63	16
67	17
68	3
69	18
70	15
71	87
72	15
73	33
74	3
75	5
82	5
83	11
84	3
85	39
86	4
87	76
88	4
89	3
95	3
99	323
100	20
101	30
102	96
103	97
104	5
112	26
113	40
114	31
115	12
116	6
117	3
127	2
129	22
130	10
131	497
132	63
133	16
141	2
143	6
144	37
145	118
146	9
161	10
162	2
171	0
203	0
