Mass Spectrum: Propanoic acid, 2-methyl-, 2-[3-[(acetyloxy)methyl]oxiranyl]-5-methylphenyl ester
Formula: C16H20O5
CAS: 106009-86-3
Molecular weight: 292
m/z	intensity
40	60
41	70
43	999
44	80
45	110
65	20
71	520
77	70
89	50
91	80
105	130
119	60
121	110
132	60
133	300
134	120
135	190
145	430
146	110
147	60
149	950
150	230
161	300
162	680
163	100
177	70
191	160
204	110
219	140
221	40
232	50
262	10
292	10
