Mass Spectrum: 2-Acetamido-4-[3-(4-fluorophenyl)thioureido]-6-propyl-1,3,5-triazine
Formula: C15H17FN6OS
CAS: 106013-62-1
Molecular weight: 348
m/z	intensity
68	290
69	140
75	210
83	160
95	400
98	90
111	370
125	999
138	350
152	160
153	650
167	840
180	300
194	90
195	140
196	60
238	30
273	30
278	10
290	20
305	20
306	90
348	190
