Mass Spectrum: Propanoic acid, 2-methyl-, 3-(acetyloxy)-2-hydroxy-2-(2-hydroxy-4-methylphenyl)propyl ester
Formula: C16H22O6
CAS: 106009-87-4
Molecular weight: 310
m/z	intensity
41	160
43	999
45	180
51	30
57	60
60	90
61	140
65	40
70	120
71	850
73	140
77	150
79	80
88	110
91	110
101	70
103	50
105	240
115	60
119	50
121	220
129	50
133	220
134	80
135	280
145	160
149	660
150	90
161	170
162	500
163	110
167	860
168	80
209	360
222	10
237	280
252	50
292	40
310	120
311	21
