Mass Spectrum: Butanoic acid, 4-(1,1-dimethylethoxy)-3-hydroxy-, methyl ester, (R)-
Formula: C9H18O4
CAS: 106058-90-6
Molecular weight: 190
m/z	intensity
25	1
26	9
27	78
28	16
29	219
30	9
31	80
33	27
37	2
38	5
39	86
40	20
41	287
42	65
43	454
44	62
45	60
46	3
47	3
50	4
51	10
52	2
53	8
54	3
55	47
56	75
57	999
58	65
59	134
60	19
61	91
62	4
63	5
65	7
67	3
68	3
69	4
70	7
71	167
72	22
73	48
74	41
75	31
76	3
77	5
78	3
79	2
80	2
81	3
82	2
83	6
84	36
85	191
86	45
87	23
88	4
89	4
90	2
91	32
92	18
93	2
97	2
98	2
99	15
100	3
101	43
102	9
103	466
104	188
105	55
106	4
107	1
108	1
109	1
113	1
114	1
115	12
116	87
117	238
118	17
119	3
120	1
122	8
123	1
126	1
127	1
129	1
130	4
131	5
132	1
133	22
134	3
135	4
144	2
145	2
158	1
159	1
160	1
171	1
172	1
175	3
