Mass Spectrum: 2-Amino-4-[(3-phenyl)thioureido]-6-propyl-1,3,5-triazine
Formula: C13H16N6S
CAS: 106013-60-9
Molecular weight: 288
m/z	intensity
51	220
68	180
69	140
77	450
83	120
98	140
111	80
125	999
138	180
152	50
153	370
196	60
255	20
256	10
260	20
288	220
