Mass Spectrum: trans-3-[(E)-2-Chloro-1-methyl-1-butenyl]-5-methyl-1,2,4-trioxolane
Formula: C8H13ClO3
CAS: 106033-00-5
Molecular weight: 192
m/z	intensity
33	1
35	2
36	1
37	13
38	28
39	213
40	41
41	284
42	51
43	421
44	103
45	93
46	9
47	7
48	3
49	27
50	47
51	88
52	27
53	187
54	15
55	52
56	10
57	40
58	4
59	2
60	49
61	41
65	160
67	500
68	130
69	190
73	22
74	7
75	87
76	15
77	88
78	11
79	108
80	13
81	128
82	12
83	42
84	13
85	67
86	8
87	17
88	6
89	51
90	7
91	17
92	5
93	6
94	20
95	137
96	65
97	246
98	20
99	4
100	3
105	320
107	150
112	50
113	76
114	13
115	12
116	4
117	118
118	10
119	133
120	158
121	39
122	54
123	4
125	999
126	95
127	9
128	2
129	7
130	11
131	194
132	623
133	130
134	210
135	21
136	2
137	2
138	2
139	3
140	2
148	240
149	110
150	80
152	4
153	1
154	1
155	1
157	7
158	2
160	69
161	7
162	26
163	3
164	1
165	1
166	2
167	1
168	2
169	1
175	1
176	1
177	3
178	1
179	2
182	2
183	1
184	2
185	1
186	1
187	1
192	270
194	90
