Mass Spectrum: 16-Allopregnene-3.beta.,9.alpha.-diol-20-one 3-O-acetate
Formula: C23H34O4
CAS: 106068-45-5
Molecular weight: 374
m/z	intensity
41	97
43	999
45	31
47	16
49	4
51	2
53	35
55	128
57	20
58	1
59	1
61	43
63	2
65	21
67	72
69	19
70	1
71	9
72	0
73	1
75	1
76	1
77	50
79	71
81	62
82	8
83	5
84	27
86	17
88	2
89	0
91	72
93	100
94	7
95	61
96	4
97	7
98	2
99	1
102	0
103	7
105	62
107	76
108	16
109	15
110	43
112	3
113	0
115	12
116	1
117	22
118	1
119	22
120	14
121	27
122	138
123	37
124	5
125	4
127	3
128	5
129	10
131	23
133	30
134	3
135	49
136	12
137	28
138	1
139	0
141	4
142	1
143	12
144	1
145	27
146	9
147	21
148	5
149	32
150	6
151	12
152	1
153	2
155	5
157	11
158	2
159	13
160	3
161	12
162	1
163	9
164	4
165	3
167	3
168	0
169	3
171	6
172	0
173	11
174	6
175	9
177	23
178	3
179	1
180	0
181	1
182	0
183	3
185	5
186	0
187	6
188	5
189	5
191	22
192	40
193	10
194	1
195	1
196	0
197	3
198	1
199	3
201	2
202	0
203	1
204	1
205	29
206	4
207	2
209	1
211	2
212	1
213	2
215	2
217	1
218	1
219	3
220	0
221	0
223	1
224	2
225	3
226	1
227	1
229	0
231	0
233	0
237	1
238	0
239	2
241	1
243	0
244	0
245	0
248	0
250	0
251	0
252	0
253	8
254	2
255	1
257	2
259	0
263	2
265	0
267	1
268	0
271	2
272	1
273	0
276	0
278	0
279	0
281	9
282	1
285	0
286	0
287	0
295	1
296	35
297	15
298	0
299	3
300	0
312	0
313	4
314	65
315	17
316	2
327	3
328	1
330	0
331	0
341	1
345	3
346	0
356	3
357	2
358	0
359	0
373	5
374	8
375	2
