Mass Spectrum: 2-Morpholin-4-yl-N-phenyl-2-thioxo-acetamide
Formula: C12H14N2O2S
CAS: 106058-25-7
Molecular weight: 250
m/z	intensity
33	0
34	1
37	1
38	18
39	65
40	17
41	48
42	54
43	66
44	37
45	126
46	15
47	9
48	1
50	18
51	70
52	16
54	39
55	26
56	74
57	30
58	52
59	223
60	155
61	22
62	15
63	33
64	52
65	126
66	21
67	6
68	13
69	7
70	44
71	23
72	106
73	176
74	33
75	20
77	259
78	20
79	3
80	1
82	1
84	41
85	233
86	999
87	69
88	61
89	34
90	11
91	72
92	105
93	52
94	11
96	6
98	47
100	41
101	11
102	19
103	59
104	31
105	7
106	10
107	1
108	3
109	9
110	4
111	1
112	3
113	6
114	3
115	1
116	7
117	3
118	10
119	48
120	57
121	14
122	2
123	3
124	2
125	9
126	1
128	48
129	298
130	470
131	167
132	167
133	22
134	4
135	4
136	23
137	5
138	2
140	1
141	0
143	3
144	0
145	4
146	4
147	7
148	1
149	2
150	2
151	0
152	1
153	0
155	2
157	353
158	28
159	19
160	3
161	1
162	5
163	14
164	23
165	14
166	2
167	2
171	0
172	0
173	0
174	1
176	0
178	3
179	0
180	0
187	0
189	9
190	2
192	246
193	28
194	14
195	1
203	0
205	6
206	1
207	1
208	0
216	1
217	4
218	1
219	0
220	5
221	1
222	0
234	1
235	2
246	2
248	11
250	812
251	112
252	43
253	5
256	0
