Mass Spectrum: 2-Amino-4-[3-(4-fluorophenyl)thioureido]-6-propyl-1,3,5-triazine
Formula: C13H15FN6S
CAS: 106013-61-0
Molecular weight: 306
m/z	intensity
68	350
69	150
75	140
83	140
95	230
98	120
111	230
125	999
138	190
152	50
153	390
196	70
273	40
278	20
306	150
