Mass Spectrum: 2H-Pyran-2-one, tetrahydro-4,4,6-trimethyl-
Formula: C8H14O2
CAS: 10603-06-2
Molecular weight: 142
m/z	intensity
27	125
28	83
29	125
30	10
39	167
40	20
41	458
42	41
43	250
44	583
45	60
55	292
56	999
57	125
58	10
69	208
70	333
71	30
83	136
84	26
85	36
98	138
99	10
127	48
142	34
