Mass Spectrum: Propenone, 1-(1,1-dimethoxyethyl)-3-dimethylamino-
Formula: C9H17NO3
CAS: 106157-94-2
Molecular weight: 187
m/z	intensity
33	43
36	3
38	6
39	21
40	90
42	392
43	295
44	55
45	28
46	1
47	27
50	0
51	1
52	10
53	30
54	7
55	200
56	6
57	34
58	6
59	3
63	0
66	0
68	25
69	13
70	53
71	13
72	3
75	1
78	1
80	4
81	5
82	38
83	13
84	13
85	0
86	0
89	679
90	21
94	11
95	1
96	35
98	999
99	25
100	1
108	3
109	10
110	9
111	2
112	47
113	4
123	0
124	9
125	0
127	3
128	121
129	6
137	13
138	4
140	121
141	4
153	9
154	0
155	103
156	58
157	4
187	44
188	1
