Mass Spectrum: 5-Butyl-2-methyl-.delta.1-pyrroline
Formula: C9H17N
CAS: 106119-01-1
Molecular weight: 139
m/z	intensity
42	999
43	79
44	24
45	3
46	0
47	1
49	0
50	8
51	22
52	20
53	95
54	110
55	410
56	211
57	71
58	17
59	1
60	0
61	0
62	2
63	3
64	2
65	16
66	9
67	77
68	418
69	117
70	149
71	12
72	2
73	0
74	0
75	1
76	0
77	12
78	4
79	19
80	50
81	68
82	844
83	582
84	80
85	9
86	1
87	0
89	1
91	6
92	2
93	8
94	26
96	530
97	218
98	19
99	1
100	4
101	0
103	0
104	0
105	1
106	3
107	4
108	11
109	4
110	54
111	47
112	5
113	1
114	1
115	0
117	0
118	1
119	0
120	2
121	5
122	14
123	4
124	50
125	5
126	1
127	0
132	0
134	2
135	2
136	3
137	2
138	49
139	167
140	48
141	29
142	2
