Mass Spectrum: N-Methyl-N-(p-tolyl)furfurylamine
Formula: C13H15NO
CAS: 106213-65-4
Molecular weight: 201
m/z	intensity
15	1
26	1
27	22
28	3
29	2
30	1
37	1
38	3
39	24
40	2
41	9
42	17
43	2
44	1
50	8
51	25
52	13
53	107
54	7
55	4
57	1
58	1
62	3
63	14
64	6
65	56
66	6
67	2
68	8
69	1
71	1
74	1
75	2
76	3
77	39
78	14
79	8
80	3
81	999
82	65
83	4
84	1
85	1
86	1
87	1
89	13
90	10
91	141
92	29
93	12
94	2
95	1
96	2
99	2
100	6
101	1
102	2
103	5
104	8
105	17
106	7
107	3
108	1
110	1
115	7
116	5
117	9
118	65
119	51
120	166
121	34
122	3
127	3
128	6
129	5
130	5
131	7
132	9
133	3
134	140
135	13
140	1
141	3
142	5
143	8
144	9
145	7
146	8
147	2
148	1
149	1
154	3
155	2
156	8
157	9
158	64
159	10
160	2
167	1
168	2
169	1
170	6
171	5
172	28
173	86
174	11
175	1
182	1
184	9
185	5
186	17
187	11
188	1
198	1
199	2
200	46
201	589
202	86
203	7
