Mass Spectrum: Stannane, bis(pentafluorophenyl)diphenyl-
Formula: C24H10F10Sn
CAS: 1062-67-5
Molecular weight: 608
m/z	intensity
27	37
39	25
44	53
50	66
51	416
52	22
62	3
63	6
74	15
75	22
76	25
77	999
78	64
79	7
98	10
99	8
116	41
117	23
118	65
119	26
120	104
122	14
123	3
124	17
126	6
127	6
128	8
129	5
131	9
135	120
136	61
137	191
138	66
139	258
141	38
143	48
145	5
151	10
152	32
153	26
154	454
155	60
156	8
167	9
175	11
179	1
180	4
185	5
186	16
187	6
193	20
194	12
195	32
196	14
197	41
198	5
199	7
201	7
204	9
205	15
206	55
207	8
223	5
224	26
225	11
242	3
243	4
244	15
245	2
283	31
284	20
285	55
286	22
287	67
288	5
289	22
290	9
291	31
292	10
293	29
294	3
295	4
297	5
300	2
301	5
302	1
303	3
334	6
340	1
341	1
342	2
343	1
344	2
360	4
361	4
362	4
363	5
364	4
379	27
380	19
381	46
382	21
383	60
384	9
385	10
387	11
417	1
419	1
421	2
437	15
438	10
439	25
440	13
441	33
442	6
443	5
445	6
508	2
509	1
510	3
511	2
512	4
513	1
514	1
516	1
527	30
528	21
529	50
530	26
531	65
532	13
533	10
535	12
604	5
605	4
606	9
607	5
608	11
609	3
610	2
612	2
