Mass Spectrum: 1-Benzyl-2-(trifluoromethyl)aziridine
Formula: C10H10F3N
CAS: 106240-89-5
Molecular weight: 201
m/z	intensity
51	35
65	55
66	6
69	11
77	32
78	7
89	15
91	999
92	77
93	4
104	14
110	30
201	66
202	4
