Mass Spectrum: Ecgonine methyl ester
Formula: C10H17NO3
CAS: 106293-60-1
Molecular weight: 199
m/z	intensity
41	85
42	328
43	59
44	52
51	8
52	9
53	48
54	44
55	130
56	69
57	54
58	27
59	56
60	1
61	2
65	24
66	16
67	73
68	115
69	47
70	61
71	65
72	7
76	6
77	21
78	12
79	35
80	58
81	75
82	999
83	615
84	104
85	12
86	32
91	19
92	7
93	35
94	377
95	52
96	788
97	345
98	47
99	9
100	49
102	2
106	5
107	12
108	27
109	8
110	62
111	13
112	128
113	9
115	8
116	13
117	1
119	15
120	12
121	4
122	47
123	11
124	49
125	4
126	29
128	8
136	10
138	46
139	6
140	96
141	10
142	10
144	2
150	9
152	31
154	27
155	72
156	35
157	2
166	17
167	7
168	187
169	18
170	44
171	18
180	2
182	127
183	15
184	7
198	4
199	305
200	43
