Mass Spectrum: Pentanoic acid, 3,4,4-trimethyl-, ethyl ester
Formula: C10H20O2
CAS: 106325-27-3
Molecular weight: 172
m/z	intensity
26	21
27	256
28	36
29	484
30	13
31	35
35	2
37	2
38	9
39	224
40	41
41	790
42	163
43	330
44	11
45	95
46	3
47	7
48	3
49	34
50	5
51	18
52	3
53	57
54	10
55	225
56	152
57	999
58	43
59	20
60	28
61	9
62	0
63	3
65	9
66	3
67	33
68	9
69	289
70	44
71	71
72	5
73	217
74	15
75	6
77	2
78	1
79	4
81	7
82	7
83	375
84	29
85	95
86	12
87	77
88	257
89	105
90	5
91	3
93	2
95	2
96	1
97	15
98	4
99	8
100	1
101	153
102	19
103	9
111	140
112	8
113	12
115	37
116	526
117	139
118	10
119	1
125	0
127	226
128	20
129	40
130	10
131	2
142	1
143	5
155	2
157	82
158	9
