Mass Spectrum: 3-(Phthalimidomethyl)benzoic acid
Formula: C16H11NO4
CAS: 106352-01-6
Molecular weight: 281
m/z	intensity
37	32
38	74
39	130
40	17
41	10
42	4
43	11
45	165
50	633
51	226
52	70
53	38
54	7
56	43
57	3
62	65
63	119
64	57
65	104
66	25
67	4
70	9
74	232
76	999
77	377
78	68
79	25
81	2
86	5
87	9
89	108
90	55
91	16
92	9
93	7
94	4
95	2
99	2
102	128
104	380
105	159
106	21
107	9
108	1
115	4
117	12
118	5
119	2
120	2
121	8
122	10
127	3
128	8
130	128
131	11
132	41
133	48
134	7
135	18
136	1
139	2
140	1
148	74
149	16
150	2
151	9
152	22
153	6
160	90
161	29
162	3
163	1
164	7
165	9
176	5
178	5
179	9
180	10
181	2
190	1
206	3
207	16
208	9
219	2
234	3
235	72
236	21
237	2
252	3
263	26
264	4
281	4
