Mass Spectrum: 4-Cyclohexene-1,2-dicarboxylic acid, 4-methyl-, bis(trimethylsilyl) ester
Formula: C15H28O4Si2
CAS: 106450-28-6
Molecular weight: 328
m/z	intensity
59	40
61	20
72	30
73	999
74	90
75	190
77	50
91	50
92	470
93	190
103	20
117	60
147	210
148	30
149	30
166	80
210	90
211	20
238	30
313	50
328	9
