Mass Spectrum: 4-(2-t-Butoxycarbonyl-2-cyano-ethyl)-5-chloro-1H-pyrrole-2-carboxylic acid, methyl ester
Formula: C14H17ClN2O4
CAS: 106491-29-6
Molecular weight: 312
m/z	intensity
25	5
27	41
28	10
29	145
30	4
31	14
36	4
37	8
38	12
39	77
40	15
41	231
42	20
43	62
44	10
45	6
47	4
49	6
50	15
51	38
52	54
53	18
54	8
55	37
56	35
57	999
58	49
59	55
60	4
61	10
62	14
63	34
64	28
65	12
66	7
67	8
68	4
69	14
70	6
71	13
72	13
73	18
74	7
75	8
76	23
77	11
78	34
79	9
80	3
81	7
82	4
83	12
84	5
85	10
86	8
87	6
88	20
89	15
90	38
91	12
92	4
93	3
94	25
95	8
96	4
97	13
98	10
99	19
100	7
101	6
102	2
103	4
104	4
106	4
107	2
109	5
110	2
111	8
112	33
113	38
114	20
115	38
116	29
117	18
118	7
119	2
121	2
122	2
123	3
124	54
125	10
126	22
127	14
128	5
129	4
130	2
131	2
132	2
133	4
139	2
140	407
141	36
142	143
143	14
144	7
145	9
146	3
147	2
150	7
151	36
152	29
153	64
154	17
155	5
156	4
158	2
159	10
160	3
161	5
162	8
167	5
170	2
171	4
172	922
173	81
174	293
175	27
176	3
178	18
179	92
180	52
181	39
182	16
183	3
185	3
187	3
192	4
194	54
195	6
207	13
208	2
209	4
210	2
211	23
212	8
213	8
214	2
220	28
221	7
225	23
226	2
227	7
229	53
230	6
231	18
238	7
239	18
240	2
241	6
242	0
255	3
256	69
257	11
258	24
259	3
281	9
283	3
312	65
313	11
314	23
315	3
