Mass Spectrum: 4-Cyclohexene-1,2-dicarboxylic acid, 2TMS derivative
Formula: C14H26O4Si2
CAS: 106450-27-5
Molecular weight: 314
m/z	intensity
59	40
73	999
74	90
75	170
77	50
78	160
79	80
103	20
107	20
117	60
118	20
133	20
147	280
148	40
149	30
152	110
153	20
181	10
196	70
224	80
225	20
299	80
300	20
314	5
