Mass Spectrum: 5,5'-Thiobis(3-phenylanthranil)
Formula: C26H16N2O2S
CAS: 106500-64-5
Molecular weight: 420
m/z	intensity
34	33
38	23
39	69
40	233
41	58
43	63
44	86
45	34
50	48
51	290
52	30
53	17
55	55
57	48
62	34
63	71
64	23
69	58
70	33
71	23
74	21
75	32
77	999
78	81
83	17
88	29
89	25
91	18
95	25
96	48
105	383
106	29
127	20
139	92
140	51
154	39
164	17
165	22
166	53
167	66
182	43
195	102
196	36
197	20
210	22
419	21
420	36
