Mass Spectrum: Propenone, 3-(4-chlorophenylthio)-1-phenyl-
Formula: C15H11ClOS
CAS: 106576-43-6
Molecular weight: 274
m/z	intensity
33	3
34	2
35	3
36	10
37	7
38	21
39	44
40	30
41	3
42	1
43	4
44	25
45	41
46	1
47	2
48	1
49	10
50	136
51	368
52	23
53	42
54	4
55	4
57	18
58	33
59	6
60	3
61	10
62	22
63	68
64	8
65	13
66	3
67	3
69	54
70	4
71	5
72	3
73	33
74	50
75	97
77	999
78	64
79	5
80	1
81	12
82	26
83	6
84	9
85	71
86	8
87	9
88	4
89	37
90	11
91	33
92	7
93	5
94	1
95	2
96	0
97	2
99	54
100	7
101	24
102	27
103	75
105	611
106	51
107	22
108	184
109	38
110	13
111	19
112	6
113	7
114	2
115	5
116	1
117	0
118	2
119	2
120	2
121	11
122	2
123	5
125	29
126	3
127	9
128	3
131	788
132	79
133	44
134	115
135	26
136	12
137	10
138	4
139	4
140	0
141	1
142	10
143	163
144	275
145	80
146	101
147	28
148	6
149	2
150	0
151	1
152	3
153	0
154	0
155	9
156	1
157	3
161	4
162	38
163	334
164	36
165	25
166	6
167	3
168	15
169	23
170	8
171	8
172	1
173	0
176	1
177	2
178	14
179	2
181	0
183	0
184	3
185	2
186	0
188	0
195	2
197	169
198	20
199	62
200	6
201	8
202	1
203	1
205	0
206	0
207	0
208	1
209	1
210	7
211	6
212	3
213	1
214	1
215	0
219	0
220	6
221	4
222	3
223	0
231	0
237	1
238	1
239	6
240	2
241	9
242	1
243	2
245	5
246	2
247	2
248	0
255	0
257	5
258	1
259	2
273	128
274	500
275	129
276	187
277	33
278	9
279	1
