Mass Spectrum: Pregn-3,17,21-triol-20-one, 3,9-epoxy-3-O-methyl-11-[2-(N-acetyl)
Formula: C27H39NO7S2
CAS: 106502-85-6
Molecular weight: 553
m/z	intensity
42	163
43	999
45	55
47	10
49	8
51	6
53	27
55	118
57	21
58	24
59	58
60	28
61	21
63	3
65	14
67	53
69	46
71	30
73	86
74	20
75	8
77	39
79	74
81	59
82	8
83	16
85	57
86	12
87	13
91	82
92	18
93	65
95	65
97	100
99	19
101	77
102	9
103	12
105	73
107	55
109	51
110	64
111	50
113	15
115	21
117	33
119	55
121	48
123	86
124	18
125	24
127	11
128	10
129	23
131	44
133	40
135	63
137	70
139	32
141	18
143	44
145	50
147	40
149	31
151	36
153	17
155	19
157	33
159	35
160	20
161	27
162	8
163	19
165	21
167	11
169	21
171	32
173	31
175	23
176	6
177	17
179	22
181	14
183	17
185	21
186	13
187	19
189	23
190	3
191	9
192	2
193	7
194	10
195	14
197	21
199	23
201	15
203	12
204	5
205	8
207	9
209	13
211	13
213	15
215	24
216	4
217	7
219	6
221	9
223	13
225	13
227	12
229	13
231	14
232	2
233	11
235	4
237	8
238	2
239	12
241	15
243	14
245	10
247	14
248	4
249	8
251	10
253	9
255	15
256	10
257	12
258	3
259	6
261	7
263	6
265	6
267	13
269	15
271	13
272	3
273	14
274	8
275	8
276	2
277	2
279	5
281	10
283	11
285	11
287	7
289	14
290	5
291	10
292	3
293	3
295	2
297	6
299	23
300	4
301	17
303	4
305	4
307	5
309	11
310	3
311	3
313	7
315	8
317	35
318	7
319	3
322	2
323	4
325	3
327	12
328	2
329	6
331	9
332	3
333	8
335	8
339	4
341	23
342	8
343	3
345	4
350	17
351	6
352	2
354	2
355	2
357	4
358	4
359	9
360	5
361	2
369	6
373	9
374	3
375	3
376	2
383	26
384	6
387	6
391	4
392	4
396	15
397	3
401	33
402	8
403	5
417	5
419	115
420	32
421	6
432	3
433	8
434	8
435	3
450	6
451	7
452	14
453	3
480	4
494	3
520	2
521	4
535	2
553	43
554	13
555	7
