Mass Spectrum: Phosphonic acid, methyl-, monomethyl ester
Formula: C2H7O3P
CAS: 1066-53-1
Molecular weight: 110
m/z	intensity
29	64
31	110
43	27
45	25
47	197
48	47
49	40
63	47
65	424
79	331
80	999
81	31
83	111
85	71
93	89
94	40
95	386
96	25
109	33
110	115
