Mass Spectrum: Metyldibromphosphine
Formula: CH3Br2P
CAS: 1066-34-8
Molecular weight: 204
m/z	intensity
15	31
16	19
32	15
43	61
44	272
45	999
46	67
47	1
79	98
80	99
81	101
82	92
110	72
112	71
121	43
123	32
124	35
125	732
126	8
127	717
128	8
189	144
191	282
193	138
204	329
205	4
206	645
207	8
208	315
209	4
