Mass Spectrum: Silanediol, dimethyl-
Formula: C2H8O2Si
CAS: 1066-42-8
Molecular weight: 92
m/z	intensity
45	146
46	10
47	14
58	4
59	25
61	18
62	31
63	16
64	3
75	17
76	26
77	999
78	66
79	40
92	7
