Mass Spectrum: 4'-Bromophenyl-1-thio-.beta.-d-glucoside S,S-dioxide, tetraacetate(ester)
Formula: C20H23BrO11S
CAS: 106600-47-9
Molecular weight: 550
m/z	intensity
43	999
44	2
45	8
47	1
48	1
49	3
50	18
51	6
52	1
53	6
54	2
55	11
56	3
57	10
58	1
59	1
60	8
61	13
62	0
63	1
64	1
65	2
66	0
67	1
68	5
69	29
70	9
71	15
73	20
74	7
75	29
76	31
77	11
78	2
79	1
80	1
81	61
82	7
83	7
84	5
85	44
86	9
87	2
88	0
89	2
90	0
91	0
92	0
93	1
94	0
95	2
96	9
97	85
98	13
99	23
100	2
101	3
102	8
103	45
104	2
105	1
106	0
107	1
108	3
109	495
110	46
111	9
112	3
113	11
114	3
115	62
116	11
117	1
118	0
119	0
121	0
122	0
123	1
124	2
125	9
126	8
127	219
128	16
129	5
130	0
131	3
132	0
133	0
138	1
139	88
140	6
141	12
142	1
143	5
144	3
145	61
146	4
147	0
149	0
150	0
151	4
152	1
153	1
155	45
156	6
157	49
158	7
159	1
161	1
165	0
167	2
168	3
169	650
170	88
171	13
172	2
173	2
174	1
175	3
177	3
178	0
183	2
184	0
185	4
186	1
187	24
188	2
189	1
190	0
199	1
203	47
204	3
205	47
206	3
207	2
211	32
212	3
213	0
219	8
221	10
222	0
223	2
229	23
230	2
231	0
236	0
245	0
246	0
247	0
263	0
265	0
271	37
272	4
273	0
287	0
289	2
315	13
316	1
317	13
318	1
319	0
328	8
329	1
330	9
331	181
332	27
333	5
334	0
550	0
551	0
