Mass Spectrum: 2-Chloro-6-methoxy-4-methyl-8-phthalimido-5-[3-trifluoromethylphenoxy]quinoline
Formula: C26H16ClF3N2O4
CAS: 106635-84-1
Molecular weight: 512
m/z	intensity
41	8
42	6
43	12
44	4
45	3
47	14
49	95
50	188
51	76
52	14
53	17
54	5
55	6
57	27
59	4
63	73
64	18
65	12
66	9
67	12
69	29
70	17
73	22
76	999
77	89
78	12
81	11
84	60
86	35
87	20
88	38
89	36
90	24
91	22
92	21
93	5
95	119
96	10
97	3
99	25
100	14
102	141
104	452
105	69
107	17
109	12
111	7
113	14
114	56
115	22
116	11
117	7
118	7
120	135
121	10
123	24
125	82
126	51
127	22
128	19
130	621
131	47
132	23
133	19
137	15
138	12
139	13
140	19
141	23
142	21
143	9
145	337
146	23
148	7
149	4
150	17
151	28
152	4
153	44
154	6
155	13
156	10
157	5
159	22
160	4
162	11
163	22
164	44
165	15
166	18
167	6
169	4
173	24
174	9
175	6
176	15
177	16
178	25
179	31
180	8
181	12
183	4
185	4
188	6
189	7
190	24
191	7
192	26
193	14
194	10
195	4
199	4
200	5
201	8
202	5
203	11
204	11
205	23
206	7
207	7
208	4
214	4
215	7
216	13
217	14
218	5
219	5
220	17
221	7
222	6
225	5
226	5
227	4
228	3
229	10
230	5
231	5
232	6
233	11
235	22
237	9
238	3
239	13
240	9
241	6
242	10
243	4
245	27
246	8
247	7
251	4
252	7
253	5
254	6
256	35
257	20
258	11
259	11
261	12
263	5
265	7
267	7
268	16
269	5
270	7
271	4
273	14
274	5
276	3
279	9
280	5
281	5
282	5
288	3
289	5
293	10
294	8
295	6
296	57
297	7
298	20
299	3
301	4
303	5
307	6
308	5
309	5
321	5
322	21
323	19
324	10
325	17
326	4
327	5
330	5
336	9
337	4
339	144
341	71
342	8
351	11
353	12
365	4
367	172
369	88
370	10
401	4
418	4
423	4
433	67
434	15
453	15
455	6
462	5
467	8
468	6
469	83
471	48
477	8
478	10
481	3
493	20
494	9
496	4
497	32
499	15
511	16
512	831
513	226
514	286
515	76
516	12
