Mass Spectrum: 2-(4-Chlorophenyl)-pyrimidin-4(H)-one
Formula: C10H7ClN2O
CAS: 106690-55-5
Molecular weight: 206
m/z	intensity
41	51
50	71
51	58
69	999
75	159
76	68
102	180
103	50
111	129
113	50
137	98
138	642
140	171
151	69
178	141
180	50
189	30
206	979
208	331
