Mass Spectrum: Tris(3-chloropropyl) phosphate
Formula: C9H18Cl3O4P
CAS: 1067-98-7
Molecular weight: 326
m/z	intensity
43	820
45	110
57	100
58	20
59	40
67	10
75	25
76	100
77	130
78	30
79	40
81	20
82	40
99	999
111	50
112	40
113	20
117	430
119	150
123	10
125	220
126	5
137	30
138	50
139	330
140	10
157	800
158	20
159	280
165	10
173	20
175	620
176	25
177	220
187	110
188	30
201	130
202	5
203	40
215	100
216	5
217	20
233	30
234	2
243	1
253	25
254	1
255	10
263	22
264	1
265	15
266	1
267	2
277	100
278	9
279	63
280	6
281	12
291	70
292	6
293	47
294	4
295	7
326	8
328	7
330	2
