Mass Spectrum: Nonanoic acid 4-hydroxyphenyl ester
Formula: C15H22O3
CAS: 106793-44-6
Molecular weight: 250
m/z	intensity
53	3
54	1
55	78
56	9
57	147
58	3
67	9
69	47
70	2
71	96
72	2
81	20
83	5
84	3
95	1
97	5
98	5
105	14
107	2
109	8
110	999
111	69
112	3
119	46
141	59
142	3
152	5
250	156
251	22
