Mass Spectrum: Cyclohexanone, 2,3,4-trihydroxy-6-methyl-, [2S-(2.alpha.,3.beta.,4.beta.,6.alpha.)]-
Formula: C7H12O4
CAS: 106750-01-0
Molecular weight: 160
m/z	intensity
15	40
18	60
19	50
27	160
28	100
29	160
31	130
39	130
41	330
42	200
43	300
44	100
45	70
53	60
55	160
56	240
57	800
58	110
60	200
67	80
68	60
69	200
70	160
71	250
72	100
73	999
74	380
81	60
83	80
85	70
86	130
87	600
88	310
95	50
96	110
97	100
100	150
111	40
113	150
114	190
124	90
125	20
127	10
129	20
142	80
160	90
161	7
