Mass Spectrum: 11-Dodecenoic acid, 10-hydroxy-, methyl ester
Formula: C13H24O3
CAS: 106753-87-1
Molecular weight: 228
m/z	intensity
26	7
27	98
28	55
29	201
30	7
31	47
39	81
40	18
41	347
42	76
43	236
44	23
45	35
51	7
52	4
53	51
54	108
55	513
56	79
57	922
58	63
59	160
60	7
61	4
63	2
65	12
66	12
67	161
68	119
69	257
70	64
71	61
72	78
73	65
74	526
75	52
76	5
77	16
78	6
79	51
80	50
81	211
82	86
83	166
84	120
85	80
86	14
87	999
88	93
89	9
91	13
92	6
93	49
94	56
95	174
96	105
97	193
98	311
99	43
100	10
101	96
102	10
105	10
106	6
107	38
108	40
109	57
110	21
111	173
112	162
113	31
114	14
115	47
116	10
117	3
119	17
120	6
121	74
122	36
123	54
124	66
125	121
126	29
127	17
128	6
129	229
130	24
131	8
132	4
133	8
134	15
135	39
136	67
137	54
138	12
139	68
140	26
141	30
142	4
143	198
144	30
145	5
147	3
149	32
150	35
151	8
152	6
153	38
154	22
155	16
156	3
157	32
158	8
159	2
160	4
161	40
162	5
163	3
165	2
166	2
167	27
168	38
169	33
170	4
171	5
172	254
173	32
174	3
178	33
179	34
180	5
181	5
185	2
195	4
196	20
197	3
199	6
200	3
210	1
211	2
