Mass Spectrum: 1,2,3-Tribenzamidopropane
Formula: C24H23N3O3
CAS: 106842-93-7
Molecular weight: 401
m/z	intensity
26	1
27	5
28	33
30	3
39	2
41	1
42	1
43	1
44	3
50	7
51	24
52	3
54	1
55	2
56	1
57	2
63	1
69	1
71	1
72	7
74	1
75	3
76	15
77	265
78	20
79	5
89	1
90	1
91	3
102	1
103	30
104	17
105	999
106	81
107	5
116	2
117	16
118	4
119	6
120	1
121	3
122	40
123	3
128	1
130	5
131	4
134	27
135	7
139	1
144	2
145	276
146	59
147	108
148	10
149	1
156	1
157	10
158	14
159	17
160	2
163	3
164	4
172	1
175	80
176	9
177	1
181	1
249	50
250	10
251	1
261	3
262	14
263	3
267	627
268	132
269	14
270	1
278	2
279	1
280	147
281	28
282	3
301	1
383	2
384	1
402	1
