Mass Spectrum: 4-Chloro-2-methylphenoxyacetic acid, dimethyl(1-cyanoethyl)silyl ester
Formula: C14H18ClNO3Si
CAS: 106865-00-3
Molecular weight: 311
m/z	intensity
70	37
71	20
72	122
73	84
74	45
75	999
76	108
77	418
78	71
79	28
80	5
81	16
82	20
83	14
84	669
85	87
86	227
87	42
88	52
89	244
90	80
91	91
92	9
93	100
94	14
95	53
96	23
97	23
98	25
99	62
100	22
101	109
102	24
103	45
104	8
105	24
106	7
107	98
108	17
109	6
110	11
111	23
112	557
113	95
114	33
115	38
116	289
117	98
118	26
119	26
120	47
121	7
123	5
124	3
125	443
126	42
127	124
128	42
129	77
130	40
131	33
132	28
133	67
134	14
135	11
136	9
137	7
138	24
139	411
140	50
141	467
142	273
143	140
144	45
145	7
146	5
147	24
148	24
149	53
150	8
151	18
152	3
153	45
154	53
155	129
156	36
157	36
158	8
159	10
160	22
161	10
162	14
163	50
164	24
165	26
166	4
167	7
169	54
170	50
171	19
172	7
175	22
176	7
177	57
178	115
179	30
180	19
181	17
182	36
183	124
184	42
185	44
186	78
187	19
188	7
189	11
190	9
191	5
192	3
193	26
194	7
195	32
196	2
197	104
198	38
199	113
200	30
201	47
202	13
203	9
207	35
208	2
209	16
210	4
211	296
212	70
213	289
214	56
215	83
216	8
217	6
218	9
219	11
221	11
222	1
223	11
225	7
226	1
227	18
228	7
229	337
230	63
231	120
232	17
233	5
235	2
238	5
239	3
241	7
242	9
244	5
247	7
249	4
255	2
256	98
257	377
258	95
259	152
260	45
261	11
262	5
263	3
264	5
268	22
269	7
270	5
276	3
277	3
281	16
282	12
286	8
296	25
297	6
298	10
310	3
311	835
312	214
313	357
314	73
315	20
