Mass Spectrum: 4-Methyl-bicyclo[3.2.1]octan-2-one
Formula: C9H14O
CAS: 106819-27-6
Molecular weight: 138
m/z	intensity
26	8
27	137
28	14
29	65
30	1
31	2
33	1
34	3
36	2
37	3
38	14
39	208
40	55
41	328
42	63
43	40
44	5
45	7
46	2
47	1
49	2
50	10
51	29
52	16
53	89
54	56
55	248
56	21
57	17
62	3
63	9
64	2
65	48
66	128
67	999
68	250
69	902
70	61
71	100
72	24
73	2
74	1
77	36
78	18
79	150
80	23
81	95
82	23
83	19
84	6
85	2
91	26
92	16
93	49
94	792
95	144
96	61
97	117
98	9
105	42
106	4
107	15
108	3
109	96
110	23
111	20
112	2
115	2
119	3
120	25
121	4
122	1
123	95
124	11
125	1
137	43
138	376
139	43
140	3
