Mass Spectrum: (1R,2R,8aS)-2,4,4,7a-Tetramethyl-1-(3-oxobutyl)-trans-hydrindan-2-carboxylic acid
Formula: C18H30O3
CAS: 106933-16-8
Molecular weight: 294
m/z	intensity
40	100
41	850
42	260
43	999
44	90
45	160
51	70
53	390
54	80
55	670
56	150
57	110
58	190
59	60
63	50
65	150
66	50
67	460
68	140
69	320
71	70
77	260
78	70
79	320
80	60
81	290
82	840
83	50
91	370
92	60
93	210
95	220
105	180
107	200
108	70
109	170
119	120
121	120
123	60
135	70
137	80
147	40
163	50
175	40
177	60
191	210
221	50
233	50
236	70
248	40
261	30
276	30
294	10
