Mass Spectrum: 3-Phenyl-5-benzoylmethyl-2-pyrazoline-1-carbothioamide
Formula: C18H17N3OS
CAS: 106916-03-4
Molecular weight: 323
m/z	intensity
51	60
77	710
91	180
105	680
115	999
144	390
145	940
159	100
178	70
204	770
218	150
233	40
271	30
290	30
305	10
323	120
