Mass Spectrum: 5-(N,N-Diacetylamino)-2-(methylthio)-4-(2,3,4-tri-O-acetyl-.beta.-d-xylopyranosylamino)-1H-pyrimidin-6-one
Formula: C20H26N4O10S
CAS: 106979-82-2
Molecular weight: 514
m/z	intensity
69	700
97	999
139	550
157	390
172	360
173	240
183	420
196	170
199	150
200	120
201	210
214	330
215	80
225	330
238	50
243	630
251	110
256	60
259	50
267	70
293	200
298	20
311	50
335	80
353	230
370	20
395	20
412	10
430	30
455	50
472	250
514	50
