Mass Spectrum: Oct-5-en-2-ol, 8-(1,4,4a,5,6,7,8,8a-octahydro-2, 5, 5, 8a-tetramethylnaphth-1-yl)-6-methyl-
Formula: C23H40O
CAS: 106932-90-5
Molecular weight: 332
m/z	intensity
33	1
34	2
36	0
37	1
38	3
39	140
40	65
41	999
42	74
43	579
44	36
45	459
46	10
47	1
50	4
51	20
52	15
53	245
54	41
55	902
56	85
57	211
58	32
59	14
60	1
61	1
62	1
63	4
64	3
65	104
66	37
67	762
68	190
69	974
70	110
71	135
72	9
73	4
74	2
75	1
76	2
77	226
78	47
79	503
80	130
81	999
82	281
83	214
84	96
85	121
86	9
87	6
88	2
89	2
90	1
91	372
92	97
93	643
94	189
95	871
96	121
97	165
98	18
99	20
100	3
101	5
102	3
103	22
104	13
105	254
106	83
107	434
108	240
109	852
110	103
111	101
112	18
113	31
114	4
115	25
116	11
117	45
118	17
119	202
120	114
121	421
122	261
123	434
124	94
125	101
126	12
127	9
128	13
129	17
130	7
131	37
132	14
133	158
134	89
135	422
136	201
137	579
138	90
139	18
140	17
141	8
142	4
143	7
144	4
145	33
146	11
147	105
148	94
149	405
150	141
151	44
152	8
153	11
154	3
155	2
156	1
157	4
158	2
159	27
160	9
161	172
162	53
163	175
164	31
165	15
166	4
167	4
168	1
169	1
171	3
172	1
173	25
174	7
175	86
176	42
177	181
178	33
179	13
180	3
181	2
183	0
185	2
186	0
187	19
188	8
189	143
190	60
191	197
192	81
193	23
194	5
195	1
196	1
199	1
201	15
202	10
203	72
204	485
205	249
206	44
207	8
208	2
209	1
213	0
215	11
216	4
217	36
218	10
219	5
220	2
221	4
222	1
227	1
229	34
230	11
231	24
232	36
233	8
234	1
235	8
236	1
243	25
244	14
245	167
246	50
247	32
248	6
249	2
250	0
257	27
258	7
259	14
260	3
261	4
262	3
263	2
264	0
271	3
272	13
273	9
274	5
275	28
276	7
277	1
285	1
287	1
288	2
289	3
290	7
291	1
299	66
300	16
301	2
303	1
304	1
314	7
315	4
316	1
317	233
318	56
319	7
332	68
333	18
334	2
