Mass Spectrum: Spiro[bicyclo[2.2.2]oct-5-ene-2,1'-cyclopropane]
Formula: C10H14
CAS: 106988-55-0
Molecular weight: 134
m/z	intensity
38	9
39	161
40	22
41	92
50	26
51	99
52	58
53	55
54	10
55	13
56	9
57	9
58	10
62	5
63	31
64	12
65	83
66	49
67	61
68	6
75	7
76	7
77	207
78	453
79	371
80	999
81	65
89	9
91	608
92	286
93	118
94	9
102	6
103	37
104	20
105	176
106	138
107	13
115	12
117	14
119	154
120	16
133	9
134	171
135	18
