Mass Spectrum: Ethanone, 1-[3-[[5-(3,3-dimethyloxiranyl)-3-methyl-2-pentenyl]oxy]phenyl]-, (E)-.+/-.-
Formula: C18H24O3
CAS: 106929-49-1
Molecular weight: 288
m/z	intensity
41	300
43	999
53	110
55	210
59	310
67	210
68	120
69	190
71	800
79	260
81	750
82	110
85	400
93	220
94	130
95	280
121	270
135	210
136	120
153	720
154	160
288	4
