Mass Spectrum: 2-[p-Chlorophenyl]-4-[[3-[dimethylamino]propyl]amino]-6-[trichloromethyl]-S-triazine
Formula: C15H17Cl4N5
CAS: 106950-58-7
Molecular weight: 407
m/z	intensity
41	23
42	94
43	31
44	45
45	10
46	3
47	1
49	3
50	4
51	5
52	1
53	3
54	5
55	40
56	22
57	17
58	760
59	29
62	1
63	1
64	0
67	2
68	11
69	24
70	24
71	15
72	40
73	4
74	2
75	13
76	6
77	1
80	2
81	4
82	14
83	23
84	999
85	72
86	5
87	2
88	1
89	1
92	0
94	0
98	1
99	2
100	2
101	2
102	15
103	4
108	11
109	6
110	9
111	16
112	3
113	5
114	2
115	1
116	3
117	4
118	1
119	3
121	1
122	1
123	2
124	2
125	1
129	1
134	5
135	1
136	4
137	15
138	49
139	9
140	17
141	3
142	1
149	2
150	2
151	2
152	1
162	0
163	10
164	2
165	4
172	0
175	1
176	2
177	1
178	2
179	0
185	1
187	1
190	0
204	4
205	1
206	2
216	0
253	0
272	2
274	1
279	0
284	0
287	2
288	2
289	2
290	2
291	2
292	1
293	2
295	1
299	2
300	58
301	11
302	58
303	10
304	19
305	3
306	2
313	1
314	7
315	2
316	7
317	2
318	2
322	0
324	1
326	4
327	2
328	12
329	5
330	9
331	4
332	3
333	1
334	1
335	5
336	2
337	5
338	2
339	1
349	1
363	2
365	2
367	0
369	3
371	59
372	5
373	57
374	10
375	17
376	3
377	2
387	0
389	1
390	0
392	1
407	20
408	3
409	25
410	2
411	12
412	2
413	0
