Mass Spectrum: Butanediamide, 2,3-dihydroxy-N,N'-bis(4-methylphenyl)-, (R,R)-(+)-
Formula: C18H20N2O4
CAS: 106942-29-4
Molecular weight: 328
m/z	intensity
51	36
52	25
53	41
60	23
61	32
65	51
77	52
78	24
79	61
91	98
92	23
93	48
94	21
106	334
107	999
108	167
134	200
135	38
165	52
166	6
178	21
179	2
194	174
195	23
328	134
329	23
