Mass Spectrum: Oxirane, 3-[5-(4-azidophenoxy)-3-methyl-3-pentenyl]-2,2-dimethyl-, (E)-.+/-.-
Formula: C16H21N3O2
CAS: 106929-45-7
Molecular weight: 287
m/z	intensity
39	110
41	300
43	999
53	110
55	160
59	220
67	160
69	110
71	850
79	150
81	750
85	200
93	120
95	150
107	370
135	140
153	400
209	2
287	9
