Mass Spectrum: 4-(Pentyloxy)phthalonitrile
Formula: C13H14N2O
CAS: 106943-83-3
Molecular weight: 214
m/z	intensity
1	0
15	3
26	5
27	117
28	23
29	187
30	4
31	1
37	7
38	8
39	68
40	13
41	258
42	133
43	999
44	45
45	1
50	8
51	7
52	7
53	11
54	4
55	171
56	8
57	1
61	2
62	10
63	12
64	18
65	6
66	1
67	3
68	1
69	18
70	416
71	447
72	23
74	2
75	10
76	15
77	3
78	2
87	3
88	10
89	14
90	4
99	3
100	40
101	9
102	9
103	1
114	1
115	12
116	33
117	5
118	3
126	1
127	66
128	9
129	14
130	2
141	1
142	2
143	3
144	138
145	225
146	20
147	1
157	28
158	3
171	2
185	1
199	1
214	299
215	109
216	13
217	1
