Mass Spectrum: Oxirane, 3-[5-(4-azido-2-nitrophenoxy)-3-methyl-3-pentenyl]-2,2-dimethyl-, (E)-.+/-.-
Formula: C16H20N4O4
CAS: 106929-47-9
Molecular weight: 332
m/z	intensity
41	310
43	990
53	120
55	170
59	250
67	180
69	160
71	999
79	160
81	850
85	300
93	180
95	210
135	220
152	110
153	990
221	2
245	2
261	3
263	2
304	5
