Mass Spectrum: 1,5-Methano-1H-indene-1,4-diol, octahydro-, (1.alpha.,3a.beta.,4.beta.,5.beta.,7a.beta.)-
Formula: C10H16O2
CAS: 106988-64-1
Molecular weight: 168
m/z	intensity
39	315
40	73
41	508
42	94
43	394
44	30
45	19
50	7
51	62
52	35
53	222
54	92
55	580
56	70
57	222
58	41
59	7
60	6
61	14
63	12
65	113
66	108
67	364
68	122
69	149
70	110
71	265
72	77
73	10
77	255
78	131
79	784
80	246
81	217
82	155
83	621
84	73
85	28
86	62
91	376
92	128
93	493
94	556
95	580
96	386
97	106
98	21
99	55
103	18
104	35
105	54
106	999
107	367
108	533
109	197
110	87
111	64
112	25
113	22
115	6
117	196
118	17
119	19
121	212
122	265
123	64
124	12
125	26
131	23
132	169
133	28
135	135
136	10
137	6
139	21
140	19
149	42
150	968
151	108
168	68
169	5
