Mass Spectrum: 5,8-Ethano-1H-[1,2,4]triazolo[1,2-a]pyridazine-1,3(2H)-dione, 5,8-dihydro-9-(1-hydroxy-1-methylethyl)-5-methyl-2-phenyl-, [5S-(5.alpha.,8.alpha.,9R*)]-
Formula: C18H21N3O3
CAS: 106929-41-3
Molecular weight: 327
m/z	intensity
43	140
59	999
77	120
79	120
91	120
93	220
94	380
119	180
133	450
177	610
241	270
242	90
309	180
327	130
328	27
