Mass Spectrum: Bicyclo[4.1.0]heptan-3-one, 7,7-dimethyl-4-methylene-, (1R)-
Formula: C10H14O
CAS: 106974-32-7
Molecular weight: 150
m/z	intensity
40	970
41	880
43	260
53	500
67	440
68	620
77	420
79	999
91	730
93	300
107	830
108	820
135	810
150	810
151	89
