Mass Spectrum: Hydroperoxide, 1-methyl-1-(5-methyl-2,4-cyclohexadien-1-yl)ethyl-, (S)-
Formula: C10H16O2
CAS: 106929-39-9
Molecular weight: 168
m/z	intensity
39	230
43	999
58	230
59	190
65	140
91	850
92	500
93	250
109	80
119	100
135	120
150	300
151	180
168	60
169	7
