Mass Spectrum: 3,7-Decadien-2-one, 10-(3,3-dimethyloxiranyl)-4,8-dimethyl-, (E,E)-.+/-.-
Formula: C16H26O2
CAS: 106929-52-6
Molecular weight: 250
m/z	intensity
41	290
43	920
55	210
57	110
59	280
67	200
69	250
71	700
72	110
79	190
81	999
83	600
85	720
93	270
95	370
98	700
107	250
109	210
111	150
121	420
123	120
135	170
207	60
217	15
232	18
235	9
250	7
