Mass Spectrum: Benzoic acid, 5-azido-2-nitro-, 5-(3,3-dimethyloxiranyl)-3-methyl-2-pentenyl ester, (E)-.+/-.-
Formula: C17H20N4O5
CAS: 106929-51-5
Molecular weight: 360
m/z	intensity
41	320
43	480
55	150
59	360
67	160
71	990
72	150
79	280
81	720
82	150
85	999
89	300
90	130
93	230
94	240
95	110
109	200
134	350
152	100
163	130
191	100
207	5
332	0
