Mass Spectrum: Phosphine, dicyclohexyl[(tetrahydro-2-furanyl)methyl]-
Formula: C17H31OP
CAS: 106948-80-5
Molecular weight: 282
m/z	intensity
26	6
27	68
28	21
29	82
30	3
31	11
35	13
39	92
40	2
41	473
42	30
43	110
44	6
45	27
46	4
47	17
48	3
49	73
50	3
51	14
52	2
53	57
54	31
55	403
56	29
57	22
58	8
59	26
60	6
61	24
62	13
63	24
64	5
65	8
66	14
67	70
68	12
70	1
71	72
72	12
73	53
74	25
75	38
76	12
77	35
78	6
79	68
80	22
81	215
82	156
83	423
84	53
86	7
87	118
88	44
89	33
90	17
91	17
93	0
95	10
96	0
97	13
98	3
99	30
100	14
101	26
102	14
103	10
104	7
105	3
106	0
108	2
109	2
111	8
112	4
113	60
114	43
115	117
116	279
117	999
118	90
119	37
120	1
122	1
127	8
128	11
129	47
130	91
131	43
132	68
133	42
134	0
141	18
142	12
143	75
144	12
145	6
151	2
155	13
156	19
157	86
158	20
159	33
160	3
161	1
169	15
170	14
171	12
172	65
183	68
184	9
185	6
195	6
196	5
197	27
198	644
199	143
200	84
201	44
202	2
205	1
211	15
212	7
217	22
218	3
223	4
225	2
227	25
228	1
239	45
240	10
241	7
253	4
254	10
267	3
281	18
282	87
283	17
284	3
