Mass Spectrum: 1,4-Oxathiane, 4,4-dioxide
Formula: C4H8O3S
CAS: 107-61-9
Molecular weight: 136
m/z	intensity
13	1
14	16
15	107
16	7
25	1
26	46
27	209
28	479
29	372
30	19
31	48
32	22
33	5
34	7
35	3
38	1
39	13
40	24
41	169
42	151
43	773
44	999
45	473
46	26
47	20
48	78
49	11
50	16
51	1
53	1
54	1
55	1
57	33
58	42
59	13
60	3
61	5
62	17
63	28
64	18
65	128
66	12
67	6
69	1
70	6
71	313
72	221
73	11
74	2
75	3
76	9
77	6
78	128
79	16
80	8
81	2
91	4
92	3
93	22
94	1
95	1
104	3
106	52
107	52
108	54
109	145
110	7
111	7
135	8
136	7
137	43
138	3
139	2
