Mass Spectrum: Methyl formate
Formula: C2H4O2
CAS: 107-31-3
Molecular weight: 60
m/z	intensity
12	4
13	9
14	20
15	187
16	3
17	3
18	9
28	48
29	454
30	60
31	999
32	457
33	8
42	1
43	4
44	13
45	9
46	1
56	1
59	7
60	379
61	9
62	2
