Mass Spectrum: Butanoic acid
Formula: C4H8O2
CAS: 107-92-6
Molecular weight: 88
m/z	intensity
14	3
15	8
16	1
17	1
18	4
25	1
26	14
27	135
28	40
29	80
30	2
31	8
32	4
34	1
37	6
38	10
39	65
40	11
41	162
42	139
43	140
44	6
45	98
46	4
47	4
53	2
55	66
56	3
57	2
59	1
60	999
61	26
62	4
68	1
69	12
70	14
71	28
72	1
73	324
74	11
75	1
87	18
88	25
89	16
