Mass Spectrum: Propargyl alcohol
Formula: C3H4O
CAS: 107-19-7
Molecular weight: 56
m/z	intensity
12	5
13	4
14	3
17	2
18	7
24	13
25	37
26	73
27	170
28	179
29	139
30	20
31	19
32	1
36	16
37	71
38	108
39	232
40	9
41	2
42	1
52	9
53	63
54	11
55	999
56	34
57	1
