Mass Spectrum: Hexasiloxane, tetradecamethyl-
Formula: C14H42O5Si6
CAS: 107-52-8
Molecular weight: 458
m/z	intensity
45	26
59	23
73	999
74	83
75	36
117	17
131	24
133	23
147	613
148	100
149	48
191	26
205	14
207	53
208	11
221	926
222	215
223	118
224	18
249	16
251	19
265	27
267	217
268	57
269	37
281	375
282	106
283	67
284	13
323	33
324	11
339	45
340	15
341	10
355	296
356	106
357	70
358	18
427	10
443	182
444	82
445	56
446	18
