Mass Spectrum: Acetonitrile, hydroxy-
Formula: C2H3NO
CAS: 107-16-4
Molecular weight: 57
m/z	intensity
12	12
13	9
14	7
15	1
16	7
17	145
18	552
19	1
24	3
25	4
26	58
27	256
28	999
29	425
30	410
31	86
32	7
38	46
39	54
40	135
41	8
42	2
43	2
54	54
55	12
56	225
57	40
58	9
59	2
