Mass Spectrum: Propylamine
Formula: C3H9N
CAS: 107-10-8
Molecular weight: 59
m/z	intensity
14	1
15	9
17	1
25	1
26	9
27	35
28	74
29	17
30	999
31	15
32	1
37	2
38	3
39	16
40	5
41	49
42	25
43	17
44	11
51	2
52	4
54	3
56	9
57	2
58	21
59	92
60	4
