Mass Spectrum: Propanenitrile
Formula: C3H5N
CAS: 107-12-0
Molecular weight: 55
m/z	intensity
12	4
13	4
14	6
15	41
24	5
25	17
26	162
27	146
28	999
29	25
32	1
36	4
37	12
38	20
39	19
40	41
41	5
43	1
50	17
51	101
52	140
53	87
54	845
55	155
56	11
57	6
