Mass Spectrum: Butanimidamide
Formula: C4H10N2
CAS: 107-90-4
Molecular weight: 86
m/z	intensity
39	109
40	54
41	308
42	137
43	965
44	176
45	9
46	1
49	0
51	4
52	12
53	6
54	0
55	25
56	12
58	999
59	36
60	0
69	13
70	45
71	255
72	12
73	1
74	0
83	1
84	9
85	96
86	8
87	2
88	0
