Mass Spectrum: Cycloheptasiloxane, tetradecamethyl-
Formula: C14H42O7Si7
CAS: 107-50-6
Molecular weight: 518
m/z	intensity
26	0
27	2
29	5
31	0
34	0
36	0
39	1
40	3
42	2
43	4
45	30
46	0
47	1
51	1
53	0
55	2
56	2
57	6
58	4
59	30
60	0
61	0
66	3
67	0
70	2
71	7
72	2
73	999
74	82
75	38
77	2
78	0
81	1
82	0
83	2
84	3
85	12
87	8
95	0
97	0
103	0
104	0
105	0
117	24
118	0
119	5
131	35
132	2
133	40
134	3
143	0
145	10
146	0
147	600
148	92
149	43
150	0
161	0
170	3
177	4
189	2
191	19
192	6
193	6
205	20
207	57
208	8
209	2
221	108
222	27
223	14
224	0
235	0
237	0
249	15
250	1
251	13
252	1
253	4
265	28
266	6
267	13
268	1
279	0
280	0
281	868
282	245
283	149
284	31
285	8
295	5
297	0
311	4
313	2
314	0
323	5
324	0
325	53
326	20
327	331
328	100
329	78
330	16
331	5
332	0
339	1
340	0
341	205
342	65
343	51
344	8
345	0
355	4
356	0
369	0
381	0
383	45
384	11
385	33
386	14
387	5
388	0
399	145
400	57
401	45
402	10
403	1
413	3
415	347
416	138
417	94
418	23
419	7
471	0
473	1
474	0
487	15
488	4
489	3
502	0
503	326
504	153
505	112
506	40
507	15
508	0
