Mass Spectrum: 2-Butenal, 3-methyl-
Formula: C5H8O
CAS: 107-86-8
Molecular weight: 84
m/z	intensity
26	50
27	325
28	153
29	380
37	44
38	84
39	500
40	86
41	573
42	39
43	68
44	56
49	30
50	79
51	81
52	25
53	143
54	36
55	765
56	86
57	30
59	27
65	25
69	75
83	532
84	999
85	66
