Mass Spectrum: 2-Propen-1-ol
Formula: C3H6O
CAS: 107-18-6
Molecular weight: 58
m/z	intensity
12	1
13	3
14	7
15	16
17	3
18	10
19	2
24	3
25	16
26	91
27	233
28	151
29	252
30	153
31	412
32	7
33	1
36	7
37	35
38	51
39	278
40	93
41	58
42	11
43	45
44	1
45	1
52	2
53	12
54	2
55	51
56	8
57	999
58	229
59	11
60	2
