Mass Spectrum: 1,2-Ethanediol
Formula: C2H6O2
CAS: 107-21-1
Molecular weight: 62
m/z	intensity
14	7
15	37
17	4
18	2
19	9
25	4
26	16
27	51
28	1
29	189
30	30
31	999
32	101
33	362
34	5
41	9
42	55
43	142
44	39
45	15
56	2
60	2
61	24
62	54
63	2
