Mass Spectrum: 2-Propenenitrile
Formula: C3H3N
CAS: 107-13-1
Molecular weight: 53
m/z	intensity
12	12
13	7
14	8
24	16
25	53
26	835
27	131
28	27
32	1
36	13
37	29
38	41
39	14
40	1
50	57
51	281
52	720
53	999
54	35
