Mass Spectrum: .beta.-Alanine
Formula: C3H7NO2
CAS: 107-95-9
Molecular weight: 89
m/z	intensity
13	1
14	6
15	17
16	2
17	3
18	10
25	1
26	9
27	29
28	111
29	16
30	999
31	17
32	3
35	1
38	2
39	3
40	9
41	16
42	74
43	112
44	45
45	28
46	13
47	1
51	1
53	1
55	9
60	10
61	1
68	1
69	1
70	45
71	4
72	6
73	3
88	3
89	39
90	2
