Mass Spectrum: 2-Butene
Formula: C4H8
CAS: 107-01-7
Molecular weight: 56
m/z	intensity
14	56
15	45
16	26
26	143
27	338
28	607
29	149
32	125
37	50
38	73
39	513
40	117
41	999
42	35
49	41
50	129
51	97
52	26
53	121
54	43
55	256
56	531
57	26
