Mass Spectrum: Ethanamine, 2-bromo-
Formula: C2H6BrN
CAS: 107-09-5
Molecular weight: 123
m/z	intensity
12	1
13	1
14	8
15	40
16	3
17	1
25	2
26	11
27	47
28	77
29	8
30	999
31	14
32	1
38	3
39	4
40	13
41	24
42	85
43	78
44	40
45	1
79	47
80	146
81	48
82	147
91	1
93	4
94	1
95	3
122	4
123	21
124	4
125	19
