Mass Spectrum: Acetaldehyde, chloro-
Formula: C2H3ClO
CAS: 107-20-0
Molecular weight: 78
m/z	intensity
12	3
13	9
14	26
15	101
16	3
24	6
25	20
26	36
27	17
28	12
29	216
30	3
31	1
35	42
36	12
37	15
38	5
40	9
41	31
42	179
43	11
44	2
47	48
48	61
49	291
50	999
51	101
52	317
53	4
59	3
60	9
61	5
62	3
63	2
76	5
77	3
78	404
79	11
80	132
81	3
