Mass Spectrum: N-Methyltaurine
Formula: C3H9NO3S
CAS: 107-68-6
Molecular weight: 139
m/z	intensity
42	4
43	22
44	999
45	64
46	48
48	47
60	11
64	104
66	8
71	5
139	10
