Mass Spectrum: 2-Propenal
Formula: C3H4O
CAS: 107-02-8
Molecular weight: 56
m/z	intensity
13	22
14	52
16	28
24	42
25	184
26	728
27	954
28	530
29	564
36	70
37	180
38	150
39	104
40	22
41	20
52	38
53	107
55	718
56	999
57	41
