Mass Spectrum: Ethane, 1,2-dichloro-
Formula: C2H4Cl2
CAS: 107-06-2
Molecular weight: 98
m/z	intensity
14	7
25	25
26	100
27	203
28	61
32	15
35	46
36	18
37	15
38	6
47	25
48	30
49	202
50	14
51	66
59	8
60	40
61	127
62	999
63	139
64	330
65	31
98	82
100	52
102	9
