Mass Spectrum: Histidine, N-t-butyloxycarbonyl-4-nitro-
Formula: C11H16N4O6
CAS: 107089-39-4
Molecular weight: 300
m/z	intensity
41	133
42	8
43	6
44	103
45	2
46	1
48	4
49	24
50	71
51	72
52	44
53	113
54	83
55	355
56	999
57	549
58	37
59	71
60	8
62	6
63	5
64	6
65	10
66	6
67	13
68	14
69	37
70	14
71	10
72	1
73	11
74	71
75	4
76	4
77	26
78	75
79	13
80	26
81	58
82	24
83	24
84	11
85	8
86	5
87	2
90	2
91	10
92	2
93	6
94	11
95	17
96	14
97	21
98	8
99	3
101	1
105	7
106	56
107	18
108	17
109	29
110	29
111	79
112	11
113	1
118	1
120	11
121	39
122	23
123	10
124	57
125	8
126	17
127	367
128	20
129	4
130	57
131	5
135	4
136	4
137	38
138	49
139	32
140	6
149	6
151	2
153	3
154	16
155	209
156	16
164	8
165	10
166	10
167	7
168	4
180	4
181	24
182	16
183	29
184	4
198	13
199	29
200	7
201	14
208	13
210	1
211	9
212	2
224	4
226	38
227	113
228	12
230	8
244	45
245	9
254	7
255	16
256	7
272	1
282	2
283	4
300	16
301	1
