Mass Spectrum: Bicyclo[2.2.1]heptan-2-ol, 2-(1-cyclopenten-1-yl)-
Formula: C12H18O
CAS: 107082-01-9
Molecular weight: 178
m/z	intensity
39	999
41	880
43	130
51	140
53	200
55	210
65	310
66	290
67	750
68	100
77	270
79	230
91	580
93	110
95	540
104	130
110	160
111	130
115	170
117	360
131	470
132	370
160	180
178	60
179	8
