Mass Spectrum: Propiolonitrile
Formula: C3HN
CAS: 1070-71-9
Molecular weight: 51
m/z	intensity
12	41
13	8
14	6
16	0
17	0
18	0
24	65
25	79
26	34
27	6
28	1
32	0
36	34
37	31
38	66
39	8
40	0
46	0
47	0
50	264
51	999
52	34
53	0
