Mass Spectrum: 1-Aza-2-sila-5-boracyclopent-3-ene, 4,5-diethyl-2,2,3-trimethyl-1-(trimethylstannyl)-
Formula: C12H28BNSiSn
CAS: 107082-99-5
Molecular weight: 345
m/z	intensity
26	38
27	44
28	72
29	22
39	25
41	35
43	116
45	23
53	40
54	110
55	25
56	24
58	38
59	52
67	66
68	149
69	40
70	71
73	27
78	17
80	37
81	42
82	117
83	148
84	423
85	43
86	21
92	26
94	20
96	23
97	213
98	569
99	60
100	23
107	17
108	40
109	33
110	100
111	269
112	999
113	111
114	39
118	20
119	20
120	27
121	31
122	72
123	19
124	27
131	152
132	92
133	246
134	92
135	327
136	64
137	51
138	35
139	60
145	29
146	53
147	64
148	75
149	90
150	85
151	42
152	34
154	17
155	19
157	35
158	26
159	40
160	28
161	92
162	53
163	140
164	67
165	185
166	70
167	33
169	49
170	22
171	23
172	23
173	22
174	22
175	16
177	20
178	15
179	22
180	29
181	17
183	20
184	15
185	33
186	19
187	44
188	16
189	28
191	15
192	16
194	23
199	17
200	21
201	31
202	26
203	38
204	21
207	15
213	16
214	31
215	37
216	47
217	39
218	49
226	20
227	15
228	31
229	89
230	264
231	231
232	419
233	273
234	482
235	81
236	101
237	29
238	88
243	21
244	66
245	62
246	115
247	72
248	114
249	23
250	25
252	22
258	26
259	22
260	40
261	26
262	48
298	33
299	31
300	51
301	38
302	56
311	20
312	74
313	72
314	125
315	91
316	164
317	34
318	31
320	29
322	26
324	22
325	114
326	462
327	453
328	794
329	596
330	936
331	201
332	170
333	62
334	154
335	30
340	25
341	104
342	98
343	165
344	111
345	189
346	48
347	34
349	42
