Mass Spectrum: Bicyclo[2.2.1]heptan-2-ol, 2-(2-cyclopenten-1-yl)-
Formula: C12H18O
CAS: 107081-99-2
Molecular weight: 178
m/z	intensity
39	710
41	810
43	140
53	130
55	400
65	180
66	180
67	960
77	130
83	150
91	180
93	350
111	999
