Mass Spectrum: 6-Methyl-4,5,6,7,8,13-hexahydrobenzo[d]thieno[2,3-g]azecin-13-one
Formula: C16H17NOS
CAS: 107042-05-7
Molecular weight: 271
m/z	intensity
109	999
118	150
152	270
184	220
185	370
199	200
200	150
213	120
227	430
228	140
271	260
