Mass Spectrum: 2,4-Pentadienoic acid, 5-(1-hydroxy-6,6-dimethyl-2-methylene-3-cyclohexen-1-yl)-3-methyl-, methyl ester, (Z,E)-.+/-.-
Formula: C16H22O3
CAS: 107021-90-9
Molecular weight: 262
m/z	intensity
77	230
79	230
91	350
93	310
95	190
105	190
107	190
121	180
125	999
131	150
136	160
145	180
159	280
169	130
187	200
189	100
197	200
202	100
215	110
230	130
244	40
262	40
