Mass Spectrum: Aluminum, dichloro(4,5-diethyl-2,2,3-trimethyl-1-aza-2-sila-5-boracyclopent-3-enato-N1)[1,1'-oxybis[ethane]]-, (t-4)-
Formula: C13H29AlBCl2NOSi
CAS: 107098-52-2
Molecular weight: 351
m/z	intensity
26	148
27	563
28	70
29	737
30	26
31	760
33	8
35	26
36	43
37	10
38	17
39	74
40	62
41	156
42	34
43	285
44	36
45	311
46	14
47	6
49	5
50	10
51	23
52	20
53	56
54	144
55	62
56	47
57	33
58	57
59	542
60	24
61	10
62	35
63	22
64	16
65	20
66	17
67	188
68	347
69	146
70	102
71	44
72	19
73	97
74	272
75	15
76	5
77	29
78	36
79	27
80	76
81	113
82	207
83	425
84	456
85	73
86	49
87	20
88	14
89	7
90	16
91	42
92	65
93	33
94	41
95	51
96	57
97	299
98	229
99	128
100	17
101	26
102	11
103	17
104	26
105	20
106	30
107	27
108	75
109	78
110	190
111	723
112	999
113	122
114	37
115	82
116	17
117	47
118	44
119	15
120	35
121	71
122	183
123	83
124	112
125	94
126	122
127	69
128	14
129	37
130	9
131	17
132	29
133	15
134	41
135	84
136	237
137	112
138	517
139	98
140	125
141	78
142	10
143	91
144	12
145	34
146	7
147	6
148	11
149	25
150	127
151	219
152	687
153	121
154	41
155	64
156	4
157	30
158	8
159	12
160	12
161	11
162	11
163	10
164	120
165	431
166	461
167	78
168	26
169	11
170	85
171	82
172	81
173	57
174	23
175	13
176	5
178	9
179	7
180	53
181	136
182	47
183	6
184	9
185	5
186	9
187	6
188	13
189	12
190	23
192	5
193	7
194	8
195	7
196	9
198	11
199	8
200	13
202	9
204	5
206	15
207	8
208	26
209	11
210	12
211	6
212	11
213	13
214	42
215	16
216	23
217	5
218	11
219	13
220	24
221	10
222	21
223	6
224	11
226	14
227	4
228	13
229	16
230	41
231	13
232	22
233	100
234	321
235	130
236	219
237	44
238	60
239	11
240	5
241	7
242	25
243	10
244	16
245	8
246	8
247	204
248	754
249	239
250	619
251	138
252	118
253	14
254	8
257	20
258	52
259	14
260	20
261	134
262	515
263	175
264	350
265	74
266	126
267	10
268	13
272	5
273	6
276	81
277	285
278	88
279	177
280	45
281	41
282	12
292	5
293	6
294	12
295	5
300	4
301	6
308	7
313	10
314	7
315	13
316	15
317	7
318	11
319	4
320	10
321	80
322	314
323	129
324	225
325	58
326	50
327	12
334	4
335	35
336	138
337	51
338	80
339	22
340	24
341	30
342	31
343	13
349	6
350	28
351	132
352	46
353	105
354	27
355	27
356	9
357	11
