Mass Spectrum: Milbemycin b, 13-chloro-5-demethoxy-28-deoxy-6,28-epoxy-5-(hydroxyimino)-25-(1-methylethyl)-, (6R,13R,25R)-
Formula: C33H46ClNO7
CAS: 107024-98-6
Molecular weight: 603
m/z	intensity
25	20
27	122
28	59
29	242
30	17
31	33
33	2
34	3
35	23
36	208
37	9
38	75
39	116
40	33
41	719
42	127
43	692
44	93
45	204
46	9
47	8
49	3
50	14
51	36
52	43
53	192
54	88
55	999
56	219
57	510
58	46
59	317
60	124
61	78
62	6
63	19
64	9
65	101
66	48
67	432
68	124
69	802
70	170
71	292
72	88
73	163
74	21
75	20
76	16
77	258
78	74
79	283
80	109
81	455
82	141
83	454
84	132
85	229
86	31
87	61
88	14
89	33
90	12
91	278
92	78
93	521
94	164
95	977
96	314
97	681
98	208
99	84
100	26
101	60
102	49
103	56
104	39
105	389
106	97
107	383
108	154
109	252
110	108
111	292
112	64
113	91
114	36
116	43
117	94
118	38
119	216
120	100
121	369
122	101
123	325
124	80
125	117
126	57
127	74
128	63
129	121
130	54
131	113
132	49
133	194
134	65
135	92
136	61
137	171
138	84
139	265
140	51
141	94
142	66
143	98
144	74
145	149
146	71
147	141
148	62
149	148
150	218
151	527
152	89
153	65
154	60
155	118
156	88
157	250
158	80
159	102
160	62
161	80
162	47
163	363
164	63
165	80
166	47
167	62
168	31
169	51
170	35
171	78
172	45
173	82
174	51
175	58
176	44
177	100
178	52
179	44
180	79
181	992
182	158
183	56
184	50
185	72
186	40
187	55
188	40
189	52
190	37
191	107
192	43
193	41
194	24
195	34
196	25
197	46
198	32
199	53
200	56
201	60
202	71
203	62
204	58
205	59
206	44
207	57
208	29
209	614
210	107
211	66
212	44
213	60
214	42
215	45
216	38
217	55
218	41
219	28
220	21
221	22
222	35
223	32
224	23
225	36
226	26
227	46
228	43
229	44
230	56
231	31
232	25
233	20
234	24
235	23
236	26
237	25
238	23
239	36
240	50
241	37
242	22
243	57
244	24
245	30
246	63
247	32
248	25
249	20
250	19
251	19
252	23
253	28
254	25
255	31
256	32
257	40
258	45
259	28
260	16
261	12
262	18
263	20
264	27
265	19
266	16
267	16
268	19
269	26
270	20
271	21
272	14
273	47
274	191
275	62
276	36
277	34
278	24
279	18
280	18
281	17
282	18
283	13
284	16
285	12
286	11
287	10
288	11
289	10
290	18
291	77
292	128
293	61
294	23
295	20
296	17
297	20
298	14
299	14
300	14
301	7
302	9
303	22
304	15
305	20
306	20
307	18
308	18
309	25
310	20
311	37
312	23
313	25
314	16
315	12
316	16
317	13
318	11
319	6
320	9
321	14
322	13
323	16
324	19
325	16
326	19
327	14
328	15
329	22
330	12
331	7
332	7
333	7
334	13
335	9
336	16
337	11
338	7
339	9
340	10
341	12
342	16
343	13
344	11
345	5
346	5
347	6
348	8
349	7
350	9
351	7
352	11
353	9
354	10
355	7
356	6
357	5
358	7
359	8
360	8
361	8
362	8
363	4
364	10
365	5
366	8
367	5
368	8
369	9
370	12
371	6
372	6
373	4
374	6
375	5
376	11
377	10
378	11
379	13
380	8
381	3
382	4
383	4
384	4
385	3
386	4
387	4
388	7
389	5
390	6
391	8
392	8
393	8
394	23
395	12
396	8
397	5
398	3
399	2
400	2
401	3
402	3
403	3
404	4
405	3
406	8
407	8
408	10
409	6
410	6
411	6
412	8
413	4
414	4
415	3
416	2
417	3
418	4
419	9
420	7
421	5
422	4
423	8
424	5
425	11
426	13
427	8
428	6
429	5
430	12
431	5
432	5
433	3
434	3
435	7
436	17
437	13
438	9
439	4
440	3
441	1
442	2
443	4
444	6
445	2
446	3
447	8
448	6
449	4
450	3
452	2
453	8
454	10
455	7
456	5
457	5
458	2
459	2
460	5
461	3
462	5
463	2
464	3
465	1
466	4
468	2
469	2
470	3
471	6
472	14
473	7
474	8
475	3
476	2
477	2
478	6
479	4
480	3
483	2
484	6
485	2
486	2
487	2
488	5
489	39
490	17
491	16
492	8
493	2
494	2
495	3
496	4
497	4
498	3
499	2
500	2
501	2
502	3
503	2
504	3
505	2
506	6
507	4
508	10
509	3
510	3
512	1
513	4
514	9
515	8
516	6
517	3
518	2
520	3
522	2
523	1
524	5
525	2
526	11
527	4
528	3
529	1
531	47
532	28
533	44
534	19
535	8
536	3
542	9
543	4
544	9
545	3
546	2
547	1
549	12
550	22
551	23
552	12
553	13
554	4
555	2
560	10
561	3
562	3
563	1
567	18
568	24
569	23
570	15
571	9
572	4
573	1
585	70
586	37
587	36
588	15
589	6
590	1
595	1
600	2
603	202
604	81
605	87
606	30
607	6
608	1
613	0
