Mass Spectrum: 2H-Cyclohepta[b]furan-2,8-dione, octahydro-3-methyl-, (3.beta.,3a.alpha.,8a.alpha.)-
Formula: C10H14O3
CAS: 107115-60-6
Molecular weight: 182
m/z	intensity
55	800
56	270
67	330
68	400
69	310
70	230
81	999
82	480
97	580
111	590
112	970
125	360
154	820
182	210
183	23
