Mass Spectrum: Anthiaergosta-5,7,9,14-tetraene
Formula: C28H42
CAS: 107116-79-0
Molecular weight: 378
m/z	intensity
41	325
42	83
43	999
44	34
45	2
47	5
48	0
49	22
50	2
51	10
53	24
54	1
55	188
56	25
57	100
58	4
59	4
60	0
63	1
65	7
66	2
67	29
68	3
69	50
70	9
71	88
72	3
73	0
76	0
77	13
78	3
79	16
80	2
81	22
82	3
83	18
84	10
85	11
86	5
88	0
89	3
91	18
92	2
93	8
94	1
95	15
96	3
97	10
98	1
99	0
101	1
102	1
103	3
104	2
105	13
106	2
107	5
108	3
109	8
110	2
111	4
113	0
114	0
115	11
116	3
117	5
118	2
119	4
120	0
121	2
122	0
123	2
124	1
125	2
127	5
128	12
129	13
130	2
131	6
132	0
133	2
135	0
137	0
139	2
141	18
142	11
143	17
144	5
145	4
149	0
151	2
152	12
153	18
154	9
155	27
156	7
157	12
158	3
159	38
160	5
161	0
163	1
165	47
166	18
167	28
168	15
169	23
170	5
171	3
172	1
173	2
176	1
177	1
178	31
179	52
180	17
181	43
182	13
183	24
184	8
185	33
186	5
187	0
189	9
190	9
191	26
192	24
193	49
194	23
195	47
196	25
197	33
198	63
199	25
200	3
201	0
202	9
203	15
204	9
205	21
206	15
207	36
208	18
209	73
210	26
211	54
212	19
213	8
215	6
216	2
217	6
218	4
219	16
220	10
221	31
222	19
223	38
224	27
225	30
226	17
227	3
228	4
229	2
230	0
231	2
232	2
233	9
234	8
235	36
236	28
237	180
238	43
239	7
240	1
246	0
247	4
248	4
249	21
250	54
251	323
252	100
253	19
254	2
261	1
262	1
263	15
264	13
265	11
266	3
267	3
277	9
278	2
279	30
280	11
281	3
291	1
292	1
293	4
294	1
305	0
307	5
308	1
319	0
321	0
335	3
336	2
349	0
351	0
363	42
364	12
365	1
376	1
377	0
378	816
379	255
380	45
381	4
