Mass Spectrum: 2H-Cyclohepta[b]furan-3-carboxylic acid, octahydro-2,8-dioxo-, ethyl ester, (3.alpha.,3a.alpha.,8a.alpha.)-
Formula: C12H16O5
CAS: 107115-50-4
Molecular weight: 240
m/z	intensity
18	410
29	430
55	370
67	220
68	230
80	390
81	470
93	270
94	330
95	320
97	230
98	999
99	260
109	270
114	250
127	330
137	390
138	720
139	560
140	390
153	230
166	670
170	350
176	790
194	660
195	440
240	390
241	52
