Mass Spectrum: 2H-Cyclohepta[b]furan-2,8-dione, octahydro-, (3a.alpha.,8a.alpha.)-
Formula: C9H12O3
CAS: 107115-52-6
Molecular weight: 168
m/z	intensity
41	220
55	900
67	550
68	520
69	260
70	250
81	580
83	300
84	420
98	999
111	590
140	700
168	320
169	32
