Mass Spectrum: 1-Hydroxymethyl-7,7-dimethylbicyclo[2.2.1]heptan-2-one
Formula: C10H16O2
CAS: 107243-99-2
Molecular weight: 168
m/z	intensity
25	0
26	7
27	93
28	44
29	107
30	3
31	52
32	3
38	3
39	138
40	37
41	350
42	37
43	151
44	8
45	8
46	0
47	1
48	0
49	0
50	5
51	27
52	19
53	139
54	26
55	201
56	24
57	102
58	10
59	11
60	3
61	4
62	1
63	7
64	3
65	50
66	31
67	291
68	80
69	169
70	100
71	53
72	10
73	8
74	1
75	2
76	1
77	103
78	24
79	282
80	46
81	363
82	92
83	63
84	26
85	348
86	18
87	2
88	2
89	1
90	1
91	108
92	18
93	260
94	62
95	957
96	163
97	422
98	47
99	62
100	6
101	0
102	1
103	4
104	2
105	26
106	80
107	219
108	999
109	464
110	44
111	54
112	18
113	4
114	0
115	3
116	0
117	7
118	0
119	8
120	3
121	39
122	35
123	48
124	63
125	168
126	37
127	6
128	2
129	1
130	3
131	1
132	4
133	5
134	1
135	67
136	7
137	87
138	19
139	39
140	8
141	1
142	0
143	8
144	1
148	0
149	4
150	37
151	9
152	2
153	452
154	46
155	4
166	0
167	3
168	179
169	24
170	3
