Mass Spectrum: 3,5-Dichloro-N-fluoropyridinium trifluoromethanesulfonate
Formula: C6H3Cl2F4NO3S
CAS: 107264-06-2
Molecular weight: 315
m/z	intensity
15	3
16	3
20	94
25	4
26	8
27	15
28	1
30	2
31	22
32	8
33	2
35	9
36	87
37	72
38	42
39	11
40	3
41	15
42	4
43	13
44	42
45	2
46	3
47	46
48	93
49	48
50	139
51	32
52	13
53	12
54	6
55	19
56	11
57	14
59	3
60	39
61	22
62	36
63	25
64	286
65	83
66	45
67	21
68	42
69	999
70	19
71	28
72	119
73	80
74	113
75	65
76	65
77	8
78	8
79	8
80	7
81	36
82	9
83	22
84	37
85	171
86	28
87	33
88	7
89	3
90	4
91	10
92	7
93	9
94	26
95	20
96	53
97	10
98	32
99	25
100	56
101	12
102	23
103	53
104	9
105	17
106	9
107	152
108	37
109	99
110	116
111	33
112	150
113	15
114	46
115	5
116	2
117	3
118	6
119	10
120	24
121	9
122	10
123	4
124	3
125	4
126	2
127	14
128	21
129	18
130	296
131	43
132	127
133	26
134	449
135	123
136	283
137	76
138	72
139	15
140	16
141	5
142	4
143	5
144	2
145	4
146	190
147	300
148	99
149	151
150	26
151	24
152	3
153	4
154	2
155	2
156	4
157	2
158	3
160	2
161	2
162	73
163	154
164	55
165	528
166	43
167	288
168	55
169	48
170	14
171	2
172	3
173	2
174	2
175	2
176	9
177	2
178	5
179	2
180	8
181	90
182	5
183	66
184	13
185	25
186	13
187	10
188	11
189	3
190	7
191	2
192	2
193	2
194	2
195	23
196	78
197	7
198	26
199	3
202	2
203	549
204	32
205	350
206	20
207	54
208	3
209	4
210	6
211	6
212	4
213	2
215	3
217	2
220	2
221	2
222	5
223	2
224	4
225	2
226	3
227	2
228	3
229	2
230	2
231	193
232	13
233	123
234	8
235	18
236	2
238	3
239	2
240	3
241	2
245	2
247	3
248	2
249	2
255	2
256	2
257	19
258	4
259	16
260	3
261	4
273	31
274	5
275	28
276	5
277	12
278	3
279	4
291	5
292	8
293	6
294	10
295	432
296	50
297	261
298	19
299	35
300	3
301	2
