Mass Spectrum: 3-(4'-Methyl)benzoyl-.alpha.-methylbenzeneacetic acid
Formula: C17H16O3
CAS: 107257-20-5
Molecular weight: 268
m/z	intensity
39	61
43	38
51	40
63	46
65	236
77	164
78	55
89	70
91	657
92	46
103	183
104	60
112	23
119	999
120	115
121	13
131	60
132	14
149	24
152	27
165	55
166	11
167	10
177	391
178	69
179	24
193	16
195	369
196	45
207	27
208	38
209	8
223	408
224	106
225	18
239	9
253	27
254	4
268	681
269	133
