Mass Spectrum: 2-Hexyldecyl propionate
Formula: C19H38O2
CAS: 1072781-99-7
Molecular weight: 298
m/z	intensity
26	3
27	44
28	16
29	212
30	5
31	6
38	1
39	29
40	8
41	243
42	56
43	305
44	11
45	2
51	1
52	1
53	18
54	40
55	311
56	350
57	999
58	37
59	3
65	5
66	5
67	64
68	63
69	310
70	219
71	225
72	22
73	5
74	11
75	96
76	3
77	4
78	1
79	10
80	4
81	47
82	72
83	290
84	142
85	147
86	12
87	19
88	69
89	8
90	1
91	2
93	2
94	1
95	23
96	51
97	229
98	134
99	39
100	5
107	1
108	1
109	9
110	61
111	272
112	90
113	23
114	5
115	1
122	1
123	4
124	18
125	62
126	109
127	43
128	7
129	1
137	3
138	29
139	98
140	40
141	12
142	2
149	1
151	1
152	8
153	14
154	53
155	24
156	5
157	1
165	1
166	3
167	8
168	8
169	5
170	1
171	1
180	2
181	5
182	5
183	2
184	1
185	3
194	1
195	5
196	24
197	4
198	1
199	1
208	1
209	5
210	2
211	1
213	2
214	5
215	1
222	1
223	10
224	44
225	10
226	1
227	1
233	1
237	3
238	1
241	2
242	3
251	3
252	1
267	1
269	10
270	2
280	1
