Mass Spectrum: 11.alpha.-Hydroxysolasodine
Formula: C27H43NO3
CAS: 107204-60-4
Molecular weight: 429
m/z	intensity
41	110
42	40
43	156
44	37
45	13
49	1
51	1
53	38
55	198
57	136
58	19
59	3
65	11
67	70
68	44
69	59
70	32
71	16
72	3
73	8
77	33
79	95
80	7
81	76
82	15
83	31
84	19
85	6
86	7
91	90
93	68
94	7
95	62
96	29
97	13
98	61
99	7
103	8
105	87
106	16
107	69
108	31
109	31
110	28
111	44
113	575
114	999
115	74
117	39
118	7
119	34
120	16
121	31
122	19
123	15
124	63
125	84
126	19
127	11
128	8
129	19
130	3
131	44
132	3
133	30
134	15
135	13
136	12
138	610
139	87
140	8
141	14
142	11
143	27
145	52
146	11
147	17
148	7
149	18
150	19
152	45
153	9
154	6
155	9
156	4
157	22
158	8
159	20
160	14
161	14
162	13
163	9
164	15
166	30
167	8
168	8
169	12
170	4
171	17
172	8
173	9
174	6
175	10
176	9
177	8
178	13
179	3
180	20
181	8
183	7
184	3
185	8
186	2
187	10
190	3
192	5
193	14
194	1
195	6
197	19
198	1
200	1
204	3
208	9
209	6
211	7
212	3
213	5
215	2
225	6
230	8
234	9
239	2
241	1
248	2
251	7
265	10
269	8
283	7
286	14
287	5
298	11
299	6
371	1
373	6
384	3
386	6
400	21
401	39
402	10
412	14
413	1
414	14
428	14
429	116
430	35
431	8
