Mass Spectrum: 2-t-Butyl-6-(2-hydroxy-2-phenylethyl)[1,3]dioxin-4-one
Formula: C16H20O4
CAS: 107289-27-0
Molecular weight: 276
m/z	intensity
26	5
27	95
28	7
29	125
31	8
37	4
38	9
39	105
40	17
41	196
42	33
43	126
44	4
45	11
50	34
51	103
52	27
53	24
55	57
56	33
57	263
58	13
62	13
65	10
67	47
68	6
69	558
70	17
71	50
72	4
74	9
75	12
76	13
77	392
78	88
79	389
80	24
83	5
84	867
85	263
86	130
87	55
89	8
90	3
91	23
102	19
103	49
104	152
105	999
106	181
107	661
108	48
109	3
110	8
112	13
113	48
115	11
116	12
120	46
121	8
127	6
128	14
131	322
132	30
133	2
142	4
144	47
145	37
146	13
147	12
148	3
149	6
152	3
155	8
161	40
162	50
163	4
170	850
171	84
172	87
173	172
174	21
189	10
190	71
191	24
