Mass Spectrum: 1,3-Dioxan-4-one, 2-(1,1-dimethylethyl)-5,6-dimethyl-5-(phenylmethyl)-, [2R-(2.alpha.,5.alpha.,6.alpha.)]-
Formula: C17H24O3
CAS: 107289-16-7
Molecular weight: 276
m/z	intensity
27	58
28	22
29	124
39	85
40	14
41	191
42	17
43	114
44	8
45	70
51	32
53	40
54	11
55	81
56	11
57	165
63	19
65	107
67	28
68	55
69	34
70	12
71	121
72	13
77	40
78	39
79	16
83	160
84	38
85	21
89	25
90	13
91	999
92	132
99	94
103	33
104	20
105	57
107	46
115	80
116	49
117	150
118	76
119	165
120	16
121	16
128	28
129	68
130	35
131	823
132	93
143	13
144	26
145	907
146	657
147	93
157	13
159	13
163	87
172	208
173	806
174	116
175	26
185	28
190	697
191	109
192	11
219	123
220	17
277	20
