Mass Spectrum: 1H-Imidazole-4-carboxylic acid
Formula: C4H4N2O2
CAS: 1072-84-0
Molecular weight: 112
m/z	intensity
12	6
13	5
14	8
15	1
16	7
17	29
18	152
22	2
24	2
25	7
26	54
27	285
28	298
29	24
30	2
32	1
33	10
34	3
36	8
38	33
39	62
40	278
41	176
42	10
43	4
44	304
45	24
46	1
47	1
50	3
51	8
52	4
53	8
54	2
55	6
56	5
57	11
63	1
64	2
65	4
66	25
67	317
68	300
69	15
70	1
71	4
75	1
77	1
78	1
79	1
81	2
82	1
83	3
84	11
85	3
91	2
92	1
93	13
94	385
95	220
96	11
97	4
98	1
109	1
110	1
111	2
112	999
113	64
114	6
