Mass Spectrum: 3-Formoxy-12-ketocholanic acid
Formula: C25H38O5
CAS: 107297-30-3
Molecular weight: 418
m/z	intensity
41	818
42	78
43	850
44	502
45	271
46	110
49	73
51	110
53	267
54	135
55	999
56	55
57	225
59	148
60	195
63	50
65	75
66	16
67	554
68	138
69	592
70	21
71	163
73	115
74	17
77	295
78	28
79	739
80	157
81	989
82	94
83	274
84	62
85	116
86	42
87	26
91	428
92	69
93	413
94	150
95	488
96	140
97	163
98	32
99	70
101	67
103	42
104	35
105	408
106	132
107	490
108	266
109	514
110	82
111	62
114	15
115	110
116	30
117	107
118	75
119	180
120	59
121	622
122	210
123	310
124	140
125	74
126	17
127	119
128	38
129	112
130	149
131	230
132	36
133	202
134	89
135	340
136	85
137	114
138	34
140	128
141	60
143	74
144	14
145	124
147	243
148	56
149	349
150	54
151	108
153	19
154	18
155	60
157	71
159	130
161	205
162	33
163	142
165	22
169	35
171	75
172	134
173	76
175	90
176	83
177	70
179	17
181	79
183	16
185	55
187	76
189	88
191	71
197	17
199	34
201	16
203	75
205	48
207	32
211	16
213	108
215	104
217	34
219	97
220	32
221	32
227	17
229	141
230	35
231	577
232	126
233	217
234	51
235	14
243	56
245	15
246	17
249	92
251	39
253	84
255	54
257	95
259	47
263	16
264	107
265	50
269	15
271	78
273	47
274	56
275	15
277	257
278	36
289	18
313	66
317	18
318	59
329	17
339	35
346	32
347	28
357	66
358	32
359	32
372	114
373	17
374	178
375	44
390	47
418	342
419	83
