Mass Spectrum: 4,4-Dimethylcyclohexadienone
Formula: C8H10O
CAS: 1073-14-9
Molecular weight: 122
m/z	intensity
27	119
39	157
40	38
41	108
50	68
51	134
52	79
53	134
55	48
56	88
65	37
66	38
67	58
68	32
77	452
78	90
79	999
80	65
81	45
84	80
91	99
93	108
94	344
95	36
96	30
106	18
107	138
108	17
121	28
122	441
123	42
124	20
