Mass Spectrum: 5-Phenyl-thiazolidine
Formula: C9H11NS
CAS: 107326-19-2
Molecular weight: 165
m/z	intensity
42	211
43	999
45	155
77	243
78	132
91	243
103	133
104	154
119	10
123	143
135	210
136	132
165	221
