Mass Spectrum: .alpha.-Methyl-.alpha.-[4-methylpentyl]oxiranmethanol
Formula: C10H20O2
CAS: 107358-56-5
Molecular weight: 172
m/z	intensity
41	490
42	84
43	999
44	62
45	56
46	5
47	1
48	2
49	8
50	7
51	22
52	11
53	84
54	22
55	407
56	77
57	187
58	35
59	792
60	38
61	5
62	4
63	4
64	11
65	22
66	10
67	142
68	93
69	395
70	124
71	427
72	157
73	101
74	10
75	1
76	2
77	30
78	6
79	58
80	84
81	75
82	38
83	130
84	63
85	191
86	23
87	9
88	1
89	5
90	1
91	39
92	37
93	226
94	103
95	595
96	77
97	50
98	12
99	17
100	5
101	8
102	179
103	14
104	1
105	17
106	5
107	31
108	12
109	32
110	9
111	64
112	36
113	362
114	44
115	8
116	4
117	4
118	2
119	8
120	1
121	62
122	12
123	10
124	6
125	32
126	6
127	6
128	3
129	3
130	2
131	4
132	2
133	4
134	2
135	6
136	22
137	15
138	2
139	41
140	4
141	8
142	2
143	59
144	8
154	4
155	15
156	1
157	33
158	5
169	4
170	1
171	4
172	13
173	5
174	2
