Mass Spectrum: Stigmastan-6,22-dien, 3,5-dedihydro-
Formula: C29H46
CAS: 107304-12-1
Molecular weight: 394
m/z	intensity
41	482
43	764
44	22
45	1
47	14
48	5
49	55
50	5
51	28
52	5
53	92
55	999
56	51
57	119
58	4
62	0
63	4
65	44
66	17
67	232
68	24
69	357
70	21
71	58
72	3
75	0
77	107
78	22
79	177
80	9
81	344
82	9
83	500
84	78
85	23
86	36
88	4
89	1
91	231
92	38
93	184
94	37
95	187
96	35
97	91
98	7
99	2
102	3
103	23
104	21
105	222
106	33
107	132
108	22
109	113
110	11
111	9
112	2
113	1
115	55
116	26
117	107
118	32
119	78
120	29
121	140
122	22
123	26
124	3
125	3
127	15
128	37
129	61
130	25
131	101
132	36
133	170
134	28
135	42
136	5
137	12
138	4
139	50
140	4
141	24
142	18
143	62
144	29
145	223
146	67
147	117
148	16
149	17
150	2
151	3
152	3
153	7
154	5
155	18
156	9
157	46
158	36
159	165
160	36
161	80
162	12
163	6
164	2
165	15
166	4
167	5
168	3
169	10
170	3
171	21
172	9
173	35
174	8
175	15
176	3
177	3
178	4
179	3
181	2
182	1
183	11
184	4
185	19
186	4
187	13
188	2
189	27
190	4
191	2
192	2
193	1
195	2
196	1
197	11
198	4
199	24
200	7
201	8
202	2
203	3
205	2
207	0
209	0
211	9
212	6
213	38
214	10
215	6
216	2
217	2
223	0
225	7
226	4
227	13
228	12
229	5
237	1
239	10
240	5
241	4
242	1
243	2
245	1
253	30
254	17
255	173
256	42
257	5
267	8
268	2
269	1
272	2
273	22
274	5
275	0
281	6
282	7
283	4
284	1
285	0
295	8
296	5
297	1
309	3
310	2
351	9
352	3
365	1
379	30
380	8
381	1
393	2
394	175
395	57
396	10
397	1
