Mass Spectrum: 3,5-Dimethyl-4-[2,6-bis(methoxycarbonyl)-3-benzylamino-5-methylcyclohexa-2,4-dienyl]isoxazole
Formula: C23H26N2O5
CAS: 107378-04-1
Molecular weight: 410
m/z	intensity
59	36
65	66
77	18
91	999
106	49
174	22
222	20
242	52
278	25
301	20
310	41
319	126
351	304
379	22
410	162
