Mass Spectrum: Germanium, dibromodihexyl-
Formula: C12H26Br2Ge
CAS: 107310-69-0
Molecular weight: 402
m/z	intensity
33	0
39	100
41	382
43	999
44	15
45	0
50	3
51	5
53	21
55	112
56	53
57	107
58	3
59	0
61	0
63	0
65	2
67	6
69	14
70	4
71	3
72	2
73	3
74	4
75	3
77	5
79	6
81	8
83	56
85	331
86	12
87	4
88	2
89	6
91	2
93	0
95	0
97	2
99	4
101	6
103	5
104	0
105	1
107	0
109	0
111	1
112	0
113	2
115	3
116	1
117	1
118	0
119	0
122	0
125	1
127	2
128	1
129	2
130	1
131	1
132	0
133	0
141	0
143	0
145	0
147	0
149	13
151	31
153	44
155	34
157	10
158	2
159	3
160	1
161	0
162	0
164	0
165	0
166	0
167	0
168	0
169	0
170	0
177	0
178	1
179	2
181	4
183	4
185	1
192	0
193	0
194	1
195	1
196	1
197	1
199	1
202	0
205	1
206	1
207	2
208	1
209	2
210	1
211	2
213	0
221	0
223	0
227	0
228	1
229	1
230	2
232	8
234	19
235	12
236	19
237	21
238	21
239	18
240	15
241	8
242	1
243	1
244	0
245	0
246	0
247	0
249	0
257	0
258	1
259	1
260	1
261	2
262	1
263	1
264	0
265	0
271	1
273	5
274	5
275	3
277	8
279	3
281	0
288	0
290	0
292	0
305	0
307	0
309	1
310	0
311	1
313	10
315	34
317	60
319	86
321	97
322	24
323	78
324	21
325	49
326	6
327	9
398	0
400	1
402	2
403	0
404	2
405	1
406	0
