Mass Spectrum: Cyclopentanecarboxylic acid, 2-hydroxy-1-(2-propenyl)-, methyl ester, cis-
Formula: C10H16O3
CAS: 107364-02-3
Molecular weight: 184
m/z	intensity
26	41
27	333
28	35
29	205
30	24
31	143
33	32
37	15
38	52
39	661
40	131
41	794
42	78
43	186
44	69
45	58
50	55
51	145
52	88
53	355
54	97
55	461
56	63
57	175
58	33
59	201
60	8
61	23
62	18
63	47
64	16
65	180
66	139
67	999
68	202
69	112
70	30
71	60
72	34
73	54
74	90
75	15
76	8
77	171
78	68
79	337
80	197
81	247
82	143
83	202
84	34
85	33
86	6
87	102
88	22
89	6
90	4
91	104
92	23
93	78
94	25
95	595
96	286
97	137
98	17
99	40
100	14
101	19
102	4
103	11
104	6
105	42
106	96
107	138
108	82
109	78
110	61
111	80
112	13
113	125
114	83
115	22
119	8
121	7
122	6
123	53
124	396
125	137
126	25
127	724
128	67
129	9
133	8
134	13
135	23
136	5
137	16
138	13
139	6
140	19
141	19
142	57
143	50
144	5
149	6
151	47
152	76
153	38
154	7
155	5
156	70
157	9
163	3
165	3
166	8
167	3
169	3
184	26
185	5
