Mass Spectrum: 4-Phenyl-thiazolidine
Formula: C9H11NS
CAS: 107326-18-1
Molecular weight: 165
m/z	intensity
51	127
63	110
65	110
77	221
78	120
89	161
91	667
103	109
104	100
105	9
118	999
119	710
135	298
136	79
165	150
