Mass Spectrum: 2-Cyclohexen-1-one, 4,4-dimethyl-
Formula: C8H12O
CAS: 1073-13-8
Molecular weight: 124
m/z	intensity
26	24
27	173
28	23
29	55
30	1
37	7
38	25
39	253
40	83
41	269
42	48
43	35
44	3
50	43
51	87
52	58
53	275
54	77
55	110
56	25
57	5
58	2
60	2
61	5
62	11
63	25
64	6
65	55
66	48
67	470
68	301
69	71
70	7
71	2
72	2
73	2
74	4
75	3
76	2
77	58
78	15
79	133
80	25
81	655
82	999
83	70
84	7
94	8
95	96
96	768
97	59
98	4
107	5
108	4
109	124
110	10
111	2
123	9
124	533
125	58
126	5
