Mass Spectrum: Carbamic acid, phenyl-, (3,4,4-trimethyl-1,2-dioxetan-3-yl)methyl ester
Formula: C13H17NO4
CAS: 107323-96-6
Molecular weight: 251
m/z	intensity
37	20
38	47
39	154
40	26
41	44
42	89
43	999
44	40
45	11
49	2
50	49
51	180
52	31
53	6
54	4
55	13
56	3
57	47
58	154
59	15
61	3
62	11
63	52
64	91
65	179
66	38
67	5
69	3
73	9
74	33
75	13
76	26
77	425
78	36
79	14
80	4
83	33
87	2
88	1
89	2
90	15
91	133
92	236
93	147
94	11
103	12
104	6
105	10
106	70
107	56
108	10
117	3
118	269
119	612
120	380
121	35
122	2
128	2
130	11
131	5
132	2
133	9
137	6
150	3
151	53
152	4
175	136
176	14
193	183
194	18
195	1
219	6
251	4
