Mass Spectrum: 2H-1,2-Oxazine, 3,6-dihydro-3-methyl-
Formula: C5H9NO
CAS: 107468-64-4
Molecular weight: 99
m/z	intensity
36	0
37	12
38	27
39	182
40	35
41	203
42	279
43	63
44	17
45	1
46	5
49	2
50	14
51	20
52	26
53	175
54	74
55	47
56	72
57	46
58	21
59	3
60	3
62	2
63	3
65	24
66	26
67	528
68	285
69	38
70	45
71	4
72	1
73	6
80	24
81	13
82	17
83	4
84	999
85	52
86	2
96	0
98	44
99	219
100	14
101	0
