Mass Spectrum: 3-Picoline, 6-nitro-
Formula: C6H6N2O2
CAS: 1074-38-0
Molecular weight: 138
m/z	intensity
37	52
38	84
39	400
40	21
41	52
46	21
50	31
51	73
52	94
53	21
62	21
63	105
64	105
65	999
66	126
80	94
92	926
93	84
108	105
138	84
