Mass Spectrum: 7.alpha.-Hydroxytomatidine
Formula: C27H45NO3
CAS: 107423-40-5
Molecular weight: 431
m/z	intensity
41	91
42	29
43	92
44	25
45	10
47	13
48	5
49	68
51	23
53	19
54	21
55	142
56	23
57	42
58	18
59	2
65	8
67	69
68	33
69	65
70	38
71	15
72	2
73	7
77	21
78	2
79	62
80	14
81	68
82	26
83	35
84	66
85	9
86	41
88	7
91	67
92	14
93	71
94	22
95	59
96	34
97	22
98	57
99	6
103	2
105	53
106	23
107	62
108	41
109	42
110	54
111	74
112	21
113	570
114	999
115	74
116	7
117	13
118	8
119	33
120	42
121	55
122	34
123	22
124	63
125	102
126	21
127	5
128	2
129	8
130	2
131	20
132	7
133	24
134	15
135	18
136	14
137	13
138	843
139	131
140	18
141	6
142	3
143	17
144	3
145	27
146	7
147	27
148	14
149	28
150	19
151	14
152	79
153	25
154	7
155	5
157	11
159	20
160	7
161	17
162	16
163	21
164	28
165	9
166	44
167	9
168	8
169	2
171	9
172	2
173	11
174	9
175	21
176	11
177	8
178	23
179	8
180	26
181	10
183	2
185	6
187	9
189	6
190	2
191	2
192	26
193	6
197	2
199	6
201	3
213	2
223	2
232	9
237	2
250	10
253	7
271	20
272	6
283	7
285	7
300	22
301	20
302	5
332	6
375	5
402	32
403	43
404	10
414	2
416	5
430	8
431	43
432	17
