Mass Spectrum: Aziridine, 1-(phenylmethyl)-
Formula: C9H11N
CAS: 1074-42-6
Molecular weight: 133
m/z	intensity
27	26
28	32
40	62
41	47
42	999
43	37
50	34
51	69
56	27
63	44
65	140
77	65
78	33
89	38
91	748
92	63
104	52
105	47
132	209
133	165
134	15
