Mass Spectrum: Ethyl N-[2-(1-pyrrolidinyl)-3-butynyl]carbamate
Formula: C11H18N2O2
CAS: 107427-16-7
Molecular weight: 210
m/z	intensity
33	21
34	5
36	9
39	87
40	98
41	90
42	33
43	35
44	30
45	6
50	5
52	54
53	49
55	90
56	11
57	8
58	1
60	2
63	2
64	2
66	98
68	31
70	62
71	6
72	2
74	3
75	1
77	14
79	34
80	22
81	11
82	6
83	4
84	5
85	1
91	3
92	3
93	11
94	4
95	3
96	4
97	2
102	2
103	1
104	2
106	24
108	999
109	61
111	2
112	4
113	2
118	1
120	14
121	12
122	4
123	4
135	1
137	2
138	2
139	5
140	1
165	22
171	1
181	1
210	18
211	2
