Mass Spectrum: Isoxazole-3-carboxamide, 5-phenyl-N-(4-chlorophenyl)-
Formula: C16H11ClN2O2
CAS: 107402-55-1
Molecular weight: 298
m/z	intensity
33	28
34	8
35	1
36	18
37	24
38	44
39	102
40	126
41	15
42	6
43	20
44	79
45	5
47	0
48	1
49	11
50	107
51	228
52	38
53	5
54	1
55	3
57	3
60	1
61	14
62	52
63	135
64	68
65	26
66	6
67	13
68	73
69	12
70	4
72	1
73	54
74	40
75	143
77	674
78	91
79	7
80	1
85	12
86	5
87	11
88	23
89	97
90	126
91	57
92	9
93	10
94	0
96	5
97	6
99	190
100	23
101	53
102	21
103	33
105	999
106	69
107	3
109	12
111	151
112	18
113	59
114	38
116	79
117	33
118	33
119	5
120	0
121	0
122	1
123	4
125	140
126	398
127	102
128	152
129	24
130	11
131	8
135	4
136	1
142	3
143	2
144	18
145	58
146	6
149	8
150	1
153	250
154	226
155	85
156	67
157	5
158	2
165	4
169	1
170	7
172	211
173	22
174	3
178	1
180	4
186	5
191	1
193	3
194	1
205	4
206	10
207	45
208	5
217	13
218	4
219	19
220	3
221	3
223	1
235	214
236	31
237	1
253	4
255	3
256	2
262	3
263	28
264	3
269	13
270	4
271	7
290	2
294	7
295	16
297	269
298	684
299	175
300	242
301	37
302	3
308	1
310	1
