Mass Spectrum: 2,3-Diaminobenzoic acid, methyl ester
Formula: C8H10N2O2
CAS: 107582-20-7
Molecular weight: 166
m/z	intensity
26	5
27	32
28	78
29	14
30	8
31	3
32	0
33	5
37	6
38	15
39	48
40	11
41	22
42	11
43	6
44	4
45	3
49	1
50	20
51	91
52	182
53	160
54	51
55	7
56	2
57	2
58	1
59	3
60	0
61	3
62	11
63	60
64	21
65	25
66	11
67	25
68	9
69	2
70	1
71	0
73	1
74	1
75	4
76	21
77	26
78	134
79	256
80	169
81	13
82	1
83	10
84	0
85	0
88	2
89	4
90	85
91	19
92	4
93	2
94	2
95	2
96	0
97	0
103	5
104	9
105	320
106	999
107	194
108	20
109	1
117	1
118	0
119	2
120	1
121	1
122	2
123	0
125	1
130	0
131	2
132	3
133	71
134	751
135	188
136	13
137	1
141	1
145	1
146	0
147	2
149	1
150	2
151	3
152	0
165	14
166	825
167	82
168	7
169	0
