Mass Spectrum: Bicyclo[2.2.1]heptan-2-ol, 3-mercapto-
Formula: C7H12OS
CAS: 107513-40-6
Molecular weight: 144
m/z	intensity
26	21
27	232
29	104
30	4
31	71
33	6
34	10
35	5
37	10
38	25
39	312
40	117
41	404
42	31
43	88
44	6
45	196
46	27
47	121
48	26
49	9
50	26
51	61
52	20
53	161
54	196
55	188
56	15
57	244
58	27
59	48
60	40
61	18
62	9
63	22
64	3
65	95
66	295
67	999
68	158
69	136
70	58
71	50
72	49
73	207
74	39
75	18
76	106
77	180
78	49
79	432
80	83
81	332
82	667
83	134
84	23
85	117
86	26
87	66
88	20
89	19
90	11
91	179
92	215
93	504
94	46
95	97
96	14
97	264
98	67
99	24
100	28
101	14
102	5
103	13
109	21
110	180
111	50
112	4
113	229
114	20
115	36
116	10
125	10
126	156
127	25
128	8
129	3
143	5
144	717
145	65
146	36
