Mass Spectrum: Toluene-4-sulfonic acid 4-formyl-2-nitro-phenyl ester
Formula: C14H11NO6S
CAS: 107559-00-2
Molecular weight: 321
m/z	intensity
50	42
51	15
52	17
53	9
54	5
55	5
56	6
57	5
61	13
62	44
63	93
64	32
65	174
66	11
67	6
68	3
75	7
76	4
77	31
78	10
79	24
80	9
81	5
82	4
83	5
84	2
88	2
89	35
90	22
91	999
92	122
93	7
94	2
95	3
104	1
105	7
106	2
107	12
108	8
109	2
110	1
119	9
120	18
121	4
122	2
134	1
135	2
136	12
137	15
138	2
139	15
140	3
141	2
149	7
150	3
151	2
152	2
155	798
156	74
157	38
158	2
165	1
166	58
167	50
168	4
169	2
181	2
182	1
184	2
186	2
209	1
262	2
320	3
321	46
322	5
323	2
