Mass Spectrum: Ethanone, 2,2-dihydroxy-1-phenyl-
Formula: C8H8O3
CAS: 1075-06-5
Molecular weight: 152
m/z	intensity
27	19
28	82
29	54
37	29
38	30
39	24
49	25
50	155
51	320
52	21
61	16
62	16
63	13
73	18
74	62
75	30
76	35
77	862
78	65
105	999
106	86
