Mass Spectrum: Glyoxal, 4-methylphenyl-
Formula: C9H8O2
CAS: 1075-47-4
Molecular weight: 148
m/z	intensity
34	1
35	4
36	3
37	10
38	22
39	135
40	23
41	44
43	12
44	23
45	14
47	36
48	4
49	8
50	40
51	50
52	10
53	7
54	1
55	8
56	4
57	9
58	1
59	3
61	14
62	32
63	80
64	24
65	229
66	9
67	2
68	1
69	5
70	4
71	5
72	0
73	4
74	9
75	8
76	5
77	11
78	3
79	0
80	1
81	2
83	40
85	30
86	7
87	6
89	57
91	675
92	44
93	8
94	1
95	1
97	1
98	2
99	0
101	0
102	0
103	1
104	0
105	11
106	1
107	0
109	1
111	1
112	2
113	1
115	2
116	2
117	3
119	999
120	228
121	18
122	1
125	0
126	0
128	0
129	1
133	0
135	2
136	1
143	0
145	0
146	0
147	0
148	2
149	4
150	0
