Mass Spectrum: Butanedioic acid, 2,3-dihydroxy-, di-2-propenyl ester, (R*,R*)-(.+-.)-
Formula: C10H14O6
CAS: 107596-43-0
Molecular weight: 230
m/z	intensity
26	9
27	29
28	5
29	51
30	18
31	52
33	14
36	0
37	4
38	8
39	126
40	17
41	999
42	86
43	39
44	10
45	4
47	1
49	1
53	2
54	4
55	10
56	1
57	78
58	17
59	44
60	40
61	2
63	1
65	0
67	3
68	0
69	5
70	10
71	52
72	2
73	2
75	25
76	4
77	5
79	0
80	1
81	5
82	0
83	5
84	0
85	0
86	0
87	1
88	0
89	3
90	9
91	2
96	0
97	5
98	46
99	32
100	2
101	2
105	4
111	0
115	9
116	96
117	7
118	2
119	4
127	3
128	0
144	1
145	79
146	5
147	1
155	0
161	1
169	1
173	0
185	0
231	0
