Mass Spectrum: Acetamide, N,N'-(acetylcarbonimidoyl)bis-
Formula: C7H11N3O3
CAS: 107572-98-5
Molecular weight: 185
m/z	intensity
25	3
26	11
27	34
28	9
29	36
30	13
38	3
39	5
41	29
42	102
43	999
44	73
45	6
50	1
51	1
52	1
53	4
54	3
55	10
56	16
57	9
58	35
59	185
60	125
61	6
65	2
66	1
67	3
68	2
69	64
70	5
71	3
72	20
73	209
74	8
76	2
77	2
81	2
82	2
83	5
84	10
85	84
86	871
87	48
88	4
91	2
95	2
97	3
98	9
99	8
100	79
101	84
102	60
103	4
104	3
105	2
111	6
112	5
114	22
115	70
116	5
124	3
125	7
126	3
127	3
128	711
129	46
130	5
141	2
142	84
143	369
144	95
145	8
152	2
157	122
158	10
163	3
167	3
168	2
169	2
170	361
171	35
172	6
174	2
185	313
186	46
187	5
