Mass Spectrum: Tebuconazole
Formula: C16H22ClN3O
CAS: 107534-96-3
Molecular weight: 307
m/z	intensity
14	1
15	2
26	2
27	20
28	77
29	94
30	8
31	6
36	1
38	2
39	41
40	13
41	172
42	21
43	137
44	3
45	8
50	7
51	21
52	6
53	19
54	9
55	110
56	80
57	291
58	20
59	52
60	2
61	1
62	4
63	25
64	6
65	16
66	3
67	35
68	4
69	27
70	542
71	32
72	2
73	7
74	4
75	21
76	6
77	84
78	16
79	15
80	2
81	16
82	193
83	492
84	29
85	105
86	9
87	19
88	2
89	104
90	45
91	28
92	3
93	2
94	1
95	5
96	5
97	3
98	1
99	42
100	42
101	27
102	23
103	130
104	24
105	9
106	2
107	1
108	4
109	1
110	4
111	7
112	10
113	20
114	5
115	20
116	9
117	9
118	2
119	1
122	1
123	4
125	999
126	82
127	348
128	60
129	43
130	9
131	8
132	3
133	3
134	1
135	2
136	5
137	8
138	85
139	104
140	36
141	50
142	8
143	8
144	4
145	12
146	5
147	4
148	1
149	5
150	25
151	20
152	6
153	58
154	7
155	23
156	4
157	3
158	1
159	1
162	22
163	124
164	59
165	89
166	17
167	26
168	64
169	13
170	5
171	2
172	1
177	5
178	3
179	4
180	3
181	17
182	4
183	6
184	2
191	2
192	21
193	3
194	8
204	1
205	11
206	3
207	51
208	8
209	16
210	3
220	5
222	1
225	20
226	3
227	6
232	18
233	8
234	8
235	2
250	500
251	74
252	169
253	23
254	2
274	20
275	4
276	7
289	5
290	1
291	2
292	7
293	1
294	2
307	15
308	3
309	5
