Mass Spectrum: Benzenecarboimidic acid, N-(3,4-dichlorobenzyloxy)-
Formula: C14H11Cl2NO2
CAS: 107517-57-7
Molecular weight: 295
m/z	intensity
41	3
43	2
44	7
45	0
47	1
49	6
50	71
51	216
52	24
53	5
55	2
56	0
57	0
60	1
61	6
62	18
63	51
64	11
65	16
66	2
69	0
72	2
73	23
74	35
75	68
76	32
77	426
78	34
79	2
80	4
83	2
84	8
85	10
86	5
87	8
88	4
89	79
90	8
91	3
92	2
93	2
97	7
98	0
99	12
101	3
103	10
105	999
106	81
107	7
108	0
109	25
110	6
111	41
112	8
113	13
114	2
119	1
120	1
121	52
122	23
123	48
124	27
125	18
126	8
127	1
133	10
135	7
136	3
137	1
139	1
141	4
143	1
145	22
146	3
147	15
148	1
149	4
159	579
160	16
161	382
162	26
163	56
164	4
165	1
173	11
174	4
175	8
176	3
177	2
278	3
280	2
295	6
296	2
297	4
298	0
