Mass Spectrum: 4-(7-Methoxy-3,3,7-trimethyl-oxepan-2-ylidene)-butan-2-one
Formula: C14H24O3
CAS: 107675-07-0
Molecular weight: 240
m/z	intensity
25	2
26	13
27	139
29	135
30	7
31	81
33	7
37	2
38	5
39	130
40	31
41	424
42	91
43	999
44	29
45	62
46	4
47	1
50	4
51	17
52	9
53	94
54	29
55	374
56	65
57	49
58	39
59	61
60	3
61	1
62	1
63	5
64	1
65	22
66	21
67	140
68	32
69	725
70	62
71	263
72	448
73	83
74	5
75	97
76	4
77	29
78	6
79	35
80	7
81	65
82	17
83	97
84	126
85	685
86	88
87	9
88	1
89	2
90	0
91	25
92	5
93	34
94	9
95	57
96	11
97	43
98	820
99	734
100	50
101	7
102	3
103	3
104	1
105	13
106	2
107	61
108	17
109	207
110	30
111	23
112	76
113	18
114	4
115	2
116	2
117	1
118	0
119	5
120	4
121	16
122	7
123	122
124	45
125	53
126	8
127	35
128	8
129	5
130	1
131	2
132	1
133	10
134	2
135	14
136	2
137	9
138	4
139	9
140	3
141	43
142	813
143	82
144	6
145	1
147	12
148	2
149	7
150	5
151	16
152	5
153	3
154	0
155	8
156	3
157	0
158	1
162	0
163	2
164	1
165	38
166	10
167	5
168	1
169	10
170	1
171	1
173	0
174	1
175	2
176	0
177	2
178	0
179	1
180	2
181	8
182	3
183	4
184	0
189	1
190	0
191	3
192	0
193	5
194	0
195	0
196	0
197	24
198	3
207	3
208	18
209	7
211	1
222	1
225	4
240	5
241	0
