Mass Spectrum: Monomethyl-trimethylene-.beta.-sedoheptitol
Formula: C11H18O7
CAS: 107628-87-5
Molecular weight: 262
m/z	intensity
41	91
42	51
43	261
44	88
45	266
46	4
47	8
49	9
50	4
51	12
52	6
53	27
54	19
55	205
56	37
57	195
58	999
59	414
60	17
61	10
63	2
65	5
66	3
67	10
68	20
69	11
70	16
71	108
72	24
73	84
74	12
75	17
76	0
77	9
78	21
79	5
80	0
81	32
82	13
83	20
84	17
85	223
86	242
87	228
88	19
89	59
90	3
91	0
93	1
95	7
96	5
97	34
98	384
99	83
100	20
101	16
102	2
103	16
105	5
106	11
107	3
109	2
110	2
111	14
112	8
113	18
114	8
115	30
116	15
117	86
118	5
119	7
123	4
124	14
125	6
126	19
127	20
128	15
129	27
130	8
131	7
133	5
139	0
141	14
142	49
143	14
144	51
145	43
146	5
147	22
148	0
149	3
153	1
154	5
155	3
156	3
157	2
158	3
159	13
160	2
170	0
171	3
172	7
173	150
174	16
175	13
184	0
185	2
186	6
188	4
189	19
190	0
201	4
202	4
231	1
232	3
261	3
262	3
