Mass Spectrum: 1-Octen-3-yne, 1-bromo-, (E)-
Formula: C8H11Br
CAS: 107646-60-6
Molecular weight: 186
m/z	intensity
39	580
41	540
43	320
51	470
52	170
62	220
63	650
65	870
77	270
78	260
79	999
91	650
92	250
107	260
143	130
145	130
186	190
187	16
188	180
189	15
