Mass Spectrum: 4-(Dimethylamino)butyric acid, TMS derivative
Formula: C9H21NO2Si
CAS: 107698-60-2
Molecular weight: 203
m/z	intensity
14	2
15	24
16	1
18	4
26	4
27	12
28	24
29	12
30	31
31	2
32	2
39	10
40	3
41	40
42	78
43	31
44	49
45	39
46	24
47	19
51	1
52	3
54	2
55	8
56	19
57	19
58	999
59	52
60	4
61	11
68	4
69	23
70	15
71	81
72	16
73	67
74	8
75	94
76	7
77	4
79	3
82	3
84	32
85	4
86	5
89	2
98	7
99	8
100	2
101	2
102	3
114	73
115	7
116	9
117	2
129	2
130	2
142	4
143	75
144	9
145	5
147	10
148	2
159	6
164	1
169	1
172	3
173	6
174	2
188	55
189	8
190	3
203	36
204	6
205	2
