Mass Spectrum: (3S,4aR,8aS)-1,1,3,6-Tetramethyl-3-vinyl-3,4,4a,7,8,8a-hexahydro-1H-isochromene
Formula: C15H24O
CAS: 107602-52-8
Molecular weight: 220
m/z	intensity
26	1
27	11
29	10
31	2
38	1
39	31
40	7
41	83
42	8
43	126
44	3
45	7
50	2
51	12
52	6
53	46
54	5
55	75
56	5
57	7
58	2
59	10
62	1
63	3
64	1
65	25
66	7
67	37
68	11
69	75
70	8
71	23
72	2
74	1
75	1
76	1
77	102
78	23
79	305
80	29
81	56
82	21
83	5
84	1
85	2
86	1
87	1
89	2
90	1
91	138
92	26
93	259
94	999
95	98
96	6
97	3
99	1
102	2
103	8
104	3
105	57
106	32
107	94
108	19
109	15
110	2
111	3
112	1
113	10
114	1
115	6
118	2
119	45
121	33
122	9
123	2
124	1
125	1
126	1
128	2
129	3
130	1
131	5
135	154
136	17
137	24
138	3
139	1
141	1
143	2
144	1
145	7
146	1
147	48
148	5
149	4
150	2
151	1
152	3
158	1
159	4
160	2
162	16
163	5
164	2
165	1
175	2
177	5
178	1
187	9
188	2
191	1
192	2
193	1
202	1
203	2
205	63
206	9
207	1
220	13
221	2
222	1
