Mass Spectrum: 2H-Pyran, tetrahydro-2-[2-(methylenecyclopropyl)ethoxy]-
Formula: C11H18O2
CAS: 107616-98-8
Molecular weight: 182
m/z	intensity
26	7
27	67
28	16
29	99
30	2
31	30
37	0
38	2
39	60
40	16
41	175
42	11
43	163
44	7
45	3
47	1
49	0
50	4
51	11
52	12
53	59
54	11
55	69
56	28
57	102
58	6
59	2
60	0
61	0
62	0
63	1
64	0
65	11
66	8
67	161
68	12
69	5
70	4
71	1
72	0
73	1
74	0
75	0
76	0
77	12
78	2
79	104
80	38
81	47
82	13
83	19
84	12
85	999
86	50
87	2
91	1
92	0
93	3
94	1
95	4
96	4
97	2
98	9
99	2
100	1
101	13
102	1
105	0
106	0
107	0
108	0
109	10
110	1
111	4
112	1
113	0
114	0
115	18
116	1
117	0
118	0
119	0
120	0
121	0
122	0
123	2
124	1
125	1
126	0
127	0
128	0
129	0
133	0
135	0
136	0
137	4
138	1
139	0
140	1
141	4
142	0
144	0
145	0
149	0
150	0
151	1
153	1
154	0
156	0
164	0
167	0
168	0
181	0
182	0
