Mass Spectrum: 5(4H)-Isoxazolone, 3-phenyl-
Formula: C9H7NO2
CAS: 1076-59-1
Molecular weight: 161
m/z	intensity
14	4
15	1
16	1
18	1
26	8
27	27
28	10
29	4
30	9
36	1
37	14
38	23
39	54
40	8
41	11
42	13
43	3
44	32
45	3
49	9
50	96
51	225
52	35
53	6
57	1
58	1
60	2
61	12
62	28
63	69
64	54
65	12
66	21
67	3
68	1
69	12
72	1
73	7
74	37
75	35
76	55
77	361
78	31
79	2
84	1
85	3
86	5
87	8
88	9
89	46
90	14
91	63
92	7
93	190
94	15
95	1
97	1
98	4
99	2
100	1
101	7
102	53
103	999
104	131
105	92
106	47
107	4
114	1
115	2
116	23
117	9
118	2
119	95
120	11
121	1
129	4
132	5
133	36
134	4
144	27
145	4
146	1
160	2
161	766
162	81
163	5
