Mass Spectrum: 9-[2-Deoxy-.beta.-d-ribohexopyranosyl]purin-6(1H)-one
Formula: C11H14N4O5
CAS: 107712-13-0
Molecular weight: 282
m/z	intensity
41	274
42	203
43	493
44	196
45	276
46	12
47	195
49	6
50	20
51	34
52	26
53	213
54	297
55	500
56	713
57	767
58	91
59	58
60	389
61	82
62	10
63	6
64	8
65	27
66	33
67	22
68	94
69	203
70	61
71	197
72	50
73	999
74	295
75	34
77	10
78	10
79	9
80	26
81	163
82	86
83	98
84	38
85	134
86	57
87	68
88	1
89	11
90	1
91	50
92	29
93	9
94	7
95	8
96	1
97	220
98	19
99	44
100	48
101	17
102	166
103	161
104	12
105	7
106	3
107	8
108	40
109	44
110	30
111	51
112	11
113	8
115	17
117	5
119	5
124	1
127	7
128	31
129	81
130	8
131	2
133	1
134	3
135	49
136	667
137	88
138	7
144	4
145	34
146	24
147	104
148	8
149	1
155	4
157	12
163	10
173	1
201	5
202	5
207	4
219	5
220	1
238	15
239	1
282	3
