Mass Spectrum: 2-Benzyl-3-hydroxypropanoic acid, ethyl ester
Formula: C12H16O3
CAS: 107749-65-5
Molecular weight: 208
m/z	intensity
25	7
27	69
28	2
29	152
30	4
31	114
37	0
38	3
39	45
40	4
41	18
42	4
43	22
44	4
45	39
46	9
47	2
48	0
49	0
50	14
51	57
52	15
53	8
54	1
55	37
56	6
57	10
58	2
59	19
60	1
61	1
62	5
63	22
64	6
65	92
66	6
67	2
68	1
69	4
70	2
71	17
72	2
73	5
74	11
75	9
76	7
77	95
78	95
79	46
80	3
81	2
82	1
83	3
84	1
85	3
86	1
87	2
88	2
89	42
90	11
91	999
92	265
93	15
94	1
95	2
96	1
97	3
98	1
99	1
100	0
101	4
102	13
103	84
104	60
105	103
106	10
107	53
108	5
109	3
110	1
111	2
112	0
113	1
114	1
115	77
116	70
117	733
118	67
119	8
120	4
121	4
122	4
123	1
124	0
125	1
126	0
127	1
128	2
129	5
130	2
131	310
132	42
133	72
134	46
135	130
136	11
137	1
138	1
139	0
140	0
141	1
142	1
143	2
144	84
145	122
146	14
147	9
148	8
149	41
150	5
151	1
152	0
153	0
154	0
155	0
157	1
158	0
159	5
160	5
161	25
162	54
163	57
164	6
165	1
166	0
167	0
171	0
172	0
174	4
175	1
176	2
177	50
178	9
179	1
180	0
181	0
182	0
188	5
189	2
190	464
191	47
192	4
193	1
194	0
205	0
206	4
207	0
208	19
209	4
210	0
