Mass Spectrum: Benzenepropanoic acid, 3,4-dihydroxy-
Formula: C9H10O4
CAS: 1078-61-1
Molecular weight: 182
m/z	intensity
14	1
15	2
16	1
17	1
18	3
26	6
27	28
28	13
29	10
31	5
32	1
37	3
38	8
39	42
40	7
41	11
42	5
43	10
44	14
45	13
46	1
49	2
50	16
51	62
52	14
53	20
54	4
55	24
56	1
57	2
59	2
60	1
61	3
62	9
63	23
64	11
65	33
66	11
67	9
68	4
69	3
71	1
73	1
74	4
75	4
76	3
77	96
78	11
79	22
80	6
81	9
82	3
83	2
87	1
88	1
89	23
90	11
91	50
92	6
93	7
94	14
95	7
97	1
105	22
106	3
107	24
108	6
109	5
110	21
111	5
117	3
118	3
119	16
120	2
121	3
122	19
123	999
124	77
125	8
126	1
134	3
135	24
136	101
137	30
138	4
139	8
140	1
146	1
147	1
152	1
153	2
162	1
163	3
164	5
165	4
180	1
181	3
182	341
183	34
184	4
