Mass Spectrum: Cyclododeca[b]furan-2(3H)-one, 3a,4,7,8,11,11a-hexahydro-4-hydroxy-6,10-dimethyl-3-(4-morpholinomethyl)-
Formula: C19H29NO4
CAS: 107811-55-2
Molecular weight: 335
m/z	intensity
37	0
38	4
39	95
40	38
41	273
42	231
43	135
44	60
45	21
46	0
47	0
49	0
50	1
51	13
52	12
53	74
54	38
55	177
56	250
57	122
58	22
59	4
60	1
61	0
62	0
63	1
64	1
65	22
66	12
67	71
68	50
69	51
70	76
71	40
72	36
73	10
74	3
75	0
76	2
77	52
78	15
79	58
80	22
81	41
82	26
83	72
84	46
85	25
86	134
87	160
88	57
89	4
90	3
91	61
92	16
93	44
94	16
95	22
96	20
97	19
98	74
99	161
100	999
101	548
102	26
103	9
104	5
105	32
106	14
107	27
108	24
109	22
110	9
111	5
112	8
113	5
114	3
115	5
116	4
117	11
118	5
119	18
120	16
121	19
122	8
123	8
124	8
125	4
126	18
127	4
128	6
129	6
130	2
131	8
132	6
133	10
134	10
135	6
136	3
137	4
138	4
139	2
140	7
141	3
142	5
143	6
144	3
145	7
146	4
147	7
148	3
149	0
150	1
151	2
152	7
153	23
154	10
155	3
156	3
157	7
158	5
159	6
160	2
161	3
162	2
163	3
164	2
165	0
166	1
167	0
168	2
169	0
170	1
171	4
172	1
173	1
174	0
175	1
176	5
177	4
178	1
179	0
180	0
181	0
182	2
183	19
184	39
185	7
186	6
187	1
188	0
189	0
190	0
191	0
192	1
193	0
194	0
196	0
197	0
198	4
199	1
200	0
201	0
202	0
203	0
204	2
205	0
206	0
207	0
208	1
209	0
210	0
211	0
212	4
213	1
214	0
215	0
217	0
218	0
219	0
220	0
222	0
223	0
224	0
225	0
226	2
227	0
228	0
229	0
230	0
232	0
233	0
234	1
235	14
236	1
237	1
238	17
239	2
240	0
244	0
248	1
249	0
250	1
251	8
252	91
253	19
254	4
255	0
260	0
262	0
263	1
264	1
265	1
266	0
267	0
268	0
272	0
273	1
274	13
275	1
276	1
277	0
278	0
279	1
280	0
282	0
289	0
290	1
291	3
292	12
293	5
294	1
302	0
303	0
304	12
305	4
306	24
307	36
308	8
309	0
315	0
316	2
317	3
318	8
319	2
320	11
321	1
322	0
323	0
324	0
331	0
332	1
333	11
334	56
335	231
336	78
337	20
338	1
