Mass Spectrum: Methanone, (7-benzoylbicyclo[4.1.0]heptyl)(phenyl)-
Formula: C21H20O2
CAS: 107887-70-7
Molecular weight: 304
m/z	intensity
33	0
34	0
37	1
39	68
40	19
41	54
42	8
43	15
44	10
45	5
50	35
51	170
52	22
53	44
54	8
55	33
56	2
57	4
58	0
59	1
60	0
61	0
62	4
63	15
64	6
65	25
66	14
67	18
68	6
69	12
70	1
71	2
72	1
74	9
75	15
77	934
78	75
79	50
80	13
81	20
82	2
83	2
84	0
85	0
86	1
87	2
88	3
89	12
90	7
91	54
92	6
93	8
94	2
95	4
97	2
98	3
99	1
100	1
101	5
102	10
103	16
105	999
106	72
107	9
108	2
109	1
113	3
114	4
115	41
116	8
117	11
118	3
119	1
120	2
121	9
122	3
123	2
124	1
125	0
126	4
127	11
128	24
129	35
130	8
131	8
132	2
133	3
135	0
137	0
139	4
140	1
141	16
142	7
143	8
144	5
145	7
146	2
147	6
148	1
149	3
150	1
151	3
152	10
153	10
154	5
155	8
156	4
157	31
158	6
159	1
160	0
161	0
163	1
164	1
165	18
166	14
167	7
168	2
169	6
170	10
171	32
172	4
173	1
174	0
176	1
177	2
178	7
179	7
180	6
181	41
182	8
183	11
184	7
185	5
186	0
189	2
190	1
191	3
192	0
193	0
194	0
195	1
197	9
198	17
199	128
200	20
201	2
202	2
203	2
204	2
205	3
206	2
207	12
208	3
209	2
210	0
213	0
215	3
216	1
217	3
218	1
219	2
220	1
221	2
222	1
223	7
224	2
225	4
226	1
227	8
228	2
229	2
230	2
231	3
232	2
233	10
234	2
235	3
236	0
237	1
243	1
244	1
245	1
247	7
248	2
249	6
250	2
251	0
252	0
256	0
257	6
258	7
259	4
261	170
262	31
263	4
267	0
268	1
269	1
270	0
271	1
275	10
276	8
277	1
285	7
286	11
287	5
288	1
289	0
300	0
303	94
304	127
305	27
306	3
