Mass Spectrum: N-(Anilinomethyl)-3-nitrophthalimide
Formula: C15H11N3O4
CAS: 107821-65-8
Molecular weight: 297
m/z	intensity
34	2
37	90
38	93
39	126
40	59
41	27
42	9
43	39
44	67
45	34
46	26
49	36
50	197
51	324
52	150
53	38
54	7
55	8
56	5
57	9
59	6
60	9
61	26
62	89
63	98
64	42
65	72
66	30
67	6
70	24
71	5
73	61
74	307
75	999
77	890
78	110
79	19
80	2
81	2
82	1
84	7
86	6
87	7
88	16
89	30
90	44
91	84
92	27
93	63
94	6
99	5
103	541
104	659
105	700
106	178
107	16
111	1
112	1
116	3
117	28
118	165
119	90
120	18
121	5
130	8
131	5
132	6
133	6
134	9
135	2
144	1
146	70
147	11
148	21
149	30
150	4
152	4
159	2
160	11
161	9
162	114
163	8
164	2
165	3
167	3
171	2
175	2
176	11
177	4
178	5
179	2
180	9
192	298
193	26
194	7
195	3
198	2
205	21
206	2
207	8
208	8
210	21
211	3
221	7
222	3
250	9
251	1
268	1
297	20
298	4
