Mass Spectrum: Propenoic acid, 3-(3-methylphenyl)-2-diethoxyphosphinyl-, ethyl ester
Formula: C16H23O5P
CAS: 107846-67-3
Molecular weight: 326
m/z	intensity
26	15
27	71
29	280
30	12
39	12
42	5
43	17
45	15
47	9
50	7
51	10
52	5
53	9
62	11
63	37
64	12
65	97
66	6
69	17
74	10
75	18
76	16
77	53
78	46
79	17
81	212
82	97
83	43
86	5
87	10
88	17
89	122
90	33
91	266
92	25
93	39
94	7
99	15
101	14
102	52
103	79
104	50
105	78
106	11
107	23
108	9
109	90
110	46
111	124
113	26
115	999
116	391
117	184
118	47
119	29
120	8
121	32
127	19
128	52
129	73
130	28
131	54
132	61
133	49
134	15
135	15
136	15
137	9
138	60
139	9
141	15
142	222
143	463
144	371
145	549
146	78
147	17
149	38
150	7
151	15
152	5
153	5
154	8
155	17
156	9
157	14
158	8
159	13
160	16
161	107
162	30
163	124
164	23
167	32
169	6
170	50
171	92
172	169
173	42
174	6
177	8
178	21
179	236
180	156
181	73
182	38
183	7
187	7
188	9
189	66
190	27
191	33
192	17
193	7
194	7
195	11
196	146
197	853
198	173
199	67
200	11
205	7
206	14
207	124
208	41
209	134
210	15
211	10
213	6
216	34
217	125
218	70
219	15
221	9
223	113
224	123
225	462
226	200
227	30
233	10
234	216
235	57
236	50
237	58
238	8
239	11
241	24
242	9
251	66
252	387
253	490
254	161
255	23
265	73
266	9
267	32
269	9
279	27
280	215
281	420
282	201
283	30
284	5
297	10
298	6
325	19
326	327
327	64
328	10
