Mass Spectrum: 9,10-Anthracenedione, 2-[(acetyloxy)methyl]-1,8-dimethoxy-
Formula: C19H16O6
CAS: 107960-77-0
Molecular weight: 340
m/z	intensity
43	999
76	120
139	110
151	120
152	180
165	120
237	100
250	200
251	110
253	110
267	280
268	440
280	120
283	130
297	150
298	120
340	10
