Mass Spectrum: 7-Methyl-1,2,3,5,8,8a-hexahydronaphthalene
Formula: C11H16
CAS: 107914-88-5
Molecular weight: 148
m/z	intensity
26	3
27	139
28	91
29	72
38	3
39	180
40	31
41	232
42	6
43	1
50	3
51	84
52	43
53	111
54	13
55	86
56	1
57	3
58	5
62	13
63	34
64	29
65	136
66	27
67	94
68	2
69	8
74	3
75	6
76	13
77	249
78	122
79	290
80	117
81	29
89	15
90	8
91	999
92	232
93	158
94	49
95	3
101	1
102	3
103	60
104	41
105	958
106	592
107	129
108	10
115	70
116	32
117	77
118	34
119	266
120	120
121	13
127	12
128	31
129	25
130	6
131	49
132	5
133	363
134	36
143	1
144	3
145	6
146	17
147	32
148	676
149	80
150	5
