Mass Spectrum: Cyclopentanecarboxylic acid, 2-chlorophenyl ester
Formula: C12H13ClO2
CAS: 107976-10-3
Molecular weight: 224
m/z	intensity
26	6
27	24
28	1
29	4
36	11
38	11
39	54
40	14
41	166
42	10
50	5
51	4
53	12
55	56
62	4
63	26
64	33
65	20
66	8
67	56
68	30
69	999
70	53
73	21
74	3
75	17
92	14
94	3
95	5
96	49
97	475
98	31
99	36
100	5
101	12
111	13
113	4
127	7
128	272
129	23
130	84
131	6
183	7
224	36
225	5
226	12
