Mass Spectrum: 1,4-Oxathiin, 5,6-dihydro-3-(hydroxymethyl)-2-methyl-
Formula: C6H10O2S
CAS: 107954-67-6
Molecular weight: 146
m/z	intensity
15	120
17	120
27	118
39	51
41	60
43	999
45	248
46	79
47	57
58	903
59	145
60	103
61	63
72	70
75	144
87	50
100	64
118	109
128	239
129	64
146	623
