Mass Spectrum: Benzeneacetamide, 4-amino-N,N-dipropyl-
Formula: C14H22N2O
CAS: 107966-14-3
Molecular weight: 234
m/z	intensity
27	31
28	11
29	6
30	24
39	13
40	2
41	62
42	16
43	507
44	24
50	2
51	10
52	9
53	13
54	6
55	8
56	13
57	12
58	11
63	3
65	5
66	3
67	4
68	2
69	5
70	9
71	6
72	68
73	4
75	2
76	2
77	50
78	27
79	26
80	7
81	3
82	2
83	4
84	4
85	3
86	176
87	9
89	5
90	2
91	3
92	1
93	6
94	2
95	3
96	2
97	4
98	2
99	3
100	13
101	2
102	6
103	2
104	26
105	24
106	999
107	84
108	4
111	2
117	2
119	2
120	2
121	2
128	204
129	17
132	3
133	27
134	11
135	1
141	3
142	8
143	2
192	1
205	3
233	2
234	223
235	38
236	4
