Mass Spectrum: Acetohydrazide, 2-(2-methoxyphenoxy)-
Formula: C9H12N2O3
CAS: 107967-88-4
Molecular weight: 196
m/z	intensity
37	6
38	22
39	55
40	10
41	45
42	73
43	52
44	20
45	117
46	1
50	61
51	103
52	110
53	47
55	28
56	1
57	2
58	1
59	6
61	5
62	17
63	82
64	75
65	78
66	19
67	15
69	5
70	0
72	0
73	26
74	13
75	12
76	19
77	312
78	45
80	55
81	76
82	6
83	1
89	0
90	0
92	133
93	19
94	9
95	64
96	8
97	0
98	2
105	3
106	1
107	18
109	261
110	26
111	5
116	1
119	2
121	61
122	291
123	51
124	999
125	80
126	5
130	0
135	5
136	2
137	71
138	8
139	0
150	4
167	4
181	9
182	1
196	144
197	15
198	0
