Mass Spectrum: exo-7-(trans-1-Propenyl)bicyclo[4.2.0]oct-1(2)-ene
Formula: C11H16
CAS: 107983-42-6
Molecular weight: 148
m/z	intensity
25	0
26	8
27	107
28	50
29	66
30	1
37	1
38	5
39	173
40	31
41	233
42	14
43	5
44	1
45	0
46	0
49	0
50	15
51	72
52	43
53	107
54	13
55	98
56	6
57	6
58	19
59	10
60	2
62	11
63	25
64	20
65	116
66	32
67	101
68	19
69	9
70	4
71	3
72	1
73	0
74	2
75	9
76	9
77	233
78	100
79	326
80	101
81	39
82	4
83	1
87	0
89	11
90	6
91	999
92	194
93	130
94	38
95	7
96	1
101	1
102	7
103	39
104	28
105	550
106	297
107	110
108	8
114	0
115	42
116	17
117	50
118	15
119	273
120	96
121	8
126	0
127	6
128	16
129	11
130	3
131	21
132	4
133	384
134	42
135	2
139	0
141	1
142	0
143	0
144	0
145	2
146	1
147	26
148	440
149	53
150	2
