Mass Spectrum: 2-Propen-1-amine, N-ethyl-N-methyl-
Formula: C6H13N
CAS: 107995-54-0
Molecular weight: 99
m/z	intensity
25	1
27	174
28	146
29	126
30	99
31	13
34	0
36	0
37	11
38	23
39	188
40	30
41	888
42	774
43	67
44	478
45	12
47	0
48	0
49	1
50	2
51	6
52	10
53	9
54	31
55	24
56	142
57	28
58	57
59	10
62	0
63	0
64	0
65	1
66	4
67	8
68	31
69	6
70	41
71	8
72	446
73	22
74	1
75	1
76	0
77	0
78	1
79	0
80	3
81	1
82	38
83	9
84	999
85	50
86	1
87	0
91	0
94	1
95	0
96	4
97	3
98	84
99	263
100	21
101	1
103	0
