Mass Spectrum: 8a-Methyl-1,2,3,5,8,8a-hexahydronaphthalene
Formula: C11H16
CAS: 107914-93-2
Molecular weight: 148
m/z	intensity
25	1
26	12
27	205
28	51
29	107
30	1
36	1
37	2
38	10
39	327
40	63
41	391
42	32
43	12
44	1
50	24
51	113
52	59
53	183
54	35
55	132
56	7
57	16
58	17
59	0
62	5
63	35
64	20
65	172
66	73
67	165
68	16
69	10
70	5
71	3
72	0
74	1
75	11
76	7
77	355
78	180
79	909
80	115
81	83
82	15
83	3
87	0
89	13
90	9
91	999
92	547
93	228
94	499
95	59
96	3
101	1
102	7
103	40
104	24
105	540
106	139
107	91
108	9
109	3
110	3
115	42
116	17
117	49
118	16
119	160
120	91
121	11
122	0
127	4
128	14
129	12
130	3
131	27
132	4
133	285
134	31
135	1
144	0
145	3
146	3
147	23
148	255
149	36
150	1
