Mass Spectrum: Furan, 2-methoxy-5-methyl-4-phenyl-
Formula: C12H12O2
CAS: 107939-25-3
Molecular weight: 188
m/z	intensity
39	50
43	999
44	50
51	120
63	60
74	60
76	50
77	130
102	150
103	60
105	150
115	80
117	80
127	90
128	140
129	340
130	50
145	210
173	880
174	110
188	810
