Mass Spectrum: 1-Bromo-4-(2-methylamino-4-nitrophenoxy)-butane
Formula: C11H15BrN2O3
CAS: 107954-02-9
Molecular weight: 302
m/z	intensity
43	308
52	219
55	999
109	197
121	250
122	289
135	905
137	757
167	239
168	327
302	169
304	178
