Mass Spectrum: 6,7-Dimethyl-1,2,3,5,8,8a-hexahydronaphthalene
Formula: C12H18
CAS: 107914-92-1
Molecular weight: 162
m/z	intensity
26	7
27	116
28	60
29	80
38	5
39	183
40	31
41	322
42	17
43	31
44	1
50	12
51	71
52	36
53	115
54	15
55	131
56	7
57	11
58	12
59	15
62	2
63	25
64	30
65	130
66	28
67	137
68	9
69	43
70	13
71	20
72	5
74	0
75	16
76	7
77	222
78	90
79	234
80	69
81	57
82	6
83	3
89	15
90	4
91	529
92	110
93	164
94	39
95	15
101	1
102	10
103	50
104	28
105	999
106	199
107	96
108	28
109	2
115	84
116	32
117	100
118	35
119	942
120	458
121	99
122	7
127	14
128	42
129	35
130	17
131	41
132	17
133	137
134	72
135	7
139	0
141	11
142	4
143	7
144	2
145	37
146	9
147	586
148	69
149	3
159	2
160	7
161	24
162	729
163	94
164	5
