Mass Spectrum: 2-Cyclohexene-1-carboxylic acid, 2,6,6-trimethyl-, ethyl ester, .+/-.-
Formula: C12H20O2
CAS: 107941-55-9
Molecular weight: 196
m/z	intensity
39	510
41	999
43	560
53	270
55	330
67	380
69	340
81	710
82	370
107	520
122	610
123	550
139	80
181	30
196	180
197	24
