Mass Spectrum: Acetamide, N-[2-(2-nitrophenylthio)phenyl]-
Formula: C14H12N2O3S
CAS: 107920-28-5
Molecular weight: 288
m/z	intensity
37	1
38	21
39	30
40	7
41	16
43	999
45	57
46	1
50	62
51	48
52	36
53	16
54	4
57	2
58	7
61	1
63	100
64	39
65	73
66	6
68	5
69	103
70	41
71	12
73	1
74	46
75	27
76	28
77	47
78	49
80	144
82	47
83	8
84	4
85	2
87	2
89	28
91	33
92	21
93	27
95	41
96	62
97	21
98	7
101	3
102	15
103	4
104	2
105	4
106	17
108	243
109	36
110	5
112	8
113	10
114	8
115	26
116	5
117	4
120	3
121	10
122	30
123	16
124	19
125	4
126	16
127	51
128	28
129	41
130	81
131	3
134	326
135	27
136	7
138	135
139	91
140	78
141	5
142	1
145	8
146	4
147	5
149	2
150	2
151	2
152	16
154	192
155	61
156	13
158	3
164	8
165	14
166	91
167	140
168	23
169	13
170	15
171	74
172	23
173	12
179	11
181	507
182	369
183	63
184	22
185	2
186	35
187	3
196	11
197	48
198	97
199	114
200	31
201	4
206	18
207	15
208	2
209	10
211	6
212	1
213	4
228	2
246	16
288	77
289	8
