Mass Spectrum: 2,3-Dimethyl-5,6-dihydro-1,4-oxathiine
Formula: C6H10OS
CAS: 107954-65-4
Molecular weight: 130
m/z	intensity
43	250
45	40
58	50
59	999
74	59
102	218
130	439
