Mass Spectrum: 2-Methyl-7-exo-vinylbicyclo[4.2.0]oct-1(2)-ene
Formula: C11H16
CAS: 107914-89-6
Molecular weight: 148
m/z	intensity
26	10
27	162
28	87
29	88
37	2
38	10
39	274
40	55
41	303
42	24
43	6
50	22
51	98
52	51
53	147
54	26
55	112
56	6
57	12
62	6
63	36
64	17
65	144
66	63
67	127
68	12
69	7
70	4
75	11
76	6
77	286
78	162
79	532
80	77
81	36
83	2
89	12
90	9
91	999
92	547
93	177
94	52
95	7
102	7
103	42
104	24
105	595
106	131
107	90
115	40
116	16
117	49
119	164
120	101
131	21
133	306
134	31
147	19
148	181
149	21
