Mass Spectrum: Phenol, 3-methyl-
Formula: C7H8O
CAS: 108-39-4
Molecular weight: 108
m/z	intensity
15	2
25	1
26	8
27	33
29	11
30	1
31	1
36	1
37	16
38	39
39	119
40	16
41	11
42	7
43	10
44	1
45	1
48	1
49	10
50	68
51	112
52	57
53	99
54	30
55	25
56	1
60	2
61	16
62	32
63	71
64	18
65	38
66	20
67	10
68	10
69	5
73	6
74	20
75	9
76	8
77	325
78	78
79	349
80	108
81	25
82	4
84	1
85	4
86	6
87	4
88	1
89	49
90	121
91	67
92	6
93	3
105	9
107	953
108	999
109	82
110	5
