Mass Spectrum: 4(1H)-Pyridone
Formula: C5H5NO
CAS: 108-96-3
Molecular weight: 95
m/z	intensity
50	55
51	36
52	28
66	34
67	250
68	228
94	28
95	999
96	60
