Mass Spectrum: Cyclohexanone
Formula: C6H10O
CAS: 108-94-1
Molecular weight: 98
m/z	intensity
15	11
26	57
27	187
28	18
29	49
37	26
38	63
39	360
40	88
41	375
42	756
43	84
44	19
49	7
50	39
51	42
52	17
53	63
54	7
55	999
56	116
57	12
61	7
62	10
63	11
65	10
67	15
69	329
70	259
71	17
74	4
79	16
80	60
83	117
84	6
98	454
99	30
