Mass Spectrum: Benzene, chloro-
Formula: C6H5Cl
CAS: 108-90-7
Molecular weight: 112
m/z	intensity
25	1
26	4
27	8
28	1
32	1
35	1
36	3
37	20
38	57
39	11
40	1
43	1
47	2
48	2
49	15
50	96
51	120
52	10
53	1
54	1
55	3
56	39
57	13
60	5
61	7
62	6
63	5
64	1
71	1
72	4
73	21
74	43
75	46
76	34
77	453
78	30
79	1
84	7
85	9
86	9
87	3
88	2
97	3
99	1
108	1
109	1
110	1
111	8
112	999
113	69
114	329
115	21
116	1
