Mass Spectrum: 1-Propanamine, 2-chloro-N,N-dimethyl-
Formula: C5H12ClN
CAS: 108-14-5
Molecular weight: 121
m/z	intensity
26	6
27	30
28	32
29	18
30	92
39	35
40	9
41	50
42	146
43	42
44	63
45	4
49	4
54	4
55	4
56	34
57	19
58	999
59	36
63	3
68	7
70	23
71	68
72	7
84	29
85	10
86	95
87	6
120	3
121	35
122	3
123	11
