Mass Spectrum: Carbonochloridic acid, 1-methylethyl ester
Formula: C4H7ClO2
CAS: 108-23-6
Molecular weight: 122
m/z	intensity
12	1
13	2
14	9
15	51
16	2
17	1
18	3
25	2
26	23
27	222
28	32
29	40
31	6
35	20
36	17
37	16
38	27
39	121
40	33
41	397
42	303
43	982
44	85
45	16
47	1
49	2
51	1
58	2
59	11
62	2
63	999
64	13
65	388
66	4
77	8
78	10
79	4
80	3
81	7
83	2
87	1
93	2
104	1
105	1
106	3
107	635
108	22
109	209
110	7
121	7
122	2
123	2
