Mass Spectrum: 2-Amino-4-methylpyrimidine
Formula: C5H7N3
CAS: 108-52-1
Molecular weight: 109
m/z	intensity
12	1
13	5
14	5
15	26
16	1
17	2
18	11
24	0
25	4
26	32
27	47
28	84
29	1
30	2
34	0
37	31
38	65
39	148
40	140
41	162
42	194
43	228
44	6
46	1
48	0
49	2
50	9
51	26
52	50
53	41
54	34
55	32
56	10
57	0
62	2
63	5
64	13
65	15
66	46
67	208
68	107
69	77
70	4
76	1
77	3
78	1
79	2
81	78
82	265
83	16
84	0
92	6
94	145
95	8
109	999
110	66
111	1
