Mass Spectrum: Cyclohexanol
Formula: C6H12O
CAS: 108-93-0
Molecular weight: 100
m/z	intensity
15	5
19	1
26	11
27	88
28	16
29	107
30	7
31	45
32	1
37	4
38	12
39	140
40	25
41	220
42	76
43	142
44	241
45	37
46	1
47	1
48	1
49	2
50	14
51	23
52	8
53	50
54	114
55	108
56	136
57	999
58	84
59	9
60	1
61	1
62	2
63	4
64	1
65	10
66	7
67	256
68	16
69	18
70	13
71	129
72	69
73	3
74	1
77	9
78	2
79	20
80	2
81	49
82	462
83	36
84	1
85	12
86	1
97	1
98	2
99	13
100	18
101	1
