Mass Spectrum: Pyridine, 4-methyl-
Formula: C6H7N
CAS: 108-89-4
Molecular weight: 93
m/z	intensity
15	2
25	2
26	23
27	28
28	32
31	5
36	3
37	27
38	52
39	192
40	97
41	29
42	3
44	1
45	9
46	4
48	1
49	8
50	43
51	77
52	41
53	55
54	76
55	2
60	3
61	11
62	21
63	49
64	26
65	193
66	361
67	88
68	3
75	3
76	3
77	2
78	37
79	3
87	1
91	9
92	230
93	999
94	71
95	2
