Mass Spectrum: Acetic acid ethenyl ester
Formula: C4H6O2
CAS: 108-05-4
Molecular weight: 86
m/z	intensity
12	1
13	5
14	24
15	110
16	2
18	2
25	3
26	19
27	67
28	11
29	19
31	4
39	1
40	1
41	7
42	63
43	999
44	48
45	4
57	1
86	65
87	3
