Mass Spectrum: Isopropyl acetate
Formula: C5H10O2
CAS: 108-21-4
Molecular weight: 102
m/z	intensity
14	4
15	25
26	7
27	54
28	2
29	22
31	11
37	4
38	11
39	80
40	15
41	169
42	102
43	999
44	36
45	41
57	1
58	2
59	152
60	11
61	326
62	7
63	1
87	238
88	10
89	1
101	5
102	1
103	4
