Mass Spectrum: Cyclohexene, 4-pentyl-1-(4-propylcyclohexyl)-
Formula: C20H36
CAS: 108067-17-0
Molecular weight: 276
m/z	intensity
14	29
16	14
17	22
18	63
27	224
28	112
29	465
30	15
39	126
41	863
43	495
44	33
51	14
53	155
55	702
56	73
57	193
58	13
65	91
67	954
68	225
69	708
70	49
71	59
77	235
79	660
80	225
81	999
82	547
83	528
84	41
85	19
91	345
92	85
93	349
94	153
95	581
96	297
97	242
98	19
103	21
105	115
106	54
107	232
108	105
109	462
110	163
111	88
117	31
119	61
121	244
122	166
123	363
124	207
125	77
133	20
135	178
136	67
137	205
138	73
149	97
150	151
151	292
152	117
163	87
164	117
165	35
166	21
177	66
178	90
191	49
192	60
193	19
205	162
206	45
220	17
233	76
234	22
247	29
276	209
277	44
