Mass Spectrum: Glycine, N-[(4-methylphenyl)sulfonyl]-
Formula: C9H11NO4S
CAS: 1080-44-0
Molecular weight: 229
m/z	intensity
17	9
18	49
26	2
27	15
28	31
29	6
30	287
31	5
32	1
35	1
36	13
37	1
38	7
39	49
40	4
41	16
42	2
43	1
44	20
45	13
46	1
48	1
50	11
51	22
52	7
53	4
55	1
57	1
58	1
60	1
61	3
62	10
63	38
64	12
65	183
66	10
67	3
69	3
70	1
71	1
74	4
75	4
76	6
77	19
78	7
79	10
80	3
82	1
84	1
85	1
86	2
87	2
88	1
89	47
90	27
91	999
92	165
93	10
94	2
95	1
97	1
104	10
105	5
106	8
107	15
108	9
109	2
111	2
117	1
118	4
119	2
120	11
121	5
122	2
123	13
124	46
125	4
126	2
139	18
140	3
141	1
149	1
155	777
156	108
157	44
158	5
164	1
171	3
173	1
183	7
184	417
185	42
186	22
187	2
212	1
227	1
229	41
230	6
231	2
