Mass Spectrum: 7-Oxabicyclo[4.1.0]heptane-2-carboxylic acid, 1,3,3-trimethyl-, ethyl ester, (1.alpha.,2.beta.,6.alpha.)-.+/-.-
Formula: C12H20O3
CAS: 108031-92-1
Molecular weight: 212
m/z	intensity
39	350
41	510
43	999
55	360
67	220
69	200
72	670
73	250
81	210
82	180
83	430
85	180
86	160
95	200
97	220
111	220
139	220
156	210
167	400
197	50
212	10
213	70
