Mass Spectrum: Magnesium, bis(4-N,N-dimethylaminobutyl)-
Formula: C12H28MgN2
CAS: 108023-41-2
Molecular weight: 224
m/z	intensity
25	23
27	46
28	24
29	61
30	68
31	1
37	1
38	7
39	36
40	7
41	34
42	146
43	54
44	158
45	8
46	5
47	3
48	4
49	3
50	4
51	9
52	9
53	36
54	13
55	76
56	58
57	31
58	999
59	30
62	2
65	3
66	3
67	56
68	302
69	100
70	66
71	33
72	39
73	2
74	5
75	2
76	2
77	1
79	2
80	5
81	6
82	12
83	18
84	30
85	5
86	2
89	1
90	1
91	1
92	3
93	1
94	6
95	5
96	326
97	53
98	121
99	39
100	136
101	20
102	1
108	6
109	4
110	12
111	7
112	30
113	5
114	4
122	6
123	291
124	693
125	255
126	115
127	22
128	2
139	1
140	6
141	1
151	2
152	3
153	7
154	3
165	2
167	67
168	45
169	21
170	7
176	2
178	15
179	3
181	4
182	4
207	5
209	29
210	9
211	9
223	4
224	172
225	48
226	28
227	3
