Mass Spectrum: Magnesium, bis(4-N,N-diethylaminobutyl)-
Formula: C16H36MgN2
CAS: 108023-42-3
Molecular weight: 280
m/z	intensity
25	4
27	97
28	92
29	152
30	253
31	3
37	1
38	3
39	41
40	7
41	54
42	88
43	18
44	44
45	1
46	0
49	1
50	2
51	5
52	5
53	15
54	14
55	57
56	69
57	24
58	200
59	7
61	0
65	1
66	3
67	3
68	5
69	28
70	26
71	13
72	52
73	4
74	1
76	2
77	1
79	1
80	2
81	13
82	13
83	5
84	21
85	4
86	999
87	48
88	1
90	1
92	1
94	5
95	12
96	192
97	36
98	38
99	6
100	8
101	3
102	1
103	0
104	1
105	0
106	0
108	3
109	0
110	4
111	1
112	27
113	2
114	22
115	2
116	1
118	0
120	0
122	5
123	7
124	58
125	12
126	25
127	14
128	45
129	28
130	2
131	0
136	0
138	1
140	1
150	1
151	15
152	290
153	75
154	48
155	6
156	1
166	0
167	0
168	1
170	0
178	0
179	0
180	0
181	0
182	1
195	1
196	0
207	1
209	22
210	5
211	3
212	0
223	24
224	8
225	5
226	1
227	0
237	0
251	27
252	8
253	5
254	0
255	0
279	0
280	17
281	6
282	3
283	0
