Mass Spectrum: Cyclohexene, 1-pentyl-4-(4-propylcyclohexyl)-
Formula: C20H36
CAS: 108067-20-5
Molecular weight: 276
m/z	intensity
14	66
17	51
18	83
27	220
28	251
29	483
39	140
41	967
42	99
43	375
44	45
52	29
53	166
55	768
56	113
57	187
65	85
67	999
68	550
69	882
70	65
71	44
77	225
79	544
80	204
81	914
82	564
83	564
84	50
91	244
92	46
93	239
94	165
95	678
96	293
97	214
105	63
107	151
109	438
110	142
111	54
121	155
122	132
123	331
124	209
125	100
135	153
136	70
137	164
138	79
149	83
150	162
151	237
152	106
163	66
164	105
165	42
177	84
178	59
191	64
192	61
205	187
206	65
220	33
233	63
247	26
276	223
277	54
