Mass Spectrum: Ethyl 1-ethoxy-benzimidazole-2-carboxylate
Formula: C12H14N2O3
CAS: 108047-49-0
Molecular weight: 234
m/z	intensity
88	191
89	208
100	320
105	578
106	417
116	201
117	129
118	999
133	179
134	922
144	421
145	500
160	219
190	218
216	59
234	749
