Mass Spectrum: 2-Butenoic acid, 4-oxo-4-[(1-phenylethyl)amino]-
Formula: C12H13NO3
CAS: 108088-06-8
Molecular weight: 219
m/z	intensity
25	19
26	160
27	21
28	11
29	14
38	3
39	20
40	10
41	21
42	71
43	61
44	117
45	5
50	15
51	48
52	20
53	59
54	129
55	16
56	4
57	6
59	5
60	7
63	9
65	9
67	10
69	8
70	3
71	7
73	3
74	7
75	7
76	10
77	102
78	38
79	198
80	16
81	6
83	8
84	5
85	3
89	4
91	14
92	3
93	9
95	6
97	5
98	80
99	5
102	11
103	26
104	47
105	36
106	999
107	77
108	7
109	5
111	4
115	4
117	3
118	6
119	8
120	67
121	26
122	6
125	10
135	3
143	8
144	6
145	4
183	4
186	10
201	18
202	3
