Mass Spectrum: 2-Decylcyclopentane-1,3-dione
Formula: C15H26O2
CAS: 108162-38-5
Molecular weight: 238
m/z	intensity
41	480
42	61
43	480
44	87
45	51
54	46
55	480
56	109
57	480
60	136
67	95
68	75
69	480
70	109
71	145
73	153
74	43
81	194
82	69
83	169
84	89
85	79
87	45
93	44
95	93
96	52
97	103
98	108
99	254
109	46
111	480
112	999
113	102
123	41
125	214
126	120
129	55
137	59
139	178
149	126
153	88
167	69
238	193
