Mass Spectrum: Dimethylcarbamodithioic acid, 3-phenylallyl ester
Formula: C12H15NS2
CAS: 108164-42-7
Molecular weight: 237
m/z	intensity
26	2
27	19
29	16
30	4
31	2
35	4
36	2
37	3
38	10
39	67
40	10
41	29
42	54
43	36
44	118
45	23
46	4
47	15
49	3
50	20
51	50
52	13
53	7
54	3
55	24
56	21
57	23
58	6
59	2
60	4
61	7
62	13
63	41
64	14
65	48
66	13
67	5
68	3
69	13
70	11
71	21
72	18
73	39
74	38
75	15
76	36
77	81
78	25
79	13
80	2
81	4
82	6
83	10
84	7
85	8
86	5
87	8
88	231
89	48
90	24
91	169
92	16
93	3
94	32
95	5
96	3
97	7
98	5
99	3
100	2
101	5
102	22
103	22
104	9
105	40
106	9
107	7
108	3
109	3
110	2
111	4
112	5
113	9
114	13
115	331
116	126
117	999
118	150
119	29
120	87
121	43
122	13
123	3
124	1
125	2
126	3
127	6
128	14
129	12
130	3
131	7
132	4
133	16
134	7
135	8
136	2
137	1
138	1
139	8
140	4
141	45
142	34
143	5
144	1
145	2
146	77
147	52
148	95
149	18
150	3
151	3
152	7
153	9
154	5
155	15
156	11
157	3
158	1
159	2
160	3
161	2
162	1
163	1
164	1
165	4
166	2
167	6
168	9
169	4
170	10
171	2
176	2
177	1
178	5
179	2
180	1
181	2
182	3
183	3
184	7
185	3
186	5
187	1
189	2
190	2
191	2
192	3
196	1
197	2
198	3
202	2
203	1
204	12
205	3
206	1
221	3
222	23
223	6
224	2
234	11
235	2
236	2
237	333
238	60
239	40
240	5
241	2
