Mass Spectrum: 1,4-Dioxaspiro[4.5]decan-8-one, 7-(hydroxymethyl)-
Formula: C9H14O4
CAS: 108177-20-4
Molecular weight: 186
m/z	intensity
26	29
27	187
28	173
29	167
30	56
31	72
37	3
38	12
39	120
40	55
41	121
42	123
43	117
44	17
45	64
50	9
51	19
52	14
53	53
54	31
55	404
56	142
57	97
58	9
59	5
60	2
61	1
62	2
63	6
64	3
65	22
66	17
67	71
68	51
69	46
70	13
71	35
72	7
73	50
74	3
75	1
77	17
78	6
79	33
80	11
81	28
82	14
83	98
84	32
85	119
86	334
87	33
88	3
89	4
91	3
93	8
94	5
95	42
96	21
97	38
98	24
99	999
100	375
101	42
102	4
107	6
108	4
109	12
110	16
111	106
112	51
113	86
114	7
115	8
116	2
121	1
122	4
123	8
124	13
125	27
126	15
127	13
128	7
129	384
130	41
131	10
137	3
138	5
139	3
140	3
141	7
142	29
143	5
145	5
155	202
156	48
157	7
158	1
167	3
168	49
169	49
170	6
171	2
185	2
186	28
187	4
