Mass Spectrum: Cyclohexanamine, N-3-butenyl-N-methyl-
Formula: C11H21N
CAS: 108144-20-3
Molecular weight: 167
m/z	intensity
26	0
27	99
28	25
29	110
30	36
31	0
37	1
38	4
39	98
40	12
41	192
42	228
43	30
44	999
45	25
49	0
50	4
51	9
52	6
53	37
54	28
55	230
56	30
57	19
58	16
59	0
62	0
63	1
64	0
65	5
66	3
67	20
68	21
69	7
70	105
71	8
72	0
75	0
76	0
77	6
78	2
79	9
80	4
81	29
82	32
83	89
84	35
85	1
91	0
92	0
93	1
94	6
95	3
96	25
97	10
98	4
99	0
104	0
106	0
107	0
108	2
109	1
110	5
111	3
112	9
113	0
120	0
121	0
122	2
123	0
124	34
125	3
126	567
127	52
128	2
136	0
137	0
138	3
139	0
140	0
150	0
152	0
165	0
166	2
167	3
168	0
