Mass Spectrum: N,N'-Dibutyl 4-thiodilycollic acid amide
Formula: C12H24N2O2S
CAS: 108199-20-8
Molecular weight: 260
m/z	intensity
60	227
61	129
73	559
100	149
114	50
115	999
159	30
160	60
161	29
187	50
188	50
260	79
