Mass Spectrum: 5-Cyclopentoxy-6-methoxy-4-methyl-8-nitroquinoline
Formula: C16H18N2O4
CAS: 108190-44-9
Molecular weight: 302
m/z	intensity
41	999
42	65
43	29
44	3
45	2
46	6
47	7
48	3
49	45
50	24
51	84
52	47
53	122
54	14
55	15
56	4
57	4
58	2
59	2
61	5
62	27
63	109
64	47
65	99
66	28
67	135
68	27
69	363
70	18
71	1
72	0
73	1
74	15
75	37
76	45
77	80
78	53
79	18
80	7
81	1
82	2
83	3
84	16
85	2
86	16
87	15
88	37
89	292
90	114
91	46
92	45
93	28
94	3
95	1
97	0
98	2
99	4
100	8
101	35
102	61
103	47
104	97
105	31
106	7
107	4
108	0
111	1
112	2
113	6
114	27
115	49
116	217
117	235
118	60
119	19
120	182
121	14
122	1
126	1
127	9
128	53
129	32
130	86
131	42
132	30
133	29
134	3
136	1
139	1
140	12
141	12
142	12
143	19
144	109
145	58
146	28
147	6
148	1
149	0
150	1
152	0
153	0
154	2
155	1
156	36
157	13
158	24
159	22
160	44
161	46
162	6
163	0
166	0
167	1
168	1
169	10
170	5
171	2
172	73
173	19
174	21
175	14
176	19
177	1
182	0
183	0
184	1
185	4
186	6
187	36
188	79
189	24
190	4
191	13
192	1
196	0
199	18
200	2
201	0
202	6
203	8
204	508
205	69
206	7
207	0
216	38
217	18
218	34
219	22
220	4
221	0
231	0
232	0
233	15
234	879
235	176
236	22
237	1
245	0
246	0
258	0
260	0
272	0
274	0
275	0
301	0
302	77
303	14
304	1
