Mass Spectrum: 3-Hydroxy-3-methylbicyclo[3.3.1]nonane-2,4-dione
Formula: C10H14O3
CAS: 108162-41-0
Molecular weight: 182
m/z	intensity
41	388
43	999
44	422
53	124
54	80
55	403
57	119
67	388
68	120
69	122
72	438
79	96
81	129
83	387
87	388
93	153
94	124
100	880
111	390
112	96
121	81
122	99
140	913
141	84
154	183
182	529
