Mass Spectrum: Dimethyl(chloromethyl)silyloxymethylbenzene
Formula: C10H15ClOSi
CAS: 108181-71-1
Molecular weight: 214
m/z	intensity
38	22
39	87
40	17
41	123
42	25
43	96
44	32
45	68
47	32
49	27
50	33
51	63
52	23
53	20
54	23
55	81
56	18
57	24
58	26
59	66
60	17
61	38
62	13
63	62
64	20
65	157
66	22
67	83
68	21
69	37
70	11
71	23
72	18
73	28
74	32
75	495
76	88
77	77
78	37
79	223
80	29
81	135
82	37
83	29
89	41
90	22
91	999
92	92
93	35
94	12
95	46
97	15
99	11
101	45
102	29
103	23
104	20
105	28
106	12
107	115
108	20
109	118
110	32
111	18
113	16
115	25
119	12
121	13
127	15
133	18
134	18
135	307
136	50
137	24
141	16
149	32
164	33
165	676
166	109
167	38
168	11
