Mass Spectrum: 6-Methoxy-4-methyl-8-nitro-5-[6-phenoxyhexyloxy]quinoline
Formula: C23H26N2O5
CAS: 108190-41-6
Molecular weight: 410
m/z	intensity
41	440
43	145
44	8
45	5
47	16
48	7
49	79
50	11
51	95
52	13
53	60
54	18
55	999
56	81
57	30
58	3
60	4
61	2
62	10
63	44
64	13
65	143
66	66
67	69
68	10
69	31
70	7
71	11
73	6
74	6
75	12
76	27
77	492
78	3
79	212
81	45
82	105
83	921
84	88
86	43
87	5
88	6
89	108
90	23
91	49
92	12
93	37
94	473
95	112
96	8
97	8
98	1
99	6
100	3
101	16
102	26
103	23
104	43
105	21
107	486
108	31
109	4
110	2
111	3
112	3
113	5
114	12
115	25
116	84
117	93
118	27
119	13
120	57
121	18
123	2
124	0
125	1
126	0
127	6
128	28
129	24
130	44
131	22
132	16
133	20
135	13
136	1
137	1
138	1
139	1
140	11
141	13
142	9
143	15
144	49
145	32
146	21
147	6
148	1
149	6
150	2
151	1
152	1
153	0
154	2
156	20
157	10
158	16
159	16
160	31
161	16
162	2
163	7
165	1
166	0
167	2
168	1
169	9
170	6
171	3
172	32
173	13
174	23
175	23
176	2
177	726
178	28
179	2
180	1
181	0
182	1
183	2
184	2
185	7
186	9
187	43
188	81
189	22
190	1
191	12
192	2
193	0
194	1
195	0
196	1
197	1
199	29
200	5
201	2
202	15
203	24
204	273
205	62
206	0
207	1
208	0
209	1
210	1
211	0
212	0
213	1
214	1
216	143
217	91
218	60
219	31
220	8
221	1
222	1
223	0
224	1
226	1
227	1
228	1
229	1
230	0
231	2
232	14
233	27
234	852
235	135
236	17
237	1
238	1
239	1
241	0
242	1
243	1
245	1
246	0
247	2
248	3
249	4
250	2
251	0
252	0
256	2
257	3
261	0
262	3
263	1
264	2
265	0
266	0
267	1
270	1
273	0
278	0
279	0
280	1
284	0
286	0
317	1
327	1
364	1
365	0
380	6
381	1
409	5
410	326
411	105
412	20
413	2
