Mass Spectrum: 3,4-Dimethylmethcathinone
Formula: C12H17NO
CAS: 1082110-00-6
Molecular weight: 191
m/z	intensity
15	4
26	1
27	11
28	20
29	11
30	46
31	1
32	1
38	1
39	14
40	2
41	8
42	29
43	17
44	2
50	5
51	14
52	5
53	8
54	2
55	5
56	47
57	18
58	999
59	37
60	1
62	3
63	11
64	3
65	8
66	1
74	2
75	2
76	3
77	46
78	16
79	28
80	2
86	1
87	1
89	6
90	2
91	13
92	1
101	1
102	5
103	28
104	8
105	29
106	5
107	1
115	4
116	1
117	2
118	1
119	5
120	1
127	1
128	1
129	1
130	1
131	2
132	2
133	31
134	4
144	1
145	1
146	1
147	1
148	2
158	1
160	2
161	2
162	1
174	1
175	1
176	2
191	1
