Mass Spectrum: Diazene, 1-cyclohexyl-2-ethoxy-, 1-oxide
Formula: C8H16N2O2
CAS: 108201-46-3
Molecular weight: 172
m/z	intensity
27	80
28	40
29	170
39	70
41	290
42	30
43	50
53	40
54	70
55	850
56	50
67	160
81	110
82	190
83	999
84	70
114	30
127	210
155	150
172	20
