Mass Spectrum: Diazene, 1-cyclopentyl-2-methoxy-, 1-oxide
Formula: C6H12N2O2
CAS: 108201-44-1
Molecular weight: 144
m/z	intensity
27	50
29	40
30	40
39	90
41	590
42	40
53	30
67	180
68	150
69	999
70	60
113	140
127	70
144	20
