Mass Spectrum: O-Butyl,O-1,2,2-trimethylpropyl methylphosphonate
Formula: C11H25O3P
CAS: 108202-66-0
Molecular weight: 236
m/z	intensity
39	70
41	250
43	179
55	91
57	277
69	60
79	108
80	81
84	29
85	109
97	999
123	291
124	69
125	320
135	29
153	119
179	119
180	50
221	9
