Mass Spectrum: 2-Heptanone, 7-bromo-1-phenyl-
Formula: C13H17BrO
CAS: 108296-20-4
Molecular weight: 268
m/z	intensity
41	240
55	150
69	999
91	760
97	160
105	100
129	140
149	100
151	90
177	690
179	680
189	70
220	10
242	10
268	10
270	10
