Mass Spectrum: Diazene, 1-cyclopentyl-2-propoxy-, 1-oxide
Formula: C8H16N2O2
CAS: 108201-45-2
Molecular weight: 172
m/z	intensity
27	140
28	50
29	50
31	30
39	90
41	530
42	40
43	540
44	40
53	30
55	60
57	30
67	190
68	170
69	999
70	60
74	70
100	330
113	180
155	110
172	40
