Mass Spectrum: Diazene, 2-butoxy-1-(1-methylethyl)-, 1-oxide
Formula: C7H16N2O2
CAS: 108201-42-9
Molecular weight: 160
m/z	intensity
27	200
28	60
29	540
30	40
39	90
41	670
42	80
43	810
44	40
55	50
56	60
57	999
58	50
74	710
75	30
88	30
105	40
113	40
143	30
160	130
161	10
