Mass Spectrum: Diazene, 2-methoxy-1-(1-methylpropyl)-, 1-oxide
Formula: C5H12N2O2
CAS: 108201-43-0
Molecular weight: 132
m/z	intensity
27	100
28	50
29	530
30	100
39	60
41	510
45	40
55	60
56	120
57	999
58	50
59	40
101	240
115	70
132	60
