Mass Spectrum: Acetic acid 7,7-dimethyl-2-oxobicyclo[2.2.1]hept-1-ylmethyl ester
Formula: C12H18O3
CAS: 108266-83-7
Molecular weight: 210
m/z	intensity
25	0
26	5
27	37
28	82
29	46
30	5
31	7
32	25
36	1
37	3
38	6
39	75
40	21
41	193
42	32
43	999
44	22
45	7
46	1
50	4
51	15
52	11
53	77
54	17
55	110
56	19
57	28
58	89
59	11
60	2
61	4
62	2
63	6
64	0
65	36
66	17
67	124
68	52
69	73
70	23
71	15
72	4
73	4
74	1
75	2
76	1
77	57
78	29
79	296
80	47
81	215
82	35
83	26
84	9
85	21
86	4
87	0
88	0
89	4
90	2
91	150
92	52
93	188
94	62
95	323
96	30
97	31
98	10
99	35
100	3
101	3
102	0
103	8
104	7
105	53
106	314
107	375
108	237
109	123
110	14
111	8
112	6
113	10
114	1
115	2
116	0
117	6
118	1
119	8
120	13
121	42
122	99
123	35
124	14
125	30
126	4
127	50
128	3
129	0
131	1
132	6
133	2
134	1
135	61
136	7
137	31
138	5
139	22
140	8
141	13
142	1
149	8
150	378
151	57
152	83
153	44
154	4
164	3
165	0
166	3
167	23
168	18
169	2
177	4
178	0
181	0
182	5
192	46
193	6
194	0
195	5
210	20
211	4
