Mass Spectrum: 1,3-Dithiane, 2-(5-bromopentyl)-2-(phenylmethyl)-
Formula: C16H23BrS2
CAS: 108296-19-1
Molecular weight: 358
m/z	intensity
41	500
45	350
55	400
65	320
73	230
91	999
106	170
107	230
115	330
117	260
119	250
128	130
129	170
135	180
145	130
171	50
189	40
193	50
195	50
209	80
221	50
223	50
267	530
269	550
315	10
358	10
360	10
