Mass Spectrum: O-Methyl,O-isopropyl,O-1,2,2-trimethylpropyl phosphate
Formula: C10H23O4P
CAS: 108202-68-2
Molecular weight: 238
m/z	intensity
39	69
41	283
43	183
55	59
57	91
69	121
84	51
85	71
95	70
96	171
113	999
137	9
138	9
139	872
140	511
141	119
155	80
181	109
182	249
223	10
