Mass Spectrum: O-Methyl,bis(O-1,2,2-trimethylpropyl) phosphate
Formula: C13H29O4P
CAS: 108202-69-3
Molecular weight: 280
m/z	intensity
39	77
41	429
43	358
55	109
57	156
69	260
84	109
85	220
95	50
96	110
113	999
139	924
140	925
141	109
197	9
223	40
224	59
