Mass Spectrum: 1-Chloro-4-p-tolysulfonyl-2-butene
Formula: C11H13ClO2S
CAS: 108320-20-3
Molecular weight: 244
m/z	intensity
41	51
43	5
44	0
45	18
47	3
48	1
49	19
50	31
51	76
52	18
53	487
54	881
55	29
57	3
58	1
59	1
61	7
62	17
63	76
64	22
65	299
66	9
67	10
69	10
70	3
71	4
73	3
74	4
75	6
76	3
77	27
78	10
79	12
80	8
81	0
82	2
84	6
85	1
86	6
88	206
89	618
91	999
92	344
93	22
95	3
97	0
99	2
103	3
105	15
107	28
108	24
109	1
111	5
115	10
116	9
117	5
118	1
121	3
122	2
123	1
124	3
125	6
126	1
127	5
128	9
129	10
130	7
131	8
132	0
139	91
140	108
141	3
142	4
143	6
145	7
155	147
156	200
157	27
158	10
160	0
166	0
179	6
180	4
181	2
182	1
189	2
207	2
208	42
209	23
210	3
243	5
244	14
245	1
246	5
247	0
