Mass Spectrum: 1-Propanamine, 3-nitro-
Formula: C3H8N2O2
CAS: 108351-04-8
Molecular weight: 104
m/z	intensity
28	44
29	104
30	999
31	49
41	181
42	104
43	384
44	54
46	63
56	393
57	221
58	81
70	45
87	63
104	54
