Mass Spectrum: (2S,6R,7S,8E)-(+)-2,7-Epoxy-4,8-megastigmadiene
Formula: C13H20O
CAS: 108342-25-2
Molecular weight: 192
m/z	intensity
53	19
55	20
65	19
77	39
79	49
91	149
93	40
107	999
122	560
134	19
192	39
