Mass Spectrum: 1-[2,3,O-Isopropylidene-5-O-p-toluenesulfonyl-.beta.-d-ribofuranosyl]-
Formula: C18H22N4O7S
CAS: 108311-09-7
Molecular weight: 438
m/z	intensity
41	160
42	20
43	477
44	90
48	22
50	20
51	70
53	41
55	105
57	25
58	58
59	81
62	19
63	121
64	23
65	347
68	245
69	140
70	21
71	22
77	178
79	129
81	154
83	19
85	104
89	148
90	205
91	999
92	123
96	93
97	129
107	284
108	166
113	259
119	50
125	20
126	51
137	26
139	182
141	22
154	48
155	297
167	21
171	20
172	586
173	86
174	19
179	52
191	117
195	63
208	75
225	55
251	179
267	147
283	76
326	217
327	77
363	57
423	217
424	24
438	99
439	22
