Mass Spectrum: 2-[5-Deoxy-5-acetylthio-2,3-di-O-isopropylidene-.beta.-d-ribofuranosyl]-thiazole-4-carboxamide
Formula: C14H18N2O5S2
CAS: 108311-15-5
Molecular weight: 358
m/z	intensity
41	62
42	39
43	999
44	76
45	80
46	19
47	27
48	2
51	2
52	12
53	20
54	9
55	25
56	3
57	46
58	51
59	95
60	14
61	9
64	2
65	2
66	3
67	3
68	40
69	33
70	20
71	20
72	12
73	34
74	5
75	5
76	2
77	2
78	3
79	2
81	11
82	7
83	18
84	63
85	73
86	10
87	11
89	4
91	2
94	15
95	3
96	4
97	22
98	10
99	13
100	16
101	49
102	61
103	7
104	2
106	2
108	5
109	14
110	11
111	25
112	20
113	26
114	3
115	2
117	2
122	5
123	3
124	7
125	16
126	210
127	33
128	10
129	22
130	2
131	3
136	24
137	37
138	29
139	11
140	123
141	27
142	21
143	7
144	5
150	7
151	3
152	16
153	14
154	50
155	28
156	15
157	319
158	119
159	30
160	51
161	17
162	4
164	3
166	33
167	10
168	8
169	13
170	9
171	20
172	2
173	12
174	23
176	4
178	17
179	8
180	13
181	4
182	16
183	45
184	9
185	4
186	3
194	34
195	19
196	9
197	35
198	7
199	23
200	10
201	3
202	4
207	10
208	12
209	2
211	42
212	11
213	17
214	3
215	7
216	307
217	30
218	31
219	2
222	3
223	3
224	24
225	83
226	10
227	4
234	2
239	3
240	12
241	12
242	6
257	26
258	21
259	14
260	2
267	2
269	7
283	9
284	11
299	3
300	3
301	22
302	2
315	50
316	56
317	13
318	4
343	27
344	3
345	2
357	3
358	9
359	2
