Mass Spectrum: Acetamide, 2,2'-[(2,2-dimethyl-1,3-propanediyl)bis(oxy)]bis[N,N-dicyclohexyl-
Formula: C33H58N2O4
CAS: 108444-70-8
Molecular weight: 546
m/z	intensity
26	7
27	32
28	27
29	55
30	105
31	16
37	2
38	3
39	43
40	8
41	261
42	47
43	103
44	53
45	52
46	6
47	0
48	7
49	1
50	4
51	6
52	4
53	29
54	68
55	595
56	167
57	43
58	61
59	27
60	115
61	8
62	1
63	3
64	0
65	8
66	5
67	77
68	43
69	152
70	48
71	43
72	15
73	12
74	39
75	10
76	94
77	12
78	4
79	25
80	18
81	135
82	72
83	999
84	91
85	36
86	18
87	11
88	46
89	5
90	1
91	11
92	3
93	7
94	12
95	24
96	35
97	33
98	234
99	54
100	34
101	16
102	5
104	4
105	4
106	5
107	3
108	9
109	10
110	67
111	16
112	51
113	9
114	7
115	16
116	3
117	6
118	1
119	1
120	2
121	3
122	6
123	7
124	16
125	11
126	278
127	29
128	13
129	3
130	5
131	3
132	1
133	1
134	2
135	5
136	16
137	8
138	50
139	29
140	258
141	106
142	68
143	9
144	7
145	7
146	2
147	1
148	2
149	11
150	9
151	4
152	8
153	2
154	9
155	3
156	90
157	18
158	111
159	12
160	9
161	1
162	3
163	1
164	8
165	4
166	19
167	6
168	8
169	3
170	27
171	4
172	2
173	2
174	4
175	2
176	2
177	1
178	60
179	23
180	244
181	44
182	12
183	2
184	2
185	1
186	1
187	1
188	1
189	2
190	4
191	5
192	15
193	6
194	28
195	5
196	3
197	1
198	4
199	1
200	1
201	1
202	3
203	1
204	1
205	1
206	10
207	2
208	109
209	18
210	6
211	1
212	4
213	1
214	1
215	0
216	0
217	1
218	1
219	2
220	4
221	33
222	47
223	55
224	23
225	4
226	45
227	16
228	6
230	1
232	0
236	2
237	1
238	178
239	46
240	49
241	8
242	33
243	5
244	7
245	1
246	0
247	0
248	0
249	0
250	1
251	0
252	24
253	4
254	2
255	1
256	37
257	9
258	3
259	0
260	0
264	0
265	0
266	1
267	0
268	1
269	0
270	0
278	0
279	1
280	2
281	2
282	1
283	2
284	0
291	0
292	4
293	1
294	9
295	8
296	2
297	0
299	1
300	1
301	6
302	1
306	2
307	1
308	66
309	90
310	20
311	3
312	1
313	1
314	3
315	1
316	1
321	0
322	1
323	2
324	445
325	106
326	28
327	4
328	0
336	0
337	1
338	208
339	69
340	13
341	2
353	0
362	0
363	0
364	0
365	0
366	0
367	0
368	0
369	0
381	21
382	6
383	9
384	2
397	2
398	1
399	0
407	0
419	0
421	0
435	1
458	0
463	39
464	13
465	6
466	2
467	0
517	1
530	1
546	62
547	33
549	8
550	1
