Mass Spectrum: Cyclopentanecarboxylic acid, 3-ethenyl-2-methylene-
Formula: C9H12O2
CAS: 108451-43-0
Molecular weight: 152
m/z	intensity
26	20
27	142
28	7
29	65
30	2
31	4
37	5
38	21
39	173
40	32
41	117
42	10
43	26
44	15
45	66
46	2
47	1
49	2
50	40
51	89
52	43
53	102
54	27
55	38
56	6
57	7
58	1
59	2
60	2
61	4
62	12
63	35
64	7
65	117
66	26
67	73
68	11
69	10
70	4
71	3
73	10
74	8
75	5
76	4
77	261
78	111
79	948
80	130
81	43
82	9
83	8
84	3
85	2
86	3
87	2
89	5
90	2
91	604
92	105
93	103
94	9
95	22
96	8
97	10
98	3
99	7
100	2
102	4
103	33
104	9
105	178
106	261
107	999
108	111
109	33
110	5
111	5
115	1
119	14
120	2
121	2
122	3
123	41
124	15
125	7
126	2
133	5
134	15
135	5
136	1
137	33
138	4
141	2
151	3
152	69
153	8
154	1
