Mass Spectrum: Cyclopentanecarboxylic acid, 3-ethenyl-2-methyl-
Formula: C9H14O2
CAS: 108451-44-1
Molecular weight: 154
m/z	intensity
26	38
27	356
28	34
29	144
30	3
31	13
37	10
38	35
39	556
40	30
41	525
42	60
43	90
44	5
45	168
46	7
47	5
49	1
50	46
51	88
52	52
53	286
54	580
55	274
56	23
57	31
58	7
59	1
60	5
61	4
62	11
63	29
64	6
65	115
66	56
67	960
68	146
69	103
70	13
71	18
72	2
73	128
74	14
75	4
76	1
77	94
78	66
79	163
80	174
81	999
82	230
83	35
84	15
85	17
86	101
87	63
88	5
89	3
93	218
94	48
95	26
96	3
97	98
98	17
99	11
100	14
108	237
109	854
110	70
111	167
112	16
113	5
121	9
124	2
125	103
126	278
127	24
128	0
136	61
137	4
139	16
154	22
155	1
