Mass Spectrum: Cyclopropanecarboxylic acid, 1-(2-propenyl)-, 1,1-dimethylethyl ester
Formula: C11H18O2
CAS: 108546-98-1
Molecular weight: 182
m/z	intensity
26	12
27	112
28	14
29	204
30	5
31	13
37	4
38	10
39	162
40	38
41	477
42	35
43	67
44	9
45	10
50	13
51	28
52	28
53	115
54	58
55	69
56	180
57	999
58	49
59	12
60	5
63	4
65	22
66	29
67	106
68	22
69	26
70	24
71	9
77	32
78	8
79	163
80	186
81	628
82	58
83	151
84	17
85	8
86	2
87	3
91	8
92	3
93	13
94	2
95	8
96	3
97	47
98	70
99	27
100	2
105	4
106	2
107	7
108	88
109	305
110	24
111	173
112	13
113	2
120	2
121	2
125	32
126	670
127	74
128	7
140	1
141	3
142	1
153	2
154	1
166	1
167	4
168	1
