Mass Spectrum: Ethyl 2-aza-3-oxatricyclo[3.3.3.0(1,5)]undecane-4-carboxylate
Formula: C12H19NO3
CAS: 108583-32-0
Molecular weight: 225
m/z	intensity
41	999
43	353
55	574
67	497
79	606
91	327
93	327
95	302
96	521
107	503
108	270
119	433
121	413
122	357
123	162
124	716
134	305
147	371
150	139
151	120
152	629
162	163
179	271
180	98
193	64
197	65
208	262
225	782
