Mass Spectrum: 1-(.alpha.-Hydroxy-phenyl-methyl)-cyclopropanecarboxylic acid, t-butyl ester
Formula: C15H20O3
CAS: 108547-00-8
Molecular weight: 248
m/z	intensity
25	4
26	31
27	152
28	69
29	163
30	4
31	9
36	4
37	24
38	51
39	423
40	145
41	999
43	46
44	43
46	59
50	15
51	70
52	115
53	61
54	20
55	197
56	447
57	461
58	22
59	13
61	4
62	10
63	30
64	20
65	27
66	4
67	11
68	72
69	44
70	14
71	24
73	12
74	14
75	18
76	20
77	183
78	43
79	137
80	12
81	15
82	8
83	14
84	7
85	14
86	35
87	13
88	3
89	22
90	15
91	58
92	10
93	7
94	6
95	9
96	4
97	15
98	5
99	6
101	7
102	24
103	21
104	20
105	374
106	39
107	164
108	15
109	6
110	5
111	7
112	3
113	10
114	5
115	134
116	47
117	26
118	23
119	10
120	7
121	5
122	6
123	3
124	3
125	4
126	8
127	41
128	88
129	278
130	84
131	42
132	6
133	3
135	7
136	3
137	4
141	13
142	11
143	6
144	5
145	31
146	139
147	21
148	5
155	6
156	4
157	46
158	8
159	23
164	4
165	5
167	8
172	5
173	193
174	127
175	66
176	8
177	14
178	3
179	3
190	4
191	244
192	254
193	24
