Mass Spectrum: Cyclopropanecarboxylic acid, 1-(phenylmethyl)-, 1,1,-dimethylethyl ester
Formula: C15H20O2
CAS: 108546-99-2
Molecular weight: 232
m/z	intensity
26	12
27	82
28	21
29	206
30	5
31	5
37	5
38	12
39	143
40	29
41	408
42	21
43	38
44	12
45	5
49	3
50	27
51	76
52	23
53	57
54	13
55	52
56	97
57	999
58	51
59	6
62	5
63	30
64	16
65	115
66	10
67	5
68	4
69	18
70	8
71	8
74	7
75	10
76	17
77	87
78	110
79	27
80	5
81	15
82	3
83	7
84	2
85	4
87	5
88	2
89	24
90	9
91	769
92	63
93	5
97	5
98	12
99	8
100	4
101	5
102	36
103	62
104	60
105	23
106	2
107	33
108	6
111	5
115	119
116	75
117	105
118	12
119	5
120	5
121	3
126	4
127	21
128	50
129	184
130	817
131	457
132	49
133	21
134	3
141	7
142	4
143	6
147	51
148	25
149	7
157	64
158	84
159	310
160	41
161	57
162	7
165	3
173	3
174	4
175	221
176	903
177	111
178	16
179	6
180	6
232	3
