Mass Spectrum: 1-Propanol, 2-methyl-1-[1-(hydroxymethyl)cyclopropyl]
Formula: C8H16O2
CAS: 108546-80-1
Molecular weight: 144
m/z	intensity
26	9
27	115
28	4
29	137
30	5
31	62
37	2
38	6
39	107
40	18
41	133
42	21
43	138
44	17
45	26
46	1
47	4
50	5
51	16
52	8
53	65
54	63
55	436
56	46
57	55
58	7
59	13
60	2
63	2
65	15
66	5
67	33
68	7
69	38
70	23
71	24
72	12
73	139
74	13
75	2
77	11
78	2
79	12
80	3
81	27
82	11
83	999
84	69
85	21
86	1
87	1
91	6
93	12
94	2
95	10
96	3
97	13
98	24
99	16
100	1
101	313
102	21
103	3
105	1
107	2
108	1
109	22
110	2
111	9
112	1
113	1
115	1
116	5
125	3
126	17
127	44
128	4
129	1
