Mass Spectrum: 2-Benzoyloxy-1,1,10-trimethyl-6,9-epidioxydecalin
Formula: C20H26O4
CAS: 108511-83-7
Molecular weight: 330
m/z	intensity
41	103
42	17
43	69
44	6
45	5
47	13
48	7
49	59
50	12
51	61
52	4
53	23
54	7
55	70
56	20
57	42
58	3
59	5
60	2
63	1
64	0
65	10
66	4
67	48
68	69
69	191
70	19
71	13
72	1
73	3
74	3
75	3
76	18
77	297
78	26
79	38
80	19
81	211
82	43
83	48
84	56
85	209
86	36
87	1
88	6
89	1
91	44
92	7
93	33
94	12
95	40
96	16
97	20
98	11
99	7
100	11
101	8
102	0
104	24
105	999
106	96
107	46
108	33
109	65
110	32
111	35
112	8
113	3
114	4
115	3
116	0
117	3
118	1
119	21
120	7
121	23
122	22
123	228
124	36
125	10
126	16
127	7
128	51
129	6
131	30
132	3
133	17
134	10
135	16
136	7
137	11
138	7
139	54
140	18
141	16
142	2
143	1
144	0
145	3
146	3
147	19
148	5
149	14
150	6
151	22
152	6
153	7
154	2
155	1
157	3
158	0
159	5
160	0
161	7
162	3
163	2
164	9
165	20
166	4
167	3
169	5
171	0
172	0
173	1
174	1
175	18
176	6
177	3
178	1
179	3
180	5
181	4
189	1
190	4
191	2
192	2
193	20
194	3
195	1
197	0
202	4
203	1
204	0
207	7
208	17
209	5
210	6
211	1
214	1
219	34
220	1
225	0
226	1
227	0
231	3
245	2
248	1
256	0
264	10
296	1
297	0
313	1
330	18
331	4
332	0
