Mass Spectrum: 2-Acetoxy-1,1,10-trimethyl-6,9-epidioxydecalin
Formula: C15H24O4
CAS: 108511-84-8
Molecular weight: 268
m/z	intensity
41	272
42	59
43	999
44	27
45	11
47	1
49	5
50	2
51	11
52	6
53	56
54	16
55	184
56	53
57	107
58	9
59	17
60	2
61	8
63	2
64	1
65	18
66	7
67	110
68	121
69	324
70	56
71	109
72	35
73	4
74	0
75	0
76	0
77	32
78	15
79	78
80	29
81	410
82	95
83	154
85	521
86	37
87	7
88	1
89	1
91	45
92	11
93	64
94	20
95	150
96	35
97	50
98	35
99	26
100	17
101	10
103	6
104	4
105	41
106	19
107	80
108	42
109	124
110	40
111	70
112	14
113	8
114	3
115	5
116	3
117	7
118	4
119	30
120	11
121	54
122	18
123	263
124	38
125	25
126	20
127	21
128	52
129	11
130	1
131	11
132	3
133	30
134	10
135	32
136	10
137	36
138	12
139	63
140	17
141	32
142	4
143	2
144	0
145	5
146	3
147	24
148	6
149	19
150	4
151	31
152	9
153	9
154	3
155	3
156	0
157	3
159	11
160	1
161	9
162	2
163	16
164	6
165	17
166	4
167	3
168	1
169	3
170	1
173	4
174	2
175	28
176	4
177	8
178	4
179	7
180	3
181	5
183	2
189	3
190	1
191	4
192	1
193	21
194	5
195	1
197	0
205	0
207	7
208	5
209	3
210	1
211	1
223	0
226	1
236	5
237	1
240	0
268	59
269	9
270	0
