Mass Spectrum: 1,2-Butadiene, 1,1-dichloro-
Formula: C4H4Cl2
CAS: 108562-61-4
Molecular weight: 122
m/z	intensity
41	48
42	11
43	35
44	119
45	12
47	39
48	41
49	196
50	560
51	999
52	168
53	49
59	22
60	62
61	173
62	49
63	70
64	17
65	21
71	11
74	12
75	13
83	14
84	21
85	53
86	219
87	889
88	128
89	263
90	22
96	27
98	20
102	24
104	10
107	14
108	18
109	16
110	11
122	460
123	20
124	310
125	15
126	50
