Mass Spectrum: 1-Pentene, 1,1,2-trichloro-4-methyl-
Formula: C6H9Cl3
CAS: 108562-63-6
Molecular weight: 186
m/z	intensity
42	271
43	999
44	32
47	24
49	34
50	20
51	35
53	13
61	14
62	15
63	26
65	10
72	27
73	107
74	12
75	33
77	16
83	58
84	11
85	38
87	15
99	25
107	13
108	6
109	31
110	7
111	13
143	25
144	36
145	28
146	30
147	10
148	11
149	4
185	1
186	25
187	3
188	22
189	2
190	11
191	1
