Mass Spectrum: Spiro[4.5]dec-7-en-6-one, 7-hydroxy-
Formula: C10H14O2
CAS: 108573-05-3
Molecular weight: 166
m/z	intensity
26	38
27	363
28	136
29	165
31	30
38	33
39	412
40	101
41	451
42	131
43	309
44	44
45	25
50	48
51	129
52	86
53	362
54	99
55	432
56	48
57	107
58	15
59	16
60	47
61	17
62	19
63	55
64	35
65	114
66	81
67	282
68	112
69	97
70	35
71	43
73	31
77	149
78	117
79	150
80	42
81	249
82	312
83	112
84	43
85	39
89	17
90	14
91	280
92	128
93	64
94	54
95	288
96	339
97	104
98	22
99	13
102	37
103	27
104	21
105	140
106	183
107	66
108	23
109	999
110	200
111	151
112	18
115	30
117	21
119	62
120	85
121	32
123	55
124	430
125	68
129	25
130	12
131	13
133	83
137	850
138	408
139	43
147	75
148	400
149	66
151	21
165	53
166	217
167	25
