Mass Spectrum: 9-Dimethylamino-10-ethoxycarbonyl-9-aza[3.3.2]propellane
Formula: C14H24N2O2
CAS: 108583-42-2
Molecular weight: 252
m/z	intensity
29	810
41	480
43	660
44	999
59	740
67	190
71	200
74	240
77	190
79	390
80	250
91	150
93	130
99	610
102	130
103	180
107	110
108	200
119	40
137	80
144	130
145	190
165	30
179	100
210	30
252	110
