Mass Spectrum: Pyrrolidine, 1-(1-oxo-5,7,9,14,17-eicosapentaenyl)-, (E,E,E,Z,Z)-
Formula: C24H37NO
CAS: 108543-68-6
Molecular weight: 355
m/z	intensity
55	461
70	262
98	193
113	999
126	59
140	18
152	24
166	14
178	6
192	6
204	6
218	11
232	10
246	14
260	3
272	5
286	18
300	3
312	4
326	3
340	2
355	67
356	17
