Mass Spectrum: 2-Acetyl-3-phenyl-4-ethoxycarbonyl-2,3-diazatricyclo(3.3.3.0(1,5))undecane
Formula: C20H26N2O3
CAS: 108583-40-0
Molecular weight: 342
m/z	intensity
29	709
41	872
43	999
55	559
57	422
77	610
84	680
86	393
91	161
105	149
141	109
204	100
227	49
229	320
269	30
300	80
342	49
