Mass Spectrum: 2-Butyloxycarbonyloxy-1,1,10-trimethyl-6,9-epidioxydecalin
Formula: C18H30O5
CAS: 108533-24-0
Molecular weight: 326
m/z	intensity
41	999
42	118
43	676
44	38
45	32
46	2
47	12
48	5
49	48
50	5
51	28
52	8
53	116
54	36
55	431
56	218
57	774
58	49
59	41
60	5
61	3
62	1
63	24
64	4
65	36
66	10
67	224
68	323
69	734
70	114
71	237
72	55
73	17
74	10
75	1
76	1
77	54
78	14
79	133
80	76
81	969
82	189
83	219
84	97
85	973
86	81
87	17
88	5
89	8
90	2
91	130
92	22
93	141
94	45
95	207
96	67
97	93
98	60
99	38
100	20
101	25
102	2
103	10
104	4
105	82
106	40
107	159
108	109
109	277
110	66
111	102
112	21
113	12
114	3
115	6
116	6
117	14
118	7
119	71
120	21
121	83
122	46
123	558
124	96
125	42
126	44
127	28
128	92
129	17
130	3
131	19
132	8
133	57
134	24
135	53
136	19
137	39
138	30
139	130
140	40
141	51
142	7
143	3
144	3
145	9
146	7
147	54
148	13
149	37
150	10
151	65
152	18
153	18
154	4
155	3
156	0
157	4
158	2
159	15
160	3
161	14
162	6
163	19
164	15
165	37
166	7
167	6
168	1
169	2
171	4
172	2
173	10
174	4
175	65
176	14
177	7
178	2
179	10
180	6
181	2
183	0
184	0
187	7
188	3
189	2
190	3
191	8
192	8
193	41
194	6
195	1
199	0
205	0
206	1
207	3
208	14
209	21
210	5
211	2
215	0
227	1
229	1
293	0
294	0
326	20
327	4
