Mass Spectrum: Cyclopropanecarboxylic acid, 2-methyl-, 2,6-di-t-butyl-4-methylphenyl ester
Formula: C20H30O2
CAS: 108546-82-3
Molecular weight: 302
m/z	intensity
25	0
27	17
28	1
29	49
30	1
39	19
40	2
41	37
42	2
43	8
50	0
51	3
52	1
53	14
54	4
55	137
56	6
57	59
58	2
63	0
65	4
66	1
67	3
68	1
69	4
77	8
78	2
79	6
80	0
81	2
82	2
83	999
84	57
85	3
91	14
92	1
93	3
94	0
95	1
103	2
104	1
105	14
106	2
107	3
108	1
109	1
115	7
116	3
117	4
118	1
119	9
120	2
121	6
122	1
123	1
127	2
128	5
129	6
130	3
131	5
132	1
133	6
134	2
135	4
136	1
137	0
141	4
142	2
143	2
144	1
145	5
146	1
147	3
148	1
149	4
150	0
151	0
152	0
153	1
154	0
155	2
156	2
157	1
158	0
159	2
160	1
161	12
162	2
163	3
164	0
172	0
173	1
174	1
175	2
176	0
177	2
187	1
188	0
189	13
190	2
191	1
203	1
204	2
205	18
206	2
219	1
220	17
221	3
231	0
245	1
287	2
302	20
303	4
304	0
