Mass Spectrum: Phenethylamine, N-benzyl-.alpha.-methyl-
Formula: C16H19N
CAS: 1085-42-3
Molecular weight: 225
m/z	intensity
39	40
40	5
41	20
42	17
43	4
44	30
45	7
50	13
51	20
52	6
54	3
55	2
56	6
57	2
58	3
62	3
63	17
64	8
65	88
66	7
69	3
72	21
75	2
76	4
77	18
78	6
79	6
86	12
89	15
90	13
91	999
92	90
93	4
97	3
103	7
104	3
105	18
106	7
115	7
116	2
117	11
118	6
119	4
130	3
132	72
133	11
134	844
135	73
136	6
210	2
224	2
