Mass Spectrum: 3-Butenal, 3,4,4-trichloro-
Formula: C4H3Cl3O
CAS: 108562-62-5
Molecular weight: 172
m/z	intensity
41	386
42	290
44	932
45	205
47	273
49	341
50	341
51	523
53	273
59	341
61	364
62	227
63	341
65	795
72	250
73	999
75	500
83	614
84	205
85	614
87	136
101	591
103	227
107	227
108	432
109	682
110	364
111	500
123	273
130	591
132	500
134	205
137	318
139	182
143	659
144	114
145	750
146	114
147	227
172	182
174	182
176	68
