Mass Spectrum: Cyclopropanecarboxylic acid, 1-methyl-, 2,6-bis(1,1-dimethylethyl)-4-methylphenyl ester
Formula: C20H30O2
CAS: 108546-68-5
Molecular weight: 302
m/z	intensity
26	14
27	4
28	39
39	17
40	2
41	39
42	2
43	7
50	3
52	14
53	5
55	290
56	14
57	65
58	3
65	4
67	4
69	29
77	10
78	2
79	7
81	2
82	2
83	999
84	57
85	3
91	18
92	2
93	5
103	3
105	16
106	2
107	4
115	9
116	4
117	5
119	12
120	2
121	8
123	2
127	3
128	7
129	8
130	4
131	6
133	8
134	2
135	6
141	5
142	2
143	2
145	6
146	2
147	4
148	2
149	5
155	3
156	2
159	2
161	15
162	2
163	4
173	2
177	2
189	14
190	2
203	2
204	2
205	5
221	3
288	3
302	31
303	6
304	0
