Mass Spectrum: 4-Benzyloxy-1,2-dihydro-1-hydroxy-2-oxoquinazoline
Formula: C15H12N2O3
CAS: 108619-11-0
Molecular weight: 268
m/z	intensity
17	7
18	1
26	1
27	5
28	12
29	3
30	1
31	3
37	3
38	6
39	24
40	2
41	9
42	2
43	6
44	13
45	8
50	10
51	19
52	13
53	3
54	1
55	2
56	1
57	4
58	3
59	1
60	4
61	4
62	9
63	25
64	19
65	101
66	6
67	2
69	2
70	4
71	3
72	1
73	1
74	3
75	6
76	17
77	34
78	9
79	45
80	3
81	2
83	2
85	2
87	1
88	4
89	29
90	26
91	999
92	106
93	5
95	1
96	1
97	2
99	1
102	6
103	4
104	19
105	20
106	13
107	26
108	9
109	1
111	2
115	1
116	16
117	5
118	22
119	46
120	26
121	3
125	3
126	2
128	2
129	1
130	1
132	10
133	3
134	11
135	129
136	10
137	1
144	53
145	10
146	74
147	18
148	3
149	2
152	1
153	1
160	1
162	54
163	6
165	1
166	1
167	1
178	21
179	5
180	10
181	8
182	1
190	1
195	1
206	1
207	1
208	8
209	2
221	4
222	1
223	3
224	3
225	5
226	1
234	4
235	61
236	10
237	11
238	2
250	2
251	202
252	107
253	16
254	1
267	1
268	198
269	37
270	4
