Mass Spectrum: (E)-Atlantone
Formula: C15H22O
CAS: 108645-54-1
Molecular weight: 218
m/z	intensity
26	1
27	34
28	5
29	58
30	1
31	1
37	1
38	4
39	122
40	25
41	155
42	13
43	44
44	1
45	1
50	7
51	34
52	18
53	112
54	19
55	283
56	14
57	6
58	2
59	4
62	2
63	13
64	5
65	81
66	30
67	174
68	32
69	106
70	8
71	6
72	1
73	1
74	2
75	2
76	3
77	132
78	30
79	167
80	36
81	66
82	37
83	999
84	56
85	21
86	2
87	1
88	2
89	5
90	2
91	169
92	30
93	117
94	53
95	172
96	91
97	12
98	4
99	8
100	1
101	1
102	3
103	18
104	6
105	195
106	30
107	261
108	69
109	164
110	16
111	16
112	3
113	1
115	34
116	10
117	35
118	9
119	129
120	150
121	145
122	58
123	540
124	78
125	94
126	13
127	5
128	14
129	21
130	6
131	15
133	32
134	25
135	580
136	70
137	31
138	33
139	4
141	5
142	8
143	16
144	6
145	16
146	6
147	56
148	10
149	54
150	102
151	14
152	2
153	1
154	1
155	2
156	3
157	17
158	4
159	6
160	5
161	24
162	13
163	24
164	3
165	1
167	1
169	1
170	2
171	2
172	1
173	2
174	1
175	42
176	9
177	3
183	1
185	8
186	1
187	1
188	1
189	6
190	12
191	2
200	3
201	1
203	147
204	22
205	2
217	2
218	193
219	32
220	3
