Mass Spectrum: 4,5-Dihydro-4,4-tetradecamethylene-2-phenyl-1,3-oxazin-6-one
Formula: C24H35NO2
CAS: 108679-31-8
Molecular weight: 369
m/z	intensity
67	354
68	250
69	518
70	112
71	187
72	10
73	32
75	24
76	239
77	556
78	22
79	75
80	60
81	402
82	393
83	364
84	81
85	85
86	12
91	14
92	19
93	49
94	73
95	325
96	287
97	225
98	519
99	19
102	19
103	912
104	75
105	999
106	100
107	35
108	38
109	158
110	131
111	85
112	19
121	33
122	281
123	81
124	42
125	24
133	13
135	24
137	20
138	16
159	66
160	20
161	60
162	13
186	42
187	147
188	19
200	54
201	89
202	13
206	57
207	9
214	19
215	14
220	29
221	7
222	29
223	7
228	4
236	9
248	60
249	9
266	2
283	1
297	1
340	35
341	3
369	2
