Mass Spectrum: 5-Trifluoromethyl-1,6-diazabicyclo[3.1.0]hexane
Formula: C5H7F3N2
CAS: 108602-77-3
Molecular weight: 152
m/z	intensity
26	48
27	103
28	204
29	84
30	22
38	28
39	101
40	55
41	147
42	105
43	32
44	5
54	308
55	110
56	527
57	86
58	6
59	75
60	6
69	999
70	27
75	147
76	577
77	222
78	21
83	418
84	47
85	7
95	121
96	322
97	18
103	173
104	139
105	32
106	5
111	61
112	139
113	15
117	223
118	4
123	42
124	608
125	297
126	15
131	65
132	5
151	377
152	129
153	8
