Mass Spectrum: Phenyl buta-2,3-dienyl ether
Formula: C10H10O
CAS: 108685-67-2
Molecular weight: 146
m/z	intensity
51	361
52	81
53	514
55	162
62	29
63	87
65	263
66	469
74	32
75	16
77	361
78	42
79	61
91	94
93	39
94	999
95	218
103	42
104	97
105	55
115	91
116	45
117	182
118	175
119	61
128	16
129	39
131	921
132	127
144	13
145	472
146	364
147	48
