Mass Spectrum: 2-(4-Methyl-1H-1,2,3-triazol-1-yl)ethan-1-amine
Formula: C5H10N4
CAS: 1086601-35-5
Molecular weight: 126
m/z	intensity
30	58
37	28
38	87
39	152
40	72
41	689
42	482
43	368
44	443
45	14
51	19
52	56
53	17
54	163
55	25
56	21
65	5
66	18
67	38
68	215
69	153
70	26
82	5
83	6
84	46
97	999
98	51
126	55
127	5
