Mass Spectrum: Silane, [1,2,3,4,5,6-benzenehexaylhexakis(methyleneoxy)]hexakis[trimethyl-
Formula: C30H66O6Si6
CAS: 108638-04-6
Molecular weight: 690
m/z	intensity
26	1
27	0
28	22
29	1
30	0
31	0
39	0
40	5
41	0
43	2
44	3
45	39
46	2
47	3
48	0
51	0
52	0
53	0
55	0
56	0
57	0
58	1
59	8
60	0
61	2
63	0
65	0
66	0
67	0
69	0
70	0
71	0
72	3
73	999
74	82
75	60
76	3
77	2
78	0
79	0
81	0
82	0
83	0
85	0
87	1
88	0
89	2
90	0
91	2
93	0
97	0
98	0
101	0
102	0
103	14
104	1
105	1
113	0
115	3
116	1
117	2
118	0
119	1
120	0
122	0
127	1
128	5
129	5
130	2
131	9
132	1
133	22
134	3
135	1
136	0
139	0
140	0
141	7
142	2
143	4
144	1
145	3
146	1
147	253
148	37
149	22
150	2
151	0
152	0
153	1
154	1
155	3
156	3
157	12
158	15
159	9
160	1
161	3
162	0
163	1
164	0
165	0
166	0
167	0
168	0
169	10
170	3
171	10
172	2
173	4
174	2
175	3
176	0
177	0
178	0
179	0
180	0
181	0
182	0
183	3
184	4
185	17
186	3
187	13
188	3
189	2
190	1
191	64
192	11
193	6
194	0
195	0
197	0
198	0
199	3
200	0
201	4
202	3
203	6
204	1
205	3
206	0
207	4
208	0
209	1
211	1
212	0
213	1
214	0
215	5
216	2
217	6
218	2
219	3
220	6
221	13
222	2
223	1
224	0
225	0
227	1
228	1
229	4
230	5
231	15
232	5
233	7
234	1
235	1
237	0
241	1
242	1
243	6
244	2
245	23
246	6
247	11
248	39
249	9
250	2
251	0
253	0
255	0
256	1
257	14
258	11
259	43
260	9
261	14
262	4
263	2
264	0
265	0
266	0
267	0
269	0
271	0
273	4
274	2
275	21
276	11
277	6
278	1
279	0
280	0
281	2
282	0
285	0
286	0
287	0
288	0
289	2
290	0
291	3
292	3
293	2
294	0
295	1
296	0
301	1
302	0
303	3
304	2
305	11
306	4
307	3
308	1
309	0
310	0
315	1
316	0
317	4
318	3
319	7
320	12
321	12
322	5
323	1
324	3
325	0
329	0
330	1
331	18
332	6
333	14
334	5
335	16
336	5
337	2
338	0
345	0
346	2
347	14
348	17
349	17
350	5
351	1
352	0
353	0
361	0
363	1
364	0
365	33
366	10
367	4
368	0
369	0
377	1
378	0
379	2
380	0
381	0
382	0
389	0
391	2
392	5
393	6
394	2
395	10
396	4
397	1
398	0
405	6
406	3
407	13
408	4
409	6
410	35
411	13
412	6
413	1
414	0
419	1
420	13
421	13
422	6
423	30
424	10
425	6
426	2
427	0
435	0
436	0
437	8
438	48
439	19
440	8
441	3
467	1
468	0
469	0
471	0
481	0
482	1
483	11
484	5
485	2
486	0
487	0
495	5
496	4
497	29
498	14
499	6
500	1
501	0
502	0
509	0
510	16
511	9
512	5
513	3
514	1
515	0
526	0
527	16
528	8
529	4
530	0
585	7
586	5
587	3
588	0
589	0
600	166
601	92
602	53
603	21
604	5
605	2
606	0
675	18
676	12
677	7
678	3
679	1
680	0
