Mass Spectrum: 1,3,4-Thiadiazol-2-amine, 5-(2-bromophenyl)-
Formula: C8H6BrN3S
CAS: 108656-64-0
Molecular weight: 255
m/z	intensity
33	10
34	4
35	1
36	4
37	26
38	33
39	67
40	12
41	13
42	41
43	11
44	17
45	39
46	9
47	43
48	5
49	24
50	102
51	58
52	11
53	2
54	1
55	1
56	2
57	6
58	11
59	27
60	125
61	31
62	69
63	61
64	17
65	3
66	1
69	66
70	17
71	6
74	999
75	139
76	124
77	18
79	9
80	8
81	16
82	13
83	3
84	5
85	10
86	16
87	21
88	40
89	77
90	58
91	7
92	7
93	43
94	35
95	5
96	2
97	1
98	1
99	7
100	8
102	106
103	25
104	7
105	3
106	6
107	14
108	4
109	2
111	9
112	1
113	4
114	3
115	2
116	3
117	17
118	5
119	28
120	137
121	21
122	8
123	3
124	1
125	4
126	1
127	5
128	8
129	6
130	1
131	1
133	17
134	82
135	8
136	4
137	6
138	22
139	3
140	7
141	2
142	1
143	2
144	0
145	0
146	2
147	1
148	1
149	4
150	0
151	0
152	3
153	1
155	25
156	3
157	13
158	1
159	0
160	0
161	0
162	0
164	0
165	0
167	6
169	15
170	1
171	4
172	0
173	0
176	0
177	1
178	0
179	0
181	20
182	87
183	24
184	86
185	7
186	0
187	0
188	0
189	0
191	0
192	0
194	0
196	9
197	2
198	10
199	41
201	45
202	4
203	1
204	0
205	0
206	0
207	0
209	1
211	42
212	6
213	37
214	5
215	23
216	2
217	1
239	0
241	0
242	0
248	0
252	1
255	196
256	27
257	177
258	19
259	8
260	0
