Mass Spectrum: 3-(Methoxymethoxy)butanoic acid
Formula: C6H12O4
CAS: 1086255-73-3
Molecular weight: 148
m/z	intensity
27	17
29	13
31	9
32	8
38	8
39	51
40	15
41	77
42	66
43	999
44	41
45	107
46	3
54	2
55	11
58	43
59	5
60	17
61	70
67	4
68	57
69	49
71	85
72	9
73	18
74	5
79	3
85	95
86	174
87	99
88	11
89	9
100	18
101	5
102	20
103	205
104	14
131	10
