Mass Spectrum: 4,5-Dihydro-4,4-undecamethylene-2-phenyl-1,3-oxazin-6-one
Formula: C21H29NO2
CAS: 108679-30-7
Molecular weight: 327
m/z	intensity
67	401
68	215
69	478
70	91
71	205
73	59
74	29
75	72
76	38
77	540
78	25
79	96
80	40
81	349
82	267
83	215
84	71
85	96
91	19
93	42
94	39
95	215
96	163
97	117
98	51
99	25
103	576
104	96
105	999
106	76
107	31
108	20
109	96
110	50
111	50
121	35
122	163
123	45
135	18
137	17
159	45
160	12
161	42
164	24
180	10
186	33
187	86
188	10
200	29
202	27
214	4
284	0
299	8
327	1
328	0
