Mass Spectrum: Urs-12-ene-1,2,11-triol, 3-(acetyloxy)-, (1.beta.,2.alpha.,3.beta.,11.alpha.)-
Formula: C32H52O5
CAS: 108657-34-7
Molecular weight: 516
m/z	intensity
43	999
55	410
69	370
81	250
95	410
107	230
109	250
119	210
121	220
123	210
135	180
147	110
191	180
234	120
255	100
423	60
441	70
456	40
498	280
516	80
517	30
