Mass Spectrum: 2,5-Dichloropentylamine
Formula: C5H11Cl2N
CAS: 108766-06-9
Molecular weight: 155
m/z	intensity
15	5
26	3
27	30
28	47
29	13
30	999
31	24
39	22
40	3
41	28
42	18
43	14
44	8
49	8
50	2
51	5
52	2
53	10
54	6
55	8
56	23
57	5
58	2
61	2
62	6
63	4
64	5
65	3
66	1
67	9
68	2
69	2
70	3
71	6
75	6
76	2
77	4
78	3
80	2
82	3
83	1
84	7
89	1
90	2
92	1
118	2
119	2
120	51
121	4
122	15
123	1
154	1
156	3
158	1
