Mass Spectrum: 3.alpha.-Hydroxy-9(11)-cholenic acid methyl ester
Formula: C25H40O3
CAS: 108750-62-5
Molecular weight: 388
m/z	intensity
41	625
42	40
43	632
44	62
45	61
49	19
51	17
53	188
55	999
56	43
57	188
59	413
60	8
65	47
67	448
68	92
69	323
70	39
71	46
73	204
74	146
77	225
78	36
79	658
80	77
81	757
82	47
83	204
84	17
85	82
87	164
88	23
91	567
92	55
93	436
94	129
95	504
96	60
97	92
98	13
99	65
101	16
103	50
104	14
105	929
106	315
107	536
108	152
109	220
111	59
112	11
113	11
115	278
116	45
117	278
118	118
119	373
120	202
121	275
122	62
123	139
124	34
125	52
127	34
128	57
129	125
130	38
131	471
132	146
133	375
134	123
135	181
136	11
137	44
139	11
141	136
142	71
143	221
144	67
145	390
146	30
147	571
148	27
149	191
150	14
151	25
153	28
154	37
155	63
156	39
157	210
158	78
159	343
160	95
161	246
162	73
163	51
165	70
166	20
167	22
169	94
170	27
171	175
172	28
173	143
174	67
175	123
176	38
177	53
178	15
179	11
181	27
183	44
185	139
186	35
187	99
188	53
189	51
191	12
193	17
195	57
197	104
198	13
199	113
200	67
201	246
202	66
203	32
205	10
207	24
208	38
209	42
211	46
212	20
213	427
214	134
215	349
216	105
217	45
218	20
219	17
221	19
222	13
223	13
225	28
227	48
228	216
229	152
230	97
231	52
232	9
233	31
234	15
235	9
237	11
239	45
240	17
241	32
242	17
243	13
245	13
247	37
248	52
249	41
250	11
252	9
253	23
254	14
255	459
256	112
257	85
258	17
259	10
261	18
262	279
263	72
264	18
265	15
267	12
271	7
273	245
274	59
275	29
276	34
277	14
279	8
281	18
283	25
284	9
285	10
288	51
289	15
295	6
297	9
299	7
301	12
302	8
305	22
313	29
314	23
315	49
316	87
317	21
318	18
321	20
323	92
324	21
325	9
327	11
328	26
329	24
330	18
331	12
339	70
340	18
341	32
342	9
355	698
356	183
357	178
358	40
359	7
369	17
370	807
371	265
372	267
373	21
374	51
387	12
388	232
389	71
390	19
