Mass Spectrum: Carbamic acid, N-(3-methylphenyl)-, benzyl ester
Formula: C15H15NO2
CAS: 108716-18-3
Molecular weight: 241
m/z	intensity
34	0
38	13
39	77
40	27
41	33
42	5
43	10
44	15
45	5
50	19
51	53
52	28
53	15
54	4
55	10
56	7
57	12
58	0
59	0
60	1
61	4
62	8
63	32
64	12
65	128
66	9
67	4
68	0
69	4
70	3
71	2
74	3
75	4
76	6
77	117
78	36
79	62
80	7
81	2
82	2
83	2
84	0
86	0
87	0
89	28
90	20
91	999
92	67
93	4
94	0
97	0
102	0
104	16
105	9
106	40
107	30
108	7
112	2
118	1
119	2
120	25
121	3
132	6
133	10
134	4
135	0
143	1
151	0
165	0
171	1
182	3
196	45
197	62
198	8
199	0
241	110
242	18
243	0
