Mass Spectrum: 2-Methylbutanoic acid, 3-(t-butyldimethylsilyloxy)-
Formula: C11H24O3Si
CAS: 108782-00-9
Molecular weight: 232
m/z	intensity
27	7
28	8
29	16
31	2
39	8
41	19
43	15
44	2
45	19
47	22
53	2
55	10
56	5
57	8
58	12
59	32
60	5
61	13
73	178
74	17
75	999
76	53
77	34
83	2
85	7
86	2
87	5
89	26
90	2
99	11
100	2
101	8
102	2
103	22
104	2
105	10
113	2
115	36
116	4
117	17
118	2
119	348
120	30
121	12
129	5
130	2
131	33
132	4
133	11
143	2
145	2
147	4
157	4
159	49
160	6
161	15
175	204
176	25
177	9
189	12
199	1
217	5
231	1
233	1
