Mass Spectrum: 4-(Phenylmethyl)benzeneethanamine
Formula: C15H17N
CAS: 108714-30-3
Molecular weight: 211
m/z	intensity
30	999
31	22
36	1
38	2
39	20
40	2
41	4
42	4
43	2
50	5
51	17
52	4
53	4
62	1
63	9
64	2
65	16
66	1
74	1
75	2
76	4
77	17
78	8
79	2
82	1
83	1
87	1
89	8
90	2
91	29
92	2
102	4
103	7
104	9
105	3
115	9
116	1
117	1
118	1
126	1
127	2
128	3
129	0
139	2
141	3
150	1
151	3
152	9
153	3
164	2
165	36
166	16
167	35
168	4
176	2
177	2
178	13
179	8
180	4
181	9
182	98
183	15
184	1
209	1
211	4
212	1
