Mass Spectrum: 1,3-Diazaadamantan-6-one, 5,7-dimethyl-2-(3-pyridyl)-
Formula: C15H19N3O
CAS: 108790-72-3
Molecular weight: 257
m/z	intensity
33	22
34	3
38	27
39	403
41	999
42	432
43	73
44	53
49	5
50	35
51	146
52	65
53	105
55	391
56	40
57	8
62	31
63	128
64	101
65	230
66	39
67	76
68	115
69	339
70	25
73	2
75	7
76	21
77	72
78	94
79	75
80	62
81	41
82	104
84	43
90	30
91	113
92	193
93	194
94	30
95	32
96	25
103	11
105	199
106	85
107	86
108	35
109	42
110	56
111	63
112	8
115	3
117	52
118	147
119	147
120	52
121	12
123	6
124	41
125	8
128	13
130	35
131	53
132	22
133	43
134	9
136	32
138	858
139	74
145	133
146	38
147	30
159	59
160	21
161	11
165	3
168	11
171	11
172	8
173	32
174	12
186	11
187	40
188	5
199	11
201	4
213	44
215	523
216	30
248	2
257	455
