Mass Spectrum: Ethane, 1-(benzylthio)-2-(2-chloroethylthio)-
Formula: C11H15ClS2
CAS: 108862-10-8
Molecular weight: 246
m/z	intensity
39	108
45	245
46	36
47	42
50	26
51	68
59	87
60	72
61	93
63	152
64	52
65	241
73	27
77	62
78	21
79	16
89	35
91	999
92	94
93	11
99	12
105	27
106	13
109	31
111	10
119	101
121	42
122	153
123	139
125	28
127	36
137	21
150	12
151	17
155	63
157	24
184	9
246	16
247	3
248	7
