Mass Spectrum: 1-Acetyl-2,6-naphthalenediol dibenzoate
Formula: C26H18O5
CAS: 108804-53-1
Molecular weight: 410
m/z	intensity
43	32
44	11
51	59
76	11
77	263
78	45
105	999
106	79
107	5
115	31
129	1
130	3
157	1
200	5
263	4
305	6
410	52
411	10
