Mass Spectrum: 3-Methoxy-2-methyl-1-pentene
Formula: C7H14O
CAS: 108811-45-6
Molecular weight: 114
m/z	intensity
39	10
40	20
41	150
42	20
43	50
45	80
53	40
54	10
55	430
56	30
57	20
58	10
59	10
68	40
69	30
71	10
72	5
73	110
82	5
83	30
84	10
85	999
86	70
113	5
114	110
115	10
