Mass Spectrum: 1,4-Diacetyl-2,3-naphthalenediol dibenzoate
Formula: C28H20O6
CAS: 108804-55-3
Molecular weight: 452
m/z	intensity
43	143
44	90
51	54
77	296
78	86
105	999
106	91
121	13
199	31
200	1
225	1
242	19
243	2
347	19
348	6
452	99
453	29
454	6
