Mass Spectrum: 3-Methoxyhex-1-ene
Formula: C7H14O
CAS: 108811-41-2
Molecular weight: 114
m/z	intensity
26	10
27	40
28	20
29	30
32	10
39	40
40	10
41	70
42	20
43	30
45	70
53	30
54	20
55	80
56	10
57	10
58	10
67	30
71	999
72	50
82	50
83	20
85	40
86	30
87	10
114	10
