Mass Spectrum: 1,5-Diacetyl-2,6-naphthalenediol dibenzoate
Formula: C28H20O6
CAS: 108804-56-4
Molecular weight: 452
m/z	intensity
43	78
44	53
51	132
77	268
78	18
105	999
106	74
126	2
127	8
128	12
131	4
199	17
200	7
201	1
226	15
242	23
305	47
306	7
347	26
348	7
452	329
453	91
454	22
