Mass Spectrum: 8-Pentadecanone, semicarbazone
Formula: C16H33N3O
CAS: 108841-44-7
Molecular weight: 283
m/z	intensity
26	4
27	112
29	267
30	120
31	20
33	3
35	1
36	9
38	3
39	54
40	12
41	391
42	66
43	227
44	74
45	10
46	2
51	3
52	2
53	31
54	55
55	262
56	64
57	197
58	28
59	4
60	7
61	38
62	1
65	6
66	4
67	65
68	29
69	177
70	55
71	29
72	165
73	18
74	38
75	299
76	370
77	18
78	1
79	17
80	16
81	47
82	65
83	116
84	23
85	95
86	16
87	3
88	2
91	5
92	2
93	8
94	11
95	46
96	45
97	73
98	42
99	41
100	215
101	14
102	12
103	1
105	3
106	1
107	5
108	5
109	24
110	39
111	57
112	15
113	9
114	6
115	999
116	54
117	3
119	2
120	1
121	1
122	3
123	9
124	310
125	184
126	30
127	11
128	237
129	49
130	2
134	1
136	2
137	3
138	7
139	24
140	38
141	19
142	23
143	30
144	2
150	1
151	1
152	20
153	20
154	17
155	8
156	35
157	33
158	3
164	1
165	5
166	16
167	22
168	4
169	60
170	27
171	8
179	4
180	8
181	4
182	3
183	7
184	212
185	22
186	4
193	1
194	4
195	46
196	5
197	4
198	1
199	249
200	28
201	1
207	1
208	58
209	19
210	3
211	2
212	121
213	16
214	1
222	5
223	5
224	26
225	8
226	11
227	1
237	4
239	15
240	10
241	4
251	2
254	5
255	1
265	7
266	1
268	3
282	5
283	94
284	27
285	3
