Mass Spectrum: 1,6-Diacetyl-2,7-naphthalenediol dibenzoate
Formula: C28H20O6
CAS: 108804-57-5
Molecular weight: 452
m/z	intensity
42	10
43	121
44	34
51	52
76	10
77	232
78	28
105	999
106	104
107	11
121	4
156	21
157	1
173	13
184	18
199	5
200	1
226	21
242	28
347	5
452	127
453	23
454	1
