Mass Spectrum: exo-2-Methyl-endo-2-(acetylamino)norbornane
Formula: C10H17NO
CAS: 108811-69-4
Molecular weight: 167
m/z	intensity
66	200
67	190
70	190
77	130
79	330
80	999
81	60
82	60
83	60
84	170
91	120
93	270
96	120
99	520
100	180
108	280
109	60
110	130
112	80
124	100
138	10
152	30
167	80
