Mass Spectrum: Pentyl linoleate
Formula: C23H42O2
CAS: 108906-10-1
Molecular weight: 350
m/z	intensity
26	1
27	22
28	6
29	63
30	1
31	1
38	2
39	57
40	11
41	342
42	71
43	753
44	26
45	6
50	2
51	7
52	5
53	68
54	212
55	566
56	49
57	45
60	5
63	1
65	54
66	54
67	865
68	288
69	346
70	176
71	999
72	53
73	12
77	98
78	32
79	344
80	208
81	678
82	336
83	125
84	20
85	24
86	3
87	10
89	9
91	90
92	21
93	132
94	110
95	555
96	326
97	106
98	29
99	16
100	2
101	20
102	2
103	4
104	6
105	28
106	17
107	97
108	85
109	348
110	230
111	66
112	9
113	23
114	4
115	33
116	2
117	8
118	4
119	32
120	18
121	129
122	85
123	236
124	138
125	28
126	15
127	32
128	5
129	18
130	3
131	28
132	7
133	41
134	12
135	130
136	115
137	130
138	83
139	31
140	21
141	16
142	1
143	21
144	1
145	16
146	9
147	26
148	12
149	96
150	142
151	82
152	51
153	23
154	15
157	12
159	19
160	5
161	17
162	4
163	55
164	104
165	50
166	33
167	49
168	15
169	4
170	2
171	9
172	2
173	26
174	6
175	8
176	3
177	39
178	92
179	34
180	9
181	29
182	14
185	9
189	4
191	22
192	20
193	13
194	7
195	30
196	13
197	6
198	1
203	1
205	15
206	14
207	7
208	4
209	23
210	12
211	2
213	5
215	2
216	1
217	2
218	11
219	17
220	83
221	20
223	18
224	9
225	2
227	3
233	10
234	20
235	4
237	14
238	6
239	1
241	3
243	9
244	4
245	9
252	7
255	2
261	17
262	214
263	233
264	37
269	2
279	114
280	38
281	6
293	5
294	2
307	12
308	4
318	2
320	1
321	1
335	19
336	5
349	1
350	104
351	27
352	3
