Mass Spectrum: Isotomatidine, N-acetyl-
Formula: C29H47NO3
CAS: 108990-87-0
Molecular weight: 457
m/z	intensity
41	402
42	94
43	999
44	104
45	42
47	24
48	5
49	7
51	30
53	91
54	36
55	474
56	75
57	280
58	116
59	41
60	90
65	52
66	29
67	330
68	80
69	159
70	123
71	44
72	238
73	66
74	13
77	98
78	19
79	281
80	53
81	251
82	55
83	90
84	120
85	22
86	74
91	197
92	38
93	221
94	64
95	516
96	88
97	41
98	15
99	13
100	29
101	53
103	8
105	153
106	40
107	183
108	180
109	375
110	55
111	36
112	46
114	260
115	30
117	32
118	9
119	67
120	18
121	140
122	72
123	76
124	23
125	11
126	72
127	19
128	21
129	21
130	8
131	40
132	5
133	58
134	18
135	58
136	17
137	19
138	16
139	9
143	11
145	52
146	11
147	57
148	24
149	73
150	41
151	32
156	10
157	8
159	25
160	7
161	49
162	95
163	247
164	60
165	50
166	33
168	23
171	9
173	12
174	4
175	11
176	4
177	9
180	38
181	9
182	4
185	16
189	4
198	12
199	4
201	11
208	25
209	11
210	30
215	12
216	31
217	32
222	84
223	44
224	24
227	3
242	5
254	12
255	9
273	18
283	4
325	4
329	8
343	49
344	11
357	9
396	11
439	11
442	4
455	17
457	381
458	120
459	25
