Mass Spectrum: 7-Acetylamino-2-amino-benzo[b]thiophene-3-carboxylic acid ethyl ester
Formula: C13H14N2O3S
CAS: 108940-16-5
Molecular weight: 278
m/z	intensity
35	0
36	0
37	0
38	4
39	32
41	7
42	25
43	999
44	62
45	74
46	3
47	5
48	0
50	4
51	23
52	24
53	10
54	6
57	1
58	6
59	4
60	14
61	1
62	6
63	42
64	19
65	49
66	10
67	4
68	4
69	35
70	4
71	5
72	2
74	1
75	14
76	19
77	16
78	11
79	2
80	4
81	2
82	7
83	3
84	6
85	1
86	0
87	1
88	2
89	6
90	42
91	32
92	21
93	8
94	6
95	5
96	5
97	3
99	0
100	1
101	3
102	16
103	10
104	5
105	4
106	2
107	11
108	29
109	57
110	7
111	2
112	0
113	0
114	0
115	1
116	3
117	8
118	31
119	14
120	9
121	9
122	9
123	6
124	6
125	1
126	0
127	1
128	12
129	51
130	9
131	4
132	2
133	29
134	272
135	112
136	172
137	33
138	8
139	1
140	0
142	0
143	0
144	3
145	22
146	31
147	8
148	7
150	3
151	2
152	6
153	0
155	0
157	0
158	1
159	4
160	19
161	158
162	562
163	120
164	102
165	15
166	3
167	0
171	0
172	3
173	2
174	7
175	6
176	11
177	5
178	8
179	3
180	6
181	0
187	3
188	12
189	48
190	885
191	191
192	71
193	8
194	4
195	0
197	0
198	0
199	1
200	0
201	1
202	1
203	6
204	3
205	7
206	10
207	3
208	29
209	3
210	1
216	8
217	4
218	1
219	0
221	1
222	11
223	1
232	76
233	57
234	10
235	10
236	69
237	10
238	4
239	0
249	0
250	3
251	0
262	0
263	37
264	6
265	2
277	3
278	388
279	66
280	23
281	3
