Mass Spectrum: 4-methoxy-N,N-Dimethylcathinone
Formula: C12H17NO2
CAS: 1089307-23-2
Molecular weight: 207
m/z	intensity
40	1
41	6
42	54
43	8
44	37
45	1
46	1
48	1
50	11
51	8
52	2
53	4
54	5
55	12
56	54
57	19
58	2
59	1
61	1
62	5
63	29
64	39
65	8
66	3
67	1
68	1
70	42
72	999
73	53
74	6
75	4
76	12
77	72
78	9
79	6
80	1
81	1
82	1
84	1
86	1
87	1
88	1
89	3
90	1
91	10
92	71
93	5
94	1
96	1
98	1
99	1
100	1
101	1
102	1
103	5
104	3
105	4
107	17
108	3
109	1
111	1
114	1
115	1
116	1
117	1
118	1
119	2
120	3
121	18
122	2
123	1
130	1
131	1
132	2
133	3
135	56
136	6
137	1
142	1
144	1
145	1
146	1
147	2
148	3
149	1
150	1
151	1
157	1
158	1
159	1
160	1
161	2
162	3
163	4
164	5
165	1
166	1
173	1
174	1
175	1
176	4
177	1
178	1
179	1
186	1
188	1
189	1
190	2
192	2
193	1
196	1
203	1
204	1
205	2
206	1
207	3
208	1
