Mass Spectrum: (Z)-Ethyl heptadec-9-enoate
Formula: C19H36O2
CAS: 1089325-29-0
Molecular weight: 296
m/z	intensity
27	58
28	21
29	195
39	96
40	19
41	603
42	104
43	416
44	13
45	57
51	8
52	7
53	100
54	313
55	999
56	193
57	244
58	13
59	25
60	140
61	119
62	5
65	54
66	46
67	743
68	370
69	847
70	363
71	163
73	238
74	24
77	61
78	23
79	242
80	129
81	563
82	309
83	518
84	498
87	46
88	599
89	83
90	6
91	69
92	20
93	123
94	109
95	421
96	579
97	540
98	451
99	68
101	509
102	50
105	33
106	14
107	92
108	87
109	306
110	344
111	244
112	103
113	49
114	21
115	107
116	13
119	67
120	26
121	112
122	66
123	293
124	155
125	89
126	25
127	56
128	48
129	75
133	62
134	51
135	83
136	51
137	151
138	109
139	65
140	12
141	66
142	51
143	51
147	42
148	26
149	57
150	54
151	86
152	98
153	36
155	132
156	20
161	24
162	7
163	20
164	28
165	51
166	185
167	42
168	10
169	33
175	16
176	6
177	12
179	26
180	28
183	10
185	19
189	11
192	24
193	20
194	19
195	11
203	5
206	72
207	72
208	252
209	49
214	14
221	37
222	26
231	12
232	23
233	14
250	291
251	286
252	56
253	25
296	68
297	13
