Mass Spectrum: 1,2-Dioctylcyclopropene
Formula: C19H36
CAS: 1089-40-3
Molecular weight: 264
m/z	intensity
41	610
42	70
43	650
44	90
53	110
54	110
55	530
56	90
57	190
65	50
66	70
67	450
68	550
69	320
71	50
77	100
79	250
80	70
81	999
82	400
83	160
84	30
85	30
91	90
93	150
94	70
95	590
96	190
97	110
107	50
109	210
110	270
111	70
123	110
124	70
137	30
151	80
152	30
160	80
165	80
166	130
167	20
179	30
193	30
207	10
264	70
