Mass Spectrum: 2,4-Decadienoic acid, methyl ester, (Z,E)-
Formula: C11H18O2
CAS: 108965-84-0
Molecular weight: 182
m/z	intensity
39	324
40	75
41	368
42	42
51	101
52	66
53	267
59	278
63	33
65	217
66	417
67	559
77	192
78	66
79	430
80	130
81	844
82	252
93	155
94	125
95	67
96	103
97	201
98	83
107	118
108	109
111	999
112	430
113	255
114	106
121	62
122	87
123	42
125	48
126	41
131	4
133	3
135	10
139	83
140	20
147	3
149	5
150	20
151	177
167	5
181	4
182	192
183	29
