Mass Spectrum: 2-Propenoic acid, 2-methyl-, oxybis(2,1-ethanediyloxy-2,1-ethanediyl) ester
Formula: C16H26O7
CAS: 109-17-1
Molecular weight: 330
m/z	intensity
39	7
40	7
41	31
42	7
43	7
44	7
45	7
53	7
54	7
55	7
56	7
57	7
58	7
59	7
60	7
61	7
67	7
68	7
69	317
70	31
71	15
72	7
73	31
74	7
75	7
76	7
77	7
79	7
81	7
82	7
83	7
84	15
85	7
86	79
87	39
88	7
89	31
90	7
91	7
92	7
93	7
94	7
95	7
96	7
97	7
98	7
99	15
100	23
101	15
102	7
103	7
104	7
105	7
107	7
108	7
109	7
110	7
111	7
112	79
113	999
114	79
115	23
116	7
117	23
118	7
119	7
121	7
123	7
125	7
126	7
127	7
128	7
129	7
130	7
131	7
133	7
134	7
135	7
138	7
139	7
140	7
141	7
143	7
144	7
145	7
147	7
151	7
156	7
157	7
158	7
159	7
172	7
185	7
200	7
216	7
