Mass Spectrum: 2-Pyrimidinamine
Formula: C4H5N3
CAS: 109-12-6
Molecular weight: 95
m/z	intensity
12	3
13	5
14	4
15	2
16	2
17	3
18	1
24	2
25	7
26	49
27	37
28	61
29	3
36	1
37	3
38	22
39	31
40	106
41	185
42	256
43	101
44	6
46	2
47	21
48	1
50	3
51	22
52	57
53	43
54	7
55	1
64	2
65	5
66	13
67	85
68	387
69	20
77	2
78	2
79	5
80	1
92	1
93	1
94	58
95	999
96	57
97	2
