Mass Spectrum: Dodecanoic acid, 2-butoxyethyl ester
Formula: C18H36O3
CAS: 109-37-5
Molecular weight: 300
m/z	intensity
41	440
42	98
43	325
44	101
45	180
46	4
47	1
50	1
51	2
52	1
53	16
54	15
55	248
56	819
57	999
59	22
60	74
61	29
62	1
63	16
64	0
65	3
66	2
67	36
68	17
69	82
70	36
71	124
72	28
73	112
74	38
75	7
76	0
77	2
78	2
79	6
80	5
81	22
82	22
83	61
84	95
85	817
86	99
87	124
88	141
89	22
90	1
91	1
93	3
94	1
95	16
96	10
97	36
98	74
99	96
100	472
101	178
102	13
103	5
104	7
105	46
106	3
107	4
108	1
109	25
110	6
111	11
112	14
113	13
114	3
115	39
116	9
117	132
118	9
119	14
120	1
121	2
122	0
123	3
124	7
125	20
126	24
127	288
128	26
129	52
130	7
131	4
132	0
133	0
135	2
136	1
137	1
138	3
139	3
140	4
141	23
142	5
143	31
144	10
145	44
146	3
147	0
149	0
152	2
153	3
154	4
155	39
156	5
157	19
158	3
159	5
160	52
161	4
162	1
163	2
164	0
168	0
169	6
171	110
172	76
173	35
174	4
180	1
181	3
182	3
183	37
184	5
185	12
186	6
187	2
189	2
197	1
198	1
199	19
200	20
201	16
202	2
211	2
213	0
214	1
215	1
216	0
217	1
219	3
225	1
226	1
227	19
228	19
229	4
230	0
243	1
244	2
245	20
246	3
255	1
256	2
257	1
259	2
264	0
273	3
274	0
299	1
300	5
301	1
