Mass Spectrum: Pyridine, 2-bromo-
Formula: C5H4BrN
CAS: 109-04-6
Molecular weight: 157
m/z	intensity
12	2
14	5
16	1
24	1
25	5
26	31
27	56
28	41
29	1
36	3
37	12
38	22
39	27
40	3
48	2
49	20
50	112
51	308
52	90
53	3
62	1
63	2
64	1
74	2
75	14
76	32
77	10
78	999
79	58
80	3
81	5
82	3
91	1
93	1
104	4
105	2
106	6
107	1
108	2
129	3
130	3
131	3
132	2
157	323
158	19
159	307
160	18
