Mass Spectrum: 1-Pentene
Formula: C5H10
CAS: 109-67-1
Molecular weight: 70
m/z	intensity
14	2
15	12
25	1
26	24
27	182
28	23
29	209
30	4
31	5
37	10
38	27
39	271
40	67
41	438
42	999
43	40
44	1
49	3
50	12
51	17
52	6
53	53
54	15
55	652
56	28
60	1
61	4
62	5
63	4
65	6
66	2
67	13
68	3
69	18
70	394
71	21
