Mass Spectrum: Ethyl formate
Formula: C3H6O2
CAS: 109-94-4
Molecular weight: 74
m/z	intensity
12	5
13	13
14	41
15	95
16	6
17	3
18	3
19	48
24	2
25	20
26	153
27	470
28	741
29	736
30	92
31	999
32	10
33	1
40	1
41	7
42	30
43	102
44	31
45	329
46	15
47	86
48	1
56	75
57	4
59	10
73	34
74	102
75	5
76	0
