Mass Spectrum: Ethanol, 2-(methylamino)-
Formula: C3H9NO
CAS: 109-83-1
Molecular weight: 75
m/z	intensity
15	11
18	4
26	3
27	24
28	128
29	46
30	67
31	24
32	4
40	17
41	23
42	96
43	64
44	999
45	45
54	3
55	2
56	41
74	8
75	75
