Mass Spectrum: Octadecanamide, N,N'-methylenebis-
Formula: C37H74N2O2
CAS: 109-23-9
Molecular weight: 578
m/z	intensity
15	1
17	1
26	3
27	42
28	21
29	126
30	107
31	3
32	6
39	31
40	7
41	306
42	73
43	555
44	73
45	332
46	9
51	1
52	1
53	16
54	27
55	345
56	91
57	553
58	46
59	999
60	143
61	6
65	3
66	2
67	67
68	26
69	207
70	60
71	341
72	539
73	134
74	10
77	3
78	1
79	12
80	6
81	84
82	30
83	179
84	83
85	217
86	133
87	43
88	9
89	11
91	3
92	1
93	10
94	6
95	124
96	34
97	156
98	137
99	86
100	56
101	35
102	4
105	2
106	1
107	9
108	4
109	80
110	26
111	78
112	48
113	53
114	107
115	66
116	7
119	1
120	1
121	11
122	4
123	47
124	17
125	31
126	34
127	31
128	127
129	19
130	134
131	9
132	1
133	1
134	1
135	11
136	3
137	27
138	12
139	13
140	47
141	20
142	35
143	74
144	9
145	1
147	1
149	7
150	2
151	11
152	9
153	9
154	31
155	15
156	27
157	11
158	3
161	1
163	4
164	2
165	7
166	7
167	8
168	24
169	10
170	34
171	9
172	7
173	1
177	2
178	1
179	4
180	7
181	6
182	17
183	9
184	40
185	13
186	6
191	2
192	1
193	4
194	7
195	6
196	20
197	9
198	33
199	10
200	4
205	1
206	1
207	2
208	6
209	5
210	20
211	9
212	23
213	8
214	3
220	1
221	1
222	9
223	6
224	20
225	9
226	23
227	9
228	4
232	1
234	1
235	1
236	8
237	4
238	22
239	9
240	79
241	19
242	4
247	3
248	2
249	9
250	5
251	2
252	35
253	12
254	44
255	11
256	4
264	4
265	14
266	58
267	857
268	180
269	22
270	4
277	1
278	6
279	1
280	8
281	7
282	79
283	266
284	300
285	56
286	6
293	7
294	23
295	72
296	51
297	19
298	8
299	1
309	3
311	625
312	139
313	18
314	2
323	1
324	2
325	6
326	3
338	2
339	5
340	2
352	1
354	526
355	127
356	15
357	1
367	44
368	12
369	2
378	1
381	3
382	3
392	2
395	3
396	3
397	1
409	4
410	2
423	3
424	1
437	2
438	1
451	2
452	1
465	2
466	1
478	1
479	2
480	1
493	2
494	1
507	2
508	1
520	5
521	3
522	1
535	2
536	1
549	3
550	2
560	1
563	2
564	1
576	9
578	261
579	108
580	18
