Mass Spectrum: Butane, 1-chloro-
Formula: C4H9Cl
CAS: 109-69-3
Molecular weight: 92
m/z	intensity
14	1
15	5
25	2
26	29
27	159
28	74
29	91
30	2
35	3
36	3
37	10
38	19
39	126
40	28
41	541
42	43
43	243
44	8
47	3
48	4
49	44
50	22
51	31
52	5
53	17
54	7
55	101
56	999
57	57
58	1
60	2
61	7
62	16
63	42
64	6
65	12
73	3
75	5
76	1
77	2
91	1
92	4
94	1
