Mass Spectrum: 1,3-Propanediamine
Formula: C3H10N2
CAS: 109-76-2
Molecular weight: 74
m/z	intensity
14	2
15	14
16	2
17	26
18	9
25	1
26	9
27	37
28	150
29	39
30	999
31	28
32	1
37	1
38	4
39	11
40	14
41	34
42	79
43	43
44	192
45	108
46	3
51	2
52	6
53	2
54	9
55	4
56	263
57	781
58	32
59	1
68	2
69	2
70	2
71	5
72	3
75	2
