Mass Spectrum: 1,4-Oxathiane, 4-oxide
Formula: C4H8O2S
CAS: 109-03-5
Molecular weight: 120
m/z	intensity
24	0
25	4
26	112
27	345
28	476
29	327
30	30
31	129
32	21
33	25
34	26
35	12
36	3
37	1
38	2
39	16
40	6
41	86
42	98
43	726
44	154
45	351
46	339
47	392
48	315
49	57
50	110
51	11
52	4
53	1
54	1
55	7
56	4
57	45
58	60
59	315
60	78
61	96
62	70
63	190
64	12
65	19
66	9
67	1
68	1
69	2
70	1
71	16
72	17
73	16
74	35
75	19
76	250
77	303
78	31
79	17
80	1
81	0
83	0
84	0
85	5
86	3
87	3
88	0
89	3
90	1
91	8
92	999
93	32
94	47
95	1
96	0
99	0
100	0
101	1
102	2
103	8
104	54
105	7
106	7
107	3
118	0
119	2
120	375
121	36
122	20
123	1
