Mass Spectrum: Pyrrole
Formula: C4H5N
CAS: 109-97-7
Molecular weight: 67
m/z	intensity
2	1
12	15
13	17
14	20
15	4
16	0
24	7
25	24
26	56
27	45
28	509
29	7
30	1
31	0
32	6
33	2
34	3
36	28
37	170
38	250
39	678
40	538
41	630
42	15
48	1
49	6
50	10
51	12
52	26
53	1
62	6
63	11
64	11
65	9
66	78
67	999
68	47
69	0
