Mass Spectrum: Propanedinitrile
Formula: C3H2N2
CAS: 109-77-3
Molecular weight: 66
m/z	intensity
12	20
13	8
14	7
24	7
25	9
26	23
27	13
28	109
29	1
36	4
37	2
38	223
39	253
40	55
41	3
50	10
51	11
52	2
64	52
65	81
66	999
67	39
