Mass Spectrum: 2-Butoxyethyl oleate
Formula: C24H46O3
CAS: 109-39-7
Molecular weight: 382
m/z	intensity
41	722
42	150
43	607
44	107
45	468
46	9
51	4
53	76
54	236
55	774
56	638
57	999
58	38
59	23
60	32
61	17
63	48
65	20
66	28
67	449
68	203
69	526
70	130
71	147
72	18
73	70
74	19
75	4
77	21
78	12
79	119
80	108
81	474
82	267
83	373
84	210
85	427
86	94
87	143
88	30
89	6
91	40
92	16
93	86
94	92
95	362
96	259
97	257
98	502
99	450
100	252
101	556
102	36
103	4
104	6
105	35
106	13
107	61
108	82
109	197
110	151
111	124
112	182
113	65
114	19
115	20
116	11
117	64
118	6
119	64
120	22
121	86
122	50
123	163
124	90
125	69
126	43
127	36
128	15
129	13
131	6
133	40
134	43
135	71
136	37
137	185
138	91
139	43
140	17
141	48
142	86
143	14
145	5
147	32
148	36
149	40
150	33
151	143
152	113
153	44
154	17
155	148
156	23
157	8
160	41
161	24
162	14
163	23
164	26
165	76
166	93
167	33
168	14
169	38
170	16
171	9
173	29
174	4
175	14
176	7
177	14
178	14
179	40
180	54
181	23
182	13
183	36
184	26
185	12
187	4
189	7
191	9
192	8
193	30
194	23
195	16
196	8
197	23
198	17
199	13
201	5
205	6
206	6
207	39
208	25
209	29
210	10
211	38
212	47
213	13
215	6
218	4
219	4
220	22
221	51
222	29
223	21
224	6
225	14
226	21
227	11
229	8
230	4
234	9
235	26
236	52
237	23
238	7
239	11
240	8
241	4
243	4
244	4
245	7
246	31
247	13
249	10
250	11
251	11
252	5
253	6
255	6
257	5
262	43
263	35
264	518
265	178
266	27
267	9
277	9
278	8
279	11
280	16
281	13
282	8
283	14
284	6
285	7
286	4
292	7
293	5
295	4
297	6
300	7
306	6
307	19
308	100
309	104
310	27
311	49
312	11
323	5
325	5
327	4
329	1
337	4
339	17
340	6
354	7
355	3
356	0
357	2
358	5
379	5
380	12
381	40
382	112
383	37
384	10
385	2
