Mass Spectrum: 1-Propanamine, 3-chloro-N,N-dimethyl-
Formula: C5H12ClN
CAS: 109-54-6
Molecular weight: 121
m/z	intensity
14	2
15	39
17	2
18	12
26	5
27	20
28	19
29	15
30	52
31	2
39	19
40	5
41	32
42	97
43	23
44	53
45	3
49	7
51	3
52	1
54	3
55	2
56	17
57	18
58	999
59	39
68	2
69	1
70	11
71	14
72	5
75	1
77	1
84	16
85	11
86	3
103	4
104	2
120	6
121	48
122	5
123	16
