Mass Spectrum: Ethanol, 2-[(1-methylethyl)amino]-
Formula: C5H13NO
CAS: 109-56-8
Molecular weight: 103
m/z	intensity
14	3
15	18
18	19
19	6
26	7
27	85
28	148
29	60
30	924
31	58
32	14
37	2
38	7
39	66
40	20
41	197
42	217
43	241
44	265
45	80
46	2
52	4
53	2
54	15
55	9
56	66
57	23
58	55
59	5
60	63
61	6
68	16
69	7
70	270
71	23
72	999
73	57
84	19
85	3
86	12
88	263
89	14
100	3
102	20
103	32
104	3
