Mass Spectrum: 1-(4-Chlorophenyl)-3-(3-nitrophenyl)triaz-1-ene
Formula: C12H9ClN4O2
CAS: 109041-92-1
Molecular weight: 276
m/z	intensity
30	52
37	10
38	44
39	77
40	46
41	22
43	8
44	41
49	3
50	214
51	97
52	36
53	4
54	6
55	4
61	8
62	21
63	123
64	126
65	33
73	30
74	46
75	489
76	271
77	34
78	6
85	22
87	4
90	25
91	50
92	157
93	9
99	105
100	4
101	29
106	7
110	5
111	999
112	70
113	325
114	20
122	612
123	39
125	4
126	73
127	40
128	25
129	10
138	7
139	365
140	26
141	120
142	4
150	387
151	26
164	8
165	12
276	61
277	5
278	20
