Mass Spectrum: 20,21-Dihydroxy-4,7,13,16-tetraoxa-1,10-diazabicyclo[8.8.4]-docosane
Formula: C16H32N2O6
CAS: 109072-51-7
Molecular weight: 348
m/z	intensity
54	61
55	253
56	999
57	547
58	863
59	137
60	40
67	116
68	95
69	211
70	547
71	411
72	526
73	126
74	137
75	28
80	60
81	72
82	147
83	347
84	263
85	232
86	432
87	116
88	179
89	39
93	35
94	88
95	74
96	126
97	137
98	179
99	105
100	853
101	190
102	274
103	37
108	72
109	53
110	66
111	105
112	200
113	84
114	379
115	105
116	232
117	40
118	147
119	28
124	56
125	105
126	105
127	63
128	126
129	53
130	263
131	58
132	347
133	35
134	27
136	63
137	39
138	61
139	28
140	42
141	35
142	77
143	42
144	421
145	66
146	147
147	21
148	37
149	18
154	44
155	32
156	70
157	22
158	158
159	26
160	105
161	17
170	52
171	23
172	105
173	47
174	61
175	18
176	21
184	35
185	53
186	61
187	63
188	27
189	20
190	76
191	16
198	43
199	47
200	35
201	34
202	19
203	23
204	31
205	11
206	53
207	11
213	53
214	13
215	33
216	13
217	36
218	23
219	13
223	53
224	13
225	26
226	12
227	24
228	10
229	32
230	18
231	18
232	20
241	17
242	13
243	18
244	13
245	21
246	42
247	22
248	47
249	6
255	137
256	23
257	12
258	21
260	12
261	44
262	16
273	33
274	53
275	76
276	19
277	16
289	305
290	55
291	11
301	13
302	7
303	16
304	7
305	23
306	6
313	14
330	75
331	84
332	19
333	7
348	5
