Mass Spectrum: (1S,9aS,Z)-1-Methyl-3-(2-methylpropylidene)octahydro-1H-quinolizin-1-ol
Formula: C14H25NO
CAS: 109175-44-2
Molecular weight: 223
m/z	intensity
51	9
52	6
53	47
54	31
55	159
56	73
57	15
58	14
59	4
65	22
66	13
67	61
68	35
69	35
70	22
77	31
78	9
79	43
80	28
81	52
82	88
83	86
84	999
85	245
86	146
87	8
90	7
91	18
92	6
93	19
94	24
95	36
96	106
97	41
98	235
99	17
105	6
106	13
107	25
108	21
109	13
110	18
111	8
112	3
117	4
118	6
119	5
120	22
121	17
122	87
123	69
124	35
125	18
126	96
127	10
132	8
133	5
134	23
135	8
136	42
137	10
138	22
139	4
140	4
146	5
147	6
148	21
150	41
160	8
161	4
162	84
163	14
164	27
165	14
166	28
167	13
174	8
175	3
176	10
178	124
180	484
181	74
182	5
188	9
190	38
191	6
192	4
194	4
204	7
205	11
206	27
207	8
208	64
209	9
222	39
223	136
224	20
