Mass Spectrum: Dodecanoic acid, 2-iodo-
Formula: C12H23IO2
CAS: 109105-99-9
Molecular weight: 326
m/z	intensity
41	999
43	940
55	800
83	320
87	60
111	100
115	50
139	30
143	30
163	60
171	20
181	70
199	200
326	10
