Mass Spectrum: (E,E)-N,N'-Diisopropyl-2,2,3,6,6-pentamethylheptane-1,7-diimine
Formula: C18H36N2
CAS: 109106-18-5
Molecular weight: 280
m/z	intensity
41	110
42	70
43	320
44	60
55	130
69	70
70	170
72	170
85	80
98	340
112	70
113	999
114	120
140	60
168	80
196	70
237	290
238	60
