Mass Spectrum: (6S,12aR,E)-2,2-Dimethyltetrahydrospiro[cyclopentane-1,1'-pyrrolizin]-7'(7a'H)-one oxime
Formula: C13H22N2O
CAS: 109175-49-7
Molecular weight: 222
m/z	intensity
51	6
53	21
54	10
55	11
56	7
59	3
65	6
66	5
67	18
68	28
69	6
72	4
77	13
78	5
79	14
80	10
81	32
83	5
91	5
93	7
94	14
95	67
96	45
97	5
98	4
99	6
102	2
107	7
108	13
109	10
110	4
112	999
113	74
119	4
120	4
121	9
123	5
124	5
130	3
133	6
135	14
148	3
151	6
159	3
161	2
166	8
204	5
205	6
206	3
207	4
222	31
223	3
