Mass Spectrum: Tetradecanoic acid, 2-iodo-
Formula: C14H27IO2
CAS: 109105-98-8
Molecular weight: 354
m/z	intensity
41	930
43	999
55	560
83	210
87	30
111	140
115	50
139	70
143	50
167	40
171	30
191	60
199	20
209	70
227	300
354	20
