Mass Spectrum: Purine-2,6(1H,3H)-dione, 7-benzyl-8-chloro-1,3-dimethyl-
Formula: C14H13ClN4O2
CAS: 109286-40-0
Molecular weight: 304
m/z	intensity
33	3
35	0
36	0
37	0
39	33
40	18
41	14
42	6
43	1
44	0
45	0
47	0
49	1
50	5
51	12
52	5
53	3
54	2
55	1
56	6
57	2
58	3
62	3
63	19
65	117
67	32
68	3
69	1
70	1
73	0
74	0
75	2
76	7
77	6
78	6
79	1
80	1
81	2
82	1
87	2
88	4
89	34
91	999
92	42
94	0
96	0
99	0
101	1
102	1
103	1
104	2
105	0
106	0
107	0
109	0
112	0
113	0
114	0
115	2
116	10
117	3
118	0
125	0
127	1
128	7
129	10
130	4
131	0
141	0
142	3
143	1
151	0
152	6
153	0
155	1
156	2
157	1
158	0
168	0
169	0
171	2
178	0
183	1
184	0
198	0
210	0
212	0
213	1
215	2
216	0
218	0
246	0
248	0
268	1
269	1
270	0
299	0
300	2
301	3
302	5
303	8
304	94
305	16
306	29
307	4
