Mass Spectrum: 2H-3,1-Benzoxazine, octahydro-2-phenyl-, cis-
Formula: C14H19NO
CAS: 109214-70-2
Molecular weight: 217
m/z	intensity
27	56
29	61
30	57
31	43
39	75
40	14
41	176
42	65
43	108
44	46
46	15
50	18
51	56
52	20
53	45
54	67
55	92
56	122
57	51
58	10
63	14
64	7
65	24
66	12
67	120
68	53
69	36
70	30
71	18
72	12
76	13
77	177
78	49
79	137
80	23
81	63
82	64
83	28
84	13
86	16
87	8
89	31
90	37
91	142
92	17
93	15
94	16
95	106
96	98
97	11
98	18
103	19
104	149
105	299
106	999
107	138
108	18
110	36
111	22
112	19
115	10
117	35
118	29
119	24
120	14
122	25
126	12
129	15
130	31
131	15
132	76
133	19
134	7
135	51
136	6
139	10
140	187
141	26
143	8
144	79
145	25
146	36
147	7
156	9
158	48
159	18
160	13
172	22
173	6
174	50
175	9
186	142
187	490
188	87
189	13
199	7
200	21
205	49
206	8
216	260
217	105
218	28
