Mass Spectrum: Pentanoic acid, 4-oxo-5-phthalimido-, methyl ester
Formula: C14H13NO5
CAS: 109258-71-1
Molecular weight: 275
m/z	intensity
33	0
34	1
37	11
38	19
39	34
40	55
41	46
42	39
43	31
44	24
45	36
50	195
51	93
52	18
53	13
55	400
56	72
57	6
59	186
61	2
62	4
63	10
64	5
65	3
66	16
68	2
69	7
70	3
74	69
75	77
76	306
77	269
78	20
79	1
80	2
81	1
82	4
83	7
84	1
85	2
87	164
88	9
90	4
91	2
92	1
96	3
97	1
98	1
102	17
104	244
105	74
106	4
113	4
115	999
116	74
118	0
126	7
127	0
128	0
130	20
131	3
132	26
133	87
134	6
147	41
148	9
160	397
161	73
162	10
174	2
186	1
187	0
188	1
198	0
216	45
217	3
241	1
242	0
244	10
245	0
275	0
