Mass Spectrum: 4-Cyano-4-methylthio-tetracyclo(6,2,1,1(3,6).0(2,7)dodec-9-ene
Formula: C14H17NS
CAS: 109240-11-1
Molecular weight: 231
m/z	intensity
51	20
65	40
66	999
67	60
77	30
91	19
117	10
132	19
165	9
231	19
