Mass Spectrum: 3-Phenylamino-3-(4-chlorophenyl)propionitrile
Formula: C15H13ClN2
CAS: 109201-29-8
Molecular weight: 256
m/z	intensity
12	3
13	5
14	9
15	13
16	2
17	8
18	23
25	2
26	22
27	147
28	158
29	6
30	2
35	9
36	4
37	24
38	90
39	370
40	105
41	91
42	63
43	6
44	3
45	1
47	3
48	2
50	224
51	642
52	120
53	16
54	11
55	2
56	1
57	2
58	1
60	5
61	21
62	59
63	167
64	84
65	255
66	66
67	11
68	1
69	2
70	1
71	2
72	4
73	31
74	81
75	225
76	137
77	999
78	123
79	10
80	2
81	2
82	4
84	8
85	18
86	15
87	25
88	18
89	125
90	158
92	77
93	138
94	13
96	5
97	8
98	7
99	21
100	21
101	161
102	138
103	54
104	576
105	47
106	3
108	9
109	12
110	9
111	85
112	55
113	39
114	28
115	17
116	17
117	14
118	10
119	2
122	1
123	13
124	5
125	18
126	20
127	36
128	152
129	33
130	8
135	1
136	11
137	39
138	89
139	25
140	35
141	6
142	4
143	7
144	1
145	5
149	5
150	12
151	23
152	55
153	27
154	30
155	5
161	1
162	3
164	77
165	13
166	28
167	6
168	1
175	1
176	1
177	6
178	13
179	13
180	71
181	39
182	43
183	7
187	1
188	2
189	1
190	2
191	1
192	1
193	2
194	1
199	2
200	1
201	3
202	1
203	1
204	1
214	44
216	903
217	147
218	279
219	43
220	4
221	1
222	3
223	0
228	0
230	0
253	0
255	3
256	43
257	9
258	15
259	2
