Mass Spectrum: Benzenamine, 4-(1-azepinylsulfonyl)-
Formula: C12H18N2O2S
CAS: 109286-01-3
Molecular weight: 254
m/z	intensity
33	2
34	9
35	0
36	9
37	2
38	14
39	128
40	128
41	262
42	397
43	72
44	190
45	7
46	0
48	8
49	0
50	5
51	9
52	19
53	19
54	23
55	70
56	42
57	12
58	2
60	1
61	1
62	6
63	24
64	37
65	237
66	36
67	14
68	30
69	93
70	41
71	8
72	0
74	1
75	1
76	3
77	5
78	4
79	5
80	17
81	9
82	11
83	4
84	9
85	2
89	0
90	5
91	25
92	351
93	266
94	21
95	3
96	18
98	999
99	66
100	2
104	0
105	3
106	21
107	10
108	224
109	17
110	1
111	0
112	2
114	1
117	0
118	0
119	4
120	2
121	1
122	0
123	3
124	5
125	6
126	0
127	1
129	0
130	0
132	1
133	2
134	1
135	0
138	0
140	68
141	8
142	3
146	1
147	1
148	0
156	333
157	80
158	20
159	3
160	0
161	4
162	1
163	1
165	0
172	2
183	0
185	28
186	4
187	1
189	10
190	2
199	10
200	1
201	0
211	0
248	8
249	0
250	0
252	1
253	22
254	272
255	39
256	15
257	2
