Mass Spectrum: 1-Hexahydroazepinecarboxylic acid, 4-ethoxycarbonyloxy-, ethyl ester
Formula: C12H21NO5
CAS: 109386-73-4
Molecular weight: 259
m/z	intensity
39	190
40	90
41	760
42	999
43	860
44	570
45	150
53	70
54	110
55	240
56	440
57	200
58	110
59	30
63	30
65	20
66	20
67	160
68	250
69	330
70	180
71	130
72	130
74	40
79	50
80	30
81	80
82	270
83	30
84	60
85	140
86	40
87	20
88	60
90	20
94	40
95	60
96	520
97	150
98	120
99	20
100	30
102	130
110	130
111	20
112	50
113	60
114	190
115	90
116	150
124	60
126	160
128	70
129	30
130	20
139	30
140	700
141	600
142	170
144	20
154	120
158	80
168	40
169	430
170	240
171	20
186	20
187	40
214	10
259	30
