Mass Spectrum: bk-MDDMA
Formula: C12H15NO3
CAS: 109367-07-9
Molecular weight: 221
m/z	intensity
40	2
41	8
42	66
43	8
44	42
45	2
49	1
50	6
51	8
52	2
53	9
54	6
55	14
56	52
57	20
58	3
60	1
61	4
62	22
63	55
64	7
65	57
66	4
67	1
68	1
70	39
72	999
73	49
74	5
75	2
76	2
77	5
78	2
79	3
86	1
87	1
89	3
90	2
91	26
92	5
93	1
102	1
103	1
104	1
105	1
108	1
117	1
118	1
119	7
120	5
121	27
122	3
131	1
132	1
133	1
134	1
135	11
136	1
145	1
146	1
147	2
149	31
150	3
160	2
161	1
162	2
175	1
176	2
177	2
178	4
179	1
188	1
190	4
191	1
204	2
205	1
206	1
218	1
219	1
220	1
221	1
