Mass Spectrum: Pregna-3,5-dien-20-one
Formula: C21H30O
CAS: 1093-87-4
Molecular weight: 298
m/z	intensity
27	13
29	28
39	11
40	54
41	85
42	3
43	999
44	18
45	11
53	23
54	4
55	92
56	3
57	9
58	4
59	2
65	13
66	4
67	100
68	11
69	26
70	2
71	62
72	3
77	46
78	12
79	109
80	18
81	134
82	11
83	15
84	14
85	128
86	8
91	138
92	31
93	121
94	28
95	94
96	7
97	6
99	3
103	8
104	10
105	142
106	56
107	167
108	56
109	43
110	5
111	5
113	2
115	10
116	7
117	51
118	24
119	83
120	61
121	181
122	37
123	16
124	3
125	12
127	3
128	13
129	27
130	12
131	68
132	20
133	72
134	20
135	34
136	7
137	14
138	7
139	4
141	14
142	8
143	57
144	21
145	110
146	44
147	182
148	41
149	30
150	4
151	4
152	2
155	10
156	6
157	30
158	35
159	98
160	46
161	66
162	14
163	8
165	2
169	14
170	4
171	21
172	10
173	33
174	8
175	14
176	6
177	40
178	5
179	4
181	2
182	2
183	13
184	5
185	25
186	8
187	9
188	3
189	12
190	8
191	10
192	3
193	4
195	8
197	8
198	4
199	15
200	6
201	6
202	2
203	2
205	3
209	14
210	3
211	10
212	6
213	69
214	21
215	5
223	3
225	5
227	13
228	13
229	4
239	6
240	8
241	6
244	4
251	3
253	9
254	3
255	46
256	20
257	3
265	15
266	5
269	3
270	2
280	5
281	2
283	90
284	19
298	654
299	145
300	17
