Mass Spectrum: N-Acetyl Norapoatropine
Formula: C18H21NO3
CAS: 1094738-51-8
Molecular weight: 299
m/z	intensity
26	1
28	8
30	5
39	21
40	6
41	63
42	14
43	161
44	13
45	4
50	5
51	35
52	9
53	13
54	43
55	29
56	25
58	3
60	13
61	6
62	5
63	13
64	2
65	19
66	9
67	162
68	274
69	147
70	21
74	9
75	12
76	17
77	166
78	15
79	10
80	194
81	121
82	115
83	35
84	18
85	6
89	5
91	22
92	7
93	35
94	31
95	16
97	13
98	5
101	4
102	57
103	396
104	56
106	13
108	158
109	347
110	999
111	89
112	8
116	3
117	4
118	4
120	8
122	17
123	41
126	109
127	8
131	20
132	24
133	5
134	2
136	195
137	24
138	7
144	3
146	5
147	4
148	21
149	6
150	39
151	299
152	208
153	16
154	4
164	4
166	2
168	124
169	16
170	4
172	8
176	2
180	2
185	7
194	3
196	2
200	4
207	10
210	5
211	4
212	11
213	4
215	3
216	2
222	2
228	6
229	2
238	2
239	16
242	3
243	1
256	80
257	170
258	28
270	3
271	2
281	8
284	46
285	7
299	179
300	38
