Mass Spectrum: 4H-Furazano[3,4-b][1,4]-diazepine, 5,6-dihydro-5-methyl-5,7-diphenyl-
Formula: C18H16N4O
CAS: 109418-94-2
Molecular weight: 304
m/z	intensity
33	6
34	1
36	1
38	108
39	261
40	40
41	672
42	121
43	28
44	11
45	26
46	7
50	109
51	347
52	71
53	70
54	10
55	9
56	4
57	8
58	2
59	1
60	1
61	3
62	22
63	74
64	21
65	59
67	601
68	25
69	17
70	5
71	2
72	1
74	32
75	53
77	999
78	159
79	25
80	3
81	3
82	7
83	8
84	4
85	1
86	3
87	10
88	20
89	54
90	25
91	150
92	12
93	4
94	8
95	10
96	3
97	1
98	3
99	3
100	6
101	45
102	147
103	766
104	576
105	206
106	20
107	4
109	8
110	4
111	2
112	2
113	6
114	19
115	124
116	68
117	117
118	159
119	67
120	36
121	5
122	3
123	5
124	2
125	3
126	10
127	37
128	90
129	376
130	326
131	52
132	50
133	8
134	4
135	2
137	10
138	3
139	5
140	19
141	13
142	16
143	36
144	145
145	666
146	71
147	4
148	0
149	1
150	3
151	5
152	23
153	8
154	13
155	31
156	44
157	34
158	8
159	2
160	2
161	2
162	1
163	3
164	4
165	16
166	4
167	2
168	4
169	23
170	38
171	33
172	11
173	2
174	0
175	1
176	5
177	5
178	14
179	7
180	6
181	2
182	7
183	5
184	7
185	28
186	13
187	10
188	3
189	17
190	13
191	18
192	5
193	2
194	2
195	1
196	8
197	5
198	0
199	0
200	2
201	5
202	14
203	19
204	18
205	35
206	12
207	2
208	0
209	3
210	1
211	1
213	6
214	2
215	2
216	5
217	9
218	8
219	7
220	26
221	11
222	2
223	0
227	107
228	15
229	4
230	10
231	12
232	16
233	14
234	3
235	0
240	0
241	0
242	1
243	1
244	2
245	13
246	10
247	20
248	5
249	0
254	0
255	1
257	48
258	30
259	72
260	14
261	1
263	0
269	0
270	2
271	8
272	13
273	14
274	89
275	21
276	3
278	0
283	1
285	6
287	39
289	826
290	149
291	16
292	1
299	1
300	6
302	5
304	575
305	112
306	13
307	1
