Mass Spectrum: 1-{Bicyclo[2.2.1]heptan-2-yl}ethanone
Formula: C9H14O
CAS: 109583-34-8
Molecular weight: 138
m/z	intensity
37	2
38	16
39	263
40	61
41	281
42	33
43	767
44	31
45	11
50	16
51	44
52	19
53	96
54	36
55	154
56	7
57	21
58	14
59	32
62	4
63	15
64	3
65	98
66	126
67	660
68	72
69	35
70	9
71	956
72	129
73	5
77	78
78	93
79	169
80	999
81	159
82	16
83	9
84	15
85	1
91	83
92	49
93	70
94	24
95	767
96	66
97	141
98	9
99	7
105	139
106	10
107	0
109	28
110	5
119	6
120	153
121	14
123	36
124	2
125	1
138	86
139	9
