Mass Spectrum: Hexananilide, 2-methyl-
Formula: C13H19NO
CAS: 109591-90-4
Molecular weight: 205
m/z	intensity
26	4
27	90
28	14
29	93
30	2
31	1
37	0
38	4
39	74
40	22
41	131
42	21
43	429
44	13
45	0
49	0
50	4
51	27
52	5
53	8
54	4
55	35
56	10
57	50
58	2
59	0
61	0
62	1
63	8
64	11
65	58
66	40
67	6
68	3
69	18
70	1
71	4
72	0
73	0
74	1
75	1
76	2
77	72
78	8
79	5
80	0
81	0
82	0
83	3
84	2
85	156
86	10
87	0
88	0
89	0
90	1
91	20
92	48
93	999
94	88
95	4
97	2
98	0
99	1
102	0
103	4
104	7
105	17
106	19
107	1
110	0
111	0
112	5
113	9
114	0
115	0
116	0
117	2
118	7
119	16
120	54
121	5
122	0
128	0
129	0
130	2
131	1
132	3
133	2
134	6
135	10
136	1
137	0
138	0
143	0
144	1
145	0
146	3
147	1
148	15
149	251
150	24
151	1
152	0
158	0
159	0
160	0
162	10
163	6
164	0
186	0
187	0
190	2
204	3
205	105
206	18
207	2
