Mass Spectrum: 2-[4-Acetamidophenylsulfonyl]-1,4-naphthoquinone
Formula: C18H13NO5S
CAS: 109565-45-9
Molecular weight: 355
m/z	intensity
41	33
42	31
43	999
44	40
45	15
50	117
51	132
52	42
53	90
57	56
62	14
63	75
64	59
65	171
66	55
69	12
74	67
75	190
76	211
77	98
80	30
89	42
90	12
91	36
92	235
93	203
94	108
95	12
101	253
102	207
103	34
104	199
105	119
108	159
109	64
118	15
124	14
129	100
130	142
131	14
133	47
134	16
135	35
136	478
137	46
140	125
141	11
146	17
151	27
156	56
157	72
158	327
159	46
165	36
173	11
180	13
193	51
199	35
204	40
205	15
219	38
220	110
221	202
222	40
232	32
233	45
248	116
249	593
250	97
251	11
291	317
292	70
313	44
314	17
354	51
355	227
356	54
357	12
