Mass Spectrum: 3-(Benzamido)carbazole
Formula: C19H14N2O
CAS: 109693-64-3
Molecular weight: 286
m/z	intensity
28	50
39	18
50	42
51	178
52	32
63	23
74	20
75	36
76	43
77	597
78	45
101	42
102	23
105	999
106	84
126	44
127	126
128	103
129	18
152	36
153	75
154	253
155	37
179	49
180	37
181	558
182	108
183	74
286	682
287	161
288	18
