Mass Spectrum: 2,2'-Dimethyl-6,6'-dinitroazobenzene
Formula: C14H12N4O4
CAS: 109670-19-1
Molecular weight: 300
m/z	intensity
53	999
64	522
65	603
78	782
89	492
90	374
105	113
106	113
121	151
164	883
206	173
236	87
253	69
283	234
300	175
