Mass Spectrum: Silane, (1,1-dimethylethyl)(3,7-dimethyl-1-oxo-3,6-octadienyl)dimethyl-, (E)-
Formula: C16H30OSi
CAS: 109629-50-7
Molecular weight: 266
m/z	intensity
27	12
28	12
29	17
31	6
39	18
40	4
41	62
42	4
43	27
44	6
45	37
53	13
55	13
56	3
57	9
58	23
59	73
60	6
61	4
65	4
67	11
69	26
72	5
73	999
74	75
75	89
76	5
77	10
79	9
81	15
82	4
83	5
85	7
91	10
93	12
95	4
97	5
99	13
105	3
107	13
108	3
109	8
113	70
114	9
115	507
116	52
117	18
122	6
123	9
125	8
127	3
133	3
135	7
139	12
141	5
143	68
144	8
145	3
155	4
165	2
181	8
182	2
195	1
209	4
223	4
225	4
238	2
251	9
252	2
266	1
