Mass Spectrum: Cyclohex-2-ene-1-acrylic acid, 2,6,6,.alpha.-tetramethyl-
Formula: C13H20O2
CAS: 109629-40-5
Molecular weight: 208
m/z	intensity
26	0
27	16
28	5
29	17
31	0
38	0
39	26
40	4
41	65
42	4
43	34
44	1
45	5
46	0
50	1
51	9
52	3
53	22
54	3
55	31
56	7
57	12
58	2
59	1
60	3
61	1
62	0
63	2
64	1
65	17
66	4
67	20
68	5
69	45
70	4
71	6
72	1
73	5
74	2
75	2
77	35
78	8
79	36
80	7
81	28
82	6
83	7
84	2
85	3
86	0
87	1
88	0
89	3
90	0
91	84
92	13
93	37
94	7
95	33
96	7
97	6
98	2
99	1
100	0
101	0
102	0
103	4
104	2
105	28
106	24
107	999
108	48
109	26
110	3
111	5
112	2
113	5
114	0
115	5
116	2
117	4
118	0
119	18
120	3
121	9
122	6
123	7
124	4
125	14
126	2
127	1
128	2
129	3
130	0
131	2
132	1
133	6
134	12
135	8
136	3
137	28
138	4
139	1
140	3
141	2
142	1
143	0
144	0
145	1
146	0
147	18
148	2
149	10
150	1
151	4
152	651
153	32
154	2
155	0
157	1
158	0
159	0
160	1
161	1
162	1
163	4
164	0
165	4
166	0
167	0
175	10
176	1
177	0
179	0
180	0
190	0
191	1
192	0
193	47
194	6
195	0
208	38
209	5
210	0
