Mass Spectrum: Bicyclo[3.3.0]octan-2-one, 7-trimethylsilylmethylene-
Formula: C12H20OSi
CAS: 109613-14-1
Molecular weight: 208
m/z	intensity
26	3
27	24
28	6
29	12
31	14
38	1
39	23
40	3
41	21
42	3
43	51
44	22
45	134
46	8
47	7
50	3
51	12
52	8
53	12
54	3
55	16
56	5
57	10
58	17
59	56
60	4
61	7
63	3
64	1
65	13
66	3
67	5
68	1
69	7
70	3
71	5
72	11
73	999
74	85
75	152
76	11
77	53
78	25
79	29
80	3
81	4
82	3
83	8
84	16
85	4
89	2
91	68
92	151
93	17
94	1
95	6
96	1
97	3
99	1
101	4
103	7
104	2
105	9
106	12
107	4
109	4
111	2
115	6
116	2
117	25
118	22
119	27
120	3
121	5
123	1
127	2
129	6
130	2
131	1
133	2
134	1
135	19
136	4
137	5
147	1
149	5
151	13
152	153
153	31
154	9
155	3
163	4
164	2
165	58
166	14
167	19
168	19
169	3
175	2
177	2
179	28
180	67
181	13
182	3
191	2
192	1
193	73
194	12
195	3
207	32
208	192
209	36
210	10
