Mass Spectrum: Pregna-4,16-diene-3,20-dione
Formula: C21H28O2
CAS: 1096-38-4
Molecular weight: 312
m/z	intensity
15	8
17	6
18	31
27	37
28	11
29	44
32	5
39	63
40	10
41	155
42	9
43	999
44	22
45	11
51	23
52	16
53	100
54	14
55	119
56	6
57	9
63	7
64	4
65	73
66	30
67	111
68	9
69	28
70	3
71	8
75	2
76	4
77	216
78	65
79	230
80	35
81	94
82	10
83	23
84	8
85	14
86	4
89	10
90	6
91	362
92	64
93	225
94	42
95	98
96	15
97	30
98	9
99	11
100	2
102	6
103	38
104	26
105	213
106	63
107	152
108	35
109	83
110	21
111	31
112	5
113	32
114	7
115	67
116	29
117	93
118	25
119	124
120	63
121	187
122	112
123	126
124	306
125	31
126	7
127	141
128	45
129	66
130	32
131	120
132	39
133	177
134	192
135	278
136	99
137	106
138	19
139	4
140	2
141	32
142	22
143	69
144	23
145	192
146	58
147	219
148	61
149	75
150	24
151	9
152	8
153	13
154	10
155	33
156	14
157	50
158	16
159	70
160	29
161	94
162	30
163	51
164	10
165	14
166	7
167	14
168	6
169	32
170	11
171	64
172	23
173	130
174	32
175	125
176	59
177	36
178	12
179	7
180	3
181	13
182	6
183	22
184	11
185	34
186	16
187	50
188	45
189	218
190	45
191	18
192	6
193	7
194	1
195	16
196	5
197	23
198	8
199	23
200	16
201	38
202	26
203	16
204	8
205	3
207	3
208	3
209	14
210	5
211	21
212	7
213	32
214	19
215	22
216	7
217	3
219	2
221	5
222	1
223	10
224	4
225	16
226	7
227	198
228	37
229	10
230	4
231	2
235	6
236	4
237	25
238	5
239	20
240	6
241	21
242	11
250	1
251	46
252	14
253	14
254	6
255	80
256	19
257	3
261	6
265	3
266	2
267	5
268	9
269	703
270	264
271	42
272	4
279	46
280	11
282	2
283	8
284	10
285	2
293	1
294	6
295	7
296	3
297	300
298	70
299	12
310	7
311	3
312	611
313	132
314	21
