Mass Spectrum: 2-Propen-1-ol, 2-methyl-3-(2,6,6-trimethyl-2-cyclohexen-1-yl)-, (E)-
Formula: C13H22O
CAS: 109629-41-6
Molecular weight: 194
m/z	intensity
26	6
27	62
28	9
29	74
30	4
31	21
38	4
39	91
40	19
41	230
42	17
43	187
44	9
45	15
50	8
51	31
52	16
53	92
54	14
55	164
56	31
57	35
58	14
59	5
60	2
62	3
63	13
64	7
65	57
66	19
67	109
68	413
69	163
70	15
71	24
72	4
73	4
74	3
75	9
76	4
77	127
78	35
79	143
80	190
81	261
82	50
83	37
84	12
85	8
89	6
90	4
91	216
92	42
93	143
94	42
95	367
96	74
97	20
98	6
99	3
102	4
103	19
104	11
105	188
106	74
107	999
108	118
109	138
110	51
111	18
112	5
113	1
115	19
116	8
117	18
118	8
119	98
120	81
121	93
122	25
123	127
124	21
125	8
126	4
127	4
128	9
129	9
130	5
131	12
132	4
133	43
134	30
135	18
136	26
137	15
138	900
139	102
140	8
141	7
142	3
143	2
144	3
145	8
146	5
147	11
148	4
149	7
151	6
152	6
155	2
159	4
160	2
161	77
162	12
163	14
164	2
165	2
175	4
176	26
177	13
178	3
179	29
180	4
181	1
190	3
191	1
192	2
193	1
194	61
195	9
196	1
