Mass Spectrum: Pregn-11-ene-3,20-dione, (5.beta.)-
Formula: C21H30O2
CAS: 1096-39-5
Molecular weight: 314
m/z	intensity
41	216
42	15
43	999
45	24
51	16
53	82
55	281
57	31
58	53
63	7
65	42
66	16
67	148
68	32
69	79
71	119
75	23
77	105
78	37
79	162
80	31
81	175
83	46
84	24
85	147
86	24
91	254
92	56
93	158
94	44
95	162
96	30
97	45
98	8
99	18
103	31
104	28
105	330
106	84
107	182
108	59
109	106
110	43
111	97
115	45
116	35
117	142
118	65
119	167
120	87
121	95
122	64
123	59
124	73
125	47
127	14
128	44
129	81
130	40
131	166
132	107
133	133
134	41
135	60
136	19
137	68
138	23
141	30
142	32
143	85
144	59
145	135
146	48
147	102
148	23
149	42
150	17
151	11
155	41
156	31
157	115
158	90
159	147
160	50
161	80
162	17
163	27
167	9
168	8
169	62
170	28
171	124
172	70
173	96
174	36
175	55
177	21
181	11
182	17
183	35
184	27
185	56
186	67
187	67
188	12
189	28
190	18
191	17
195	16
196	10
197	45
198	18
199	52
200	16
201	62
202	36
203	23
205	9
209	13
210	12
211	126
212	32
213	42
214	8
215	24
216	18
217	10
223	33
224	18
225	24
226	73
227	12
228	39
229	292
237	16
238	18
239	81
240	16
241	81
242	56
243	50
244	172
253	72
254	18
255	26
256	62
257	62
263	22
269	28
271	101
281	138
285	11
296	51
297	17
299	100
313	7
314	385
