Mass Spectrum: Oxiraneethanol, .beta.-(1-ethoxyethoxy)-, [2R-[2R*[R*(R*)]]]-
Formula: C8H16O4
CAS: 109613-58-3
Molecular weight: 176
m/z	intensity
25	9
26	76
28	26
29	129
30	8
31	173
33	1
37	1
38	2
39	18
40	4
41	150
42	26
43	240
44	87
45	836
46	21
47	52
48	0
49	0
50	0
51	1
52	0
53	1
54	2
55	34
56	35
57	115
58	22
59	45
60	11
61	59
62	1
63	1
65	1
66	0
67	1
68	1
69	95
70	9
71	14
72	40
73	999
74	63
75	41
76	1
77	1
78	0
79	1
81	0
82	0
83	2
84	1
85	5
86	4
87	147
88	10
89	22
90	1
91	6
92	1
95	1
97	1
99	2
100	3
101	15
102	2
103	4
104	2
105	1
107	0
108	0
109	0
111	0
112	1
113	3
114	1
115	43
116	3
117	9
118	0
121	0
122	0
123	0
125	0
126	0
127	0
129	2
130	1
131	37
132	3
133	5
134	0
135	1
139	0
140	0
141	0
145	27
146	2
147	4
148	0
155	0
157	0
159	3
161	3
175	4
