Mass Spectrum: Methyldiphenylsilyloxymethylbenzene
Formula: C20H20OSi
CAS: 109629-92-7
Molecular weight: 304
m/z	intensity
26	12
27	28
28	3
29	15
30	2
31	2
36	17
37	3
38	6
39	85
41	27
43	48
44	21
45	89
46	6
47	6
49	3
50	45
51	128
52	31
53	59
55	5
59	6
61	8
62	8
63	39
64	12
65	191
66	15
67	12
69	8
74	5
75	8
76	19
77	119
78	49
79	35
81	2
85	4
89	25
90	15
91	999
92	95
93	28
95	2
97	1
98	1
101	6
103	12
104	6
105	112
106	17
107	11
111	2
113	4
115	4
119	23
120	19
121	68
122	8
123	2
125	2
133	5
135	8
137	72
138	4
139	4
148	32
149	35
150	15
151	3
152	26
153	8
154	8
155	8
165	19
166	5
167	89
168	19
179	3
180	13
181	28
182	8
183	142
184	29
185	7
193	2
195	32
196	8
197	133
198	39
199	19
210	4
211	168
212	39
213	8
224	3
225	46
226	381
227	93
228	35
229	3
259	105
260	31
261	4
287	3
288	4
289	149
290	39
291	11
303	2
304	4
