Mass Spectrum: Silane, (1,1-dimethylethyl)dimethyl[2-methyl-1-oxo-3-(2,6,6-trimethyl-2-cyclohexen-1-yl)-2-propenyl]-, (E)-
Formula: C19H34OSi
CAS: 109629-45-0
Molecular weight: 306
m/z	intensity
27	0
29	26
31	8
39	20
40	4
41	79
42	4
43	32
44	7
45	55
46	3
47	4
50	0
51	5
52	3
53	28
54	4
55	30
56	15
57	21
58	34
59	119
60	10
61	9
63	2
64	1
65	20
66	5
67	22
68	2
69	42
70	4
71	4
72	9
73	999
74	82
75	262
76	18
77	47
78	13
79	48
80	8
81	31
82	3
83	12
84	2
85	15
86	3
87	2
88	1
89	5
90	2
91	142
92	32
93	32
94	7
95	18
96	3
97	12
98	4
99	27
100	4
101	6
102	2
103	10
104	5
105	66
106	33
107	69
108	14
109	12
110	2
111	10
112	2
113	12
114	5
115	48
116	8
117	14
118	10
119	97
120	40
121	23
122	11
123	53
124	5
125	10
126	2
127	908
128	106
129	41
130	4
131	11
132	3
133	24
134	6
135	24
136	6
137	4
139	3
141	12
142	4
143	10
144	3
145	9
146	2
147	8
148	2
149	12
150	3
151	5
153	5
154	2
155	6
156	2
157	3
158	2
159	32
160	6
161	22
162	3
163	12
164	2
165	12
166	3
167	9
168	2
169	5
170	14
171	3
173	12
174	5
175	34
176	12
177	12
178	5
179	117
180	26
181	13
182	6
183	298
184	47
185	14
191	6
192	2
193	32
194	52
195	13
196	3
197	2
204	2
206	4
207	1
208	1
221	8
222	2
223	2
235	43
236	10
237	5
238	1
249	15
250	91
251	20
252	4
291	24
292	6
293	1
306	4
307	1
