Mass Spectrum: 1,4,7,10,13,16-Hexaoxacyclononadecane, 18-(1,4,7,10-tetraoxacyclotridec-12-yl)-
Formula: C22H42O10
CAS: 109773-70-8
Molecular weight: 466
m/z	intensity
53	42
54	92
55	176
56	54
57	123
58	176
59	346
60	35
61	18
64	32
65	12
66	21
67	153
68	100
69	146
70	69
71	145
72	115
73	423
74	24
75	52
77	26
78	130
79	77
80	60
81	107
82	46
83	176
84	43
85	42
86	100
87	407
88	161
89	999
90	63
91	28
92	27
93	32
94	42
95	107
96	153
97	230
98	38
99	77
100	49
101	76
102	29
103	77
104	23
105	19
106	13
107	34
108	25
109	50
110	35
111	36
112	30
113	53
114	31
115	56
117	60
118	12
119	29
120	10
121	21
122	52
123	26
124	23
125	18
126	19
127	41
128	20
129	27
130	12
131	76
132	10
133	661
134	50
135	20
138	13
139	30
140	42
141	52
142	18
143	19
145	22
147	13
148	14
149	14
151	69
152	13
153	19
154	15
155	14
157	26
158	21
159	26
161	28
166	19
167	14
171	12
172	7
175	32
177	57
178	10
183	18
184	13
185	19
187	3
188	26
189	19
195	21
197	9
201	19
202	69
203	19
207	11
210	9
215	23
216	24
217	7
219	9
221	23
226	10
227	11
228	246
229	58
230	15
231	9
239	53
240	8
245	15
251	13
272	15
273	9
275	11
289	12
290	10
291	10
303	12
304	5
316	92
317	30
318	6
333	15
423	7
466	6
467	5
