Mass Spectrum: 7-Tosyl-1,3:2,5:4,6-trimethylene-d-glycero-d-mannoheptitol
Formula: C17H22O9S
CAS: 109721-49-5
Molecular weight: 402
m/z	intensity
41	241
42	73
43	353
44	145
45	604
46	14
47	6
48	5
49	7
50	22
51	51
52	20
53	51
54	40
55	283
56	48
57	506
58	40
59	50
60	5
61	15
62	15
63	75
64	30
65	375
66	26
67	30
68	119
69	630
70	159
71	190
72	146
73	573
74	27
75	12
76	7
77	55
78	21
79	29
80	11
81	233
82	51
83	86
84	42
85	685
86	170
87	138
88	12
89	118
90	117
91	999
92	159
93	15
94	24
95	51
96	32
97	390
98	276
99	278
100	52
101	59
102	6
103	22
104	6
105	34
106	8
107	62
108	48
109	24
110	29
111	100
112	41
113	44
114	56
115	289
116	23
117	59
118	15
119	8
121	29
122	5
123	26
124	60
125	25
126	28
127	525
128	140
129	58
130	8
131	112
132	8
133	6
135	32
136	3
137	4
138	12
139	79
140	41
141	94
142	22
143	15
144	95
145	384
146	27
147	5
149	8
150	5
151	3
152	29
153	14
154	75
155	885
156	97
157	199
158	24
159	18
160	2
161	2
165	5
169	14
170	27
171	33
172	103
173	127
174	20
175	9
182	9
183	39
184	11
185	19
186	4
187	68
188	7
189	2
197	5
198	2
199	50
200	68
201	38
202	5
209	2
211	6
212	24
213	6
214	3
215	21
216	4
217	46
218	5
225	5
227	15
228	8
229	19
230	39
231	27
232	3
237	4
238	2
239	27
240	4
241	12
242	17
243	4
244	2
245	7
246	2
247	2
251	2
252	18
253	16
254	5
255	4
257	26
258	6
259	2
260	50
261	8
265	13
266	6
267	2
268	2
269	165
270	27
271	35
272	4
273	2
278	4
280	3
281	7
282	7
283	10
284	6
285	5
286	13
287	8
295	2
296	14
297	2
298	2
299	236
300	36
301	18
302	2
303	3
308	2
311	3
312	21
313	7
314	5
315	3
324	30
325	6
326	6
328	3
329	254
330	42
331	18
332	2
341	22
342	206
343	39
344	15
345	2
354	50
355	9
356	4
357	2
372	6
401	6
402	17
403	14
404	2
