Mass Spectrum: 2-[2-Benzyloxy-1-(1-methoxy-ethoxy)-ethyl]-oxirane
Formula: C14H20O4
CAS: 109715-63-1
Molecular weight: 252
m/z	intensity
26	7
27	49
28	19
29	81
30	8
31	68
33	45
38	4
39	72
40	11
41	90
42	39
43	155
44	21
45	88
46	2
50	13
51	49
52	13
53	9
54	11
55	26
56	10
57	33
58	439
59	764
60	30
61	10
62	6
63	27
64	11
65	132
66	11
67	3
68	3
69	37
70	28
71	111
72	60
73	21
74	16
75	18
76	5
77	58
78	17
79	52
80	4
81	3
83	2
84	4
85	12
86	8
87	135
88	32
89	44
90	22
91	999
92	146
93	13
99	11
100	8
101	36
102	17
103	17
104	12
105	68
106	17
107	257
108	38
109	3
113	28
114	7
115	26
116	18
117	24
118	26
119	56
120	12
121	18
122	7
127	2
128	4
129	12
130	5
131	73
132	11
133	91
134	46
135	99
136	13
137	3
143	20
144	9
145	23
146	8
147	10
148	15
149	39
150	55
151	34
152	5
158	7
159	26
160	4
161	14
163	4
165	14
166	3
169	4
174	4
175	8
176	50
177	25
178	5
179	13
180	10
181	2
186	3
193	114
194	41
195	4
207	4
208	4
209	2
220	3
221	3
237	7
250	2
251	10
252	32
253	5
