Mass Spectrum: 12,12'-Bi-1,4,7,10-tetraoxacyclotridecane
Formula: C18H34O8
CAS: 109773-66-2
Molecular weight: 378
m/z	intensity
52	53
53	85
54	185
55	51
56	131
57	108
58	130
59	26
60	31
67	133
68	115
69	154
70	67
71	123
72	64
73	359
74	31
75	62
77	46
78	162
79	67
80	46
81	123
82	105
83	615
84	80
85	513
86	77
87	282
88	162
89	999
90	72
93	44
94	46
95	128
96	169
97	256
98	44
99	85
100	90
101	108
103	77
109	56
110	67
111	44
112	56
113	64
114	41
115	79
133	795
134	74
139	54
140	64
141	72
151	112
153	36
161	44
163	113
183	18
185	26
187	25
188	103
189	31
202	92
203	26
215	46
216	23
228	385
229	90
245	23
247	15
335	51
378	26
