Mass Spectrum: Valeric acid, 3,5-dihydroxy-2,4-dimethyl-, .delta.-lactone
Formula: C7H12O3
CAS: 109717-37-5
Molecular weight: 144
m/z	intensity
26	36
27	247
28	319
29	308
30	83
31	119
37	14
38	193
40	54
41	453
42	229
43	327
44	15
45	53
51	14
53	104
54	24
55	87
56	997
57	857
58	707
59	83
65	20
67	186
68	40
69	111
70	24
71	999
72	118
73	45
74	395
75	140
79	11
81	18
82	47
83	22
85	354
86	53
87	137
88	12
89	16
96	23
98	79
99	13
111	6
126	87
127	18
144	18
145	53
146	5
