Mass Spectrum: 15,15'-Bi-1,4,7,10,13-pentaoxacyclohexadecane
Formula: C22H42O10
CAS: 109773-67-3
Molecular weight: 466
m/z	intensity
50	8
51	14
52	7
53	33
54	63
55	140
56	50
57	140
58	153
59	227
60	18
61	23
63	9
64	33
65	40
66	19
67	120
68	60
69	127
70	63
71	137
72	93
73	267
74	20
75	37
76	13
77	40
78	90
79	73
80	47
81	33
82	43
83	137
84	33
85	60
86	83
87	317
88	117
89	999
90	77
91	173
92	53
93	27
94	33
95	90
96	123
97	180
98	47
99	90
100	33
101	67
102	24
103	47
104	10
105	33
106	13
107	67
108	33
109	47
110	27
111	43
112	15
113	70
114	19
115	33
116	23
117	60
118	13
119	21
120	19
121	57
122	43
123	23
124	17
125	15
126	12
127	18
128	10
129	12
130	8
131	60
132	8
133	317
134	23
135	13
136	5
137	10
138	10
139	23
140	25
141	27
142	7
143	10
145	37
146	5
147	11
148	6
149	40
151	24
152	5
153	10
154	8
155	28
156	7
157	13
158	5
159	17
160	5
161	8
163	12
165	5
166	12
167	8
169	4
171	8
172	4
173	8
174	5
175	22
176	5
177	200
178	18
179	7
183	5
184	7
185	15
186	5
187	6
195	63
196	5
203	7
205	10
207	15
212	15
219	5
221	3
231	8
235	5
246	9
259	9
272	100
273	17
289	5
423	2
466	2
