Mass Spectrum: 3-(1,3-Dihydroxyisopropyl)-1,5,8,11-tetraoxacyclotridecane
Formula: C12H24O6
CAS: 109773-63-9
Molecular weight: 264
m/z	intensity
51	32
53	12
54	529
55	388
56	94
57	388
58	235
59	294
60	129
61	118
63	35
64	32
65	44
66	53
67	424
68	212
69	253
70	394
71	265
72	129
73	353
74	59
75	147
76	59
77	100
78	51
79	118
80	35
81	188
82	171
83	529
84	153
85	171
86	59
87	294
88	147
89	999
90	59
91	53
95	100
96	529
97	353
98	42
99	59
100	31
101	118
102	42
103	59
104	21
105	147
106	12
107	100
108	15
109	39
110	29
111	19
112	24
113	324
114	206
115	171
116	50
127	49
128	19
129	265
131	19
133	300
134	29
140	17
141	25
149	59
151	565
152	50
153	18
155	14
157	14
158	11
159	15
163	22
177	36
191	13
214	9
215	9
216	12
220	9
246	9
264	13
