Mass Spectrum: 3-(1,3-Dihydroxyisopropyl)-1,5,8,11,14,17-hexaoxacyclononadecane
Formula: C16H32O8
CAS: 109773-65-1
Molecular weight: 352
m/z	intensity
53	90
54	347
55	368
56	137
57	368
58	368
59	368
60	33
61	37
64	27
65	33
66	33
67	290
68	174
69	326
70	242
71	242
72	147
73	384
74	53
75	90
76	16
77	37
78	14
79	74
80	26
81	174
82	111
83	395
84	90
85	174
86	84
87	316
88	168
89	999
90	95
91	42
92	11
93	17
94	20
95	100
96	353
97	337
98	58
99	68
100	23
101	116
102	29
103	90
104	16
105	24
107	31
108	18
109	47
110	26
111	33
112	34
113	290
114	121
115	142
116	28
117	53
118	10
119	53
120	11
121	21
122	22
125	16
126	18
127	47
128	14
129	24
131	53
133	421
134	40
135	17
139	11
140	33
141	24
143	16
145	27
147	12
149	13
151	63
152	9
157	24
158	12
159	17
161	12
163	26
164	6
165	21
171	11
172	5
173	6
175	22
177	63
178	14
179	7
193	24
195	36
196	9
201	8
203	8
220	13
221	8
239	258
240	40
241	13
251	7
265	5
352	3
