Mass Spectrum: 1,4,7,10,13-Pentaoxacyclohexadecane, 15-(1,4,7,10-tetraoxacyclotridec-12-yl)-
Formula: C20H38O9
CAS: 109773-69-5
Molecular weight: 422
m/z	intensity
53	43
54	71
55	150
56	54
57	118
58	136
59	179
60	15
61	14
67	150
68	61
69	125
70	64
71	100
72	75
73	321
74	21
75	54
77	24
78	104
79	71
80	50
81	82
82	61
83	161
84	57
85	54
86	71
87	329
88	125
89	999
90	79
91	17
92	25
93	24
94	30
95	86
96	171
97	250
98	50
99	93
100	61
101	86
102	27
103	89
107	32
108	18
109	54
110	39
111	36
112	27
113	64
114	27
115	46
116	12
117	57
118	10
119	25
121	36
122	54
123	28
124	20
125	27
126	27
127	50
131	46
132	8
133	571
134	54
135	17
139	39
140	50
141	64
151	12
152	19
153	19
154	21
155	26
157	36
159	21
163	29
166	21
175	22
177	161
178	20
183	18
184	13
185	29
187	22
188	27
195	82
196	11
201	16
202	46
203	11
205	14
207	18
215	24
216	14
217	12
228	250
229	46
231	14
232	11
233	9
235	9
242	9
243	7
245	14
246	16
259	14
260	6
272	21
273	23
274	8
286	8
287	5
289	10
290	5
291	5
379	5
380	3
422	5
423	7
