Mass Spectrum: 18,18'-Bi-1,4,7,10,13,16-hexaoxacyclononadecane
Formula: C26H50O12
CAS: 109773-68-4
Molecular weight: 554
m/z	intensity
51	29
53	32
54	57
55	159
56	48
57	157
58	305
59	438
60	29
61	42
63	18
64	21
65	21
66	19
67	129
68	57
69	100
70	114
71	143
72	191
73	714
74	43
75	71
76	18
77	86
78	62
79	67
80	29
81	67
82	57
83	138
84	43
85	57
86	110
87	476
88	176
89	999
90	96
91	86
92	28
93	30
94	36
95	71
96	110
97	167
98	33
99	71
100	24
101	129
102	57
103	159
105	124
106	24
107	33
108	19
109	29
110	24
111	30
112	24
113	62
114	26
115	62
116	31
117	100
119	48
121	28
122	57
123	29
124	24
131	95
132	14
133	476
134	48
140	29
141	34
147	38
149	37
175	25
177	95
184	20
185	11
195	29
201	14
203	13
205	15
207	11
219	19
221	29
227	10
228	9
229	17
239	43
240	11
249	7
251	11
272	12
273	7
275	7
277	7
279	6
289	8
290	9
291	7
303	11
304	8
315	8
316	91
317	31
318	6
330	9
333	6
554	7
555	2
