Mass Spectrum: 5,7-Etheno-1H,5H-cyclopropa[d][1,2,4]triazolo[1,2-a]pyridazine-6-carboxylic acid, 2,3,5a,6,6a,7-hexahydro-2-methyl-1,3-dioxo-, methyl ester, (5.alpha.,5a.beta.,6.beta.,6a.beta.,7.alpha.)-
Formula: C12H13N3O4
CAS: 109746-62-5
Molecular weight: 263
m/z	intensity
38	8
39	88
40	10
41	21
42	7
43	7
44	8
50	8
51	36
52	25
53	12
55	6
56	24
57	16
58	14
59	48
63	26
64	13
65	122
66	13
69	10
70	5
77	58
78	38
79	63
80	22
89	32
90	86
91	999
92	84
93	7
104	30
105	18
107	37
118	189
119	57
120	9
121	12
132	12
135	25
146	7
147	19
149	12
150	241
151	23
152	5
174	5
203	8
204	38
231	5
232	14
263	53
264	7
