Mass Spectrum: 3-(1,3-Dihydroxyisopropyl)-1,5,8,11,14-pentaoxacyclohexadecane
Formula: C14H28O7
CAS: 109773-64-0
Molecular weight: 308
m/z	intensity
51	16
53	137
54	500
55	500
56	137
57	368
58	368
59	421
60	42
61	76
67	368
68	237
69	316
70	316
71	237
72	171
73	421
74	55
75	171
79	105
80	53
81	211
82	145
83	526
84	166
85	192
86	92
87	368
88	229
89	999
90	105
91	53
95	137
96	447
97	368
98	55
99	68
100	42
101	134
102	45
103	89
104	19
105	71
107	92
108	24
109	55
110	42
111	40
112	45
113	315
114	211
115	216
116	32
117	55
119	71
121	45
122	29
123	16
124	7
125	14
126	20
127	58
128	16
129	29
131	58
132	13
133	342
134	37
135	26
140	50
141	32
143	13
145	26
151	100
152	50
157	32
158	11
159	26
161	9
163	26
175	24
177	90
178	8
179	9
195	658
196	90
197	16
207	32
221	12
222	4
239	12
259	9
260	11
265	6
290	6
308	7
