Mass Spectrum: N(4)-Methoxy-6-[[2-naphthalenyl]sulfonyl]-2,4-quinazolinediamine
Formula: C19H16N4O3S
CAS: 109890-51-9
Molecular weight: 380
m/z	intensity
41	196
43	999
45	134
47	70
74	51
75	154
76	49
77	223
101	154
115	173
126	92
127	628
128	268
147	99
158	85
173	52
175	411
192	53
205	115
207	128
208	50
380	590
381	136
382	41
