Mass Spectrum: 1-t-Butyl-2-methylaziridine-2-carbothioic acid, S-phenyl ester
Formula: C14H19NOS
CAS: 109849-75-4
Molecular weight: 249
m/z	intensity
26	12
27	48
28	48
29	126
30	14
34	4
37	6
38	12
39	94
40	22
41	252
42	67
43	26
44	27
45	39
50	21
51	40
52	10
53	11
54	65
55	192
56	999
57	370
58	22
59	8
61	4
62	5
63	10
65	56
66	86
67	9
68	6
69	29
70	19
71	9
74	6
75	5
76	5
77	47
78	18
79	5
81	4
82	19
83	9
84	134
85	8
91	12
96	15
97	19
98	6
100	13
103	5
104	4
108	10
109	97
110	248
111	24
112	396
113	31
121	9
122	5
123	77
124	24
125	5
130	3
135	4
139	22
140	25
141	7
149	27
150	10
151	4
160	4
164	6
192	20
193	8
206	7
249	29
250	4
