Mass Spectrum: 2-Aziridinecarbothioic acid, 1-(phenylmethyl)-, S-phenyl ester
Formula: C16H15NOS
CAS: 109849-67-4
Molecular weight: 269
m/z	intensity
26	5
27	31
28	33
29	1
30	1
31	0
37	5
38	11
39	71
40	8
41	35
42	8
43	2
44	6
45	46
46	14
47	2
48	0
49	2
50	31
51	70
52	16
53	2
54	5
55	82
56	3
57	3
58	4
59	2
60	2
61	6
62	15
63	49
64	13
65	202
66	24
67	1
68	1
69	29
70	3
71	4
72	0
73	2
74	10
75	10
76	16
77	81
78	67
79	15
80	0
81	3
82	8
83	4
84	6
85	2
86	3
87	2
88	2
89	44
90	31
91	999
92	122
93	6
94	1
95	3
96	1
97	2
102	2
103	35
104	66
105	38
106	186
107	16
108	9
109	83
110	43
111	5
112	1
115	2
116	6
117	22
118	17
119	21
120	12
121	71
122	68
123	60
124	12
125	2
128	0
129	0
130	10
131	16
132	192
133	20
134	2
135	5
136	5
137	1
138	0
139	0
148	7
149	13
150	33
151	5
152	3
153	0
160	351
161	41
162	2
164	4
165	8
166	2
167	2
168	0
192	0
193	2
194	37
195	43
196	18
197	2
198	0
199	1
200	1
208	6
209	3
210	1
211	0
240	1
241	8
242	2
243	0
269	0
270	2
271	0
272	0
