Mass Spectrum: Thiourea, dimethylaminomethyl
Formula: C4H11N3S
CAS: 109858-55-1
Molecular weight: 133
m/z	intensity
39	5
40	10
41	48
42	410
43	390
44	620
45	510
46	110
47	9
48	11
50	3
51	2
52	3
53	13
54	14
55	30
56	56
57	170
58	999
59	160
60	250
61	26
62	10
63	2
64	6
65	3
67	5
68	4
69	19
70	11
71	31
72	120
73	130
74	9
75	18
76	310
77	20
78	18
79	1
80	1
81	8
82	6
83	17
84	9
85	16
86	11
87	5
88	110
89	28
90	63
91	7
92	4
93	4
94	3
95	6
96	4
97	10
98	11
99	6
100	8
101	6
102	26
103	4
104	6
105	9
129	5
131	11
132	33
133	300
134	20
135	14
136	1
