Mass Spectrum: N-Methylbis(5-methylfurfuryl)amine
Formula: C13H17NO2
CAS: 109843-37-0
Molecular weight: 219
m/z	intensity
15	2
27	6
28	3
29	1
38	1
39	9
40	3
41	28
42	25
43	57
44	8
50	3
51	9
52	9
53	12
54	2
55	6
57	47
58	2
65	10
66	5
67	17
68	2
77	3
78	1
79	5
80	5
81	9
82	7
83	4
94	17
95	999
96	80
97	6
105	1
107	1
108	9
109	5
110	20
111	2
122	35
123	9
124	79
125	20
126	1
132	2
133	4
134	2
136	3
137	124
138	24
139	2
148	1
153	2
161	4
162	1
174	1
175	4
176	16
177	2
204	1
218	3
219	148
220	21
221	2
