Mass Spectrum: Propane, 1-acetoxy-2-isocyano-
Formula: C6H9NO2
CAS: 109862-24-0
Molecular weight: 127
m/z	intensity
26	32
27	56
29	26
30	1
31	7
33	0
34	0
37	1
38	3
39	54
40	1
41	42
42	36
43	999
44	20
52	21
54	19
55	284
56	9
58	16
61	11
62	0
64	0
66	1
67	45
68	7
69	35
70	4
72	5
73	68
74	3
75	0
76	1
85	11
86	3
88	0
97	10
98	1
100	2
