Mass Spectrum: Acetamide, N-[4-(acetyloxy)-2-cyclohexen-1-yl]-
Formula: C10H15NO3
CAS: 109856-86-2
Molecular weight: 197
m/z	intensity
37	6
38	14
39	113
40	103
41	161
42	151
43	999
44	62
45	64
47	3
50	16
51	31
52	36
53	34
54	50
55	45
56	83
57	20
59	6
60	333
61	15
65	38
66	27
67	136
68	131
69	79
70	17
77	92
78	287
79	184
80	82
81	36
82	21
83	15
84	30
85	135
86	18
92	6
93	23
94	300
95	611
96	362
97	27
98	4
108	4
109	5
110	3
111	9
112	19
127	30
136	128
137	122
138	165
139	11
