Mass Spectrum: 2(1H)-Naphthalenone, 4a,5,6,7,8,8a-hexahydro-6-[1-(hydroxymethyl)ethenyl]-4,8a-dimethyl-, [4ar-(4a.alpha.,6.alpha.,8a.beta.)]-
Formula: C15H22O2
CAS: 109897-57-6
Molecular weight: 234
m/z	intensity
26	4
27	88
28	17
29	103
30	3
31	56
38	4
39	156
40	39
41	357
42	37
43	97
44	6
45	11
50	6
51	39
52	24
53	137
54	33
55	185
56	35
57	110
58	10
59	25
60	4
62	2
63	15
64	7
65	102
66	39
67	335
68	41
69	261
70	22
71	35
72	3
73	5
74	10
75	7
76	5
77	207
78	51
79	294
80	56
81	149
82	110
83	57
84	39
85	26
86	17
87	4
89	7
90	4
91	262
92	70
93	250
94	167
95	999
96	135
97	56
98	11
99	10
100	2
101	2
102	4
103	23
104	17
105	222
106	97
107	212
108	97
109	160
110	61
111	36
112	9
113	15
114	3
115	30
116	15
117	58
118	54
119	198
120	117
121	221
122	144
123	446
124	71
125	18
126	4
127	8
128	16
129	23
130	13
131	91
132	90
133	139
134	68
135	252
136	74
137	57
138	50
139	28
140	19
141	23
142	11
143	31
144	17
145	114
146	66
147	146
148	79
149	61
150	49
151	21
152	7
153	20
154	4
155	9
156	6
157	23
158	44
159	205
160	66
161	189
162	37
163	57
164	17
165	12
166	5
167	3
168	3
169	4
170	4
171	8
172	17
173	119
174	62
175	120
176	49
177	47
178	15
179	6
180	2
181	2
183	14
184	3
185	16
186	9
187	40
188	55
189	45
190	16
191	214
192	41
193	18
194	3
198	6
199	5
201	152
202	25
203	176
204	71
205	28
206	57
207	9
215	3
216	239
217	45
218	7
219	190
220	31
221	4
232	2
233	3
234	107
235	20
236	3
