Mass Spectrum: 2-Cyclohexen-1-ol, 4-amino-5,6-dimethoxy-
Formula: C8H15NO3
CAS: 109906-47-0
Molecular weight: 173
m/z	intensity
38	2
39	29
41	49
42	24
43	20
45	57
50	3
51	6
52	7
53	25
54	19
55	29
56	506
57	34
58	15
59	11
60	22
64	0
65	19
66	6
67	13
68	40
69	11
70	9
71	5
72	2
73	49
74	7
75	8
77	2
78	6
79	3
80	33
81	17
82	13
83	12
84	46
85	999
86	58
87	5
88	48
89	3
92	7
93	6
94	3
95	6
96	11
97	7
98	4
99	112
100	6
107	1
108	10
109	6
110	8
111	1
112	23
113	3
122	0
123	5
124	6
125	5
126	2
127	1
138	1
139	2
140	6
141	3
142	1
155	0
