Mass Spectrum: Carbamic acid, [2-[(cyanomethyl)amino]-2-oxo-1-(phenylmethyl)ethyl]-, 1,1-dimethylethyl ester, (S)-
Formula: C16H21N3O3
CAS: 109924-24-5
Molecular weight: 303
m/z	intensity
26	4
27	33
28	62
29	95
30	31
31	35
37	2
38	7
39	76
40	40
41	195
42	18
43	29
44	18
45	2
50	11
51	34
52	10
53	9
54	2
55	18
56	30
57	999
58	47
59	126
60	5
62	5
63	21
64	7
65	103
66	7
67	3
70	2
74	3
75	2
76	4
77	47
78	16
79	5
83	25
84	3
85	30
86	2
87	2
89	21
90	17
91	631
92	116
93	14
101	5
103	49
104	16
105	15
112	63
113	4
116	3
117	12
118	22
119	21
120	405
121	37
122	2
128	20
129	3
130	5
131	61
132	9
143	4
145	5
146	49
147	7
158	2
163	7
164	128
165	12
175	2
176	3
185	30
186	138
187	18
203	5
204	3
220	37
221	5
229	14
230	34
231	4
247	42
248	8
