Mass Spectrum: 3-Benzoyl-2-t-butyl-4-vinyl-oxazolidin-5-one
Formula: C16H19NO3
CAS: 109918-60-7
Molecular weight: 273
m/z	intensity
25	0
26	5
27	23
28	21
29	41
30	2
31	0
37	2
38	5
39	40
40	13
41	78
42	15
43	16
44	23
45	2
49	1
50	15
51	60
52	7
53	6
54	11
55	22
56	30
57	55
58	2
59	1
60	1
61	1
62	2
63	4
64	1
65	8
66	2
67	11
68	19
69	20
70	6
71	8
72	0
73	1
74	3
75	3
76	13
77	259
78	26
79	4
80	2
81	5
82	6
83	7
84	4
85	5
86	1
89	3
90	4
91	24
92	4
93	2
94	2
95	3
96	2
97	5
98	1
99	1
102	1
103	3
104	10
105	999
106	86
107	7
108	4
109	2
110	1
111	3
112	1
113	1
115	4
116	2
117	2
118	5
119	8
120	1
121	2
122	4
123	2
124	18
125	3
126	0
127	0
128	1
129	1
130	2
131	1
132	0
133	1
135	1
136	11
137	1
139	1
141	8
142	4
143	3
144	1
145	1
146	1
155	2
156	1
158	4
159	1
160	4
161	0
165	1
166	0
167	1
168	0
169	0
170	0
171	2
172	15
173	3
174	0
187	2
188	2
189	1
190	1
191	1
216	86
217	12
218	1
220	1
258	2
273	1
