Mass Spectrum: Butanediamide, 2,3-dihydroxy-N,N'-bis(3-methylphenyl)-, (R,R)-(+)-
Formula: C18H20N2O4
CAS: 109987-00-0
Molecular weight: 328
m/z	intensity
51	20
52	23
60	52
65	54
77	49
78	21
79	54
91	158
92	24
93	53
104	22
106	307
107	999
108	158
133	51
134	274
135	22
165	52
166	6
194	253
195	19
328	125
329	21
