Mass Spectrum: 1-Benzoyl-2-t-butyl-3-methyl-5-vinylimidazolidin-4-one
Formula: C17H22N2O2
CAS: 109918-56-1
Molecular weight: 286
m/z	intensity
25	2
27	18
28	7
29	32
30	2
31	8
39	21
40	11
41	51
42	74
43	31
44	1
45	3
47	4
48	2
49	30
50	7
51	38
52	3
53	2
54	4
55	11
56	13
57	28
58	2
59	4
67	14
68	8
69	8
70	3
71	5
72	2
74	3
75	2
76	9
77	251
78	19
79	2
81	9
82	4
83	5
84	22
85	3
86	14
88	2
95	6
96	2
97	4
98	5
99	1
103	2
104	6
105	999
106	80
107	5
108	2
109	2
111	2
115	1
124	4
125	2
131	1
136	2
141	4
142	2
155	1
161	1
229	265
230	47
231	5
271	1
