Mass Spectrum: Carbamic acid, [2-[(cyanomethyl)amino]-1-methyl-2-oxoethyl]-, 1,1-dimethylethyl ester, (s)-
Formula: C10H17N3O3
CAS: 109923-97-9
Molecular weight: 227
m/z	intensity
26	3
27	36
28	60
29	124
30	35
31	23
37	1
38	2
39	42
40	70
41	242
42	50
43	63
44	822
45	29
50	2
51	2
52	1
53	7
54	5
55	43
56	84
57	999
58	75
59	162
60	5
61	3
65	1
67	1
68	1
69	3
70	66
71	4
72	1
73	5
74	21
75	0
76	1
77	1
79	0
81	1
82	1
83	61
84	11
85	5
86	0
87	3
88	433
89	54
90	3
91	0
93	1
95	1
96	0
97	9
98	3
99	27
100	9
101	1
104	1
105	1
110	2
111	6
112	4
113	0
115	3
116	3
121	1
122	0
123	0
125	5
126	19
127	60
128	12
129	1
130	0
138	3
144	431
145	37
146	3
153	4
154	215
155	17
156	1
171	1
172	15
173	1
181	0
186	0
195	0
225	0
227	0
228	0
