Mass Spectrum: 3-Benzoyl-2-t-butyl-4-methyl-4-vinyloxazolidin-5-one
Formula: C17H21NO3
CAS: 109918-61-8
Molecular weight: 287
m/z	intensity
26	4
27	36
28	11
29	52
30	5
31	2
37	3
38	6
39	59
40	12
41	98
42	40
43	47
44	7
45	2
47	3
49	2
50	19
51	87
52	11
53	29
54	46
55	46
56	16
57	103
58	5
60	2
63	4
65	14
66	12
67	11
68	8
69	32
70	26
71	24
72	2
73	2
74	2
75	4
76	17
77	463
78	37
79	12
80	8
81	16
82	42
83	16
84	6
85	14
86	2
89	2
90	3
91	28
92	3
93	4
94	43
95	13
96	12
97	14
98	5
99	5
103	3
104	16
105	999
106	216
107	45
108	32
109	8
110	2
111	8
112	2
113	3
115	2
121	2
122	4
123	5
124	2
125	4
127	2
131	2
137	3
138	35
139	5
141	3
158	2
174	16
175	2
176	3
186	2
230	234
231	35
232	4
272	6
273	2
287	3
