Mass Spectrum: Acetamide, N-(2-amino-2-iminoethyl)-.alpha.-(t-butoxycarbonylamino)-
Formula: C9H18N4O3
CAS: 109947-89-9
Molecular weight: 230
m/z	intensity
25	2
26	32
27	87
29	138
30	440
31	36
32	8
38	4
39	62
40	17
41	235
42	53
43	299
44	32
45	9
50	3
51	5
52	2
53	7
54	4
55	27
56	62
57	670
58	178
59	117
60	5
62	2
68	2
69	6
70	6
71	80
72	29
73	66
74	33
75	49
76	8
77	2
78	5
83	22
84	6
85	22
86	9
87	3
88	58
89	5
95	8
96	6
97	5
99	9
100	999
101	67
102	9
106	2
111	5
112	8
113	44
114	38
115	3
128	7
130	32
131	9
132	172
133	11
139	3
140	30
141	3
149	3
156	10
157	130
158	12
174	5
175	20
186	2
188	6
212	2
215	8
230	2
231	7
