Mass Spectrum: 1-Benzoyl-2-t-butyl-5-ethyl-3-methylimidazolidin-4-one
Formula: C17H24N2O2
CAS: 109918-66-3
Molecular weight: 288
m/z	intensity
26	1
27	16
28	11
29	38
30	4
38	1
39	19
40	3
41	59
42	124
43	8
44	1
50	9
51	50
52	4
53	2
54	9
55	10
56	9
57	30
58	10
60	0
63	1
65	1
67	1
68	5
69	11
70	2
71	2
72	0
74	1
75	3
76	16
77	326
78	29
79	2
81	0
82	3
83	4
84	5
85	1
91	2
96	0
97	1
98	11
99	2
100	0
103	1
104	7
105	999
106	85
107	5
110	1
111	2
115	1
117	0
118	1
122	0
126	1
127	0
147	1
178	0
180	1
202	1
203	0
215	0
228	0
230	0
231	420
232	68
233	7
273	3
