Mass Spectrum: Ethanamine, N-ethyl-2-methoxy-N-(2-methoxyethyl)-
Formula: C8H19NO2
CAS: 109907-05-3
Molecular weight: 161
m/z	intensity
24	0
26	5
27	29
28	28
29	30
30	18
31	45
33	1
38	0
39	3
40	1
41	17
42	55
43	28
44	11
45	47
46	1
50	0
51	0
52	0
53	1
54	6
55	7
56	45
57	17
58	113
59	267
60	8
61	1
65	0
67	1
68	3
69	2
70	12
71	8
72	18
73	1
74	0
75	2
77	0
79	0
81	0
82	2
83	3
84	18
85	7
86	35
87	2
88	28
89	1
91	0
95	0
96	1
97	0
98	2
99	0
100	5
101	2
102	5
103	0
109	0
110	0
112	0
113	0
114	4
115	1
116	999
117	65
118	3
119	0
121	0
123	0
128	1
129	0
130	12
131	2
132	0
133	0
144	1
146	5
147	0
160	3
161	9
162	3
163	0
