Mass Spectrum: n-Hexane
Formula: C6H14
CAS: 110-54-3
Molecular weight: 86
m/z	intensity
2	1
12	1
13	1
14	6
15	58
16	2
26	39
27	454
28	107
29	606
30	13
32	1
39	197
40	32
41	701
42	409
43	812
44	27
53	17
54	6
55	66
56	453
57	999
58	44
69	3
70	7
71	50
72	3
84	1
85	4
86	155
87	10
