Mass Spectrum: Furan
Formula: C4H4O
CAS: 110-00-9
Molecular weight: 68
m/z	intensity
12	3
13	7
14	14
17	2
18	8
25	8
26	16
27	6
28	52
29	102
32	14
34	27
36	11
37	79
38	132
39	959
40	131
41	7
42	77
43	6
49	6
50	6
51	1
66	1
67	5
68	999
69	42
70	1
