Mass Spectrum: Octadecanamide, N,N'-1,2-ethanediylbis-
Formula: C38H76N2O2
CAS: 110-30-5
Molecular weight: 592
m/z	intensity
15	4
17	9
18	52
20	1
26	6
27	62
28	26
29	134
30	159
31	3
32	10
36	2
38	1
39	39
40	9
41	282
42	82
43	619
44	415
45	14
46	5
50	1
51	3
52	3
53	19
54	56
55	284
56	107
57	373
58	28
59	35
60	18
61	28
62	1
63	1
65	4
66	6
67	59
68	49
69	160
70	94
71	165
72	26
73	149
74	9
75	1
77	6
78	4
79	17
80	15
81	57
82	187
83	237
84	999
85	364
86	155
87	95
88	7
89	1
91	8
92	4
93	13
94	12
95	99
96	69
97	463
98	534
99	64
100	46
101	11
102	9
103	35
104	3
105	5
106	3
107	9
108	8
109	37
110	42
111	137
112	109
113	20
114	10
115	29
116	4
117	3
118	2
119	3
120	2
121	10
122	8
123	29
124	33
125	69
126	360
127	33
128	23
129	19
130	3
131	2
132	5
133	2
134	1
135	7
136	5
137	39
138	19
139	333
140	78
141	13
142	27
143	9
144	129
145	12
146	2
147	1
148	1
149	3
150	2
151	18
152	12
153	80
154	36
155	8
156	14
157	103
158	15
159	2
161	1
163	2
164	2
165	10
166	10
167	39
168	31
169	7
170	13
171	15
172	4
173	1
177	1
178	1
179	8
180	9
181	42
182	25
183	6
184	14
185	9
186	8
187	1
191	1
192	2
193	9
194	10
195	47
196	21
197	7
198	15
199	16
200	6
201	1
205	1
206	1
207	7
208	9
209	36
210	20
211	11
212	16
213	18
214	6
215	1
219	1
220	1
221	7
222	9
223	29
224	18
225	8
226	14
227	10
228	16
229	3
233	1
234	1
235	6
236	8
237	25
238	22
239	30
240	16
241	15
242	7
243	1
247	1
248	1
249	6
250	5
251	30
252	22
253	23
254	20
255	15
256	71
257	12
258	1
263	5
264	5
265	18
266	16
267	22
268	14
269	31
270	12
271	5
272	1
276	1
277	7
278	6
279	65
280	44
281	97
282	55
283	21
284	55
285	11
286	1
291	2
292	4
293	13
294	16
295	10
296	9
297	31
298	9
299	14
300	3
304	1
305	5
306	5
307	77
308	40
309	82
310	43
311	14
312	12
313	3
319	1
320	1
321	8
322	58
323	14
324	3
325	16
326	6
327	9
328	3
333	1
335	56
336	19
337	4
338	1
339	4
340	39
341	9
342	1
348	1
349	8
350	56
351	14
352	2
353	17
354	7
355	1
361	1
363	37
364	11
365	2
367	4
368	34
369	9
370	1
377	8
378	3
379	1
381	12
382	5
383	1
391	4
392	3
395	4
396	1
405	5
406	2
409	3
410	1
419	3
420	1
423	3
424	1
433	3
434	1
437	2
438	1
447	2
448	1
451	1
461	2
462	1
465	1
475	2
479	1
489	2
490	1
493	1
503	1
507	1
517	1
518	2
519	1
521	1
531	1
535	1
536	2
537	1
545	1
546	3
547	1
564	2
565	1
574	1
592	1
