Mass Spectrum: 1,2-Ethanedisulfonic acid
Formula: C2H6O6S2
CAS: 110-04-3
Molecular weight: 190
m/z	intensity
14	2
15	8
16	2
25	3
26	64
27	268
28	689
29	215
30	6
31	36
32	7
33	2
34	4
36	6
38	1
39	2
41	9
42	6
43	58
44	25
45	525
46	828
47	22
48	103
49	10
50	7
51	1
52	1
53	1
54	2
55	11
56	5
57	11
58	7
59	7
60	9
61	3
62	1
63	3
64	199
65	562
66	31
67	27
68	3
69	9
70	4
71	7
73	9
74	2
75	3
76	6
77	4
78	7
79	4
80	16
81	200
82	256
83	140
84	13
85	7
87	1
91	58
92	25
93	5
94	2
95	29
96	32
97	9
98	5
99	3
100	1
101	1
103	2
105	4
107	2
108	6
109	244
110	999
111	45
112	50
113	2
115	2
116	1
119	1
120	1
121	4
122	1
123	2
124	2
125	2
126	1
127	1
128	1
129	6
133	1
134	1
135	9
136	1
137	3
138	2
139	2
140	1
141	1
143	2
145	1
147	1
149	2
150	1
151	1
152	2
157	2
158	1
160	1
163	1
165	2
166	1
167	2
168	1
171	2
172	1
173	29
174	1
175	4
177	3
178	1
179	2
185	2
186	1
190	39
191	9
192	4
