Mass Spectrum: Pentanedioic acid
Formula: C5H8O4
CAS: 110-94-1
Molecular weight: 132
m/z	intensity
14	4
15	11
16	3
25	2
26	31
27	215
28	36
29	92
30	6
31	54
34	5
35	8
36	4
37	20
38	48
39	304
40	58
41	448
42	939
43	285
44	59
45	776
46	19
47	8
49	12
50	5
51	4
52	2
53	17
54	6
55	703
56	27
57	51
58	314
59	18
60	597
61	13
62	3
63	3
65	2
66	2
67	2
68	46
69	27
70	21
71	18
72	1
73	228
74	9
75	4
76	3
77	2
79	3
80	1
82	6
84	4
85	36
86	999
87	112
88	28
89	3
91	3
92	1
94	1
95	5
96	1
97	5
109	2
112	6
113	5
114	234
115	66
116	5
117	1
