Mass Spectrum: 3-Hydroxy-6-(2-methylbutyryloxy)tropane
Formula: C13H23NO3
CAS: 110024-54-9
Molecular weight: 241
m/z	intensity
27	10
29	10
30	3
31	4
39	10
41	41
42	66
43	55
44	21
53	10
54	7
55	22
56	19
57	133
58	25
67	15
70	29
71	53
72	8
80	8
81	36
82	90
84	29
85	56
94	70
96	270
97	16
98	32
99	17
108	4
110	14
112	137
113	999
114	86
115	10
122	106
138	15
140	132
141	10
155	3
156	46
157	9
224	7
225	3
226	4
240	1
241	125
242	20
243	3
