Mass Spectrum: Thiopicolinic acid [2-pyridyl-1-ethylidene]hydrazide
Formula: C13H12N4S
CAS: 110042-51-8
Molecular weight: 256
m/z	intensity
42	204
43	9
44	2
45	44
46	5
47	9
48	1
49	16
50	102
51	426
52	274
53	61
54	13
55	4
56	2
57	7
58	15
59	52
60	5
61	6
62	11
63	34
64	36
65	29
66	11
67	15
68	1
69	37
70	14
71	7
72	2
73	3
74	14
75	15
76	41
77	92
78	999
79	398
80	47
81	1
82	14
83	13
84	22
85	2
86	6
87	1
88	3
89	6
90	7
91	30
92	39
93	29
94	6
95	7
96	6
97	15
99	0
100	0
101	2
102	3
103	13
104	170
105	338
106	161
107	16
108	4
109	28
110	9
111	10
112	2
113	3
114	3
115	2
116	4
117	36
118	7
119	15
120	9
121	5
122	133
123	220
124	59
125	14
126	3
127	0
128	1
129	0
130	4
131	0
133	2
134	143
135	3
136	81
137	38
138	22
139	4
140	3
141	3
142	1
143	0
148	10
149	11
150	457
151	56
152	39
153	7
154	4
155	2
156	0
157	0
161	0
162	0
165	0
166	2
167	8
168	13
169	8
170	1
173	0
177	11
178	619
179	67
180	32
181	11
182	3
183	8
184	2
185	1
186	2
190	0
192	4
193	20
194	50
195	113
196	15
197	1
198	0
200	3
201	0
207	3
208	0
210	0
211	14
212	4
213	81
214	12
215	16
216	0
222	1
223	4
224	2
225	5
226	3
227	124
228	54
229	13
230	3
240	119
241	500
242	77
243	28
244	3
255	0
256	205
257	35
258	12
259	1
