Mass Spectrum: 6-Methyl-3,5,8,8a-tetrahydro-1H-2-benzopyran
Formula: C10H14O
CAS: 110028-09-6
Molecular weight: 150
m/z	intensity
26	8
27	217
28	56
29	133
30	9
31	13
32	0
37	1
38	9
39	320
40	58
41	308
42	20
43	65
44	1
45	46
46	0
50	28
51	139
52	72
53	232
54	100
55	151
56	7
57	25
58	30
59	14
61	1
62	5
63	43
64	12
65	181
66	50
67	131
68	49
69	29
70	2
71	7
72	9
74	4
75	12
76	9
77	426
78	139
79	482
80	106
81	338
82	999
83	76
84	8
89	22
90	9
91	768
92	249
93	376
94	143
95	40
96	9
97	6
98	10
101	2
102	16
103	119
104	54
105	772
106	612
107	224
108	54
109	11
115	78
116	26
117	184
118	81
119	220
120	174
121	119
122	45
123	4
128	2
129	5
130	1
131	26
132	59
133	20
134	3
135	158
136	17
145	1
146	1
147	4
148	10
149	25
150	550
151	62
152	3
