Mass Spectrum: 2-[[5-[1-Pyrrolidinyl]pentyl]amino]-4,6-bis[trichloromethyl]-S-triazine
Formula: C14H19Cl6N5
CAS: 110045-49-3
Molecular weight: 467
m/z	intensity
41	41
42	89
43	25
44	9
45	2
47	2
49	3
51	1
53	5
54	7
55	65
56	15
57	8
58	1
60	0
62	0
67	5
68	9
69	12
70	33
71	27
72	5
73	1
80	3
81	3
82	27
84	999
85	63
86	3
87	0
93	1
94	2
95	1
96	9
97	4
98	4
99	0
100	1
108	9
109	8
110	13
111	6
112	2
113	2
117	3
118	2
119	3
120	2
121	1
122	2
123	2
124	3
125	2
126	10
127	1
129	4
131	1
133	1
134	5
135	5
136	8
137	4
138	2
140	3
141	1
144	1
149	0
153	0
162	2
164	1
176	2
178	2
190	0
198	0
216	0
242	0
244	1
246	0
259	0
261	0
270	3
271	3
272	3
273	4
274	2
275	2
287	0
289	0
291	0
293	3
295	4
297	3
299	0
305	2
306	1
307	4
308	2
309	3
310	1
311	2
312	0
322	0
323	2
324	3
325	4
326	5
327	3
328	4
329	2
330	2
331	1
343	2
345	2
347	1
359	3
360	19
361	5
362	19
363	5
364	12
365	2
366	4
381	0
395	3
397	5
398	1
399	2
400	1
401	2
431	19
432	8
433	31
434	13
435	19
436	8
437	6
438	3
439	1
466	1
467	2
468	3
469	5
470	3
471	4
472	3
473	1
474	0
