Mass Spectrum: 2-[[4-[1-Pyrrolidinyl]butyl]amino]-4,6-bis[trichloromethyl]-S-triazine
Formula: C13H17Cl6N5
CAS: 110045-48-2
Molecular weight: 453
m/z	intensity
41	44
42	133
43	31
44	6
45	0
47	3
49	6
51	2
52	0
53	8
54	11
55	94
56	24
57	8
58	1
62	2
66	0
67	5
68	16
69	10
70	62
71	28
72	12
73	2
75	1
78	2
79	1
80	5
81	4
82	36
84	999
85	82
86	4
87	1
88	0
89	0
92	0
93	2
94	4
95	5
96	11
97	7
98	3
99	3
100	0
101	0
102	0
108	23
109	11
110	24
111	8
112	4
113	2
114	0
116	1
117	6
118	0
119	7
120	6
121	10
122	9
123	111
124	15
125	2
126	7
127	1
129	2
131	1
134	4
135	5
136	4
137	4
138	1
139	1
141	1
144	0
146	0
148	0
149	0
150	1
153	0
154	0
155	1
156	0
157	1
160	0
162	3
164	2
166	1
174	2
175	1
176	2
177	0
178	1
181	1
183	2
185	0
187	0
188	1
190	3
191	2
192	5
193	1
194	1
202	1
204	1
208	1
209	0
210	2
211	0
241	0
242	2
243	0
244	2
245	1
246	1
263	0
270	4
271	4
272	5
273	5
274	3
275	3
276	1
277	2
278	1
279	2
280	1
281	1
293	0
297	0
305	2
306	2
307	4
308	3
309	7
310	5
311	9
312	7
313	9
314	7
315	5
316	4
317	2
318	1
341	0
343	1
345	5
346	43
347	10
348	42
349	10
350	13
351	6
352	8
353	2
354	1
381	5
382	1
383	7
384	2
385	3
386	1
387	2
388	0
415	0
417	43
418	13
419	67
420	21
421	42
422	14
423	13
424	5
425	2
426	0
451	2
452	0
453	13
454	3
455	26
456	1
457	21
458	1
459	9
460	2
461	1
