Mass Spectrum: Bicyclo[8.2.0]dodecan-11-one, 12,12-dichloro-, (1R*,10S*)-
Formula: C12H18Cl2O
CAS: 110079-11-3
Molecular weight: 248
m/z	intensity
26	9
27	149
28	7
29	91
36	5
38	8
39	162
40	34
41	267
42	37
43	39
49	9
50	13
51	81
52	19
53	93
54	82
55	427
56	32
57	19
61	12
62	5
63	21
64	5
65	102
66	37
67	289
68	82
69	139
70	92
71	24
73	34
74	8
75	41
77	103
78	28
79	223
80	74
81	216
82	70
83	246
84	260
85	30
86	5
87	74
88	26
89	44
90	9
91	109
92	24
93	159
94	43
95	140
96	45
97	273
98	999
99	74
100	13
101	36
102	15
103	18
104	8
105	39
106	14
107	53
108	32
109	101
110	36
111	238
112	111
113	65
114	11
115	55
116	38
117	30
118	15
119	55
120	15
121	72
122	144
123	74
124	94
125	69
126	18
127	20
128	12
129	27
130	10
131	24
132	9
133	40
134	18
135	37
136	10
137	387
138	45
139	25
140	15
141	9
143	10
145	6
147	29
148	59
149	35
150	37
151	16
152	14
153	6
157	5
159	44
160	6
163	9
164	8
165	8
169	8
175	7
176	21
177	202
178	27
195	11
213	17
215	6
248	16
250	10
