Mass Spectrum: Furan, 2-(9,10-dihydro-9-anthracenyl)tetrahydro-
Formula: C18H18O
CAS: 110079-20-4
Molecular weight: 250
m/z	intensity
26	0
27	27
28	1
29	10
39	12
40	0
41	39
42	7
43	193
44	2
50	2
51	6
52	1
53	1
55	0
62	1
63	9
65	2
69	2
70	5
71	999
72	42
73	2
74	2
75	6
76	15
77	4
78	1
82	1
87	3
88	8
89	16
91	3
95	2
96	1
99	1
100	1
101	4
102	2
105	1
113	1
115	4
125	1
126	4
127	4
128	5
129	1
139	6
149	1
150	11
151	23
152	31
153	4
163	4
164	1
165	9
166	1
172	1
173	2
174	4
175	12
176	52
177	49
178	784
179	633
180	93
181	7
187	1
188	1
189	10
190	4
191	19
192	9
193	1
202	5
203	5
204	2
205	4
206	1
215	2
216	1
217	1
