Mass Spectrum: 6,7-Dimethyl-3,5,8,8a-tetrahydro-1H-2-benzopyran
Formula: C11H16O
CAS: 110028-10-9
Molecular weight: 164
m/z	intensity
26	4
27	76
28	46
29	204
30	153
31	2
37	0
38	5
39	142
40	24
41	202
42	10
43	17
44	2
45	2
50	16
51	75
52	32
53	70
54	13
55	35
56	2
57	7
58	34
59	23
60	3
62	4
63	36
64	24
65	123
66	30
67	32
68	3
69	11
70	1
71	0
74	3
75	7
76	7
77	190
78	60
79	140
80	20
81	27
82	65
83	8
87	1
88	0
89	20
90	5
91	606
92	84
93	108
94	16
95	7
96	1
101	2
102	16
103	87
104	53
105	195
106	111
107	99
108	13
109	1
113	0
114	1
115	131
116	44
117	214
118	44
119	999
120	123
121	25
122	28
123	2
126	0
127	7
128	17
129	15
130	4
131	57
132	40
133	72
134	516
135	71
136	5
144	2
145	3
146	12
147	4
148	3
149	30
150	3
161	1
162	3
163	3
164	94
165	11
166	0
