Mass Spectrum: Tricyclo[4.2.1.0(2,5)]nonan-3-one, 4-chloro-
Formula: C9H11ClO
CAS: 110079-15-7
Molecular weight: 170
m/z	intensity
25	0
26	24
27	100
29	8
37	9
38	26
39	198
41	45
42	4
47	0
48	6
49	7
50	32
51	60
52	26
53	67
54	27
55	6
61	5
62	11
63	23
64	4
65	62
66	56
67	33
68	21
69	1
73	7
74	7
75	11
76	7
77	101
78	45
79	414
80	69
81	34
82	15
85	0
87	4
88	76
89	9
90	32
91	108
92	27
93	54
94	22
95	11
99	4
100	8
101	33
102	14
103	19
104	36
105	34
106	28
107	999
108	89
109	4
112	5
113	64
114	19
115	36
116	13
117	30
118	4
119	5
121	14
122	1
125	1
126	77
127	63
128	62
129	30
130	14
131	5
133	8
134	7
135	162
136	16
139	1
141	26
142	121
143	17
144	39
145	4
153	1
155	4
169	6
170	37
171	8
172	11
173	1
