Mass Spectrum: Meadowlactone
Formula: C20H38O2
CAS: 110071-67-5
Molecular weight: 310
m/z	intensity
27	22
29	60
39	43
40	14
41	349
42	208
43	410
44	27
53	24
54	67
55	552
56	173
57	345
58	29
60	17
67	155
68	129
69	432
70	400
71	493
72	27
73	59
79	25
80	15
81	136
82	148
83	348
84	206
85	97
86	28
87	21
93	20
94	16
95	120
96	182
97	410
98	175
99	999
100	81
101	39
108	20
109	83
110	115
111	219
112	78
113	43
114	241
115	59
119	31
120	12
121	21
122	19
123	71
124	67
125	100
126	48
127	62
128	21
133	29
134	71
135	32
136	21
137	57
138	53
139	40
140	23
141	18
142	20
147	25
148	27
149	15
150	9
151	57
152	44
153	26
154	15
155	16
161	12
163	9
165	29
166	25
167	18
168	11
169	9
175	10
179	27
180	16
181	9
182	10
189	11
192	8
193	15
194	19
195	9
196	13
197	9
207	24
208	35
209	10
221	23
222	22
235	24
236	17
238	11
239	21
240	6
248	134
249	51
250	52
251	17
263	18
264	9
267	12
274	29
275	6
291	2
292	188
293	49
294	8
308	2
309	4
310	45
311	5
312	1
