Mass Spectrum: 2-(1-Hydroxypropyl)promazine
Formula: C20H26N2OS
CAS: 110080-35-8
Molecular weight: 342
m/z	intensity
42	104
58	999
85	118
86	385
198	120
199	38
208	22
257	51
268	22
342	42
