Mass Spectrum: 1-[2-Deoxy-3,5-di-O-p-toluoyl-.beta.-d-erythro-pentofuranosyl]pyrrole-3-carbonitrile
Formula: C26H24N2O5
CAS: 110089-37-7
Molecular weight: 444
m/z	intensity
41	13
42	3
43	10
44	2
45	3
49	2
50	3
51	8
52	3
53	10
54	6
55	7
56	0
57	2
59	0
62	2
63	13
64	10
65	73
66	6
67	1
68	8
69	17
70	2
71	4
73	0
74	0
75	1
76	3
77	10
78	6
79	2
81	999
82	52
83	6
84	3
85	0
86	1
87	0
88	1
89	32
90	40
91	344
92	62
93	11
94	0
97	7
98	1
99	16
100	0
101	0
103	2
104	6
105	7
106	1
107	8
108	0
112	1
115	0
116	1
117	1
118	60
119	819
120	70
121	5
124	0
127	0
128	0
129	2
130	1
131	9
132	1
133	1
135	10
136	28
137	11
138	0
141	0
142	0
143	2
144	0
145	1
147	2
149	7
150	0
154	0
157	0
158	0
159	16
160	2
161	0
165	0
166	0
167	0
171	4
172	0
173	0
179	0
180	0
181	2
182	0
183	0
189	4
190	0
191	0
206	0
207	2
208	0
209	7
210	0
216	6
217	21
218	3
227	0
233	3
234	0
235	15
236	2
248	7
249	0
253	0
277	7
278	0
295	3
308	0
309	0
326	0
352	0
353	546
354	120
355	19
356	2
444	2
445	0
