Mass Spectrum: (1R,4R,5S)-1-Isopropyl-4-methoxy-4-methylbicyclo[3.1.0]hexane
Formula: C11H20O
CAS: 1100111-06-5
Molecular weight: 168
m/z	intensity
18	7
27	57
29	43
31	8
37	6
38	8
39	57
40	15
41	318
42	162
43	116
45	97
50	12
51	48
52	22
53	111
54	32
55	381
56	36
57	27
59	131
62	8
63	12
65	92
66	22
67	159
68	33
69	287
70	15
72	873
73	82
74	12
77	205
78	39
79	230
80	61
81	472
82	19
85	712
86	39
89	3
91	195
92	165
93	639
95	154
96	22
97	181
98	210
99	30
100	229
101	13
104	5
105	68
106	22
107	108
108	31
109	85
112	34
113	6
117	22
119	13
120	4
121	392
122	53
123	24
124	42
125	999
126	101
127	8
132	4
134	10
135	13
136	239
137	128
138	19
140	56
141	5
142	2
153	680
154	50
155	10
168	12
