Mass Spectrum: Spirohexan-4-one, 5-chloro-6,6-dimethyl-
Formula: C8H11ClO
CAS: 110079-16-8
Molecular weight: 158
m/z	intensity
25	29
27	232
28	6
29	68
35	2
36	6
37	17
38	58
39	478
40	999
41	275
42	18
43	30
44	1
45	3
46	2
47	3
48	14
49	16
50	47
51	110
52	38
53	163
54	78
55	261
56	17
61	10
62	18
63	33
64	8
65	55
66	24
67	245
68	128
69	74
70	5
71	1
72	0
73	11
74	7
75	32
76	15
77	94
78	19
79	123
80	26
81	57
82	17
83	6
87	6
88	2
89	8
90	95
91	19
92	34
93	25
94	13
95	502
96	37
102	3
105	7
107	16
108	12
109	11
115	28
116	5
117	10
121	4
122	12
123	222
124	19
129	2
130	10
132	3
143	11
145	3
158	59
159	6
160	21
