Mass Spectrum: 1-Cyclohexylaminocarbonyl-3-(2-ethyl-butanoyl)-urea
Formula: C14H25N3O3
CAS: 110136-01-1
Molecular weight: 283
m/z	intensity
71	820
98	999
99	996
115	9
126	10
141	9
142	49
157	9
158	9
168	9
169	9
184	439
212	20
283	149
