Mass Spectrum: 1,2-Dibenzoyl-4-methyl-1,2,3,6-tetrahydropyridazine
Formula: C19H18N2O2
CAS: 110145-12-5
Molecular weight: 306
m/z	intensity
27	3
28	5
39	4
40	1
41	3
42	1
50	5
51	26
52	2
53	3
67	3
68	4
75	1
76	5
77	166
78	11
80	1
81	2
94	1
95	15
96	1
97	1
98	9
103	2
104	3
105	999
106	78
107	5
111	1
117	11
118	1
122	1
139	6
141	2
147	3
152	1
160	3
161	16
162	2
172	15
173	6
183	1
184	2
185	126
186	42
187	5
200	1
201	426
202	59
203	5
219	1
226	2
235	4
237	1
263	1
305	2
306	38
307	10
308	1
