Mass Spectrum: 1-Anilinocarbonyl-3-(2-ethyl-butanoyl)-urea
Formula: C14H19N3O3
CAS: 110136-06-6
Molecular weight: 277
m/z	intensity
71	999
98	24
99	358
115	25
120	307
136	24
162	153
163	24
178	25
179	206
249	25
277	770
