Mass Spectrum: 2-Cyclohexenol, 4-benzamido-, cis-
Formula: C13H15NO2
CAS: 110171-29-4
Molecular weight: 217
m/z	intensity
36	1
37	7
38	20
39	39
41	38
42	5
49	2
50	38
51	132
52	29
53	13
54	14
55	12
56	4
61	1
62	1
63	4
64	2
65	13
66	12
67	37
68	16
70	4
73	0
74	9
75	8
76	21
77	545
78	77
79	62
80	6
81	3
82	2
84	10
89	1
90	1
91	2
92	6
93	2
94	8
95	29
96	41
99	2
102	0
103	4
104	22
105	999
106	85
107	4
112	4
115	1
116	1
117	2
119	1
120	5
121	45
122	105
123	7
128	1
129	0
130	8
131	1
134	0
143	1
144	3
145	1
146	3
147	0
148	14
149	0
156	0
159	0
160	1
170	2
171	1
172	3
173	6
174	1
184	1
188	1
189	5
190	0
198	164
199	85
200	59
201	7
202	1
217	3
218	0
