Mass Spectrum: 3,18-Dimethyl-6,9,12,15,23,26,31,34-octaoxa-1,3,18,20-tetraazabicyclo-[18.8.8]-hexatriacontan-2,19-dione
Formula: C26H50N4O10
CAS: 110228-81-4
Molecular weight: 578
m/z	intensity
55	39
56	452
57	132
58	252
59	116
60	23
70	277
71	184
72	161
73	181
74	87
82	87
83	58
84	113
85	84
86	277
87	184
88	129
89	207
90	44
98	136
99	129
100	807
101	258
102	936
103	129
104	53
111	84
112	213
113	355
114	999
115	452
116	194
117	119
118	94
124	61
125	226
126	245
127	355
128	355
129	123
130	161
131	81
132	103
133	242
134	83
135	152
136	97
137	258
138	184
139	258
140	200
141	129
142	155
143	43
152	110
153	97
154	113
155	116
156	129
157	155
158	252
159	136
160	81
169	103
170	119
171	197
172	136
173	65
174	48
175	42
176	71
182	48
183	58
184	81
185	113
186	77
187	194
188	107
189	145
190	355
191	61
198	45
199	87
200	87
201	218
202	145
203	61
204	242
205	116
206	161
207	136
208	65
209	61
220	48
227	136
228	58
229	41
230	48
231	96
232	65
233	100
234	148
235	32
240	65
241	55
242	55
243	84
244	48
245	129
246	65
247	32
257	65
258	65
259	232
260	81
261	47
270	81
271	87
272	39
273	97
274	32
275	52
276	39
277	148
278	53
285	97
286	52
287	71
288	48
289	123
290	23
291	58
292	52
293	81
294	71
295	194
296	48
297	32
314	97
315	71
316	39
317	48
318	26
319	29
320	32
321	94
322	31
328	81
329	68
330	32
331	32
332	48
333	32
344	90
345	45
346	132
347	97
348	32
349	32
358	71
359	48
360	52
361	32
362	26
365	65
366	11
367	37
368	113
369	55
370	48
376	81
377	48
385	26
386	23
387	23
388	52
389	26
390	39
391	42
401	23
402	258
403	71
404	48
415	48
416	113
417	36
418	39
422	48
429	48
432	52
433	32
434	48
441	29
445	32
446	26
447	29
448	48
460	45
461	23
471	19
473	32
475	23
476	52
477	23
478	36
487	26
489	36
490	32
491	45
492	26
496	45
503	129
504	48
505	23
516	58
517	103
518	52
519	23
522	32
533	61
534	26
535	22
547	16
548	26
549	26
550	23
561	13
563	23
564	19
577	81
578	265
579	120
580	26
