Mass Spectrum: 1-(3-Methoxymethylphenyl)-ethanol
Formula: C10H14O2
CAS: 110232-55-8
Molecular weight: 166
m/z	intensity
39	110
40	26
43	794
44	26
45	999
46	21
50	54
51	110
52	36
53	22
61	37
63	94
65	99
75	61
77	153
78	37
79	71
89	82
90	37
91	479
92	222
93	27
105	59
106	38
117	104
118	26
119	303
120	48
121	210
122	21
133	60
134	121
135	116
148	43
149	43
151	469
152	43
165	54
166	121
