Mass Spectrum: 10-Methyl-9-oxabicyclo[6.4.0]dodecan-1(8)-ene
Formula: C12H20O
CAS: 110288-22-7
Molecular weight: 180
m/z	intensity
40	200
41	999
42	120
43	820
53	360
54	250
55	660
67	310
69	110
79	100
81	150
95	200
97	100
109	140
112	170
125	350
137	490
138	150
151	300
152	150
180	240
