Mass Spectrum: 1-Dodecanol, 2-hexyl-
Formula: C18H38O
CAS: 110225-00-8
Molecular weight: 270
m/z	intensity
26	3
27	56
28	11
29	163
30	5
31	38
36	1
37	1
38	2
39	51
40	12
41	458
42	89
43	665
44	26
45	7
50	1
51	3
52	2
53	31
54	55
55	569
56	288
57	999
58	44
59	4
65	7
66	10
67	98
68	75
69	447
70	246
71	624
72	34
73	2
77	6
78	1
79	16
80	5
81	64
82	111
83	385
84	162
85	411
86	27
87	1
91	3
93	3
94	2
95	34
96	72
97	369
98	115
99	105
100	8
107	1
108	1
109	14
110	51
111	279
112	91
113	57
114	5
115	1
122	1
123	7
124	26
125	105
126	72
127	40
128	7
129	1
137	4
138	20
139	48
140	38
141	21
142	2
151	1
152	11
153	20
154	33
155	16
156	2
157	1
165	1
166	12
167	23
168	20
169	10
170	1
180	5
181	7
182	16
183	8
184	2
194	3
195	4
196	5
197	3
208	2
209	3
210	5
211	1
222	1
223	1
224	19
225	3
238	7
239	5
240	1
252	26
253	5
269	1
