Mass Spectrum: Propanal, phenyl(2-propenyl)hydrazone
Formula: C12H16N2
CAS: 110213-00-8
Molecular weight: 188
m/z	intensity
39	100
41	150
51	150
55	80
65	70
77	999
78	100
91	200
92	120
93	80
104	160
105	450
106	110
117	70
118	50
119	60
120	230
130	120
131	60
132	90
147	210
188	610
189	90
