Mass Spectrum: 6,9,17,20,25-Pentaoxa-1,3,12,14-tetraazabicyclo[12.8.5]heptacosane-2,13-dithione
Formula: C18H34N4O5S2
CAS: 110228-76-7
Molecular weight: 450
m/z	intensity
54	71
55	151
56	378
57	363
58	181
59	166
60	257
61	37
68	60
69	166
70	212
71	121
72	151
73	83
74	227
75	66
82	31
83	833
84	69
85	772
86	999
87	227
88	196
89	45
94	106
95	34
96	22
97	54
98	39
99	37
100	166
101	39
102	78
103	37
104	27
105	51
113	60
114	84
115	80
116	68
117	42
118	51
119	37
127	71
128	93
129	151
130	181
131	48
132	272
133	31
141	36
142	42
143	48
144	37
145	52
146	40
147	98
148	18
149	30
150	16
154	37
155	51
156	52
157	42
158	34
159	30
160	48
170	27
171	33
172	36
173	69
174	30
175	51
189	30
190	22
191	52
192	10
199	27
200	12
201	16
217	75
218	27
219	22
233	21
234	30
235	24
242	10
243	21
244	15
260	22
261	27
262	18
263	10
276	27
277	9
278	15
279	7
302	15
303	7
304	22
305	12
319	7
320	22
321	7
345	15
346	9
388	18
389	27
390	10
405	13
406	9
407	30
408	9
417	12
418	7
419	4
420	16
431	4
432	6
433	6
449	13
450	54
451	16
452	9
