Mass Spectrum: Acetaldehyde, phenyl(2-propenyl)hydrazone
Formula: C11H14N2
CAS: 110213-13-3
Molecular weight: 174
m/z	intensity
39	120
41	130
51	230
65	70
69	50
77	999
78	100
79	230
91	100
92	60
103	100
104	210
105	990
106	350
117	60
130	140
131	60
132	50
133	310
174	880
175	100
