Mass Spectrum: Acetaldehyde, methyl(2-propynyl)hydrazone
Formula: C6H10N2
CAS: 110213-11-1
Molecular weight: 110
m/z	intensity
30	340
38	60
39	270
40	60
41	210
42	340
43	240
44	90
56	140
65	60
66	80
67	999
68	100
71	410
95	60
109	220
110	380
