Mass Spectrum: 6,9,12,15,23,26,31,34-Octaoxa-1,3,18,20-tetraazabicyclo[18.8.8]hexatriacontan- 2,19-dithione
Formula: C24H46N4O8S2
CAS: 110228-77-8
Molecular weight: 582
m/z	intensity
50	29
51	60
52	66
53	74
54	177
55	229
56	514
57	343
58	257
59	260
60	271
61	37
62	14
63	16
64	13
65	34
66	21
67	91
68	94
69	229
70	286
71	171
72	229
73	174
74	371
75	57
77	71
78	24
79	54
80	25
81	94
82	69
83	86
84	114
85	343
86	999
87	314
88	234
89	186
91	54
93	40
94	43
95	63
96	34
97	63
98	120
99	54
100	300
101	89
102	120
103	49
104	23
105	91
106	26
107	33
108	26
109	31
111	40
112	37
113	54
114	97
115	49
116	49
117	34
118	286
119	37
120	26
121	23
123	26
125	20
127	26
128	46
129	49
130	269
131	63
132	429
133	69
134	17
141	40
144	43
145	31
146	23
149	29
156	20
157	23
158	26
159	33
160	34
161	23
173	83
174	57
176	17
187	37
194	69
201	16
202	7
203	1
204	13
205	6
215	7
216	9
217	11
218	10
219	5
229	3
231	4
234	3
235	3
243	5
244	7
248	9
261	10
262	19
263	9
278	2
279	3
287	3
288	2
291	3
303	4
304	2
305	3
321	1
322	2
331	3
340	2
348	6
349	2
432	2
433	3
449	2
468	1
477	1
478	1
493	1
494	1
495	1
496	1
519	1
521	2
522	1
537	1
539	1
581	2
582	10
583	3
584	2
