Mass Spectrum: Formaldehyde, methyl(2-propynyl)hydrazone
Formula: C5H8N2
CAS: 110213-10-0
Molecular weight: 96
m/z	intensity
30	440
37	60
38	110
39	410
40	80
41	90
42	450
43	999
52	60
53	720
54	60
57	510
66	150
67	80
81	50
95	520
96	340
