Mass Spectrum: 2-(3,4-Dibromo-4-methylcyclohexyl)propan-2-ol
Formula: C10H18Br2O
CAS: 110202-13-6
Molecular weight: 312
m/z	intensity
26	2
27	24
28	4
29	16
31	24
37	0
38	3
39	44
40	9
41	77
42	6
43	184
44	5
45	20
46	0
50	4
51	16
52	7
53	41
54	10
55	45
56	3
57	8
58	26
59	999
60	30
61	3
62	2
63	6
64	2
65	18
66	7
67	50
68	20
69	55
70	2
71	21
72	1
74	0
75	1
76	0
77	41
78	9
79	74
80	13
81	31
82	13
83	6
84	5
85	5
86	0
89	2
90	0
91	36
92	14
93	124
94	164
95	529
96	44
97	4
103	1
104	0
105	5
106	1
107	12
108	2
109	8
110	2
111	1
115	1
117	0
119	6
120	1
121	23
122	2
123	1
133	5
134	1
135	57
136	25
137	23
138	2
139	3
140	1
141	1
142	0
152	2
153	19
154	2
159	5
161	5
165	0
171	1
172	1
173	1
174	7
175	2
176	6
177	1
214	0
215	12
216	2
217	26
218	2
219	14
220	1
297	3
299	7
301	3
