Mass Spectrum: 8-Ethoxycarbonyl-11-dodecanolide
Formula: C15H26O4
CAS: 110288-24-9
Molecular weight: 270
m/z	intensity
41	999
43	600
55	870
67	430
68	330
69	350
73	230
81	500
83	210
95	400
96	240
98	250
101	220
109	330
114	330
127	420
135	180
141	220
142	480
152	320
155	550
178	100
179	120
180	170
196	260
224	110
225	230
252	30
270	30
