Mass Spectrum: Oxopowelline methine
Formula: C18H19NO4
CAS: 11031-32-6
Molecular weight: 313
m/z	intensity
42	999
43	165
44	320
45	38
46	2
50	17
51	200
52	6
53	172
54	16
55	101
56	16
57	277
58	14
59	18
60	1
61	1
62	16
63	237
64	76
65	100
66	29
67	35
68	20
70	327
72	2
73	3
74	43
75	83
76	91
77	211
78	68
79	85
80	18
81	19
82	27
83	5
84	85
85	4
86	27
87	36
88	29
89	90
91	138
92	47
93	21
94	26
95	14
96	18
97	16
98	26
99	24
100	12
101	52
102	47
103	41
104	30
105	35
106	36
107	41
108	21
109	10
110	18
111	12
113	65
114	42
115	201
116	34
117	20
118	24
119	30
120	50
121	22
122	12
123	4
125	2
126	88
127	125
128	94
129	45
130	17
131	17
132	16
133	23
134	55
135	60
136	15
137	7
139	119
140	50
141	82
142	33
143	24
144	15
145	10
146	12
147	10
148	25
149	8
150	31
151	26
152	62
153	51
154	33
155	49
156	23
157	44
158	12
159	7
160	10
161	9
162	39
163	22
165	993
166	99
167	33
168	41
169	65
170	23
171	40
172	10
173	4
174	5
175	15
176	40
177	17
178	20
179	12
180	11
181	45
182	24
183	50
184	24
185	26
186	10
187	28
188	10
189	19
190	12
191	14
192	52
193	17
194	20
195	18
196	22
197	75
198	23
199	16
200	15
201	23
202	49
203	16
204	9
205	4
206	601
207	121
208	17
209	22
210	20
211	61
212	31
213	17
214	9
215	35
216	25
217	12
218	44
219	8
220	6
221	4
222	12
223	17
224	12
225	36
226	23
227	63
228	32
229	42
230	11
231	51
232	18
233	3
234	1
236	1
237	5
238	23
239	79
240	33
241	49
242	62
243	21
244	47
245	9
246	1
250	1
251	7
252	9
253	58
254	31
255	86
256	90
257	37
258	32
259	6
265	2
266	3
267	5
268	11
269	116
270	200
271	37
272	10
273	1
280	3
281	16
282	22
283	9
284	59
285	33
286	21
287	5
296	13
297	7
298	40
299	12
300	2
310	3
312	279
313	837
314	168
315	23
316	2
