Mass Spectrum: Methyl 3-O-mesyl-5-O-methoxycarbonyl-d-xylofuranoside
Formula: C9H16O9S
CAS: 110337-20-7
Molecular weight: 300
m/z	intensity
41	91
42	63
43	157
44	151
45	162
46	23
47	16
48	115
49	28
50	37
51	29
52	22
53	70
54	34
55	107
56	25
57	154
58	35
59	30
60	48
61	46
62	7
63	70
64	134
65	252
66	33
68	483
69	393
71	184
73	203
74	15
75	6
79	999
81	469
82	8
83	40
85	155
86	90
87	34
89	15
91	19
92	6
96	991
97	373
98	119
99	15
101	22
103	12
104	2
105	11
107	27
108	6
109	26
110	3
111	20
112	3
114	47
115	213
116	5
118	4
119	4
121	13
122	2
123	14
125	21
126	3
127	12
128	1
129	9
131	10
132	1
133	6
135	55
136	7
137	7
138	2
139	16
141	7
143	50
145	6
147	9
149	9
151	69
152	2
153	12
154	1
155	2
156	9
157	4
158	0
159	3
161	3
163	24
164	1
165	9
167	8
169	9
171	3
173	2
175	11
176	18
177	1
179	10
181	7
182	4
183	2
185	4
187	3
189	3
193	57
194	1
195	6
197	7
198	3
200	2
201	1
203	1
204	1
206	1
207	1
209	7
211	24
212	0
213	2
214	13
216	14
217	0
238	1
239	0
240	14
241	1
242	0
251	0
252	7
253	1
269	1
270	7
271	0
282	8
283	6
284	0
285	8
286	1
298	0
299	2
300	8
301	1
