Mass Spectrum: 2-Amino-5-[3-[3-(piperidinomethyl)phenoxy]propylamino]-1,3,4-oxadiazole
Formula: C17H25N5O2
CAS: 110365-93-0
Molecular weight: 331
m/z	intensity
41	240
42	210
43	130
56	140
57	260
59	220
77	140
78	140
79	120
84	999
98	370
107	200
108	80
141	150
190	90
191	110
247	30
248	20
273	50
274	30
331	30
