Mass Spectrum: 5-Amino-3-phenoxy-1-[3-[3-(piperidinomethyl)phenoxy]propyl]carbamoyl-1H-1,2,4-triazole
Formula: C24H30N6O3
CAS: 110365-84-9
Molecular weight: 450
m/z	intensity
41	140
42	140
56	200
58	180
77	260
84	999
91	160
98	660
107	260
108	220
120	60
133	100
134	100
148	60
162	120
165	60
190	140
191	220
202	200
217	100
218	60
232	100
249	40
273	140
274	100
284	20
296	60
298	60
391	40
450	1
