Mass Spectrum: 24.epsilon.-Methyl-5.alpha.-cholestane-3.alpha.,6.beta.,9.alpha.,25-tetrol 25-acetate
Formula: C30H52O5
CAS: 110325-83-2
Molecular weight: 492
m/z	intensity
43	999
55	850
57	320
60	290
67	280
69	730
81	500
83	480
84	120
93	320
95	480
107	250
109	330
115	80
123	200
135	150
211	80
229	140
247	80
261	80
269	120
271	90
287	100
305	180
312	50
315	50
330	100
333	80
344	30
348	40
378	40
381	50
396	130
414	230
417	40
432	100
456	20
474	20
