Mass Spectrum: 2,4-Hexadienoic acid, ethyl ester
Formula: C8H12O2
CAS: 110318-09-7
Molecular weight: 140
m/z	intensity
20	10
21	3
25	6
26	42
27	229
28	9
29	277
30	19
31	22
32	6
33	12
34	0
35	0
36	4
37	23
38	38
39	414
40	88
41	583
42	36
43	88
44	4
45	39
46	3
47	12
49	5
50	27
51	64
52	28
53	41
54	12
55	80
56	15
57	5
58	17
60	5
61	8
62	10
63	34
64	3
65	148
66	208
67	999
68	88
69	63
70	11
71	10
72	0
73	3
77	7
78	1
79	6
80	3
81	25
82	3
83	31
84	32
86	7
93	17
94	15
95	729
96	72
97	557
98	37
99	3
110	1
111	60
112	39
113	8
125	231
126	11
133	0
139	2
140	270
141	21
