Mass Spectrum: (.+/-.)-2-Amino-5-[3-[3-(piperidinomethyl)phenoxy]-2-methylpropylamino]-3,4-oxadiazole
Formula: C18H27N5O2
CAS: 110366-02-4
Molecular weight: 345
m/z	intensity
41	250
42	330
43	140
56	570
70	560
77	280
78	320
79	280
84	999
98	760
107	610
108	580
147	110
155	380
162	100
179	250
190	90
191	140
205	320
232	30
261	110
262	100
287	220
288	190
302	30
345	110
