Mass Spectrum: Streptovaricin G
Formula: C40H51NO15
CAS: 11031-85-9
Molecular weight: 785
m/z	intensity
41	157
43	999
45	343
55	164
57	75
60	80
71	161
95	158
109	162
111	271
114	75
153	97
286	70
297	633
298	758
299	277
300	224
324	76
326	77
340	72
341	50
390	168
391	60
726	46
