Mass Spectrum: Furan, 2-ethoxy-4-ethyl-2,3-dihydro-
Formula: C8H14O2
CAS: 110431-26-0
Molecular weight: 142
m/z	intensity
29	548
31	85
32	381
39	214
41	667
43	571
53	143
55	196
57	167
67	286
71	283
81	194
83	166
85	999
95	142
97	643
99	191
113	189
142	881
143	78
