Mass Spectrum: Propanedinitrile, (1,2,2-trimethylpropyl)-
Formula: C9H14N2
CAS: 110497-35-3
Molecular weight: 150
m/z	intensity
26	16
27	117
28	29
29	170
30	6
37	9
38	29
39	165
40	101
41	567
42	73
43	159
44	7
49	1
50	15
51	29
52	20
53	45
54	17
55	126
56	23
57	999
58	45
61	1
62	3
63	10
64	16
65	34
66	72
67	159
68	27
69	591
70	73
71	5
74	1
75	4
76	6
77	12
78	6
79	19
80	24
81	33
82	13
83	8
84	2
85	108
86	7
89	1
90	1
91	14
92	10
93	27
94	118
95	231
96	16
97	1
104	1
105	1
106	7
107	21
108	113
109	10
111	3
116	2
117	2
118	16
119	9
120	5
122	1
133	6
134	17
135	258
136	30
137	2
151	1
