Mass Spectrum: .beta.-d-Lyxofuranoside, methyl, triacetate
Formula: C12H18O8
CAS: 110415-63-9
Molecular weight: 290
m/z	intensity
24	0
25	0
26	2
27	13
28	15
29	19
30	2
31	12
32	1
33	8
38	0
39	9
40	2
41	11
42	18
43	999
44	27
45	29
46	0
51	0
53	2
54	2
55	12
56	3
57	18
58	5
59	7
60	3
61	19
62	0
67	0
68	55
69	66
70	6
71	10
72	3
73	19
74	18
75	4
80	0
81	2
82	10
83	14
84	6
85	67
86	62
87	55
88	2
89	0
96	1
97	32
98	7
99	22
100	15
101	4
102	4
103	35
104	6
105	1
106	0
110	2
111	5
112	0
113	3
114	2
115	185
116	13
117	5
123	0
125	0
126	2
127	8
128	102
129	22
130	1
131	0
132	0
133	0
138	0
139	24
140	2
142	2
143	2
144	0
145	19
146	3
147	0
155	0
156	10
157	46
158	4
169	0
170	36
171	9
172	1
175	0
187	2
188	0
198	4
199	0
216	1
217	34
218	3
219	0
220	0
259	7
260	1
