Mass Spectrum: Furan, 2-ethoxy-2,3-dihydro-4-methyl-
Formula: C7H12O2
CAS: 110431-25-9
Molecular weight: 128
m/z	intensity
28	117
29	228
31	66
39	153
41	207
43	304
53	120
54	65
55	152
71	999
81	54
82	89
84	516
99	207
100	87
128	565
129	44
