Mass Spectrum: Cyclopentanecarboxylic acid, 2-methylene-, methyl ester
Formula: C8H12O2
CAS: 110550-98-6
Molecular weight: 140
m/z	intensity
26	16
27	163
28	24
29	55
30	7
31	14
33	7
34	0
37	5
38	19
39	207
40	34
41	164
42	12
43	25
44	2
45	13
47	0
49	1
50	36
51	72
52	48
53	162
54	27
55	108
56	5
57	4
58	3
59	54
60	2
61	7
62	3
63	9
64	1
65	35
66	31
67	27
68	9
69	16
70	0
71	3
72	0
73	1
74	5
75	1
76	1
77	106
78	20
79	471
80	577
81	999
82	62
83	9
84	1
85	5
86	0
87	34
88	1
89	0
91	3
92	0
93	9
94	1
95	2
96	0
97	20
98	6
99	1
100	2
101	0
105	0
107	15
108	24
109	107
110	8
111	8
112	21
113	1
121	0
123	3
125	55
126	4
127	0
137	0
139	4
140	24
141	2
