Mass Spectrum: Thiophene-2-carboxylic acid, 4-bromo-3-methoxy-
Formula: C6H5BrO3S
CAS: 110545-68-1
Molecular weight: 236
m/z	intensity
33	11
34	5
36	35
37	144
38	98
39	118
40	32
41	29
42	10
43	29
44	177
45	999
46	26
47	44
48	12
49	39
50	22
51	12
53	706
54	38
55	24
56	32
57	148
58	92
59	44
60	14
61	19
62	1
63	2
64	4
65	6
66	6
68	131
69	392
70	102
71	43
72	129
73	37
74	10
75	4
76	5
77	51
78	5
79	29
80	70
81	222
82	203
83	86
84	424
85	239
86	39
87	14
89	99
90	4
91	10
92	3
93	9
94	4
95	31
96	15
97	75
98	95
99	16
100	28
101	6
102	2
103	5
104	30
105	18
106	27
107	16
108	5
109	27
110	11
111	29
112	14
113	30
114	9
115	6
116	6
117	11
118	7
119	9
120	1
121	2
123	12
124	0
125	12
126	16
127	28
128	6
129	10
130	2
131	12
132	3
133	22
134	3
135	19
136	13
137	15
138	15
139	38
140	4
141	2
142	2
143	1
144	1
145	0
147	16
148	30
149	65
150	32
151	53
152	3
153	2
155	1
156	1
157	11
158	1
159	2
160	2
161	6
162	12
163	61
164	17
165	166
166	14
167	107
168	4
169	4
170	0
171	0
173	0
174	3
175	3
176	11
177	31
178	14
179	29
180	6
181	1
185	0
189	288
190	92
191	319
192	86
193	86
194	12
195	22
196	1
197	0
201	0
203	13
204	84
205	35
206	113
207	364
208	50
209	354
210	23
211	16
212	0
213	0
217	59
218	29
219	112
220	32
221	83
222	8
223	27
224	1
225	1
233	0
236	326
237	48
238	310
239	23
240	15
241	1
