Mass Spectrum: Silane, [2-[9,10-dihydro-10-(trimethylsilyl)-9-anthracenyl]ethyl]trimethyl-, cis-
Formula: C22H32Si2
CAS: 110551-74-1
Molecular weight: 352
m/z	intensity
26	1
27	1
29	3
30	0
31	3
39	1
40	11
41	0
42	1
43	16
44	8
45	78
46	4
47	2
51	1
53	1
54	0
55	1
56	0
57	3
58	13
59	16
60	1
61	1
62	0
63	1
65	0
66	0
67	0
69	0
70	1
71	3
73	999
74	96
75	36
76	2
77	1
78	0
83	1
85	7
86	4
87	1
88	1
89	1
91	0
94	0
98	0
99	1
100	0
101	3
102	1
103	1
105	0
113	0
115	1
116	1
117	1
118	0
119	0
121	1
125	0
126	1
127	1
128	1
129	1
131	1
133	1
135	0
139	1
143	0
145	1
147	1
149	0
150	1
151	4
152	8
153	1
155	0
157	0
158	0
163	1
164	0
165	3
166	1
167	0
174	0
175	1
176	8
177	7
178	151
179	25
180	3
181	1
187	0
188	0
189	3
190	1
191	12
192	2
193	1
194	0
195	1
196	0
200	1
201	0
202	4
203	4
204	3
205	3
206	1
207	1
208	1
209	0
215	1
217	2
218	1
219	2
220	1
221	4
222	1
223	1
229	0
231	1
232	1
233	3
234	1
235	9
236	94
237	19
238	4
239	1
245	1
246	1
247	3
248	1
249	23
250	7
251	220
252	58
253	13
254	2
255	0
262	0
263	3
264	7
265	2
266	1
267	0
277	0
278	3
279	1
280	1
324	0
337	3
338	1
339	0
352	37
353	12
354	4
355	1
