Mass Spectrum: Cyclobuta[1,2-d:3,4-d']bis[1,3]dioxole-2,5-dione, tetrahydro-
Formula: C6H4O6
CAS: 110549-42-3
Molecular weight: 172
m/z	intensity
23	0
25	8
26	117
27	260
28	141
29	420
30	95
31	3
36	1
37	10
38	20
39	49
40	4
41	14
42	175
43	30
44	22
45	17
46	0
49	2
50	6
51	4
52	1
53	8
54	22
55	337
56	42
57	4
58	53
59	2
60	2
65	0
66	0
67	1
68	0
69	3
70	0
71	15
72	1
73	2
76	0
77	0
79	0
81	1
82	0
83	22
84	2
85	1
86	999
87	49
88	8
89	0
91	0
92	0
93	6
94	0
95	0
96	0
97	1
98	0
99	16
100	1
109	0
111	0
115	6
116	0
119	0
121	0
123	0
125	0
127	0
139	0
143	1
149	0
173	5
174	0
