Mass Spectrum: Acetamide, 2,2,2-trifluoro-N-(4-hydroxy-2-cyclohexen-1-yl)-, (1S-cis)-
Formula: C8H10F3NO2
CAS: 110568-60-0
Molecular weight: 209
m/z	intensity
37	4
38	22
39	224
41	297
42	84
43	137
45	13
47	9
48	6
50	40
51	86
52	76
53	113
54	114
55	189
56	33
57	88
58	6
62	13
63	21
65	65
66	63
67	241
68	300
69	307
70	255
71	26
74	3
77	161
78	591
79	193
80	32
81	88
82	53
83	22
84	41
92	11
93	16
94	101
95	263
96	999
97	134
98	15
104	5
112	14
113	5
114	30
120	28
122	42
126	13
131	1
132	6
138	8
140	16
142	20
152	15
163	126
164	17
165	58
166	16
181	17
190	68
191	71
192	7
