Mass Spectrum: Diazene, 2-methoxy-1-propyl-, 1-oxide
Formula: C4H10N2O2
CAS: 110655-50-0
Molecular weight: 118
m/z	intensity
27	260
28	50
29	60
30	120
31	30
41	390
42	100
43	999
44	60
45	50
73	120
87	290
90	60
101	170
103	30
118	100
119	5
