Mass Spectrum: Titanium, (.eta.8-1,3,5,7-cyclooctatetraene)(.eta.5-2,4-cyclopentadien-1-yl)-
Formula: C13H13Ti
CAS: 11065-40-0
Molecular weight: 217
m/z	intensity
24	0
25	0
26	7
27	19
28	20
29	2
30	0
31	1
36	0
37	4
38	7
39	51
40	4
41	4
42	4
43	1
44	1
45	0
46	14
47	13
48	134
49	17
50	24
51	38
52	20
53	3
54	1
55	0
56	3
57	1
58	1
59	2
60	2
61	6
62	7
63	17
64	3
65	17
66	9
67	6
68	1
69	1
70	1
71	13
72	16
73	128
74	33
75	14
76	8
77	36
78	67
79	4
81	2
82	2
83	7
84	18
85	86
86	111
87	208
88	26
89	17
90	1
91	2
92	0
93	1
94	0
95	15
96	106
97	24
98	47
99	30
100	9
101	4
102	11
103	48
104	72
105	8
106	2
107	4
108	11
109	37
110	27
111	137
112	171
113	999
114	125
115	80
116	5
117	0
120	0
121	1
122	9
123	15
124	36
125	16
126	16
127	2
128	1
130	0
131	0
133	1
134	3
135	7
136	21
137	34
138	64
139	32
140	8
141	2
142	0
147	0
148	13
149	19
150	109
151	23
152	23
153	5
154	1
158	0
159	1
160	3
161	10
162	11
163	25
164	7
165	3
166	3
167	4
168	11
169	5
170	2
171	2
172	1
173	1
174	2
175	2
176	6
177	4
178	34
179	6
180	3
181	0
182	0
183	1
184	1
185	3
186	3
187	11
188	13
189	54
190	55
191	202
192	42
193	18
194	1
195	0
199	0
200	1
201	1
202	4
203	0
205	0
206	1
207	1
208	1
209	2
210	2
211	7
212	7
213	42
214	44
215	313
216	182
217	896
218	205
219	89
220	14
221	3
222	0
