Mass Spectrum: (Z)-1-(But-1-en-1-yl)-2-(sec-butyl)disulfane
Formula: C8H16S2
CAS: 110690-21-6
Molecular weight: 176
m/z	intensity
26	3
27	54
28	9
29	134
30	3
33	1
34	1
35	5
37	2
38	5
39	96
40	8
41	250
42	13
43	12
44	4
45	176
46	11
47	51
48	1
49	3
50	9
51	20
52	6
53	115
54	22
55	999
56	71
57	295
58	51
59	146
60	34
61	65
62	4
63	3
64	15
65	7
66	7
67	6
68	1
69	5
70	1
71	57
72	12
73	25
74	12
75	13
76	1
77	6
78	17
79	15
80	3
81	5
82	7
83	1
84	1
85	143
86	153
87	268
88	36
89	26
90	3
92	22
93	3
94	3
95	7
96	1
103	11
104	1
105	44
106	2
107	3
108	1
109	11
116	1
117	4
118	1
119	24
120	780
121	52
122	71
123	7
124	3
131	1
134	5
137	2
138	5
139	1
147	1
150	1
152	2
176	530
177	56
178	52
179	5
180	1
