Mass Spectrum: 4-Trichloromethyl-3,4(1H)-dihydro-2,3-benzothiazine 2,2-dioxide
Formula: C9H8Cl3NO2S
CAS: 110654-62-1
Molecular weight: 299
m/z	intensity
57	58
63	60
64	59
89	130
90	98
91	168
117	269
118	999
128	69
130	60
164	60
182	410
