Mass Spectrum: (E)-1-(But-2-en-1-yl)-2-(sec-butyl)disulfane
Formula: C8H16S2
CAS: 110690-24-9
Molecular weight: 176
m/z	intensity
26	2
27	45
28	7
29	105
30	2
33	1
34	1
35	4
37	1
38	3
39	77
40	6
41	191
42	9
43	16
44	4
45	100
46	8
47	44
48	1
49	3
50	8
51	16
52	6
53	117
54	17
55	999
56	76
57	210
58	37
59	167
60	30
61	44
62	2
63	2
64	10
65	3
66	6
67	4
68	1
69	3
71	53
72	12
73	17
74	6
75	10
76	1
77	5
78	5
79	10
80	2
81	3
82	6
85	69
86	68
87	149
88	32
89	17
90	3
91	11
92	37
93	4
94	4
95	3
96	1
103	5
104	1
105	16
106	1
107	2
108	2
109	7
117	7
118	1
119	30
120	707
121	43
122	64
123	6
124	2
133	1
134	4
147	1
176	465
177	48
178	44
179	4
180	1
