Mass Spectrum: Imidazo[1,2-a]pyridinium, 3-(chloroacetyl)-2,3-dihydro-2-oxo-1-(phenylsulfonyl)-, hydroxide, inner salt
Formula: C15H11ClN2O4S
CAS: 11066-38-9
Molecular weight: 350
m/z	intensity
14	4
15	1
17	35
18	240
26	27
27	49
28	123
29	7
31	1
32	12
34	1
35	7
36	27
37	10
38	18
39	55
40	12
41	26
42	52
43	56
44	15
45	7
47	3
48	15
49	98
50	87
51	409
52	64
53	30
54	9
55	10
56	6
57	9
58	3
59	3
60	4
61	10
62	6
63	15
64	36
65	27
66	15
67	6
68	7
69	7
70	7
71	1
73	7
74	12
75	15
76	46
77	999
78	446
79	67
80	3
81	1
82	1
83	10
84	4
85	4
87	1
88	1
89	12
90	13
91	40
92	15
93	3
94	6
95	6
97	15
98	3
99	3
100	3
101	1
102	3
103	15
104	21
105	461
106	38
107	1
108	1
109	72
110	18
111	6
112	3
116	6
117	15
118	46
119	9
120	12
121	36
122	3
123	3
125	61
126	12
127	9
128	6
129	6
130	3
131	3
132	6
133	23
134	3
140	3
141	200
142	18
143	12
144	6
145	30
146	27
147	26
149	10
153	18
154	12
155	7
160	43
161	138
162	15
163	3
165	9
166	3
167	3
168	3
169	12
170	1
173	30
174	12
175	6
176	6
179	6
180	3
181	261
182	27
183	64
184	7
208	7
209	156
210	30
211	46
212	6
237	246
238	35
239	3
240	4
286	87
287	33
288	30
289	6
301	363
302	58
303	21
304	1
315	7
350	266
351	46
352	92
353	18
354	6
