Mass Spectrum: 3-[Bis-(4-methoxyphenyl)-phenyl-methoxy]-propan-1-ol
Formula: C24H26O4
CAS: 110675-04-2
Molecular weight: 378
m/z	intensity
12	10
13	16
15	861
17	12
18	20
19	98
26	56
27	227
28	235
29	369
31	999
33	7
35	3
37	5
38	20
39	99
41	151
42	30
43	113
44	26
45	54
46	13
47	7
50	40
51	99
52	16
53	16
54	4
55	18
57	69
58	48
59	40
60	2
61	2
62	10
63	54
64	65
65	33
66	6
67	2
69	3
71	2
73	2
74	8
75	18
77	381
78	75
79	30
80	3
81	3
83	5
85	3
86	3
87	8
88	10
89	16
90	4
92	113
93	17
95	14
98	3
99	3
100	6
101	21
102	13
103	8
105	344
106	34
107	112
108	91
109	11
113	28
114	17
115	41
116	6
117	6
118	3
120	9
121	18
122	8
123	8
124	3
125	3
126	14
127	17
128	25
129	10
130	6
132	6
133	6
135	535
136	55
137	26
138	6
139	32
140	14
141	22
142	5
144	6
145	3
149	5
150	11
151	26
152	85
153	28
154	5
155	3
156	3
157	3
163	16
164	11
165	49
166	10
167	6
168	11
169	11
170	2
171	5
175	2
176	9
177	4
178	6
180	20
181	12
182	8
183	6
184	7
185	4
187	5
188	5
189	27
190	9
191	5
193	3
195	76
196	16
197	6
198	2
199	6
200	7
202	46
203	12
204	2
210	8
211	11
213	59
214	15
215	49
216	20
217	14
218	4
219	3
224	2
225	14
226	17
227	18
228	22
229	20
230	5
231	2
232	1
233	1
234	1
239	4
240	1
241	4
243	49
244	13
245	14
246	3
255	2
256	1
257	2
258	2
259	10
260	4
271	13
272	4
273	4
274	0
287	1
288	6
289	4
290	1
301	22
303	282
304	69
305	8
306	1
319	5
320	3
331	0
347	1
378	15
379	3
380	0
