Mass Spectrum: (Z)-1-(But-2-en-1-yl)-2-(sec-butyl)disulfane
Formula: C8H16S2
CAS: 110690-23-8
Molecular weight: 176
m/z	intensity
26	3
27	44
28	8
29	96
30	2
35	4
37	2
38	3
39	68
40	5
41	156
42	7
43	7
45	72
46	6
47	45
49	3
50	7
51	15
52	5
53	128
54	14
55	999
56	72
57	190
58	35
59	180
60	26
61	36
62	1
64	7
66	4
71	64
72	11
73	14
74	3
75	5
82	4
85	45
86	41
87	103
88	28
89	12
90	3
92	39
111	3
117	5
119	8
120	615
121	35
122	59
124	2
126	4
147	2
176	401
177	41
178	40
179	3
180	1
