Mass Spectrum: Iron, tricarbonyl(1,3,5,7-cyclooctatetraene-1-carboxaldehyde)-
Formula: C12H8FeO4
CAS: 11064-31-6
Molecular weight: 272
m/z	intensity
50	510
51	880
56	400
74	70
75	40
76	70
77	900
78	580
102	80
103	999
104	680
105	40
131	30
132	520
134	420
160	190
188	620
216	300
244	220
272	80
