Mass Spectrum: (E)-1-(But-1-en-1-yl)-2-(sec-butyl)disulfane
Formula: C8H16S2
CAS: 110690-22-7
Molecular weight: 176
m/z	intensity
26	4
27	60
28	9
29	151
30	4
33	1
34	1
35	6
37	2
38	6
39	101
40	8
41	290
42	12
44	4
45	275
46	13
47	48
49	4
50	8
51	17
52	5
53	84
54	20
55	999
56	61
57	334
58	55
59	115
60	39
61	80
62	4
63	3
64	17
65	5
66	6
69	8
70	2
71	57
72	11
73	33
74	19
75	20
76	2
78	29
79	8
84	3
85	157
86	192
87	372
88	32
89	24
90	4
92	6
99	2
103	17
104	2
105	84
119	17
120	952
121	55
122	82
123	4
124	2
143	1
147	2
175	1
176	654
177	69
178	62
179	5
180	2
