Mass Spectrum: 3-Heptenoic acid, 5-hydroxy-2,6,6-trimethyl-, [R*,R*-(E)]-
Formula: C10H18O3
CAS: 110678-37-0
Molecular weight: 186
m/z	intensity
26	3
27	71
28	31
29	188
30	8
31	15
38	5
39	105
40	17
41	357
42	25
43	205
44	23
45	34
47	3
50	8
51	16
52	7
53	44
54	13
55	189
56	140
57	999
58	54
59	9
60	4
61	2
62	2
63	5
65	21
66	10
67	61
68	11
69	49
70	10
71	21
72	2
73	111
74	158
75	9
76	5
77	21
78	6
79	18
80	4
81	27
82	15
83	278
84	123
85	26
86	2
87	22
88	2
91	18
92	5
93	12
94	5
95	21
96	6
97	39
98	6
99	4
100	5
101	5
104	5
105	6
107	12
108	3
109	58
110	11
111	510
112	530
113	46
114	6
115	7
121	4
122	3
123	7
125	78
126	8
127	3
128	8
129	135
130	212
131	16
132	2
139	3
140	3
141	3
151	2
152	3
153	7
167	3
168	5
169	5
171	4
185	3
186	3
