Mass Spectrum: 3,5-Octadienoic acid, 7-hydroxy-2-methyl-, [R*,R*-(E,E)]-
Formula: C9H14O3
CAS: 110678-40-5
Molecular weight: 170
m/z	intensity
26	8
27	108
28	23
29	90
30	5
31	20
36	0
37	3
38	15
39	178
40	28
41	232
42	20
43	999
44	99
45	94
46	4
47	2
48	0
49	2
50	24
51	66
52	36
53	134
54	32
55	131
56	42
57	53
58	37
59	9
60	2
61	5
62	8
63	27
64	7
65	92
66	41
67	123
68	79
69	72
70	9
71	48
72	4
73	13
74	123
75	12
76	5
77	210
78	41
79	348
80	50
81	516
82	187
83	39
84	10
85	9
86	3
87	10
88	1
89	7
90	4
91	230
92	44
93	202
94	23
95	131
96	27
97	235
98	22
99	12
100	3
101	2
102	1
103	7
104	3
105	33
106	16
107	139
108	120
109	211
110	173
111	28
112	5
113	13
114	1
115	1
116	1
117	1
118	2
119	7
120	1
121	3
122	2
123	17
124	283
125	52
126	8
127	5
128	4
129	1
130	0
131	0
133	1
134	8
135	4
136	3
137	13
138	1
139	1
140	1
141	1
142	0
145	0
146	0
147	1
149	3
150	0
151	1
152	184
153	22
154	3
155	11
156	0
161	0
162	1
168	1
169	1
170	117
171	15
172	1
