Mass Spectrum: 1,4,7,10,13-Pentaoxacyclodoeicosan-14,20-dione
Formula: C15H26O7
CAS: 110793-20-9
Molecular weight: 318
m/z	intensity
42	130
45	999
69	149
70	130
71	50
72	20
87	140
89	188
99	249
143	69
187	209
231	60
275	29
319	10
