Mass Spectrum: Titanium, [.mu.-[(1,2,3,4,5-.eta.:1',2',3',4',5'-.eta.)-[bi-2,4-cyclopentadien-1-yl]-1,1'-diyl]]di-.mu.-chlorobis(.eta.5-2,4-cyclopentadien-1-yl)di-
Formula: C20H18Cl2Ti2
CAS: 11078-01-6
Molecular weight: 424
m/z	intensity
25	1
26	6
27	26
28	4
29	10
31	4
35	3
36	20
37	4
38	13
39	117
40	16
41	41
42	80
43	14
44	2
46	10
47	10
48	99
49	9
50	6
51	12
52	4
53	4
54	1
55	1
61	2
62	3
63	13
64	4
65	31
66	9
67	1
71	18
72	20
73	33
74	6
75	6
76	7
77	8
78	5
81	22
82	15
83	161
84	19
85	75
86	35
87	69
88	8
89	6
95	1
96	4
97	9
98	21
99	8
100	3
101	2
102	12
103	5
106	2
107	2
108	10
109	8
110	15
111	125
112	129
113	999
114	124
115	74
116	4
118	10
119	1
120	11
121	15
122	57
123	29
124	43
125	11
126	12
127	8
128	25
129	10
130	4
131	2
132	3
133	7
134	6
135	11
136	18
137	27
138	16
139	7
140	2
144	1
145	3
146	40
147	40
148	351
149	88
150	258
151	39
152	26
153	3
155	2
156	2
157	3
158	5
159	8
160	7
161	18
162	12
163	27
164	7
165	4
166	2
167	1
168	3
169	2
170	4
171	2
172	14
173	13
174	93
175	58
176	357
177	76
178	103
179	18
180	7
181	5
182	7
183	36
184	10
185	32
186	11
187	24
188	10
189	6
190	3
191	4
192	4
193	4
194	3
195	2
196	2
198	2
199	2
200	5
201	2
202	6
203	6
204	5
205	7
206	5
207	4
208	2
209	11
210	7
211	46
212	70
213	98
214	31
215	24
216	7
217	5
218	4
219	2
220	2
221	1
222	2
223	2
224	1
225	1
226	2
227	1
228	3
229	3
230	4
231	7
232	4
233	6
234	3
235	7
236	8
237	26
238	24
239	120
240	154
241	634
242	153
243	63
244	10
245	2
246	3
247	2
248	9
249	2
250	5
251	1
252	2
253	2
254	1
255	3
256	3
257	6
258	2
259	3
260	2
261	2
265	1
266	1
267	2
268	2
269	3
270	3
271	2
272	5
273	3
274	2
275	3
276	2
277	2
283	2
284	1
285	2
286	2
287	5
288	3
289	3
290	5
291	6
292	9
293	10
294	15
295	10
296	12
297	11
298	5
299	4
300	2
302	2
303	3
304	3
305	4
306	3
307	3
308	5
309	2
310	2
311	1
312	5
313	2
314	3
316	1
317	2
318	3
319	7
320	6
321	16
322	14
323	59
324	17
325	23
326	7
327	3
328	1
345	1
347	1
349	1
351	1
354	1
355	3
356	5
357	34
358	34
359	150
360	61
361	107
362	35
363	30
364	9
365	3
373	2
374	2
375	8
376	4
377	7
378	2
379	2
380	1
383	1
385	1
386	1
387	5
388	2
389	4
390	1
420	6
421	11
422	96
423	112
424	507
425	239
426	388
427	134
428	102
429	30
430	10
