Mass Spectrum: N-Piperidinosulfonyl-1-methyl-pyrrolidin-2-ylideneimine
Formula: C10H19N3O2S
CAS: 110793-41-4
Molecular weight: 245
m/z	intensity
39	58
40	36
41	235
42	395
43	121
44	60
55	149
56	110
57	48
68	42
69	517
70	391
82	23
83	58
84	989
85	72
97	181
98	999
99	302
145	89
161	570
244	41
245	120
246	24
