Mass Spectrum: Pyrazole, 5-(2-nitrophenyl)-1,3-diphenyl-
Formula: C21H15N3O2
CAS: 110876-42-1
Molecular weight: 341
m/z	intensity
33	14
34	3
37	3
38	24
39	103
40	80
41	14
42	6
43	16
44	30
45	1
46	0
48	0
50	104
51	246
52	45
53	9
54	2
55	10
57	13
58	0
60	0
63	120
64	37
65	18
66	2
67	1
68	2
69	10
70	5
71	5
74	34
75	46
76	129
77	362
78	60
79	7
80	2
81	5
82	11
83	5
84	4
86	8
87	17
88	15
89	56
90	51
91	12
92	2
93	3
94	13
95	5
96	0
98	9
99	5
100	7
102	93
103	32
105	999
106	67
107	16
109	1
110	1
111	4
112	5
113	17
114	13
115	17
116	13
117	6
118	22
119	18
121	11
122	3
123	0
125	7
126	15
127	18
128	13
129	8
130	2
132	29
134	64
137	6
138	9
139	27
140	27
141	10
142	2
143	0
144	2
146	89
148	101
149	10
150	13
151	35
152	42
153	14
154	6
155	1
156	2
162	14
163	48
164	61
165	101
166	29
167	14
168	3
171	3
175	2
176	14
177	30
178	54
179	31
180	19
181	7
182	2
183	1
184	0
185	0
186	3
187	9
188	20
189	56
190	129
191	61
192	61
193	20
194	8
195	2
196	0
200	0
201	1
202	3
203	7
204	5
205	9
206	9
207	20
208	90
209	13
210	2
213	2
214	2
215	9
216	14
217	23
218	29
219	6
220	1
221	2
222	5
226	0
227	0
228	1
229	2
233	0
234	0
235	0
237	1
238	1
239	5
240	2
241	2
242	0
250	0
251	0
252	1
253	2
254	2
255	0
256	0
262	2
263	7
264	5
265	13
266	17
267	27
268	18
269	2
278	0
279	2
280	4
281	4
282	1
283	1
284	0
289	0
290	5
291	11
292	39
293	71
294	53
295	73
296	18
297	2
308	6
309	2
310	3
311	12
312	2
325	0
335	1
337	11
338	13
341	454
342	80
343	11
