Mass Spectrum: 2,2-Dimethyl-3-(N-benzylamino)-1-phenyl-propan-1-one
Formula: C18H21NO
CAS: 110871-26-6
Molecular weight: 267
m/z	intensity
39	69
40	147
41	131
42	90
43	49
44	30
51	89
55	29
56	39
64	110
77	188
78	30
89	30
91	999
92	90
105	198
106	59
118	39
119	49
120	489
121	59
148	39
