Mass Spectrum: 2-[1,2-Dihydroxyethyl]-9-[.beta.-d-ribofuranosyl]hypoxanthine
Formula: C12H16N4O7
CAS: 110851-58-6
Molecular weight: 328
m/z	intensity
42	619
43	999
44	279
45	278
53	279
55	307
56	53
57	587
58	59
60	318
61	57
71	195
73	460
75	52
108	66
135	108
136	102
150	48
178	262
179	48
328	20
