Mass Spectrum: 2-Vinyl-9-[.beta.-d-ribofuranosyl]hypoxanthine
Formula: C12H14N4O5
CAS: 110851-56-4
Molecular weight: 294
m/z	intensity
42	418
43	999
44	394
45	238
47	67
51	8
52	16
53	87
54	133
55	321
56	45
57	653
58	70
60	267
61	79
68	103
69	91
71	177
73	314
74	77
81	9
84	63
85	77
86	103
95	34
96	56
97	48
98	16
102	16
103	19
109	41
114	234
115	30
128	8
133	24
136	16
143	17
161	23
162	108
163	8
