Mass Spectrum: 4-(1,2,3,4-Tetrazol-1-yl)benzonitrile
Formula: C8H5N5
CAS: 110840-26-1
Molecular weight: 171
m/z	intensity
37	246
38	310
39	175
40	65
41	158
42	25
43	19
44	22
46	7
48	6
49	53
50	283
51	304
52	193
53	85
54	4
55	10
57	8
58	8
60	8
61	81
62	333
63	288
64	239
65	145
66	46
67	4
69	5
73	26
74	81
75	278
76	194
77	32
78	8
79	4
85	5
86	14
87	32
88	104
89	360
90	79
91	30
92	11
99	22
100	13
101	20
102	315
103	36
116	999
117	85
118	3
129	5
143	769
144	73
171	113
172	13
