Mass Spectrum: 2-Bromohexanal O-trimethylsilyloxime
Formula: C9H20BrNOSi
CAS: 110910-97-9
Molecular weight: 265
m/z	intensity
60	43
61	13
65	18
66	16
67	106
68	194
69	450
70	112
71	116
72	454
73	423
74	41
75	136
76	24
77	217
78	21
79	61
80	65
81	326
82	143
83	48
84	58
85	43
86	130
87	458
88	24
91	9
93	11
94	33
95	22
96	72
97	100
98	74
99	15
100	13
103	16
105	336
106	26
107	7
109	15
112	11
113	46
114	999
115	78
116	127
117	13
119	8
121	9
122	244
123	89
124	12
126	9
131	73
132	8
135	6
136	25
137	156
138	28
139	151
140	13
144	9
150	5
152	5
154	15
159	59
160	7
164	5
165	7
170	14
172	30
173	6
178	5
179	13
180	33
186	39
187	14
188	6
194	79
195	14
196	81
197	10
198	18
209	8
211	9
252	5
265	9
267	8
