Mass Spectrum: Propanamide, 2-methyl-2-(1-oxobutoxy)-N-(3-trifluoromethyl-4-nitrophenyl)-
Formula: C15H17F3N2O5
CAS: 110990-15-3
Molecular weight: 362
m/z	intensity
33	1
34	0
35	0
36	0
37	2
38	7
39	49
41	233
42	102
43	530
44	23
45	6
46	3
47	0
48	0
49	0
50	2
51	3
52	6
53	4
54	2
55	10
56	2
57	8
59	243
60	12
61	2
62	6
63	24
64	3
65	2
66	1
67	1
69	75
71	999
72	32
73	4
74	2
75	8
76	1
77	1
78	1
79	1
80	1
81	3
82	1
83	1
84	0
85	1
86	0
87	1
88	7
89	8
90	1
91	1
92	0
93	1
94	3
95	1
96	0
97	0
98	0
99	1
100	1
101	1
102	0
103	0
104	0
105	1
106	1
107	0
108	2
109	1
110	0
111	0
112	1
113	2
114	1
115	0
116	0
117	1
118	0
119	1
120	1
121	0
122	0
123	0
125	3
126	1
127	2
129	148
130	11
131	3
132	9
133	2
134	0
135	0
136	0
138	2
139	3
140	2
141	0
143	5
144	5
145	1
146	1
147	0
148	0
149	0
151	0
152	0
155	4
157	153
158	14
159	4
160	5
161	1
162	0
164	0
166	0
167	0
170	0
171	0
172	0
173	0
174	1
175	1
176	7
177	1
178	0
179	0
180	0
181	0
182	0
183	0
184	0
185	4
186	3
187	4
188	0
189	0
190	2
191	0
194	0
197	0
198	0
199	0
200	2
201	9
202	2
203	0
204	0
205	0
206	4
207	0
208	0
213	0
214	0
215	0
216	6
217	1
218	0
219	0
227	1
228	1
229	1
230	1
231	7
232	1
233	1
234	0
243	0
244	0
245	0
246	2
247	7
248	1
255	0
258	0
262	0
264	0
273	0
274	0
275	2
276	0
277	0
292	1
293	0
304	0
332	0
361	0
362	1
363	0
