Mass Spectrum: (E)-4'-Acetoxy-2-methoxymethoxy-stilbene
Formula: C18H18O4
CAS: 110983-49-8
Molecular weight: 298
m/z	intensity
45	999
107	170
131	40
150	170
155	30
165	170
166	30
179	10
181	90
182	40
183	310
194	20
207	10
210	50
211	460
224	110
225	30
253	50
256	310
298	330
