Mass Spectrum: 2,5-Pyrrolidinone, 1-[(3-methylbenzoyl)oxy]-
Formula: C12H11NO4
CAS: 110920-15-5
Molecular weight: 233
m/z	intensity
40	8
41	44
42	40
43	5
45	1
50	27
51	44
52	11
53	7
54	2
55	18
56	62
57	1
59	1
60	1
61	3
62	16
63	61
64	18
65	251
66	13
69	2
70	26
71	1
73	2
74	4
75	3
76	3
77	11
78	2
79	2
87	2
89	54
90	32
91	474
92	36
93	1
105	8
106	1
119	999
120	77
121	6
233	4
