Mass Spectrum: 1,3,5,7,9,11,13-Heptavinyl-3,11,13-tributoxytricyclo[5.5.1.3(3,11)]heptasiloxane
Formula: C26H48O12Si7
CAS: 110991-18-9
Molecular weight: 748
m/z	intensity
27	437
28	44
41	669
42	85
43	192
44	81
45	56
57	999
58	43
59	19
69	125
70	43
73	295
74	26
75	29
509	58
510	26
519	61
520	35
521	39
522	19
525	222
526	106
527	90
528	31
535	934
536	451
537	360
538	132
539	67
545	628
546	326
547	308
548	137
549	118
550	47
563	48
564	27
579	317
581	161
582	122
583	48
591	491
592	261
593	224
637	424
638	232
639	175
640	71
675	21
676	15
721	39
722	23
