Mass Spectrum: 1,3,5,7-Tetravinyl-1,1,3,5,7,7-hexabutoxytetrasiloxane
Formula: C32H66O9Si4
CAS: 110991-11-2
Molecular weight: 706
m/z	intensity
27	550
40	90
41	573
42	104
43	189
56	159
57	999
58	45
297	338
298	125
299	46
307	738
308	300
309	194
317	386
318	141
325	46
335	121
353	146
363	99
373	84
391	44
409	50
419	21
447	22
503	176
549	6
