Mass Spectrum: 1,3,5,7-Tetravinyl-1,3,5,7-tetrabutoxycyclotetrasiloxane
Formula: C24H48O8Si4
CAS: 110991-12-3
Molecular weight: 576
m/z	intensity
27	338
28	41
41	309
42	78
43	188
44	84
57	999
58	37
59	19
69	132
70	42
73	126
74	18
75	26
76	22
77	44
97	70
98	17
99	14
135	71
136	13
137	19
147	94
148	15
149	31
297	161
298	39
299	34
307	236
308	66
309	63
310	15
317	66
318	21
319	21
325	32
326	9
335	32
336	11
355	107
356	33
357	28
373	12
374	7
409	38
410	12
419	9
465	18
466	6
503	33
504	15
