Mass Spectrum: Docosahexaenoic acid, 1,2,3-propanetriyl ester
Formula: C69H98O6
CAS: 11094-59-0
Molecular weight: 1022
m/z	intensity
26	36
27	136
28	78
29	150
30	21
31	23
38	23
39	168
40	39
41	605
42	842
43	300
44	163
45	76
50	26
51	47
52	36
53	123
54	97
55	578
56	81
57	202
58	36
59	26
60	39
61	18
62	10
63	28
64	23
65	97
66	115
67	921
68	121
69	368
70	71
71	126
72	21
73	52
74	21
75	23
76	18
77	234
78	176
79	999
80	297
81	473
82	97
83	165
84	60
85	71
86	18
87	31
88	21
89	47
90	18
91	789
92	186
93	631
94	168
95	447
96	65
97	107
98	50
99	26
100	26
101	23
102	13
103	50
104	81
105	473
106	165
107	244
108	278
109	168
110	34
111	42
112	23
113	28
114	13
115	105
116	78
117	394
118	97
119	368
120	115
121	173
122	71
123	60
124	23
125	26
126	15
127	31
128	65
129	189
130	78
131	300
132	118
133	221
134	115
135	142
136	42
137	36
138	18
139	21
140	13
141	78
142	36
143	115
144	60
145	192
146	76
147	144
148	100
149	76
150	26
151	28
152	28
153	28
154	21
155	60
156	31
157	86
158	60
159	134
160	60
161	107
162	55
163	42
164	18
165	34
166	18
167	36
168	23
169	60
170	26
171	89
172	44
173	102
174	57
175	86
176	39
177	26
178	28
179	36
180	13
181	34
182	18
183	47
184	26
185	65
186	36
187	60
188	44
189	42
190	21
191	23
192	18
193	23
194	15
195	28
196	18
197	57
198	28
199	63
200	34
201	65
202	36
203	31
204	15
205	21
206	15
207	18
208	18
209	31
210	23
211	42
212	26
213	73
214	42
215	78
216	23
217	23
218	18
219	31
220	13
221	21
222	13
223	26
224	15
225	36
226	26
227	47
228	26
229	28
230	13
231	18
232	15
233	15
234	13
235	15
236	23
237	31
238	18
239	47
240	23
241	36
242	21
243	18
244	10
245	15
246	10
247	13
248	10
249	18
250	13
251	18
252	15
253	23
254	15
255	23
256	18
257	21
258	13
259	18
260	13
261	13
262	13
263	15
264	21
265	23
266	15
267	21
268	26
269	18
270	13
271	15
272	13
273	13
274	13
275	13
277	18
278	13
279	13
280	13
281	18
282	13
283	18
284	13
285	15
286	13
287	10
288	10
289	13
290	10
291	15
292	13
293	18
294	13
295	10
296	10
297	13
298	10
299	13
301	10
302	10
303	10
304	10
305	13
306	13
307	15
308	18
309	26
310	26
311	31
312	13
313	28
314	15
315	10
316	7
317	10
318	7
319	10
320	7
321	10
322	13
323	10
324	7
325	13
326	18
327	15
328	15
329	13
330	13
331	10
332	10
333	10
334	10
335	10
337	13
339	18
340	7
341	10
342	10
345	13
347	7
350	7
351	7
352	10
353	10
354	10
355	10
361	7
363	7
365	7
366	7
367	13
368	10
369	10
370	10
377	7
378	7
379	7
380	7
381	7
383	13
384	15
385	34
386	18
387	15
388	13
391	13
399	13
400	10
426	7
427	13
436	7
437	7
438	7
439	18
440	10
441	7
469	31
470	18
471	13
507	13
508	10
509	10
520	10
521	10
522	10
523	13
545	10
546	10
547	10
548	13
549	18
550	10
551	15
552	13
574	10
575	10
576	15
577	18
578	10
579	10
620	7
621	5
622	7
623	7
624	7
693	7
694	21
695	65
696	36
697	21
