Mass Spectrum: 2-Bromolauric acid
Formula: C12H23BrO2
CAS: 111-56-8
Molecular weight: 278
m/z	intensity
15	2
26	11
27	189
29	314
30	7
31	8
36	1
37	1
38	7
39	253
40	46
41	976
42	218
43	999
44	48
45	123
46	3
47	5
50	6
51	19
52	12
53	147
54	99
55	853
56	238
57	616
58	33
59	32
60	93
61	14
62	3
63	5
64	1
65	28
66	15
67	211
68	109
69	342
70	124
71	309
72	21
73	862
74	43
75	9
76	2
77	20
78	5
79	66
80	54
81	239
82	117
83	277
84	124
85	225
86	51
87	109
88	22
89	3
91	13
92	3
93	33
94	17
95	216
96	117
97	265
98	119
99	223
100	39
101	224
102	37
103	4
105	7
106	10
107	33
108	16
109	133
110	58
111	89
112	27
113	117
114	40
115	261
116	36
117	4
118	1
119	20
120	16
121	42
122	17
123	60
124	22
125	38
126	22
127	49
128	12
129	124
130	17
131	4
132	2
133	26
134	5
135	25
136	24
137	37
138	618
139	42
140	575
141	48
142	7
143	43
144	13
145	2
147	12
148	2
149	12
150	2
151	115
152	11
153	105
154	7
155	7
156	2
157	255
158	25
159	2
161	5
162	9
163	48
164	9
165	14
166	2
167	7
168	1
169	4
170	1
171	119
172	16
173	1
175	8
176	3
177	8
178	3
179	15
180	43
181	59
182	39
183	3
185	2
186	2
187	2
189	4
191	3
193	158
194	13
195	151
196	12
197	2
199	246
200	38
201	4
202	4
203	1
204	2
207	154
208	12
209	142
210	11
214	2
221	5
223	5
231	1
233	1
235	12
236	1
237	12
238	1
249	35
250	4
251	33
252	4
278	6
279	1
280	6
281	1
