Mass Spectrum: 1-Butanol, 4-ethoxy-
Formula: C6H14O2
CAS: 111-73-9
Molecular weight: 118
m/z	intensity
24	0
25	0
26	20
27	226
28	20
29	332
30	11
31	999
33	2
35	0
37	0
38	2
39	52
40	19
41	234
42	296
43	199
44	316
45	159
46	5
47	106
48	2
49	0
50	0
51	1
52	0
53	13
54	6
55	193
56	101
57	52
58	13
59	644
60	17
61	12
63	0
67	1
68	0
69	1
70	3
71	316
72	203
73	69
74	14
75	130
76	4
77	0
81	0
82	0
83	1
84	0
85	21
86	1
88	83
89	149
90	23
91	1
93	0
98	0
99	2
100	3
102	0
103	5
112	0
114	0
116	1
117	9
118	1
119	0
