Mass Spectrum: Octadecanamide, N-(2-hydroxyethyl)-
Formula: C20H41NO2
CAS: 111-57-9
Molecular weight: 327
m/z	intensity
27	6
29	20
31	4
39	11
41	80
42	13
43	98
44	57
45	10
52	2
53	8
55	86
56	20
57	38
61	8
67	31
68	14
69	34
70	6
72	3
81	15
84	10
85	999
86	49
87	5
92	3
93	7
94	7
96	8
97	14
98	471
99	71
108	3
110	7
112	64
113	8
122	6
124	14
125	4
126	20
127	6
133	6
138	4
140	108
141	17
142	2
154	73
155	7
168	21
169	5
180	3
182	23
183	6
194	11
195	2
196	20
197	5
198	3
200	1
207	8
210	30
214	2
224	27
226	4
232	1
236	5
238	12
243	3
250	4
252	21
254	4
262	3
266	59
267	11
270	2
280	22
294	9
301	1
307	1
308	34
309	24
310	4
