Mass Spectrum: 1,4,7-Trioxa-10,12,15,17-tetraazacyclononadecane-11,16-dithione
Formula: C12H24N4O3S2
CAS: 111039-14-6
Molecular weight: 336
m/z	intensity
54	90
55	322
56	330
57	388
58	264
59	330
60	504
61	231
62	66
67	82
68	99
69	495
70	297
71	272
72	206
73	297
74	214
75	123
76	74
77	115
81	156
82	82
83	140
84	132
85	289
86	999
87	297
88	247
89	115
90	82
91	74
94	66
95	123
96	90
97	123
98	165
99	132
100	123
101	313
102	611
103	809
104	132
105	132
109	74
110	123
111	82
112	198
113	165
114	82
115	181
116	214
117	74
119	90
120	82
121	140
125	57
126	57
127	198
128	702
129	355
130	371
131	74
132	82
136	74
137	74
143	74
144	82
145	190
146	297
147	107
148	49
149	57
150	66
154	41
155	41
156	57
157	41
158	74
160	165
161	57
171	41
172	49
173	99
174	82
175	24
176	33
186	41
187	57
188	66
189	41
190	57
191	74
192	24
204	74
205	41
208	206
216	33
217	41
218	41
231	41
233	49
234	90
235	99
261	90
262	49
266	41
269	41
271	90
272	33
292	33
293	107
294	33
301	74
302	148
303	41
336	669
337	148
338	99
