Mass Spectrum: 1,4,7,15-Tetraoxa-10,12,18,20-tetraazacyclodocosane-11,19-dithione
Formula: C14H28N4O4S2
CAS: 111039-16-8
Molecular weight: 380
m/z	intensity
54	66
55	118
56	145
57	105
58	99
59	276
60	368
61	68
62	86
69	263
70	145
71	80
72	158
73	72
74	67
75	65
76	67
83	96
84	59
85	329
86	999
87	171
88	132
89	63
90	42
99	54
100	57
101	145
102	158
103	211
104	53
105	59
113	118
114	49
115	92
116	158
117	58
118	33
119	53
127	59
128	132
129	158
130	171
131	53
145	100
146	158
147	197
148	54
157	51
158	30
159	20
160	45
164	79
165	36
170	26
171	20
172	40
173	53
174	28
190	36
191	54
201	40
204	33
214	29
216	24
217	20
218	16
230	50
231	24
232	26
233	20
234	61
235	46
249	21
253	37
261	24
262	20
292	22
303	16
313	20
346	24
380	41
