Mass Spectrum: 1,4-Dioxa-7,9,12,14-tetraazacyclohexadecane-8,13-dithione
Formula: C10H20N4O2S2
CAS: 111039-13-5
Molecular weight: 292
m/z	intensity
55	270
56	294
57	317
58	205
59	323
60	588
61	205
62	152
67	88
68	99
69	505
70	252
71	182
72	235
73	235
74	211
75	94
76	58
77	152
81	152
82	70
83	141
84	152
85	311
86	999
87	205
88	147
89	117
90	105
91	94
92	29
93	29
94	70
95	105
96	88
97	88
98	217
99	117
100	70
101	323
102	705
103	999
104	123
105	105
106	58
110	105
111	70
112	152
113	176
114	70
115	182
116	205
117	76
118	29
119	70
120	23
121	129
127	105
128	694
129	311
130	294
131	70
132	58
133	41
143	52
144	35
145	141
146	164
147	288
148	35
149	47
156	58
157	47
158	35
159	17
160	141
161	29
162	17
165	129
169	29
170	17
171	35
172	52
173	58
174	41
190	88
191	117
204	29
205	82
206	58
217	76
218	35
227	52
228	17
231	29
232	17
248	352
249	82
250	41
258	94
259	35
292	523
293	82
294	41
