Mass Spectrum: 4-(4-Chlorophenyl)-1H-pyrazole
Formula: C9H7ClN2
CAS: 111016-47-8
Molecular weight: 178
m/z	intensity
35	98
36	48
37	331
38	424
39	288
40	46
41	92
42	74
43	15
44	10
47	66
48	23
49	284
50	799
51	428
52	160
53	11
57	22
58	9
60	106
61	387
62	608
63	699
64	110
65	100
66	9
68	3
72	75
73	315
74	272
75	292
76	179
77	21
78	17
79	5
84	32
85	117
86	215
87	290
88	213
89	999
90	101
91	5
94	6
97	55
98	9
99	32
100	6
101	19
111	6
112	3
113	27
114	148
115	150
116	337
117	16
122	5
123	244
124	119
125	77
126	25
136	15
142	74
143	55
144	4
150	54
151	190
152	16
153	66
154	6
177	102
178	703
179	97
180	233
181	23
