Mass Spectrum: 1,4,7,10-Tetraoxa-13,15,18,20-tetraazacyclodocosane-14,19-dithione
Formula: C14H28N4O4S2
CAS: 111039-15-7
Molecular weight: 380
m/z	intensity
51	73
53	33
54	42
55	88
56	158
57	130
58	118
59	170
60	194
61	73
68	42
69	182
70	121
71	76
72	158
73	182
74	127
75	67
76	24
81	167
82	27
83	42
84	46
85	170
86	727
87	264
88	176
89	109
90	30
91	49
94	100
95	36
96	27
97	39
98	79
99	55
100	55
101	136
102	999
103	364
104	70
105	70
110	39
111	27
112	76
113	76
114	30
115	124
116	79
117	42
118	21
119	42
120	36
121	42
127	79
128	385
129	158
130	164
131	46
132	46
141	42
143	24
144	39
145	82
146	106
147	46
148	21
150	18
155	24
156	42
157	21
158	27
159	18
160	76
161	30
162	18
163	24
164	15
165	15
170	15
171	15
172	15
173	46
174	49
175	15
176	24
184	15
185	15
186	24
187	24
188	33
189	18
190	42
191	30
192	24
194	24
204	33
205	24
209	27
217	33
218	24
220	18
231	18
233	21
234	18
235	18
253	39
261	27
262	58
266	24
279	18
292	21
293	18
305	15
336	49
337	39
338	15
345	21
346	33
380	118
381	21
