Mass Spectrum: Carbamic acid, 3-cyclopenten-1-yl-, methyl ester
Formula: C7H11NO2
CAS: 111122-43-1
Molecular weight: 141
m/z	intensity
39	400
40	130
41	230
42	130
53	170
54	280
55	140
59	190
65	160
66	740
67	400
75	999
80	350
81	360
82	440
108	90
109	200
126	90
141	50
