Mass Spectrum: 1,6-Dinitro-9-benzyl-carbazole
Formula: C19H13N3O4
CAS: 111199-68-9
Molecular weight: 347
m/z	intensity
91	999
138	19
152	29
164	80
178	19
179	20
211	159
225	79
241	309
253	99
299	39
300	9
317	10
330	20
331	10
347	70
