Mass Spectrum: 6,7-Dimethyl-9-oxo-1,5-diazabicyclo[5.2.0]non-5-ene
Formula: C9H14N2O
CAS: 111197-35-4
Molecular weight: 166
m/z	intensity
67	412
68	999
69	293
70	29
77	8
81	11
82	145
83	32
84	211
85	7
86	105
88	4
94	6
95	59
96	33
97	48
105	11
109	5
110	34
122	12
123	8
124	19
138	53
151	97
166	15
