Mass Spectrum: Epoxy-oxopowelline
Formula: C17H17NO5
CAS: 111137-76-9
Molecular weight: 315
m/z	intensity
42	999
43	305
44	201
45	95
46	2
47	13
49	61
50	15
51	691
53	619
54	397
55	394
56	675
57	695
59	23
62	51
63	560
64	174
65	274
66	90
67	81
68	94
69	140
70	81
71	44
72	61
74	105
75	173
77	772
78	188
79	128
80	48
81	3
82	111
83	13
84	97
85	18
86	102
87	87
88	70
89	360
90	126
91	225
92	79
93	56
94	40
95	14
96	13
98	35
99	11
100	122
101	55
102	368
103	265
104	85
105	88
106	35
107	55
108	39
109	1
110	8
111	3
113	73
115	626
116	178
117	126
118	85
119	39
120	25
121	9
122	77
123	5
124	3
127	181
128	161
129	143
130	176
131	183
132	68
133	101
134	22
135	26
136	10
137	3
139	22
140	21
141	52
142	53
143	122
144	124
145	206
146	100
147	38
148	9
149	8
150	8
151	8
152	13
153	10
154	32
155	38
156	60
157	102
158	76
159	124
160	39
161	46
162	9
163	11
165	85
166	13
167	13
168	18
169	28
170	41
171	89
172	79
173	208
174	105
175	52
176	21
177	13
178	13
179	8
180	4
181	5
182	8
183	17
184	30
185	76
186	56
187	114
188	75
189	145
190	82
191	87
192	18
193	5
194	2
195	3
196	11
197	12
198	27
199	41
200	49
201	161
202	117
203	399
204	409
205	92
206	15
207	2
208	1
209	2
210	5
211	10
212	21
213	36
214	44
215	149
216	225
217	228
218	269
219	66
220	13
221	2
222	1
223	0
224	4
225	6
226	16
227	39
228	55
229	61
230	753
231	715
232	291
233	53
234	6
235	0
237	0
238	2
239	4
240	10
241	15
242	120
243	81
244	541
245	148
246	30
247	4
248	0
252	0
253	1
254	9
255	10
256	46
258	444
259	339
260	65
261	8
262	1
268	8
270	87
271	24
272	45
273	9
274	4
275	1
282	2
283	1
284	14
285	3
286	108
287	147
288	25
289	3
290	0
295	0
296	1
298	6
299	29
300	11
301	2
304	0
312	2
313	8
314	1
315	857
316	167
317	29
318	4
