Mass Spectrum: 9-Methyl-11-oxo-1,6-diazatricyclo[7.2.0.0(6,8)]undecane
Formula: C10H16N2O
CAS: 111197-37-6
Molecular weight: 180
m/z	intensity
65	10
66	6
67	148
68	415
69	350
70	362
71	18
79	6
80	73
81	103
82	466
83	497
84	202
85	23
94	183
95	247
96	999
97	237
98	64
108	52
109	162
110	427
111	78
112	7
113	16
122	53
123	68
124	68
125	6
136	38
137	211
138	100
139	7
151	22
152	18
165	156
166	5
181	27
