Mass Spectrum: 1-(3-Nitropropyl)-4-methyl-4-vinylazetidin-2-one
Formula: C9H14N2O3
CAS: 111197-38-7
Molecular weight: 198
m/z	intensity
60	41
65	19
66	22
67	599
68	999
69	140
70	49
72	6
79	7
80	11
81	39
82	143
83	13
84	42
86	33
88	193
94	62
95	147
96	59
108	15
109	9
110	27
111	17
112	65
122	7
124	15
136	5
151	5
168	14
183	5
199	18
