Mass Spectrum: Carbamic acid, 2-cyclopenten-1-yl-, methyl ester
Formula: C7H11NO2
CAS: 111122-39-5
Molecular weight: 141
m/z	intensity
39	710
40	280
41	480
42	170
43	220
51	110
52	110
53	260
54	290
55	260
59	300
65	450
66	890
67	999
68	120
76	460
80	380
81	260
82	970
108	390
109	270
126	870
127	61
140	230
141	220
142	18
