Mass Spectrum: 1,2-Bis(dimethylchlorosilyl)-2-(trimethylsilyl)ethylene
Formula: C9H22Cl2Si3
CAS: 111257-49-9
Molecular weight: 284
m/z	intensity
58	40
59	52
73	999
74	108
75	37
83	318
84	40
85	16
93	98
95	50
97	61
141	87
142	10
155	9
156	38
161	50
163	19
175	107
176	618
177	130
178	221
179	38
180	17
195	8
196	30
197	6
269	50
271	29
284	11
