Mass Spectrum: 1,2-Bis(methyldichlorosilyl)-2-(trimethylsilyl)ethylene
Formula: C7H16Cl4Si3
CAS: 111257-48-8
Molecular weight: 324
m/z	intensity
59	127
73	999
74	98
75	46
83	197
84	19
85	16
93	160
94	9
95	51
97	18
103	157
104	10
105	49
113	21
115	10
187	31
189	19
195	29
197	18
215	17
216	218
217	30
218	219
219	34
220	78
221	10
222	9
309	40
311	51
313	28
315	9
