Mass Spectrum: Ethanedione, 1-trifluoromethyl-2-(4-methylphenyl)-, N2-dimethylhydrazone
Formula: C12H13F3N2O
CAS: 111269-40-0
Molecular weight: 258
m/z	intensity
38	5
39	26
40	10
41	11
42	152
43	91
44	999
45	18
50	9
51	17
52	5
53	3
62	7
63	22
64	10
65	41
66	3
69	71
72	4
75	6
76	7
77	15
78	3
89	50
90	30
91	75
92	6
94	4
102	6
103	7
105	3
116	67
117	43
118	259
119	24
130	5
145	9
146	27
151	5
159	3
161	358
162	37
166	3
189	4
258	465
259	63
260	5
