Mass Spectrum: Propan-2-one, 1,1,1-trifluoro-3-dimethylhydrazono-3-(4-nitrophenyl)-
Formula: C11H10F3N3O3
CAS: 111269-45-5
Molecular weight: 289
m/z	intensity
33	1
34	2
37	9
38	17
39	28
40	30
42	469
43	233
44	999
45	41
50	85
51	61
52	17
53	4
54	2
55	6
56	5
57	8
58	1
59	0
60	1
61	7
62	26
63	22
64	14
65	9
66	3
67	3
69	192
70	3
71	3
72	7
73	4
74	29
75	77
76	94
77	19
78	6
79	2
81	2
82	0
83	0
84	2
85	2
86	6
87	12
88	14
89	6
90	14
91	26
92	5
93	3
94	5
95	2
97	4
98	2
99	4
100	4
102	72
103	96
104	13
105	6
106	2
107	4
111	0
112	1
115	1
116	3
117	4
118	9
119	16
120	3
121	2
122	0
123	0
125	0
129	1
130	2
131	5
132	3
133	3
134	1
137	4
138	1
143	0
144	0
145	8
146	17
147	8
148	3
149	48
150	5
151	3
152	2
153	0
156	1
157	1
158	3
159	3
160	0
161	0
162	5
163	0
169	3
170	2
171	4
172	0
173	0
174	0
176	7
177	0
190	5
192	203
193	21
194	2
213	0
217	0
220	8
221	0
243	0
259	3
270	2
271	2
273	1
286	3
289	205
290	24
291	2
