Mass Spectrum: Trifluoromethyldifluorophosphine
Formula: CF5P
CAS: 1112-04-5
Molecular weight: 138
m/z	intensity
31	68
32	1
50	54
51	1
69	999
70	12
119	42
120	1
138	55
139	1
