Mass Spectrum: 2-(1-Aziridinyl)-3-(p-tolylthio)-1,4-naphthoquinone
Formula: C19H15NO2S
CAS: 111296-19-6
Molecular weight: 321
m/z	intensity
15	2
26	1
27	9
28	9
38	2
39	34
40	3
41	9
42	21
43	2
44	1
45	57
46	1
47	2
50	23
51	20
52	5
53	6
54	3
57	1
58	2
59	5
60	1
61	2
62	8
63	21
64	6
65	54
66	7
67	2
68	6
69	12
70	4
71	6
72	1
73	1
74	8
75	19
76	90
77	65
78	13
79	53
80	5
81	1
82	4
83	1
84	2
85	3
86	3
87	5
88	12
89	49
90	12
91	99
92	17
93	6
94	12
95	3
96	1
97	6
98	3
99	2
100	3
101	15
102	24
103	17
104	123
105	999
106	102
107	23
108	9
109	4
110	3
111	3
112	1
113	5
114	27
115	35
116	15
117	10
118	19
119	28
120	10
121	20
122	9
123	88
124	44
125	10
126	16
127	6
128	9
129	9
130	16
131	9
132	31
133	20
134	10
135	115
136	16
137	14
138	3
139	9
140	7
141	5
142	7
143	10
144	25
145	7
146	16
147	15
148	7
149	6
150	3
151	4
152	9
153	25
154	20
155	3
156	2
157	5
158	10
159	10
160	15
161	11
162	3
163	7
164	6
165	11
166	3
167	2
168	1
169	6
170	5
171	10
172	31
173	7
174	9
175	11
176	66
177	11
178	16
179	12
180	2
181	1
182	1
183	2
184	5
185	4
186	12
187	4
188	39
189	44
190	12
191	7
192	2
193	1
194	1
195	3
196	2
197	9
198	28
199	14
200	5
201	9
202	14
203	13
204	9
205	5
206	2
207	4
208	15
209	5
210	2
211	3
212	1
213	2
214	9
215	12
216	56
217	15
218	8
219	9
220	4
221	22
222	12
223	9
224	4
225	1
228	3
229	42
230	188
231	37
232	22
233	9
234	9
235	12
236	14
237	11
238	4
239	4
240	1
242	1
243	1
244	2
245	3
246	9
247	32
248	14
249	12
250	14
251	14
252	5
253	2
254	1
258	1
259	5
260	23
261	12
262	15
263	9
264	11
265	15
266	7
267	3
268	1
270	2
271	1
272	3
273	7
274	12
275	10
276	11
277	15
278	65
279	71
280	22
281	6
282	1
286	3
287	6
288	69
289	25
290	8
291	9
292	38
293	37
294	12
295	18
296	4
297	1
302	3
303	2
304	10
305	8
306	197
307	43
308	15
309	3
320	40
321	755
322	170
323	70
324	14
325	2
