Mass Spectrum: 1,2-Bis(trimethylsilyl)-2-(dimethylchlorosilyl)ethylene
Formula: C10H25ClSi3
CAS: 111257-46-6
Molecular weight: 264
m/z	intensity
59	88
73	999
74	91
75	57
83	138
84	28
85	10
93	187
94	19
95	75
96	12
141	178
142	30
143	9
156	68
157	217
158	86
159	21
167	48
169	10
175	40
176	38
177	39
178	61
179	8
180	17
229	28
249	36
251	11
