Mass Spectrum: 1,3-Pentadiene, 2,3-dimethyl-
Formula: C7H12
CAS: 1113-56-0
Molecular weight: 96
m/z	intensity
27	198
29	59
37	13
38	26
39	300
40	36
41	326
42	32
43	4
44	1
45	4
46	8
47	4
49	7
50	51
51	93
52	44
53	315
54	99
55	153
56	80
61	8
62	14
63	26
64	6
65	80
66	40
67	179
68	45
69	9
73	2
74	6
75	4
77	94
78	18
79	409
80	45
81	999
82	62
83	0
86	0
91	15
93	15
94	10
95	40
96	444
97	29
98	0
