Mass Spectrum: Monomethyl carbonotrithioate
Formula: C2H4S3
CAS: 1113-26-4
Molecular weight: 124
m/z	intensity
44	425
45	402
46	132
47	889
48	722
59	39
76	999
91	9
