Mass Spectrum: Propanamide, N,N-bis(1-methylethyl)-
Formula: C9H19NO
CAS: 1113-75-3
Molecular weight: 157
m/z	intensity
25	6
27	105
28	18
29	186
30	17
31	2
37	0
38	1
39	32
40	5
41	110
42	87
43	211
44	479
45	14
46	0
51	0
52	1
53	1
54	6
55	14
56	22
57	207
58	287
59	13
60	0
66	0
67	0
68	3
69	2
70	28
71	3
72	10
73	1
74	2
75	0
80	0
81	0
82	2
83	2
84	20
85	3
86	999
87	58
88	1
96	0
97	0
98	2
99	1
100	87
101	5
102	0
112	0
113	0
114	176
115	15
116	1
126	0
128	4
129	0
131	0
141	0
142	15
143	1
157	121
158	13
159	1
