Mass Spectrum: L-Valine, 3-mercapto-
Formula: C5H11NO2S
CAS: 1113-41-3
Molecular weight: 149
m/z	intensity
15	7
16	3
17	6
18	11
26	4
27	37
28	157
29	59
30	56
31	2
32	17
33	20
34	52
35	3
36	3
37	5
38	9
39	61
40	9
41	238
42	35
43	95
44	85
45	30
46	24
47	56
48	2
49	4
50	3
51	4
52	7
53	25
54	22
55	19
56	119
57	133
58	9
59	45
60	5
61	8
62	2
66	1
67	1
68	8
69	8
70	142
71	94
72	27
73	6
74	49
75	999
76	34
77	23
78	1
81	1
82	3
83	3
84	1
85	3
86	3
87	46
88	9
89	5
90	3
98	17
99	9
100	4
101	1
102	1
103	3
104	47
105	3
106	3
114	1
115	1
116	6
117	1
132	7
149	1
