Mass Spectrum: Acetamide, N-acetyl-N-methyl-
Formula: C5H9NO2
CAS: 1113-68-4
Molecular weight: 115
m/z	intensity
12	2
13	10
14	52
15	265
16	3
17	0
18	4
24	0
25	2
26	11
27	22
28	87
29	27
30	130
31	70
32	25
33	0
36	0
37	0
38	2
39	3
40	10
41	20
42	127
43	999
44	36
45	47
46	2
48	0
49	0
51	2
52	4
54	14
55	40
56	186
57	0
58	135
59	2
66	0
69	0
70	1
72	30
73	213
74	44
75	1
76	0
78	0
85	0
87	140
88	6
89	0
115	22
116	1
117	0
