Mass Spectrum: 3-tert-Butyl-5-chloro-1-(2,2-dichlorovinyl)-6-methyluracil
Formula: C11H13Cl3N2O2
CAS: 111396-48-6
Molecular weight: 310
m/z	intensity
28	35
29	310
41	459
57	999
58	143
70	166
84	166
136	74
138	51
176	155
178	97
183	68
185	63
211	413
212	91
213	425
214	91
215	172
218	908
219	224
220	836
221	149
253	166
254	528
256	517
258	224
275	54
277	34
295	31
297	28
310	195
312	189
314	63
