Mass Spectrum: 2,2-Diethylacetamide
Formula: C6H13NO
CAS: 1114-38-1
Molecular weight: 115
m/z	intensity
15	12
16	6
17	4
18	8
26	23
27	250
29	247
30	22
31	2
37	6
38	20
39	239
40	33
41	413
42	109
43	932
44	553
45	23
46	37
49	1
50	9
51	15
52	9
53	43
54	34
55	300
56	23
57	53
58	10
59	30
60	1
61	1
62	2
63	3
65	4
66	2
67	7
68	18
69	188
70	49
71	161
72	966
73	55
74	3
80	1
81	1
82	6
83	21
84	2
85	12
86	491
87	999
88	48
89	3
98	2
99	10
100	92
101	5
114	2
115	4
116	3
