Mass Spectrum: 2,3-Butanediol, diacetate
Formula: C8H14O4
CAS: 1114-92-7
Molecular weight: 174
m/z	intensity
25	1
27	10
28	11
29	8
30	0
31	2
38	0
39	5
41	8
42	12
43	999
44	22
45	33
46	0
50	0
51	0
52	0
53	2
54	3
55	13
56	2
57	8
58	0
60	1
61	12
62	0
70	3
71	7
72	70
73	19
74	1
75	2
81	0
86	15
87	200
88	18
89	4
99	0
114	12
115	1
117	15
118	1
129	0
130	41
131	24
132	1
133	0
159	0
