Mass Spectrum: 1-Propyl-5-methyl-5-bromo-6-hydroxy-1,3-diazacyclohexan-2,4-dione
Formula: C8H13BrN2O3
CAS: 111421-19-3
Molecular weight: 264
m/z	intensity
28	495
29	513
30	678
31	68
35	17
38	31
39	208
40	70
41	621
42	215
43	999
44	262
45	21
46	140
51	9
52	21
53	33
54	91
55	265
56	278
58	262
59	21
60	12
63	4
65	12
66	17
67	25
68	68
70	295
71	32
72	53
73	17
74	5
77	5
78	5
79	56
80	159
81	61
82	210
83	145
84	107
85	125
86	21
87	11
88	424
89	5
90	3
92	3
93	4
94	11
95	15
96	492
97	48
98	25
99	48
100	35
101	31
102	7
103	4
105	5
106	24
107	20
108	28
109	7
110	46
111	14
112	17
113	25
114	16
115	18
122	39
123	39
124	19
125	15
126	287
127	57
129	10
130	6
131	3
132	233
133	18
134	277
135	50
136	282
137	45
138	22
139	76
140	20
142	19
143	45
144	67
148	9
149	71
150	9
151	116
152	11
153	54
154	7
155	17
156	5
157	10
162	8
163	64
164	14
165	64
166	20
168	176
169	25
170	5
177	21
178	5
179	21
180	5
182	3
184	7
185	237
186	23
187	4
191	92
192	7
193	94
194	6
205	7
207	5
235	200
236	21
237	197
238	18
247	12
249	5
264	59
265	10
266	59
267	7
