Mass Spectrum: 7-anti-Acetyl-3,3-dimethylbicyclo[2.2.2]octan-2-one
Formula: C12H18O2
CAS: 111455-39-1
Molecular weight: 194
m/z	intensity
41	550
43	950
55	160
67	999
69	230
71	120
77	110
79	220
81	410
110	130
123	900
124	130
136	70
151	180
176	70
194	230
