Mass Spectrum: d-Lyxose
Formula: C5H10O5
CAS: 1114-34-7
Molecular weight: 150
m/z	intensity
15	10
19	29
26	10
27	40
29	224
30	37
31	218
33	2
35	1
36	9
37	2
38	7
39	20
40	11
41	8
42	164
43	264
44	73
45	107
46	7
47	41
49	2
53	3
54	13
55	53
56	44
57	124
58	60
59	15
60	589
61	253
62	11
68	20
71	162
72	73
73	999
74	60
75	8
76	2
85	13
86	66
87	4
88	11
89	17
90	12
91	43
92	1
101	51
102	35
103	19
104	2
108	1
114	8
119	38
120	1
133	3
