Mass Spectrum: l-Leucine, N-(3-methyl-1-oxobutyl)-, methyl ester
Formula: C12H23NO3
CAS: 111491-87-3
Molecular weight: 229
m/z	intensity
31	95
33	28
37	2
38	10
39	133
40	33
41	507
42	131
43	446
44	164
45	14
50	0
51	5
52	1
53	28
54	40
55	105
56	82
57	506
58	33
59	59
60	9
66	5
67	20
68	35
69	85
70	81
71	16
72	0
73	17
74	5
81	4
82	13
83	19
84	76
85	216
86	999
87	71
88	72
89	34
90	5
94	0
95	5
96	10
97	5
98	10
99	35
100	6
101	2
102	52
110	78
111	10
112	28
113	20
114	0
126	5
127	60
128	26
129	6
130	10
131	28
141	54
142	0
144	36
145	1
146	3
152	0
154	24
155	31
168	18
170	83
171	10
172	0
173	49
187	10
