Mass Spectrum: O-Acetyldihydrocrinine
Formula: C18H21NO4
CAS: 111440-93-8
Molecular weight: 315
m/z	intensity
42	337
43	999
44	338
45	19
46	1
47	6
49	34
50	29
51	97
52	31
53	69
54	64
55	173
56	184
57	51
58	18
59	1
60	8
61	7
62	13
63	57
64	29
65	64
67	76
68	31
69	18
70	23
71	24
73	2
74	11
75	30
76	48
77	149
78	50
79	34
80	29
81	16
82	42
83	39
84	61
85	8
86	45
87	10
88	13
89	58
90	7
91	108
92	25
93	24
94	22
95	9
96	10
97	3
98	32
99	25
100	7
101	38
102	76
103	91
104	24
105	39
106	52
107	27
108	6
109	2
110	1
111	4
113	101
114	30
115	299
116	107
117	57
118	15
119	8
120	31
121	6
122	3
123	1
124	1
125	1
126	11
128	297
129	97
130	50
131	62
132	13
133	6
134	18
135	56
136	16
137	0
139	21
140	8
141	72
142	40
143	113
144	43
145	34
146	8
147	15
148	22
149	47
150	7
151	6
152	23
153	36
154	31
155	33
156	23
157	45
158	18
159	47
160	36
161	50
162	20
163	5
164	0
165	16
166	14
167	39
168	38
169	37
170	24
171	27
172	84
173	132
174	197
175	63
176	14
177	3
178	3
179	4
180	5
181	33
182	13
183	17
185	320
186	88
187	126
188	67
189	45
190	20
191	3
192	1
193	1
194	9
195	22
196	29
197	22
198	73
199	81
200	261
201	263
202	91
203	13
204	1
205	2
207	1
208	0
209	6
211	95
212	117
213	62
214	120
215	38
216	22
217	9
218	1
220	1
222	1
223	8
224	39
225	56
226	576
227	318
228	110
229	19
230	5
231	1
232	1
237	1
238	9
240	47
241	9
242	5
244	43
245	6
246	1
250	0
252	8
254	189
256	847
257	135
258	15
259	1
268	1
269	0
270	4
272	64
273	11
274	1
286	29
287	22
288	3
300	6
301	1
315	989
316	184
317	25
318	2
