Mass Spectrum: meso-Di-ethyl-2,3-dibromosuccinate
Formula: C8H12Br2O4
CAS: 1114-30-3
Molecular weight: 330
m/z	intensity
25	2
26	385
28	85
30	67
37	2
39	16
40	3
41	13
42	22
43	162
44	22
45	250
47	11
51	3
52	5
53	250
54	270
55	310
56	18
57	4
58	2
59	2
68	3
69	16
70	5
71	202
72	34
73	13
75	7
77	2
79	7
80	13
81	94
82	159
83	9
85	2
86	3
93	5
95	5
97	2
98	26
99	999
100	140
101	11
103	3
104	8
105	76
106	14
107	81
108	8
109	6
110	2
114	2
115	2
117	42
118	2
120	3
121	5
122	4
123	8
124	2
125	26
126	218
127	876
128	95
129	15
131	3
132	3
133	187
134	10
135	182
136	8
137	2
141	2
143	38
144	3
145	25
146	2
149	17
150	69
151	306
152	78
153	287
154	10
155	2
157	2
161	2
163	3
167	10
169	9
176	2
177	73
178	13
179	354
180	28
181	286
182	16
183	2
184	7
185	14
186	13
187	23
188	7
189	10
195	14
197	13
204	5
205	102
206	14
207	119
208	10
209	25
211	2
213	4
215	2
222	18
225	17
228	7
230	15
232	7
251	51
252	5
253	51
254	4
256	40
258	78
259	3
260	39
284	18
286	35
287	2
288	17
301	6
304	14
306	6
