Mass Spectrum: 1-Propyl-5-ethyl-5-bromo-6-hydroxy-1,3-diazacyclohexan-2,4-dione
Formula: C9H15BrN2O3
CAS: 111421-20-6
Molecular weight: 278
m/z	intensity
27	427
28	367
29	254
30	695
31	10
34	12
35	7
36	7
37	15
39	250
40	69
41	799
42	212
43	999
44	218
45	3
46	118
50	17
51	27
53	131
54	90
55	244
56	229
57	93
58	270
59	21
60	3
64	10
67	20
68	57
69	84
70	438
71	75
72	21
73	18
77	7
80	187
81	77
82	305
83	56
84	35
85	17
86	31
87	9
88	412
89	29
93	20
95	17
96	84
97	113
98	107
100	20
101	42
102	4
105	7
107	13
108	20
109	176
110	31
111	21
112	31
113	43
114	10
119	9
121	60
122	15
123	54
124	94
125	180
126	28
127	14
128	20
129	20
131	326
132	21
133	35
134	9
135	52
137	21
138	24
139	50
140	137
141	108
142	35
143	10
148	432
149	51
150	452
151	38
152	49
153	42
154	15
156	14
158	59
160	3
163	46
164	13
165	77
167	284
168	32
169	42
170	21
171	13
175	18
177	100
178	24
179	102
180	29
182	213
183	48
184	8
191	29
192	10
193	31
194	8
196	7
198	9
199	314
200	38
201	6
206	125
207	12
208	121
209	11
220	10
222	9
233	14
235	18
237	5
249	239
250	24
251	233
252	22
261	9
263	24
264	6
265	17
278	85
279	22
280	83
281	15
