Mass Spectrum: 1-Propyl-5,5-dibromo-6-hydroxy-1,3-diazacyclohexan-2,4-dione
Formula: C7H10Br2N2O3
CAS: 111421-18-2
Molecular weight: 328
m/z	intensity
29	413
30	447
31	17
36	6
39	196
41	602
42	223
43	896
44	209
45	130
51	5
52	17
53	91
54	146
55	44
56	310
57	282
58	10
65	2
66	8
67	13
68	31
69	45
70	422
71	26
72	7
73	3
80	97
81	231
82	101
83	265
84	32
85	17
86	6
87	10
88	999
89	22
90	23
95	47
96	27
98	5
99	105
100	12
101	3
102	9
104	17
105	22
106	21
107	30
109	34
110	22
112	6
114	6
115	5
116	4
118	15
120	70
121	66
122	56
124	4
126	4
129	66
130	10
132	16
133	18
135	6
137	6
139	5
140	10
141	45
142	5
147	7
148	81
149	149
150	23
151	61
153	16
161	140
162	135
163	18
165	16
166	14
169	9
170	33
172	12
173	14
174	17
175	10
176	10
177	8
178	5
186	16
187	34
188	34
189	35
190	177
191	13
192	172
193	10
198	91
200	207
201	135
202	40
203	39
204	26
205	28
207	27
209	23
213	18
215	150
217	237
219	110
223	5
227	4
229	7
231	29
232	87
233	22
234	81
241	10
243	24
245	11
249	61
251	63
256	25
258	44
260	20
270	3
272	3
274	2
284	4
285	5
287	12
289	6
299	100
300	10
301	182
302	23
303	98
304	92
328	36
329	5
330	78
331	10
332	33
333	8
