Mass Spectrum: 4H-Dibenzo[de,g]quinoline, 1,2,3,3a,5,6,6a,7,11b,11c-decahydro-10-methoxy-6-methyl-
Formula: C18H25NO
CAS: 111475-84-4
Molecular weight: 271
m/z	intensity
41	420
42	999
43	150
44	950
45	60
46	10
50	30
51	130
52	50
53	140
54	40
55	140
56	60
57	70
58	160
59	90
60	10
63	80
64	30
65	120
66	30
67	110
68	70
69	30
70	110
71	20
75	30
76	40
77	210
78	100
79	100
80	200
81	90
82	110
83	60
89	60
91	220
92	40
93	40
94	300
95	60
96	410
97	60
102	80
103	110
104	50
105	60
106	40
107	80
108	110
109	130
110	130
111	10
115	390
116	120
117	70
120	60
121	90
122	440
123	120
124	10
127	120
128	240
129	130
130	50
131	70
132	40
133	10
134	40
135	60
136	130
137	30
138	10
139	50
140	30
141	130
142	60
143	50
144	100
145	70
146	60
147	40
148	50
149	40
150	590
151	90
152	80
153	80
154	50
155	60
156	30
157	40
158	80
159	80
160	30
165	60
166	30
167	40
168	40
169	40
170	40
171	100
172	50
173	30
181	30
182	30
183	30
184	40
185	40
186	40
197	30
198	50
199	30
200	30
201	30
212	60
213	30
214	60
228	150
229	60
230	40
240	30
242	70
243	10
252	30
254	30
256	160
257	30
269	40
270	200
271	510
272	100
273	10
