Mass Spectrum: 2-Cyclopentenecarboxylic acid, 5-hydroxy-5-methyl-2-(1-methylethyl)-, methyl ester, trans-
Formula: C11H18O3
CAS: 111511-58-1
Molecular weight: 198
m/z	intensity
27	260
39	200
41	290
43	999
53	130
55	160
59	150
67	180
77	140
79	180
81	140
91	110
93	100
95	650
96	130
97	120
105	230
107	170
108	140
109	310
120	210
121	850
122	130
123	920
124	210
125	110
127	120
138	130
139	180
166	440
180	140
198	24
