Mass Spectrum: 4-(4-Fluorophenyl)-2,3-dihydro-2-methyl-1H-1,5-benzodiazepine
Formula: C16H15FN2
CAS: 111536-74-4
Molecular weight: 254
m/z	intensity
65	88
77	48
91	87
92	82
101	78
119	999
121	191
127	64
133	113
159	49
212	155
221	65
239	841
254	814
255	149
