Mass Spectrum: .alpha.-D-Mannofuranoside, 1-O-heptyl-
Formula: C13H26O6
CAS: 111570-47-9
Molecular weight: 278
m/z	intensity
25	1
26	9
27	120
28	78
29	228
30	7
31	123
32	15
36	0
37	1
38	2
39	55
40	25
41	334
42	78
43	287
44	56
45	82
46	1
47	12
49	1
50	1
51	3
52	1
53	18
54	8
55	125
56	56
57	958
58	46
59	11
60	118
61	126
62	9
63	2
65	3
66	3
67	11
68	25
69	138
70	117
71	100
72	25
73	999
74	65
75	17
76	0
77	2
78	0
79	2
80	1
81	10
82	4
83	12
84	9
85	144
86	120
87	219
88	12
89	16
90	6
91	70
92	2
93	2
94	1
95	6
96	18
97	27
98	40
99	61
100	5
101	84
102	54
103	55
104	3
105	11
106	0
107	0
108	2
109	6
110	4
111	10
112	3
113	6
114	3
115	10
116	104
117	6
118	0
119	91
120	4
121	1
123	1
124	2
125	5
126	5
127	21
128	14
129	14
130	0
131	12
132	2
133	2
134	4
135	0
136	0
137	0
139	1
140	0
141	3
142	2
143	1
144	4
145	29
146	2
149	0
152	0
153	0
154	1
156	0
157	2
158	15
159	2
162	1
163	16
164	0
169	5
170	1
171	15
172	1
181	0
182	0
186	1
187	9
188	0
189	8
190	0
199	2
200	39
201	5
217	51
218	7
219	0
229	5
231	1
247	1
259	0
