Mass Spectrum: Bicyclo[2.2.1]heptane-2-carboxylic acid, 6-oxo-5-(2-propenyloxy)-, (2-endo,5-exo)-
Formula: C11H14O4
CAS: 111509-63-8
Molecular weight: 210
m/z	intensity
39	400
41	940
42	170
43	130
55	690
57	100
65	110
67	690
68	170
69	100
77	120
78	8
79	310
80	20
82	310
83	20
95	250
96	15
97	999
98	200
123	140
124	10
136	210
137	20
154	320
155	31
169	30
170	3
182	100
183	11
