Mass Spectrum: Bicyclo[2.2.1]heptane-2,3-dicarboxylic acid, 5-oxo-, 2-(1,1-dimethylethyl) ester, (2-exo,3-endo)-
Formula: C13H18O5
CAS: 111509-61-6
Molecular weight: 254
m/z	intensity
41	290
43	140
56	100
57	999
79	110
80	7
107	50
108	4
113	150
114	10
124	210
125	16
140	110
141	10
152	200
153	18
170	90
171	8
180	170
181	340
182	35
198	510
199	50
239	50
240	7
254	20
255	3
