Mass Spectrum: cis-2,3,4,5-Tetrahydro-4-(4-methoxyphenyl)-2-methyl-1H-1,5-benzodiazepine
Formula: C17H20N2O
CAS: 111536-80-2
Molecular weight: 268
m/z	intensity
65	103
77	42
92	112
119	999
133	488
145	32
161	179
225	234
236	74
250	35
251	24
252	29
253	85
268	740
269	144
