Mass Spectrum: N-Acetyl-dl-methionine
Formula: C7H13NO3S
CAS: 1115-47-5
Molecular weight: 191
m/z	intensity
13	1
14	11
15	96
16	2
17	12
18	47
19	1
26	10
27	85
28	169
29	30
30	53
31	6
32	3
33	2
34	3
35	48
37	3
38	4
39	36
40	9
41	105
42	85
43	905
44	105
45	87
46	37
47	108
48	31
49	29
50	3
51	3
52	6
53	5
54	40
55	57
56	431
57	369
58	19
59	35
60	73
61	550
62	45
63	26
64	2
65	3
67	1
68	18
69	4
70	17
71	90
72	18
73	25
74	257
75	450
76	19
77	18
78	1
79	2
80	1
81	2
82	3
83	41
84	44
85	19
86	37
87	61
88	215
89	14
90	6
96	1
97	12
98	63
99	999
100	106
101	33
102	103
103	9
104	93
105	7
106	6
111	1
112	154
113	11
114	30
115	3
116	36
117	968
118	51
119	8
120	3
125	29
126	7
127	2
128	3
129	2
130	194
131	58
132	25
133	6
134	9
135	2
142	1
143	7
144	67
145	6
146	10
147	3
148	37
149	12
150	4
151	1
152	1
158	2
173	50
174	5
175	2
176	3
191	312
192	30
193	18
194	2
