Mass Spectrum: Borane, diethylmethyl-
Formula: C5H13B
CAS: 1115-07-7
Molecular weight: 84
m/z	intensity
2	4
10	3
11	10
12	4
13	15
14	2
15	19
25	10
26	164
27	536
28	22
29	22
36	11
37	40
38	21
39	64
40	53
41	126
42	5
43	5
48	4
49	15
50	30
51	31
52	21
53	65
54	260
55	999
56	37
57	11
60	1
61	2
63	2
65	1
67	3
68	9
69	33
70	2
71	3
83	8
84	31
85	3
