Mass Spectrum: 4,5,6,7-Tetrachloro-2a,8a-dihydro-2a-phenyl-2H-thiacyclobuta(b)(1,4)benzodioxin 1,1-dioxide
Formula: C15H8Cl4O4S
CAS: 111574-03-9
Molecular weight: 424
m/z	intensity
76	61
77	413
78	50
89	131
91	56
102	123
103	462
104	177
105	482
115	999
116	208
118	38
130	24
131	91
132	109
135	60
163	70
165	36
167	27
180	182
181	34
257	20
259	25
261	9
333	9
424	7
426	12
428	3
