Mass Spectrum: 2,3-Dihydro-4-(4-methoxyphenyl)-2-methyl-1H-1,5-benzodiazepine
Formula: C17H18N2O
CAS: 111536-75-5
Molecular weight: 266
m/z	intensity
65	92
77	123
91	89
92	64
119	999
133	880
159	63
181	71
194	54
209	80
221	233
224	118
236	188
251	642
266	814
267	158
