Mass Spectrum: Acetic acid, cyano-, 1,1-dimethylethyl ester
Formula: C7H11NO2
CAS: 1116-98-9
Molecular weight: 141
m/z	intensity
12	5
13	3
14	11
15	26
16	6
24	1
25	3
26	15
27	76
28	54
29	151
30	3
31	39
32	2
36	1
37	7
38	32
39	180
40	150
41	586
42	27
43	75
44	203
45	13
46	1
48	1
49	5
50	15
51	14
52	4
53	19
54	8
55	76
56	247
57	443
58	40
59	999
60	36
61	3
67	13
68	118
69	6
71	1
72	1
73	6
84	1
85	1
86	5
87	1
100	2
104	4
115	1
126	26
127	2
