Mass Spectrum: 4(1H)-Azulenone, octahydro-1-methylene-, trans-
Formula: C11H16O
CAS: 111615-51-1
Molecular weight: 164
m/z	intensity
24	0
25	3
26	43
27	387
28	137
29	162
30	3
31	7
38	25
39	399
40	71
41	313
42	58
43	26
45	4
46	1
50	41
51	74
52	64
53	152
54	43
55	168
56	17
57	10
58	1
59	0
60	0
61	2
62	10
63	39
64	8
65	109
66	43
67	254
68	49
69	18
70	5
71	6
72	0
73	1
74	7
75	4
76	5
77	358
78	101
79	999
80	258
81	157
82	15
83	13
85	3
89	6
90	2
91	386
92	88
93	412
94	258
95	245
96	29
97	16
98	67
99	5
100	0
101	0
102	3
103	18
104	85
105	126
106	68
107	619
108	155
109	68
110	28
111	14
112	2
113	0
114	0
115	13
116	5
117	105
118	68
119	16
120	150
121	510
122	148
123	41
124	6
125	1
126	0
127	1
128	3
129	6
130	3
131	104
132	18
133	64
134	12
135	362
136	264
137	29
138	3
139	0
141	0
142	0
143	1
144	1
145	23
146	128
147	29
148	3
149	199
150	26
151	4
152	1
153	1
155	0
157	0
158	0
159	0
160	0
161	0
162	6
163	42
164	878
165	82
166	9
