Mass Spectrum: Bis(2-cyanoethyl)nitrosamine
Formula: C6H8N4O
CAS: 1116-82-1
Molecular weight: 152
m/z	intensity
30	254
33	1
37	9
38	49
39	86
40	295
41	252
42	588
43	31
44	1
51	72
52	208
53	62
54	999
55	67
56	17
58	1
59	3
66	14
67	21
68	1
70	29
80	4
81	190
82	49
83	4
112	60
113	5
152	23
153	2
