Mass Spectrum: 4-Dimethylaminobutyraldehyde diethylacetal
Formula: C10H23NO2
CAS: 1116-77-4
Molecular weight: 189
m/z	intensity
41	84
42	158
43	228
44	190
45	99
46	31
47	260
49	20
50	108
51	3
52	37
53	9
54	4
55	25
56	32
57	105
58	999
59	47
60	9
61	6
67	3
68	6
69	18
70	33
71	226
72	33
73	12
74	2
75	115
76	1
77	1
80	0
81	3
82	12
83	9
84	96
85	71
87	57
89	4
92	20
94	9
96	15
97	6
98	61
99	118
100	18
101	15
103	144
105	16
107	16
109	5
110	1
112	9
113	4
114	19
115	26
116	9
117	0
123	1
125	0
126	1
127	3
128	6
129	2
130	5
131	14
134	1
135	22
136	1
137	7
139	1
140	2
141	1
142	43
144	142
145	10
146	15
153	0
156	3
157	3
158	17
160	135
161	10
188	1
189	22
190	3
191	0
