Mass Spectrum: N-Lauroyl-l-aspartic acid
Formula: C16H29NO5
CAS: 1116-13-8
Molecular weight: 315
m/z	intensity
14	1
15	9
16	2
17	3
18	9
26	8
27	120
28	67
29	237
30	49
31	7
36	2
38	2
39	75
40	17
41	497
42	135
43	999
44	215
45	42
46	11
47	1
50	1
51	5
52	3
53	34
54	41
55	513
56	129
57	564
58	30
59	102
60	424
61	78
62	3
63	2
65	5
66	5
67	65
68	47
69	246
70	208
71	298
72	65
73	471
74	61
75	5
76	1
77	9
78	2
79	17
80	9
81	61
82	39
83	163
84	145
85	297
86	30
87	156
88	727
89	39
90	25
91	5
92	2
93	13
94	7
95	68
96	38
97	130
98	166
99	70
100	21
101	116
102	66
103	8
104	1
105	9
106	2
107	11
108	5
109	36
110	22
111	79
112	60
113	29
114	24
115	132
116	61
117	6
118	2
119	2
120	1
121	12
122	3
123	11
124	9
125	16
126	46
127	9
128	13
129	270
130	50
131	89
132	19
133	14
134	184
135	15
136	5
137	3
138	33
139	22
140	53
141	23
142	66
143	52
144	40
145	6
146	1
147	9
148	2
149	4
150	2
151	2
152	5
153	9
154	13
155	6
156	14
157	903
158	88
159	12
160	2
161	1
162	1
163	7
164	8
165	6
166	3
167	3
168	9
169	4
170	299
171	72
172	10
173	4
174	1
175	623
176	49
177	9
178	1
179	1
180	6
181	7
182	25
183	98
184	39
185	7
186	6
187	2
188	84
189	12
190	3
191	3
194	3
195	1
196	6
197	10
198	16
199	9
200	192
201	28
202	9
203	4
204	1
205	1
206	1
207	1
208	4
209	3
210	7
211	2
212	38
213	9
214	2
216	4
217	4
222	1
223	2
224	24
225	72
226	63
227	9
228	5
229	1
230	9
231	5
240	9
241	2
242	2
244	7
245	1
246	1
251	3
252	8
253	8
254	42
255	7
256	1
258	2
268	18
269	30
270	19
271	30
272	9
273	2
282	1
286	3
296	3
297	56
298	15
299	2
314	2
315	18
316	5
