Mass Spectrum: Bis(4-[mercapto(2-pyridyl)methyleneamino]phenyl) sulfone
Formula: C24H18N4O2S3
CAS: 111666-81-0
Molecular weight: 490
m/z	intensity
33	236
34	45
36	39
37	9
38	133
40	682
41	231
43	250
44	457
45	77
48	19
50	108
51	292
52	317
53	82
55	195
56	62
57	145
58	24
60	31
63	50
64	85
65	125
67	119
68	27
69	138
70	83
71	99
73	32
74	36
75	79
76	149
78	999
79	462
80	62
81	67
82	31
83	87
84	29
85	41
87	13
91	24
92	30
93	30
95	46
96	38
97	36
98	12
101	10
102	8
103	15
105	124
107	47
108	49
109	93
110	9
111	77
112	53
113	13
122	299
123	122
124	26
125	16
127	21
134	25
135	8
138	4
139	13
140	10
151	18
152	24
153	16
154	12
155	6
157	6
166	10
167	8
168	18
171	25
180	142
181	18
199	6
211	34
212	180
213	182
214	21
215	6
228	46
229	6
320	11
353	19
354	5
368	79
369	27
378	21
379	4
455	34
456	9
457	69
458	13
489	20
490	52
491	8
