Mass Spectrum: N-(2-Methylphenyl)-4-methylbenzene-sulphenamide
Formula: C14H15NS
CAS: 111685-80-4
Molecular weight: 229
m/z	intensity
91	118
106	999
107	198
123	90
124	108
196	39
228	9
229	517
