Mass Spectrum: 4-Pyridinepropanoic acid, .alpha.-amino-.beta.-hydroxy-, [R-(R*,S*)]-
Formula: C8H10N2O3
CAS: 111610-35-6
Molecular weight: 182
m/z	intensity
26	51
27	139
28	319
29	244
30	466
31	21
36	17
37	24
38	41
39	121
40	21
41	86
42	43
43	88
44	389
45	39
46	39
49	29
50	173
51	419
52	270
53	186
54	32
55	62
56	26
57	399
58	22
59	50
60	20
61	11
62	15
63	43
64	26
65	121
66	25
67	30
68	13
69	43
70	21
71	40
72	19
73	16
74	101
75	522
76	42
77	28
78	374
79	141
80	324
81	41
82	13
83	34
84	14
85	21
90	12
91	30
92	137
93	88
94	17
95	16
96	9
97	22
98	12
103	10
104	18
105	21
107	257
108	999
109	721
110	62
111	16
113	9
117	12
118	31
119	120
120	86
121	70
122	10
131	11
133	14
135	18
137	95
138	10
155	16
164	16
167	9
183	16
