Mass Spectrum: .gamma.-L-glutamyl-L-glutamic acid
Formula: C10H16N2O7
CAS: 1116-22-9
Molecular weight: 276
m/z	intensity
14	2
15	6
16	1
17	10
18	47
25	1
26	15
27	42
28	236
29	33
30	16
31	2
37	3
38	5
39	32
40	9
41	232
42	25
43	9
44	18
45	32
46	4
51	2
52	7
53	6
54	25
55	42
56	144
57	12
60	1
66	10
67	4
68	8
69	6
70	2
71	1
72	1
73	16
74	8
80	2
81	2
82	6
83	24
84	999
85	60
86	4
87	1
93	1
94	3
95	3
96	3
97	2
98	5
99	1
100	1
101	9
102	13
107	3
108	1
109	3
111	4
113	1
121	6
122	1
123	3
124	1
129	53
130	5
135	3
136	2
137	1
141	3
149	8
150	1
151	1
153	1
166	1
167	5
168	2
180	2
181	9
182	1
194	3
195	15
196	8
197	1
222	9
223	1
240	7
