Mass Spectrum: Androsta-1,4-dien-17-one, 3-methylene-
Formula: C20H26O
CAS: 111660-89-0
Molecular weight: 282
m/z	intensity
26	0
27	40
28	5
29	51
30	4
31	19
35	0
39	48
41	131
42	7
43	20
44	3
45	9
46	3
47	0
49	0
50	2
51	13
52	6
53	44
54	5
55	71
56	4
57	10
58	1
59	11
60	2
61	1
62	0
63	8
64	4
65	36
66	9
67	72
68	11
69	13
70	3
71	15
72	3
73	3
74	6
75	3
76	5
77	88
78	37
79	101
80	12
81	59
82	5
83	11
84	8
85	3
86	2
88	0
89	17
90	9
91	210
92	42
93	111
94	33
95	40
96	8
97	89
98	16
99	29
101	2
102	10
103	88
104	28
105	219
106	64
107	111
108	50
109	90
110	26
111	8
112	3
113	4
114	0
115	105
116	41
117	247
118	999
119	658
120	785
121	147
122	0
123	36
124	9
125	2
126	2
127	19
128	64
129	60
130	27
131	142
132	221
133	207
134	39
135	52
136	7
137	8
138	1
139	5
140	1
141	42
142	34
143	69
144	53
145	148
146	25
147	13
148	13
149	201
150	282
151	47
152	10
153	14
154	10
155	42
156	28
157	82
158	44
159	23
160	7
161	7
162	11
163	92
164	11
165	15
166	4
167	10
168	9
169	38
170	31
171	59
172	18
173	6
174	5
175	4
176	14
177	6
178	6
179	8
180	4
181	9
182	9
183	26
184	20
185	9
186	4
187	2
189	2
190	0
191	2
192	2
193	7
194	4
195	9
196	3
197	26
198	10
199	2
205	0
206	0
207	7
208	4
209	10
210	4
211	19
212	5
213	2
220	0
221	4
222	2
223	25
224	7
225	47
226	25
227	4
235	2
236	2
237	2
238	11
239	12
240	9
241	5
249	25
250	6
251	0
253	2
254	6
255	1
264	6
265	1
267	135
268	27
269	3
281	1
282	386
283	83
284	9
