Mass Spectrum: 5-Oxazolidinone, 3-benzoyl-2-(1,1-dimethylethyl)-4-(1-hydroxyethyl)-4-[2-(methylthio)ethyl]-, [2R-[2.alpha.,4.beta.(R*)]]-
Formula: C19H27NO4S
CAS: 111622-88-9
Molecular weight: 365
m/z	intensity
25	10
27	112
28	44
29	131
30	16
35	32
37	17
38	30
39	154
40	30
41	321
42	57
43	44
44	327
45	42
46	12
47	34
48	7
49	23
50	91
51	186
52	37
53	77
54	76
55	158
56	45
57	92
58	7
59	34
60	7
61	477
62	23
63	29
65	59
66	22
67	257
68	53
69	238
70	60
71	32
73	25
74	40
75	217
76	43
77	530
78	50
79	17
80	48
81	31
82	58
83	19
84	46
85	21
86	77
87	25
88	7
91	5
93	16
94	109
95	401
96	186
97	33
98	7
99	35
100	71
101	22
102	25
104	14
105	999
106	83
107	11
108	33
109	15
110	76
111	9
112	9
113	10
114	49
115	169
116	21
117	17
121	9
122	416
123	37
124	14
125	7
126	6
128	9
129	13
130	12
136	21
137	4
138	39
139	5
140	4
141	5
142	953
143	89
144	49
145	4
149	12
150	6
152	63
153	9
156	17
158	16
160	4
168	7
169	5
171	38
172	9
174	6
184	42
185	5
186	7
190	10
199	109
200	19
201	7
204	4
208	2
216	53
217	7
218	3
220	3
236	4
252	2
264	3
280	3
308	4
321	14
322	3
350	0
365	0
366	0
