Mass Spectrum: 1-Pentanol, 2,4-dimethyl-, (.+/-.)-
Formula: C7H16O
CAS: 111768-02-6
Molecular weight: 116
m/z	intensity
27	269
29	244
30	30
31	97
32	58
33	15
36	9
37	37
38	30
39	225
40	37
41	429
42	82
43	999
45	37
47	12
49	9
50	12
51	15
53	43
54	22
55	208
56	113
57	94
58	9
59	17
64	20
65	15
66	9
67	25
69	63
70	25
71	5
72	27
73	45
74	15
75	3
76	15
77	15
78	15
81	8
82	3
83	33
84	143
85	424
86	27
96	8
98	12
