Mass Spectrum: Borane, methyldipropyl-
Formula: C7H17B
CAS: 1117-21-1
Molecular weight: 112
m/z	intensity
2	3
10	1
11	3
12	4
13	12
14	2
15	15
25	6
26	78
27	281
28	11
29	29
36	6
37	27
38	24
39	104
40	308
41	999
42	42
43	22
48	1
49	6
50	19
51	28
52	23
53	72
54	13
55	30
56	3
57	3
61	2
62	1
63	3
64	2
65	3
66	2
67	8
68	149
69	561
70	27
71	4
81	1
83	1
84	1
85	2
96	8
97	32
98	2
111	7
112	27
113	2
