Mass Spectrum: 5,9,13-Pentadecatrien-2-one, 6,10,14-trimethyl-, (E,E)-
Formula: C18H30O
CAS: 1117-52-8
Molecular weight: 262
m/z	intensity
27	44
28	0
29	50
30	1
31	2
36	0
37	1
38	1
39	43
40	15
41	478
42	28
43	999
44	22
45	8
46	0
47	1
48	0
49	0
50	1
51	5
52	4
53	65
54	7
55	109
56	7
57	27
58	16
59	3
60	0
62	0
63	1
64	0
65	17
66	6
67	121
68	99
69	930
70	47
71	29
72	2
73	0
74	0
75	0
76	0
77	28
78	5
79	52
80	30
81	370
82	63
83	45
84	5
85	9
86	0
87	0
89	0
90	0
91	44
92	23
93	164
94	27
95	162
96	17
97	8
98	1
99	2
100	2
101	0
102	1
103	3
104	1
105	25
106	7
107	155
108	44
109	59
110	9
111	17
112	2
113	5
114	0
115	2
116	1
117	3
118	1
119	46
120	16
121	70
122	28
123	52
124	11
125	83
126	9
127	1
128	1
129	1
130	0
131	3
132	1
133	38
134	16
135	112
136	147
137	69
138	48
139	8
140	1
141	1
142	0
143	0
144	0
145	4
146	2
147	17
148	8
149	17
150	5
151	18
152	3
153	2
154	0
155	0
156	0
157	0
158	0
159	5
160	2
161	27
162	14
163	5
164	1
165	1
166	1
167	0
168	0
169	43
170	1
171	0
173	3
174	1
175	32
176	5
177	12
178	30
179	9
180	8
181	1
182	0
185	2
186	0
187	1
188	1
189	6
190	1
191	9
192	4
193	18
194	3
195	0
196	0
197	0
200	0
201	9
202	2
203	1
204	18
205	5
206	4
207	1
208	0
213	1
215	0
216	0
217	1
218	1
219	11
220	3
221	1
222	0
223	0
229	2
230	1
231	1
232	0
233	0
234	0
235	5
236	0
238	0
243	0
244	3
245	1
246	0
247	3
248	0
260	0
261	0
262	43
263	9
264	1
266	0
