Mass Spectrum: Isopropylamine, N-acetyl-
Formula: C5H11NO
CAS: 1118-69-0
Molecular weight: 101
m/z	intensity
14	3
15	27
16	1
18	12
26	5
27	29
28	39
29	7
30	23
31	2
37	2
38	5
39	36
40	14
41	80
42	121
43	332
44	999
45	29
51	1
52	3
53	1
54	3
55	1
56	9
57	30
58	148
59	14
60	50
61	1
68	1
70	2
72	14
73	8
84	1
86	255
87	12
88	1
101	464
102	29
103	2
