Mass Spectrum: L-2-Aminoadipic acid
Formula: C6H11NO4
CAS: 1118-90-7
Molecular weight: 161
m/z	intensity
41	92
42	117
43	87
44	66
45	61
46	15
49	3
50	3
53	17
54	28
55	698
56	150
57	18
60	10
68	17
69	20
70	77
71	3
73	12
74	58
87	12
93	3
98	999
99	64
108	6
115	15
116	143
117	3
142	24
143	72
144	48
161	10
