Mass Spectrum: 2-Allyl-3-hydroxy-2-methylsuccinic acid, 1-ethyl ester
Formula: C10H16O5
CAS: 111832-94-1
Molecular weight: 216
m/z	intensity
25	3
26	38
27	310
28	187
29	754
30	23
31	116
36	5
37	6
38	19
39	307
40	65
41	999
42	80
43	511
44	110
45	128
46	16
47	53
48	2
49	2
50	12
51	27
52	15
53	113
54	27
55	249
56	103
57	206
58	35
59	40
60	10
61	24
62	2
63	7
64	2
65	48
66	32
67	257
68	89
69	606
70	59
71	56
72	14
73	80
74	25
75	21
76	87
77	48
78	13
79	194
80	53
81	169
82	36
83	285
84	57
85	240
86	46
87	34
88	5
89	9
91	8
92	3
93	10
94	7
95	302
96	119
97	755
98	107
99	48
100	21
101	132
102	27
103	82
104	18
105	8
106	13
107	38
108	14
109	25
110	9
111	110
112	24
113	724
114	186
115	39
116	4
117	8
119	2
121	3
122	2
123	14
124	42
125	327
126	41
127	15
128	30
129	95
130	24
131	108
132	9
133	2
134	20
135	8
137	3
138	4
139	10
140	6
141	628
142	314
143	140
144	14
145	4
152	19
153	45
154	11
155	8
156	8
157	33
158	2
159	16
160	3
168	2
169	3
170	14
171	217
172	23
173	2
174	10
175	22
176	2
185	3
198	4
199	4
200	4
216	3
217	7
