Mass Spectrum: Monoethyl carbonotrithioate
Formula: C3H6S3
CAS: 1118-64-5
Molecular weight: 138
m/z	intensity
27	188
29	253
44	194
45	45
46	33
47	144
61	41
62	183
66	20
76	999
94	33
105	25
110	8
