Mass Spectrum: Butanoic acid, 2-hydroxy-3-methyl-4-(phenylmethoxy)-, [S-(R*,R*)]-
Formula: C12H16O4
CAS: 111833-00-2
Molecular weight: 224
m/z	intensity
26	3
27	27
28	28
29	33
30	3
31	20
36	4
37	2
38	5
39	56
40	7
41	64
42	11
43	44
44	22
45	10
47	3
50	10
51	31
52	10
53	7
54	3
55	13
56	6
57	41
58	16
59	31
60	2
62	3
63	19
64	6
65	100
66	6
69	15
70	5
71	20
72	8
73	3
74	2
75	3
76	37
77	44
78	14
79	82
80	7
81	3
82	2
83	3
85	11
86	3
87	38
88	3
89	25
90	24
91	999
92	151
93	9
97	6
99	5
100	7
101	2
103	3
104	2
105	17
106	6
107	514
108	102
109	8
115	10
116	2
117	8
118	7
119	10
120	11
121	2
131	4
133	6
134	2
179	8
180	2
182	9
206	2
224	18
225	3
