Mass Spectrum: N-(1,1-Dimethyl-2-propynyl)-N-tert.-butylamine
Formula: C9H17N
CAS: 1118-17-8
Molecular weight: 139
m/z	intensity
39	101
40	25
41	203
42	163
43	91
44	9
55	43
56	31
57	133
58	843
59	74
60	8
65	41
66	25
67	175
68	644
69	73
70	21
124	999
125	53
126	6
139	33
140	3
