Mass Spectrum: Butanoic acid, 3-methyl-, 1-ethenyl-1,5-dimethyl-4-hexenyl ester
Formula: C15H26O2
CAS: 1118-27-0
Molecular weight: 238
m/z	intensity
26	9
27	118
29	102
30	3
31	4
37	3
38	11
39	138
41	713
42	60
43	137
44	20
45	22
50	7
51	22
52	14
53	88
54	12
55	57
56	17
57	321
58	16
59	16
60	101
61	6
63	8
65	22
66	18
67	108
68	573
69	999
70	48
71	7
73	8
74	10
75	3
77	68
78	11
79	69
80	170
81	88
82	17
83	9
84	19
85	305
86	18
87	16
89	4
91	63
92	85
93	598
94	72
95	26
96	1
97	5
105	26
106	6
107	51
108	18
109	9
119	18
121	158
122	15
123	21
124	3
133	3
134	6
135	4
136	132
137	24
154	11
169	7
