Mass Spectrum: 2-Benzyl-3-hydroxy-2-methylsuccinic acid, diethyl ester
Formula: C16H22O5
CAS: 111833-01-3
Molecular weight: 294
m/z	intensity
26	7
27	66
28	24
29	237
30	9
31	18
38	2
39	40
40	6
41	61
42	7
43	114
44	10
45	20
47	14
50	7
51	28
52	9
53	9
54	2
55	25
56	45
57	63
58	11
59	2
60	1
61	3
62	3
63	18
64	6
65	93
66	6
67	1
68	2
69	17
70	5
71	17
72	6
73	14
74	28
75	24
76	73
77	45
78	89
79	30
80	3
81	2
82	2
83	22
84	34
85	76
86	14
87	6
88	6
89	31
90	16
91	999
92	122
93	7
94	1
95	2
96	1
97	2
98	2
99	73
100	5
101	19
102	42
103	44
104	60
105	30
106	5
107	22
108	8
109	0
110	3
111	2
112	2
113	11
114	2
115	53
116	23
117	86
118	38
119	47
120	5
121	2
122	1
123	1
124	1
125	2
126	2
127	7
128	14
129	160
130	36
131	84
132	8
133	12
134	1
135	26
136	3
139	2
140	1
141	10
142	3
143	2
144	4
145	378
146	54
147	187
148	23
149	6
150	1
151	2
152	6
153	3
154	0
155	1
156	1
157	84
158	17
159	24
160	3
161	4
162	1
163	21
164	3
165	18
166	4
167	1
168	0
169	1
170	0
171	1
172	1
173	6
174	10
175	70
176	11
177	12
178	21
179	33
180	37
181	26
182	6
183	1
184	1
185	0
186	1
187	2
188	0
189	3
190	1
191	381
192	58
193	6
202	8
203	90
204	13
205	2
206	0
214	0
216	0
217	0
218	0
219	0
220	9
221	22
222	3
223	0
230	3
231	1
232	1
249	10
250	1
276	6
277	1
278	0
294	1
295	0
