Mass Spectrum: Octanamide, N,N-dimethyl-
Formula: C10H21NO
CAS: 1118-92-9
Molecular weight: 171
m/z	intensity
15	104
16	3
18	11
27	188
28	102
29	211
30	37
31	6
32	1
39	107
40	26
41	275
42	203
43	211
44	342
45	742
46	131
47	2
51	5
52	4
53	22
54	2
55	161
56	53
57	203
58	60
59	8
65	3
67	14
68	8
69	17
70	13
71	3
72	549
73	29
74	4
77	2
79	2
81	4
82	3
83	12
84	8
87	999
88	44
89	3
97	3
98	12
100	216
101	41
102	2
109	3
112	2
114	48
115	7
126	1
127	6
128	19
129	5
142	23
143	2
156	4
170	3
171	17
172	3
