Mass Spectrum: Butanenitrile, 4-[(dimethylamino)dimethylsilyl]-
Formula: C8H18N2Si
CAS: 111873-32-6
Molecular weight: 170
m/z	intensity
27	8
28	1
29	13
30	4
31	22
39	4
40	3
41	9
42	54
43	61
44	46
45	37
46	2
47	1
49	1
53	2
54	2
55	6
56	10
57	10
58	19
59	278
60	18
61	9
63	3
66	1
67	1
68	6
69	4
70	21
71	10
72	27
73	10
74	3
75	3
77	2
82	1
83	3
84	63
85	11
86	35
87	5
88	12
89	2
97	2
98	97
99	12
100	8
101	58
102	999
103	101
104	35
105	3
110	1
112	4
113	7
114	3
117	6
125	2
126	42
127	287
128	38
129	15
130	3
131	1
133	1
141	4
142	57
143	8
144	2
153	1
155	29
156	4
157	1
169	2
170	109
171	16
172	5
