Mass Spectrum: 2,2,6,6-Tetramethyl-3(2-thiahexyl)piperid-4-one
Formula: C14H27NOS
CAS: 111861-00-8
Molecular weight: 257
m/z	intensity
41	117
42	107
43	32
55	379
56	88
57	81
58	999
59	82
61	220
67	47
68	32
69	107
70	71
83	246
84	117
96	38
99	55
111	46
137	33
152	88
168	434
169	55
242	18
257	11
