Mass Spectrum: N,N-Dimethylglycine
Formula: C4H9NO2
CAS: 1118-68-9
Molecular weight: 103
m/z	intensity
13	1
14	6
15	37
16	1
17	7
18	1
26	3
27	12
28	31
29	23
30	81
31	10
32	1
38	2
39	5
40	20
41	35
42	219
43	49
44	175
45	16
46	1
51	1
52	2
54	3
55	2
56	20
57	45
58	999
59	43
60	4
69	1
73	1
74	15
75	1
84	1
86	3
101	2
102	4
103	105
104	6
105	1
