Mass Spectrum: 3,6,9,12,15,18,21-Heptaoxabicyclo[21.3.1]heptacosa-1(27),23,25-triene, 27-bromo-
Formula: C20H31BrO7
CAS: 111982-23-1
Molecular weight: 462
m/z	intensity
26	2
27	15
28	26
29	25
30	8
31	44
33	0
36	0
38	0
39	3
40	41
41	13
42	11
43	73
44	30
45	999
46	19
47	1
50	1
51	6
52	1
53	1
54	0
55	1
56	1
57	10
58	15
59	46
60	2
61	1
62	0
63	3
64	1
65	6
69	2
70	1
71	12
72	6
73	49
74	3
75	5
76	2
77	29
78	10
79	5
80	0
81	0
83	0
85	0
86	4
87	68
88	8
89	558
90	31
91	31
92	11
93	0
95	0
97	0
98	0
99	1
100	0
101	5
102	8
103	112
104	52
105	26
106	3
107	1
109	0
113	18
114	17
115	11
116	3
117	50
118	17
119	34
120	3
121	1
122	0
127	0
128	0
129	7
130	2
131	22
132	6
133	224
134	16
135	8
136	5
138	0
139	0
140	0
141	0
142	0
143	1
144	0
145	10
146	4
147	7
148	1
149	0
150	0
151	0
157	1
158	1
159	2
160	0
161	2
162	0
163	3
164	0
168	1
169	2
170	1
171	2
172	0
175	13
176	1
177	121
178	11
179	3
180	0
181	0
182	95
183	53
184	94
185	50
186	4
188	0
189	1
190	0
191	0
195	2
196	2
197	16
198	8
199	16
200	4
201	3
202	0
205	0
206	1
207	1
208	1
209	1
210	0
211	2
212	1
213	2
214	0
215	1
216	0
219	8
220	1
221	10
222	1
223	0
224	1
225	2
226	1
227	2
228	0
229	0
233	0
235	0
239	0
241	1
242	2
243	3
244	3
245	2
246	0
251	2
255	0
257	0
259	0
263	0
265	33
266	4
267	0
269	0
271	0
277	0
279	0
285	0
286	2
287	1
288	2
289	1
295	1
296	0
297	0
329	0
330	0
331	0
332	0
333	0
375	0
376	0
377	0
378	0
383	15
384	2
385	0
420	0
462	18
463	4
464	19
465	4
466	0
467	0
