Mass Spectrum: L-Glutamic acid 5-ethyl ester
Formula: C7H13NO4
CAS: 1119-33-1
Molecular weight: 175
m/z	intensity
26	7
27	56
28	161
29	144
30	60
31	37
36	2
37	0
38	1
39	17
40	3
41	209
42	60
43	96
44	48
45	60
46	29
47	3
51	1
52	1
53	3
54	24
55	72
56	336
57	118
58	9
59	6
60	54
61	19
62	1
63	0
64	0
65	2
66	5
67	13
68	13
69	38
70	24
71	40
72	9
73	57
74	160
75	27
76	3
77	2
78	0
79	5
80	4
81	18
82	22
83	43
84	999
85	90
86	8
87	65
88	27
89	3
90	0
91	5
92	2
93	5
94	6
95	18
96	13
97	33
98	12
99	11
100	85
101	50
102	54
103	5
104	1
105	3
106	1
107	4
108	3
109	12
110	10
111	19
112	18
113	16
114	4
115	22
116	3
117	1
118	1
119	3
120	2
121	5
122	5
123	9
124	5
125	12
126	4
127	11
128	14
129	77
130	738
131	60
132	7
133	3
134	1
135	4
136	2
137	6
138	6
139	7
140	6
141	4
142	1
143	3
144	1
145	2
146	1
147	2
148	1
154	3
155	7
156	2
157	65
158	8
159	2
160	1
174	1
175	15
176	2
177	0
