Mass Spectrum: 2,4-Hexadienedioic acid, (Z,Z)-
Formula: C6H6O4
CAS: 1119-72-8
Molecular weight: 142
m/z	intensity
32	20
36	20
37	20
38	30
39	110
40	40
41	190
42	50
43	70
44	120
45	120
49	30
50	100
51	180
52	80
53	40
54	50
55	170
56	20
68	90
69	100
70	20
71	20
79	160
80	20
82	40
83	90
95	30
96	210
97	999
98	90
99	20
124	80
125	20
142	60
