Mass Spectrum: Zinc, dibutyl-
Formula: C8H18Zn
CAS: 1119-90-0
Molecular weight: 178
m/z	intensity
27	109
28	97
29	338
30	7
31	0
32	6
37	0
38	3
39	73
40	12
41	442
42	39
43	184
44	5
45	0
50	1
51	4
52	2
53	13
54	5
55	72
56	69
57	999
58	66
59	1
64	22
65	6
66	14
67	5
68	11
69	2
70	0
78	3
79	3
80	1
81	2
82	1
83	1
84	0
85	1
91	3
92	8
93	28
94	7
95	16
96	8
97	9
99	0
101	0
103	0
105	0
106	0
107	2
109	1
110	0
111	0
119	4
120	3
121	240
122	20
123	136
124	32
125	83
126	7
127	4
128	0
129	1
131	0
133	0
136	0
138	0
145	0
147	0
149	54
150	19
151	32
152	14
153	24
154	7
155	1
156	0
163	0
167	0
171	1
173	2
175	1
177	0
178	73
179	7
180	41
181	8
182	28
183	2
184	1
185	0
