Mass Spectrum: 1-Benzyl-4-(2-oxo-3-methoxycarbonyl-5-acetoxy-pentyl)-piperidine
Formula: C21H29NO5
CAS: 111964-62-6
Molecular weight: 375
m/z	intensity
43	141
55	61
65	90
82	180
91	999
92	70
120	40
146	40
159	49
172	418
188	110
216	40
256	69
375	40
