Mass Spectrum: 2,6,10,14-Hexadecatetraen-1-al, 3,7,11,15-tetramethyl-13-oxo-, (2E,6E,10E)-
Formula: C20H30O2
CAS: 111950-82-4
Molecular weight: 302
m/z	intensity
41	200
43	80
53	140
55	720
68	130
83	999
84	410
95	110
108	120
121	110
123	260
135	90
138	150
149	90
151	220
159	30
186	70
187	50
202	40
204	60
219	200
284	10
302	80
303	17
