Mass Spectrum: 3,6,9,12,15,18-Hexaoxabicyclo[18.3.1]tetracosa-1(24),20,22-triene, 24-bromo-
Formula: C18H27BrO6
CAS: 111982-22-0
Molecular weight: 418
m/z	intensity
26	2
27	20
29	25
30	7
31	51
33	0
38	0
39	7
41	14
42	9
43	76
44	27
45	999
46	22
47	2
50	2
51	15
52	2
53	2
54	0
55	0
56	0
57	8
58	11
59	34
60	1
61	2
62	1
63	8
64	1
65	9
66	0
67	0
68	0
69	1
70	1
71	9
72	7
73	38
74	2
75	6
76	5
77	54
78	18
79	7
80	0
81	0
82	0
83	0
86	4
87	47
88	6
89	547
90	32
91	36
92	15
93	0
94	0
95	0
96	0
97	0
98	0
99	1
100	0
101	4
102	15
103	175
104	63
105	33
106	2
107	0
109	0
113	15
114	15
115	11
116	4
117	55
118	18
119	42
120	4
121	1
126	0
127	0
128	1
129	7
130	2
131	25
132	5
133	406
134	27
135	7
136	4
137	0
138	1
139	0
140	0
141	0
142	0
143	1
144	0
145	12
146	4
147	6
148	0
149	1
150	0
151	0
153	0
155	0
156	0
157	0
158	0
159	2
160	0
161	1
162	0
163	3
164	0
168	3
169	3
170	3
171	3
172	0
174	0
175	14
176	1
177	53
178	5
179	0
181	0
182	127
183	55
184	125
185	57
186	4
187	0
189	2
190	0
191	0
195	2
196	3
197	17
198	9
199	17
200	6
201	3
202	0
203	0
206	0
207	1
208	1
209	0
210	0
211	2
212	1
213	2
214	0
215	1
216	0
219	2
220	0
221	84
222	7
223	1
224	0
225	1
226	1
227	1
229	0
233	0
235	0
240	0
241	1
242	2
243	3
244	3
245	2
246	0
251	2
252	0
253	2
254	0
255	0
257	0
259	0
268	0
269	0
270	0
271	0
277	0
285	0
286	1
287	0
288	1
289	0
295	1
314	0
316	0
330	0
331	1
332	0
333	1
334	0
339	24
340	4
341	0
353	0
374	0
376	0
377	0
418	19
419	4
420	19
421	3
422	0
