Mass Spectrum: 3-Hexenedinitrile
Formula: C6H6N2
CAS: 1119-85-3
Molecular weight: 106
m/z	intensity
26	41
27	59
37	56
38	80
39	250
40	77
41	48
50	78
51	160
52	215
53	121
54	69
63	31
64	81
66	999
67	55
75	39
76	46
77	65
78	58
79	194
105	34
106	174
