Mass Spectrum: 2-Propenamide, 2-(4-bromophenyl)-3-(2-thienyl)-, (E)-
Formula: C13H10BrNOS
CAS: 111946-50-0
Molecular weight: 307
m/z	intensity
39	80
44	110
45	90
50	70
51	60
62	50
63	90
69	70
74	70
75	110
76	50
77	40
79	50
82	40
84	40
85	120
86	40
87	60
89	60
91	60
92	110
98	40
99	60
100	40
101	70
105	40
108	60
112	999
113	280
114	330
115	60
125	70
126	90
128	90
137	30
138	70
139	470
140	110
141	40
150	60
151	70
152	260
153	30
158	40
167	40
171	30
180	30
182	120
183	190
184	960
185	260
186	120
195	70
196	280
198	240
199	60
227	50
262	150
263	190
264	170
265	190
291	30
306	120
307	930
308	310
309	970
310	240
311	70
