Mass Spectrum: 1,1'-Suberoylbis(1H-benzotriazole)
Formula: C20H20N6O2
CAS: 111967-69-2
Molecular weight: 376
m/z	intensity
36	9
37	69
38	132
39	101
41	993
42	20
43	332
44	56
45	20
46	1
48	3
50	63
51	68
52	87
53	75
55	999
56	110
57	108
59	10
60	11
61	25
62	48
63	291
64	293
65	146
67	156
69	254
70	49
71	48
72	8
73	14
74	13
75	16
77	159
78	46
80	39
81	72
83	152
84	27
85	15
86	9
88	18
90	852
91	327
93	394
94	48
95	23
96	9
97	24
98	10
99	6
101	6
102	14
104	81
105	29
106	17
107	12
108	20
109	27
111	30
112	27
113	16
114	9
115	10
116	30
118	616
119	246
120	400
121	36
122	5
123	4
124	2
125	9
127	10
128	16
129	20
130	63
133	506
134	61
135	28
136	24
137	19
138	11
139	28
140	4
141	4
143	12
144	40
146	625
147	67
148	17
149	20
150	3
151	2
152	9
153	5
154	9
155	5
156	9
157	16
158	27
159	46
160	77
161	79
162	9
163	1
165	4
166	5
167	10
168	6
170	19
171	49
172	110
173	124
174	41
175	15
176	4
177	1
179	3
180	4
181	30
182	39
184	24
185	18
186	47
187	18
188	43
189	10
190	2
192	1
193	1
194	1
195	3
196	2
197	2
198	4
199	14
200	58
201	78
202	49
204	1
206	2
207	4
208	7
210	69
211	14
212	5
213	3
214	1
215	3
216	8
217	2
219	2
220	2
221	5
222	3
223	5
224	4
227	6
228	19
229	25
230	18
231	3
234	1
235	3
236	5
237	18
238	3
241	2
247	1
249	2
250	2
251	3
252	8
253	1
255	1
256	5
257	19
258	21
259	2
261	1
263	4
264	4
265	1
266	2
276	1
277	3
278	2
283	8
284	1
291	4
292	20
293	4
301	3
319	8
320	14
321	2
348	1
376	3
