Mass Spectrum: 13-Docosenamide, (Z)-
Formula: C22H43NO
CAS: 112-84-5
Molecular weight: 337
m/z	intensity
27	37
28	3
29	105
30	7
39	37
41	368
42	75
43	330
44	165
53	39
54	109
55	522
56	106
57	193
58	39
59	999
60	168
61	7
65	16
67	185
68	77
69	274
70	66
71	7
72	775
73	91
77	15
78	6
79	43
80	26
81	152
82	93
83	185
84	71
85	39
86	116
87	17
91	13
92	5
93	20
94	27
95	136
96	99
97	169
98	155
99	43
100	75
101	34
105	10
107	21
108	24
109	78
110	71
111	91
112	223
113	56
114	97
115	56
119	12
120	7
121	28
122	48
123	65
124	50
125	46
126	314
127	52
128	106
129	14
133	14
134	20
135	33
136	33
137	47
138	41
139	28
140	67
141	22
142	32
147	13
148	20
149	23
150	15
151	35
152	50
153	18
154	67
155	17
156	26
157	7
161	12
163	12
164	14
165	26
166	29
167	10
168	33
169	7
170	27
175	8
178	8
179	13
180	15
181	8
182	28
183	6
184	38
192	10
193	12
194	15
195	8
196	19
198	20
206	9
207	17
208	16
210	16
212	21
220	11
221	27
222	23
223	9
224	19
226	19
234	11
235	27
236	37
237	10
238	24
239	9
240	62
241	10
248	9
249	34
250	17
251	7
252	18
253	7
254	35
255	12
262	13
263	43
264	17
266	16
268	11
276	22
277	46
278	40
279	7
280	17
282	16
290	9
291	33
292	11
293	7
294	79
295	18
296	10
308	22
319	26
320	123
321	31
322	9
337	182
338	43
339	7
