Mass Spectrum: Oleylamine
Formula: C18H37N
CAS: 112-90-3
Molecular weight: 267
m/z	intensity
27	37
28	24
29	72
30	999
31	19
39	28
41	206
42	36
43	131
44	102
45	74
53	20
54	56
55	203
56	135
57	51
59	31
65	10
66	6
67	149
68	49
69	133
70	44
71	15
72	45
73	18
77	10
79	29
80	10
81	90
82	72
83	59
84	20
86	54
87	10
95	75
96	60
97	41
98	16
100	48
109	31
110	23
111	14
112	25
114	102
115	3
123	22
124	14
126	15
128	14
140	40
142	15
154	216
155	22
168	65
169	12
182	49
196	12
210	9
224	14
267	26
