Mass Spectrum: Oleoyl chloride
Formula: C18H33ClO
CAS: 112-77-6
Molecular weight: 300
m/z	intensity
15	2
26	5
27	119
28	36
29	276
30	6
35	6
36	57
37	2
38	18
39	117
40	23
41	784
42	158
43	656
44	22
45	3
46	2
49	2
50	1
51	8
52	6
53	88
54	285
55	999
56	322
57	451
58	29
59	7
60	1
61	1
62	1
63	17
64	1
65	30
66	36
67	535
68	268
69	673
70	259
71	178
72	20
73	4
74	1
75	6
76	2
77	40
78	24
79	163
80	141
81	459
82	352
83	499
84	424
85	114
86	18
87	11
88	2
89	6
90	2
91	60
92	20
93	105
94	106
95	350
96	341
97	381
98	949
99	93
100	20
101	4
102	13
103	4
104	10
105	29
106	16
107	78
108	99
109	195
110	231
111	234
112	293
113	41
114	11
115	3
116	13
117	8
118	8
119	32
120	21
121	121
122	71
123	138
124	143
125	101
126	112
127	23
128	9
129	3
130	2
131	8
132	7
133	45
134	35
135	98
136	51
137	133
138	109
139	53
140	53
141	17
142	7
143	2
144	1
145	4
146	4
147	35
148	37
149	56
150	39
151	146
152	112
153	43
154	59
155	21
156	5
157	3
158	1
159	3
160	2
161	22
162	21
163	29
164	29
165	100
166	85
167	37
168	51
169	18
170	3
171	1
172	1
173	4
174	1
175	17
176	9
177	20
178	17
179	54
180	44
181	26
182	39
183	14
184	2
185	1
186	1
187	2
188	1
189	10
190	5
191	11
192	22
193	50
194	43
195	25
196	30
197	6
198	1
199	1
200	3
201	1
202	1
203	5
204	2
205	9
206	9
207	54
208	41
209	28
210	22
211	32
212	5
213	1
214	5
215	1
216	2
217	3
218	4
219	6
220	22
221	57
222	27
223	12
224	11
225	7
226	1
227	1
228	3
229	1
230	1
231	1
233	4
234	9
235	39
236	109
237	56
238	46
239	42
240	8
241	2
242	2
244	1
245	2
246	10
247	9
248	3
249	8
250	12
251	6
252	8
253	3
254	1
256	2
257	1
258	1
260	1
261	1
262	20
263	34
264	456
265	216
266	40
267	8
268	1
270	1
272	3
274	1
291	1
292	8
293	3
294	1
296	1
298	39
299	9
300	26
301	6
302	5
303	1
