Mass Spectrum: 10-Undecenal
Formula: C11H20O
CAS: 112-45-8
Molecular weight: 168
m/z	intensity
26	9
27	289
28	44
29	442
30	8
31	23
34	0
37	1
38	7
39	281
40	34
41	999
42	149
43	273
44	108
45	38
46	1
47	3
48	0
49	2
50	3
51	12
52	6
53	85
54	329
55	971
56	154
57	231
58	41
59	21
60	1
63	4
64	0
65	14
66	31
67	536
68	320
69	254
70	146
71	69
72	24
73	3
77	14
78	10
79	162
80	132
81	270
82	318
83	185
84	133
85	29
86	36
87	3
91	9
92	2
93	115
94	74
95	147
96	89
97	121
98	197
99	19
100	12
101	1
105	3
107	62
108	48
109	54
110	9
111	69
112	47
113	5
114	0
117	0
120	1
121	126
122	29
123	4
124	54
125	23
126	9
127	1
135	24
136	3
149	1
150	23
151	3
153	1
168	1
