Mass Spectrum: N-Vinylthio-naphthalene-1-amine
Formula: C12H11NS
CAS: 112011-01-5
Molecular weight: 201
m/z	intensity
58	199
59	237
63	100
89	100
115	999
116	99
142	468
143	121
168	79
201	239
