Mass Spectrum: Thiophene, 2,3-dihydro-
Formula: C4H6S
CAS: 1120-59-8
Molecular weight: 86
m/z	intensity
25	0
26	72
27	187
28	10
29	0
32	28
33	10
34	7
35	0
36	4
37	32
38	43
39	181
40	14
41	69
42	7
43	12
44	6
45	392
46	50
47	33
48	5
49	19
50	65
51	64
52	21
53	109
54	11
55	0
56	4
57	48
58	103
59	72
60	26
61	2
62	1
68	3
69	17
70	2
71	64
72	2
73	2
80	1
81	7
82	6
83	5
84	33
85	999
86	701
87	68
88	33
89	1
