Mass Spectrum: d-Mannose, didecyl mercaptal
Formula: C26H54O5S2
CAS: 112159-68-9
Molecular weight: 510
m/z	intensity
26	43
27	278
29	432
30	58
31	183
33	9
34	24
35	20
36	2
37	6
38	7
39	168
41	623
42	276
43	999
44	16
45	75
46	32
47	171
48	11
49	13
50	3
51	4
52	7
53	40
54	79
55	958
56	530
57	653
58	26
59	38
60	115
61	415
62	23
63	13
64	4
65	14
66	6
67	104
68	163
69	614
70	491
71	202
72	24
73	66
74	26
75	30
76	57
77	10
78	10
79	17
80	4
81	50
82	109
83	487
84	210
85	179
86	17
87	168
88	25
89	108
90	9
91	13
92	10
93	11
94	3
95	16
96	53
97	240
98	88
99	20
100	8
101	67
102	17
103	41
104	2
106	3
107	1
108	3
109	8
110	22
111	68
112	69
113	12
114	7
115	35
116	10
117	5
118	3
119	0
121	3
124	3
126	5
127	45
128	2
129	30
130	0
131	10
132	3
133	4
135	3
136	2
138	12
139	6
140	112
141	18
142	3
143	15
144	0
145	90
146	6
147	4
148	0
155	0
156	2
157	4
159	4
160	2
161	3
163	126
164	9
165	1
169	3
171	40
172	30
173	70
174	61
175	15
176	9
183	3
185	28
186	4
187	201
188	23
189	11
190	3
193	4
195	3
198	6
199	6
200	4
201	2
203	3
213	9
214	4
215	15
216	43
217	162
218	24
219	49
220	13
221	7
225	3
227	17
228	5
229	24
230	4
231	3
232	3
241	6
242	4
244	5
245	6
246	3
247	3
252	3
253	2
254	2
255	2
257	5
258	2
259	8
261	3
271	3
272	2
275	4
283	4
284	2
287	4
301	13
302	3
305	5
306	3
313	3
314	3
318	3
319	43
320	8
321	4
327	3
331	4
333	2
357	3
358	2
359	616
360	171
361	73
362	22
363	4
385	5
401	22
402	8
403	4
510	18
511	7
512	4
