Mass Spectrum: 3-Cyclobutene-1,2-dione, 3,4-dimethyl-
Formula: C6H6O2
CAS: 1121-15-9
Molecular weight: 110
m/z	intensity
25	22
26	232
27	403
28	456
29	24
30	0
31	3
35	0
36	17
37	98
38	96
39	999
40	39
41	2
42	5
43	3
44	1
47	0
48	11
49	57
50	164
51	157
52	90
53	403
54	999
55	42
56	2
60	2
61	9
62	5
63	3
64	1
65	2
66	10
67	43
68	2
73	0
74	0
77	2
78	1
79	0
80	1
82	140
83	6
91	0
92	0
107	0
108	0
110	255
111	15
112	1
