Mass Spectrum: d-Lyxose, didecyl mercaptal
Formula: C25H52O4S2
CAS: 112159-64-5
Molecular weight: 480
m/z	intensity
26	21
27	191
28	42
29	325
30	24
31	77
33	8
34	10
35	23
38	7
39	133
40	125
41	707
42	181
43	999
44	31
45	62
46	22
47	123
48	16
49	8
51	5
53	50
54	55
55	685
56	322
57	801
58	43
59	43
60	75
61	308
62	19
63	12
65	17
66	22
67	121
68	113
69	461
70	275
71	321
72	21
73	132
74	18
75	37
76	117
77	42
78	15
79	30
80	5
81	50
82	70
83	422
84	115
85	310
86	24
87	156
88	25
89	76
90	10
91	33
92	6
93	13
95	32
96	38
97	184
98	48
99	101
100	24
101	72
102	11
103	29
104	10
105	11
107	7
109	19
110	13
111	54
112	47
113	14
114	9
115	186
116	17
117	21
119	12
121	6
123	5
127	5
129	30
130	9
131	19
132	9
133	199
134	11
135	6
138	7
139	6
140	63
141	12
143	19
145	10
147	11
150	5
157	7
159	5
163	5
169	24
171	37
172	23
173	70
174	47
175	27
185	34
186	5
187	170
188	26
189	12
199	5
203	5
207	5
213	6
215	26
216	46
217	191
218	31
219	75
220	15
221	11
227	15
228	5
229	24
230	8
239	5
240	5
241	9
245	7
257	7
271	6
275	5
289	66
290	10
291	5
307	5
335	5
359	986
360	251
361	121
362	25
363	7
372	5
401	12
403	5
480	14
481	5
