Mass Spectrum: 2-Cyclopenten-1-one, 2,3-dimethyl-
Formula: C7H10O
CAS: 1121-05-7
Molecular weight: 110
m/z	intensity
26	25
27	165
28	13
29	22
30	4
31	3
32	24
36	2
37	13
38	36
39	253
40	29
41	241
42	48
43	20
45	1
49	3
50	46
51	60
52	43
53	155
54	129
55	93
56	12
57	2
61	4
62	9
63	21
64	4
65	60
66	30
67	999
68	164
69	15
70	2
73	7
74	3
77	31
78	10
79	50
80	10
81	112
82	49
83	11
84	4
85	2
91	18
92	5
93	5
94	5
95	204
96	17
97	3
99	3
100	1
108	4
109	109
110	716
111	45
112	4
