Mass Spectrum: d-Xylose, diheptyl mercaptal
Formula: C19H40O4S2
CAS: 112159-69-0
Molecular weight: 396
m/z	intensity
26	6
27	71
29	165
30	6
31	33
33	1
34	3
35	6
36	0
37	0
38	1
39	33
40	29
41	253
42	73
43	357
44	14
45	43
46	9
47	52
48	6
49	3
50	1
51	2
52	1
53	16
54	13
55	350
56	104
57	999
58	43
59	25
60	29
61	197
62	7
63	7
65	2
66	2
67	18
68	19
69	94
70	103
71	27
72	8
73	106
74	13
75	19
76	69
77	44
78	10
79	31
80	1
81	13
82	2
83	17
84	3
85	42
86	7
87	72
88	10
89	43
90	4
91	20
92	3
93	7
94	1
95	11
96	6
97	100
98	36
99	18
100	3
101	29
102	5
103	17
104	4
105	9
106	0
107	1
108	2
109	5
110	1
111	1
112	0
113	5
114	4
115	96
116	11
117	7
118	1
119	3
120	0
121	2
123	1
127	1
129	17
130	11
131	47
132	35
133	161
134	11
135	2
136	1
139	0
141	1
143	27
144	3
145	107
146	10
147	7
149	3
150	1
153	0
155	1
157	2
158	0
159	3
161	4
163	1
164	0
171	3
172	1
173	17
174	44
175	194
176	27
177	99
178	11
179	11
180	1
185	10
186	2
187	24
188	3
189	2
190	1
191	3
192	0
197	1
198	0
199	3
200	1
201	1
202	3
203	11
204	2
205	2
206	1
207	1
208	0
213	0
214	1
215	5
216	2
217	3
218	1
219	2
220	0
227	0
228	1
229	5
230	1
231	3
232	1
233	7
234	1
243	1
245	1
246	2
247	60
248	8
249	3
259	0
264	2
265	5
266	1
267	0
273	0
275	987
276	162
277	101
278	17
279	3
288	3
289	1
290	0
301	1
304	0
305	1
314	1
315	0
317	7
318	2
319	0
343	1
350	3
351	1
396	17
397	4
398	2
