Mass Spectrum: Pyrrolidine-2,5-dione, 1-[4-(4-motpholylsulfonyl)phenyl]-
Formula: C14H16N2O5S
CAS: 112167-36-9
Molecular weight: 324
m/z	intensity
36	2
38	3
39	17
40	20
41	21
42	67
43	14
44	12
45	11
46	2
50	4
51	6
52	3
54	24
55	130
56	591
57	31
58	11
59	6
62	3
63	22
64	14
65	16
66	2
68	2
69	6
70	10
71	9
72	24
73	3
75	4
76	12
77	15
78	9
82	3
83	4
84	17
86	999
87	51
88	3
90	35
91	24
92	9
93	6
94	3
98	2
102	2
103	4
104	36
105	8
106	7
108	4
111	1
112	5
113	2
116	3
117	10
118	18
119	16
120	8
128	2
129	3
131	4
132	105
133	12
135	2
140	10
145	3
146	14
147	2
149	2
152	2
166	2
171	12
172	3
174	170
175	31
176	3
182	5
187	2
188	24
189	182
190	32
191	7
201	4
202	16
216	3
222	8
223	2
229	14
230	4
238	210
239	26
240	13
259	4
260	2
267	3
273	6
275	2
281	92
282	14
283	8
293	24
294	4
309	4
323	8
324	345
325	54
326	24
327	3
