Mass Spectrum: 1,3,5-Triazine, 2,6-di(tert-butylamino)-4-(1-piperidyl)-
Formula: C16H30N6
CAS: 112192-80-0
Molecular weight: 306
m/z	intensity
33	30
34	5
36	1
37	5
39	161
41	999
42	335
43	418
44	59
45	14
49	1
50	7
51	10
52	9
53	49
55	534
56	334
57	321
58	185
60	23
61	0
63	0
64	0
65	8
68	456
69	302
70	102
71	27
72	55
73	5
74	1
75	1
76	2
77	4
78	6
79	11
80	47
81	59
82	93
83	335
84	495
85	88
86	32
87	5
89	2
90	27
92	12
93	42
94	31
95	27
96	31
97	81
98	30
99	7
100	3
101	1
102	2
103	12
105	2
106	5
107	11
108	59
109	77
110	163
111	314
112	95
113	7
114	2
116	6
117	17
118	15
119	3
120	2
121	8
122	20
123	58
124	27
125	80
126	29
127	21
128	6
129	2
130	6
131	1
132	0
133	1
134	9
135	9
136	67
138	558
139	166
140	38
141	3
142	0
146	32
148	9
149	14
150	36
151	103
152	102
153	64
154	5
155	0
157	0
160	0
161	0
162	4
163	8
165	237
166	183
167	84
168	13
169	1
171	6
174	0
176	7
177	12
178	21
179	76
180	12
181	19
182	16
183	2
188	0
189	1
190	2
191	20
192	20
193	199
194	719
195	119
196	21
197	1
203	0
204	0
205	17
206	7
207	45
208	81
209	23
210	1
217	0
218	6
219	8
220	2
221	49
222	47
223	24
224	7
225	0
231	0
232	1
233	27
234	24
235	237
236	35
237	6
238	3
247	2
248	4
249	81
250	499
251	91
252	8
261	0
263	15
264	7
265	3
275	4
276	0
277	33
278	8
279	0
283	0
289	3
291	108
292	20
293	1
304	1
305	20
306	216
307	43
308	4
