Mass Spectrum: 1,4-Bis[3-(dimethylamino)propionyl]benzene
Formula: C16H24N2O2
CAS: 112169-33-2
Molecular weight: 276
m/z	intensity
42	182
44	131
45	79
46	1
50	30
51	12
52	9
53	7
54	8
55	65
58	999
59	16
60	1
62	1
63	6
64	3
65	6
67	5
68	3
69	8
70	8
71	15
72	29
73	3
74	6
76	37
77	16
78	5
79	2
82	4
83	6
84	4
85	2
89	5
90	10
91	7
95	1
97	2
98	1
99	1
101	1
102	6
103	15
104	15
105	8
106	2
112	5
115	4
117	1
118	3
119	2
120	1
121	1
131	2
132	1
133	3
145	2
147	1
149	4
158	4
159	23
160	1
171	1
186	4
226	1
230	1
231	3
276	5
