Mass Spectrum: 2-Cyclohexen-1-one, 2-methyl-
Formula: C7H10O
CAS: 1121-18-2
Molecular weight: 110
m/z	intensity
37	34
38	92
39	999
40	143
41	467
42	135
43	219
44	27
45	16
46	1
47	1
48	2
49	10
50	98
51	145
52	84
53	245
54	950
55	184
56	25
57	55
58	67
59	5
60	1
61	6
62	14
63	30
64	6
65	52
66	30
67	229
68	89
69	64
70	23
71	104
72	8
73	3
74	7
75	4
76	2
77	42
78	12
79	51
80	8
81	33
82	965
83	62
84	33
85	11
86	1
87	0
89	1
90	0
91	7
92	2
93	1
94	2
95	30
96	2
105	1
106	0
107	2
108	1
109	6
110	299
111	25
112	2
113	0
