Mass Spectrum: Cyclohexane, (bromomethylene)-
Formula: C7H11Br
CAS: 1121-49-9
Molecular weight: 174
m/z	intensity
26	24
27	206
28	19
29	143
30	5
31	9
37	11
38	36
39	313
40	60
41	450
42	133
43	73
44	8
45	13
46	10
47	3
49	4
50	32
51	83
52	44
53	362
54	97
55	324
56	68
57	231
58	14
61	5
62	12
63	25
64	8
65	107
66	71
67	467
68	237
69	30
70	9
71	36
72	41
73	4
74	5
75	4
76	3
77	107
78	29
79	160
80	46
81	255
82	22
83	13
84	8
85	13
86	3
87	2
88	18
89	6
90	5
91	58
92	9
93	84
94	24
95	999
96	148
97	12
98	5
99	3
102	3
103	2
104	7
105	7
106	5
107	11
108	5
109	14
110	4
111	5
112	3
113	3
114	2
115	2
116	2
117	6
118	5
119	18
120	6
121	11
122	2
123	3
125	3
126	2
127	2
130	21
131	3
132	146
133	21
134	141
135	19
136	5
174	303
175	26
176	310
177	26
