Mass Spectrum: 1H-Imidazole-4,5-dicarbonitrile
Formula: C5H2N4
CAS: 1122-28-7
Molecular weight: 118
m/z	intensity
12	46
13	16
14	8
17	20
18	27
24	32
26	32
27	88
28	232
36	46
38	495
39	222
41	22
42	25
44	17
50	47
51	30
52	32
53	258
64	370
65	133
66	213
76	38
77	25
91	916
92	63
105	21
118	999
119	72
120	12
