Mass Spectrum: Eicosen-1-ol, cis-9-
Formula: C20H40O
CAS: 112248-30-3
Molecular weight: 296
m/z	intensity
41	924
42	157
43	555
44	33
45	18
51	6
53	87
54	319
55	999
56	210
57	304
58	16
59	3
65	25
66	62
67	520
68	358
69	509
70	137
71	96
72	9
73	4
77	18
79	71
80	62
81	469
82	703
83	379
84	63
85	51
86	6
91	11
92	2
93	20
94	30
95	375
96	620
97	251
98	40
99	15
100	3
105	2
107	8
108	13
109	191
110	218
111	90
112	21
113	7
121	9
122	17
123	129
124	164
125	42
126	12
127	4
135	5
136	10
137	74
138	94
139	19
140	7
141	2
151	27
152	41
153	9
154	3
165	13
166	23
167	5
171	2
179	8
180	16
181	3
193	5
194	12
195	2
196	3
207	4
208	10
209	2
221	8
222	11
223	3
235	4
236	6
237	1
249	3
250	14
251	2
278	68
279	16
280	1
