Mass Spectrum: Benzazepin-1-one, 1,2,3,4-tetrahydro-N-acetyl-7,8,9-trimethoxy-
Formula: C15H19NO5
CAS: 112369-94-5
Molecular weight: 293
m/z	intensity
41	23
42	218
43	999
45	101
46	2
47	2
49	4
50	46
51	146
52	92
53	134
54	34
55	66
56	60
57	22
58	7
59	18
60	9
61	6
62	28
63	98
64	83
65	235
66	99
67	70
68	125
69	42
70	11
71	4
72	11
73	55
74	14
75	34
76	70
77	286
78	162
79	164
80	42
81	49
82	31
83	19
84	14
85	5
86	19
87	6
88	8
89	86
90	99
91	204
92	105
93	141
94	52
95	36
96	9
97	3
98	2
99	5
101	9
102	36
103	87
104	75
105	130
106	99
107	100
108	57
109	36
110	25
111	5
112	0
113	1
114	4
115	34
116	26
117	41
118	63
119	64
120	78
121	144
122	57
123	28
124	10
125	4
126	2
127	2
128	4
129	8
130	32
131	59
132	63
133	115
134	71
135	91
136	101
137	72
138	15
139	5
140	1
141	1
142	2
143	5
144	14
145	29
146	49
147	70
148	104
149	112
150	62
151	89
152	23
153	6
154	5
155	1
156	2
157	3
158	13
159	18
160	49
161	67
162	81
163	115
164	85
165	227
166	61
167	63
168	10
169	2
170	1
171	2
172	7
173	17
174	24
175	85
176	106
177	111
178	58
179	92
180	35
181	154
182	26
183	3
185	14
186	8
187	13
188	21
189	35
190	60
191	237
192	119
193	190
194	40
195	64
196	8
197	1
198	0
199	1
200	5
201	11
202	14
203	37
204	45
205	76
206	247
207	292
208	362
209	83
210	12
211	1
212	0
214	1
215	3
216	24
217	21
218	53
219	139
220	60
221	516
222	184
223	190
224	26
225	3
226	0
229	1
230	1
232	22
233	50
234	396
235	75
236	120
237	18
238	2
244	0
245	1
246	3
247	1
248	21
249	5
250	120
251	92
252	24
253	3
258	4
260	19
261	3
262	7
263	22
264	6
265	55
266	8
267	1
274	2
275	55
276	94
278	105
279	14
280	2
292	6
293	727
294	216
295	32
296	4
