Mass Spectrum: Bicyclo[2.2.2]octane, 1,4-dichloro-
Formula: C8H12Cl2
CAS: 1123-39-3
Molecular weight: 178
m/z	intensity
14	3
15	26
16	4
17	16
18	51
26	54
27	247
28	99
29	47
35	8
36	21
37	31
38	61
39	413
40	29
41	169
42	18
43	29
44	7
45	5
49	68
50	99
51	226
52	84
53	273
54	107
55	89
56	12
57	40
58	15
60	10
61	40
62	32
63	73
64	14
65	129
66	34
67	155
68	28
69	27
70	6
71	7
72	2
73	32
74	29
75	121
76	27
77	360
78	116
79	625
80	105
81	70
82	26
83	9
84	4
85	14
86	5
87	18
88	293
89	54
90	136
91	256
92	51
93	264
94	25
95	18
96	9
97	10
99	18
100	27
101	131
102	35
103	71
104	19
105	75
106	98
107	999
108	110
109	16
111	20
112	93
113	309
114	123
115	141
116	36
117	13
122	6
123	4
124	12
125	10
126	3
127	47
128	5
129	39
130	4
131	7
141	48
142	949
143	423
144	331
145	135
146	12
148	2
149	18
150	4
151	6
152	2
153	1
178	333
179	39
180	225
181	24
182	40
183	4
