Mass Spectrum: 4-Piperidinol, 4-ethynyl-cis-2,trans-3-dimethyl-1-(3-phenyl-2-propynyl)-, acetate
Formula: C20H23NO2
CAS: 112307-98-9
Molecular weight: 309
m/z	intensity
27	30
28	92
29	40
39	51
41	59
42	49
43	160
44	20
51	22
53	33
54	28
55	40
56	185
57	27
63	32
65	57
77	52
89	58
91	53
114	30
115	999
116	124
117	29
122	22
128	27
129	48
134	91
184	20
210	90
211	86
212	33
234	202
235	50
248	50
249	79
250	406
251	98
252	32
266	51
267	20
294	135
295	33
308	27
309	353
310	90
