Mass Spectrum: 4H-3,1-Benzoxazine, 1,2,4arel,5cis,8cis,8acis-hexahydro-5,8-methano-2-(phenylimino)-
Formula: C15H16N2O
CAS: 112378-96-8
Molecular weight: 240
m/z	intensity
27	30
30	7
38	8
39	53
40	19
41	25
42	6
43	17
50	9
51	47
52	13
53	14
54	59
55	15
56	21
63	14
64	22
65	73
66	66
67	13
70	8
76	6
77	150
78	22
79	26
80	8
82	309
83	15
90	6
91	88
92	53
93	45
94	9
103	11
104	15
105	12
106	15
117	9
118	23
119	999
120	130
121	12
130	16
131	21
132	227
133	24
145	12
146	9
147	29
157	6
173	42
174	861
175	104
176	8
240	102
241	28
242	10
