Mass Spectrum: d-Galactose, diheptyl mercaptal
Formula: C20H42O5S2
CAS: 112318-00-0
Molecular weight: 426
m/z	intensity
26	31
27	299
29	422
30	28
31	124
33	4
34	7
35	19
36	1
37	6
38	9
39	180
40	174
41	681
42	219
43	444
44	28
45	93
46	29
47	126
48	14
49	9
50	8
51	14
52	6
53	41
54	27
55	452
56	263
57	999
58	44
59	46
60	64
61	293
62	12
63	14
64	2
65	8
66	5
67	32
68	47
69	185
70	184
71	33
72	14
73	128
74	19
75	24
76	115
77	37
78	12
79	31
80	2
81	29
82	6
83	19
84	4
85	81
86	11
87	96
88	11
89	56
90	3
91	172
92	10
93	8
94	3
95	15
96	14
97	122
98	80
99	20
100	6
101	48
102	10
103	53
104	4
105	10
106	1
107	2
108	3
109	11
110	5
111	6
112	1
113	11
114	4
115	27
116	3
117	7
118	1
119	4
120	1
121	3
122	1
123	1
124	1
125	1
126	4
127	41
128	4
129	32
130	18
131	62
132	48
133	21
134	4
135	2
136	1
137	1
139	1
141	2
142	1
143	48
144	11
145	176
146	15
147	6
148	1
149	1
150	1
151	1
152	1
153	1
155	3
156	1
157	3
158	1
159	3
161	4
162	2
163	51
164	5
165	2
169	2
171	3
172	1
173	17
174	51
175	131
176	24
177	129
178	17
179	11
180	2
181	1
183	1
185	8
186	3
187	18
188	2
189	2
190	3
191	2
197	1
198	1
199	8
200	2
201	1
202	2
203	9
204	2
205	1
206	1
207	1
209	1
210	1
211	1
212	1
213	1
215	4
216	1
217	6
218	1
219	1
224	1
225	1
227	1
228	1
229	5
230	1
231	1
233	7
241	2
242	1
243	2
245	4
246	1
247	1
258	1
259	16
260	2
261	1
262	1
263	8
264	1
265	1
273	1
275	695
276	198
277	131
278	23
279	5
280	1
288	5
289	1
290	1
294	2
295	5
296	1
301	1
302	1
304	1
305	1
307	1
317	26
318	4
319	4
330	1
426	25
427	6
428	3
429	1
