Mass Spectrum: 2-Cyclopentenone, 2-(4-chloroanilino)-4-piperidino-
Formula: C16H19ClN2O
CAS: 112370-73-7
Molecular weight: 290
m/z	intensity
84	999
85	210
111	80
137	200
143	120
151	90
153	30
177	260
178	130
179	120
180	70
205	100
206	320
207	100
208	120
247	40
249	10
262	10
290	330
292	70
