Mass Spectrum: 2-Methoxyphenoxyacetic acid, trimethylsilyl ester
Formula: C12H18O4Si
CAS: 112309-83-8
Molecular weight: 254
m/z	intensity
40	52
41	124
42	16
43	32
44	28
45	88
47	32
50	12
51	32
52	32
53	12
55	16
57	12
58	8
59	28
61	16
63	20
64	24
65	24
67	8
69	8
71	8
72	28
73	999
74	80
75	208
76	24
77	140
78	12
79	8
80	16
81	8
83	8
89	52
91	36
92	48
93	28
95	44
101	12
103	8
105	12
109	16
116	8
117	12
122	8
123	220
124	52
125	40
126	12
135	20
136	12
137	28
138	8
147	16
149	20
151	44
152	12
153	8
164	8
165	40
166	148
167	24
168	12
178	8
179	48
180	92
181	220
182	40
183	12
195	44
196	24
197	8
209	20
211	20
239	12
254	392
255	68
256	20
