Mass Spectrum: 1-Hydroxycyclohexanecarboxylic acid
Formula: C7H12O3
CAS: 1123-28-0
Molecular weight: 144
m/z	intensity
41	138
42	56
43	73
45	38
53	47
55	173
56	30
57	82
67	21
69	30
70	21
77	17
79	51
81	549
82	43
99	999
100	69
144	8
