Mass Spectrum: 4H-3,1-Benzoxazine, 1,2,4arel,5cis,6,7,8cis,8acis-octahydro-5,8-methano-2-(phenylimino)-
Formula: C15H18N2O
CAS: 112378-99-1
Molecular weight: 242
m/z	intensity
15	10
26	18
27	135
29	88
30	151
38	19
39	188
40	48
41	290
42	45
43	57
44	40
50	26
51	124
52	38
53	101
54	144
55	104
56	385
57	52
63	26
64	52
65	159
66	118
67	232
68	82
69	101
70	29
76	16
77	389
78	91
79	325
80	134
81	99
82	369
83	24
84	7
90	11
91	215
92	134
93	722
94	232
95	180
96	26
99	6
103	10
104	29
105	56
106	76
107	101
108	364
109	32
110	9
117	10
118	50
119	999
120	212
121	47
122	74
123	496
124	49
130	19
132	37
133	8
134	7
135	43
136	9
137	13
145	11
146	7
147	817
148	89
149	12
150	24
158	10
160	7
161	22
162	6
170	6
171	8
173	48
174	43
175	29
176	19
182	8
187	6
188	10
198	8
199	9
200	20
201	12
213	26
214	15
241	830
242	938
243	167
244	17
