Mass Spectrum: Benzazepin-1-one, 1,2,3,4-tetrahydro-N-methyl-6-bromo-7,8,9-trimethoxy-
Formula: C14H18BrNO4
CAS: 112369-89-8
Molecular weight: 343
m/z	intensity
42	341
43	16
44	999
45	30
47	9
49	38
50	26
51	83
52	30
53	43
55	84
56	3
57	103
58	50
59	10
60	10
62	27
63	51
64	19
65	52
66	30
67	27
68	16
69	41
70	30
71	45
72	25
73	21
75	35
77	155
78	125
79	55
80	19
81	27
82	14
83	23
84	38
86	41
87	12
88	12
89	39
90	23
91	58
92	31
93	26
94	17
95	30
96	8
97	16
98	6
99	5
100	4
102	30
103	46
104	19
105	31
106	83
107	38
108	10
109	13
110	7
111	14
112	9
113	7
115	20
116	8
117	27
118	22
119	27
120	16
121	21
122	9
123	9
124	106
127	4
129	30
131	33
132	57
133	24
135	48
136	7
137	6
138	5
141	7
143	24
144	7
145	20
146	15
147	23
148	4
149	65
150	22
151	14
152	4
155	8
157	29
159	28
160	14
161	17
162	19
163	43
164	16
165	12
167	9
169	4
170	5
171	8
172	7
173	10
174	9
175	19
176	16
177	21
178	19
179	8
180	7
181	7
182	6
183	6
185	11
186	7
187	10
188	9
189	8
190	25
191	24
192	10
193	6
195	11
197	5
198	7
199	11
200	8
201	11
202	8
203	7
204	22
205	22
206	53
207	16
208	4
210	3
211	8
213	14
214	13
215	14
216	17
217	25
218	9
219	5
220	23
221	23
222	5
224	3
225	8
226	6
227	10
228	7
229	15
230	5
231	8
232	5
234	35
236	125
237	18
238	5
239	8
241	21
242	17
243	29
244	14
245	19
246	11
248	11
249	13
250	4
251	3
253	5
254	13
255	12
256	10
257	18
258	4
259	15
261	5
264	59
265	11
266	4
267	6
268	7
269	19
270	14
271	27
272	11
273	19
275	4
279	11
281	13
282	7
283	10
284	10
285	47
286	19
287	38
288	12
294	4
296	9
297	6
298	8
299	43
300	27
301	39
302	24
310	31
311	4
312	33
314	24
315	3
316	17
324	7
326	222
327	32
328	277
329	38
330	74
331	10
342	10
343	194
344	36
345	186
346	30
