Mass Spectrum: 2,4(1H,3H)-Pyrimidinedione, 5,5-dibromodihydro-6-hydroxy-
Formula: C4H4Br2N2O3
CAS: 1124-83-0
Molecular weight: 286
m/z	intensity
27	48
28	330
29	170
30	14
38	24
39	48
40	72
41	60
42	95
43	110
44	240
45	29
46	999
47	16
53	29
54	15
55	12
56	10
57	29
67	14
68	7
69	12
70	48
72	35
79	72
80	97
81	72
82	97
91	84
92	72
93	96
94	72
95	43
104	12
106	48
107	17
108	36
109	36
110	17
111	24
118	24
119	24
120	170
121	47
122	135
123	27
128	24
147	96
148	5
149	100
150	5
163	12
164	7
165	12
166	7
170	40
171	14
172	72
173	27
174	33
175	14
190	67
191	12
192	72
197	7
198	385
199	24
200	747
201	23
202	482
203	14
204	120
207	24
209	20
215	205
217	400
219	192
241	72
243	140
245	87
247	14
258	7
260	24
262	7
286	5
288	7
290	2
