Mass Spectrum: 2-Isopropyl-5-methylpyrazol-3-amine
Formula: C7H13N3
CAS: 1124-16-9
Molecular weight: 139
m/z	intensity
27	75
28	23
29	64
37	14
38	55
39	363
40	124
41	476
42	276
43	230
44	37
45	2
50	10
51	38
52	128
53	79
54	150
55	56
56	74
57	50
58	7
62	1
63	1
64	7
65	31
66	184
67	120
68	224
69	41
70	24
71	2
77	2
79	6
80	24
81	45
82	27
83	37
84	2
93	1
94	1
95	7
96	387
97	999
98	87
99	3
107	6
108	3
109	2
110	15
111	2
123	3
124	215
125	17
126	1
138	5
139	355
140	38
141	1
