Mass Spectrum: 4H-3,1-Benzoxazine, 1,2,4arel,5trans,8trans,8acis-hexahydro-5,8-methano-1-methyl-2-(phenylimino)-
Formula: C16H18N2O
CAS: 112456-34-5
Molecular weight: 254
m/z	intensity
15	19
26	6
27	27
30	6
37	6
38	14
39	60
40	31
41	63
42	263
43	14
50	8
51	28
52	11
53	10
54	6
56	6
57	6
62	6
63	20
64	39
65	61
66	127
67	19
68	425
69	999
70	78
77	60
78	13
79	18
90	8
91	108
92	14
93	11
94	6
103	7
104	8
105	7
106	6
118	7
119	791
120	72
131	17
132	10
134	7
187	65
188	385
189	50
190	5
254	190
255	39
256	7
