Mass Spectrum: 1,3-Dioxan-4-one, 6-methyl-2-phenyl-, (2R-cis)-
Formula: C11H12O3
CAS: 112463-28-2
Molecular weight: 192
m/z	intensity
25	3
26	19
27	112
28	29
29	67
30	2
31	26
37	11
38	26
39	143
40	31
41	141
42	258
43	322
44	22
45	227
46	5
47	8
49	5
50	85
51	226
52	58
53	8
55	5
56	2
57	5
58	21
59	4
60	76
61	10
62	9
63	23
64	7
65	7
66	3
68	8
69	303
70	18
71	87
72	4
73	6
74	21
75	17
76	29
77	407
78	298
79	148
80	9
84	1
85	25
86	26
87	133
88	8
89	62
90	19
91	11
92	2
93	1
94	3
100	4
101	1
102	2
103	33
104	15
105	999
106	229
107	530
108	45
109	3
115	4
117	2
119	2
120	4
121	2
122	31
123	13
124	1
128	22
129	3
130	2
131	8
132	1
133	3
134	1
141	2
142	1
144	1
146	13
147	5
148	92
149	12
150	1
155	2
156	1
157	11
158	3
163	2
172	1
173	2
174	2
175	7
176	4
190	2
191	8
192	31
193	9
194	2
195	1
