Mass Spectrum: tert-Butyl N-methyl-N-(piperidin-3-ylmethyl)carbamate
Formula: C12H24N2O2
CAS: 1124199-22-9
Molecular weight: 228
m/z	intensity
35	4
36	5
37	18
38	77
39	273
40	57
41	707
42	324
43	280
44	552
45	18
50	5
51	15
52	10
53	47
54	61
55	108
56	254
57	879
58	81
59	53
65	9
66	6
67	40
68	146
69	71
70	139
71	9
72	9
76	10
77	5
79	4
80	28
81	12
82	308
83	220
84	999
85	70
86	4
88	41
89	13
90	3
94	11
95	8
96	91
97	306
98	619
99	24
102	3
110	3
111	2
114	11
115	5
116	7
126	4
127	37
128	10
129	7
130	1
141	3
155	72
156	9
171	19
172	13
173	2
228	300
229	44
230	4
