Mass Spectrum: Ruthenium, tricarbonyl[(3,4-.eta.)-4,5-diethyl-2,2-dimethyl-3-(1-methylethenyl)-1-thia-2-sila-5-boracyclopent-3-ene]-
Formula: C14H21BO3RuSSi
CAS: 112400-63-2
Molecular weight: 410
m/z	intensity
25	14
26	53
27	343
28	999
29	204
30	12
31	56
36	21
37	70
38	26
39	215
41	196
42	17
43	374
44	59
45	89
46	11
49	7
50	76
51	163
52	33
53	106
54	46
55	158
56	13
57	36
58	96
59	461
60	46
61	43
62	27
63	47
64	27
65	106
66	22
67	71
68	21
69	86
70	18
71	67
72	32
73	176
74	30
75	77
76	26
77	146
78	29
79	83
80	16
81	58
82	14
83	179
84	19
85	46
86	18
87	43
88	13
89	24
90	20
91	108
92	58
93	136
94	19
95	95
96	46
97	181
98	26
99	50
100	17
101	38
102	29
103	23
104	20
105	50
106	18
107	30
108	13
109	119
110	73
111	221
112	41
113	33
114	36
115	65
116	16
117	12
119	26
121	27
122	10
123	260
124	64
125	48
126	25
127	44
128	39
129	45
130	61
131	17
132	33
133	20
134	13
135	20
136	16
137	698
138	88
139	52
140	45
141	45
142	51
143	34
144	34
145	32
146	28
147	30
148	21
149	18
150	26
151	73
152	297
153	74
154	52
155	56
156	48
157	55
158	42
159	35
160	38
161	36
162	39
163	36
164	45
165	52
166	50
167	65
168	56
169	64
170	54
171	54
172	56
173	48
174	40
175	46
176	54
177	39
178	52
179	47
180	52
181	58
182	35
183	49
184	47
185	44
186	51
187	62
188	62
189	50
190	60
191	81
192	51
193	65
194	85
195	88
196	56
197	60
198	39
199	67
200	56
201	56
202	72
203	39
204	59
205	49
206	53
207	47
208	58
209	110
210	55
211	44
212	41
213	48
214	35
215	32
216	42
217	38
218	46
219	38
220	45
221	41
222	40
223	37
224	90
225	29
226	30
227	52
228	45
229	35
230	64
231	64
232	59
233	61
234	71
235	65
236	67
237	58
238	55
239	35
240	28
241	23
242	22
243	16
244	21
245	18
246	23
247	22
248	34
249	33
250	32
251	27
252	54
253	31
254	42
255	24
256	32
257	19
258	11
259	15
260	21
261	26
262	37
263	31
264	37
265	44
266	42
267	35
268	28
269	31
270	22
271	17
272	14
273	17
274	20
275	19
276	33
277	51
278	53
279	74
280	51
281	50
282	40
283	27
284	18
285	11
286	10
287	13
288	30
289	24
290	52
291	60
292	84
293	112
294	138
295	105
296	140
297	59
298	90
299	31
300	26
301	19
302	21
303	38
304	50
305	70
306	66
307	85
308	54
309	40
310	18
311	16
314	14
315	18
316	38
317	36
318	73
319	94
320	167
321	157
322	227
323	263
324	372
325	279
326	366
327	140
328	165
329	29
330	19
347	12
348	36
349	35
350	54
351	121
352	143
353	147
354	221
355	86
356	141
357	25
358	15
376	28
377	8
378	20
379	76
380	96
381	119
382	147
383	67
384	102
385	19
386	9
404	12
405	8
406	14
407	35
408	32
409	52
410	63
411	25
412	45
413	9
