Mass Spectrum: Heptacosane-2,4-dione
Formula: C27H52O2
CAS: 112468-39-0
Molecular weight: 408
m/z	intensity
27	5
29	19
39	8
40	2
41	80
42	17
43	284
44	9
53	6
54	9
55	119
56	28
57	127
58	39
59	15
65	3
66	2
67	33
68	16
69	93
70	22
71	85
72	57
79	8
80	15
81	32
82	18
83	55
84	32
85	325
86	18
87	8
94	16
95	34
96	17
97	51
98	46
99	12
100	999
101	201
102	14
107	5
108	5
109	21
110	8
111	34
112	14
113	154
114	16
121	13
122	4
123	12
124	27
125	12
126	4
127	10
128	5
135	6
136	4
137	15
138	34
139	7
140	4
141	4
142	31
143	3
151	5
153	2
154	5
155	4
156	8
168	2
169	5
184	1
277	2
294	2
306	1
307	1
308	1
320	1
332	21
333	6
334	2
335	1
347	2
348	2
349	1
350	8
351	7
352	2
365	2
366	1
372	2
375	2
376	1
379	1
390	33
391	10
392	2
393	5
394	1
407	2
408	13
409	4
