Mass Spectrum: 4H-3,1-Benzoxazine, 1,2,4arel,5trans,8trans,8acis-hexahydro-5,8-methano-2-(phenylimino)-
Formula: C15H16N2O
CAS: 112456-33-4
Molecular weight: 240
m/z	intensity
14	9
26	8
27	39
29	7
30	7
38	11
39	73
40	26
41	29
42	7
43	20
50	15
51	66
52	21
53	18
54	81
55	19
56	24
63	18
64	27
65	95
66	78
67	14
70	11
76	9
77	187
78	51
79	28
80	8
82	386
83	19
90	7
91	93
92	63
93	47
94	8
103	11
104	17
105	12
106	18
117	12
118	26
119	999
120	135
121	11
130	20
131	25
132	272
133	29
145	14
146	11
147	25
157	7
173	44
174	862
175	105
176	8
209	7
240	78
241	16
242	2
