Mass Spectrum: 7-Methyl-2-(7-oxononyl)-perhydroazepine
Formula: C16H31NO
CAS: 112448-77-8
Molecular weight: 253
m/z	intensity
55	120
57	108
110	141
112	999
124	109
125	460
126	120
182	110
224	59
253	19
