Mass Spectrum: Hentriacontan-2,4-dione
Formula: C31H60O2
CAS: 112468-36-7
Molecular weight: 464
m/z	intensity
29	9
39	5
41	55
42	13
43	214
44	6
54	6
55	80
56	23
57	133
58	30
59	15
68	14
69	103
70	20
71	97
72	56
73	5
80	15
82	20
83	62
84	27
85	299
86	14
87	7
94	28
95	63
96	16
97	54
98	45
99	13
100	999
101	231
102	16
111	32
112	16
113	148
114	17
124	33
125	19
126	6
127	12
128	7
138	55
139	11
140	4
141	6
142	38
151	9
152	4
153	4
154	7
155	5
156	15
167	2
168	3
169	6
170	2
179	4
182	2
184	3
323	2
324	2
339	4
362	2
365	8
376	1
388	27
389	10
390	3
391	1
394	3
403	3
404	2
405	2
406	13
407	15
408	8
419	1
421	3
422	1
425	12
428	5
431	3
435	1
440	4
441	2
446	59
447	20
448	3
449	6
450	2
463	2
464	17
465	6
466	2
