Mass Spectrum: Cyclooctene, 4-ethenyl-
Formula: C10H16
CAS: 1124-45-4
Molecular weight: 136
m/z	intensity
22	2
23	1
24	1
25	3
26	24
27	363
28	59
29	123
30	1
31	0
32	0
33	1
34	1
35	2
36	1
37	12
38	22
39	487
40	75
41	753
42	54
43	19
44	0
45	0
46	1
47	2
48	1
49	2
50	24
51	71
52	48
53	209
54	826
55	191
56	8
58	4
59	2
60	0
61	1
62	5
63	20
64	8
65	94
66	82
67	999
68	180
69	49
70	2
71	2
72	0
73	1
74	1
75	9
76	5
77	118
78	83
79	468
80	326
81	257
82	242
83	16
85	0
86	1
88	2
89	6
90	2
91	67
92	18
93	223
94	215
95	284
96	22
97	0
102	0
103	3
104	1
105	11
106	4
107	161
108	79
109	5
114	0
115	1
117	2
119	3
121	136
122	11
123	0
129	0
132	0
134	0
135	4
136	48
137	5
