Mass Spectrum: 3-[(1-Trichloromethyl)but-3-enyloxy]butanoic acid
Formula: C9H13Cl3O3
CAS: 112463-35-1
Molecular weight: 274
m/z	intensity
25	1
26	9
27	111
28	16
29	20
30	1
31	17
35	9
36	48
37	6
38	15
39	167
40	28
41	427
42	100
43	507
44	21
45	341
46	8
47	6
48	6
49	11
50	5
51	12
52	3
53	26
54	7
55	19
56	6
57	11
58	6
59	6
60	9
61	6
62	3
63	11
64	2
65	38
66	4
67	11
68	17
69	243
70	16
71	103
72	5
73	17
74	1
75	32
76	7
77	13
78	2
79	4
80	1
81	8
82	11
83	21
84	7
85	20
86	17
87	999
88	47
89	13
90	1
91	4
92	0
93	3
94	0
95	4
96	2
97	4
98	1
99	18
100	5
101	21
102	4
103	14
104	1
105	4
106	0
107	3
108	0
109	14
110	22
111	17
112	26
113	7
114	10
115	6
116	1
117	8
118	2
119	7
120	0
121	2
122	0
123	2
124	0
125	2
126	0
127	1
128	1
129	1
130	3
131	0
132	2
133	0
134	1
135	19
136	4
137	14
138	3
139	14
140	1
141	4
142	2
143	1
145	1
146	1
147	2
148	1
149	3
150	0
151	1
152	12
153	3
154	8
155	4
156	2
157	46
158	4
159	1
160	0
161	0
165	0
166	0
167	0
168	0
169	0
170	1
171	2
172	1
173	2
174	1
175	1
176	0
177	0
178	0
179	2
180	0
181	2
188	1
190	1
191	0
192	0
193	1
199	2
200	0
201	2
202	0
203	1
204	0
215	2
216	0
217	2
219	1
220	0
233	17
234	1
235	16
236	1
237	5
238	1
239	0
240	0
241	0
259	0
