Mass Spectrum: 3-Hydroxy-6-acetoxytropane
Formula: C10H17NO3
CAS: 112546-76-6
Molecular weight: 199
m/z	intensity
27	5
28	5
29	6
30	5
39	13
40	3
41	30
42	117
43	94
44	49
45	4
50	1
51	3
52	3
53	15
54	23
55	27
56	34
57	105
58	35
63	1
65	6
66	4
67	21
68	29
70	55
72	12
73	5
77	5
78	4
79	8
80	17
81	73
82	104
83	14
84	60
85	16
86	11
91	4
93	6
94	233
95	35
96	449
97	35
98	53
99	8
100	2
106	3
107	12
108	9
109	3
110	22
112	194
113	999
114	90
115	5
120	4
121	2
122	161
123	17
124	3
126	5
128	2
136	1
138	26
139	6
140	61
141	8
155	4
156	34
157	11
158	1
169	1
182	9
183	2
184	1
199	218
200	26
201	3
