Mass Spectrum: 2,2,2-Trifluoro-N-[3-[3-(1-piperidinylmethyl)phenoxy]propyl]acetamide
Formula: C17H23F3N2O2
CAS: 112598-86-4
Molecular weight: 344
m/z	intensity
29	39
30	39
31	5
33	3
36	10
38	5
39	37
41	252
42	127
43	15
44	29
45	1
46	2
50	4
51	14
52	10
53	11
54	11
55	76
56	49
57	15
58	8
59	5
60	5
63	5
64	3
65	11
66	3
67	7
68	10
69	38
70	16
71	3
73	8
75	1
77	68
78	5
79	44
80	8
82	23
84	999
85	57
86	4
87	2
89	14
90	16
91	27
92	3
93	3
94	3
95	2
96	9
98	332
99	22
100	1
101	1
102	9
103	2
104	3
105	9
107	242
108	132
109	11
114	1
115	4
116	3
117	5
118	3
119	7
120	6
121	7
122	2
126	119
127	6
130	1
131	1
132	4
133	11
134	13
135	6
136	2
140	1
145	5
146	4
147	15
148	9
149	1
152	1
154	515
155	37
156	2
160	3
161	1
162	9
163	1
173	1
174	2
188	1
189	2
190	18
191	5
202	2
204	1
242	1
259	2
260	52
261	15
262	1
275	3
301	2
315	1
325	1
329	1
343	106
344	84
345	20
346	3
