Mass Spectrum: N-(2-Methylpropenyl)-2-piperidinone
Formula: C9H15NO
CAS: 112518-13-5
Molecular weight: 153
m/z	intensity
42	241
54	140
55	419
68	149
70	141
82	251
84	120
96	108
110	169
124	999
138	198
153	230
