Mass Spectrum: 6-Methylpyridine-2-carboxylic acid 1-oxide
Formula: C7H7NO3
CAS: 1125-34-4
Molecular weight: 153
m/z	intensity
12	2
14	1
15	7
16	9
17	15
18	75
22	2
25	1
26	20
27	71
28	67
29	9
30	10
31	9
32	2
36	2
37	30
38	65
39	311
40	49
41	47
42	21
43	9
44	496
45	44
46	13
47	1
48	1
49	11
50	96
51	184
52	117
53	89
54	19
55	8
56	1
57	1
59	15
60	4
61	14
62	27
63	87
64	127
65	712
66	318
67	50
68	13
69	7
70	1
73	3
74	13
75	12
76	14
77	38
78	120
79	35
80	30
81	39
82	3
83	1
86	1
87	2
88	3
89	1
90	15
91	165
92	999
93	691
94	72
95	6
96	1
97	1
103	1
104	1
105	5
106	7
107	5
108	11
109	671
110	50
111	3
117	1
118	7
119	2
120	2
121	1
122	3
123	2
124	1
125	3
134	1
135	149
136	99
137	21
138	3
139	1
152	1
153	903
154	94
155	9
