Mass Spectrum: 2-(Acetylmethylene)tetrahydrofuran
Formula: C7H10O2
CAS: 112595-65-0
Molecular weight: 126
m/z	intensity
27	236
29	51
38	35
39	159
40	41
41	97
42	85
43	411
52	19
53	44
54	9
55	60
69	999
70	34
81	16
85	44
111	418
112	29
125	10
126	221
127	19
128	3
