Mass Spectrum: 4-Hydroxycarbamoyl-2-phenyl-2-oxazoline
Formula: C10H10N2O3
CAS: 112507-21-8
Molecular weight: 206
m/z	intensity
41	31
42	50
43	125
44	32
46	2
50	23
51	397
52	31
53	4
55	26
56	3
57	1
58	6
60	24
61	1
62	6
63	137
65	71
66	4
68	2
69	4
71	4
74	51
75	18
77	650
78	30
79	2
84	0
85	1
86	10
87	8
89	128
91	999
92	48
94	1
99	0
101	0
103	7
105	818
106	29
107	1
114	4
116	35
118	333
119	26
120	2
121	3
122	4
128	0
130	1
132	0
142	1
143	0
146	577
147	224
148	18
149	1
158	2
159	5
161	7
162	0
172	4
174	10
180	1
186	2
189	3
204	13
205	1
206	364
207	46
208	6
