Mass Spectrum: 2-[(2-hydroxy-2-phenylacetyl)amino]-acetic acid, ethyl ester
Formula: C12H15NO4
CAS: 112681-25-1
Molecular weight: 237
m/z	intensity
26	11
27	87
28	54
29	171
30	525
31	26
37	2
38	7
39	42
40	6
41	17
42	25
43	24
44	9
45	22
46	3
47	1
49	2
50	30
51	108
52	33
53	28
54	3
55	12
56	83
57	20
58	21
59	9
60	56
61	38
62	10
63	26
64	9
65	8
66	2
67	3
68	2
69	6
70	22
71	11
72	2
73	6
74	186
75	20
76	15
77	348
78	88
79	562
80	45
81	3
82	7
83	5
84	8
85	6
86	9
87	3
88	95
89	36
90	41
91	26
92	4
93	2
95	2
97	3
98	2
99	2
101	2
102	229
103	295
104	33
105	100
106	28
107	999
108	337
109	27
110	2
111	2
112	1
113	1
115	7
117	2
118	31
119	4
121	2
127	2
128	4
129	2
130	155
131	12
132	13
133	4
134	3
135	2
136	77
137	12
139	2
146	7
147	2
152	4
153	7
154	3
155	15
156	7
163	2
164	47
165	7
167	3
168	10
169	2
170	7
171	2
174	2
182	1
191	2
192	58
193	6
194	30
195	4
209	2
221	1
237	52
238	8
