Mass Spectrum: Cyclohexene, 3-(2-propenyl)-1-nitro-
Formula: C9H13NO2
CAS: 112683-38-2
Molecular weight: 167
m/z	intensity
67	390
68	999
78	160
79	600
80	260
81	100
91	150
92	110
93	310
94	160
95	110
96	560
108	190
110	190
120	170
121	530
125	240
126	320
137	110
150	100
167	20
