Mass Spectrum: 5-Oxotetrahydrofuran-2-carboxylic acid, ethyl ester
Formula: C7H10O4
CAS: 1126-51-8
Molecular weight: 158
m/z	intensity
26	24
27	116
28	62
29	426
30	13
31	12
37	3
38	6
39	41
40	8
41	25
42	24
43	16
44	9
45	9
55	24
56	23
57	67
58	12
68	4
69	6
75	2
82	2
83	3
84	8
85	999
86	84
87	7
102	1
115	2
131	1
158	8
