Mass Spectrum: Cyclohexanecarboxamide, 1-hydroxy-N-phenyl-
Formula: C13H17NO2
CAS: 112681-21-7
Molecular weight: 219
m/z	intensity
26	4
27	53
28	17
29	56
30	1
31	23
37	1
38	9
39	88
40	18
41	137
42	27
43	92
44	6
45	8
50	11
51	49
52	14
53	50
54	21
55	148
56	12
57	67
58	3
59	4
60	2
61	1
62	2
63	14
64	18
65	95
66	66
67	39
68	5
69	39
70	17
71	12
72	2
73	2
74	1
75	3
76	7
77	134
78	15
79	36
80	6
81	497
82	43
83	12
84	2
85	5
90	3
91	22
92	72
93	999
94	107
95	9
96	2
97	10
98	20
99	903
100	71
101	4
102	0
103	1
104	4
105	2
106	4
107	5
108	3
109	15
110	2
111	3
112	0
113	0
114	0
115	2
116	1
117	3
118	2
119	37
120	31
121	384
122	48
123	4
124	1
125	2
126	0
127	0
128	0
129	0
130	6
131	1
132	0
133	0
134	1
135	3
136	1
137	1
138	0
139	0
140	0
143	1
144	1
145	1
146	2
147	1
148	4
149	7
150	1
151	1
162	1
163	1
164	9
165	1
166	0
167	0
172	2
173	5
174	1
175	1
200	1
201	1
202	2
203	0
218	1
219	209
220	35
221	4
222	0
223	1
