Mass Spectrum: Cyclohexanone, 2-butyl-
Formula: C10H18O
CAS: 1126-18-7
Molecular weight: 154
m/z	intensity
26	4
27	86
28	10
29	165
30	1
31	1
33	4
36	0
37	1
38	4
39	93
40	19
41	244
42	92
43	89
44	9
45	1
50	4
51	9
52	5
53	30
54	53
55	323
56	86
57	36
58	4
59	0
62	0
63	2
64	0
65	6
66	4
67	54
68	25
69	93
70	189
71	14
72	0
73	0
77	8
78	1
79	24
80	12
81	33
82	12
83	267
84	33
85	5
91	6
92	0
93	13
94	3
95	13
96	5
97	116
98	999
99	80
100	5
105	1
107	4
108	1
109	2
110	3
111	108
112	10
113	1
121	0
122	0
124	0
125	6
135	1
136	0
137	0
153	0
154	42
155	5
