Mass Spectrum: Cyclohexane, 2-(dimethylhydrazono)-3-[4-hexenyl]-1-aci-nitro-, (E,E)-
Formula: C14H25N3O2
CAS: 112683-26-8
Molecular weight: 267
m/z	intensity
39	150
41	620
42	240
43	220
44	999
45	140
53	120
54	120
55	570
57	340
58	110
59	640
60	220
67	250
68	170
69	370
72	140
79	130
81	300
82	100
85	140
94	110
95	190
96	160
122	100
178	100
221	150
267	50
