Mass Spectrum: 3-Cyclohexene-1-carboxaldehyde, 1-methyl-, oxime, (Z)-(.+-.)-
Formula: C8H13NO
CAS: 112622-03-4
Molecular weight: 139
m/z	intensity
26	24
27	255
28	198
29	140
30	277
31	16
37	12
38	39
39	501
40	109
41	411
42	114
43	89
44	104
45	13
46	77
47	18
48	2
49	5
50	53
51	149
52	88
53	281
54	451
55	339
56	111
57	132
58	207
59	41
60	33
61	8
62	19
63	43
64	16
65	153
66	63
67	380
68	109
69	42
70	44
71	31
72	16
73	19
74	10
75	12
76	14
77	340
78	102
79	671
80	363
81	346
82	116
83	25
84	117
85	82
86	23
87	8
88	2
89	11
90	6
91	343
92	72
93	247
94	819
95	468
96	109
97	47
98	72
99	8
100	2
101	2
102	4
103	21
104	23
105	563
106	286
107	999
108	132
109	23
110	138
111	51
112	12
120	89
121	42
122	592
123	64
124	227
125	20
137	6
138	35
139	525
140	52
141	11
