Mass Spectrum: Cyclopentane, 1,1'-thiobis-
Formula: C10H18S
CAS: 1126-65-4
Molecular weight: 170
m/z	intensity
24	0
25	1
26	3
27	191
28	30
29	51
30	1
31	0
32	3
33	2
34	3
35	3
36	0
37	6
38	20
39	321
40	53
41	821
42	46
43	22
44	1
45	163
46	11
47	90
48	2
49	4
50	4
51	12
52	4
53	55
54	7
55	49
56	3
57	4
58	32
59	85
60	99
61	21
62	6
63	6
64	1
65	38
66	46
67	431
68	510
69	999
70	55
71	35
72	11
73	94
74	46
75	9
76	4
77	1
78	0
79	2
80	0
81	6
82	1
83	0
84	1
85	16
86	2
87	21
88	1
89	1
91	0
93	1
94	1
95	6
96	0
97	4
98	1
99	8
100	51
101	668
102	189
103	252
104	21
105	10
106	0
107	0
108	0
109	0
110	0
111	0
113	1
114	0
115	12
116	1
117	0
121	0
127	1
128	1
129	1
130	0
137	0
141	28
142	4
143	1
144	0
168	0
169	1
170	328
171	39
172	17
173	1
