Mass Spectrum: 2,4-Bis(dimethylamino)-6-nitro-1,3,5-triazine
Formula: C7H12N6O2
CAS: 112629-59-1
Molecular weight: 212
m/z	intensity
41	14
42	68
43	40
44	55
45	54
46	27
55	28
56	9
57	15
67	19
69	88
70	21
71	26
80	15
81	26
82	18
83	12
96	999
97	53
107	19
123	25
139	14
149	5
150	25
165	42
166	358
167	28
195	45
212	242
213	21
