Mass Spectrum: [2-(4-Bromophenyl)-2-hydroxyacetylamino]acetic acid, ethyl ester
Formula: C12H14BrNO4
CAS: 112681-27-3
Molecular weight: 315
m/z	intensity
26	10
27	81
28	61
29	214
30	999
31	28
37	2
38	10
39	36
40	2
41	7
42	31
43	19
44	9
45	27
46	3
47	2
49	2
50	59
51	154
52	44
53	12
54	1
55	8
56	128
57	10
58	26
59	8
60	75
61	53
62	17
63	34
64	3
65	3
69	2
70	28
71	4
73	7
74	385
75	60
76	55
77	819
78	408
79	66
80	5
82	4
83	2
84	14
85	2
86	12
87	6
88	206
89	69
90	11
91	5
101	2
102	552
103	595
104	46
105	58
106	58
107	87
108	7
115	2
116	2
117	3
121	5
122	4
130	549
131	36
132	22
133	12
134	4
135	3
141	11
142	2
145	3
153	3
155	29
156	4
157	94
158	8
159	63
160	4
168	3
169	6
170	3
171	4
183	44
184	15
185	737
186	94
187	669
188	77
189	4
190	2
196	14
197	1
198	14
199	1
214	42
215	3
216	40
217	4
224	3
226	4
227	2
228	1
236	16
237	2
242	22
243	2
244	22
245	2
270	28
271	4
272	39
273	4
274	12
315	43
316	7
317	42
318	5
