Mass Spectrum: Pyridinium, 1-(2-hydrazino-2-oxoethyl)-, chloride
Formula: C7H10ClN3O
CAS: 1126-58-5
Molecular weight: 187
m/z	intensity
12	5
13	9
14	27
15	112
16	17
17	28
18	10
24	4
25	13
26	105
27	55
28	114
29	63
30	189
31	66
32	219
33	3
34	1
35	75
36	583
37	29
38	195
39	116
40	24
41	36
42	71
43	261
44	53
45	11
46	9
47	1
48	6
49	69
50	191
51	287
52	681
53	89
54	13
55	9
56	6
57	7
58	4
59	15
60	3
61	4
62	4
63	8
64	8
65	28
66	43
67	24
68	7
69	8
70	6
71	8
72	49
73	9
74	9
75	15
76	14
77	6
78	125
79	999
80	116
81	9
82	5
83	4
84	2
85	6
86	1
87	2
88	1
89	5
91	3
92	17
93	259
94	39
95	9
96	3
97	4
98	9
99	4
100	6
101	6
102	6
103	1
104	6
105	4
106	2
107	4
108	5
109	6
110	2
111	2
112	1
113	3
114	1
115	1
116	1
118	1
119	3
120	57
121	7
122	4
123	1
124	1
125	1
126	2
127	1
128	7
129	3
130	1
133	1
134	5
135	3
136	2
137	3
138	1
139	1
140	1
142	1
143	1
144	1
145	1
147	1
148	1
149	5
150	5
151	64
152	15
153	9
154	1
