Mass Spectrum: 1-(1-Hydroxy-1-methylethyl)-3-methoxymethylbenzene
Formula: C11H16O2
CAS: 112766-35-5
Molecular weight: 180
m/z	intensity
38	11
39	92
40	7
41	42
43	999
44	17
45	709
46	17
50	30
51	76
52	15
53	13
59	84
61	11
63	55
64	9
65	71
66	7
67	26
74	21
75	23
76	5
77	82
78	28
79	26
82	19
89	63
90	51
91	457
92	61
93	9
103	25
104	11
105	67
106	9
107	7
115	32
116	9
117	13
118	7
119	23
120	11
121	48
131	57
132	9
133	348
134	42
135	100
136	7
147	19
149	82
150	15
151	30
162	11
163	5
165	790
166	88
179	11
180	53
