Mass Spectrum: .alpha.-Fenchyl-methylether
Formula: C11H20O
CAS: 1127-24-8
Molecular weight: 168
m/z	intensity
39	152
41	310
43	72
45	84
52	101
55	289
56	29
59	66
65	26
67	105
68	20
69	72
71	110
77	45
79	73
80	852
81	999
82	97
85	524
86	223
87	108
93	121
95	35
97	31
98	38
99	39
105	11
107	65
108	9
111	23
112	11
113	14
121	99
122	7
123	26
125	20
136	77
137	11
153	4
168	3
