Mass Spectrum: 1-Methoxy-3,3-diethyltriazene 2-oxide
Formula: C5H13N3O2
CAS: 112753-63-6
Molecular weight: 147
m/z	intensity
27	140
28	170
29	660
30	140
31	30
42	270
43	90
44	670
45	60
56	270
57	300
58	40
70	20
71	50
72	30
73	30
74	40
85	130
87	260
88	20
102	999
103	60
132	480
133	30
147	40
