Mass Spectrum: 1-Propoxy-3,3-diethyltriazene 2-oxide
Formula: C7H17N3O2
CAS: 112753-64-7
Molecular weight: 175
m/z	intensity
29	490
30	50
31	30
41	160
42	110
43	420
44	180
47	80
56	80
57	60
58	30
71	20
72	20
75	290
87	40
102	140
103	999
104	60
175	1
