Mass Spectrum: 5,8-methano-4H-1,3-benzoxazine-2-thione, 1,2,4a-rel,5-cis,8-cis-hexahydro-
Formula: C9H11NOS
CAS: 112798-00-2
Molecular weight: 181
m/z	intensity
39	130
54	190
55	999
56	200
65	100
66	678
67	60
77	70
82	159
91	80
115	138
116	469
181	419
