Mass Spectrum: Pyrazole, 4-amino-1-phenyl-
Formula: C9H9N3
CAS: 1128-53-6
Molecular weight: 159
m/z	intensity
50	142
52	406
53	80
56	60
57	32
63	42
64	34
66	32
74	33
76	73
77	624
78	210
103	30
104	999
105	191
131	320
132	293
133	35
158	33
159	728
160	95
