Mass Spectrum: N-[4-(5-Bromo-2-ethoxymethyl-6-methylpyrimidin-4-ylsulfamoyl)-phenyl]-acetamide
Formula: C16H19BrN4O4S
CAS: 112860-69-2
Molecular weight: 442
m/z	intensity
50	5
51	12
52	49
53	36
54	45
55	13
56	6
57	40
62	1
63	59
64	175
65	898
66	183
67	47
68	7
69	40
70	2
75	3
76	14
77	36
78	26
79	101
80	109
81	61
82	56
83	5
84	1
85	2
89	2
90	53
91	160
92	999
93	426
94	32
95	20
96	3
97	2
102	2
103	2
104	30
105	27
106	118
107	91
108	561
109	284
110	10
115	1
116	6
117	43
118	36
119	31
120	62
121	50
122	14
123	58
124	72
125	18
129	5
130	8
131	42
132	84
133	29
134	749
135	82
136	13
137	1
140	333
141	20
142	11
143	6
146	41
147	7
148	20
149	2
150	39
151	176
152	6
154	1
156	261
157	52
158	7
159	5
160	13
161	40
162	12
163	30
166	12
167	18
168	6
169	21
170	49
171	45
172	105
173	102
174	17
175	72
176	2
177	1
181	2
182	71
183	12
184	9
185	6
186	3
187	11
188	8
195	3
196	10
197	12
198	427
199	49
200	62
201	415
202	81
203	412
204	25
209	3
210	14
211	76
212	47
213	64
214	82
215	6
216	33
248	5
249	2
250	3
251	2
252	3
253	14
254	61
255	121
256	50
289	16
290	24
291	106
292	252
293	108
294	241
295	26
296	16
297	3
298	2
317	1
318	4
319	75
320	87
321	84
322	7
331	3
332	23
333	171
334	946
335	344
336	950
337	164
338	23
340	1
363	18
364	9
365	2
376	1
377	356
378	379
379	408
380	369
381	59
382	2
383	7
384	1
385	4
397	2
398	420
399	76
400	444
401	67
402	18
413	4
415	3
427	4
429	3
441	1
442	104
443	13
444	96
445	11
446	2
