Mass Spectrum: 4-Amino-N-(5-chloro-2-ethoxymethyl-6-methyl-pyrimidin-4-yl)-benzenesulfonamide
Formula: C14H17ClN4O3S
CAS: 112860-65-8
Molecular weight: 356
m/z	intensity
51	3
52	25
53	10
54	19
55	4
59	46
63	17
64	50
65	576
66	97
67	11
68	2
78	2
79	9
80	20
81	10
89	1
90	9
91	47
92	999
93	130
94	7
95	1
104	4
105	2
106	37
107	20
108	461
109	38
117	35
118	6
119	9
120	12
121	2
122	2
123	24
124	16
125	2
129	28
130	4
131	11
132	18
133	3
137	27
138	3
140	108
141	7
142	2
143	3
155	2
156	521
157	423
158	61
159	119
160	3
170	12
171	18
172	28
173	1
174	4
199	1
200	11
201	1
202	2
206	2
208	23
209	2
210	5
211	12
212	20
213	27
214	89
215	7
219	5
245	10
246	24
247	77
248	625
249	110
250	192
251	19
258	7
263	4
264	2
278	2
291	79
292	467
293	100
294	156
295	16
312	91
313	8
314	28
315	1
356	70
357	5
358	18
