Mass Spectrum: 6-Hydroxy-9-methyl-9-aza-bicyclo[3.3.1]nonan-3-one
Formula: C9H15NO2
CAS: 112864-57-0
Molecular weight: 169
m/z	intensity
26	19
27	147
28	112
29	143
30	54
31	47
37	6
38	10
39	125
40	36
41	232
42	835
43	135
44	73
45	10
50	10
51	21
52	21
53	60
54	86
55	224
56	141
57	255
58	84
59	11
60	12
61	6
62	6
63	8
64	5
65	20
66	14
67	69
68	72
69	55
70	190
71	32
72	17
73	20
74	8
75	5
77	18
78	10
79	18
80	26
81	49
82	311
83	185
84	158
85	21
86	9
87	4
88	12
89	4
91	12
92	11
93	18
94	185
95	53
96	137
97	78
98	59
99	19
100	30
101	7
102	5
104	3
105	5
106	6
107	11
108	59
109	48
110	999
111	241
112	391
113	45
114	6
115	5
119	4
120	6
121	6
122	10
123	7
124	36
125	29
126	161
127	23
128	4
129	3
133	3
134	6
135	4
136	6
137	4
138	44
139	10
140	49
141	11
149	5
150	20
151	14
152	24
153	9
154	10
168	28
169	425
170	56
171	7
