Mass Spectrum: 4-Amino-N-(2-ethoxymethyl-5-bromo-6-methyl-4-pyrimidinyl)-benzenesulfonamide
Formula: C14H17BrN4O3S
CAS: 112860-66-9
Molecular weight: 400
m/z	intensity
50	3
51	12
52	45
53	27
54	38
55	12
56	6
57	15
58	3
59	78
60	4
63	24
64	76
65	620
66	127
67	31
74	1
75	9
76	4
77	12
78	9
79	28
80	43
81	24
82	13
83	6
84	4
85	3
89	2
90	13
91	55
92	999
93	155
94	18
95	12
96	4
103	2
104	9
105	12
106	63
107	33
108	470
109	44
110	2
111	1
117	10
118	13
119	19
120	30
121	27
122	9
123	44
124	13
125	3
129	3
130	11
131	16
132	56
133	15
134	11
135	1
139	1
140	129
141	36
142	9
143	4
144	11
145	29
146	34
147	24
148	8
154	2
155	9
156	434
157	50
158	25
159	4
160	4
161	22
162	5
163	19
167	2
168	2
169	11
170	39
171	44
172	25
173	29
174	8
175	14
176	1
177	3
195	2
196	11
197	7
198	9
199	5
200	18
201	223
202	32
203	222
204	18
209	2
210	7
211	28
212	46
213	66
214	10
227	3
228	3
229	2
230	2
232	2
243	4
244	39
245	5
246	4
247	3
251	2
252	19
253	3
254	18
256	8
257	5
258	15
263	7
264	3
265	8
275	3
276	6
277	8
278	15
279	7
289	13
290	35
291	91
292	498
293	160
294	450
295	66
296	2
306	1
307	7
308	10
309	5
310	3
335	63
336	348
337	124
338	344
339	61
340	3
355	2
356	70
357	13
358	70
359	9
360	3
400	57
401	9
402	60
403	8
404	1
