Mass Spectrum: Methyl.alpha.d-rhamnopyranoside
Formula: C7H14O5
CAS: 1128-40-1
Molecular weight: 178
m/z	intensity
58	382
59	54
60	999
61	146
71	153
73	85
74	582
85	125
87	52
88	36
99	13
100	81
101	9
105	69
116	94
118	85
120	51
129	74
133	8
134	6
147	121
