Mass Spectrum: Imidazole, 2,5-dibromo-1-methoxymethyl-4-nitro-
Formula: C5H5Br2N3O3
CAS: 112995-70-7
Molecular weight: 313
m/z	intensity
41	36
42	25
43	42
44	13
45	999
46	172
47	11
49	37
50	10
51	29
52	27
53	76
54	17
55	9
56	16
57	5
61	104
64	27
65	50
66	7
67	6
68	12
69	15
77	36
78	29
79	93
80	14
81	87
82	17
91	58
93	73
105	26
106	165
107	38
108	163
109	14
117	55
118	49
119	52
120	54
122	12
141	7
143	4
144	26
145	15
146	24
147	5
149	5
196	20
198	30
200	12
211	6
212	4
213	12
214	13
215	7
223	19
225	40
227	18
239	11
241	26
243	13
253	4
255	13
269	90
271	172
272	13
273	77
274	5
285	6
313	25
315	54
316	7
317	24
