Mass Spectrum: 1,3-Cyclododecadiene, (E,Z)-
Formula: C12H20
CAS: 1129-92-6
Molecular weight: 164
m/z	intensity
26	9
27	216
28	2
29	177
30	2
34	1
37	2
38	8
39	324
40	48
41	688
42	51
43	77
44	0
45	1
47	1
50	19
51	64
52	52
53	183
54	406
55	442
56	38
57	12
58	2
59	1
60	1
62	3
63	22
64	7
65	128
66	196
67	961
68	373
69	119
70	6
71	3
72	1
74	2
75	8
76	4
77	252
78	129
79	999
80	834
81	649
82	364
83	99
84	6
85	1
89	3
90	2
91	187
92	36
93	341
94	183
95	235
96	116
97	52
98	3
101	0
102	1
103	4
104	3
105	20
106	7
107	160
108	87
109	100
110	57
111	5
115	3
116	1
117	2
118	1
119	4
120	3
121	190
122	62
123	30
124	3
128	1
129	3
131	1
133	2
134	1
135	102
136	45
137	4
149	28
150	2
160	0
162	2
163	1
164	282
165	39
166	3
