Mass Spectrum: Cyclohexanol, 4,4-dimethoxy-
Formula: C8H16O3
CAS: 112906-44-2
Molecular weight: 160
m/z	intensity
26	23
27	196
29	282
30	28
31	180
33	9
37	4
38	18
39	274
40	37
41	404
42	63
43	904
44	42
45	55
50	20
51	42
52	24
53	117
54	319
55	199
56	37
57	89
58	27
59	37
60	6
61	4
62	3
63	9
64	2
65	33
66	20
67	108
68	73
69	96
70	13
71	73
72	17
73	6
74	128
75	4
77	28
78	8
79	40
80	5
81	33
82	15
83	198
84	999
85	81
86	54
87	21
88	18
94	11
95	47
96	17
97	23
98	10
99	44
100	117
101	133
102	8
109	37
110	80
111	66
112	6
113	24
114	8
128	463
129	52
130	4
160	1
