Mass Spectrum: 2,6-Diacetylpyridine
Formula: C9H9NO2
CAS: 1129-30-2
Molecular weight: 163
m/z	intensity
13	1
14	8
15	70
26	12
27	13
28	8
29	3
37	9
38	17
39	32
40	4
41	4
42	36
43	999
44	24
45	3
49	6
50	48
51	61
52	34
53	9
54	1
55	1
61	5
62	8
63	16
64	17
65	31
66	22
67	3
73	1
74	4
75	12
76	27
77	31
78	90
79	86
80	9
87	1
88	1
89	1
90	4
91	8
92	17
93	203
94	15
95	1
99	1
102	4
103	6
104	6
105	7
106	245
107	17
108	1
116	2
117	9
118	1
119	1
120	276
121	366
122	34
123	2
134	1
135	191
136	17
137	1
146	1
148	18
149	2
162	1
163	587
164	62
165	6
