Mass Spectrum: 2-Isobutyl-1,3,2-oxaazaborinane
Formula: C7H16BNO
CAS: 112980-85-5
Molecular weight: 141
m/z	intensity
53	18
54	53
55	123
56	215
57	153
58	169
59	15
66	16
67	18
68	24
69	55
70	72
71	110
72	15
73	26
81	18
82	33
83	101
84	307
85	56
86	43
87	18
96	15
97	64
98	415
99	999
100	89
101	10
111	16
112	46
113	15
125	92
126	307
127	38
139	27
140	115
141	261
142	27
