Mass Spectrum: 3-Benzoyloxypentanedioic acid, dimethyl ester
Formula: C14H16O6
CAS: 112904-66-2
Molecular weight: 280
m/z	intensity
26	2
27	18
28	14
29	15
30	3
31	7
33	2
37	2
38	7
39	43
40	9
41	62
42	28
43	47
44	12
45	9
50	35
51	128
52	9
53	3
54	1
55	16
56	5
57	8
58	13
59	132
60	2
61	1
62	1
63	2
64	1
65	6
66	1
67	2
68	20
69	17
70	1
71	19
72	5
73	2
74	12
75	27
76	26
77	410
78	38
79	4
83	2
84	2
85	19
87	3
91	8
92	1
93	1
94	3
95	42
96	3
97	1
98	33
99	71
100	15
101	61
102	3
103	2
104	9
105	999
106	92
107	5
111	5
113	1
114	2
115	3
116	3
117	3
118	2
119	2
121	1
122	247
123	25
124	2
126	109
127	256
128	18
129	1
130	2
141	4
142	2
143	232
144	15
145	2
146	5
147	1
149	5
155	2
158	66
159	113
160	9
175	118
176	8
177	1
178	1
179	1
207	1
220	2
249	5
280	8
