Mass Spectrum: Benzene, (pentylthio)-
Formula: C11H16S
CAS: 1129-70-0
Molecular weight: 180
m/z	intensity
39	89
41	111
42	40
43	178
44	11
45	116
50	27
51	89
52	18
53	18
55	49
58	18
59	22
63	22
65	71
66	49
69	49
71	33
73	11
74	11
75	11
76	11
77	89
78	27
79	40
85	33
91	40
105	49
108	27
109	138
110	999
111	89
112	62
121	18
122	18
123	267
124	44
125	22
178	49
179	11
180	478
181	67
182	33
