Mass Spectrum: Adenosine, N-[4-[carboxymethyl]phenyl]-2'-O,3'-O,5'-O-triacetyl-
Formula: C24H25N5O9
CAS: 112918-81-7
Molecular weight: 527
m/z	intensity
41	36
42	406
43	999
44	436
45	231
52	32
53	9
54	30
55	39
56	36
57	33
58	53
60	194
61	21
67	20
68	37
69	79
70	9
71	11
72	10
73	30
79	152
81	10
84	63
85	89
86	30
96	96
97	119
98	30
106	53
114	95
115	26
132	21
135	11
139	177
143	13
222	11
223	11
224	303
225	66
251	47
252	12
259	22
267	27
268	36
269	126
270	49
297	89
298	38
424	11
509	22
527	49
528	11
