Mass Spectrum: Guanidine
Formula: CH5N3
CAS: 113-00-8
Molecular weight: 59
m/z	intensity
12	4
13	18
14	9
15	6
16	37
17	91
18	453
19	2
26	6
27	36
28	167
29	34
30	7
31	80
32	1
39	1
40	5
41	71
42	396
43	981
44	32
55	1
56	1
57	2
58	1
59	999
60	32
