Mass Spectrum: 2-(4-Benzyloxy-3-methoxyphenyl)-3-methoxy-4H-chromen-4-one
Formula: C24H20O5
CAS: 113059-30-6
Molecular weight: 388
m/z	intensity
15	1
27	1
28	6
29	1
37	1
38	3
39	22
40	2
41	8
43	3
44	1
45	1
50	10
51	18
52	5
53	7
55	5
57	1
61	1
62	7
63	36
64	15
65	85
66	6
67	1
69	2
71	1
74	4
75	16
76	30
77	20
78	7
79	9
80	1
81	1
83	1
84	1
86	2
87	3
88	3
89	17
90	9
91	999
92	107
93	12
94	1
95	1
97	1
98	1
99	1
100	2
101	7
102	3
103	4
104	9
105	15
106	7
107	3
108	2
112	1
113	6
114	3
115	6
116	2
117	1
118	2
119	9
120	17
121	52
122	5
123	2
125	2
126	7
127	12
128	5
129	2
131	2
132	3
133	9
134	5
135	5
137	1
138	2
139	21
140	6
141	7
142	3
143	1
144	1
145	2
146	3
147	4
148	3
149	6
150	2
151	5
152	9
153	5
154	2
155	11
156	2
157	9
158	1
160	1
161	1
162	1
163	3
164	1
165	9
166	2
167	2
168	10
169	7
170	5
171	7
172	1
173	1
175	2
176	1
177	5
178	2
179	2
180	3
181	13
182	4
183	10
184	5
185	2
186	1
187	1
192	1
193	2
194	2
195	10
196	15
197	26
198	9
199	3
200	2
201	1
205	1
207	1
208	6
209	17
210	9
211	17
212	9
213	4
214	2
215	1
220	1
221	4
222	3
223	24
224	20
225	28
226	44
227	9
228	2
235	1
236	4
237	32
238	12
239	21
240	7
241	11
242	2
248	1
249	5
250	4
251	12
252	10
253	22
254	91
255	36
256	6
263	1
264	1
265	26
266	24
267	41
268	15
269	99
270	17
271	3
277	1
278	2
279	8
280	9
281	11
282	23
283	28
284	8
285	2
295	11
296	12
297	623
298	157
299	24
300	3
317	1
327	1
341	1
345	1
355	1
356	1
357	8
358	3
359	1
370	4
371	2
372	1
373	23
374	6
375	1
387	35
388	439
389	116
390	18
391	2
