Mass Spectrum: 2,4a-Epidioxy-3,4,4a,5,6,7,8,8a-octahydro-2-[2-hydroxypropyl]-5,5,8a-trimethylbenzopyran
Formula: C15H26O4
CAS: 113087-85-7
Molecular weight: 270
m/z	intensity
41	500
42	104
43	999
44	50
45	582
46	12
47	14
48	6
52	5
53	79
54	21
55	343
56	114
57	84
58	59
59	27
60	3
61	6
63	3
64	1
65	18
66	7
67	83
68	26
69	580
70	66
71	213
72	37
73	29
74	6
75	1
76	1
77	40
78	7
79	64
80	16
81	113
82	51
83	59
84	42
85	70
86	6
87	99
88	20
89	12
91	52
92	25
93	106
94	47
95	169
96	32
97	118
98	39
99	873
100	74
101	54
102	20
103	28
104	19
105	54
106	23
107	94
108	36
109	450
110	168
111	66
112	9
113	33
115	197
116	21
117	8
118	3
119	52
120	19
121	295
122	31
123	272
124	48
125	75
126	11
127	64
128	98
129	12
130	2
131	16
132	11
133	37
134	12
135	73
136	565
137	110
138	17
139	11
140	9
141	15
142	8
143	37
144	4
145	151
146	41
147	148
148	18
149	27
150	12
151	45
152	7
153	12
154	3
155	28
156	6
157	3
158	1
159	21
160	44
161	126
162	618
163	128
164	9
165	38
166	7
167	15
168	14
169	9
170	2
171	0
173	9
174	2
175	18
176	19
177	24
178	14
179	29
180	4
181	21
182	7
183	8
184	0
185	0
186	3
187	138
188	20
189	3
191	5
192	7
193	12
194	9
195	5
196	1
197	0
201	4
202	11
203	6
205	126
206	18
207	28
208	4
209	2
217	1
218	2
219	3
220	20
221	55
222	8
223	13
224	3
226	3
235	2
236	32
237	10
238	54
239	8
240	0
253	0
269	0
270	39
271	6
272	0
