Mass Spectrum: Bicyclo[4.1.0]hept-3-ene, 7,7-dimethyl-3-vinyl-
Formula: C11H16
CAS: 113003-13-7
Molecular weight: 148
m/z	intensity
26	12
27	177
28	54
29	50
30	2
37	4
38	15
39	223
40	32
41	267
42	16
43	51
44	5
49	1
50	30
51	104
52	37
53	95
54	11
55	83
56	5
57	3
58	8
59	5
60	1
61	1
62	10
63	36
64	15
65	79
66	21
67	65
68	8
69	57
70	9
71	1
73	1
74	7
75	8
76	7
77	177
78	77
79	304
80	56
81	19
82	8
83	2
84	1
87	1
89	9
90	4
91	284
92	155
93	55
94	8
95	27
96	1
101	3
102	8
103	71
104	211
105	999
106	114
107	22
108	2
115	29
116	14
117	40
118	16
119	38
120	14
121	4
127	2
128	5
129	4
130	2
131	19
132	4
133	126
134	15
135	1
145	1
146	1
147	4
148	77
149	11
