Mass Spectrum: Cyclohexanecarboxylic acid, 2-hydroxy-6-methyl-, methyl ester, [1S-(1.alpha.,2.beta.,6.alpha.)]-
Formula: C9H16O3
CAS: 113122-02-4
Molecular weight: 172
m/z	intensity
25	16
27	204
28	58
29	140
30	10
31	77
33	25
37	19
39	244
40	48
41	420
42	77
43	142
44	65
45	35
50	14
51	31
52	17
53	106
54	35
55	215
56	40
57	117
58	12
59	85
60	8
61	16
63	11
65	22
66	15
67	97
68	61
69	505
70	78
71	95
72	7
73	20
74	75
75	15
77	35
78	15
79	83
80	36
81	72
82	18
83	40
84	33
85	16
87	53
88	11
91	15
93	32
94	177
95	322
96	35
97	133
98	61
99	11
100	77
101	999
102	119
103	33
107	9
111	40
112	139
113	37
114	6
115	6
116	7
122	57
123	10
125	44
126	10
129	53
130	10
139	27
140	40
142	11
144	103
145	13
154	85
155	13
172	7
