Mass Spectrum: Cyclohexanecarboxylic acid, 2-ethenyl-6-hydroxy-, methyl ester, [1S-(1.alpha.,2.alpha.,6.beta.)]-
Formula: C10H16O3
CAS: 113122-03-5
Molecular weight: 184
m/z	intensity
26	10
27	167
28	7
29	124
30	6
31	48
33	21
38	10
39	182
40	34
41	332
42	39
43	159
44	48
45	32
50	13
51	45
52	33
53	252
54	151
55	250
56	24
57	138
58	23
59	124
60	6
61	17
62	4
63	11
64	4
65	55
66	48
67	343
68	172
69	85
70	54
71	107
72	16
73	10
74	220
75	56
76	6
77	94
78	63
79	436
80	184
81	461
82	103
83	100
84	78
85	74
86	7
87	33
88	37
89	5
91	196
92	111
93	104
94	17
95	118
96	245
97	160
98	29
99	21
100	94
101	87
102	16
103	27
104	5
105	66
106	358
107	931
108	117
109	160
110	133
111	87
112	29
113	999
114	111
115	24
116	447
117	52
118	8
119	17
121	6
122	5
123	64
124	141
125	60
126	10
127	19
128	45
129	52
130	8
133	24
134	147
135	87
136	22
137	67
138	39
139	18
140	22
141	112
142	13
143	5
149	25
150	3
151	206
152	93
153	188
154	20
155	37
156	29
157	3
165	30
166	217
167	45
168	5
169	8
183	4
184	41
185	8
