Mass Spectrum: 5,6,7,8-Tetrahydrobenzo[b]1,3-dioxan-4-one, 2.beta.-t-butyl-
Formula: C12H18O3
CAS: 113122-01-3
Molecular weight: 210
m/z	intensity
26	17
27	163
28	37
29	148
30	3
31	9
37	3
38	12
39	205
40	72
41	379
42	48
43	86
44	4
45	13
46	1
47	3
50	11
51	29
52	25
53	73
54	66
55	190
56	15
57	139
58	6
59	2
62	2
63	5
64	2
65	17
66	20
67	134
68	347
69	69
70	17
71	20
72	2
73	3
77	25
78	7
79	48
80	11
81	107
82	131
83	40
84	3
85	11
86	8
87	77
88	4
93	2
94	3
95	28
96	81
97	13
98	13
99	7
103	2
105	5
106	1
107	3
108	1
109	269
110	23
111	5
121	1
122	1
123	19
124	722
125	999
126	81
127	7
141	3
142	2
149	6
151	2
152	1
153	206
154	20
155	99
156	7
157	1
158	1
209	0
210	121
211	19
212	1
