Mass Spectrum: Pyridine, 4-phenyl-, 1-oxide
Formula: C11H9NO
CAS: 1131-61-9
Molecular weight: 171
m/z	intensity
15	3
17	13
18	41
19	4
26	37
27	47
29	49
30	104
31	5
37	18
38	52
39	168
40	22
41	66
42	10
43	24
44	19
45	6
46	4
49	11
50	146
51	209
52	74
53	21
54	6
55	20
56	6
57	29
60	10
61	35
62	110
63	245
64	84
65	98
66	17
67	13
68	13
69	32
70	9
71	13
73	21
74	95
75	92
76	90
77	138
78	53
79	20
80	4
81	17
82	5
83	9
84	7
86	96
87	63
88	46
89	176
90	34
91	29
92	8
93	9
94	4
95	10
96	4
97	9
98	21
99	16
100	14
101	32
102	91
103	39
104	19
105	15
106	4
107	9
108	2
109	7
110	9
111	9
112	4
113	45
114	38
115	999
116	215
117	37
118	4
119	5
120	4
121	5
122	4
123	5
124	2
125	10
126	46
127	118
128	59
129	14
130	1
131	8
132	4
135	2
136	2
137	14
138	7
139	69
140	25
141	12
142	39
143	18
144	115
145	14
149	9
151	2
152	11
153	25
154	68
155	76
156	17
165	10
167	4
170	19
171	820
172	136
173	12
