Mass Spectrum: 1H-1,2,3-Triazol-1-amine, 4,5-dimethyl-N-[(4-nitrophenyl)methylene]-
Formula: C11H11N5O2
CAS: 113261-30-6
Molecular weight: 245
m/z	intensity
41	300
54	450
68	570
76	200
77	120
89	999
103	130
133	20
135	430
148	50
149	200
163	390
175	10
176	40
202	20
216	10
217	20
245	65
246	10
