Mass Spectrum: 1H-1,2,3-Triazol-1-amine, 4,5-dimethyl-N-[(4-methylphenyl)methylene]-
Formula: C12H14N4
CAS: 113261-26-0
Molecular weight: 214
m/z	intensity
41	170
54	40
68	270
77	180
91	440
103	290
104	999
105	100
116	20
117	20
118	220
132	280
144	20
145	20
171	3
186	2
214	33
