Mass Spectrum: 1H-1,2,3-Triazol-1-amine, 4-phenyl-N-(phenylmethylene)-
Formula: C15H12N4
CAS: 113261-37-3
Molecular weight: 248
m/z	intensity
76	80
77	70
89	360
90	999
91	80
102	100
103	16
115	13
116	55
117	15
118	360
119	30
191	20
193	84
220	6
248	20
