Mass Spectrum: 1-Acetyl-1,2,3,4-tetrahydro-4-methoxyphenyl-2,2,4-trimethylquinoline
Formula: C21H25NO2
CAS: 113279-29-1
Molecular weight: 323
m/z	intensity
39	56
41	69
43	999
50	32
52	7
53	8
55	14
63	27
64	10
65	15
75	11
77	57
78	11
79	7
89	20
91	37
92	7
102	9
103	9
105	7
115	32
116	14
117	15
118	15
121	21
126	9
128	9
130	18
131	8
132	9
133	10
135	14
139	9
143	22
144	13
152	18
158	62
165	28
166	9
167	8
172	8
178	7
180	9
181	7
206	8
264	7
266	55
323	8
