Mass Spectrum: 1H-1,2,3-Triazol-1-amine, N-[(4-methylphenyl)methylene]-4-phenyl-
Formula: C16H14N4
CAS: 113261-38-4
Molecular weight: 262
m/z	intensity
76	230
77	220
78	400
89	180
90	170
102	620
103	380
104	999
105	120
115	20
116	250
117	45
118	85
132	250
133	25
191	10
206	15
207	40
234	10
262	10
