Mass Spectrum: 2,6-Pyridinedicarboxaldehyde, 3-(phenylmethoxy)-, bis[methyl(2-pyridyl)hydrazone]
Formula: C26H25N7O
CAS: 113231-34-8
Molecular weight: 451
m/z	intensity
78	214
79	999
80	153
91	306
92	30
107	224
108	275
117	51
118	61
120	81
207	20
221	5
317	4
318	9
344	8
345	5
450	0
451	10
