Mass Spectrum: 1H-1,2,3-Triazol-1-amine, 4,5-dimethyl-N-(phenylmethylene)-
Formula: C11H12N4
CAS: 113261-25-9
Molecular weight: 200
m/z	intensity
41	75
54	30
68	180
77	430
89	250
90	999
103	15
104	230
118	350
130	25
131	43
172	4
185	10
200	74
201	10
