Mass Spectrum: (Z)-1-Bromo-2-tert-butoxyethene
Formula: C6H11BrO
CAS: 113279-39-3
Molecular weight: 178
m/z	intensity
41	468
57	999
93	343
95	340
99	249
105	119
107	119
122	332
124	331
163	300
165	300
178	644
180	641
