Mass Spectrum: 1H-1,2,3-Triazol-1-amine, N-[(4-chlorophenyl)methylene]-4,5-dimethyl-
Formula: C11H11ClN4
CAS: 113261-29-3
Molecular weight: 234
m/z	intensity
41	60
54	270
68	650
75	300
89	560
111	330
113	110
124	999
126	330
137	50
138	320
140	100
152	410
154	130
164	20
165	40
167	13
191	10
193	3
206	9
208	3
234	190
235	26
236	60
237	20
