Mass Spectrum: 1H-1,2,3-Triazol-1-amine, 4-methyl-5-phenyl-N-(phenylmethylene)-
Formula: C16H14N4
CAS: 113261-33-9
Molecular weight: 262
m/z	intensity
41	810
76	100
77	390
89	230
90	260
103	450
104	230
115	400
116	300
117	35
118	20
130	999
131	170
192	3
193	7
233	20
234	44
262	44
