Mass Spectrum: 1H-1,2,3-Triazol-1-amine, 4-(4-chlorophenyl)-N-(phenylmethylene)-
Formula: C15H11ClN4
CAS: 113261-45-3
Molecular weight: 282
m/z	intensity
75	170
77	120
89	250
90	999
101	160
103	70
104	20
105	50
106	40
118	30
136	420
138	140
150	17
151	5
152	7
153	4
191	20
227	44
229	14
254	7
256	2
282	11
284	3
