Mass Spectrum: Benzonitrile, 4-[[(4,5-dimethyl-1H-1,2,3-triazol-1-yl)imino]methyl]-
Formula: C12H11N5
CAS: 113261-32-8
Molecular weight: 225
m/z	intensity
41	370
54	740
68	520
76	120
77	260
89	70
102	180
114	150
115	999
116	110
128	140
129	150
143	200
197	8
225	20
