Mass Spectrum: Phenol, 4-[[(4,5-dimethyl-1H-1,2,3-triazol-1-yl)imino]methyl]-
Formula: C11H12N4O
CAS: 113261-28-2
Molecular weight: 216
m/z	intensity
41	330
54	950
68	350
77	400
78	810
93	250
105	290
106	999
107	100
119	230
120	380
134	290
146	60
147	110
188	17
216	60
217	10
