Mass Spectrum: 1H-1,2,3-Triazol-1-amine, 4-(4-methylphenyl)-N-(phenylmethylene)-
Formula: C16H14N4
CAS: 113261-43-1
Molecular weight: 262
m/z	intensity
76	60
77	100
89	300
90	999
91	140
103	80
104	50
105	30
115	340
116	300
117	50
118	230
130	40
131	30
191	20
206	30
207	160
234	46
262	26
