Mass Spectrum: 1H-1,2,3-Triazol-1-amine, 5-methyl-4-phenyl-N-(phenylmethylene)-
Formula: C16H14N4
CAS: 113261-35-1
Molecular weight: 262
m/z	intensity
41	60
77	150
90	999
91	200
103	60
104	110
115	160
116	70
118	680
119	80
130	530
131	100
165	30
191	40
192	30
193	470
234	9
262	63
263	12
