Mass Spectrum: 5,6-Dihydro-2-methyl-3-methoxycarbonyl-1,4-dithiiin
Formula: C7H10O2S2
CAS: 113334-43-3
Molecular weight: 190
m/z	intensity
15	106
27	68
29	31
39	53
43	29
44	25
45	159
58	110
59	999
60	48
61	68
64	36
67	59
69	67
70	43
71	125
85	31
88	26
92	33
97	67
98	29
102	105
103	189
104	42
130	316
131	192
132	50
147	34
158	450
159	179
160	55
161	29
162	47
190	804
191	77
192	81
