Mass Spectrum: 2,4:5,6-Di-O-isopropylidene-d-glucose-1-(trimethylenedithioacetal)
Formula: C15H26O5S2
CAS: 113340-05-9
Molecular weight: 350
m/z	intensity
101	430
115	220
119	999
145	100
149	90
161	380
173	540
200	80
220	50
232	110
277	50
332	20
335	20
350	20
