Mass Spectrum: 2-t-Butyl-6-(1,1-dibromoethyl)-[1,3]dioxin-4-one
Formula: C10H14Br2O3
CAS: 113304-28-2
Molecular weight: 340
m/z	intensity
25	19
26	70
27	297
29	386
30	8
31	2
36	8
37	38
38	62
39	417
40	49
41	737
42	54
43	350
45	5
48	3
49	14
50	36
51	35
52	12
53	58
54	13
55	49
56	24
57	999
58	31
59	1
63	2
65	3
66	3
67	13
68	14
69	928
70	60
71	16
77	2
79	27
80	8
81	26
82	8
83	2
85	8
86	194
87	13
91	5
92	4
93	14
94	4
95	8
96	2
97	3
104	7
105	36
106	33
107	52
108	25
109	16
118	26
119	4
120	32
121	4
122	5
130	2
131	4
132	6
133	14
134	10
136	11
137	7
141	3
147	38
148	3
149	46
150	3
151	6
163	3
174	3
175	15
176	11
177	16
178	7
185	12
186	3
187	24
188	4
189	11
190	3
215	6
217	6
228	4
230	5
232	3
233	7
234	1
235	7
254	42
255	8
256	80
257	16
258	41
259	7
261	4
263	3
290	2
291	1
292	1
297	2
299	4
301	2
315	1
316	2
317	2
318	2
319	2
320	1
333	2
334	2
335	1
342	2
344	2
