Mass Spectrum: Ethanol, 2-[(2-bromoethyl)dithio]-
Formula: C4H9BrOS2
CAS: 113398-38-2
Molecular weight: 216
m/z	intensity
27	410
31	140
45	999
58	90
59	280
60	250
61	70
64	170
76	120
79	270
91	130
92	120
107	380
109	550
137	230
140	80
142	80
144	100
146	100
157	40
159	40
172	160
174	160
188	120
190	130
216	350
217	21
218	400
219	19
