Mass Spectrum: (E)-2,6-Dimethyl-2,7-octadiene-1,6-diol, 1-(6-O-.alpha.-arabinofuranosyl-.beta.-d-glucopyranosyl hexaacetate)
Formula: C33H48O17
CAS: 113378-79-3
Molecular weight: 716
m/z	intensity
41	280
43	999
55	340
67	320
68	290
69	290
71	340
81	350
82	280
85	220
93	290
95	150
96	290
97	370
107	190
109	370
110	240
127	160
129	130
134	160
135	200
139	570
152	290
169	170
259	450
260	80
273	20
289	6
317	2
331	30
547	2
