Mass Spectrum: 2-Propanone, 1,1,3,3-tetrapropoxy-
Formula: C15H30O5
CAS: 113358-60-4
Molecular weight: 290
m/z	intensity
41	418
42	49
43	999
44	190
47	38
57	6
58	8
59	6
71	2
73	2
75	3
76	3
89	257
90	7
100	3
117	20
118	4
131	124
132	6
159	5
160	2
