Mass Spectrum: 1,3-Dioxin-4-one, 5-bromo-2,6-dimethyl-
Formula: C6H7BrO3
CAS: 113304-21-5
Molecular weight: 206
m/z	intensity
26	12
27	75
28	13
29	44
38	9
39	80
40	5
41	49
42	29
43	999
44	50
45	39
52	2
53	4
54	6
55	139
56	7
57	7
58	2
65	2
66	5
67	13
68	44
69	19
70	3
71	5
83	5
84	9
85	4
91	4
92	1
93	7
105	14
106	62
107	18
108	58
109	4
117	3
118	16
119	10
120	373
121	18
122	339
123	9
124	1
125	0
133	3
134	3
135	5
136	5
137	2
141	5
142	3
147	23
148	0
149	30
150	2
161	0
162	570
163	98
164	564
165	94
166	5
206	212
207	21
208	204
209	21
210	1
