Mass Spectrum: 2,3:5,6-Di-O-isopropylidene-d-glucose-1-(trimethylenedithioacetal)
Formula: C15H26O5S2
CAS: 113340-04-8
Molecular weight: 350
m/z	intensity
101	450
115	510
119	999
133	100
145	140
149	70
161	570
173	750
200	80
220	80
232	190
277	40
292	60
332	20
335	40
350	10
