Mass Spectrum: 3,4:5,6-Di-O-isopropylidene-d-glucose-1-(trimethylenedithioacetal)
Formula: C15H26O5S2
CAS: 113340-03-7
Molecular weight: 350
m/z	intensity
101	220
115	140
119	999
143	90
149	190
161	60
173	430
232	180
274	30
332	10
335	70
350	20
