Mass Spectrum: 1,3-Benzodioxole, 2-propoxy-
Formula: C10H12O3
CAS: 113439-60-4
Molecular weight: 180
m/z	intensity
41	340
42	330
43	560
52	120
55	90
57	110
60	80
63	80
64	110
65	100
69	60
71	40
77	60
81	80
91	50
105	60
110	999
121	520
180	210
181	23
