Mass Spectrum: 1,3-Benzodioxole, 2-hexyloxy-
Formula: C13H18O3
CAS: 113439-64-8
Molecular weight: 222
m/z	intensity
41	130
43	330
44	130
45	120
55	100
56	70
57	80
60	30
63	30
64	40
65	60
69	70
71	30
77	30
81	40
85	30
92	30
110	999
121	370
138	80
222	120
223	17
