Mass Spectrum: Oxazol-5(4H)-one, 4-(3,5-dibromo-2-hydroxybenzylideno)-2-phenyl-
Formula: C16H9Br2NO3
CAS: 113425-80-2
Molecular weight: 421
m/z	intensity
37	1
38	5
39	6
40	10
41	2
42	5
44	107
45	1
49	1
50	26
51	72
52	5
53	3
55	0
57	2
61	3
62	4
63	4
64	1
65	2
66	0
69	1
70	1
71	1
73	2
74	19
75	28
76	26
77	335
78	23
79	3
80	2
81	1
82	2
83	1
84	0
85	1
86	4
87	9
88	2
89	1
91	3
92	0
99	3
100	18
101	9
102	22
103	3
105	999
106	70
108	0
109	0
111	0
112	0
113	1
114	0
116	1
117	1
118	1
119	0
127	0
128	2
129	1
130	3
131	2
132	0
140	0
141	1
142	0
143	1
149	0
151	0
153	5
154	7
155	4
156	8
157	1
165	0
166	0
167	1
168	2
169	1
170	1
171	3
177	0
178	0
179	0
180	6
181	22
182	6
183	19
184	2
185	0
192	0
194	1
195	1
197	1
199	1
200	0
201	1
205	0
208	2
209	4
210	4
211	4
223	0
233	1
235	3
236	1
237	2
238	0
245	1
247	2
249	1
251	0
260	1
261	1
262	4
263	1
264	1
265	0
279	0
280	1
283	1
288	6
289	2
290	15
291	1
292	10
294	0
297	1
301	0
318	1
319	0
320	0
421	71
422	15
423	126
424	27
425	63
426	13
427	1
