Mass Spectrum: 1-Benzamido-pyrrolidine
Formula: C11H14N2O
CAS: 1134-70-9
Molecular weight: 190
m/z	intensity
41	126
42	46
43	45
44	37
50	48
51	134
52	15
55	65
56	31
68	27
69	19
70	999
71	49
75	18
76	11
77	269
78	27
85	883
86	65
103	18
104	18
105	306
106	19
122	26
146	15
190	37
191	12
