Mass Spectrum: 1,3-Benzodioxole, 2-(1-methylpropoxy)-
Formula: C11H14O3
CAS: 113439-63-7
Molecular weight: 194
m/z	intensity
41	350
43	130
44	130
45	150
53	50
55	80
56	100
57	230
60	30
63	60
64	100
65	110
69	30
71	30
77	50
81	60
82	50
103	30
105	50
110	999
121	560
138	160
194	100
195	12
