Mass Spectrum: 1,1-Dimethoxycarbonyl-2-methyl-2-(buta-1,3-dien-2-yl)-cyclopropane
Formula: C12H16O4
CAS: 113495-74-2
Molecular weight: 224
m/z	intensity
51	228
53	310
59	361
65	98
77	267
79	188
91	367
105	999
121	79
133	79
164	280
224	70
