Mass Spectrum: 1,2-Oxazepine, hexahydro-2-methyl-7-(3-pyridyl)-
Formula: C11H16N2O
CAS: 1134-32-3
Molecular weight: 192
m/z	intensity
41	100
42	300
60	999
78	150
91	40
92	100
104	70
105	80
106	120
118	380
119	800
120	150
130	110
131	20
132	450
133	50
144	40
145	20
146	30
147	20
175	50
192	150
