Mass Spectrum: Ethyl 2-acetamido-6-bromo-7-methoxybenzo[b]thiophene-3-carboxylate
Formula: C14H14BrNO4S
CAS: 113407-95-7
Molecular weight: 371
m/z	intensity
33	6
37	5
38	8
39	11
40	6
43	999
45	50
47	4
50	7
51	8
52	7
53	17
55	7
57	9
58	6
60	4
61	10
62	21
63	21
64	5
65	5
66	4
67	3
69	77
70	10
72	4
73	6
74	9
75	12
76	15
77	12
78	7
79	10
81	15
82	15
83	5
84	4
85	4
86	4
88	29
89	16
90	12
91	6
93	18
94	13
95	9
96	5
99	3
100	7
101	4
102	9
103	6
104	5
105	8
106	18
107	16
108	11
109	5
110	3
117	15
118	9
119	37
120	18
121	31
122	15
123	6
131	3
132	14
133	34
134	21
135	10
136	4
143	3
144	8
145	11
146	33
147	24
148	9
149	18
150	6
151	3
160	8
161	13
162	11
163	5
173	5
174	16
175	11
176	13
177	8
178	4
187	4
188	9
189	11
190	4
191	3
192	4
197	4
198	5
199	8
200	5
201	6
202	4
203	8
204	15
205	6
206	5
211	5
212	13
213	9
214	15
215	6
216	4
220	10
221	5
224	5
225	3
226	9
227	6
228	9
229	11
230	7
231	9
240	23
241	7
242	18
243	4
245	3
247	3
249	3
254	7
255	5
256	9
257	8
258	7
259	5
268	12
269	14
270	12
271	12
272	5
280	6
281	6
283	198
284	48
285	165
286	32
287	10
288	3
301	4
303	5
315	6
317	5
325	8
326	9
327	11
328	22
329	109
330	6
331	123
332	13
357	4
359	5
371	119
372	26
373	91
374	17
375	2
