Mass Spectrum: 1,3-Benzodioxole, 2-(2-propenyloxy)-
Formula: C10H10O3
CAS: 113439-66-0
Molecular weight: 178
m/z	intensity
41	290
42	30
44	70
53	80
55	50
57	40
63	70
64	80
65	100
69	40
77	40
81	190
82	50
92	30
94	30
109	999
110	600
121	750
132	20
150	100
178	250
179	27
