Mass Spectrum: 1-[2-Deoxy-.beta.-d-erythro-pentofuranosyl]pyrrole-2,4-bishydroxamidine
Formula: C11H17N5O5
CAS: 113574-94-0
Molecular weight: 299
m/z	intensity
41	130
42	272
43	588
44	999
45	253
46	29
52	56
53	66
54	72
55	123
56	51
57	108
58	13
59	125
60	113
61	91
64	52
65	14
66	26
67	28
68	53
69	127
70	62
71	158
72	56
73	258
77	25
78	32
79	17
80	28
81	74
82	42
83	65
84	81
85	43
86	10
88	131
91	43
92	31
93	41
95	26
96	46
97	104
98	51
99	120
100	24
101	36
102	24
103	25
104	13
105	53
106	41
107	129
108	58
109	29
116	24
117	377
118	196
119	88
120	47
122	44
123	31
124	14
125	18
132	45
133	126
134	82
135	92
136	68
137	32
140	157
144	52
147	11
149	38
150	241
151	197
152	81
153	68
159	36
161	23
165	14
166	127
167	39
168	91
177	28
183	494
184	29
185	57
192	13
194	31
249	35
267	34
282	72
299	11
