Mass Spectrum: 1-[2-Deoxy-.beta.-d-erythro-pentofuranosyl]pyrrole-2-carbonitrile
Formula: C10H12N2O3
CAS: 113574-87-1
Molecular weight: 208
m/z	intensity
41	94
42	36
43	274
44	36
45	264
46	4
47	10
49	2
50	23
51	30
52	34
53	32
54	12
55	43
56	7
57	48
58	8
59	9
60	15
61	10
62	2
63	14
64	49
65	93
66	53
67	15
68	15
69	85
70	13
71	158
72	10
73	354
74	10
75	22
76	32
77	27
78	41
79	10
80	25
81	35
82	3
83	1
84	2
85	10
86	5
87	2
89	1
90	9
91	46
92	400
93	100
94	12
95	3
96	1
97	31
98	63
99	185
100	9
101	1
102	3
103	18
104	25
105	73
106	23
107	6
108	5
109	1
111	1
115	4
116	80
117	999
118	136
119	410
120	70
121	13
122	4
124	5
129	3
130	1
131	58
132	13
133	15
134	29
135	8
136	10
137	0
141	0
142	1
143	1
145	0
147	8
148	8
149	16
150	1
158	3
159	117
160	13
161	15
162	1
165	29
166	2
173	1
177	29
178	10
179	2
181	0
208	307
209	38
210	3
