Mass Spectrum: 1-[2-Deoxy-3,5-di-O-p-toluoyl-.beta.-d-erythro-pentofuranosyl]-
Formula: C27H23N3O5
CAS: 113574-86-0
Molecular weight: 469
m/z	intensity
41	14
42	4
43	7
44	2
45	3
47	6
48	4
49	30
50	4
51	15
52	4
53	10
54	7
55	7
56	1
57	2
59	1
62	4
63	15
64	8
65	75
66	5
67	1
68	8
69	13
70	3
71	2
74	1
75	1
76	2
77	8
78	3
79	2
81	999
82	49
83	3
84	25
85	2
86	13
87	0
88	4
89	31
90	35
91	307
92	27
93	5
97	3
98	0
99	1
101	0
102	0
103	1
104	0
105	3
106	1
107	6
108	0
115	1
116	4
117	23
118	39
119	693
120	59
121	4
124	0
128	0
129	4
130	2
131	0
133	0
135	8
136	31
137	9
138	0
142	0
143	3
144	7
145	1
149	3
155	0
156	4
157	0
165	1
168	1
176	0
177	0
179	0
184	4
189	3
191	1
196	1
197	0
206	0
207	1
209	0
215	0
216	0
217	17
218	2
233	0
234	2
235	0
320	1
353	266
354	58
355	9
469	2
