Mass Spectrum: (E)-2,6-Dimethyl-2,7-octadiene-1,6-diol, 1-O-(.beta.-d-glucopyranoside tetraacetate)
Formula: C24H36O11
CAS: 113531-02-5
Molecular weight: 500
m/z	intensity
41	380
43	999
55	440
67	410
68	300
69	340
71	380
81	350
82	310
93	300
95	150
96	270
97	240
103	110
107	160
109	430
110	240
115	170
127	180
134	80
135	100
139	150
152	180
169	340
331	30
