Mass Spectrum: CAPS
Formula: C9H19NO3S
CAS: 1135-40-6
Molecular weight: 221
m/z	intensity
12	2
13	2
14	6
15	36
16	12
17	2
18	7
24	4
25	6
26	78
27	293
28	297
29	157
30	531
31	20
32	32
33	7
34	19
35	3
36	40
37	12
38	31
39	343
40	81
41	834
42	214
43	140
44	66
45	5
46	4
47	2
48	301
49	3
50	34
51	85
52	45
53	159
54	488
55	638
56	741
57	111
58	96
59	29
60	121
61	5
62	7
63	16
64	763
65	40
66	39
67	408
68	260
69	104
70	135
71	16
72	5
73	5
74	7
75	10
76	10
77	173
78	38
79	93
80	194
81	327
82	384
83	304
84	92
85	11
86	3
87	3
88	4
89	11
90	5
91	30
92	16
93	49
94	459
95	100
96	999
97	95
98	543
99	76
100	3
101	3
102	11
103	13
104	77
105	56
106	58
107	29
108	266
109	155
110	170
111	60
112	420
113	35
114	3
115	14
116	8
117	12
118	14
119	7
120	25
121	4
122	113
123	46
124	30
125	6
126	5
127	6
128	35
129	20
130	164
131	99
132	56
133	48
134	37
135	41
136	191
137	213
138	60
139	224
140	36
141	179
142	17
143	5
144	9
145	3
146	3
147	6
148	5
149	4
150	2
151	2
152	12
153	4
154	2
155	2
156	2
157	2
158	5
159	6
160	57
161	8
162	5
163	2
164	4
165	12
166	5
167	6
168	4
169	4
170	4
171	7
172	3
173	3
174	2
175	2
176	10
177	2
178	619
179	56
180	33
181	4
182	6
183	3
184	3
185	4
186	5
187	6
188	3
189	2
190	2
191	2
192	31
193	5
194	3
195	1
198	1
199	1
200	2
201	3
202	2
203	6
204	3
205	1
206	2
207	1
214	1
215	4
216	1
217	2
218	4
219	5
220	9
221	51
222	9
223	3
224	1
