Mass Spectrum: d-Mannitol, 1-O-octyl-
Formula: C14H30O6
CAS: 113676-51-0
Molecular weight: 294
m/z	intensity
25	0
26	5
27	77
28	17
29	147
30	4
31	74
33	0
38	1
39	36
40	28
41	240
42	54
43	330
44	71
45	113
46	4
47	4
49	3
50	1
51	2
52	0
53	15
54	9
55	143
56	63
57	525
58	33
59	10
60	69
61	265
62	10
63	3
65	3
66	3
67	18
68	14
69	138
70	41
71	533
72	29
73	999
74	130
75	71
76	3
77	6
78	1
79	5
80	3
81	14
82	19
83	45
84	29
85	124
86	43
87	46
88	8
89	11
90	1
91	131
92	5
93	3
94	1
95	7
96	3
97	29
98	12
99	22
100	4
101	4
103	640
104	51
105	23
106	1
107	1
108	1
109	3
110	29
111	115
112	43
113	99
114	12
115	96
116	21
117	40
118	2
119	2
120	0
121	12
122	1
123	3
124	3
125	2
126	1
127	4
128	4
129	28
130	5
131	8
132	3
133	240
134	15
135	3
137	8
138	1
139	2
140	2
141	42
142	6
143	53
144	6
145	2
146	18
147	7
148	0
149	5
150	1
151	1
153	1
155	3
156	2
157	1
158	5
159	2
161	0
165	4
167	2
168	1
169	1
171	1
172	1
173	61
174	6
179	1
183	2
185	61
186	18
187	3
197	10
198	2
203	51
204	6
205	0
215	8
216	1
227	2
228	0
233	39
234	5
245	32
246	4
247	0
258	1
277	0
295	6
296	0
