Mass Spectrum: Pentalene, 1,2,4,5,6,6a-hexahydro-2-methylene-
Formula: C9H12
CAS: 113679-72-4
Molecular weight: 120
m/z	intensity
26	20
27	107
29	2
30	8
34	2
36	0
37	3
38	27
39	239
40	0
41	78
42	6
50	39
51	120
52	56
53	71
54	3
55	7
58	36
59	4
61	11
62	14
63	63
64	15
65	104
66	32
69	2
73	10
74	13
75	16
76	10
77	168
78	119
79	278
80	23
84	1
86	3
87	6
88	5
89	30
90	24
91	784
92	999
93	96
94	6
96	2
101	11
102	15
103	46
104	20
105	297
106	28
107	4
112	4
115	30
116	15
117	26
118	14
119	92
120	426
121	37
