Mass Spectrum: 4H-1,3-Dioxino[4,5-c]pyridine-5-methanol, 2,2,8-trimethyl-
Formula: C11H15NO3
CAS: 1136-52-3
Molecular weight: 209
m/z	intensity
33	207
36	19
39	381
40	124
43	999
51	288
52	154
53	169
54	70
55	59
56	7
57	10
59	106
63	36
65	112
66	60
67	76
68	18
69	7
77	52
78	28
79	32
80	59
81	43
82	56
92	21
94	219
95	38
96	8
97	12
104	12
106	104
107	18
108	27
120	31
122	132
123	92
124	17
134	8
136	21
150	80
151	78
152	110
153	8
194	34
209	77
210	8
