Mass Spectrum: 2-Isoxazoline, 4-bromo-5,5-dimethyl-4-nitro-3-phenyl-
Formula: C11H11BrN2O3
CAS: 113639-44-4
Molecular weight: 298
m/z	intensity
33	4
34	3
36	5
37	10
39	180
40	57
41	95
43	999
44	30
45	5
46	15
50	102
51	194
52	37
53	19
54	10
55	7
56	4
58	42
59	9
62	60
63	109
64	33
65	51
66	5
67	2
68	3
69	13
70	35
71	39
74	56
75	67
76	96
77	465
78	50
79	18
80	29
81	15
82	27
83	0
84	3
85	3
86	15
87	31
88	29
89	65
91	71
92	8
93	7
94	1
95	3
98	12
99	9
100	7
101	32
102	69
103	149
104	123
105	82
106	7
107	4
108	2
109	4
110	2
111	2
112	1
113	10
115	203
116	33
117	26
118	4
119	14
120	5
121	8
122	1
123	6
126	45
127	107
128	253
129	56
130	315
131	633
132	123
133	9
134	1
135	0
136	0
137	0
139	13
141	83
142	30
143	116
144	25
145	10
146	1
147	0
149	1
151	0
154	0
155	0
156	4
158	50
159	11
160	1
161	3
162	0
168	0
169	0
170	1
171	3
172	13
173	21
174	12
175	0
180	1
181	0
182	1
183	2
184	0
185	2
188	5
189	6
190	0
193	0
194	1
195	6
196	2
197	5
204	13
205	2
208	32
210	725
212	734
213	57
214	2
220	4
222	4
224	3
237	0
238	0
239	0
250	1
252	132
254	137
255	13
256	0
298	7
300	8
301	0
