Mass Spectrum: 2,3,4-Tri-O-methyl-d-galactopyranose
Formula: C9H18O6
CAS: 1136-20-5
Molecular weight: 222
m/z	intensity
45	319
55	97
57	97
59	70
61	21
69	61
71	106
73	226
74	32
75	523
85	61
87	57
88	999
89	75
99	9
101	678
102	49
111	27
113	21
115	20
117	17
127	14
129	15
130	5
131	23
141	9
144	14
145	27
149	12
161	12
173	17
176	27
205	6
