Mass Spectrum: 1,2,3-Trimethyldiaziridine
Formula: C4H10N2
CAS: 113604-56-1
Molecular weight: 86
m/z	intensity
27	85
28	425
29	65
30	335
31	72
32	74
41	64
42	999
43	205
44	145
45	31
55	51
56	721
57	493
58	41
59	21
71	489
72	25
85	229
86	115
87	6
