Mass Spectrum: Butanoic acid, 2-nitro-4-(phenylamino)-, 2,6-bis(1,1-dimethylethyl)-4-methoxyphenyl ester
Formula: C25H34N2O5
CAS: 113719-07-6
Molecular weight: 442
m/z	intensity
27	22
29	34
30	11
38	3
39	36
40	6
41	109
42	8
43	22
45	5
50	8
51	42
52	10
53	18
54	5
55	102
56	6
57	210
58	9
59	14
64	5
65	30
66	11
67	26
68	5
69	28
70	4
71	2
73	72
74	4
75	4
76	7
77	181
78	41
79	85
80	8
81	11
83	11
85	2
90	3
91	67
92	15
93	40
94	9
95	10
98	3
99	3
102	3
103	16
104	58
105	63
106	999
107	97
108	7
109	9
110	2
113	4
115	19
116	9
117	29
118	21
119	49
120	13
121	30
122	11
123	9
124	5
125	4
127	6
129	16
130	25
131	21
132	62
133	89
134	16
135	39
136	9
137	20
138	3
139	5
142	3
143	6
144	7
145	54
146	18
147	23
148	9
149	30
150	9
151	21
152	3
153	3
157	3
158	4
159	12
160	53
161	179
162	36
163	30
164	25
165	17
166	2
171	3
173	8
174	4
175	33
176	6
177	34
178	7
179	41
180	7
181	2
187	2
188	3
189	18
190	4
192	2
193	10
203	7
204	2
205	39
206	6
207	27
219	13
220	19
221	234
222	41
223	4
233	3
234	5
235	32
236	986
237	145
238	17
247	2
257	2
275	3
290	2
339	1
340	1
427	1
442	59
443	22
444	4
