Mass Spectrum: Cyclopropanecarboxylic acid, 2,4,6-tri-t-butyl-phenyl ester
Formula: C22H34O2
CAS: 113719-02-1
Molecular weight: 330
m/z	intensity
41	45
58	6
60	6
61	6
69	999
70	61
219	6
231	19
247	155
248	25
262	317
263	85
264	7
273	4
315	7
330	74
331	21
