Mass Spectrum: 3,5-Dimethyl-1-octylpyrazole
Formula: C13H24N2
CAS: 1138-46-1
Molecular weight: 208
m/z	intensity
26	19
27	90
28	163
29	109
39	98
40	32
41	292
42	150
43	75
52	11
53	38
54	37
55	148
56	48
57	20
65	22
66	21
67	33
68	54
69	80
70	14
79	17
80	22
81	26
82	30
83	16
94	10
95	115
96	435
97	197
98	13
108	28
109	999
110	244
111	19
123	50
124	82
137	41
138	13
151	185
152	25
165	166
166	24
179	50
193	37
207	19
208	134
209	23
