Mass Spectrum: N'-(.alpha.-Methylfurfurylidene)benzohydrazide
Formula: C13H12N2O2
CAS: 113906-38-0
Molecular weight: 228
m/z	intensity
37	6
38	20
39	185
40	57
41	31
42	17
43	11
44	11
49	25
51	171
53	10
54	18
55	8
56	6
62	6
63	10
64	31
65	48
66	36
68	7
74	9
77	473
78	18
81	6
82	9
90	8
93	24
94	28
95	17
103	18
105	999
118	11
121	7
122	5
125	7
134	13
135	9
151	6
170	12
199	5
211	7
213	43
228	182
229	19
