Mass Spectrum: Caryophyllene oxide
Formula: C15H24O
CAS: 1139-30-6
Molecular weight: 220
m/z	intensity
27	282
28	18
29	265
30	6
31	12
38	4
39	307
40	61
41	927
42	59
43	999
44	41
45	24
50	10
51	56
52	41
53	260
54	58
55	393
56	77
57	56
58	31
59	15
63	13
64	6
65	130
66	61
67	377
68	100
69	407
70	40
71	164
72	20
77	349
78	101
79	885
80	136
81	373
82	165
83	161
84	40
85	66
86	6
91	573
92	109
93	661
94	175
95	420
96	265
97	65
98	13
99	8
103	21
104	17
105	265
106	291
107	318
108	129
109	354
110	229
111	91
112	10
115	15
116	10
117	35
118	22
119	144
120	137
121	253
122	71
123	164
124	39
125	31
126	14
127	37
128	7
129	7
130	4
131	62
132	23
133	85
134	79
135	110
136	70
137	67
138	102
139	22
140	7
145	29
146	25
147	69
148	30
149	93
150	21
151	43
152	14
153	6
159	41
160	14
161	66
162	31
163	43
164	35
165	24
166	6
167	9
173	7
174	6
175	5
176	40
177	67
178	13
179	4
187	23
188	5
191	11
192	13
193	3
202	6
205	29
206	6
220	65
221	12
