Mass Spectrum: 1,1-Cyclohexanedicarboxylic acid, diethyl ester
Formula: C12H20O4
CAS: 1139-13-5
Molecular weight: 228
m/z	intensity
26	23
27	257
28	17
29	588
30	13
31	21
39	140
40	35
41	233
42	26
43	80
45	34
50	8
51	22
52	20
53	133
54	106
55	127
56	20
57	31
60	11
61	7
65	23
66	24
67	242
68	41
69	50
70	8
71	11
73	26
77	46
78	11
79	140
80	130
81	999
82	105
83	55
85	16
86	9
87	7
88	15
91	12
94	10
95	21
97	19
98	8
99	50
101	11
107	7
108	114
109	229
110	79
111	26
112	18
113	7
115	12
125	75
126	50
127	148
128	88
129	8
136	71
137	20
140	19
141	14
145	9
149	9
153	7
154	165
155	213
156	79
157	7
160	167
161	15
173	380
174	35
182	55
183	91
184	10
186	9
228	15
229	8
