Mass Spectrum: N'-(2-Furylmethylene)-2-phenylacethydrazide
Formula: C13H12N2O2
CAS: 113906-59-5
Molecular weight: 228
m/z	intensity
36	1
37	29
38	77
39	311
40	34
41	53
42	16
43	18
44	20
45	10
48	0
49	6
50	90
51	183
52	220
53	71
54	74
55	38
56	5
57	5
60	0
61	5
62	25
63	87
64	36
65	293
66	29
67	4
68	7
69	5
70	0
73	0
74	5
75	5
76	4
77	14
78	7
79	19
80	28
81	154
82	16
83	7
84	8
85	0
86	4
87	2
88	1
89	75
90	59
91	999
92	381
93	38
94	28
95	11
96	4
102	0
103	0
104	3
105	2
106	3
107	1
109	69
110	474
111	30
112	1
115	3
116	2
117	4
118	39
119	7
120	1
121	0
123	1
124	7
127	2
128	7
129	2
130	0
131	1
133	0
134	26
135	86
136	9
137	12
141	1
143	1
151	0
152	0
153	1
170	0
171	0
184	0
185	3
199	1
228	137
229	20
230	1
