Mass Spectrum: Isolongifolan-8-ol
Formula: C15H26O
CAS: 1139-08-8
Molecular weight: 222
m/z	intensity
26	32
27	300
28	35
29	413
30	12
31	65
39	266
40	56
41	999
42	60
43	398
44	37
45	21
50	9
51	54
52	25
53	202
54	35
55	505
56	106
57	156
58	14
59	44
63	15
64	9
65	99
66	53
67	328
68	41
69	371
70	82
71	58
77	194
78	47
79	279
80	58
81	318
82	134
83	172
84	41
85	80
86	8
91	282
92	66
93	224
94	105
95	292
96	91
97	73
98	22
99	28
103	19
104	14
105	234
106	65
107	277
108	128
109	307
110	117
111	83
112	26
113	14
115	18
116	11
117	29
119	152
120	58
121	144
122	75
123	365
124	66
125	100
126	9
129	10
131	19
133	188
134	38
135	132
136	31
137	288
138	198
139	39
145	17
147	83
148	60
149	63
150	17
151	200
152	36
153	20
161	204
162	38
163	48
164	20
165	60
166	868
167	107
168	10
173	11
175	47
176	18
178	10
179	50
180	10
189	388
190	64
191	9
193	33
194	17
204	44
205	9
207	904
208	147
209	17
222	386
223	65
