Mass Spectrum: 3-Pyridinecarboxamide, N-methyl-
Formula: C7H8N2O
CAS: 114-33-0
Molecular weight: 136
m/z	intensity
14	13
15	69
16	5
25	4
26	27
27	38
28	155
29	9
30	46
31	1
32	7
36	1
37	15
38	22
39	32
40	5
41	4
42	3
43	3
44	20
45	1
48	2
49	28
50	180
51	479
52	107
53	40
54	5
55	1
56	2
58	89
59	2
61	2
62	3
63	4
64	5
65	7
66	5
67	3
74	1
75	16
76	27
77	39
78	999
79	134
80	23
81	7
91	2
92	6
93	20
94	3
104	3
105	13
106	820
107	80
108	9
109	1
117	1
119	8
134	9
135	631
136	514
137	41
138	3
