Mass Spectrum: 9,11-Dodecadien-1-ol
Formula: C12H22O
CAS: 114073-59-5
Molecular weight: 182
m/z	intensity
25	0
26	10
27	158
28	47
29	198
30	9
31	293
33	2
37	1
38	6
39	241
40	48
41	740
42	79
43	196
44	28
45	30
46	0
50	7
51	28
52	27
53	155
54	721
55	670
56	82
57	109
58	14
59	7
60	0
61	0
62	1
63	6
64	2
65	93
66	99
67	999
68	708
69	200
70	52
71	64
72	8
73	15
74	1
75	2
76	0
77	76
78	29
79	409
80	360
81	576
82	324
83	91
84	41
85	27
86	8
87	2
89	0
91	41
92	10
93	181
94	126
95	232
96	156
97	72
98	70
99	11
100	14
101	2
102	0
103	1
104	0
105	7
106	3
107	87
108	60
109	97
110	44
111	35
112	20
113	3
114	4
115	1
117	0
118	0
119	3
120	2
121	94
122	38
123	29
124	7
125	10
126	6
127	3
128	0
129	0
131	0
133	3
134	1
135	60
136	18
137	7
138	13
139	7
140	3
141	1
142	0
143	1
145	0
147	1
149	8
150	1
151	5
152	1
153	2
154	0
155	0
162	1
163	1
164	55
165	9
166	4
167	2
168	0
169	1
171	0
177	0
178	0
179	0
180	3
181	0
182	80
183	11
184	1
