Mass Spectrum: Acetyl turicine
Formula: C9H15NO4
CAS: 114098-21-4
Molecular weight: 201
m/z	intensity
41	123
42	529
43	134
44	360
45	121
46	11
47	3
48	0
49	8
50	14
51	18
52	16
53	37
54	40
55	156
56	77
57	130
58	999
59	52
60	3
61	0
62	0
63	2
64	2
65	10
66	8
67	52
68	46
69	19
70	64
71	53
72	139
73	20
74	5
75	0
77	7
78	6
79	8
80	32
81	45
82	410
83	63
84	83
85	10
86	23
87	21
88	9
89	1
90	0
91	7
92	5
93	5
94	40
95	10
96	40
97	77
98	29
99	4
100	498
101	45
102	15
103	2
104	1
105	2
106	5
107	14
108	10
109	4
110	4
111	2
112	3
113	4
114	20
115	9
116	5
117	2
118	2
119	2
120	10
121	2
122	8
123	2
124	5
125	5
126	6
127	10
128	3
129	2
130	1
131	1
132	8
133	2
134	11
135	5
136	3
137	2
138	3
139	4
140	3
141	36
142	13
143	3
144	2
145	7
146	6
147	1
148	2
149	1
150	2
151	3
152	3
153	1
154	0
155	2
156	1
157	0
158	2
159	25
160	6
161	1
162	0
165	1
166	1
167	0
184	0
186	0
199	0
200	3
201	1
202	0
