Mass Spectrum: 4-(Hydroxy-phenyl-methyl)-5-methyl-2-phenyl-4,5-dihydro-oxazole-4-carboxylic acid, methyl ester
Formula: C19H19NO4
CAS: 114041-62-2
Molecular weight: 325
m/z	intensity
28	4
29	23
30	7
31	29
33	3
37	8
38	11
39	31
41	7
42	2
43	36
45	4
49	9
50	69
51	178
52	35
53	6
54	16
55	9
56	3
57	78
58	3
59	17
61	4
62	8
63	20
64	4
65	4
73	5
74	25
75	17
76	32
77	581
78	81
79	49
80	3
83	3
87	3
88	3
89	28
90	10
91	16
102	4
103	13
104	61
105	999
106	387
107	53
108	4
114	140
115	13
116	32
117	16
118	8
119	4
120	3
121	3
130	4
131	4
132	48
133	6
144	8
145	4
146	2
147	4
148	2
149	6
158	3
159	12
160	386
161	52
162	6
172	14
173	2
174	11
175	3
176	45
177	6
186	4
187	138
188	21
201	3
204	16
218	13
219	292
220	42
221	4
222	2
249	4
266	11
267	2
281	17
282	3
326	2
