Mass Spectrum: 1,3-Dioxolane-4,5-dimethanol, .alpha.,.alpha.,.alpha.',.alpha.'-tetraphenyl-2-(2,4,6-trimethylphenyl)-, [4R-(2.alpha.,4.alpha.,5.beta.)]-
Formula: C38H36O4
CAS: 114026-75-4
Molecular weight: 556
m/z	intensity
25	2
27	13
28	2
29	7
30	1
31	1
38	3
39	18
40	3
41	22
42	3
43	9
44	3
45	5
49	1
50	11
51	43
52	7
53	7
54	2
55	9
56	2
57	8
58	2
59	1
60	4
61	2
62	4
63	11
64	3
65	17
66	3
67	4
68	2
69	4
70	3
71	7
72	1
73	3
74	5
75	6
76	13
77	265
78	42
79	27
80	2
81	3
82	2
83	5
84	2
85	3
86	1
87	3
88	2
89	8
90	10
91	78
92	9
93	9
94	3
95	2
96	2
97	3
98	3
99	1
100	1
101	2
102	15
103	25
104	14
105	999
106	109
107	18
108	1
111	2
115	23
116	8
117	33
118	15
119	93
120	21
121	80
122	10
123	2
124	1
125	1
126	2
127	4
128	7
129	5
130	8
131	17
132	18
133	54
134	7
135	5
136	1
137	1
138	1
139	5
140	1
141	3
142	1
143	1
144	1
145	9
146	9
147	261
148	78
149	981
150	144
151	15
152	34
153	12
154	4
155	3
156	0
157	1
158	1
159	3
160	6
161	5
162	3
163	9
164	7
165	59
166	38
167	116
168	21
169	2
170	1
171	0
172	0
173	1
174	2
175	14
176	6
177	9
178	53
179	71
180	20
181	13
182	21
183	255
184	50
185	5
186	0
187	0
188	1
189	10
190	18
191	57
192	10
193	3
194	4
195	26
196	40
197	28
198	4
199	0
205	0
206	2
207	112
208	116
209	37
210	6
211	1
212	0
213	0
222	2
223	2
225	52
226	15
227	2
235	0
236	0
238	0
239	0
240	0
241	0
242	0
243	0
251	0
252	1
253	0
254	0
255	0
256	0
265	1
266	0
267	2
268	1
269	14
270	4
271	1
283	0
284	0
285	1
286	0
287	0
295	0
296	2
297	1
298	1
299	1
300	0
301	0
311	0
312	0
313	2
314	9
315	2
316	0
326	0
327	14
328	4
329	1
330	0
331	8
332	2
333	0
341	0
342	0
343	2
344	1
345	0
346	0
357	0
358	0
362	1
363	0
368	0
369	0
373	214
374	64
375	11
376	1
377	0
391	2
392	0
393	0
408	0
541	2
542	1
543	0
554	0
555	11
556	34
557	13
558	3
559	0
