Mass Spectrum: 1,4,7,10,13,16-Hexaoxacyclononadecane, 18-(1,4,7,10,13-pentaoxacyclohexadec-15-yl)-
Formula: C24H46O11
CAS: 114014-94-7
Molecular weight: 510
m/z	intensity
54	100
55	180
57	170
58	250
59	280
67	150
69	140
71	150
72	130
73	650
78	100
83	170
86	100
87	370
88	150
89	999
95	100
96	160
97	210
101	100
103	130
105	180
133	400
177	140
272	100
316	100
