Mass Spectrum: 1,2-Ethanediol, 1,2-di-2-pyridinyl-
Formula: C12H12N2O2
CAS: 1141-05-5
Molecular weight: 216
m/z	intensity
17	2
18	2
26	1
27	10
28	3
29	1
38	1
39	5
41	1
50	5
51	21
52	32
53	38
54	2
63	2
64	4
65	6
66	1
76	1
77	1
78	113
79	58
80	53
81	3
91	2
92	9
93	3
104	2
106	38
107	10
108	472
109	999
110	72
111	4
120	10
121	1
138	5
168	2
169	16
170	3
171	1
181	4
182	1
197	1
198	4
199	5
214	1
216	10
217	1
