Mass Spectrum: 1,5-Dithiaspiro[5.5]undecane-2-pentanoic acid, 10-methyl-7-(1-methylethyl)-, 1-oxide, [1R-[1.alpha.,2.beta.,6.beta.(7S*,10R*)]]-
Formula: C18H32O3S2
CAS: 114113-97-2
Molecular weight: 360
m/z	intensity
26	16
27	139
28	18
29	156
30	8
31	36
33	8
34	11
35	12
36	10
37	6
38	8
39	122
40	23
41	534
42	51
43	400
44	23
45	110
46	10
47	68
48	16
49	154
50	10
51	46
52	16
53	136
54	40
55	531
56	63
57	151
59	60
60	49
61	57
62	7
63	30
64	8
65	70
66	26
67	304
68	58
69	300
70	43
71	79
72	13
73	80
74	16
75	30
76	9
77	135
78	32
79	252
80	67
81	999
82	138
83	113
84	108
85	111
86	63
87	100
88	18
89	44
90	7
91	139
92	39
93	323
94	87
95	737
96	115
97	68
98	20
99	91
100	26
101	52
102	10
103	15
104	10
105	58
106	21
107	97
108	21
109	76
110	26
111	78
112	38
113	124
114	54
115	35
116	8
117	16
118	7
119	29
120	10
121	152
122	28
123	212
124	34
125	88
126	38
127	129
128	80
129	50
130	11
131	13
132	5
133	19
134	10
135	70
136	60
137	685
138	216
139	73
140	25
141	95
142	23
143	16
144	11
145	33
146	7
147	10
148	5
149	57
150	8
151	18
152	7
153	54
154	17
155	112
156	21
157	27
158	7
159	45
160	9
161	56
162	9
163	15
164	4
165	17
166	16
167	90
168	60
169	223
170	261
171	55
172	25
173	67
174	17
175	8
176	3
177	10
178	4
179	10
180	4
181	10
182	8
183	22
184	11
185	10
186	10
187	72
188	31
189	53
190	55
191	16
192	5
193	5
195	20
196	10
197	9
199	5
201	4
202	14
203	7
205	645
206	116
207	76
208	14
209	15
210	4
211	5
219	7
221	5
223	490
224	57
225	55
226	7
227	9
239	5
240	4
241	5
259	40
260	9
261	8
265	7
267	13
268	5
269	7
281	5
287	5
295	15
296	5
297	7
299	22
300	6
301	30
302	9
303	5
308	5
309	7
310	28
311	18
312	12
313	6
327	6
329	17
330	6
331	4
340	5
342	38
343	58
344	103
345	27
346	13
347	5
360	136
361	32
362	18
363	5
