Mass Spectrum: N(1)-(3-Methyl-1,2,4-oxadiazol-5-yl)-4-morpholinecarboxamidine
Formula: C8H13N5O2
CAS: 114212-84-9
Molecular weight: 211
m/z	intensity
12	2
13	2
14	14
15	211
16	4
17	5
18	7
25	3
26	47
27	230
28	481
29	178
30	404
31	52
32	2
37	1
38	10
39	24
40	73
41	177
42	600
43	721
44	354
45	103
46	8
48	1
50	2
51	3
52	15
53	146
54	125
55	497
56	598
57	999
58	192
59	56
60	6
61	1
65	2
66	8
67	35
68	185
69	593
70	129
71	58
72	129
73	16
74	3
77	1
79	9
80	8
81	26
82	86
83	415
84	193
85	428
86	885
87	164
88	43
89	2
90	2
91	2
92	5
93	4
94	9
95	18
96	93
97	192
98	116
99	173
100	378
101	23
102	3
107	2
108	3
109	18
110	45
111	93
112	402
113	369
114	67
115	9
116	1
119	1
120	1
121	3
122	8
123	45
124	87
125	672
126	150
127	205
128	21
129	16
130	3
132	1
133	1
134	1
135	9
136	8
137	7
138	20
139	48
140	302
141	52
142	34
143	11
144	1
148	5
149	5
150	2
151	5
152	59
153	205
154	429
155	51
156	56
157	5
158	1
159	1
160	1
162	5
163	9
164	35
165	5
166	94
167	25
168	108
169	24
170	66
171	7
172	2
177	6
178	3
179	10
180	31
181	90
182	13
183	42
184	4
185	1
192	4
193	2
194	62
195	9
196	6
197	1
209	1
210	64
211	866
212	132
213	12
214	1
