Mass Spectrum: Benzeneethanol, .beta.-1-octynyl-
Formula: C16H22O
CAS: 114274-97-4
Molecular weight: 230
m/z	intensity
26	139
27	16
29	190
31	97
39	115
40	14
41	333
42	21
43	246
50	25
51	109
52	25
53	48
55	186
56	14
57	31
63	48
65	58
66	12
67	93
69	108
71	12
75	23
76	26
77	143
78	49
79	69
81	67
83	36
89	35
91	727
92	61
93	30
95	229
96	48
101	18
102	98
103	57
104	69
105	129
107	34
109	35
113	34
115	371
116	61
117	308
118	40
119	20
121	21
126	24
127	139
128	475
129	628
130	999
131	242
132	24
139	22
141	103
142	59
143	175
144	38
145	27
152	14
153	17
155	43
157	96
158	47
159	14
160	22
165	12
169	12
171	65
183	10
199	107
200	265
201	43
214	6
215	10
230	4
