Mass Spectrum: N(1)-(3-Phenyl-1,2,4-oxadiazol-5-yl)-1-pyrrolidinecarboxamidine
Formula: C13H15N5O
CAS: 114212-81-6
Molecular weight: 257
m/z	intensity
15	8
26	6
27	36
28	71
29	29
30	120
31	2
37	6
38	10
39	60
40	12
41	99
42	104
43	257
44	45
45	3
49	3
50	40
51	81
52	18
53	38
54	10
55	131
56	33
57	6
58	2
59	1
61	2
62	9
63	24
64	25
65	11
66	4
67	9
68	112
69	429
70	999
71	84
72	46
73	4
74	10
75	18
76	75
77	145
78	16
79	3
80	2
81	2
82	77
83	64
84	53
85	119
86	62
87	4
88	4
89	9
90	5
91	34
92	17
93	9
94	4
95	37
96	34
97	100
98	51
99	40
100	3
101	1
102	7
103	243
104	95
105	9
106	1
109	6
110	89
111	85
112	163
113	30
114	4
115	2
116	1
117	7
118	59
119	184
120	35
121	7
122	1
123	4
124	40
125	5
126	83
127	17
128	27
129	10
130	14
131	5
132	1
133	1
136	2
137	28
138	51
139	12
140	80
141	7
143	2
144	4
145	54
146	16
147	13
148	1
152	5
153	126
154	76
155	6
156	3
157	1
159	4
160	11
161	301
162	60
163	6
164	1
171	1
172	4
173	2
174	2
175	1
184	1
185	2
186	17
187	69
188	18
189	44
190	5
195	1
200	1
201	2
202	2
203	2
204	1
211	1
212	2
213	5
214	5
215	4
216	2
225	1
228	23
229	56
230	9
234	1
241	3
242	1
255	1
256	5
257	613
258	105
259	9
260	1
