Mass Spectrum: 2,5-Diisopropyl-1,3-oxathiane
Formula: C10H20OS
CAS: 114288-77-6
Molecular weight: 188
m/z	intensity
51	6
53	42
54	33
55	458
56	67
57	42
58	8
59	50
60	58
61	42
62	8
65	7
67	58
68	17
69	4
70	83
71	25
72	10
73	125
74	83
75	83
76	7
77	6
80	19
81	27
82	999
83	83
84	8
86	50
87	18
88	8
101	67
102	4
103	22
115	15
117	14
127	17
145	667
146	83
147	54
148	4
149	11
188	117
189	15
190	7
