Mass Spectrum: L-Alanine, N-[(phenylmethoxy)carbonyl]-
Formula: C11H13NO4
CAS: 1142-20-7
Molecular weight: 223
m/z	intensity
12	2
13	2
14	8
15	43
16	2
18	2
25	3
26	27
27	66
28	325
29	29
30	2
31	16
32	1
36	1
37	9
38	20
39	78
40	24
41	37
42	111
43	364
44	71
45	15
49	5
50	49
51	124
52	35
53	27
54	7
55	9
56	9
57	1
60	1
61	6
62	12
63	36
64	10
65	101
66	7
67	1
68	1
69	1
70	47
71	24
72	3
73	5
74	19
75	9
76	9
77	269
78	66
79	662
80	69
81	4
85	1
86	2
87	4
88	49
89	59
90	78
91	791
92	74
93	3
105	26
106	10
107	498
108	999
109	77
110	4
114	1
115	17
116	1
132	6
134	30
135	3
178	9
179	2
180	1
223	18
224	2
