Mass Spectrum: 1-Butyn-4-ol, 1,3-bis(trimethylsilyl)-
Formula: C10H22OSi2
CAS: 114275-04-6
Molecular weight: 214
m/z	intensity
26	1
27	8
28	31
29	19
30	1
31	17
39	13
40	4
41	13
42	6
43	100
44	91
45	132
46	8
47	34
48	1
49	1
50	2
51	5
52	1
53	25
54	3
55	25
56	2
57	13
58	14
59	48
60	6
61	18
62	2
63	8
65	5
66	9
67	23
68	4
69	20
70	3
71	8
72	10
73	751
74	59
75	401
76	28
77	20
78	2
79	13
80	1
81	10
82	5
83	46
84	4
85	14
86	1
87	2
89	1
90	1
91	18
92	2
93	23
94	2
95	12
96	8
97	30
98	8
99	56
100	5
101	16
102	1
103	5
104	1
105	3
106	1
107	9
108	7
109	999
110	106
111	116
112	11
113	5
115	4
116	2
117	10
118	1
119	1
121	3
122	3
123	11
124	255
125	46
126	14
127	4
128	1
129	2
131	19
132	8
133	9
135	1
137	1
139	1
140	5
141	45
142	6
143	4
144	1
145	1
147	201
148	36
149	27
150	3
151	1
152	4
153	14
154	4
155	25
156	3
157	10
158	1
159	4
165	3
167	3
168	3
169	4
170	0
171	4
173	0
174	1
176	1
179	21
180	4
181	35
182	7
183	17
184	2
185	2
191	1
194	3
195	1
196	29
197	7
198	3
199	2
213	6
214	6
215	0
