Mass Spectrum: 3,5-Dinitrobenzoic acid, 2,4-bis(trimethylsilyl)but-3-ynyl ester
Formula: C17H24N2O6Si2
CAS: 114275-09-1
Molecular weight: 408
m/z	intensity
26	0
27	3
28	1
29	7
30	11
31	4
35	0
38	1
39	3
40	0
41	3
42	2
43	44
44	15
45	95
46	8
47	3
49	0
50	2
51	1
52	0
53	8
54	1
55	11
56	2
57	8
58	9
59	17
60	1
61	2
62	6
63	11
64	2
65	2
66	2
67	10
68	1
69	10
70	3
71	3
72	12
73	999
74	104
75	187
76	13
77	3
78	0
79	9
80	1
81	7
82	1
83	29
84	4
85	5
86	2
87	0
88	0
89	1
90	1
91	5
92	0
93	12
94	2
95	8
96	5
97	19
98	2
99	4
100	0
101	1
102	1
103	23
104	3
105	2
106	1
107	6
108	6
109	640
110	72
111	26
112	1
113	1
114	0
115	1
116	0
117	1
118	0
119	3
120	4
121	4
122	1
123	5
124	340
125	46
126	13
127	1
128	0
129	1
130	0
131	2
132	1
133	10
134	2
135	2
136	0
137	1
138	0
139	1
140	1
141	5
142	1
143	1
145	0
147	17
148	4
149	54
150	5
151	1
152	0
153	6
154	1
155	18
156	3
157	3
158	0
159	0
160	0
161	0
162	0
163	1
164	1
165	3
166	0
167	3
168	1
169	2
170	0
171	1
172	0
173	0
174	0
175	0
176	1
177	36
178	7
179	21
180	2
181	11
182	2
183	3
184	0
185	1
186	0
187	0
188	0
189	0
190	0
191	1
192	0
193	1
194	1
195	43
196	10
197	5
198	1
199	0
200	0
201	0
202	0
203	0
204	0
205	0
206	0
207	0
208	0
209	0
210	0
212	0
213	11
214	2
215	1
216	0
217	0
218	0
219	0
220	0
221	0
222	1
223	34
224	6
225	4
226	0
227	0
228	0
229	0
230	0
231	0
232	0
235	0
236	0
237	0
238	0
239	4
240	48
241	7
242	2
243	0
244	0
245	0
247	0
251	3
252	2
253	21
254	6
255	1
256	0
257	0
258	0
259	7
260	1
261	1
262	0
263	0
264	0
265	0
266	0
267	0
268	16
269	195
270	27
271	9
272	0
273	0
274	0
275	0
276	0
277	0
279	0
280	0
281	0
282	0
283	0
284	0
285	0
286	0
288	0
289	2
290	0
291	0
295	2
296	0
297	2
298	0
299	0
303	0
305	43
306	7
307	2
308	0
309	0
311	0
312	0
313	0
314	0
320	23
321	4
322	1
323	0
335	0
336	0
337	0
342	0
343	0
344	0
351	0
352	0
353	0
360	0
364	0
377	0
378	0
393	11
394	3
395	1
408	6
409	1
410	0
