Mass Spectrum: 1-((1S,2R,3R)-2-(3-Isopropylfuran-2-yl)-3-methylcyclopentyl)ethanone
Formula: C15H22O2
CAS: 1143-46-0
Molecular weight: 234
m/z	intensity
15	1
40	6
41	181
42	28
43	999
44	25
53	29
57	21
60	2
67	65
71	112
72	6
73	4
79	76
81	307
87	4
88	4
91	231
95	134
97	31
98	7
99	2
101	3
107	158
108	68
109	535
110	267
111	164
112	13
113	3
114	2
115	80
116	38
117	59
118	21
119	182
121	285
122	93
123	518
124	81
125	17
127	15
128	34
129	39
130	22
131	135
132	36
133	200
134	50
135	243
136	45
137	80
139	12
141	7
142	7
143	18
144	10
145	72
147	113
149	466
150	172
153	5
155	2
156	6
157	8
158	6
159	57
161	94
163	628
164	217
165	26
167	1
169	1
171	5
172	2
173	46
174	12
175	33
176	76
177	45
178	13
179	70
181	1
184	1
186	2
188	5
189	78
190	24
191	364
192	55
193	7
195	1
200	1
201	58
202	18
207	2
216	9
217	3
218	3
219	99
233	3
234	525
235	90
236	8
237	1
