Mass Spectrum: Cyclopentanespiro-2'-bicyclo[1.1.0]butane-4'-spirocyclopentane
Formula: C12H18
CAS: 114310-66-6
Molecular weight: 162
m/z	intensity
41	220
53	110
65	100
67	260
77	230
79	999
80	360
91	490
92	160
93	430
94	720
95	130
105	190
119	230
120	120
121	100
133	360
134	120
162	730
163	96
