Mass Spectrum: 2,3-Dioxabicyclo[2.2.2]octane, 1,4-diphenyl-
Formula: C18H18O2
CAS: 114396-00-8
Molecular weight: 266
m/z	intensity
39	17
41	7
43	7
50	21
51	136
52	10
53	8
55	40
57	11
63	6
65	16
75	5
76	19
77	546
78	66
79	13
89	6
91	96
92	8
94	15
102	10
103	48
104	46
105	999
106	73
107	8
115	64
116	19
117	56
118	10
120	47
121	5
127	7
128	27
129	71
130	172
131	35
132	10
133	91
134	33
135	19
141	16
142	7
143	30
144	20
145	22
146	30
147	7
152	6
153	6
154	6
155	8
156	7
157	5
159	7
161	15
172	7
173	9
202	4
205	4
215	5
216	4
217	5
219	7
220	6
221	4
222	4
230	21
231	21
232	75
233	42
234	22
235	12
236	6
238	87
239	15
249	57
250	23
266	24
267	4
