Mass Spectrum: Phenethylaminophenylacetic acid
Formula: C16H17NO2
CAS: 114309-55-6
Molecular weight: 255
m/z	intensity
8	0
38	27
39	120
40	26
41	53
42	23
43	52
44	66
45	47
46	5
47	0
48	1
49	5
50	75
51	211
52	69
53	80
54	13
55	16
56	5
57	12
58	5
59	25
60	8
61	6
62	19
63	63
64	22
65	119
66	11
67	8
68	3
69	7
70	3
71	4
72	3
73	7
74	18
75	26
76	27
77	450
78	112
79	690
80	49
81	5
82	3
83	5
84	3
85	5
86	5
87	5
88	6
89	75
90	47
91	370
92	39
93	5
94	1
95	2
96	1
97	3
98	2
99	1
100	1
101	3
102	10
103	69
104	144
105	423
106	999
107	210
108	14
109	2
110	1
111	2
112	1
113	1
114	1
115	7
116	7
117	37
118	313
119	46
120	32
121	5
122	1
123	1
125	0
126	1
127	1
128	3
129	2
130	5
131	6
132	9
133	3
134	15
135	364
136	70
137	6
138	0
139	1
140	0
141	1
143	1
144	1
145	0
146	2
147	1
148	2
149	1
150	1
151	1
152	2
153	1
154	0
157	0
160	0
161	0
162	3
163	2
164	571
165	63
166	7
167	3
168	0
172	1
175	0
176	1
177	0
178	4
179	3
180	2
181	1
189	0
190	0
191	2
192	1
193	2
194	4
195	3
196	1
202	0
203	0
204	1
205	1
206	5
207	2
208	5
209	4
210	175
211	29
212	2
217	0
219	0
220	1
221	0
222	1
223	1
224	1
225	0
230	0
231	1
232	1
233	0
234	0
235	0
236	1
237	1
238	2
239	0
252	3
253	2
254	4
255	1
256	1
