Mass Spectrum: 3-Chlormethyl-2-phenyl-1.2.4.triazol
Formula: C9H8ClN3
CAS: 114370-76-2
Molecular weight: 193
m/z	intensity
12	22
13	12
14	38
15	14
16	154
17	287
18	53
26	107
27	77
28	106
29	98
30	20
31	12
32	18
35	12
37	40
38	94
39	181
40	75
41	139
42	48
43	94
44	61
45	12
48	14
49	60
50	134
51	325
52	94
53	48
54	20
55	86
56	37
57	141
61	32
62	31
63	174
64	260
65	134
66	21
67	17
68	12
69	50
70	64
71	64
72	11
73	17
74	35
75	35
76	80
77	237
78	48
79	18
81	24
82	27
83	34
84	25
85	14
88	18
89	17
90	54
91	999
92	75
93	51
94	15
95	30
96	12
97	37
98	24
99	11
101	11
102	10
103	25
104	24
105	12
107	27
108	10
109	11
110	12
111	20
112	54
113	37
116	11
117	35
118	471
119	51
121	20
125	11
129	15
130	12
131	91
132	14
136	10
138	8
139	20
143	18
149	34
152	8
155	7
156	12
157	20
158	150
159	25
166	17
167	10
168	10
183	7
184	12
185	245
186	25
192	7
193	603
194	68
195	203
196	28
