Mass Spectrum: B(9a)-Homo-19-norpregna-9(11),9a-dien-20-one, 3-(dimethylamino)-4,4,14-trimethyl-, (3.beta.,5.alpha.)-
Formula: C26H41NO
CAS: 114333-58-3
Molecular weight: 383
m/z	intensity
26	4
27	37
28	15
29	69
30	11
31	11
39	36
40	10
41	236
42	107
43	137
44	90
45	48
46	35
47	3
48	3
49	7
50	3
51	12
52	5
53	57
54	13
55	173
56	159
57	82
58	242
59	27
60	20
61	4
63	4
64	3
65	31
66	11
67	94
68	37
69	219
70	117
71	999
72	329
73	26
74	3
75	3
76	3
77	97
78	25
79	106
80	19
81	144
82	51
83	49
84	218
85	124
86	33
87	6
88	3
89	4
90	3
91	180
92	28
93	100
94	31
95	116
96	31
97	63
98	94
99	44
100	9
101	4
102	5
103	27
104	21
105	158
106	26
107	95
108	28
109	76
110	34
111	30
112	28
113	12
114	6
115	67
116	33
117	81
118	26
119	104
120	29
121	57
122	21
123	31
124	30
125	13
126	23
127	23
128	78
129	101
130	38
131	88
132	25
133	59
134	21
135	36
136	32
137	40
138	13
139	20
140	7
141	65
142	55
143	98
144	33
145	90
146	24
147	43
148	17
149	38
150	16
151	31
152	23
153	32
154	22
155	69
156	42
157	94
158	28
159	62
160	19
161	30
162	14
163	14
164	9
165	28
166	17
167	34
168	22
169	64
170	32
171	75
172	22
173	36
174	16
175	26
176	8
177	11
178	14
179	17
180	8
181	28
182	15
183	51
184	24
185	59
186	20
187	32
188	15
189	16
190	9
191	9
192	7
193	12
194	7
195	23
196	13
197	43
198	17
199	42
200	19
201	28
202	12
203	15
204	8
205	5
206	1
207	6
208	3
209	19
210	12
211	42
212	16
213	34
214	13
215	8
216	7
217	5
218	4
219	3
220	0
221	5
222	1
223	12
224	6
225	24
226	18
227	36
228	15
229	4
230	5
231	4
232	3
233	1
234	2
235	2
236	1
237	14
238	5
239	26
240	11
241	21
242	8
243	1
245	1
249	1
251	12
252	9
253	43
254	19
255	14
256	9
257	3
258	3
263	2
264	1
265	4
267	28
268	10
269	127
270	37
271	7
272	1
277	1
278	1
279	9
281	10
282	10
283	9
284	6
291	1
293	6
294	5
295	61
296	21
297	48
298	31
299	16
300	8
302	6
304	5
305	2
308	4
309	5
310	20
311	9
312	27
313	8
314	4
316	0
318	1
320	1
321	3
322	3
323	51
324	25
325	8
326	12
327	5
328	1
336	21
337	15
338	194
339	79
340	262
341	79
342	24
343	0
352	6
353	2
354	14
355	4
366	10
367	7
368	114
369	37
370	6
371	1
379	3
380	5
381	48
382	48
383	407
384	123
385	39
386	4
