Mass Spectrum: 1,3-Cyclohexanediol, 4,6-dimethyl-2-nitro-, monoacetate (ester), [1S-(1.alpha.,2.beta.,3.alpha.,4.beta.,6.beta.)]-
Formula: C10H17NO5
CAS: 114454-87-4
Molecular weight: 231
m/z	intensity
27	3
28	4
29	16
30	3
31	3
39	2
41	35
42	6
43	942
44	27
45	21
53	11
54	4
55	255
56	16
57	34
58	20
59	6
60	11
61	44
66	3
67	27
68	3
69	59
70	6
71	54
72	7
73	31
74	4
79	53
80	6
81	196
82	23
83	72
84	38
85	9
86	2
87	3
91	57
92	8
93	6
94	5
95	217
96	19
97	71
98	5
99	7
100	39
101	4
105	19
106	5
107	553
108	54
109	18
110	6
111	3
112	11
113	6
114	2
115	5
123	8
124	38
125	999
126	111
127	9
129	24
136	4
141	8
142	10
143	9
153	3
167	3
170	3
185	3
