Mass Spectrum: Cyclohexene, 6-(methoxymethoxy)-1-nitro-, (R)-
Formula: C8H13NO4
CAS: 114454-98-7
Molecular weight: 187
m/z	intensity
27	74
28	56
29	95
30	114
31	45
33	13
38	13
39	121
40	23
41	116
42	11
43	24
44	15
45	999
46	23
50	35
51	87
52	72
53	70
54	17
55	57
61	93
62	5
63	13
65	40
66	14
67	100
68	105
69	25
75	7
77	201
78	96
79	340
80	136
81	27
82	6
92	9
95	29
96	37
97	335
98	23
107	8
108	19
109	16
110	35
111	34
125	36
126	78
127	72
128	5
140	6
156	22
