Mass Spectrum: 1,3-Cyclohexanediol, 2-methyl-2-nitro-, monoacetate (ester), [1s-(1.alpha.,2.beta.,3.alpha.)]-
Formula: C9H15NO5
CAS: 114454-84-1
Molecular weight: 217
m/z	intensity
26	6
27	77
28	30
29	65
30	27
31	28
38	5
39	82
40	18
41	160
42	37
43	999
44	48
45	47
46	3
47	3
50	4
51	11
52	7
53	50
54	19
55	199
56	22
57	69
58	33
59	4
60	31
61	36
62	2
63	3
65	15
66	20
67	113
68	21
69	46
70	12
71	68
72	15
73	19
77	26
78	4
79	18
80	4
81	73
82	27
83	147
84	101
85	59
86	7
87	25
88	2
91	17
92	3
93	87
94	16
95	15
96	5
97	10
98	2
99	12
100	42
101	7
103	2
104	3
108	4
109	15
110	62
111	318
112	30
113	12
114	6
126	13
127	58
128	53
129	21
130	1
140	3
153	2
158	1
170	3
