Mass Spectrum: 6H-6,12-Methanodibenzo[b,f]thiocin-12-carbonitrile, 11,12-dihydro-,5,5-dioxide
Formula: C17H13NO2S
CAS: 114431-25-3
Molecular weight: 295
m/z	intensity
32	13
38	27
39	140
40	14
41	15
44	10
45	20
49	12
50	97
51	189
52	51
53	19
62	43
63	122
64	42
65	89
66	11
69	26
70	10
74	47
75	94
76	127
77	177
78	85
81	11
82	20
86	16
87	49
88	120
89	175
90	61
91	280
92	22
93	12
94	38
95	17
98	11
99	25
100	89
101	290
102	148
103	45
104	35
107	13
108	27
109	17
111	12
113	35
114	166
115	999
116	124
117	68
118	15
119	14
120	11
125	31
126	94
127	170
128	63
129	13
130	14
134	16
135	10
137	14
139	24
140	30
149	10
150	32
151	47
152	77
153	158
154	98
155	15
162	13
163	28
164	28
165	43
166	10
174	12
175	25
176	58
177	61
178	160
179	157
180	26
187	14
188	24
189	72
190	67
191	72
192	14
199	14
200	49
201	86
202	221
203	257
204	194
205	41
213	11
214	46
215	47
216	72
217	18
221	25
222	17
223	12
226	18
227	60
228	71
229	124
230	447
231	202
232	45
233	56
234	294
235	755
236	240
237	64
238	12
246	27
247	10
249	14
250	46
251	39
252	143
253	30
259	20
260	28
261	11
262	20
268	27
295	68
296	17
