Mass Spectrum: Acetic acid, 3-acetoxy-1-ethyl-2-nitropentyl ester
Formula: C11H19NO6
CAS: 114454-68-1
Molecular weight: 261
m/z	intensity
26	2
27	38
28	9
29	90
30	13
31	8
38	1
39	23
40	3
41	37
42	16
43	999
44	26
45	7
46	2
50	1
51	2
52	1
53	14
54	6
55	57
56	7
57	473
58	17
59	8
60	2
61	38
62	1
65	2
66	1
67	19
68	3
69	10
70	5
71	24
72	32
73	6
74	3
75	1
77	3
79	5
80	1
81	12
82	2
83	106
84	23
85	27
86	4
87	1
89	1
90	1
93	2
94	1
95	59
96	6
97	4
99	2
100	2
101	31
102	7
103	13
111	10
112	54
113	502
114	90
115	9
116	0
117	5
126	1
127	2
129	4
130	8
131	18
132	1
141	2
142	1
143	5
144	25
145	1
154	1
155	44
156	4
159	1
172	7
173	28
174	2
185	10
186	1
188	7
190	12
191	1
202	5
215	2
232	7
