Mass Spectrum: 1,3-Cyclohexanediol, 5-methyl-2-nitro-, monoacetate (ester), [1s-(1.alpha.,2.beta.,3.alpha.,5.alpha.)]-
Formula: C9H15NO5
CAS: 114454-85-2
Molecular weight: 217
m/z	intensity
26	5
27	84
28	16
29	72
30	24
31	35
38	4
39	83
40	17
41	193
42	44
43	999
44	55
45	21
46	7
47	3
50	3
51	10
52	5
53	37
54	9
55	204
56	18
57	74
58	9
59	6
60	4
61	124
62	4
63	3
65	17
66	11
67	91
68	23
69	87
70	31
71	69
72	8
73	39
74	4
77	53
78	12
79	23
80	7
81	196
82	19
83	102
84	51
85	15
86	23
87	5
88	2
90	3
91	37
92	9
93	589
94	48
95	32
96	10
97	8
98	4
99	7
109	19
110	54
111	969
112	74
113	8
114	7
115	3
126	28
127	20
128	12
129	7
130	2
138	1
139	4
140	7
141	1
156	4
157	1
158	12
174	1
210	1
218	6
