Mass Spectrum: Acetic acid, 5-acetoxy-4-nitrotetrahydrothiopyran-3-yl ester
Formula: C9H13NO6S
CAS: 114454-76-1
Molecular weight: 263
m/z	intensity
25	1
26	8
27	61
28	22
29	31
30	47
31	18
33	1
34	3
35	8
36	0
37	3
38	9
39	107
40	21
41	88
42	57
43	999
44	88
45	180
46	73
47	39
48	4
49	2
50	5
51	11
52	6
53	41
54	7
55	20
56	2
57	21
58	17
59	53
60	68
61	43
62	5
63	6
64	1
65	17
66	5
67	4
68	62
69	59
70	49
71	28
72	10
73	42
74	3
75	3
76	1
77	1
78	0
79	0
80	0
81	37
82	5
83	4
84	9
85	150
86	26
87	82
88	7
89	9
90	1
91	0
92	0
93	1
94	0
95	1
96	13
97	802
98	94
99	49
100	5
101	4
102	4
103	4
104	1
105	0
106	0
107	0
109	0
110	0
111	2
112	2
113	22
114	31
115	299
116	21
117	15
118	1
119	2
120	0
121	0
122	0
123	0
124	0
125	0
126	9
127	22
128	3
129	2
130	1
131	5
132	5
133	1
134	0
135	0
136	0
137	0
138	0
139	0
140	0
141	2
142	1
143	23
144	18
145	2
146	0
147	0
148	0
149	2
150	0
151	0
152	0
153	0
154	0
155	1
156	1
157	470
158	41
159	24
160	3
161	0
162	0
163	0
164	0
166	0
167	0
168	0
170	0
171	0
172	0
173	0
174	0
175	3
176	0
177	0
178	0
180	0
181	0
183	0
184	0
185	0
187	0
188	0
189	0
190	0
191	0
192	0
193	0
194	0
195	0
196	0
197	0
198	0
199	0
200	0
201	0
202	0
203	6
204	19
205	1
206	1
207	0
208	0
210	0
211	0
212	0
213	0
214	0
215	0
216	0
217	0
218	0
219	0
220	0
221	0
222	0
224	0
225	0
226	0
227	0
228	0
229	0
263	1
