Mass Spectrum: 2H-Thiopyran-3,5-diol, tetrahydro-4-nitro-, monoacetate (ester), [3S-(3.alpha.,4.beta.,5.alpha.)]-
Formula: C7H11NO5S
CAS: 114454-91-0
Molecular weight: 221
m/z	intensity
25	2
26	19
27	114
28	25
29	103
30	96
31	85
33	3
34	6
35	17
37	7
38	21
39	158
40	34
41	147
42	84
43	998
44	82
45	275
46	128
47	107
48	15
49	6
50	8
51	17
52	8
53	62
54	14
55	50
56	7
57	123
58	30
59	92
60	98
61	92
62	13
63	14
65	5
66	3
67	4
68	27
69	90
70	105
71	66
72	24
73	67
74	7
75	13
76	7
77	8
81	251
82	49
83	6
84	8
85	299
86	76
87	177
88	21
89	43
90	9
91	6
96	4
97	145
98	24
99	16
100	4
101	10
102	7
103	10
104	2
113	17
114	20
115	999
116	100
117	72
118	11
119	4
126	2
127	3
128	2
129	1
130	3
131	7
132	21
133	4
134	1
141	6
142	1
143	6
144	1
145	1
157	5
161	43
162	23
163	3
164	1
175	11
221	1
