Mass Spectrum: Cyclopentanecarboxamide, 3-ethenyl-2-methylene-N-phenyl-
Formula: C15H17NO
CAS: 114475-20-6
Molecular weight: 227
m/z	intensity
26	2
27	25
28	2
29	0
37	2
38	9
39	61
40	7
50	12
51	49
52	20
53	22
62	5
63	24
64	22
65	122
66	25
74	4
75	3
76	8
77	289
78	125
79	672
80	75
81	28
82	2
89	7
90	5
91	515
92	240
93	856
94	99
95	0
102	2
103	29
104	24
105	166
106	208
107	599
108	999
109	145
110	32
111	0
115	8
116	3
117	9
118	14
119	83
120	229
121	79
122	21
123	5
124	3
127	1
128	4
129	2
130	14
131	3
132	10
133	51
134	151
135	196
136	41
142	1
144	9
145	5
146	11
147	7
148	41
149	12
150	1
152	0
154	2
155	1
156	5
157	2
158	4
159	9
160	3
163	2
164	3
167	2
168	5
169	2
170	15
171	6
172	15
173	21
174	3
175	3
182	5
183	5
184	10
185	3
186	10
187	8
188	3
189	4
196	2
198	63
199	30
200	18
201	7
202	3
208	3
210	2
212	11
213	3
225	5
226	66
227	606
228	107
