Mass Spectrum: Acetic acid, 3-acetoxy-5-methyl-2-nitrocyclohexyl ester
Formula: C11H17NO6
CAS: 114454-71-6
Molecular weight: 259
m/z	intensity
27	34
28	10
29	31
30	12
39	53
40	12
41	99
42	35
43	999
44	26
45	9
53	23
55	86
56	10
57	18
61	34
65	11
67	31
68	23
69	30
70	15
71	11
77	29
79	31
81	66
82	10
83	33
84	21
91	22
92	20
93	311
94	31
95	21
109	14
110	34
111	661
112	46
126	9
127	9
153	103
154	11
170	10
171	75
260	0
