Mass Spectrum: 1,3-Cyclohexanediol, 2,5-dimethyl-2-nitro-, monoacetate (ester), [1s-(1.alpha.,2.beta.,3.alpha.,5.alpha.)]-
Formula: C10H17NO5
CAS: 114454-86-3
Molecular weight: 231
m/z	intensity
25	5
27	68
28	21
29	71
30	17
31	48
38	2
39	62
40	11
41	130
42	25
43	999
44	30
45	26
46	4
47	2
50	2
51	8
52	3
53	39
54	13
55	207
56	23
57	33
58	21
59	15
60	4
61	21
63	2
65	7
66	2
67	21
68	4
69	63
70	6
71	106
72	14
73	11
74	4
78	11
79	2
81	23
82	6
83	71
84	20
85	95
86	17
87	26
88	4
89	24
90	2
91	17
92	2
93	5
94	2
95	48
96	8
97	92
98	85
99	19
100	16
101	3
102	1
103	2
104	2
105	6
107	110
108	11
109	19
110	4
111	6
113	8
114	4
123	8
124	43
125	418
126	34
127	11
128	3
140	27
141	45
142	27
143	21
144	2
149	5
154	2
167	3
172	1
185	3
215	0
