Mass Spectrum: Eseroline, 7-bromo-
Formula: C13H17BrN2O
CAS: 114546-49-5
Molecular weight: 296
m/z	intensity
42	999
43	117
44	363
45	195
46	17
47	4
48	1
49	10
50	37
51	101
52	68
53	169
54	73
55	109
56	81
57	256
58	85
59	17
60	10
61	7
62	33
63	94
64	40
65	107
66	93
67	41
68	32
69	23
70	73
71	83
72	47
73	98
74	19
75	26
76	34
77	136
78	66
79	51
80	62
81	98
82	73
83	15
84	20
85	20
86	29
87	26
88	59
89	89
90	41
91	68
92	43
93	93
94	72
95	18
96	205
97	39
98	112
99	58
100	53
101	42
102	37
103	67
104	36
105	28
106	34
107	27
108	47
109	3
110	4
111	11
112	1
113	6
114	13
115	61
116	93
117	59
118	40
119	19
120	31
121	10
122	16
123	3
124	5
125	8
126	6
127	19
128	23
129	20
130	101
131	98
132	53
133	48
134	15
135	5
136	2
137	1
138	0
139	1
140	52
141	63
142	32
143	27
144	52
145	90
146	85
147	42
148	23
149	16
150	0
151	0
152	1
153	2
154	7
155	8
156	17
157	27
158	64
159	143
160	165
161	115
162	16
163	2
166	1
167	2
168	4
169	7
170	17
171	21
172	45
173	103
174	86
175	35
176	13
177	2
178	1
181	1
182	2
183	4
184	12
185	23
186	26
187	39
188	59
189	10
190	3
191	0
192	1
194	1
195	3
196	3
197	4
198	6
199	11
200	12
201	29
202	19
203	4
204	2
205	0
206	6
208	3
209	7
210	28
211	16
212	29
213	10
214	5
215	4
216	4
217	135
218	27
219	3
220	1
221	0
222	6
223	13
224	75
225	28
226	74
227	18
228	6
229	2
231	0
232	1
234	2
235	1
236	7
237	19
238	409
239	364
240	443
241	334
242	64
243	9
244	0
247	0
248	3
249	2
250	11
251	9
252	263
253	70
254	264
255	67
256	16
257	8
258	1
262	2
263	2
264	22
265	12
266	71
267	24
268	63
269	14
270	11
271	1
277	0
278	1
279	6
280	12
281	103
282	24
283	95
284	13
285	1
295	35
296	694
297	135
298	684
299	97
300	8
