Mass Spectrum: Eseroline, benzylcarbamate(ester)
Formula: C21H25N3O2
CAS: 114546-27-9
Molecular weight: 351
m/z	intensity
42	327
43	57
44	331
45	18
46	4
48	5
49	18
50	161
51	308
52	110
53	41
54	17
55	44
56	76
57	121
58	184
59	29
60	12
61	14
62	35
63	95
64	31
65	252
66	36
67	24
68	21
69	13
70	23
71	22
72	12
73	49
74	44
75	34
76	54
77	362
78	238
79	80
80	31
81	32
82	32
83	12
84	11
85	15
86	16
87	11
88	7
89	83
90	46
91	999
92	88
93	21
94	39
95	18
96	93
97	42
98	7
99	9
100	9
101	28
102	33
103	33
104	337
105	293
106	181
107	44
108	19
109	14
110	5
111	6
112	3
113	6
114	3
115	30
116	26
117	56
118	35
119	14
120	17
121	9
122	15
123	9
124	4
125	4
127	9
128	11
129	9
130	42
131	67
132	309
133	578
134	67
135	10
136	7
137	3
139	2
140	3
141	5
142	14
143	16
144	54
145	20
146	184
147	104
148	46
149	23
150	8
151	3
152	2
153	3
154	4
155	5
156	9
157	14
158	36
159	64
160	688
161	561
162	274
163	80
164	21
165	5
166	3
167	3
168	4
169	4
170	12
171	10
172	28
173	47
174	719
175	179
176	95
177	72
178	11
179	5
180	2
181	2
182	2
183	3
184	6
185	11
186	61
187	52
188	118
189	50
190	30
191	28
192	6
193	2
195	2
197	3
198	3
199	8
200	7
201	26
202	43
203	77
204	115
205	17
207	2
213	3
214	3
215	12
216	29
217	85
218	869
219	131
220	15
222	2
227	2
228	2
229	5
230	15
231	13
232	26
233	10
234	10
235	3
236	3
240	23
241	5
242	2
243	3
244	4
245	7
246	6
247	2
248	12
249	3
251	2
258	2
259	6
260	10
261	11
262	8
263	4
264	3
266	3
268	2
273	2
275	3
276	4
277	3
278	13
279	3
289	2
290	3
291	2
292	5
293	3
305	5
306	3
307	3
317	2
319	5
320	3
321	3
323	3
333	3
334	2
335	3
336	37
337	6
338	3
339	2
347	2
349	4
350	10
351	178
352	40
353	17
354	7
