Mass Spectrum: Eseroline, 7-bromo-, methylcarbamate(ester)
Formula: C15H20BrN3O2
CAS: 114546-23-5
Molecular weight: 353
m/z	intensity
42	999
43	198
44	412
45	49
46	9
49	2
50	22
51	71
52	66
53	96
54	63
55	186
56	852
57	378
58	735
59	36
60	20
61	5
62	22
63	63
64	23
65	73
66	102
67	34
68	35
69	19
70	128
71	63
72	18
73	112
74	19
75	23
76	24
77	122
78	62
79	151
80	326
81	188
82	354
83	15
84	13
85	12
86	17
87	17
88	26
89	75
90	39
91	60
92	36
93	46
94	72
95	20
96	300
97	61
99	805
100	70
101	40
102	39
103	73
104	38
105	26
106	43
107	29
108	45
109	8
110	5
111	15
112	2
113	8
114	14
115	81
116	77
117	67
118	40
119	18
120	28
121	11
122	23
123	3
124	6
125	11
126	7
127	22
128	32
129	30
130	141
131	117
132	91
133	46
134	15
135	5
136	1
140	50
141	62
142	58
143	41
144	84
145	112
146	89
147	43
148	27
149	17
154	11
155	14
156	35
157	58
158	85
159	143
160	181
161	110
162	17
163	3
167	4
168	7
169	13
170	23
171	39
172	58
173	116
174	130
175	54
176	19
177	2
181	1
182	3
183	7
184	16
185	32
186	36
187	49
188	156
189	23
190	3
194	3
195	5
196	6
197	7
198	7
199	16
200	17
201	35
202	22
203	5
204	1
206	1
207	1
208	5
209	20
210	100
211	32
212	94
213	15
214	5
215	6
216	6
217	185
218	36
219	4
221	5
222	10
223	18
224	72
225	31
226	70
227	18
228	6
229	2
230	2
231	2
232	6
233	2
234	1
235	3
236	12
237	23
238	459
239	473
240	502
241	442
242	80
243	11
244	1
245	2
248	5
249	4
250	15
251	13
252	264
253	86
254	268
255	78
256	19
257	8
258	1
262	1
263	3
264	29
265	19
266	76
267	29
268	63
269	15
270	14
271	2
275	5
277	1
278	2
279	15
280	10
281	153
282	27
283	138
284	19
289	3
294	2
295	69
296	946
297	221
298	971
299	155
300	13
307	1
308	2
309	2
310	2
311	1
352	3
353	392
354	73
355	389
356	68
357	7
