Mass Spectrum: Cyclopentaneacetamide, 2-methylene-N-phenyl-
Formula: C14H17NO
CAS: 114662-87-2
Molecular weight: 215
m/z	intensity
27	117
28	15
29	49
30	3
37	4
38	24
39	213
40	43
41	176
42	12
43	9
44	4
50	23
51	77
52	38
53	112
54	21
55	79
56	4
57	4
61	2
62	7
63	32
64	33
65	172
66	88
67	111
68	11
69	2
70	1
71	1
74	4
75	4
76	6
77	176
78	29
79	118
80	29
81	223
82	17
89	3
90	3
91	61
92	175
93	999
94	116
95	138
96	112
97	9
100	1
103	2
104	7
105	5
106	27
107	16
108	1
115	2
116	2
117	8
118	8
119	26
120	58
121	15
122	185
123	27
124	2
128	2
129	1
130	8
131	3
132	5
133	2
134	55
135	275
136	30
137	2
143	4
144	8
145	3
146	3
149	1
155	1
156	12
157	12
158	3
160	4
161	4
168	2
169	2
170	11
171	3
172	10
173	3
174	4
186	11
187	4
197	2
198	3
200	2
214	4
215	176
216	30
217	3
