Mass Spectrum: Benzamide, N-[[[bis(phenylamino)methylene]amino](phenylamino)methylene]-
Formula: C27H23N5O
CAS: 114676-44-7
Molecular weight: 433
m/z	intensity
26	6
27	25
28	16
29	1
30	1
34	1
36	1
37	9
38	19
39	64
40	9
41	12
42	3
43	13
44	3
45	0
46	0
47	0
49	1
50	44
51	217
52	24
53	3
54	3
55	0
57	0
59	1
60	0
61	2
62	9
63	30
64	45
65	89
66	43
67	4
68	1
69	5
70	1
73	1
74	9
75	12
76	35
77	831
78	60
79	7
80	1
81	0
87	0
88	1
89	2
90	12
91	100
92	59
93	219
94	22
95	0
97	11
98	1
102	1
103	22
104	34
105	999
106	74
107	6
112	1
113	0
114	0
115	2
116	1
117	20
118	75
119	76
120	8
121	3
122	11
123	1
127	0
128	2
129	6
130	2
131	0
132	1
133	1
134	6
135	1
138	0
139	2
140	2
141	2
142	1
143	2
144	22
145	11
146	1
147	3
148	0
151	2
152	5
153	2
154	2
155	1
156	1
158	0
161	1
162	16
163	1
164	1
165	1
166	8
167	13
168	12
169	23
170	3
177	1
178	5
179	3
180	72
181	11
182	1
185	0
191	1
192	7
193	18
194	419
195	91
196	13
197	5
198	2
199	0
205	3
206	0
209	2
210	45
211	19
212	3
213	0
218	0
219	1
220	93
221	18
222	5
223	47
224	7
225	1
233	1
234	1
235	9
236	3
237	10
238	59
239	115
240	20
241	2
247	1
263	1
265	10
266	2
269	3
270	1
286	2
287	2
296	9
297	3
298	37
299	9
300	0
309	0
310	0
311	31
312	9
313	4
314	3
315	2
316	0
323	3
324	0
328	3
329	0
338	2
339	6
340	16
341	295
342	71
343	9
344	1
384	0
413	8
414	122
415	124
416	35
417	4
418	0
431	1
432	10
433	217
434	74
435	12
436	1
