Mass Spectrum: Carbamodithioic acid, [(benzoylamino)carbonyl]-, methyl ester
Formula: C10H10N2O2S2
CAS: 114676-40-3
Molecular weight: 254
m/z	intensity
26	10
27	28
29	3
30	0
31	0
33	9
34	4
35	0
36	4
37	14
38	24
39	27
40	2
41	3
42	8
43	12
44	20
45	77
46	26
47	124
48	102
49	16
50	81
51	186
52	15
53	3
54	1
55	1
57	1
58	18
59	104
60	38
61	10
62	6
63	11
64	11
65	6
66	2
67	0
69	1
70	34
71	0
72	1
73	6
74	26
75	43
76	35
77	494
78	36
79	11
80	0
81	0
82	0
84	0
85	0
86	82
87	3
88	3
89	0
90	3
91	15
92	2
93	1
94	0
97	0
99	0
101	0
102	1
103	7
104	16
105	999
106	72
107	32
108	1
109	3
110	0
117	1
118	1
119	0
120	0
121	12
122	4
123	0
129	0
130	0
132	0
133	15
134	1
135	1
136	0
137	0
138	0
146	0
147	114
148	13
149	3
150	0
151	0
152	0
163	0
168	1
169	0
170	0
176	0
191	36
192	4
195	0
207	227
208	23
209	11
210	1
211	0
254	85
255	13
256	10
257	1
258	0
