Mass Spectrum: 1,3-Dioxolo[4,5-g]isoquinoline-5-methanol, 6-(2,2-dimethyl-1-oxopropyl)-5,6,7,8-tetrahydro-.alpha.-[2-(hydroxymethyl)-3,4-dimethoxyphenyl]-, (R*,S*)-(.+-.)-
Formula: C25H31NO7
CAS: 114621-94-2
Molecular weight: 457
m/z	intensity
27	21
29	81
31	32
39	38
41	135
42	16
43	42
44	25
45	20
50	9
51	17
53	11
54	9
55	41
56	21
57	999
58	46
59	8
60	13
62	7
63	19
64	10
65	29
66	6
67	14
68	7
69	28
70	10
71	22
73	16
76	7
77	31
78	13
79	16
81	13
82	9
83	19
84	8
85	104
86	7
87	11
89	32
90	21
91	62
92	13
93	15
95	9
96	6
97	14
98	7
103	8
105	16
106	15
107	13
108	7
109	7
111	7
115	7
116	22
117	22
118	24
119	22
120	11
121	15
122	8
123	6
131	7
134	12
135	21
136	23
137	8
146	14
147	18
148	34
149	31
150	8
151	8
152	6
160	18
161	29
162	7
163	25
164	12
165	15
173	11
174	106
175	97
176	375
177	46
178	20
179	126
180	27
181	8
195	6
196	14
204	20
205	4
207	9
208	9
218	4
244	2
246	13
252	3
258	12
259	13
260	721
261	379
262	58
263	7
278	3
283	4
307	4
308	4
320	3
322	5
323	2
324	5
336	12
337	8
338	13
339	3
352	7
354	8
382	3
427	3
428	2
439	4
