Mass Spectrum: Crotonic acid, o-formylphenyl ester
Formula: C11H10O3
CAS: 114636-69-0
Molecular weight: 190
m/z	intensity
24	0
25	1
26	8
27	7
28	71
29	6
30	0
36	0
37	7
38	23
39	196
40	32
41	350
42	13
43	2
44	17
46	0
47	0
49	1
50	12
51	18
52	2
53	11
54	0
55	2
56	0
57	0
60	0
61	2
62	6
63	24
64	13
65	60
66	6
67	2
68	37
69	999
70	56
71	3
72	0
73	0
74	2
75	2
76	11
77	11
78	2
79	0
81	0
83	0
86	1
89	0
90	0
91	1
92	7
93	21
94	5
95	1
103	0
104	5
105	3
106	0
107	0
115	1
116	0
118	0
119	0
120	1
121	132
122	23
123	2
126	0
127	0
128	0
129	0
131	1
133	0
144	0
145	0
146	0
147	0
148	0
162	1
163	0
172	0
174	0
175	0
190	42
191	5
192	0
