Mass Spectrum: 5,8,15,20-Tetraoxa-1,12 diazabicyclo[10,5,5]-docosane
Formula: C16H32N2O4
CAS: 114616-43-2
Molecular weight: 316
m/z	intensity
54	75
55	188
56	625
57	458
58	833
59	108
68	108
69	146
70	708
71	417
72	917
73	104
74	63
79	583
80	21
82	183
83	146
84	667
85	300
86	500
87	88
88	750
89	75
96	258
97	175
98	625
99	183
100	999
101	154
102	325
103	50
108	125
109	50
110	183
111	117
112	250
113	171
114	833
115	113
116	225
117	38
118	117
124	108
125	50
126	354
127	125
128	500
129	92
130	146
131	50
132	83
140	138
141	42
142	342
143	113
144	233
145	42
146	108
149	125
154	58
155	42
156	63
157	42
158	167
159	42
160	150
170	58
171	38
172	175
173	29
174	79
175	21
184	42
185	42
186	125
187	29
188	75
189	21
190	71
197	29
198	50
199	50
200	50
201	29
202	46
213	42
214	42
215	33
216	63
223	50
227	71
228	29
229	42
230	38
241	71
243	75
255	75
256	50
257	83
259	38
271	263
272	63
273	167
274	42
285	250
286	117
287	83
298	29
299	96
300	25
301	33
315	25
316	458
317	104
318	21
