Mass Spectrum: 1-Isoquinolinemethanol, .alpha.-(2-bromophenyl)-2-(2,2-dimethyl-1-oxopropyl)-1,2,3,4-tetrahydro-, (R*,S*)-(.+-.)-
Formula: C21H24BrNO2
CAS: 114621-90-8
Molecular weight: 401
m/z	intensity
27	15
28	6
29	76
30	5
38	2
39	23
40	4
41	107
42	18
43	8
50	11
51	44
52	10
53	4
54	4
55	11
56	7
57	999
58	53
59	2
62	1
63	7
64	1
65	7
66	1
69	12
70	7
71	3
74	4
75	9
76	15
77	144
79	62
80	13
81	2
82	2
83	3
84	1
85	156
86	11
87	2
88	2
89	10
90	10
91	12
92	2
101	4
102	13
103	46
104	40
105	51
106	5
115	24
116	13
117	61
118	8
119	2
127	1
128	5
129	8
130	109
131	97
132	422
133	58
134	4
142	4
151	1
152	2
155	6
157	9
158	2
159	5
160	16
161	3
162	2
163	1
165	5
169	2
171	2
173	2
174	5
175	2
176	1
177	1
178	4
179	2
183	11
184	4
185	20
186	5
187	11
188	3
189	3
190	1
191	3
192	3
193	2
200	3
201	1
202	6
203	3
204	3
214	7
215	3
216	613
217	154
218	21
219	6
220	7
221	2
236	1
298	3
299	2
300	6
301	3
302	4
303	1
316	2
318	2
326	1
344	1
346	1
358	1
368	1
383	1
384	2
385	1
386	2
387	1
401	0
402	1
403	0
404	0
