Mass Spectrum: Quinuclidine-3-carbohydrazide
Formula: C8H15N3O
CAS: 114725-06-3
Molecular weight: 169
m/z	intensity
41	301
42	963
43	94
44	137
45	16
46	1
47	1
50	15
51	33
52	30
53	166
54	141
55	461
56	113
57	31
58	19
59	9
60	1
61	0
62	1
63	3
64	2
65	24
66	16
67	101
68	96
69	65
70	37
71	8
72	2
73	2
74	0
75	1
77	18
78	9
79	60
80	53
81	209
82	137
83	45
84	186
85	21
86	30
87	8
88	1
91	7
92	3
93	12
94	38
95	76
96	70
97	32
98	11
99	2
100	0
105	1
106	3
107	7
108	64
110	999
111	83
112	7
113	4
120	1
121	0
122	1
123	2
124	4
125	6
126	15
127	2
128	0
133	0
136	22
138	797
139	70
140	6
141	0
151	0
152	0
153	6
154	2
155	1
167	9
169	352
170	31
171	5
