Mass Spectrum: 3-Phenyl-4-pentadecylmethyleneoxazolin-2,5-dione
Formula: C25H37NO3
CAS: 114853-69-9
Molecular weight: 399
m/z	intensity
41	425
42	73
43	647
44	92
45	74
54	85
55	999
56	176
57	377
58	47
64	48
67	174
68	124
69	376
70	148
71	164
77	73
79	48
81	212
82	184
83	326
84	248
85	98
91	148
92	201
93	314
94	89
98	450
99	72
105	37
109	108
110	71
111	174
112	102
119	575
120	150
121	74
122	47
123	88
124	57
125	73
126	24
130	48
135	99
136	74
137	136
138	46
139	37
145	23
146	23
147	35
148	23
149	44
150	61
151	49
152	38
153	41
154	40
156	38
157	49
161	24
163	24
164	33
165	33
166	24
167	34
168	39
169	23
170	25
172	77
173	65
177	276
178	53
184	47
189	73
190	400
191	61
192	36
193	24
200	25
201	27
202	21
203	100
204	31
205	50
206	25
207	31
208	35
209	20
210	20
212	20
214	35
215	44
216	194
217	46
218	25
219	18
220	19
221	23
223	21
224	19
226	19
228	31
229	31
230	25
231	21
232	18
233	22
234	31
235	56
236	40
237	18
242	25
243	21
244	19
245	25
246	25
247	18
251	21
252	25
253	18
256	26
257	18
258	23
259	18
260	25
261	18
262	40
263	37
264	122
265	18
270	18
273	18
275	21
279	25
280	32
281	22
285	18
288	21
289	15
298	18
299	18
300	18
302	19
312	18
314	18
327	25
328	18
341	18
344	15
355	31
371	62
399	130
400	49
