Mass Spectrum: 1,2-Pyrrolidinedicarboxylic acid, 1-(phenylmethyl) ester, (S)-
Formula: C13H15NO4
CAS: 1148-11-4
Molecular weight: 249
m/z	intensity
15	3
16	2
17	5
18	21
26	2
27	10
28	34
29	3
30	3
32	3
37	1
38	4
39	33
40	6
41	45
42	16
43	16
44	35
45	6
50	6
51	15
52	5
53	3
54	1
55	3
56	5
57	1
62	2
63	11
64	4
65	76
66	4
67	2
68	20
69	20
70	125
71	7
73	1
74	1
76	1
77	13
78	3
79	11
80	1
82	1
87	1
89	15
90	12
91	999
92	84
93	3
96	3
97	3
98	1
102	6
105	3
106	1
107	15
108	48
109	4
114	310
115	20
116	2
142	1
146	1
158	1
159	3
160	155
161	18
162	1
203	2
204	72
205	10
206	1
249	25
250	4
