Mass Spectrum: .+/-.-8-Oxocephalotaxine
Formula: C18H19NO5
CAS: 114942-84-6
Molecular weight: 329
m/z	intensity
51	480
55	310
77	90
84	999
86	730
88	110
103	80
115	120
124	80
131	60
135	50
148	70
149	100
161	70
164	180
173	70
178	60
199	60
200	100
214	50
228	140
230	180
241	50
242	330
243	100
268	60
280	160
298	80
312	100
314	840
315	150
329	900
330	200
