Mass Spectrum: Amphetamine oxime acetate
Formula: C11H13NO2
CAS: 114971-31-2
Molecular weight: 191
m/z	intensity
41	148
43	999
51	83
63	69
65	257
77	43
89	87
90	122
91	602
92	113
100	249
105	20
115	41
116	195
117	95
130	358
131	314
132	165
148	59
149	247
150	24
174	1
191	25
192	3
