Mass Spectrum: Propanedinitrile, (cyclopropylmethylene)-
Formula: C7H6N2
CAS: 114995-88-9
Molecular weight: 118
m/z	intensity
24	5
26	34
27	129
28	32
29	8
30	0
31	1
36	4
37	47
38	51
39	121
40	48
41	76
42	2
43	0
44	1
45	0
46	0
48	1
49	10
50	29
51	49
52	48
53	22
54	5
55	1
56	0
57	0
58	0
59	0
60	2
61	13
62	31
63	80
64	199
65	49
66	22
67	46
68	2
69	0
73	0
74	3
75	22
76	41
77	16
78	32
79	30
80	1
83	0
86	2
87	7
88	14
89	13
90	48
91	999
92	77
93	3
94	0
95	0
98	0
99	0
100	1
101	2
102	1
103	8
104	1
105	0
112	0
113	0
115	0
116	1
117	26
118	190
119	22
120	1
