Mass Spectrum: L-Valine, N-[(phenylmethoxy)carbonyl]-
Formula: C13H17NO4
CAS: 1149-26-4
Molecular weight: 251
m/z	intensity
36	3
37	2
39	70
41	70
43	35
44	76
45	26
46	8
50	11
51	25
52	9
53	5
54	5
55	17
56	24
57	20
59	6
60	1
61	4
63	11
65	125
66	4
67	1
68	2
69	4
70	10
72	48
74	33
75	6
76	4
77	35
78	10
79	39
80	3
82	1
83	5
85	4
87	7
89	35
91	999
92	91
93	3
95	1
98	18
99	2
100	3
101	5
102	1
103	1
105	15
107	126
108	364
109	23
110	2
114	3
116	48
118	3
119	1
120	1
121	1
122	1
128	1
130	2
132	1
133	1
134	1
135	1
142	2
144	3
146	1
147	2
148	8
149	1
151	2
160	3
161	3
162	77
163	9
164	2
176	1
180	1
205	3
206	16
207	3
208	1
250	1
251	41
252	5
253	1
