Mass Spectrum: 1-t-Butyl-2-(1-hydroxyethyl)aziridine-2-carbothioic acid, S-phenyl ester
Formula: C15H21NO2S
CAS: 114950-78-6
Molecular weight: 279
m/z	intensity
26	6
27	54
28	37
29	182
30	71
31	9
37	3
38	6
39	76
40	15
41	340
42	103
43	185
44	230
45	73
50	11
51	31
52	7
53	19
54	15
55	58
56	81
57	613
58	108
59	8
63	6
65	50
66	52
67	11
68	131
69	43
70	71
71	22
72	7
73	4
74	5
75	2
76	3
77	36
78	9
79	4
81	13
82	20
83	10
84	35
85	18
86	999
87	50
88	3
91	11
95	4
96	59
97	10
98	23
99	7
104	6
105	3
106	4
108	9
109	102
110	241
111	26
112	29
113	8
114	59
115	4
117	3
118	3
121	6
123	87
124	13
125	7
126	13
127	2
132	3
134	3
135	16
136	5
137	8
138	3
140	2
141	3
142	503
143	47
144	5
145	2
149	7
150	10
151	7
152	8
154	9
162	2
163	4
166	2
169	3
170	135
171	14
172	2
177	2
178	7
179	11
180	4
185	1
189	1
192	6
193	2
194	3
205	5
206	3
207	2
208	12
209	1
218	3
220	2
222	11
223	11
224	9
235	2
249	1
264	20
265	3
279	7
280	13
281	2
