Mass Spectrum: 2-Methyl-1-(1-phenylethyl)aziridine-2-carbothioic acid, S-phenyl ester
Formula: C18H19NOS
CAS: 114950-90-2
Molecular weight: 297
m/z	intensity
27	11
28	13
29	2
30	1
37	0
38	2
39	23
40	3
41	28
42	8
43	2
44	21
45	16
46	0
47	1
49	0
50	8
51	27
52	5
53	4
54	18
55	31
56	108
57	5
58	2
59	4
60	0
61	0
62	2
63	7
64	1
65	29
66	21
67	1
68	2
69	80
70	4
71	1
72	0
73	0
74	3
75	3
76	4
77	96
78	20
79	67
80	4
81	1
82	3
83	2
84	14
85	1
86	0
89	4
90	2
91	21
92	3
93	0
94	0
95	0
96	1
97	0
98	0
99	0
100	0
101	1
102	4
103	41
104	29
105	999
106	78
107	4
108	4
109	51
110	76
111	7
112	3
113	0
114	1
115	3
116	2
117	4
118	7
119	5
120	7
121	6
122	1
123	120
124	10
125	5
126	0
127	0
128	1
129	0
130	1
131	3
132	6
133	1
134	4
135	4
136	0
137	3
138	0
141	2
142	1
143	1
144	5
145	2
146	3
147	1
148	34
149	6
150	4
151	0
152	0
155	0
156	0
157	1
158	4
159	20
160	62
161	8
162	2
163	0
164	3
165	0
166	0
171	0
172	1
173	0
174	0
175	1
176	0
177	0
178	1
179	1
180	0
181	0
186	0
187	3
188	361
189	35
190	2
191	0
192	6
193	1
194	0
195	0
198	0
199	0
200	0
205	0
220	1
221	0
222	0
231	0
232	2
236	0
237	1
238	0
296	0
297	8
298	1
299	0
