Mass Spectrum: 2-Aziridinecarbothioic acid, 1-(1-phenylethyl)-2-(phenylmethyl)-, S-phenyl ester, [S-(R*,R*)]-
Formula: C24H23NOS
CAS: 114950-93-5
Molecular weight: 373
m/z	intensity
45	17
66	2
77	10
79	23
91	163
92	12
103	18
104	13
105	999
106	101
109	15
110	9
115	8
116	8
117	48
118	8
119	5
120	13
123	290
124	25
125	14
130	10
131	13
132	259
133	26
134	4
135	5
145	110
146	13
149	6
158	7
160	15
194	1
220	2
226	3
235	10
236	107
237	19
240	6
264	355
265	78
266	8
268	9
282	6
373	2
