Mass Spectrum: 2-Ethyl-1-(1-phenylethyl)aziridine-2-carbothioic acid, S-phenyl ester
Formula: C19H21NOS
CAS: 114950-91-3
Molecular weight: 311
m/z	intensity
42	8
45	16
54	7
55	30
58	3
68	4
69	21
70	277
71	10
76	3
77	15
79	24
83	135
84	6
91	7
97	3
98	13
100	3
101	3
103	12
104	11
105	999
106	68
109	12
110	8
116	2
120	3
121	6
122	3
123	164
124	13
125	4
132	5
135	4
143	3
149	3
158	3
174	77
175	7
178	4
202	487
203	47
204	3
312	5
