Mass Spectrum: Dimefox
Formula: C4H12FN2OP
CAS: 115-26-4
Molecular weight: 154
m/z	intensity
12	3
13	5
14	34
15	336
16	50
19	9
20	6
26	7
27	47
28	261
29	46
30	67
31	17
32	15
33	1
34	1
35	12
36	56
37	4
38	20
39	9
40	21
41	43
42	364
43	125
44	999
45	257
46	26
47	23
48	1
49	1
50	3
51	4
53	1
55	4
56	3
57	15
58	59
59	4
60	6
61	11
62	1
63	3
65	4
66	5
67	14
68	1
69	2
71	1
72	6
73	4
74	1
75	1
76	6
77	2
78	4
79	1
80	1
81	6
82	1
83	3
85	4
86	1
87	1
88	15
89	1
90	2
91	2
92	10
93	5
94	17
95	1
96	5
97	2
98	2
99	1
102	4
103	1
107	1
108	1
110	181
111	24
112	12
119	1
121	1
125	1
135	12
136	2
137	2
139	2
149	1
151	1
153	16
154	52
155	3
