Mass Spectrum: 2-Amino-2-ethyl-1,3-propanediol
Formula: C5H13NO2
CAS: 115-70-8
Molecular weight: 119
m/z	intensity
15	21
17	5
18	268
19	7
26	13
27	127
28	290
29	128
30	220
31	115
32	3
39	35
40	9
41	153
42	153
43	226
44	70
45	9
46	55
52	4
53	72
54	19
55	18
56	65
57	12
58	25
59	22
60	62
68	9
69	7
70	195
71	410
72	66
73	14
83	4
84	6
86	7
88	999
89	47
90	42
100	2
