Mass Spectrum: Propene
Formula: C3H6
CAS: 115-07-1
Molecular weight: 42
m/z	intensity
1	32
2	4
12	9
13	14
14	34
15	55
16	2
19	22
20	18
21	1
24	3
25	18
26	105
27	387
28	14
36	18
37	127
38	194
39	725
40	291
41	999
42	703
43	23
44	1
