Mass Spectrum: .alpha.-Santalol
Formula: C15H24O
CAS: 115-71-9
Molecular weight: 220
m/z	intensity
27	33
28	2
29	66
30	1
31	5
39	62
40	16
41	227
42	13
43	131
44	24
45	8
50	5
51	14
52	3
53	78
54	12
55	147
56	22
57	46
63	1
65	53
66	30
67	115
68	41
69	85
70	17
71	46
77	258
78	50
79	278
80	38
81	86
82	27
83	28
84	38
85	3
91	401
92	83
93	999
94	794
95	247
96	31
97	29
98	8
103	24
104	13
105	250
106	73
107	324
108	74
109	56
110	18
111	18
112	8
113	0
115	12
116	2
117	39
118	6
119	202
120	94
121	614
122	282
123	54
124	7
125	11
126	0
127	0
128	11
129	12
130	2
131	46
132	30
133	76
134	30
135	58
136	13
137	7
138	5
139	2
141	5
142	5
143	3
145	39
146	14
147	33
148	21
149	15
150	12
151	11
152	9
153	17
154	2
156	7
158	1
159	44
160	4
161	72
162	16
163	14
165	4
169	4
170	2
173	6
174	2
176	1
177	1
187	68
188	3
189	54
190	7
202	108
203	14
204	2
205	14
206	1
220	5
221	0
