Mass Spectrum: Dimethyl ether
Formula: C2H6O
CAS: 115-10-6
Molecular weight: 46
m/z	intensity
12	2
13	7
14	22
15	241
16	11
17	5
18	3
19	1
27	2
28	10
29	387
30	11
31	34
32	1
41	1
42	3
43	14
44	6
45	999
46	607
47	13
