Mass Spectrum: Phenylthilone
Formula: C12H13NO2S
CAS: 115-55-9
Molecular weight: 235
m/z	intensity
45	14
46	199
47	34
48	4
49	1
50	60
51	215
52	45
53	19
54	2
55	3
56	6
57	25
58	14
59	11
60	0
61	5
62	32
63	114
64	25
65	106
66	8
67	5
68	7
69	24
70	22
71	18
72	56
73	27
74	32
75	33
76	51
77	368
78	86
79	16
80	1
81	2
82	13
83	0
84	0
85	2
86	8
87	13
88	8
89	107
90	32
91	390
92	30
93	7
94	3
95	1
96	0
97	0
98	0
99	0
100	0
101	5
102	61
103	167
104	216
105	44
106	6
107	0
108	2
109	6
110	1
111	0
113	2
114	6
115	394
116	119
117	999
118	454
119	43
120	12
121	792
122	67
123	40
124	1
127	1
128	8
129	29
130	14
131	9
132	28
133	84
134	56
135	142
136	15
137	7
138	0
142	0
143	0
144	6
145	15
146	35
147	18
148	5
149	76
150	790
151	111
152	37
153	1
158	0
159	0
160	3
161	5
162	8
163	152
164	68
165	11
166	1
167	0
174	2
175	0
176	0
178	160
179	14
180	4
189	0
190	3
191	0
192	5
193	0
202	0
206	547
207	93
208	29
209	1
217	0
220	0
235	566
236	78
237	28
238	1
