Mass Spectrum: 1-Oxaspiro[3.5]nona-5,8-dien-7-one, 3-methylene-
Formula: C9H8O2
CAS: 115077-69-5
Molecular weight: 148
m/z	intensity
37	42
38	195
39	688
40	516
41	44
42	9
43	10
44	6
45	18
46	9
47	9
49	8
50	102
51	171
52	146
53	159
54	249
55	87
59	10
61	52
62	187
63	507
64	278
65	270
66	129
67	9
68	57
69	29
71	32
73	5
74	27
75	21
76	11
77	40
78	77
79	52
80	42
81	160
82	161
83	8
85	5
86	12
87	12
88	36
89	385
90	433
91	999
92	691
93	55
94	20
98	25
102	11
103	13
104	21
105	36
106	24
107	19
108	5
109	350
110	24
118	144
119	219
120	470
121	51
122	5
133	6
147	52
148	64
149	11
