Mass Spectrum: (Z)-2-Methoxymethoxy-4'-fluoro-stilbene
Formula: C16H15FO2
CAS: 115032-49-0
Molecular weight: 258
m/z	intensity
45	999
109	110
131	19
139	20
152	89
165	79
166	9
170	40
183	140
185	90
194	19
213	289
226	30
258	269
