Mass Spectrum: (E)-4'-Chloro-2-methoxymethoxy-stilbene
Formula: C16H15ClO2
CAS: 115032-52-5
Molecular weight: 274
m/z	intensity
45	999
125	140
127	47
131	30
155	30
157	10
165	370
166	200
168	140
170	47
176	60
177	40
178	60
194	80
201	150
203	50
207	30
229	460
231	153
242	50
244	17
274	420
276	140
