Mass Spectrum: (E)-2-Methoxymethoxy-4'-nitro-stilbene
Formula: C16H15NO4
CAS: 115032-44-5
Molecular weight: 285
m/z	intensity
45	999
131	10
136	20
165	179
166	59
179	19
194	69
212	19
240	198
253	9
285	248
