Mass Spectrum: Z-2-Amino-1-cyclohexanecarboxamide
Formula: C7H14N2O
CAS: 115014-77-2
Molecular weight: 142
m/z	intensity
15	9
16	2
17	5
18	43
26	7
27	73
28	61
29	47
30	119
31	3
37	2
38	8
39	87
40	18
41	117
42	107
43	524
44	148
45	16
46	2
50	7
51	17
52	16
53	54
54	83
55	121
56	999
57	61
58	5
59	35
60	3
61	2
62	1
63	3
64	1
65	10
66	9
67	62
68	40
69	130
70	220
71	33
72	116
73	7
74	1
77	20
78	4
79	44
80	23
81	99
82	139
83	282
84	53
85	38
86	38
87	6
88	1
92	2
93	2
94	6
95	6
96	75
97	129
98	66
99	138
100	11
101	2
106	3
107	4
108	7
109	2
110	7
111	1
112	6
113	78
114	8
123	1
124	33
125	127
126	20
127	9
141	2
142	104
143	10
