Mass Spectrum: 1-Ethanone,2,2,2-trifluoro-1-(4-[2-(4-hydroxyphenyl)-1-diazenyl]phenyl)
Formula: C14H9F3N2O2
CAS: 115011-27-3
Molecular weight: 294
m/z	intensity
26	3
27	6
28	5
29	3
37	4
38	12
39	128
40	5
41	1
50	40
51	13
52	22
53	20
54	1
55	2
56	1
61	1
62	8
63	36
64	40
65	390
66	21
67	1
69	15
73	0
74	7
75	19
76	83
77	10
78	1
79	2
80	4
81	0
88	1
89	1
90	5
91	2
92	14
93	999
94	64
95	41
96	1
103	0
104	38
105	4
113	0
114	0
115	9
116	1
119	1
120	1
121	429
122	28
123	66
124	3
125	0
139	7
140	4
141	8
142	0
145	4
149	1
168	8
169	1
173	93
174	7
195	0
196	2
197	0
201	0
224	1
225	28
226	2
293	9
294	397
295	57
296	6
