Mass Spectrum: Imidazolidine-2,4,5-trione, 1,3-diacetyl-
Formula: C7H6N2O5
CAS: 115083-04-0
Molecular weight: 198
m/z	intensity
33	11
34	4
35	1
37	0
38	4
40	78
42	999
43	91
44	44
45	1
47	1
51	4
52	5
53	10
55	106
56	131
57	42
58	43
59	2
60	0
63	1
64	0
65	3
66	2
67	9
69	90
70	21
71	43
72	39
73	2
75	0
77	4
78	1
79	0
81	4
83	263
85	152
86	15
87	0
89	0
91	6
92	0
95	1
96	1
97	23
98	13
99	21
100	0
101	1
105	2
106	0
108	1
112	505
114	0
116	0
117	3
119	3
121	0
123	0
126	261
127	15
128	1
138	3
140	61
141	121
142	4
143	0
144	1
149	0
150	3
155	1
156	3
164	0
195	7
198	274
199	16
200	1
