Mass Spectrum: Dihydro-1-acetyl-lycorine
Formula: C18H21NO5
CAS: 115073-46-6
Molecular weight: 331
m/z	intensity
41	133
43	999
44	91
45	54
46	3
47	2
49	11
50	7
51	77
52	11
53	55
55	141
56	19
57	25
58	6
59	0
60	35
61	1
62	1
63	63
65	82
67	45
68	58
69	33
70	11
71	12
72	1
73	7
74	2
75	27
77	129
78	40
79	22
80	20
81	4
82	47
83	3
84	55
85	7
86	7
87	6
89	89
90	26
91	74
92	12
93	13
94	12
95	8
96	23
97	7
98	17
99	15
101	18
102	50
103	47
104	11
105	39
106	6
107	24
108	0
109	4
110	4
112	57
113	7
115	60
116	25
117	23
118	3
119	71
120	10
121	5
122	6
123	0
124	4
126	19
127	24
128	28
129	19
130	36
131	26
132	7
133	5
135	68
136	7
137	1
138	0
139	7
140	5
141	12
142	8
143	11
144	7
145	8
146	2
147	121
148	40
149	50
150	7
151	2
152	7
153	7
154	22
155	13
156	18
157	7
158	1
159	32
160	34
161	14
162	18
163	5
164	2
165	4
166	7
167	13
168	11
169	8
170	7
171	6
172	9
173	22
174	50
175	45
176	27
177	29
178	10
179	2
180	3
181	4
182	5
183	5
184	8
185	7
186	15
187	36
188	26
189	7
190	2
191	4
192	3
193	3
194	9
195	4
196	7
197	7
198	7
199	5
200	18
201	12
202	8
203	2
204	26
205	4
206	1
207	1
208	1
209	2
210	4
211	12
212	49
213	18
214	33
215	12
216	10
217	3
218	1
219	2
220	2
221	1
222	9
223	3
224	13
225	6
226	59
227	40
228	28
229	7
230	4
231	1
236	1
237	2
238	3
239	2
240	15
241	6
242	12
243	4
244	3
245	1
246	8
247	1
248	1
250	12
251	3
252	48
253	16
254	253
255	41
256	11
257	2
258	9
259	3
260	1
264	0
266	2
267	1
268	13
270	221
271	44
272	73
273	14
274	2
284	1
285	1
286	7
287	4
288	32
289	6
290	1
301	2
302	1
303	1
312	3
313	1
314	3
315	0
328	2
330	748
331	390
332	69
333	13
334	1
