Mass Spectrum: Butyric acid, 2-((2-butyryloxy-ethyl)-[4-(4-trifluoroacetyl-phenylazo)-phenyl]-amino)-ethyl ester
Formula: C26H30F3N3O5
CAS: 115011-30-8
Molecular weight: 521
m/z	intensity
25	5
26	72
27	147
29	18
32	31
39	26
41	114
42	22
43	956
44	32
45	13
50	13
51	16
55	17
57	6
60	10
62	13
64	7
65	18
69	19
71	556
72	22
73	5
75	11
76	66
77	70
78	25
79	7
80	3
88	4
89	13
90	36
92	26
93	12
96	18
99	15
102	7
103	27
104	110
105	40
106	8
111	2
113	18
115	999
116	81
117	23
118	46
119	25
120	16
123	39
130	11
131	25
132	47
133	8
138	42
144	17
145	14
146	15
147	5
148	18
149	10
150	0
151	1
152	7
175	66
176	6
178	4
219	21
220	3
232	7
235	10
236	13
250	5
261	6
280	11
292	3
304	7
305	1
306	7
319	18
320	9
332	59
333	11
334	2
335	1
345	32
346	9
348	1
350	19
351	4
404	5
416	361
417	73
418	11
429	23
431	14
449	6
451	2
452	13
521	312
522	77
523	15
