Mass Spectrum: S-(3-Hydroxypropyl) thioacetate
Formula: C5H10O2S
CAS: 115051-66-6
Molecular weight: 134
m/z	intensity
27	86
29	84
30	20
31	245
41	172
43	999
44	77
45	164
46	98
47	110
57	115
58	147
59	62
60	28
61	119
63	21
72	13
73	59
74	974
75	59
76	93
77	25
87	8
89	7
90	26
91	67
92	25
103	17
116	171
117	15
118	11
134	14
135	2
