Mass Spectrum: Docosa-2,21-dione
Formula: C22H42O2
CAS: 115097-22-8
Molecular weight: 338
m/z	intensity
26	0
27	15
28	2
29	59
30	1
31	3
38	0
39	10
40	6
41	164
42	24
43	999
44	22
45	19
53	8
54	16
55	201
56	24
57	117
58	552
59	190
60	7
61	0
65	1
66	2
67	51
68	30
69	129
70	14
71	357
72	27
73	7
74	0
77	1
78	2
79	8
80	11
81	94
82	62
83	171
84	30
85	71
86	6
87	4
88	0
91	1
92	0
93	6
94	25
95	112
96	82
97	110
98	26
99	19
100	21
101	2
105	0
106	0
107	5
108	12
109	92
110	31
111	63
112	10
113	19
114	16
115	3
116	20
117	1
118	0
119	0
120	0
121	7
122	8
123	47
124	18
125	105
126	11
127	25
128	6
129	1
130	0
133	0
134	0
135	12
136	8
137	25
138	10
139	7
140	3
141	5
142	4
143	1
147	0
149	9
150	5
151	13
152	10
153	4
154	7
155	3
156	4
157	1
161	0
162	0
163	5
164	2
165	7
166	11
167	6
168	1
169	6
170	5
171	1
177	1
178	1
179	6
180	11
181	3
182	1
183	7
184	25
185	6
186	1
191	1
192	1
193	5
194	4
195	0
196	0
197	4
198	23
199	8
200	1
205	1
206	1
207	2
208	3
209	1
210	1
211	4
212	10
213	3
219	0
220	6
221	4
222	19
223	4
224	1
225	10
226	1
227	0
233	1
234	1
235	0
236	2
237	2
238	2
239	8
240	1
241	0
247	1
248	0
249	0
250	1
251	2
252	0
253	4
254	1
255	0
262	31
263	25
264	5
265	6
266	0
267	1
268	3
269	0
277	1
278	1
279	1
280	70
281	65
282	14
283	2
284	0
295	13
296	5
297	0
299	0
305	0
309	3
310	2
311	1
319	0
320	2
321	0
323	10
324	3
325	2
326	0
337	1
338	125
339	31
340	6
341	0
