Mass Spectrum: Spiro(1,2,3,4,4a,4b,5,6,7,8,8a,9-dodecahydro-4a-methyl-5-hydroxy-7,7-di(allyl)-phenanthren-8-one)-2,2'-(1',3'-dioxolane)
Formula: C23H32O4
CAS: 115051-23-5
Molecular weight: 372
m/z	intensity
15	1
19	1
26	1
27	9
28	6
29	12
31	3
39	24
41	77
42	21
43	25
44	2
45	13
50	1
51	4
52	3
53	19
55	123
56	10
57	7
58	1
59	1
63	1
65	21
66	9
67	38
68	5
69	10
70	1
71	3
73	7
74	1
77	44
78	12
79	54
80	8
81	16
82	3
83	5
84	2
86	35
87	8
88	1
89	3
91	79
92	12
93	24
94	6
95	14
96	3
97	5
99	999
100	86
101	12
102	3
103	11
104	7
105	45
106	9
107	21
108	5
109	6
110	2
111	1
112	1
113	2
115	18
116	7
117	20
118	6
119	19
120	5
121	10
122	3
123	3
124	1
125	2
126	1
127	6
128	15
129	17
130	5
131	15
132	5
133	12
134	4
135	9
136	4
137	3
138	1
139	1
141	9
142	6
143	13
144	6
145	13
146	3
147	8
148	2
149	3
150	1
151	2
152	3
153	5
154	3
155	7
156	3
157	9
158	4
159	7
160	3
161	9
162	2
163	3
164	1
165	6
166	3
167	4
168	4
169	6
170	3
171	8
172	3
173	8
174	2
175	2
176	1
177	5
178	2
179	4
180	2
181	5
182	2
183	5
184	3
185	6
186	2
187	3
188	1
189	4
190	1
191	4
192	1
193	2
194	1
195	5
196	2
197	5
198	2
199	6
200	2
201	2
202	1
203	2
204	1
205	4
206	2
207	3
208	2
209	4
210	4
211	11
212	4
213	7
214	2
215	2
216	1
217	3
218	2
219	1
220	1
221	1
222	1
223	3
224	1
225	5
226	2
227	3
228	2
229	3
230	2
231	2
232	1
233	3
234	1
235	6
236	2
237	3
238	1
239	2
240	1
241	2
242	1
243	1
244	1
245	3
246	2
247	1
249	1
250	1
251	10
252	3
253	5
254	3
255	2
256	1
258	1
259	1
261	1
263	1
264	1
266	1
267	1
268	2
269	10
270	3
271	2
272	1
273	1
274	1
275	1
277	2
279	1
280	1
283	1
284	2
285	2
286	1
287	1
292	1
293	2
294	1
295	4
296	1
297	4
298	7
299	2
300	1
309	2
310	3
311	2
312	2
313	18
314	5
315	1
321	1
325	1
326	2
327	1
328	1
330	19
331	9
332	2
336	1
339	47
340	11
341	2
343	1
344	1
354	12
355	3
357	2
372	22
373	6
374	1
