Mass Spectrum: Benzenesulfonothioic acid,S-(4-nitrophenyl) ester
Formula: C12H9NO4S2
CAS: 1150-28-3
Molecular weight: 295
m/z	intensity
77	999
78	103
97	37
108	93
109	42
124	22
125	78
126	20
141	642
142	50
143	33
152	30
184	135
185	44
186	15
201	28
203	6
231	184
232	28
233	13
262	6
263	13
264	6
265	6
266	6
295	67
297	16
