Mass Spectrum: (Z)-2-Methoxymethoxy-4'-bromo-stilbene
Formula: C16H15BrO2
CAS: 115032-53-6
Molecular weight: 318
m/z	intensity
45	999
131	19
165	426
166	209
169	59
171	59
176	60
177	29
178	59
194	148
199	19
201	19
207	29
212	79
214	79
245	69
247	69
273	289
275	287
286	19
288	19
318	297
320	298
