Mass Spectrum: Propane-1,3-dione, 1-phenyl-3-(4-phenyl-3H-benzo[b][1,4]-diazepin-2-yl)-
Formula: C24H18N2O2
CAS: 115080-51-8
Molecular weight: 366
m/z	intensity
33	4
34	0
35	0
36	0
37	1
38	5
39	23
40	10
41	5
42	2
43	4
44	3
45	0
47	0
48	0
50	50
51	135
52	21
53	8
54	6
55	9
56	1
57	3
58	0
59	0
60	0
62	8
63	26
64	11
65	17
66	3
67	1
68	4
69	12
70	2
71	2
73	1
74	11
75	29
77	980
78	74
79	6
80	2
81	1
82	1
83	6
84	1
85	3
86	1
87	3
88	8
89	29
90	15
91	18
92	7
93	1
94	0
95	0
96	0
97	2
98	1
99	1
100	2
101	10
102	32
103	29
105	999
106	67
107	4
109	2
110	0
111	0
112	1
113	3
114	10
115	38
116	17
117	7
118	2
119	4
120	0
121	1
122	2
123	0
124	0
125	1
126	2
127	7
128	12
129	17
130	14
131	6
133	3
134	1
135	1
136	0
137	0
138	1
139	2
140	3
141	1
142	1
143	2
144	2
145	2
146	1
147	2
148	0
150	3
151	2
152	4
153	3
154	2
155	18
156	8
157	1
159	4
160	6
162	0
163	1
164	2
165	5
166	2
167	3
168	2
169	7
171	1
172	0
174	0
176	1
177	1
178	1
179	1
180	1
181	0
182	1
183	3
184	2
185	1
186	0
188	0
189	1
190	3
191	5
192	2
193	1
194	0
199	0
201	0
202	1
203	2
204	4
205	2
206	2
207	0
208	0
211	0
213	0
214	0
215	1
216	3
217	5
218	9
219	4
220	2
221	0
223	0
228	0
229	4
230	5
231	35
232	30
233	19
234	3
235	1
237	0
240	0
241	1
242	4
243	7
244	5
245	5
246	3
247	25
248	5
249	0
251	0
255	0
256	0
261	494
262	76
263	8
264	0
265	0
271	0
280	0
285	0
287	0
290	0
294	0
295	0
306	0
308	0
309	1
310	1
311	0
317	0
318	0
319	0
320	0
321	0
322	0
323	0
333	0
334	0
336	2
337	4
338	21
339	4
340	0
366	43
367	9
368	1
