Mass Spectrum: (Z)-2-Methoxymethoxy-4'-chloro-stilbene
Formula: C16H15ClO2
CAS: 115032-51-4
Molecular weight: 274
m/z	intensity
45	999
125	109
127	40
131	20
155	10
165	342
166	170
168	90
170	30
176	60
177	30
178	40
194	60
201	19
207	19
229	391
231	130
242	40
244	19
274	391
276	131
