Mass Spectrum: Androstan-17-one, 5,6-epoxy-3-spiro-ethylenedioxy-
Formula: C21H30O4
CAS: 115003-05-9
Molecular weight: 346
m/z	intensity
33	5
34	0
37	0
39	27
40	20
41	77
42	38
43	47
44	8
45	17
46	0
50	1
51	6
53	41
55	121
56	10
57	6
58	1
59	1
60	0
61	0
63	2
65	23
67	56
68	10
69	18
71	9
73	20
74	1
75	1
77	43
79	72
80	14
81	36
82	6
83	8
84	5
86	271
87	50
89	8
91	57
92	12
93	38
94	10
95	20
96	6
97	19
99	999
100	111
101	12
102	3
103	6
105	36
106	8
107	23
108	11
109	15
110	6
111	9
113	43
115	15
116	4
117	11
118	4
119	15
120	5
121	13
122	5
123	9
124	4
125	5
126	5
127	8
128	11
129	9
130	5
131	11
132	3
133	9
134	4
135	6
136	5
137	4
138	3
139	9
140	8
141	18
142	23
143	8
144	3
145	8
146	3
147	7
148	3
149	7
150	3
151	4
152	4
153	11
154	4
155	5
156	2
157	5
158	2
159	6
160	2
161	4
162	1
163	2
164	1
165	3
166	1
167	3
168	2
169	3
170	1
171	5
172	2
173	4
174	2
175	3
176	1
177	2
178	1
179	1
180	1
181	4
182	1
183	4
184	1
185	3
186	1
187	2
188	1
189	3
190	1
191	1
192	0
193	2
194	1
195	1
196	1
197	2
198	0
199	2
200	0
201	2
202	1
203	2
204	1
205	1
206	0
207	1
208	0
209	1
210	0
211	1
212	0
213	2
214	0
215	2
216	1
217	1
218	0
219	3
220	0
221	1
222	1
223	0
224	0
225	0
227	2
228	0
229	1
230	1
231	2
232	0
233	1
235	0
237	0
240	0
241	1
242	0
243	1
244	0
245	2
246	1
247	1
248	0
249	0
255	2
256	1
257	1
258	1
259	1
260	1
261	0
263	0
269	0
272	0
273	2
274	2
275	1
276	0
284	0
285	0
286	1
287	1
288	3
289	2
290	1
291	1
299	1
300	0
301	1
302	1
303	1
304	0
313	0
316	6
317	11
318	7
319	1
328	4
329	1
331	4
332	0
346	27
347	5
348	0
