Mass Spectrum: (Z)-2-Methoxymethoxy-stilbene
Formula: C16H16O2
CAS: 115032-31-0
Molecular weight: 240
m/z	intensity
45	999
91	198
119	39
121	49
131	49
134	69
152	161
165	340
166	109
167	387
178	69
194	79
195	690
207	89
208	69
240	579
