Mass Spectrum: (E)-2-Methoxymethoxy-4'-fluoro-stilbene
Formula: C16H15FO2
CAS: 115032-50-3
Molecular weight: 258
m/z	intensity
45	999
109	141
131	30
139	29
152	110
165	99
166	19
170	50
183	160
185	109
194	20
213	421
226	49
258	431
