Mass Spectrum: (Z)-2-Methoxymethoxy-4'-acetoxy-stilbene
Formula: C18H18O4
CAS: 115032-48-9
Molecular weight: 298
m/z	intensity
45	999
107	200
131	60
150	220
155	50
165	240
166	60
179	20
181	150
182	60
183	450
194	30
207	20
210	60
211	720
224	190
225	40
253	80
256	520
298	660
