Mass Spectrum: 1,7,7-Trimethyl-2-(.alpha.-cyclohexyl-benzylimino)-bicyclo(2,2,1)heptane
Formula: C23H33N
CAS: 115148-61-3
Molecular weight: 323
m/z	intensity
43	999
57	499
69	316
82	419
91	498
94	169
109	109
173	60
240	189
323	19
