Mass Spectrum: Iron, [(1,2,3,4,5-.eta.)-2,4-cyclohexadien-1-yl]hydro[1,3-propanediylbis[bis(1-methylethyl)phosphine]-P,P']-
Formula: C21H42FeP2
CAS: 115161-10-9
Molecular weight: 412
m/z	intensity
26	53
27	454
28	14
29	52
30	4
31	4
34	2
35	2
36	5
37	26
38	46
39	271
40	79
41	645
42	80
43	999
44	36
45	75
46	12
47	73
48	33
49	22
50	49
51	84
52	53
53	31
54	15
55	43
56	78
57	59
58	16
59	48
60	11
61	77
62	19
63	22
64	5
65	18
66	5
67	21
68	3
69	27
70	5
71	47
72	23
73	184
74	82
75	129
76	49
77	180
78	114
79	275
80	106
81	12
82	6
83	9
84	2
85	12
87	20
88	12
89	37
90	28
91	10
93	3
94	2
95	8
96	12
97	36
98	39
99	21
100	14
101	12
102	20
103	28
104	13
105	79
106	155
107	51
108	6
109	2
110	3
111	2
112	2
113	13
114	23
115	15
116	27
117	31
118	30
119	7
120	6
121	5
122	4
124	6
125	2
126	3
127	9
128	14
129	20
130	44
131	26
132	17
133	15
134	59
135	49
136	9
138	2
139	3
140	2
141	3
142	2
143	8
144	6
145	23
146	6
147	28
148	293
149	65
150	5
151	2
152	2
155	4
157	48
158	13
159	36
160	15
161	27
162	30
163	13
164	118
165	6
166	4
167	3
169	3
170	4
171	6
172	11
173	7
174	5
175	9
176	4
177	6
178	6
179	2
183	2
184	2
185	4
186	2
187	3
188	2
189	26
190	74
191	175
192	14
193	11
198	2
199	10
200	2
201	10
202	2
203	17
204	28
205	19
206	226
207	43
208	4
214	3
215	3
217	5
218	2
219	10
220	4
223	9
229	2
231	10
232	4
233	669
234	110
235	18
236	2
241	3
243	8
244	4
245	19
246	31
247	49
248	280
249	74
250	10
261	3
265	4
273	8
274	3
275	2
277	26
278	4
285	2
287	11
288	15
289	19
290	180
291	27
292	3
329	5
330	7
331	18
332	66
333	36
334	7
369	2
410	11
411	5
412	73
413	17
414	3
