Mass Spectrum: L-Aspartic acid, N-[(phenylmethoxy)carbonyl]-
Formula: C12H13NO6
CAS: 1152-61-0
Molecular weight: 267
m/z	intensity
12	5
13	4
14	12
15	33
16	16
17	38
18	133
24	2
25	6
26	39
27	68
28	93
29	36
30	3
31	20
32	9
34	1
35	4
36	1
37	13
38	26
39	101
40	31
41	71
42	144
43	249
44	441
45	18
46	4
49	8
50	66
51	154
52	45
53	37
54	26
55	14
56	2
57	3
58	1
60	43
61	9
62	17
63	46
64	12
65	112
66	9
67	2
68	4
69	76
70	28
71	8
72	9
73	6
74	21
75	10
76	10
77	372
78	85
79	785
80	81
81	5
82	1
83	2
84	1
85	3
86	9
87	22
88	21
89	64
90	110
91	742
92	79
93	4
95	1
96	5
97	2
98	7
99	4
100	10
101	1
102	1
104	1
105	41
106	16
107	789
108	999
109	76
110	5
113	18
114	10
115	3
116	2
118	2
121	1
131	1
132	17
133	4
141	11
142	2
144	3
149	2
162	2
177	3
178	5
179	1
221	3
222	1
249	44
250	6
251	1
267	4
