Mass Spectrum: 4a-(1H-Indol-3-yl)-6,8-dimethyl-2,8-dihydro-4ah-pyrimido[5,4-E][1,2,4]triazine-5,7-dione
Formula: C15H14N6O2
CAS: 115249-35-9
Molecular weight: 310
m/z	intensity
33	2
34	7
35	4
36	9
37	33
38	105
39	173
40	99
41	77
42	445
43	77
44	51
45	40
46	10
47	5
48	5
50	102
51	146
52	184
53	199
54	56
55	68
56	175
57	73
58	108
59	62
60	14
61	34
62	102
63	202
64	80
65	67
66	30
67	91
68	154
69	36
70	80
71	20
72	3
74	43
75	58
76	57
77	73
78	32
79	49
80	137
81	160
82	76
83	68
84	42
85	46
86	25
87	42
88	77
89	409
90	461
91	50
92	8
93	13
94	12
95	6
96	26
97	5
98	17
99	28
100	38
101	60
102	34
103	23
104	13
105	43
106	7
107	5
108	19
109	17
110	9
111	14
112	71
113	78
114	78
115	132
116	283
117	999
118	97
119	19
121	16
122	16
123	2
124	1
125	10
127	236
128	141
129	51
130	75
131	11
135	14
136	130
137	287
138	23
139	9
140	44
141	107
142	354
143	388
144	65
145	5
149	26
150	4
151	1
153	50
154	105
155	117
156	46
157	43
158	5
164	6
165	59
166	54
167	33
168	106
169	260
170	804
171	102
172	6
176	1
177	5
179	2
181	26
182	36
183	28
184	30
185	3
192	6
193	165
194	23
195	46
196	65
197	62
198	30
199	5
208	5
209	21
210	26
211	10
212	1
214	2
222	9
224	243
225	274
226	41
227	3
237	5
238	52
239	14
240	5
245	2
251	1
252	70
253	51
254	26
255	23
256	1
264	1
265	1
266	3
267	13
268	4
281	38
282	85
283	17
295	33
296	2
309	76
310	273
311	47
312	3
