Mass Spectrum: 2,3-Dihydro-2-methyl-4-(4-methylphenyl)-1H-1,5-benzodiazepine
Formula: C17H18N2
CAS: 115236-76-5
Molecular weight: 250
m/z	intensity
65	113
77	59
91	138
92	82
117	330
119	999
125	63
133	112
159	65
208	181
221	60
235	883
250	770
251	150
