Mass Spectrum: cis-2,3,4,5-Tetrahydro-2-methyl-4-(4-methylphenyl)-1H-1,5-benzodiazepine
Formula: C17H20N2
CAS: 115236-77-6
Molecular weight: 252
m/z	intensity
65	133
77	46
92	163
105	80
119	999
133	494
145	123
161	48
209	318
220	113
234	56
235	40
236	58
237	154
252	914
253	178
