Mass Spectrum: 17.beta.-Benzoyloxyandrosta-4,6-dien-3-one
Formula: C26H30O3
CAS: 115387-45-6
Molecular weight: 390
m/z	intensity
27	10
29	17
31	1
38	1
39	11
40	4
41	39
42	4
43	32
44	3
45	3
47	1
49	5
50	5
51	25
52	2
53	12
54	2
55	51
56	6
57	14
58	2
59	1
60	2
63	1
65	7
66	2
67	16
68	2
69	12
70	3
71	4
73	2
74	1
75	1
76	6
77	184
78	16
79	21
80	4
81	20
82	3
83	6
84	5
85	2
86	2
89	1
91	39
92	5
93	17
94	5
95	11
96	2
97	4
98	1
99	1
102	1
103	6
104	7
105	999
106	77
107	11
108	4
109	8
110	1
111	2
115	14
116	6
117	18
118	8
119	8
120	2
121	4
122	3
123	2
124	4
125	1
127	4
128	11
129	16
130	7
131	19
132	8
133	160
134	17
135	2
136	71
137	7
138	1
141	7
142	5
143	10
144	13
145	18
146	7
147	8
148	2
149	1
152	1
153	2
154	2
155	7
156	3
157	6
158	4
159	7
160	11
161	7
162	5
163	1
165	2
166	1
167	3
168	1
169	5
170	2
171	4
172	7
173	11
174	11
175	5
176	1
179	1
180	1
181	2
182	1
183	7
184	3
185	4
186	2
187	2
188	1
193	1
194	1
195	3
196	1
197	5
198	2
199	2
200	1
207	1
208	1
209	6
210	2
211	5
212	3
213	3
214	1
222	1
223	1
224	8
225	5
226	4
227	3
228	2
229	1
230	1
235	4
236	1
239	2
240	17
241	3
249	1
250	3
251	3
252	1
253	21
254	4
255	4
265	3
266	1
267	3
268	59
269	12
270	2
278	1
285	6
286	2
346	5
347	1
350	1
362	1
375	1
390	116
391	32
392	7
