Mass Spectrum: 1,2-Pentanediol, 5-(6-bromodecahydro-2-hydroxy-2,5,5a,8a-tetramethyl-1-naphthalenyl)-3-methylene-
Formula: C20H35BrO3
CAS: 115346-29-7
Molecular weight: 402
m/z	intensity
41	760
43	880
55	580
67	370
69	830
71	999
79	310
81	650
84	450
91	260
93	510
95	640
97	200
105	290
107	500
109	450
119	360
121	440
123	710
133	300
135	480
147	250
149	200
175	230
191	180
203	170
366	30
368	30
372	30
374	30
384	10
386	10
402	0
404	0
