Mass Spectrum: trans-3,4-Diphenyl-5-nitro-2-isoxazoline
Formula: C15H12N2O3
CAS: 115335-20-1
Molecular weight: 268
m/z	intensity
50	310
51	680
52	110
61	50
62	170
63	490
64	180
65	180
74	80
75	120
76	280
77	550
78	50
87	50
88	80
89	999
90	990
91	980
92	90
102	40
103	480
104	120
105	50
115	50
116	230
117	50
118	250
119	100
164	40
165	380
166	90
167	60
178	90
179	60
190	50
191	60
192	190
193	790
194	380
195	60
220	70
221	840
222	530
223	80
