Mass Spectrum: 1,2-Pentanediol, 5-(6-bromodecahydro-2-hydroxy-2,5,5a,8a-tetramethyl-1-naphthalenyl)-3-methylene-, 1,2-diacetate
Formula: C24H39BrO5
CAS: 115334-14-0
Molecular weight: 486
m/z	intensity
41	230
43	999
55	200
69	300
71	230
81	220
93	230
95	200
105	100
107	180
109	150
119	120
121	150
123	230
133	120
135	170
147	110
149	90
175	100
191	70
255	30
257	30
269	50
287	60
366	50
368	50
426	20
428	20
