Mass Spectrum: Benzylamine, 2-hydroxy-N,N-di-[2-aminoethyl]-
Formula: C11H19N3O
CAS: 115395-65-8
Molecular weight: 209
m/z	intensity
42	197
43	170
44	999
45	693
46	364
47	4
49	10
50	43
51	91
52	46
53	41
54	16
55	36
56	108
57	35
58	17
59	16
60	166
61	13
62	8
63	22
64	9
65	29
66	17
67	10
68	8
69	37
70	11
71	25
73	691
74	35
75	11
76	28
77	249
78	128
79	73
80	4
81	9
83	23
84	29
85	27
86	40
87	14
89	12
90	11
91	19
93	15
94	22
95	14
97	11
99	13
100	10
102	14
104	64
105	27
106	53
107	780
108	59
109	11
113	6
115	12
119	12
120	33
121	44
122	48
123	17
124	16
128	4
130	13
132	21
133	9
134	19
135	32
136	122
137	46
138	37
139	6
148	28
149	41
150	45
151	9
162	76
163	15
164	23
165	18
166	4
167	11
177	17
179	258
180	35
191	5
192	18
