Mass Spectrum: 1,3-Diphenylurea, TMS derivative
Formula: C16H20N2OSi
CAS: 1154-84-3
Molecular weight: 284
m/z	intensity
27	3
29	6
38	8
39	39
40	8
41	18
42	3
43	14
44	4
45	3
50	8
51	34
52	11
53	3
54	7
55	16
56	4
57	10
60	13
61	3
62	4
63	19
64	25
65	94
66	86
67	14
68	4
69	14
70	5
71	10
72	1
73	15
74	4
75	2
76	6
77	90
78	11
79	3
80	2
81	9
82	4
83	10
84	6
85	6
87	4
89	1
90	3
91	43
92	97
93	999
94	71
95	6
96	4
97	9
98	5
99	3
100	1
101	3
102	1
103	1
104	3
105	3
106	10
107	2
108	1
109	2
110	2
111	4
112	2
113	2
114	1
115	3
118	1
119	42
120	17
121	5
122	1
123	2
124	1
125	1
127	1
129	7
133	2
134	1
135	3
136	1
137	2
143	2
147	1
149	14
150	3
152	2
157	2
166	1
167	4
168	1
171	1
185	2
211	4
212	144
213	23
214	1
240	3
