Mass Spectrum: Northiaden
Formula: C18H19NS
CAS: 1154-09-2
Molecular weight: 281
m/z	intensity
42	26
44	999
45	26
47	32
48	12
49	9
50	5
51	4
52	0
53	1
55	2
56	4
57	5
58	4
60	2
63	4
65	3
69	3
70	4
71	2
72	1
73	0
74	1
75	1
76	1
77	5
78	1
82	4
83	68
85	45
87	9
88	1
89	4
91	3
95	2
97	1
99	0
100	0
101	3
102	2
103	2
104	1
106	0
107	0
108	0
111	2
113	1
114	0
115	8
116	1
117	3
118	2
119	0
120	1
121	1
123	1
126	2
127	2
128	4
129	1
134	1
139	3
145	0
147	1
149	1
150	2
151	3
152	5
153	0
158	0
159	0
163	4
164	1
165	8
166	1
169	0
171	1
176	5
177	1
178	10
179	2
184	1
187	1
188	1
189	10
190	3
191	3
192	0
195	1
197	1
200	4
201	4
202	33
203	35
204	109
205	22
206	1
208	5
209	2
210	2
211	0
213	0
215	4
216	1
217	1
219	0
220	0
221	27
222	9
223	7
224	1
232	1
233	1
234	8
235	5
236	1
237	7
238	10
239	1
281	29
282	11
283	2
