Mass Spectrum: N-Acetylpseudoephedrine
Formula: C12H17NO2
CAS: 115460-03-2
Molecular weight: 207
m/z	intensity
42	41
43	88
50	8
51	34
52	10
53	6
54	5
55	7
56	54
57	20
58	809
59	32
60	1
61	1
62	2
63	9
64	1
65	8
66	1
67	1
68	2
69	1
70	2
71	2
72	2
73	9
74	9
75	3
76	5
77	156
78	33
79	93
80	5
81	1
82	12
84	1
85	1
86	66
87	5
88	4
89	13
90	4
91	41
92	3
93	1
94	1
98	1
99	2
100	999
101	308
102	20
103	12
104	6
105	50
106	9
107	35
108	3
112	1
114	1
115	28
116	8
117	58
118	54
119	6
120	1
128	1
129	2
130	11
131	21
132	13
133	21
134	6
135	1
143	1
144	5
146	28
147	10
148	13
149	1
150	1
158	1
159	1
160	1
162	1
164	1
172	1
174	2
188	1
189	39
190	8
191	1
193	1
207	1
208	4
209	1
