Mass Spectrum: 3,3-Dimethyl-4-phenylamino-butan-2-one
Formula: C12H17NO
CAS: 115437-14-4
Molecular weight: 191
m/z	intensity
41	83
43	165
44	71
77	152
91	204
104	72
105	91
106	999
107	82
191	72
