Mass Spectrum: Benzenethanamine, 4,5-dibenzyloxy-N-formyl-2-fluoro-.beta.-hydroxy-
Formula: C23H22FNO4
CAS: 115562-26-0
Molecular weight: 395
m/z	intensity
41	29
42	5
43	11
51	27
58	72
59	21
63	22
65	143
77	7
83	5
89	32
91	999
92	65
99	4
181	30
241	26
242	34
243	21
245	215
246	55
247	35
248	5
258	19
259	44
260	9
268	5
286	4
304	4
337	276
338	60
339	6
350	87
351	14
395	10
