Mass Spectrum: N .epsilon.-Carbobenzyloxy-L-lysine
Formula: C14H20N2O4
CAS: 1155-64-2
Molecular weight: 280
m/z	intensity
41	41
42	41
43	98
44	40
45	16
46	21
49	1
50	7
51	27
52	8
53	7
54	9
55	17
56	96
57	14
58	7
59	8
62	4
63	19
64	5
65	101
66	1
67	15
68	3
69	7
70	20
71	11
72	62
73	2
74	55
75	7
77	35
78	6
79	39
80	5
82	66
84	252
85	17
86	10
87	4
88	4
89	40
90	24
91	999
92	57
93	1
98	4
99	14
100	24
101	1
102	3
103	1
104	3
105	9
106	5
107	29
108	44
110	5
116	20
117	5
120	5
126	1
127	33
128	156
129	21
130	6
131	7
145	3
146	17
164	5
171	10
172	6
173	24
174	75
175	9
181	2
189	52
190	1
207	1
218	1
235	87
236	11
237	1
269	14
280	23
281	5
