Mass Spectrum: Ethanamine, 2-(dicyclohexylphosphino)-N,N-bis[2-(dicyclohexylphosphino)ethyl]-
Formula: C42H78NP3
CAS: 115562-61-3
Molecular weight: 689
m/z	intensity
26	16
27	7
29	38
30	6
35	4
38	0
39	15
41	309
42	15
43	11
44	9
46	7
47	7
48	5
49	31
50	1
53	36
54	16
55	999
56	49
57	0
58	15
59	15
60	18
61	60
62	7
63	8
66	5
67	64
68	15
69	14
70	12
71	10
72	9
74	32
75	21
76	6
77	3
79	40
80	23
81	413
82	45
83	383
84	38
85	25
86	34
87	78
88	54
89	25
90	0
93	10
94	1
95	20
96	4
97	5
98	22
99	17
100	88
101	34
102	74
103	12
104	9
105	0
106	5
107	4
108	0
109	6
110	3
111	7
112	11
113	61
114	79
115	675
116	86
117	33
120	1
122	1
124	3
125	5
126	15
127	22
128	46
129	97
130	24
131	7
132	16
134	6
136	0
137	2
138	2
139	6
140	3
141	30
142	34
143	110
144	28
145	5
146	4
147	12
148	26
149	2
150	0
151	0
153	1
155	6
156	1
157	9
158	12
159	4
160	13
161	2
162	2
163	5
164	1
165	0
166	1
167	0
168	4
169	13
170	27
171	9
172	5
173	5
174	0
175	2
176	0
178	1
179	0
180	5
181	4
182	7
183	18
184	31
185	11
186	4
187	3
188	1
190	2
191	0
192	1
194	2
195	16
196	33
197	336
198	75
199	22
200	2
202	1
204	1
206	1
208	2
209	6
210	16
211	33
212	17
213	29
214	9
215	4
216	4
217	2
219	1
221	3
222	2
223	17
224	7
225	488
226	82
227	10
228	11
229	12
230	16
233	0
234	1
235	1
236	2
237	3
238	4
239	58
240	32
241	5
242	28
243	8
244	12
245	0
246	1
247	1
248	0
249	0
250	2
251	7
252	24
253	5
254	14
255	11
256	3
257	1
258	1
261	1
262	1
264	7
265	1
266	127
267	20
268	53
269	9
270	7
271	2
272	1
273	1
274	3
275	0
276	2
278	4
279	4
280	29
282	2
284	3
286	1
288	0
290	1
292	59
293	14
294	28
295	9
296	6
297	3
298	12
299	2
300	7
301	1
302	1
304	1
306	0
307	1
308	1
310	12
311	6
312	41
313	7
314	1
319	0
321	0
322	8
323	3
324	108
325	23
326	48
327	5
328	2
329	1
334	1
337	4
338	2
339	2
340	0
348	0
350	2
352	3
353	2
354	2
355	1
356	9
357	0
358	10
359	3
360	0
365	3
366	1
369	0
370	1
371	1
372	0
373	0
374	1
376	0
378	1
380	23
381	5
382	26
383	6
392	28
393	7
394	18
395	7
396	2
397	0
404	3
405	0
406	43
407	12
408	598
409	142
410	25
411	3
412	1
419	0
421	0
424	1
425	0
435	2
436	1
437	2
438	15
439	3
440	5
441	1
442	0
447	0
448	0
452	2
453	1
462	5
463	2
464	30
465	6
466	9
467	0
468	0
476	14
477	6
478	185
479	58
480	9
484	1
486	1
488	36
489	12
490	808
491	256
492	470
493	164
494	26
495	3
503	0
508	2
518	1
520	3
521	3
522	7
523	2
524	9
525	1
535	1
536	1
578	2
579	1
580	1
581	1
602	6
603	3
604	62
605	24
606	130
607	53
608	10
609	1
615	0
685	0
686	8
687	3
688	6
689	2
690	1
