Mass Spectrum: 3,5,8a-trimethyl-4,4a,8a,9-tetrahydronaphtho[2,3-b]furan
Formula: C15H18O
CAS: 115526-32-4
Molecular weight: 214
m/z	intensity
26	1
27	11
28	1
29	9
38	3
39	60
40	12
41	36
42	2
43	69
44	2
50	11
51	43
52	19
53	35
54	4
55	15
56	1
57	17
58	3
61	1
62	7
63	37
64	19
65	64
66	16
67	16
68	2
69	32
70	9
71	10
72	3
74	6
75	11
76	28
77	151
78	42
79	177
80	28
81	5
82	15
83	22
84	18
85	8
86	4
87	5
88	3
89	23
90	9
91	137
92	31
93	6
94	1
95	52
96	4
97	12
98	24
99	21
101	4
102	14
103	36
104	12
105	70
106	81
107	30
108	999
109	88
110	6
111	1
113	3
114	3
115	112
116	25
117	59
118	338
119	119
120	11
121	4
122	9
123	1
125	1
126	7
127	37
128	110
129	82
130	21
131	23
132	23
133	3
134	1
135	13
136	1
138	1
139	16
140	5
141	92
142	67
143	98
144	21
145	22
146	65
147	6
150	2
151	9
152	42
153	58
154	29
155	67
156	74
157	78
158	17
159	19
160	2
163	2
164	3
165	63
166	59
167	15
168	7
169	22
170	21
171	57
172	12
173	3
176	1
178	3
179	6
180	5
181	94
182	22
183	15
184	18
185	41
186	7
195	5
196	4
197	6
198	4
199	218
200	33
201	2
213	14
214	554
215	96
216	6
