Mass Spectrum: 1-(5-(1-Oxo-ethyl)pyrazin-2-yl)-2,2-dimethylpropan-1-one
Formula: C11H14N2O2
CAS: 115609-81-9
Molecular weight: 206
m/z	intensity
42	39
43	225
44	11
50	3
51	23
52	77
53	42
54	8
55	20
56	61
57	999
58	43
65	5
66	11
67	10
68	6
69	6
70	3
77	7
78	17
79	30
80	34
81	10
85	2
93	14
94	8
95	43
96	2
105	2
106	5
107	6
108	2
121	44
122	728
123	71
124	4
134	4
135	2
136	93
137	7
149	10
150	126
151	32
152	2
163	33
164	7
177	2
178	71
179	10
191	16
192	2
206	66
207	8
