Mass Spectrum: Oxazol-5(4H)-one, 4-(4-methoxyphenylamino)methylene-2-phenyl-
Formula: C17H14N2O3
CAS: 115621-12-0
Molecular weight: 294
m/z	intensity
37	0
38	5
39	22
40	6
41	4
42	2
44	3
45	1
48	0
51	152
52	18
53	13
54	3
55	0
56	0
57	0
58	0
63	58
64	44
65	18
66	4
67	0
68	2
69	2
70	0
74	7
75	13
77	573
78	33
79	7
80	6
81	1
83	0
84	0
85	0
86	1
87	1
89	24
91	46
92	57
93	3
94	1
95	2
97	0
99	0
100	0
105	999
106	56
107	36
108	12
109	1
111	0
114	1
115	2
116	3
117	16
118	24
119	7
120	5
121	1
122	1
123	1
125	0
126	0
128	17
129	3
130	3
132	70
134	105
135	6
136	0
139	0
140	0
141	0
142	0
143	0
145	31
147	72
148	2
150	0
152	1
153	0
158	3
159	2
161	141
162	13
163	0
165	0
167	0
171	0
172	0
173	2
174	0
176	0
177	0
178	0
180	2
181	0
190	1
191	0
192	0
193	0
194	0
204	0
206	4
207	7
208	9
210	14
211	1
217	0
218	1
219	3
220	10
221	4
223	35
224	5
225	0
233	0
234	8
235	18
236	2
237	0
247	2
249	163
250	51
251	6
252	0
263	0
264	0
265	0
266	1
267	0
275	10
276	2
277	0
279	2
287	0
288	0
289	1
290	1
291	3
294	675
295	124
296	14
297	1
