Mass Spectrum: 1-(3,6-Dimethyl-2-pyrazinyl)propanone
Formula: C9H12N2O
CAS: 115609-79-5
Molecular weight: 164
m/z	intensity
40	527
41	252
42	740
43	173
44	182
45	132
46	8
49	14
50	43
51	90
52	133
53	113
54	104
55	143
56	93
57	486
58	17
59	20
60	40
61	25
62	13
63	21
64	54
65	50
66	156
67	115
68	28
69	63
70	28
71	62
72	5
73	32
74	11
75	7
76	11
77	27
78	31
79	41
80	311
81	113
82	38
83	33
84	18
85	27
86	5
87	10
88	2
89	4
90	3
91	21
92	12
93	28
94	17
95	24
96	13
97	29
98	11
99	13
101	5
102	13
103	3
104	9
105	10
106	18
107	999
108	584
109	98
110	10
111	10
112	5
113	7
115	11
116	4
117	4
118	7
119	11
120	6
121	24
122	16
123	14
124	6
125	5
126	4
127	4
128	4
129	7
130	5
131	56
132	7
133	27
134	11
135	233
136	491
137	50
138	2
139	4
141	4
143	5
145	9
146	5
147	12
148	5
149	100
150	17
151	3
152	2
153	2
155	3
158	2
161	4
162	11
163	25
164	281
165	35
166	6
