Mass Spectrum: .delta.4-Androstene-3.beta.,17.beta.-diol
Formula: C19H30O2
CAS: 1156-92-9
Molecular weight: 290
m/z	intensity
38	2
39	105
40	26
41	426
42	31
43	285
44	45
45	25
50	4
51	36
52	20
53	220
54	38
55	544
56	35
57	232
58	26
59	6
61	1
62	1
63	12
64	7
65	151
66	48
67	462
68	75
69	126
70	20
71	58
72	8
73	3
74	3
75	4
76	6
77	372
78	96
79	603
80	142
81	409
82	67
83	98
84	25
85	21
86	3
87	5
88	2
89	13
90	6
91	999
92	208
93	543
94	168
95	466
96	81
97	204
98	37
99	13
100	4
101	4
102	14
103	77
104	53
105	711
106	368
107	527
108	235
109	352
110	140
111	65
112	7
113	4
114	8
115	134
116	50
117	227
118	165
119	307
120	169
121	286
122	121
123	192
124	118
125	21
126	5
127	30
128	103
129	144
130	50
131	277
132	88
133	258
134	122
135	179
136	91
137	65
138	13
139	9
140	2
141	54
142	37
143	156
144	63
145	245
146	102
147	253
148	96
149	137
150	48
151	86
152	28
153	22
154	20
155	31
156	15
157	92
158	54
159	147
160	78
161	207
162	59
163	71
164	80
165	41
166	12
167	11
168	6
169	31
170	11
171	59
172	34
173	168
174	53
175	52
176	279
177	57
178	62
179	18
180	3
181	5
182	3
183	30
184	11
185	75
186	28
187	156
188	51
189	38
190	19
191	55
192	14
193	2
194	1
195	3
196	1
197	26
198	10
199	83
200	43
201	122
202	194
203	80
204	24
205	39
206	8
207	1
208	2
209	1
210	1
211	14
212	8
213	84
214	42
215	42
216	14
217	34
218	73
219	174
220	360
221	63
222	6
223	1
224	1
225	9
226	6
227	7
228	23
229	15
230	13
231	26
232	158
233	47
234	8
235	1
237	2
238	1
239	73
240	14
241	5
242	1
243	10
244	6
245	2
246	21
247	8
253	4
254	15
255	6
256	3
257	102
258	19
259	5
260	1
261	24
262	5
270	4
271	3
272	220
273	48
274	10
275	18
276	3
288	6
289	8
290	239
291	48
292	6
