Mass Spectrum: 2-(E)-Pentenoic acid, (4S)-4-[(t-butoxycarbonyl)amino]-5-phenyl-, methyl ester
Formula: C17H23NO4
CAS: 115650-05-0
Molecular weight: 305
m/z	intensity
25	0
26	2
27	17
28	0
29	80
30	3
31	9
33	1
35	0
36	0
38	2
39	31
40	5
41	140
42	9
43	9
44	6
45	1
46	0
50	2
51	10
52	5
53	6
54	24
55	15
56	19
57	999
58	36
59	32
60	0
61	7
62	1
63	4
64	3
65	35
66	2
67	0
68	1
69	1
70	0
71	2
72	2
73	0
74	0
75	0
76	0
77	9
78	3
79	0
80	2
81	2
82	22
83	5
84	1
85	0
86	6
87	0
88	0
89	7
90	4
91	248
92	62
93	3
94	0
95	0
96	1
97	0
98	5
99	0
100	1
101	0
102	2
103	5
104	3
105	2
106	0
107	1
108	1
109	2
110	0
111	0
112	2
114	533
115	40
116	4
117	7
118	2
119	1
120	10
121	6
122	1
125	0
126	5
127	13
128	22
129	47
130	10
131	1
132	0
133	0
134	0
135	0
137	0
140	0
141	1
142	1
143	3
144	8
145	2
146	2
147	0
151	0
152	0
153	0
154	0
155	1
156	0
157	10
158	209
159	12
160	1
162	0
163	0
164	3
165	0
166	0
169	0
170	8
171	1
172	6
173	3
174	32
175	4
176	0
177	0
178	0
179	0
183	2
184	0
185	0
186	0
187	0
188	7
189	7
190	1
191	0
194	0
200	2
201	0
202	0
203	1
204	1
205	1
206	0
207	0
214	129
215	10
216	2
217	0
218	0
220	3
221	0
222	0
228	0
232	15
233	2
234	0
238	0
246	0
249	3
250	1
251	0
259	0
261	0
262	3
263	0
264	0
276	0
281	0
290	0
303	0
305	3
306	0
