Mass Spectrum: N-Acetylisoxazolidine
Formula: C5H9NO2
CAS: 115615-36-6
Molecular weight: 115
m/z	intensity
27	57
28	467
29	81
30	48
31	54
32	4
39	57
40	18
41	143
42	170
43	999
44	54
45	807
46	35
56	57
57	26
58	13
59	18
60	525
61	31
71	18
72	221
73	772
74	22
115	61
116	3
