Mass Spectrum: .beta.-Bromo-3-nitrostyrene, (Z)-
Formula: C8H6BrNO2
CAS: 115665-66-2
Molecular weight: 227
m/z	intensity
26	4
27	8
29	2
30	23
36	1
37	10
38	19
39	43
40	4
41	2
43	2
44	1
46	9
49	11
50	123
51	213
52	57
53	4
55	13
60	2
61	19
62	45
63	88
64	17
65	54
66	6
67	1
69	3
70	2
73	11
74	87
75	102
76	159
77	63
78	15
79	6
80	4
81	5
82	2
85	3
86	7
87	15
88	7
89	77
90	118
91	18
92	66
93	7
94	1
97	3
98	14
99	6
100	5
101	63
102	999
103	93
104	14
105	45
106	16
107	2
114	2
115	2
116	23
117	30
118	234
119	22
120	42
121	4
128	2
129	1
130	3
131	3
132	19
133	3
141	2
143	2
145	1
147	1
148	33
149	5
155	1
157	1
169	126
170	10
171	122
172	9
180	41
181	25
182	44
183	24
184	4
199	8
200	1
201	7
210	11
211	1
212	10
213	1
227	34
228	4
229	33
230	3
