Mass Spectrum: N-ethyl-N-Methylcathinone
Formula: C12H17NO
CAS: 115772-98-0
Molecular weight: 191
m/z	intensity
40	3
41	14
42	73
43	15
44	5
45	1
50	21
51	65
52	7
53	3
54	11
55	14
56	81
58	209
59	8
60	1
61	1
62	2
63	4
64	1
65	3
66	1
68	4
70	25
71	7
72	1
73	1
74	8
75	7
77	169
78	17
79	5
80	1
82	1
84	18
86	999
87	62
88	2
89	3
91	12
92	1
94	1
98	1
101	1
102	2
103	6
105	57
106	5
107	1
113	1
115	4
116	1
117	2
118	2
119	1
120	1
122	1
127	1
128	1
129	1
130	2
131	6
132	3
133	5
134	2
135	1
143	1
144	1
145	1
146	6
147	2
148	3
149	1
154	1
156	1
157	1
158	1
160	6
161	1
162	1
168	1
170	2
171	3
172	1
174	7
175	1
176	3
177	1
187	1
188	2
189	7
190	2
191	1
192	1
