Mass Spectrum: 1,4,7,10,13,16,19,22,25,28-Decaaza-tricyclo[26.2.2.2(13,16)]tetratriacontane
Formula: C24H54N10
CAS: 115760-77-5
Molecular weight: 482
m/z	intensity
53	1
54	10
55	72
56	460
57	100
58	359
59	9
61	27
63	6
64	2
66	1
67	2
68	47
69	44
70	631
71	145
72	115
73	25
74	1
75	11
80	3
81	5
82	74
83	157
84	174
85	351
86	61
87	169
88	4
89	1
92	2
94	4
95	58
96	36
97	447
98	186
99	570
100	55
101	232
102	12
103	1
104	85
105	5
106	6
107	1
108	2
109	37
110	42
111	377
112	131
113	56
114	999
115	37
116	83
117	43
118	4
119	3
121	1
122	1
123	26
124	61
125	148
126	171
127	291
128	267
129	72
130	57
131	75
132	2
133	1
134	3
135	2
136	26
137	21
138	65
139	138
140	110
141	111
142	88
143	156
144	22
145	83
146	2
147	22
148	41
149	2
150	2
151	4
152	22
153	29
154	73
155	204
156	37
157	274
158	24
159	11
160	115
161	4
162	2
164	1
165	8
166	14
167	29
168	28
169	186
170	77
171	58
172	96
173	23
174	51
175	3
176	1
177	6
179	3
180	7
181	44
182	38
183	46
184	35
185	10
186	125
187	10
188	31
189	2
190	7
191	6
192	2
193	1
194	4
195	9
196	14
197	36
198	76
199	57
200	174
201	16
202	7
203	22
207	2
208	4
209	19
210	16
211	40
212	106
213	16
214	25
215	22
216	31
217	41
218	2
222	2
223	10
224	18
225	24
226	34
227	24
228	90
229	78
230	36
231	8
233	2
234	2
237	4
238	9
239	10
240	95
241	72
242	289
243	32
244	15
245	1
250	2
251	2
252	28
253	7
254	169
255	47
256	19
257	14
258	3
259	73
260	7
264	1
266	8
267	10
268	22
269	31
270	5
271	147
272	19
273	10
274	5
280	4
281	8
282	5
283	130
284	33
285	145
286	18
287	1
293	3
294	2
295	23
296	5
297	120
298	19
299	11
300	11
301	3
302	48
303	4
309	11
310	6
311	48
312	24
313	6
314	134
315	19
316	3
323	9
324	14
325	5
326	133
327	27
328	50
329	5
336	9
337	3
338	19
339	4
340	69
341	11
342	9
343	7
345	4
352	16
353	6
354	75
355	44
356	6
357	106
358	13
364	1
365	1
366	39
367	24
368	9
369	251
370	58
371	17
372	1
379	8
380	3
381	14
382	3
383	42
384	7
385	2
395	14
396	8
397	60
398	17
400	2
407	1
409	33
410	42
411	7
412	25
413	3
414	8
422	4
423	3
424	23
425	4
426	12
427	1
436	1
437	1
438	46
439	8
440	3
452	3
453	1
454	1
467	3
479	2
480	7
481	83
482	175
483	56
484	4
