Mass Spectrum: 2-(2-Hydroxycyclooctyl)-furan
Formula: C12H18O2
CAS: 115754-90-0
Molecular weight: 194
m/z	intensity
39	79
40	98
41	128
43	49
53	50
55	98
57	58
67	231
79	130
81	848
82	219
94	340
95	999
96	81
107	120
109	60
110	130
123	100
166	139
177	29
194	129
