Mass Spectrum: 1,1,4,4,7,7,10,10,13,13,16,16-Dodecamethyl-1,4,7,10,13,16-hexasilacyclooctadeca-2,5,11,14-tetrayne
Formula: C24H44Si6
CAS: 115782-45-1
Molecular weight: 500
m/z	intensity
73	999
83	80
85	90
97	80
99	90
125	80
140	40
141	40
155	70
183	30
207	40
399	60
427	30
457	60
472	30
485	60
500	80
501	45
502	28
503	10
