Mass Spectrum: 2-(Difluoroamino)-2,2-difluoro-O-(trifluoroacetyl)acetamidoxime
Formula: C4H2F7N3O2
CAS: 115983-88-5
Molecular weight: 257
m/z	intensity
42	169
52	13
69	999
78	288
91	117
92	128
121	67
159	15
187	16
188	39
205	264
219	15
238	7
257	108
258	2
