Mass Spectrum: Allyltrivinylsilane
Formula: C9H14Si
CAS: 115946-69-5
Molecular weight: 150
m/z	intensity
55	167
56	29
57	190
58	8
81	97
82	29
83	481
84	56
85	29
95	37
97	28
107	10
108	9
109	999
110	127
111	140
122	51
123	29
