Mass Spectrum: 2,2-Dimethyl-3-vinyl-bicyclo[2.2.1]heptane
Formula: C11H18
CAS: 115948-98-6
Molecular weight: 150
m/z	intensity
26	11
27	138
28	76
29	112
38	16
39	254
40	52
41	582
42	52
43	153
44	55
50	19
51	56
52	35
53	142
54	49
55	375
56	49
57	57
58	15
59	10
61	9
62	9
63	27
64	13
65	95
66	76
67	701
68	96
69	327
70	58
71	32
72	10
75	11
76	10
77	131
78	64
79	491
80	303
81	328
82	171
83	201
84	35
85	30
86	8
87	10
88	8
89	14
90	11
91	166
92	39
93	272
94	163
95	115
96	97
97	29
98	14
99	10
103	16
104	12
105	62
106	38
107	749
108	999
109	307
110	33
111	15
112	11
113	9
114	7
115	12
116	10
117	15
118	8
119	16
120	15
121	114
122	56
123	14
133	11
134	11
135	234
136	40
137	10
138	0
149	24
150	96
151	20
152	9
153	1
