Mass Spectrum: 4-Toluenesulfonamide, N-(4-butoxyphenyl)-
Formula: C17H21NO3S
CAS: 1159-18-8
Molecular weight: 319
m/z	intensity
33	1
34	1
36	0
37	2
39	97
41	211
42	8
43	4
44	3
45	5
46	0
48	3
49	1
50	12
51	26
52	48
53	60
54	9
55	24
57	105
58	4
59	0
60	0
61	2
62	9
63	40
64	33
65	113
66	8
67	4
68	4
69	2
70	1
71	1
72	0
74	2
75	2
76	2
77	11
78	9
79	22
80	38
81	73
82	4
83	1
84	0
85	0
86	1
87	1
89	27
91	254
92	38
93	6
94	1
95	1
96	0
97	0
98	0
102	0
103	0
104	1
105	3
108	999
109	93
110	6
111	1
112	0
115	1
116	0
117	1
118	0
119	0
120	2
121	2
122	2
123	1
124	2
125	0
126	0
127	0
128	1
129	0
130	0
131	0
132	0
134	2
135	0
136	1
137	0
139	11
140	2
141	1
142	0
143	0
144	0
146	0
148	1
149	0
151	0
152	0
153	1
155	28
156	4
157	2
158	0
159	0
160	0
162	7
164	237
165	32
166	2
167	1
168	1
169	0
170	1
171	0
172	0
178	0
179	0
180	0
181	0
182	1
183	3
184	1
185	0
196	1
197	1
198	6
199	2
200	0
253	0
254	1
255	0
262	1
263	4
264	0
276	1
277	0
315	0
316	0
317	1
319	116
320	22
321	7
322	1
