Mass Spectrum: N-(p-Tosyl)azetidin-2-one
Formula: C10H11NO3S
CAS: 115946-47-9
Molecular weight: 225
m/z	intensity
12	1
13	2
14	18
15	75
16	2
17	5
18	19
19	0
24	0
25	0
26	15
27	43
28	62
29	10
30	2
31	0
32	1
33	0
34	0
35	0
36	1
37	3
38	14
39	127
40	23
41	49
42	127
43	12
44	4
45	10
46	1
47	0
48	6
49	3
50	29
51	48
52	15
53	9
54	3
55	13
56	2
57	2
58	2
59	1
60	1
61	5
62	24
63	84
64	26
65	293
66	18
67	7
68	1
69	6
70	20
71	4
72	2
73	1
74	7
75	7
76	11
77	28
78	13
79	8
80	2
81	1
82	1
83	1
84	1
85	2
86	5
87	5
89	81
90	39
91	999
92	138
93	8
94	0
95	2
96	0
97	1
98	0
99	0
102	0
103	1
104	4
105	4
106	2
107	10
108	12
109	2
110	0
111	3
112	0
113	0
115	3
116	0
117	1
118	8
119	8
120	1
121	4
122	1
123	2
124	1
125	0
126	0
127	0
130	0
131	0
132	4
133	47
134	5
135	0
136	0
137	0
139	22
140	2
141	1
143	0
146	0
147	0
149	1
150	0
151	0
152	0
153	1
155	376
156	50
157	21
158	2
159	0
160	1
161	8
162	1
171	1
172	0
173	0
177	0
178	0
179	0
181	0
182	0
183	0
184	0
185	0
187	0
189	0
195	0
197	127
198	12
199	7
200	1
201	0
215	0
223	0
225	19
226	2
227	1
228	0
