Mass Spectrum: 4-Amino-6-methylthio-1-.beta.-d-ribofuranosylpyrazolo[3,4-d]pyrimidine 3',5'-cyclic phosphate
Formula: C11H14N5O6PS
CAS: 115969-62-5
Molecular weight: 375
m/z	intensity
41	50
42	40
43	105
44	139
45	126
46	68
47	119
48	67
50	10
51	34
52	99
53	51
54	25
55	35
56	28
57	34
58	29
59	64
60	78
64	28
65	26
66	64
67	70
68	50
69	39
70	40
72	27
73	33
74	50
76	64
77	71
78	74
79	118
80	47
81	64
82	33
83	30
84	17
85	76
86	49
87	10
91	14
92	21
93	38
94	91
95	773
96	574
97	274
98	999
99	198
100	34
101	16
102	11
103	14
104	24
105	27
106	52
107	80
108	711
109	175
110	51
111	38
112	17
113	10
114	17
115	9
117	9
118	25
119	282
121	119
122	49
123	24
124	22
125	13
127	12
129	11
131	12
132	14
133	45
134	114
135	665
136	81
137	17
138	13
139	15
140	9
143	8
144	9
147	10
148	28
149	44
150	46
151	21
152	14
153	9
163	23
164	21
165	20
166	18
180	194
181	969
182	151
183	47
194	16
195	31
196	10
357	10
358	12
359	12
