Mass Spectrum: 2,4-Imidazolidinedione, 1-(hydroxymethyl)-5,5-dimethyl-
Formula: C6H10N2O3
CAS: 116-25-6
Molecular weight: 158
m/z	intensity
12	1
13	2
14	7
15	65
16	4
17	2
18	7
25	1
26	10
27	30
28	56
29	141
30	108
31	23
32	1
37	4
38	10
39	74
40	31
41	103
42	999
43	34
44	27
45	2
46	11
51	2
52	5
53	2
54	7
55	5
56	23
57	262
58	52
59	3
67	1
68	2
69	6
70	47
71	2
72	3
83	1
84	23
85	6
86	3
87	5
95	1
97	2
98	1
99	17
100	71
101	4
112	5
113	383
114	20
115	5
125	1
127	4
128	118
129	18
130	23
131	1
141	3
143	131
144	8
145	1
157	9
158	56
159	4
