Mass Spectrum: Ethene, tetrafluoro-
Formula: C2F4
CAS: 116-14-3
Molecular weight: 100
m/z	intensity
12	77
13	1
19	14
24	24
25	1
31	999
32	10
43	14
44	1
50	308
51	6
62	10
63	1
69	36
70	1
81	731
82	14
100	431
101	10
