Mass Spectrum: Divinylmethyl(acetoxymethyl)silane
Formula: C8H14O2Si
CAS: 116065-60-2
Molecular weight: 170
m/z	intensity
43	256
44	8
45	251
46	9
47	58
55	62
61	443
62	38
63	20
71	207
72	31
73	90
87	999
88	92
89	40
97	195
98	21
99	59
101	93
103	29
113	50
129	373
130	50
131	19
141	32
143	75
144	6
155	41
