Mass Spectrum: 2H-Pyran-5-acetic acid, 6-(bromomethyl)-4-methoxy-2-oxo-.alpha.-(phenylthio)-, ethyl ester
Formula: C17H17BrO5S
CAS: 116054-34-3
Molecular weight: 412
m/z	intensity
43	400
51	270
53	230
59	420
65	400
66	320
69	680
77	250
83	210
95	270
109	999
110	290
111	240
123	430
124	200
125	540
151	200
167	230
169	200
179	370
225	430
233	290
239	490
245	250
247	320
259	210
275	260
277	230
303	440
305	640
412	70
413	14
414	70
415	14
