Mass Spectrum: Vinyldimethyl(acetoxymethyl)silane
Formula: C7H14O2Si
CAS: 116089-15-7
Molecular weight: 158
m/z	intensity
43	126
47	59
59	72
60	25
61	163
62	7
75	999
76	91
77	48
85	41
87	125
88	8
99	37
101	134
102	10
117	462
118	49
119	20
129	22
130	1
131	42
143	51
