Mass Spectrum: Pregna-5,7-diene-3.beta.-ol-20-one benzoate
Formula: C28H34O3
CAS: 116028-16-1
Molecular weight: 418
m/z	intensity
41	54
43	999
45	28
47	2
49	9
50	10
51	60
53	32
55	74
57	7
59	4
63	2
65	11
67	54
69	16
71	63
73	2
77	247
79	71
81	113
83	11
85	28
86	1
89	2
91	62
93	32
95	36
97	10
98	2
99	2
103	12
105	483
107	85
109	34
111	6
113	2
115	33
116	13
117	45
118	5
119	41
121	20
122	1
123	17
124	4
125	12
127	7
128	44
129	45
130	7
131	58
133	33
134	4
135	9
137	5
139	2
141	52
142	34
143	228
145	123
147	27
149	4
151	11
152	6
153	16
154	7
155	26
156	12
157	50
158	90
159	47
160	1
161	10
163	1
165	7
166	4
167	12
168	5
169	33
170	7
171	24
172	3
173	5
175	1
176	1
178	4
179	6
180	2
181	11
182	2
183	15
184	3
185	8
187	7
189	2
191	1
193	1
195	10
196	4
197	13
198	6
199	4
201	1
207	6
209	4
211	17
212	3
213	5
215	1
221	2
223	10
224	5
225	13
226	26
227	1
229	1
235	1
237	5
238	5
239	3
241	1
251	3
253	30
254	1
255	3
263	6
281	30
282	7
293	1
294	8
295	15
296	572
297	152
298	22
299	4
312	1
418	2
419	1
