Mass Spectrum: 1-Coprosten-3-one semicarbazone
Formula: C28H47N3O
CAS: 116027-95-3
Molecular weight: 441
m/z	intensity
41	361
43	999
44	143
45	8
53	63
55	508
57	461
58	20
59	8
60	6
61	28
65	29
66	4
67	273
69	262
70	60
71	147
72	33
74	16
76	10
77	121
79	180
81	269
83	235
84	118
85	57
86	7
87	9
91	166
93	264
94	11
95	268
96	46
97	80
98	25
99	14
101	25
103	14
105	182
106	292
107	239
108	131
109	92
110	7
111	168
112	29
115	51
117	44
118	16
119	80
120	68
121	155
122	104
123	172
124	40
125	22
127	233
128	11
129	44
131	41
132	32
133	66
134	33
135	99
136	71
137	62
138	27
139	8
140	7
141	5
142	13
143	12
144	15
145	37
146	40
147	77
149	115
150	10
151	18
152	5
153	6
154	12
155	6
157	29
158	19
159	26
160	20
161	46
162	30
163	33
164	23
165	25
166	65
167	18
168	11
171	8
172	10
173	13
174	13
175	19
176	11
177	15
179	43
180	9
181	20
182	4
185	5
186	7
187	8
188	6
189	10
191	5
193	10
197	5
199	5
200	4
201	7
202	5
203	10
205	4
213	6
214	5
215	6
216	6
217	10
219	4
228	12
229	7
230	9
231	21
232	8
243	4
244	5
245	8
246	5
247	7
255	4
257	20
258	4
259	4
268	5
271	30
272	17
273	5
285	7
286	6
288	5
313	5
314	10
315	13
316	11
328	11
366	13
367	6
368	16
369	9
370	5
371	8
381	5
382	54
383	54
384	95
385	39
386	47
387	14
397	6
398	204
399	78
400	57
401	18
409	5
411	11
412	33
413	5
424	30
425	9
426	98
427	31
428	13
429	4
440	55
441	314
442	91
443	64
444	8
