Mass Spectrum: 1H-Indole-1-carboxylic acid, 3-[[3-benzoyl-2-(1,1-dimethylethyl)-4-[2-(methylthio)ethyl]-5-oxo-4-oxazolidinyl]methyl]-, 1,1-dimethylethyl ester, (2R-cis)-
Formula: C31H38N2O5S
CAS: 116139-86-7
Molecular weight: 550
m/z	intensity
26	8
28	14
29	16
30	6
39	16
40	6
41	66
42	4
43	6
44	26
45	3
55	12
56	32
57	259
58	18
61	14
69	9
71	4
75	3
76	1
77	12
87	6
102	6
103	2
105	860
106	68
107	3
114	9
115	1
116	2
117	3
122	3
129	11
130	999
131	141
132	9
133	2
144	3
149	8
154	3
155	2
156	8
157	1
158	3
168	6
169	2
170	1
171	25
172	6
173	2
174	334
175	47
176	4
177	0
178	0
186	8
187	2
188	1
193	0
194	1
195	3
196	2
197	1
198	1
199	19
200	17
201	4
211	1
212	1
213	1
214	1
215	2
216	22
217	2
218	5
219	1
227	2
228	1
229	2
230	166
231	34
234	5
236	0
237	4
239	8
240	4
241	0
243	2
244	3
245	1
246	1
261	3
262	6
263	0
279	26
280	4
281	1
305	6
307	2
320	89
322	23
323	7
324	1
335	5
336	1
337	0
361	7
362	1
363	3
364	1
365	2
409	3
410	2
412	1
435	7
436	1
450	22
451	8
453	1
465	6
466	1
479	1
480	0
493	0
535	6
536	2
550	23
551	8
552	2
553	0
