Mass Spectrum: 5,5-Dimethyl-1,3-dioxane-2-ethanol
Formula: C8H16O3
CAS: 116141-68-5
Molecular weight: 160
m/z	intensity
14	1
15	7
19	12
26	6
27	72
28	45
29	126
30	9
31	107
32	1
33	1
37	1
38	5
39	91
40	28
41	361
42	29
43	110
44	18
45	232
46	7
47	4
50	3
51	5
52	2
53	26
54	8
55	128
56	802
57	228
58	20
59	6
60	1
61	1
65	1
67	10
69	494
70	45
71	31
73	194
74	20
75	178
76	6
77	1
79	1
81	1
83	2
84	2
85	15
86	14
87	42
88	2
89	3
91	6
94	1
97	1
99	1
102	1
103	2
105	3
111	1
112	3
113	3
115	999
116	70
117	6
127	4
128	3
129	1
130	4
141	2
142	3
143	1
157	1
159	79
160	7
161	1
