Mass Spectrum: Diazene, 1,1'-(1,4-phenylene)bis[2-phenyl-
Formula: C18H14N4
CAS: 1161-45-1
Molecular weight: 286
m/z	intensity
39	40
50	80
51	210
63	50
76	180
77	999
78	80
104	60
105	400
106	30
167	60
181	430
182	50
209	40
255	20
256	20
257	20
286	360
287	70
