Mass Spectrum: Tomatillidine, 16-acetyloxy-
Formula: C29H47NO3
CAS: 116153-18-5
Molecular weight: 457
m/z	intensity
41	396
42	60
43	999
44	70
45	63
47	121
48	55
49	37
50	20
51	14
52	4
53	58
54	80
55	456
56	78
57	196
58	35
59	32
60	3
61	21
65	24
66	8
67	183
68	68
69	126
70	46
71	38
72	9
73	3
77	65
78	19
79	135
80	33
81	145
82	68
83	108
84	28
85	23
86	17
88	25
91	108
92	27
93	172
94	68
95	115
96	96
97	35
98	75
99	6
103	5
104	5
105	107
106	37
107	121
108	52
109	40
110	80
111	261
112	39
113	8
114	8
115	12
116	4
117	31
118	5
119	42
120	25
121	48
122	34
123	24
124	161
125	843
126	117
127	11
129	12
130	5
131	30
132	8
133	38
134	28
135	24
136	23
137	9
138	66
139	7
140	4
141	8
142	3
143	17
144	10
145	36
146	20
147	40
148	118
149	34
150	31
151	5
152	5
155	4
156	3
157	10
158	5
159	19
160	7
161	38
162	85
163	44
164	50
165	11
166	27
167	4
169	3
170	3
171	5
172	3
173	9
174	9
175	10
176	28
177	11
178	12
180	12
182	6
184	4
185	3
186	8
187	3
188	10
189	4
190	20
191	3
198	3
199	3
200	6
201	3
202	19
203	4
204	8
214	4
215	7
216	19
217	7
218	8
228	3
230	4
234	3
242	3
244	3
256	7
257	4
258	8
272	4
273	3
274	3
275	8
284	3
286	4
302	3
329	15
330	10
340	7
342	8
380	17
381	3
382	185
383	50
384	9
395	3
396	46
397	71
398	367
399	102
400	20
412	15
414	249
415	76
416	13
457	79
458	26
459	3
