Mass Spectrum: Ergost-7-en-3-ol
Formula: C28H48O
CAS: 116179-22-7
Molecular weight: 400
m/z	intensity
41	390
43	999
44	27
45	2
53	56
55	652
57	319
58	9
65	26
67	245
69	315
71	182
72	8
77	84
79	215
81	349
83	215
85	82
91	261
93	297
95	426
97	174
98	7
99	2
103	13
104	7
105	334
107	489
109	203
111	57
115	28
117	113
119	225
121	216
122	37
123	135
125	64
126	2
127	9
128	20
129	40
131	123
133	217
134	95
135	196
136	26
137	63
138	5
141	14
142	10
143	53
145	198
147	267
149	108
150	14
151	30
152	10
153	4
155	16
156	3
157	70
159	127
161	151
163	53
164	8
165	22
166	6
167	5
168	2
169	5
171	38
172	22
173	75
174	7
175	50
176	2
177	28
178	26
179	7
183	9
184	3
185	49
187	59
188	2
189	33
190	2
191	13
193	2
197	12
198	3
199	40
201	59
203	21
205	9
207	2
211	5
213	163
214	18
215	48
216	2
217	25
218	31
219	22
220	9
225	2
227	31
228	18
229	152
231	132
232	37
233	15
234	5
239	5
241	11
242	6
243	2
245	12
246	79
247	42
248	2
253	11
255	400
256	79
257	26
259	32
260	11
261	16
269	2
271	99
272	12
273	166
274	41
275	8
276	2
283	13
285	7
287	6
288	4
289	2
299	9
300	13
301	15
315	2
327	5
343	5
367	28
368	10
382	5
383	20
385	168
386	53
387	2
398	44
399	8
400	673
401	169
402	25
