Mass Spectrum: L-Phenylalanine, N-[(phenylmethoxy)carbonyl]-
Formula: C17H17NO4
CAS: 1161-13-3
Molecular weight: 299
m/z	intensity
12	1
15	1
16	4
17	2
18	7
26	5
27	20
28	35
29	9
30	1
31	6
32	3
37	7
38	13
39	65
40	6
41	14
42	3
43	6
44	68
45	2
46	1
49	3
50	36
51	74
52	22
53	12
54	3
55	2
57	2
58	5
59	2
60	1
61	6
62	13
63	39
64	11
65	103
66	8
67	1
69	1
71	1
73	3
74	11
75	8
76	8
77	109
78	32
79	185
80	19
81	1
85	2
86	2
87	3
88	2
89	38
90	46
91	999
92	134
93	9
101	1
102	7
103	10
104	13
105	11
106	5
107	115
108	166
109	12
115	2
116	12
117	47
118	57
119	71
120	13
121	1
128	3
129	3
130	2
131	3
132	2
145	8
146	3
147	3
148	15
149	2
151	8
152	1
163	1
164	4
165	2
167	3
168	1
178	2
179	3
180	3
181	6
182	1
189	1
190	1
191	19
192	5
193	1
204	1
205	1
208	1
