Mass Spectrum: (+)Eserine, 1-desmethyl-1-benzyl-
Formula: C21H25N3O2
CAS: 116103-17-4
Molecular weight: 351
m/z	intensity
42	128
43	31
44	97
45	11
48	6
49	7
50	19
51	51
52	22
53	22
54	15
55	41
56	78
57	154
58	151
59	12
60	5
61	3
62	8
63	32
64	14
65	148
66	20
67	17
68	11
69	11
70	7
71	9
72	3
73	6
74	6
75	7
76	12
77	85
78	48
79	38
80	18
81	10
82	18
83	11
84	8
85	6
86	5
87	4
88	5
89	43
90	27
91	999
92	96
93	13
94	13
95	8
96	10
97	7
98	3
99	3
101	5
102	10
103	29
104	133
105	87
106	75
107	42
108	10
109	5
110	3
111	5
113	3
114	2
115	28
116	19
117	46
118	58
119	21
120	52
121	12
122	13
123	6
124	9
125	3
127	7
128	10
129	9
130	35
131	33
132	295
133	145
134	51
135	11
136	6
137	3
139	4
140	3
141	7
142	10
143	14
144	35
145	43
146	102
147	62
148	33
149	12
150	5
151	3
152	5
153	8
154	5
155	6
156	10
157	11
158	30
159	47
160	397
161	309
162	164
163	34
165	21
166	13
167	6
168	5
169	5
170	12
171	16
172	38
173	60
174	385
175	96
176	69
177	42
178	12
179	8
180	5
181	26
182	3
183	4
184	8
185	9
186	39
187	36
188	85
189	23
190	34
191	15
192	4
194	17
195	11
196	6
197	5
198	5
199	9
200	5
201	21
202	28
203	46
204	55
205	10
206	3
210	21
211	4
212	3
213	5
214	3
215	4
216	6
217	9
218	14
219	6
220	4
221	3
222	16
223	8
224	9
225	3
226	4
227	3
231	8
232	5
233	5
234	6
235	3
236	21
237	27
238	10
239	3
240	3
245	3
247	5
248	5
249	3
250	13
251	14
252	9
253	4
259	3
260	3
261	22
262	7
263	5
264	9
265	7
266	6
267	3
274	3
275	3
276	3
277	7
278	15
279	25
280	26
281	6
289	3
291	7
292	12
293	39
294	286
295	63
296	9
306	4
307	4
308	11
309	30
310	14
311	4
318	3
322	3
324	3
337	4
349	4
350	4
351	108
352	27
353	4
