Mass Spectrum: 3-Cyclopentyl-1-propyne
Formula: C8H12
CAS: 116279-08-4
Molecular weight: 108
m/z	intensity
26	23
27	122
28	6
29	21
37	21
38	71
39	442
40	110
41	742
42	48
43	15
49	7
50	82
51	130
52	75
53	115
54	37
55	15
61	9
62	27
63	56
64	7
65	141
66	191
67	596
68	843
69	999
70	55
74	16
77	168
78	64
79	392
80	154
81	13
91	78
93	380
94	28
107	18
