Mass Spectrum: Cyclobutaneethanol, .beta.-methylene-
Formula: C7H12O
CAS: 116203-80-6
Molecular weight: 112
m/z	intensity
39	200
41	260
43	120
53	210
55	980
56	620
57	150
66	100
69	210
79	200
81	120
83	850
84	999
112	30
