Mass Spectrum: 3-Penten-1-ol, 2-methylene-, (E)-
Formula: C6H10O
CAS: 116203-78-2
Molecular weight: 98
m/z	intensity
39	380
41	700
42	110
43	240
53	160
55	450
65	310
67	320
69	260
77	150
79	999
80	500
83	320
98	530
99	35
