Mass Spectrum: 1,13-Diphenyl-1,13-tridecanedione
Formula: C25H32O2
CAS: 116223-42-8
Molecular weight: 364
m/z	intensity
27	7
28	3
29	11
39	9
40	1
41	43
42	7
43	25
44	1
45	2
50	5
51	37
52	3
53	5
54	3
55	68
56	6
57	11
58	0
59	0
63	1
64	0
65	4
66	0
67	10
68	1
69	24
70	2
71	4
72	0
73	0
74	1
75	1
76	11
77	340
78	63
79	10
80	1
81	7
82	1
83	14
84	1
85	2
86	0
87	1
88	0
89	0
90	1
91	26
92	9
93	2
94	1
95	4
96	1
97	3
98	0
99	1
100	0
101	6
102	1
103	7
104	8
105	999
106	106
107	16
108	2
109	2
110	2
111	1
112	0
113	1
114	0
115	6
116	2
117	16
118	2
119	4
120	845
121	91
122	17
123	12
124	2
125	3
126	0
127	1
128	3
129	8
130	8
131	9
132	8
133	181
134	22
135	3
136	1
137	1
138	1
139	0
140	0
141	1
142	1
143	10
144	18
145	39
146	16
147	15
148	11
149	7
150	0
151	0
152	1
153	1
154	0
155	1
156	0
157	11
158	8
159	8
160	4
161	7
162	7
163	2
164	1
165	2
166	1
167	2
168	0
169	1
170	1
171	6
172	1
173	3
174	1
175	5
176	5
177	1
178	0
179	0
180	1
181	2
182	1
183	3
184	1
185	2
186	0
187	7
188	1
189	9
190	2
191	0
192	0
193	0
194	0
195	0
196	0
197	1
198	0
199	0
200	0
201	2
202	0
203	3
204	0
205	0
206	0
207	1
208	0
209	0
210	2
213	1
214	0
215	0
216	0
217	2
218	1
219	0
220	1
223	1
224	1
225	0
226	5
227	13
228	2
229	0
230	0
231	4
232	23
233	4
234	0
235	0
236	0
237	0
238	0
239	0
240	6
241	2
242	1
243	4
244	161
245	866
246	159
247	16
248	1
258	26
259	7
260	2
261	0
262	1
263	0
285	0
296	1
311	3
321	2
328	10
329	10
334	1
335	1
346	27
347	7
348	1
363	13
364	235
365	68
366	11
