Mass Spectrum: 4,8-Dimethyl-1,1-dimethoxy-4Z,8E-tetracosadiene
Formula: C28H54O2
CAS: 116206-65-6
Molecular weight: 422
m/z	intensity
75	999
93	800
109	132
111	124
124	600
125	560
147	148
157	40
161	84
179	96
208	20
264	60
278	24
281	50
290	76
291	94
317	88
319	96
332	240
333	88
343	48
345	60
358	460
359	320
375	52
376	24
390	520
391	184
392	116
404	12
406	2
407	6
420	2
421	4
422	6
