Mass Spectrum: 4,8-Dimethyl-4Z,8E-tetracosadienal
Formula: C26H48O
CAS: 116206-69-0
Molecular weight: 376
m/z	intensity
43	999
55	726
57	680
81	680
83	590
93	680
95	727
97	454
109	372
111	377
121	163
124	304
125	372
135	104
137	113
141	68
147	136
149	104
151	81
161	68
163	54
165	97
167	68
179	68
181	72
208	40
225	27
239	36
264	104
278	54
291	163
305	36
317	49
319	54
332	77
358	90
359	58
374	15
375	22
376	36
