Mass Spectrum: Oxirane, 2-methyl-3-[(phenylmethoxy)methyl]-
Formula: C11H14O2
CAS: 116296-88-9
Molecular weight: 178
m/z	intensity
26	7
27	53
28	7
29	41
30	2
31	35
37	1
38	6
39	57
40	6
41	45
42	8
43	120
44	14
45	91
46	2
49	0
50	16
51	54
52	15
53	8
54	10
55	18
56	7
57	119
58	6
59	28
60	1
61	1
62	7
63	31
64	10
65	169
66	10
67	1
69	3
70	1
71	39
72	58
73	5
74	5
75	4
76	4
77	89
78	29
79	187
80	13
81	0
82	0
83	1
85	1
86	1
87	9
88	1
89	40
90	30
91	999
92	126
93	5
95	1
102	1
103	6
104	36
105	172
106	21
107	878
108	84
109	6
110	1
115	1
116	0
117	3
118	4
119	16
120	10
121	2
122	1
123	10
124	1
129	0
130	1
131	3
132	1
133	13
134	7
135	1
145	9
146	1
147	1
148	3
149	1
150	2
159	1
160	3
161	1
176	2
177	31
178	22
179	3
180	0
