Mass Spectrum: Androstenediol diacetate
Formula: C23H34O4
CAS: 116262-99-8
Molecular weight: 374
m/z	intensity
41	91
42	9
43	999
44	9
47	1
49	9
50	5
53	44
54	10
55	185
56	14
57	33
60	1
61	4
65	17
66	6
67	152
68	6
69	51
70	5
71	24
73	1
76	1
77	109
78	19
79	230
80	33
81	220
82	19
83	15
91	319
92	58
93	235
94	75
95	123
97	10
99	2
101	1
102	5
103	18
104	27
105	274
106	125
107	291
108	107
109	47
110	3
111	8
112	2
113	3
115	37
116	3
117	89
118	42
119	122
120	104
121	376
122	57
123	11
127	2
128	37
129	74
130	31
131	114
132	46
133	327
134	61
135	28
136	17
137	2
139	1
140	1
141	5
142	7
143	127
144	60
145	175
146	284
147	170
148	54
149	64
150	1
151	19
152	2
155	8
156	9
157	73
158	58
159	87
160	42
161	34
162	5
163	25
165	7
166	2
169	22
171	32
172	7
173	21
174	4
177	1
179	2
183	73
185	17
186	5
187	7
193	17
194	2
195	1
197	14
199	14
200	11
201	5
205	2
211	20
212	20
213	21
214	2
225	5
226	3
228	2
235	1
237	1
239	110
240	19
241	3
243	2
251	1
253	1
254	44
255	16
257	9
260	2
271	4
272	11
299	56
300	8
313	1
314	513
315	115
316	8
