Mass Spectrum: 9(11)-Dehydroergosterol tosylate
Formula: C35H48O3S
CAS: 116282-48-5
Molecular weight: 548
m/z	intensity
41	484
43	999
44	509
45	72
48	40
50	63
51	86
52	37
53	112
55	659
56	24
57	247
58	26
59	27
60	27
61	84
62	24
63	124
64	69
65	302
67	216
69	583
70	52
71	126
72	10
73	28
74	49
75	12
77	204
79	218
81	263
83	204
84	39
85	36
86	33
87	25
89	96
91	716
92	45
93	110
95	161
96	30
97	98
98	16
99	27
101	13
103	36
105	95
107	350
108	137
109	107
110	26
111	38
112	12
113	25
115	70
116	14
117	44
119	63
121	76
122	13
123	72
124	43
125	57
127	39
128	48
129	48
131	34
133	36
134	10
135	43
137	56
139	40
141	58
142	46
143	42
145	49
147	46
149	33
150	14
151	24
152	46
153	49
155	203
156	17
157	156
158	28
159	38
161	32
162	12
163	30
165	112
166	43
167	59
168	33
169	50
170	14
172	350
173	59
174	28
175	15
176	17
178	94
179	93
180	45
181	75
182	37
183	59
184	25
185	35
186	25
187	27
189	33
190	11
191	52
192	56
193	92
194	60
195	134
196	54
197	128
198	20
199	41
200	15
201	12
202	29
203	35
205	54
206	14
207	133
208	35
209	170
210	57
211	57
212	19
213	32
215	54
216	21
217	26
218	21
219	44
220	15
221	62
222	63
223	68
224	82
225	50
226	37
227	47
228	29
229	28
231	32
232	19
233	38
234	24
235	52
236	31
237	40
238	19
239	35
240	20
241	15
242	25
243	17
244	15
245	25
246	22
247	65
248	13
249	138
250	13
251	175
252	38
253	34
254	28
255	22
257	22
259	16
260	12
261	24
262	16
263	34
265	39
266	10
267	35
269	31
271	13
273	15
275	20
276	14
277	24
278	16
279	25
281	17
283	17
285	10
287	14
289	17
291	14
293	13
295	15
297	12
299	10
301	10
303	12
305	14
307	14
309	12
319	9
333	10
359	13
361	16
363	10
365	12
372	15
374	142
375	17
376	330
377	105
378	37
379	13
380	13
388	17
390	42
391	14
392	17
394	43
395	10
404	10
406	10
408	16
420	11
