Mass Spectrum: 6-Azidomethyl-5-bromo-2-t-butyl-[1,3]dioxin-4-one
Formula: C9H12BrN3O3
CAS: 116332-67-3
Molecular weight: 289
m/z	intensity
25	7
26	47
27	270
28	410
29	449
30	17
31	10
36	1
37	16
38	43
39	217
40	74
41	622
42	186
43	222
44	10
45	67
50	8
51	28
52	17
53	38
54	25
55	74
56	108
57	999
58	40
59	6
65	3
66	6
67	7
68	153
69	163
70	27
71	111
72	7
75	2
77	2
78	2
79	4
80	3
81	3
82	4
83	3
84	1
85	12
86	23
87	72
88	3
89	2
91	39
92	12
93	43
94	14
95	4
96	37
97	6
98	5
103	17
104	4
105	42
106	10
107	48
108	10
109	12
110	4
111	2
114	2
117	10
118	2
119	175
120	17
121	177
122	17
123	14
130	3
131	3
132	4
133	30
134	4
135	27
136	3
145	3
147	870
148	37
149	852
150	36
151	5
159	7
161	6
162	11
163	6
164	12
165	4
166	3
173	19
174	8
175	23
176	7
177	1
185	7
186	2
187	7
188	4
190	6
191	1
203	241
204	23
205	238
206	23
207	2
233	12
234	0
235	10
236	1
289	12
290	2
291	10
292	1
