Mass Spectrum: 1,2,2,3,4-Butanepentacarbonitrile
Formula: C9H5N5
CAS: 116351-32-7
Molecular weight: 183
m/z	intensity
25	30
26	194
27	527
28	136
29	117
30	10
31	45
36	25
37	80
38	177
39	130
40	999
41	284
42	52
43	171
44	73
45	114
46	49
47	7
48	13
49	37
50	60
51	315
52	433
53	176
54	24
55	76
56	28
57	100
58	11
59	9
60	175
61	32
62	51
63	59
64	57
65	102
66	36
67	14
68	9
69	43
70	20
71	51
72	5
73	136
74	25
75	28
76	118
77	251
78	636
79	868
80	281
81	32
82	11
83	28
84	24
85	39
86	16
87	29
88	23
89	43
90	27
91	21
92	5
93	5
94	4
95	8
96	8
97	21
98	18
99	14
100	8
101	32
102	81
103	35
104	91
105	569
106	77
107	8
109	5
110	7
111	11
112	10
113	9
114	4
115	27
116	158
117	29
118	13
119	5
121	4
122	7
123	5
124	3
125	6
126	4
127	8
128	10
129	262
130	58
131	8
132	3
133	3
135	3
136	3
137	3
138	5
139	4
140	6
141	7
143	248
144	59
145	7
152	4
153	4
154	3
155	15
156	68
157	24
158	7
181	4
183	4
184	4
