Mass Spectrum: 2-Ethyl-1-butanol, trifluoroacetate
Formula: C8H13F3O2
CAS: 116464-98-3
Molecular weight: 198
m/z	intensity
14	1
15	5
20	1
26	11
27	160
28	36
29	236
30	8
31	9
33	4
37	1
38	6
39	132
40	19
41	337
42	90
43	999
44	42
45	7
47	14
50	20
51	14
52	5
53	46
54	47
55	538
56	183
57	43
58	2
59	9
60	1
61	2
62	1
63	1
65	4
66	2
67	16
69	635
70	44
71	744
72	43
73	2
77	2
78	8
79	1
80	1
81	1
82	1
83	10
84	238
85	124
86	8
91	1
93	1
95	1
97	32
98	1
99	47
100	3
112	1
113	3
115	2
119	1
125	4
127	3
128	1
129	10
130	1
131	1
139	1
141	1
150	1
153	2
169	3
