Mass Spectrum: 1-t-Butyldioxymethyl-4-methylpiperidine
Formula: C11H23NO2
CAS: 116466-10-5
Molecular weight: 201
m/z	intensity
41	563
42	331
43	272
44	215
45	44
46	25
47	12
48	12
52	14
53	74
54	75
55	222
56	492
57	244
58	79
59	26
60	11
61	1
62	2
63	2
64	1
65	9
66	6
67	89
68	60
69	142
70	123
71	97
72	94
73	15
74	2
75	4
77	12
78	5
79	11
80	21
81	35
82	47
83	32
84	188
85	114
86	42
88	7
89	0
91	7
92	2
93	6
94	18
95	13
96	41
97	25
98	271
99	61
100	13
101	1
103	1
104	2
105	3
106	6
107	3
108	10
109	16
110	131
111	146
112	999
113	116
115	5
116	0
117	2
118	2
119	4
120	3
121	3
122	4
123	8
124	11
125	9
126	140
127	581
128	67
129	12
130	1
186	2
187	1
200	2
201	15
202	2
