Mass Spectrum: Hexanoic acid, 1,1-dimethylpropyl ester
Formula: C11H22O2
CAS: 116423-69-9
Molecular weight: 186
m/z	intensity
26	14
27	186
28	44
29	242
30	5
31	21
37	2
38	6
39	129
40	19
41	252
42	214
43	999
44	31
45	14
46	0
47	0
48	0
49	1
50	4
51	5
52	2
53	26
54	8
55	245
56	34
57	15
58	2
59	27
60	47
61	7
62	1
63	1
65	1
66	1
67	3
68	1
69	16
70	541
71	997
72	49
73	26
74	4
75	2
78	0
80	0
81	2
82	0
83	3
84	0
87	9
88	1
89	2
91	0
93	1
97	2
99	488
100	32
101	2
105	0
106	0
115	1
116	8
117	9
118	1
130	0
141	0
157	8
171	4
172	0
