Mass Spectrum: 1,4-Dihydro-1,3,7-trimethyl-6H-[1,2,4]triazino[4,3-b][1,2,4,5]tetrazin-6-one
Formula: C7H10N6O
CAS: 116471-41-1
Molecular weight: 194
m/z	intensity
41	490
42	560
53	150
54	110
55	320
56	999
69	130
71	110
82	200
83	70
99	360
109	50
110	70
139	50
153	50
154	50
166	320
194	610
195	60
