Mass Spectrum: 2-Trifluoroacetoxytridecane
Formula: C15H27F3O2
CAS: 116465-18-0
Molecular weight: 296
m/z	intensity
37	28
38	48
39	328
40	240
41	885
42	330
43	999
44	328
45	155
46	6
47	70
48	3
49	6
50	65
51	98
52	18
53	85
54	110
55	750
56	410
57	535
58	70
59	20
60	6
61	6
62	3
63	6
64	3
65	18
66	18
67	130
68	95
69	663
70	338
71	215
72	15
73	30
75	12
77	30
78	10
79	28
80	10
81	70
82	110
83	308
84	180
85	130
86	21
91	8
93	8
94	4
95	40
96	65
97	240
98	105
99	22
103	3
107	3
109	17
110	28
111	110
112	75
113	48
114	8
115	3
119	8
123	7
124	12
125	45
126	30
127	14
133	8
138	5
139	10
140	18
141	50
149	10
153	10
154	18
155	7
181	2
182	60
183	12
