Mass Spectrum: 3-Trifluoroacetoxy-6-ethyldecane
Formula: C14H25F3O2
CAS: 116436-59-0
Molecular weight: 282
m/z	intensity
39	147
40	44
41	749
42	121
43	514
44	73
45	44
50	25
51	28
52	19
53	49
54	44
55	762
56	161
57	999
58	54
59	13
61	20
65	11
66	9
67	59
68	61
69	877
70	420
71	144
72	11
81	57
82	34
83	392
84	75
85	43
95	26
96	21
97	180
98	152
99	60
100	10
109	12
110	25
111	95
112	182
113	40
114	3
125	10
126	48
127	12
138	12
139	36
140	6
168	21
169	12
