Mass Spectrum: Pyrrolidin-2-one, 5-[3-heptanon-1-yl]-
Formula: C11H19NO2
CAS: 116454-69-4
Molecular weight: 197
m/z	intensity
41	188
42	57
43	40
44	29
45	4
47	0
48	1
49	2
50	3
51	7
52	7
53	23
54	37
55	127
56	92
57	85
58	39
59	6
60	4
61	1
62	1
63	1
64	1
65	6
66	5
67	19
68	16
69	140
70	19
71	10
72	6
73	3
74	2
75	0
76	0
77	9
78	16
79	6
80	6
81	12
82	21
83	33
84	999
85	109
86	7
87	1
91	2
92	1
93	2
94	8
95	11
96	15
97	455
98	477
99	27
100	5
101	1
105	2
106	9
107	2
108	1
109	2
110	9
111	8
112	39
113	19
114	2
115	1
119	1
120	1
121	2
122	3
123	3
124	13
125	4
126	2
127	1
128	2
129	2
134	1
135	1
136	1
137	4
138	5
139	43
140	45
141	4
142	1
143	1
149	2
150	5
151	1
152	1
153	1
154	0
155	119
156	11
157	2
158	1
164	3
165	0
168	4
169	2
171	0
178	1
179	2
180	3
181	0
182	0
185	0
186	0
196	1
197	8
198	3
