Mass Spectrum: 3-Acetyl-1,2,3,4-tetrahydro-1,3,7-trimethyl-6H-[1,2,4]triazino[4,3-b][1,2,4,5]tetrazin-6-one
Formula: C9H14N6O2
CAS: 116471-36-4
Molecular weight: 238
m/z	intensity
42	999
43	530
45	100
57	150
98	100
112	200
113	50
126	50
154	140
195	490
196	50
238	50
