Mass Spectrum: 1,2,3,4-Tetrahydro-1,3,7-trimethyl-3-phenyl-6H-[1,2,4]triazino[4,3-b][1,2,4,5]tetrazin-6-one
Formula: C13H16N6O
CAS: 116471-34-2
Molecular weight: 272
m/z	intensity
43	180
45	150
51	170
57	100
69	100
77	610
103	100
104	360
112	120
118	999
119	120
195	230
257	480
272	110
273	18
