Mass Spectrum: Ethyl 4-[[(4-methoxyanilino)carbothioyl]amino]benzoate
Formula: C17H18N2O3S
CAS: 1164-21-2
Molecular weight: 330
m/z	intensity
33	9
34	5
35	1
36	4
37	24
38	52
39	137
40	35
41	47
42	14
43	19
44	31
45	49
46	7
47	6
48	3
50	131
51	82
52	104
53	114
54	25
55	9
56	3
57	7
58	6
59	4
60	10
61	25
62	44
63	149
64	116
65	190
66	28
67	24
68	6
69	20
70	20
71	6
72	7
73	12
74	42
75	76
76	66
77	73
78	45
79	40
80	236
81	43
82	14
83	20
84	11
85	3
86	2
87	4
88	7
90	174
91	51
92	177
93	38
94	16
95	50
96	20
97	6
98	2
99	4
100	4
101	3
102	29
103	21
104	13
105	12
106	24
108	999
109	71
110	8
111	5
112	2
113	2
114	1
115	1
116	2
117	4
118	12
120	603
121	97
122	263
123	886
124	90
125	19
126	8
127	13
128	6
129	6
130	13
131	4
134	364
135	48
136	33
137	128
138	16
140	330
141	27
142	19
143	3
144	10
145	7
146	7
147	12
148	65
149	40
150	232
151	35
152	13
153	4
154	3
155	1
156	0
157	0
158	0
159	2
162	952
163	129
164	90
165	616
166	88
167	23
168	5
169	6
170	1
171	2
172	0
174	7
175	2
176	2
179	250
180	32
181	14
182	4
183	1
184	0
186	1
188	1
189	2
190	2
191	10
192	9
193	2
194	1
195	0
196	2
197	0
198	0
199	0
201	0
202	0
203	0
204	3
207	535
208	72
209	30
210	5
211	3
212	1
213	2
214	1
215	0
219	0
220	0
221	0
222	0
223	3
224	3
225	6
226	2
227	0
237	1
239	21
240	6
241	8
242	3
243	1
247	1
251	10
252	3
253	16
254	26
255	13
256	7
257	11
258	2
259	0
265	1
268	5
269	5
270	1
271	2
272	2
273	0
281	16
282	3
283	1
285	13
286	4
288	106
289	18
290	6
291	1
292	1
293	3
294	2
296	54
297	38
298	8
299	3
301	7
302	1
303	0
313	0
314	2
315	0
327	3
328	4
330	180
331	32
332	10
333	2
334	1
