Mass Spectrum: N-Methyl-3-oxo-3-phenyl-N-vinyl-propionamide
Formula: C12H13NO2
CAS: 116461-07-5
Molecular weight: 203
m/z	intensity
13	2
14	9
15	69
16	3
17	14
18	48
26	9
27	35
28	97
29	35
30	74
31	20
32	19
35	2
36	11
37	6
38	19
39	44
40	7
41	33
42	95
43	52
44	67
45	8
49	5
50	81
51	206
52	21
53	9
54	9
55	20
56	35
57	42
58	127
59	6
60	3
61	5
62	17
63	34
64	7
65	42
66	6
67	3
69	121
70	14
71	7
72	9
73	7
74	34
75	28
76	38
77	578
78	103
79	9
81	3
82	5
83	4
84	3
85	5
86	12
87	4
88	4
89	21
90	8
91	66
92	47
93	6
94	2
95	2
96	2
97	4
98	11
99	3
100	9
101	6
102	11
103	9
104	10
105	999
106	86
107	9
108	2
111	2
112	2
113	2
114	9
115	10
116	4
117	3
118	5
119	4
120	55
121	9
122	17
123	3
127	3
128	2
129	5
130	2
131	5
132	3
133	3
134	8
135	8
136	2
144	3
145	3
146	22
147	125
148	23
149	42
150	5
157	2
158	2
159	2
160	14
161	3
162	2
167	2
171	3
174	4
175	2
176	50
177	276
178	41
179	5
184	2
185	3
188	21
189	4
202	6
203	22
204	4
