Mass Spectrum: 1H-Indole, 1-(phenylmethyl)-3-(1,2,3,6-tetrahydro-1-methyl-4-pyridinyl)-
Formula: C21H22N2
CAS: 116480-63-8
Molecular weight: 302
m/z	intensity
27	9
39	35
41	22
42	190
43	22
44	19
50	4
51	25
52	6
53	15
54	4
55	5
56	6
63	29
64	8
65	162
66	12
67	7
68	4
69	4
70	34
71	11
75	14
76	9
77	24
78	10
80	13
81	11
82	25
88	9
89	38
90	14
91	999
92	80
93	11
94	322
95	239
96	44
97	7
101	15
102	16
103	13
113	15
114	18
115	68
116	11
117	12
118	7
126	15
127	35
128	35
129	24
130	104
131	14
139	39
140	43
141	32
142	14
143	12
151	9
152	19
153	19
154	66
155	19
156	11
165	5
166	45
167	153
168	134
169	29
170	22
179	5
180	45
181	36
182	73
183	44
184	5
192	8
193	13
194	21
195	35
196	30
197	10
202	6
204	14
207	12
208	18
209	154
210	97
211	260
212	41
218	7
220	42
221	9
230	6
232	3
233	10
244	19
245	9
246	15
247	4
258	30
259	48
260	17
272	8
273	120
274	25
275	7
287	37
288	9
299	9
301	558
302	562
303	115
304	16
