Mass Spectrum: 1,4-Dihydro-1,7-dimethyl-3-(4-methylphenyl)-6H-[1,2,4]triazino[4,3-b][1,2,4,5]tetrazin-6-one
Formula: C13H14N6O
CAS: 116471-38-6
Molecular weight: 270
m/z	intensity
43	230
56	280
65	160
89	140
90	140
91	280
110	130
116	210
117	700
118	999
119	100
158	100
175	100
242	200
270	470
271	77
