Mass Spectrum: 3,3-Diethyl-1,2,3,4-tetrahydro-1,7-dimethyl-6H-[1,2,4]triazino[4,3-b][1,2,4,5]tetrazin-6-one
Formula: C10H18N6O
CAS: 116471-33-1
Molecular weight: 238
m/z	intensity
42	220
43	140
45	130
55	120
56	999
57	120
84	170
112	160
139	50
154	110
209	620
210	60
238	100
239	13
