Mass Spectrum: Benzene-1,2-dicarbonitrile, 3,6-bis(3-phenylpropoxy)-
Formula: C26H24N2O2
CAS: 116453-81-7
Molecular weight: 396
m/z	intensity
34	1
36	2
37	0
38	2
39	43
40	19
41	100
42	7
43	11
44	7
45	1
48	0
50	4
51	18
52	6
53	4
54	1
55	10
56	3
57	11
58	0
59	0
60	0
61	0
62	1
63	11
64	4
65	80
66	5
67	2
68	1
69	6
70	5
71	7
72	0
73	0
74	0
75	2
76	4
77	34
78	14
79	15
80	1
81	1
82	1
83	4
84	2
85	0
86	0
87	0
88	2
89	14
91	999
92	78
93	8
94	1
95	1
96	0
97	1
98	1
99	1
100	0
101	0
102	3
103	16
104	10
105	5
106	1
107	1
108	0
109	0
110	0
111	1
112	4
113	2
114	1
115	28
116	9
117	100
118	188
119	335
120	32
121	2
122	0
123	0
124	1
125	0
126	0
127	0
128	0
129	1
130	0
131	1
132	1
133	0
134	0
135	0
139	0
140	0
143	0
144	0
145	0
149	4
150	0
151	0
152	1
153	0
157	0
159	0
160	4
161	1
165	0
166	0
167	0
170	0
171	7
172	0
173	0
174	0
178	0
180	0
183	0
185	0
186	1
187	0
189	0
209	0
213	0
223	0
250	0
277	2
278	4
279	1
283	0
291	1
292	0
305	8
306	2
319	0
368	0
396	33
397	6
398	0
