Mass Spectrum: 2-Thiophenecarboxylic acid, 2-methylpropyl ester
Formula: C9H12O2S
CAS: 116529-98-7
Molecular weight: 184
m/z	intensity
25	4
26	16
27	108
28	8
29	105
30	6
31	6
36	3
37	29
38	48
39	391
40	25
41	149
42	9
43	67
44	27
45	61
49	6
50	19
51	8
52	4
53	27
55	18
56	131
57	131
58	25
59	8
66	3
68	3
69	8
73	6
77	6
79	6
81	29
82	45
83	98
84	21
85	24
86	3
111	999
112	81
113	47
128	199
129	231
130	23
131	6
141	3
151	3
184	9
185	1
