Mass Spectrum: Nonanoic acid, 5-methyl-, ethyl ester
Formula: C12H24O2
CAS: 116530-40-6
Molecular weight: 200
m/z	intensity
25	1
26	15
27	149
28	27
29	309
30	8
31	14
35	0
36	0
37	1
38	1
39	64
40	15
41	292
42	103
43	437
44	14
45	97
46	3
47	2
48	1
49	0
50	1
51	3
52	2
53	22
54	11
55	240
56	81
57	119
58	6
59	9
60	159
61	166
62	5
63	1
64	0
65	3
66	4
67	30
68	21
69	255
70	174
71	51
72	3
73	137
74	27
75	7
76	0
77	3
78	0
79	7
80	3
81	61
82	17
83	65
84	18
85	29
86	4
87	59
88	999
89	81
90	7
91	1
92	1
93	7
94	5
95	44
96	9
97	114
98	45
99	7
100	1
101	199
102	37
103	3
104	0
105	1
106	0
107	3
108	2
109	6
110	22
111	30
112	17
113	7
114	2
115	112
116	14
117	2
118	0
119	0
120	0
121	6
122	1
123	1
124	1
125	7
126	5
127	1
128	0
129	8
130	1
131	0
133	0
134	0
135	3
136	10
137	54
138	7
139	7
140	1
141	0
142	1
143	61
144	8
145	0
147	0
149	0
151	0
152	0
153	5
154	1
155	31
156	4
157	68
158	7
159	0
165	0
166	0
167	0
168	0
169	0
171	4
172	0
182	0
183	0
185	2
186	0
198	0
199	0
200	9
201	1
