Mass Spectrum: 3-(1-Ethoxyethoxy)-butyraldehyde
Formula: C8H16O3
CAS: 116616-30-9
Molecular weight: 160
m/z	intensity
26	24
27	164
28	6
29	193
30	8
31	184
38	5
39	44
40	15
41	132
42	307
43	536
44	271
45	999
46	47
47	30
55	16
57	12
58	22
59	4
60	155
61	21
68	6
69	270
70	26
71	195
72	173
73	514
74	32
75	38
85	12
86	37
87	203
88	11
89	69
113	6
115	46
118	5
129	4
131	65
132	5
159	3
161	27
