Mass Spectrum: 2-Furanecarboxylic acid, 2-butyl ester
Formula: C9H12O3
CAS: 116668-42-9
Molecular weight: 168
m/z	intensity
25	6
26	41
27	149
28	29
29	205
30	6
36	8
37	69
38	145
39	441
40	31
41	165
42	21
43	59
44	28
45	13
49	6
50	15
51	19
52	11
53	21
54	6
55	38
56	161
57	79
65	6
66	18
67	37
68	29
69	6
73	59
79	13
84	38
94	9
95	999
96	75
97	11
112	265
113	279
114	19
139	29
140	2
168	32
169	3
