Mass Spectrum: 3-Benzyl-4-chloro-1,2,3-triazole 1-oxide
Formula: C9H8ClN3O
CAS: 116932-63-9
Molecular weight: 209
m/z	intensity
36	3
38	7
39	50
40	23
41	19
43	4
44	18
46	4
50	15
51	35
52	16
55	4
56	3
57	7
60	5
61	3
62	8
63	26
64	9
65	98
66	5
69	10
74	4
75	4
76	13
77	21
78	5
89	23
90	13
91	999
92	79
93	3
102	4
103	11
104	14
105	8
106	5
116	4
117	4
125	9
128	4
130	58
131	6
146	10
149	6
158	7
164	11
165	6
166	4
181	4
193	5
209	24
211	8
