Mass Spectrum: 5.alpha.-16-Pregnen-3.beta.-ol-20-ol acetate
Formula: C23H34O3
CAS: 1169-20-6
Molecular weight: 358
m/z	intensity
41	66
43	999
44	31
47	34
49	18
51	9
53	40
55	91
57	11
59	1
61	44
63	2
65	11
67	51
69	30
70	5
71	12
72	1
73	1
77	49
79	127
81	137
83	16
84	8
86	47
88	22
91	107
93	73
95	53
97	19
98	0
99	8
100	2
103	6
105	89
107	197
108	23
109	29
111	21
112	2
113	3
115	21
117	43
119	30
121	51
122	10
123	14
124	5
125	3
127	5
128	6
129	8
130	1
131	34
133	59
134	24
135	72
136	13
137	11
138	1
141	8
142	6
143	17
145	41
147	39
149	28
150	6
151	5
152	1
153	2
155	5
156	1
157	9
159	40
161	131
162	14
163	8
165	1
167	1
169	7
171	14
173	18
174	0
175	17
176	3
177	5
178	1
179	1
181	1
183	3
185	11
187	33
188	22
189	27
190	4
191	1
193	0
195	3
197	6
199	11
200	2
201	8
202	2
203	6
204	1
205	0
207	0
209	1
211	2
213	8
214	3
215	4
217	3
223	3
225	5
227	3
229	3
230	0
233	1
237	0
239	5
240	1
241	4
242	1
243	1
244	1
245	0
247	1
248	1
251	1
253	2
255	69
256	19
257	3
259	2
260	6
261	2
262	0
265	23
266	5
267	1
269	4
270	0
272	0
273	0
274	1
279	0
281	2
283	64
284	15
285	2
286	0
287	0
296	15
297	1
298	24
299	4
300	1
313	3
315	250
316	34
317	3
325	1
329	3
330	1
340	1
343	40
344	6
345	0
358	361
359	72
360	10
361	0
