Mass Spectrum: Pyrrolidine, 1-(1-oxo-7-methyl-8-hexadecenyl)-
Formula: C21H39NO
CAS: 116943-03-4
Molecular weight: 321
m/z	intensity
55	560
56	170
67	130
69	180
70	400
71	170
72	280
85	100
95	40
98	230
113	999
126	360
127	110
140	50
154	60
168	30
182	10
194	20
208	50
222	20
236	10
321	60
322	14
