Mass Spectrum: 4-Methyl-3-phenyl-1,2,3-triazole 1-oxide
Formula: C9H9N3O
CAS: 116932-61-7
Molecular weight: 175
m/z	intensity
50	68
51	313
52	30
54	5
62	10
63	27
64	22
65	16
66	5
69	44
74	16
75	14
76	43
77	999
78	74
79	4
88	4
89	18
90	19
91	159
92	12
93	6
103	111
104	29
105	12
116	7
117	11
118	45
119	12
129	5
130	357
131	123
132	18
158	15
159	123
160	14
169	5
175	514
176	57
