Mass Spectrum: Phosphonous acid, 1,2-ethanediylbis-, tetrakis(1-methylethyl) ester
Formula: C14H32O4P2
CAS: 116997-20-7
Molecular weight: 326
m/z	intensity
26	43
27	394
29	19
30	4
31	29
36	4
37	23
38	25
39	158
40	116
41	430
42	91
43	999
44	41
45	67
46	3
47	67
48	18
49	15
55	4
56	2
57	16
58	5
59	29
60	3
61	5
62	3
63	8
64	4
65	683
66	23
67	6
69	2
72	3
73	8
74	6
75	28
76	25
77	17
78	32
79	8
80	16
81	2
82	4
83	5
88	2
89	3
90	14
91	19
92	27
93	22
94	194
95	67
96	15
97	8
101	2
105	9
106	3
107	683
108	110
109	36
110	3
111	68
112	59
113	9
118	2
119	4
120	51
121	4
122	2
123	43
124	27
125	5
126	2
127	3
128	17
129	16
130	2
133	2
134	3
135	11
136	51
137	24
138	4
139	88
140	91
141	208
142	27
143	4
144	1
145	3
149	188
150	23
151	4
152	2
153	3
154	5
155	4
156	13
157	403
158	19
159	10
160	2
161	1
162	10
163	2
165	13
166	6
167	4
168	1
169	3
171	3
172	8
174	3
175	2
177	15
178	13
179	2
181	2
182	6
183	155
184	17
185	16
186	1
189	6
190	7
192	1
193	1
197	4
199	81
200	5
201	2
204	2
205	1
213	1
214	1
215	2
225	27
226	10
227	4
231	2
232	1
233	2
241	25
242	3
243	2
255	7
256	2
257	2
258	0
259	2
267	17
268	98
269	10
283	3
298	50
299	5
326	56
327	6
328	2
