Mass Spectrum: 5-Methyl-3-phenyl-1,2,3-triazole 1-oxide
Formula: C9H9N3O
CAS: 116932-65-1
Molecular weight: 175
m/z	intensity
50	75
51	312
52	53
54	4
55	3
57	5
62	7
63	20
64	18
65	16
67	6
69	13
74	17
75	16
76	38
77	999
78	75
79	4
88	6
89	5
90	7
91	75
92	6
102	6
103	120
104	57
105	20
115	5
116	4
118	8
119	4
128	9
129	8
130	314
131	168
132	16
159	11
174	4
175	787
176	84
177	5
