Mass Spectrum: (S,Z)-3-Hydroxy-1-((9-methoxy-7-oxo-7H-furo[3,2-g]chromen-4-yl)oxy)-3-methylbutan-2-yl 2-methylbut-2-enoate
Formula: C22H24O8
CAS: 116988-91-1
Molecular weight: 416
m/z	intensity
27	10
29	24
31	13
38	5
39	21
41	26
43	62
50	6
53	26
54	17
55	376
56	16
57	15
59	76
62	8
63	11
65	7
66	7
74	5
75	8
76	15
77	16
82	19
83	999
84	53
85	35
86	5
87	10
88	6
89	15
90	6
95	13
100	7
101	34
103	6
104	11
105	11
116	9
119	11
120	7
121	14
132	10
133	17
134	9
143	11
144	7
145	8
160	22
161	16
167	25
169	5
173	6
175	12
185	496
186	54
187	8
188	21
189	29
203	12
204	8
215	10
216	7
217	182
218	30
219	4
230	9
231	82
232	244
233	46
234	6
245	6
275	4
301	3
316	6
319	4
401	3
416	7
