Mass Spectrum: Diatrizoic acid
Formula: C11H9I3N2O4
CAS: 117-96-4
Molecular weight: 614
m/z	intensity
15	47
29	31
43	999
53	71
63	65
65	32
74	32
75	102
87	52
91	56
93	36
103	159
106	96
117	77
118	32
120	46
130	17
131	18
146	73
164	29
173	18
176	29
177	21
189	128
216	29
217	11
219	16
230	54
233	51
273	49
274	247
318	51
331	55
359	102
401	268
402	97
443	958
444	107
445	33
486	57
487	33
