Mass Spectrum: 1,3-Dimethyl-[1,3]diazepane-2,4,7-trione
Formula: C7H10N2O3
CAS: 117043-43-3
Molecular weight: 170
m/z	intensity
54	3
55	323
56	999
57	179
58	389
59	68
60	2
67	2
68	59
69	85
70	15
71	16
72	4
73	8
82	2
83	3
84	123
85	92
86	57
87	61
88	58
89	16
98	19
99	1
111	1
112	6
113	342
114	227
115	200
116	13
126	8
127	2
141	1
142	19
143	6
170	341
171	27
