Mass Spectrum: 3,6-Di(N-pyrrolidinyl)-1,2,4,5-tetrazine
Formula: C10H16N6
CAS: 117040-53-6
Molecular weight: 220
m/z	intensity
39	3
40	198
41	670
42	999
43	640
44	40
45	1
51	15
52	19
53	401
54	169
55	675
56	131
57	13
58	1
59	8
67	176
68	608
69	588
70	135
71	13
72	18
73	2
75	2
78	11
79	11
80	24
81	25
82	14
83	6
84	2
85	3
86	2
91	1
92	2
93	40
94	20
95	593
96	664
97	720
98	192
99	9
100	1
101	1
102	1
110	2
111	2
112	1
122	3
123	6
124	2
125	2
126	1
151	1
155	2
156	1
163	2
164	6
165	1
191	1
192	4
218	1
219	5
220	564
221	78
222	5
