Mass Spectrum: S-[N-[1-[4-Methylthiophenyl]-2-adamantyl methyl]carboxamidinomethyl] thiophosphate
Formula: C20H29N2O3PS2
CAS: 117077-36-8
Molecular weight: 440
m/z	intensity
42	999
43	191
44	107
45	143
46	22
47	48
48	15
50	11
51	32
52	16
53	97
54	33
55	125
56	77
57	36
58	63
59	220
60	23
61	15
62	2
63	18
64	482
65	85
66	74
67	131
68	41
69	58
70	48
71	297
72	339
73	23
74	7
75	12
76	76
77	195
78	81
79	294
80	60
81	118
82	39
83	85
84	136
85	44
86	27
87	12
89	46
90	24
91	319
92	50
93	106
94	36
95	26
96	147
97	26
98	38
99	11
100	9
101	24
102	82
103	50
104	33
105	138
106	58
107	67
108	31
109	39
110	14
111	29
112	10
113	18
114	16
115	245
116	129
117	75
118	23
119	46
120	139
121	49
122	60
123	78
124	58
125	33
126	76
127	67
128	288
129	169
130	83
131	36
132	13
133	73
134	73
135	58
136	34
137	554
138	74
139	105
140	21
141	202
142	80
143	68
144	20
145	30
146	30
147	60
148	31
149	84
150	91
151	117
152	174
153	169
154	324
155	148
156	37
157	12
158	9
159	5
160	156
161	42
162	68
163	535
164	272
165	158
166	97
167	205
168	78
169	30
170	8
171	21
172	27
173	30
174	22
175	36
176	23
177	26
178	31
179	42
180	182
181	81
182	34
183	8
184	28
185	73
186	38
187	62
188	46
189	66
190	37
192	140
193	11
194	47
195	17
196	10
197	8
198	7
199	21
200	85
201	428
202	107
203	39
204	9
205	2
207	2
208	2
209	8
210	21
211	10
213	42
214	46
215	34
216	14
217	10
221	5
222	12
223	290
224	87
225	11
226	18
227	32
228	17
229	15
237	10
238	16
239	25
240	11
241	12
242	10
243	82
244	17
245	4
255	6
256	86
257	82
258	128
259	26
260	17
269	46
270	904
271	203
272	70
273	14
281	2
282	21
283	10
284	10
285	12
286	19
287	498
288	110
289	35
290	8
298	76
299	18
300	10
312	21
313	52
314	19
315	4
327	62
328	613
329	184
330	54
331	10
339	9
341	5
343	24
344	4
358	33
359	11
360	3
375	2
392	2
393	11
