Mass Spectrum: N-Phenyl-2-diazo-2-cyanoacetamide
Formula: C9H6N4O
CAS: 117015-33-5
Molecular weight: 186
m/z	intensity
92	154
103	999
104	200
115	60
116	13
129	248
130	176
131	18
157	45
158	112
186	674
