Mass Spectrum: S-[N-[3-p-Methylthiophenyl-adamentylmethyl]carboxamidino]methyl thiosulfate
Formula: C20H28N2O3S3
CAS: 117077-52-8
Molecular weight: 440
m/z	intensity
41	42
42	21
43	19
44	17
45	22
46	4
48	739
49	1
50	54
51	11
52	4
53	15
54	5
55	28
56	13
57	11
58	4
59	6
60	2
61	2
64	999
66	129
67	17
68	4
69	15
70	10
71	39
72	7
73	3
74	2
75	2
76	9
77	41
78	24
79	45
81	34
83	13
84	14
85	4
86	7
87	2
88	2
89	9
90	5
91	82
93	129
94	13
95	8
97	8
98	2
99	2
100	2
101	12
102	16
103	11
104	7
105	43
106	15
107	38
108	8
109	10
110	4
111	3
113	9
115	67
116	39
117	23
118	4
119	10
120	3
121	10
122	20
123	11
124	10
125	8
126	3
127	12
128	37
129	32
130	12
131	7
133	23
134	17
135	16
136	8
137	203
138	31
141	38
142	20
143	7
144	2
145	4
146	3
147	17
148	11
149	39
150	31
151	28
152	27
153	46
154	138
155	43
156	8
158	1
159	2
160	3
161	7
163	35
164	95
165	108
166	22
167	40
168	30
169	9
171	6
172	3
173	5
174	4
175	10
176	3
177	13
178	10
180	10
181	9
182	4
183	1
184	7
185	22
186	16
187	19
188	9
189	16
190	3
191	5
192	2
193	2
194	2
195	4
196	1
197	1
198	1
199	5
200	10
201	234
202	43
203	18
205	12
206	4
207	1
209	2
210	10
211	10
212	7
213	9
214	9
215	40
216	8
217	3
222	1
223	4
224	2
225	1
227	3
228	3
229	3
231	1
239	1
240	1
241	6
242	3
243	8
244	2
255	3
256	10
257	420
258	313
259	68
260	18
261	2
268	1
269	2
270	56
271	15
272	8
273	10
274	2
282	4
283	2
285	2
286	8
287	706
288	160
289	51
290	8
298	2
299	3
300	1
301	10
302	2
303	1
311	1
312	1
313	10
314	6
315	4
326	3
327	6
328	110
329	100
330	23
331	8
332	1
339	3
343	14
344	3
345	2
356	1
358	22
359	6
360	3
362	9
363	5
364	4
365	2
370	7
371	1
373	1
392	1
440	1
