Mass Spectrum: 1-Phenyl-4-cyano-5-hydroxy-1,2,3-triazole
Formula: C9H6N4O
CAS: 117015-37-9
Molecular weight: 186
m/z	intensity
92	151
103	999
104	211
115	72
116	12
129	255
130	169
131	18
157	45
158	82
186	614
