Mass Spectrum: (E)-7-(Benzo[d][1,3]dioxol-5-yl)-1-(pyrrolidin-1-yl)hept-6-en-1-one
Formula: C18H23NO3
CAS: 117137-66-3
Molecular weight: 301
m/z	intensity
27	11
28	24
29	15
30	12
31	1
38	2
39	34
40	6
41	32
42	32
43	133
44	17
50	9
51	42
52	10
53	17
54	4
55	127
56	78
57	16
58	4
59	4
62	7
63	29
64	10
65	32
66	5
68	10
70	178
71	90
72	117
73	5
74	3
75	11
76	15
77	118
78	24
79	12
80	6
81	108
82	7
85	109
87	4
88	4
89	28
90	8
91	34
92	5
96	5
97	4
98	105
99	37
100	5
101	7
102	34
103	177
104	22
105	18
106	7
107	12
108	3
110	3
112	26
113	999
114	83
115	117
116	78
117	49
118	8
119	1
121	11
122	17
123	2
124	19
125	5
126	228
127	32
128	32
129	31
130	14
131	143
132	14
133	2
134	2
135	200
136	28
137	12
140	16
143	15
144	35
145	21
146	6
147	17
148	31
149	5
151	64
152	88
153	11
154	3
155	1
157	11
158	5
159	7
160	6
161	23
162	8
163	1
166	33
171	5
172	6
173	26
174	97
175	10
176	2
177	1
183	2
184	1
185	3
186	2
187	14
188	7
189	3
200	1
201	3
202	47
203	23
204	5
211	1
213	3
217	1
229	1
230	39
231	8
232	3
300	1
301	219
302	45
303	5
