Mass Spectrum: 1H-1,3a-Ethanopentalen-5(4H)-one, tetrahydro-
Formula: C10H14O
CAS: 117221-77-9
Molecular weight: 150
m/z	intensity
27	39
28	3
29	49
30	2
33	0
34	1
36	3
37	3
38	3
39	96
40	40
41	196
42	14
43	3
44	1
45	2
47	1
48	2
49	2
51	4
52	15
53	145
54	93
55	119
56	2
57	3
58	0
60	3
61	2
62	2
63	2
64	2
65	49
66	80
67	216
68	181
69	8
70	0
71	8
72	1
73	1
74	1
75	1
76	192
77	88
78	84
79	757
80	622
81	163
82	15
86	1
87	1
88	1
89	0
90	2
91	162
92	59
93	999
94	421
95	84
96	6
98	7
100	3
101	4
103	3
104	4
105	21
106	39
107	401
108	113
109	10
110	2
111	3
113	3
114	2
116	4
117	8
118	2
119	1
120	2
121	35
122	786
123	68
124	2
135	5
150	313
151	29
