Mass Spectrum: 1H-1,3a-Ethanopentalen-4-ol, hexahydro-, cis-
Formula: C10H16O
CAS: 117221-75-7
Molecular weight: 152
m/z	intensity
41	200
43	120
55	300
67	580
68	200
70	150
79	500
80	480
81	460
82	270
83	500
91	300
92	190
93	520
95	640
96	930
97	400
105	220
106	380
108	240
109	999
110	245
119	220
123	340
124	420
134	350
137	80
152	420
153	50
