Mass Spectrum: 1H-1,3a-Ethanopentalen-5-ol, hexahydro-, trans-
Formula: C10H16O
CAS: 117221-78-0
Molecular weight: 152
m/z	intensity
27	13
28	5
29	33
30	0
31	6
33	0
34	1
36	1
37	0
38	1
39	32
40	10
41	127
42	11
43	28
44	7
45	6
46	2
47	0
49	1
50	0
51	3
52	5
53	54
54	59
55	112
56	20
57	38
58	4
59	1
61	1
62	1
63	1
64	1
65	23
66	51
67	190
68	67
69	54
70	45
71	8
72	1
73	0
74	0
75	2
76	1
77	96
78	70
79	340
80	999
81	223
82	57
83	83
84	23
85	6
86	1
87	1
89	1
90	0
91	162
92	114
93	385
94	81
95	253
96	97
97	18
98	3
99	1
100	0
102	1
103	5
104	6
105	145
106	215
107	58
108	567
109	107
110	20
111	9
112	1
113	0
115	2
117	4
118	3
119	112
120	12
121	26
122	8
123	139
124	137
125	11
126	1
127	1
129	1
130	1
132	1
133	11
134	214
135	24
136	1
137	11
138	2
150	1
151	5
152	125
153	13
154	2
