Mass Spectrum: 2-Butanone, 3-[(2-chloroethyl)thio]-
Formula: C6H11ClOS
CAS: 117239-10-8
Molecular weight: 166
m/z	intensity
43	999
45	280
59	930
60	240
61	650
63	390
65	130
72	150
74	50
87	100
89	60
95	90
97	30
102	150
105	50
123	970
125	350
130	510
166	100
167	7
168	30
