Mass Spectrum: Ethanone, 1-(2,3-dichloro-1,4-oxathian-2-yl)-
Formula: C6H8Cl2O2S
CAS: 117239-11-9
Molecular weight: 214
m/z	intensity
43	999
45	340
59	50
60	50
73	70
80	60
82	20
101	90
108	190
110	60
118	60
136	550
138	200
144	100
171	10
173	4
178	30
179	10
180	10
214	20
216	10
218	3
