Mass Spectrum: 1,3-Oxathiolane, 2-[[(2-chloroethyl)thio]methyl]-2-methyl-
Formula: C7H13ClOS2
CAS: 117239-00-6
Molecular weight: 212
m/z	intensity
43	510
45	50
58	20
59	50
60	40
61	80
63	30
65	10
73	20
103	999
109	40
111	10
116	20
117	10
212	5
214	0
