Mass Spectrum: 1,5-Dihydroxy-4-methyl-1-phenylpentan-3-one
Formula: C12H16O3
CAS: 117202-04-7
Molecular weight: 208
m/z	intensity
26	10
27	66
28	53
29	67
30	9
31	156
37	10
38	15
39	95
40	17
41	175
42	169
43	555
44	15
45	30
47	2
49	10
50	100
51	219
52	53
53	31
54	32
55	47
56	28
57	100
58	10
59	65
60	7
61	173
62	13
63	25
64	4
65	13
66	4
67	13
68	5
69	88
70	16
71	44
72	40
73	38
74	39
75	28
76	33
77	999
78	124
79	281
80	13
81	18
83	13
84	94
85	18
87	25
91	44
95	21
97	12
102	92
103	420
104	84
105	744
106	584
107	392
108	24
109	8
110	3
111	5
113	2
115	11
116	4
117	8
118	2
119	3
120	28
121	6
122	3
123	3
125	1
126	2
127	6
128	7
129	11
130	3
131	827
132	63
133	7
134	2
135	6
137	3
139	1
141	5
142	2
143	3
144	3
145	12
147	14
148	73
149	170
150	23
151	6
153	3
157	5
159	7
160	17
161	4
162	15
163	2
171	19
172	23
173	5
189	3
190	24
191	5
208	6
