Mass Spectrum: 1,7-Dioxa-4,10-dithiaspiro[5.5]undecane, 5-methyl-
Formula: C8H14O2S2
CAS: 117239-06-2
Molecular weight: 206
m/z	intensity
45	410
46	310
55	800
58	160
59	360
60	999
61	150
72	250
74	170
89	270
100	120
118	320
119	620
128	740
129	150
130	130
132	170
133	490
178	260
206	180
207	19
208	17
