Mass Spectrum: 5.alpha.-Pregnane-3.beta.,20.alpha.-diamine, N,N,N',N'-tetramethyl-
Formula: C25H46N2
CAS: 1172-08-3
Molecular weight: 374
m/z	intensity
55	10
56	10
58	30
68	10
71	30
72	999
73	50
81	10
84	120
85	10
110	30
286	2
287	1
288	3
289	1
303	45
304	12
305	1
329	1
330	1
356	1
359	10
360	4
373	9
374	15
375	3
