Mass Spectrum: 1,4-Oxathiin-3-carboxylic acid, 2-[[(2-chloroethyl)thio]methyl]-5,6-dihydro-, methyl ester
Formula: C9H13ClO3S2
CAS: 117238-99-0
Molecular weight: 268
m/z	intensity
42	150
43	90
45	60
57	120
58	50
59	350
63	340
65	110
69	60
74	130
76	50
101	999
102	100
103	130
129	40
139	400
140	160
141	160
142	80
161	130
173	30
178	90
205	40
209	120
211	50
236	10
240	30
242	10
268	460
269	53
270	190
271	20
