Mass Spectrum: [1,4]Oxathiino[2,3-b]-1,4-oxathiin, hexahydro-8a-methyl-
Formula: C7H12O2S2
CAS: 117239-02-8
Molecular weight: 192
m/z	intensity
43	999
45	150
59	60
61	230
70	50
76	70
78	50
86	40
87	380
88	330
103	90
104	160
105	300
116	50
121	70
164	40
192	410
193	38
194	37
