Mass Spectrum: [1,4]Oxathiino[2,3-b]-1,4-oxathiin, hexahydro-4a,8a-dimethyl-
Formula: C8H14O2S2
CAS: 117239-03-9
Molecular weight: 206
m/z	intensity
43	950
45	150
58	140
59	999
60	190
61	110
87	570
92	250
102	50
103	340
118	160
119	330
128	70
130	60
178	80
206	330
207	34
208	30
