Mass Spectrum: (Z)-Cinnamyl benzoate
Formula: C16H14O2
CAS: 117204-78-1
Molecular weight: 238
m/z	intensity
27	1
38	1
39	12
40	1
50	13
51	51
52	6
53	1
62	4
63	12
64	3
65	16
74	6
75	6
76	11
77	198
78	24
79	7
87	1
88	1
89	13
90	2
91	43
92	4
102	10
103	17
104	7
105	999
106	76
107	4
113	1
114	3
115	289
116	96
117	98
118	10
119	3
131	7
133	95
134	10
165	1
178	2
179	1
191	1
192	1
196	2
209	18
210	4
238	31
239	5
240	1
