Mass Spectrum: 2,2'-Bi-1,3-oxathiolane, 2-methyl-
Formula: C7H12O2S2
CAS: 117239-01-7
Molecular weight: 192
m/z	intensity
43	460
45	70
59	50
60	70
61	130
89	150
103	999
116	30
128	10
130	10
132	10
172	10
174	10
192	20
