Mass Spectrum: Ethanone, 1-(3-chloro-5,6-dihydro-1,4-oxathiin-2-yl)-
Formula: C6H7ClO2S
CAS: 117238-97-8
Molecular weight: 178
m/z	intensity
43	999
45	310
46	120
61	70
74	120
86	70
100	90
101	50
105	70
107	60
118	100
135	240
136	110
137	100
138	40
142	120
143	150
178	290
179	20
180	110
