Mass Spectrum: Acetamide, N-(3-cyano-4,5-dimethyl-2-thienyl)-
Formula: C9H10N2OS
CAS: 117377-79-4
Molecular weight: 194
m/z	intensity
33	5
34	6
35	1
36	2
37	30
39	149
40	67
41	49
43	999
44	75
45	7
49	6
50	32
51	41
52	27
53	48
54	6
55	9
57	24
58	77
59	192
60	29
61	18
62	14
63	47
64	66
65	46
66	44
67	10
68	4
69	27
70	34
71	22
72	3
73	3
74	2
75	12
76	23
77	12
78	12
79	10
80	18
81	7
82	12
83	13
84	8
85	10
86	5
87	3
88	3
89	3
90	32
91	21
92	20
93	12
94	21
95	5
96	7
97	38
98	5
99	3
100	0
101	0
102	1
103	2
104	1
105	6
106	4
107	11
108	3
109	11
110	7
111	2
112	2
113	0
114	0
115	0
116	1
117	10
118	21
119	136
120	14
122	12
123	6
124	18
125	3
126	2
127	0
128	0
129	1
131	0
132	0
133	0
134	4
135	6
137	217
138	15
139	10
140	0
141	0
143	0
144	0
145	0
147	1
148	1
149	7
151	314
152	619
153	67
154	29
155	2
156	0
159	0
161	0
163	2
164	0
165	1
166	0
167	0
169	0
171	1
173	0
176	0
177	0
178	0
179	1
181	0
189	0
190	0
191	0
192	1
194	113
195	12
196	5
197	0
