Mass Spectrum: 3-Ethylpentan-3-yl trifluoroacetate
Formula: C9H15F3O2
CAS: 117384-34-6
Molecular weight: 212
m/z	intensity
26	3
27	42
28	8
29	77
31	2
39	33
41	197
42	16
43	47
44	2
45	7
47	17
50	5
51	8
52	2
53	21
54	7
55	70
56	18
57	165
58	7
59	4
61	5
62	1
63	1
65	5
66	2
67	29
69	999
70	63
71	4
73	1
77	2
81	1
83	14
95	1
97	9
98	58
99	92
100	6
113	59
125	3
141	17
143	1
153	1
182	29
183	407
184	32
