Mass Spectrum: Corticosterone 21-acetate
Formula: C23H32O5
CAS: 1173-26-8
Molecular weight: 388
m/z	intensity
41	209
42	8
43	999
44	10
45	7
51	8
52	5
53	94
54	7
55	447
56	20
57	48
58	1
59	1
60	7
63	1
65	59
66	19
67	187
68	26
69	108
70	21
71	36
72	1
73	64
74	3
75	1
77	191
78	48
79	288
80	51
81	242
82	14
83	55
84	7
85	24
87	43
89	4
90	4
91	356
92	71
93	224
94	51
95	230
96	40
97	88
98	7
99	38
100	6
101	35
102	1
103	37
104	17
105	248
106	71
107	237
108	52
109	161
110	30
111	36
113	38
114	5
115	57
116	25
117	86
118	22
119	157
120	70
121	276
122	113
123	185
124	181
125	51
126	3
127	21
128	43
129	87
130	32
131	122
132	19
133	173
134	64
135	123
136	52
137	103
138	9
139	8
140	1
141	28
142	25
143	80
144	35
145	390
146	64
147	217
148	53
149	103
150	14
151	14
152	7
153	10
154	6
155	45
156	3
157	63
158	23
159	125
160	37
161	248
162	91
163	262
164	24
165	18
166	5
168	9
169	37
170	8
171	67
172	11
173	142
174	39
175	126
176	26
177	18
178	1
179	17
181	20
182	9
183	35
184	7
185	49
186	16
187	64
188	16
189	52
190	10
191	22
192	5
193	12
194	1
195	32
196	7
197	18
198	8
199	62
200	20
201	45
202	6
203	9
204	2
205	6
206	1
207	13
208	1
209	33
210	4
211	54
212	13
213	80
214	18
215	18
216	4
217	3
221	4
222	8
223	20
225	47
226	12
227	296
228	54
229	20
230	2
231	1
234	1
235	5
236	4
237	1
238	1
239	21
240	9
241	38
242	18
243	25
244	1
245	9
247	1
248	1
249	8
250	4
251	127
252	27
253	17
254	3
255	10
257	2
258	1
259	1
260	27
261	6
262	1
264	17
265	8
267	18
268	15
269	561
270	122
271	17
272	7
273	6
276	1
277	2
278	1
279	8
281	7
282	1
284	1
285	15
286	8
287	20
288	2
289	1
292	6
293	1
295	10
296	4
297	14
298	3
299	6
300	5
301	1
303	3
310	79
311	17
313	14
314	6
315	891
316	199
317	25
318	1
327	1
328	68
329	15
342	2
343	2
344	1
345	1
346	1
355	10
356	1
360	24
361	8
362	1
370	33
371	4
388	58
389	10
390	1
