Mass Spectrum: 1H-1,3a-Ethanopentalen-4-ol, hexahydro-, trans-
Formula: C10H16O
CAS: 117306-48-6
Molecular weight: 152
m/z	intensity
41	110
55	210
67	420
70	130
79	400
80	400
81	380
82	240
83	450
91	290
92	190
93	470
95	570
96	750
97	330
105	230
106	370
108	230
109	999
110	230
119	230
123	330
124	370
134	400
152	500
153	55
