Mass Spectrum: 2R,3s-1-[[1,3-Dihydroxy-2-butoxy]methyl]-1,2,4-triazole-3-carboxamide
Formula: C8H14N4O4
CAS: 117486-39-2
Molecular weight: 230
m/z	intensity
42	427
43	601
44	621
45	832
46	88
47	22
49	24
51	41
53	99
54	111
55	705
56	63
57	143
58	77
59	58
61	33
67	17
68	27
69	175
70	107
71	120
72	37
73	90
75	37
77	64
78	14
81	43
82	200
83	67
84	52
85	22
87	79
88	108
89	8
91	26
95	38
96	176
97	28
98	191
99	38
100	8
101	10
105	47
107	38
108	19
109	77
110	37
111	45
112	91
113	264
114	14
121	25
123	26
124	156
125	999
126	864
127	64
138	27
139	88
140	171
141	25
152	25
153	7
155	22
168	165
169	33
182	101
183	30
199	19
201	17
