Mass Spectrum: 3-[2-(2-Dimethylaminoethyl)-4,5-methylenedioxyphenyl]methylene-6,7-dimethoxy-3H-isobenzofuran-1-one
Formula: C22H23NO6
CAS: 117446-25-0
Molecular weight: 397
m/z	intensity
41	11
42	32
43	29
44	25
45	3
55	10
56	11
57	31
58	999
59	112
63	3
69	11
70	5
71	13
72	5
73	3
76	11
77	15
78	5
79	1
83	3
84	2
88	2
89	7
102	2
103	6
104	2
105	6
129	7
131	5
135	4
139	11
146	5
147	5
149	29
150	7
151	9
152	10
153	3
163	9
165	12
167	10
174	12
176	7
178	7
188	9
189	6
190	3
193	19
194	2
195	2
202	3
204	103
205	12
209	5
221	1
222	1
223	2
225	2
236	10
237	2
238	1
249	1
250	1
251	2
253	4
264	1
265	1
266	1
277	2
278	1
279	1
280	1
281	1
291	1
292	1
293	2
294	2
295	2
296	1
306	6
308	1
309	1
311	2
322	6
352	3
354	1
395	5
397	147
398	35
399	3
