Mass Spectrum: Diazene, 1,1'-[1,1'-biphenyl]-4,4'-diylbis[2-phenyl-
Formula: C24H18N4
CAS: 1174-10-3
Molecular weight: 362
m/z	intensity
50	60
51	240
76	60
77	999
78	120
105	200
126	100
127	70
139	30
151	80
152	770
153	120
168	40
180	200
181	40
204	30
227	30
257	580
258	100
285	30
362	400
363	110
