Mass Spectrum: 11-Chloro-1-undecanethiol
Formula: C11H23ClS
CAS: 117559-61-2
Molecular weight: 222
m/z	intensity
40	70
41	999
42	256
43	415
44	44
45	69
46	30
47	276
48	12
49	42
50	4
51	22
52	7
53	94
54	146
55	924
56	355
57	137
58	14
59	23
60	38
61	97
62	12
63	33
64	2
65	20
66	3
67	187
68	220
69	335
70	147
71	30
72	4
73	14
74	6
75	8
76	4
77	9
78	5
79	16
80	1
81	82
82	138
83	199
84	57
85	15
86	7
87	93
88	18
89	66
90	12
91	34
92	6
93	14
95	56
96	43
97	93
98	24
99	4
100	1
101	94
102	14
103	14
104	108
105	18
106	32
107	7
108	1
109	25
110	16
111	27
112	7
113	2
114	0
115	26
116	6
117	8
118	40
119	11
120	10
121	2
122	0
123	21
124	11
125	3
126	1
127	1
128	2
129	35
130	7
131	11
132	20
133	6
134	4
135	2
137	2
142	1
143	27
144	3
145	6
146	9
147	3
148	3
152	1
153	0
154	1
156	1
157	3
158	3
159	6
160	18
161	3
162	7
163	1
171	2
185	9
186	15
187	5
188	5
189	1
190	1
221	2
222	13
223	3
224	6
