Mass Spectrum: 2,4,6-Triphenyl-1,3-dioxane
Formula: C22H20O2
CAS: 117525-88-9
Molecular weight: 316
m/z	intensity
27	11
29	17
31	9
39	14
40	2
41	30
42	6
43	41
44	4
45	8
50	7
51	28
52	8
53	4
54	2
55	27
56	12
57	45
58	2
59	4
60	7
61	2
63	5
64	2
65	8
67	8
68	5
69	28
70	10
71	22
72	2
73	7
74	4
75	5
76	8
77	109
78	64
79	22
80	3
81	15
82	7
83	16
84	6
85	13
87	3
89	10
90	6
91	29
92	7
93	6
94	2
95	10
96	5
97	13
98	6
99	5
102	11
103	54
104	999
105	270
106	19
107	11
108	3
109	7
110	3
111	9
112	4
113	4
115	24
116	16
117	8
119	3
121	38
123	6
124	2
125	4
127	4
129	4
131	3
133	3
135	5
136	2
137	5
138	2
139	3
140	2
141	3
147	2
151	3
152	4
153	3
155	2
163	3
165	7
166	3
177	3
178	7
179	15
180	3
181	2
189	2
191	3
192	3
193	53
194	185
195	23
196	2
208	2
209	2
210	9
211	7
220	2
315	13
316	5
