Mass Spectrum: Hexanenitrile, 6-[(triphenylmethyl)amino]-
Formula: C25H26N2
CAS: 117567-39-2
Molecular weight: 354
m/z	intensity
51	130
77	530
91	40
105	999
154	260
155	180
165	110
182	520
183	590
215	20
243	40
260	140
277	20
354	10
