Mass Spectrum: 2-(Phenylsulfinyl)phenylacetamide oxime
Formula: C14H14N2O2S
CAS: 117596-52-8
Molecular weight: 274
m/z	intensity
38	60
39	360
41	60
42	110
43	430
44	210
45	200
50	210
51	740
52	120
53	80
55	440
57	320
59	30
61	50
62	80
63	300
64	120
65	400
66	110
67	480
69	110
70	20
71	20
74	40
75	60
76	140
77	999
78	420
79	140
80	20
81	20
82	40
83	30
84	20
88	30
89	400
90	170
91	230
92	60
93	80
94	60
95	20
96	120
97	100
98	20
99	30
102	40
103	60
104	270
105	160
106	150
107	60
108	70
109	500
110	100
111	40
115	40
116	40
117	60
118	30
119	50
120	80
121	260
122	90
124	70
126	140
131	240
132	450
133	170
134	170
135	30
136	180
137	530
138	120
139	60
146	30
147	90
148	100
149	90
150	190
151	40
152	100
153	40
154	150
163	50
164	60
165	270
166	170
167	40
183	230
184	110
185	110
186	30
196	40
197	710
198	130
199	60
208	40
212	100
213	790
214	210
215	110
222	90
223	130
224	40
225	70
226	40
239	200
240	120
241	40
257	190
258	30
274	280
275	60
