Mass Spectrum: Furan-3-carboxamide, 2-methyl-N-(4-morpholyl)-
Formula: C10H14N2O3
CAS: 117534-46-0
Molecular weight: 210
m/z	intensity
33	27
34	8
36	20
37	11
39	125
40	92
41	103
43	543
44	70
45	49
50	55
51	77
52	72
53	97
55	158
56	144
57	126
58	14
59	7
60	2
61	0
62	2
63	5
64	3
65	11
67	36
68	21
69	33
70	37
71	39
72	17
73	6
74	3
75	2
76	6
77	8
78	4
80	43
81	20
82	14
83	21
86	300
87	17
88	3
89	1
91	8
93	4
94	7
95	12
96	13
97	9
98	3
99	6
101	172
102	16
103	4
105	7
106	9
109	999
110	46
111	9
112	6
113	5
114	5
115	1
117	1
118	1
119	2
120	1
121	5
122	5
123	7
125	109
126	30
127	11
128	7
129	2
130	1
131	1
132	0
133	0
134	1
135	2
136	5
137	3
138	5
139	2
140	3
141	4
143	14
144	2
145	4
146	1
147	2
149	62
150	8
151	6
152	8
153	7
154	11
155	2
156	0
157	0
159	4
160	0
161	1
162	0
163	2
164	3
165	5
166	11
167	7
168	1
169	0
171	6
172	2
173	0
176	0
177	0
178	2
179	3
180	4
181	3
182	0
185	2
192	1
193	2
195	44
196	3
197	0
205	0
208	0
210	17
211	1
212	0
