Mass Spectrum: (Tetra-t-butoxycyclopentadienone)tricarbonyliron(0)
Formula: C24H36FeO8
CAS: 117696-74-9
Molecular weight: 508
m/z	intensity
55	64
56	109
57	999
58	52
70	70
73	33
84	112
85	39
96	39
97	45
98	33
112	66
114	124
115	30
125	70
142	45
144	100
153	15
154	270
169	85
170	45
181	76
182	76
198	515
199	543
200	151
228	151
238	54
254	151
255	182
256	485
284	151
312	124
340	60
368	36
424	9
452	7
480	8
508	3
