Mass Spectrum: 1,3Diphenyl-7methyl-1,8a-dihydro-1,2,4triazolo[4,3-a]pyridin
Formula: C19H17N3
CAS: 117600-63-2
Molecular weight: 287
m/z	intensity
12	0
13	0
14	1
15	4
16	1
17	2
18	7
26	10
27	41
28	22
29	4
30	0
31	2
32	1
34	0
36	0
37	9
38	28
39	111
40	28
41	48
42	4
43	3
44	2
45	1
46	0
48	0
49	2
50	41
51	145
52	51
53	30
54	14
55	2
56	0
57	1
60	0
61	3
62	13
63	72
64	210
65	111
66	65
67	23
68	1
69	0
70	1
71	0
72	0
73	1
74	5
75	11
76	34
77	184
78	39
79	8
80	8
81	1
82	0
84	3
85	0
86	1
87	2
88	4
89	30
91	999
92	111
93	94
94	35
95	2
96	1
97	1
98	0
99	0
100	0
101	2
102	5
103	36
104	32
105	8
106	1
107	1
108	0
110	0
111	0
112	0
113	2
114	3
115	10
116	3
117	4
118	3
119	2
120	0
121	0
122	0
125	0
126	1
127	5
128	7
129	5
130	2
131	1
132	0
135	0
136	0
137	0
138	0
139	4
140	5
141	4
142	3
143	6
149	0
150	0
151	1
152	4
153	3
154	5
155	3
156	3
157	1
158	0
163	1
164	1
165	9
166	11
167	26
168	32
169	7
170	0
172	0
177	0
178	0
179	2
180	7
181	23
182	27
183	40
184	5
185	1
191	0
192	8
193	38
194	339
195	55
196	7
197	0
207	0
208	0
209	0
210	1
211	0
212	0
220	0
221	1
222	0
234	0
235	0
242	0
243	0
246	0
255	0
256	0
257	0
258	0
259	0
260	0
262	0
268	0
269	0
270	0
271	0
272	2
273	0
274	0
283	0
284	0
286	42
287	59
288	12
289	1
290	0
