Mass Spectrum: Ethanone, 1-(2,3-dihydro-2,3-diphenyl-4-isoxazolyl)-
Formula: C17H15NO2
CAS: 117644-87-8
Molecular weight: 265
m/z	intensity
77	999
78	160
89	130
90	100
91	350
93	200
104	190
105	480
149	250
165	100
172	100
180	330
181	350
182	310
193	400
194	520
195	120
197	110
204	100
205	140
206	110
222	810
223	90
236	40
265	130
266	25
