Mass Spectrum: 2-Propenal, 2-acetyl-3-(phenylamino)-
Formula: C11H11NO2
CAS: 117644-72-1
Molecular weight: 189
m/z	intensity
77	700
78	90
79	70
89	100
90	160
91	300
92	70
93	110
101	60
104	180
105	100
116	100
117	280
118	999
119	160
128	90
144	210
146	500
160	520
161	100
171	250
188	700
189	350
190	44
