Mass Spectrum: 1,3,5,7,9,11-Hexaazatetracyclo[7.3.1.1(3.7).0(13.14)]tetradecane-2,8-dione, 5,11-ditert-butyl-
Formula: C16H28N6O2
CAS: 117622-15-8
Molecular weight: 336
m/z	intensity
33	0
34	0
35	0
36	0
37	0
38	1
39	36
40	21
41	270
42	206
43	34
44	8
45	1
47	0
48	0
50	0
51	1
52	1
53	6
54	16
55	59
56	166
57	290
58	17
59	0
60	0
61	0
63	0
65	0
67	5
68	21
70	999
71	41
72	3
73	0
74	0
75	0
77	0
78	0
79	0
80	0
81	15
82	14
83	67
84	76
85	29
86	22
87	1
91	0
92	0
93	0
95	9
96	19
97	24
98	6
99	6
100	3
101	0
107	0
108	1
109	5
110	10
111	32
112	41
113	6
114	0
117	0
118	0
120	0
121	0
122	3
123	2
124	20
125	9
126	4
127	3
128	0
132	0
135	0
136	1
137	3
138	19
139	11
140	6
141	7
142	0
149	0
150	1
151	6
152	13
153	79
154	11
155	1
156	0
161	0
162	0
163	0
164	2
165	21
166	37
167	33
168	18
169	2
170	1
171	0
172	0
173	0
177	0
178	0
179	2
180	3
181	4
182	2
183	0
191	0
192	0
193	3
194	52
195	54
196	21
197	2
198	0
206	0
207	10
208	5
209	3
210	0
211	0
219	0
220	0
221	1
222	24
223	25
224	3
225	0
234	1
235	2
236	238
237	42
238	5
239	0
248	0
249	1
250	17
251	128
252	26
253	3
254	0
263	10
264	6
265	50
266	7
267	0
277	0
278	0
279	7
280	1
281	0
292	0
295	0
305	0
306	0
309	0
318	0
319	3
321	539
322	104
323	11
324	0
334	0
335	1
336	11
337	2
338	0
