Mass Spectrum: 4,6-Disila-dispiro[3.1.3.1]decane
Formula: C8H16Si2
CAS: 117690-05-8
Molecular weight: 168
m/z	intensity
20	8
24	3
25	7
26	66
27	76
28	15
29	61
30	6
31	27
36	7
37	3
38	11
39	42
40	14
41	45
42	82
43	203
44	126
45	48
46	3
50	3
51	15
53	71
54	14
55	102
56	49
57	48
58	23
59	19
60	3
63	5
65	5
66	10
67	50
68	14
69	230
70	174
71	91
72	25
73	16
75	2
77	8
79	5
80	5
81	65
82	22
83	100
84	436
85	129
86	72
87	20
88	5
90	12
91	2
93	8
94	4
95	33
96	10
97	43
98	103
99	129
100	26
101	26
102	4
103	3
105	4
108	4
109	25
110	13
111	55
112	999
113	163
114	84
115	11
116	2
117	10
123	3
124	3
125	47
126	70
127	120
128	24
129	7
139	19
140	706
141	115
142	51
143	5
153	7
167	4
168	139
169	26
170	11
