Mass Spectrum: 2-Aziridinecarboxylic acid, 2,3-dibenzoyl-1-phenyl-, ethyl ester
Formula: C25H21NO4
CAS: 117644-74-3
Molecular weight: 399
m/z	intensity
77	570
78	70
89	40
90	30
91	30
95	30
97	30
104	70
105	999
106	350
116	30
117	30
122	120
144	60
172	30
180	30
193	50
205	70
220	70
221	90
222	30
248	350
249	70
276	30
278	50
294	380
295	180
354	80
398	480
399	370
400	103
