Mass Spectrum: 5-Oxazolecarboxylic acid, 2-benzoyl-2,3-dihydro-3-phenyl-, methyl ester
Formula: C18H15NO4
CAS: 117644-76-5
Molecular weight: 309
m/z	intensity
77	420
78	180
89	100
91	390
101	130
103	170
104	760
105	999
106	160
131	410
150	120
204	600
264	68
265	68
294	500
295	80
309	100
