Mass Spectrum: Benzenepropanoic acid, .alpha.-oxo-.beta.-(phenylamino)-, ethyl ester
Formula: C17H17NO3
CAS: 117644-82-3
Molecular weight: 283
m/z	intensity
77	700
78	100
79	30
80	50
89	30
91	30
92	150
101	30
104	999
105	610
106	180
107	40
130	60
132	70
150	80
178	520
179	120
209	110
210	80
211	40
281	120
282	150
283	140
284	27
