Mass Spectrum: (Z)-3-Benzyl-2-methylimino-4,5-tetramethylenetetrahydro-1,3-oxazine
Formula: C16H22N2O
CAS: 117720-55-5
Molecular weight: 258
m/z	intensity
55	100
58	270
59	20
65	110
67	150
68	90
77	80
79	120
81	140
89	20
91	590
92	40
93	30
94	40
95	60
104	120
105	140
106	999
107	90
117	20
118	30
119	30
131	20
132	50
145	10
146	20
147	20
154	30
158	50
163	500
164	60
165	100
167	40
170	30
175	20
188	10
200	30
228	10
245	10
257	120
258	850
259	190
