Mass Spectrum: 1H-Imidazole, 2-heptadecyl-4,5-dihydro-, monoacetate
Formula: C22H42N2O2
CAS: 1177990-71-4
Molecular weight: 366
m/z	intensity
12	9
13	22
14	53
15	137
16	30
17	75
18	218
19	1
25	3
26	9
27	67
28	69
29	191
30	198
31	17
32	23
36	3
38	2
39	30
41	260
42	116
43	512
44	182
45	107
46	3
50	1
51	2
52	1
53	12
54	32
55	140
56	39
57	96
58	28
59	113
60	60
61	9
62	1
63	1
65	3
66	2
67	23
68	20
69	46
70	20
71	27
72	50
73	92
74	5
75	1
77	3
78	1
79	5
80	4
81	23
82	39
84	999
85	72
86	84
87	15
88	2
91	3
92	1
93	3
94	7
95	28
97	441
98	129
99	12
100	21
101	6
102	34
103	2
105	1
106	1
107	5
108	5
109	13
110	12
111	65
112	15
113	3
114	11
115	21
116	3
117	1
119	1
120	1
121	5
122	3
123	15
124	10
125	43
126	14
127	3
128	20
129	10
130	1
131	1
132	1
133	2
134	1
135	3
137	12
139	112
140	14
142	19
143	4
144	1
145	1
146	1
149	3
150	1
151	4
153	48
154	6
155	1
156	5
157	3
162	9
163	2
164	1
165	2
167	26
168	4
169	1
170	4
171	2
179	1
181	17
182	3
184	4
185	2
193	2
195	16
196	3
198	5
199	1
207	1
209	9
210	2
212	2
213	1
223	5
224	1
226	2
237	4
238	2
240	3
251	3
254	2
255	1
256	2
265	3
266	1
268	1
269	1
279	3
280	1
283	1
284	5
285	1
297	2
307	10
308	6
309	2
