Mass Spectrum: (E)-3-Benzyl-2-methylimino-4,5-tetramethylenetetrahydro-1,3-oxazine
Formula: C16H22N2O
CAS: 117720-57-7
Molecular weight: 258
m/z	intensity
55	140
58	130
59	140
65	80
67	160
68	80
77	80
79	90
81	130
89	30
91	520
92	30
93	20
94	30
95	70
104	140
105	160
106	999
107	80
117	20
118	40
119	50
131	50
132	60
145	30
146	60
147	10
154	30
158	60
163	410
164	50
165	40
167	40
170	30
175	20
188	10
200	60
228	10
245	10
257	150
258	850
259	180
