Mass Spectrum: Dimethyl 3-trimethylsiloxy-heptanedioate
Formula: C12H24O5Si
CAS: 117750-03-5
Molecular weight: 276
m/z	intensity
55	198
57	40
58	51
59	452
60	29
61	40
67	59
68	30
69	120
70	29
73	999
74	141
75	341
79	40
81	60
83	50
84	29
85	59
89	902
90	71
91	60
93	40
95	332
97	60
101	50
103	40
105	129
115	39
117	50
119	59
123	231
129	70
131	60
133	149
137	50
141	70
143	39
155	201
159	139
160	29
169	29
170	50
175	241
187	90
197	29
203	50
219	30
229	99
261	50
