Mass Spectrum: Xanthine, 1,3-diethyl-8-[4-[[[[diethylamino]ethylmethylamino]carbonyl]methoxyphenyl]-
Formula: C22H30N6O4
CAS: 117723-79-2
Molecular weight: 442
m/z	intensity
41	11
42	185
43	91
44	81
45	49
50	8
51	22
52	8
53	12
54	15
55	49
56	32
57	153
58	999
59	47
60	21
61	5
63	11
65	18
66	4
69	17
70	19
71	52
72	19
73	32
74	10
76	9
77	56
78	216
79	20
82	4
84	11
85	9
87	5
89	6
91	10
95	7
98	5
99	111
100	5
101	5
105	10
106	142
107	22
108	5
113	8
119	10
121	8
123	6
124	152
125	8
127	13
128	170
129	29
142	40
143	5
149	12
158	5
161	5
173	12
179	4
211	5
258	12
286	5
314	48
315	8
328	16
360	5
370	5
371	5
374	5
377	5
382	5
442	10
