Mass Spectrum: 2-Methyl-3-isobutoxy-5-propargylcyclopent-2-en-1-one
Formula: C13H18O2
CAS: 117780-93-5
Molecular weight: 206
m/z	intensity
33	9
34	3
37	3
38	25
39	291
40	194
41	753
42	64
43	203
44	47
45	8
50	14
51	50
52	35
53	119
54	35
55	223
56	78
57	999
58	39
59	0
62	7
63	27
64	13
65	86
66	53
67	52
68	8
69	30
70	17
71	9
72	2
73	1
76	1
77	119
78	45
79	182
80	38
81	32
82	45
83	258
84	18
85	6
89	2
90	6
91	54
92	9
93	45
94	67
95	39
96	29
97	7
98	12
99	6
102	3
103	28
104	28
105	19
107	296
108	73
109	27
110	56
111	97
112	14
113	2
116	1
121	114
122	115
123	20
124	4
125	6
127	5
131	1
132	2
133	11
135	50
136	3
147	2
149	81
150	205
151	122
152	10
155	1
163	1
166	3
173	0
204	1
206	162
207	18
