Mass Spectrum: 1,6-Dihydro-5-formyl-1-methyl-2-methylthio-4-(2,3,4-tri-O-acetyl-.beta.-D-xylopyranosylamino)-1H-pyrimidin-6-one
Formula: C18H23N3O9S
CAS: 117779-83-6
Molecular weight: 457
m/z	intensity
88	999
171	150
172	190
198	150
200	370
224	74
226	74
228	520
240	74
241	37
242	37
250	110
268	150
278	170
294	110
310	74
337	74
338	330
370	300
386	37
397	37
398	37
457	74
