Mass Spectrum: N-[2-(Perfluorophenoxy)ethyl]piperidine
Formula: C13H14F5NO
CAS: 117766-21-9
Molecular weight: 295
m/z	intensity
40	9
41	70
42	78
43	12
44	39
54	13
55	88
56	39
57	7
68	5
69	30
70	30
83	36
84	6
96	23
98	999
99	78
111	14
112	8
155	6
184	8
295	26
