Mass Spectrum: 5,8,15,18,23,26-Hexaoxa-1,12-diazabicyclo[10.8.8]octacosane
Formula: C20H40N2O6
CAS: 117875-33-9
Molecular weight: 404
m/z	intensity
55	200
56	571
57	500
58	714
59	121
68	64
69	126
70	586
71	329
72	443
73	157
74	47
82	143
83	129
84	714
85	186
86	429
87	63
88	186
89	36
94	100
95	31
96	200
97	74
98	271
99	86
100	486
101	999
102	200
103	36
107	50
108	157
109	64
110	79
111	80
112	136
113	171
114	571
115	90
116	214
117	31
118	21
119	60
120	17
121	59
122	36
123	24
124	43
125	39
126	90
127	60
128	229
129	66
130	143
131	49
132	200
133	37
136	63
138	66
139	33
140	121
141	40
142	186
143	71
144	229
145	41
146	114
147	243
148	47
149	186
150	29
156	64
157	33
158	229
159	39
160	76
167	76
168	27
169	20
170	73
171	31
172	114
173	30
174	53
184	39
185	26
186	79
187	30
188	59
189	17
190	23
198	31
199	31
200	57
201	31
202	46
204	21
213	34
214	31
215	54
216	36
217	10
218	29
227	31
228	21
229	39
230	23
232	26
241	131
242	23
243	26
248	31
255	47
257	21
258	17
259	14
260	26
283	37
284	19
285	57
286	17
287	14
289	24
291	33
292	21
293	21
294	44
295	30
299	93
300	29
301	43
302	14
303	34
313	50
314	20
315	79
316	19
317	27
329	286
330	54
331	44
343	314
344	83
345	40
359	26
360	29
361	21
374	27
375	24
376	10
389	13
403	17
404	157
405	39
