Mass Spectrum: 4-Ethylthiohexahydropyrimidin-2-thione
Formula: C6H12N2S2
CAS: 117822-29-4
Molecular weight: 176
m/z	intensity
37	9
38	19
39	71
40	30
41	120
42	82
43	150
44	180
45	260
46	100
47	250
48	17
49	15
50	7
51	26
52	63
53	58
54	250
55	160
56	640
57	190
58	100
59	280
60	280
61	110
62	340
63	16
64	23
66	17
67	17
68	72
69	49
70	33
71	30
72	480
73	53
74	27
75	9
76	4
77	10
79	79
80	17
81	37
82	15
83	9
84	29
85	9
86	110
87	30
88	38
89	13
90	28
93	12
94	15
95	9
97	13
98	10
99	7
100	7
101	17
103	7
104	4
110	4
111	27
112	80
113	300
114	800
115	999
116	260
117	55
118	10
126	3
127	1
128	15
129	3
130	17
131	41
132	7
146	4
149	7
176	370
177	33
178	34
179	3
180	1
