Mass Spectrum: 1-Pentanone, 4-hydroxy-4-methyl-1-phenyl-
Formula: C12H16O2
CAS: 117861-42-4
Molecular weight: 192
m/z	intensity
38	5
39	71
40	12
41	119
42	10
43	168
44	9
50	27
51	121
52	15
53	37
54	5
55	79
56	14
57	12
58	9
59	12
62	6
63	30
64	16
65	24
66	4
67	20
68	8
69	19
70	4
72	4
73	9
74	6
75	9
76	19
77	356
78	44
79	24
81	30
82	2
83	10
84	6
86	5
87	13
88	3
89	30
90	6
91	54
92	5
95	10
96	17
97	15
102	6
103	13
104	9
105	999
106	78
107	14
113	3
114	18
115	248
116	222
117	36
118	4
119	4
120	9
122	4
123	1
127	11
128	18
129	20
130	6
131	44
132	6
133	18
134	1
141	26
142	4
143	4
144	19
145	49
146	6
155	7
156	3
157	11
158	14
159	186
160	22
161	1
172	2
173	49
174	474
175	62
176	4
