Mass Spectrum: 4-Butylthiohexahydropyrimidin-2-thione
Formula: C8H16N2S2
CAS: 117822-30-7
Molecular weight: 204
m/z	intensity
37	8
38	22
39	100
40	31
41	350
42	60
43	110
44	68
45	160
46	76
47	170
48	31
49	15
50	13
51	22
52	44
53	50
54	210
55	180
56	920
57	180
58	60
59	180
60	170
61	120
62	19
63	6
64	5
65	1
66	6
67	6
68	33
69	27
70	16
71	18
72	280
73	33
74	19
75	5
76	5
77	4
78	2
79	58
80	12
81	24
82	13
83	7
84	21
85	6
86	76
87	29
88	32
89	8
90	310
91	18
92	15
93	4
94	3
95	3
96	2
97	5
98	5
99	5
100	4
101	12
102	2
103	4
104	3
105	2
109	1
110	3
111	17
112	63
113	220
114	860
115	999
116	200
117	54
118	11
119	1
120	2
122	5
126	11
127	7
128	48
129	10
130	8
131	18
132	3
133	1
144	2
145	3
146	12
147	20
148	88
149	12
150	8
204	210
205	24
206	20
207	2
