Mass Spectrum: N'-Furfurylidene-4-nitrobenzohydrazide
Formula: C12H9N3O4
CAS: 117824-92-7
Molecular weight: 259
m/z	intensity
34	37
35	15
36	28
37	44
38	136
39	357
40	304
41	54
43	59
44	243
46	16
48	1
50	302
51	145
52	107
53	59
54	59
55	43
56	22
57	33
58	3
60	9
61	2
62	11
63	59
64	66
65	43
66	17
67	18
68	16
69	15
70	13
71	12
73	13
74	35
75	256
76	182
78	23
79	44
81	179
83	41
84	32
85	9
86	2
87	3
89	2
90	10
91	20
92	116
93	999
95	18
97	23
98	4
100	2
101	5
103	42
104	393
105	29
106	11
107	12
108	13
109	22
111	8
112	7
113	5
114	2
115	4
116	2
117	3
118	9
120	200
121	48
122	15
124	36
126	5
127	8
129	4
130	3
133	2
134	76
135	13
137	21
138	4
140	1
150	933
151	65
152	7
155	4
156	3
163	6
166	69
167	9
171	7
181	1
192	1
201	1
202	3
212	1
229	2
244	7
259	162
260	18
261	1
