Mass Spectrum: 4-Ethylthio-6-methylhexahydropyrimidin-2-thione
Formula: C7H14N2S2
CAS: 117822-31-8
Molecular weight: 190
m/z	intensity
37	10
38	25
39	110
40	41
41	200
42	200
43	230
44	350
45	170
46	67
47	200
48	18
49	16
50	10
51	16
52	35
53	42
54	73
55	37
56	54
57	63
58	75
59	150
60	220
61	83
62	260
63	16
64	27
65	5
66	22
67	28
68	160
69	82
70	200
71	67
72	24
73	22
74	9
75	9
76	7
77	8
78	6
79	83
80	8
81	17
82	13
83	11
84	24
85	9
86	999
87	65
88	52
89	10
90	2
91	3
92	2
93	23
94	15
95	21
96	7
97	20
98	12
99	19
100	19
101	12
102	12
103	5
104	5
105	3
109	3
110	13
111	25
112	17
113	470
114	31
115	36
116	4
117	4
118	5
119	4
120	2
122	2
123	1
125	3
126	49
127	70
128	600
129	750
130	170
131	41
132	8
141	3
145	17
146	5
149	3
160	5
161	2
162	4
190	390
191	39
192	36
193	3
194	1
