Mass Spectrum: 4-Cyclohexene-1,2-diol
Formula: C6H10O2
CAS: 117919-55-8
Molecular weight: 114
m/z	intensity
23	0
24	0
25	3
26	28
27	171
29	102
30	8
31	99
33	3
37	17
38	30
39	246
40	36
41	216
42	107
43	88
44	34
45	9
46	0
47	21
48	0
49	3
50	28
51	44
52	12
53	77
54	43
55	262
56	23
57	46
58	7
60	999
61	27
62	8
63	9
64	8
65	55
66	57
67	179
68	54
69	63
70	92
71	6
72	1
73	10
74	2
75	2
76	1
77	32
78	28
79	30
80	9
81	46
82	2
83	241
84	29
85	10
86	3
87	0
89	0
91	1
92	1
93	2
94	39
95	121
96	467
97	32
98	2
99	0
105	1
106	0
108	0
110	1
112	2
113	1
114	5
116	1
