Mass Spectrum: 1-Phenyl-1,4-nonanedione
Formula: C15H20O2
CAS: 117937-13-0
Molecular weight: 232
m/z	intensity
27	104
29	128
43	322
51	102
55	107
71	189
77	393
99	106
105	999
133	337
161	468
176	491
232	13
