Mass Spectrum: Silane, (2,3-dimethyl-1,3-butadiene-1,4-diyl)bis[trimethyl-, (E,E)-
Formula: C12H26Si2
CAS: 117924-34-2
Molecular weight: 226
m/z	intensity
27	2
29	9
30	2
31	21
33	0
39	3
40	0
41	2
42	4
43	86
44	21
45	196
46	13
47	7
51	0
52	0
53	10
54	2
55	19
56	3
57	11
58	18
59	77
60	6
61	3
65	1
66	3
67	15
68	3
69	25
70	6
71	10
73	999
74	82
75	35
76	2
77	2
78	0
79	3
80	1
81	9
82	5
83	54
84	6
85	9
86	0
87	0
90	1
91	2
92	3
93	6
94	1
95	18
96	5
97	38
98	28
99	16
100	2
101	0
105	2
107	5
108	0
109	10
110	4
111	5
112	6
113	7
115	1
117	0
119	0
121	5
123	401
124	53
125	18
126	1
127	1
129	1
135	1
136	0
137	27
138	55
139	13
140	3
141	3
151	1
152	69
153	33
154	6
155	4
181	2
211	61
212	13
213	6
214	0
226	33
227	9
228	4
