Mass Spectrum: Benz[d]isoxazole-4-one, 4,5,6,7-tetrahydro-3-undecyl-
Formula: C18H29NO3
CAS: 117968-69-1
Molecular weight: 307
m/z	intensity
41	999
42	218
43	989
44	90
45	11
47	26
48	11
49	1
50	1
51	0
52	46
53	134
54	120
55	652
56	156
57	449
58	40
59	3
60	2
61	0
63	6
64	14
65	33
66	37
67	129
68	130
69	318
70	104
71	73
72	7
73	5
75	3
76	1
77	27
78	18
79	56
80	88
81	82
82	69
83	114
84	185
85	111
86	52
87	0
88	9
89	1
90	3
91	23
92	12
93	34
94	68
95	50
96	73
97	155
98	75
99	25
100	4
103	3
104	4
105	11
106	24
107	21
108	82
109	53
110	73
111	43
112	30
113	8
114	3
115	3
116	1
117	6
118	7
119	8
120	21
121	22
122	59
123	45
124	67
125	66
126	25
127	9
128	3
129	4
130	3
131	4
132	5
133	7
134	25
135	23
136	370
137	76
138	102
139	64
140	19
141	26
142	4
143	2
144	3
145	3
146	5
147	7
148	55
149	36
150	73
151	74
152	70
153	42
154	880
155	72
156	11
157	2
158	1
159	3
160	8
161	5
162	50
163	41
164	92
165	61
166	51
167	527
168	50
169	21
170	6
171	1
172	1
173	2
174	5
175	3
176	76
177	105
178	85
179	32
180	306
181	59
182	25
183	4
186	0
187	1
188	3
189	3
190	39
191	29
192	53
193	18
194	133
195	158
196	22
197	3
202	2
203	1
204	24
205	10
206	24
207	13
208	132
209	73
210	15
211	3
216	1
218	16
219	7
220	28
221	8
222	94
223	27
224	9
225	2
228	1
232	10
233	6
234	18
235	8
236	104
237	16
238	3
239	1
246	8
247	7
248	12
249	2
250	113
251	22
252	5
253	1
260	8
261	19
262	9
263	27
264	46
265	9
266	2
272	1
274	1
276	1
278	31
279	9
280	2
288	6
289	86
290	29
291	5
292	17
293	3
294	0
306	14
307	37
308	23
309	7
310	1
