Mass Spectrum: Benzoic acid, 2-amino-
Formula: C7H7NO2
CAS: 118-92-3
Molecular weight: 137
m/z	intensity
15	1
17	1
19	1
25	1
26	5
27	13
28	24
29	7
30	2
31	2
35	1
36	4
37	27
38	60
39	136
40	25
41	42
42	13
43	3
44	15
46	55
48	1
49	7
50	37
51	32
52	95
53	39
54	15
55	5
56	1
58	1
60	37
61	26
62	47
63	134
64	182
65	263
66	49
67	6
68	14
71	1
73	5
74	14
75	13
76	22
77	7
78	4
79	3
80	10
81	3
83	1
86	2
87	3
88	4
89	7
90	35
91	157
92	709
93	66
94	4
95	1
105	1
108	2
117	1
119	999
120	107
121	7
122	1
135	1
137	621
138	52
139	4
