Mass Spectrum: Bicyclo[7.2.0]undec-4-ene, 4,11,11-trimethyl-8-methylene-,[1R-(1R*,4Z,9S*)]-
Formula: C15H24
CAS: 118-65-0
Molecular weight: 204
m/z	intensity
26	5
27	247
29	149
30	3
37	4
38	9
39	343
41	999
42	50
43	120
50	14
51	74
52	57
53	232
54	38
55	319
56	47
57	53
58	4
59	4
62	5
63	19
64	8
65	115
66	40
67	285
68	61
69	730
70	42
71	19
74	2
75	2
77	265
78	75
79	519
80	166
81	360
82	91
83	34
84	2
89	4
91	506
92	207
93	779
94	146
95	136
96	17
97	6
102	2
103	18
104	12
105	339
106	197
107	326
108	79
109	112
110	15
111	14
115	16
116	6
117	30
118	7
119	221
120	183
121	171
122	95
123	43
124	5
127	3
128	7
129	5
130	2
131	16
132	6
133	505
134	197
135	206
136	44
137	7
145	6
146	4
147	102
148	83
149	25
150	3
160	6
161	244
162	46
163	9
175	47
176	19
177	4
189	95
190	14
204	62
205	10
