Mass Spectrum: 4,5,6-Pyrimidinetriamine
Formula: C4H7N5
CAS: 118-70-7
Molecular weight: 125
m/z	intensity
12	2
13	2
14	1
16	11
17	20
18	43
26	26
27	195
28	162
29	28
30	3
38	5
39	6
40	7
41	9
42	28
43	143
44	90
45	31
52	6
53	42
54	83
55	44
56	48
57	2
65	2
66	14
67	5
68	5
69	2
70	39
71	224
72	7
80	2
81	29
82	6
83	2
97	20
98	128
99	6
107	2
108	17
109	4
124	6
125	999
126	65
127	1
