Mass Spectrum: Benzoic acid, 4-chloro-3,5-dinitro-
Formula: C7H3ClN2O6
CAS: 118-97-8
Molecular weight: 246
m/z	intensity
12	1
16	6
17	8
18	18
25	2
26	4
27	9
28	11
29	9
30	999
31	4
32	6
35	8
36	62
37	43
38	24
39	10
40	2
41	3
42	2
43	4
44	95
45	68
46	51
47	6
48	4
49	16
50	38
51	36
52	9
53	48
54	6
55	10
56	1
57	2
60	9
61	52
62	84
63	162
64	20
65	9
66	12
67	29
68	5
69	41
70	7
71	4
72	29
73	115
74	429
75	154
76	21
77	9
78	6
79	92
80	17
81	3
82	2
83	3
84	63
85	14
86	62
87	23
88	24
89	21
90	16
91	16
92	15
93	4
94	5
95	12
96	15
97	53
98	37
99	27
100	14
101	45
102	25
103	3
104	8
105	2
106	2
107	32
108	65
109	244
110	43
111	80
112	9
113	13
114	25
115	8
116	27
117	3
118	8
119	84
120	17
121	4
122	5
123	11
124	9
125	26
126	47
127	26
128	16
129	7
130	29
131	2
132	10
133	18
134	2
135	99
136	60
137	147
138	27
139	46
140	6
141	5
142	15
143	6
144	8
145	2
146	2
148	11
149	9
150	1
151	47
152	6
153	49
154	206
155	42
156	69
157	9
158	8
159	1
160	5
162	1
165	107
166	17
167	2
168	4
169	1
170	12
171	4
172	7
173	2
174	1
177	1
181	1
182	3
183	25
184	7
185	20
186	5
187	5
188	1
189	4
191	2
195	1
196	2
200	17
201	5
202	10
203	2
204	2
205	4
207	3
212	28
213	3
214	3
216	47
217	6
218	16
219	2
220	1
229	27
230	41
231	11
232	14
233	1
246	732
247	63
248	245
249	19
250	4
