Mass Spectrum: cis-3-Methyl-2-n-propylthiophane
Formula: C8H16S
CAS: 118068-76-1
Molecular weight: 144
m/z	intensity
38	11
39	137
40	25
41	235
42	35
43	37
44	44
45	136
46	35
47	70
48	6
49	6
50	8
51	19
52	10
53	58
54	49
55	274
56	51
57	15
58	20
59	174
60	54
61	47
65	17
66	6
67	157
68	28
69	45
71	17
72	6
73	49
74	28
75	5
77	10
79	17
80	3
81	68
82	8
83	14
84	8
85	38
86	5
87	82
88	17
89	5
95	26
96	3
97	12
99	30
100	19
101	999
102	90
103	55
104	3
110	5
115	40
116	12
129	3
143	8
144	202
145	20
146	10
147	1
