Mass Spectrum: 2,3-Pentanedione bis(2,4-dinitrophenylhydrazone)
Formula: C17H16N8O8
CAS: 1180-59-2
Molecular weight: 460
m/z	intensity
12	4
13	1
14	9
15	10
16	5
17	48
18	7
24	3
25	9
26	74
27	190
28	999
29	87
30	614
31	3
32	3
36	4
37	16
38	74
39	124
40	75
41	203
42	207
43	382
44	107
45	5
46	8
47	3
48	3
49	8
50	83
51	151
52	124
53	77
54	100
55	63
56	97
57	238
58	9
59	1
60	4
61	19
62	107
63	198
64	135
65	75
66	57
67	69
68	52
69	25
70	8
71	4
72	2
73	6
74	46
75	197
76	155
77	276
78	172
79	143
80	62
81	20
82	73
83	22
84	5
85	4
86	4
87	8
88	36
89	98
90	124
91	146
92	88
93	79
94	16
95	27
96	20
97	9
98	5
99	4
100	7
101	26
102	48
103	77
104	78
105	87
106	66
107	58
108	16
109	6
110	5
111	16
112	25
113	9
114	21
115	55
116	52
117	74
118	77
119	56
120	34
121	21
122	100
123	14
124	4
125	3
126	7
127	19
128	36
129	45
130	77
131	59
132	61
133	26
134	22
135	91
136	51
137	51
138	24
139	12
140	18
141	22
142	41
143	84
144	134
145	45
146	31
147	23
148	22
149	42
150	24
151	39
152	61
153	75
154	31
155	27
156	42
157	45
158	32
159	52
160	26
161	14
162	30
163	60
164	65
165	98
166	52
167	56
168	59
169	40
170	62
171	44
172	29
173	30
174	30
175	31
176	38
177	52
178	22
179	23
180	19
181	246
182	83
183	171
184	53
185	28
186	38
187	23
188	21
189	79
190	47
191	46
192	20
193	24
194	14
195	26
196	26
197	12
198	13
199	10
200	15
201	22
202	44
203	36
204	58
205	62
206	22
207	30
208	21
209	5
210	30
211	9
212	8
213	11
214	21
215	38
216	94
217	86
218	38
219	38
220	40
221	29
222	13
223	9
224	5
225	7
226	8
227	11
228	13
229	33
230	96
231	44
232	86
233	46
234	12
235	5
236	5
237	5
238	3
239	2
240	3
241	4
242	17
243	33
244	37
245	28
246	35
247	99
248	23
249	10
250	9
251	5
252	4
253	3
254	2
255	8
256	8
257	11
258	9
259	29
260	116
261	233
262	205
263	110
264	61
265	13
266	6
267	3
268	1
269	2
270	6
271	6
272	9
273	9
274	9
275	16
276	34
277	449
278	757
279	125
280	41
281	8
282	2
283	2
284	1
285	3
286	4
287	7
288	5
289	36
290	12
291	6
292	8
293	6
294	3
295	2
296	2
297	1
298	2
299	1
300	1
301	3
302	7
303	6
304	6
305	7
306	7
307	4
308	3
309	3
310	3
311	2
314	2
315	2
316	2
317	4
318	5
319	7
320	7
321	9
322	4
323	3
324	5
325	3
329	2
330	2
331	6
332	7
333	12
334	8
335	5
336	8
337	5
338	6
339	3
340	2
341	2
343	1
344	3
345	5
346	3
347	6
348	6
349	8
350	9
351	6
352	7
353	6
354	3
355	2
356	1
360	3
361	6
362	6
363	6
364	14
365	9
366	10
367	7
368	6
369	4
370	4
371	6
372	2
375	2
376	6
377	15
378	13
379	23
380	10
381	9
382	5
383	9
384	4
385	2
386	2
390	10
391	14
392	10
393	9
394	40
395	12
396	15
397	9
398	23
399	7
400	7
401	2
406	2
407	21
408	13
409	11
410	9
411	9
412	8
413	14
414	6
415	3
416	2
421	7
422	5
423	9
424	24
425	64
426	47
427	26
429	43
430	14
436	1
437	2
439	13
440	7
443	663
444	158
445	25
446	42
447	9
456	36
457	6
458	3
460	562
461	130
462	23
463	2
