Mass Spectrum: 4-Methyl-4-(tetrahydropyran-2-yl)oxypentane-2,3-dione
Formula: C11H18O4
CAS: 118006-75-0
Molecular weight: 214
m/z	intensity
26	5
27	43
28	6
29	78
31	26
38	2
39	46
40	8
41	144
42	39
43	999
44	16
45	3
53	6
54	3
55	52
56	38
57	126
58	6
59	45
67	80
68	4
69	20
70	19
71	6
83	6
84	5
85	764
86	47
87	4
101	11
102	1
112	1
113	17
114	3
128	3
143	52
144	6
156	6
