Mass Spectrum: 2-Buten-1-one, 1-[3,6-dimethyl-5-(3-methyl-1-oxobutyl)pyrazinyl]-3-methyl-
Formula: C16H22N2O2
CAS: 118025-81-3
Molecular weight: 274
m/z	intensity
50	7
51	18
52	22
53	120
54	67
55	484
56	25
57	143
65	17
66	20
67	50
68	20
70	136
73	7
77	104
78	20
79	21
80	40
81	8
82	78
83	999
84	44
85	44
89	7
91	37
92	17
93	35
94	10
96	12
98	23
101	8
103	10
104	9
105	30
106	25
107	57
108	15
109	15
118	12
119	10
120	15
121	13
122	38
123	7
129	5
131	5
132	13
133	14
134	20
135	10
136	22
140	10
142	10
145	20
146	36
147	62
148	30
149	20
150	25
155	7
160	10
161	70
162	102
163	20
164	7
167	5
171	5
172	13
173	20
174	18
175	112
176	42
183	8
187	10
188	23
189	210
190	504
191	80
192	10
193	12
194	23
197	15
201	5
202	7
203	38
204	96
205	15
207	10
212	10
213	8
216	6
217	30
218	30
221	6
223	6
224	6
226	15
229	8
230	18
231	113
232	18
233	15
237	14
239	10
243	8
244	7
245	53
246	130
247	20
248	16
249	6
258	22
259	111
260	18
261	10
272	15
273	10
274	100
275	20
