Mass Spectrum: 3-Methyl-3H-1,2-dithiole
Formula: C4H6S2
CAS: 118023-96-4
Molecular weight: 118
m/z	intensity
26	13
27	46
28	14
32	15
37	15
38	23
39	132
40	6
41	29
44	9
45	322
46	68
47	27
48	6
49	10
50	37
51	44
52	10
53	64
54	159
55	6
57	53
58	112
59	62
60	14
64	90
65	11
66	11
68	8
69	55
70	10
71	254
72	369
73	68
74	20
78	5
81	12
82	10
83	9
84	48
85	546
86	30
87	26
90	15
103	159
104	10
105	15
117	44
118	999
119	63
120	86
121	5
