Mass Spectrum: 1-(3-Methoxy-2-pyrazinyl)-1-propanone
Formula: C8H10N2O2
CAS: 118043-58-6
Molecular weight: 166
m/z	intensity
38	38
39	134
40	395
41	18
42	189
43	57
44	56
45	12
51	44
52	90
53	91
54	62
55	76
56	120
57	571
58	39
59	8
60	7
65	4
66	42
67	104
68	74
69	58
70	20
71	20
78	21
79	999
80	216
81	171
82	18
91	4
94	45
95	23
96	13
98	3
105	18
106	17
107	24
108	32
109	751
110	172
111	102
112	18
119	13
120	14
123	76
124	35
137	462
138	792
139	66
151	40
164	8
166	304
167	38
168	10
