Mass Spectrum: Neodiosgenin(3.beta.,25S) acetate
Formula: C29H44O4
CAS: 1180-12-7
Molecular weight: 456
m/z	intensity
41	230
43	999
44	15
45	10
49	1
51	2
53	48
55	439
56	57
57	85
58	1
59	5
61	5
65	20
67	184
69	434
70	32
71	22
72	2
73	22
74	4
77	68
79	136
81	188
82	18
83	41
84	6
85	22
86	3
87	2
91	155
93	184
95	155
97	102
98	2
99	26
100	2
101	1
103	12
105	195
107	190
108	37
109	74
111	24
112	8
113	11
115	101
117	82
118	6
119	101
120	52
121	89
122	25
123	27
125	47
126	60
127	24
128	19
129	32
130	4
131	76
133	104
134	29
135	25
136	2
137	25
139	981
140	78
141	21
143	89
145	145
146	32
147	77
148	16
149	14
150	0
151	5
152	1
153	7
155	26
157	92
158	79
159	72
160	24
161	66
162	53
163	18
164	2
165	12
166	2
167	12
168	28
169	17
171	27
172	22
173	41
174	45
175	54
176	20
177	12
179	7
181	10
182	1
183	18
184	1
185	20
186	9
187	12
188	7
189	7
190	0
191	0
193	1
195	7
196	0
197	22
198	13
199	32
200	9
201	7
202	1
203	2
206	0
207	3
209	6
211	13
212	33
213	29
214	33
215	9
216	3
217	2
219	1
221	1
223	3
225	17
226	5
227	22
228	7
229	2
233	0
235	2
237	9
238	1
239	8
240	14
241	4
249	0
251	8
252	2
253	91
254	20
255	5
256	0
257	2
265	0
267	106
268	26
269	4
271	4
279	1
280	4
281	1
282	486
283	116
284	15
285	0
287	3
298	0
309	5
310	0
311	5
313	8
324	65
325	18
326	46
327	28
328	6
337	8
338	0
368	4
381	5
395	4
396	190
397	76
398	15
399	1
455	5
456	9
457	2
458	0
