Mass Spectrum: 3,4-Hexanedione, 1-(phenylmethoxy)-
Formula: C13H16O3
CAS: 118006-73-8
Molecular weight: 220
m/z	intensity
26	17
27	78
28	47
29	174
31	9
39	35
41	10
42	16
43	18
45	18
50	22
51	56
52	13
55	42
56	10
57	463
58	14
63	18
65	67
66	6
73	28
74	18
75	12
77	95
78	29
79	26
89	19
90	12
91	999
92	86
93	1
104	6
105	110
106	43
107	54
108	17
113	3
114	74
115	7
121	0
122	17
123	1
148	1
149	1
162	1
163	20
164	3
