Mass Spectrum: trans-3-Methyl-2-n-propylthiophane
Formula: C8H16S
CAS: 118068-75-0
Molecular weight: 144
m/z	intensity
38	6
39	98
40	13
41	180
42	22
43	26
44	18
45	108
46	25
47	67
50	3
51	12
52	3
53	46
54	30
55	214
56	30
57	14
58	12
59	167
60	35
61	33
65	14
67	139
68	14
69	33
71	14
72	5
73	44
74	18
75	5
77	9
79	9
81	48
82	5
83	5
85	25
87	55
88	12
89	5
91	5
95	17
99	23
100	16
101	999
102	69
103	39
104	3
110	3
115	90
116	8
117	6
129	2
143	9
144	181
145	18
146	9
147	1
