Mass Spectrum: Selin-6-en-4.alpha.-ol
Formula: C15H26O
CAS: 118173-08-3
Molecular weight: 222
m/z	intensity
27	32
29	49
30	2
31	6
39	80
41	298
42	21
43	734
44	21
45	26
50	6
51	32
52	14
53	101
54	24
55	251
56	23
57	64
58	100
59	26
63	13
64	7
65	80
66	20
67	262
68	62
69	200
70	33
71	285
72	19
73	6
74	4
76	8
77	214
78	45
79	283
80	46
81	999
82	128
83	101
84	39
85	97
88	10
89	15
90	5
91	306
92	66
93	457
94	67
95	311
96	275
97	104
98	21
103	39
104	21
105	577
106	80
107	223
108	170
109	401
110	43
111	75
112	12
113	27
115	46
116	14
117	47
118	19
119	221
120	51
121	604
122	122
123	223
124	30
125	105
126	18
128	21
129	20
130	7
131	33
133	238
134	161
135	502
136	123
137	438
138	57
139	19
144	5
145	33
146	10
147	192
148	89
149	104
150	20
151	45
152	12
161	695
162	103
163	43
164	75
165	15
175	24
176	10
178	9
179	115
180	17
189	404
190	62
191	23
193	4
204	749
205	125
206	8
207	52
208	9
222	73
223	13
224	2
