Mass Spectrum: Spirosolan-3-ol, 28-acetyl-, acetate (ester), (3.beta.,5.alpha.,22.beta.,25S)-
Formula: C31H49NO4
CAS: 1181-86-8
Molecular weight: 499
m/z	intensity
41	105
42	12
43	999
44	34
45	7
47	3
49	10
50	1
51	5
53	23
54	30
55	163
56	29
57	29
58	18
59	2
60	16
61	62
65	9
66	5
67	97
68	36
69	69
70	52
71	24
72	18
73	12
74	3
77	29
78	4
79	97
80	18
81	100
82	23
83	28
84	36
85	7
86	29
87	2
91	77
92	12
93	110
94	27
95	82
96	32
97	14
98	15
99	4
100	10
101	7
103	3
105	71
106	21
107	84
108	36
109	54
110	33
111	15
112	27
113	18
114	151
115	14
117	20
118	5
119	41
120	17
121	51
122	31
123	17
124	25
125	15
126	16
127	19
128	17
129	10
130	6
131	24
132	7
133	35
134	12
135	21
136	9
137	4
138	40
139	6
140	28
141	6
142	6
143	11
144	5
145	27
146	10
147	40
148	13
149	18
150	13
151	4
152	34
153	6
155	125
156	64
157	16
158	5
159	23
160	8
161	49
162	32
163	28
164	17
165	9
166	34
167	7
168	14
169	5
170	4
171	7
172	1
173	16
174	5
175	9
176	10
177	7
178	7
179	1
180	46
181	9
182	2
183	6
184	5
185	8
186	4
187	8
188	2
189	5
190	4
191	4
192	3
194	5
197	2
198	3
199	8
200	4
201	14
202	4
203	2
204	1
205	2
206	2
208	3
209	2
210	3
211	1
212	2
213	5
214	4
215	8
216	11
217	8
218	2
220	1
222	18
223	8
224	5
225	1
227	2
229	3
230	1
239	3
241	1
242	2
252	1
253	8
254	5
255	39
256	9
257	1
269	9
270	2
271	2
274	2
275	1
276	1
283	4
284	1
285	11
286	2
311	2
313	2
315	77
316	17
317	3
325	0
329	3
342	1
344	2
370	3
371	4
372	1
385	2
386	3
388	4
396	1
399	17
400	6
401	2
414	3
427	5
428	11
430	96
431	22
432	4
438	4
439	7
440	9
442	10
443	3
454	1
456	33
457	9
458	1
471	4
482	10
484	273
485	99
486	14
487	1
497	7
499	177
500	58
501	15
502	0
