Mass Spectrum: (trans-2-Carboxycyclohexyl)acetic acid
Formula: C9H14O4
CAS: 118139-26-7
Molecular weight: 186
m/z	intensity
14	3
15	5
16	2
17	20
18	56
19	1
26	9
27	122
28	104
29	75
30	2
31	9
37	4
38	13
39	213
40	44
41	248
42	57
43	154
44	40
45	50
46	8
47	9
48	2
49	2
50	20
51	47
52	31
53	138
54	334
55	276
56	21
57	40
58	5
59	6
60	183
61	65
62	9
63	18
64	4
65	46
66	57
67	822
68	274
69	35
70	20
71	17
72	5
73	92
74	9
75	4
76	6
77	92
78	76
79	259
80	543
81	999
82	844
83	119
84	17
85	20
86	31
87	9
89	11
90	14
91	85
92	37
93	46
94	185
95	328
96	105
97	51
98	26
99	32
100	262
101	239
102	17
103	11
104	16
105	19
106	13
107	13
108	131
109	290
110	24
111	31
112	19
113	9
114	5
115	6
116	7
117	2
118	20
119	3
120	5
121	17
122	240
123	57
124	210
125	44
126	75
127	254
128	20
129	2
130	3
131	3
132	4
133	1
134	1
135	1
136	2
138	2
139	14
140	517
141	57
142	20
143	2
146	1
149	2
150	151
151	15
152	2
165	1
167	4
168	514
169	93
170	9
186	1
187	2
