Mass Spectrum: 2-(8-Chloro-3,7-dimethyl-octa-2,6-dienyloxy)tetrahydropyran
Formula: C15H25ClO2
CAS: 118197-64-1
Molecular weight: 272
m/z	intensity
29	56
30	1
31	12
39	49
40	18
41	176
42	15
43	46
44	5
45	2
49	1
50	1
51	8
52	4
53	51
54	6
55	68
56	22
57	94
58	3
59	2
63	3
65	14
66	8
67	185
68	103
69	31
70	3
71	6
75	33
76	0
77	16
78	2
79	17
80	12
81	128
82	10
83	8
84	29
85	999
86	56
87	4
89	1
91	12
92	4
93	55
94	11
95	24
96	2
97	1
101	47
102	8
103	75
104	6
105	24
106	2
107	19
108	5
109	5
110	1
111	1
115	8
116	4
117	2
118	1
119	6
120	2
121	31
122	24
123	11
129	9
131	2
133	1
134	23
135	50
136	12
137	6
151	1
154	1
155	5
156	1
158	4
160	1
170	19
171	81
172	14
173	26
174	2
188	5
195	0
206	2
236	2
237	2
272	3
