Mass Spectrum: Cyclohexanone, 2,6-dimethyl-2-(2-oxopropyl)-
Formula: C11H18O2
CAS: 118198-46-2
Molecular weight: 182
m/z	intensity
26	4
27	67
28	34
29	76
30	2
31	3
36	0
37	1
38	3
39	94
40	21
41	234
42	28
43	999
44	101
45	9
46	0
47	0
50	4
51	11
52	5
53	43
54	25
55	252
56	64
57	30
58	32
59	9
60	1
61	0
62	0
63	3
64	1
65	11
66	5
67	47
68	32
69	271
70	37
71	32
72	15
73	1
74	1
75	1
76	3
77	14
78	4
79	20
80	9
81	149
82	110
83	69
84	31
85	71
86	8
87	1
88	0
89	1
91	11
92	3
93	29
94	13
95	45
96	84
97	64
98	70
99	11
100	3
101	1
102	0
103	1
104	2
105	4
106	7
107	62
108	17
109	60
110	11
111	122
112	79
113	8
114	24
115	4
116	0
117	1
118	0
119	1
120	1
121	31
122	28
123	10
124	432
125	377
126	34
127	4
128	3
129	1
130	1
131	2
132	1
133	0
134	0
135	4
136	5
137	4
138	3
139	51
140	17
141	13
142	6
143	1
144	0
145	0
146	0
147	0
148	1
151	1
152	2
153	5
154	42
155	11
156	2
157	0
163	3
164	8
165	3
166	1
167	17
168	2
169	1
170	1
171	0
176	1
180	1
181	2
182	138
183	19
184	3
