Mass Spectrum: 1-Hexyl-1-nitrocyclohexane
Formula: C12H23NO2
CAS: 118252-09-8
Molecular weight: 213
m/z	intensity
39	184
41	703
43	482
55	999
57	332
67	616
69	855
81	509
83	870
95	212
97	774
109	133
111	429
125	92
127	39
167	265
168	53
