Mass Spectrum: 1,16-Hexadecanedicarboxylic acid,methyl ester,pyrrolidide
Formula: C23H43NO3
CAS: 118268-06-7
Molecular weight: 381
m/z	intensity
39	20
40	60
41	95
42	50
43	357
44	55
45	6
54	14
55	382
56	90
57	62
58	6
59	45
67	40
68	30
69	170
70	308
71	230
72	180
73	20
74	70
75	9
81	20
82	7
83	37
84	30
85	100
86	8
87	40
95	17
96	11
97	21
98	130
99	16
111	18
112	22
113	999
114	140
115	8
126	320
127	76
140	55
141	12
154	20
155	16
168	42
169	16
182	21
183	5
196	18
210	16
224	16
238	16
252	12
266	11
280	11
294	11
308	48
309	10
322	4
350	30
351	8
381	9
