Mass Spectrum: 2,6-Pyridinedicarboxaldehyde, 4-methoxy-, bis[methyl(2-pyridyl)hydrazone]
Formula: C20H21N7O
CAS: 118252-03-2
Molecular weight: 375
m/z	intensity
78	931
79	999
80	178
92	27
107	273
108	116
117	2
118	6
120	13
131	20
159	20
241	6
242	24
266	13
268	8
269	13
374	5
375	24
