Mass Spectrum: 1-Dodecanamine, N-(2,2-dimethoxyethylidene)-
Formula: C16H33NO2
CAS: 118264-83-8
Molecular weight: 271
m/z	intensity
43	230
45	270
56	120
58	110
69	70
71	70
73	50
74	230
75	999
91	30
95	26
96	22
97	27
98	13
99	17
196	194
197	28
239	13
240	30
