Mass Spectrum: 2,6-Pyridinedicarboxaldehyde, 4-hydroxy-, bis[methyl(2-pyridyl)hydrazone]
Formula: C19H19N7O
CAS: 118252-02-1
Molecular weight: 361
m/z	intensity
78	101
79	999
92	20
107	101
108	111
117	5
118	1
119	30
120	40
145	60
227	2
228	5
237	4
238	1
254	2
255	3
360	1
361	7
