Mass Spectrum: 3,3,5,5,7,7,9,9,11,11,13,13-Dodecamethyl-1,15-bis(1,3,3,5,5-pentamethyl-2,4,6-trioxa-1,3,5-trisilacyclohexyl0-4,6,8,10,12-tetraoxa-3,5,7,9,11-tetrasilapentadecane
Formula: C26H74O11Si12
CAS: 118229-41-7
Molecular weight: 898
m/z	intensity
47	14
50	17
51	28
52	18
53	2
55	21
56	9
57	27
58	16
59	82
60	6
69	72
71	20
73	999
74	94
75	86
76	14
77	34
78	68
79	16
80	3
81	13
83	13
84	5
86	22
87	24
88	7
89	33
91	21
92	5
96	34
97	30
119	57
120	5
131	43
132	13
133	133
134	23
135	34
143	11
145	56
146	11
147	345
148	55
149	58
150	8
177	58
178	16
191	98
192	36
193	177
194	37
195	28
205	63
206	17
207	550
208	122
209	110
210	20
211	41
217	12
218	14
219	205
220	50
221	155
222	36
223	23
249	19
250	8
251	39
253	12
265	43
266	13
267	89
268	21
269	17
277	21
278	7
279	82
280	22
281	229
282	66
283	41
292	9
293	721
294	223
295	153
296	34
323	12
325	29
326	10
327	35
338	10
339	28
340	10
341	46
342	13
353	50
354	19
355	68
356	21
367	124
368	45
369	37
370	10
399	20
400	13
413	16
414	11
427	17
428	13
429	2
441	68
442	33
443	24
444	8
445	4
663	33
664	21
665	16
666	6
