Mass Spectrum: 1,16-Hexadecanedicarboxylic acid,monopyrrolidide, 3-pyridylmethyl ester
Formula: C28H46N2O3
CAS: 118268-05-6
Molecular weight: 458
m/z	intensity
26	20
27	75
28	52
29	100
30	75
31	11
32	13
36	170
37	5
38	50
39	103
40	20
41	225
42	74
43	300
44	78
45	42
48	27
50	18
51	25
52	20
53	37
54	25
55	380
56	50
57	98
58	15
60	30
64	109
65	84
67	30
68	24
69	123
70	572
71	180
72	350
73	26
78	20
79	20
80	76
81	30
82	17
83	32
84	20
85	100
86	16
91	28
92	585
93	220
94	30
95	25
96	10
97	20
98	150
99	22
107	36
108	395
109	224
110	50
111	16
112	23
113	999
114	100
115	6
118	13
120	23
126	235
127	56
140	75
141	14
145	24
151	200
152	22
154	29
155	13
161	25
164	190
165	25
168	55
169	19
178	26
179	10
182	30
183	10
192	16
193	16
196	30
197	10
206	33
207	12
210	22
220	32
221	11
224	25
225	8
234	30
235	12
238	23
239	7
248	30
249	11
252	20
253	7
262	32
263	12
266	20
276	33
277	13
280	20
290	31
291	10
294	15
304	41
305	18
308	64
309	14
318	66
319	20
322	10
323	13
332	52
333	20
346	457
348	100
349	13
350	23
360	80
361	50
388	27
457	11
458	68
459	25
