Mass Spectrum: 1-Hexyl-2-nitrocyclohexane
Formula: C12H23NO2
CAS: 118252-04-3
Molecular weight: 213
m/z	intensity
39	127
41	640
43	413
55	999
57	299
67	486
69	640
81	370
83	672
95	315
97	544
109	172
111	228
125	56
127	57
165	27
167	56
