Mass Spectrum: Thiourea, 1-benzoyl-3-(3-methyl-5-isoxazolyl)-
Formula: C12H11N3O2S
CAS: 118385-15-2
Molecular weight: 261
m/z	intensity
39	7
40	9
41	5
43	140
44	13
45	3
50	18
51	72
52	3
59	6
72	3
77	375
78	21
91	3
103	3
105	999
106	70
159	24
174	18
187	3
219	480
220	56
221	21
261	52
