Mass Spectrum: Indium, hexaethyl[.mu.-(tetramethyldiphosphine-P,P')]di-
Formula: C16H42In2P2
CAS: 118368-71-1
Molecular weight: 526
m/z	intensity
26	190
27	540
29	360
41	270
43	270
46	330
57	200
59	210
61	250
62	999
69	110
75	340
89	110
90	340
107	130
115	370
122	120
127	120
144	100
159	150
173	440
