Mass Spectrum: 4-Acetylaminophenylacetic acid, methyl(ester)
Formula: C11H13NO3
CAS: 118380-03-3
Molecular weight: 207
m/z	intensity
41	4
42	10
43	159
44	17
45	2
50	9
51	28
52	28
53	9
54	3
55	1
57	1
59	23
60	0
62	3
63	9
64	3
65	7
66	4
67	2
74	2
75	2
76	7
77	65
78	70
79	20
80	5
89	9
90	4
91	7
92	2
93	2
94	0
95	0
102	2
103	2
104	24
105	35
106	999
107	89
108	3
117	1
118	5
119	4
120	5
121	2
122	4
132	16
133	5
134	0
136	1
146	23
147	4
148	121
149	14
150	3
164	3
165	288
166	30
167	3
175	0
176	0
178	1
192	2
207	512
208	59
209	7
