Mass Spectrum: 3-(4-Methoxyphenyl)-1-phenyl-3-(trimethylsilyl)propan-1-one
Formula: C19H24O2Si
CAS: 118356-61-9
Molecular weight: 312
m/z	intensity
26	10
27	22
28	4
29	15
31	17
38	2
39	18
41	17
42	4
43	46
44	22
45	128
46	7
47	6
50	13
51	66
52	6
53	6
55	8
56	8
57	17
58	13
59	34
60	2
61	9
62	2
63	11
64	4
65	25
66	2
67	3
69	3
70	2
71	2
73	999
74	87
75	99
76	23
77	341
78	32
79	7
83	4
85	2
86	2
87	1
89	17
90	9
91	76
92	9
93	4
95	3
99	1
101	3
102	9
103	30
104	55
105	438
106	35
107	9
108	5
109	4
115	41
116	5
117	6
118	5
119	41
120	8
121	96
122	15
123	2
124	1
128	3
129	3
130	8
131	8
132	3
133	14
134	129
135	61
136	8
137	7
138	3
140	4
144	23
145	6
146	9
147	9
148	17
149	4
150	12
151	7
152	3
159	4
160	4
161	29
162	5
163	51
165	63
166	10
167	16
168	3
175	8
176	11
177	104
178	46
179	41
180	8
181	3
189	31
190	8
191	30
192	14
193	15
194	4
195	2
197	3
203	22
204	14
205	21
206	7
207	147
208	32
209	30
210	6
219	6
221	15
222	193
223	118
224	17
233	2
234	3
235	71
236	13
237	6
238	4
239	7
240	2
266	1
268	3
270	2
281	120
282	38
283	10
295	4
296	9
297	138
298	30
299	8
310	23
311	364
312	481
313	125
314	28
315	4
