Mass Spectrum: Indium, hexamethyl[.mu.-(tetramethyldiphosphine-p:p')]di-
Formula: C10H30In2P2
CAS: 118368-70-0
Molecular weight: 442
m/z	intensity
14	110
15	390
16	210
45	660
46	480
47	160
57	310
59	420
61	650
62	400
75	180
79	270
107	999
115	220
122	800
145	400
