Mass Spectrum: 5,9-Dimethyl-9-decen-3-ol
Formula: C12H24O
CAS: 118447-56-6
Molecular weight: 184
m/z	intensity
14	7
16	3
27	202
28	160
29	255
31	251
32	32
39	202
41	999
42	99
43	251
44	64
45	28
51	24
52	18
53	129
54	60
55	488
56	170
57	200
58	19
59	233
65	26
67	482
68	161
69	535
70	87
71	46
72	32
73	27
77	28
79	44
81	628
82	590
83	94
84	18
85	19
91	15
93	26
95	425
96	85
97	26
99	406
100	32
109	327
110	225
111	34
112	32
113	16
123	112
124	17
137	37
151	15
155	73
