Mass Spectrum: Bicyclo[2.1.1]hexane, 1,4-diphenyl-
Formula: C18H18
CAS: 118476-61-2
Molecular weight: 234
m/z	intensity
39	77
40	5
41	22
50	15
51	92
52	20
53	19
57	6
63	32
64	11
65	92
66	5
74	5
75	11
76	30
77	187
78	82
79	16
89	42
91	437
92	37
101	18
102	62
103	97
104	271
105	37
115	462
116	92
117	186
118	20
126	6
127	55
128	216
129	320
130	999
131	117
132	5
139	7
141	68
142	49
143	330
144	38
151	6
152	22
153	22
154	30
155	22
156	55
157	12
165	14
178	18
179	7
189	14
190	9
191	19
202	25
203	26
204	27
205	28
206	13
219	55
220	9
233	5
234	288
235	55
