Mass Spectrum: Octan-2-one, 3,6-dimethyl-
Formula: C10H20O
CAS: 118452-32-7
Molecular weight: 156
m/z	intensity
41	172
42	45
43	999
44	42
45	51
46	2
47	2
48	0
49	1
50	7
51	16
52	7
53	51
54	15
55	210
56	30
57	80
58	74
59	33
60	8
61	9
62	2
63	4
64	2
65	15
66	6
67	64
68	17
69	61
70	24
71	79
72	28
73	158
74	12
75	3
76	1
77	18
78	4
79	24
80	6
81	57
82	62
83	133
84	83
85	53
86	33
87	15
88	6
89	2
90	1
91	12
92	2
93	22
94	9
95	62
96	31
97	68
98	22
99	46
100	10
101	39
102	5
103	3
104	1
105	5
106	0
107	8
108	5
109	29
110	6
111	68
112	13
113	10
114	7
115	9
116	5
117	2
118	1
119	2
120	1
121	33
122	6
123	10
124	3
125	17
126	5
127	34
128	6
129	3
138	10
139	30
140	7
141	11
142	2
154	7
155	2
156	8
157	3
158	5
