Mass Spectrum: 2-Pyrrolidinone, 5-methyl-1-[(4-methylphenyl)sulfonyl]-
Formula: C12H15NO3S
CAS: 118429-46-2
Molecular weight: 253
m/z	intensity
55	200
56	190
57	130
65	420
69	90
70	70
73	80
77	90
83	50
89	100
91	999
119	50
134	120
155	460
174	860
175	120
183	80
184	70
188	140
189	570
190	80
198	30
225	20
228	10
238	40
253	30
