Mass Spectrum: 1.alpha.,2.alpha.-Epoxy-1.beta.-methylcholesta-4,6-dien-3-one
Formula: C28H42O2
CAS: 118414-37-2
Molecular weight: 410
m/z	intensity
43	999
53	220
55	860
57	640
67	290
69	410
71	260
77	210
79	310
81	530
91	430
93	310
95	550
105	280
107	330
133	310
145	250
149	290
243	140
247	550
297	150
380	130
409	220
410	70
411	21
