Mass Spectrum: 4,6-Heptadien-1-ol, (Z)-
Formula: C7H12O
CAS: 118495-96-8
Molecular weight: 112
m/z	intensity
20	14
21	0
26	24
27	193
28	5
29	131
30	9
31	142
32	1
33	4
36	2
37	7
38	33
39	288
40	13
41	466
42	32
43	19
44	16
45	12
46	2
49	3
50	28
51	59
52	34
53	166
54	90
55	79
56	16
57	95
58	3
59	1
60	4
61	7
62	12
63	16
64	8
65	93
66	121
67	342
68	161
69	27
70	46
71	6
74	2
75	4
76	2
77	177
78	28
79	999
80	74
81	79
82	10
83	17
84	21
90	0
91	14
93	68
94	128
95	2
97	10
101	0
110	1
112	101
113	4
