Mass Spectrum: 1-(7-Methoxymethylnaphthalen-1-yl)ethanol
Formula: C14H16O2
CAS: 118513-20-5
Molecular weight: 216
m/z	intensity
31	16
32	4
33	3
37	2
38	10
39	53
40	3
41	7
42	4
43	310
44	10
45	999
46	23
50	34
51	54
52	10
53	6
55	3
57	6
58	11
61	14
62	28
63	74
64	20
65	17
69	6
70	30
71	7
73	7
74	34
75	42
76	30
77	50
78	11
79	2
82	12
83	10
84	11
85	19
86	29
87	26
88	9
89	28
90	3
91	19
92	8
93	3
98	11
99	19
100	31
101	28
102	21
103	6
110	4
111	4
113	17
114	14
115	176
116	20
117	3
122	1
125	4
126	37
127	110
128	190
129	109
130	12
137	3
138	5
139	107
140	47
141	453
142	118
143	133
144	17
150	6
151	18
152	69
153	71
154	24
155	96
156	26
157	17
158	5
163	5
164	5
165	36
166	11
167	53
168	41
169	707
170	116
171	101
172	23
173	16
181	2
183	73
184	65
185	46
186	54
187	8
198	20
199	18
200	5
201	19
202	7
215	13
216	330
217	49
