Mass Spectrum: .psi.,.psi.-Carotene, 3,3',4,4'-tetradehydro-1,1',2,2'-tetrahydro-1,1'-dimethoxy-2,2'-dioxo-
Formula: C42H56O4
CAS: 1185-31-5
Molecular weight: 624
m/z	intensity
14	1
15	4
16	1
17	1
18	5
25	1
26	4
27	15
28	15
29	10
30	2
31	8
32	5
33	1
37	2
38	5
39	340
40	5
41	24
42	7
43	39
44	5
45	7
46	1
49	2
50	10
51	28
52	15
53	10
54	1
55	15
56	2
57	4
58	2
59	2
61	2
62	6
63	16
64	4
65	22
66	3
67	5
68	1
69	16
70	1
71	8
72	4
73	999
74	52
75	6
76	3
77	40
78	20
79	26
80	3
81	9
82	2
83	3
85	2
86	1
87	2
88	1
89	7
90	3
91	301
92	370
93	14
94	2
95	7
96	1
97	4
98	1
99	2
101	2
102	4
103	20
104	8
105	89
106	171
107	24
108	2
109	8
110	1
111	2
113	1
114	1
115	11
116	5
117	10
118	3
119	41
120	6
121	15
122	3
123	6
124	1
125	5
126	1
127	4
128	15
129	18
130	7
131	16
132	5
133	16
134	3
135	7
136	2
137	4
138	1
139	2
140	1
141	11
142	11
143	24
144	8
145	37
146	7
147	11
148	3
149	3
150	1
151	2
152	4
153	7
154	4
155	11
156	12
157	27
158	8
159	24
160	5
161	8
162	3
163	3
164	1
165	9
166	5
167	31
168	7
169	18
170	8
171	16
172	5
173	9
174	3
175	6
176	2
177	2
178	5
179	9
180	6
181	10
182	7
183	21
184	6
185	17
186	5
187	10
188	5
189	7
190	2
191	4
192	5
193	9
194	7
195	18
196	8
197	21
198	7
199	9
200	3
201	6
202	3
203	5
204	2
205	4
206	5
207	11
208	7
209	22
210	8
211	16
212	4
213	6
214	2
215	5
216	3
217	3
218	3
219	8
220	5
221	14
222	6
223	17
224	6
225	8
226	3
227	5
228	2
229	3
230	2
231	6
232	3
233	7
234	4
235	9
236	5
237	8
238	4
239	6
240	3
241	3
242	2
243	3
244	2
245	5
246	3
247	7
248	5
249	7
250	3
251	7
252	4
253	6
254	2
255	3
256	1
257	2
258	2
259	5
260	3
261	7
262	3
263	6
264	3
265	5
266	3
267	3
268	2
269	2
270	2
271	3
272	2
273	5
274	3
275	6
276	3
277	5
278	2
279	6
280	6
281	4
282	1
283	2
284	2
285	6
286	3
287	6
288	3
289	5
290	2
291	3
292	2
293	4
294	3
295	2
296	1
297	2
298	4
299	5
300	3
301	5
302	2
303	3
304	2
305	3
306	1
307	2
308	2
309	2
310	2
311	4
312	3
313	4
314	2
315	4
316	2
317	3
318	2
319	2
320	1
321	1
322	1
323	1
324	2
325	4
326	3
327	3
328	2
329	3
330	2
331	2
332	1
333	2
334	1
335	1
336	1
337	2
338	2
339	4
340	3
341	3
342	2
343	3
344	1
345	2
346	1
347	1
348	1
349	1
350	1
351	2
352	1
353	3
354	2
355	2
356	1
357	3
358	2
359	2
360	1
361	1
362	1
363	1
374	1
375	1
376	1
377	2
378	1
379	2
380	2
381	1
382	1
383	2
384	1
385	3
386	2
387	2
388	1
389	1
390	2
391	2
392	1
393	1
394	1
395	1
396	1
397	1
398	1
399	1
400	1
401	1
402	1
403	2
404	1
405	1
406	1
407	1
408	1
409	1
410	1
411	1
412	7
413	4
414	3
415	2
416	4
417	5
418	3
419	2
420	1
421	1
422	1
423	1
424	1
425	1
430	1
431	1
432	1
433	1
434	1
438	1
439	1
440	1
441	1
442	1
443	1
444	1
445	4
446	2
447	1
448	1
449	1
454	1
455	1
456	1
457	1
458	2
459	1
460	1
461	1
466	1
468	1
469	1
470	1
485	1
486	4
487	1
488	3
489	2
490	2
491	2
492	1
493	1
494	1
508	1
510	1
516	2
517	1
518	19
519	7
520	8
521	4
522	3
523	3
524	2
525	1
526	1
532	1
534	1
549	1
551	1
552	1
553	1
560	1
562	1
564	1
565	1
590	1
592	3
593	1
594	2
595	1
596	1
622	1
623	1
624	6
625	3
626	3
