Mass Spectrum: 1-Naphthalenemethanol, .alpha.,.alpha.-dimethyl-5-methoxymethyl-
Formula: C15H18O2
CAS: 118513-26-1
Molecular weight: 230
m/z	intensity
31	66
32	7
38	6
39	53
40	3
41	32
42	5
43	478
44	11
45	999
46	19
47	1
50	24
51	45
52	6
53	6
55	11
56	4
57	5
58	2
59	60
61	5
62	18
63	60
64	12
65	11
69	10
70	9
74	24
75	25
76	28
77	31
78	7
82	8
83	41
84	6
85	6
86	11
87	16
88	8
89	26
91	13
92	10
98	5
99	8
100	7
101	14
102	14
107	22
108	10
113	12
114	5
115	102
116	11
126	24
127	77
128	73
129	39
138	7
139	120
140	71
141	405
142	63
143	7
151	14
152	55
153	47
154	16
155	163
156	27
157	18
163	5
164	2
165	71
166	25
167	32
168	16
169	28
170	15
171	20
172	3
178	5
179	7
181	52
182	13
183	211
184	38
185	29
186	4
197	14
199	24
200	4
212	3
213	2
214	5
215	353
216	51
217	4
230	285
231	42
232	1
