Mass Spectrum: 1-Naphthalenemethanol, .alpha.,.alpha.-dimethyl-6-methoxymethyl-
Formula: C15H18O2
CAS: 118513-27-2
Molecular weight: 230
m/z	intensity
31	40
32	2
37	2
38	6
39	46
40	9
41	30
42	5
43	479
44	14
45	999
46	22
49	2
50	21
51	37
52	6
53	7
55	20
56	4
57	9
58	3
59	53
61	4
62	16
63	50
64	15
65	11
67	1
69	7
70	26
71	3
74	22
75	26
76	36
77	37
78	6
79	5
81	3
82	24
83	56
84	11
85	6
86	11
87	17
88	9
89	21
90	3
91	14
92	25
93	6
95	1
98	10
99	16
100	13
101	13
102	12
103	3
105	4
107	36
108	25
110	2
111	3
113	13
114	11
115	98
116	10
119	1
121	1
122	1
123	2
125	4
126	27
127	66
128	68
129	36
130	3
137	3
138	5
139	103
140	73
141	438
142	72
143	9
144	1
150	6
151	13
152	44
153	34
154	18
155	121
156	28
157	10
163	8
164	6
165	51
166	15
167	24
168	17
169	39
170	14
171	29
172	5
176	1
178	5
179	7
180	4
181	22
182	11
183	490
184	78
185	37
186	5
187	7
197	16
198	4
199	58
200	10
201	18
202	2
213	6
214	6
215	419
216	63
217	6
229	6
230	383
231	62
232	5
