Mass Spectrum: 1,1-Dicarbethoxy-3-acetoxy-indane
Formula: C17H20O6
CAS: 118629-54-2
Molecular weight: 320
m/z	intensity
43	782
103	267
115	999
116	521
131	670
160	390
187	420
188	328
204	179
260	230
277	49
320	19
