Mass Spectrum: 1-Methyl-3-imino-4,7,7-tricyano-5-phenyl-2-oxabicyclo[2.2.1]heptane
Formula: C16H12N4O
CAS: 118644-92-1
Molecular weight: 276
m/z	intensity
33	5
36	0
37	2
38	11
39	47
40	15
41	55
43	999
44	30
45	11
46	0
50	28
51	73
52	21
53	7
54	1
55	2
56	0
57	1
58	5
59	14
61	2
62	8
63	21
64	11
65	14
66	4
67	1
68	0
69	1
71	0
73	0
74	7
75	15
76	28
77	97
78	78
79	12
80	0
81	0
82	1
84	0
86	1
87	4
88	8
89	17
90	7
91	20
92	2
93	3
94	0
96	3
97	0
98	0
99	2
100	4
101	14
102	26
103	83
104	271
105	64
106	4
108	0
109	1
110	0
111	1
112	1
113	6
114	8
115	28
116	12
117	12
119	2
120	0
121	0
122	0
123	0
124	0
125	2
126	5
127	14
128	29
129	24
130	16
131	11
133	33
134	2
135	0
136	0
137	1
138	6
139	10
140	18
141	17
142	6
143	2
144	4
145	4
146	8
147	36
148	9
149	1
151	11
152	11
153	12
154	5
155	5
156	5
157	1
158	2
160	20
162	1
163	1
164	15
165	23
166	12
167	8
168	24
169	15
170	5
171	31
172	4
173	0
174	1
175	0
176	2
177	6
178	11
179	13
180	11
181	6
182	2
183	0
184	1
185	1
186	0
188	0
189	3
190	5
191	25
192	14
193	81
194	35
195	4
196	0
201	0
202	0
203	2
204	10
205	44
206	86
207	89
208	16
209	2
210	0
211	2
212	0
214	0
215	3
216	5
217	12
218	52
219	50
220	8
221	2
222	1
223	0
224	0
229	0
230	11
231	25
232	91
233	111
234	82
235	14
236	32
237	4
238	0
241	1
242	0
243	0
244	1
245	0
247	2
248	2
249	5
250	1
251	0
252	0
258	9
259	56
260	14
261	9
262	1
263	0
276	104
277	30
278	3
279	0
