Mass Spectrum: N-Benzyl-2-(4-methoxyphenoxy)acetamide
Formula: C16H17NO3
CAS: 118665-18-2
Molecular weight: 271
m/z	intensity
34	8
36	12
37	20
38	90
39	303
40	87
41	317
42	136
43	86
44	97
45	99
48	3
50	172
51	237
52	172
53	131
54	129
55	53
56	14
57	28
59	25
60	9
61	15
62	65
63	255
64	255
65	299
66	43
67	37
69	38
70	10
71	12
73	12
74	39
75	30
77	527
78	90
79	150
80	63
81	79
82	23
83	9
84	6
85	6
86	4
87	5
89	39
91	999
92	253
95	370
96	23
99	3
103	39
104	74
105	199
107	458
109	320
110	16
111	5
112	5
115	9
116	4
118	61
119	42
120	16
121	18
123	901
124	504
126	4
128	5
129	3
130	8
131	7
132	5
133	6
135	16
136	25
137	117
138	53
139	7
143	3
146	29
148	488
149	56
150	6
151	3
152	5
153	8
155	3
163	4
164	7
165	4
166	4
167	6
171	5
179	4
180	7
182	240
183	22
184	3
193	40
194	5
208	9
210	3
211	6
268	18
269	16
271	594
272	104
273	11
