Mass Spectrum: Octanoic acid, o-hydroxyphenyl ester
Formula: C14H20O3
CAS: 118663-26-6
Molecular weight: 236
m/z	intensity
26	2
27	30
29	46
39	25
40	3
41	104
42	21
43	185
44	5
50	2
51	7
52	14
53	22
54	5
55	107
56	12
57	909
58	38
59	6
63	9
64	20
65	17
67	29
68	2
69	19
70	5
71	14
79	2
80	7
81	50
82	10
83	26
84	8
85	3
92	10
93	14
97	6
98	7
107	2
109	76
110	999
111	70
112	5
125	3
127	855
128	74
129	4
193	3
236	154
237	29
238	3
