Mass Spectrum: 2-Butenamide, N,2,3-trimethyl-
Formula: C7H13NO
CAS: 1186-87-4
Molecular weight: 127
m/z	intensity
27	125
28	18
29	41
30	44
31	9
37	4
38	12
39	162
40	39
41	968
42	86
43	30
44	15
45	4
48	0
49	5
50	14
51	29
52	16
53	96
54	19
55	85
56	15
57	4
58	235
59	9
60	2
61	1
62	3
63	7
64	2
65	16
66	12
67	108
68	62
69	999
70	72
71	4
72	44
73	18
74	2
77	1
78	0
79	1
80	1
81	2
82	5
83	6
84	16
85	2
86	7
87	1
88	0
91	0
92	1
93	0
94	7
95	12
96	67
97	565
98	44
99	6
100	3
106	0
108	1
109	2
110	5
111	6
112	171
113	12
114	1
124	1
125	1
126	9
127	687
128	53
129	3
