Mass Spectrum: 4a,8a-Methanophthalazine-1,4-dicarboxylic acid, 1-[2-[(1,1-dimethylethoxy)carbonyl]hydrazino]-1,2-dihydro-, dimethyl ester, (1.alpha.,4a.alpha.,8a.alpha.)-
Formula: C18H24N4O6
CAS: 118643-94-0
Molecular weight: 392
m/z	intensity
51	50
55	42
56	107
57	738
58	219
59	999
60	64
63	64
65	40
75	50
76	58
77	75
88	88
89	146
90	73
91	40
101	67
102	93
103	80
114	112
115	383
116	378
117	91
127	69
128	133
129	197
130	174
131	49
141	99
142	107
143	79
144	47
155	55
156	140
157	113
169	52
184	54
215	60
216	60
259	40
260	405
261	303
262	56
273	1
274	4
275	11
276	21
277	13
278	2
286	3
287	4
318	1
319	4
