Mass Spectrum: 1-Hexadecene, 16-bromo-
Formula: C16H31Br
CAS: 118625-56-2
Molecular weight: 302
m/z	intensity
26	3
27	119
28	28
29	240
30	5
31	1
35	0
36	0
38	1
39	109
40	19
41	709
42	156
43	481
44	14
45	1
46	0
47	0
50	0
51	4
52	3
53	53
54	139
55	999
56	331
57	441
58	18
59	4
60	1
61	0
62	0
63	0
64	0
65	7
66	8
67	147
68	128
69	734
70	254
71	159
72	9
73	1
74	0
75	0
76	0
77	7
78	0
79	12
80	5
81	105
82	189
83	690
84	157
85	75
86	6
87	0
91	2
92	0
93	2
94	2
95	72
96	97
97	614
98	109
99	19
100	1
103	0
105	1
106	0
107	17
108	1
109	51
110	38
111	223
112	60
113	10
114	0
119	1
120	0
121	9
122	1
123	46
124	22
125	116
126	38
127	6
128	0
133	1
134	8
135	49
136	11
137	48
138	14
139	48
140	17
141	3
142	0
147	2
148	169
149	28
150	149
151	26
152	9
153	26
154	7
155	1
160	0
161	6
162	93
163	20
164	93
165	12
166	4
167	16
168	6
169	0
174	1
175	13
176	22
177	17
178	22
179	7
180	4
181	11
182	2
186	0
187	0
188	3
189	13
190	19
191	16
192	16
193	3
194	1
195	2
196	0
199	0
201	0
202	3
203	15
204	14
205	18
206	11
207	2
208	0
210	0
215	0
216	2
217	10
218	13
219	11
220	10
221	2
222	5
223	1
224	0
230	1
231	8
232	12
233	10
234	8
235	1
237	0
240	0
244	1
245	4
246	11
247	7
248	7
249	1
258	2
259	3
260	18
261	6
262	17
263	3
264	0
272	1
273	2
274	13
275	3
276	13
277	1
278	0
287	0
288	0
289	1
291	0
300	0
302	69
303	11
304	69
305	12
306	1
307	0
