Mass Spectrum: Allyl hyponitrite
Formula: C6H10N2O2
CAS: 118728-49-7
Molecular weight: 142
m/z	intensity
41	802
42	65
54	119
55	181
57	112
81	64
82	31
85	39
88	999
112	47
125	15
141	16
