Mass Spectrum: 1,3-Dioxan-4,6-dione, 2,2-dimethyl-5-[(benzylamino)methylidene]-
Formula: C14H15NO4
CAS: 118757-46-3
Molecular weight: 261
m/z	intensity
12	2
13	2
14	9
15	78
16	6
17	14
18	29
25	1
26	17
27	65
28	69
29	72
30	14
31	27
32	3
33	1
34	1
37	3
38	13
39	114
40	24
41	51
42	28
43	314
44	20
45	18
46	4
47	4
48	3
49	2
50	28
51	77
52	34
53	108
54	16
55	21
56	4
57	11
58	16
59	43
60	3
61	3
62	15
63	90
64	24
65	337
66	24
67	7
68	15
69	23
70	17
71	7
73	2
74	9
75	14
76	17
77	92
78	48
79	19
80	25
81	4
82	9
83	5
84	2
85	2
86	2
87	3
89	54
90	23
91	999
92	93
93	12
94	2
95	2
96	2
97	21
98	6
99	2
101	6
102	176
103	57
104	122
105	56
106	16
107	2
108	10
109	2
110	1
111	1
112	3
113	1
115	11
116	5
117	10
118	9
119	1
122	1
125	2
126	2
127	2
128	11
129	20
130	417
131	70
132	5
133	1
134	2
143	1
144	1
146	1
147	1
156	6
157	4
158	22
159	139
160	25
161	2
171	2
174	268
175	108
176	11
177	0
184	1
185	12
186	8
187	1
203	328
204	157
205	19
206	1
246	15
247	2
261	234
262	36
263	5
