Mass Spectrum: 2-Propenamide, N-methyl-
Formula: C4H7NO
CAS: 1187-59-3
Molecular weight: 85
m/z	intensity
12	14
13	17
14	17
15	184
16	15
24	8
25	36
26	180
27	613
28	217
29	52
30	132
31	16
36	4
37	12
38	13
39	16
40	10
41	32
42	36
43	20
44	109
45	28
46	2
47	0
50	1
51	6
52	16
53	36
54	28
55	999
56	65
57	24
58	353
59	22
60	1
66	3
67	3
68	12
69	1
70	65
71	2
79	1
81	1
83	36
84	665
85	195
86	13
87	0
