Mass Spectrum: Carbamic acid, N-phenyl-, 1,5-dimethyl-1-vinyl-4-hexenyl ester
Formula: C17H23NO2
CAS: 118723-77-6
Molecular weight: 273
m/z	intensity
26	4
27	87
28	22
29	93
30	5
31	5
37	5
38	15
39	174
40	47
41	722
42	52
43	176
44	30
45	10
50	13
51	47
52	19
53	131
54	19
55	203
56	27
57	64
58	7
59	7
60	7
61	3
62	4
63	19
64	29
65	127
66	55
67	172
68	94
69	999
70	93
71	107
72	10
73	4
74	6
75	3
76	8
77	116
78	15
79	83
80	148
81	787
82	75
83	38
84	10
85	14
86	2
87	3
90	3
91	88
92	134
93	787
94	98
95	242
96	27
97	15
98	7
99	5
103	4
104	11
105	26
106	15
107	41
108	12
109	32
110	6
111	11
112	6
113	4
115	4
117	3
118	4
119	66
120	31
121	92
122	12
123	7
124	2
125	5
126	3
127	9
129	3
130	2
131	3
132	2
133	3
134	9
135	10
136	206
137	197
138	35
139	9
140	2
141	3
144	3
146	60
147	15
148	2
152	6
153	6
154	5
155	4
158	3
159	12
160	10
161	5
167	4
181	10
182	2
185	3
186	4
214	6
229	12
230	2
273	52
274	10
