Mass Spectrum: Thioxanthen-9-one, 4-[(3-methylamino)propoxy]-
Formula: C17H17NO2S
CAS: 118793-90-1
Molecular weight: 299
m/z	intensity
41	44
42	71
43	82
44	999
45	36
56	34
57	79
58	35
69	46
70	65
71	73
72	953
73	48
127	37
139	50
171	139
172	44
200	36
212	59
213	30
227	51
228	331
229	113
230	22
256	27
299	113
300	27
