Mass Spectrum: Diaminomaleonitrile
Formula: C4H4N4
CAS: 1187-42-4
Molecular weight: 108
m/z	intensity
18	11
26	16
27	72
28	411
29	7
38	81
39	31
40	16
41	2
42	4
43	19
50	10
51	7
52	24
53	565
54	999
55	138
56	7
64	15
65	49
66	42
67	8
77	8
80	18
81	760
82	29
91	7
107	3
108	592
109	26
