Mass Spectrum: Chloro(alpha,alpha-dimethylbenzyl)dimethylsilane
Formula: C11H17ClSi
CAS: 118740-38-8
Molecular weight: 212
m/z	intensity
27	5
28	3
29	2
31	1
32	1
36	1
38	1
39	24
40	2
41	84
42	3
43	11
44	1
45	3
50	6
51	22
52	6
53	5
55	1
57	2
58	4
59	5
62	1
63	28
64	3
65	49
66	4
67	14
69	1
73	25
74	4
75	7
76	4
77	56
78	35
79	55
80	4
81	2
89	7
90	2
91	327
92	27
93	319
94	24
95	113
96	7
97	4
101	1
102	8
103	49
104	10
105	9
106	1
107	2
115	19
116	6
117	67
118	526
119	999
120	100
121	6
129	1
131	2
133	2
135	18
136	2
137	1
141	2
143	2
145	5
146	1
147	4
153	1
155	26
156	3
157	9
158	1
159	3
161	6
162	1
167	1
169	1
175	1
176	1
177	10
178	2
181	1
195	1
197	6
198	1
199	2
212	169
213	28
214	61
215	9
216	2
