Mass Spectrum: Methyl 2-hydroxy-tricosanoate
Formula: C24H48O3
CAS: 118745-41-8
Molecular weight: 384
m/z	intensity
55	840
57	999
59	270
69	490
83	490
90	310
103	140
125	180
127	220
145	130
159	90
280	30
306	130
323	170
325	620
326	150
352	60
384	800
385	232
386	23
