Mass Spectrum: Glycerol 2-laurate, 2TMS derivative
Formula: C21H46O4Si2
CAS: 1188-53-0
Molecular weight: 418
m/z	intensity
26	10
27	70
28	90
29	160
30	10
31	10
32	10
39	40
40	10
41	280
42	70
43	420
44	40
45	90
46	10
47	30
53	10
54	30
55	250
56	70
57	320
58	30
59	90
60	20
61	30
66	10
67	30
68	20
69	80
70	30
71	130
72	40
73	999
74	90
75	400
76	30
77	30
79	10
81	40
82	10
83	60
84	40
85	100
86	10
87	20
88	10
89	50
90	10
91	10
93	10
95	50
96	10
97	40
98	40
99	30
100	20
101	100
102	470
103	50
104	40
109	30
111	10
112	10
113	40
114	20
115	30
116	40
117	90
118	10
119	10
123	10
128	20
129	980
130	140
131	170
132	30
133	100
134	20
135	10
141	10
143	20
145	60
146	20
147	580
148	90
149	80
150	10
151	10
155	10
157	10
158	10
159	30
160	10
161	10
163	30
164	10
165	10
171	10
172	10
173	10
174	10
175	50
176	10
177	20
183	230
184	30
185	10
188	10
189	20
191	240
192	30
193	10
201	20
202	10
203	230
204	40
205	40
206	10
207	10
216	10
217	190
218	820
219	150
220	70
221	50
222	10
223	10
237	10
247	10
249	10
255	10
257	320
258	70
259	20
271	40
272	10
273	20
275	10
278	20
285	10
315	40
316	10
327	10
328	10
331	10
332	10
333	10
344	10
345	30
346	20
347	50
348	10
373	10
385	10
402	30
403	70
404	30
405	10
