Mass Spectrum: 2-Methylheptanoic acid
Formula: C8H16O2
CAS: 1188-02-9
Molecular weight: 144
m/z	intensity
41	140
42	30
43	105
44	12
45	33
55	63
56	30
57	117
59	33
60	11
69	29
71	11
73	70
74	999
75	39
84	12
87	206
88	20
101	77
115	14
144	20
