Mass Spectrum: Oxazolo[2,3-f]purine-2,4(1H,3H)-dione, 6-ethyl-1,3-dimethyl-7-phenyl-
Formula: C17H16N4O3
CAS: 118888-58-7
Molecular weight: 324
m/z	intensity
33	5
34	4
36	0
37	4
38	17
39	143
40	95
41	78
42	102
43	29
44	27
45	3
50	58
51	189
52	80
53	69
54	89
55	65
56	261
57	39
58	54
59	2
60	1
61	5
62	30
63	101
64	36
65	75
66	68
67	154
68	62
69	44
70	74
71	9
72	4
73	3
74	28
75	54
76	65
77	344
78	84
79	26
80	64
81	62
82	105
83	999
84	59
85	12
86	7
87	20
88	27
89	100
90	24
91	106
92	19
93	23
94	33
95	22
96	17
97	11
98	20
99	11
100	18
101	34
102	98
103	516
104	89
105	137
106	18
107	52
108	20
109	22
110	23
111	33
112	17
113	26
114	37
115	464
116	94
117	138
118	70
119	19
120	7
121	10
122	12
123	8
124	16
125	10
126	33
127	157
128	277
129	427
130	127
131	17
132	5
133	9
134	17
135	10
136	11
137	6
138	8
139	39
140	43
141	27
142	44
143	23
144	22
145	4
146	2
147	4
148	13
149	9
150	42
151	6
152	16
153	14
154	45
155	61
156	41
157	22
158	7
159	1
161	16
162	187
163	25
164	8
165	9
166	5
167	10
168	12
169	14
170	10
171	9
172	2
174	0
175	3
176	3
177	2
178	1
179	5
180	8
181	24
182	17
183	47
184	43
185	36
186	13
187	1
189	0
190	2
191	21
192	10
193	5
194	7
195	19
196	78
197	22
198	28
199	8
200	1
205	3
206	6
207	172
208	21
209	14
210	18
211	12
212	93
213	40
214	9
215	1
218	5
219	12
220	47
221	8
222	14
223	6
224	15
225	6
226	7
227	17
228	2
233	7
234	0
235	0
236	1
237	2
238	18
239	9
240	119
241	31
242	4
246	0
247	4
250	0
252	20
253	6
254	21
255	3
256	0
265	1
266	9
267	41
268	29
269	8
270	1
279	0
280	1
281	8
282	2
283	2
295	67
296	16
297	1
307	1
309	174
310	32
311	4
321	0
323	29
324	560
325	118
326	15
327	1
