Mass Spectrum: 7-Octen-3-ol, 2,3,6-trimethyl-
Formula: C11H22O
CAS: 118989-21-2
Molecular weight: 170
m/z	intensity
23	1
24	1
26	6
27	144
28	5
29	113
30	3
31	20
37	1
38	4
39	122
40	22
41	463
42	31
43	962
44	23
45	135
46	3
50	3
51	12
52	6
53	66
54	18
55	310
56	31
57	69
58	44
59	29
60	1
62	0
63	2
64	0
65	12
66	6
67	126
68	80
69	626
70	49
71	220
72	14
73	8
74	0
77	11
78	2
79	15
80	8
81	83
82	34
83	65
84	26
85	16
86	10
87	999
88	52
89	3
91	6
92	0
93	7
94	4
95	30
96	31
97	65
98	9
99	5
103	0
105	1
107	4
108	8
109	515
110	47
111	6
121	1
123	8
124	4
125	1
126	1
127	91
128	8
137	26
138	2
152	10
153	1
155	15
156	1
