Mass Spectrum: N-Dimethylaminomethyl-N-methylformamide
Formula: C5H12N2O
CAS: 1189-06-6
Molecular weight: 116
m/z	intensity
26	2
27	28
28	274
29	178
30	449
31	8
38	4
39	7
40	21
41	40
42	351
43	85
44	999
45	127
46	43
47	0
49	0
51	0
52	0
54	1
55	4
56	9
57	386
58	921
59	406
60	30
61	0
69	2
70	1
71	3
72	131
73	30
74	23
75	1
85	4
86	1
87	1
88	38
89	1
91	0
99	1
101	51
102	9
103	0
115	1
116	72
117	5
