Mass Spectrum: Azetidine, 1-benzoyl-3-ethenyl-
Formula: C12H13NO
CAS: 118973-03-8
Molecular weight: 187
m/z	intensity
27	19
28	7
29	7
38	2
39	23
40	2
41	10
42	5
43	2
50	19
51	75
52	7
53	12
54	34
55	8
56	5
67	4
74	5
75	6
76	15
77	411
78	27
80	4
82	13
91	3
104	5
105	999
106	71
107	5
122	4
172	5
185	6
186	68
187	123
188	18
