Mass Spectrum: 3-(2-Hydroxycyclohexyl)-furan
Formula: C10H14O2
CAS: 118959-04-9
Molecular weight: 166
m/z	intensity
39	312
41	240
43	100
53	150
55	120
65	110
67	189
69	60
77	119
79	219
81	999
82	606
83	69
91	120
94	190
95	610
96	80
107	80
120	49
138	79
149	110
166	410
167	50
