Mass Spectrum: Isolan
Formula: C10H17N3O2
CAS: 119-38-0
Molecular weight: 211
m/z	intensity
15	60
18	20
27	60
28	70
29	50
39	10
40	10
41	60
42	50
43	60
44	30
45	60
51	10
52	10
53	10
55	10
66	10
72	999
111	10
211	30
