Mass Spectrum: Acetamide, N-(4-aminophenyl)-N-methyl-
Formula: C9H12N2O
CAS: 119-63-1
Molecular weight: 164
m/z	intensity
15	50
39	82
41	37
42	77
43	434
51	31
52	119
53	91
54	37
56	534
63	41
64	23
65	287
66	96
67	22
77	125
78	40
79	75
80	123
92	164
93	455
94	279
105	50
106	52
107	999
108	68
109	85
119	167
120	58
121	704
122	858
123	62
134	2
164	610
165	56
