Mass Spectrum: 1,2-Propanedione, 1-phenyl-, 2-oxime
Formula: C9H9NO2
CAS: 119-51-7
Molecular weight: 163
m/z	intensity
25	1
26	4
27	26
28	12
29	3
30	5
31	11
32	2
34	2
35	3
36	4
37	4
38	12
39	29
40	11
41	11
42	11
43	5
45	2
46	2
47	1
48	1
49	6
50	109
51	311
52	19
53	7
54	2
55	5
56	3
57	5
58	13
59	4
61	3
62	7
63	12
64	3
65	4
66	2
73	4
74	26
75	22
76	43
77	695
78	55
79	3
86	3
87	2
88	1
89	5
90	3
91	3
92	1
94	1
101	1
102	4
103	6
104	6
105	999
106	78
107	5
115	3
116	2
117	3
118	63
119	6
122	2
131	1
141	1
142	1
143	1
145	7
146	4
147	1
163	181
164	20
165	2
166	1
