Mass Spectrum: 5,8,11,18,21,26-Hexaoxa-1,15-diazabicyclo[13.8.5]-octacozane
Formula: C20H40N2O6
CAS: 119017-38-8
Molecular weight: 404
m/z	intensity
54	90
55	474
56	347
57	632
58	121
69	84
70	737
71	368
72	790
73	163
79	200
80	90
81	121
82	195
83	153
84	737
85	316
86	684
87	132
88	411
89	79
94	142
95	95
96	284
97	211
98	579
99	232
100	842
101	632
102	368
108	274
109	105
110	290
111	232
112	326
113	268
114	999
115	226
116	421
117	106
122	216
123	116
124	137
125	84
126	358
127	195
128	842
129	263
130	363
131	132
132	158
140	342
141	147
142	274
143	158
144	358
145	63
146	168
149	316
150	47
158	632
159	105
160	174
161	41
170	226
171	153
172	290
173	126
174	232
176	79
184	121
185	64
186	384
187	132
188	200
189	90
190	168
191	31
200	105
201	90
202	221
203	58
204	158
214	105
215	184
216	279
217	84
218	100
227	84
228	84
229	105
230	190
231	68
232	105
233	31
241	142
242	116
243	84
244	158
245	68
246	121
256	79
257	106
258	116
259	53
260	79
267	100
268	31
271	137
272	84
273	90
274	68
285	168
286	68
287	111
288	42
299	200
300	63
301	95
302	63
303	63
313	163
314	79
315	158
316	95
317	90
329	279
330	105
331	74
343	526
344	158
345	121
346	58
359	295
360	126
361	137
373	579
374	284
375	137
387	137
388	63
389	63
404	442
405	132
