Mass Spectrum: 4,7,14,20-Tetraoxa-1,10-diazabicyclo[8.7.5]docosane
Formula: C16H32N2O4
CAS: 119017-36-6
Molecular weight: 316
m/z	intensity
50	14
51	18
52	16
53	34
54	95
55	290
56	650
57	550
58	700
59	85
60	38
63	24
64	15
65	45
66	24
67	110
68	140
69	235
70	750
71	460
72	700
73	75
74	75
79	999
80	50
81	125
82	315
83	235
84	550
85	370
86	500
87	150
88	500
89	60
90	10
91	29
92	50
93	40
94	130
95	110
96	410
97	210
98	750
99	220
100	950
101	250
102	375
103	50
104	40
105	25
106	31
107	45
108	160
109	115
110	160
111	170
112	270
113	550
114	800
115	115
116	300
117	31
118	39
121	135
122	90
123	38
124	95
125	65
126	255
127	100
128	475
129	110
130	185
131	36
132	110
133	23
134	26
135	16
136	50
137	18
138	100
139	60
140	185
141	90
142	245
143	75
144	225
145	31
146	100
147	13
148	15
149	145
150	23
152	38
153	23
154	80
155	60
156	175
157	41
158	190
159	22
160	70
161	13
167	65
168	28
169	35
170	110
171	35
172	160
173	39
174	55
183	50
184	50
185	30
186	115
187	23
188	70
189	18
190	19
197	35
198	25
199	35
200	29
201	38
202	39
204	70
205	15
211	33
212	16
213	36
214	105
215	45
216	38
225	24
227	60
228	16
229	35
230	300
231	105
232	19
241	105
242	18
243	22
244	13
245	15
253	13
254	6
255	75
256	20
257	28
258	8
259	15
267	24
268	10
269	16
271	90
272	15
273	60
274	9
285	130
286	43
287	50
288	8
298	15
299	33
300	13
301	8
315	15
316	175
317	41
318	11
