Mass Spectrum: Dodecanedioic acid, 2,11-dibromo-
Formula: C12H20Br2O4
CAS: 119087-21-7
Molecular weight: 386
m/z	intensity
22	1
26	18
27	433
28	22
29	450
30	11
31	34
34	1
39	262
41	999
42	144
43	348
44	65
45	116
46	5
47	13
50	4
51	19
52	9
53	161
54	107
55	744
56	89
57	166
58	16
59	43
60	127
61	13
63	6
64	0
65	28
66	17
67	383
68	112
69	412
70	44
71	118
72	7
73	889
74	42
75	5
76	3
77	35
78	10
79	107
80	127
81	399
82	118
83	487
84	119
85	61
86	37
87	98
88	7
89	0
91	37
92	8
93	84
94	26
95	190
96	57
97	277
98	104
99	187
100	21
101	29
102	6
103	0
104	0
105	20
106	9
107	62
108	16
109	112
110	24
111	68
112	34
113	111
114	17
115	26
116	6
117	5
118	2
119	39
120	18
121	53
122	20
123	134
124	16
125	50
126	11
127	49
128	5
129	46
130	5
131	10
132	0
133	48
134	8
135	61
136	16
137	97
138	357
139	26
140	344
141	15
142	1
143	5
144	0
145	40
146	11
147	48
148	8
149	21
150	8
151	63
152	5
153	58
154	2
155	19
156	5
157	5
158	28
159	4
160	1
161	16
162	219
163	61
164	219
165	119
166	17
167	8
169	65
170	7
171	4
172	0
173	26
174	7
175	26
176	308
177	45
178	292
179	46
180	22
181	24
182	20
183	159
184	20
185	3
187	3
188	1
189	18
190	55
191	95
192	59
193	73
194	8
195	60
196	7
199	1
200	0
201	7
202	6
203	13
204	6
205	22
206	2
207	52
208	5
209	39
210	4
211	0
213	4
214	16
215	27
216	7
217	38
218	13
219	21
220	7
221	21
222	2
223	20
224	1
225	9
227	14
228	1
229	10
230	0
231	36
232	4
233	33
234	7
235	14
236	3
237	14
238	0
242	0
243	28
244	6
245	79
246	13
247	56
248	10
249	50
250	6
251	48
252	5
253	5
255	5
256	0
259	0
260	0
261	14
262	9
263	194
264	27
265	181
266	21
267	1
269	3
270	0
271	68
272	13
273	67
274	10
277	0
280	0
282	0
284	0
285	0
287	4
288	4
289	211
290	34
291	208
292	26
293	2
299	2
301	8
303	4
342	6
343	0
344	10
345	1
346	5
367	4
368	5
369	7
370	11
371	6
372	4
373	0
