Mass Spectrum: 3-Hydroxy-2-methyl-3,3-diphenylpropionic acid methyl ester
Formula: C17H18O3
CAS: 119020-91-6
Molecular weight: 270
m/z	intensity
31	67
32	2
51	262
52	12
59	54
60	3
77	919
78	62
79	2
105	999
106	79
107	5
183	981
184	143
185	12
186	1
193	8
194	1
252	4
253	1
270	2
271	1
