Mass Spectrum: 5-Hepten-3-one, 5-methyl-
Formula: C8H14O
CAS: 1190-34-7
Molecular weight: 126
m/z	intensity
23	0
24	0
25	2
26	9
27	103
28	46
29	648
30	12
31	1
36	0
37	2
38	5
39	72
40	13
41	196
42	18
43	12
44	10
45	0
49	0
50	4
51	10
52	4
53	25
54	5
55	31
56	12
57	999
58	30
59	2
62	0
63	2
64	0
65	4
66	1
67	16
68	11
69	48
70	23
71	1
72	0
73	0
77	2
78	0
79	1
81	1
83	0
84	0
91	2
93	0
94	0
95	6
96	2
97	8
106	0
107	0
108	0
109	6
110	0
111	9
112	0
120	0
121	0
122	1
123	0
124	3
125	0
126	20
127	0
