Mass Spectrum: Benzimidazole, 5-acetamino-1-[2-[diethylamino]ethyl]-2-[4-ethoxybenzyl]
Formula: C24H32N4O2
CAS: 119043-63-9
Molecular weight: 408
m/z	intensity
42	13
43	68
44	166
45	10
47	13
50	21
58	26
60	8
69	72
73	3
86	999
87	59
97	5
107	47
135	3
408	163
409	33
