Mass Spectrum: 5-Carbamoyl-pentanoic acid ethyl ester
Formula: C8H15NO3
CAS: 1190-69-8
Molecular weight: 173
m/z	intensity
37	1
39	47
40	6
41	172
42	153
43	290
44	724
45	265
46	19
47	14
48	7
50	0
53	10
54	13
55	405
56	214
57	109
58	70
59	999
60	361
61	36
68	4
69	5
70	2
71	5
72	207
73	148
74	60
75	10
81	0
82	12
83	38
84	23
86	155
87	48
88	4
98	1
99	60
100	51
101	37
102	7
109	0
110	23
111	81
112	30
114	0
115	8
127	26
128	234
129	83
156	0
