Mass Spectrum: Acetamide, N-(.beta.-mercaptoethyl)-
Formula: C4H9NOS
CAS: 1190-73-4
Molecular weight: 119
m/z	intensity
25	6
26	28
27	106
28	267
29	34
30	999
31	41
33	18
34	22
35	46
38	4
39	16
40	24
41	54
42	138
43	887
44	168
45	187
46	32
47	79
48	17
49	5
51	5
52	6
54	17
55	36
56	25
57	12
58	38
59	115
60	800
61	77
62	12
63	4
67	5
68	4
69	8
70	6
71	5
72	107
73	16
74	6
75	4
76	20
77	7
78	4
81	4
82	3
84	5
85	11
86	12
87	7
88	10
91	8
95	3
99	9
101	40
102	8
103	11
117	3
119	82
120	9
121	6
