Mass Spectrum: 5,8,11,18,21,26-Heptaoxa-1,15-diazabicyclo[13.8.8]hentriacontane
Formula: C22H44N2O7
CAS: 119017-40-2
Molecular weight: 448
m/z	intensity
54	77
55	210
56	774
57	548
58	726
59	136
68	100
69	116
70	774
71	355
72	565
73	82
74	42
82	129
83	108
84	484
85	161
86	258
87	63
88	119
89	45
94	116
95	36
96	147
97	66
98	307
99	98
100	629
101	999
102	177
103	50
108	177
109	37
110	113
111	84
112	119
113	121
114	726
115	137
116	177
117	37
121	48
122	48
123	36
124	58
125	39
126	121
127	60
128	339
129	76
130	177
131	37
132	137
138	108
139	21
140	90
141	48
142	161
143	69
144	290
145	45
146	95
149	290
150	44
151	32
156	68
157	27
158	290
159	42
160	58
167	131
168	27
169	19
170	90
171	45
172	132
173	47
174	73
175	24
176	29
180	58
184	44
185	31
186	121
187	71
188	84
189	24
190	65
200	50
201	40
202	69
203	19
204	36
214	44
215	40
216	81
217	26
218	37
229	44
230	87
231	21
232	40
241	44
242	34
243	32
244	48
245	18
246	36
255	25
256	23
257	48
258	27
259	31
260	29
271	55
272	23
273	32
274	45
275	34
276	32
279	32
285	145
286	29
287	32
288	29
289	45
290	19
299	55
300	18
301	63
302	16
303	65
304	24
313	52
314	11
315	69
316	19
317	21
327	77
328	23
329	53
330	19
331	48
343	81
344	36
345	66
346	13
347	45
348	16
357	84
358	26
359	81
360	26
361	31
362	16
373	419
374	92
375	45
376	11
387	516
388	116
389	48
390	19
403	50
404	24
405	27
418	45
419	32
420	13
433	24
447	39
448	121
449	32
