Mass Spectrum: Tungsten, methyltris(.eta.3-2-propenyl)(trimethylphosphine)-
Formula: C13H27PW
CAS: 119087-58-0
Molecular weight: 398
m/z	intensity
27	305
29	56
33	17
34	5
35	5
36	8
37	54
38	102
39	652
40	59
41	508
42	16
44	86
45	414
46	78
47	125
48	15
49	9
50	46
51	53
52	34
53	42
54	19
55	5
56	34
57	227
58	90
59	690
60	50
61	999
62	35
63	30
64	0
65	22
66	9
67	27
68	5
73	43
74	0
75	154
76	515
77	119
78	93
79	50
80	15
81	8
82	8
87	8
88	0
89	9
91	25
92	8
93	4
94	0
101	3
103	5
105	10
115	3
116	1
117	9
118	3
120	2
122	1
123	3
124	2
128	1
129	10
130	10
131	7
132	1
135	8
136	16
137	17
138	7
139	6
140	7
141	6
142	16
143	19
144	16
145	9
146	10
147	2
148	21
149	37
150	37
151	25
152	16
153	13
154	7
155	5
156	10
157	14
158	16
159	15
160	11
161	2
164	4
165	12
166	20
167	9
168	3
169	2
170	1
171	5
172	8
173	4
174	2
175	0
176	4
177	2
178	8
179	8
180	2
182	11
183	6
184	26
185	7
186	22
187	5
188	3
189	1
191	1
192	0
194	4
195	15
196	18
197	18
198	9
199	16
200	4
206	14
207	47
208	80
209	79
210	65
211	55
212	50
213	12
214	1
215	1
217	1
218	21
219	50
220	125
221	119
222	141
223	81
224	106
225	39
226	18
227	19
228	15
229	11
230	18
231	32
232	53
233	98
234	123
235	123
236	105
237	82
238	81
239	49
240	49
241	24
242	32
243	21
244	18
245	78
246	107
247	149
248	115
249	143
250	110
251	78
252	76
253	50
254	58
255	39
256	37
257	55
258	95
259	138
260	200
261	210
262	277
263	174
264	213
265	118
266	112
267	71
268	41
269	51
270	45
271	59
272	134
273	173
274	272
275	246
276	349
277	275
278	339
279	183
280	228
281	99
282	101
283	50
284	36
285	39
286	99
287	67
288	111
289	46
290	118
291	79
292	90
293	93
294	66
295	92
296	62
297	85
298	162
299	174
300	397
301	219
302	442
303	152
304	361
305	120
306	151
307	83
308	74
309	65
310	43
311	89
312	72
313	107
314	73
315	92
316	89
317	70
318	102
319	80
320	118
321	90
322	129
323	36
324	91
325	46
326	20
327	40
328	14
329	34
330	31
331	49
332	61
333	65
334	57
335	64
336	53
337	82
338	57
339	90
340	44
341	73
342	25
343	36
344	28
345	21
346	18
347	23
348	17
349	16
350	17
351	40
352	31
353	76
354	57
355	109
356	52
357	74
358	42
359	39
360	19
361	13
362	12
363	6
364	4
365	4
366	5
367	2
368	4
369	3
370	6
371	3
372	8
373	12
374	16
375	22
376	26
377	35
378	65
379	66
380	91
381	93
382	89
383	80
384	26
385	40
386	5
387	3
388	5
389	4
390	5
391	3
392	3
393	0
394	2
396	59
397	42
398	70
399	10
400	60
401	12
402	2
403	0
404	0
