Mass Spectrum: 3-Buten-2-one, 4-(dimethylamino)-
Formula: C6H11NO
CAS: 1190-91-6
Molecular weight: 113
m/z	intensity
41	33
42	226
43	151
44	121
54	21
55	168
56	42
68	21
69	16
70	84
96	84
97	21
98	999
99	50
113	491
114	29
