Mass Spectrum: d-Mannitol, 1-O-(16-hydroxyhexadecyl)-
Formula: C22H46O7
CAS: 119049-17-1
Molecular weight: 422
m/z	intensity
26	3
27	56
28	23
29	145
30	4
31	158
33	1
39	32
40	9
41	402
42	84
43	364
44	84
45	170
46	5
47	3
49	3
51	1
53	22
54	63
55	696
56	115
57	378
58	34
59	18
60	64
61	275
62	11
63	2
65	4
66	8
67	130
68	89
69	616
70	72
71	219
72	14
73	999
74	118
75	51
76	2
77	6
78	1
79	12
80	10
81	142
82	112
83	582
84	49
85	138
86	44
87	61
88	15
89	16
90	4
91	64
92	4
93	9
94	8
95	141
96	71
97	529
98	51
99	65
100	6
101	10
102	8
103	340
104	36
105	9
107	8
108	4
109	84
110	27
111	273
112	33
113	19
114	5
115	80
116	27
117	13
118	1
120	1
121	11
122	4
123	56
124	21
125	154
126	18
127	15
128	15
129	77
130	10
131	4
132	3
133	243
134	14
135	14
136	4
137	38
138	16
139	70
140	10
141	13
142	3
143	3
144	1
145	3
146	26
147	46
148	4
149	6
150	1
151	18
152	7
153	25
154	7
155	4
157	3
159	2
161	1
163	4
164	2
165	61
166	9
167	22
168	3
169	2
171	1
177	2
179	5
180	3
181	6
182	1
183	59
184	3
185	2
191	1
193	2
194	5
195	3
196	2
197	3
199	1
207	1
208	1
209	1
210	5
211	1
219	1
220	1
221	26
222	25
223	7
224	1
225	1
235	2
237	4
238	1
239	40
240	5
241	71
242	12
243	1
247	11
248	2
251	1
252	1
253	4
254	1
255	5
257	16
258	3
259	126
260	24
261	4
265	58
266	10
267	4
268	1
269	5
271	25
272	10
273	3
277	2
278	1
279	1
283	105
284	20
285	3
289	2
295	11
296	7
297	1
301	2
305	1
307	9
308	3
313	100
314	23
315	2
325	25
326	7
331	1
337	2
343	5
344	1
349	1
351	1
355	7
356	1
373	1
405	5
423	27
424	6
