Mass Spectrum: 4,7,13,16,22-Pentaoxa-1,10-diazabicyclo[8.8.7]-pentacosane
Formula: C18H36N2O5
CAS: 119017-39-9
Molecular weight: 360
m/z	intensity
55	212
56	803
57	424
58	894
59	127
60	36
67	61
68	123
69	130
70	864
71	424
72	652
73	117
74	55
81	67
82	288
83	242
84	742
85	333
86	576
87	197
88	197
89	32
94	118
95	70
96	318
97	197
98	667
99	227
100	999
101	10
102	439
103	53
107	99
108	197
109	86
110	133
111	197
112	258
113	712
114	960
115	142
116	288
117	38
118	53
124	83
125	68
126	242
127	111
128	455
129	91
130	212
131	38
132	242
133	38
136	303
137	26
138	94
139	73
140	273
141	114
142	379
143	182
144	439
145	68
146	182
147	18
154	82
155	68
156	227
157	61
158	318
159	42
160	197
161	32
167	68
168	52
169	61
170	182
171	92
172	139
173	64
174	152
175	30
176	46
183	64
184	121
185	46
186	124
187	58
188	197
189	33
190	42
197	124
198	58
199	102
200	102
201	120
202	77
203	18
204	36
211	38
212	29
213	61
214	136
215	91
216	71
217	42
218	42
227	106
228	38
229	11
230	15
231	58
232	17
241	88
242	30
243	56
244	33
245	46
246	21
248	68
255	102
256	26
257	136
258	36
259	88
260	26
267	38
268	17
269	56
270	23
271	100
272	27
273	64
274	303
275	112
276	23
285	409
286	73
287	53
288	18
289	23
299	333
300	61
301	46
302	21
303	32
315	52
316	15
317	41
359	26
360	167
361	49
362	19
