Mass Spectrum: .epsilon.-N-Formyl-L-lysine
Formula: C7H14N2O3
CAS: 1190-48-3
Molecular weight: 174
m/z	intensity
12	3
13	1
14	4
15	30
16	14
17	7
18	16
25	2
26	32
27	133
28	227
29	89
30	654
31	11
32	1
36	3
37	6
38	11
39	90
40	27
41	207
42	172
43	277
44	113
45	25
46	92
47	2
49	2
50	10
51	16
52	26
53	38
54	100
55	158
56	497
57	98
58	195
59	83
60	10
61	2
62	2
63	3
64	4
65	13
66	22
67	86
68	46
69	56
70	131
71	47
72	140
73	88
74	111
75	26
76	3
77	5
78	8
79	16
80	24
81	21
82	126
83	153
84	586
85	41
86	29
87	11
88	7
89	18
90	2
91	5
92	8
93	23
94	16
95	11
96	9
97	11
98	19
99	44
100	123
101	49
102	5
103	9
104	4
105	3
106	2
107	7
108	7
109	18
110	27
111	62
112	999
113	80
114	6
115	1
116	7
117	3
118	3
119	4
120	4
121	3
122	3
123	3
124	2
125	2
126	2
127	21
128	67
129	37
130	9
131	2
132	1
133	1
134	1
135	2
136	2
137	4
138	17
139	8
140	4
141	1
143	1
144	1
145	1
146	1
147	1
148	1
149	2
150	2
151	9
152	4
153	1
154	1
155	1
156	16
157	5
158	3
159	1
171	1
173	1
174	1
175	1
