Mass Spectrum: Acetate, 2-[(acetyloxy)methyl]-4,4-dimethoxybutyl ester
Formula: C11H20O6
CAS: 119117-34-9
Molecular weight: 248
m/z	intensity
27	10
29	17
31	18
39	12
40	3
41	34
42	9
43	273
44	9
45	23
47	42
53	10
54	13
55	33
56	6
57	9
58	60
59	13
61	8
65	4
66	3
67	7
68	3
69	30
70	4
71	61
72	6
73	12
74	4
75	999
76	32
77	7
79	3
81	9
82	17
83	182
84	31
85	14
86	4
87	3
88	11
91	4
96	4
97	102
98	9
99	8
100	3
101	11
103	6
105	3
111	2
113	14
114	8
115	26
116	17
117	5
120	4
125	3
127	6
128	3
129	4
131	11
132	2
141	3
143	73
144	7
156	8
157	81
158	18
159	3
173	7
217	9
218	3
247	3
248	3
