Mass Spectrum: Methyl eicosa-5,8,11,14,17-pentaenoate
Formula: C21H32O2
CAS: 1191-65-7
Molecular weight: 316
m/z	intensity
15	18
18	9
27	38
28	18
29	51
39	82
40	15
41	340
42	24
43	85
44	9
45	11
50	7
51	22
52	17
53	106
54	47
55	267
56	25
57	41
59	81
63	11
65	105
66	125
67	596
68	67
69	115
70	27
71	33
73	22
74	109
75	19
77	309
78	199
79	999
80	384
81	275
82	65
83	45
84	19
85	52
87	65
88	25
89	13
90	11
91	729
92	217
93	583
94	202
95	249
96	38
97	41
98	13
99	24
101	32
102	12
103	39
104	81
105	434
106	362
107	238
108	459
109	173
110	24
111	17
113	12
115	52
116	31
117	214
118	70
119	433
120	166
121	120
122	73
123	35
124	11
125	11
126	8
127	26
128	25
129	60
130	40
131	206
132	72
133	251
134	99
135	119
136	34
137	13
140	10
141	28
142	12
143	35
144	22
145	126
146	55
147	145
148	128
149	57
150	13
151	8
152	7
153	8
154	9
155	14
157	32
158	13
159	85
160	45
161	109
162	57
163	19
164	7
165	9
166	8
167	13
169	15
170	7
171	33
172	11
173	81
174	34
175	121
176	26
177	10
179	10
180	131
181	28
182	9
183	18
185	19
186	10
187	50
188	27
189	22
191	8
192	7
193	14
194	37
195	12
197	21
199	18
200	7
201	93
202	21
203	8
205	10
206	11
207	21
208	21
209	8
213	13
215	57
216	13
219	12
220	59
221	21
222	10
223	9
227	25
228	7
229	9
233	16
234	29
235	9
236	16
237	9
241	9
245	9
246	8
247	45
248	21
249	9
255	9
259	7
260	9
261	8
262	19
273	13
287	22
288	7
316	12
