Mass Spectrum: 3-Pyridinecarboxylic acid, 2-[4-methyl-5-(dimethylamino)-4-(1-methylethyl)-4H-imidazol-2-yl]-, methyl ester
Formula: C16H22N4O2
CAS: 119198-64-0
Molecular weight: 302
m/z	intensity
41	630
42	510
43	160
50	180
51	280
52	240
53	650
54	800
55	630
56	860
65	130
66	150
67	130
69	160
76	170
77	470
78	480
79	790
80	999
81	530
82	130
83	100
84	170
86	90
90	120
91	190
92	110
103	160
104	100
105	150
107	360
108	490
131	290
149	90
161	190
162	110
163	200
199	130
214	60
217	110
227	200
228	130
229	70
259	570
260	490
261	80
302	140
303	27
