Mass Spectrum: 2,4(3H,5H)-Furandione, 3-methyl-
Formula: C5H6O3
CAS: 1192-51-4
Molecular weight: 114
m/z	intensity
25	20
26	120
27	220
28	940
29	210
30	20
31	30
32	10
38	10
39	40
40	30
41	70
42	180
43	30
44	40
53	10
54	20
55	140
56	999
57	80
83	50
85	170
86	70
96	30
114	730
115	60
