Mass Spectrum: 2,3,3-Trimethyl-1-phenyl-azetidine
Formula: C12H17N
CAS: 119219-99-7
Molecular weight: 175
m/z	intensity
39	99
40	211
41	160
42	59
43	61
51	151
55	107
77	499
78	70
91	50
104	850
105	407
106	99
118	131
119	999
120	191
175	219
