Mass Spectrum: 3-Acetyl-2-methyl-1-benzofuran-5,6-dicarbonitrile
Formula: C13H8N2O2
CAS: 1192654-28-6
Molecular weight: 224
m/z	intensity
36	1
37	24
38	40
39	69
40	26
41	10
42	52
43	999
44	69
45	3
47	1
49	12
50	123
51	141
52	43
53	15
55	22
56	1
57	1
60	1
61	37
62	79
63	110
64	30
65	7
66	2
67	1
72	1
73	15
74	73
75	133
76	91
77	46
78	11
79	1
82	2
83	5
84	2
85	10
86	18
87	31
88	26
89	17
91	16
97	2
98	14
99	91
100	81
101	22
102	33
103	4
105	41
110	3
111	10
112	24
113	9
114	7
123	5
124	11
125	28
126	152
127	33
128	2
138	5
139	8
140	10
141	4
151	1
152	31
153	74
154	7
155	2
165	3
181	29
182	3
195	3
196	1
208	1
209	744
210	107
211	8
224	199
225	29
226	2
