Mass Spectrum: Cyclobutanone, 2,2-dimethyl-
Formula: C6H10O
CAS: 1192-14-9
Molecular weight: 98
m/z	intensity
28	400
29	29
38	34
39	243
40	43
41	999
42	429
43	43
55	571
56	766
57	71
70	800
71	100
98	143
99	29
