Mass Spectrum: Oxirane, 2-methyl-3-(1-methylethyl)-
Formula: C6H12O
CAS: 1192-31-0
Molecular weight: 100
m/z	intensity
27	134
28	134
29	89
39	108
40	55
41	702
42	44
43	131
45	214
55	121
56	999
57	150
72	39
85	25
