Mass Spectrum: Cyclobutanone, 3,3-dimethyl-
Formula: C6H10O
CAS: 1192-33-2
Molecular weight: 98
m/z	intensity
39	172
40	63
41	661
42	86
43	201
44	29
55	224
56	999
57	80
70	253
71	29
83	52
84	14
98	72
99	23
