Mass Spectrum: 2H-Imidazol-2-one, 1,3-dihydro-4-methyl-
Formula: C4H6N2O
CAS: 1192-34-3
Molecular weight: 98
m/z	intensity
41	218
42	999
43	220
44	40
45	28
46	5
49	13
50	1
51	16
52	37
53	32
54	41
55	42
56	143
57	20
58	26
59	6
66	2
67	6
68	33
69	214
70	44
71	3
72	3
74	4
79	1
81	3
82	5
83	11
86	1
97	105
98	487
99	55
100	7
