Mass Spectrum: Propane, 1,1,2,2-tetrakis(difluorophosphino)-
Formula: C3H4F8P4
CAS: 119280-19-2
Molecular weight: 316
m/z	intensity
38	80
39	280
41	100
50	120
65	120
69	999
71	730
89	190
109	280
159	250
178	70
247	90
316	60
317	2
