Mass Spectrum: 1-Propene, 1,2-bis(difluorophosphino)-
Formula: C3H4F4P2
CAS: 119280-18-1
Molecular weight: 178
m/z	intensity
38	150
39	480
41	150
43	470
50	120
58	110
68	90
69	999
72	230
76	100
89	180
109	990
159	110
178	500
179	16
