Mass Spectrum: 2-Butene, 1,1,1,4,4,4-hexafluoro-2,3-bis(difluorophosphino)-
Formula: C4F10P2
CAS: 119255-00-4
Molecular weight: 300
m/z	intensity
50	60
69	999
81	100
93	300
105	250
124	560
143	460
155	60
193	160
212	40
231	160
281	40
300	40
301	1
