Mass Spectrum: Cholan-16,22-epoxy-3.beta.,24-diol 3-O-acetyl-
Formula: C26H42O4
CAS: 119300-75-3
Molecular weight: 418
m/z	intensity
41	137
43	404
44	10
45	31
47	5
49	32
51	13
53	38
55	222
56	5
57	54
58	4
59	8
61	22
65	16
67	163
69	127
71	59
72	45
73	24
75	5
77	54
79	193
81	273
82	11
83	128
84	42
85	69
86	17
87	14
88	4
91	150
93	223
94	16
95	208
96	17
97	61
98	47
99	28
100	12
102	999
103	49
105	164
107	336
108	106
109	110
110	18
111	32
112	16
113	12
114	7
116	514
117	59
119	102
120	67
121	133
122	124
123	52
124	18
125	15
126	7
127	33
128	33
129	38
130	60
131	51
133	104
134	13
135	136
136	19
137	12
138	2
139	13
140	2
141	14
142	36
143	44
144	36
145	67
147	128
148	28
149	56
150	8
151	13
153	3
155	17
157	30
159	79
160	7
161	122
162	26
163	28
165	5
168	17
169	4
171	24
173	46
174	13
175	40
176	45
177	30
178	5
181	35
183	3
185	19
187	37
188	7
189	26
190	9
191	2
195	5
197	4
199	28
201	49
202	13
203	9
211	2
213	21
214	12
215	71
216	41
217	16
227	21
228	6
229	25
230	28
231	28
232	7
234	2
239	8
241	29
242	10
243	8
245	8
253	6
254	3
255	194
256	52
257	47
258	13
259	2
267	2
269	133
270	90
271	22
273	21
274	8
275	5
283	7
284	39
285	33
286	10
287	10
290	10
295	14
297	2
301	9
302	2
313	39
315	332
316	66
317	32
318	7
328	17
329	17
330	12
331	7
340	20
341	7
342	2
343	14
344	13
345	6
354	4
358	32
359	13
360	9
372	14
373	110
374	33
375	2
386	20
387	5
389	2
400	23
401	8
403	4
414	2
417	4
418	15
419	4
