Mass Spectrum: Bicyclo[2.2.2]octan-1-amine
Formula: C8H15N
CAS: 1193-42-6
Molecular weight: 125
m/z	intensity
26	27
27	104
28	250
29	85
30	71
31	9
32	9
35	10
36	26
37	11
38	25
39	114
40	75
41	174
42	113
43	115
44	135
45	44
46	8
47	4
50	19
51	33
52	21
53	50
54	77
55	96
56	77
57	98
58	9
59	3
60	19
61	8
62	8
63	15
64	8
65	29
66	16
67	53
68	50
69	999
70	107
71	46
72	10
73	26
74	26
75	10
77	49
78	19
79	74
80	47
81	57
82	219
83	47
84	21
85	17
91	31
92	16
93	31
94	45
95	65
96	561
97	132
98	23
99	10
105	12
106	5
107	12
108	14
109	16
110	33
111	14
112	1
121	9
122	6
123	15
124	54
125	192
126	26
