Mass Spectrum: 2,2,4,4-Tetrafluoro-1,3-dimethyl-2,4-bis(2,2-dimethylhydrazino)-1,3,2,4-diazadiphosphetidine
Formula: C6H20F4N6P2
CAS: 119395-05-0
Molecular weight: 314
m/z	intensity
15	58
28	54
30	97
42	100
43	220
44	57
58	80
59	999
60	195
118	65
127	471
157	471
186	61
197	220
212	75
237	41
255	255
294	48
314	44
