Mass Spectrum: 2-Cyclohexen-1-one, 3-methyl-
Formula: C7H10O
CAS: 1193-18-6
Molecular weight: 110
m/z	intensity
26	13
27	92
29	20
37	10
38	27
39	291
40	38
41	88
42	37
43	21
44	37
50	24
51	37
52	21
53	79
54	307
55	41
56	7
57	13
60	7
62	6
63	11
65	22
66	11
67	71
68	11
69	10
71	8
77	22
79	27
81	16
82	999
83	60
84	8
93	7
94	6
95	15
110	376
111	33
112	2
