Mass Spectrum: Bicyclo[2.2.2]octane-1,4-diol
Formula: C8H14O2
CAS: 1194-44-1
Molecular weight: 142
m/z	intensity
12	3
13	1
14	7
15	30
26	70
27	299
28	263
29	259
30	20
31	102
36	3
37	18
38	32
39	223
40	57
41	290
42	151
43	529
44	90
45	39
50	33
51	68
52	30
53	154
54	65
55	393
56	95
57	279
58	28
59	4
60	48
61	11
62	12
63	20
64	5
65	55
66	39
67	191
68	81
69	134
70	475
71	626
72	287
73	210
74	18
77	66
78	23
79	62
80	28
81	123
82	73
83	95
84	56
85	999
86	92
87	10
91	50
92	6
93	28
94	33
95	320
96	411
97	68
98	13
99	25
105	18
106	21
107	18
108	17
109	162
110	25
111	25
112	14
113	74
114	18
123	28
124	98
125	35
126	6
127	110
142	732
143	73
144	6
