Mass Spectrum: Methyl lactate, TBDMS derivative
Formula: C10H22O3Si
CAS: 119404-55-6
Molecular weight: 218
m/z	intensity
37	0
38	0
39	15
40	2
41	46
42	5
43	65
44	12
45	77
46	5
47	28
48	1
49	1
50	0
51	3
53	2
54	0
55	13
56	8
57	28
58	80
59	281
60	26
61	32
62	1
63	1
67	1
69	2
70	1
71	5
72	9
73	389
74	39
75	101
76	7
77	5
81	0
83	3
84	0
85	13
86	3
87	32
88	10
89	999
90	83
91	43
92	1
97	1
98	0
99	11
100	5
101	21
102	28
103	61
104	6
105	3
110	5
111	2
113	1
114	0
115	49
116	6
117	7
118	1
119	8
120	1
129	6
130	1
131	36
132	4
133	348
134	36
135	14
136	0
143	1
145	4
146	1
147	3
159	149
160	21
161	560
162	66
163	25
164	1
175	9
176	1
203	15
204	2
205	0
