Mass Spectrum: 1,1-Dibromo-4-phenyl-1-butene
Formula: C10H10Br2
CAS: 119405-97-9
Molecular weight: 288
m/z	intensity
25	0
26	3
27	15
28	2
29	1
36	0
37	5
38	18
39	83
40	6
41	15
42	0
43	1
44	0
49	2
50	36
51	103
52	24
53	7
54	0
55	2
56	0
57	0
58	0
61	4
62	14
63	50
64	35
65	201
66	8
67	1
68	0
69	0
73	1
74	14
75	14
76	15
77	54
79	13
80	5
81	3
82	5
83	1
84	0
85	1
86	4
87	5
88	2
89	32
90	19
91	999
92	173
93	7
94	0
95	2
96	0
97	0
98	3
99	2
100	1
101	6
102	22
103	27
104	21
105	16
106	3
107	2
108	0
109	0
110	0
111	0
113	1
114	1
115	19
116	3
117	19
118	2
119	19
120	2
121	0
122	0
123	2
124	0
125	1
126	6
127	30
128	89
129	81
130	17
131	3
132	0
133	3
134	0
135	0
165	2
166	0
167	1
169	1
170	0
171	2
172	0
173	2
174	0
175	1
180	0
181	0
182	0
183	0
184	0
185	0
186	0
197	12
198	6
199	21
200	8
201	11
202	0
206	0
207	0
208	4
209	300
210	35
211	269
212	26
213	1
260	1
262	2
264	1
286	0
288	4
289	0
290	7
291	0
292	3
293	0
