Mass Spectrum: 2-Chloroethyl,4-nitrophenyl phosphoramidate
Formula: C8H10ClN2O5P
CAS: 119401-66-0
Molecular weight: 280
m/z	intensity
62	108
63	959
64	272
65	430
74	69
75	152
76	119
80	999
81	141
92	70
93	192
94	60
98	60
100	20
106	88
108	59
109	401
116	132
118	39
122	99
123	192
138	59
139	862
142	718
144	239
155	109
171	49
201	351
218	370
219	190
231	240
244	69
245	742
280	453
282	150
