Mass Spectrum: 1,3-Methano-5bH-cyclobuta[cd]pentalen-5b-ol, octahydro-
Formula: C10H14O
CAS: 119405-12-8
Molecular weight: 150
m/z	intensity
27	117
28	23
29	61
40	156
41	95
42	156
43	14
44	40
50	15
51	50
52	23
53	77
54	24
55	152
56	26
57	19
63	19
65	66
66	115
67	245
68	43
69	25
77	98
78	37
79	120
80	76
81	68
82	237
83	941
84	999
85	64
91	82
92	17
93	33
94	48
95	321
96	82
104	13
105	14
106	14
107	62
108	68
109	50
117	20
121	56
122	25
132	8
135	25
149	12
150	73
151	9
