Mass Spectrum: Phosphoramidic acid, ethyl p-nitrophenyl diester
Formula: C8H11N2O5P
CAS: 119401-65-9
Molecular weight: 246
m/z	intensity
62	50
63	180
64	150
65	290
75	110
76	80
80	999
81	110
92	60
93	110
98	230
108	220
109	220
123	100
131	90
139	350
149	210
201	70
218	210
219	70
229	50
231	60
246	330
