Mass Spectrum: 7-Methylenebicyclo[3.2.0]hept-3-en-2-one
Formula: C8H8O
CAS: 119487-76-2
Molecular weight: 120
m/z	intensity
34	0
35	0
36	2
37	34
38	98
39	408
40	111
41	30
42	7
43	18
44	8
45	39
46	15
47	2
48	1
49	12
50	98
51	175
52	176
53	93
54	16
55	54
56	3
57	7
58	1
59	3
60	3
61	20
62	42
63	97
64	45
65	189
66	82
67	8
68	10
69	4
70	10
71	8
72	2
73	3
74	10
75	7
76	5
77	51
78	42
79	34
80	25
81	70
82	4
83	1
84	1
85	2
86	3
87	3
88	1
89	23
90	38
91	999
92	614
93	46
94	8
95	1
97	0
98	0
101	0
102	2
103	2
104	1
105	13
106	1
107	1
108	0
109	2
112	0
115	2
116	0
117	2
118	4
119	46
120	224
121	20
122	4
123	0
