Mass Spectrum: Tricyclo[4.2.1.1(2,5)]dec-3-en-9-ol, acetate, stereoisomer
Formula: C12H16O2
CAS: 119405-11-7
Molecular weight: 192
m/z	intensity
26	5
27	64
29	36
30	2
31	16
38	7
39	115
40	29
41	133
42	13
43	653
44	42
45	19
50	9
51	36
52	18
53	44
54	20
55	44
56	9
57	29
58	9
60	3
61	10
62	4
63	17
64	7
65	75
66	999
67	611
68	38
69	15
70	30
71	15
72	2
73	4
74	2
75	4
76	3
77	114
78	67
79	138
80	41
81	24
82	58
83	111
84	185
85	13
88	3
89	5
90	3
91	202
92	57
93	98
94	18
95	12
96	9
97	3
98	3
99	12
102	3
103	16
104	101
105	49
106	15
107	15
108	18
109	14
110	2
111	2
112	3
113	2
115	19
116	14
117	131
118	15
119	22
120	5
121	32
122	11
123	2
124	2
125	8
126	134
127	16
128	7
129	7
130	7
131	106
132	179
133	24
134	4
135	6
136	2
145	2
148	3
149	23
150	44
151	5
163	2
192	22
193	4
