Mass Spectrum: 2,5:4,6-Dimethylene-1,3,7-tri-O-tosyl-d-glycero-d-mannoheptitol
Formula: C30H34O13S3
CAS: 119597-53-4
Molecular weight: 698
m/z	intensity
41	45
42	14
43	68
44	13
45	30
48	21
50	17
51	26
52	10
53	14
54	6
55	58
56	11
57	46
58	3
59	4
60	3
61	1
62	9
63	37
64	29
65	164
66	12
67	13
68	59
69	116
70	11
71	29
72	19
73	22
74	5
75	4
76	3
77	35
78	12
79	17
80	5
81	75
82	15
83	22
84	8
85	200
86	15
87	6
89	58
90	60
91	999
92	113
93	9
94	8
95	21
96	5
97	79
98	63
99	33
100	2
101	7
103	6
104	1
105	13
106	3
107	42
108	17
109	29
110	13
111	41
112	5
113	14
114	1
115	94
116	6
117	1
118	6
119	5
121	6
122	11
123	33
124	15
125	9
126	5
127	84
128	8
129	9
131	4
137	4
138	1
139	135
140	26
141	21
143	4
145	6
149	3
151	5
152	30
153	20
154	10
155	810
156	80
157	64
158	6
159	1
165	6
168	1
169	17
171	11
172	44
173	29
174	5
176	1
180	4
181	3
182	7
183	3
185	12
187	4
199	9
200	1
201	36
202	3
211	4
214	1
215	8
224	3
227	24
228	4
229	4
239	38
240	5
241	8
251	17
252	3
253	7
254	1
255	1
256	12
257	16
258	1
261	1
262	16
263	1
264	6
265	22
266	2
267	1
269	43
270	5
271	3
278	1
281	13
282	5
283	4
285	2
294	11
295	18
296	2
297	3
299	23
300	1
311	14
312	3
313	2
315	1
324	10
325	20
326	3
327	32
328	4
329	10
341	36
342	7
343	1
441	7
455	1
526	6
527	18
528	3
698	1
