Mass Spectrum: Bicyclo[3.1.1]heptan-3-ol, 2,6,6-trimethyl-, [1R-(1.alpha.,2.beta.,3.alpha.,5.alpha.)]-
Formula: C10H18O
CAS: 1196-00-5
Molecular weight: 154
m/z	intensity
36	2
38	6
39	111
40	22
41	350
42	70
43	839
44	26
45	12
46	0
48	1
50	4
51	18
52	8
53	58
54	18
55	284
56	65
57	74
58	22
59	7
62	1
63	4
64	0
65	17
66	8
67	100
68	30
69	415
70	999
71	167
72	17
73	0
77	31
78	7
79	58
80	27
81	248
82	60
83	223
84	492
85	68
86	1
91	20
92	32
93	134
94	29
95	151
96	30
97	24
98	118
99	54
100	3
103	1
105	6
106	0
107	31
108	5
109	5
110	83
111	20
112	2
113	5
115	0
119	0
121	54
122	5
123	1
135	0
136	39
137	2
139	6
154	0
