Mass Spectrum: 4-Aza-5-thiatricyclo[5.2.1.0(3,7)]decane-5,5-dioxide, (7S)-10,10-dimethyl-4-(1-methylene-2,2-dimethylcyclopentylcarbonyl)-
Formula: C19H29NO3S
CAS: 119648-75-8
Molecular weight: 351
m/z	intensity
26	1
27	50
28	27
29	51
30	18
31	0
34	0
37	0
38	2
39	53
40	12
41	219
42	18
43	125
44	12
45	1
46	2
48	3
50	2
51	10
52	8
53	72
54	16
55	141
56	14
57	11
58	3
59	1
60	1
61	0
62	0
63	2
64	8
65	29
66	13
67	287
68	29
69	48
70	8
71	1
72	1
74	0
75	1
76	0
77	69
78	14
79	118
80	24
81	96
82	23
83	11
84	4
85	1
86	1
87	2
88	0
89	1
90	1
91	71
92	21
93	196
94	48
95	31
96	16
97	12
98	4
99	0
102	0
103	2
104	1
105	17
106	16
107	120
108	197
109	999
110	82
111	6
112	0
115	0
116	0
117	2
118	2
119	17
120	9
121	49
122	11
123	9
124	2
125	0
129	0
130	0
131	0
132	3
133	6
134	35
135	157
136	250
137	152
138	22
139	1
145	0
146	1
147	2
148	2
149	1
150	8
151	14
152	82
153	14
154	6
155	0
159	0
160	1
161	1
162	2
163	1
164	11
165	2
166	1
167	0
174	0
175	0
176	1
177	1
178	6
179	1
180	2
181	0
182	1
183	0
186	1
187	0
188	1
190	1
191	0
192	1
193	0
199	1
200	2
202	1
203	1
204	2
205	0
206	0
214	2
215	0
216	7
217	0
218	3
219	1
228	1
229	0
230	4
231	6
232	1
242	1
244	5
245	1
248	1
249	0
254	1
255	0
258	1
259	0
268	1
269	1
270	0
272	7
273	1
286	2
287	4
288	1
295	82
296	15
297	5
298	0
308	0
336	5
337	1
351	73
352	18
353	5
354	1
