Mass Spectrum: Carbamic acid, (1-phenylethyl)-, 6-(1-hydroxy-1-methylethyl)-3-methyl-2-cyclohexen-1-yl ester, [1S-[1.alpha.(S*),6.beta.]]-
Formula: C19H27NO3
CAS: 119614-28-7
Molecular weight: 317
m/z	intensity
26	6
27	62
28	134
29	35
30	5
31	67
35	2
36	3
37	4
38	14
39	106
40	16
41	131
42	135
43	423
44	271
45	39
46	3
47	3
49	3
50	44
51	126
52	45
53	94
54	12
55	41
56	13
57	28
58	10
59	582
60	27
61	13
62	13
63	34
64	10
65	65
66	17
67	55
68	17
69	42
70	8
71	15
72	3
73	6
74	16
75	16
76	17
77	300
78	91
79	599
80	51
81	44
82	11
83	27
84	44
85	12
86	2
87	3
89	15
90	5
91	180
92	47
93	149
94	388
95	72
96	10
97	10
98	3
99	3
101	3
102	9
103	41
104	67
105	123
106	999
107	95
108	14
109	149
110	17
111	7
112	2
113	2
115	11
116	4
117	23
118	8
119	97
120	79
121	24
122	6
123	7
124	15
125	4
131	3
132	8
133	5
134	47
135	16
136	5
137	116
138	14
139	3
141	7
142	3
146	2
147	3
152	60
153	8
164	2
165	3
166	7
187	5
