Mass Spectrum: (2-Hydroxyphenyl)urea
Formula: C7H8N2O2
CAS: 1196-72-1
Molecular weight: 152
m/z	intensity
27	120
29	37
38	51
39	106
43	81
44	129
50	79
51	132
52	207
53	174
62	23
63	82
64	103
65	35
78	32
79	133
80	512
81	66
82	12
91	66
92	18
108	94
109	999
110	78
134	11
135	254
136	23
152	118
153	10
154	1
