Mass Spectrum: 2-t-Butyl-6-(3,3,3-trifluoro-2-hydroxy-2-phenyl-propyl)-[1,3]dioxin-4-one
Formula: C17H19F3O4
CAS: 119619-93-1
Molecular weight: 344
m/z	intensity
26	4
27	73
28	12
29	106
30	2
31	2
37	2
38	7
39	93
40	12
41	192
42	47
43	73
44	3
45	17
49	1
50	24
51	81
52	10
53	8
54	1
55	36
56	11
57	226
58	8
59	0
61	1
62	4
63	12
64	2
65	8
66	1
67	18
68	0
69	893
70	23
71	37
72	2
73	1
74	9
75	14
76	17
77	281
78	46
79	4
81	1
83	3
84	173
85	23
86	18
87	42
88	3
89	9
90	7
91	28
92	3
93	0
94	1
95	4
96	3
97	4
98	0
99	1
100	0
101	5
102	9
103	72
104	8
105	999
106	79
107	6
108	0
109	4
110	0
111	1
112	8
113	2
115	10
116	2
117	1
118	12
119	3
120	4
121	7
122	1
123	2
125	2
126	1
127	36
128	3
129	1
131	2
132	2
133	6
139	5
141	2
142	0
143	1
144	1
145	7
146	2
147	37
148	3
149	5
151	9
152	1
153	8
154	0
155	1
156	1
157	0
159	1
160	3
161	4
162	0
163	0
164	1
165	1
169	0
170	3
171	5
172	266
173	23
174	2
175	91
176	12
177	5
181	1
183	0
184	11
185	1
187	1
188	1
189	627
190	79
191	6
192	1
193	7
194	3
195	1
196	6
197	6
199	26
200	2
201	1
212	28
213	14
214	17
215	2
219	3
223	4
227	4
231	3
238	9
239	7
240	10
241	25
242	2
257	1
258	170
259	281
260	29
261	2
287	1
344	2
