Mass Spectrum: 3-[(4-(2-(4-Methoxyphenyl)ethyl)piperidinylcarbonyl)methyl]-quinazolin-2,4(1H,3H)-dione
Formula: C23H26N4O4
CAS: 119784-81-5
Molecular weight: 422
m/z	intensity
43	127
91	49
99	999
105	19
119	50
135	70
146	378
151	70
168	437
175	320
203	70
301	705
422	10
