Mass Spectrum: Germacyclobutane, 1,1-dibutyl-
Formula: C11H24Ge
CAS: 1197-89-3
Molecular weight: 230
m/z	intensity
41	210
42	20
43	500
44	60
45	50
55	30
57	230
58	30
59	130
70	50
71	140
72	150
73	190
74	270
75	320
76	280
77	50
78	70
85	50
86	510
87	120
88	760
89	340
90	999
91	120
92	290
93	10
94	20
98	70
99	20
100	250
101	170
102	360
103	250
104	410
105	240
106	170
107	40
108	40
112	80
113	30
114	360
115	230
116	490
117	380
118	590
119	340
120	130
121	60
127	70
128	160
129	360
130	370
131	530
132	510
133	550
134	280
135	90
136	40
142	200
143	150
144	460
145	280
146	690
147	330
148	430
149	80
150	110
151	20
157	40
158	10
159	50
160	30
161	60
170	110
171	110
172	180
173	200
174	310
175	220
176	90
177	30
184	30
185	130
186	110
187	190
188	200
189	250
190	130
191	50
192	20
198	60
199	30
200	110
201	110
202	160
203	80
204	60
205	100
206	20
207	20
226	70
228	90
229	30
230	130
