Mass Spectrum: Tranexamic Acid
Formula: C8H15NO2
CAS: 1197-18-8
Molecular weight: 157
m/z	intensity
18	5
27	23
28	29
29	23
30	999
31	25
32	85
38	1
39	57
40	7
41	74
42	19
43	23
44	12
45	30
47	1
50	5
51	13
52	6
53	42
54	44
55	48
56	31
57	8
58	2
65	9
66	5
67	50
68	16
69	7
70	5
71	2
73	15
77	19
78	4
79	39
80	18
81	58
82	10
83	3
85	2
86	5
91	10
92	3
93	24
94	11
95	13
96	2
97	2
98	1
108	5
109	2
110	6
111	5
112	15
113	2
122	10
125	1
127	1
140	10
157	57
158	6
