Mass Spectrum: Ethanone, 1-(2,6,6-trimethyl-1-cyclohexen-1-yl)-
Formula: C11H18O
CAS: 1197-92-8
Molecular weight: 166
m/z	intensity
26	9
27	106
29	86
30	7
36	12
38	8
39	168
40	23
41	304
42	17
43	999
44	43
45	34
50	24
51	58
52	22
53	101
54	21
55	171
56	17
57	101
58	19
59	11
60	11
61	7
62	8
63	45
64	13
65	81
66	15
67	203
68	33
69	99
70	20
71	19
72	5
73	7
74	10
75	11
76	16
77	139
78	24
79	175
80	30
81	590
82	59
83	50
84	7
85	9
86	6
87	9
88	9
89	24
90	6
91	146
92	30
93	112
94	37
95	149
96	37
97	16
98	14
99	14
100	5
101	20
102	13
103	28
104	10
105	70
106	7
107	195
108	45
109	356
110	44
111	9
113	22
114	7
115	50
116	29
117	21
118	5
119	12
120	7
121	29
122	11
123	907
124	123
125	12
150	0
151	672
152	108
153	9
163	4
165	6
166	399
167	67
168	8
