Mass Spectrum: 4-Isopropylcyclohexa-1,3-dienecarbaldehyde
Formula: C10H14O
CAS: 1197-15-5
Molecular weight: 150
m/z	intensity
27	33
29	36
38	10
39	111
40	14
41	121
43	132
44	9
50	43
51	120
52	48
53	73
54	9
55	26
62	15
63	54
64	12
65	115
66	58
67	39
75	17
76	18
77	453
78	108
79	999
80	66
89	14
90	10
91	416
92	43
93	113
94	46
102	14
103	71
104	19
105	356
106	71
107	726
108	105
115	39
116	8
117	67
118	10
119	72
120	14
121	442
122	58
131	5
133	18
134	27
135	159
148	9
149	11
150	514
151	55
152	8
