Mass Spectrum: 2-Naphthalenemethanol, .alpha.,.alpha.-dimethyl-4-methoxymethyl-
Formula: C15H18O2
CAS: 119856-20-1
Molecular weight: 230
m/z	intensity
31	63
32	10
33	10
37	3
38	9
39	59
40	5
41	32
42	6
43	482
44	14
45	999
46	20
47	2
50	27
51	41
52	8
53	5
55	5
57	5
58	3
59	49
61	17
62	21
63	55
64	12
65	13
69	13
70	10
71	2
73	1
74	27
75	30
76	33
77	34
78	5
79	5
81	4
82	14
83	5
84	4
85	5
86	12
87	23
88	11
89	29
90	4
91	35
92	29
98	11
99	9
100	5
101	10
102	14
103	3
107	9
108	5
110	3
111	3
113	15
114	8
115	112
116	12
125	1
126	24
127	73
128	82
129	40
130	3
137	3
138	5
139	119
140	42
141	390
142	58
143	8
150	5
151	13
152	45
153	38
154	24
155	111
156	22
157	8
158	1
163	6
164	4
165	68
166	29
167	14
168	6
169	19
170	20
171	44
172	8
176	1
178	7
179	12
180	13
181	96
182	17
183	183
184	39
185	39
186	4
195	2
197	26
198	6
199	39
200	3
211	5
212	42
213	18
214	12
215	341
216	51
217	4
229	13
230	270
231	44
232	3
