Mass Spectrum: Benzene, 1-nitro-4-propylsulfonyl-
Formula: C9H11NO4S
CAS: 119871-14-6
Molecular weight: 229
m/z	intensity
33	0
34	0
35	0
36	0
37	7
38	22
39	107
40	26
41	420
42	73
43	999
44	44
45	16
46	3
47	2
48	4
50	147
51	42
52	7
53	9
54	1
55	3
56	1
57	5
58	3
59	1
60	1
61	3
62	10
63	36
64	30
65	28
66	3
67	1
68	1
69	11
70	10
71	3
72	1
73	8
74	38
75	74
76	113
77	108
78	11
79	3
80	1
81	3
82	3
83	1
84	2
85	1
86	1
87	0
88	0
89	3
90	3
91	6
92	26
93	10
94	2
95	8
96	5
97	2
98	0
99	0
100	0
101	0
102	0
103	0
104	0
105	1
106	7
107	4
108	5
109	5
110	0
111	0
112	2
113	1
114	0
115	1
116	4
117	2
118	6
119	1
120	0
121	2
122	23
123	74
124	9
125	2
126	0
127	0
128	0
129	0
130	0
131	0
132	0
133	0
134	0
136	28
137	80
138	6
139	6
140	5
141	24
142	2
143	1
144	0
145	0
146	3
147	1
148	5
149	1
150	0
151	0
152	0
153	1
154	0
155	0
156	2
157	0
158	0
161	0
163	17
164	7
165	2
166	0
167	0
168	0
170	8
171	2
172	1
173	0
179	0
182	0
183	1
184	0
186	7
187	18
188	41
189	4
190	2
191	0
197	0
199	1
201	2
202	0
203	0
212	1
213	0
214	0
215	0
226	0
227	0
229	10
230	1
231	0
232	0
