Mass Spectrum: 1-Benzoyl-2-t-butyl-5-(2-hydroxyethyl)-3-methylimidazolidin-4-one
Formula: C17H24N2O3
CAS: 119838-35-6
Molecular weight: 304
m/z	intensity
27	27
28	20
29	51
30	6
31	11
39	21
40	4
41	64
42	139
43	11
44	7
50	13
51	59
52	5
53	3
54	14
55	15
56	19
57	47
58	3
68	9
69	4
70	3
72	2
74	3
75	4
76	18
77	427
78	31
82	3
83	3
84	7
85	2
91	2
97	3
98	19
99	3
104	8
105	999
106	79
107	4
111	16
112	3
123	2
125	60
126	3
141	1
167	3
203	2
215	2
216	1
229	2
247	677
248	107
249	11
289	5
