Mass Spectrum: 1-Methylene-2-benzyloxy-cyclopropane
Formula: C11H12O
CAS: 119819-29-3
Molecular weight: 160
m/z	intensity
41	49
69	39
77	58
78	60
83	29
91	999
107	120
131	70
