Mass Spectrum: Phenethylamine, p-chloro-N,.alpha.-dimethyl-
Formula: C10H14ClN
CAS: 1199-85-5
Molecular weight: 183
m/z	intensity
42	24
49	1
50	11
51	16
52	4
53	1
54	3
55	2
56	58
57	16
58	999
59	36
60	1
61	3
62	11
63	48
64	8
65	14
67	9
68	1
70	2
72	1
73	13
74	8
75	25
76	5
77	18
78	3
79	1
80	1
84	2
85	4
86	4
87	5
88	3
89	87
90	27
91	24
92	2
96	1
97	1
98	1
99	28
100	2
101	15
102	7
103	9
104	4
105	1
106	1
108	1
111	2
112	2
113	1
114	3
115	31
116	11
117	18
118	7
119	1
123	1
125	93
126	10
127	36
128	3
129	1
130	6
131	4
132	7
133	18
134	2
136	1
137	1
138	3
139	2
140	1
151	1
152	3
153	5
154	1
164	1
166	3
167	5
168	21
169	3
170	6
171	1
181	1
182	8
183	1
184	3
