Mass Spectrum: Oxidopamine
Formula: C8H11NO3
CAS: 1199-18-4
Molecular weight: 169
m/z	intensity
15	11
16	3
17	10
18	41
26	6
27	33
28	60
29	42
30	999
31	69
32	41
36	4
37	7
38	23
39	114
40	26
41	36
42	39
43	84
44	21
45	20
46	10
47	7
48	3
49	7
50	36
51	68
52	40
53	150
54	19
55	32
56	7
57	8
58	5
60	3
61	9
62	16
63	40
64	24
65	100
66	42
67	28
68	31
69	118
70	23
71	51
72	3
73	7
74	7
75	16
76	19
77	52
78	23
84	7
85	6
86	2
87	5
88	3
89	8
90	5
91	7
92	9
93	42
94	48
95	26
96	8
97	15
98	4
99	3
101	3
102	3
103	34
104	30
105	21
106	24
107	30
108	9
109	9
110	16
111	52
112	6
115	3
116	23
117	12
118	8
119	6
120	9
121	35
122	46
123	82
124	15
125	13
126	15
127	3
128	2
129	3
130	2
131	4
132	58
133	45
134	174
135	126
136	12
137	9
138	15
139	611
140	963
141	86
142	12
145	2
146	4
147	4
148	11
149	61
150	88
151	126
152	305
153	34
154	13
156	2
165	6
166	4
167	9
168	3
169	405
170	45
171	7
172	2
