Mass Spectrum: Diallylvinylmethylsilane
Formula: C9H16Si
CAS: 119901-87-0
Molecular weight: 152
m/z	intensity
39	37
41	49
43	436
44	80
45	373
46	16
55	191
56	19
57	87
58	46
59	262
60	20
69	118
70	46
71	445
72	53
73	36
81	48
82	21
83	449
84	56
85	328
86	35
87	21
95	170
96	32
97	38
109	189
110	61
111	999
112	147
113	49
125	42
137	18
