Mass Spectrum: 1,2,3,4-Tetrahydroisoquinolin-6,7-diol, 1-phenylmethylene-, 2,6,7-triacetate
Formula: C22H21NO5
CAS: 119995-29-8
Molecular weight: 379
m/z	intensity
41	6
42	32
43	999
44	22
45	6
47	3
48	1
49	14
50	13
51	35
52	13
53	13
54	3
55	18
56	6
57	12
58	1
60	5
61	1
62	3
63	18
64	6
65	19
66	4
67	10
68	3
69	7
70	2
71	6
72	1
73	4
74	3
75	7
76	9
77	54
78	35
79	10
80	2
81	4
82	2
83	4
84	10
85	3
86	6
87	3
88	4
89	28
90	12
91	54
92	5
93	2
94	2
95	3
96	1
97	3
98	2
99	2
100	0
101	8
102	15
103	14
104	13
105	16
106	18
107	6
108	0
109	1
110	0
111	1
113	3
114	4
115	28
116	15
117	14
118	75
119	8
120	2
121	2
122	7
123	4
124	10
125	2
126	8
127	17
128	18
129	8
130	15
131	5
132	2
133	3
134	3
135	5
136	4
137	5
138	2
139	23
140	10
141	10
142	2
143	4
144	3
145	0
146	5
147	9
148	6
149	8
150	9
151	20
152	42
153	16
154	11
155	5
156	7
157	1
158	0
159	0
160	3
161	3
162	45
163	16
164	13
165	77
166	26
167	31
168	10
169	2
170	0
174	3
175	5
176	35
177	212
178	170
179	59
180	43
181	20
182	6
183	1
188	2
189	12
190	11
191	25
192	20
193	24
194	57
195	16
196	7
197	3
201	0
202	3
203	8
204	69
205	50
206	171
207	43
208	10
209	5
210	6
211	2
212	2
216	4
217	16
218	21
219	31
220	430
221	70
222	57
223	27
224	29
225	9
226	1
232	12
233	28
234	76
235	41
236	77
237	21
238	14
239	4
246	4
247	0
248	4
249	19
250	63
251	75
252	508
253	727
254	128
255	14
256	1
260	27
261	5
262	242
263	35
264	8
265	2
266	4
267	3
276	3
277	2
278	17
279	4
280	13
281	3
292	3
293	8
294	226
295	776
296	158
297	20
298	2
302	21
303	3
308	3
309	4
320	10
321	2
322	17
323	3
335	0
336	53
337	267
338	61
339	9
351	2
362	2
364	4
365	0
378	10
379	774
380	202
381	34
382	3
