Mass Spectrum: 8-Azabicyclo[3.2.1]octan-3-ol, 8-methyl-, endo-
Formula: C8H15NO
CAS: 120-29-6
Molecular weight: 141
m/z	intensity
26	14
27	99
28	49
29	53
30	55
31	15
37	3
38	8
39	106
40	19
41	148
42	513
43	65
44	119
45	9
50	8
51	17
52	12
53	40
54	62
55	177
56	112
57	233
58	42
59	3
63	5
65	23
66	13
67	163
68	120
69	32
70	100
71	13
72	7
77	16
78	9
79	18
80	35
81	59
82	999
83	789
84	95
85	12
86	10
91	14
92	4
93	24
94	104
95	41
96	780
97	224
98	29
99	3
106	3
108	9
109	6
110	8
112	129
113	181
114	12
122	15
123	4
124	341
125	30
126	16
128	3
140	15
141	298
142	28
