Mass Spectrum: Catechol
Formula: C6H6O2
CAS: 120-80-9
Molecular weight: 110
m/z	intensity
13	1
14	4
15	3
17	1
18	35
25	6
26	32
27	97
28	9
29	29
30	2
31	8
32	10
36	3
37	20
38	43
39	71
40	6
41	4
42	9
43	7
46	10
48	2
49	10
50	36
51	43
52	32
53	70
54	49
55	54
56	3
60	2
61	8
62	17
63	130
64	326
65	21
66	6
67	2
68	3
69	3
71	1
74	2
77	3
79	5
80	4
81	106
82	67
83	4
91	1
92	97
93	7
94	1
109	23
110	999
111	65
112	7
