Mass Spectrum: Benzenemethanol, .alpha.-methyl-, propanoate
Formula: C11H14O2
CAS: 120-45-6
Molecular weight: 178
m/z	intensity
26	18
27	142
28	37
29	267
30	7
31	1
37	2
38	9
39	64
40	6
41	9
42	5
43	121
44	4
45	11
49	1
50	60
51	174
52	47
53	23
54	2
55	10
56	8
57	549
58	20
59	1
61	2
62	11
63	39
64	8
65	28
66	4
67	1
71	1
73	2
74	16
75	23
76	23
77	356
78	190
79	209
80	15
81	2
84	3
87	2
89	18
90	5
91	20
92	2
93	4
94	3
101	4
102	24
103	158
104	756
105	999
106	88
107	116
108	10
119	2
121	64
122	643
123	60
124	3
163	4
178	203
179	27
180	2
