Mass Spectrum: 1-Heptadecen-7,10-dione
Formula: C17H30O2
CAS: 120090-98-4
Molecular weight: 266
m/z	intensity
41	446
42	96
43	385
44	29
45	7
46	1
47	0
48	3
49	3
50	3
51	9
52	6
53	81
54	42
55	999
56	134
57	871
58	51
59	14
60	1
61	2
62	1
63	2
65	22
66	19
67	289
68	83
69	261
70	68
71	438
72	73
73	16
74	1
75	1
76	1
77	19
78	6
79	74
80	21
81	197
82	69
83	469
84	70
85	156
86	10
87	6
90	1
91	31
92	8
93	97
94	101
95	139
96	30
97	99
98	210
99	159
100	11
101	8
102	0
103	1
104	3
105	51
106	23
107	262
108	55
109	131
110	110
111	304
112	39
113	26
114	561
115	44
116	4
117	3
118	9
119	17
120	10
121	102
122	138
123	120
124	84
125	67
126	27
127	617
128	56
129	5
130	0
131	41
132	5
133	2
134	0
135	20
136	276
137	34
138	9
139	169
140	91
141	28
142	16
143	3
144	0
145	4
146	3
147	45
148	7
149	86
150	10
151	3
152	1
153	33
154	210
155	287
156	56
157	6
158	1
159	1
160	0
161	1
162	1
163	4
164	26
165	14
166	1
167	25
168	10
169	15
170	3
171	0
172	0
174	1
175	0
176	0
177	3
179	4
180	3
181	3
182	51
183	112
184	13
185	2
186	0
187	0
189	0
190	0
192	1
193	3
194	0
195	22
196	4
197	4
198	230
199	32
200	3
201	0
202	0
203	0
204	0
205	1
206	1
207	0
208	0
209	3
210	1
211	123
212	16
213	1
214	0
215	0
216	0
217	1
218	0
219	1
220	0
221	0
222	0
223	4
224	2
225	12
226	2
227	0
228	0
230	1
231	0
233	0
234	1
235	0
236	0
237	11
238	3
239	0
241	0
242	0
243	0
245	0
246	0
247	0
248	3
249	1
250	0
251	1
252	0
253	0
254	0
256	0
258	0
261	0
264	0
265	1
266	14
267	6
268	1
