Mass Spectrum: Chroman-4-ol, 7-(4-chlorobenzyloxy)-2,2-dimethyl-
Formula: C18H19ClO3
CAS: 120046-40-4
Molecular weight: 318
m/z	intensity
33	0
34	0
35	0
36	2
37	1
38	7
39	58
40	14
41	42
42	5
43	39
44	10
45	1
49	1
50	10
51	25
52	10
53	25
54	3
55	30
56	13
57	10
59	12
60	1
61	1
62	10
63	47
64	17
65	45
66	5
67	6
68	4
69	18
70	2
71	2
72	2
73	8
74	3
75	11
76	6
77	27
78	11
79	11
80	4
81	14
82	3
83	10
84	2
85	3
86	1
87	2
89	115
90	42
91	20
92	9
93	12
94	2
95	4
96	1
97	2
99	32
100	2
101	11
102	3
103	7
104	4
105	5
106	2
107	9
108	7
109	7
110	4
111	4
112	1
113	2
115	9
116	2
117	3
118	2
119	3
120	2
121	3
122	4
123	9
125	999
126	87
127	311
128	27
129	4
130	1
131	5
132	12
133	3
134	2
135	4
136	4
137	9
138	4
139	6
140	2
141	3
142	1
143	0
144	5
145	2
146	0
147	5
148	1
149	3
150	6
151	6
152	3
153	1
154	0
155	0
157	0
158	0
159	1
160	8
161	6
162	1
163	1
164	1
165	4
166	0
167	1
168	0
169	0
170	0
171	0
172	0
173	0
175	7
176	4
177	2
178	1
179	0
180	0
181	2
182	0
185	2
187	0
189	0
191	1
192	1
193	3
194	1
197	1
198	0
199	1
203	0
205	1
206	0
207	1
209	1
215	1
216	2
217	1
218	1
219	0
220	0
221	0
222	0
223	0
225	0
227	12
228	1
229	0
231	0
233	11
234	5
235	4
236	1
237	0
243	0
244	2
245	1
246	1
247	1
248	0
249	0
250	0
251	0
256	0
257	3
258	0
259	2
260	2
261	6
262	34
263	33
264	15
265	11
266	2
267	0
271	0
272	0
274	0
275	0
281	0
282	0
283	2
285	136
286	24
287	43
288	8
289	0
300	21
301	8
302	8
303	3
304	0
315	0
316	5
318	166
319	33
320	51
321	9
322	1
