Mass Spectrum: 1,4,4a,8a-Tetrahydro-1,4-methanonaphthalene-5,8-dione
Formula: C11H10O2
CAS: 1200-89-1
Molecular weight: 174
m/z	intensity
25	23
26	169
27	44
29	4
31	53
33	20
36	13
37	79
38	124
39	374
40	319
41	17
43	2
48	4
49	20
50	44
51	48
52	68
53	61
54	249
55	13
60	16
61	58
62	73
63	95
64	41
65	442
66	999
67	64
68	3
79	4
80	94
81	10
82	124
83	6
91	9
92	3
108	287
109	25
110	19
111	2
115	2
117	5
131	3
145	3
146	4
174	19
175	3
