Mass Spectrum: Donepezil
Formula: C24H29NO3
CAS: 120014-06-4
Molecular weight: 379
m/z	intensity
42	55
43	8
44	30
45	2
50	4
51	9
52	3
53	8
54	6
55	34
56	26
57	4
58	2
62	1
63	9
64	5
65	67
66	5
67	11
68	9
69	13
70	6
71	1
74	1
75	2
76	4
77	27
78	11
79	13
80	11
81	8
82	41
83	6
84	75
85	6
88	1
89	22
90	18
91	999
92	112
93	11
94	12
95	35
96	49
97	8
98	48
99	3
101	2
102	8
103	21
104	19
105	26
106	42
107	13
108	5
109	2
110	11
111	1
112	5
113	1
114	1
115	32
116	10
117	20
118	39
119	50
120	70
121	13
122	2
127	5
128	11
129	11
130	10
131	32
132	100
133	39
134	14
135	5
136	4
137	2
138	1
139	1
141	5
142	2
143	5
144	12
145	12
146	108
147	26
148	9
149	5
150	6
151	41
152	6
153	2
154	1
155	2
156	1
157	5
158	17
159	86
160	50
161	47
162	9
163	11
164	2
165	5
166	1
167	1
168	1
169	1
170	4
171	4
172	165
173	33
174	129
175	263
176	45
177	27
178	6
179	4
180	1
181	1
182	1
183	1
184	2
185	26
186	27
187	15
188	122
189	35
190	15
191	22
192	75
193	10
194	1
195	1
196	2
197	1
198	1
199	1
200	3
201	5
202	4
203	9
204	9
205	33
206	5
207	1
209	1
210	1
211	2
212	3
213	2
214	2
215	3
216	3
217	6
218	3
219	1
226	1
227	3
228	6
229	4
230	2
231	4
232	3
233	4
239	1
241	3
242	3
243	44
244	9
245	3
246	3
253	1
254	1
256	1
257	1
258	1
259	5
260	3
270	10
271	5
272	3
273	1
274	1
286	1
288	248
289	47
290	6
302	3
362	3
363	1
364	5
365	1
378	15
379	60
380	17
381	2
