Mass Spectrum: 2(1H)-Quinazolinone, 6-chloro-3-ethyl-4-hydroxy-3,4-dihydro-4-phenyl-, hydrazone
Formula: C16H17ClN4O
CAS: 120195-14-4
Molecular weight: 316
m/z	intensity
13	6
14	9
15	55
16	33
17	88
18	227
26	27
27	327
28	238
29	558
30	77
31	81
32	32
35	9
36	15
37	10
38	27
39	97
40	17
41	60
42	96
43	123
44	295
45	16
46	33
49	18
50	95
51	332
52	72
53	28
54	11
55	33
56	23
57	74
58	18
59	7
60	6
61	15
62	47
63	115
64	40
65	53
66	18
67	8
68	5
69	30
70	10
71	17
72	4
73	40
74	66
75	164
76	112
77	999
78	106
79	26
80	8
81	13
82	20
83	19
84	17
85	108
86	49
87	72
88	69
89	79
90	67
91	51
92	31
93	21
94	12
96	28
97	21
98	41
99	66
100	83
101	52
102	98
103	76
104	173
105	222
106	33
107	10
108	11
109	24
110	68
111	67
112	38
113	51
114	42
115	61
117	106
119	76
120	34
121	51
122	27
124	302
125	84
126	203
127	87
128	51
129	26
130	17
131	14
132	14
134	26
135	22
136	67
137	48
138	75
139	58
140	53
141	48
143	18
144	8
145	4
147	7
148	18
149	60
150	107
151	225
152	185
153	92
154	69
155	20
156	20
157	3
158	6
159	5
160	4
161	12
162	27
163	139
164	103
165	107
166	65
167	37
168	17
169	11
170	3
171	2
173	6
174	9
175	24
176	68
177	192
178	127
179	180
180	52
181	56
182	12
183	7
185	9
186	13
187	6
188	17
189	20
190	38
191	40
192	52
193	22
194	42
195	23
196	13
197	8
198	5
199	19
200	12
201	17
202	32
203	69
204	71
205	251
206	114
207	90
208	21
209	31
210	9
211	142
212	28
213	65
214	72
215	18
216	29
217	27
218	60
219	88
220	190
221	39
222	36
223	9
224	16
225	8
226	13
227	18
228	94
229	56
230	99
231	55
232	43
233	32
234	104
235	21
236	4
237	13
238	10
239	226
240	302
241	164
242	178
243	59
244	33
245	14
246	17
247	21
248	8
249	2
250	2
251	1
252	14
253	28
254	127
255	188
256	98
257	189
258	42
259	45
260	8
261	2
262	6
263	6
264	2
265	2
266	8
268	324
269	111
270	147
271	56
272	17
273	10
274	1
280	70
282	827
283	463
284	339
285	355
286	60
287	75
288	14
289	1
293	1
294	1
295	4
296	5
297	176
298	201
299	116
300	75
301	21
302	4
315	5
316	235
317	46
318	82
319	13
320	1
