Mass Spectrum: Cyazofamid
Formula: C13H13ClN4O2S
CAS: 120116-88-3
Molecular weight: 324
m/z	intensity
15	5
27	9
30	2
38	4
39	12
40	3
41	2
42	61
43	25
44	67
45	9
46	1
47	14
48	7
49	6
50	7
51	25
52	9
53	10
56	2
62	6
63	21
64	32
65	17
66	3
67	3
70	2
74	8
75	21
76	23
77	106
78	7
79	3
82	16
86	4
87	6
88	6
89	23
90	12
91	17
92	14
96	4
98	2
99	13
100	13
101	24
102	52
103	186
104	21
105	3
106	1
108	999
109	33
110	55
111	5
112	4
114	6
116	26
117	15
118	5
124	2
127	9
128	20
130	13
132	11
137	12
139	5
140	4
143	11
149	2
155	97
156	17
157	5
164	23
165	3
166	8
170	3
173	5
174	1
180	13
181	7
182	14
184	20
185	4
189	8
216	377
217	145
218	129
219	57
220	12
225	32
226	9
245	10
259	6
260	2
322	1
323	2
324	409
325	68
326	165
327	26
328	12
329	2
