Mass Spectrum: 16-Deoxo-5,6-dihydrokryptogenin diacetate
Formula: C31H50O5
CAS: 120174-39-2
Molecular weight: 502
m/z	intensity
41	171
43	999
44	4
45	20
49	12
51	5
53	31
55	403
56	54
57	68
58	1
59	4
61	20
65	11
67	216
69	327
70	15
71	22
73	86
77	39
79	152
81	403
82	36
83	56
84	18
85	20
86	4
91	108
93	239
95	279
97	322
98	13
99	29
100	1
101	3
103	5
105	117
107	352
109	177
110	9
111	25
113	61
115	916
116	28
117	33
119	82
121	162
122	11
123	76
126	443
127	32
128	9
129	4
131	31
133	77
135	153
136	19
137	21
139	38
140	6
143	13
145	53
147	135
149	92
151	20
152	29
153	58
154	1
157	54
159	36
161	76
163	58
165	70
166	14
167	6
169	3
171	4
173	25
175	51
176	10
177	20
178	11
179	4
186	129
187	26
189	47
191	56
192	6
199	13
201	30
203	40
205	2
211	1
213	17
215	115
216	27
217	29
218	5
219	1
225	1
227	10
229	24
230	27
231	9
239	4
241	19
242	3
243	4
255	14
256	3
257	35
259	2
269	4
271	18
273	1
275	10
285	431
286	92
287	3
288	3
290	12
295	7
301	9
302	1
313	6
314	10
315	10
316	9
328	1
330	14
344	1
345	30
346	5
355	5
367	7
372	6
373	53
374	13
382	3
383	1
401	3
424	8
427	12
442	47
443	38
444	9
502	7
503	2
