Mass Spectrum: N-Chloro-2,2-bis(trifluoromethyl)aziridine
Formula: C4H2ClF6N
CAS: 120129-41-1
Molecular weight: 213
m/z	intensity
33	893
34	10
40	61
50	227
51	170
52	11
64	240
65	9
69	999
70	96
71	9
78	160
79	11
90	70
91	9
95	99
96	9
109	406
110	15
128	739
129	28
158	38
159	442
160	17
178	726
179	36
213	125
214	6
215	42
216	2
