Mass Spectrum: 2,5-Diphenyl-4,5-dihydrooxazole-4-carboxylic acid, methyl ester
Formula: C17H15NO3
CAS: 120201-88-9
Molecular weight: 281
m/z	intensity
25	5
27	18
28	30
29	10
30	2
31	5
38	3
39	8
40	46
41	4
42	10
43	16
44	5
45	10
46	34
47	28
48	6
49	42
50	43
51	161
52	18
53	2
55	3
56	4
57	6
59	13
61	2
62	15
63	65
64	16
65	45
66	3
69	3
71	2
74	10
75	16
76	41
77	620
78	53
79	4
82	3
83	3
84	12
86	8
87	5
88	55
89	127
90	55
91	516
92	41
93	3
97	2
102	7
103	40
104	34
105	999
106	86
107	5
111	45
114	2
115	5
116	62
117	71
118	29
119	577
120	182
121	49
122	5
130	3
131	7
132	48
133	5
134	5
144	4
145	6
146	36
147	100
148	12
149	12
160	6
161	2
162	3
165	12
166	5
167	2
175	621
176	77
177	8
178	4
179	2
192	2
193	3
194	13
195	2
204	2
205	2
220	3
221	8
222	561
223	96
224	9
249	5
281	22
282	6
