Mass Spectrum: Butanoic acid, 4-[2-[4-(4-methoxy-1,4-dioxobutyl)phenyl]ethylphenyl]-, methyl ester
Formula: C24H26O6
CAS: 120209-25-8
Molecular weight: 410
m/z	intensity
33	3
34	3
36	1
38	1
39	20
40	47
41	15
42	7
43	16
44	29
45	16
46	0
48	1
50	5
51	14
52	4
53	5
55	131
56	8
57	14
59	79
60	2
61	0
62	3
63	20
64	15
65	16
67	3
68	1
69	3
70	3
71	4
72	1
73	1
74	2
75	5
76	35
77	36
78	14
79	5
80	0
81	1
82	5
83	6
84	3
85	1
87	23
89	182
90	375
91	111
92	6
93	1
94	1
95	2
96	6
97	2
98	1
99	1
101	4
102	11
103	55
104	51
105	26
106	2
107	6
108	1
110	3
111	2
112	2
113	3
115	124
117	349
118	999
121	21
122	2
123	3
124	2
125	3
126	3
127	7
128	17
129	21
130	6
131	40
132	26
133	12
134	5
135	3
136	0
137	1
138	0
139	4
140	1
141	4
142	1
143	2
144	4
145	45
146	147
148	3
149	17
150	5
151	6
152	11
153	5
155	2
156	1
157	6
158	1
159	14
160	4
161	6
162	4
163	10
164	4
165	19
166	4
167	1
169	1
170	1
171	4
172	3
173	36
174	61
175	12
176	19
177	19
178	43
179	18
180	12
181	3
182	0
185	2
186	0
187	5
188	2
189	5
190	2
191	16
192	3
193	2
194	0
195	0
199	0
200	0
201	0
202	2
203	4
205	260
206	42
207	14
208	43
209	38
210	6
211	0
212	0
214	0
215	1
216	0
217	1
218	1
219	1
220	0
221	0
228	0
229	0
231	0
232	2
233	2
234	2
235	3
236	2
237	2
238	0
239	1
243	1
244	0
245	1
247	5
248	0
249	1
251	1
259	0
260	0
261	2
263	207
264	44
265	12
267	39
268	6
269	0
273	2
274	0
277	0
279	0
283	0
287	1
288	1
289	5
291	602
292	123
293	16
294	2
295	3
296	6
297	1
301	1
305	0
317	0
318	2
319	15
320	4
321	5
323	395
324	86
325	11
326	1
345	0
346	5
347	64
348	15
349	2
350	0
378	2
379	21
380	4
381	0
410	39
411	9
412	1
