Mass Spectrum: 4-Chloro-2,6-dimethylamino-pyrimidine
Formula: C8H13ClN4
CAS: 1202-22-8
Molecular weight: 200
m/z	intensity
26	46
27	126
28	37
29	59
30	106
31	3
32	1
35	19
36	9
37	13
38	26
39	65
40	94
41	152
42	999
43	175
44	589
45	19
46	6
47	11
48	3
49	18
50	5
51	59
52	201
53	167
54	162
55	107
56	39
57	13
58	10
59	1
61	11
62	60
63	7
64	28
65	19
66	68
67	79
68	103
69	74
70	17
71	21
72	1
73	3
74	8
75	10
76	33
77	44
78	31
79	140
80	304
81	229
82	50
83	14
85	22
86	43
87	8
88	15
89	4
90	4
91	23
92	48
93	94
95	690
96	98
97	11
98	1
100	25
101	10
102	4
103	4
104	11
105	20
106	114
107	23
108	24
109	18
110	4
111	2
112	2
113	7
114	13
115	13
116	6
117	5
118	4
120	47
122	363
123	33
124	7
125	1
126	1
128	41
129	25
130	20
131	12
132	4
133	3
134	16
135	16
136	12
137	5
138	5
140	2
142	66
143	10
144	23
145	6
146	1
147	2
148	2
149	14
150	7
151	1
154	1
155	5
156	27
157	112
158	29
159	35
160	7
161	0
163	7
165	19
166	2
167	0
169	24
171	582
172	51
173	185
174	16
175	0
180	1
181	2
183	10
185	439
186	40
187	137
188	10
189	0
197	1
200	279
201	56
202	90
203	15
204	0
