Mass Spectrum: 3,3'-Isopropylidenebis(1,5,8,11-tetraoxacyclotridecane)
Formula: C21H40O8
CAS: 120343-89-7
Molecular weight: 420
m/z	intensity
53	56
54	22
55	250
56	61
57	156
58	300
59	444
60	39
61	25
63	31
65	83
67	216
68	61
69	556
70	94
71	122
72	100
73	556
74	32
75	100
76	23
77	128
78	17
79	83
80	23
81	244
82	167
83	161
84	129
85	94
86	78
87	433
88	100
89	999
90	78
91	367
92	44
93	106
94	46
95	144
96	72
97	83
98	50
99	89
100	31
101	89
102	39
103	167
104	18
105	78
106	19
107	144
108	89
109	150
110	32
111	47
112	14
113	32
114	25
115	50
116	17
117	67
118	6
119	67
120	150
121	294
122	72
123	111
124	33
125	67
126	17
127	36
128	17
129	29
131	46
132	12
133	722
134	56
135	34
136	56
137	133
138	56
139	94
140	22
141	29
151	94
152	19
153	22
154	13
155	217
156	29
157	22
163	106
164	17
165	23
166	8
167	33
168	10
169	21
181	23
182	18
183	30
184	19
185	16
186	12
187	19
188	15
189	44
190	8
199	206
200	34
201	18
202	23
203	11
211	19
213	17
217	31
227	32
228	7
229	32
230	30
231	39
232	7
241	13
242	8
243	25
244	14
245	11
255	61
256	12
257	61
258	17
259	11
270	67
271	29
272	8
273	11
287	22
288	6
289	7
405	8
406	3
420	3
421	3
422	3
