Mass Spectrum: 2-Bromomethyl-3,4,5,6-tetramethoxytetrahydropyran
Formula: C10H19BrO5
CAS: 120333-25-7
Molecular weight: 298
m/z	intensity
25	0
26	3
27	51
28	14
29	60
30	6
31	28
33	20
34	0
36	0
37	0
38	1
39	34
40	7
41	158
42	18
43	47
44	10
45	250
46	5
47	18
48	0
50	0
51	3
52	1
53	19
54	5
55	24
56	12
57	16
58	9
59	39
60	1
61	17
62	0
63	0
64	0
65	4
66	2
67	7
68	6
69	21
70	3
71	460
72	23
73	248
74	33
75	286
76	9
77	3
78	0
79	1
80	0
81	9
82	3
83	5
84	19
85	24
86	3
87	30
88	999
89	88
90	7
91	1
92	0
93	3
94	0
95	12
96	16
97	12
98	8
99	24
100	5
101	939
102	58
103	18
104	0
105	1
106	0
107	4
108	0
109	3
110	0
111	12
112	4
113	5
114	11
115	7
116	2
117	4
118	2
119	12
120	0
121	6
122	0
123	5
124	1
125	2
126	0
127	28
128	3
129	5
130	1
131	44
132	3
133	1
134	0
135	2
136	0
137	9
138	0
139	7
140	0
141	0
142	0
143	1
144	2
145	10
146	0
147	0
148	0
149	4
150	1
151	4
152	1
153	1
154	0
155	4
156	1
157	1
158	0
159	4
160	0
161	0
162	0
163	4
164	0
165	4
166	0
167	4
168	0
169	4
170	0
171	0
173	0
174	0
175	2
176	1
177	2
178	0
179	3
180	0
181	3
182	0
183	1
187	6
188	0
189	0
191	6
192	0
193	7
194	0
195	1
196	0
197	0
198	0
199	0
202	0
203	0
205	0
207	6
208	0
209	7
210	0
211	1
212	0
219	3
220	0
223	0
224	0
225	0
234	0
235	4
236	0
237	4
238	0
239	0
255	0
257	0
267	11
268	1
269	11
270	1
