Mass Spectrum: 3,3'-Methylenebis(1,5,8,11-tetraoxacyclotridecane)
Formula: C19H36O8
CAS: 120343-85-3
Molecular weight: 392
m/z	intensity
53	115
54	145
55	460
56	90
57	315
58	235
59	460
60	20
61	18
66	35
67	300
68	130
69	180
70	80
71	210
72	115
73	450
74	30
75	100
77	70
78	32
79	185
80	200
81	370
82	90
83	170
84	55
85	70
86	70
87	325
88	130
89	999
90	100
91	55
92	200
93	315
94	105
95	200
96	85
97	115
98	50
99	70
100	45
101	125
102	23
103	120
105	35
106	20
107	60
108	110
109	195
110	185
111	195
112	33
113	55
114	35
115	65
117	55
118	31
119	50
123	55
124	23
125	38
126	30
127	105
128	50
129	45
131	24
133	550
134	50
135	25
136	55
137	30
139	30
140	13
141	39
151	135
152	33
153	40
154	45
155	55
171	40
172	13
173	11
174	10
187	15
188	18
189	28
198	19
199	25
201	12
202	20
203	8
215	16
216	10
217	8
227	11
228	11
229	75
230	13
231	4
241	11
242	125
243	33
244	6
255	14
259	19
392	4
