Mass Spectrum: Vinyldimethyl(hydroxymethyl)silane
Formula: C5H12OSi
CAS: 120491-40-9
Molecular weight: 116
m/z	intensity
43	225
44	150
45	240
46	18
47	97
55	91
56	9
57	42
58	86
59	999
60	102
61	395
62	30
63	18
67	8
69	22
70	31
71	33
72	9
73	99
74	21
75	330
76	29
77	15
83	21
84	19
85	611
86	58
87	38
107	10
109	62
