Mass Spectrum: (Carbomethoxyaminomethyl)trivinylsilane
Formula: C9H15NO2Si
CAS: 120491-48-7
Molecular weight: 197
m/z	intensity
55	455
56	17
57	367
58	21
59	228
60	20
81	76
82	8
83	999
84	68
85	22
109	527
110	68
111	8
113	278
114	32
115	6
133	31
134	3
170	118
171	20
