Mass Spectrum: 2-Cyclohexen-1-ol, 3-methyl-6-(1-methylethyl)-, acetate
Formula: C12H20O2
CAS: 1204-30-4
Molecular weight: 196
m/z	intensity
26	2
27	31
29	18
38	4
39	82
40	17
41	153
42	19
43	371
44	7
45	26
50	14
51	41
52	20
53	76
54	10
55	70
58	9
59	7
60	19
61	11
62	7
63	20
64	6
65	73
66	15
67	97
68	47
71	60
72	3
75	4
77	255
78	52
79	206
80	61
81	94
86	19
87	3
89	9
90	3
91	344
92	242
93	999
94	100
102	5
103	25
104	12
105	102
106	23
107	108
108	40
110	21
111	191
112	15
115	20
116	4
117	22
118	6
119	76
120	13
121	828
122	86
123	7
125	3
134	18
136	655
137	80
138	5
139	4
153	9
154	5
