Mass Spectrum: Vinyldimethyl(carbomethoxyaminomethyl)silane
Formula: C7H15NO2Si
CAS: 120491-50-1
Molecular weight: 173
m/z	intensity
43	147
44	124
45	117
55	71
56	30
57	49
58	97
59	999
60	82
61	76
69	20
70	62
71	60
72	39
73	17
74	8
75	208
76	20
77	17
83	40
84	28
85	721
86	307
87	57
88	45
89	598
90	59
91	30
98	177
99	18
100	30
101	27
102	50
113	30
114	77
115	58
116	16
132	58
133	6
142	37
143	9
146	67
147	8
158	87
159	9
172	5
173	4
