Mass Spectrum: Cyclopropaneethanol, 2-methylene-
Formula: C6H10O
CAS: 120477-28-3
Molecular weight: 98
m/z	intensity
26	52
27	345
28	92
29	108
30	8
31	654
32	16
33	1
36	1
37	26
38	68
39	732
40	257
41	868
42	210
43	132
44	28
45	22
46	0
47	1
48	0
49	9
50	72
51	112
52	81
53	405
54	79
55	236
56	353
57	106
58	11
59	3
60	1
61	11
62	17
63	28
64	5
65	156
66	45
67	875
68	999
69	528
70	85
71	22
72	1
73	3
74	4
75	7
76	0
77	87
78	12
79	326
80	91
81	18
82	3
83	200
84	14
85	3
86	1
87	1
93	1
94	0
95	4
96	1
97	43
98	3
99	1
