Mass Spectrum: (N-Methylcarbamoyloxymethyl)trivinylsilane
Formula: C9H15NO2Si
CAS: 120491-41-0
Molecular weight: 197
m/z	intensity
57	328
58	346
59	50
60	167
61	11
83	418
84	101
85	27
86	156
87	8
109	38
110	21
112	999
113	108
114	38
170	11
