Mass Spectrum: Divinylmethyl(N-methylcarbamoyloxymethyl)silane
Formula: C8H15NO2Si
CAS: 120491-42-1
Molecular weight: 185
m/z	intensity
57	17
58	40
71	346
72	57
73	28
74	145
75	8
83	37
84	20
85	31
86	18
87	29
97	32
98	90
100	999
101	118
102	47
112	61
126	20
158	12
