Mass Spectrum: Allylamine, N-tert-butyldimethylsilyl-
Formula: C9H21NSi
CAS: 120420-05-5
Molecular weight: 171
m/z	intensity
27	4
28	4
29	11
30	2
31	6
39	10
40	1
41	21
42	4
43	22
44	12
45	16
46	4
47	1
53	3
54	4
55	9
56	12
57	14
58	20
59	109
60	58
61	7
62	2
66	1
67	2
68	1
69	3
70	7
71	4
72	8
73	67
74	30
75	4
76	1
81	1
82	13
83	6
84	13
85	89
86	37
87	9
88	6
89	1
95	2
96	11
97	22
98	115
99	23
100	19
101	3
102	1
111	1
112	17
114	999
115	113
116	40
144	5
145	1
156	38
157	6
170	2
171	38
172	6
