Mass Spectrum: Vinyldimethyl(N-methylcarbamoyloxymethyl)silane
Formula: C7H15NO2Si
CAS: 120491-43-2
Molecular weight: 173
m/z	intensity
57	28
58	40
59	537
60	56
61	48
71	76
72	58
73	35
74	60
75	101
85	67
86	50
87	18
88	999
89	107
90	46
98	20
99	31
100	176
101	35
102	21
105	50
107	6
114	72
132	20
146	30
158	41
