Mass Spectrum: 1H-Cyclopenta[e]-1,2,4-triazin-3(2H)-one, 4,4a,5,6,7,7a-hexahydro-4a-methoxy-1-phenyl-
Formula: C13H17N3O2
CAS: 120422-42-6
Molecular weight: 247
m/z	intensity
55	400
65	200
67	400
77	999
82	500
93	400
97	200
98	300
104	300
107	700
108	400
117	200
118	200
130	300
132	300
169	300
171	200
172	200
215	450
247	400
248	60
249	10
