Mass Spectrum: 1(2H)-Pentalenone, hexahydro-4-methylene-5-(trimethylsilyl)-
Formula: C12H20OSi
CAS: 120587-87-3
Molecular weight: 208
m/z	intensity
27	69
28	18
29	35
30	2
31	26
38	3
39	46
41	28
42	15
43	90
44	29
45	176
46	13
47	8
50	9
51	24
52	13
53	20
54	3
55	33
56	8
57	12
58	19
59	90
60	6
61	10
62	3
63	8
65	16
66	4
67	7
68	2
69	8
70	4
71	6
72	11
73	999
74	86
75	182
76	15
77	62
78	26
79	38
80	5
81	4
83	10
85	8
89	2
91	56
92	25
93	5
95	8
96	3
97	6
99	4
101	23
102	2
103	7
105	10
106	3
107	3
109	5
111	2
115	8
116	2
117	36
118	49
119	21
120	3
121	4
123	3
127	5
129	4
130	2
133	3
134	3
135	8
136	2
137	6
139	3
147	2
149	6
151	6
152	2
153	8
154	12
155	361
156	50
157	18
163	1
164	2
165	16
166	5
167	14
168	6
169	2
177	2
179	10
180	28
181	19
182	5
193	86
194	16
195	23
196	4
207	32
208	177
209	38
210	14
211	2
