Mass Spectrum: 1(2H)-Pentalenone, hexahydro-5-methyl-4-methylene-
Formula: C10H14O
CAS: 120587-85-1
Molecular weight: 150
m/z	intensity
26	33
27	372
28	36
29	123
30	2
37	8
38	30
39	392
40	68
41	265
42	39
43	22
44	1
45	6
46	8
49	2
50	50
51	154
52	84
53	193
54	54
55	202
56	69
57	117
58	19
59	6
60	4
61	5
62	15
63	45
64	12
65	120
66	60
67	105
68	91
69	19
70	5
71	3
74	9
75	12
76	10
77	305
78	91
79	999
80	153
81	46
82	69
83	261
84	16
85	3
87	3
88	2
89	11
90	9
91	351
92	167
93	625
94	539
95	264
96	52
97	5
103	12
104	9
105	64
106	161
107	250
108	145
109	51
110	5
115	7
116	5
117	94
118	10
119	12
120	4
121	116
122	102
123	13
131	15
132	49
133	21
134	3
135	205
136	20
148	5
149	25
150	570
151	56
152	5
