Mass Spectrum: 1-(Phenylsulfonyamino)-5-methyl-4,5,6,7(1H)-tetrahydrobenzo(d)triazole
Formula: C13H16N4O2S
CAS: 120675-04-9
Molecular weight: 292
m/z	intensity
77	439
81	999
93	98
94	70
95	228
96	40
106	1
109	8
122	9
123	437
125	60
126	100
137	15
141	20
151	8
157	10
199	3
284	3
292	4
293	0
