Mass Spectrum: Cycloheptanone, 2-(2-methylpropylidene)-
Formula: C11H18O
CAS: 120694-89-5
Molecular weight: 166
m/z	intensity
26	27
27	459
29	296
30	6
31	15
37	5
38	19
39	434
40	65
41	941
42	78
43	371
44	6
45	19
50	27
51	79
52	51
53	260
54	127
55	591
56	198
57	102
58	8
59	23
62	8
63	29
64	4
65	101
66	62
67	999
68	132
69	274
70	64
71	58
72	13
73	18
74	5
75	4
77	129
78	38
79	304
80	61
81	658
82	394
83	185
84	40
85	58
86	4
89	4
91	138
92	23
93	245
94	41
95	836
96	151
97	126
98	314
99	19
103	17
105	91
106	22
107	113
108	48
109	220
110	81
111	549
112	367
113	33
115	4
117	4
119	34
120	13
121	14
122	29
123	442
124	133
125	29
131	5
133	71
134	10
135	6
137	350
138	104
139	10
141	12
147	9
148	6
149	5
151	272
152	32
165	54
166	646
167	95
168	6
