Mass Spectrum: Trimethylsilyl octacosanoate
Formula: C31H64O2Si
CAS: 1206693-36-8
Molecular weight: 496
m/z	intensity
27	6
29	26
39	13
41	120
42	31
43	334
44	14
45	30
47	9
53	6
54	16
55	259
56	63
57	343
58	24
59	22
60	5
61	22
67	65
68	24
69	204
70	53
71	173
72	35
73	889
74	82
75	481
76	33
77	22
79	16
80	9
81	66
82	25
83	138
84	42
85	85
86	10
87	7
88	3
89	22
90	3
93	14
94	4
95	61
96	17
97	106
98	56
99	28
100	4
101	11
105	13
106	3
107	13
109	32
110	9
111	58
112	23
113	10
114	3
115	11
116	54
117	999
118	95
119	45
120	4
121	19
123	13
124	5
125	17
126	5
127	6
129	480
130	59
131	93
132	665
133	230
134	45
135	24
137	5
138	3
139	8
140	3
142	3
143	33
144	5
145	567
146	71
147	32
149	9
151	5
153	5
154	5
155	5
157	9
158	3
159	34
160	6
171	26
172	4
173	9
174	11
185	50
186	8
187	42
188	16
199	10
201	114
202	22
203	11
213	9
215	9
219	8
223	4
227	15
228	4
229	9
241	16
242	4
243	15
244	4
255	15
257	15
258	5
269	13
270	3
271	6
283	13
284	3
285	4
297	11
298	4
299	4
311	8
312	3
313	4
325	8
327	7
328	2
339	7
340	3
353	7
355	5
367	5
369	4
381	7
383	3
395	3
397	7
406	2
411	6
423	3
437	28
438	10
439	5
440	3
451	4
453	29
454	11
455	2
467	5
468	2
479	5
480	3
481	454
482	167
483	47
484	11
496	195
497	77
498	23
499	5
