Mass Spectrum: Trimethylsilyl triacontanoate
Formula: C33H68O2Si
CAS: 1206693-37-9
Molecular weight: 524
m/z	intensity
27	4
29	18
39	9
41	106
42	30
43	318
44	15
45	17
47	7
53	5
54	16
55	254
56	72
57	378
58	25
59	15
61	20
67	58
68	24
69	213
70	58
71	208
72	29
73	703
74	66
75	451
76	30
77	21
81	63
82	25
83	151
84	41
85	104
86	10
87	6
89	19
90	5
95	61
96	18
97	122
98	56
99	33
100	3
109	38
110	10
111	68
112	24
113	12
114	2
115	10
116	51
117	999
118	96
119	43
121	17
123	17
125	25
126	6
127	8
128	4
129	475
130	58
131	95
132	677
133	251
134	47
135	24
137	6
139	8
140	3
141	5
143	33
145	606
146	75
153	5
154	6
157	6
159	37
160	7
167	4
171	28
172	5
174	12
185	57
186	9
187	46
188	16
199	9
201	122
202	21
215	9
227	18
241	19
242	4
243	13
257	15
269	15
283	14
299	5
311	11
312	3
313	5
325	8
339	8
381	6
409	5
425	6
426	2
434	2
439	5
440	2
465	31
466	12
467	8
468	3
479	3
481	29
482	12
483	4
495	4
496	2
507	8
508	3
509	448
510	177
511	52
512	11
523	5
524	249
525	100
526	31
527	5
528	1
