Mass Spectrum: 4-(2-Oxo-2-phenylethyl)-2H-1,4-benzothiazin-3(4H)-one
Formula: C16H13NO2S
CAS: 120622-13-1
Molecular weight: 283
m/z	intensity
44	241
45	180
50	69
51	223
63	51
65	163
69	78
77	591
78	112
79	52
89	25
90	25
91	112
105	999
106	118
108	78
109	286
110	42
116	59
117	224
118	60
119	34
121	42
123	33
135	60
136	101
150	995
151	136
152	77
178	399
179	59
180	34
283	778
284	171
285	59
