Mass Spectrum: 5-Tert.butyloxy carboxamido-2,3,3-trimethyl-3H-indole
Formula: C16H22N2O2
CAS: 120724-92-7
Molecular weight: 274
m/z	intensity
12	1
14	2
15	26
16	6
17	21
18	74
26	7
27	74
28	37
29	259
30	9
31	42
32	2
37	3
38	12
39	118
40	22
41	424
42	43
43	53
44	18
45	7
47	1
50	11
51	36
52	29
53	30
54	11
55	33
56	23
57	999
58	43
59	65
60	3
61	2
62	11
63	36
64	17
65	41
66	11
67	9
68	3
69	4
70	3
71	4
72	1
73	4
74	4
75	9
76	11
77	71
78	30
79	42
80	7
81	3
82	2
83	6
84	1
85	3
86	2
87	4
88	5
89	49
90	32
91	47
92	9
93	23
94	4
95	2
97	3
98	1
99	2
100	1
101	7
102	12
103	39
104	19
105	11
106	9
107	3
108	2
111	2
112	2
113	2
114	6
115	41
116	42
117	49
118	30
119	17
120	3
121	3
127	4
128	9
129	9
130	63
131	69
132	53
133	31
134	4
140	3
141	3
142	13
143	15
144	21
145	12
146	15
147	3
149	4
154	2
155	6
156	9
157	33
158	49
159	303
160	38
161	3
167	1
169	2
170	1
171	12
172	10
173	150
174	310
175	40
176	3
177	5
184	4
185	34
186	15
187	3
188	1
190	1
198	1
199	15
200	24
201	67
202	13
203	116
204	14
205	1
215	11
216	3
218	885
219	117
220	13
221	1
262	1
274	91
275	17
276	2
