Mass Spectrum: Cyclohexanecarboxylic acid, 2-(iodomethyl)-, methyl ester, cis-
Formula: C9H15IO2
CAS: 120790-29-6
Molecular weight: 282
m/z	intensity
26	5
27	57
28	10
29	39
30	2
31	6
33	2
36	4
37	1
38	5
39	96
40	21
41	167
42	13
43	18
44	2
45	24
46	2
47	2
50	5
51	13
52	9
53	66
54	61
55	169
56	9
57	8
58	2
59	95
60	3
61	6
62	1
63	4
64	2
65	17
66	12
67	228
68	37
69	24
70	3
71	20
72	1
73	13
74	14
75	9
76	1
77	30
78	6
79	44
80	19
81	139
82	15
83	5
84	2
85	11
87	66
88	4
89	2
91	15
92	2
93	37
94	13
95	999
96	125
97	8
99	8
100	6
101	3
103	7
105	5
107	1
109	2
111	4
112	2
113	9
114	1
121	2
122	1
123	130
124	11
125	3
126	1
127	30
128	48
139	1
140	1
141	5
142	8
147	2
155	550
156	58
157	4
167	3
181	4
187	6
195	0
223	29
224	2
247	1
251	33
252	3
283	0
