Mass Spectrum: Methyl Z-3-bromo-2-chloropropenoate
Formula: C4H4BrClO2
CAS: 120782-28-7
Molecular weight: 198
m/z	intensity
39	18
40	12
42	12
43	9
52	46
53	600
54	55
57	9
58	89
59	436
60	707
61	92
62	243
63	12
69	18
71	9
73	6
76	30
79	58
80	9
81	58
83	18
84	9
87	80
88	113
89	33
90	30
91	18
93	9
94	24
95	12
96	24
97	12
103	12
104	147
105	12
106	141
110	9
119	999
120	30
121	320
122	12
131	27
133	30
135	15
137	12
139	418
140	15
141	572
142	15
143	144
144	15
163	221
164	18
165	215
166	15
167	483
168	15
169	655
170	18
171	166
172	12
198	200
199	15
200	270
201	12
202	64
