Mass Spectrum: Cobalt, dicarbonyl(.eta.5-2,4-cyclopentadien-1-yl)-
Formula: C7H5CoO2
CAS: 12078-25-0
Molecular weight: 180
m/z	intensity
27	4
28	48
29	0
31	0
36	0
37	8
38	21
39	99
40	5
41	0
44	0
49	0
50	2
51	1
56	0
59	445
60	8
61	4
62	16
63	12
64	2
65	22
66	5
67	0
71	6
72	5
73	2
74	2
75	0
76	18
77	0
78	0
83	2
84	34
85	26
86	0
87	73
88	1
90	5
95	2
96	26
97	61
98	197
99	6
101	0
108	1
109	4
110	1
115	5
120	3
121	3
122	5
123	20
124	999
125	48
126	1
129	0
138	0
151	4
152	235
153	15
154	1
180	229
181	18
182	2
