Mass Spectrum: Methyl E-3-bromo-2-chloropropenoate
Formula: C4H4BrClO2
CAS: 120782-27-6
Molecular weight: 198
m/z	intensity
39	15
40	9
42	9
43	21
44	9
52	24
53	999
54	55
58	52
59	419
60	496
61	33
62	163
63	27
65	18
67	21
69	18
71	18
76	30
78	18
79	111
80	18
81	108
83	30
87	49
88	101
89	24
90	40
91	9
94	27
95	9
96	33
97	9
103	12
104	145
105	18
106	138
118	21
119	620
120	37
121	209
122	24
131	15
133	12
135	9
137	9
139	459
140	18
141	614
142	12
143	157
144	12
163	228
164	15
165	219
166	12
167	583
168	15
169	774
170	18
171	194
172	12
198	206
199	15
200	262
201	12
202	70
