Mass Spectrum: Iron, (1,3-butadiene)tricarbonyl-
Formula: C7H6FeO3
CAS: 12078-32-9
Molecular weight: 194
m/z	intensity
25	0
26	7
27	30
28	12
29	0
37	0
38	2
39	28
40	1
41	0
42	0
49	0
50	6
51	10
52	5
53	17
54	27
55	4
56	413
57	61
58	2
59	0
62	0
63	0
65	0
66	0
67	0
68	8
69	12
70	14
71	6
72	0
73	0
78	0
79	3
80	6
81	73
82	76
83	59
84	213
85	12
86	1
91	0
92	1
93	6
94	8
95	18
96	3
97	0
98	0
103	0
104	0
105	4
106	5
107	4
108	107
109	18
110	999
111	74
112	104
113	4
114	1
117	0
118	0
121	0
124	0
128	0
134	0
135	0
136	25
137	5
138	416
139	29
140	4
141	0
156	0
162	0
164	36
165	3
166	627
167	52
168	6
169	0
178	0
191	0
192	13
193	1
194	174
195	19
196	3
197	0
