Mass Spectrum: .alpha.-Pyrrolidone, 5-[3-bromo-1-hexyl]-
Formula: C10H18BrNO
CAS: 120782-03-8
Molecular weight: 247
m/z	intensity
41	191
42	56
43	45
44	23
45	21
46	5
47	116
48	59
49	45
50	26
51	14
52	9
53	78
54	88
55	210
56	234
57	57
58	58
59	24
60	18
61	12
62	15
63	7
64	9
65	35
66	20
67	113
68	136
69	113
70	44
71	15
72	12
73	7
74	3
77	12
78	6
79	45
80	209
81	104
82	90
83	38
84	999
85	54
86	34
87	6
88	45
89	10
91	19
92	5
93	15
94	17
95	16
96	19
97	36
98	28
99	13
100	1
101	0
102	42
103	8
104	2
105	9
106	13
107	20
108	56
109	23
110	140
111	27
112	53
113	18
114	2
115	5
116	21
117	2
119	5
120	1
121	2
122	10
123	4
124	320
125	87
126	10
127	1
128	6
129	2
130	1
135	0
136	6
137	1
138	44
139	8
140	3
141	6
142	11
143	1
145	1
148	1
149	2
150	4
151	1
152	6
153	0
156	2
157	6
158	1
159	0
161	2
163	1
164	14
165	5
166	91
167	195
168	57
169	5
170	2
177	0
178	2
179	1
180	4
181	2
182	1
183	1
184	2
185	5
186	10
187	2
192	8
194	6
198	4
206	1
209	1
216	4
217	1
218	1
220	1
