Mass Spectrum: Propanehydrazide, N2-(3-trifluoromethylphenyl)-
Formula: C10H11F3N2O
CAS: 120773-99-1
Molecular weight: 232
m/z	intensity
33	0
37	3
38	11
39	29
40	0
41	7
42	7
43	48
44	11
45	4
50	16
51	9
52	7
53	0
54	1
55	17
56	18
57	999
58	29
59	2
60	0
61	0
62	2
63	28
64	11
65	4
67	0
68	0
69	6
71	0
72	0
73	0
74	2
75	16
76	3
77	19
78	2
79	0
80	1
81	1
82	0
83	8
84	0
85	0
87	0
88	3
89	0
90	1
91	4
94	0
95	8
96	3
97	0
98	0
99	0
100	1
101	3
102	0
105	0
106	0
107	5
108	0
109	1
110	0
111	0
112	0
113	7
114	6
119	0
120	3
121	0
123	0
124	0
125	10
126	8
127	42
128	8
129	3
132	1
133	8
134	1
135	0
137	0
139	4
140	16
141	1
142	2
143	0
144	1
145	46
146	8
147	0
148	1
149	1
155	1
156	0
157	4
158	2
159	28
160	37
161	28
162	1
173	0
174	5
175	115
176	913
177	88
178	1
179	0
188	0
189	0
190	0
192	0
193	0
195	0
196	0
199	0
204	0
213	17
214	2
217	0
231	2
232	125
233	32
234	3
