Mass Spectrum: Galactose oxime, 6TMS derivative
Formula: C24H61NO6Si6
CAS: 120850-88-6
Molecular weight: 627
m/z	intensity
45	44
59	12
72	12
73	999
74	84
75	104
100	12
101	12
102	12
103	224
104	24
117	72
129	64
130	12
131	24
133	44
147	392
148	64
149	32
157	72
189	52
190	12
191	32
201	12
204	64
205	624
206	124
207	64
217	224
218	152
219	64
220	12
221	12
229	64
230	24
231	12
268	12
277	24
278	12
291	44
292	12
293	44
294	12
305	24
306	12
307	64
308	12
319	712
320	224
321	104
322	24
332	24
