Mass Spectrum: 11-Oxatricyclo[4.3.1.1(2,5)]undec-3-en-10-ol
Formula: C10H14O2
CAS: 120853-85-2
Molecular weight: 166
m/z	intensity
26	19
27	324
28	25
29	276
30	7
31	96
37	6
38	31
39	478
40	98
41	513
42	113
43	132
44	28
45	16
47	4
48	4
50	39
51	129
52	67
53	233
54	69
55	297
56	37
57	385
58	23
59	5
60	5
61	3
62	10
63	42
64	10
65	139
66	142
67	450
68	231
69	231
70	961
71	71
72	6
73	16
74	5
75	11
76	5
77	226
78	267
79	550
80	790
81	999
82	175
83	250
84	64
85	288
86	50
87	124
88	32
89	11
90	9
91	290
92	213
93	85
94	262
95	473
96	116
97	237
98	121
99	11
102	3
103	18
104	86
105	96
106	33
107	222
108	40
109	102
110	62
111	11
112	4
115	29
116	8
117	68
118	64
119	164
120	561
121	120
122	72
123	41
124	12
125	3
128	5
129	22
130	90
131	32
132	6
133	219
134	20
135	46
136	12
137	52
138	70
139	8
146	4
147	85
148	461
149	54
150	2
166	19
167	4
