Mass Spectrum: 9-Borabicyclo[3.3.1]nonane, 9-mercapto-
Formula: C8H15BS
CAS: 120885-91-8
Molecular weight: 154
m/z	intensity
26	31
27	530
29	329
30	9
31	15
33	211
34	479
35	11
36	28
37	130
38	49
39	698
40	180
41	999
42	157
43	118
44	58
45	187
46	6
47	10
48	2
49	17
50	93
51	194
52	84
53	259
54	342
55	497
56	149
57	94
58	154
59	185
60	18
61	25
62	14
63	67
64	66
65	187
66	111
67	714
68	307
69	150
70	133
71	317
72	42
73	29
74	11
75	10
76	59
77	216
78	141
79	217
80	126
81	252
82	353
83	108
84	183
85	213
86	27
87	17
88	10
89	39
90	75
91	253
92	246
93	107
94	17
95	127
96	136
97	115
98	165
99	43
100	13
101	2
102	4
103	8
104	14
105	55
106	19
107	11
108	82
109	29
110	76
111	154
112	263
113	293
114	30
115	19
116	3
117	8
118	25
119	141
120	414
121	110
122	10
123	5
124	24
125	95
126	167
127	16
128	8
131	1
132	2
133	2
134	2
135	2
136	1
139	21
140	10
152	3
153	157
154	556
155	68
156	27
157	2
