Mass Spectrum: Benzenesulfinothioic acid, S-phenyl ester
Formula: C12H10OS2
CAS: 1208-20-4
Molecular weight: 234
m/z	intensity
45	9
50	88
51	291
53	70
65	319
69	110
77	290
97	209
109	380
110	90
125	999
126	90
186	260
234	49
235	10
236	5
