Mass Spectrum: Dihydro-neotigogenin dibenzoate
Formula: C41H54O5
CAS: 120928-66-7
Molecular weight: 626
m/z	intensity
41	54
42	2
43	49
49	2
50	3
51	4
53	3
54	2
55	99
56	7
57	20
67	91
68	20
69	68
70	17
71	6
76	5
77	236
78	18
79	113
80	10
81	191
82	21
83	63
84	34
85	10
86	21
91	88
92	16
93	154
94	32
95	146
96	14
97	29
99	48
104	2
105	999
106	125
107	222
108	63
109	114
110	28
111	15
113	6
117	19
118	5
119	71
120	30
121	104
122	156
123	177
124	11
126	237
127	23
131	36
132	6
133	74
134	22
135	72
136	13
137	6
142	3
143	13
145	54
146	15
147	95
148	19
149	38
151	10
157	6
159	48
160	18
161	116
162	22
163	16
165	28
166	16
173	26
174	6
175	28
176	35
177	17
185	3
187	15
189	10
199	11
201	30
202	2
215	21
216	12
219	6
227	5
229	5
231	11
248	70
249	2
250	3
255	106
256	21
257	10
269	46
270	5
285	34
286	5
377	196
378	54
379	54
380	11
408	2
435	33
436	2
448	9
461	79
462	24
475	48
476	14
489	9
504	62
505	20
611	3
626	2
