Mass Spectrum: Cobalt, [(1,4,5-.eta.)-4-cycloocten-1-yl][(1,2,3,4,5,6-.eta.)-methoxybenzene]-
Formula: C15H21CoO
CAS: 120967-16-0
Molecular weight: 276
m/z	intensity
26	1
27	75
28	20
29	27
30	0
31	0
38	32
39	324
40	22
41	151
42	22
43	29
45	0
50	67
51	121
52	52
53	17
54	179
55	60
57	18
58	9
59	55
60	0
62	13
63	66
64	30
65	474
66	101
67	330
68	54
69	23
70	9
71	15
72	0
73	8
74	21
75	7
76	10
77	221
78	474
79	384
80	225
81	45
82	40
83	23
84	11
85	0
86	10
91	61
92	15
93	201
94	28
95	17
96	3
97	15
98	12
99	0
100	5
101	0
102	0
103	1
105	15
106	0
107	39
108	999
109	97
110	18
111	1
112	13
113	30
114	51
115	2
121	1
124	151
125	9
126	58
127	0
131	0
133	0
135	1
136	15
137	90
138	86
139	0
140	3
147	0
148	2
149	9
150	2
151	9
152	10
153	0
154	0
161	7
162	9
163	10
164	105
165	42
166	71
167	252
168	180
169	12
177	0
178	0
181	0
182	0
189	0
190	0
191	6
193	0
194	0
202	0
208	5
217	2
229	0
231	0
232	5
242	6
243	15
245	2
246	3
247	0
253	0
257	26
258	2
259	34
272	96
273	12
274	265
275	40
276	471
277	77
278	5
