Mass Spectrum: Chromium, bis[(1,2,3,4,5,6-.eta.)-1,1'-biphenyl]-
Formula: C24H20Cr
CAS: 12099-15-9
Molecular weight: 360
m/z	intensity
26	0
27	1
28	4
29	0
38	0
39	4
40	19
41	0
43	0
44	0
45	0
50	55
51	8
52	999
53	116
54	29
55	0
56	0
62	1
63	5
64	5
65	2
66	0
74	2
75	3
76	15
77	8
78	2
79	0
86	0
87	1
88	0
89	2
90	1
91	8
92	3
93	0
98	0
99	0
101	1
102	3
103	1
104	0
113	0
114	0
115	5
116	0
119	0
125	0
126	2
127	3
128	4
129	1
139	2
140	0
141	0
142	0
150	2
151	8
152	28
153	40
154	92
155	13
156	1
165	0
177	0
179	3
180	42
181	4
203	1
204	27
205	22
206	568
207	127
208	26
209	2
358	12
360	245
361	90
362	23
363	3
364	0
