Mass Spectrum: Chromium, tricarbonyl[(1,2,3,4,5,6-.eta.)-1,3,5,7-cyclooctatetraene]-
Formula: C11H8CrO3
CAS: 12093-03-7
Molecular weight: 240
m/z	intensity
39	231
50	221
51	410
52	294
63	101
65	50
77	442
78	915
89	28
91	76
103	726
104	999
115	6
116	5
117	5
130	65
156	105
184	38
212	1
214	2
240	12
