Mass Spectrum: Chromium,(.eta.<6>-benzene)(.eta.<5>-2,4-cyclopentadien-1-yl)-
Formula: C11H11Cr
CAS: 12093-16-2
Molecular weight: 195
m/z	intensity
24	0
26	2
27	7
28	3
29	13
30	0
31	35
37	1
38	2
39	14
40	6
41	3
42	0
43	1
44	0
45	13
49	0
50	28
51	6
52	583
53	63
54	14
59	17
60	0
61	0
62	1
63	2
64	0
65	4
66	3
73	1
74	12
75	1
76	1
77	20
78	20
79	1
88	1
89	4
90	30
91	11
92	2
93	0
98	13
99	0
101	1
102	0
103	2
104	0
114	1
115	48
116	9
117	999
118	161
119	35
120	1
129	0
130	1
131	0
141	0
142	0
192	3
193	30
194	7
195	618
196	132
197	28
198	2
