Mass Spectrum: Cobalt, [(1,4,5,6-.eta.)-5-cyclooctene-1,4-diyl](1,1,1,5,5,5-hexafluoro-2,4-pentanedionato-O,O')-
Formula: C13H13CoF6O2
CAS: 120967-80-8
Molecular weight: 374
m/z	intensity
24	2
26	43
27	284
28	40
29	72
30	8
31	19
36	1
37	18
38	26
39	380
40	73
41	656
42	308
43	58
44	18
45	1
47	11
48	0
49	3
50	20
51	62
52	21
53	79
54	28
55	29
56	1
59	374
60	29
62	1
63	22
64	7
65	120
66	37
67	595
68	32
69	537
70	17
71	44
72	50
73	6
74	18
75	62
76	5
77	163
78	47
79	999
80	125
81	18
82	1
83	0
84	30
85	59
86	39
87	7
89	4
90	1
91	166
92	25
93	44
94	2
95	1
96	4
97	16
98	66
99	66
100	48
101	12
102	6
103	11
104	4
105	60
106	7
107	225
108	29
109	24
110	14
111	34
112	27
113	32
114	10
115	2
116	1
117	1
118	1
119	140
120	10
121	3
122	4
123	6
124	211
125	436
126	30
127	7
128	7
129	4
130	2
131	0
132	17
133	1
134	0
135	4
136	18
137	252
138	200
139	24
140	3
141	112
142	8
143	16
144	4
145	13
146	9
147	1
148	8
149	2
150	22
151	17
152	2
154	50
155	4
156	90
157	6
158	11
159	1
160	0
161	4
162	9
163	26
164	81
165	45
166	18
167	17
168	3
169	15
170	1
171	0
174	0
175	0
177	6
180	1
181	2
182	9
183	1
184	13
185	1
186	25
187	4
188	1
189	1
193	0
196	18
197	23
198	3
199	1
202	1
206	0
210	0
211	0
213	1
215	1
216	636
217	26
218	3
219	0
223	1
224	0
225	0
227	1
228	1
232	2
235	2
237	1
238	3
239	0
243	0
245	0
247	24
248	2
249	0
251	1
259	0
263	1
264	1
265	1
266	264
267	20
268	2
273	0
274	2
275	1
276	0
278	1
284	0
286	1
287	0
292	1
294	17
295	2
306	0
307	49
308	3
314	17
315	3
320	24
321	2
322	1
325	0
327	10
328	0
331	9
332	2
333	15
334	3
335	3
338	3
344	43
345	6
346	117
347	12
348	2
355	34
356	5
357	0
372	13
373	2
374	645
375	95
376	11
377	1
