Mass Spectrum: Triethylamine
Formula: C6H15N
CAS: 121-44-8
Molecular weight: 101
m/z	intensity
15	8
26	8
27	66
28	60
29	82
30	174
31	2
38	1
39	6
40	7
41	29
42	121
43	19
44	113
45	3
51	1
52	3
53	2
54	15
55	8
56	75
57	21
58	296
59	11
68	3
69	1
70	33
71	14
72	30
73	2
84	6
86	999
87	63
88	2
99	3
100	62
101	188
102	14
