Mass Spectrum: 1,2-Ethanediamine, N,N-bis(1-methylethyl)-
Formula: C8H20N2
CAS: 121-05-1
Molecular weight: 144
m/z	intensity
14	1
15	17
26	4
27	78
28	42
29	17
30	999
31	14
32	1
37	1
38	3
39	33
40	8
41	115
42	84
43	228
44	266
45	7
52	1
53	1
54	9
55	10
56	81
57	17
58	70
59	11
67	2
68	9
69	5
70	54
71	20
72	657
73	29
80	2
81	2
82	6
83	3
84	21
85	10
86	88
87	11
94	1
95	2
96	1
97	1
98	7
99	9
100	24
101	12
110	1
112	4
113	5
114	991
115	82
116	3
124	1
126	1
127	5
129	10
141	5
142	1
143	1
144	19
145	2
