Mass Spectrum: 1,3,4-Thiadiazol-2-amine, 5-phenoxymethyl-
Formula: C9H9N3OS
CAS: 121068-32-4
Molecular weight: 207
m/z	intensity
33	8
34	3
35	0
36	2
37	12
38	45
39	181
40	29
41	13
42	44
43	14
44	11
45	35
46	10
47	14
48	2
50	36
51	76
52	10
53	10
54	5
55	15
56	2
58	128
59	233
60	249
61	20
62	26
63	40
64	26
65	143
66	44
67	3
68	4
69	7
70	4
71	4
72	10
73	5
74	25
75	7
77	110
78	9
79	12
80	1
81	1
82	1
83	0
84	1
85	0
86	1
87	0
88	0
89	2
90	2
91	7
93	35
94	160
95	12
96	1
97	3
98	0
99	0
100	0
101	1
102	1
103	1
104	4
105	2
107	15
108	3
109	2
110	1
114	999
115	47
116	42
118	6
119	2
120	1
121	2
122	1
123	3
124	0
125	1
126	0
127	6
128	1
129	0
130	0
131	0
132	3
133	6
134	2
135	1
136	1
137	1
138	0
139	0
140	0
144	0
145	0
146	1
147	0
148	0
149	0
150	0
151	1
152	0
153	0
155	0
160	0
161	0
164	1
165	2
166	0
167	0
171	0
173	0
178	0
179	0
184	2
186	0
190	2
191	0
192	0
202	0
204	0
205	0
207	80
208	9
209	3
210	0
215	0
220	0
