Mass Spectrum: 3-Amino-2-ethyl-butyric acid
Formula: C6H13NO2
CAS: 121006-12-0
Molecular weight: 131
m/z	intensity
27	5
28	18
29	6
30	8
41	17
42	39
43	40
44	999
45	46
46	15
55	40
56	10
57	3
69	8
70	60
71	15
73	9
84	8
98	48
99	3
112	2
116	12
132	15
