Mass Spectrum: 2,4,6-Triazatricyclo[5.3.2.0(2,6)]dodecane-3,5-dione, 8-methylene-4-phenyl-
Formula: C16H17N3O2
CAS: 121080-71-5
Molecular weight: 283
m/z	intensity
38	13
39	220
40	70
41	427
42	58
43	66
50	8
51	62
52	52
53	195
54	137
55	100
56	67
57	25
63	27
64	98
65	130
66	68
67	162
68	44
69	63
70	25
71	6
77	275
78	370
79	694
80	213
81	129
82	92
83	34
84	24
90	11
91	773
92	107
93	203
94	99
95	55
96	13
97	10
103	5
105	93
106	999
107	424
108	90
109	65
110	21
111	5
118	4
119	569
120	98
121	31
122	32
123	11
135	40
136	32
137	17
148	24
149	20
163	27
164	4
177	85
178	295
179	23
180	6
227	4
228	10
242	4
254	6
283	825
284	146
285	14
