Mass Spectrum: Vanadium, tetracarbonyl(.eta.5-2,4-cyclopentadien-1-yl)-
Formula: C9H5O4V
CAS: 12108-04-2
Molecular weight: 228
m/z	intensity
25	0
26	3
27	1
28	89
29	0
37	2
38	3
39	15
40	0
44	2
45	1
50	1
51	337
52	9
54	0
55	0
57	0
58	117
61	0
62	1
63	7
64	30
65	4
66	2
67	4
68	0
70	1
72	12
75	7
76	71
77	4
78	0
79	25
80	1
81	0
86	13
87	4
88	63
89	99
90	367
91	13
92	0
99	0
100	8
101	1
102	4
107	2
109	0
112	3
113	3
114	8
115	25
116	999
117	68
118	1
127	0
128	1
129	0
130	0
132	0
141	0
143	3
144	99
145	6
146	0
148	0
153	0
154	0
155	1
171	3
172	142
173	11
174	1
175	0
179	0
180	0
186	0
195	1
197	0
199	1
200	49
201	4
202	0
205	0
206	0
207	0
208	0
209	0
218	0
221	2
222	0
223	0
225	1
228	123
229	12
230	1
