Mass Spectrum: 5,8-Epoxy-3H-2-benzopyran, 4,4a,5,8-tetrahydro-5,8-dimethyl-, (4a.alpha.,5.alpha.,8.alpha.)-
Formula: C11H14O2
CAS: 121029-63-8
Molecular weight: 178
m/z	intensity
38	20
39	317
40	51
41	295
42	42
43	999
44	39
45	24
50	57
51	197
52	88
53	259
54	34
55	222
56	18
57	27
58	21
59	42
60	17
61	9
62	15
63	67
64	27
65	185
66	48
67	120
68	20
69	103
70	36
71	55
72	11
73	18
74	16
75	18
76	13
77	352
78	111
79	537
80	78
81	100
82	36
83	87
84	17
85	23
86	9
87	8
88	6
89	24
90	9
91	740
92	126
93	130
94	80
95	183
96	94
97	56
98	8
99	15
101	41
102	15
103	90
104	36
105	367
106	62
107	327
108	62
109	35
110	13
111	36
112	6
113	8
115	100
116	48
117	277
118	285
119	87
120	78
121	78
122	36
123	25
124	12
125	6
126	9
127	12
128	17
129	27
130	6
131	43
132	27
133	108
134	28
135	969
136	103
137	19
145	31
146	7
147	49
148	83
149	74
150	71
151	14
159	21
160	58
161	81
162	17
163	121
164	15
165	7
175	16
176	110
177	71
178	381
179	45
