Mass Spectrum: 1-(tert-Butyl)-3-chloro-3-methoxycarbonyl-4-benzylthio-azetidin-2-one
Formula: C16H20ClNO3S
CAS: 121191-07-9
Molecular weight: 341
m/z	intensity
39	100
41	288
43	159
51	29
56	50
57	839
58	51
65	120
69	50
77	49
91	999
92	70
119	59
120	49
162	169
163	49
194	29
218	129
220	39
242	49
244	19
285	20
306	29
341	20
