Mass Spectrum: 2-(Pyridin-3-ylcarbonylamido)-benzothiazole
Formula: C13H9N3OS
CAS: 121189-78-4
Molecular weight: 255
m/z	intensity
51	300
78	956
106	999
108	36
150	25
177	26
227	128
255	361
256	66
257	21
