Mass Spectrum: 5-Cyclooctene-1,2-diol, diacetate
Formula: C12H18O4
CAS: 1211-27-4
Molecular weight: 226
m/z	intensity
26	3
27	33
28	5
29	16
31	4
38	2
39	56
40	20
41	73
42	18
43	999
44	29
45	7
50	4
51	14
52	6
53	33
54	41
55	46
56	5
57	26
58	4
59	2
60	2
61	7
62	1
63	3
65	19
66	18
67	110
68	43
69	17
70	38
71	9
72	2
73	3
74	31
75	1
76	1
77	28
78	167
79	112
80	116
81	60
82	29
83	73
84	14
85	5
86	10
87	10
88	1
90	1
91	112
92	17
93	28
94	13
95	119
96	113
97	44
98	7
99	15
100	5
101	2
102	2
103	8
104	5
105	38
106	166
107	37
108	8
109	32
110	9
111	17
112	4
113	5
114	13
115	3
116	44
117	4
119	2
121	3
122	17
123	42
124	97
125	23
126	2
128	1
133	1
137	3
138	5
139	6
140	2
141	19
142	118
143	9
144	1
148	1
151	2
153	6
154	1
156	5
165	1
166	17
167	3
168	1
184	17
185	2
226	4
