Mass Spectrum: Nicotinic acid, 1,6-dihydro-4-hydroxy-6-oxo-2-propyl-, ethyl ester
Formula: C11H15NO4
CAS: 1211-05-8
Molecular weight: 225
m/z	intensity
40	225
41	999
42	437
43	874
44	250
45	499
46	62
51	100
52	225
53	225
54	312
55	375
56	524
57	150
58	375
59	100
60	150
61	150
62	62
63	62
64	62
65	100
66	150
67	250
68	312
69	749
70	150
71	187
72	62
73	187
74	62
76	62
77	150
78	100
79	150
80	125
81	150
82	125
83	150
84	100
85	100
86	62
87	62
91	100
92	100
93	125
94	100
95	400
96	125
97	150
98	62
99	62
101	62
104	100
105	37
106	62
107	62
108	100
109	62
110	125
111	150
112	125
115	100
118	62
119	62
120	37
121	62
122	225
123	312
124	100
125	562
126	150
127	37
128	37
129	37
130	37
132	62
133	62
134	37
135	37
136	62
137	37
138	125
139	62
140	62
141	62
142	62
143	100
144	100
149	100
150	125
151	899
152	125
153	100
164	100
165	275
166	100
168	100
169	100
178	150
179	524
180	187
181	62
182	62
196	275
197	499
198	62
199	62
200	62
210	62
225	250
226	62
227	37
