Mass Spectrum: Chromium, tricarbonyl[(1,2,3,4,5,6-.eta.)-1-chloro-4-methylbenzene]-
Formula: C10H7ClCrO3
CAS: 12116-24-4
Molecular weight: 262
m/z	intensity
26	1
27	4
28	3
36	0
37	0
38	2
39	28
40	11
41	7
42	0
43	0
45	0
49	0
50	48
51	9
52	999
53	110
54	25
55	0
57	0
61	0
62	3
63	16
64	3
65	40
66	2
67	0
68	0
69	0
71	0
73	1
74	0
75	2
76	0
77	14
78	3
79	0
80	27
81	3
82	0
85	1
86	0
87	40
88	6
89	16
90	6
91	21
92	2
93	0
99	0
101	2
102	1
103	7
104	2
108	3
109	0
112	0
113	0
114	1
115	4
116	2
117	7
118	2
125	2
126	3
127	3
128	2
129	0
137	0
139	0
140	0
141	7
142	3
143	6
144	2
145	0
171	1
172	0
175	0
176	12
177	6
178	234
179	44
180	81
181	15
182	3
199	1
204	2
205	1
206	46
207	10
208	17
209	2
210	0
227	1
228	1
229	0
230	0
232	0
234	5
235	1
236	2
237	0
260	6
261	1
262	126
263	27
264	44
265	9
266	1
267	0
