Mass Spectrum: 4-Pentenamide, N,N-diethyl-4-methyl-2-methylene-
Formula: C11H19NO
CAS: 121136-41-2
Molecular weight: 181
m/z	intensity
26	70
27	493
28	231
29	845
30	142
31	17
35	8
37	10
38	28
39	436
40	203
41	631
42	277
43	70
44	289
45	12
46	8
47	22
49	15
50	17
51	59
52	52
53	382
54	68
55	156
56	172
57	35
58	588
59	25
60	5
62	4
63	17
64	7
65	97
66	66
67	434
68	68
69	85
70	81
71	31
72	824
73	67
74	54
75	5
77	111
78	30
79	446
80	389
81	999
82	212
83	26
84	65
85	5
86	105
87	8
88	5
91	15
92	9
93	25
94	15
95	213
96	53
97	18
98	16
100	259
101	17
102	11
106	7
107	30
108	253
109	442
110	401
111	44
112	24
113	6
120	4
121	4
122	13
123	10
124	114
125	27
126	66
127	6
128	5
136	5
137	12
138	116
139	29
140	235
141	28
150	4
152	100
153	51
154	5
166	210
167	24
180	46
181	302
182	40
