Mass Spectrum: Chromium, tricarbonyl[(1,2,3,4,5,6-.eta.)-1-fluoro-4-methylbenzene]-
Formula: C10H7CrFO3
CAS: 12116-25-5
Molecular weight: 246
m/z	intensity
26	0
27	3
28	6
31	1
33	0
37	0
38	2
39	29
41	4
45	0
50	75
51	9
52	999
53	171
54	40
56	0
57	3
58	0
59	0
61	1
62	4
63	22
64	4
65	31
66	2
67	0
68	0
69	5
70	0
71	122
72	16
73	3
74	1
75	1
76	0
77	10
78	4
79	0
80	52
81	6
82	1
83	7
84	0
86	1
87	1
88	0
89	18
90	8
91	10
92	2
93	0
94	0
95	11
96	1
97	0
99	1
101	3
102	2
103	1
104	0
106	0
107	1
108	7
109	22
110	7
111	0
113	1
114	3
115	6
116	2
117	0
121	1
122	0
125	0
127	3
128	0
133	0
134	0
139	1
140	1
141	9
142	2
143	1
144	3
145	0
147	0
158	0
159	0
160	18
161	16
162	341
163	60
164	12
165	0
171	0
172	0
188	3
189	4
190	58
191	11
192	2
216	0
217	0
218	16
219	3
220	0
228	1
229	0
244	12
245	1
246	240
247	52
248	12
249	1
