Mass Spectrum: Coprostan-16,22-epoxy-3.alpha.,26-diol, 3-O-acetyl-26-tosyl-
Formula: C36H54O6S
CAS: 121290-81-1
Molecular weight: 614
m/z	intensity
41	160
43	602
45	49
50	4
51	5
53	32
55	421
57	136
60	10
61	9
63	14
64	18
65	71
67	222
69	190
70	34
71	42
77	66
79	172
81	587
83	234
84	13
85	52
89	10
91	334
93	354
95	353
96	40
97	66
99	999
100	50
103	3
105	230
107	412
108	87
109	176
110	75
111	27
113	24
115	26
116	22
117	46
119	132
120	46
121	178
122	115
123	58
124	13
126	439
127	49
128	5
129	28
130	7
131	75
133	138
134	29
135	138
136	7
137	19
139	19
141	3
142	58
143	21
144	13
145	147
147	236
148	7
149	99
150	3
151	20
152	19
153	20
155	92
156	8
157	39
159	126
161	151
162	41
163	33
165	24
167	5
169	18
170	4
171	42
172	15
173	96
174	64
175	81
176	31
177	21
183	13
185	28
186	13
187	51
188	9
189	33
197	8
199	35
200	4
201	55
202	12
203	12
213	25
214	44
215	72
216	45
217	19
227	54
228	14
229	40
230	36
231	34
239	14
241	24
242	13
243	3
253	19
254	14
255	705
256	154
257	62
258	9
269	163
270	36
271	12
272	4
273	41
274	4
281	4
283	7
284	100
285	104
286	32
295	18
298	224
299	37
300	11
313	46
314	41
315	684
316	119
317	335
318	61
323	4
325	10
326	3
328	3
329	15
341	3
344	12
345	9
359	11
364	3
372	28
373	179
374	44
375	3
377	9
382	10
383	7
386	48
387	11
399	32
400	7
413	8
427	17
442	23
443	9
459	9
536	11
554	23
555	8
599	61
600	23
601	6
614	23
615	9
