Mass Spectrum: Pentylcymantrene
Formula: C13H15MnO3
CAS: 12126-78-2
Molecular weight: 274
m/z	intensity
55	999
56	179
77	89
78	79
79	199
80	59
82	19
83	9
84	29
91	59
92	19
93	44
94	9
95	14
133	49
134	259
135	39
160	9
161	13
162	19
186	29
188	209
189	29
190	409
191	49
218	19
274	62
275	9
