Mass Spectrum: Lanosteryl tosylate
Formula: C37H56O3S
CAS: 121250-59-7
Molecular weight: 580
m/z	intensity
41	471
43	999
45	28
47	5
48	26
49	9
50	70
51	118
53	133
55	603
57	256
59	4
61	30
62	17
63	208
65	443
67	152
69	440
71	130
74	25
75	5
77	246
79	244
81	255
83	177
84	10
85	28
86	32
87	4
89	125
91	878
92	41
93	216
95	282
97	100
99	16
102	4
103	22
105	231
107	503
108	105
109	191
111	54
113	4
115	40
116	6
117	68
118	11
119	202
121	182
122	24
123	116
125	21
127	17
128	29
129	77
130	23
131	98
133	151
135	156
136	27
137	41
139	4
140	8
141	33
142	12
143	115
144	19
145	130
147	149
149	139
150	22
151	4
152	10
153	35
155	87
157	120
159	154
161	120
162	14
163	28
165	41
166	9
167	24
168	7
169	53
171	76
172	330
173	101
174	24
175	38
177	23
178	5
179	27
181	33
183	67
184	20
185	49
186	16
187	80
189	109
190	16
191	30
192	13
193	22
195	34
196	5
197	47
199	58
200	10
201	51
202	23
203	85
204	20
205	35
206	26
207	17
208	14
209	10
210	15
211	35
213	54
215	54
216	6
217	18
218	5
219	20
221	6
223	24
225	37
227	70
229	65
230	6
231	12
235	4
237	24
238	6
239	26
241	64
242	13
243	17
244	7
251	17
253	28
254	4
255	41
256	28
257	19
259	5
267	21
268	5
269	15
271	9
273	4
279	4
281	24
282	7
283	22
295	25
296	7
297	207
309	10
311	17
313	10
323	5
324	4
325	18
326	13
328	28
337	5
339	71
340	18
341	13
363	48
365	101
366	25
367	35
377	13
379	20
391	9
393	88
395	271
396	70
397	14
406	14
407	10
408	100
409	43
410	128
411	49
413	4
420	4
422	13
424	14
425	4
