Mass Spectrum: Tungsten, tricarbonyl[(1,2,3,4,5,6-.eta.)-methylbenzene]-
Formula: C10H8O3W
CAS: 12128-82-4
Molecular weight: 360
m/z	intensity
39	167
50	62
51	102
63	108
65	194
74	13
77	18
91	999
92	999
184	5
197	3
209	16
210	10
222	89
233	10
234	10
248	83
260	16
274	240
276	270
304	243
332	91
360	178
