Mass Spectrum: Tungsten, tricarbonyl(1,3,5-cyclooctatriene)-
Formula: C11H10O3W
CAS: 12129-34-9
Molecular weight: 374
m/z	intensity
39	258
41	105
50	96
51	201
52	105
53	44
63	56
65	136
66	56
77	258
78	999
79	323
91	588
103	88
104	27
105	201
106	357
130	27
143	48
144	37
158	10
172	4
184	4
210	25
222	25
234	48
247	10
260	96
272	4
286	178
288	210
316	178
344	73
346	48
374	96
