Mass Spectrum: Iron, .pi.-cyclopentadienyl(4,5,6,7-tetrahydro-4,7-dihydroxy-.pi.-indenyl)-, endo,endo-
Formula: C14H16FeO2
CAS: 12127-08-1
Molecular weight: 272
m/z	intensity
56	36
65	24
73	22
76	20
77	20
91	94
115	238
116	182
117	999
118	96
121	60
133	20
138	170
139	20
234	20
236	344
237	56
254	16
270	42
272	723
273	120
