Mass Spectrum: Molybdenum,bis(.eta.-benzene)-
Formula: C12H12Mo
CAS: 12129-68-9
Molecular weight: 254
m/z	intensity
26	18
27	44
29	2
37	13
38	8
39	154
40	3
45	0
49	26
50	175
51	235
52	237
53	20
56	3
57	2
60	4
61	8
62	5
63	34
64	2
73	15
74	39
75	32
76	33
77	258
78	999
88	3
92	47
93	4
94	30
95	55
96	57
97	33
98	87
100	37
110	3
111	4
112	8
113	5
114	4
115	2
118	3
119	4
120	7
121	12
122	12
123	10
124	20
125	16
126	23
127	24
128	6
132	3
133	4
135	3
139	0
142	5
144	9
145	12
146	19
147	22
148	16
149	13
150	8
151	4
152	3
154	4
157	4
159	3
168	19
169	4
170	39
171	23
172	42
173	47
174	60
175	26
176	61
177	6
178	20
194	3
196	3
197	4
198	4
199	3
200	4
201	4
220	6
221	3
222	4
223	5
224	9
225	4
226	9
228	3
244	6
246	22
247	14
248	137
249	45
250	124
251	173
252	199
253	110
254	221
255	30
256	80
257	12
