Mass Spectrum: Ammonium Chloride
Formula: ClH4N
CAS: 12125-02-9
Molecular weight: 53
m/z	intensity
14	4
15	12
16	439
17	653
18	28
19	1
28	4
35	125
36	999
37	45
38	339
39	1
