Mass Spectrum: Carbobenzyloxyglycine methyl ester
Formula: C11H13NO4
CAS: 1212-53-9
Molecular weight: 223
m/z	intensity
26	3
27	17
28	38
29	48
30	72
31	11
33	5
37	2
38	10
39	76
40	6
41	19
42	13
43	17
44	14
45	11
50	23
51	61
52	18
53	6
55	2
56	73
57	3
58	5
59	55
60	2
61	2
62	10
63	38
64	13
65	136
66	7
71	2
74	27
75	5
76	5
77	73
78	18
79	112
80	11
82	5
86	2
88	28
89	47
90	68
91	999
92	78
93	3
104	2
105	13
106	7
107	168
108	800
109	55
110	3
115	4
116	2
118	2
120	15
121	2
136	2
162	2
164	3
180	1
191	0
223	103
224	14
225	1
