Mass Spectrum: 4,5,9-Trihydroxy-dodeca-1,11-diene
Formula: C12H22O3
CAS: 121231-46-7
Molecular weight: 214
m/z	intensity
41	999
43	922
44	201
55	928
57	772
67	776
69	280
71	281
79	371
81	489
83	298
91	268
93	300
95	320
97	248
101	129
107	228
108	140
109	200
113	659
119	381
125	258
143	311
155	258
