Mass Spectrum: N-(3-Methyl-6-nitro-2-benzothiazolinylidene)acetamide
Formula: C10H9N3O3S
CAS: 121325-74-4
Molecular weight: 251
m/z	intensity
33	4
34	5
37	13
38	22
39	33
40	64
41	22
43	999
45	57
46	9
47	4
49	3
50	31
51	57
52	32
55	21
57	21
58	11
59	11
61	18
62	29
63	132
64	47
66	31
69	78
70	20
71	9
72	6
74	22
75	20
76	35
77	39
78	14
79	6
81	19
82	18
83	13
84	7
85	4
86	9
87	3
88	9
89	5
90	9
91	13
92	28
93	23
94	12
95	39
96	10
97	9
99	1
100	1
102	8
103	17
104	11
105	14
106	8
107	17
108	26
109	22
110	4
111	4
112	2
113	1
114	1
116	2
118	9
120	28
121	32
122	18
123	10
124	6
125	2
128	1
129	3
130	2
131	1
133	7
135	76
136	17
137	6
139	3
140	1
141	1
144	1
147	22
148	5
149	11
150	5
151	6
152	8
153	1
154	1
159	1
161	11
162	21
163	34
164	7
165	16
166	2
167	17
168	2
169	1
171	2
173	1
174	2
175	2
176	5
177	2
178	8
179	6
181	32
182	6
183	2
190	225
191	22
192	11
193	3
195	34
196	3
197	1
206	11
207	2
208	10
209	11
210	2
211	1
220	9
221	5
222	3
236	528
237	59
238	27
239	3
251	187
252	20
253	9
254	1
