Mass Spectrum: (3aR,6aS)-3,3-dimethyl-3a-iodomethyl-3,3a,4,5,6a-hexahydropentalen-1(2H)-one
Formula: C11H17IO
CAS: 121402-84-4
Molecular weight: 292
m/z	intensity
67	99
81	999
95	220
109	150
123	369
137	80
147	198
165	658
207	9
235	19
253	19
292	109
