Mass Spectrum: (1-Hydroxy-1-methyl-2-trimethylsilylethyl)cymantrene
Formula: C14H19MnO4Si
CAS: 12147-45-4
Molecular weight: 334
m/z	intensity
51	29
55	999
56	69
63	19
65	39
70	689
72	19
73	429
74	39
75	79
77	79
78	39
79	49
80	109
81	19
89	19
90	9
91	79
92	39
93	159
94	24
95	19
103	29
105	79
106	19
119	69
120	269
121	29
131	19
133	89
134	19
144	79
145	29
146	39
147	59
148	89
149	9
160	299
161	49
162	649
163	69
164	9
176	29
178	29
186	9
188	59
190	89
191	9
192	9
204	39
216	109
217	24
218	9
232	119
233	19
234	9
235	9
244	39
245	9
246	89
247	9
250	30
251	5
252	1
260	8
261	1
301	3
302	0
316	13
317	3
318	1
319	1
334	7
335	1
