Mass Spectrum: Oxirane, 2-(chloromethyl)-2-(1,1-dimethylethyl)-
Formula: C7H13ClO
CAS: 121505-38-2
Molecular weight: 148
m/z	intensity
39	250
41	530
43	250
49	110
51	100
53	100
55	430
56	130
57	340
65	100
67	330
69	340
77	220
79	100
83	999
84	200
113	120
133	530
134	40
135	170
136	13
