Mass Spectrum: 1-Phenyl-3-(O-tolyl)-2-thiourea
Formula: C14H14N2S
CAS: 1215-77-6
Molecular weight: 242
m/z	intensity
15	1
26	5
27	21
28	9
29	1
32	10
33	9
34	27
36	2
37	13
38	27
39	121
40	24
41	32
42	9
43	3
44	11
45	31
46	29
47	3
49	5
50	59
51	170
52	48
53	29
54	21
55	2
56	1
57	2
58	4
59	2
60	5
61	12
62	24
63	81
64	47
65	253
66	235
67	24
68	3
69	8
70	8
71	2
72	3
73	4
74	27
75	23
76	33
77	491
78	97
79	81
80	20
81	3
82	4
83	5
84	6
85	2
86	3
87	4
88	5
89	107
90	76
91	240
92	125
93	999
94	91
95	4
96	7
97	4
98	1
99	1
100	1
102	5
103	23
104	102
105	32
106	660
107	851
108	79
109	52
110	22
111	4
112	3
113	8
114	4
115	5
116	83
117	234
118	45
119	102
120	105
121	111
122	29
123	28
124	118
125	11
126	6
127	2
128	1
129	3
130	4
131	52
132	30
133	52
134	9
135	505
136	118
137	31
138	12
139	2
140	1
142	2
143	1
146	2
147	1
148	212
149	669
150	127
151	41
152	8
153	2
154	1
163	4
164	1
165	5
166	2
167	5
168	2
178	1
179	2
180	15
181	4
182	5
183	3
190	1
191	1
192	4
193	4
194	10
195	5
196	1
198	1
199	1
205	8
206	26
207	166
208	216
209	159
210	27
211	3
212	1
221	1
222	3
223	3
224	2
225	13
226	6
227	264
228	63
229	17
230	3
239	2
240	2
241	116
242	769
243	136
244	44
245	6
