Mass Spectrum: Cobalt, butadiene-(5-methylheptadienyl)-
Formula: C12H19Co
CAS: 12154-10-8
Molecular weight: 222
m/z	intensity
25	4
26	21
27	122
28	28
29	65
30	1
31	1
37	6
38	8
39	128
40	17
41	95
42	5
43	9
49	4
50	19
51	30
52	14
53	66
54	51
55	98
56	14
57	1
59	703
60	75
62	2
63	6
64	1
65	20
66	12
67	51
68	7
69	5
70	1
72	2
73	13
74	39
77	53
78	11
79	51
80	15
81	16
82	3
84	44
85	95
86	329
87	20
88	8
89	3
90	1
91	54
92	9
93	48
94	11
95	14
96	3
97	14
98	104
99	60
100	32
101	16
103	2
104	1
105	22
106	5
107	10
108	16
109	9
110	14
111	60
112	142
113	253
114	999
115	50
116	2
117	1
119	3
120	1
121	2
122	4
123	4
124	159
125	28
126	230
127	24
128	8
133	2
134	1
135	4
136	10
137	66
138	270
139	21
140	44
141	5
142	1
146	1
147	1
148	3
149	2
150	18
151	41
152	13
153	4
154	1
160	2
161	2
162	8
163	12
164	93
165	30
166	133
167	23
168	675
169	64
170	3
178	1
179	1
180	36
181	5
182	0
194	6
207	1
218	2
220	17
222	220
223	29
224	3
