Mass Spectrum: Hexyl 8-methylnon-6-enoate
Formula: C16H30O2
CAS: 1215128-19-0
Molecular weight: 254
m/z	intensity
26	3
27	75
28	20
29	125
39	106
40	28
41	616
42	123
43	999
44	29
50	3
52	6
53	79
54	47
55	551
56	475
57	234
59	9
60	22
61	60
65	21
66	14
67	181
68	129
69	944
70	134
71	89
73	55
77	15
78	5
79	66
80	11
81	138
84	216
85	133
87	17
93	57
94	19
95	141
96	121
97	203
98	39
99	20
101	72
102	13
107	43
108	215
109	279
110	201
111	82
112	8
113	64
114	174
115	213
116	16
119	6
123	117
124	43
125	12
127	68
133	67
134	14
135	57
136	5
137	345
138	31
141	6
151	62
152	263
153	118
154	14
155	13
157	6
169	13
171	8
198	4
199	6
211	6
212	2
254	21
255	4
