Mass Spectrum: 1-Phenyl-3-(m-tolyl)-2-thiourea
Formula: C14H14N2S
CAS: 1215-91-4
Molecular weight: 242
m/z	intensity
15	1
26	5
27	21
28	25
29	2
30	1
32	9
33	7
34	22
36	2
37	13
38	29
39	120
40	21
41	34
42	9
43	3
44	11
45	20
46	20
47	2
49	5
50	60
51	171
52	45
53	31
54	20
55	2
56	1
57	1
58	3
59	2
60	4
61	11
62	23
63	74
64	45
65	246
66	188
67	31
68	4
69	7
70	8
71	2
72	2
73	4
74	21
75	23
76	30
77	510
78	79
79	104
80	28
81	4
82	4
83	5
84	7
85	2
86	3
87	4
88	4
89	59
90	49
91	385
92	122
93	963
94	80
95	4
96	5
97	3
99	1
100	1
102	4
103	12
104	59
105	24
106	613
107	999
108	100
109	39
110	25
111	4
112	2
113	7
114	2
115	2
116	23
117	42
118	22
119	82
120	85
121	54
122	10
123	30
124	86
125	9
126	4
127	1
130	1
131	7
132	40
133	62
134	9
135	630
136	105
137	35
138	12
139	2
140	1
146	1
147	1
148	104
149	573
150	111
151	33
152	6
153	1
163	4
164	2
165	3
166	2
167	5
168	2
180	4
181	1
182	2
183	3
192	3
193	2
194	4
195	1
199	1
205	1
206	5
207	18
208	204
209	112
210	18
211	1
222	1
224	1
225	9
226	4
227	3
228	2
239	4
240	3
241	136
242	702
243	122
244	40
245	5
