Mass Spectrum: Isopentyl 8-methylnon-6-enoate
Formula: C15H28O2
CAS: 1215128-16-7
Molecular weight: 240
m/z	intensity
27	39
29	58
39	74
41	436
42	89
43	832
45	14
52	10
53	72
54	38
55	557
56	171
57	90
58	9
59	5
60	21
65	25
66	16
67	204
68	78
69	707
70	351
71	999
72	57
73	30
79	74
81	139
82	65
83	83
84	115
85	43
87	13
93	56
95	120
96	100
97	191
98	43
99	29
100	11
101	66
107	70
108	175
109	276
110	148
111	57
112	19
113	76
114	108
115	174
116	11
123	145
124	44
125	10
127	57
130	6
133	89
134	17
135	73
137	291
138	22
141	10
142	9
143	8
147	5
151	88
152	274
153	142
154	13
155	12
165	7
169	23
170	15
171	17
184	11
185	13
197	6
198	3
225	9
240	15
