Mass Spectrum: 1,6-Dihydro-1-methyl-2-methylthio-5-((E)-2-ethoxycarbonylvinyl)-4-(2,3,4-tri-O-acetyl-.beta.-D-xylopyranosylamino)-1H-pyrimidin-6-one
Formula: C22H29N3O10S
CAS: 121518-11-4
Molecular weight: 527
m/z	intensity
97	999
196	510
208	110
210	43
222	43
224	57
236	43
238	65
252	130
263	65
264	65
266	43
270	22
274	65
280	22
282	22
292	65
294	43
302	130
310	130
311	22
312	22
320	22
334	87
362	87
364	43
366	22
380	43
394	22
408	22
454	170
482	22
527	65
