Mass Spectrum: 4-Methylhexyl 3-methylbutanoate
Formula: C12H24O2
CAS: 1215127-80-2
Molecular weight: 200
m/z	intensity
27	16
29	86
30	2
31	3
37	2
39	37
40	8
41	251
42	91
43	113
56	114
57	854
58	43
59	27
60	22
61	41
70	999
78	3
83	35
85	474
86	25
87	36
92	2
98	340
99	56
102	20
103	679
104	53
105	4
115	12
129	9
143	68
144	9
158	3
