Mass Spectrum: Oxirane, 2-(chloromethyl)-2-(1-methylethenyl)-
Formula: C6H9ClO
CAS: 121505-32-6
Molecular weight: 132
m/z	intensity
53	330
55	530
65	410
66	260
67	999
68	120
83	240
97	100
102	460
104	160
131	50
133	20
