Mass Spectrum: 6-Methylhept-4-en-1-yl 3-methylbutanoate
Formula: C13H24O2
CAS: 1215128-06-5
Molecular weight: 212
m/z	intensity
26	1
27	26
28	3
29	48
30	1
31	3
37	1
38	3
39	79
40	16
41	306
42	48
43	122
44	6
45	8
46	2
47	1
50	3
51	8
52	5
53	55
54	72
55	245
56	80
57	300
58	14
59	13
60	8
61	4
62	1
63	3
64	1
65	21
66	99
67	465
68	155
69	568
70	36
71	17
72	1
73	1
77	22
78	4
79	45
80	13
81	148
82	452
83	62
84	6
85	177
86	11
87	7
88	1
91	10
92	1
93	27
94	6
95	999
96	78
97	6
98	1
99	2
100	12
101	2
102	1
103	14
104	1
107	2
108	2
109	48
110	348
111	49
112	3
113	2
115	1
126	3
127	7
128	1
129	2
137	1
153	1
155	4
