Mass Spectrum: 6-Methyl-4-heptenyl pentanoate
Formula: C13H24O2
CAS: 1215128-07-6
Molecular weight: 212
m/z	intensity
18	4
26	2
27	16
29	24
30	1
31	2
38	2
39	64
40	20
41	255
42	14
45	7
46	1
50	2
51	4
52	4
53	47
54	67
55	109
57	182
58	9
59	11
62	2
64	2
65	14
66	56
67	711
68	323
69	236
73	3
77	15
78	3
79	61
80	18
81	386
82	999
85	195
86	12
91	8
92	2
93	11
94	2
95	137
96	12
98	3
99	3
108	2
109	20
110	360
111	47
126	4
128	1
159	1
163	1
168	1
179	1
212	1
