Mass Spectrum: Oxirane, 2-(chloromethyl)-2-(1-propenyl)-, (E)-
Formula: C6H9ClO
CAS: 121505-34-8
Molecular weight: 132
m/z	intensity
39	320
41	330
43	120
51	110
53	210
55	200
65	330
66	160
67	999
68	170
81	110
83	180
117	430
119	140
132	20
134	10
