Mass Spectrum: 3-Buten-1-yl methyl sulfoxide
Formula: C5H10OS
CAS: 121564-26-9
Molecular weight: 118
m/z	intensity
14	9
15	53
26	50
27	379
29	624
30	14
31	14
33	7
34	12
35	30
37	10
38	20
39	336
40	19
41	79
42	9
43	16
44	20
45	86
46	41
47	101
48	26
49	17
50	40
51	48
52	16
53	191
54	133
55	999
56	48
57	17
58	10
59	11
60	7
61	202
62	10
63	71
64	177
65	11
71	20
74	29
75	11
77	12
85	14
87	14
88	13
90	8
91	8
102	43
103	8
117	4
118	42
119	6
