Mass Spectrum: Oxirane, 2-(chloromethyl)-2-cyclopropyl-
Formula: C6H9ClO
CAS: 121505-35-9
Molecular weight: 132
m/z	intensity
39	460
40	120
41	320
49	110
51	140
53	220
55	670
65	330
66	170
67	999
68	110
83	510
97	150
131	140
133	40
