Mass Spectrum: (3-Chloro-4,5-dihydroisoxazol-5-yl)-methanol
Formula: C4H6ClNO2
CAS: 121596-70-1
Molecular weight: 135
m/z	intensity
25	1
26	13
27	29
28	122
29	100
30	20
31	262
33	1
35	2
36	6
37	6
38	14
39	49
40	73
41	206
42	150
43	56
44	42
45	8
46	1
47	6
48	6
49	38
50	7
51	25
52	7
53	9
54	17
55	13
56	7
57	26
58	7
59	2
60	3
61	33
62	15
63	14
64	6
65	3
66	1
67	3
68	8
69	6
70	49
71	8
72	3
73	6
74	5
75	21
76	94
77	15
78	37
79	5
80	3
81	2
82	8
83	3
84	2
85	2
86	1
87	4
88	3
89	4
90	2
91	9
92	1
93	3
94	2
95	2
96	1
97	2
98	1
99	1
100	1
101	1
102	3
103	66
104	999
105	87
106	338
107	26
108	7
109	1
115	1
116	2
117	11
118	3
119	4
120	2
121	1
123	1
127	1
128	3
129	1
135	119
136	11
137	38
138	4
