Mass Spectrum: 1-Pentanol, 4-methyl-2-methylene-
Formula: C7H14O
CAS: 121505-31-5
Molecular weight: 114
m/z	intensity
31	250
39	880
40	150
41	930
42	150
43	800
51	100
53	250
54	590
55	400
56	150
57	999
67	130
70	120
71	450
72	200
79	180
81	640
96	610
114	30
