Mass Spectrum: (3-Phenyloxiranyl)methanol, TBDMS derivative
Formula: C15H24O2Si
CAS: 121618-58-4
Molecular weight: 264
m/z	intensity
15	1
26	1
27	11
29	30
30	1
31	5
37	1
38	3
39	33
40	6
41	75
42	7
43	35
44	4
45	67
46	5
47	37
48	2
49	2
50	10
51	38
52	8
53	8
54	1
55	16
56	15
57	171
58	58
59	201
60	25
61	37
62	11
63	37
64	15
65	45
66	3
67	2
68	1
69	3
70	1
71	10
73	264
74	39
75	566
76	49
77	178
78	29
79	74
80	5
81	6
82	1
83	4
84	1
85	19
86	6
87	15
88	20
89	176
90	81
91	999
92	77
93	4
95	2
96	3
97	2
98	1
99	21
101	207
102	39
103	94
104	35
105	97
106	10
107	12
108	1
109	1
111	2
113	3
115	159
116	48
117	84
118	12
119	9
120	3
121	56
122	7
123	4
127	2
128	3
129	59
130	8
131	40
132	11
133	34
134	5
135	19
136	3
137	9
138	1
139	1
141	1
143	3
144	1
145	16
146	5
147	15
148	10
149	43
150	7
151	4
152	1
157	2
159	104
161	639
162	96
163	44
164	5
165	7
166	1
171	2
173	2
175	144
177	870
178	139
179	45
180	5
181	3
189	71
190	20
191	28
192	5
193	4
194	1
205	11
207	473
208	86
209	25
210	3
219	2
221	15
222	3
223	1
248	1
249	2
