Mass Spectrum: Methyl 1,2,3,6-tetrahydropyridine-3-carboxylate
Formula: C7H11NO2
CAS: 121743-23-5
Molecular weight: 141
m/z	intensity
27	97
28	67
29	56
30	27
31	23
38	14
39	57
40	35
41	93
42	63
50	52
51	99
52	88
53	368
54	86
55	209
56	71
59	32
60	20
64	17
65	70
67	126
68	64
69	34
71	47
73	23
78	42
79	36
80	840
81	645
82	999
83	70
84	72
87	26
94	42
97	109
100	18
107	26
108	96
109	106
110	86
111	136
112	46
113	37
121	12
125	36
126	40
138	9
139	10
140	15
141	225
142	43
143	14
