Mass Spectrum: Tungsten, chlorotris(.eta.3-2-propenyl)-
Formula: C9H15ClW
CAS: 12170-00-2
Molecular weight: 342
m/z	intensity
26	52
27	276
28	34
29	124
30	3
35	2
36	15
37	50
38	92
39	579
40	164
41	999
42	484
43	188
44	15
46	0
49	1
50	17
51	34
52	21
53	99
54	140
55	355
56	126
57	42
58	1
62	2
63	7
64	2
65	45
66	22
67	387
68	85
69	111
70	37
71	13
72	11
73	7
75	0
76	1
77	47
78	24
79	110
80	37
81	155
82	113
83	50
84	51
85	8
86	0
91	33
92	6
93	36
94	12
95	68
96	26
97	14
98	5
103	1
104	0
105	10
106	2
107	19
108	5
109	21
110	6
111	3
112	0
115	1
117	2
118	1
119	3
120	2
121	6
122	10
123	6
124	17
125	3
126	9
127	0
131	0
133	1
135	3
136	0
137	1
138	0
145	0
147	1
149	2
150	0
152	0
162	0
163	1
164	2
165	0
166	0
169	0
170	0
183	3
207	2
208	1
209	1
210	2
211	0
212	0
219	1
220	4
221	4
222	4
223	2
224	4
231	1
232	2
233	3
234	4
235	4
236	2
237	2
238	1
242	0
243	3
244	4
245	5
246	5
247	6
248	3
249	3
250	1
251	0
254	1
255	5
256	9
257	13
258	13
259	15
260	13
261	9
262	7
263	4
264	1
265	0
267	4
268	9
269	14
270	19
271	19
272	20
273	14
274	13
275	7
276	4
277	3
278	1
279	0
280	0
281	2
282	6
283	7
284	10
285	8
286	10
287	6
288	5
289	2
290	1
293	5
294	8
295	17
296	26
297	31
298	39
299	31
300	38
301	21
302	20
303	13
304	10
305	5
306	4
307	2
308	3
309	1
310	3
311	1
312	4
314	2
316	1
326	0
336	2
338	3
340	6
341	3
342	6
343	1
344	5
346	2
348	1
350	0
