Mass Spectrum: Cyclohexanecarboxylic acid, 2-hydroxy-1,6-dimethyl-, [1S-(1.alpha.,2.beta.,6.alpha.)]-
Formula: C9H16O3
CAS: 121772-20-1
Molecular weight: 172
m/z	intensity
26	42
27	552
28	24
29	403
30	46
31	112
37	7
38	36
39	644
40	114
41	918
42	185
43	454
44	222
45	311
46	78
47	10
48	3
50	38
51	106
52	46
53	304
54	110
55	911
56	183
57	279
58	86
59	65
60	18
61	3
62	8
63	28
64	4
65	88
66	40
67	280
68	96
69	176
70	121
71	78
72	27
73	74
74	116
75	43
76	7
77	90
78	21
79	99
80	29
81	198
82	243
83	783
84	179
85	120
86	28
87	87
88	42
89	10
91	65
92	13
93	104
94	44
95	148
96	29
97	90
98	268
99	53
100	75
101	999
102	546
103	89
104	9
105	9
107	23
108	139
109	268
110	92
111	219
112	88
113	37
114	5
115	10
116	8
121	14
122	3
123	2
124	2
125	58
126	557
127	128
128	9
129	10
130	7
135	1
136	27
137	7
138	2
139	62
140	21
141	4
142	2
144	19
145	12
153	3
154	376
155	82
156	8
157	8
158	1
167	1
172	23
173	19
174	1
