Mass Spectrum: 1,4,4,7a-Tetramethyl-2,4,5,6,7,7a-hexahydro-1H-indene-1,7-diol
Formula: C13H22O2
CAS: 121747-53-3
Molecular weight: 210
m/z	intensity
26	9
27	128
28	75
29	158
30	6
31	26
38	7
39	198
40	23
41	485
42	28
43	999
44	31
45	28
50	15
51	70
52	29
53	157
54	23
55	294
56	34
57	111
58	24
59	22
60	2
61	5
62	5
63	28
64	12
65	107
66	27
67	155
68	17
69	348
70	26
71	52
72	12
73	3
74	4
75	8
76	13
77	226
78	53
79	251
80	36
81	255
82	27
83	50
84	7
85	14
86	2
87	6
89	13
90	7
91	346
92	44
93	585
94	142
95	274
96	42
97	43
98	10
99	38
100	2
101	6
102	10
103	41
104	22
105	245
106	45
107	712
108	202
109	117
110	28
111	95
112	11
113	3
114	4
115	65
116	26
117	78
118	53
119	382
120	123
121	991
122	218
123	101
124	37
125	15
126	3
127	14
128	44
129	48
130	16
131	62
132	15
133	143
134	104
135	863
136	801
137	326
138	40
139	41
140	4
141	20
142	12
143	28
144	55
145	31
146	8
147	32
148	16
149	837
150	99
151	22
152	31
153	22
154	6
155	4
156	2
157	11
158	10
159	279
160	40
161	20
162	15
163	24
164	7
165	8
166	2
167	2
168	2
169	2
172	3
173	4
174	77
175	25
176	8
177	163
178	24
179	3
180	1
191	10
192	842
193	134
194	11
195	46
196	5
210	2
