Mass Spectrum: 2,2,6,7-Tetramethyl-10-oxatricyclo[4.3.1.0(1,6)]decan-5-ol
Formula: C13H22O2
CAS: 121841-67-6
Molecular weight: 210
m/z	intensity
26	14
27	200
28	117
29	254
30	9
31	44
36	2
37	3
38	8
39	254
40	47
41	695
42	85
43	999
44	42
45	43
46	2
47	5
49	4
50	17
51	62
52	31
53	197
54	36
55	413
56	162
57	188
58	28
59	45
60	5
61	7
62	4
63	21
64	9
65	104
66	32
67	287
68	43
69	262
70	72
71	132
72	24
73	9
74	7
75	8
76	9
77	217
78	77
79	309
80	58
81	252
82	64
83	122
84	28
85	64
86	18
87	7
88	22
89	14
90	5
91	280
92	49
93	600
94	275
95	342
96	150
97	140
98	111
99	46
100	9
101	15
103	27
104	19
105	185
106	56
107	427
108	235
109	268
110	266
111	449
112	56
113	18
114	4
115	81
116	17
117	43
118	37
119	220
120	71
121	488
122	156
123	392
124	95
125	57
126	14
127	12
128	24
129	25
130	10
131	36
132	12
133	78
134	88
135	386
136	395
137	169
138	29
139	186
140	30
141	26
142	11
143	13
144	28
145	18
146	6
147	18
148	12
149	249
150	36
151	24
152	123
153	57
154	82
155	12
156	2
157	6
158	4
159	190
160	28
161	12
162	6
163	18
164	24
165	12
166	5
167	42
168	6
169	2
170	2
173	4
174	41
175	24
176	5
177	140
178	19
179	4
180	2
181	5
182	89
183	12
184	2
185	1
187	2
189	2
191	5
192	373
193	58
194	5
195	32
196	4
210	11
211	2
