Mass Spectrum: Cinnamoylcymantrene
Formula: C17H11MnO4
CAS: 12184-59-7
Molecular weight: 334
m/z	intensity
51	119
55	999
56	239
63	79
65	119
77	119
80	99
81	49
92	39
93	129
102	39
103	169
104	19
132	229
133	9
152	39
153	39
158	659
159	59
165	109
166	19
167	29
177	19
178	19
194	19
195	19
250	999
251	119
252	24
277	31
278	4
334	9
335	2
