Mass Spectrum: 2-((1R,4R)-4-Hydroxy-4-methylcyclohex-2-enyl)propan-2-yl acetate
Formula: C12H20O3
CAS: 121958-61-0
Molecular weight: 212
m/z	intensity
27	19
29	20
31	20
38	2
39	56
40	12
41	105
42	15
43	999
44	23
45	25
50	4
51	18
52	8
53	36
54	21
55	71
56	7
57	17
58	12
59	274
60	11
61	7
63	7
64	2
65	35
66	17
67	102
68	28
69	53
70	7
71	27
77	72
78	18
79	237
80	18
81	59
82	24
83	14
84	12
87	3
91	66
92	11
93	66
94	531
95	128
96	24
97	18
98	3
101	185
102	12
103	4
104	3
105	13
106	3
107	30
108	9
109	174
110	22
111	12
115	5
117	7
119	98
120	14
121	8
122	6
123	19
124	7
134	38
135	38
136	8
137	712
138	71
139	7
151	7
152	158
153	21
154	4
166	2
197	1
