Mass Spectrum: Dotriacontane, 1,32-dibromo-
Formula: C32H64Br2
CAS: 121955-26-8
Molecular weight: 606
m/z	intensity
26	2
27	26
28	3
29	74
30	1
31	0
36	1
39	17
40	13
41	238
42	53
43	574
44	19
53	11
54	44
55	519
56	169
57	999
58	47
59	10
65	1
66	4
67	75
68	67
69	461
70	134
71	648
72	38
73	5
77	2
78	0
79	25
80	89
81	76
82	92
83	403
84	84
85	447
86	28
87	2
91	2
93	4
94	6
95	54
96	78
97	341
98	65
99	180
100	14
101	0
105	1
107	4
108	3
109	32
110	30
111	165
112	39
113	126
114	11
118	0
119	1
120	0
121	4
122	2
123	21
124	18
125	75
126	25
127	101
128	9
129	0
133	1
134	0
135	67
136	3
137	64
138	12
139	39
140	19
141	76
142	8
147	0
148	9
149	27
150	12
151	25
152	11
153	25
154	12
155	60
156	5
161	0
162	6
163	19
164	7
165	18
166	6
167	17
168	10
169	49
170	5
175	1
176	1
177	18
178	1
179	16
180	5
181	12
182	7
183	43
184	9
188	0
189	1
190	1
191	20
192	2
193	19
194	5
195	8
196	5
197	41
198	6
199	0
203	2
204	1
205	15
206	2
207	15
208	4
209	10
210	7
211	30
212	5
217	1
218	1
219	13
220	3
221	10
222	2
223	4
224	3
225	27
226	4
231	2
232	1
233	13
234	3
235	9
236	2
237	4
238	4
239	23
240	4
245	0
246	1
247	13
248	2
249	12
250	3
251	3
252	3
253	19
254	3
259	1
260	2
261	10
262	2
263	9
264	3
265	3
266	4
267	17
268	4
273	1
274	1
275	8
276	3
277	11
278	2
279	3
280	4
281	13
282	2
287	0
288	1
289	10
290	2
291	7
292	2
293	3
294	2
295	12
296	3
302	0
303	12
304	2
305	10
306	2
307	2
308	2
309	8
310	2
311	0
315	1
316	0
317	8
318	2
319	7
320	2
321	1
322	2
323	6
324	1
325	0
329	0
330	1
331	8
332	3
333	7
334	1
335	2
336	3
337	6
338	1
342	0
344	2
345	9
346	2
347	8
348	3
349	1
350	2
351	4
352	1
357	1
358	0
359	6
360	1
361	6
362	2
363	1
364	2
365	4
366	1
372	2
373	6
374	2
375	7
376	2
377	2
378	3
379	4
386	2
387	6
388	3
389	6
390	2
391	2
392	1
393	3
394	1
400	0
401	5
402	3
403	8
404	3
405	2
406	2
407	5
408	1
414	1
415	6
416	3
417	8
418	2
419	3
420	3
421	8
422	2
428	1
429	7
430	1
431	5
432	1
433	0
434	0
435	2
436	1
440	0
442	1
443	4
444	5
445	6
446	17
447	8
448	14
449	10
450	5
451	0
456	1
457	3
458	3
459	4
460	2
463	0
464	1
470	1
471	4
472	0
473	3
474	0
482	0
484	0
485	1
486	1
487	1
488	0
497	0
498	1
499	1
500	2
501	1
513	1
514	0
515	1
516	0
524	0
526	12
527	152
528	68
529	164
530	51
531	10
532	1
541	0
543	0
544	0
606	1
607	2
608	1
609	1
610	0
