Mass Spectrum: Palladium, .pi.-cyclopentadienyl(3a,4,7,7a-tetrahydromethoxy-4,7-methanoindan-5-yl)-
Formula: C16H20OPd
CAS: 12194-15-9
Molecular weight: 334
m/z	intensity
39	212
40	83
50	17
51	38
53	24
65	191
66	999
77	33
78	27
79	17
81	14
82	12
91	44
96	86
115	52
117	35
121	25
129	67
130	73
132	87
145	1
161	4
162	11
171	3
172	2
186	77
202	24
208	13
211	0
231	0
232	0
268	14
334	4
