Mass Spectrum: 3,5-Dioxatricyclo[5.2.2.0(2.6)]undeca-8,10-diene-8,9-dicarboxylic acid, 4,4-dimethyl-, dimethyl ester
Formula: C15H18O6
CAS: 121948-80-9
Molecular weight: 294
m/z	intensity
33	19
34	1
37	0
39	43
40	34
41	55
42	28
43	180
44	8
45	4
50	5
51	25
52	4
53	5
55	2
57	12
58	7
59	44
60	71
61	1
62	6
63	21
64	9
65	13
66	1
69	1
70	0
71	0
72	1
73	0
74	2
75	7
76	17
77	72
78	11
79	7
80	0
81	0
83	6
85	932
86	34
87	6
89	38
90	30
91	30
92	22
93	3
95	0
100	999
101	45
102	8
103	5
104	8
105	29
106	2
115	3
116	1
117	7
118	19
119	11
120	5
121	1
124	11
125	3
129	20
130	1
131	2
132	2
133	19
134	3
135	7
136	0
139	4
140	7
141	0
143	0
144	0
145	6
146	5
147	9
148	3
149	6
160	2
161	41
163	165
164	14
165	2
168	10
172	0
173	11
174	0
176	12
177	8
178	1
179	4
191	1
193	5
194	0
196	8
203	2
204	3
205	21
206	3
207	37
208	3
235	1
247	1
279	21
280	2
