Mass Spectrum: Benzyldimethylhexadecylammonium chloride
Formula: C25H46ClN
CAS: 122-18-9
Molecular weight: 395
m/z	intensity
41	77
42	38
43	84
44	21
45	11
46	7
49	4
50	15
51	16
52	5
53	2
54	1
55	37
56	15
57	38
58	999
59	41
61	5
62	12
63	28
64	6
65	34
66	1
67	3
68	1
69	14
70	8
71	9
72	3
73	2
74	1
75	1
77	3
83	4
84	9
85	3
86	2
89	18
90	7
91	275
92	19
97	1
98	0
99	1
114	1
118	1
119	1
120	4
121	2
125	7
126	55
127	4
128	14
129	1
132	1
134	168
135	48
136	2
198	1
210	5
225	6
240	1
254	1
268	19
269	25
270	7
345	5
346	1
360	0
