Mass Spectrum: Benzeneacetic acid, 3-phenylpropyl ester
Formula: C17H18O2
CAS: 122-44-1
Molecular weight: 254
m/z	intensity
26	2
27	2
28	1
36	2
38	1
39	13
40	1
41	15
50	4
51	11
52	3
53	1
62	2
63	10
64	3
65	45
66	3
74	1
75	1
76	2
77	18
78	12
79	11
89	17
90	14
91	478
92	42
93	2
102	2
103	15
104	10
105	20
106	2
107	2
115	16
116	5
117	301
118	999
119	84
120	4
135	3
136	4
163	5
165	2
166	1
167	3
178	1
179	2
