Mass Spectrum: Octadecylbenzyldimethylammonium chloride
Formula: C27H50ClN
CAS: 122-19-0
Molecular weight: 423
m/z	intensity
15	1
27	4
28	3
29	11
30	4
37	1
38	2
39	10
40	1
41	32
42	14
43	45
44	16
45	12
46	10
50	6
51	5
52	2
53	1
54	1
55	30
56	9
57	30
58	999
59	37
61	1
62	4
63	10
64	2
65	21
66	1
67	3
68	2
69	15
70	8
71	12
72	5
73	1
74	1
75	1
77	1
79	1
81	1
82	2
83	7
84	25
85	5
86	1
89	9
90	3
91	192
92	16
93	1
97	3
98	2
99	1
100	2
110	3
111	1
114	2
120	3
121	2
125	3
126	32
127	3
128	10
134	94
135	9
140	1
160	2
268	1
269	1
282	2
295	1
296	10
297	15
298	3
373	1
