Mass Spectrum: Hexadecanoic acid, DMOX derivative
Formula: C20H39NO
CAS: 122055-61-2
Molecular weight: 309
m/z	intensity
54	10
55	60
56	20
57	40
58	40
67	10
68	20
69	30
70	10
71	20
72	40
73	10
81	10
82	20
83	20
84	10
85	10
95	10
96	20
97	20
98	40
109	10
110	20
111	10
113	999
114	80
115	10
124	10
126	269
127	50
138	10
140	40
152	10
154	10
155	10
166	10
168	60
169	10
180	10
182	40
183	10
196	20
210	10
224	20
238	20
252	10
264	10
266	50
267	10
280	30
281	10
294	109
295	20
308	30
309	30
310	10
