Mass Spectrum: (Z)-1-Allyl-2-(prop-1-en-1-yl)disulfane
Formula: C6H10S2
CAS: 122156-03-0
Molecular weight: 146
m/z	intensity
26	10
29	16
30	1
32	6
33	3
34	3
35	1
36	2
37	26
38	61
39	586
40	42
41	999
45	751
46	61
47	144
48	4
49	5
50	2
51	3
52	1
53	26
54	6
55	25
56	3
57	24
58	78
59	111
60	17
61	287
62	9
63	13
64	69
65	24
67	78
68	25
69	73
70	15
71	312
72	205
73	713
74	199
75	41
76	11
77	18
79	100
80	10
81	484
82	45
83	2
84	3
85	30
86	4
87	5
88	1
92	7
94	1
98	3
99	45
100	14
101	12
103	82
104	97
105	293
107	28
111	4
112	3
113	65
114	5
117	10
118	1
131	2
145	1
146	533
147	46
