Mass Spectrum: 1,2-Epoxy-3-(3,3,4,4,5,5,6,6,7,7,8,8,8-tridecafluorooctyloxy)propane
Formula: C11H9F13O2
CAS: 122193-68-4
Molecular weight: 420
m/z	intensity
14	6
15	49
16	1
19	25
20	5
26	14
27	162
28	99
29	539
30	107
31	999
32	17
33	23
38	2
39	26
40	24
41	24
42	29
43	250
44	563
45	208
46	8
47	38
49	22
50	3
51	111
52	1
53	1
54	2
55	31
56	23
57	754
58	755
59	53
60	3
61	5
63	23
64	19
65	70
66	1
67	1
69	259
70	4
71	31
72	3
73	20
74	5
75	17
76	3
77	117
78	22
79	2
81	2
83	3
85	1
87	26
88	3
89	10
90	2
91	4
93	9
94	1
95	51
96	2
97	4
100	27
101	5
105	1
107	3
108	11
109	17
112	1
113	10
115	10
119	49
120	2
125	1
126	2
127	9
131	52
132	2
133	2
137	1
139	7
145	9
150	1
157	2
158	1
162	1
163	4
169	14
175	1
177	1
181	7
189	1
195	2
207	3
213	6
219	3
231	3
245	1
257	7
263	5
277	2
281	8
295	6
327	39
328	3
361	2
363	3
377	20
378	2
389	2
390	2
391	1
