Mass Spectrum: Iron, [(2,3,5,6-.eta.)-bicyclo[2.2.1]hepta-2,5-diene]tetracarbonylbis[.mu.-(methanethiolato)]di-, (Fe-Fe)
Formula: C13H14Fe2O4S2
CAS: 12215-56-4
Molecular weight: 410
m/z	intensity
39	185
47	109
48	74
50	46
51	74
65	185
66	370
91	999
92	462
144	4
149	3
176	11
191	13
206	2
209	2
241	2
242	4
248	2
268	18
283	6
298	11
326	8
354	4
382	5
410	2
