Mass Spectrum: (E)-1-Allyl-2-(prop-1-en-1-yl)disulfane
Formula: C6H10S2
CAS: 122156-02-9
Molecular weight: 146
m/z	intensity
25	1
26	8
27	40
29	17
30	1
32	5
33	3
34	2
35	2
36	1
37	24
38	53
39	552
40	38
41	999
42	38
44	8
45	725
46	53
47	136
48	4
49	5
50	2
51	2
53	24
54	5
55	27
56	3
57	23
58	77
59	115
60	13
61	357
62	13
63	16
64	72
65	24
66	16
67	76
68	26
69	78
70	14
71	297
72	149
73	723
74	204
75	38
76	12
77	17
78	13
79	96
80	11
81	496
82	43
83	2
84	4
85	26
86	4
87	6
90	2
92	9
94	1
97	5
98	5
99	74
100	15
101	15
102	1
103	78
104	157
105	318
106	47
107	32
108	3
109	1
111	4
112	6
113	71
114	6
115	4
117	10
131	2
145	1
146	425
147	34
148	37
149	3
150	1
