Mass Spectrum: 2-Cyclohexen-1-ol, 1-butyl-3-methyl-
Formula: C11H20O
CAS: 122364-47-0
Molecular weight: 168
m/z	intensity
26	2
27	57
28	4
29	84
30	1
31	4
38	4
39	78
40	11
41	129
42	9
43	78
44	5
45	2
50	5
51	19
52	8
53	47
54	10
55	125
56	9
57	43
58	8
59	0
60	0
61	0
62	2
63	9
64	5
65	40
66	10
67	47
68	6
69	41
70	2
71	5
72	0
73	0
74	1
75	1
76	0
77	102
78	26
79	173
80	31
81	40
82	26
83	67
84	2
85	1
86	0
88	0
89	1
90	0
91	167
92	43
93	443
94	67
95	31
96	6
97	6
98	17
99	1
102	1
103	9
104	4
105	49
106	13
107	194
108	253
109	26
110	10
111	999
112	104
113	6
115	6
116	1
117	5
118	0
119	5
120	4
121	393
122	41
123	1
125	5
128	0
129	0
133	0
135	19
136	1
137	0
139	0
140	2
149	2
150	269
151	31
152	2
153	43
154	4
155	0
169	0
