Mass Spectrum: 1-Methyl-4-(piperidin-4-yl)piperidine
Formula: C11H22N2
CAS: 122373-80-2
Molecular weight: 182
m/z	intensity
36	6
37	6
38	22
39	143
40	32
41	175
42	463
43	250
44	420
45	44
46	3
50	23
51	53
52	38
53	160
54	114
55	540
56	389
57	330
58	266
59	30
60	7
62	5
63	13
64	3
65	40
66	18
67	92
68	97
69	48
70	432
71	118
72	40
73	5
74	4
75	2
76	2
77	32
78	11
79	45
80	63
81	46
82	382
83	88
84	149
85	56
86	8
87	2
91	16
92	3
93	13
94	57
95	39
96	999
97	121
98	515
99	101
100	20
101	12
106	2
107	6
108	22
109	42
110	48
111	57
112	66
113	10
120	2
121	1
122	24
123	20
124	45
125	34
126	54
127	5
129	1
136	16
137	9
138	37
139	27
140	11
148	1
151	2
152	15
153	5
165	1
166	6
167	94
168	12
181	63
182	321
183	49
184	2
