Mass Spectrum: 1,3:2,5:4,6-Trimethylene-d-glycero-d-mannoheptitol
Formula: C10H16O7
CAS: 122359-92-6
Molecular weight: 248
m/z	intensity
41	357
42	132
43	598
44	226
45	999
46	23
47	17
49	8
50	9
51	21
52	11
53	66
54	46
55	293
56	70
57	728
58	49
59	65
60	14
61	40
62	1
63	4
65	8
66	3
67	21
68	86
69	552
70	109
71	211
72	82
73	692
74	34
75	21
77	6
78	14
79	5
81	74
82	16
83	53
84	36
85	458
86	212
87	113
88	8
89	12
91	1
95	19
96	6
97	62
98	44
99	179
100	37
101	38
102	10
103	65
104	4
105	4
106	5
109	9
110	5
111	38
112	7
113	21
114	69
115	177
116	23
117	40
118	2
123	5
124	8
125	7
126	13
127	52
128	64
129	48
130	5
131	10
132	1
133	7
139	6
141	44
142	6
143	15
144	76
145	384
146	27
147	6
149	0
153	1
155	2
156	2
157	25
158	20
159	11
169	2
170	2
171	5
173	108
174	70
175	311
176	25
177	5
187	45
188	11
189	5
200	4
201	10
217	40
218	230
219	27
220	4
247	6
248	11
249	7
