Mass Spectrum: Chromium, bis(1,3,5-trimethylbenzene)
Formula: C18H24Cr
CAS: 12243-05-9
Molecular weight: 292
m/z	intensity
28	3
29	2
30	0
37	0
38	1
39	19
41	15
42	0
43	0
44	4
45	0
50	47
51	13
52	999
53	105
54	26
55	1
56	0
57	0
58	4
59	5
60	0
61	0
62	2
63	6
64	1
65	11
66	0
67	1
68	0
69	0
70	0
73	0
74	1
75	2
76	1
77	28
78	10
79	20
80	1
81	0
82	0
83	0
84	0
85	0
86	0
87	0
88	0
89	2
90	3
91	25
92	3
93	2
94	0
95	0
97	0
101	0
102	2
103	13
104	6
105	197
106	17
107	0
110	0
113	0
115	7
116	1
117	6
118	1
119	33
120	103
121	10
122	0
123	0
124	0
127	0
129	0
130	1
131	0
133	0
134	0
135	0
136	0
137	0
139	0
141	0
142	0
143	2
144	1
145	8
146	136
147	9
149	0
150	0
152	0
153	0
154	0
155	0
156	0
157	0
158	0
162	0
165	0
167	0
168	0
169	2
170	41
171	49
172	786
173	158
174	34
175	2
176	3
177	0
179	0
180	0
186	0
207	0
277	0
278	1
279	0
281	0
288	0
289	1
290	31
291	34
292	514
293	153
294	36
295	4
