Mass Spectrum: Androstan-3-ol, (3.beta.,5.alpha.)-
Formula: C19H32O
CAS: 1224-92-6
Molecular weight: 276
m/z	intensity
40	60
41	999
42	110
43	520
44	40
45	80
50	20
51	50
52	30
53	280
54	80
55	910
56	130
57	460
58	40
59	40
60	30
61	10
63	10
64	10
65	110
66	50
67	720
68	200
69	360
70	130
71	170
72	20
73	40
74	20
75	10
76	10
77	230
78	70
79	530
80	160
81	770
82	180
83	260
84	60
85	110
86	10
87	20
88	10
89	10
91	370
92	100
93	580
94	300
95	920
96	160
97	160
98	30
99	30
100	10
101	20
102	10
103	30
104	10
105	280
106	70
107	580
108	490
109	370
110	80
111	160
112	60
113	30
115	30
116	20
117	60
118	30
119	180
120	110
121	370
122	200
123	180
124	70
125	80
126	30
127	30
128	30
129	30
130	10
131	70
132	30
133	220
134	110
135	410
136	110
137	80
138	30
139	20
140	10
141	20
142	10
143	20
144	10
145	90
146	30
147	290
148	240
149	270
150	150
151	70
152	20
153	20
154	10
155	20
159	70
160	30
161	230
162	180
163	210
164	60
165	150
166	50
167	20
168	10
169	10
171	20
173	70
174	30
175	160
176	110
177	50
178	40
179	40
180	20
181	10
182	10
183	10
185	10
187	120
188	80
189	240
190	80
191	50
192	20
193	20
199	10
200	10
201	140
202	330
203	490
204	340
205	110
206	110
207	30
211	10
213	10
215	280
216	130
217	80
218	230
219	100
220	30
221	20
229	110
230	60
231	20
232	20
233	180
234	110
235	30
241	20
242	20
243	999
244	210
245	30
247	30
248	90
249	20
255	20
257	20
258	370
259	90
260	20
261	240
262	50
274	10
275	10
276	740
277	170
278	20
