Mass Spectrum: Carbamic acid, N-phenyl-, 1-methyl-1-(4-methylcyclohex-3-enyl)ethyl ester
Formula: C17H23NO2
CAS: 1224-46-0
Molecular weight: 273
m/z	intensity
15	2
16	2
17	12
18	2
26	4
27	38
28	15
29	26
30	1
31	19
32	1
36	1
37	17
38	33
39	92
40	27
41	120
42	12
43	106
44	76
45	23
46	11
49	3
50	25
51	50
52	26
53	60
54	23
55	62
56	4
57	9
58	7
59	325
60	14
61	9
62	15
63	55
64	146
65	83
66	89
67	192
68	284
69	71
70	5
71	24
72	1
73	2
74	7
75	6
76	7
77	92
78	17
79	129
80	59
81	337
82	29
83	4
84	1
85	2
86	1
87	2
88	2
89	3
90	10
91	364
92	188
93	865
94	136
95	129
96	34
97	3
102	1
103	7
104	3
105	44
106	11
107	101
108	30
109	8
111	1
115	6
116	1
117	8
118	2
119	999
120	86
121	406
122	42
123	8
132	1
133	1
134	24
135	9
136	723
137	149
138	21
139	41
140	4
154	1
159	1
273	11
274	2
