Mass Spectrum: 4H-3,1-Benzoxazine, 1,2-dihydro-2-(4-methylphenyl)-
Formula: C15H15NO
CAS: 122483-64-1
Molecular weight: 225
m/z	intensity
27	22
29	7
39	49
41	13
43	12
50	18
51	74
52	31
53	14
63	27
64	10
65	78
66	8
75	8
76	18
77	195
78	204
79	55
84	13
89	38
90	28
91	162
92	33
93	38
96	9
97	14
98	17
99	8
102	13
103	35
104	475
105	999
106	111
107	9
112	12
113	7
115	6
116	12
117	10
118	34
119	99
120	353
121	36
132	85
133	36
134	82
135	8
152	12
153	5
165	21
166	7
167	6
178	8
179	10
180	36
181	15
182	15
191	7
192	10
193	17
194	34
195	10
196	58
197	39
198	5
206	12
207	26
208	28
209	14
210	34
211	5
223	8
224	98
225	512
226	87
227	9
