Mass Spectrum: 3-Chloro-4-(dichloromethyl)-2(5H)-furanone (red-mx)
Formula: C5H3Cl3O2
CAS: 122551-89-7
Molecular weight: 200
m/z	intensity
61	119
62	30
63	30
65	10
67	6
69	20
71	70
72	309
73	299
74	100
75	90
81	7
82	7
83	100
84	23
85	119
86	30
87	35
88	10
89	28
91	10
97	5
100	38
102	10
106	25
107	384
108	90
109	239
110	50
111	32
112	8
117	999
118	40
119	299
120	15
121	60
123	33
125	8
129	90
130	9
135	124
136	70
137	80
138	38
139	12
140	10
141	8
142	12
143	169
144	10
145	154
147	50
149	10
164	20
165	359
166	20
167	234
168	10
169	35
170	8
171	129
172	10
173	119
174	8
175	35
177	8
199	8
200	90
201	10
202	85
203	8
204	25
