Mass Spectrum: Coprost-25-en-16,22-epoxy-3.beta.-ol benzoate
Formula: C34H48O3
CAS: 122678-25-5
Molecular weight: 504
m/z	intensity
41	199
43	201
44	3
45	38
51	30
53	46
55	365
56	41
57	60
65	20
67	288
69	184
70	16
71	20
77	265
79	239
81	355
83	148
84	10
85	21
91	166
93	357
95	389
96	80
97	75
99	49
103	4
104	4
105	999
106	90
107	423
108	37
109	321
110	127
111	23
113	7
115	19
117	50
119	121
120	35
121	164
122	80
123	107
124	3
125	5
126	53
127	22
128	14
129	51
131	65
133	122
134	14
135	136
136	22
137	12
141	3
142	31
143	12
144	21
145	123
147	289
148	39
149	51
151	17
155	12
156	15
157	6
158	187
159	87
160	8
161	127
162	16
163	39
164	14
165	19
166	3
171	17
173	61
174	17
175	33
176	21
177	20
183	4
185	30
187	35
188	12
189	13
199	26
201	37
213	20
214	8
215	37
216	9
217	54
227	18
229	18
231	16
239	16
241	17
253	9
254	32
255	632
256	138
257	24
269	45
270	28
271	7
272	5
283	3
284	14
285	27
295	3
311	4
313	18
326	121
327	30
376	3
377	243
378	71
379	13
435	53
436	18
448	779
449	278
450	48
504	7
