Mass Spectrum: Trimethylsilylamine, N-(4-bromobenzylidene)-
Formula: C10H14BrNSi
CAS: 122687-88-1
Molecular weight: 255
m/z	intensity
25	3
26	12
27	32
28	67
29	56
30	2
31	35
33	0
34	0
36	5
37	36
38	52
39	37
40	3
41	14
42	29
43	225
44	69
45	182
46	13
47	14
48	4
49	35
50	348
51	227
52	55
53	30
54	13
55	30
56	15
57	34
58	100
59	985
60	75
61	52
62	32
63	34
64	7
65	8
66	8
67	7
68	3
69	5
70	6
71	7
72	37
73	999
74	230
75	491
76	332
77	377
78	29
79	13
80	3
81	14
82	4
83	8
84	10
85	5
86	9
87	7
88	5
89	45
90	25
91	36
92	4
93	11
94	1
95	2
96	1
97	4
98	1
99	8
100	33
101	8
102	114
103	152
104	35
105	15
106	3
107	27
108	1
109	28
110	1
111	1
112	1
113	2
114	3
115	5
116	4
117	14
118	5
119	24
120	29
121	28
122	1
123	1
124	0
125	1
126	0
127	2
128	4
129	9
130	8
131	15
132	6
133	21
134	15
135	3
136	1
137	7
138	1
139	7
140	1
141	16
142	6
143	1
144	1
145	3
146	26
147	66
148	10
149	31
150	4
151	0
152	1
153	0
154	1
155	120
156	96
157	123
158	83
159	3
160	5
161	36
162	6
163	10
164	3
165	2
166	0
167	3
168	0
169	28
170	2
171	28
172	2
173	0
174	0
175	8
176	13
177	2
178	1
179	13
180	2
181	42
182	742
183	793
184	793
185	725
186	56
187	3
188	0
189	2
191	4
192	3
193	0
194	1
195	0
196	1
197	7
198	1
199	13
200	1
201	6
202	0
205	0
206	0
208	0
209	1
210	20
211	2
212	23
213	225
214	34
215	227
216	30
217	10
218	0
222	0
223	1
224	5
225	1
226	11
227	3
228	7
229	4
230	0
231	1
232	0
238	0
239	4
240	908
241	138
242	925
243	155
244	41
245	22
246	1
247	0
253	3
254	157
255	333
256	226
257	342
258	68
259	20
260	4
