Mass Spectrum: Piperazine, 1,4-dimethyl-2,3-diphenyl-5-(phenylmethyl)-, (2R,3R,5S)-
Formula: C25H28N2
CAS: 122688-16-8
Molecular weight: 356
m/z	intensity
65	195
77	226
91	907
104	113
117	237
118	999
119	319
132	216
146	938
147	103
165	123
178	185
179	185
180	164
236	92
265	999
266	206
