Mass Spectrum: Piperazinium, 1,1,4-trimethyl-2,3-diphenyl-, iodide, trans-(.+-.)-
Formula: C19H25IN2
CAS: 122688-07-7
Molecular weight: 408
m/z	intensity
27	23
39	18
41	26
42	307
44	17
51	36
65	37
77	81
78	52
89	29
90	16
91	231
92	24
102	16
103	27
104	47
105	42
117	47
118	999
119	395
120	36
127	134
132	213
133	48
134	20
141	37
142	458
145	31
146	874
147	365
148	31
152	12
165	30
175	28
178	45
179	38
180	45
210	23
251	109
252	25
266	547
267	107
