Mass Spectrum: 2-[2-(5-Norbornenyl)oxy]-tetrahydropyran
Formula: C12H18O2
CAS: 122685-23-8
Molecular weight: 194
m/z	intensity
25	0
26	11
27	111
28	52
29	195
30	7
31	36
33	0
36	0
37	2
38	9
39	87
40	22
41	202
42	23
43	119
44	18
45	7
46	0
47	2
49	0
50	7
51	20
52	10
53	42
54	12
55	108
56	30
57	150
58	9
59	3
60	1
61	1
62	2
63	6
64	2
65	29
66	77
67	105
68	9
69	6
70	5
71	12
72	1
73	1
74	1
75	1
76	0
77	56
78	13
79	18
80	4
81	17
82	5
83	67
84	36
85	999
86	63
87	5
88	0
89	3
90	1
91	52
92	8
93	61
94	6
95	2
96	1
97	2
98	4
99	7
100	1
101	9
102	1
103	0
104	0
105	1
106	0
107	1
108	1
109	2
110	1
111	2
112	1
113	1
114	0
115	2
116	0
117	0
118	1
119	0
120	1
121	0
122	1
123	1
124	0
125	1
126	1
127	0
128	0
129	0
130	0
131	0
132	0
133	0
134	0
135	0
136	1
137	0
138	1
139	0
140	2
164	0
165	0
166	1
176	0
194	2
195	0
