Mass Spectrum: 2-(2-Pentoxy) tetrahydropyran
Formula: C10H20O2
CAS: 122685-20-5
Molecular weight: 172
m/z	intensity
27	49
29	79
41	160
43	322
45	100
55	148
56	619
57	109
67	70
70	110
71	100
85	999
86	60
101	260
102	79
129	171
