Mass Spectrum: Piperazine, 2,3-bis(4-bromophenyl)-1,4-dimethyl-5-(phenylmethyl)-, [2R-(2.alpha.,3.beta.,5.beta.)]-
Formula: C25H26Br2N2
CAS: 122688-18-0
Molecular weight: 512
m/z	intensity
39	61
41	57
42	999
43	31
44	30
50	29
51	56
63	63
65	141
75	42
76	52
77	124
78	47
85	38
89	160
90	128
91	677
92	65
97	36
102	69
103	70
104	107
105	25
115	93
116	65
117	328
118	228
119	35
130	53
131	101
132	80
144	75
145	56
151	38
152	37
157	25
165	42
169	130
171	121
176	77
177	50
178	266
179	69
196	327
197	174
198	349
199	158
200	44
210	75
211	39
212	77
224	410
225	58
226	375
227	38
245	17
256	23
258	28
285	13
287	13
300	15
301	12
302	15
303	11
314	28
316	26
336	19
338	45
340	17
421	281
422	62
423	493
424	109
425	284
426	48
