Mass Spectrum: 2-(1-Methylcyclopentyloxy)-tetrahydropyran
Formula: C11H20O2
CAS: 122685-21-6
Molecular weight: 184
m/z	intensity
29	58
41	130
43	128
55	251
56	89
57	99
67	190
82	210
83	598
84	120
85	999
86	60
184	10
