Mass Spectrum: 2H-Pyran, tetrahydro-2-[(3-methyltricyclo[2.2.1.0(2,6)]hept-3-yl)oxy]-
Formula: C13H20O2
CAS: 122685-26-1
Molecular weight: 208
m/z	intensity
29	68
41	89
43	161
55	50
57	79
66	81
67	140
79	258
80	68
84	209
85	999
86	60
91	118
107	569
108	49
111	99
124	50
125	79
141	70
208	10
