Mass Spectrum: 2-t-Butyl-5-(2-cyclohexyl-2-hydroxyethyl)oxazolidine-3,4-dicarboxylic acid, dimethyl ester
Formula: C19H33NO6
CAS: 122697-82-9
Molecular weight: 371
m/z	intensity
26	3
27	70
28	11
29	611
30	46
31	127
33	37
37	1
38	2
39	87
40	16
41	620
42	138
43	105
44	22
45	52
46	3
47	5
50	1
51	3
52	3
53	53
54	61
55	999
56	100
57	226
58	17
59	245
60	12
61	8
65	10
66	10
67	173
68	96
69	164
70	90
71	80
72	18
73	10
74	33
75	14
76	61
77	20
78	5
79	50
80	22
81	134
82	92
83	295
84	87
85	24
86	5
87	35
88	52
90	2
91	71
92	12
93	42
94	18
95	399
96	64
97	52
98	55
99	72
100	111
101	17
102	13
103	4
104	123
105	16
107	31
108	8
109	34
110	20
111	76
112	36
113	28
114	798
115	117
116	29
117	6
118	5
120	15
121	36
122	6
123	5
124	6
125	14
126	41
127	17
128	97
129	17
130	9
131	8
132	7
133	445
134	41
135	28
136	4
137	4
138	14
139	59
140	19
141	10
142	418
143	68
144	42
145	4
146	16
147	17
148	4
149	7
150	11
151	63
152	9
153	2
154	10
155	3
156	30
157	4
158	14
159	3
160	9
161	81
162	10
163	2
164	2
165	4
166	4
167	4
168	8
169	5
170	292
171	22
172	36
173	12
174	178
175	18
176	16
177	4
178	18
179	10
180	3
181	2
182	2
183	2
184	47
185	6
186	40
187	4
188	5
189	2
190	1
191	4
192	6
193	372
194	52
195	6
196	2
198	9
199	2
200	32
201	5
202	703
203	55
204	42
205	5
206	6
207	2
208	79
209	16
210	14
211	3
212	3
213	1
214	2
215	2
216	5
217	1
218	9
219	2
220	3
221	1
222	4
223	1
224	2
225	2
226	70
227	8
228	10
229	13
230	29
231	3
232	2
235	3
236	113
237	15
238	8
239	1
244	1
246	3
252	8
253	3
254	110
255	14
256	2
264	87
265	12
266	9
268	137
269	19
270	5
278	9
279	7
280	16
281	3
282	198
283	26
284	11
286	39
287	5
288	15
289	2
294	2
296	46
297	7
298	1
312	12
314	563
315	94
316	11
317	1
324	1
355	10
356	2
