Mass Spectrum: 1,4-Diazabicyclo[4.3.0]nonane, 2,3-bis(4-bromophenyl)-4-methyl-, (2R,3R,6S)-
Formula: C20H22Br2N2
CAS: 122688-21-5
Molecular weight: 448
m/z	intensity
26	45
27	313
28	198
29	163
30	23
31	23
37	10
39	37
40	366
41	79
42	745
43	849
44	137
45	64
46	15
51	174
52	205
53	54
54	94
55	197
56	113
57	63
58	76
60	23
62	79
63	302
64	64
65	86
66	36
67	75
68	97
69	63
70	73
74	66
75	212
76	257
77	396
78	79
79	31
80	40
81	24
82	60
83	22
84	12
86	23
87	46
88	89
89	976
90	669
91	255
92	27
94	15
95	15
96	42
99	21
101	14
102	93
103	294
104	303
105	133
106	28
108	17
113	17
114	38
115	147
116	217
117	465
118	293
119	39
125	15
126	42
127	47
128	96
129	270
130	999
131	469
132	285
133	32
134	7
138	11
139	38
140	15
141	22
142	33
143	90
144	157
145	27
149	11
150	55
151	116
152	102
153	18
154	29
155	88
156	45
157	93
158	104
159	31
163	33
164	21
165	68
166	18
167	17
168	22
169	698
170	80
171	659
172	445
173	76
174	20
175	36
176	250
177	143
178	593
179	104
180	21
181	65
182	565
183	116
184	528
185	55
186	14
190	13
194	24
195	38
196	535
197	130
198	527
199	109
200	35
208	160
209	240
210	663
211	304
212	517
213	92
214	15
215	11
221	330
222	80
223	340
224	75
225	17
235	27
236	146
237	257
238	227
239	245
240	82
241	11
248	11
249	28
250	741
251	292
252	783
253	271
254	74
256	60
257	18
258	67
259	17
260	9
264	22
265	17
266	32
267	19
268	8
279	201
280	27
281	194
282	22
293	61
294	12
295	60
296	11
326	15
328	9
336	77
337	17
338	163
339	24
340	73
341	11
352	10
354	6
366	18
368	33
369	20
370	19
371	20
372	12
406	8
433	41
434	10
435	84
436	16
437	40
438	8
447	17
448	152
449	59
450	293
451	80
452	149
454	31
