Mass Spectrum: Benzenemethanamine, 4-methoxy-N,N-dimethyl-.alpha.-(dimethylamino)-
Formula: C12H20N2O
CAS: 122687-84-7
Molecular weight: 208
m/z	intensity
42	300
43	150
44	999
45	520
58	200
77	170
121	580
135	320
136	210
148	170
150	110
162	310
163	140
164	390
208	370
209	50
