Mass Spectrum: (4aS,4bS,10aS)-7-Isopropyl-1,1,4a-trimethyl-1,2,3,4,4a,4b,5,9,10,10a-decahydrophenanthrene
Formula: C20H32
CAS: 122712-77-0
Molecular weight: 272
m/z	intensity
26	1
27	29
29	43
30	1
38	1
39	57
40	12
41	390
42	27
43	321
44	10
50	3
51	17
52	8
53	84
54	12
55	279
56	35
57	89
58	5
62	1
63	8
64	6
65	72
66	13
67	181
68	52
69	409
70	33
71	22
72	4
74	1
75	2
76	4
77	125
78	48
79	155
80	19
81	227
82	40
83	159
84	12
85	4
86	3
87	1
89	10
90	4
91	999
92	996
93	179
94	17
95	197
96	28
97	49
98	4
99	1
100	1
101	2
102	8
103	49
104	70
105	436
106	55
107	53
108	10
109	70
110	8
111	44
112	4
113	2
114	1
115	109
116	40
117	269
118	62
119	182
120	45
121	62
122	19
123	82
124	33
125	63
126	8
127	20
128	70
129	72
130	22
131	343
132	55
133	522
134	704
135	402
136	463
137	736
138	81
139	10
140	1
141	28
142	18
143	31
144	9
145	64
146	299
147	134
148	424
149	75
150	10
151	3
152	7
153	9
154	5
155	8
156	4
157	12
158	3
159	31
160	9
161	21
162	7
163	3
164	1
165	5
166	2
167	3
168	1
169	3
170	1
171	8
172	3
173	35
174	7
175	10
176	20
177	3
178	2
179	1
181	1
183	2
184	1
185	6
186	2
187	22
188	20
189	8
190	2
197	1
199	3
200	1
201	9
202	3
203	2
204	1
213	3
214	1
215	4
216	3
217	1
227	1
229	23
230	4
243	2
244	3
255	7
257	69
258	15
259	1
270	3
271	1
272	511
273	113
274	12
275	1
