Mass Spectrum: Tungsten, tetracarbonyl[(2,3,5,6-.eta.)-3a,4,7,7a-tetrahydro-4,7-methano-1H-indene]-
Formula: C14H12O4W
CAS: 12277-01-9
Molecular weight: 428
m/z	intensity
38	193
39	999
40	800
41	126
50	86
51	200
52	66
53	60
54	60
77	146
78	180
79	93
80	46
91	186
102	20
103	33
104	33
105	20
115	100
117	166
132	733
143	80
156	133
157	113
171	20
185	6
186	6
209	13
210	13
222	53
234	26
250	140
260	60
278	60
286	86
288	86
306	33
314	666
334	20
342	133
372	66
400	33
428	146
