Mass Spectrum: 2-Oxabicyclo[4.4.0]dec-9-en-8-one, 1,3,7,7-tetramethyl-, (-)-(1R,3S,6R)-
Formula: C13H20O2
CAS: 122723-58-4
Molecular weight: 208
m/z	intensity
41	170
43	190
55	210
69	999
70	120
77	60
79	50
81	30
91	80
93	90
95	80
96	40
97	40
98	880
111	160
123	80
139	120
151	20
165	80
180	30
193	220
208	240
