Mass Spectrum: Benzylamine, N-[2-(2-cyclopentenyl)ethyl]-
Formula: C14H19N
CAS: 122718-94-9
Molecular weight: 201
m/z	intensity
26	0
27	12
28	14
29	6
30	289
31	3
38	1
39	31
40	9
41	50
42	9
43	8
44	30
45	1
50	2
51	13
52	5
53	15
54	2
55	9
56	4
57	2
58	1
62	0
63	7
64	3
65	78
66	11
67	54
68	6
69	2
70	0
71	3
75	0
76	1
77	27
78	10
79	117
80	16
81	96
82	14
83	3
84	2
86	3
89	14
90	8
91	999
92	85
93	18
94	99
95	9
96	4
97	1
100	0
103	1
104	14
105	6
106	78
107	54
108	50
109	4
110	36
111	2
115	0
116	2
117	5
118	19
119	8
120	393
121	40
122	3
123	21
124	20
125	1
128	0
129	0
130	1
131	1
132	47
133	25
134	7
135	3
136	0
144	3
145	1
146	9
147	3
156	0
158	7
159	3
160	5
161	0
170	0
172	97
173	16
174	1
176	0
177	1
184	0
186	3
187	0
194	0
195	0
198	2
199	1
200	22
201	202
202	34
203	3
