Mass Spectrum: benz[d]isoxazole-4-ol, 3-undecyl-, acetate
Formula: C20H29NO3
CAS: 122763-58-0
Molecular weight: 331
m/z	intensity
41	386
42	59
43	999
44	30
45	7
47	1
49	10
50	6
51	19
52	19
53	30
54	19
55	196
56	39
57	106
58	6
60	3
61	2
62	4
63	8
64	4
65	19
66	9
67	32
68	14
69	93
70	18
71	22
72	2
73	3
76	3
77	16
78	13
79	26
80	16
81	25
82	8
83	17
84	13
85	9
86	5
88	1
89	6
90	7
91	14
92	9
93	21
94	18
95	17
96	5
97	9
98	3
99	2
100	6
102	2
103	5
104	4
105	9
106	18
107	46
108	11
109	5
110	3
111	4
112	2
113	0
114	3
115	4
116	2
117	8
118	15
119	12
120	16
121	16
122	31
123	12
124	3
125	2
126	1
127	2
128	2
129	2
130	6
131	18
132	6
133	9
134	23
135	119
136	66
137	8
138	5
139	1
140	2
141	2
144	3
145	2
146	7
147	16
148	60
149	973
150	90
151	15
152	3
154	1
156	0
157	1
158	2
159	2
160	6
161	17
162	329
163	60
164	15
165	2
166	2
167	0
169	2
172	2
173	3
174	9
175	10
176	81
177	42
178	7
181	1
183	1
186	2
187	3
188	18
189	6
190	200
191	432
192	49
193	5
201	1
202	7
203	2
204	234
205	72
206	10
207	1
216	3
218	114
219	53
220	5
222	0
230	3
232	83
233	98
234	14
235	1
244	2
246	115
247	31
248	5
260	69
261	16
262	3
264	6
272	23
273	4
274	24
275	5
276	1
288	47
289	169
290	34
291	4
302	8
303	2
314	2
316	5
330	9
331	125
332	44
333	7
