Mass Spectrum: 2-Ethyl-3-methoxycyclopropanecarboxylic acid
Formula: C7H12O3
CAS: 122775-04-6
Molecular weight: 144
m/z	intensity
35	6
39	352
40	67
41	461
42	57
43	98
44	101
45	169
50	50
51	84
52	30
53	138
54	40
55	440
56	145
57	118
59	54
61	298
65	91
66	40
67	427
68	50
69	216
71	138
72	16
73	67
77	118
78	16
81	27
83	999
84	159
85	138
87	77
92	6
93	6
94	23
95	20
96	27
97	77
98	16
99	237
100	16
105	172
111	149
112	111
115	705
116	54
126	37
129	67
144	30
