Mass Spectrum: 1,1-Dithiophenyl-2-phenyl-cyclobutane
Formula: C22H20S2
CAS: 122732-92-7
Molecular weight: 348
m/z	intensity
45	119
51	121
65	128
71	140
77	140
91	420
105	208
109	119
115	179
123	161
127	99
128	348
129	999
130	171
135	118
161	168
239	509
240	109
348	218
349	50
350	30
