Mass Spectrum: 2,5-Diazabicyclo[4.4.0]decane, 2,5-dimethyl-3,4-diphenyl-
Formula: C22H28N2
CAS: 122743-09-3
Molecular weight: 320
m/z	intensity
27	26
29	31
39	58
41	146
42	635
43	33
44	22
51	43
52	16
53	45
54	48
55	58
56	24
57	37
63	14
65	32
67	39
68	35
69	37
70	29
73	45
76	15
77	110
78	67
79	41
81	73
82	34
83	29
89	28
90	28
91	240
92	23
96	15
102	23
103	37
104	76
105	21
106	41
110	20
111	16
115	30
116	18
117	63
118	999
119	849
120	623
121	58
124	23
128	32
130	26
131	23
132	20
134	17
139	14
140	15
141	16
143	23
144	56
145	16
146	34
149	18
152	29
158	172
159	43
160	33
165	47
172	24
177	14
178	79
179	71
180	65
186	48
199	17
200	278
201	505
202	82
210	69
229	58
305	163
306	38
319	24
320	699
321	179
322	23
