Mass Spectrum: 1,1-(Phenylthio)-2-isopropyl-cyclobutane
Formula: C19H22S2
CAS: 122732-90-5
Molecular weight: 314
m/z	intensity
41	410
43	120
45	180
51	220
53	160
55	200
65	240
66	130
67	250
69	740
71	160
77	270
79	150
91	360
95	999
96	90
109	230
110	280
123	160
135	460
147	60
205	530
206	80
237	80
244	150
314	60
315	10
316	10
