Mass Spectrum: Molybdenum, (.eta.6-benzene)tricarbonyl-
Formula: C9H6MoO3
CAS: 12287-81-9
Molecular weight: 260
m/z	intensity
26	38
27	29
28	410
29	6
36	3
37	35
38	45
39	114
40	11
48	3
49	30
50	182
51	163
52	178
53	8
60	2
61	8
62	11
63	45
64	2
72	1
73	18
74	49
75	19
76	48
77	212
78	999
79	77
80	2
85	6
86	4
87	7
88	11
89	4
92	49
94	30
95	61
96	61
97	31
98	82
99	1
100	30
101	2
102	4
104	2
107	3
108	3
109	3
110	5
111	2
112	1
113	1
116	2
117	7
118	5
119	4
120	16
121	12
122	13
123	17
124	15
125	7
126	7
127	1
128	3
129	2
130	6
131	2
132	3
133	4
134	3
135	4
136	3
137	2
138	1
141	2
142	4
143	4
144	6
145	7
146	10
147	11
148	11
149	9
150	7
151	3
152	3
154	2
159	1
168	2
169	1
170	60
171	7
172	39
173	77
174	76
175	46
176	113
177	7
178	40
179	3
198	15
199	1
200	11
201	17
202	17
203	11
204	23
205	2
206	9
214	1
226	5
228	4
229	5
230	5
231	4
232	7
234	3
254	29
255	3
256	19
257	31
258	34
259	19
260	48
261	4
262	17
263	2
