Mass Spectrum: N-{4-[2-(Dimethylamino)ethoxy]benzyl}-3,4-dimethoxybenzamide
Formula: C20H26N2O4
CAS: 122898-67-3
Molecular weight: 358
m/z	intensity
15	1
18	1
27	1
28	4
29	3
30	5
38	1
39	2
40	1
41	3
42	23
43	11
44	9
45	1
46	1
50	2
51	6
52	2
53	3
54	1
55	3
56	16
58	999
59	37
60	1
62	1
63	4
64	2
65	3
66	4
67	1
68	1
69	1
70	7
71	16
72	27
73	1
74	1
75	1
76	4
77	18
78	5
79	15
80	1
89	18
90	7
91	10
92	9
93	2
94	7
95	2
102	1
103	1
104	3
105	3
106	1
107	10
108	2
109	2
110	1
115	1
119	6
120	5
121	5
122	8
123	3
124	2
132	1
133	3
134	1
135	1
136	1
137	10
138	3
139	2
141	1
144	1
145	1
147	1
148	3
149	2
151	2
152	1
153	1
162	1
163	3
164	2
165	79
166	10
167	1
175	1
176	2
177	1
179	1
181	1
281	1
285	1
286	2
287	2
356	1
357	1
358	15
359	4
