Mass Spectrum: 17-.alpha.-(1-Aziridinylmethyl)-5-.alpha.-androstan-17-.beta.-ol
Formula: C22H37NO
CAS: 122850-87-7
Molecular weight: 331
m/z	intensity
34	1
38	0
39	13
40	22
41	90
42	45
43	64
44	81
45	5
46	0
50	1
51	2
53	27
54	14
55	123
56	501
57	999
58	118
59	8
60	2
63	0
65	13
66	7
67	114
68	25
69	44
70	12
71	19
72	42
74	6
76	0
77	38
78	9
79	85
80	16
81	105
82	26
83	30
84	51
85	24
86	7
87	2
88	0
89	2
90	0
91	65
93	86
94	21
95	95
96	21
97	37
98	93
99	55
100	71
101	6
102	2
103	6
104	4
105	53
106	14
107	56
108	32
109	107
110	27
111	10
112	415
113	56
114	8
115	6
116	3
117	14
118	6
119	31
120	21
121	48
122	19
123	28
124	10
125	4
126	9
127	2
128	4
129	5
130	2
131	15
132	6
133	22
134	14
135	43
136	10
137	11
138	8
139	3
140	0
141	1
142	1
143	4
144	3
145	18
146	6
147	44
148	22
149	44
150	12
151	6
152	3
153	1
154	0
155	0
156	0
157	3
158	1
159	15
160	9
161	50
162	12
163	10
164	5
165	4
166	2
167	1
168	0
169	0
171	5
172	1
173	8
174	3
175	18
176	4
177	3
178	2
179	2
180	1
185	1
186	0
187	4
188	2
189	5
190	1
191	2
192	0
193	0
194	0
195	0
198	0
199	3
200	0
201	7
202	4
203	11
204	3
205	2
206	1
207	0
208	0
211	0
213	2
214	0
215	26
216	6
217	33
218	12
219	2
220	0
221	0
222	0
227	0
228	0
229	1
230	118
231	26
232	6
233	1
234	0
241	4
242	3
243	3
244	1
245	1
246	1
247	3
248	0
253	1
254	0
255	40
256	11
257	81
258	17
259	6
260	3
261	0
262	0
268	1
269	1
270	21
271	6
272	3
273	5
274	15
275	26
276	5
283	0
284	0
285	0
286	2
287	0
288	38
289	8
290	0
295	0
296	0
298	29
299	7
300	0
301	0
302	5
303	10
304	3
312	1
313	4
314	1
316	16
317	3
329	0
330	4
331	173
332	42
333	5
334	0
