Mass Spectrum: N-Heptyl-N'-(10-[2-(heptyl-methyl-carbamoyl)-acetylamino]-decyl)-N-methyl-malonamide
Formula: C32H62N4O4
CAS: 122861-03-4
Molecular weight: 566
m/z	intensity
26	2
27	23
29	37
30	67
31	7
39	16
40	2
41	128
42	53
43	100
44	999
45	21
46	0
47	0
50	1
51	2
52	1
53	4
54	5
55	76
56	30
57	194
58	64
59	5
60	4
63	0
64	0
65	2
66	0
67	7
68	5
69	27
70	22
71	11
72	16
73	14
74	4
75	0
76	1
77	2
78	0
79	2
80	0
81	7
82	5
83	15
84	12
85	7
86	21
87	19
88	0
91	3
93	1
95	5
96	3
97	9
98	9
99	10
100	15
101	5
102	0
103	0
104	1
105	1
106	0
107	1
108	0
109	1
110	2
111	3
112	19
113	11
114	16
115	4
116	1
117	4
118	0
119	3
120	3
121	1
122	0
123	1
124	1
125	2
126	11
127	5
128	511
129	44
130	42
131	4
132	3
133	0
134	0
135	1
136	0
137	1
138	1
139	1
140	6
141	10
142	15
143	6
144	11
145	2
152	2
153	1
154	9
155	6
156	131
157	15
158	9
159	2
160	0
161	0
162	0
163	0
164	0
165	1
166	0
167	2
168	5
169	2
170	5
171	15
172	8
173	6
174	0
175	0
176	0
177	1
178	0
179	1
180	1
181	1
182	7
183	2
184	4
185	9
186	6
187	1
189	0
190	0
191	1
192	0
193	0
194	0
195	1
196	4
197	17
198	48
199	19
200	6
201	0
202	0
203	0
204	0
205	1
206	0
207	0
208	0
209	0
210	2
211	2
212	2
213	17
214	10
215	7
216	1
217	0
218	0
219	0
220	0
221	0
222	0
223	2
224	4
225	2
226	1
227	10
228	22
229	5
230	0
231	0
232	0
233	0
234	0
235	0
236	0
237	0
238	1
239	8
240	5
241	36
242	14
243	2
247	0
250	0
251	0
252	1
253	1
254	1
255	17
256	10
257	1
258	0
265	2
266	1
267	4
268	1
269	15
270	6
271	0
272	0
278	0
279	0
280	0
281	0
282	1
283	16
284	8
285	2
286	0
291	0
292	0
294	0
295	0
296	0
297	12
298	7
299	0
300	0
307	0
308	0
309	4
310	0
311	9
312	3
313	1
314	0
323	0
324	0
325	7
326	8
327	3
328	0
338	0
339	20
340	6
341	1
342	1
350	0
351	0
352	1
353	8
354	3
355	0
356	0
366	1
367	0
368	11
369	4
370	6
371	1
379	0
380	0
381	0
382	0
383	0
384	0
393	0
394	1
395	1
396	11
397	3
398	2
399	0
408	0
409	0
410	0
411	19
412	5
413	0
425	0
426	0
436	0
437	3
438	14
439	4
440	0
453	0
467	0
468	1
469	0
481	2
482	8
483	2
484	0
494	0
495	6
496	2
497	0
509	3
510	2
511	0
523	3
524	1
537	3
538	1
539	0
551	1
565	4
566	43
567	19
568	3
