Mass Spectrum: 4-(3-Methoxyphenyl)butylamine
Formula: C11H17NO
CAS: 122875-03-0
Molecular weight: 179
m/z	intensity
41	186
43	266
44	137
45	999
46	22
48	2
50	49
51	125
52	86
53	45
54	21
55	37
56	192
57	24
58	24
59	3
60	2
61	2
62	19
63	91
64	50
65	174
66	25
68	6
69	8
70	14
71	13
72	3
73	2
74	9
75	10
76	17
77	215
78	259
79	73
80	7
81	4
82	4
83	3
84	4
85	2
86	3
87	3
89	67
90	33
91	335
92	55
93	14
94	11
95	7
96	3
97	2
98	2
99	1
101	2
102	12
103	51
104	40
105	49
106	24
107	42
108	28
109	16
110	2
111	1
115	35
116	10
117	23
118	7
119	20
120	1
121	274
122	176
123	18
124	3
127	3
128	5
129	7
130	7
131	40
132	10
133	1
134	310
135	60
136	63
137	4
139	1
144	2
145	2
146	6
147	54
148	17
149	10
150	14
151	1
159	2
160	3
161	83
162	464
163	53
164	11
165	1
166	9
177	1
178	28
179	234
180	46
181	3
