Mass Spectrum: 2-Pentadecanol, TMS derivative
Formula: C18H40OSi
CAS: 122825-95-0
Molecular weight: 300
m/z	intensity
55	90
57	60
59	40
61	40
69	40
71	50
73	260
74	40
75	360
76	40
77	40
82	40
83	60
84	60
85	20
89	50
91	20
97	40
101	50
103	60
109	40
117	999
118	110
119	40
131	60
285	90
286	22
287	6
288	1
