Mass Spectrum: 2-t-Butyl-4-oxo-5-(2-oxo-2-phenylethyl)oxazolidine-3-carboxylic acid, methyl ester
Formula: C17H21NO5
CAS: 122877-19-4
Molecular weight: 319
m/z	intensity
27	49
28	15
29	96
30	6
31	3
38	5
39	50
40	9
41	159
42	86
43	32
44	6
45	5
50	27
51	113
52	13
53	10
54	11
55	53
56	13
57	144
58	9
59	88
60	3
61	4
62	2
63	2
64	8
65	11
66	2
67	3
68	9
69	27
70	17
71	12
72	9
74	7
75	11
76	32
77	495
78	50
79	3
80	13
82	6
84	4
85	2
86	2
87	2
88	4
89	4
91	46
92	5
96	7
98	14
99	5
101	16
102	12
103	116
104	15
105	999
106	81
107	4
112	34
113	4
114	3
115	7
119	26
120	9
121	21
128	21
129	6
130	15
131	53
132	11
133	4
140	4
141	2
142	3
144	6
145	85
146	10
147	3
156	6
157	3
158	120
159	479
160	62
161	5
173	7
191	34
192	4
201	3
202	3
218	48
219	6
234	11
262	563
263	87
264	11
304	2
319	4
