Mass Spectrum: Benzoic acid, (4-benzoyloxy-2-chlorophenyl) ester
Formula: C20H13ClO4
CAS: 122842-83-5
Molecular weight: 352
m/z	intensity
29	1
38	1
39	4
40	2
44	2
50	27
51	92
52	3
53	2
54	1
60	0
62	1
63	1
74	4
75	3
77	334
78	15
79	0
82	0
105	999
106	59
107	3
352	14
353	2
354	4
