Mass Spectrum: 3-Oxazolidinecarboxylic acid, 2-(1,1-dimethylethyl)-4-methoxy-5-oxo-, methyl ester, (2R-cis)-
Formula: C10H17NO5
CAS: 122877-14-9
Molecular weight: 231
m/z	intensity
26	3
27	59
28	66
29	118
30	29
31	21
33	18
38	4
39	72
40	12
41	195
42	409
43	47
44	20
45	18
47	67
51	3
53	14
54	6
55	30
56	21
57	127
58	45
59	158
60	25
61	3
67	3
68	5
69	52
70	13
71	20
72	17
73	29
74	18
75	56
76	3
82	9
83	9
84	4
85	9
86	218
87	18
88	12
89	4
91	19
96	6
98	3
101	12
102	14
104	15
112	10
114	5
115	8
116	4
118	999
119	40
120	5
128	44
129	3
130	5
132	3
134	2
140	2
143	6
144	3
146	170
147	9
172	7
174	88
175	5
184	7
187	5
200	11
216	1
231	1
