Mass Spectrum: Iron, (.eta.5-2,4-cyclopentadien-1-yl)[(1,2,3,3a,7a-.eta.)-4,5,6,7-tetrahydro-4-hydroxy-5-methyl-1H-inden-1-yl]-, stereoisomer
Formula: C15H18FeO
CAS: 12283-15-7
Molecular weight: 270
m/z	intensity
56	366
63	49
65	146
66	122
73	61
77	63
78	37
79	24
88	49
91	244
92	24
95	37
102	37
103	49
105	24
115	390
116	146
117	999
118	85
119	24
120	24
121	320
122	37
127	73
128	269
129	342
130	171
131	171
132	610
133	61
134	37
135	24
138	207
171	37
172	37
183	24
184	171
185	390
186	390
187	220
188	37
199	37
202	12
205	24
227	24
228	12
236	37
237	220
238	49
249	37
250	320
251	390
252	537
253	110
254	24
266	24
268	122
269	24
270	758
271	146
