Mass Spectrum: Chromium, bis[.mu.-[(1-.eta.:2,3-.eta.)-2-propenyl]]bis(.eta.3-2-propenyl)di-, (Cr-Cr)
Formula: C12H20Cr2
CAS: 12295-17-9
Molecular weight: 268
m/z	intensity
27	286
28	23
29	17
31	4
36	28
37	120
38	182
39	999
40	276
41	752
42	284
43	23
44	22
45	1
49	1
50	28
51	4
52	650
53	79
54	20
55	11
56	5
57	8
58	1
59	4
62	1
63	2
64	1
65	6
66	17
67	38
68	4
69	7
70	2
71	4
72	4
73	6
74	1
77	12
78	8
79	11
80	5
81	6
82	4
83	2
84	1
85	1
89	5
90	17
91	75
92	24
93	340
94	53
95	12
96	1
97	2
102	11
103	12
104	120
105	94
106	29
107	5
108	2
109	2
114	1
115	1
116	6
117	9
118	22
119	11
120	3
121	1
127	4
128	2
129	21
130	10
131	15
132	10
133	20
134	93
135	19
136	3
140	3
141	39
142	33
143	270
144	181
145	78
146	35
147	9
148	2
156	3
157	2
158	2
159	2
160	1
161	2
169	2
170	2
172	3
173	1
175	3
176	1
181	2
182	6
183	31
184	15
185	272
186	123
187	42
188	6
189	1
191	1
197	2
198	1
199	11
200	3
201	1
202	1
207	3
209	1
223	3
224	29
225	20
226	171
227	120
228	38
229	7
230	1
266	6
267	2
268	59
269	21
270	6
271	2
