Mass Spectrum: 4-Dimethylphosphoryl-4-methyl-methylallophanate
Formula: C6H13N2O6P
CAS: 122916-45-4
Molecular weight: 240
m/z	intensity
27	21
28	285
29	357
30	941
31	435
32	21
33	20
41	12
42	189
43	268
44	213
45	68
46	12
47	378
48	55
49	85
54	18
55	76
56	147
57	34
58	236
59	474
60	47
61	12
62	21
63	81
64	19
65	12
66	54
69	24
70	350
71	69
72	21
73	11
74	10
76	53
77	67
78	80
79	58
80	317
81	69
82	278
83	709
84	90
85	12
86	21
88	9
90	17
92	48
93	222
94	60
95	413
96	270
97	10
102	61
106	181
107	28
108	483
109	999
110	702
111	78
112	9
114	581
115	288
116	19
120	93
121	16
122	22
124	75
125	11
126	43
127	999
128	89
129	35
131	39
132	6
133	28
135	11
136	9
137	11
138	941
139	900
140	100
141	53
152	198
153	14
165	7
166	295
167	14
179	26
180	4
181	7
182	18
183	42
184	5
208	128
209	434
210	28
211	6
223	22
224	2
235	10
240	557
241	322
242	30
243	5
