Mass Spectrum: 4',4'',5',5''-Tetraaminodibenzo[b,k]-1,4,7,10,13,16-hexaoxacyclooctadeca-2,11-diene
Formula: C20H28N4O6
CAS: 122942-39-6
Molecular weight: 420
m/z	intensity
51	306
55	426
56	239
57	559
58	999
59	706
60	199
69	333
70	213
71	373
72	946
73	933
74	586
75	506
76	293
77	573
89	626
95	333
105	799
111	186
122	359
124	239
139	399
140	266
150	199
151	386
155	266
166	119
167	106
195	106
197	106
198	119
225	119
226	133
227	133
239	159
240	119
241	93
242	146
252	106
253	106
254	199
255	93
262	106
266	93
267	93
268	346
269	826
270	199
281	106
296	106
313	226
314	93
316	93
326	66
330	93
356	9
357	95
358	22
374	66
390	119
418	466
419	133
420	79
