Mass Spectrum: Formamide, N-methyl-
Formula: C2H5NO
CAS: 123-39-7
Molecular weight: 59
m/z	intensity
15	70
27	30
28	340
29	130
30	540
31	20
41	30
42	10
43	10
44	10
45	1
55	3
56	4
57	4
58	80
59	999
60	30
