Mass Spectrum: Propanedinitrile, (ethoxymethylene)-
Formula: C6H6N2O
CAS: 123-06-8
Molecular weight: 122
m/z	intensity
25	8
26	56
27	402
28	80
29	999
30	27
31	6
37	6
38	83
39	50
40	21
41	13
42	9
43	22
44	15
45	10
50	10
51	43
52	25
53	4
64	25
65	32
66	500
67	55
68	8
76	10
77	27
78	7
79	16
93	11
94	372
95	47
96	4
107	4
121	5
122	308
123	36
