Mass Spectrum: Acetic acid, 2,2'-thiobis-
Formula: C4H6O4S
CAS: 123-93-3
Molecular weight: 150
m/z	intensity
12	5
13	21
14	105
15	42
16	6
17	22
18	72
19	3
25	3
26	7
27	85
28	57
29	92
30	6
31	285
32	12
33	9
34	10
35	32
36	2
37	2
39	5
40	3
41	21
42	354
43	102
44	49
45	708
46	373
47	999
48	31
49	39
50	1
53	1
54	2
55	10
56	5
57	12
58	25
59	87
60	593
61	282
62	23
63	50
64	3
65	2
67	3
68	2
69	8
70	3
71	6
72	4
73	9
74	39
75	10
76	3
77	494
78	14
79	21
80	1
81	4
82	3
83	5
84	2
85	3
86	4
87	18
88	5
90	15
91	25
92	5
93	1
95	2
96	2
97	4
98	2
99	1
103	1
104	270
105	119
106	99
107	8
108	4
109	1
110	1
111	1
112	1
113	1
114	20
115	1
116	2
132	327
133	18
134	18
135	1
150	184
151	9
152	9
