Mass Spectrum: Propanal
Formula: C3H6O
CAS: 123-38-6
Molecular weight: 58
m/z	intensity
12	1
13	3
14	10
15	22
16	1
19	1
24	4
25	22
26	159
27	473
28	577
29	880
30	52
31	29
36	8
37	36
38	40
39	70
40	18
41	23
42	54
43	25
44	1
52	5
53	22
54	4
55	35
56	5
57	297
58	999
59	40
60	3
