Mass Spectrum: Heptanoic acid, 2-amino-7-chloro-2-methyl-, (R)-
Formula: C8H16ClNO2
CAS: 123053-18-9
Molecular weight: 193
m/z	intensity
26	9
27	100
28	47
29	62
30	79
31	241
38	5
39	98
40	23
41	177
42	790
43	156
44	138
45	35
46	4
50	4
51	12
52	6
53	38
54	46
55	190
56	77
57	149
58	135
59	11
60	10
65	4
66	5
67	54
68	23
69	34
70	446
71	55
72	7
73	3
74	5
77	10
79	14
80	9
81	18
82	22
83	22
84	41
85	9
86	5
87	10
88	507
89	40
90	5
91	5
93	9
94	4
95	44
96	45
97	7
98	21
100	15
110	6
111	8
112	77
113	15
114	9
130	999
131	82
132	5
148	6
176	6
