Mass Spectrum: Iron, hexacarbonyl(2,3,4-hexatriene)di-
Formula: C12H8Fe2O6
CAS: 12307-54-9
Molecular weight: 360
m/z	intensity
28	630
56	999
84	400
112	590
136	130
164	70
192	200
220	330
248	190
276	20
304	20
332	70
360	70
