Mass Spectrum: Iron, tricarbonyl[(2,3,4,5-.eta.)-2,4-cyclohexadien-1-ol]-
Formula: C9H8FeO4
CAS: 12306-93-3
Molecular weight: 236
m/z	intensity
50	64
51	108
52	118
56	367
73	97
77	259
78	999
79	162
84	54
94	64
132	81
134	999
135	108
152	108
180	162
208	497
