Mass Spectrum: 2-t-Butyl-5-(3-chloropropyl)-3,5-dimethyl-4-oxoimidazolidine-1-carboxylic acid, t-butyl ester
Formula: C17H31ClN2O3
CAS: 123053-46-3
Molecular weight: 346
m/z	intensity
25	2
27	29
28	16
29	120
30	5
31	1
35	16
36	4
38	2
39	1
40	41
41	9
42	213
43	202
44	25
45	29
46	1
49	85
51	2
52	30
53	7
54	4
55	36
56	45
57	999
58	56
59	7
63	1
65	2
67	12
68	7
69	18
70	14
71	7
75	2
76	1
77	2
81	1
82	7
83	8
84	5
91	1
94	2
95	2
96	12
97	12
98	11
99	3
100	21
101	1
103	2
104	1
105	1
110	2
111	11
112	19
113	126
114	8
119	5
120	35
121	4
122	11
125	10
126	7
127	30
128	2
131	2
133	3
141	4
146	7
148	3
153	12
154	2
155	3
156	2
157	267
158	19
159	2
160	1
161	3
162	6
163	1
164	2
167	2
169	3
171	74
179	6
188	5
189	318
190	31
191	109
192	9
197	32
198	3
199	4
205	1
211	5
213	58
214	6
227	14
228	1
231	3
233	505
234	53
235	172
236	16
237	1
253	1
273	29
274	4
275	18
276	2
277	3
289	84
290	12
291	28
292	4
346	2
