Mass Spectrum: 2-Heptanone, 7,7-dimethoxy-5-(1-methylethyl)-
Formula: C12H24O3
CAS: 123160-36-1
Molecular weight: 216
m/z	intensity
26	1
27	22
28	0
29	27
30	1
31	26
33	3
38	1
39	21
40	4
41	103
42	9
43	301
44	9
45	36
46	1
47	89
48	2
49	0
50	0
51	2
52	1
53	13
54	3
55	53
56	9
57	17
58	34
59	25
60	1
61	50
62	1
63	1
65	4
66	2
67	44
68	9
69	120
70	10
71	55
72	5
73	3
74	3
75	999
76	43
77	11
78	1
79	12
80	2
81	61
82	8
83	39
84	19
85	14
86	1
87	3
88	3
89	2
91	5
92	1
93	28
94	4
95	29
96	3
97	11
98	2
99	9
100	1
101	3
102	0
103	0
104	0
105	1
106	0
107	9
108	31
109	70
110	7
111	38
112	4
113	27
114	4
115	9
116	0
117	0
119	2
120	0
121	0
122	0
123	6
124	1
125	97
126	106
127	15
128	1
129	1
133	0
134	1
135	24
136	2
137	5
138	1
139	1
140	0
141	33
142	3
143	3
151	1
152	5
153	12
154	1
155	1
156	0
157	0
165	1
166	1
167	3
168	0
169	3
170	0
171	0
173	15
174	1
183	0
184	9
185	8
186	1
215	2
216	0
