Mass Spectrum: 3-Octanol, 2,6-dimethyl-, acetate
Formula: C12H24O2
CAS: 123232-57-5
Molecular weight: 200
m/z	intensity
26	10
27	73
28	9
29	101
30	2
31	5
37	0
38	1
39	31
40	7
41	204
42	23
43	999
44	31
45	9
49	0
50	1
51	1
52	1
53	9
54	5
55	135
56	65
57	61
58	13
59	8
60	1
61	8
62	0
63	0
64	0
65	1
66	1
67	11
68	6
69	132
70	120
71	59
72	5
73	12
74	0
77	1
78	0
79	2
80	0
81	4
82	4
83	34
84	26
85	13
86	14
87	37
88	3
91	1
93	0
95	7
96	6
97	321
98	30
99	2
100	0
101	0
102	0
103	0
105	0
109	1
110	2
111	25
112	8
113	3
114	3
115	50
116	4
117	0
119	0
125	8
126	1
128	0
129	1
130	2
131	0
140	59
141	9
142	0
143	3
144	0
156	3
157	25
158	2
