Mass Spectrum: (Z)-all-trans-3,7,11-Trimethyl-2,6,10-dodecatriene-1-aldoxime
Formula: C15H25NO
CAS: 123257-83-0
Molecular weight: 235
m/z	intensity
26	4
27	109
28	41
29	78
30	15
31	6
36	0
38	3
39	110
40	25
41	573
42	35
43	44
44	8
45	1
46	2
50	3
51	14
52	10
53	134
54	23
55	74
56	15
57	14
58	2
59	1
60	0
63	2
64	0
65	25
66	14
67	113
68	59
69	999
70	60
71	7
73	0
77	38
78	10
79	50
80	60
81	350
82	46
83	23
84	201
85	11
86	7
87	2
89	0
91	45
92	9
93	54
94	25
95	100
96	24
97	5
98	18
99	135
100	11
103	5
104	1
105	23
106	13
107	32
108	17
109	27
110	27
111	11
112	30
113	3
115	3
116	1
117	6
118	3
119	12
120	7
121	25
122	7
123	20
124	18
125	4
126	3
127	3
128	0
130	0
131	6
132	6
133	13
134	14
135	11
136	28
137	52
138	8
139	1
140	2
142	1
145	4
146	4
147	6
148	8
149	6
150	11
151	5
152	12
153	10
154	2
155	2
159	4
160	0
161	2
162	5
163	0
164	4
165	0
166	11
167	2
169	3
174	3
175	7
176	4
177	1
178	0
189	0
192	14
193	4
201	4
202	3
203	4
207	1
218	94
219	16
220	12
221	0
235	8
236	0
