Mass Spectrum: d-Lyxose, dihexyl mercaptal
Formula: C17H36O4S2
CAS: 123390-09-0
Molecular weight: 368
m/z	intensity
27	125
28	25
29	179
30	13
31	51
33	2
34	5
35	9
36	1
37	1
38	3
39	55
40	122
41	294
42	74
43	999
44	32
45	53
46	13
47	68
48	9
49	4
50	2
51	3
52	1
53	16
54	8
55	261
56	165
57	140
58	9
59	33
60	31
61	198
62	8
63	7
64	1
65	4
66	1
67	17
68	6
69	56
70	4
71	60
72	8
73	122
74	13
75	20
76	78
77	76
78	13
79	36
80	2
81	14
82	8
83	145
84	40
85	235
86	14
87	59
88	8
89	45
90	3
91	21
92	3
93	8
94	0
95	10
96	1
97	28
98	4
99	9
100	2
101	19
102	3
103	14
104	2
105	7
106	0
107	3
108	1
109	3
110	0
111	1
112	1
113	6
114	4
115	100
116	16
117	46
118	32
119	28
120	3
121	2
122	0
123	0
125	1
126	0
127	1
128	1
129	32
130	4
131	122
132	13
133	247
134	13
135	3
136	0
137	0
139	0
141	2
142	1
143	2
144	0
145	3
146	0
147	4
148	0
149	2
150	0
151	0
155	0
157	3
158	1
159	20
160	41
161	199
162	27
163	115
164	12
165	9
166	1
167	0
169	0
171	8
172	2
173	21
174	2
175	1
176	1
177	3
178	0
179	0
181	0
183	1
184	0
185	5
186	1
187	1
188	2
189	8
190	1
191	1
192	0
193	1
197	0
198	0
199	0
200	0
201	4
202	1
203	1
204	0
205	1
213	0
214	0
215	7
216	1
217	1
219	6
220	1
221	0
231	1
232	1
233	90
234	12
235	5
236	0
245	1
247	746
248	127
249	73
250	13
251	10
252	1
253	0
260	1
261	1
262	0
273	0
275	4
276	1
277	1
278	0
289	12
290	2
291	1
292	0
337	0
368	32
369	8
370	4
371	0
