Mass Spectrum: d-Galactose, didecyl mercaptal
Formula: C26H54O5S2
CAS: 123389-89-9
Molecular weight: 510
m/z	intensity
25	4
26	20
27	188
28	27
29	393
30	18
31	87
33	5
34	13
35	14
36	7
37	4
38	6
39	105
40	114
41	637
42	149
43	999
44	38
45	67
46	17
47	105
48	10
49	7
50	5
51	9
52	5
53	43
54	42
55	606
56	235
57	615
58	26
59	34
60	80
61	258
62	11
63	12
64	2
65	9
66	9
67	68
68	76
69	376
70	263
71	255
72	15
73	168
74	25
75	28
76	88
77	27
78	16
79	21
80	4
81	45
82	44
83	259
84	108
85	155
86	20
87	111
88	23
89	68
90	5
91	228
92	8
93	8
94	4
95	26
96	25
97	110
98	42
99	27
100	7
101	65
102	14
103	70
104	8
105	10
106	1
107	5
108	3
109	10
110	10
111	43
112	40
113	12
114	4
115	40
116	6
117	13
118	3
119	5
120	1
121	3
122	1
123	4
124	1
125	4
126	4
127	46
128	16
129	25
130	4
131	9
132	2
133	9
134	2
135	3
136	1
137	2
138	4
139	3
140	44
141	6
142	2
143	12
144	5
145	83
146	6
147	4
148	1
149	3
150	1
151	2
152	1
153	2
154	1
155	2
157	2
158	1
159	4
160	1
161	5
162	2
163	46
164	3
165	2
167	2
168	1
169	2
171	26
172	18
173	44
174	42
175	14
176	2
177	1
179	2
181	1
183	1
185	26
186	6
187	111
188	15
189	8
190	1
191	1
193	1
195	1
197	1
198	1
199	2
200	1
201	3
203	3
205	1
206	3
207	4
208	1
209	1
213	4
214	3
215	16
216	42
217	103
218	17
219	66
220	9
221	8
222	1
223	1
227	11
228	5
229	25
230	4
231	2
232	1
233	1
239	2
241	7
242	3
243	2
244	4
245	7
246	2
247	1
248	1
249	1
250	1
252	2
253	2
255	2
257	4
258	1
259	4
261	1
266	1
267	1
268	1
269	2
270	1
271	1
272	1
273	2
274	1
275	6
276	1
281	1
283	2
284	1
285	1
287	3
288	1
299	1
300	1
301	8
302	2
303	2
304	1
305	4
306	1
309	1
311	1
313	2
315	1
317	2
318	1
319	25
320	4
321	1
325	1
327	1
329	1
331	8
332	2
333	1
336	1
337	1
343	1
346	4
347	1
357	2
359	627
360	165
361	67
362	18
363	3
372	6
373	2
374	1
385	4
386	1
388	2
401	12
402	4
403	2
439	3
441	1
481	1
482	1
510	3
