Mass Spectrum: 1-Methyl-3,6-diazahomoadamantan-9-one
Formula: C10H16N2O
CAS: 123387-98-4
Molecular weight: 180
m/z	intensity
39	87
40	62
41	567
42	473
43	733
44	180
54	53
55	646
56	217
57	932
58	999
60	67
65	73
67	134
68	133
69	400
70	660
71	386
73	80
77	140
78	40
79	72
81	185
82	188
83	253
84	240
85	231
86	70
91	69
93	80
94	147
95	122
96	133
97	233
98	113
99	110
105	246
108	47
109	110
110	33
111	127
112	60
113	54
123	72
124	40
125	80
135	40
136	46
137	38
138	74
152	60
163	52
179	54
180	867
181	102
182	6
