Mass Spectrum: 3,4,5,6-Tetrabromophenolsulfonephthalein
Formula: C19H10Br4O5S
CAS: 123333-63-1
Molecular weight: 666
m/z	intensity
15	3
16	5
24	2
26	6
27	20
28	78
29	22
32	20
33	2
35	17
36	192
37	16
38	65
39	117
40	72
41	18
42	7
43	23
44	39
45	4
46	5
47	28
48	283
49	5
50	29
51	38
52	10
53	21
54	6
55	74
56	9
57	20
58	2
60	13
61	26
62	16
63	40
64	904
65	319
66	256
67	22
68	11
69	14
70	7
71	13
72	54
73	17
74	18
75	9
76	8
77	11
78	3
79	106
80	330
81	158
82	375
83	12
84	9
85	9
86	3
87	6
88	5
89	4
90	3
91	6
92	7
93	37
94	999
95	78
96	9
97	10
98	9
99	8
100	5
101	4
104	2
105	19
106	37
107	16
108	4
109	9
110	8
111	9
112	9
113	4
115	19
116	29
117	19
118	2
119	3
120	15
121	55
122	6
123	5
124	4
125	5
126	4
127	4
128	6
129	7
130	2
131	3
133	2
134	22
135	17
136	5
137	6
138	3
139	7
141	8
142	3
143	4
145	3
146	4
147	3
148	4
149	8
150	4
151	32
152	5
153	34
154	5
155	12
156	13
157	10
158	4
159	3
160	12
161	12
162	2
163	2
165	3
166	2
167	2
168	4
169	2
170	2
172	4
173	3
174	38
175	35
176	9
177	9
178	3
179	3
181	4
183	2
184	2
185	14
186	8
187	8
188	3
189	2
190	4
191	2
193	3
194	2
195	8
196	9
197	8
198	3
199	5
200	6
201	4
202	3
203	10
204	12
205	9
206	4
208	2
209	2
210	4
211	18
212	10
213	32
214	9
215	9
216	4
217	3
218	6
220	6
222	3
223	3
224	6
225	3
228	2
229	2
230	20
232	40
233	3
234	18
239	2
240	12
241	9
242	21
243	5
246	2
248	2
250	4
252	2
253	9
254	16
255	15
256	6
257	3
258	4
267	3
269	15
270	12
271	6
272	2
278	9
279	2
280	3
291	4
292	2
293	5
294	3
295	3
296	2
297	3
299	5
301	4
306	3
308	2
309	10
311	40
312	4
313	37
314	3
315	11
320	11
321	4
322	12
323	3
324	3
333	2
335	8
336	2
337	16
338	3
339	18
340	2
341	15
343	4
347	2
348	3
349	59
350	14
351	61
352	11
353	4
354	3
355	5
356	2
357	7
359	4
361	2
388	5
390	15
392	21
394	14
396	4
400	4
401	2
402	4
403	2
404	2
406	4
408	6
410	3
411	2
413	4
416	8
417	2
418	26
419	3
420	38
421	3
422	26
423	2
424	8
425	3
427	9
428	5
429	16
430	9
431	12
432	13
433	4
434	38
435	4
436	45
437	4
438	25
439	2
440	7
441	3
443	3
454	2
456	2
466	2
468	2
480	2
482	2
484	2
493	2
495	4
496	10
497	6
498	41
499	8
500	63
501	7
502	48
503	4
504	10
507	26
508	8
509	76
510	22
511	75
512	24
513	25
514	10
546	2
586	8
587	3
588	27
589	8
590	38
591	9
592	25
593	4
594	6
666	3
668	5
670	7
672	4
