Mass Spectrum: 1,8-Dimethyl-3,6-diazahomoadamantan-9-one
Formula: C11H18N2O
CAS: 123366-49-4
Molecular weight: 194
m/z	intensity
29	64
30	19
38	4
39	66
40	48
41	230
42	230
43	48
44	46
45	4
50	3
51	7
52	6
53	29
54	30
55	140
56	62
57	95
58	999
59	38
63	2
65	7
66	6
67	27
68	36
69	99
70	31
71	13
72	42
73	3
77	12
78	5
79	13
80	19
81	19
82	64
83	27
84	40
85	31
86	2
91	9
92	3
93	11
94	24
95	24
96	61
97	27
98	51
99	6
104	2
105	3
106	4
107	7
108	28
109	18
110	24
111	14
112	4
115	2
117	2
118	2
120	4
121	5
122	22
123	26
124	20
125	14
126	2
129	1
134	5
135	4
136	18
137	13
138	42
139	11
140	3
148	4
149	6
150	31
151	18
152	26
153	4
154	2
155	4
162	2
163	3
164	3
165	11
166	23
167	3
170	1
177	2
178	2
179	9
180	9
192	2
193	22
194	320
195	41
196	3
