Mass Spectrum: Hex-4-enamide, N,N-dimethyl
Formula: C8H15NO
CAS: 123456-20-2
Molecular weight: 141
m/z	intensity
26	7
27	84
28	47
29	68
30	24
31	7
38	11
39	139
40	27
41	248
42	139
43	99
44	332
45	403
46	103
47	17
48	7
49	4
50	9
51	17
52	7
53	67
54	32
55	315
56	42
57	27
58	117
59	6
65	16
66	12
67	62
68	75
69	225
70	51
71	27
72	999
73	88
74	17
77	12
79	17
80	4
81	72
82	22
83	80
84	26
85	56
86	51
87	344
88	19
89	6
91	9
92	2
93	8
94	8
95	47
96	31
97	158
98	161
99	26
100	48
101	5
105	8
106	3
107	7
108	6
109	7
110	8
111	11
112	92
113	27
114	10
115	6
121	3
122	4
123	12
124	9
125	10
126	195
127	22
128	4
137	2
138	8
139	5
140	66
141	795
142	98
143	9
