Mass Spectrum: 2H-Pyran, 2-[(5-cyclopropylidenepentyl)oxy]tetrahydro-
Formula: C13H22O2
CAS: 123416-83-1
Molecular weight: 210
m/z	intensity
26	3
27	49
28	0
29	107
30	3
31	19
38	1
39	53
41	182
42	17
43	164
44	7
45	3
50	2
51	6
52	6
53	30
54	11
55	85
56	28
57	108
58	5
59	3
63	1
65	19
66	11
67	222
68	31
69	14
70	3
71	20
72	2
77	19
78	4
79	73
80	28
81	31
82	10
83	13
84	32
85	999
86	48
87	5
91	12
92	2
93	38
94	7
95	7
96	2
97	3
98	11
99	3
100	1
101	18
102	1
105	3
106	1
107	6
108	6
109	13
110	4
111	7
112	3
115	1
119	1
121	1
122	1
123	4
124	5
125	4
126	6
127	2
129	4
133	3
137	4
138	2
139	2
145	1
148	2
151	7
152	2
154	1
165	2
181	3
182	1
210	1
