Mass Spectrum: 3-Ethoxyacetyl-3-demethylthiocolchicine
Formula: C25H29NO7S
CAS: 123417-78-7
Molecular weight: 487
m/z	intensity
41	74
43	464
44	31
45	39
55	33
57	29
59	999
60	51
69	23
71	25
77	27
88	13
91	11
113	12
115	41
126	12
127	29
128	28
129	12
133	12
139	53
140	31
141	40
149	23
151	43
152	161
153	56
154	30
155	15
158	11
163	14
164	14
165	72
166	38
167	55
168	49
169	34
170	13
171	34
172	14
173	10
176	16
177	16
178	40
179	31
180	48
181	57
182	31
183	21
184	46
185	33
186	16
189	13
190	13
191	15
192	19
193	32
194	36
195	58
196	54
197	53
198	31
199	60
200	34
201	16
205	34
206	33
207	37
208	84
209	64
210	41
211	53
212	42
213	36
214	18
215	17
216	13
219	13
220	20
221	48
222	44
223	72
224	74
225	56
226	48
227	75
228	47
229	30
234	18
235	60
236	61
237	81
238	73
239	77
240	63
241	66
242	47
243	38
244	45
248	12
249	41
250	46
251	107
252	137
253	77
254	77
255	136
256	79
257	52
258	36
262	11
263	14
264	37
265	60
266	85
267	132
268	89
269	105
270	75
271	77
272	85
273	29
277	13
278	14
279	51
280	93
281	100
282	92
283	135
284	109
285	68
286	142
287	48
288	12
290	10
292	10
293	20
294	33
295	64
296	79
297	93
298	85
299	116
300	83
301	33
302	237
303	46
304	12
307	10
308	45
309	55
310	51
311	91
312	70
313	221
314	343
315	97
316	45
323	12
324	74
325	57
326	278
327	107
328	76
329	30
330	196
331	42
332	12
338	11
339	83
340	58
341	62
342	200
343	68
344	63
345	11
350	10
354	48
355	35
356	29
357	16
358	88
359	29
360	10
367	14
368	37
370	32
371	28
372	102
373	87
374	30
384	13
385	55
386	31
387	12
388	11
390	14
395	11
398	20
400	214
401	123
402	79
403	25
412	28
416	12
426	26
428	59
429	26
431	11
440	17
441	11
444	65
445	11
454	593
455	162
456	35
459	64
460	12
487	483
488	143
489	51
