Mass Spectrum: Isoquinoline, 6-benzyloxy-7-methoxy-1-methyl-
Formula: C18H17NO2
CAS: 123438-48-2
Molecular weight: 279
m/z	intensity
41	10
42	4
43	2
44	1
49	0
50	22
51	26
52	7
53	4
54	0
55	2
56	2
57	1
58	1
61	1
62	12
63	30
64	10
65	114
66	7
67	2
69	1
71	3
73	0
74	6
75	12
76	28
77	20
78	5
79	2
84	2
86	2
87	4
88	5
89	37
90	22
91	999
92	72
93	2
98	3
99	0
101	2
102	9
103	12
104	4
105	4
106	0
113	0
114	2
115	8
116	6
117	32
118	3
119	0
124	0
128	4
129	3
130	6
131	10
132	2
140	1
141	1
142	1
143	2
144	1
145	8
146	3
157	1
158	1
159	2
160	21
161	2
165	1
174	2
175	0
176	0
178	0
186	2
187	4
188	102
189	13
190	2
206	0
207	0
218	0
219	1
220	1
232	2
234	2
246	2
247	1
248	1
249	4
250	3
251	0
262	0
264	0
265	1
278	12
279	204
280	40
281	4
