Mass Spectrum: 4-Chloro-2,5-dimethoxyamphetamine
Formula: C11H16ClNO2
CAS: 123431-31-2
Molecular weight: 229
m/z	intensity
38	2
39	13
40	2
41	5
42	27
43	11
44	999
45	27
49	1
50	9
51	18
52	4
53	17
54	2
55	2
56	2
57	2
59	1
60	2
61	3
62	6
63	19
64	7
65	17
66	4
67	7
68	1
73	7
74	5
75	18
76	6
77	51
78	10
79	10
80	2
81	1
84	1
85	3
86	2
87	5
88	3
89	23
90	6
91	25
92	9
93	6
94	2
97	2
98	1
99	30
101	11
102	4
103	4
104	4
105	19
106	5
107	7
108	6
109	1
110	1
111	6
112	14
113	8
114	6
115	4
116	1
117	3
118	3
119	4
120	5
121	9
122	4
123	2
124	1
125	16
126	3
127	13
128	5
129	4
130	2
131	2
132	2
133	2
134	3
135	2
136	2
137	2
138	1
139	2
140	4
141	3
142	14
143	5
144	5
145	2
146	3
147	7
148	5
149	3
150	1
151	3
152	1
153	1
154	2
155	26
156	5
157	13
158	2
159	1
161	3
162	4
163	4
164	3
167	1
168	1
169	1
170	4
171	38
172	5
173	12
174	1
177	1
178	2
179	1
180	1
181	1
182	2
183	2
184	4
185	19
186	178
187	23
188	57
189	5
196	1
197	1
198	3
199	1
200	1
213	1
214	2
228	1
229	2
230	1
231	1
