Mass Spectrum: Pyridazine-4,6-dicarbonitrile, 2,3-dihydro-2-(3-chlorophenyl)-5-methyl-3-oxo-
Formula: C13H7ClN4O
CAS: 123534-11-2
Molecular weight: 270
m/z	intensity
33	1
36	2
37	14
38	26
39	25
40	10
41	1
42	0
43	2
44	1
45	2
47	0
49	4
50	38
51	32
52	15
53	4
54	0
59	0
60	2
61	9
62	16
63	49
64	28
65	10
66	5
67	6
68	0
71	0
72	2
73	9
74	30
75	197
76	63
77	13
78	2
80	7
81	0
84	4
85	20
86	3
87	9
88	8
89	9
90	30
91	3
92	0
96	0
97	2
98	4
99	6
100	3
101	5
102	6
103	28
104	2
105	2
108	1
111	999
113	366
114	25
115	2
117	35
119	1
121	0
122	0
124	3
125	32
126	54
127	15
128	17
129	1
133	0
135	8
136	4
137	6
139	183
140	16
141	54
142	4
149	2
150	0
151	1
152	3
153	3
154	1
155	2
156	1
162	0
163	2
164	0
165	0
175	0
176	6
177	26
178	5
179	11
180	2
181	0
182	0
187	0
188	0
189	1
190	1
191	0
192	0
199	1
201	0
202	0
205	0
206	1
207	2
208	0
210	1
213	0
214	0
215	2
216	1
217	2
218	10
219	1
220	2
221	0
235	59
236	9
237	0
241	1
242	6
243	3
244	8
245	3
246	2
247	0
255	3
257	0
266	1
269	149
270	469
271	112
272	152
273	22
274	1
275	0
