Mass Spectrum: N-(5-Chloro-2,2-dimethyl-1-phenyl-pentylidene)isopropylamine
Formula: C16H24ClN
CAS: 123529-03-3
Molecular weight: 265
m/z	intensity
39	79
41	320
43	999
44	101
53	29
54	29
55	238
56	99
57	40
67	29
68	39
69	9
70	649
71	39
82	39
83	110
84	70
95	30
96	30
98	299
99	30
110	19
112	99
113	548
114	50
126	109
132	40
133	20
138	30
154	419
155	69
174	70
176	19
