Mass Spectrum: 3,3-Dimethyl-4-methylamino-butan-2-one
Formula: C7H15NO
CAS: 123528-99-4
Molecular weight: 129
m/z	intensity
39	30
40	19
41	69
42	110
43	160
44	999
45	50
55	60
56	30
57	19
58	19
70	60
71	70
72	19
84	20
85	19
86	39
89	19
100	19
129	20
