Mass Spectrum: Benzeneethanol, .beta.-ethenyl-.alpha.-phenyl-
Formula: C16H16O
CAS: 123614-05-1
Molecular weight: 224
m/z	intensity
25	0
26	3
27	19
28	1
29	14
31	2
37	1
38	6
39	58
40	5
41	11
42	0
43	3
44	0
45	1
46	0
49	2
50	30
51	93
52	26
53	15
54	1
55	4
56	1
57	2
58	5
59	2
61	2
62	9
63	37
64	7
65	42
66	4
67	1
68	0
69	2
70	0
71	1
73	2
74	11
75	15
76	16
77	272
78	61
79	432
80	34
81	1
82	0
83	1
84	0
85	1
86	3
87	5
88	4
89	33
90	10
91	134
92	15
93	2
94	2
95	1
96	0
97	1
98	1
99	1
100	0
101	4
102	16
103	30
104	6
105	79
106	52
107	754
108	72
109	5
110	0
111	0
112	0
113	4
114	5
115	200
116	94
117	370
118	999
119	115
120	5
121	21
122	2
123	0
124	0
125	0
126	1
127	4
128	7
129	10
130	3
131	10
132	8
133	4
134	1
135	1
136	6
137	1
138	0
139	2
140	0
141	1
142	0
143	0
144	0
145	1
146	0
147	0
148	0
149	1
150	1
151	2
152	5
153	2
154	0
155	0
156	0
157	0
158	2
159	0
160	0
162	0
163	1
164	1
165	7
166	1
167	1
168	0
169	0
175	0
176	2
177	2
178	7
179	2
180	2
181	1
182	0
183	0
189	2
190	1
191	2
192	0
193	0
194	0
195	0
196	0
200	0
201	1
202	3
203	2
204	1
205	2
206	2
207	3
208	1
209	0
