Mass Spectrum: Pyrimidine-2(1H)-thione, 3,4-dihydro-5-acetyl-4-(4-bromophenyl)-6-methyl-
Formula: C13H13BrN2OS
CAS: 123629-44-7
Molecular weight: 324
m/z	intensity
33	4
37	3
38	24
39	76
40	18
41	60
42	427
43	999
45	40
46	5
47	5
50	125
51	83
52	44
53	27
54	7
55	6
57	8
59	139
60	64
61	13
62	27
63	53
64	16
65	27
66	49
67	75
68	117
69	15
70	8
71	11
72	10
74	91
75	133
76	116
77	56
78	14
79	12
80	9
81	12
82	14
83	18
84	14
85	8
86	19
87	19
88	15
89	44
90	14
91	13
92	7
93	17
94	4
95	3
96	3
97	3
98	12
99	17
100	20
101	66
102	92
103	21
104	10
105	4
106	3
107	4
108	5
110	147
111	11
112	9
113	21
114	26
115	107
116	48
117	15
118	3
119	5
120	4
121	2
122	1
123	2
124	3
125	13
126	41
127	50
128	55
129	17
130	10
131	6
132	1
133	2
134	11
135	11
136	1
137	5
138	2
139	6
140	18
141	22
142	21
143	80
144	26
145	5
146	4
147	2
151	5
152	10
153	13
155	51
156	11
157	43
158	14
159	6
160	13
161	5
162	1
166	7
167	20
168	71
169	348
170	48
171	26
172	4
173	2
175	13
176	1
177	1
180	12
181	13
182	26
183	17
184	26
185	54
186	23
187	7
188	1
192	2
193	3
194	3
195	6
196	3
197	3
198	2
199	8
200	5
201	22
202	12
203	6
204	1
205	1
206	8
207	15
208	16
209	29
210	12
211	19
212	9
213	2
220	2
221	10
222	38
223	13
224	35
225	6
226	8
227	9
228	12
229	6
230	7
231	2
232	1
233	1
237	2
238	1
239	3
240	1
241	1
243	4
244	7
245	42
246	12
247	19
249	25
250	10
251	4
252	6
253	1
254	2
262	1
264	31
265	8
266	35
267	6
268	5
269	1
275	1
277	2
279	12
281	161
282	31
283	154
284	20
285	7
289	1
290	2
291	12
292	4
293	11
294	2
295	1
305	13
306	8
307	21
309	157
310	31
311	127
312	21
313	7
314	1
317	2
318	2
319	4
320	16
323	277
324	460
325	287
326	463
327	75
328	25
329	2
