Mass Spectrum: 4-Propoxy-2,5-dimethoxy amphetamine
Formula: C14H23NO3
CAS: 123643-24-3
Molecular weight: 253
m/z	intensity
43	72
44	999
45	50
66	22
69	33
77	24
79	23
91	20
94	27
95	14
107	24
109	13
122	64
123	16
125	31
137	155
138	21
139	26
152	16
153	406
154	35
167	289
168	435
169	40
178	6
179	12
194	7
195	14
210	832
211	108
212	11
237	2
238	3
253	33
254	4
