Mass Spectrum: O,N-Dibutoxycarbonyl-3-demethyl-N-deacetylthiocolchicine
Formula: C29H37NO8S
CAS: 123643-61-8
Molecular weight: 559
m/z	intensity
41	999
42	42
43	58
45	43
55	139
56	38
57	984
152	43
208	30
227	44
237	30
251	55
252	100
253	33
254	34
256	31
267	147
268	82
269	81
281	119
283	111
284	78
299	120
300	63
302	137
313	31
314	318
315	75
330	76
342	31
398	40
414	36
416	37
431	285
432	45
526	36
531	33
559	420
560	134
561	34
