Mass Spectrum: n-Butyryl-3-demethylthiocolchicine
Formula: C23H27NO5S
CAS: 123643-58-3
Molecular weight: 429
m/z	intensity
41	205
43	999
44	33
45	15
47	3
55	35
56	11
57	17
69	24
71	416
72	16
73	8
77	3
88	9
101	3
115	19
126	7
127	9
128	10
129	7
139	24
140	15
141	19
149	4
151	20
152	74
153	35
154	12
155	9
161	3
163	9
164	8
165	43
166	20
167	31
168	22
169	18
170	7
171	15
172	8
173	3
176	10
177	15
178	23
179	15
180	22
181	32
182	17
183	16
184	22
185	18
186	7
187	4
189	8
190	7
191	14
192	18
193	24
194	21
195	29
196	25
197	27
198	15
199	28
200	17
201	8
202	3
204	3
205	19
206	18
207	21
208	40
209	35
210	24
211	30
212	22
213	19
214	10
215	9
216	6
219	7
220	14
221	29
222	23
223	35
224	43
225	34
226	30
227	34
228	25
229	18
230	3
234	15
235	33
236	36
237	55
238	38
239	39
240	39
241	41
242	25
243	18
244	25
249	13
250	20
251	64
252	119
253	60
254	46
255	50
256	69
257	32
258	21
263	3
264	8
265	18
266	29
267	103
268	75
269	74
270	36
271	38
272	44
273	22
277	3
278	4
279	18
280	23
281	84
282	43
283	93
284	95
285	41
286	45
287	24
288	18
294	13
295	23
296	36
297	37
298	37
299	111
300	82
301	44
302	108
303	24
304	4
308	4
309	37
310	18
311	28
312	27
313	29
314	788
315	164
316	91
317	20
318	3
324	19
325	13
326	22
327	28
328	15
329	5
330	54
331	15
340	8
341	9
342	89
343	23
344	23
354	8
358	83
359	22
360	7
368	16
370	3
371	7
372	26
373	17
374	4
382	31
383	14
384	41
385	10
386	38
387	8
396	206
397	56
398	9
400	8
401	459
402	111
403	40
412	29
413	3
414	8
428	39
429	63
430	18
