Mass Spectrum: 3-H-Inden,1-carboxy-4-sulfonic acid, 4-methylphenyl ester
Formula: C17H14O5S
CAS: 123658-17-3
Molecular weight: 330
m/z	intensity
12	7
14	11
15	4
16	19
17	36
18	127
20	5
26	10
27	80
28	211
29	15
32	41
37	3
38	13
39	131
40	11
41	22
42	5
43	21
44	192
45	24
48	8
50	39
51	103
52	62
53	75
54	5
55	15
56	3
57	9
60	8
61	5
62	33
63	118
64	26
65	68
66	5
67	4
69	11
70	3
71	5
73	9
74	15
75	27
77	320
78	56
79	138
80	14
81	3
83	3
85	4
87	31
88	57
89	130
90	15
91	38
92	14
93	3
95	6
97	3
98	2
99	2
101	12
102	67
103	153
104	14
105	5
107	357
108	74
109	8
110	3
111	4
113	99
114	150
115	999
116	125
117	8
118	3
119	3
121	3
123	3
127	2
128	3
129	8
130	10
131	54
132	8
133	4
134	8
135	7
141	11
142	9
143	2
145	3
146	3
149	3
151	3
152	9
153	3
157	3
158	38
159	614
160	68
161	11
162	3
163	5
165	9
166	2
176	4
177	6
178	29
179	237
180	29
181	14
189	5
191	5
192	3
193	4
194	3
203	2
205	22
206	10
207	8
219	10
220	6
221	12
222	19
223	168
224	21
225	10
248	3
263	4
286	96
287	18
288	6
330	125
331	25
332	9
