Mass Spectrum: 3-Diethoxyphosphonyl-demethylthiocolchicine
Formula: C25H32NO8PS
CAS: 123643-50-5
Molecular weight: 537
m/z	intensity
42	176
43	999
44	431
45	394
47	268
48	198
56	171
69	467
78	170
81	453
82	75
99	404
106	170
109	73
127	274
147	403
215	671
219	193
252	79
256	73
314	75
315	78
408	72
417	89
419	107
422	184
435	113
436	100
438	122
450	951
451	211
452	112
456	83
466	82
478	93
504	356
505	102
509	174
537	367
538	81
