Mass Spectrum: Pyrimidine-5-carboxylic acid, 1,2,3,4-tetrahydro-6-methyl-2-oxo-4-styryl-, ethyl ester
Formula: C16H18N2O3
CAS: 123629-39-0
Molecular weight: 286
m/z	intensity
34	1
36	2
38	23
39	199
40	70
42	999
43	114
44	81
45	31
46	17
47	1
49	1
50	79
51	272
52	147
53	72
54	69
55	46
56	21
57	12
58	7
59	3
60	20
61	5
62	27
63	118
64	38
65	121
66	157
67	218
68	136
69	59
70	88
71	54
72	21
74	26
75	102
76	156
77	641
78	181
79	53
80	41
81	35
82	94
83	50
84	83
85	59
86	30
87	23
88	14
89	93
91	397
92	85
93	38
94	158
95	50
96	126
97	19
98	24
99	48
101	64
102	287
103	280
104	115
105	135
106	72
107	35
108	40
109	80
110	417
111	49
112	35
113	20
115	447
116	84
117	46
118	19
119	32
120	42
121	22
122	11
123	12
124	7
125	10
126	61
127	259
128	327
129	129
130	151
131	43
132	25
133	6
134	10
135	110
137	406
138	63
139	38
140	32
141	76
142	40
143	58
144	31
145	4
146	2
147	4
148	4
149	4
151	154
152	51
153	71
154	85
155	431
156	73
157	28
158	55
159	9
160	0
162	2
163	27
164	3
165	8
166	33
167	60
168	69
169	44
170	93
171	19
172	7
173	3
174	3
175	0
177	1
178	6
179	21
180	7
181	40
183	303
184	32
185	11
186	6
187	2
189	0
191	0
192	0
193	3
194	7
195	11
196	24
197	32
198	25
199	7
200	4
201	2
205	0
207	0
209	35
211	135
212	43
213	283
214	55
215	7
216	0
222	3
223	1
225	2
226	0
227	1
228	1
229	4
235	0
237	4
238	5
239	34
240	55
241	32
242	17
243	4
244	0
252	0
253	3
254	7
255	22
257	259
258	37
259	3
271	3
272	0
280	0
281	1
282	7
283	11
284	18
285	45
286	174
287	31
288	2
