Mass Spectrum: 2-(E)-Hexen-1-ol, 4-(dibenzylamino)-5-methyl-
Formula: C21H27NO
CAS: 123751-16-6
Molecular weight: 309
m/z	intensity
18	0
26	0
27	5
28	2
29	6
30	4
31	3
38	0
39	10
41	30
42	3
43	10
44	1
45	0
46	0
50	0
51	4
52	1
53	3
54	1
55	10
56	3
57	3
58	0
62	0
63	3
64	1
65	56
66	3
67	3
68	13
69	12
70	3
71	3
72	0
73	0
75	0
76	0
77	6
78	2
79	4
80	3
81	2
82	0
83	0
84	3
85	0
86	1
89	8
90	6
91	999
92	85
93	3
94	0
95	2
96	1
97	1
98	9
99	0
102	0
103	1
104	10
105	2
106	22
107	1
108	0
110	0
111	0
113	0
115	3
116	1
117	7
118	4
119	0
120	3
121	0
124	0
127	0
128	2
129	6
130	3
131	5
132	1
133	3
140	0
141	0
142	0
143	18
144	12
145	2
146	3
147	0
152	0
153	0
156	2
157	1
158	15
159	2
160	8
161	1
162	0
165	2
166	4
167	1
170	0
172	0
174	9
175	4
176	1
178	0
179	2
180	0
181	57
182	9
183	0
184	0
186	0
188	0
194	1
195	0
196	9
197	1
198	0
200	0
205	0
208	0
210	0
216	0
217	0
220	0
222	0
232	0
234	1
235	0
236	1
237	0
240	0
248	1
249	0
250	0
252	7
253	1
262	0
264	3
265	2
266	861
267	170
268	18
269	1
278	0
279	0
282	0
292	0
294	1
295	0
308	1
309	0
310	0
