Mass Spectrum: Butyronitrile, 4-[(chloromethyl)(dimethyl)silyl]-
Formula: C7H14ClNSi
CAS: 123743-80-6
Molecular weight: 175
m/z	intensity
33	8
34	2
36	4
37	1
38	11
39	49
40	119
41	60
42	45
43	146
44	127
45	24
49	37
50	3
51	18
52	9
53	24
54	18
55	32
56	13
57	25
58	31
59	43
60	3
63	80
64	15
65	49
66	16
67	22
69	28
70	45
71	12
72	14
73	14
75	1
77	37
79	303
81	129
82	13
83	14
84	33
85	12
86	1
90	14
91	17
92	20
93	32
94	10
95	15
96	14
98	999
99	91
100	31
101	1
102	3
103	11
104	76
105	42
106	56
107	176
108	27
109	61
110	7
111	1
118	38
119	15
120	15
121	2
124	4
126	463
127	44
128	17
132	92
133	11
134	26
135	1
137	1
146	10
147	56
149	29
151	3
160	13
161	1
162	4
