Mass Spectrum: N,N-Diethyl-2,1,3-benzothiadiazole-4-sulfonamide
Formula: C10H13N3O2S2
CAS: 123708-42-9
Molecular weight: 271
m/z	intensity
33	27
34	9
37	8
38	2
39	33
40	60
42	306
44	213
45	44
46	23
48	3
50	36
51	18
52	25
53	10
54	8
55	43
56	287
57	51
58	29
59	9
62	2
63	22
64	85
65	2
68	4
69	46
71	288
72	999
73	18
75	13
76	47
77	13
78	5
80	1
81	5
82	19
83	38
84	11
87	6
91	8
92	5
102	12
103	34
108	82
109	47
110	15
120	15
122	6
123	4
134	44
135	728
136	546
137	69
138	19
149	3
151	9
169	2
171	2
183	13
185	2
192	5
199	274
200	22
201	17
233	1
256	55
257	2
