Mass Spectrum: Benzo[c][1,2,5]-thiadiazole, 4-dimethylaminosulfonyl-
Formula: C8H9N3O2S2
CAS: 123708-41-8
Molecular weight: 243
m/z	intensity
33	9
34	3
35	0
36	0
37	6
38	12
39	19
40	19
42	277
44	999
45	45
46	20
48	11
50	33
51	16
52	26
53	3
54	0
55	1
56	2
57	17
58	15
59	5
60	8
61	9
62	6
63	10
64	87
65	9
67	1
69	23
70	22
71	5
72	3
73	2
75	23
76	78
77	24
78	4
79	0
80	3
82	28
83	34
84	22
85	3
86	2
87	2
89	6
90	9
91	23
92	23
93	5
94	5
95	3
96	5
97	2
99	0
100	1
101	2
103	93
104	4
106	5
108	62
109	115
110	10
111	3
112	0
117	1
118	2
119	2
120	0
121	0
123	4
124	3
125	0
128	1
130	0
131	0
132	3
135	227
136	729
137	68
138	18
140	2
145	1
146	2
147	0
149	5
150	71
151	8
152	7
153	0
155	4
156	0
162	0
163	1
164	12
165	2
166	1
167	0
168	1
170	5
171	0
172	0
176	0
178	12
179	6
180	1
181	0
183	18
185	1
194	1
199	12
200	14
201	2
202	1
243	0
