Mass Spectrum: Ethanone, 1-(4-methylphenyl)-, (2,4-dinitrophenyl)hydrazone
Formula: C15H14N4O4
CAS: 1237-49-6
Molecular weight: 314
m/z	intensity
36	20
37	10
38	30
39	160
40	30
41	120
42	50
43	580
44	50
45	70
46	20
50	50
51	150
52	50
53	30
54	20
55	50
56	30
57	70
58	30
59	10
60	10
61	10
62	50
63	150
64	60
65	520
66	50
67	20
68	20
69	50
70	20
71	30
73	30
74	20
75	80
76	70
77	120
78	100
79	100
80	30
81	30
82	20
83	30
84	20
85	20
87	20
88	30
89	140
90	100
91	999
92	140
93	20
94	10
95	20
96	10
101	30
102	30
103	70
104	30
105	70
106	30
114	10
115	200
116	130
117	820
118	220
119	150
120	30
121	20
122	30
123	20
131	30
132	340
133	80
134	30
135	420
136	50
141	40
149	40
150	30
151	40
152	100
153	50
154	20
163	30
164	20
165	70
166	40
167	50
168	30
169	20
176	30
177	50
178	200
179	70
180	170
181	70
182	50
183	20
185	20
189	30
190	40
191	70
192	60
193	50
194	50
195	30
196	50
197	10
204	20
205	50
206	120
207	50
208	30
209	50
210	20
218	20
219	70
220	70
221	80
222	60
223	60
224	20
225	20
226	60
227	20
233	50
234	20
235	60
236	20
237	50
238	20
239	20
250	20
251	20
252	50
253	30
254	20
255	20
264	20
265	30
266	30
267	100
268	30
269	60
270	20
279	90
280	40
281	340
282	80
283	20
284	30
285	10
295	10
296	10
297	30
298	20
299	20
313	170
314	950
315	180
316	30
