Mass Spectrum: 3,13-Dihydroxy-5,8,11-trioxa-1,15-diazabicyclo[13.5.5]pentacosane
Formula: C20H40N2O5
CAS: 123707-88-0
Molecular weight: 388
m/z	intensity
55	180
56	80
57	80
58	90
59	80
60	15
67	50
68	60
69	90
70	180
71	170
72	90
73	21
74	20
82	80
83	75
84	100
85	65
86	90
87	75
88	18
89	35
94	40
95	15
96	170
97	150
98	999
99	110
100	90
101	40
102	20
110	90
111	80
112	220
113	50
114	70
124	120
125	70
126	80
127	40
128	50
136	30
137	40
138	100
139	50
140	100
141	40
142	60
143	20
144	17
149	15
150	25
151	55
152	80
153	40
154	60
155	30
156	40
157	13
158	30
164	20
165	23
166	30
167	35
168	50
169	35
170	20
171	15
172	20
178	20
179	20
180	20
181	170
182	80
183	110
184	40
185	20
186	20
187	15
195	60
196	33
197	200
198	65
199	15
200	15
206	25
207	35
208	20
209	35
210	13
211	100
212	30
213	15
214	20
220	20
221	25
222	17
223	25
224	20
225	25
226	15
227	15
236	10
237	20
238	7
239	35
240	15
241	30
242	7
269	15
270	17
271	10
272	20
273	10
274	30
275	10
282	5
283	15
284	10
285	11
286	25
287	10
288	30
289	7
311	5
313	7
315	7
329	15
330	5
331	5
351	10
352	18
353	15
370	20
371	10
372	5
387	6
388	9
