Mass Spectrum: 4-Methyl-2-hexen-1-ol, 5-t-butyldimethylsilyloxy-
Formula: C13H28O2Si
CAS: 123857-32-9
Molecular weight: 244
m/z	intensity
26	2
27	26
28	6
29	62
30	1
31	20
33	2
37	1
38	1
39	31
40	6
41	119
42	12
43	59
44	10
45	38
46	2
47	35
48	2
49	1
50	1
51	4
52	1
53	17
54	4
55	44
56	15
57	64
58	35
59	96
60	11
61	25
62	2
63	2
64	1
65	4
66	2
67	25
68	17
69	25
70	6
71	8
72	8
73	814
74	68
75	999
76	63
77	46
78	2
79	8
80	3
81	10
82	3
83	12
84	5
85	14
86	3
87	18
88	2
89	4
91	4
92	1
93	4
94	1
95	33
96	8
97	12
98	3
99	13
100	5
101	20
102	12
103	93
104	9
105	14
106	1
107	1
109	2
110	1
111	6
112	3
113	7
114	1
115	163
116	17
117	17
118	3
119	700
120	58
121	27
122	1
125	2
126	2
127	5
128	2
129	5
130	1
131	10
132	3
133	4
134	1
137	1
138	1
139	2
140	1
141	13
142	3
143	8
144	1
145	5
146	1
147	3
148	1
153	1
155	2
156	1
157	1
158	1
159	506
160	57
161	31
162	3
163	1
167	1
169	4
171	2
173	1
175	1
176	1
178	1
179	1
180	1
181	1
182	1
183	1
184	1
185	3
186	1
187	19
188	3
189	2
195	1
199	1
200	1
210	1
211	1
215	1
216	1
229	2
243	1
