Mass Spectrum: 2-(Phenylcarbonylmethyl)thio-4,8-dimethylpyrano[3,2-f]benzoxazol-6(H)-one
Formula: C20H15NO4S
CAS: 123888-25-5
Molecular weight: 365
m/z	intensity
75	45
77	200
87	49
88	49
89	142
91	52
103	52
105	999
106	78
218	50
219	51
246	26
247	52
365	305
366	78
367	21
