Mass Spectrum: Isooctyl (2-methyl-4-chlorophenoxy)acetate
Formula: C17H25ClO3
CAS: 1238777-58-6
Molecular weight: 312
m/z	intensity
12	4
13	3
14	21
15	55
16	7
17	21
18	69
19	2
25	2
27	410
28	116
29	627
30	27
31	27
32	2
33	1
34	2
35	2
36	8
37	4
38	18
39	190
41	692
42	216
43	762
44	49
45	10
46	1
47	2
49	4
50	25
51	89
52	25
53	43
55	402
57	999
58	65
60	5
61	5
62	15
63	63
64	14
65	26
66	4
67	17
69	134
70	139
71	709
72	63
73	19
74	7
75	20
77	173
78	32
79	12
80	2
81	7
82	6
83	41
84	13
85	14
86	4
87	7
89	153
90	45
91	61
92	6
93	4
94	1
95	3
96	1
97	11
99	44
100	3
101	12
102	1
103	1
104	1
105	6
106	5
107	32
108	4
109	2
111	14
112	24
113	57
114	10
115	5
116	1
117	1
118	1
119	5
120	3
121	15
122	2
123	6
125	238
126	26
127	86
128	9
129	6
133	1
135	1
137	1
139	5
141	139
142	75
143	44
144	23
145	2
147	1
149	1
152	1
153	9
154	16
155	149
156	30
157	49
158	8
159	1
165	4
166	1
167	1
169	1
171	2
173	1
179	2
182	4
183	2
184	2
185	1
198	9
200	284
201	35
202	84
203	10
204	1
310	1
312	99
313	18
314	33
315	5
