Mass Spectrum: .alpha.-d-Glucopyranoside, methyl 4,6-O-heptylidene-
Formula: C14H26O6
CAS: 123828-43-3
Molecular weight: 290
m/z	intensity
27	87
29	64
30	6
31	103
33	42
38	0
39	36
41	197
42	32
43	141
44	48
45	274
46	6
47	8
49	0
51	1
52	0
53	22
54	14
55	383
56	33
57	352
58	27
59	40
60	409
61	153
62	6
63	1
65	1
66	2
67	23
68	29
69	312
70	172
71	94
72	35
73	999
74	247
75	145
76	7
77	1
78	0
79	3
80	2
81	96
82	21
83	24
84	9
85	153
86	154
87	198
88	19
89	7
90	4
91	0
93	3
94	3
95	36
96	72
97	363
98	105
99	135
100	39
101	37
102	6
103	112
104	41
105	16
106	0
107	2
108	3
109	186
110	12
111	9
112	6
113	435
114	103
115	144
116	164
117	39
118	3
119	0
120	27
121	2
122	1
123	2
124	12
125	6
126	23
127	474
128	35
129	55
130	3
131	9
132	1
133	168
134	10
135	3
136	1
137	1
138	1
139	7
140	2
141	18
142	16
143	6
144	52
145	78
146	7
147	2
148	0
150	0
151	1
152	2
153	25
154	7
155	10
156	1
157	44
158	7
159	10
160	1
161	1
162	0
163	0
164	0
165	1
166	1
167	1
168	1
169	15
170	102
171	33
172	4
173	366
174	35
175	45
176	5
177	1
178	0
179	0
181	1
182	0
183	17
184	1
185	1
186	3
187	102
188	11
189	1
193	0
194	0
195	1
197	0
198	0
199	17
200	2
201	3
202	0
203	0
204	0
205	371
206	29
207	5
209	0
210	0
211	0
212	3
213	1
215	1
217	0
218	1
219	0
220	0
221	0
225	0
229	1
230	2
231	0
239	1
240	1
241	6
242	1
245	0
257	10
258	4
259	13
260	2
262	9
263	1
264	0
267	0
288	0
289	23
290	4
291	3
292	0
