Mass Spectrum: Hexamethylene glycol dibenzyl ether
Formula: C20H26O2
CAS: 123826-83-5
Molecular weight: 298
m/z	intensity
41	69
42	24
43	30
44	4
45	4
47	0
49	4
50	14
51	42
52	11
53	8
54	6
55	127
56	20
57	15
58	0
59	1
61	0
62	3
63	17
64	7
65	120
66	7
67	11
68	3
69	17
70	3
71	9
73	4
74	3
75	2
76	4
77	94
78	22
79	73
80	6
81	30
82	6
83	196
84	18
85	3
86	1
87	0
89	25
90	21
91	999
92	197
93	11
94	4
95	1
97	8
98	1
99	29
100	1
101	172
102	10
104	24
105	90
106	32
107	314
108	41
109	3
111	0
113	0
115	10
116	0
117	13
118	2
119	3
120	1
121	0
122	6
123	38
124	3
129	3
130	0
131	5
133	2
135	0
141	0
143	1
144	0
145	1
147	1
148	0
152	1
159	1
160	0
161	0
165	2
166	0
167	3
168	1
171	0
173	0
177	0
178	0
179	0
180	0
181	7
182	1
189	0
190	0
191	2
205	0
206	0
207	133
208	22
209	2
221	0
297	1
298	2
299	0
