Mass Spectrum: (2R,5S)-2-Butyl-5-propylpyrrolidine
Formula: C11H23N
CAS: 123994-04-7
Molecular weight: 169
m/z	intensity
53	15
55	81
56	66
67	61
68	102
69	129
70	38
82	105
83	42
84	26
95	45
96	33
98	67
110	32
111	18
112	999
113	81
125	22
126	809
127	68
168	27
169	9
