Mass Spectrum: Xanthine,1-methyl-7-isopropyl-8-bromo-
Formula: C9H11BrN4O2
CAS: 123980-53-0
Molecular weight: 286
m/z	intensity
47	14
48	3
50	12
51	41
52	154
53	347
54	138
55	52
56	35
57	16
58	17
64	52
65	53
66	241
67	993
68	999
69	125
70	196
71	11
77	40
78	86
79	85
80	175
81	41
82	40
83	20
91	44
92	24
93	175
94	695
95	255
96	50
97	11
105	45
106	99
107	74
108	100
109	27
117	18
118	6
119	35
120	125
121	35
122	198
123	93
124	12
140	15
142	11
145	21
146	72
147	16
148	78
149	29
150	7
151	29
165	32
166	76
167	57
168	11
171	6
172	103
173	5
174	227
175	985
176	138
177	8
200	61
201	514
202	82
203	493
204	37
214	4
215	9
216	5
217	7
244	705
245	63
246	682
247	56
248	4
271	4
273	3
286	100
287	12
288	95
289	12
290	2
