Mass Spectrum: Diazene, bis[4-(decyloxy)phenyl]-
Formula: C32H50N2O2
CAS: 123974-95-8
Molecular weight: 494
m/z	intensity
27	82
28	11
29	258
30	6
39	56
41	599
43	999
44	41
50	6
51	7
52	9
53	29
55	821
56	57
57	510
58	22
63	11
64	27
65	116
66	11
67	38
69	416
70	31
71	124
72	5
73	14
75	5
76	30
77	47
78	22
79	74
80	23
81	33
83	361
84	24
85	63
86	6
90	5
91	41
93	408
94	75
95	113
97	158
98	15
103	7
104	9
105	23
107	942
108	170
109	120
110	14
115	12
117	6
119	26
121	350
122	31
127	11
128	26
129	13
131	15
133	30
134	9
135	15
139	14
147	1
155	9
156	6
157	37
158	7
161	11
168	7
177	5
184	9
185	12
186	28
191	13
199	12
213	343
214	82
215	22
246	13
249	10
261	15
353	11
354	20
494	453
495	178
496	32
