Mass Spectrum: Methyl 10-phenyldecanoate
Formula: C17H26O2
CAS: 123953-51-5
Molecular weight: 262
m/z	intensity
29	105
41	170
43	124
55	228
59	110
65	112
69	168
74	597
87	228
91	999
92	552
104	195
105	170
117	85
130	79
133	91
230	259
231	103
262	151
