Mass Spectrum: Phosphine, bis(diethylamino)menthyl-
Formula: C18H39N2P
CAS: 123973-39-7
Molecular weight: 314
m/z	intensity
25	1
27	10
28	7
29	18
30	16
31	0
33	0
35	0
38	0
39	3
40	0
41	32
42	17
43	25
44	28
45	0
46	20
47	1
48	12
49	6
51	0
52	0
53	3
54	2
55	46
56	21
57	11
58	16
59	7
60	8
61	5
62	3
63	0
64	0
65	1
66	0
67	13
68	4
69	16
70	14
71	39
72	39
73	5
74	91
75	7
76	52
77	4
78	0
79	6
80	1
81	18
82	3
83	18
84	1
85	2
86	1
87	1
88	2
89	2
90	8
91	2
92	0
93	4
94	1
95	17
96	3
97	4
98	0
99	2
100	1
101	1
102	14
103	19
104	999
105	50
106	1
107	0
108	0
109	1
110	0
111	0
112	0
113	1
114	0
115	0
116	0
117	0
118	1
119	0
120	0
121	0
122	0
123	2
124	0
125	0
126	0
127	1
128	0
130	1
131	0
132	0
133	0
135	0
137	1
138	3
139	0
140	0
141	0
142	0
145	0
146	0
147	2
155	0
161	0
167	0
168	0
169	1
170	0
171	0
172	0
173	0
175	698
176	62
177	3
182	0
184	0
196	0
198	2
199	0
203	1
210	0
226	0
240	0
241	0
242	0
243	0
271	0
313	1
314	2
315	0
