Mass Spectrum: Nonanal
Formula: C9H18O
CAS: 124-19-6
Molecular weight: 142
m/z	intensity
14	2
15	23
16	1
17	1
18	9
19	1
20	2
26	17
27	372
28	51
29	539
30	19
31	24
32	2
37	2
38	9
39	223
40	39
41	893
42	287
43	879
44	715
45	211
46	6
47	1
50	6
51	12
52	7
53	55
54	166
55	588
56	797
57	999
58	74
59	9
60	12
61	2
62	1
63	3
64	1
65	9
66	27
67	209
68	321
69	389
70	421
71	160
72	70
73	14
74	2
77	6
78	2
79	15
80	9
81	232
82	288
83	103
84	16
85	40
86	21
87	6
91	2
93	5
94	8
95	212
96	202
97	25
98	406
99	69
100	8
101	1
107	1
109	21
110	3
111	6
112	1
113	9
114	79
115	9
123	5
124	41
125	4
127	1
129	3
141	3
142	4
