Mass Spectrum: Octanal
Formula: C8H16O
CAS: 124-13-0
Molecular weight: 128
m/z	intensity
14	4
15	24
16	1
18	2
26	19
27	323
28	74
29	458
30	15
31	19
32	9
36	4
37	3
38	9
39	183
40	34
41	670
42	402
43	999
44	808
45	211
46	6
50	6
51	10
52	4
53	38
54	76
55	509
56	657
57	513
58	60
59	9
60	33
61	5
62	2
63	3
65	6
66	34
67	170
68	233
69	282
70	32
71	102
72	76
73	24
74	2
77	4
78	1
79	9
80	5
81	203
82	214
83	27
84	550
85	187
86	20
87	5
90	1
91	4
92	1
93	2
94	2
95	66
96	6
97	7
98	4
99	26
100	102
101	10
102	1
107	1
109	9
110	76
111	8
113	2
127	3
128	5
129	1
