Mass Spectrum: Carbon dioxide
Formula: CO2
CAS: 124-38-9
Molecular weight: 44
m/z	intensity
12	87
16	96
22	19
28	98
29	1
44	999
45	12
46	4
