Mass Spectrum: Dimethylamine
Formula: C2H7N
CAS: 124-40-3
Molecular weight: 45
m/z	intensity
13	1
14	6
15	22
16	1
26	2
27	28
28	314
29	1
30	53
38	13
39	20
40	53
41	46
42	189
43	139
44	999
45	627
46	18
