Mass Spectrum: 3-Chlorobenzamide, N-methyl-N-[4-(1-pyrrolidinyl)-2-butynyl]-
Formula: C16H19ClN2O
CAS: 124045-36-9
Molecular weight: 290
m/z	intensity
41	84
42	286
43	65
44	21
45	10
46	0
47	0
49	3
50	46
51	58
52	56
53	76
54	39
55	79
56	25
57	17
58	12
59	1
60	4
61	5
62	2
63	7
64	6
65	19
66	46
67	33
68	52
69	34
70	999
71	62
72	7
73	7
74	21
75	124
76	48
77	32
78	11
79	18
80	56
81	46
82	39
83	34
84	77
85	19
86	7
87	6
88	2
89	4
90	2
91	11
92	12
93	54
94	24
95	15
96	9
97	6
98	4
99	6
100	1
101	3
102	4
103	4
104	15
105	21
106	21
107	9
108	153
109	17
110	25
111	357
112	29
113	115
114	11
115	11
116	4
117	8
118	11
119	7
120	272
121	812
122	137
123	56
124	11
125	12
126	3
127	16
128	20
129	22
130	4
131	2
132	2
133	2
134	3
135	10
136	4
137	8
138	12
139	721
140	51
141	239
142	19
143	5
144	2
145	7
146	7
147	2
148	2
149	15
150	9
151	27
152	311
153	27
154	104
155	11
156	9
157	5
158	3
159	1
160	1
161	0
162	3
163	3
164	4
165	4
166	2
167	3
168	16
169	6
170	12
171	3
172	3
173	1
174	1
175	1
176	2
177	3
178	12
179	4
180	9
181	3
182	15
183	4
184	9
185	4
186	9
187	2
188	0
189	1
190	11
191	9
192	18
193	7
194	6
195	2
196	2
197	2
198	2
199	1
202	1
203	1
204	6
205	3
206	8
207	2
208	12
209	14
210	6
211	5
212	1
213	1
215	0
216	0
217	1
218	25
219	21
220	209
221	123
222	80
223	40
224	6
225	1
226	1
227	0
228	1
229	3
230	2
231	1
232	7
233	6
234	5
235	3
236	2
237	1
238	0
239	1
242	0
244	0
246	3
247	11
248	3
249	4
250	1
251	0
253	0
254	0
255	0
256	0
258	0
259	0
260	1
261	2
262	2
263	2
264	1
265	0
266	0
267	0
268	0
273	0
275	2
276	0
277	1
278	0
279	1
282	0
284	0
288	0
289	31
290	19
291	17
292	7
293	3
