Mass Spectrum: 3-Carboxypropionamide, N-methyl-N-[4-(1-pyrrolidinyl)-2-butynyl]-
Formula: C13H20N2O3
CAS: 124045-48-3
Molecular weight: 252
m/z	intensity
42	592
43	206
44	165
45	242
46	7
50	38
51	87
52	111
53	145
54	85
55	382
56	103
57	74
58	109
60	38
64	9
65	54
66	83
67	94
68	124
69	85
70	999
71	146
72	51
73	139
74	32
77	67
78	122
79	57
80	250
81	337
82	182
83	128
84	201
85	35
86	44
89	15
91	18
92	37
93	95
94	83
95	55
96	49
97	56
98	57
99	15
100	7
101	219
102	7
103	15
105	15
106	95
107	47
108	343
109	49
110	78
111	29
112	35
113	31
114	268
115	30
118	17
119	8
120	431
121	728
122	242
123	160
124	176
125	22
126	32
131	8
134	7
135	30
136	49
137	63
138	66
139	192
140	29
144	7
147	7
149	25
150	14
151	56
152	23
154	38
164	33
165	29
166	16
167	31
171	42
177	10
180	8
181	34
182	251
183	143
184	8
235	21
251	23
252	10
