Mass Spectrum: Pyrazole-3-carboxylic acid, 5-amino-
Formula: C4H5N3O2
CAS: 124004-31-5
Molecular weight: 127
m/z	intensity
39	76
40	18
41	81
42	58
43	131
44	61
45	196
46	7
50	20
51	130
52	565
53	999
54	242
55	149
56	13
57	14
62	3
63	2
64	2
65	10
66	74
67	29
68	24
69	6
70	30
71	78
72	7
76	2
77	2
78	11
79	9
80	35
81	130
82	68
83	10
88	2
90	1
91	3
96	1
97	3
98	35
104	3
107	10
109	737
110	71
111	4
127	867
128	48
129	2
