Mass Spectrum: 6-Aminohexanamide, N-methyl-N-[4-(1-pyrrolidinyl)-2-butynyl]-N'-[2-aminobutanoyl]-
Formula: C18H32N4O2
CAS: 124045-72-3
Molecular weight: 336
m/z	intensity
41	491
42	655
43	948
44	312
45	111
46	12
47	118
48	58
49	5
50	45
51	2
52	71
53	161
54	132
55	704
56	999
57	472
58	105
59	43
60	58
61	226
62	9
63	12
64	9
65	49
66	59
67	190
68	145
69	361
70	566
71	327
72	107
73	61
74	17
75	10
76	9
77	63
78	82
79	88
80	128
81	264
82	216
83	262
84	4
85	180
86	2
87	28
88	34
89	21
90	4
91	51
92	24
93	104
94	78
95	108
96	138
97	156
98	248
99	287
100	86
101	18
102	17
103	14
104	11
105	29
106	59
107	68
108	328
109	73
110	70
111	80
112	48
113	61
114	203
115	52
116	19
117	34
118	22
119	40
120	518
121	902
122	156
123	290
124	162
125	100
126	51
127	124
128	108
129	35
130	10
131	12
132	9
133	17
134	15
135	29
136	45
137	40
138	50
139	73
140	26
141	40
142	27
143	225
144	22
145	20
146	5
147	10
148	11
149	1
150	37
151	47
152	31
153	23
154	18
155	37
156	12
157	12
158	6
159	7
160	3
161	6
162	5
163	14
164	26
165	20
166	19
167	1
168	30
169	210
170	26
171	9
173	5
175	5
176	8
177	10
178	29
179	16
180	14
181	46
182	14
183	13
184	4
185	17
186	5
187	5
189	4
190	3
191	9
192	7
193	19
194	11
195	22
196	10
197	16
198	106
199	17
200	4
202	3
203	5
205	7
206	5
207	9
208	11
209	7
210	13
211	9
213	15
214	4
215	6
216	5
217	6
218	4
219	6
220	4
221	30
222	12
223	29
224	225
225	95
226	17
227	6
228	5
229	6
230	5
231	9
232	6
233	9
234	6
235	13
236	16
237	25
238	11
239	13
240	4
241	4
243	4
247	5
248	4
249	8
250	6
251	5
252	8
253	10
254	4
255	5
256	5
257	4
262	3
264	7
265	7
266	20
267	13
268	3
278	4
279	5
280	4
281	5
285	5
292	5
293	6
294	10
295	4
306	7
307	5
308	11
309	5
315	1
316	0
330	0
336	50
337	25
338	5
