Mass Spectrum: Tertbutyloxyformamide, N-methyl-N-[4-(1-pyrrolidinyl)-2-butynyl]-
Formula: C14H24N2O2
CAS: 124045-68-7
Molecular weight: 252
m/z	intensity
41	690
42	622
43	543
44	608
45	94
46	15
47	9
48	11
49	14
50	90
51	195
52	112
53	160
54	97
55	355
56	325
57	940
58	103
59	64
60	30
61	13
62	3
63	8
64	23
65	33
66	59
67	99
68	116
69	193
70	999
71	229
72	55
73	32
74	8
75	10
76	22
77	34
78	17
79	39
80	132
81	158
82	178
83	136
84	544
85	171
86	18
87	24
88	120
89	46
90	19
91	37
92	17
93	50
94	63
95	69
96	58
97	65
98	53
99	31
100	8
101	9
102	5
103	7
104	7
105	20
106	39
107	28
108	321
109	52
110	66
111	52
112	21
113	18
114	11
115	20
116	33
117	59
118	29
119	32
120	158
121	124
122	248
123	189
124	72
125	83
126	166
127	84
128	20
129	15
130	10
131	13
132	13
133	17
134	18
135	19
136	16
137	16
138	75
139	26
140	13
141	16
142	11
143	9
144	26
145	12
146	14
147	16
148	10
149	28
150	14
151	102
152	21
153	19
154	12
155	37
156	9
157	8
158	11
159	8
160	10
161	39
162	23
163	21
164	13
165	17
166	15
167	22
168	14
169	14
170	5
171	6
172	4
173	6
174	6
175	6
176	8
177	10
178	7
179	20
180	9
181	13
182	11
183	11
184	6
185	7
186	4
187	6
188	4
189	8
190	5
191	7
192	5
193	14
194	9
195	208
196	33
197	22
198	5
199	6
200	4
201	6
202	8
203	8
204	9
205	16
206	14
207	27
208	15
209	17
210	10
211	16
212	8
213	10
214	4
215	11
216	6
217	10
218	8
219	11
220	8
221	38
222	15
223	1
224	0
225	1
226	0
227	0
228	0
229	0
230	1
231	2
232	1
233	1
234	0
235	1
236	10
237	25
238	9
239	1
240	0
241	1
242	0
243	0
244	0
245	0
246	0
247	1
248	0
249	0
250	8
251	24
252	27
253	16
254	7
255	3
