Mass Spectrum: Androstan-17-one, 3-(acetyloxy)-14-hydroxy-, (3.beta.,5.alpha.)-
Formula: C21H32O4
CAS: 1241-30-1
Molecular weight: 348
m/z	intensity
41	727
42	60
43	797
44	20
45	40
47	999
48	363
49	373
50	383
53	171
54	70
55	818
56	80
57	212
60	20
61	50
65	50
66	20
67	545
68	131
69	393
70	40
71	121
73	10
77	222
78	20
79	505
80	101
81	535
82	101
83	808
84	40
85	727
87	525
91	404
92	80
93	474
94	111
95	424
96	70
97	262
98	20
99	20
105	373
106	181
107	424
108	232
109	333
110	101
111	60
112	80
113	191
114	10
115	10
117	60
118	20
119	262
120	101
121	262
122	101
123	90
124	40
125	121
126	10
127	10
128	10
129	40
130	20
131	90
132	30
133	171
134	70
135	121
136	30
137	30
139	10
143	50
144	20
145	151
146	30
147	191
148	60
149	111
150	40
151	20
153	20
157	40
159	80
160	50
161	101
162	50
163	70
164	10
165	20
166	10
167	20
171	30
172	10
173	70
174	20
175	50
176	50
177	40
178	20
179	20
180	242
181	70
183	10
185	10
187	30
189	10
191	10
193	10
195	20
196	10
199	10
201	40
203	20
205	10
206	10
207	10
213	40
214	10
215	252
216	70
217	151
218	50
219	10
220	20
227	10
228	20
229	30
230	40
231	30
232	10
233	70
234	111
235	20
239	20
244	10
246	30
253	20
255	50
256	10
257	30
268	80
269	20
270	40
271	20
272	80
273	262
274	70
275	272
276	50
286	60
287	10
288	282
289	60
290	252
291	50
292	70
293	20
302	10
304	20
330	30
332	20
333	40
348	232
349	50
