Mass Spectrum: Benzenethiosulfonic acid, 4-acetamido-, S-(4-acetamidophenyl) ester
Formula: C16H16N2O4S2
CAS: 1241-00-5
Molecular weight: 364
m/z	intensity
41	37
42	94
43	999
44	20
45	278
58	56
60	87
63	19
64	44
65	129
69	17
80	174
92	46
93	84
97	59
100	46
108	67
109	18
124	828
125	148
126	18
140	93
141	22
166	127
167	37
182	47
183	12
332	105
333	35
364	19
