Mass Spectrum: 1,1-Dimethyl 3-(3-chlorophenyl)-2,2-dicyanocyclopropane-1,1-dicarboxylate
Formula: C15H11ClN2O4
CAS: 1241947-70-5
Molecular weight: 318
m/z	intensity
33	12
34	4
35	5
36	14
37	19
38	58
39	137
40	74
41	25
42	343
43	33
44	72
45	57
46	1
47	5
48	0
49	16
50	183
51	183
52	31
53	73
54	9
55	14
56	10
57	11
58	21
59	999
60	62
61	49
62	100
63	193
64	48
65	27
66	12
67	6
68	21
69	24
70	7
71	3
72	48
73	68
74	122
75	295
76	77
77	48
78	42
79	5
80	6
81	10
82	4
83	3
84	10
85	32
86	41
87	65
88	74
89	121
90	19
91	123
92	16
93	2
94	2
95	3
96	4
97	18
98	21
99	89
100	58
101	97
102	37
103	7
104	3
105	8
106	0
107	1
108	1
109	5
110	15
111	63
112	56
113	46
114	44
115	39
116	12
117	2
118	1
119	2
120	6
121	3
122	4
123	22
124	27
125	48
126	54
127	33
128	7
129	4
130	1
131	1
132	3
133	1
134	1
135	13
136	60
137	43
138	172
139	128
140	32
141	11
142	2
143	1
144	0
145	0
146	0
147	21
148	16
149	21
150	17
151	13
152	36
153	63
154	52
155	396
156	36
157	127
158	11
160	1
161	22
162	8
163	45
164	32
165	237
166	33
167	17
168	14
169	2
170	2
172	13
173	19
174	450
175	55
176	132
177	18
178	4
179	31
180	13
181	12
182	4
186	0
187	9
188	28
189	56
190	16
191	21
192	5
193	13
194	9
195	4
196	3
197	1
198	1
199	30
200	10
201	89
202	58
203	33
204	24
205	4
206	1
207	16
208	2
209	3
212	1
213	2
214	34
215	30
216	32
217	12
218	11
219	1
220	2
221	1
223	4
224	7
225	1
227	7
228	3
229	5
230	4
231	8
232	8
233	5
234	3
239	2
241	10
242	3
243	7
244	3
245	2
246	0
249	0
254	1
255	8
256	1
257	2
258	3
259	250
260	39
261	84
262	13
273	12
274	20
275	7
276	5
280	1
286	235
287	123
288	78
289	43
290	2
303	10
305	3
318	117
319	23
320	39
321	7
