Mass Spectrum: 1,1-Dimethyl 2,2-dicyano-3-(3,4-dimethoxyphenyl)cyclopropane-1,1-dicarboxylate
Formula: C17H16N2O6
CAS: 1241947-74-9
Molecular weight: 344
m/z	intensity
37	6
38	32
39	75
40	66
41	31
42	19
43	33
44	60
45	68
50	85
51	119
52	26
53	72
54	9
55	17
56	6
57	7
58	11
59	999
60	23
61	13
62	47
63	79
64	47
65	52
66	25
67	6
68	15
69	22
70	4
72	7
74	29
75	59
76	89
77	102
78	32
79	68
80	7
81	7
82	3
83	3
84	5
85	4
86	14
87	39
88	48
89	64
90	18
91	46
92	27
93	7
94	17
95	18
96	4
99	22
100	36
101	94
102	55
103	30
104	17
105	14
106	5
107	24
109	4
110	3
112	22
113	80
114	115
115	31
116	72
117	18
118	5
119	25
120	10
121	8
122	3
123	5
124	3
125	15
126	40
127	62
128	100
129	37
130	18
131	20
132	9
133	4
134	3
135	15
136	2
137	17
138	21
139	49
140	115
141	35
142	33
143	31
144	8
145	11
146	4
147	11
151	22
152	39
153	28
154	62
155	62
156	133
157	39
158	6
159	2
162	7
163	3
164	5
165	70
166	50
167	28
168	42
169	19
170	20
171	28
172	8
176	3
179	6
180	7
181	150
182	32
183	42
184	25
185	28
186	3
193	2
194	3
195	75
196	12
197	16
198	11
199	21
200	133
201	23
205	2
208	2
209	12
210	30
211	31
212	11
213	9
214	29
215	3
220	4
222	2
223	5
225	160
226	53
227	27
228	26
229	3
230	6
233	4
237	2
239	4
240	4
241	20
242	4
244	2
252	2
253	29
254	21
255	7
256	3
257	2
258	39
259	4
269	6
270	2
272	2
275	4
280	4
281	11
284	135
285	207
286	41
287	2
301	8
312	174
313	62
314	4
329	3
344	54
345	10
346	1
