Mass Spectrum: 1,1-Dimethyl 2,2-dicyano-3-(3-fluorophenyl)cyclopropane-1,1-dicarboxylate
Formula: C15H11FN2O4
CAS: 1241947-72-7
Molecular weight: 302
m/z	intensity
33	13
34	4
36	5
37	9
38	32
39	78
40	86
41	25
42	244
43	31
44	129
45	50
46	3
47	2
49	3
50	73
51	66
52	22
53	54
54	9
55	16
56	18
57	122
58	19
59	999
60	51
61	23
62	40
63	59
64	20
65	9
66	8
67	5
68	37
69	74
70	52
71	7
72	35
73	7
74	62
75	138
76	28
77	12
78	25
79	4
80	17
81	62
82	22
83	47
84	4
85	7
86	13
87	21
88	18
89	11
90	1
91	16
92	12
93	21
94	57
95	68
96	32
97	5
98	12
99	35
100	39
101	60
102	7
103	1
105	16
106	34
107	72
108	30
109	96
110	10
111	12
112	7
113	5
114	1
115	10
117	2
118	11
119	13
120	72
121	76
122	11
123	27
124	11
125	6
126	12
127	2
129	1
130	11
131	52
132	87
133	50
134	20
135	7
136	6
137	4
138	9
139	504
140	46
141	3
144	5
145	63
146	20
147	35
148	12
149	40
150	11
151	5
152	3
153	3
154	1
156	33
157	71
158	416
159	51
160	6
161	2
163	8
164	7
165	8
167	4
170	3
171	18
172	58
173	47
174	8
175	3
178	5
179	7
183	52
184	22
185	63
186	44
187	10
188	5
189	2
197	7
198	28
199	27
200	21
201	3
202	4
211	6
212	5
213	6
215	6
216	6
217	1
218	3
225	9
226	3
227	3
229	3
241	8
242	9
243	40
244	7
245	8
246	3
257	7
258	14
259	2
270	15
271	67
272	11
273	1
302	95
303	18
304	1
