Mass Spectrum: Boron, ethyl[ethyltriselenoperboronato(2-)-Se,SeSe](1,3,5,7-tetraazatricyclo[3.3.1.1(3,7)]decane-N1)-, (T-4)-
Formula: C10H22B2N4Se3
CAS: 124176-86-9
Molecular weight: 460
m/z	intensity
27	72
28	46
29	31
30	17
35	0
36	14
37	45
38	20
39	68
40	24
41	79
42	999
43	38
44	23
45	0
49	0
50	0
51	1
52	0
53	3
54	3
55	5
56	12
57	5
58	3
59	0
63	0
65	0
66	0
67	1
68	1
69	25
70	3
71	27
72	0
73	1
76	0
77	0
78	3
79	0
80	6
81	1
82	2
83	21
84	13
85	57
86	2
87	0
88	1
89	5
90	8
91	11
92	12
93	19
94	7
95	3
96	7
97	4
98	7
100	0
101	1
102	2
103	3
104	4
105	7
106	2
107	2
108	2
109	0
110	1
111	23
112	46
113	3
114	5
115	7
116	11
117	13
118	12
119	11
120	11
121	2
122	1
126	0
127	0
128	0
129	1
130	0
131	1
137	0
138	0
139	1
140	248
141	18
142	0
147	0
154	0
156	1
157	0
158	2
160	3
161	0
162	1
163	0
164	3
165	5
166	13
167	16
168	30
169	27
170	43
171	22
172	50
173	7
174	14
175	0
176	1
177	0
178	0
179	1
180	1
181	3
182	1
183	3
184	1
185	0
186	0
190	0
191	1
192	4
193	8
194	16
195	17
196	38
197	34
198	62
199	22
200	65
201	6
202	19
203	0
204	1
207	0
209	0
210	0
254	0
255	0
256	0
257	1
258	1
259	1
260	2
261	2
262	1
263	1
264	0
265	0
282	0
283	0
284	1
285	3
286	5
287	6
288	8
289	6
290	8
291	4
292	7
293	1
294	2
310	0
311	1
312	3
313	5
314	8
315	8
316	12
317	10
318	14
319	7
320	11
321	2
322	4
323	0
324	0
