Mass Spectrum: 4-Aza-5-thiatricyclo[5.2.1.0(3,7)]decane-5,5-dioxide, (7S)-10,10-dimethyl-
Formula: C10H17NO2S
CAS: 124224-04-0
Molecular weight: 215
m/z	intensity
26	23
27	375
28	443
29	250
30	350
31	7
37	7
38	23
39	569
40	142
41	999
42	228
43	879
44	326
45	30
48	22
50	30
51	133
52	68
53	342
54	160
55	340
56	223
57	62
58	59
59	5
62	8
63	28
64	26
65	150
66	98
67	515
68	426
69	344
70	148
71	33
72	7
75	5
76	5
77	335
78	66
79	341
80	217
81	276
82	829
83	781
84	63
85	71
86	21
89	6
91	524
92	120
93	915
94	555
95	345
96	245
97	38
103	14
104	12
105	138
106	124
107	194
108	879
109	228
110	158
111	17
115	10
117	27
118	12
119	879
120	128
121	46
122	242
123	95
124	12
131	5
132	159
133	24
134	354
135	74
136	886
137	98
138	5
148	5
150	143
151	250
152	32
215	6
216	6
