Mass Spectrum: Propanol, 3,3'-dithiobis[2,2-dimethyl-
Formula: C10H22O2S2
CAS: 124357-88-6
Molecular weight: 238
m/z	intensity
50	4
53	36
54	16
55	191
56	50
57	106
58	15
59	38
60	13
61	23
68	16
69	999
70	79
71	43
72	14
73	49
74	6
84	5
85	33
86	35
87	92
88	15
89	13
90	3
91	3
99	8
100	3
101	67
102	12
103	13
104	2
105	4
118	8
119	13
120	10
121	5
122	2
123	2
132	2
133	7
134	124
135	14
136	12
137	3
138	1
139	1
151	6
152	17
153	2
154	2
237	2
238	158
239	23
240	18
241	2
