Mass Spectrum: .alpha.-Pyrrolidone, 5-[4-acetylbutyl]-
Formula: C10H17NO2
CAS: 124324-97-6
Molecular weight: 183
m/z	intensity
41	135
42	77
43	490
44	21
45	6
51	10
52	5
53	21
54	32
55	73
56	89
57	15
58	18
65	5
66	4
67	19
68	15
69	18
70	5
71	27
77	6
79	6
80	15
81	17
82	29
83	25
84	999
85	63
86	4
93	4
94	7
95	12
96	5
97	22
98	41
99	17
110	35
111	5
112	5
113	36
121	4
123	12
124	23
125	4
126	27
136	6
138	34
139	6
140	28
141	4
150	4
153	18
155	14
165	34
166	11
183	32
184	13
