Mass Spectrum: Undecanoic acid, 2-nonyl-, methyl ester
Formula: C21H42O2
CAS: 124324-23-8
Molecular weight: 326
m/z	intensity
25	0
26	22
27	250
28	64
29	501
30	16
31	42
32	8
33	7
34	0
35	1
36	0
37	7
38	9
39	167
40	32
41	888
42	161
43	958
44	31
45	66
46	1
47	0
48	1
49	0
50	5
51	14
52	6
53	67
54	75
55	759
56	182
57	425
58	22
59	107
60	4
61	10
62	0
63	2
64	0
65	14
66	11
67	136
68	55
69	386
70	101
71	156
72	13
73	29
74	270
75	32
76	2
77	15
78	4
79	36
80	10
81	97
82	49
83	210
84	74
85	83
86	6
87	999
88	71
89	6
90	0
91	13
92	2
93	16
94	7
95	61
96	29
97	125
98	67
99	22
100	14
101	185
102	25
103	4
104	0
105	4
106	0
107	8
108	3
109	25
110	11
111	48
112	18
113	26
114	6
115	68
116	11
117	2
119	1
120	0
121	6
122	4
123	19
124	13
125	18
126	10
127	11
128	2
129	76
130	11
131	1
133	1
135	3
136	3
137	6
138	2
139	7
140	3
141	7
142	2
143	202
144	23
145	2
146	1
147	0
149	2
150	1
151	6
152	3
153	2
154	1
155	4
156	3
157	182
158	24
159	2
163	0
165	0
166	2
167	2
168	4
169	7
170	2
171	80
172	10
179	0
181	1
183	1
185	4
186	1
193	0
197	1
199	48
200	584
201	75
202	6
210	1
211	2
213	159
214	22
215	1
227	18
228	1
241	4
242	0
255	24
256	3
267	6
268	2
269	14
270	1
283	0
295	2
297	0
326	32
327	6
