Mass Spectrum: 3-(3-Azidobenzenesulfonyl)benzenamine
Formula: C12H10N4O2S
CAS: 124348-68-1
Molecular weight: 274
m/z	intensity
12	2
13	1
14	10
15	20
16	4
17	14
18	43
25	1
26	17
27	45
28	166
29	12
30	9
31	1
32	6
34	0
37	68
38	134
39	714
40	53
41	91
42	44
43	5
44	13
45	27
46	2
47	1
48	10
49	5
50	85
51	68
52	106
53	39
54	24
55	6
56	2
57	5
58	5
59	2
60	4
61	23
62	74
63	443
64	232
65	834
66	107
67	8
68	6
69	14
70	6
71	5
72	1
73	2
74	19
75	20
76	18
77	22
78	28
79	8
80	34
81	7
82	5
83	5
84	5
85	8
86	3
87	8
88	13
89	15
90	283
91	99
92	999
93	88
94	12
95	8
96	6
97	6
98	2
99	5
100	2
101	6
102	7
103	7
104	5
105	4
106	5
107	3
108	17
109	8
110	4
111	3
112	31
113	7
114	6
115	14
116	5
117	10
118	3
119	6
120	2
121	2
122	5
123	6
124	7
125	18
126	10
127	45
128	31
129	30
130	123
131	17
132	2
133	1
134	1
136	6
137	7
138	10
139	11
140	91
141	18
142	12
143	15
144	3
145	2
146	2
147	1
148	1
149	13
150	5
151	8
152	101
153	42
154	144
155	96
156	47
157	7
158	8
159	2
160	2
161	2
162	8
163	1
164	18
165	62
166	29
167	13
168	19
169	22
170	15
171	6
172	3
173	15
174	12
175	7
176	5
177	4
178	2
179	13
181	415
182	186
183	28
184	22
185	7
186	6
187	12
188	3
189	3
190	1
191	1
193	1
194	1
195	4
196	2
197	18
198	22
199	14
200	91
201	137
202	33
203	11
204	1
206	6
207	1
210	9
211	11
212	4
213	5
214	2
217	1
219	1
227	27
228	6
229	25
230	3
231	1
233	0
245	2
246	1
248	22
249	3
250	1
274	199
275	32
276	11
277	1
