Mass Spectrum: 9-Bromononaldehyde
Formula: C9H17BrO
CAS: 124388-97-2
Molecular weight: 220
m/z	intensity
41	837
42	186
43	449
44	405
45	154
46	10
47	5
49	4
50	5
51	14
52	8
53	83
54	108
55	999
56	138
57	537
58	46
59	56
60	46
61	52
62	4
63	3
65	14
66	17
67	205
68	123
69	446
70	62
71	101
72	60
73	312
74	34
75	4
77	11
78	6
79	38
80	15
81	242
82	63
83	141
84	63
85	29
86	11
87	37
88	15
89	3
91	7
93	34
94	16
95	167
96	61
97	391
98	49
99	17
100	7
101	19
102	4
105	4
106	4
107	46
108	7
109	90
110	14
111	52
112	16
113	31
114	6
115	20
116	3
119	7
120	7
121	36
122	18
123	130
124	24
125	21
126	3
127	8
129	25
130	11
133	5
134	19
135	73
136	22
137	72
138	25
139	146
140	19
141	10
143	8
144	1
147	4
148	27
149	21
150	26
151	16
153	3
155	11
156	8
157	58
158	6
160	7
161	5
162	27
163	14
164	23
165	10
166	4
167	1
173	3
174	24
175	9
176	128
177	64
178	110
179	59
180	10
181	3
190	8
191	12
192	24
193	45
194	23
195	35
196	1
203	14
204	30
205	50
206	8
207	57
208	6
209	14
219	15
220	245
221	30
222	249
223	27
224	2
