Mass Spectrum: Furazan, 3,4-bis(chloroacetylamino)-
Formula: C6H6Cl2N4O3
CAS: 124460-62-4
Molecular weight: 252
m/z	intensity
33	3
35	9
36	14
37	4
38	8
39	8
40	26
41	74
42	183
43	169
44	33
45	0
49	582
51	199
53	71
55	59
56	7
57	5
58	7
59	2
60	0
61	2
62	2
63	1
64	2
65	3
68	106
70	232
71	32
72	1
73	2
77	999
79	311
80	5
81	4
82	7
83	9
84	10
85	22
86	1
87	0
89	1
90	3
91	8
93	5
94	4
95	2
96	7
97	7
98	11
99	4
100	12
101	1
103	10
104	14
105	5
106	4
108	0
110	31
111	9
112	5
113	5
115	0
116	1
119	384
121	143
122	7
124	13
125	1
127	43
128	2
129	0
131	0
132	1
133	0
134	0
137	0
138	20
140	5
144	6
146	925
148	330
149	15
150	0
152	24
154	9
156	1
158	2
159	1
160	0
161	1
171	0
173	18
176	108
178	39
179	1
185	2
186	0
187	1
189	0
194	1
195	1
196	0
197	1
200	2
203	270
205	100
206	5
207	0
216	0
222	1
224	0
252	49
253	6
254	27
255	3
256	4
