Mass Spectrum: d,l-trans-4-Methyl-5-methoxy-1-(1-methoxy-1-isopropyl)cyclohex-3-ene
Formula: C12H22O2
CAS: 124547-59-7
Molecular weight: 198
m/z	intensity
51	10
53	30
55	60
57	10
59	50
65	20
67	30
69	20
72	50
73	999
74	50
77	40
78	10
79	40
81	10
83	20
91	40
93	40
94	10
98	10
108	10
109	30
110	10
119	40
123	70
124	20
133	1
134	7
135	10
136	3
137	3
138	2
150	2
151	32
152	4
165	2
166	35
167	5
198	1
