Mass Spectrum: Cyclopropane, 1-isopropenyl-1-(terahydrofuran-2,5-dion-3-yl)-
Formula: C10H12O3
CAS: 124571-32-0
Molecular weight: 180
m/z	intensity
26	46
27	400
28	13
29	103
31	1
37	17
38	67
39	653
40	135
41	458
42	39
43	79
44	16
45	15
46	4
49	4
50	75
51	175
52	114
53	240
54	42
55	93
56	8
57	3
60	5
61	8
62	25
63	69
64	24
65	157
66	135
67	144
68	26
69	11
70	5
71	1
72	1
73	4
74	11
75	12
76	7
77	476
78	102
79	673
80	151
81	233
82	27
83	6
84	1
86	1
89	11
90	9
91	366
92	76
93	999
94	188
95	98
96	14
97	9
98	1
99	15
100	1
103	5
105	34
106	24
107	149
108	220
109	45
110	40
111	9
117	8
119	9
120	11
121	29
122	10
123	105
124	20
125	2
133	5
134	24
135	274
136	296
137	54
138	26
139	75
140	6
147	3
151	20
152	52
153	4
162	7
165	6
180	17
