Mass Spectrum: 1H-Cyclopento[c]pyrrole-1,3-dione, hexahydro, 5-isopropylidene-2-methyl-
Formula: C11H15NO2
CAS: 124571-40-0
Molecular weight: 193
m/z	intensity
26	28
27	200
28	81
29	103
30	13
31	16
37	5
38	27
39	266
40	108
41	192
42	37
43	35
44	3
45	7
50	29
51	93
52	36
53	93
54	24
55	33
56	53
57	41
58	102
59	7
60	3
61	4
62	18
63	46
64	17
65	162
66	90
67	110
68	18
69	8
70	6
73	4
74	4
75	5
76	5
77	220
78	44
79	145
80	31
81	18
82	73
83	5
84	10
89	14
90	5
91	397
92	65
93	999
94	69
95	9
96	3
97	17
103	10
104	3
105	44
106	41
107	247
108	640
109	69
110	6
112	347
113	19
119	19
120	3
121	32
122	9
123	3
124	3
125	29
126	11
133	5
134	21
135	14
136	16
137	7
138	6
147	3
148	3
150	28
151	9
152	6
162	4
164	13
165	16
176	4
178	69
179	7
192	17
193	624
194	96
195	8
