Mass Spectrum: Spiro[3-azabicyclo[3.2.0]heptane-2,4-dione-6,1'-cyclopropane], 3-phenyl-2'-(trimethylsilyl)-
Formula: C17H21NO2Si
CAS: 124571-44-4
Molecular weight: 299
m/z	intensity
26	4
27	12
28	32
29	2
31	9
39	14
40	0
41	4
43	48
44	17
45	114
46	8
47	6
50	4
51	20
52	15
53	12
54	8
55	22
57	7
58	21
59	102
60	8
61	7
63	5
64	10
65	13
66	5
67	6
68	4
69	12
70	5
71	7
72	12
73	999
74	86
75	69
76	7
77	105
78	29
79	41
80	10
81	5
83	22
84	7
85	19
86	4
89	3
91	33
92	4
93	6
95	16
96	5
97	7
99	7
100	6
102	4
103	8
104	17
105	13
106	8
107	16
108	4
109	14
110	3
111	47
112	5
115	2
117	7
118	3
119	18
120	5
121	9
123	4
126	3
128	5
129	10
130	10
131	3
135	8
137	32
138	5
142	2
143	3
144	3
147	4
148	34
149	18
150	12
151	4
152	9
153	4
154	7
155	3
156	9
163	3
165	14
166	4
167	10
168	7
170	3
173	12
174	4
178	8
179	23
180	37
181	21
182	53
183	9
192	10
193	4
194	27
195	5
196	7
197	3
202	9
207	5
208	100
209	19
210	18
218	7
228	5
230	6
231	4
240	3
242	4
243	3
244	7
246	71
247	16
248	4
254	10
255	3
256	37
257	10
258	8
270	91
271	53
272	14
284	105
285	26
286	4
298	50
299	146
300	34
301	10
