Mass Spectrum: Methoxycarbonyl methoxythioxomethyl disulfide
Formula: C4H6O3S3
CAS: 124535-50-8
Molecular weight: 198
m/z	intensity
41	3
43	36
45	435
46	220
47	196
48	56
49	19
50	4
59	999
61	320
62	44
64	287
65	15
66	18
71	2
74	8
75	210
76	32
77	31
79	647
80	43
81	53
82	1
91	18
92	9
94	99
95	16
96	18
97	15
98	1
105	37
106	38
107	38
108	5
109	4
111	34
113	7
121	3
122	77
123	33
124	10
125	13
126	9
127	2
129	2
137	1
138	113
139	18
140	14
141	3
143	5
145	1
151	74
153	20
154	4
155	1
156	1
157	1
158	5
159	1
160	1
182	5
183	10
184	2
197	1
198	10
199	2
200	1
