Mass Spectrum: [(1-Phenyl-2-ethoxycarbonyl)vinyloxy]-1,3,2-dioxaphospholane
Formula: C13H15O5P
CAS: 124663-87-2
Molecular weight: 282
m/z	intensity
31	856
32	54
40	36
42	60
43	429
44	258
45	207
47	595
48	187
49	57
50	41
51	79
57	45
61	47
62	46
65	255
66	55
69	50
77	408
78	748
79	103
81	169
83	74
89	42
90	39
91	411
92	44
96	56
99	73
102	134
103	119
104	78
105	999
106	74
107	106
108	298
109	169
120	66
121	72
122	35
125	102
129	156
131	81
138	73
147	79
151	91
192	58
193	60
210	55
211	154
219	35
237	42
238	44
239	87
248	13
253	22
282	18
