Mass Spectrum: N-Desmethyltapentadol
Formula: C13H21NO
CAS: 1246819-18-0
Molecular weight: 207
m/z	intensity
15	2
18	5
26	1
27	9
28	13
29	7
30	13
31	3
32	2
38	1
39	19
40	3
41	30
42	24
43	14
44	999
45	28
46	2
50	2
51	7
52	3
53	8
54	2
55	10
56	9
57	10
58	1
62	1
63	5
64	2
65	14
66	4
67	2
68	3
69	2
70	12
71	13
72	104
73	15
74	1
75	1
76	1
77	36
78	9
79	13
80	2
81	2
82	1
84	4
86	1
89	4
90	2
91	28
92	4
93	3
94	9
95	3
96	1
98	1
101	1
102	2
103	12
104	2
105	13
106	2
107	80
108	13
109	1
113	1
115	14
116	5
117	7
118	3
119	8
120	8
121	27
122	3
123	1
127	2
128	2
129	1
130	1
131	7
132	4
133	30
134	17
135	7
136	39
137	4
144	1
145	2
146	2
147	12
148	2
159	1
160	1
161	3
162	3
163	1
176	5
177	1
207	29
208	4
