Mass Spectrum: Allyl(allyloxy)dimethylsilane
Formula: C8H16OSi
CAS: 124659-59-2
Molecular weight: 156
m/z	intensity
26	28
27	63
29	52
30	2
31	24
36	6
37	16
38	33
39	191
40	26
41	198
42	21
43	99
44	17
45	144
46	12
47	59
48	2
49	6
50	38
51	55
52	49
53	18
54	3
55	39
56	3
57	19
58	37
59	556
60	51
61	108
62	4
63	13
65	2
66	4
67	4
69	8
70	2
71	26
72	2
73	21
74	17
75	238
76	29
77	47
78	262
79	19
80	2
81	4
83	15
84	2
85	379
86	40
87	79
88	9
89	2
93	9
95	7
97	8
98	2
99	166
100	19
101	2
102	24
103	2
104	2
109	2
111	11
113	55
114	60
115	999
116	117
117	54
141	7
156	9
157	1
158	1
