Mass Spectrum: Cyclohexanecarbonitrile, 4-[4'-(nonyloxy)[1,1'-biphenyl]-4-yl]-1-octyl-
Formula: C36H53NO
CAS: 124729-19-7
Molecular weight: 515
m/z	intensity
27	179
29	300
41	467
43	999
45	301
55	372
57	266
69	208
71	161
96	200
133	338
135	171
166	158
181	209
183	385
191	277
194	131
196	542
209	804
210	157
389	487
390	140
515	716
516	272
517	53
