Mass Spectrum: (2-Methyl-oxiran-2-yl)-acetic acid, methyl ester
Formula: C6H10O3
CAS: 124744-30-5
Molecular weight: 130
m/z	intensity
25	5
26	56
27	278
28	73
29	414
30	40
31	89
33	30
35	2
36	3
37	38
38	102
39	810
40	249
41	999
42	322
43	748
44	33
45	345
46	9
47	22
49	5
50	25
51	28
52	11
53	75
54	28
55	318
56	36
57	173
58	75
59	549
60	22
61	14
63	16
66	4
67	17
68	81
69	312
70	153
71	292
72	386
73	119
74	29
75	34
76	2
77	3
78	3
79	2
80	3
81	10
82	28
83	55
84	6
85	105
86	16
87	160
88	65
89	11
90	4
91	17
92	1
93	1
95	2
96	1
97	12
98	138
99	423
100	73
101	66
102	187
103	12
113	28
114	60
115	189
116	18
117	15
124	1
125	3
126	0
127	2
128	3
129	20
130	7
131	5
