Mass Spectrum: 2-(2-Butoxyethyl)cyclopentan-1-one 2,4-dinitrophenylhydrazone
Formula: C17H24N4O5
CAS: 124868-65-1
Molecular weight: 364
m/z	intensity
39	285
41	999
42	94
43	120
44	28
45	32
50	33
51	74
52	67
53	169
54	136
55	394
57	525
62	61
63	99
64	57
65	123
67	451
68	56
69	65
70	12
71	10
75	98
76	57
77	115
78	87
79	175
80	94
81	182
82	95
83	96
84	11
87	18
88	11
89	30
90	41
91	79
92	40
93	97
94	64
95	72
96	51
97	21
98	9
101	8
102	9
103	23
104	48
105	23
106	42
107	41
108	113
109	97
110	25
111	37
115	51
116	138
117	33
118	18
119	17
120	12
121	10
122	33
123	12
124	25
126	8
127	12
128	15
129	18
130	20
131	20
132	36
133	9
135	9
136	9
137	15
138	8
141	13
142	14
143	35
144	32
145	14
148	8
149	29
152	18
153	20
154	45
155	35
156	17
157	15
159	8
160	13
162	120
163	19
164	19
165	57
166	13
167	51
168	31
169	26
170	26
171	44
172	43
173	11
175	11
176	8
177	20
178	16
180	9
181	16
182	21
183	42
184	43
185	12
189	52
190	91
191	44
192	9
195	10
196	16
197	31
198	15
199	30
200	9
201	11
202	9
203	24
204	13
209	15
211	9
213	8
214	10
215	21
216	29
217	128
218	26
227	14
229	169
230	25
231	26
242	22
243	29
244	11
245	26
246	16
247	12
255	39
257	139
258	20
264	82
265	9
273	53
274	8
277	29
290	21
291	12
329	55
330	9
364	68
365	13
