Mass Spectrum: 4H-1,3-Benzodioxin-4-one, hexahydro-4a-methyl-, (4aR-cis)-
Formula: C9H14O3
CAS: 124899-01-0
Molecular weight: 170
m/z	intensity
26	6
27	115
28	12
29	71
30	11
31	18
38	5
39	142
40	35
41	337
42	34
43	43
44	6
45	16
50	5
51	19
52	12
53	92
54	107
55	250
56	41
57	20
65	24
66	22
67	240
68	366
69	154
70	18
71	10
77	35
78	7
79	64
80	14
81	964
82	57
83	23
84	48
85	4
91	11
93	12
94	27
95	113
96	999
97	94
98	6
111	8
112	64
113	15
114	1
139	5
140	75
141	14
142	1
169	1
171	6
