Mass Spectrum: 1-Methyl-2-phenylhexahydropyrimidine
Formula: C11H16N2
CAS: 124821-12-1
Molecular weight: 176
m/z	intensity
42	368
43	67
44	480
45	18
47	4
48	2
49	18
50	54
51	160
52	42
53	11
54	27
55	15
56	46
57	32
58	760
59	35
60	1
61	4
62	15
63	58
64	21
65	67
66	11
67	5
68	14
69	8
70	75
71	53
72	16
73	14
74	14
75	14
76	35
77	256
78	86
79	36
80	4
81	2
82	2
83	4
84	14
85	8
86	12
87	4
88	4
89	67
90	42
91	243
92	23
93	2
94	2
95	1
96	1
97	6
98	4
99	362
100	27
101	3
102	6
103	40
104	404
105	239
106	111
107	11
108	1
110	0
111	0
113	4
114	0
115	8
116	16
117	75
118	999
119	518
120	55
121	10
122	10
123	1
125	2
126	1
127	1
128	2
129	2
130	24
131	11
132	316
133	69
134	17
135	3
136	1
142	0
143	2
144	15
145	41
146	60
147	23
148	6
149	2
150	1
157	0
158	2
161	3
162	3
163	1
165	0
167	0
173	10
174	3
175	126
176	85
177	10
178	0
