Mass Spectrum: Cyclopenta-1,3-dioxin-4(6H)-one, 2-(1,1-dimethylethyl)-7,7a-dihydro-, (2s-trans)-
Formula: C11H16O3
CAS: 124899-11-2
Molecular weight: 196
m/z	intensity
26	7
27	93
29	141
30	4
31	7
37	4
38	13
39	146
40	71
41	252
42	18
43	78
44	8
45	16
50	5
51	14
52	11
53	56
54	23
55	85
56	17
57	329
58	17
59	3
63	13
64	11
65	140
66	999
67	311
68	145
69	50
70	12
71	44
72	7
73	3
79	4
80	3
81	21
82	76
83	256
84	32
85	58
86	19
87	91
88	8
92	9
93	853
94	140
95	51
96	8
97	15
98	3
109	27
110	30
111	84
112	20
113	14
122	2
123	4
137	6
138	23
139	719
140	70
141	124
142	13
143	5
149	15
150	10
152	28
153	5
171	3
195	6
196	3
