Mass Spectrum: Cyclopenta-1,3-dioxin-4(5H)-one, 2-(1,1-dimethylethyl)-6,7-dihydro-, (S)-
Formula: C11H16O3
CAS: 124899-12-3
Molecular weight: 196
m/z	intensity
25	15
26	119
27	372
28	91
29	341
30	12
31	13
36	11
37	43
38	80
39	509
40	81
41	771
42	113
43	156
44	10
45	13
49	17
50	61
51	69
52	43
53	155
54	276
55	347
56	28
57	426
58	22
61	11
62	10
63	13
64	9
65	38
66	25
67	17
68	63
69	20
70	13
71	29
72	8
78	6
79	9
80	9
81	39
82	154
83	35
84	16
85	9
86	66
87	18
93	14
109	21
110	467
111	999
112	72
113	9
139	69
140	11
141	7
168	17
169	6
196	57
197	9
