Mass Spectrum: 4H-1,3-Benzodioxin-4-one, 2-(1,1-dimethylethyl)hexahydro-5-methyl-4a-(2-propenyl)-, [2s-(2.alpha.,4a.alpha.,5.beta.,8a.beta.)]-
Formula: C16H26O3
CAS: 124899-18-9
Molecular weight: 266
m/z	intensity
27	10
28	7
29	57
39	18
40	8
41	170
42	18
43	86
44	7
45	21
53	26
54	64
55	216
56	25
57	255
58	13
59	3
60	4
65	4
66	27
67	272
68	217
69	150
70	21
71	108
72	7
73	6
77	25
78	9
79	176
80	90
81	775
82	203
83	77
84	18
85	89
86	15
87	134
88	9
91	34
92	20
93	290
94	169
95	999
96	926
97	131
98	20
99	13
100	18
101	7
103	97
104	6
105	19
106	12
107	170
108	73
109	95
110	17
111	63
112	28
113	24
114	4
115	3
119	17
120	9
121	238
122	39
123	841
124	95
125	59
126	19
130	7
133	9
134	19
135	437
136	367
137	77
138	64
139	173
140	35
141	20
142	4
143	12
144	2
145	8
146	3
147	7
148	1
149	23
150	4
151	19
152	21
153	155
154	17
155	2
161	5
162	17
163	38
164	6
165	30
166	6
167	12
168	5
169	66
170	7
171	12
178	12
179	5
180	287
181	101
182	21
183	10
184	3
196	2
197	6
198	1
199	5
209	148
210	33
211	7
266	3
267	2
