Mass Spectrum: 4-Cyano-2-nitrophenylhydrazine
Formula: C7H6N4O2
CAS: 124839-61-8
Molecular weight: 178
m/z	intensity
50	115
51	84
52	96
62	51
63	47
64	90
75	115
76	224
77	999
78	144
89	91
90	24
102	516
103	120
104	98
105	50
115	120
116	131
178	590
179	55
