Mass Spectrum: Tetrahydrocyclopenta[1,3]dioxin-4-one
Formula: C7H10O3
CAS: 124898-85-7
Molecular weight: 142
m/z	intensity
25	2
26	25
27	138
28	32
29	81
30	34
31	24
36	0
37	12
38	33
39	184
40	60
41	134
42	34
43	13
44	3
45	4
49	1
50	12
51	18
52	8
53	92
54	7
55	174
56	22
57	19
58	1
61	3
62	4
63	8
64	2
65	27
66	38
67	378
68	999
69	54
70	3
71	6
80	0
81	1
82	1
83	25
84	63
85	9
86	0
94	0
95	8
96	0
97	2
98	5
99	0
104	0
105	0
111	1
112	22
113	2
141	4
142	1
143	0
