Mass Spectrum: 2-Pentenoic acid, 4-[[(1,1-dimethylethoxy)carbonyl]amino]-5-phenyl-, ethyl ester, [s-(E)]-
Formula: C18H25NO4
CAS: 124818-94-6
Molecular weight: 319
m/z	intensity
26	2
27	21
28	8
29	113
30	4
31	8
35	0
36	0
37	0
38	0
39	24
40	3
41	119
42	7
43	9
44	4
45	3
46	0
47	0
48	0
50	0
51	5
52	4
53	5
54	19
55	19
56	18
57	999
58	40
59	19
60	1
61	14
62	1
63	4
64	2
65	33
66	2
67	0
68	1
69	0
70	0
71	1
72	10
73	1
74	1
75	0
76	0
77	6
78	3
79	2
80	1
81	1
82	34
83	10
84	1
85	1
86	0
87	0
88	0
89	4
90	3
91	193
92	60
93	4
94	0
95	0
96	1
97	0
98	5
99	1
100	20
101	1
102	2
103	5
104	21
105	2
106	0
107	1
108	0
109	2
110	1
111	0
112	0
114	0
115	9
116	3
117	9
118	3
119	2
120	14
121	1
122	0
125	0
126	7
127	12
128	524
129	74
130	12
131	5
132	2
133	0
134	1
135	1
136	0
140	0
141	0
142	4
143	2
144	8
145	3
146	3
147	0
148	4
149	0
150	0
154	0
155	1
156	0
157	6
158	3
159	0
160	0
163	0
164	9
165	0
166	0
168	0
169	0
170	0
171	1
172	244
173	24
174	58
175	9
176	1
177	1
178	3
179	0
183	0
184	8
185	1
186	3
187	0
188	1
189	0
190	2
191	0
194	0
198	0
199	0
200	2
201	0
202	5
203	6
204	9
205	1
206	0
208	0
215	0
217	1
218	1
219	1
220	10
221	1
222	2
223	0
228	203
229	25
230	2
231	0
232	0
233	1
234	0
235	0
238	0
239	0
240	0
242	1
243	0
246	24
247	3
248	0
249	0
260	2
261	0
262	0
263	5
264	0
265	0
277	1
278	0
280	0
304	0
319	4
320	0
