Mass Spectrum: 1-(Furan-2-yl)-2-methylpentan-1-one
Formula: C10H14O2
CAS: 1248070-62-3
Molecular weight: 166
m/z	intensity
27	31
29	36
37	8
39	137
41	80
42	20
43	149
46	9
51	14
53	28
55	32
67	67
68	15
69	37
77	9
79	15
83	14
85	15
86	6
93	8
95	999
96	59
97	13
106	12
109	8
110	11
123	12
124	525
125	57
137	31
