Mass Spectrum: Cholest-5-ene-3-thiol, (3.beta.)-
Formula: C27H46S
CAS: 1249-81-6
Molecular weight: 402
m/z	intensity
41	546
43	999
44	33
45	23
47	20
49	7
51	6
53	61
55	502
56	9
57	459
58	24
59	15
60	2
61	10
65	29
66	11
67	243
68	17
69	259
70	24
71	172
72	7
73	35
75	7
77	82
78	19
79	227
80	30
81	330
82	34
83	115
84	8
85	41
87	22
89	3
91	227
92	45
93	212
94	56
95	271
96	25
97	69
98	5
99	32
100	15
101	57
102	5
103	17
104	2
105	232
106	47
107	199
108	46
109	112
110	13
111	45
112	5
113	24
114	31
115	37
116	13
117	68
118	27
119	118
120	72
121	95
122	22
123	48
124	9
125	23
126	7
127	18
128	21
129	39
130	20
131	87
132	24
133	100
134	33
135	83
136	17
137	23
138	7
139	14
140	15
141	37
142	16
143	56
144	27
145	139
146	29
147	77
148	22
149	48
150	7
151	17
152	7
153	18
154	34
155	25
156	9
157	36
158	55
159	88
160	37
161	62
162	14
163	52
164	8
165	17
166	9
167	26
168	7
169	7
171	27
172	10
173	40
174	11
175	16
177	23
178	3
179	38
180	11
181	12
182	3
183	5
185	24
186	8
187	32
188	8
189	9
191	21
192	15
193	30
194	22
195	10
196	2
197	6
199	30
200	7
201	12
202	3
203	5
205	15
206	9
207	12
208	4
211	3
213	68
214	22
215	19
216	4
217	4
219	15
220	6
221	7
227	9
228	13
229	18
230	2
231	5
233	19
234	6
235	7
239	3
241	7
243	3
245	7
247	140
248	43
249	14
250	5
255	36
256	8
257	3
259	6
260	7
261	16
262	25
263	13
264	3
273	6
274	11
275	107
276	22
277	3
283	2
285	2
286	6
287	12
289	79
290	15
291	5
299	2
301	72
302	16
303	3
311	2
313	6
314	2
315	2
316	3
317	4
318	2
326	2
327	7
328	4
329	2
347	2
353	37
354	9
355	5
360	2
361	5
367	4
368	65
369	74
370	19
371	3
373	2
385	3
387	151
388	41
389	12
390	2
400	4
401	7
402	540
403	160
404	48
405	9
