Mass Spectrum: 2-Pyrazoline, 3-(2-nitroethenyl)-1-phenyl-
Formula: C11H11N3O2
CAS: 124960-28-7
Molecular weight: 217
m/z	intensity
33	0
37	15
38	47
39	132
40	52
41	35
42	15
43	6
44	2
46	19
47	0
50	65
51	193
52	53
53	18
54	18
55	11
56	9
57	3
58	0
59	0
61	4
62	15
63	55
64	67
65	81
66	25
67	6
68	7
69	1
70	2
71	2
72	0
74	14
75	15
77	999
78	70
79	6
80	1
81	3
82	2
84	13
85	2
86	1
87	1
88	3
89	18
90	22
91	107
92	14
93	5
94	7
95	1
96	1
97	0
98	0
99	0
100	0
101	1
102	5
104	170
105	223
106	22
107	1
109	1
110	0
111	0
112	1
113	1
115	59
116	13
117	29
118	25
119	13
120	2
121	0
123	1
127	3
128	5
129	3
130	8
131	2
132	1
133	0
137	0
139	1
140	2
141	5
142	9
143	12
144	10
145	9
146	6
147	0
152	1
153	0
154	1
155	3
156	2
157	6
158	6
159	1
161	9
162	1
163	0
169	99
170	67
171	19
172	4
174	75
175	8
176	0
180	0
182	31
183	6
184	1
185	2
186	1
187	9
188	1
195	0
196	0
197	1
198	0
199	0
200	4
201	0
202	0
203	0
213	0
214	1
217	220
218	25
219	2
