Mass Spectrum: 20,24-Dihydroxy-4,7,13,16-tetraoxa-22-thia-1,10-diazabicyclo[8.8.7]-pentacozane
Formula: C18H36N2O6S
CAS: 124940-68-7
Molecular weight: 408
m/z	intensity
54	60
55	140
56	999
57	250
58	375
59	85
60	20
61	125
62	8
63	9
64	13
65	14
68	63
69	10
70	250
71	163
72	175
73	150
74	50
75	35
82	100
83	85
84	126
85	75
86	153
87	55
88	83
89	75
90	7
91	13
94	44
95	22
96	50
97	38
98	108
99	48
100	250
101	125
102	93
103	28
108	25
109	24
110	23
111	43
112	80
113	46
114	325
115	88
116	68
117	13
118	66
119	10
120	23
121	8
122	11
123	16
124	29
125	25
126	30
127	29
128	100
129	28
130	165
131	33
132	223
133	40
134	16
140	20
141	15
142	35
143	48
144	295
145	118
146	248
147	29
148	28
157	68
158	40
159	38
160	58
167	13
168	10
169	7
170	28
171	21
172	38
173	33
174	25
175	13
176	36
182	30
183	9
186	34
187	28
188	35
189	14
190	73
191	16
192	8
199	34
200	13
201	22
202	15
203	9
204	19
205	8
206	100
207	16
208	14
213	19
214	8
215	53
216	14
217	20
218	8
219	13
220	18
227	15
228	30
229	50
230	15
231	35
232	19
233	13
234	13
243	19
244	10
245	17
246	12
247	8
248	10
249	12
250	18
257	25
258	10
259	18
260	14
261	18
262	17
263	14
264	33
273	19
274	8
275	55
276	15
277	15
287	113
288	50
289	325
290	100
291	23
298	15
299	6
300	70
301	18
302	23
303	11
313	83
314	18
315	34
316	9
317	17
318	5
319	88
320	15
321	43
331	180
332	30
333	28
346	25
347	58
348	14
357	16
358	4
364	31
365	12
372	3
373	1
377	9
378	2
390	31
391	9
407	11
408	11
409	9
