Mass Spectrum: Propan-2-one, 1-chloro-1-fluoro-1-nitro-, 2,4-dinitrophenylhydrazone
Formula: C9H7ClFN5O6
CAS: 125013-78-7
Molecular weight: 335
m/z	intensity
33	79
35	45
36	135
38	482
39	178
40	83
41	94
42	250
43	205
44	49
46	206
47	63
49	49
50	130
51	185
52	101
53	61
54	23
55	49
57	292
59	155
61	102
62	236
63	659
64	131
65	138
67	999
69	330
70	17
71	15
72	60
74	425
75	584
76	134
77	124
78	103
79	226
80	42
81	21
82	14
83	23
84	17
85	5
86	12
87	49
88	40
89	28
90	32
91	70
93	864
95	241
96	11
97	6
98	7
99	4
100	8
101	14
102	11
103	23
104	27
105	20
106	24
107	23
108	18
109	10
110	8
111	9
112	8
113	5
114	6
115	11
116	9
117	8
119	76
121	510
122	66
123	138
124	8
125	3
126	5
127	2
128	3
129	4
130	8
131	11
132	22
133	31
134	10
135	25
136	10
137	20
138	4
139	1
140	1
141	1
142	2
143	3
144	5
145	3
146	2
147	5
148	3
149	16
150	6
151	3
152	9
153	3
154	2
155	11
156	4
157	4
158	1
159	0
161	26
162	35
163	9
164	2
165	12
166	41
167	7
168	4
169	2
170	1
171	5
172	1
173	0
174	0
175	0
176	1
177	3
178	1
179	3
180	3
181	5
182	4
183	22
184	2
185	0
187	0
189	2
190	3
191	1
193	10
195	103
196	12
197	13
198	1
199	1
200	1
201	1
202	3
203	1
204	0
205	0
207	13
208	8
209	1
210	0
211	0
213	14
214	3
215	0
217	0
219	0
220	0
221	0
222	1
223	0
224	4
225	0
226	0
227	0
228	0
231	3
232	0
233	1
234	0
235	0
237	4
238	1
239	0
240	0
242	1
243	2
244	0
245	0
247	1
248	29
250	13
251	0
252	0
253	1
254	5
255	14
256	2
257	0
258	0
259	0
264	0
267	1
268	0
270	7
271	1
272	0
273	2
274	0
275	0
281	1
283	2
285	3
288	101
289	254
290	48
291	86
292	7
293	1
299	2
300	3
301	0
335	0
