Mass Spectrum: 6-Ethyl-4,4,5-trimethyltetrahydro-1,3-oxazin-2-thione
Formula: C9H17NOS
CAS: 125039-12-5
Molecular weight: 187
m/z	intensity
39	79
40	24
41	430
42	999
43	340
44	31
45	10
53	36
54	15
55	440
56	88
57	660
58	790
59	43
60	31
61	10
65	10
67	32
68	19
69	380
70	230
71	84
72	10
73	9
74	8
80	12
81	23
82	14
83	66
84	26
85	17
86	6
93	10
95	120
96	28
97	25
98	54
99	19
100	22
101	13
108	14
110	90
111	98
112	97
116	13
117	15
118	340
119	23
120	17
154	13
172	13
187	760
188	84
189	38
190	4
