Mass Spectrum: Hex-3-enenitrile, 4-acetyl-2-dimethylaminomethylene-5-oxo-
Formula: C11H14N2O2
CAS: 125013-98-1
Molecular weight: 206
m/z	intensity
30	10
32	51
37	5
38	12
39	50
40	18
41	64
42	509
43	999
44	94
45	60
50	27
51	44
52	42
53	62
54	21
55	51
56	13
57	34
58	6
61	2
62	7
63	30
64	47
65	47
66	28
67	30
68	16
69	8
70	3
71	7
72	3
74	5
75	10
76	24
77	37
78	43
79	34
80	51
81	36
82	66
83	5
84	3
88	4
89	5
90	12
91	19
92	33
93	41
94	96
95	27
96	9
97	4
98	3
102	3
103	10
104	19
105	45
106	83
107	46
108	19
109	6
111	3
116	4
117	8
118	19
119	87
120	65
121	91
122	17
123	5
124	9
125	3
127	3
130	2
131	11
132	12
133	25
134	29
135	14
136	9
138	4
144	4
145	12
146	17
147	20
148	19
149	751
150	77
151	5
161	22
162	408
163	151
164	18
166	6
171	3
173	8
177	19
178	6
180	23
188	4
189	15
191	190
192	23
205	64
206	485
207	65
208	7
