Mass Spectrum: Chroman-5(6H)-one, 7,8-dihydro-3,4-dehydro-3-ethoxy-7,7-dimethyl-2-dimethylamino-
Formula: C15H23NO3
CAS: 125014-13-3
Molecular weight: 265
m/z	intensity
33	12
34	18
36	12
37	11
38	39
39	361
40	251
41	543
42	999
43	358
44	316
45	72
46	35
47	1
50	46
51	169
52	98
53	327
54	84
55	456
56	143
57	231
58	296
59	47
60	11
61	4
62	10
63	40
64	27
65	106
66	70
67	154
68	87
69	149
70	42
71	56
72	197
73	15
74	38
75	12
76	19
77	141
78	50
79	139
80	64
81	167
82	349
83	331
84	54
85	38
86	15
87	5
89	11
91	133
92	34
93	85
94	124
95	80
96	73
97	76
98	35
99	11
100	3
101	6
102	10
103	12
104	11
105	38
106	110
107	69
108	77
109	110
110	62
111	37
112	15
114	9
115	14
116	3
117	10
118	8
119	21
120	17
121	53
122	33
123	113
124	153
125	32
126	11
127	8
128	14
130	2
131	12
132	6
133	19
134	22
135	33
136	38
137	170
138	40
139	14
140	12
141	9
142	3
145	4
146	5
147	18
148	38
149	25
150	16
151	21
152	45
153	26
154	11
159	1
160	6
161	11
162	13
163	27
164	30
165	87
166	41
167	26
168	2
169	1
175	3
176	8
177	87
178	29
179	33
180	121
181	23
189	1
190	8
191	15
192	16
193	134
194	25
195	6
202	11
203	3
204	8
205	48
206	21
207	15
208	160
209	27
210	7
217	10
218	12
220	238
221	339
222	71
223	7
230	3
231	3
233	15
234	9
236	474
237	65
238	13
247	1
249	3
250	7
258	7
261	2
264	12
265	210
266	33
267	4
