Mass Spectrum: 1,4-Dibromo-2-phenylbutane
Formula: C10H12Br2
CAS: 125056-14-6
Molecular weight: 290
m/z	intensity
38	21
39	152
40	12
41	53
42	6
43	29
50	77
51	192
52	56
53	68
54	4
55	28
56	6
57	40
62	22
63	64
64	52
65	101
75	29
76	32
77	241
78	207
79	36
89	35
90	20
91	999
92	91
93	25
94	3
95	25
101	23
102	76
103	276
104	652
105	104
106	11
107	14
109	13
115	125
116	52
117	302
118	40
127	16
128	36
129	38
130	18
131	232
132	24
169	11
171	5
182	11
183	226
184	29
185	209
186	20
196	5
197	245
198	32
199	235
200	20
210	25
211	165
212	36
213	170
214	16
290	40
291	5
292	79
293	9
294	39
295	4
