Mass Spectrum: 1-Phenyl-5-(2-dimethylaminovinyl)-1H-tetrazole
Formula: C11H13N5
CAS: 125037-37-8
Molecular weight: 215
m/z	intensity
29	146
42	760
43	71
51	137
57	267
70	90
77	288
83	999
91	121
95	89
96	108
104	60
110	29
117	79
131	29
145	69
157	90
172	110
173	49
186	188
187	268
215	608
