Mass Spectrum: 4,4,5,6-Tetramethyltetrahydro-1,3-oxazin-2-thione
Formula: C8H15NOS
CAS: 125039-11-4
Molecular weight: 173
m/z	intensity
38	7
39	120
40	21
41	290
42	999
43	250
44	44
45	58
46	3
47	4
48	2
49	1
50	5
51	11
52	7
53	44
54	19
55	390
56	120
57	470
58	160
59	26
60	25
61	11
62	2
63	2
64	1
65	6
66	3
67	16
68	14
69	69
70	140
71	57
72	13
73	10
74	5
75	2
76	2
77	5
78	4
79	11
80	4
81	45
82	10
83	30
84	46
85	14
86	7
87	3
88	5
89	3
90	1
91	1
94	1
95	5
96	46
97	190
98	130
99	15
100	61
101	8
102	7
103	3
104	2
111	1
112	6
113	3
114	12
115	7
116	5
117	7
118	30
119	2
120	2
124	1
126	4
128	1
129	2
130	6
131	1
139	2
140	3
144	3
158	10
159	1
173	580
174	58
175	28
176	3
