Mass Spectrum: 1-(4-Bromophenyl)-5-[2-(cyclohexamethyleneamino)vinyl]-1H-tetrazole
Formula: C15H18BrN5
CAS: 125037-54-9
Molecular weight: 347
m/z	intensity
68	355
82	999
95	686
96	277
109	216
110	315
124	599
137	218
150	208
155	119
157	118
169	78
171	80
181	48
183	50
184	138
186	139
249	99
251	98
262	59
263	78
264	70
265	80
276	308
277	40
278	310
279	40
290	129
291	30
292	128
293	30
305	30
307	30
318	140
319	705
321	695
347	685
349	687
