Mass Spectrum: Tetrazole-5-carboxaldehyde, 1-(4-ethylphenyl)-, thiosemicarbazone
Formula: C12H15N7S
CAS: 125037-98-1
Molecular weight: 289
m/z	intensity
33	39
34	21
36	1
37	7
38	23
39	98
40	106
41	62
42	61
43	185
44	61
45	18
46	6
47	9
48	15
49	1
50	37
51	79
52	42
53	37
54	22
55	44
57	167
58	27
59	84
60	240
61	18
62	31
63	53
64	35
65	62
66	24
67	16
68	10
69	16
70	7
71	10
72	7
73	8
74	21
75	31
76	93
77	235
78	88
79	129
80	15
81	6
82	8
83	12
84	8
85	8
86	6
87	1
89	60
90	54
91	143
92	39
93	29
94	9
95	5
96	1
97	3
98	3
99	6
102	999
103	125
104	149
105	137
106	55
107	6
109	2
111	2
112	2
114	29
115	45
116	88
117	48
118	86
119	78
120	27
121	20
123	4
125	1
127	1
128	38
129	20
130	82
131	364
132	88
133	30
134	3
135	3
138	3
141	11
142	8
143	24
145	306
146	70
147	24
148	5
149	7
155	3
156	10
157	42
158	39
159	70
160	28
161	3
162	4
163	2
169	9
170	57
171	32
172	127
173	22
174	3
175	2
184	4
185	9
186	36
187	58
188	316
189	48
190	5
213	1
215	33
216	6
229	12
230	4
243	8
244	6
272	8
289	93
290	14
291	3
