Mass Spectrum: 6-Propyl-4,4,5-trimethyltetrahydro-1,3-oxazin-2-thione
Formula: C10H19NOS
CAS: 125039-13-6
Molecular weight: 201
m/z	intensity
37	5
38	13
39	180
40	34
41	560
42	999
43	500
44	83
45	22
46	8
49	10
50	9
51	49
52	30
53	74
54	39
55	620
56	120
57	460
58	800
59	84
60	40
61	20
62	14
63	5
64	6
65	14
66	20
67	68
68	34
69	350
70	280
71	180
72	120
73	39
74	27
75	5
76	7
77	15
78	14
79	16
80	8
81	47
82	55
83	230
84	100
85	33
86	34
87	8
88	9
89	5
90	6
91	5
92	3
93	6
94	7
95	72
96	34
97	17
98	50
99	41
100	100
101	20
102	34
103	14
104	30
105	32
107	4
108	9
109	110
110	23
111	11
112	81
113	27
114	10
115	14
116	20
117	27
118	420
119	45
120	20
121	6
123	24
124	110
125	42
126	67
127	15
128	5
129	4
130	8
131	15
132	45
133	11
135	4
137	3
138	3
139	4
140	11
141	4
142	10
143	11
144	14
145	6
146	3
148	3
149	13
152	6
153	5
154	2
156	5
158	19
159	30
160	2
162	11
163	2
164	6
165	10
166	2
167	3
168	21
169	10
170	4
171	2
172	31
173	7
174	3
186	11
201	620
202	76
203	32
204	3
