Mass Spectrum: Metconazole
Formula: C17H22ClN3O
CAS: 125116-23-6
Molecular weight: 319
m/z	intensity
40	6
41	115
42	17
43	128
44	71
45	26
46	4
47	1
49	4
50	18
51	46
52	5
53	34
54	10
55	173
56	94
57	31
58	15
59	9
60	2
61	7
62	22
63	56
64	16
65	56
66	10
67	37
68	10
69	161
70	513
71	58
72	8
73	10
74	13
75	28
76	14
77	68
78	20
79	45
81	47
82	204
83	442
84	50
85	27
86	202
87	19
88	3
89	146
90	40
91	191
92	74
93	42
94	20
95	54
96	17
97	110
98	23
99	46
100	4
101	32
102	32
103	42
104	7
105	15
106	6
107	94
108	20
109	35
110	37
111	31
112	36
113	15
114	15
115	199
116	78
117	128
118	15
119	3
120	5
121	4
122	8
123	9
124	19
125	999
126	103
127	268
128	85
129	119
130	32
131	26
132	7
133	6
134	4
135	4
136	10
137	16
138	299
139	97
140	27
141	201
142	33
143	16
144	20
145	131
146	15
147	15
148	5
149	19
150	18
151	80
152	77
153	199
154	34
155	27
156	6
157	10
158	12
159	45
160	6
161	2
162	16
163	66
164	42
165	76
166	32
167	56
168	19
169	16
170	6
171	3
172	2
173	1
175	24
176	68
177	39
178	25
179	87
180	83
181	88
182	59
183	20
184	8
185	2
186	1
187	2
188	3
189	18
190	8
191	20
192	37
193	51
194	115
195	41
196	32
197	29
198	5
199	3
200	1
203	8
204	5
205	6
206	16
207	57
208	13
209	42
210	7
211	10
212	1
213	1
214	1
215	37
216	6
217	41
218	8
219	45
220	8
221	30
222	13
223	8
224	3
230	4
231	4
232	52
233	11
234	17
235	47
236	14
237	35
238	10
239	8
240	2
242	1
244	2
245	2
246	1
248	44
249	26
250	149
251	31
252	44
253	11
255	1
258	1
262	33
263	6
264	10
265	4
266	1
267	2
269	1
276	1
281	7
282	2
283	1
284	1
286	6
287	2
288	2
301	23
302	5
303	7
304	3
319	41
320	7
321	14
322	4
