Mass Spectrum: Butanedioic acid, mono(3,3,4,4,5,5,6,6,7,7,8,8,9,9,10,10,11,11,12,12,12-henicosafluorododecyl) ester
Formula: C16H9F21O4
CAS: 125111-33-3
Molecular weight: 664
m/z	intensity
38	6
42	48
43	25
45	308
46	15
48	7
49	17
50	11
52	7
55	146
56	56
57	17
58	8
59	12
63	9
64	27
65	26
66	7
69	389
71	12
73	299
74	47
76	14
77	183
78	41
79	14
81	20
82	14
83	28
84	17
89	17
91	7
93	32
94	5
95	80
99	29
100	199
101	999
102	52
103	16
105	10
106	12
109	12
111	16
112	13
113	29
119	405
120	11
121	12
123	9
126	9
127	25
131	397
132	21
133	15
140	11
143	26
145	31
147	7
148	6
150	18
151	13
157	14
159	15
161	10
162	30
163	13
164	5
165	9
167	5
169	409
170	19
172	8
175	18
177	33
179	11
181	109
182	5
185	9
189	6
192	11
193	13
194	6
195	22
199	5
200	7
207	23
210	6
213	9
216	6
219	120
221	8
225	9
226	12
227	16
228	5
231	62
232	2
239	7
240	5
243	18
244	5
246	10
251	9
252	9
253	6
255	12
257	16
263	6
269	37
273	8
276	10
277	12
280	6
281	25
289	10
292	7
293	9
296	7
300	6
304	10
306	8
312	7
313	10
316	6
319	27
325	13
327	18
328	10
330	5
331	26
332	5
335	5
343	5
344	11
345	13
349	5
356	5
362	6
366	9
369	17
377	10
381	30
388	14
389	7
398	5
405	5
409	15
410	5
413	57
414	11
424	9
427	13
431	12
433	7
434	5
437	5
445	12
446	7
449	6
450	10
454	7
456	10
457	28
458	7
463	42
470	7
475	6
477	98
478	7
481	40
482	10
488	10
490	5
495	26
498	6
499	6
503	5
504	5
505	23
514	8
515	7
527	176
528	26
539	6
544	16
547	7
550	6
561	23
563	29
577	6
584	5
585	8
586	5
591	8
592	6
598	7
599	8
600	5
603	5
620	24
621	5
627	7
639	6
640	7
643	7
644	6
645	28
646	163
647	104
648	13
652	5
664	21
665	11
666	3
