Mass Spectrum: Acetic acid, 5-bromo-3-methylpenthyl ester
Formula: C8H15BrO2
CAS: 125161-79-7
Molecular weight: 222
m/z	intensity
37	1
38	2
39	105
40	21
41	209
42	59
43	999
44	27
45	4
49	0
50	5
51	9
52	4
53	37
54	11
55	469
56	58
57	7
58	4
59	0
61	76
62	1
65	4
67	106
68	10
69	101
70	9
71	5
73	28
74	2
75	0
77	1
79	6
80	3
81	24
82	38
83	379
84	25
85	6
87	19
88	2
89	0
91	0
93	6
95	6
96	0
97	0
98	0
99	2
100	0
101	3
102	0
105	0
106	1
107	15
108	1
109	14
110	0
113	1
114	0
115	3
116	0
117	0
119	2
120	0
121	3
122	0
123	1
124	0
125	2
126	0
133	1
134	3
135	3
136	4
137	1
138	0
139	0
142	0
143	0
147	1
149	2
150	0
151	1
162	81
163	5
164	79
165	6
166	0
167	0
168	0
177	0
178	0
179	0
180	0
181	0
207	1
209	1
