Mass Spectrum: 4-Hexenoic acid, 2-acetyl-2-methyl-, ethyl ester, (E)-
Formula: C11H18O3
CAS: 125163-78-2
Molecular weight: 198
m/z	intensity
25	2
26	23
27	235
28	42
29	380
30	10
31	10
37	1
38	6
39	150
40	23
41	208
42	64
43	999
44	30
45	35
46	1
47	1
50	8
51	20
52	11
53	92
54	26
55	236
56	34
57	46
58	13
59	30
60	1
61	4
62	1
63	4
65	22
66	12
67	107
68	16
69	58
70	56
71	58
72	6
73	9
74	62
75	4
76	1
77	22
78	3
79	63
80	11
81	131
82	78
83	73
84	5
85	13
86	17
87	225
88	12
89	1
90	0
91	9
92	2
93	5
95	72
96	7
97	38
98	49
99	67
100	5
101	5
102	81
103	3
104	0
105	1
106	1
107	15
109	398
110	51
111	144
112	11
113	29
114	4
115	65
116	6
117	0
119	0
121	1
123	14
124	18
125	118
126	13
127	199
128	68
129	7
130	1
134	0
135	3
137	6
138	1
139	2
140	1
141	10
142	1
144	13
145	1
152	28
153	55
155	494
156	98
157	8
158	2
169	0
180	3
181	1
198	5
199	2
