Mass Spectrum: 1-Bromo-1-trifluoromethyl-2,2,3,3,4,4,5,5-octafluorocyclopentane
Formula: C6BrF11
CAS: 125112-68-7
Molecular weight: 360
m/z	intensity
50	51
51	4
69	999
70	10
74	69
75	31
81	45
86	13
91	2
93	340
94	6
95	2
100	385
101	10
105	28
106	2
112	112
113	5
117	14
119	17
124	93
125	5
131	387
132	15
143	153
150	5
155	40
169	11
181	236
182	9
190	7
191	322
192	4
193	316
194	12
212	118
213	8
241	118
242	6
243	173
253	43
255	45
262	20
269	2
272	57
273	1
274	48
293	7
308	4
360	26
361	3
362	23
363	3
