Mass Spectrum: 1,7-Hexadecadiene
Formula: C16H30
CAS: 125110-62-5
Molecular weight: 222
m/z	intensity
27	63
29	122
39	141
40	28
41	602
42	69
43	281
44	7
51	15
52	11
53	120
54	533
55	729
56	128
57	205
58	10
65	51
66	64
67	965
68	617
69	475
70	98
71	54
77	50
78	14
79	173
80	89
81	977
82	999
83	381
84	48
85	23
91	29
93	43
94	39
95	668
96	856
97	264
98	27
107	14
108	16
109	342
110	198
111	72
112	17
121	7
122	10
123	115
124	86
125	18
137	60
138	58
151	20
152	23
165	8
166	33
180	13
193	12
194	102
195	16
222	37
223	6
