Mass Spectrum: 3-Hydroxy-4,4-dimethyl-3-(1-methyl-3-oxobut-1-enyl)cycloheptanone
Formula: C14H22O3
CAS: 125257-74-1
Molecular weight: 238
m/z	intensity
26	2
27	25
28	62
29	34
30	1
31	4
36	0
37	0
38	2
39	52
40	20
41	165
42	17
43	490
44	24
45	10
50	1
51	5
52	2
53	21
54	6
55	47
56	31
57	27
58	26
59	12
60	2
61	0
62	0
63	2
64	0
65	19
66	23
67	41
68	13
69	396
70	31
71	104
72	8
73	2
74	0
75	0
76	0
77	13
78	2
79	14
80	3
81	20
82	9
83	30
84	11
85	37
86	6
87	0
88	1
89	1
91	14
92	2
93	18
94	53
95	28
96	4
97	21
98	2
99	1
100	0
101	1
103	1
104	2
105	6
106	1
107	14
108	6
109	379
110	67
111	125
112	999
113	74
114	6
115	2
116	0
117	1
118	0
119	4
120	1
121	8
122	3
123	5
124	2
125	6
126	2
127	132
128	62
129	5
130	0
131	0
132	0
133	1
134	1
135	6
136	6
137	6
138	2
139	8
140	1
141	2
142	1
143	0
144	1
145	1
146	0
147	3
148	0
149	8
150	1
151	2
152	2
153	27
154	19
155	3
156	0
157	0
159	1
160	0
161	0
162	1
163	5
164	0
165	3
166	0
167	5
168	1
169	1
170	0
173	0
174	0
175	0
176	0
177	3
178	1
179	1
180	1
181	3
182	0
183	0
184	0
187	1
188	0
191	0
192	0
193	0
194	0
195	1
196	0
197	0
201	0
202	0
203	0
204	0
205	5
206	0
207	0
219	0
220	2
221	3
222	1
223	2
224	0
237	2
238	7
239	2
240	0
