Mass Spectrum: N-Methyl-2,3,4,5-tetrakis(trifluoromethyl)pyrrole
Formula: C9H3F12N
CAS: 125213-00-5
Molecular weight: 353
m/z	intensity
33	65
34	18
36	5
37	5
38	22
39	49
40	154
41	73
42	252
43	129
44	999
45	79
46	12
47	13
48	16
50	85
51	74
52	20
53	11
54	5
55	26
56	26
57	28
58	25
59	33
60	29
61	4
62	12
63	19
64	43
65	13
66	10
67	14
69	546
70	16
71	7
72	3
74	27
75	30
76	28
77	51
78	17
79	12
80	5
81	10
82	11
83	13
84	9
85	4
86	5
87	3
88	7
89	4
90	19
91	19
92	31
93	50
94	11
95	11
96	13
97	9
98	17
99	17
100	27
101	9
102	8
103	11
104	3
105	20
106	8
107	2
108	6
109	9
110	30
111	8
112	43
113	12
114	4
115	10
116	5
117	48
118	6
119	35
120	7
121	1
124	33
125	7
126	20
127	15
128	2
131	23
132	1
134	3
135	1
136	24
137	6
138	2
139	1
140	11
141	17
142	1
143	18
144	7
145	4
146	27
148	3
149	5
150	8
151	3
155	81
156	3
157	3
162	14
163	1
164	6
167	16
168	5
169	23
174	7
180	1
181	5
182	2
183	1
187	4
189	3
191	4
193	5
194	2
196	55
197	4
199	3
200	48
201	2
205	10
211	5
214	16
215	13
216	1
217	1
219	8
224	15
226	1
231	1
232	9
234	9
235	1
243	13
244	1
246	13
250	110
251	7
253	4
255	3
263	1
264	42
265	4
266	7
269	16
282	8
284	175
285	21
300	57
301	7
303	69
304	6
312	2
319	10
334	423
335	40
352	14
353	280
354	26
