Mass Spectrum: Methanamine, N-[2-(1-(4-methoxyphenyl)-5-tetrazolyl]ethenyl]-N-methyl-
Formula: C12H15N5O
CAS: 125269-40-1
Molecular weight: 245
m/z	intensity
35	0
36	0
37	12
38	50
39	159
40	39
41	133
42	901
43	108
44	55
45	4
46	1
48	3
50	52
51	104
52	146
53	73
54	119
55	145
56	107
57	255
58	22
59	2
60	2
61	5
62	24
63	116
64	157
65	62
66	80
67	52
68	60
69	62
70	82
71	10
72	0
73	4
74	10
75	13
76	31
77	139
78	154
79	41
80	136
81	59
82	98
83	999
84	72
85	5
86	3
87	5
88	3
89	8
90	41
91	54
92	113
93	43
94	18
95	109
96	53
97	5
98	1
99	1
100	1
101	4
102	9
103	17
104	11
105	17
106	107
107	61
108	21
109	20
110	14
111	3
113	0
114	1
115	2
116	5
117	8
118	11
119	9
120	39
121	222
122	23
123	9
124	1
125	0
127	1
128	1
129	3
130	5
131	11
132	40
133	38
134	52
135	16
136	11
137	1
141	0
142	2
143	4
144	7
145	9
146	13
147	54
148	22
149	7
150	1
155	1
156	5
157	7
158	19
159	27
160	18
161	13
162	9
163	1
170	11
171	22
172	17
173	10
174	12
175	31
176	5
177	3
184	5
185	7
186	19
187	71
188	13
189	11
190	1
191	0
200	14
201	15
202	108
203	24
204	2
207	1
214	2
215	5
216	104
217	124
218	16
219	0
243	0
245	134
246	18
247	1
