Mass Spectrum: Acetamide, 2-amino-N-phenyl-2-thioxo-
Formula: C8H8N2OS
CAS: 125244-74-8
Molecular weight: 180
m/z	intensity
33	61
34	16
35	1
37	61
38	123
39	301
40	80
41	100
42	24
43	85
44	51
45	33
46	3
50	109
51	196
52	66
53	22
54	22
55	45
56	17
57	59
60	999
61	588
62	84
63	136
64	199
65	248
66	133
67	24
68	5
69	38
70	20
71	24
73	15
74	13
75	27
77	296
78	27
79	6
80	4
81	17
82	10
83	13
84	8
85	7
86	1
87	3
88	1
90	19
91	92
92	167
93	206
94	17
95	9
96	17
97	12
98	3
99	1
104	8
105	6
106	2
109	3
110	7
111	4
112	3
113	3
119	160
120	87
121	20
122	1
124	4
128	15
130	1
135	3
136	7
137	5
138	2
147	0
149	27
150	0
152	0
153	6
160	5
167	6
179	13
180	286
181	24
182	12
