Mass Spectrum: Butanedioic acid, 2,3-dihydroxy-, bis[5-methyl-2-(1-methyl-1-phenylethyl)cyclohexyl] ester, [1R-[1.alpha.[2S*,3S*,4(1R*,2S*,5R*)] ,2.beta.,5.alpha.]]-
Formula: C36H50O6
CAS: 125276-96-2
Molecular weight: 578
m/z	intensity
27	13
29	13
39	22
41	82
42	7
43	13
51	13
53	16
54	7
55	55
60	5
63	5
65	12
67	16
68	5
69	21
77	35
78	13
79	38
81	28
83	21
89	190
90	15
91	7
92	9
94	44
95	12
96	7
103	22
104	10
105	222
106	19
107	5
109	11
115	23
116	8
117	29
118	178
119	999
120	100
121	8
122	4
123	7
124	21
125	41
126	8
128	29
129	32
130	8
135	4
141	13
142	10
143	86
145	14
146	11
150	8
151	7
155	6
157	24
158	6
159	10
171	11
199	99
200	15
213	10
214	146
215	125
216	18
245	9
247	4
364	2
365	8
366	1
459	1
