Mass Spectrum: IPCONAZOLE
Formula: C18H24ClN3O
CAS: 125225-28-7
Molecular weight: 333
m/z	intensity
41	164
42	15
43	148
45	6
50	5
51	15
52	11
53	30
54	9
55	199
56	78
57	29
58	4
59	8
62	4
63	15
64	4
65	22
66	8
67	39
68	6
69	133
70	532
71	36
73	5
74	6
75	12
76	6
77	55
78	10
79	44
80	11
81	42
82	260
83	726
84	52
85	63
86	8
87	7
88	3
89	75
90	29
91	64
92	5
93	37
94	5
95	82
96	17
97	39
98	21
99	38
100	16
101	21
102	14
103	33
105	16
106	4
107	23
108	12
109	14
110	23
111	33
112	18
113	25
114	6
115	107
116	58
117	81
118	10
119	6
120	7
121	86
122	12
123	15
124	12
125	999
126	101
127	326
128	61
129	227
130	39
131	19
132	5
136	8
137	14
138	165
139	140
140	29
141	76
142	20
143	7
144	8
145	58
146	9
147	6
148	4
149	8
150	11
151	74
152	94
153	74
154	21
155	16
156	5
157	4
158	7
159	11
162	7
163	25
164	125
165	54
166	75
167	137
168	32
169	18
170	3
171	3
175	14
176	6
177	35
178	13
179	59
180	94
181	32
182	31
183	9
184	8
189	5
190	44
191	17
192	12
193	11
194	16
195	36
196	12
197	9
202	4
203	42
204	23
205	19
206	13
208	26
209	7
211	13
217	3
220	3
221	32
222	20
223	29
224	8
225	12
229	17
230	5
231	12
232	5
233	20
234	5
235	4
246	23
247	6
248	38
249	120
250	31
251	86
252	15
253	21
254	3
262	31
263	3
264	49
265	7
266	11
267	3
269	25
271	3
272	41
273	7
274	13
290	5
315	19
316	5
317	6
318	19
320	8
323	5
333	62
334	15
335	25
336	5
