Mass Spectrum: 3-Amino-3-tetrahydrofurancarboxylic acid
Formula: C5H9NO3
CAS: 125218-55-5
Molecular weight: 131
m/z	intensity
42	368
44	134
45	220
46	23
47	4
49	19
51	17
52	39
54	370
55	999
56	362
58	243
59	6
60	3
61	1
62	0
63	2
64	0
65	3
66	1
68	24
69	20
70	26
72	29
73	24
74	6
75	0
77	2
78	2
79	1
83	221
84	22
86	336
87	19
88	2
89	1
91	5
92	1
95	1
96	11
97	2
98	0
99	2
100	21
101	306
102	16
103	2
113	1
114	6
115	0
116	0
130	5
131	12
132	0
