Mass Spectrum: Borane, diethyl[1-[(trimethylsilyl)methylene]propyl]-, (Z)-
Formula: C11H25BSi
CAS: 125236-50-2
Molecular weight: 196
m/z	intensity
24	3
26	24
27	97
28	55
29	23
31	38
36	6
37	27
38	16
39	65
40	120
41	400
42	10
43	94
44	30
45	204
46	13
47	7
49	5
50	8
51	19
52	11
53	36
54	9
55	28
56	7
57	20
58	27
59	417
60	32
61	17
62	3
63	4
64	6
65	19
66	8
67	16
68	49
69	168
70	8
71	18
72	15
73	999
74	78
75	37
77	2
78	4
79	15
80	7
81	11
82	5
83	48
84	8
85	92
86	22
87	678
88	63
89	22
91	6
92	9
93	33
94	22
95	21
96	10
97	64
98	12
99	38
100	16
101	155
102	16
103	6
107	4
108	6
109	15
110	7
111	167
112	41
113	96
114	11
115	6
121	11
122	45
123	22
124	17
125	168
126	76
127	23
128	15
129	27
130	4
136	2
137	6
138	23
139	116
140	28
141	14
142	4
149	7
150	5
151	5
152	5
153	16
154	4
155	4
156	14
157	4
166	32
167	151
168	107
169	20
170	4
177	2
178	6
179	2
180	8
181	33
182	9
183	8
195	5
196	7
197	3
