Mass Spectrum: 1-Butene, 2-diethylboryl-1-phenyl-1-trimethylsilyl-
Formula: C17H29BSi
CAS: 125212-51-3
Molecular weight: 272
m/z	intensity
26	15
27	57
28	3
29	9
31	10
37	6
38	5
39	23
40	61
41	230
42	5
43	54
44	16
45	119
46	8
47	3
50	4
51	11
52	4
53	13
54	8
55	31
57	9
58	15
59	151
60	12
61	11
63	5
64	2
65	7
66	2
67	7
68	22
69	75
70	4
71	5
72	8
73	999
74	78
75	34
76	3
77	7
78	2
79	4
81	8
83	10
85	8
86	4
87	261
88	31
89	37
90	2
91	11
92	4
93	9
95	3
97	5
99	4
100	4
101	35
102	9
103	20
105	15
107	9
109	3
111	32
112	12
113	38
114	8
115	11
116	22
117	83
118	7
119	4
121	23
122	5
125	39
126	10
127	11
128	23
129	24
130	6
131	8
133	2
135	251
136	33
137	12
138	2
139	7
140	21
141	55
142	23
143	13
144	3
145	17
146	2
147	4
149	150
150	24
151	8
155	5
156	4
157	7
158	9
159	27
160	5
161	2
163	4
168	3
169	19
170	57
171	18
172	4
173	18
174	4
185	4
187	4
188	3
197	4
198	17
199	18
200	2
201	2
202	6
213	4
215	4
217	3
242	50
243	218
244	47
245	12
256	3
257	15
258	3
271	24
272	112
273	24
274	6
