Mass Spectrum: Silane, chlorodimethyl(1-methyl-1-butenyl)-, (E)-
Formula: C7H15ClSi
CAS: 125212-73-9
Molecular weight: 162
m/z	intensity
26	4
27	63
29	24
30	1
31	13
37	1
38	4
39	77
40	8
41	130
42	10
43	56
44	9
45	13
50	4
51	10
52	5
53	36
54	6
55	15
56	1
57	2
58	15
59	43
60	2
61	1
62	1
63	117
64	12
65	126
66	11
67	54
68	485
69	68
70	3
71	5
72	3
73	25
74	2
75	0
77	7
78	31
79	112
80	16
81	39
82	2
83	19
84	2
85	5
86	2
87	7
89	5
90	2
91	5
92	15
93	999
94	69
95	327
96	22
97	11
98	5
99	3
103	12
104	2
105	23
106	5
107	68
108	7
109	25
110	3
111	54
112	6
113	2
115	1
117	6
118	2
119	62
120	7
121	19
122	1
126	3
127	18
128	2
129	1
131	3
133	1
147	57
148	6
149	18
150	2
162	47
163	4
164	17
165	1
