Mass Spectrum: 4,8-Decadienoic acid, 2-acetyl-2,5,9-trimethyl-, ethyl ester, (E)-
Formula: C17H28O3
CAS: 125284-17-5
Molecular weight: 280
m/z	intensity
25	0
26	8
27	128
28	36
29	272
30	7
31	11
37	0
38	2
39	110
40	25
41	684
42	43
43	999
44	30
45	24
46	1
47	1
50	2
51	14
52	7
53	92
54	22
55	140
56	22
57	36
58	2
59	14
60	0
61	7
62	0
63	2
64	1
65	26
66	9
67	124
68	26
69	465
70	52
71	11
72	2
73	7
74	10
75	1
77	54
78	9
79	73
80	22
81	69
82	41
83	29
84	2
85	13
86	2
87	16
88	1
89	3
91	50
92	18
93	155
94	26
95	160
96	24
97	17
98	47
99	26
100	3
101	4
102	13
103	4
104	1
105	27
106	7
107	146
108	34
109	61
110	7
111	12
112	4
113	12
114	1
115	10
116	6
117	6
118	1
119	45
120	14
121	298
122	48
123	233
124	31
125	23
126	3
127	4
128	19
129	3
130	1
131	2
132	1
133	11
134	17
135	60
136	191
137	153
138	17
139	10
140	3
141	10
142	2
143	3
144	49
145	18
146	18
147	22
148	6
149	8
150	2
151	10
152	2
153	11
154	2
155	3
156	1
157	0
158	1
159	2
160	1
161	4
162	1
163	11
164	2
165	13
166	3
167	5
168	1
169	11
170	3
171	4
172	0
173	8
174	1
175	3
176	1
177	3
178	1
179	8
180	1
181	3
182	0
183	0
187	1
188	6
189	36
190	6
191	9
192	2
193	11
194	3
195	1
196	0
197	0
198	0
199	1
200	0
201	1
202	0
203	0
205	0
206	1
207	1
208	0
209	0
210	0
211	10
212	1
216	1
217	1
219	10
220	1
221	0
233	0
234	0
235	7
236	1
237	4
238	2
239	0
247	1
262	16
263	3
264	0
265	0
280	9
281	1
