Mass Spectrum: 1,2,3,4,5,6,7,8-Octahydro-2-naphthol, 4-methylene-2,5,5-trimethyl-
Formula: C14H22O
CAS: 125257-67-2
Molecular weight: 206
m/z	intensity
26	1
27	39
28	8
29	43
30	1
31	3
38	2
39	72
40	13
41	163
42	11
43	999
44	15
45	12
46	0
50	5
51	31
52	17
53	59
54	8
55	87
56	10
57	18
58	25
59	10
60	1
61	0
62	2
63	16
64	13
65	48
66	13
67	43
68	7
69	127
70	11
71	13
72	2
73	3
74	12
75	4
76	5
77	95
78	30
79	91
80	17
81	68
82	12
83	22
84	3
85	9
86	4
87	3
88	14
89	6
90	3
91	158
92	67
93	119
94	20
95	85
96	14
97	7
98	2
99	2
100	1
101	1
102	4
103	19
104	11
105	126
106	41
107	338
108	49
109	37
110	7
111	6
112	2
113	1
114	1
115	34
116	17
117	48
118	22
119	78
120	44
121	100
122	27
123	37
124	9
125	10
126	3
127	8
128	22
129	23
130	11
131	60
132	57
133	414
134	54
135	68
136	19
137	12
138	4
139	2
140	1
141	9
142	7
143	11
144	10
145	69
146	29
147	62
148	89
149	118
150	46
151	12
152	2
153	2
154	1
155	2
156	3
157	8
158	11
159	82
160	44
161	15
162	5
163	113
164	23
165	4
166	1
167	0
168	0
169	0
170	0
171	3
172	7
173	354
174	53
175	10
176	3
177	6
178	3
179	5
180	1
181	0
186	1
187	4
188	389
189	65
190	8
191	116
192	24
193	2
194	3
195	1
205	0
206	233
207	39
208	4
