Mass Spectrum: Ethenamine, 2-[1-(4-ethylphenyl)-5-tetrazolyl]-N,N-dimethyl-
Formula: C13H17N5
CAS: 125269-39-8
Molecular weight: 243
m/z	intensity
33	9
34	2
37	4
38	14
39	145
40	60
41	109
42	590
43	73
44	60
45	6
46	2
50	28
51	64
52	41
53	47
54	72
55	89
56	85
57	194
58	18
59	6
60	2
62	14
63	42
64	27
65	59
66	43
67	38
68	55
69	56
70	84
71	13
72	3
73	2
74	6
75	10
76	21
77	136
78	62
79	77
80	26
81	50
83	999
84	68
85	7
87	5
89	49
90	42
91	138
92	33
93	17
94	14
95	97
96	84
97	57
98	6
100	12
101	9
102	17
103	45
104	92
105	76
106	26
107	7
108	6
109	15
110	32
111	3
113	1
114	3
115	12
116	38
117	31
118	100
119	89
120	36
121	9
122	2
123	2
124	1
127	3
128	11
129	11
130	57
131	42
132	53
133	14
134	26
135	4
136	0
141	1
142	7
143	14
144	25
145	57
146	30
147	11
148	5
149	2
154	0
155	10
156	18
157	34
158	22
159	29
160	10
161	3
163	1
168	0
169	8
170	52
171	92
172	38
173	49
174	9
175	6
182	3
183	11
184	40
185	54
186	87
187	42
188	5
191	1
196	0
197	3
198	13
199	17
200	153
201	60
202	6
206	4
212	6
214	166
215	168
216	23
217	1
229	53
230	6
241	2
243	265
244	42
245	2
