Mass Spectrum: 2-Isobutylideneamino-3-methylbutyronitrile
Formula: C9H16N2
CAS: 125213-17-4
Molecular weight: 152
m/z	intensity
26	11
27	157
28	71
30	11
31	1
37	4
38	12
39	159
40	38
41	283
42	44
43	274
44	10
45	1
50	2
51	9
52	14
53	48
54	91
55	809
56	460
57	26
58	4
59	13
62	1
63	1
64	8
65	6
66	52
67	44
68	210
69	21
70	61
71	12
72	9
73	0
75	1
76	1
77	4
78	2
79	3
80	13
81	39
82	890
83	731
84	56
85	3
87	0
89	1
91	3
92	5
93	14
94	11
95	79
96	9
97	6
98	31
99	3
100	1
101	0
102	0
103	1
104	1
105	2
106	2
107	7
108	16
109	999
110	365
111	24
112	55
113	4
115	2
117	1
118	1
119	1
120	2
121	3
122	2
123	31
124	10
125	15
126	10
127	2
128	0
129	0
131	0
132	0
133	1
134	1
135	2
136	3
137	86
138	7
140	1
141	3
142	1
149	1
150	1
151	8
152	21
153	9
