Mass Spectrum: 1-Butene, 1-cyclohexyl-2-diethylboryl-1-trimethylsilyl-, (E)-
Formula: C17H35BSi
CAS: 125212-52-4
Molecular weight: 278
m/z	intensity
26	14
27	56
29	31
31	14
36	2
37	12
38	8
39	37
40	70
41	309
42	9
43	39
44	15
45	144
46	7
47	5
50	7
51	20
52	11
53	44
54	17
55	99
56	10
57	26
58	17
59	255
60	16
61	11
62	3
63	11
64	11
65	39
66	16
67	53
68	47
69	157
70	8
71	17
72	13
73	999
74	113
75	51
76	6
77	19
78	12
79	45
80	25
81	60
82	12
83	72
84	8
85	29
86	6
87	160
88	16
89	17
90	6
91	31
92	35
93	75
94	44
95	52
96	10
97	28
98	6
99	25
100	5
101	67
102	10
103	16
104	10
105	43
106	38
107	66
108	17
109	26
110	5
111	52
112	13
113	15
114	3
115	5
116	6
117	24
118	18
119	106
120	71
121	71
122	84
123	128
124	10
125	19
126	4
127	5
128	5
129	16
130	4
131	10
132	15
133	103
134	262
135	173
136	25
137	19
138	8
139	11
140	2
141	4
143	2
144	9
145	29
146	108
147	353
148	53
149	12
150	2
151	9
152	6
153	10
154	2
157	2
158	5
159	14
160	6
161	28
162	9
163	6
164	2
165	63
166	16
167	24
168	4
169	2
172	3
173	9
174	166
175	618
176	255
177	32
178	2
179	8
180	7
181	19
182	4
183	2
189	2
191	4
193	8
194	77
195	16
196	5
197	2
203	55
204	235
205	47
206	5
207	8
208	3
209	3
210	3
211	3
221	2
225	2
237	2
248	3
249	4
255	2
262	4
263	16
264	4
277	25
278	111
279	28
280	6
