Mass Spectrum: Molybdenum, [(2,3-.eta.)-bicyclo[2.2.1]hept-2-ene]pentacarbonyl-
Formula: C12H10MoO5
CAS: 125330-24-7
Molecular weight: 332
m/z	intensity
26	20
27	94
28	999
29	13
37	9
38	22
39	157
41	60
42	6
43	5
44	3
50	16
51	35
52	12
53	29
54	6
57	5
62	10
63	16
65	65
66	863
67	48
68	4
77	71
78	12
79	85
80	10
81	12
82	11
83	4
88	4
91	33
92	29
93	17
94	96
95	31
96	33
97	19
98	48
100	21
104	2
105	5
106	5
107	7
108	8
109	15
110	12
111	8
112	4
117	5
120	11
121	10
122	11
123	21
124	17
125	12
126	16
128	6
129	5
130	14
131	11
132	19
133	23
134	32
135	27
136	42
137	18
138	15
139	6
146	5
147	6
148	12
149	8
150	9
151	14
152	11
153	6
154	15
156	14
157	15
158	32
159	23
160	40
161	49
162	49
163	37
164	41
165	11
166	13
170	36
171	4
172	25
173	42
174	43
175	29
176	57
177	4
178	20
179	4
180	7
181	1
182	31
183	12
184	60
185	46
186	95
187	80
188	134
189	63
190	125
191	19
192	58
194	13
198	34
200	23
201	41
202	44
203	25
204	64
205	5
206	26
207	10
208	7
209	7
210	12
212	45
213	6
214	39
215	55
216	68
217	54
218	92
219	16
220	47
221	5
222	9
226	13
228	9
229	20
230	16
231	11
232	26
234	15
235	6
236	7
237	4
238	12
240	9
242	67
243	14
244	46
245	76
246	89
247	44
248	112
249	10
250	35
251	4
268	1
270	52
271	10
272	34
273	56
274	66
275	36
276	78
277	6
278	28
298	26
300	18
301	32
302	32
303	22
304	43
305	6
306	18
326	44
327	5
328	28
329	50
330	54
331	36
332	75
333	11
334	26
