Mass Spectrum: (R,S)-2-Butanol, (3R)-3-[(benzyloxycarbonyl)amino]-
Formula: C12H17NO3
CAS: 125342-45-2
Molecular weight: 223
m/z	intensity
26	1
27	17
28	12
29	11
30	4
31	5
37	0
38	2
39	31
40	6
41	16
42	12
43	13
44	76
45	57
46	2
50	5
51	20
52	6
53	2
54	0
55	16
56	8
57	7
58	2
59	1
60	0
61	1
62	2
63	12
64	4
65	80
66	4
67	0
68	0
69	2
70	3
71	3
72	2
73	4
74	1
75	1
76	1
77	20
78	4
79	24
80	1
81	0
82	0
83	2
84	0
85	1
86	2
87	1
88	251
89	28
90	14
91	999
92	86
93	4
94	0
95	0
96	0
97	1
98	2
99	0
100	1
102	0
104	0
105	4
106	0
107	25
108	27
109	2
110	0
111	0
112	0
113	0
114	0
115	0
116	1
117	0
118	8
119	1
120	0
123	0
125	0
126	0
127	0
130	1
132	6
133	1
134	122
135	12
136	0
137	0
139	0
140	0
141	0
146	0
148	0
149	0
152	0
155	0
164	1
167	0
168	0
169	0
177	0
178	78
179	57
180	6
181	0
182	0
191	0
192	0
193	0
206	0
207	0
208	0
209	0
223	5
224	1
