Mass Spectrum: 5-Isoxazolamine, N,N-diethyl-3-(4-nitrophenyl)-4-phenyl-
Formula: C19H19N3O3
CAS: 125379-72-8
Molecular weight: 337
m/z	intensity
26	19
27	312
28	20
29	999
30	183
37	9
38	18
39	106
41	19
42	160
43	9
44	151
46	22
50	111
51	89
52	26
53	5
54	12
55	5
56	120
57	13
58	26
61	6
62	69
63	169
64	38
65	14
66	1
70	25
71	5
72	264
73	12
74	27
75	70
76	109
77	251
78	22
79	3
86	13
87	31
88	78
89	667
90	195
91	46
92	36
93	4
96	4
98	4
99	7
100	62
101	11
102	37
103	71
104	160
105	177
106	16
110	4
111	5
113	7
114	28
115	65
116	40
117	70
118	187
119	23
120	35
122	4
124	3
125	5
126	13
127	20
128	12
129	5
130	18
131	36
132	19
133	5
134	7
137	9
138	22
139	19
140	14
141	4
143	6
144	11
145	13
146	34
147	8
148	3
149	244
150	584
151	72
152	28
153	14
154	4
157	3
158	26
159	16
160	17
161	16
162	15
163	99
164	68
165	84
166	10
167	3
172	14
173	42
174	26
175	17
176	97
177	674
178	113
179	39
180	12
181	3
187	13
188	27
189	86
190	259
191	203
192	99
193	44
194	6
200	9
201	19
202	11
203	16
204	12
205	82
206	25
207	46
208	21
209	4
216	6
217	5
218	16
219	71
220	39
221	20
222	7
223	24
224	7
230	2
232	5
233	10
234	15
235	11
236	6
237	284
238	129
239	24
240	5
245	3
246	20
247	19
248	8
249	14
250	4
251	8
260	5
261	9
262	14
263	14
264	6
265	428
266	91
267	16
276	9
277	4
279	7
280	11
281	4
290	6
291	27
292	11
293	5
294	11
295	5
306	4
307	5
308	29
309	11
320	8
321	16
322	73
323	14
336	40
337	988
338	184
339	23
