Mass Spectrum: Terbutaline, 3TMS derivative
Formula: C21H43NO3Si3
CAS: 125319-35-9
Molecular weight: 441
m/z	intensity
55	4
56	4
57	104
58	4
59	4
70	13
72	4
73	549
75	57
76	57
86	999
87	8
91	5
117	4
119	6
131	5
133	26
134	5
135	5
147	35
148	5
149	5
178	5
179	5
191	4
193	4
207	4
237	6
239	6
249	6
251	15
252	6
253	5
265	14
266	14
268	6
269	6
279	6
280	27
281	14
282	6
293	5
296	5
325	6
336	26
338	6
339	5
340	14
341	5
353	5
355	83
356	695
357	235
358	105
359	26
360	5
370	5
426	27
427	6
