Mass Spectrum: 1-Propanone, 1-(2-methylphenyl)-3-(1-piperidyl)-
Formula: C15H21NO
CAS: 125476-98-4
Molecular weight: 231
m/z	intensity
26	5
27	33
28	35
29	30
30	28
31	0
39	42
40	6
41	71
42	73
43	31
44	47
45	3
49	1
50	9
51	19
52	5
53	8
54	14
55	83
56	67
57	49
58	3
59	1
60	2
61	2
62	7
63	25
64	9
65	85
66	6
67	8
68	11
69	40
70	33
71	7
72	1
73	2
74	3
75	3
76	4
77	12
78	4
79	4
80	3
81	5
82	9
83	13
84	131
85	70
86	8
87	2
88	1
89	22
90	15
91	216
92	18
93	3
94	2
95	4
96	45
97	233
98	999
99	73
100	2
101	1
102	2
103	12
104	5
105	8
106	1
107	1
108	1
109	2
110	12
111	7
112	93
113	9
114	1
115	15
116	7
117	21
118	6
119	131
120	13
121	1
122	1
123	1
124	1
125	2
126	1
127	15
128	7
129	7
130	1
131	66
132	8
133	3
134	2
135	1
136	0
137	1
138	1
139	0
140	2
141	2
142	0
143	0
144	2
145	60
146	121
147	18
148	1
202	1
203	0
214	2
215	0
216	1
229	1
230	8
231	41
232	7
233	0
