Mass Spectrum: Propanoic acid, 3-(acetyloxy)-2-(hydroxymethyl)-, ethyl ester, (+)-
Formula: C8H14O5
CAS: 125476-48-4
Molecular weight: 190
m/z	intensity
26	27
27	182
28	4
29	234
30	14
31	121
37	2
38	4
39	23
40	9
41	39
42	52
43	999
44	62
45	57
46	3
47	12
50	1
51	1
53	5
54	19
55	279
56	69
57	144
58	50
59	12
60	5
61	105
62	3
63	2
67	1
68	3
69	7
70	6
71	94
72	51
73	184
74	19
75	12
76	1
77	2
81	1
82	19
83	23
84	60
85	383
86	53
87	7
88	3
89	48
90	4
91	3
95	1
97	1
98	2
99	24
100	53
101	502
102	39
103	24
104	2
105	3
112	4
113	5
114	11
115	5
116	15
117	61
118	22
119	2
121	1
126	1
127	47
128	3
129	20
130	51
131	9
132	2
144	2
145	90
146	7
147	26
148	2
159	6
160	9
161	1
172	1
173	1
