Mass Spectrum: Cholesta-5,7,9(11)-trien-3-ol acetate
Formula: C29H44O2
CAS: 1255-91-0
Molecular weight: 424
m/z	intensity
41	194
43	999
45	62
47	6
49	11
51	12
53	34
55	175
57	111
59	55
61	19
63	3
65	17
67	44
69	77
71	52
73	7
77	31
79	34
81	54
83	40
84	6
85	19
86	3
87	4
91	39
93	33
94	2
95	46
97	29
99	10
101	3
103	9
105	32
107	27
108	4
109	23
110	7
111	13
113	7
115	20
116	4
117	17
119	16
121	20
123	20
125	14
127	12
128	14
129	14
131	18
132	2
133	14
134	2
135	17
136	4
137	10
138	3
139	5
141	11
142	8
143	17
144	6
145	18
146	3
147	17
148	3
149	9
150	3
151	6
152	7
153	9
154	5
155	14
156	4
157	17
158	6
159	12
160	3
161	12
162	4
163	7
164	2
165	18
166	7
167	11
168	3
169	12
170	2
171	11
173	15
174	6
175	11
176	6
177	8
178	8
179	10
180	4
181	10
182	5
183	12
184	5
185	14
186	5
187	13
188	3
189	11
190	2
191	8
192	4
193	11
194	6
195	15
196	8
197	16
198	8
199	10
201	9
202	5
203	7
204	4
205	7
206	4
207	10
208	7
209	15
210	5
211	11
212	6
213	12
214	5
215	10
216	5
217	4
218	5
219	6
221	7
222	5
223	10
224	4
225	16
226	4
227	12
228	5
229	8
230	3
231	4
232	2
233	6
234	2
235	8
236	3
237	8
238	4
239	8
240	4
241	8
242	4
243	5
244	4
245	3
246	3
247	6
248	2
249	8
251	6
252	3
253	5
254	2
255	5
256	3
257	5
258	3
259	4
261	4
263	5
264	2
265	5
266	2
267	5
268	2
269	4
271	3
273	4
274	2
275	2
277	3
279	4
281	4
283	3
285	3
287	2
289	3
291	2
293	2
295	3
297	3
299	3
301	2
303	2
305	2
307	2
309	3
313	2
316	2
317	2
318	2
319	2
325	2
327	2
337	2
339	2
343	2
347	2
349	4
351	2
353	2
362	2
363	2
364	8
365	4
366	2
367	3
377	2
378	0
379	1
380	3
381	1
394	2
395	3
396	1
424	2
