Mass Spectrum: 7,11-Dimethyldodeca-2,6,10-trien-1-ol
Formula: C14H24O
CAS: 125529-10-4
Molecular weight: 208
m/z	intensity
26	1
27	41
28	5
29	39
30	0
31	8
38	1
39	46
40	11
41	300
42	19
43	88
44	3
45	1
50	1
51	7
52	3
53	54
54	9
55	97
56	8
57	19
58	1
59	1
63	1
64	0
65	13
66	8
67	88
68	74
69	999
70	64
71	17
72	1
73	0
75	0
76	0
77	23
78	6
79	64
80	64
81	273
82	33
83	20
84	4
85	2
86	0
91	25
92	8
93	92
94	17
95	116
96	15
97	7
98	1
99	5
103	1
104	1
105	24
106	6
107	21
108	8
109	33
110	4
111	2
112	0
113	0
114	2
115	1
117	1
118	0
119	10
120	5
121	40
122	18
123	60
124	66
125	10
126	0
127	2
128	0
129	0
131	0
133	4
134	5
135	7
136	28
137	88
138	8
139	1
140	1
141	1
145	0
146	0
147	16
148	3
152	2
153	0
161	1
162	1
163	1
164	1
165	43
166	5
167	0
174	1
175	8
176	1
177	8
178	1
179	0
180	0
181	0
190	3
191	0
193	9
194	1
208	5
209	0
