Mass Spectrum: Cucurbitacin b, 25-desacetoxy-
Formula: C30H44O6
CAS: 125596-54-5
Molecular weight: 500
m/z	intensity
41	299
42	123
43	999
44	583
45	86
48	24
51	23
53	57
54	30
55	214
56	52
57	123
58	31
59	90
60	39
61	6
65	30
67	108
68	36
69	213
70	60
71	126
72	15
73	40
77	64
78	30
79	79
80	22
81	95
82	44
83	158
84	75
85	110
86	13
87	185
91	103
92	10
93	101
94	47
95	127
96	649
97	129
98	119
99	55
100	17
101	24
103	13
105	115
106	35
107	96
108	34
109	141
110	45
111	146
112	33
113	62
114	15
115	44
116	9
117	32
119	77
120	30
121	90
122	45
123	67
124	35
125	83
126	17
127	24
128	17
129	36
130	19
131	38
132	17
133	81
134	33
135	106
136	79
137	89
138	31
139	31
140	27
141	31
142	19
143	28
144	6
145	59
146	17
147	51
148	46
149	88
150	31
151	66
152	29
153	61
154	20
155	19
156	10
157	25
158	25
159	68
160	23
161	73
162	25
163	47
164	49
165	36
166	33
167	23
168	3
169	13
171	32
172	3
173	55
174	26
175	73
176	20
177	65
178	25
179	53
180	32
181	23
183	6
185	23
187	57
188	27
189	71
190	22
191	26
192	3
193	14
195	6
197	20
199	24
201	20
203	30
204	16
205	25
207	25
209	3
211	7
213	21
215	24
217	11
219	38
221	9
223	3
225	3
227	6
231	18
237	17
241	6
245	2
251	3
255	2
257	3
267	3
274	3
281	3
283	3
325	15
341	3
369	20
384	13
385	27
386	3
387	10
401	6
402	11
403	39
500	8
