Mass Spectrum: 1-Cyclohexen-3-one, 2-acetyl-1-hydroxy-5,5-dimethyl-
Formula: C10H14O3
CAS: 125657-71-8
Molecular weight: 182
m/z	intensity
26	8
27	132
28	10
29	111
30	2
31	9
37	2
38	10
39	134
40	16
41	169
42	38
43	741
44	16
45	2
47	0
49	0
50	5
51	22
52	12
53	40
54	15
55	112
56	35
57	24
58	2
59	2
61	0
62	3
63	5
64	0
65	8
66	20
67	27
68	4
69	141
70	134
71	11
72	0
75	0
76	14
77	15
78	3
79	6
80	2
81	6
82	11
83	207
84	204
85	81
86	4
91	4
92	1
93	4
94	2
95	5
96	3
97	11
98	999
99	49
100	15
101	0
105	1
107	2
108	1
109	4
110	0
111	53
112	6
113	6
121	5
123	2
124	2
125	20
126	926
127	58
128	6
135	1
136	2
137	1
138	0
139	14
140	5
141	0
149	5
151	2
153	3
154	44
155	5
167	289
168	29
169	3
181	1
182	453
183	48
184	4
