Mass Spectrum: Androstan-3-one, 17-(acetyloxy)-
Formula: C21H32O3
CAS: 125638-46-2
Molecular weight: 332
m/z	intensity
27	34
29	79
37	10
38	5
39	48
40	1
41	324
42	27
43	999
44	10
45	15
46	14
50	2
51	5
52	9
53	99
54	29
55	375
56	22
57	40
58	11
59	14
60	13
61	9
62	10
63	5
64	10
65	33
66	24
67	253
68	125
69	121
70	12
71	24
72	14
73	12
75	10
77	108
78	26
79	220
80	57
81	308
82	67
83	60
84	17
85	16
89	4
90	6
91	135
92	31
93	247
94	351
95	289
96	46
97	66
98	19
99	14
101	9
103	13
104	15
105	179
106	79
107	232
108	151
109	140
110	64
111	56
112	12
115	10
116	10
117	24
118	34
119	113
120	72
121	143
122	150
123	93
124	124
125	31
126	9
128	6
129	16
130	8
131	63
132	38
133	118
134	45
135	80
136	43
137	51
138	11
141	12
142	10
143	32
144	32
145	79
146	59
147	136
148	117
149	189
150	34
151	20
152	10
155	9
157	31
158	26
159	98
160	47
161	176
162	80
163	66
164	31
165	38
166	12
169	9
171	28
172	28
173	58
174	53
175	49
176	68
177	24
178	12
179	27
183	12
185	36
186	18
187	59
188	18
189	33
190	15
191	12
197	17
198	11
199	40
200	99
201	191
202	164
203	39
204	13
207	6
208	12
211	13
212	10
213	102
214	50
215	109
216	34
217	30
218	15
219	15
220	19
222	8
223	9
227	14
228	17
229	62
230	21
231	71
232	18
233	21
239	77
240	13
241	5
243	13
244	106
245	28
246	38
247	20
253	13
254	53
255	18
257	109
258	25
260	15
261	24
262	65
263	15
270	2
272	348
273	80
274	16
275	12
288	3
289	11
290	10
317	16
332	121
333	27
