Mass Spectrum: 1H-Pyrrole-3,4-dicarbonitrile
Formula: C6H3N3
CAS: 125666-25-3
Molecular weight: 117
m/z	intensity
25	5
26	7
27	12
28	192
29	4
36	18
37	73
38	82
39	55
40	26
41	148
42	8
43	8
44	8
49	6
50	12
51	41
52	41
53	7
55	6
57	11
62	104
63	275
64	56
65	27
66	85
67	4
69	6
71	7
75	5
76	8
77	12
83	4
88	13
89	73
90	174
91	12
116	5
117	999
118	128
119	6
