Mass Spectrum: Cobalt, (2-butyne)decacarbonyltetra-
Formula: C14H6Co4O10
CAS: 12564-37-3
Molecular weight: 570
m/z	intensity
28	999
59	310
118	600
149	120
172	460
177	50
200	999
228	300
248	50
256	210
284	220
290	100
312	620
318	80
340	90
346	80
374	90
402	110
430	200
458	120
486	40
514	60
542	50
570	70
