Mass Spectrum: 1,2-Bis(5-methyl-1,3-diazaadamantantydene-6)-hydrazine
Formula: C18H28N6
CAS: 125658-02-8
Molecular weight: 328
m/z	intensity
27	86
28	350
29	81
30	98
31	5
38	12
39	110
40	43
41	490
42	999
43	140
44	110
45	11
46	2
50	9
51	19
52	23
53	80
54	100
55	140
56	78
57	59
58	360
59	16
60	7
61	2
62	1
63	5
64	4
65	30
66	36
67	91
68	180
69	75
70	110
71	28
72	7
73	8
74	2
76	2
77	59
78	16
79	87
80	60
81	79
82	86
83	94
84	50
85	50
86	4
90	2
91	28
92	22
93	70
94	94
95	89
96	64
97	29
98	8
99	4
100	3
103	5
104	7
105	14
106	52
107	53
108	170
109	58
110	20
111	13
112	5
113	4
114	3
115	3
116	2
117	5
118	13
119	21
120	66
121	250
122	100
123	94
124	14
125	5
129	3
130	4
131	10
132	15
133	25
134	34
135	110
136	59
137	39
138	8
139	2
143	2
144	3
145	8
146	11
147	29
148	49
149	120
150	87
151	30
152	8
157	5
158	5
159	11
160	10
161	22
162	38
163	80
164	190
165	57
166	31
167	4
168	2
169	3
170	4
171	7
172	8
173	13
174	16
175	11
176	11
177	10
178	16
179	12
180	8
181	3
182	2
183	3
184	4
185	10
186	19
187	34
188	25
189	9
190	9
191	5
192	6
193	3
197	9
198	6
199	19
200	42
201	20
202	15
203	6
204	43
205	13
206	3
207	5
211	2
212	6
213	11
214	45
215	19
216	17
217	16
218	6
219	2
226	5
227	13
228	24
229	15
230	10
231	16
232	4
241	9
242	14
243	18
244	24
245	8
255	8
256	11
257	92
258	34
259	9
260	2
269	5
270	14
271	57
272	18
273	8
283	2
284	26
285	98
286	98
287	18
298	12
299	12
300	110
301	23
302	2
313	4
327	37
328	550
329	120
330	13
331	1
