Mass Spectrum: 5-Phenyl-1,3-diazaadamantan-6-one oxime
Formula: C14H17N3O
CAS: 125658-07-3
Molecular weight: 243
m/z	intensity
39	102
40	26
41	375
42	999
43	435
44	194
49	5
50	33
51	45
52	25
53	33
54	62
55	139
56	125
57	153
58	778
59	35
60	74
61	43
62	9
63	31
64	15
65	62
66	18
67	50
68	233
69	130
70	129
71	77
72	22
73	35
74	15
75	19
76	29
77	241
78	48
79	34
80	26
81	62
82	51
83	64
84	32
85	32
86	6
87	16
88	6
89	23
90	19
91	235
92	73
93	24
94	26
95	47
96	25
97	51
98	36
99	19
100	25
101	19
102	61
103	231
104	54
105	25
106	12
107	23
108	16
109	23
110	16
111	28
112	12
113	9
114	8
115	106
116	43
117	67
118	39
119	17
120	13
121	18
122	13
123	18
124	12
125	12
126	7
127	37
128	80
129	120
130	76
131	24
132	22
133	12
134	10
135	24
136	9
137	11
138	8
139	10
140	12
141	43
142	33
143	49
144	114
145	19
146	24
147	10
148	5
149	52
150	7
151	9
152	13
153	23
154	38
155	59
156	108
157	42
158	43
159	23
160	8
161	4
162	3
163	4
164	4
165	6
166	8
167	26
168	73
169	56
170	104
171	49
172	43
173	18
174	9
175	4
177	4
178	7
179	8
180	12
181	56
182	52
183	357
184	121
185	101
186	43
187	19
188	8
189	6
193	3
194	6
195	30
196	15
197	167
198	45
199	126
200	244
201	351
202	46
203	7
209	9
210	7
211	28
212	14
213	43
214	15
215	8
216	4
222	3
223	6
224	18
225	9
226	106
227	23
228	6
229	4
230	11
231	6
239	2
240	4
241	3
242	11
243	595
244	98
245	8
