Mass Spectrum: 10'-Apo-.beta.,.psi.-carotenoic acid, 5,6-dihydro-5,6-dihydroxy-, methyl ester, (5R,6R)-
Formula: C28H40O4
CAS: 1256-21-9
Molecular weight: 440
m/z	intensity
12	2
13	1
14	4
15	29
16	3
17	9
18	35
19	1
24	1
25	3
26	15
27	30
28	65
29	50
30	6
31	16
32	5
33	1
36	2
37	3
38	5
39	39
40	10
41	197
42	21
43	589
44	32
45	19
46	1
47	1
48	1
49	3
50	11
51	15
52	9
53	56
54	8
55	176
56	19
57	37
58	24
59	88
60	4
61	5
62	4
63	9
64	4
65	35
66	10
67	65
68	12
69	393
70	28
71	15
72	10
73	8
74	6
75	5
76	5
77	100
78	29
79	150
80	44
81	150
82	21
83	50
84	11
85	65
86	13
87	10
88	3
89	11
90	8
91	238
92	71
93	180
94	38
95	126
96	22
97	32
98	17
99	14
100	8
101	6
102	8
103	32
104	22
105	288
106	59
107	182
108	43
109	999
110	100
111	65
112	39
113	32
114	13
115	83
116	38
117	94
118	32
119	242
120	79
121	156
122	34
123	124
124	18
125	83
126	21
127	618
128	144
129	124
130	68
131	150
132	79
133	192
134	38
135	97
136	22
137	43
138	16
139	53
140	17
141	74
142	94
143	19
144	103
145	377
146	112
147	126
148	28
149	74
150	17
151	53
152	37
153	47
154	29
155	324
156	156
157	282
158	100
159	222
160	50
161	126
162	27
163	62
164	24
165	91
166	35
167	43
168	27
169	112
170	56
171	182
172	68
173	118
174	33
175	50
176	19
177	53
178	35
179	50
180	27
181	62
182	36
183	115
184	42
185	103
186	37
187	50
188	15
189	37
190	21
191	65
192	62
193	56
194	30
195	86
196	47
197	136
198	44
199	109
200	32
201	42
202	19
203	65
204	25
205	135
206	65
207	40
208	26
209	94
210	62
211	153
212	32
213	30
214	12
215	29
216	28
217	62
218	40
219	26
220	19
221	174
222	33
223	85
224	26
225	91
226	27
227	26
228	13
229	39
230	28
231	47
232	21
233	18
234	14
235	68
236	25
237	39
238	37
239	40
240	13
241	16
242	11
243	21
244	9
245	11
246	6
247	15
248	10
249	15
250	6
251	26
252	13
253	103
254	27
255	33
256	14
257	37
258	30
259	16
260	8
261	12
262	5
263	19
264	7
265	11
266	5
267	11
268	13
269	20
270	53
271	62
272	20
273	26
274	11
275	14
276	9
277	12
278	6
279	13
280	7
281	41
282	18
283	56
284	24
285	82
286	22
287	17
288	11
289	65
290	15
291	6
292	3
293	7
294	4
295	13
296	10
297	9
298	6
299	11
300	9
301	20
302	11
303	9
304	4
305	5
306	3
307	4
308	4
309	13
310	5
311	10
312	8
313	56
314	20
315	16
316	11
317	6
318	3
319	5
320	3
321	6
322	3
323	7
324	4
325	5
326	4
327	31
328	13
329	13
330	9
331	4
332	2
333	4
334	2
335	4
336	3
337	4
338	2
339	2
340	2
341	4
342	45
343	18
344	9
345	5
346	4
347	8
348	12
349	9
350	4
351	3
352	2
353	8
354	4
355	6
356	4
357	2
358	1
359	2
360	5
361	4
362	6
363	18
364	7
365	6
366	3
367	5
368	3
369	2
370	1
371	1
372	1
373	2
374	1
375	4
376	2
377	2
378	4
379	15
380	12
381	24
382	8
383	3
384	1
385	1
386	1
387	1
388	1
389	6
390	5
391	10
392	5
393	9
394	6
395	3
396	1
397	1
398	1
399	1
400	1
401	1
402	2
403	1
404	13
405	8
406	19
407	26
408	39
409	29
410	11
411	3
412	1
413	1
414	1
418	2
419	1
420	12
421	7
422	150
423	49
424	19
425	9
426	3
427	1
428	1
434	1
435	1
436	1
437	1
438	18
439	9
440	618
