Mass Spectrum: Acetonitrile, 2-(2H-tetrazol-2-yl)-
Formula: C3H3N5
CAS: 125707-86-0
Molecular weight: 109
m/z	intensity
33	1
34	0
36	2
38	198
39	238
40	976
41	521
42	85
44	12
45	0
51	94
52	243
53	793
54	999
55	243
56	4
57	0
58	0
63	1
64	4
65	3
67	460
69	146
70	1
76	1
78	26
80	684
81	108
82	45
83	6
84	5
89	0
91	1
92	0
94	0
95	0
96	0
100	0
103	2
104	0
109	269
110	85
111	2
112	0
