Mass Spectrum: Cobalt, decacarbonyl[(pentafluorophenyl)phenylacetylene]tetra-
Formula: C24H5Co4F5O10
CAS: 12572-37-1
Molecular weight: 784
m/z	intensity
50	999
59	970
61	120
62	190
69	210
118	810
209	140
210	140
240	110
268	780
327	200
355	30
386	130
414	120
442	40
470	20
498	20
504	20
526	20
532	20
560	20
588	20
616	20
644	20
