Mass Spectrum: Cyclopropanecarboxylic acid, 1-cyano-2-formyl-, ethyl ester, cis-
Formula: C8H9NO3
CAS: 125700-82-5
Molecular weight: 167
m/z	intensity
25	7
26	76
27	404
28	78
29	999
30	33
31	33
36	4
37	88
38	170
39	451
40	166
41	108
42	214
43	100
44	56
45	79
46	4
47	18
49	5
50	14
51	33
52	209
53	53
54	75
55	266
56	33
57	38
58	4
59	7
60	2
62	7
63	29
64	128
65	131
66	318
67	301
68	131
69	19
70	9
71	9
72	6
73	46
74	4
75	4
76	5
77	5
78	17
79	5
80	66
81	14
83	388
84	110
85	15
86	3
87	5
91	2
92	10
93	294
94	299
95	87
96	19
97	6
98	27
99	2
101	24
102	1
104	1
106	4
107	1
108	6
109	10
110	533
111	226
112	44
113	5
114	1
120	14
121	105
122	581
123	67
124	12
125	6
126	3
137	2
138	42
139	518
140	73
141	9
142	2
148	2
149	2
152	3
166	9
167	2
168	4
169	1
