Mass Spectrum: 2-(4-Chlorophenylamino)-3-(p-tolyl)-quinazoline-4(3H)-one
Formula: C21H16ClN3O
CAS: 125701-58-8
Molecular weight: 361
m/z	intensity
77	181
90	597
91	999
99	232
116	283
117	231
119	59
126	99
192	179
194	59
235	675
236	120
360	802
361	553
362	411
363	191
