Mass Spectrum: 1,1-Dimethyl-3-(1H-tetrazol-5-yl)-urea
Formula: C4H8N6O
CAS: 125708-95-4
Molecular weight: 156
m/z	intensity
36	5
38	3
39	2
40	30
41	94
42	267
43	124
44	215
45	114
50	2
52	4
54	30
55	19
56	76
58	240
59	5
60	2
65	2
67	7
68	10
69	34
72	999
73	65
74	4
76	1
77	4
81	5
83	26
85	12
86	7
90	4
91	2
95	3
97	6
98	2
99	4
109	2
123	1
125	3
126	1
127	23
128	5
129	6
155	25
156	93
157	10
