Mass Spectrum: Sulfone, (3-nitrophenyl)(2-oxopropyl)-
Formula: C9H9NO5S
CAS: 125704-77-0
Molecular weight: 243
m/z	intensity
33	2
34	0
35	0
36	0
37	17
38	41
39	85
40	13
41	43
42	408
43	999
45	24
46	89
47	3
48	15
49	8
50	187
51	25
52	9
53	7
54	2
55	5
57	12
58	4
59	1
60	1
61	9
62	20
63	50
64	31
65	10
66	2
67	0
69	17
70	14
71	1
72	1
73	16
74	100
75	88
76	125
77	17
78	6
79	3
81	3
82	7
83	1
84	1
85	0
86	1
87	1
88	2
89	33
90	34
91	5
92	15
93	5
94	1
95	12
96	8
97	1
98	0
100	0
101	0
102	0
103	2
104	0
105	2
106	1
107	3
108	3
109	1
110	0
111	0
112	0
113	0
115	0
118	0
119	0
120	3
122	25
123	3
124	6
125	0
126	0
131	2
132	4
133	0
134	0
135	0
136	5
137	1
138	0
139	1
140	0
141	0
142	0
147	0
150	0
151	0
155	0
156	0
159	0
161	0
162	7
163	0
167	0
170	4
171	0
