Mass Spectrum: Ethane, 1-methylthio-2-[(2-chloroethyl)thio]-
Formula: C5H11ClS2
CAS: 125787-98-6
Molecular weight: 170
m/z	intensity
35	102
39	13
41	228
45	402
47	424
49	122
58	110
59	213
61	999
63	262
65	91
73	79
74	147
75	499
76	32
77	22
79	66
87	11
94	9
95	8
107	30
109	111
111	31
123	53
125	14
134	87
170	55
172	20
