Mass Spectrum: 2-(1,2,3,4-Tetrazol-1-yl)acetonitrile
Formula: C3H3N5
CAS: 125707-80-4
Molecular weight: 109
m/z	intensity
38	195
39	263
40	823
41	557
42	155
43	6
44	9
51	48
52	149
53	666
54	999
55	127
56	3
67	167
68	18
69	26
78	7
80	153
81	28
82	10
109	130
110	6
