Mass Spectrum: Methyl 2-benzoyl-3-methyl-4H-pyrazole-3-carboxylate
Formula: C13H14N2O3
CAS: 1258975-52-8
Molecular weight: 246
m/z	intensity
34	1
38	5
39	51
40	50
41	31
42	26
43	10
44	25
45	4
50	47
51	189
52	14
53	17
54	16
55	7
56	3
57	1
59	19
63	3
64	3
65	3
69	3
74	7
75	10
76	30
77	560
78	37
81	2
82	3
83	6
89	1
90	1
91	5
103	2
105	999
106	96
107	4
117	3
187	425
188	51
189	4
215	1
246	54
247	8
