Mass Spectrum: Boron, 1,5-cyclooctanediyl(5-methyl-1H-pyrazolato-N1)(5-methyl-1H-pyrazole-N2)-, (t-4)-
Formula: C16H25BN4
CAS: 125878-58-2
Molecular weight: 284
m/z	intensity
26	59
27	193
29	48
30	14
36	5
37	49
38	31
39	138
41	151
42	110
43	14
45	0
49	12
50	65
51	151
52	151
53	157
54	261
55	84
56	20
57	4
59	2
61	7
62	9
63	34
64	44
65	102
66	112
67	87
68	14
69	17
70	2
71	5
72	6
73	17
74	3
75	7
76	28
77	79
78	66
79	71
80	43
81	687
82	999
83	90
84	6
85	5
86	8
87	4
88	12
89	28
90	35
91	117
92	74
93	109
94	126
95	427
96	24
97	5
101	3
102	5
103	7
104	14
105	18
106	20
107	61
108	89
109	58
110	16
111	4
114	3
115	6
116	12
117	14
118	33
119	90
120	33
121	83
122	70
123	12
128	3
129	6
130	13
131	46
132	73
133	88
134	39
135	32
136	8
137	4
138	6
142	4
143	11
144	37
145	172
146	344
147	103
148	23
149	6
155	4
156	4
157	19
158	104
159	367
160	176
161	69
162	9
163	6
164	6
165	4
166	4
170	6
171	19
172	76
173	349
174	307
175	38
176	3
185	4
186	11
187	38
188	10
198	3
199	12
200	125
201	616
202	584
203	77
204	6
213	5
217	5
227	8
283	8
284	29
285	6
