Mass Spectrum: Chromium, tricarbonyl[(1,2,3,4,5,6-.eta.)-(dimethoxymethyl)benzene]-
Formula: C12H12CrO5
CAS: 125825-39-0
Molecular weight: 288
m/z	intensity
27	0
28	12
29	33
30	0
31	8
38	0
39	25
41	1
43	0
47	1
50	75
51	72
52	999
53	154
54	34
62	1
63	18
64	1
65	15
68	5
69	0
74	0
75	5
76	1
77	331
78	57
79	0
80	138
81	45
82	81
83	105
84	10
89	20
90	12
91	145
92	7
93	1
101	1
103	10
105	86
106	2
108	16
111	23
121	465
122	40
127	0
129	101
130	16
139	0
141	10
142	45
143	189
144	785
145	153
146	30
155	18
157	381
158	105
159	237
160	43
161	1
171	2
172	15
173	147
174	190
175	39
176	1
187	0
189	90
190	14
199	2
201	178
202	64
203	12
204	479
205	105
206	21
229	49
230	16
232	157
233	35
234	1
255	13
257	330
258	81
259	16
260	23
286	12
288	317
289	79
290	16
