Mass Spectrum: Ethyl 3-(5-amino-1H-1,2,4-triazol-3-yl)propanoate
Formula: C7H12N4O2
CAS: 1259516-87-4
Molecular weight: 184
m/z	intensity
28	81
29	401
34	2
37	10
38	17
39	69
40	87
41	93
42	89
43	206
44	97
45	28
49	2
50	23
51	31
52	47
53	28
54	124
55	103
56	33
57	138
58	37
60	5
63	5
65	2
66	4
67	11
68	26
69	52
70	15
71	1
72	16
73	2
74	4
76	5
77	27
78	104
79	7
80	2
81	13
82	46
83	4
84	4
85	4
91	1
94	8
97	70
98	3
100	17
109	7
110	249
111	999
112	98
113	2
137	7
138	14
139	307
140	22
155	15
184	211
185	18
186	1
