Mass Spectrum: 1H-Pyrazole, 1-(9-borabicyclo[3.3.1]non-9-yl)-3,5-dimethyl-
Formula: C13H21BN2
CAS: 125995-68-8
Molecular weight: 216
m/z	intensity
25	3
26	44
27	155
28	10
29	54
30	36
31	6
33	29
34	86
35	0
36	5
37	30
38	42
39	265
40	66
41	243
42	166
43	38
44	7
45	7
47	9
48	0
49	4
50	24
51	60
52	50
53	55
54	202
55	98
56	41
57	7
58	7
59	10
60	1
61	9
62	16
63	35
64	25
65	94
66	75
67	100
68	78
69	33
70	10
71	17
72	3
73	3
74	1
75	4
76	14
77	42
78	33
79	43
80	29
81	162
82	45
83	18
84	22
85	17
86	4
87	3
88	3
89	15
90	18
91	66
92	53
93	22
94	12
95	763
96	999
97	83
98	43
99	4
100	0
102	1
103	4
104	7
105	10
106	14
107	39
108	56
109	172
110	18
111	14
112	25
113	32
114	3
115	4
116	5
117	5
118	9
119	30
120	59
121	42
122	40
123	19
124	3
125	9
126	26
127	2
128	2
129	1
130	6
131	12
132	22
133	50
134	16
135	40
136	28
137	2
138	6
139	2
140	0
142	2
143	4
144	13
145	42
146	65
147	62
148	16
149	11
150	2
153	26
154	106
155	12
156	7
157	9
158	33
159	149
160	214
161	63
162	9
168	0
169	6
170	4
171	17
172	79
173	265
174	120
175	54
176	4
183	1
184	4
185	15
186	56
187	260
188	151
189	18
190	0
197	0
198	0
199	2
200	9
201	36
202	4
213	2
214	45
215	261
216	317
217	45
218	2
