Mass Spectrum: 1-Benzyl-2-cyano-3,3-dimethylpiperidine
Formula: C15H20N2
CAS: 125943-32-0
Molecular weight: 228
m/z	intensity
40	121
41	288
43	91
55	259
56	118
65	130
69	99
83	178
91	999
92	148
137	471
159	139
228	120
