Mass Spectrum: 1,3-Butadiene, 2-chloro-
Formula: C4H5Cl
CAS: 126-99-8
Molecular weight: 88
m/z	intensity
12	14
13	15
14	17
15	13
17	0
24	11
25	55
26	201
27	519
31	0
35	32
36	38
37	83
38	56
39	64
40	1
43	4
44	4
45	1
47	10
48	31
49	132
50	343
51	346
52	373
53	999
54	53
55	0
60	20
61	51
62	61
63	16
64	17
71	1
73	32
74	3
75	11
84	2
85	1
88	456
89	35
90	142
91	7
