Mass Spectrum: 2,4,7,9-Tetramethyl-5-decyn-4,7-diol
Formula: C14H26O2
CAS: 126-86-3
Molecular weight: 226
m/z	intensity
15	1
26	1
27	31
29	51
30	1
31	3
38	3
39	69
40	10
41	206
42	20
43	935
44	25
45	27
50	5
51	25
52	7
53	45
54	5
55	84
56	11
57	160
58	38
59	45
60	1
61	1
62	1
63	7
64	3
65	60
66	21
67	99
68	13
69	209
70	17
71	32
72	2
73	1
75	1
77	39
78	7
79	38
80	4
81	77
82	9
83	33
84	12
85	177
86	10
87	1
89	1
91	48
92	5
93	92
94	21
95	99
96	15
97	16
98	2
99	7
100	10
101	17
102	1
103	3
105	24
106	3
107	132
108	19
109	999
110	88
111	86
112	54
113	40
114	7
115	3
116	1
117	2
118	1
119	6
120	1
121	13
122	3
123	54
124	5
125	13
126	2
127	13
128	1
131	2
133	36
134	4
135	9
136	7
137	35
138	3
139	1
147	1
149	3
151	773
152	91
153	11
154	2
155	1
165	7
166	1
168	1
169	87
170	9
192	1
193	1
211	1
