Mass Spectrum: Benzeneethanol, .alpha.-[2-(dimethylamino)-1-methylethyl]-.alpha.-phenyl-
Formula: C19H25NO
CAS: 126-04-5
Molecular weight: 283
m/z	intensity
44	22
45	129
46	10
57	8
58	999
59	63
65	2
71	6
74	4
77	7
85	5
86	18
87	26
91	20
92	4
105	39
106	3
120	13
133	4
134	4
149	7
165	6
192	128
193	15
197	6
283	8
