Mass Spectrum: 2,11-Dioxatricyclo[4.4.1.0(1,6)]undecan-3-one
Formula: C9H12O3
CAS: 126091-84-7
Molecular weight: 168
m/z	intensity
35	2
36	2
37	16
38	37
39	465
40	122
41	478
42	372
43	134
44	10
45	11
47	8
48	4
49	3
50	28
51	60
52	38
53	159
54	120
55	842
56	441
57	178
58	12
62	20
63	16
64	4
65	34
66	38
67	327
68	170
69	63
70	162
71	22
72	4
73	5
77	27
78	11
79	55
80	65
81	67
82	68
83	241
84	116
85	77
86	4
88	16
91	9
93	13
94	20
95	66
96	84
97	123
98	488
99	36
107	3
109	9
110	20
111	999
112	147
113	16
122	6
123	16
124	299
125	32
126	14
127	3
140	64
141	5
151	9
152	69
153	6
168	16
169	2
