Mass Spectrum: N,N-Dimethyl-1-(4-[3-(1-piperidyl)propoxy]phenyl)-2-propylamine
Formula: C19H32N2O
CAS: 126002-13-9
Molecular weight: 304
m/z	intensity
40	20
41	30
42	40
43	10
44	60
55	20
56	10
57	10
58	20
69	10
70	20
71	20
72	999
73	50
98	80
124	10
126	20
233	20
303	1
