Mass Spectrum: 2-Propanamine, N-methyl-1-[4-[2-(1-piperidyl)ethoxy]phenyl]-
Formula: C17H28N2O
CAS: 126002-09-3
Molecular weight: 276
m/z	intensity
41	120
42	110
43	30
44	60
54	20
55	100
56	80
57	30
58	999
59	30
69	30
70	30
82	20
83	40
84	120
85	450
86	30
96	40
97	20
98	510
99	30
110	20
111	20
112	80
113	90
219	130
220	20
