Mass Spectrum: 2,3,4-Pentanetrione, 3-[(2,3-dihydro-1,5-dimethyl-3-oxo-2-phenyl-1H-pyrazol-4-yl)hydrazone]
Formula: C16H18N4O3
CAS: 126086-03-1
Molecular weight: 314
m/z	intensity
33	0
34	0
36	0
37	2
38	6
39	20
40	10
41	19
42	39
43	232
44	9
45	4
46	1
47	0
49	0
50	5
51	24
52	9
53	8
54	22
56	999
57	54
58	2
59	0
60	2
61	0
62	1
63	9
64	23
65	14
66	4
67	19
68	4
69	6
70	5
71	6
72	0
73	2
74	1
75	1
77	45
78	4
79	1
80	1
81	4
83	160
84	19
85	2
86	0
87	0
88	0
89	1
90	3
91	37
92	11
93	7
94	2
95	1
96	2
97	3
98	2
99	0
100	0
101	0
102	0
103	2
104	5
105	3
106	3
107	0
108	2
109	8
110	1
111	1
112	1
113	1
114	0
115	1
116	0
117	1
118	3
119	17
120	11
121	4
122	1
123	1
124	1
125	1
126	1
127	0
128	0
129	1
130	1
131	1
132	1
133	0
134	0
135	0
136	0
137	0
138	0
139	0
140	0
141	0
142	1
143	1
144	1
145	1
146	1
147	1
148	0
149	1
150	0
151	0
152	1
153	0
154	0
155	0
156	0
157	1
158	3
159	1
160	0
161	0
162	0
163	0
164	0
166	0
167	0
168	0
169	0
170	0
171	2
172	2
173	2
174	1
175	0
176	0
177	0
178	0
179	0
184	0
185	0
186	0
187	0
188	1
189	0
190	0
193	0
194	1
195	0
198	0
199	0
200	3
202	246
203	34
204	2
205	0
212	0
213	0
214	0
215	2
216	1
217	0
218	0
220	0
221	0
222	0
223	0
227	0
228	0
229	0
230	0
231	0
241	0
242	0
243	1
244	0
245	0
253	0
254	0
256	0
269	0
271	10
272	2
273	0
283	0
285	0
296	0
299	0
301	0
311	0
312	0
314	57
315	10
316	1
317	0
