Mass Spectrum: (2E,6E)-Farnesyl pentanoate
Formula: C20H34O2
CAS: 126182-13-6
Molecular weight: 306
m/z	intensity
39	15
40	10
41	239
42	15
43	30
51	5
52	5
53	68
54	7
55	83
56	13
57	428
58	23
65	21
66	8
67	193
68	329
69	999
70	56
74	6
77	46
78	12
79	88
80	170
81	408
82	53
83	15
84	16
85	176
86	9
91	71
92	89
93	486
94	88
95	118
96	11
97	8
103	10
105	59
106	21
107	208
108	43
109	63
110	12
117	5
119	88
120	31
121	171
122	68
123	124
124	17
133	49
134	36
135	122
136	209
137	68
138	7
147	43
148	33
149	19
161	89
162	22
163	4
169	14
175	15
176	9
182	6
189	82
190	14
191	5
204	38
205	7
237	8
239	2
254	4
306	8
307	2
