Mass Spectrum: Chloroacetic acid, 2,2-dimethylpropyl ester
Formula: C7H13ClO2
CAS: 126176-76-9
Molecular weight: 164
m/z	intensity
22	2
25	2
26	14
27	42
28	9
29	112
30	4
31	6
35	10
36	69
37	4
38	22
39	65
40	13
41	217
42	36
43	133
44	8
45	13
47	3
48	6
49	91
50	46
51	38
52	76
53	22
54	4
55	285
56	130
57	999
58	46
59	3
60	3
63	1
67	2
69	9
70	31
71	125
72	14
73	147
74	6
75	3
76	9
77	247
78	18
79	142
80	9
81	2
82	4
87	6
91	1
93	3
94	8
95	6
96	7
97	1
105	2
107	2
108	6
109	39
110	3
111	12
112	2
121	1
123	1
138	3
140	3
149	51
150	3
151	16
152	1
