Mass Spectrum: Stannane, tris(pentafluorophenyl)phenyl-
Formula: C24H5F15Sn
CAS: 1262-57-3
Molecular weight: 698
m/z	intensity
27	56
39	40
43	32
50	152
51	693
52	40
74	32
75	37
76	42
77	999
78	69
79	32
93	29
98	45
99	18
116	61
117	98
118	101
119	42
120	130
122	24
124	26
129	16
131	16
135	253
136	117
137	400
138	128
139	493
141	72
143	85
148	53
149	8
167	82
168	13
175	18
185	8
186	21
187	13
192	8
193	16
194	5
195	11
196	8
197	16
198	8
199	5
201	5
204	16
205	24
206	37
207	8
223	8
224	53
225	13
226	5
227	16
242	11
243	11
244	320
245	42
246	11
265	56
266	8
283	58
284	35
285	91
286	40
287	117
288	11
289	21
291	24
296	88
297	13
315	64
316	13
321	16
322	11
323	24
324	11
325	29
327	5
334	16
335	5
372	8
375	8
379	35
380	21
381	56
382	26
383	69
384	11
385	13
387	16
406	5
413	21
414	5
416	5
444	16
445	5
469	35
470	24
471	56
472	29
473	74
474	11
475	13
477	16
508	3
509	3
510	8
511	5
512	11
527	48
528	34
529	80
530	42
531	106
532	24
533	19
535	18
617	21
618	16
619	34
620	21
621	53
622	10
623	10
625	10
694	18
695	16
696	32
697	18
698	37
699	13
700	8
702	8
