Mass Spectrum: N-(4-Nitrophenyl)-2-furancarbothioamide
Formula: C11H8N2O3S
CAS: 126265-86-9
Molecular weight: 248
m/z	intensity
39	362
45	49
50	69
51	40
63	50
64	30
65	50
69	39
71	40
72	30
75	40
76	49
82	30
83	69
94	150
100	9
109	40
111	999
155	39
169	40
201	59
215	89
247	218
248	440
