Mass Spectrum: Spiro[adamantane-2,5'-[1.2]dioxolan]-3'-one, 4'-methylene-
Formula: C13H16O3
CAS: 126255-68-3
Molecular weight: 220
m/z	intensity
38	9
39	345
40	67
41	541
42	56
43	98
44	216
45	9
50	18
51	95
52	65
53	281
54	122
55	341
56	23
57	39
58	13
59	11
60	7
63	30
64	16
65	176
66	125
67	343
68	69
69	48
70	29
71	14
72	32
75	8
76	5
77	410
78	197
79	999
80	407
81	295
82	58
83	49
84	10
89	12
90	11
91	582
92	275
93	389
94	164
95	186
96	106
97	45
98	6
99	5
103	67
104	81
105	279
106	187
107	262
108	104
109	78
110	19
115	63
116	31
117	168
118	64
119	143
120	86
121	134
122	63
123	15
124	7
127	7
128	25
129	39
130	17
131	74
132	49
133	186
134	65
135	66
136	9
143	21
144	4
145	36
146	15
147	82
148	170
149	38
150	255
151	35
159	13
160	145
161	51
162	11
174	18
175	16
176	106
177	17
178	7
188	10
192	33
193	3
202	9
204	19
205	4
220	31
221	3
