Mass Spectrum: Ditetrazolo[1,5-a:5',1'-c]pyrazine
Formula: C4H2N8
CAS: 126229-04-7
Molecular weight: 162
m/z	intensity
40	55
44	9
51	35
52	109
53	999
54	769
55	29
64	5
65	7
78	11
79	80
80	9
106	96
107	18
134	23
135	6
162	107
163	21
