Mass Spectrum: Acetamide, 2,2'-[[4-(hydroxymethyl)-1,2-phenylene]bis(oxy)]bis[N,N-dicyclohexyl-
Formula: C35H54N2O5
CAS: 126291-01-8
Molecular weight: 582
m/z	intensity
27	168
28	101
29	138
30	192
39	268
40	54
41	635
42	166
43	310
44	85
50	41
51	74
52	41
54	297
55	999
56	293
57	42
58	68
60	92
65	105
66	51
67	274
68	127
69	204
70	73
77	94
79	81
80	60
81	281
82	205
83	858
84	103
92	53
94	52
95	76
96	106
97	138
98	409
99	53
105	33
107	35
110	87
111	35
112	150
122	42
123	75
124	43
126	153
135	82
136	89
137	45
138	132
139	91
140	367
141	67
142	35
148	42
149	27
150	70
151	92
152	35
162	28
163	47
165	31
167	24
178	94
179	77
180	497
181	95
194	103
208	83
221	59
222	872
223	179
263	17
292	121
293	30
344	16
358	31
360	65
361	29
372	49
374	435
375	126
417	40
442	23
443	23
499	87
500	32
582	118
583	47
