Mass Spectrum: 2-Oxa-5,8-diaza-3-phosphanonan-9-oic acid, 3-methoxy-7-(1-methylethyl)-4-(2-methylpropyl)-6-oxo-, phenylmethyl ester, 3-oxide
Formula: C20H33N2O6P
CAS: 126306-99-8
Molecular weight: 428
m/z	intensity
27	26
28	15
29	14
30	19
31	6
39	23
40	4
41	58
42	13
43	85
44	30
45	1
47	6
50	6
51	13
52	4
53	7
54	5
55	33
56	18
57	11
59	3
62	2
63	12
64	4
65	49
66	2
67	3
68	5
69	36
70	25
71	5
72	77
73	4
77	18
78	3
79	48
80	13
82	3
83	9
84	17
85	6
86	272
87	10
89	10
90	19
91	999
92	80
93	23
94	2
95	11
97	2
98	16
100	4
105	10
106	0
107	22
108	13
109	42
110	49
111	17
112	4
113	3
115	2
116	18
118	1
120	2
121	9
126	2
127	7
137	107
138	24
139	2
141	8
143	17
152	8
161	2
162	192
163	24
164	1
165	2
168	4
169	8
176	44
177	6
178	2
179	9
180	77
181	6
183	1
194	2
195	3
196	1
205	12
206	71
207	9
211	31
212	5
222	70
223	10
224	5
227	2
228	1
234	47
235	7
264	5
277	2
278	1
279	0
293	1
319	53
320	12
321	2
372	4
385	3
386	3
413	2
428	15
429	3
