Mass Spectrum: Carbamic acid, [2-[[1-(diphenoxyphosphinyl)-2-phenylethyl]amino]-2-oxo-1-[[(phenylmethyl)thio]methyl]ethyl]-, phenylmethyl ester, [S-(R*,S*)]-
Formula: C38H37N2O6PS
CAS: 126307-21-9
Molecular weight: 680
m/z	intensity
25	0
26	2
27	6
28	3
29	3
30	2
31	1
33	0
34	0
36	0
37	3
38	8
39	38
40	7
41	10
42	7
43	9
44	2
45	14
46	1
47	6
48	0
49	1
50	10
51	29
52	6
53	3
54	1
55	11
56	1
57	1
58	1
59	3
60	1
61	3
62	6
63	17
64	7
65	86
66	18
67	1
68	2
69	1
70	5
71	1
72	1
73	2
74	7
75	3
76	5
77	71
78	12
79	14
80	1
81	1
82	0
83	0
84	1
85	2
86	3
88	1
89	14
90	14
91	999
92	95
93	12
94	96
95	15
96	1
97	2
98	0
99	0
100	0
101	0
102	4
103	15
104	13
105	6
106	3
107	9
108	6
109	0
110	0
111	0
113	0
114	1
115	2
116	2
117	6
118	9
119	24
120	110
121	14
122	7
123	9
124	5
125	1
126	0
127	1
128	20
129	3
130	5
131	2
132	4
133	1
134	1
135	3
136	1
137	9
138	1
139	3
140	13
141	9
142	1
143	1
144	1
145	3
146	31
147	6
148	3
149	10
150	2
151	1
152	2
153	2
154	0
155	1
156	0
157	2
158	1
159	1
160	1
161	0
162	1
163	1
164	14
165	5
166	8
167	25
168	4
169	3
170	1
171	0
172	1
173	1
174	3
175	3
176	3
177	13
178	5
179	2
180	7
181	5
182	1
183	3
184	0
185	1
186	0
187	1
188	0
189	7
190	1
191	0
192	10
193	3
194	1
195	0
196	1
197	1
201	0
203	1
204	3
205	0
206	1
207	0
208	3
209	1
210	9
211	1
212	0
213	1
214	2
215	6
216	1
217	5
218	1
219	0
220	0
221	1
222	0
223	0
229	0
230	0
231	1
232	0
233	3
234	1
235	4
236	2
237	0
238	0
239	0
240	0
241	0
242	0
243	2
244	0
245	1
246	0
247	2
248	1
249	0
251	0
252	0
254	0
256	7
257	1
258	0
259	1
260	0
261	5
262	3
263	0
264	0
265	2
266	0
268	0
269	0
288	2
289	0
295	5
296	2
297	0
299	2
300	0
311	7
312	1
313	0
314	2
315	1
318	0
319	0
320	0
322	0
323	0
324	0
325	1
328	0
329	0
336	0
337	4
338	3
339	1
342	0
344	3
345	0
346	0
347	0
352	5
353	1
354	0
355	3
356	1
357	0
371	0
373	2
374	0
377	0
378	0
380	8
381	2
382	0
389	0
403	0
404	0
405	1
406	0
407	0
408	1
409	11
410	3
411	1
423	2
424	0
436	16
437	4
438	7
439	2
440	0
442	0
446	1
447	0
448	0
449	1
450	3
451	1
462	0
463	3
464	1
465	1
466	0
479	4
480	1
481	0
482	0
495	3
496	1
497	1
529	1
530	0
545	9
546	3
547	1
557	0
558	2
559	0
572	0
573	0
587	2
588	1
589	7
590	2
591	0
680	5
681	2
682	0
