Mass Spectrum: 2-Methyliminoperhydro-1,3-oxazine
Formula: C5H10N2O
CAS: 126442-19-1
Molecular weight: 114
m/z	intensity
15	88
26	25
27	70
29	61
30	344
39	19
40	17
41	52
42	95
43	14
44	10
54	11
55	60
56	191
57	165
58	999
59	32
69	15
84	24
85	28
86	37
113	41
114	540
115	41
