Mass Spectrum: 4-Pyrimidinecarboxylic acid, hexahydro-2,6-dioxo-1,3-diphenyl-, methyl ester
Formula: C18H16N2O4
CAS: 126400-69-9
Molecular weight: 324
m/z	intensity
26	7
27	70
28	6
29	41
30	7
31	25
34	3
37	8
38	23
39	54
40	8
41	3
42	32
43	57
44	13
47	4
49	4
50	42
51	185
52	31
53	11
54	12
55	62
56	10
57	11
58	7
59	36
61	7
62	7
63	40
64	84
65	33
66	5
68	7
69	10
70	6
73	3
74	45
75	13
76	26
77	771
78	55
80	5
81	1
83	2
85	3
88	3
89	15
90	22
91	171
92	22
93	29
94	8
95	4
102	3
103	27
104	999
105	89
106	13
109	3
113	13
115	8
116	25
117	531
118	161
119	137
120	22
121	3
127	4
128	4
129	10
130	3
132	30
134	18
135	4
143	10
144	57
145	69
146	19
147	5
159	7
160	3
162	3
171	3
173	21
174	4
175	19
176	17
177	66
178	3
199	3
203	3
207	5
210	3
211	3
214	12
217	4
218	3
223	3
227	3
233	7
237	9
242	3
245	3
249	5
250	7
251	64
252	17
253	4
260	4
262	8
264	353
265	282
266	58
267	6
292	5
293	16
322	13
323	9
324	445
325	100
326	20
327	3
