Mass Spectrum: Propanamide, N-phenyl-3-(phenylthio)-
Formula: C15H15NOS
CAS: 126400-65-5
Molecular weight: 257
m/z	intensity
26	2
27	39
29	2
30	1
35	0
37	1
38	4
39	46
40	23
41	4
42	3
43	2
44	1
45	113
46	3
47	5
49	0
50	9
51	55
52	7
53	2
54	2
55	207
56	8
57	3
58	4
59	23
60	1
61	3
62	2
63	10
64	10
65	97
66	44
67	4
68	0
69	14
70	1
71	2
73	0
74	2
75	2
76	4
77	119
78	17
79	21
80	2
81	1
82	3
83	2
84	6
85	0
86	0
87	3
89	2
90	1
91	27
92	46
93	999
94	79
95	4
96	0
97	3
99	0
101	0
102	1
103	10
104	13
105	31
106	75
107	14
108	8
109	119
110	48
111	9
112	2
113	0
115	0
117	1
118	2
119	8
120	35
121	6
122	2
123	213
124	18
125	10
126	1
127	0
128	1
129	2
130	17
131	3
132	0
133	0
134	4
135	54
136	21
137	72
138	8
139	4
140	0
141	0
146	4
147	11
148	135
149	14
150	1
151	0
152	0
153	0
155	1
156	0
163	4
164	6
165	13
166	2
167	1
168	0
169	19
170	3
171	0
180	1
181	0
182	2
183	0
184	0
199	0
200	0
202	0
212	1
214	0
224	5
225	0
255	0
256	0
257	481
258	80
259	29
260	3
