Mass Spectrum: 3-Pyrrolidinecarboxylic acid, 2,5-dioxo-1-phenyl-, methyl ester
Formula: C12H11NO4
CAS: 126400-67-7
Molecular weight: 233
m/z	intensity
26	38
27	275
28	36
29	13
30	3
31	13
33	0
37	6
38	21
39	44
41	27
42	63
43	27
44	14
45	7
49	0
50	18
51	62
52	17
53	15
54	41
55	999
56	136
57	13
58	64
59	78
60	3
61	1
62	6
63	43
64	91
65	38
66	6
67	1
68	17
69	7
70	0
71	5
72	1
73	2
74	4
75	4
76	8
77	110
78	8
79	2
80	4
81	1
82	76
83	10
84	0
85	91
86	174
87	25
88	2
89	3
90	10
91	147
92	36
93	75
94	12
95	4
96	0
97	1
99	52
100	7
101	2
102	5
103	8
104	15
105	5
106	2
107	1
112	0
113	61
114	996
115	149
116	13
117	11
118	8
119	395
120	64
121	5
128	30
129	10
130	9
131	2
132	20
133	3
134	0
140	1
141	2
144	5
145	11
146	35
147	8
148	1
151	0
157	1
160	1
162	1
172	7
173	14
174	629
175	143
176	15
177	2
185	0
187	0
188	2
189	0
190	3
191	0
200	1
201	83
202	66
203	14
204	4
205	5
206	1
207	1
212	1
213	0
231	0
232	0
233	970
234	220
235	28
