Mass Spectrum: n-Propyl,phenyl,bis(difluoro)silane
Formula: C9H12F2Si
CAS: 126485-59-4
Molecular weight: 186
m/z	intensity
27	47
28	50
29	28
30	25
31	9
32	9
37	5
38	14
39	79
41	37
42	25
43	66
44	20
45	52
47	200
48	17
49	164
51	86
52	9
53	35
54	5
55	16
56	7
57	27
58	9
59	3
61	24
62	61
63	170
65	113
67	24
68	19
69	10
70	8
71	8
72	9
73	78
74	111
75	301
77	504
78	79
79	291
80	41
81	230
83	46
84	4
86	59
87	40
88	18
89	106
90	33
91	48
92	8
93	25
94	48
95	7
96	4
97	2
101	14
103	218
105	999
106	74
107	13
109	88
110	6
111	4
112	3
113	3
115	16
116	3
117	4
123	5
124	6
125	25
126	4
127	3
129	3
130	3
131	9
137	3
139	3
141	3
142	10
143	156
144	14
145	6
149	20
150	3
151	17
152	4
153	3
155	15
169	29
171	409
172	50
173	14
185	11
186	248
187	34
188	10
