Mass Spectrum: Cyclopropanemethanol, .alpha.,.alpha.-dimethyl-2-methylene-
Formula: C7H12O
CAS: 126434-25-1
Molecular weight: 112
m/z	intensity
26	14
27	109
28	6
29	36
30	1
31	86
33	0
34	0
37	3
38	11
39	104
40	16
41	275
42	27
43	999
44	27
45	17
46	0
47	0
48	0
49	2
50	23
51	45
52	18
53	63
54	29
55	67
56	11
57	104
58	11
59	211
60	7
61	1
62	3
63	6
64	1
65	12
66	5
67	38
68	10
69	102
70	64
71	32
72	47
73	2
74	1
75	1
76	0
77	48
78	7
79	49
80	4
81	4
82	4
83	15
84	1
85	0
86	0
87	0
89	0
90	0
91	9
92	1
93	6
94	6
95	5
96	1
97	42
98	3
