Mass Spectrum: Tetracyclo[4.2.1.0(3,8).0(4,7)]non-9-ene, 9-(trimethylsilyl)-
Formula: C12H18Si
CAS: 126518-03-4
Molecular weight: 190
m/z	intensity
27	5
29	7
31	14
39	14
40	24
41	3
43	50
44	11
45	101
46	6
47	3
51	6
52	0
53	14
54	1
55	14
57	8
58	10
59	194
60	15
61	6
63	4
65	11
66	4
67	10
68	1
69	15
70	2
71	5
72	7
73	999
74	84
75	36
77	10
78	3
79	6
80	4
81	7
83	33
84	3
85	4
86	1
87	3
89	5
91	27
92	3
93	9
95	9
96	2
97	9
98	1
103	2
105	13
106	0
107	7
109	13
111	3
115	51
116	621
117	112
118	9
119	8
121	15
122	3
123	4
127	1
128	7
129	7
130	6
131	18
132	3
133	10
135	46
136	7
137	0
143	8
145	26
146	3
147	16
148	4
149	12
159	19
160	3
173	8
174	0
175	167
176	30
177	8
190	139
191	26
192	6
193	0
