Mass Spectrum: (E)-2-Chloro-3-(dichloromethyl)-butenedioic acid (ox-emx)
Formula: C5H3Cl3O4
CAS: 126572-80-3
Molecular weight: 232
m/z	intensity
72	799
73	829
74	249
75	259
76	12
77	20
79	22
80	10
81	114
82	50
83	80
84	5
85	30
86	5
87	224
88	85
89	279
90	30
91	80
92	7
93	25
94	18
95	60
96	20
97	60
98	52
99	10
100	58
101	28
102	20
103	10
104	10
105	10
106	50
107	999
108	479
109	619
110	289
111	104
112	40
113	5
114	3
115	2
116	3
117	70
118	20
119	30
120	5
121	10
122	13
123	60
124	159
125	40
126	85
127	5
128	20
129	30
130	2
131	3
132	2
133	23
134	4
135	50
136	239
137	40
138	164
139	8
140	30
141	3
142	564
143	28
144	559
145	24
146	169
147	8
148	22
149	35
150	2
151	139
152	149
153	100
154	100
155	40
156	15
161	10
163	5
170	369
171	12
172	329
173	14
174	119
175	10
176	10
179	80
180	80
181	50
182	40
183	8
184	8
185	3
186	4
187	10
188	25
189	5
190	23
191	2
192	5
193	2
197	38
198	2
199	28
200	4
214	22
216	18
218	6
