Mass Spectrum: Urea, n-decyl-N'-isopropyl-
Formula: C14H30N2O
CAS: 126522-94-9
Molecular weight: 242
m/z	intensity
30	941
39	83
41	294
43	412
44	999
45	67
55	257
56	152
57	147
58	251
59	27
60	75
67	48
68	53
69	144
70	158
71	53
73	29
81	37
82	43
83	110
84	48
85	70
86	45
87	64
95	29
96	29
97	72
98	53
99	134
100	27
101	45
102	29
103	44
111	29
112	56
113	37
115	78
116	112
126	24
129	56
130	37
143	88
144	32
156	27
157	91
158	32
171	43
172	19
184	19
185	52
199	48
200	16
213	32
227	19
241	16
242	250
