Mass Spectrum: 5-Benzyl-5-formylamino-6-imino-hexahydro-2-thioxopyrimidin-4-one
Formula: C12H12N4O2S
CAS: 126552-75-8
Molecular weight: 276
m/z	intensity
86	13
89	17
90	17
91	999
92	92
96	13
98	34
104	17
105	54
117	13
118	30
128	27
157	450
158	37
159	17
160	34
192	17
215	34
248	347
249	37
276	24
