Mass Spectrum: 3-Benzyl-5-(4,5-dihydro-oxazol-2-yl)-3H-[1,2,3]triazol-4-ylamine
Formula: C12H13N5O
CAS: 126537-90-4
Molecular weight: 243
m/z	intensity
50	34
51	125
52	47
53	108
54	99
55	42
56	13
57	3
58	2
62	10
63	73
64	16
65	351
66	34
67	29
68	37
69	49
70	140
71	20
72	7
75	4
76	7
77	56
78	15
79	45
80	41
81	8
82	25
83	9
84	2
89	66
90	31
91	999
92	84
93	5
94	10
95	12
96	6
97	433
98	14
99	2
102	2
103	9
104	15
105	6
106	35
107	4
109	4
110	37
111	102
112	16
116	22
117	26
118	6
119	10
120	1
123	10
124	81
125	8
128	5
129	4
130	6
131	3
132	5
137	2
138	8
142	3
143	16
144	39
145	10
146	3
154	1
155	3
156	7
157	8
158	10
159	5
160	3
161	1
170	135
171	101
172	9
173	4
184	7
185	2
186	28
187	68
188	27
189	2
197	3
199	2
213	2
214	527
215	56
216	2
242	6
243	170
244	11
245	4
