Mass Spectrum: 1H-1,2,3-Triazole-4-carboxamide, 5-amino-1-benzyl-N-(2-hydroxyethyl)-
Formula: C12H15N5O2
CAS: 126537-84-6
Molecular weight: 261
m/z	intensity
33	1
34	2
35	0
36	1
37	2
38	10
39	75
40	59
41	56
42	51
43	50
44	44
45	55
46	3
47	0
50	20
51	48
52	17
53	22
54	31
55	223
56	21
57	9
58	3
59	2
60	9
61	3
62	12
63	34
65	177
66	12
67	10
68	45
69	19
70	42
71	7
72	5
73	3
74	4
75	5
76	7
77	30
78	13
79	9
80	2
81	2
82	5
83	6
84	8
85	4
86	3
87	5
88	7
89	43
91	999
92	84
93	6
94	1
95	2
96	3
97	11
98	4
99	2
100	1
101	2
102	6
103	53
104	26
105	10
106	47
107	5
108	1
109	1
110	2
111	12
112	8
113	2
114	2
115	5
116	12
117	32
118	21
119	6
120	2
121	0
122	0
123	1
124	5
125	2
126	1
128	93
129	15
130	8
131	5
132	4
133	9
134	1
135	0
136	0
138	0
139	2
140	1
141	1
142	3
143	10
144	26
145	57
146	15
147	2
148	0
149	1
150	0
151	0
152	4
153	0
154	0
155	1
156	4
157	3
158	1
159	2
160	2
161	1
162	0
163	0
164	0
165	0
169	2
170	2
171	37
172	9
173	11
174	20
175	3
176	0
177	0
178	0
179	0
180	0
181	0
182	0
183	0
184	0
185	1
186	1
187	1
188	6
189	1
190	0
191	0
197	0
198	1
201	228
202	33
203	5
204	15
205	2
206	0
209	0
213	0
214	0
215	1
216	1
217	12
218	65
219	8
220	0
228	2
230	149
231	152
232	22
233	2
234	0
242	2
243	14
244	2
245	0
246	0
258	0
259	0
261	85
262	12
263	1
