Mass Spectrum: O-(2-(Dimethylamino)ethyl)-2-chlorophenyl-3-chlorophenylketoxime
Formula: C17H18Cl2N2O
CAS: 126551-78-8
Molecular weight: 336
m/z	intensity
42	55
43	21
44	16
50	14
51	10
56	18
57	98
58	999
59	33
69	11
70	100
71	211
72	29
74	18
75	66
76	13
87	11
111	45
113	15
250	19
252	11
