Mass Spectrum: Tetradecanoic acid, 2-mercapto-
Formula: C14H28O2S
CAS: 126660-84-2
Molecular weight: 260
m/z	intensity
26	2
27	66
28	0
29	175
30	3
31	4
33	0
34	3
35	2
36	0
39	36
40	10
41	324
42	47
43	378
44	11
45	29
46	8
47	20
48	1
51	2
52	1
53	20
54	22
55	282
56	61
57	231
58	10
59	18
60	76
61	18
62	3
63	4
64	4
65	4
66	3
67	67
68	29
69	195
70	38
71	75
72	4
73	122
74	41
75	5
76	14
77	5
78	2
79	10
80	3
81	53
82	25
83	117
84	26
85	38
86	13
87	174
88	34
89	19
90	1
91	3
92	999
93	28
94	43
95	34
96	22
97	84
98	41
99	19
100	39
101	69
102	34
103	6
104	4
105	40
106	2
107	3
108	1
109	16
110	10
111	39
112	13
113	47
114	15
115	27
116	379
117	24
118	17
119	2
120	1
121	5
122	1
123	7
124	9
125	22
126	7
127	14
128	3
129	93
130	68
131	11
132	3
133	2
134	9
135	4
136	1
137	5
138	7
139	7
140	2
141	1
142	0
143	28
144	8
145	4
147	4
149	0
151	3
152	3
153	6
154	11
155	2
156	2
157	18
158	10
159	3
164	3
165	1
166	2
167	3
168	2
169	0
170	0
171	50
172	37
173	6
180	2
181	6
182	3
183	0
185	14
186	4
187	0
191	6
192	0
195	1
199	12
200	3
208	3
209	28
210	4
213	14
214	89
215	28
216	7
217	0
224	1
225	0
226	7
227	51
228	4
242	29
243	4
245	1
260	121
261	21
262	6
