Mass Spectrum: 5-(2-Methoxypropan-2-yl)-2-methyl-2-vinyltetrahydrofuran
Formula: C11H20O2
CAS: 126657-18-9
Molecular weight: 184
m/z	intensity
27	18
29	24
30	1
31	2
33	1
38	2
39	17
40	9
41	53
42	20
43	116
45	9
47	1
49	2
51	2
53	23
54	4
55	87
56	5
57	6
58	2
64	1
65	7
66	3
67	43
71	13
72	15
73	999
74	30
75	2
77	11
81	29
82	5
83	7
84	2
85	9
86	18
88	3
91	13
93	29
94	5
95	4
99	23
100	3
101	1
103	3
107	2
109	23
110	11
111	31
112	5
115	1
119	2
125	2
137	5
141	2
152	1
153	2
157	2
169	4
