Mass Spectrum: 3-Hydroxymethyl-piperazine-2,5-dione
Formula: C5H8N2O3
CAS: 126766-09-4
Molecular weight: 144
m/z	intensity
26	0
27	0
28	20
29	17
30	128
31	9
33	0
34	0
36	0
37	0
38	0
39	2
40	25
41	59
42	16
43	6
44	1
45	0
47	0
49	0
51	0
52	0
53	5
55	11
56	7
57	55
58	11
59	6
60	16
61	0
62	0
64	0
66	0
67	0
68	1
69	6
70	10
71	8
72	3
73	8
74	1
75	0
77	0
78	0
80	0
82	0
83	2
84	2
85	66
86	15
87	1
89	0
91	1
92	0
94	0
95	0
97	19
98	35
99	3
100	0
101	4
102	0
103	0
105	0
106	0
108	0
110	0
111	0
113	10
114	999
115	30
116	2
117	0
119	0
121	0
122	0
124	0
126	99
127	11
128	0
131	0
132	0
134	0
136	0
137	0
138	0
139	0
141	0
142	0
143	0
144	0
145	13
146	1
