Mass Spectrum: (4-Cyanophenyl)boronic acid
Formula: C7H6BNO2
CAS: 126747-14-6
Molecular weight: 147
m/z	intensity
37	51
38	51
39	37
40	30
41	11
44	367
45	999
49	32
50	151
51	103
52	36
61	63
62	223
63	30
64	10
73	15
74	51
75	107
76	191
77	44
102	82
103	597
104	35
146	41
147	210
148	27
