Mass Spectrum: Cyclopropane, (3-chloropropyl)methylene-
Formula: C7H11Cl
CAS: 126755-04-2
Molecular weight: 130
m/z	intensity
26	73
27	631
28	44
29	145
30	4
31	3
35	1
36	5
37	13
38	60
39	899
40	479
41	963
42	75
43	32
44	2
45	5
46	1
47	1
48	1
49	55
50	73
51	174
52	105
53	513
54	305
55	458
56	36
57	14
58	1
59	1
61	12
62	34
63	60
64	12
65	174
66	104
67	718
68	179
69	37
70	7
71	5
73	4
74	4
75	60
76	19
77	228
78	35
79	888
80	78
81	999
82	68
83	6
84	3
85	5
86	1
87	4
88	46
89	54
90	28
91	86
92	8
93	150
94	25
95	389
96	31
97	2
98	2
99	1
101	11
102	178
103	13
104	54
105	4
115	25
116	1
117	8
129	2
131	1
