Mass Spectrum: 1-Methyl-2-(1-(propylthio)propyl)disulfane
Formula: C7H16S3
CAS: 126876-21-9
Molecular weight: 196
m/z	intensity
26	1
27	20
29	4
33	1
34	1
35	1
37	1
38	3
39	39
40	4
41	216
42	10
43	193
44	7
45	89
46	23
47	100
48	5
49	5
51	1
53	1
55	6
56	1
57	4
58	11
59	18
60	5
61	10
63	2
64	16
65	2
66	3
67	1
68	1
69	8
70	1
71	20
72	19
73	94
74	36
75	409
76	19
77	25
78	7
79	57
80	12
81	6
82	1
83	2
84	1
85	3
87	5
90	1
93	2
96	1
97	4
98	3
103	3
104	2
105	8
106	6
107	3
111	5
112	5
113	47
114	4
115	3
116	4
117	999
118	71
119	47
120	4
121	7
122	2
125	2
130	2
136	2
145	5
167	1
196	1
