Mass Spectrum: Benzenesulfonic acid, 3-methyl-, ethyl ester
Formula: C9H12O3S
CAS: 126865-08-5
Molecular weight: 200
m/z	intensity
40	8
41	19
43	8
45	9
50	25
51	38
52	13
53	8
61	5
62	21
63	80
64	25
65	268
66	15
74	5
75	8
76	5
77	41
78	9
79	27
80	15
89	88
90	62
91	999
92	425
93	29
107	67
108	63
109	5
155	282
156	96
157	21
171	6
172	41
200	150
201	14
202	8
