Mass Spectrum: Disulfide, methyl 1-(1-propenylthio)propyl
Formula: C7H14S3
CAS: 126876-23-1
Molecular weight: 194
m/z	intensity
27	6
29	4
37	2
38	4
39	62
40	4
41	112
42	5
43	16
45	227
46	19
47	59
48	4
53	20
54	1
55	46
56	3
58	15
59	133
60	8
61	63
62	2
63	5
64	11
65	10
66	3
67	7
69	40
70	3
71	39
72	26
73	311
74	35
75	24
76	4
77	5
79	119
80	10
81	196
82	13
84	4
85	23
86	3
87	25
88	3
92	1
93	2
99	8
100	4
101	1
103	5
104	1
105	30
106	5
107	1
113	17
114	1
115	999
116	70
117	47
118	3
120	4
121	11
122	1
138	1
152	1
194	6
195	1
