Mass Spectrum: Fenhexamide
Formula: C14H17Cl2NO2
CAS: 126833-17-8
Molecular weight: 301
m/z	intensity
50	4
51	8
52	7
53	23
54	10
55	302
56	15
62	3
63	4
65	6
67	23
68	8
69	41
70	3
73	2
75	2
76	8
77	11
78	15
79	14
80	21
81	22
82	4
83	3
85	9
86	6
87	7
88	5
89	3
91	3
93	2
95	12
97	999
98	77
99	4
106	4
107	2
109	3
111	3
112	8
113	31
114	9
115	13
116	3
121	2
123	2
125	20
126	3
133	3
135	2
140	9
141	4
142	8
143	7
144	2
145	2
147	2
148	15
149	6
150	10
151	4
152	2
170	3
175	2
176	36
177	367
178	49
179	236
180	22
181	39
182	4
188	2
190	3
194	2
196	2
203	7
204	3
205	5
206	2
210	4
212	2
219	2
230	5
232	4
246	10
247	2
248	6
250	2
265	2
266	71
267	12
268	24
269	4
301	116
302	18
303	77
304	12
305	13
