Mass Spectrum: 3-Thiazolidinecarboxylic acid, 4-(acetyloxy)-2-(1,1-dimethylethyl)-, phenylmethyl ester, 1-oxide, [1R-(1.alpha.,2.beta.,4.beta.)]-
Formula: C17H23NO5S
CAS: 126990-62-3
Molecular weight: 353
m/z	intensity
26	5
27	36
28	17
29	58
30	3
31	3
35	2
37	2
38	8
39	102
40	11
41	138
42	24
43	318
44	10
45	19
46	10
47	5
48	9
49	2
50	16
51	48
52	20
53	19
54	25
55	35
56	7
57	64
58	13
59	12
60	3
61	2
62	9
63	39
64	15
65	170
66	11
67	5
68	22
69	27
70	12
71	2
73	4
74	6
75	7
76	5
77	52
78	13
79	16
80	5
81	2
82	5
83	2
84	4
85	5
86	7
87	4
88	3
89	36
90	26
91	999
92	77
93	4
94	8
95	3
96	15
99	3
100	4
105	14
106	2
107	12
108	8
109	2
110	11
111	13
112	8
114	5
126	3
133	2
134	2
149	2
158	12
159	6
162	2
176	10
181	7
220	4
225	5
250	3
267	1
294	1
353	0
