Mass Spectrum: Hydroxyurea
Formula: CH4N2O2
CAS: 127-07-1
Molecular weight: 76
m/z	intensity
31	136
32	115
33	999
34	7
35	1
40	1
41	13
42	36
43	111
44	662
45	11
46	1
55	1
56	1
57	1
58	1
59	14
60	7
70	1
71	1
73	1
76	24
77	3
