Mass Spectrum: Acetic acid, sodium salt
Formula: C2H3NaO2
CAS: 127-09-3
Molecular weight: 82
m/z	intensity
23	22
27	9
28	22
29	10
37	7
38	10
39	30
40	8
41	23
42	53
43	402
44	202
45	32
46	26
55	8
57	8
58	156
59	7
60	22
62	28
67	80
91	5
105	999
106	32
107	11
111	1
119	2
121	3
122	25
123	2
145	3
187	9
269	1
