Mass Spectrum: Fludrocortisone
Formula: C21H29FO5
CAS: 127-31-1
Molecular weight: 380
m/z	intensity
41	453
42	277
43	999
44	379
45	59
51	14
53	172
54	41
55	390
56	60
57	43
58	134
59	81
60	16
65	95
66	31
67	180
68	47
69	79
70	47
71	143
72	81
73	16
75	23
77	217
78	47
79	281
80	53
81	115
82	26
83	104
84	27
85	38
87	50
91	309
92	60
93	141
94	59
95	206
96	62
97	199
98	26
99	62
100	87
101	46
102	45
103	94
104	28
105	190
106	55
107	209
108	76
109	256
110	80
111	71
112	41
113	48
115	134
116	53
117	140
118	45
119	145
120	64
121	296
122	155
123	386
124	189
125	84
126	37
127	106
128	129
129	189
130	65
131	185
132	60
133	231
134	87
135	232
136	204
137	217
138	84
139	81
140	27
141	153
142	81
143	243
144	70
145	160
146	80
147	252
148	94
149	144
150	40
151	71
152	74
153	61
154	48
155	116
156	42
157	131
158	52
159	195
160	126
161	311
162	143
163	141
164	53
165	103
166	47
167	74
168	38
169	109
170	41
171	114
172	42
173	119
174	47
175	86
176	37
177	56
178	37
179	72
180	50
181	135
182	67
183	192
184	53
185	90
186	36
187	111
188	37
189	69
190	32
191	64
192	51
193	52
194	30
195	108
196	64
197	185
198	91
199	148
200	48
201	80
202	41
203	60
204	23
205	50
206	31
207	185
208	52
209	86
210	61
211	99
212	62
213	94
214	45
215	70
216	32
217	31
218	22
219	28
221	47
222	31
223	236
224	56
225	628
226	141
227	94
228	30
229	47
230	27
231	36
235	36
236	22
237	56
238	114
239	121
240	159
241	109
242	36
243	104
244	23
245	40
247	41
249	33
250	32
251	23
253	22
254	40
255	55
256	37
257	84
258	139
259	56
260	25
261	38
263	92
264	40
265	159
266	41
267	56
268	28
270	25
271	27
272	23
273	22
276	40
277	27
278	334
279	89
281	38
282	48
283	441
284	104
285	74
286	28
287	33
291	41
292	41
293	77
294	23
300	36
301	162
302	48
303	74
306	36
309	23
311	36
319	27
320	109
321	893
322	207
323	26
324	23
331	136
332	52
333	35
342	61
350	48
360	26
362	75
380	241
381	70
