Mass Spectrum: Sulfabenzamide
Formula: C13H12N2O3S
CAS: 127-71-9
Molecular weight: 276
m/z	intensity
27	6
28	8
29	2
30	1
31	1
37	2
38	9
39	51
40	5
41	14
42	5
43	1
44	2
45	3
48	2
49	2
50	27
51	85
52	22
53	13
54	7
55	2
61	2
62	7
63	27
64	26
65	201
66	24
67	3
68	2
69	3
70	2
71	1
73	4
74	7
75	12
76	19
77	322
78	25
79	6
80	34
81	7
82	2
83	1
84	1
85	2
86	1
87	1
88	1
89	2
90	7
91	15
92	168
93	16
94	2
95	2
96	1
97	1
98	1
102	1
103	15
104	46
105	513
106	40
107	23
108	133
109	999
110	70
111	4
112	2
115	1
116	1
118	9
119	2
121	6
122	3
123	5
124	5
125	5
126	1
127	1
129	1
134	2
138	1
139	2
140	20
141	3
151	1
152	1
153	1
154	2
155	1
156	45
157	4
158	2
165	1
166	2
167	2
168	1
169	1
173	19
174	2
175	1
176	1
177	1
178	1
181	2
182	2
183	1
186	1
193	1
198	1
211	1
212	29
213	4
276	57
277	10
278	3
