Mass Spectrum: Benzenesulfonamide, N,N-dibutyl-4-chloro-
Formula: C14H22ClNO2S
CAS: 127-59-3
Molecular weight: 303
m/z	intensity
12	2
13	2
15	152
17	203
18	627
19	4
20	1
25	2
26	33
27	547
28	293
29	976
30	306
31	10
32	5
34	2
35	4
36	13
37	9
38	25
39	187
41	839
42	758
43	423
44	139
45	23
46	1
47	2
48	8
49	10
50	190
51	107
52	9
53	23
54	31
55	136
56	127
57	330
58	25
59	10
60	4
61	17
62	9
63	29
64	17
65	10
66	2
67	4
68	15
69	20
70	55
71	8
72	25
73	29
74	80
75	459
76	141
77	52
78	6
79	6
80	2
81	4
82	8
83	9
84	174
85	57
86	86
87	27
88	2
89	5
90	1
91	5
92	2
93	8
94	3
95	8
96	6
97	3
98	6
99	40
100	10
101	14
102	3
103	2
104	3
105	7
106	1
107	3
108	15
109	8
111	999
112	106
113	304
114	27
115	7
116	1
117	3
118	1
119	4
120	2
123	1
124	4
125	7
126	6
127	25
128	36
129	10
130	3
131	40
132	4
133	15
134	1
135	1
138	2
139	3
140	18
141	4
142	4
143	6
144	3
145	3
146	1
149	3
150	6
151	5
152	10
153	2
154	1
156	7
157	1
159	267
160	21
161	94
162	7
163	4
168	1
169	1
173	2
175	607
176	47
177	214
178	15
179	9
183	6
184	1
186	4
188	1
192	1
204	43
205	4
206	15
207	1
218	324
219	33
220	116
221	10
222	6
225	3
244	1
246	1
248	1
258	1
260	368
261	48
262	131
263	16
264	6
286	17
287	2
288	12
289	2
290	2
303	16
304	4
305	6
306	1
