Mass Spectrum: 13-Hexyloxacyclotridec-10-en-2-one
Formula: C18H32O2
CAS: 127062-51-5
Molecular weight: 280
m/z	intensity
26	2
27	79
28	31
29	159
30	4
31	5
38	1
39	91
40	19
41	430
42	81
43	209
44	13
45	10
46	0
47	0
50	1
51	5
52	5
53	73
54	345
55	434
56	66
57	50
58	5
59	4
60	5
61	1
63	1
64	1
65	23
66	33
67	344
68	245
69	129
70	58
71	38
72	2
73	6
74	1
75	1
77	25
78	17
79	109
80	98
81	238
82	149
83	91
84	120
85	25
86	3
87	2
91	37
92	27
93	76
94	87
95	163
96	176
97	112
98	999
99	77
100	5
101	3
104	1
105	30
106	53
107	56
108	86
109	157
110	118
111	156
112	92
113	15
114	2
115	2
117	2
118	2
119	49
120	30
121	20
122	59
123	123
124	101
125	24
126	6
127	4
128	3
129	2
131	3
132	2
133	51
134	8
135	38
136	23
137	122
138	64
139	9
140	10
141	3
145	2
146	2
147	4
148	41
149	17
150	21
151	45
152	22
153	7
154	16
155	3
159	3
160	1
161	1
163	5
164	13
165	14
166	229
167	41
168	24
169	4
173	3
177	4
178	8
179	7
180	6
181	8
182	28
183	4
187	2
191	3
192	3
193	4
194	2
195	20
196	24
197	4
201	1
205	2
206	1
207	1
208	1
209	8
210	16
211	2
215	0
219	1
220	8
221	2
223	6
224	8
225	1
233	1
234	1
237	5
238	4
239	1
245	1
251	4
252	1
262	12
263	6
264	1
265	0
279	3
280	288
281	64
282	8
283	1
