Mass Spectrum: Butane-1,2,4-triol, 3-benzyloxy-
Formula: C11H16O4
CAS: 12700-44-6
Molecular weight: 212
m/z	intensity
26	1
27	7
29	9
30	1
31	26
37	0
38	2
39	27
40	2
41	12
42	7
43	30
44	4
45	7
46	0
47	1
49	0
50	5
51	18
52	6
53	2
54	0
55	5
56	4
57	11
58	2
59	1
60	9
61	94
62	5
63	18
64	5
65	83
66	6
69	3
70	74
71	5
72	0
73	7
74	4
75	2
76	1
77	26
78	7
79	31
80	3
85	0
86	0
87	2
88	7
89	21
90	17
91	999
92	279
93	27
94	1
103	10
104	5
105	24
106	8
107	134
108	28
109	2
115	0
116	7
117	2
118	1
119	0
120	1
121	8
122	2
123	0
125	1
131	0
132	0
133	2
134	42
135	5
136	0
137	2
145	0
146	1
147	0
150	1
151	24
152	2
163	9
164	3
165	0
181	4
182	0
194	0
212	8
213	2
214	0
