Mass Spectrum: Carbamic acid, N-(1-phenylethyl)-, [1-methyl-3-(trimethylsilyl)allyl] ester
Formula: C16H25NO2Si
CAS: 127029-35-0
Molecular weight: 291
m/z	intensity
27	21
28	16
29	9
31	14
39	24
41	16
42	55
43	69
44	26
45	70
46	5
47	10
50	12
51	43
52	12
53	26
54	12
55	21
56	5
57	12
58	42
59	227
60	33
61	37
62	7
63	9
67	8
68	5
69	22
70	12
71	21
72	12
73	999
74	138
75	227
76	24
77	137
78	40
79	93
80	8
81	9
82	6
83	47
84	10
85	82
86	15
87	19
88	9
89	8
91	26
92	5
93	5
95	19
96	7
97	57
98	11
99	204
100	31
101	36
102	12
104	50
105	765
106	140
107	12
109	11
110	4
111	135
112	40
113	25
116	99
117	32
118	111
119	18
120	102
121	14
126	17
127	101
128	72
129	274
130	37
131	15
132	118
133	11
134	5
135	9
142	7
143	158
144	209
145	33
146	17
147	43
148	9
149	16
150	31
158	52
159	9
160	32
161	5
162	10
164	85
165	12
166	13
172	70
173	12
174	5
176	5
178	11
186	7
188	5
192	530
193	100
194	30
206	3
220	64
221	17
222	14
232	15
233	4
236	278
237	52
238	16
262	8
276	9
291	8
