Mass Spectrum: 1,3,3-Trimethylcyclohex-1-ene-4-carboxaldehyde, (+,-)-
Formula: C10H16O
CAS: 127128-60-3
Molecular weight: 152
m/z	intensity
41	555
42	35
43	250
45	80
50	35
51	95
52	60
53	200
54	70
55	294
56	50
57	75
59	70
63	35
65	135
66	40
67	475
68	100
69	310
70	35
71	15
72	25
77	190
78	35
79	220
80	105
81	999
82	125
83	70
91	210
92	25
93	220
94	75
95	180
96	470
97	85
98	35
105	40
106	15
107	430
108	95
109	610
110	70
119	90
120	80
121	405
122	50
123	80
124	30
125	15
134	20
135	35
136	15
137	340
138	50
152	535
153	59
154	3
