Mass Spectrum: Propranolol methylboronate
Formula: C17H22BNO2
CAS: 127202-03-3
Molecular weight: 283
m/z	intensity
41	543
42	386
43	587
56	999
58	139
68	100
69	71
70	68
82	69
84	135
97	151
98	637
110	136
115	383
124	633
125	509
127	192
128	748
138	106
139	251
140	371
155	20
157	91
169	10
183	58
184	5
185	2
198	15
199	32
225	2
267	60
268	186
269	27
282	137
283	338
