Mass Spectrum: 1-Butanol, 2-iodo-
Formula: C4H9IO
CAS: 127201-28-9
Molecular weight: 200
m/z	intensity
25	3
26	48
27	365
28	25
29	321
30	20
31	868
33	4
36	2
37	14
38	30
39	243
40	47
41	394
42	167
43	557
44	70
45	72
46	1
47	0
49	2
50	10
51	9
52	4
53	34
54	2
55	999
56	59
57	15
58	0
61	0
62	0
63	0
64	0
66	1
67	1
68	1
69	3
70	2
71	17
72	16
73	519
74	23
75	1
77	0
79	0
80	0
82	0
84	0
90	0
93	0
94	0
96	0
98	0
104	0
106	0
115	0
127	104
128	107
129	3
133	0
134	0
139	0
140	1
141	21
142	2
143	0
144	0
152	0
153	2
154	13
155	29
156	0
157	0
158	3
168	0
169	0
170	0
199	0
200	0
