Mass Spectrum: Acebutolol methylboronate
Formula: C19H29BN2O4
CAS: 127201-98-3
Molecular weight: 360
m/z	intensity
41	374
43	999
54	46
56	474
68	72
69	63
71	61
82	72
84	63
96	64
97	59
98	232
110	116
123	253
124	950
125	117
138	345
139	317
140	315
150	24
151	97
162	4
165	7
175	8
176	36
177	5
202	8
218	3
221	26
222	19
230	18
245	42
246	347
247	35
257	11
260	3
274	3
275	12
299	219
300	132
301	20
316	4
317	49
345	20
346	4
