Mass Spectrum: Dodecane, 2,2,11,11-tetramethyl-
Formula: C16H34
CAS: 127204-12-0
Molecular weight: 226
m/z	intensity
26	1
27	20
28	2
29	94
30	1
37	0
38	0
39	16
40	4
41	221
42	20
43	152
44	5
51	0
52	0
53	7
54	4
55	75
56	556
57	999
58	50
59	0
65	1
66	0
67	8
68	3
69	42
70	16
71	145
72	8
77	0
78	0
79	1
80	0
81	3
82	2
83	19
84	15
85	97
86	5
87	0
91	0
93	0
95	1
96	0
97	6
98	2
99	45
100	3
109	0
110	11
111	5
112	13
113	33
114	2
124	0
125	2
126	1
127	21
128	2
139	0
141	15
142	1
153	0
154	0
155	10
156	1
166	0
168	20
169	5
170	0
210	0
211	9
212	1
