Mass Spectrum: Oxprenolol methylboronate
Formula: C16H24BNO3
CAS: 127202-01-1
Molecular weight: 289
m/z	intensity
41	997
42	368
43	553
56	999
68	148
69	125
70	100
82	146
84	166
96	157
98	442
100	252
109	72
110	130
124	330
125	352
126	114
134	195
138	370
139	152
140	323
147	64
148	18
154	35
175	20
187	7
189	6
190	7
204	15
205	3
217	130
218	544
219	53
231	58
232	187
233	19
248	5
259	11
260	39
261	5
273	54
274	532
275	63
288	23
289	79
