Mass Spectrum: 1-(Phenylmethylamino)-2-hydrazono-4-(p-tolyl)-pyrimidine
Formula: C18H19N5
CAS: 127252-16-8
Molecular weight: 305
m/z	intensity
12	4
14	9
15	74
16	30
17	42
18	53
26	16
27	82
28	152
29	26
30	61
31	6
37	8
38	27
39	212
40	42
41	48
42	48
43	162
44	8
50	61
51	310
52	75
53	63
54	22
55	44
56	8
57	8
61	5
62	25
63	106
64	57
65	218
66	42
67	26
68	13
69	38
70	7
71	5
74	17
75	32
77	999
78	180
79	190
80	21
81	6
83	45
84	6
85	3
86	6
87	12
88	18
89	108
90	76
91	287
92	63
93	42
94	41
95	5
100	6
101	27
102	52
103	73
104	303
105	288
106	262
107	107
108	11
109	6
113	18
114	32
115	302
116	157
117	194
118	164
119	34
120	7
121	12
122	5
123	4
126	15
127	65
128	136
129	89
130	142
131	53
132	46
133	10
139	5
140	55
141	28
142	87
143	87
144	58
145	34
146	17
147	6
153	18
154	18
155	88
156	32
157	95
158	130
159	383
160	43
167	29
168	25
169	111
170	104
171	113
172	78
173	26
181	5
182	20
184	441
185	469
186	614
187	79
188	7
194	6
196	8
197	4
199	200
200	352
201	56
202	5
210	5
211	5
213	24
214	5
218	5
229	3
231	5
232	3
234	3
245	11
246	14
247	19
248	5
260	35
261	11
262	6
272	2
273	2
274	8
275	21
276	13
277	2
287	16
289	89
290	46
291	16
292	2
305	262
306	55
307	5
