Mass Spectrum: 4H-1,2,4-Triazole-3-thiol, 5-[1-[4-(2-methylpropyl)phenyl]ethyl]-4-phenyl-
Formula: C20H23N3S
CAS: 127222-72-4
Molecular weight: 337
m/z	intensity
33	4
34	10
36	5
37	6
38	23
39	268
40	48
41	638
43	999
44	78
46	7
47	9
48	3
50	49
51	229
52	43
53	40
54	17
55	49
56	8
57	92
59	33
60	21
61	4
62	15
63	83
64	71
65	199
66	23
67	13
68	8
69	38
70	15
71	10
72	2
73	5
74	12
75	27
76	41
77	526
78	120
79	46
80	7
81	4
82	5
83	7
84	6
85	4
86	3
87	5
88	8
89	90
90	89
91	599
92	86
93	60
94	10
96	24
97	10
98	6
99	1
100	0
101	16
102	71
103	124
104	109
105	141
106	21
107	8
108	19
109	61
110	16
111	12
112	4
113	7
115	368
116	164
117	504
118	362
119	192
120	19
121	15
122	18
123	22
124	7
125	5
126	8
127	44
128	128
129	135
130	96
131	62
132	45
133	12
134	6
135	24
136	53
137	6
138	4
139	18
140	31
141	22
142	74
143	99
144	209
145	66
147	68
148	30
149	103
150	22
151	17
152	14
153	10
154	9
155	6
156	13
157	25
158	18
159	30
160	9
161	102
162	17
163	14
164	5
165	23
166	11
167	33
168	13
169	5
170	15
171	10
172	4
173	2
174	1
175	3
176	20
177	7
178	46
179	23
180	18
181	12
182	6
183	6
184	8
185	5
186	19
187	18
188	12
189	15
190	14
191	11
192	12
193	26
194	15
195	2
197	3
198	2
201	5
202	26
203	11
204	58
205	24
206	35
207	25
208	7
209	0
211	2
214	1
216	15
217	5
218	13
219	57
220	35
221	23
222	5
223	24
224	5
228	2
231	1
232	3
233	10
234	6
235	22
236	6
244	2
245	1
246	34
247	8
248	4
249	1
252	0
260	5
261	10
262	26
263	7
264	2
265	9
266	8
267	1
268	0
276	2
277	4
278	35
279	21
280	52
281	12
282	3
290	0
292	6
293	9
294	365
295	109
296	29
297	3
304	109
305	31
306	4
308	36
309	6
310	1
320	1
322	103
323	20
324	5
334	2
336	248
337	778
338	180
339	54
340	7
