Mass Spectrum: 2-Azetidinecarbothioic acid, 1-(phenylmethyl)-, S-phenyl ester, (S)-
Formula: C17H17NOS
CAS: 127382-21-2
Molecular weight: 283
m/z	intensity
27	19
28	12
39	62
41	23
42	45
45	8
50	13
51	35
54	8
55	12
63	26
65	148
66	12
69	18
77	18
89	25
90	23
91	999
92	78
109	82
110	15
117	23
146	748
147	77
