Mass Spectrum: Heptyl heptadecafluorononanoate
Formula: C16H15F17O2
CAS: 127392-53-4
Molecular weight: 562
m/z	intensity
27	37
28	38
29	95
30	3
31	3
39	53
41	430
42	222
43	359
44	16
45	8
47	2
50	2
51	3
52	2
53	22
54	53
55	467
56	620
57	999
58	52
59	2
61	5
65	5
67	46
68	150
69	553
70	519
71	44
72	1
77	5
78	7
79	13
80	4
81	34
82	16
83	131
84	8
85	3
93	12
95	6
96	9
97	44
98	317
99	30
100	77
101	2
109	17
112	2
119	120
125	2
131	196
132	5
143	73
144	6
150	10
162	9
169	162
170	4
181	41
193	2
219	54
220	2
231	28
269	3
281	5
331	8
419	38
420	3
449	5
465	2
491	2
505	5
