Mass Spectrum: Azetidine-2-carboxylic acid, 2-(.alpha.-hydroxybenzyl)-
Formula: C11H13NO3
CAS: 127382-25-6
Molecular weight: 207
m/z	intensity
25	2
26	31
27	100
28	192
29	49
30	391
31	13
37	11
38	25
39	101
40	15
41	47
42	69
43	55
44	60
45	94
46	6
49	9
50	102
51	242
52	73
53	41
54	400
55	376
56	178
57	18
58	6
59	4
60	2
61	10
62	33
63	81
64	21
65	54
66	8
67	5
68	7
69	3
70	6
71	5
72	54
73	15
74	42
75	39
76	38
77	657
78	156
79	423
80	30
81	3
82	98
83	58
84	14
85	8
86	8
87	10
88	8
89	88
90	61
91	162
92	26
93	3
94	2
98	2
99	5
100	223
101	999
102	65
103	59
104	126
105	290
106	125
107	235
108	23
113	5
114	8
115	158
116	127
117	167
118	331
119	112
120	22
121	4
127	7
128	8
129	8
130	13
131	27
132	68
133	91
134	74
135	7
141	5
142	4
143	19
144	78
145	94
146	32
147	3
149	6
150	3
151	9
155	2
159	4
160	17
161	15
162	29
163	17
164	3
172	4
173	3
177	16
178	15
179	2
188	2
189	10
207	13
208	3
