Mass Spectrum: N-Methylalanine, 2TMS derivative
Formula: C10H25NO2Si2
CAS: 127381-09-3
Molecular weight: 247
m/z	intensity
45	61
46	3
47	2
59	19
60	5
61	2
73	558
74	49
75	71
76	5
77	137
78	10
79	5
87	50
88	9
89	2
100	66
101	12
102	3
110	78
111	23
112	10
113	2
130	999
131	123
132	56
133	7
147	188
148	30
149	16
150	2
204	26
205	5
206	2
232	12
233	3
234	2
247	9
248	3
249	2
