Mass Spectrum: 2,2-Bis(trimethylsilyl)bicyclo[2.2.2]octa-2,5-diene
Formula: C14H26Si2
CAS: 127368-21-2
Molecular weight: 250
m/z	intensity
39	18
40	6
42	6
43	79
44	30
45	121
46	12
53	24
54	3
55	18
57	12
58	18
59	58
67	18
69	15
73	642
74	58
75	27
77	30
78	33
79	79
80	999
81	73
82	12
83	36
88	24
91	12
93	18
95	12
96	21
103	12
104	25
105	15
107	11
119	35
120	6
121	24
123	7
131	11
133	23
134	30
135	85
136	18
137	9
146	9
147	91
148	18
149	12
155	145
156	27
157	18
161	42
162	91
163	27
164	7
171	67
172	21
173	6
175	24
176	54
177	45
178	12
235	54
236	18
237	7
250	158
251	40
252	15
253	2
