Mass Spectrum: 2,7-Bis(spirocyclopropane)bicyclo[2.2.1]heptan-5-one
Formula: C11H14O
CAS: 127430-05-1
Molecular weight: 162
m/z	intensity
25	3
26	42
27	312
28	141
29	57
30	2
31	2
32	28
36	3
37	8
38	38
39	425
40	89
41	284
42	39
43	35
44	3
45	5
46	2
47	1
49	4
50	57
51	157
52	98
53	151
54	55
55	90
56	13
57	50
58	14
59	5
60	1
61	4
62	15
63	51
64	23
65	140
66	129
67	137
68	25
69	20
70	8
71	5
72	1
73	3
74	7
75	16
76	7
77	333
78	154
79	999
80	294
81	67
82	14
83	11
84	2
85	2
86	3
87	4
88	1
89	22
90	10
91	434
92	189
93	374
94	294
95	48
96	6
97	3
98	1
99	3
101	2
102	5
103	36
104	35
105	295
106	122
107	189
108	66
109	11
110	4
111	2
113	1
115	15
116	7
117	35
118	23
119	125
120	89
121	83
122	9
123	3
124	1
125	1
126	2
127	4
128	5
129	9
130	3
131	6
132	3
133	40
134	28
135	17
136	155
137	17
138	2
139	1
141	1
142	1
143	3
144	4
145	4
146	1
147	15
148	5
149	3
158	1
159	2
160	1
161	5
162	40
163	6
164	2
