Mass Spectrum: 2-Azaspiro[5.5]undecane, 2-(2-propynyl)-
Formula: C13H21N
CAS: 127532-51-8
Molecular weight: 191
m/z	intensity
33	9
34	2
35	24
36	154
39	333
40	96
41	275
42	169
43	43
44	67
45	3
50	5
51	15
52	24
53	62
54	55
55	93
56	30
57	20
58	18
59	1
61	1
62	1
63	4
64	5
65	33
66	37
67	115
68	98
70	39
71	1
72	2
75	1
77	36
79	57
80	48
82	999
83	53
84	6
90	1
91	14
92	17
93	40
94	156
95	90
96	24
97	7
104	2
105	7
106	11
107	19
108	53
110	35
111	12
112	1
116	0
117	1
118	5
120	27
121	13
122	14
123	5
124	3
126	0
128	0
132	4
133	5
134	29
135	8
136	9
137	2
138	1
139	0
141	1
144	0
145	1
146	2
148	50
149	11
150	11
152	32
153	3
160	0
161	0
162	18
163	9
164	4
165	3
166	6
167	3
176	20
177	2
178	0
190	59
191	83
192	12
