Mass Spectrum: 1-Allyl-1-but-3-enyl-1-silacyclobutane
Formula: C10H18Si
CAS: 127597-51-7
Molecular weight: 166
m/z	intensity
39	80
41	50
42	60
43	460
44	30
45	60
55	230
56	55
57	70
58	25
59	38
66	19
67	60
68	25
69	219
70	50
71	263
81	47
82	105
83	390
84	52
85	25
93	19
95	110
96	150
97	999
98	100
99	40
109	20
110	82
111	30
124	15
125	350
126	13
138	145
139	25
166	1
