Mass Spectrum: 4-Epipallensin
Formula: C15H20O4
CAS: 1275525-60-4
Molecular weight: 264
m/z	intensity
26	14
27	115
28	33
29	192
30	5
31	16
38	7
39	297
40	60
41	424
42	99
43	596
44	24
46	3
50	16
51	88
52	47
53	243
54	82
55	911
56	61
62	8
63	47
64	18
65	198
66	51
67	206
68	211
69	312
70	268
71	87
74	19
75	65
76	16
77	351
78	69
79	272
80	56
81	284
82	75
83	96
85	43
89	27
90	6
91	443
92	58
93	436
94	87
95	249
97	169
98	999
99	61
103	50
104	21
105	276
106	49
107	321
108	54
109	330
110	46
111	186
115	63
116	38
117	96
118	31
119	196
120	47
121	307
122	113
123	154
124	79
125	117
128	26
129	51
130	31
131	103
132	38
133	126
134	48
135	84
137	174
138	36
139	62
141	19
142	23
143	52
144	34
145	135
146	32
147	167
148	52
149	130
150	50
151	35
152	32
153	35
154	20
157	100
158	45
159	100
160	29
161	136
162	42
163	115
164	26
165	40
166	16
167	88
168	22
170	10
171	22
172	24
173	65
174	27
175	295
176	68
177	41
178	14
179	20
184	4
185	168
186	37
187	44
189	21
190	55
191	72
193	47
194	15
195	12
200	11
202	18
203	398
204	64
205	13
208	11
213	24
218	32
221	69
231	242
232	41
236	16
246	26
247	9
249	995
250	233
251	23
264	270
265	40
