Mass Spectrum: .alpha.-D-Lyxofuranoside, methyl, cyclic 2,3-(ethylboronate) 5-acetate
Formula: C10H17BO6
CAS: 127619-20-9
Molecular weight: 244
m/z	intensity
26	14
27	65
28	20
29	96
30	5
31	33
32	0
33	23
37	1
38	4
39	54
40	21
41	62
42	45
43	999
44	40
45	185
46	4
47	1
50	1
51	3
52	7
53	19
54	27
55	83
56	24
57	139
58	144
59	27
60	2
61	38
62	1
63	0
65	2
66	3
67	9
68	69
69	82
70	50
71	49
72	4
73	29
74	14
75	9
77	1
78	2
79	1
80	1
81	12
82	19
83	75
84	18
85	65
86	66
87	35
88	2
89	1
90	2
94	1
95	23
96	78
97	32
98	88
99	107
100	12
101	6
103	15
104	1
108	3
109	13
110	114
111	455
112	113
113	273
114	16
115	6
116	0
117	2
121	1
122	4
123	83
124	335
125	63
126	12
127	24
128	6
129	3
130	0
137	7
138	33
139	7
140	37
141	228
142	430
143	36
144	4
151	1
152	4
153	10
154	32
155	119
156	22
157	2
166	1
169	1
170	13
171	47
172	4
173	1
183	25
184	97
185	11
186	1
211	0
212	12
213	40
214	4
215	1
