Mass Spectrum: 3,5-Dibromo-N,N-dimethyl-4-nitroaniline
Formula: C8H8Br2N2O2
CAS: 1276583-73-3
Molecular weight: 322
m/z	intensity
30	175
37	39
38	32
39	53
40	27
41	55
42	475
43	57
44	65
46	73
49	13
50	78
51	102
52	36
53	17
54	13
55	15
56	6
57	3
59	17
61	90
62	332
63	84
64	30
65	75
66	57
67	10
68	32
69	20
72	15
73	72
74	324
75	208
76	292
77	124
78	34
79	36
80	34
81	25
82	25
85	4
86	18
87	55
88	172
89	57
90	81
91	115
92	28
93	19
94	8
95	27
96	1
98	3
99	11
100	15
101	13
102	118
103	626
104	66
105	68
106	140
107	15
108	2
109	1
114	4
115	9
116	40
117	333
118	999
119	144
120	46
121	3
122	35
126	1
127	2
128	12
129	8
130	13
131	7
132	5
133	4
134	5
136	2
140	4
141	70
142	14
143	64
144	15
145	5
146	8
152	5
153	27
154	16
155	45
156	55
157	27
158	45
159	9
166	3
167	5
168	7
169	17
170	70
171	18
172	61
173	7
180	3
181	5
182	106
183	14
184	105
185	74
186	8
187	74
188	7
195	3
196	77
197	70
198	77
199	70
200	6
261	7
263	14
264	6
265	7
266	13
268	6
292	135
293	19
294	267
295	38
296	129
297	18
322	168
323	21
324	337
325	44
326	167
327	21
