Mass Spectrum: 4,7,7-Trimethyl-3-oxo-2-oxa-bicyclo[2.2.1]heptane-1-carboxylic acid, 1-methyl-heptyl ester
Formula: C18H30O4
CAS: 127708-82-1
Molecular weight: 310
m/z	intensity
26	10
27	117
28	176
29	239
30	6
31	3
33	29
38	5
39	98
40	25
41	635
42	136
43	498
44	26
45	17
50	5
51	14
52	10
53	72
54	37
55	522
56	127
57	657
58	30
59	6
60	2
63	5
64	2
65	22
66	10
67	144
68	51
69	219
70	136
71	472
72	27
73	2
77	39
78	8
79	56
80	9
81	57
82	96
83	858
84	81
85	17
86	3
87	7
88	34
89	4
90	2
91	43
92	10
93	88
94	26
95	96
96	30
97	227
98	20
99	5
100	3
105	8
106	6
107	98
108	48
109	999
110	89
111	78
112	77
113	22
114	5
115	4
117	3
119	3
120	2
121	15
122	21
123	24
124	59
125	414
126	40
127	45
128	7
129	9
133	2
134	8
135	11
136	30
137	92
138	16
139	558
140	51
141	17
142	21
143	8
149	6
150	8
151	20
152	454
153	298
154	297
155	105
156	13
157	1
162	23
163	4
164	6
167	3
168	3
169	22
170	186
171	23
172	3
180	7
181	103
182	14
183	3
197	46
198	31
199	63
200	9
250	2
251	51
252	9
264	182
265	34
266	4
267	5
282	21
283	4
310	9
