Mass Spectrum: Benzimidazol-2(3H)-one, 1-amino-3-methyl-
Formula: C8H9N3O
CAS: 127845-09-4
Molecular weight: 163
m/z	intensity
33	23
34	2
37	96
38	163
39	272
40	94
41	69
42	109
43	35
44	35
45	5
46	1
48	1
50	304
51	409
52	172
53	27
54	15
55	8
56	13
58	13
60	3
61	39
62	74
63	184
64	219
65	289
66	62
67	22
68	6
72	0
73	13
74	64
75	64
77	572
78	211
79	108
80	35
82	25
87	10
88	18
90	126
91	150
92	264
93	31
94	4
101	2
102	23
103	17
104	62
105	71
106	108
107	23
108	1
116	1
119	999
120	48
121	2
131	0
132	1
133	8
134	10
135	1
145	17
146	26
147	220
148	85
149	4
161	33
163	651
164	46
165	2
