Mass Spectrum: Boron, ethyl[1-ethyl-2-[dimethyl(methylthio)silyl]-1-propenyl-C,S](methanethiolato)-, (t-4)-
Formula: C11H25BS2Si
CAS: 127880-41-5
Molecular weight: 260
m/z	intensity
26	2
27	19
29	26
31	18
37	12
38	0
39	16
41	51
43	83
45	36
46	4
47	12
48	3
49	1
50	13
51	43
52	8
53	26
54	2
55	11
56	0
57	14
58	57
59	466
60	32
61	35
62	3
63	6
64	7
65	27
66	3
67	20
68	4
69	38
70	6
71	24
72	9
73	80
74	7
75	76
76	11
77	111
78	7
79	19
80	1
81	18
82	6
83	108
84	12
85	29
86	12
87	61
88	5
89	35
90	20
91	116
92	11
93	13
94	2
95	21
96	3
97	205
98	26
99	20
100	3
101	12
102	1
103	7
104	2
105	999
106	84
107	79
108	8
109	32
110	6
111	124
112	16
113	10
114	5
115	13
116	1
117	7
118	1
119	131
120	14
121	12
122	8
123	12
124	3
125	61
126	33
127	13
128	3
129	29
130	4
131	6
132	2
133	2
134	1
135	6
136	6
137	159
138	18
139	23
140	13
141	8
142	2
143	13
144	2
145	2
147	2
149	1
150	0
151	4
152	1
153	6
154	10
155	44
156	7
157	12
158	2
159	3
160	1
161	0
163	1
164	3
165	2
166	1
167	3
168	7
169	32
170	5
171	10
172	1
173	2
175	1
176	1
177	1
181	2
182	13
183	32
184	222
185	909
186	138
187	68
188	7
189	3
196	2
197	7
198	6
199	3
200	3
201	10
202	2
203	2
206	1
211	2
212	238
213	992
214	171
215	84
216	15
217	16
218	6
219	10
220	2
221	1
226	1
227	7
228	1
229	1
230	150
231	640
232	117
233	82
234	10
235	3
244	1
245	4
246	1
256	1
257	3
259	3
260	8
261	2
