Mass Spectrum: 1-Benzoyl-4,5-dihydro-3,4,4,5,5-pentamethyl-1H-pyrazole
Formula: C15H20N2O
CAS: 127958-30-9
Molecular weight: 244
m/z	intensity
38	0
39	20
40	4
41	59
42	57
43	6
44	0
50	10
51	54
52	4
53	10
54	2
55	13
56	12
57	9
58	6
62	0
63	1
64	0
65	2
66	1
67	7
68	4
69	10
70	1
72	0
74	2
75	3
76	11
77	341
78	25
79	4
80	0
81	11
82	8
83	14
84	3
85	29
86	1
89	0
90	0
91	1
92	0
93	0
94	0
95	3
96	2
97	1
98	2
102	0
103	1
104	7
105	999
106	110
107	6
108	2
109	4
110	0
111	3
112	0
115	0
116	0
117	0
118	1
119	0
120	1
122	3
123	3
124	1
125	2
126	0
128	0
129	0
130	0
131	0
137	0
139	36
140	2
142	0
143	0
144	1
145	9
146	0
147	0
149	0
158	0
159	2
160	2
161	4
162	0
172	0
173	0
185	0
186	0
187	0
188	54
189	7
190	0
200	0
201	2
202	0
203	0
213	4
214	0
215	0
227	0
228	0
229	406
230	66
231	5
232	0
243	3
244	303
245	54
246	4
247	0
