Mass Spectrum: 1,3-Benzenediol, 4-[2-(dimethylaminomethyl)phenylthio]-
Formula: C15H17NO2S
CAS: 127906-20-1
Molecular weight: 275
m/z	intensity
39	190
40	20
41	90
42	500
43	140
44	420
45	250
46	90
47	10
50	50
51	150
52	60
53	90
54	20
55	110
56	20
57	60
58	999
59	40
62	40
63	130
64	50
65	130
66	20
68	20
69	200
70	30
71	30
76	20
77	10
78	70
79	60
80	20
81	40
82	40
83	20
84	30
85	50
89	120
90	50
91	300
92	40
95	20
97	20
108	20
109	40
110	110
111	20
112	20
113	50
114	20
115	110
116	30
117	50
118	50
120	20
121	130
122	80
123	60
124	20
127	20
128	60
129	30
131	50
132	420
133	70
134	120
135	50
139	20
141	50
142	20
147	50
149	20
150	330
151	70
152	50
153	30
161	20
163	20
164	490
165	590
166	140
167	40
168	20
169	30
171	50
173	20
183	20
184	40
185	20
187	60
197	90
198	20
201	30
213	60
229	180
230	70
231	40
260	70
274	30
275	350
276	80
277	20
