Mass Spectrum: Propanamide, 3,3-difluoro-N-phenyl-
Formula: C9H9F2NO
CAS: 127977-40-6
Molecular weight: 185
m/z	intensity
26	15
27	17
28	4
29	2
30	2
31	7
33	2
36	2
37	17
38	28
39	128
40	16
41	13
42	7
43	34
44	5
45	43
46	7
47	1
48	0
49	3
50	22
51	73
52	20
53	6
54	6
55	2
57	0
60	1
61	4
62	9
63	36
64	35
65	190
66	128
67	19
68	1
71	0
72	1
73	64
74	8
75	6
76	5
77	52
78	8
79	1
83	0
85	0
86	0
87	0
88	1
89	1
90	3
91	20
92	53
93	999
94	151
95	9
96	0
97	0
99	0
102	0
103	1
104	2
105	0
106	2
107	0
109	2
110	0
112	0
116	1
117	1
118	1
119	7
120	32
121	4
122	0
123	1
124	1
127	0
133	0
134	0
135	1
136	2
137	3
138	0
144	0
146	0
149	0
156	0
162	0
164	1
165	17
166	3
167	0
184	1
185	200
186	36
187	2
