Mass Spectrum: Ekatetrone
Formula: C19H13NO7
CAS: 12794-19-3
Molecular weight: 367
m/z	intensity
44	220
59	999
139	210
252	70
253	50
263	50
265	50
281	350
291	540
309	850
322	90
349	60
350	120
367	160
