Mass Spectrum: Butanamide, 3-chloro-4,4,4-trifluoro-N-phenyl-
Formula: C10H9ClF3NO
CAS: 127977-44-0
Molecular weight: 251
m/z	intensity
27	32
28	6
29	1
30	0
31	1
33	2
35	0
36	1
37	3
38	14
39	75
40	10
41	9
42	3
43	1
44	5
45	1
46	2
49	2
50	11
51	49
52	13
53	3
54	5
55	2
57	0
58	0
59	0
60	0
61	6
62	5
63	20
64	23
65	103
66	50
67	61
68	0
69	42
70	0
71	0
73	1
74	2
75	6
76	5
77	63
78	6
79	0
80	0
81	5
83	1
84	0
85	9
87	3
88	0
89	1
90	2
91	16
92	45
93	999
94	79
95	13
96	2
97	0
98	0
102	0
103	0
104	2
105	1
106	1
107	0
109	0
111	2
113	1
116	0
117	1
118	2
119	7
120	17
121	1
123	9
124	0
128	0
129	0
130	0
131	59
132	2
133	18
134	0
146	3
147	0
148	0
159	8
160	0
161	2
166	0
174	0
194	0
196	0
197	0
214	0
215	8
216	1
217	0
232	8
233	0
234	3
250	1
251	141
252	20
253	53
254	6
255	0
