Mass Spectrum: Hexanediamide, N,N'-diphenyl-3,4-bis(trifluoromethyl)-
Formula: C20H18F6N2O2
CAS: 127977-43-9
Molecular weight: 432
m/z	intensity
26	0
30	0
33	0
37	0
38	2
39	16
42	1
46	0
47	0
50	3
51	14
52	3
59	2
62	0
63	4
64	8
65	60
66	45
73	1
75	2
76	4
77	92
78	9
83	0
89	2
90	2
91	12
92	76
93	999
94	213
95	2
96	4
97	1
101	4
102	1
103	4
104	7
105	0
106	7
107	0
108	0
109	1
112	0
113	3
115	0
116	0
117	5
118	4
119	9
120	67
121	3
122	1
123	28
124	1
125	1
127	8
128	2
129	0
130	5
132	4
133	6
134	18
135	209
136	20
137	1
138	0
139	1
140	0
141	0
143	0
144	0
145	3
146	4
147	0
148	10
149	4
150	0
151	13
152	1
153	1
154	2
155	1
156	1
157	0
158	0
159	0
161	0
166	0
167	1
168	2
169	0
171	18
172	2
174	3
176	0
177	4
178	1
179	2
180	1
182	0
183	2
184	1
185	2
186	0
187	1
188	0
191	1
194	1
195	0
196	2
197	5
198	6
199	9
200	3
201	0
202	0
203	0
204	2
205	0
206	0
207	1
208	0
209	0
210	0
211	1
212	1
213	0
214	2
215	3
216	31
217	27
218	3
219	1
220	1
221	1
222	1
223	0
224	11
225	2
226	3
227	3
228	0
229	0
230	9
231	0
232	1
241	0
242	13
243	1
244	6
245	0
247	13
248	1
250	2
251	0
252	9
253	2
254	1
255	0
256	1
257	0
258	0
262	1
268	1
270	4
271	1
272	19
273	3
274	5
275	1
276	1
278	0
280	0
282	1
284	1
290	5
291	6
292	29
293	4
294	12
295	2
296	2
297	0
298	4
299	0
300	3
301	0
302	3
303	1
310	4
311	4
312	57
313	8
314	0
318	1
319	2
320	12
321	1
322	5
323	1
338	8
339	2
340	67
341	10
342	1
343	1
344	0
345	0
352	0
363	1
372	3
373	3
374	0
392	1
393	0
394	0
395	0
412	2
413	2
414	0
432	148
433	34
434	5
