Mass Spectrum: Butanamide, 4,4,4-trifluoro-N-phenyl-
Formula: C10H10F3NO
CAS: 127977-39-3
Molecular weight: 217
m/z	intensity
26	4
27	55
29	0
30	0
31	0
33	8
37	1
38	7
39	34
41	2
42	3
43	0
44	0
45	0
46	0
47	5
50	3
51	19
52	4
53	1
54	2
55	3
61	0
62	1
63	7
64	9
65	42
66	31
67	2
69	14
73	0
74	1
75	2
76	2
77	62
78	4
79	1
80	0
88	0
89	1
90	1
91	13
92	38
93	999
94	77
95	4
96	0
97	82
98	2
99	0
101	0
102	0
103	0
104	6
106	2
107	0
109	0
115	0
117	0
118	1
119	10
120	19
121	1
122	0
123	1
124	0
125	63
126	2
127	0
128	0
130	3
131	0
132	5
133	1
134	0
135	0
137	0
146	0
148	4
149	0
150	1
151	0
154	0
165	0
168	0
174	0
178	2
179	0
188	1
196	1
197	6
198	30
199	3
200	0
216	2
217	328
218	37
219	2
