Mass Spectrum: 1-Benzoyl-4,5-dihydro-4,4,5-trimethyl-3,5-diphenyl-1H-pyrazole
Formula: C25H24N2O
CAS: 127958-32-1
Molecular weight: 368
m/z	intensity
38	0
39	2
40	0
41	7
42	3
44	1
45	0
50	2
51	28
52	2
53	7
55	0
63	4
64	0
65	6
69	0
74	2
75	2
76	16
77	347
78	34
79	5
81	0
83	0
87	1
88	0
89	8
90	0
91	70
92	3
96	0
97	0
99	0
101	2
102	8
103	36
104	124
105	999
106	79
107	4
114	0
115	34
116	29
117	7
118	37
119	11
120	3
121	1
126	1
127	9
128	24
129	26
130	13
131	30
132	7
133	1
137	0
139	0
141	11
142	10
143	9
144	101
145	62
146	13
147	189
148	14
149	0
150	0
151	0
152	4
153	0
155	0
156	2
157	7
158	6
159	3
160	16
161	1
163	1
164	0
165	9
166	6
167	0
170	0
171	0
172	2
175	0
176	1
177	1
178	13
179	5
180	0
181	0
185	1
187	1
188	1
189	7
190	2
191	7
192	3
193	3
196	0
201	1
202	18
203	17
204	18
205	27
206	13
207	45
208	6
209	0
214	0
215	2
216	0
217	1
218	3
219	12
220	11
221	4
222	4
223	3
224	0
225	0
231	0
232	7
234	6
235	9
236	1
243	0
244	1
246	4
247	3
248	6
249	7
250	468
251	87
252	10
261	1
262	0
263	171
264	43
265	7
266	1
267	1
273	0
275	0
276	0
277	0
281	0
288	0
291	31
292	7
304	1
312	0
336	0
337	1
338	1
339	0
340	0
341	0
342	0
349	0
352	0
353	154
354	48
355	4
366	0
368	673
369	171
370	25
371	0
