Mass Spectrum: Nopyl acetate
Formula: C13H20O2
CAS: 128-51-8
Molecular weight: 208
m/z	intensity
27	87
28	51
29	47
30	1
31	10
32	5
37	1
38	3
39	86
40	14
41	193
42	13
43	517
44	14
45	3
50	5
51	27
52	14
53	54
54	8
55	68
56	6
57	6
58	1
59	2
60	0
61	4
62	2
63	8
64	3
65	35
66	12
67	42
68	17
69	33
70	5
71	1
72	0
73	4
74	1
75	2
76	1
77	92
78	37
79	140
80	42
81	24
82	10
83	5
84	1
85	0
87	1
88	1
89	2
90	4
91	176
92	98
93	97
94	16
95	9
96	2
97	1
98	0
101	1
102	2
103	24
104	142
105	999
106	134
107	40
108	4
109	3
110	0
111	0
115	8
116	4
117	16
118	8
119	57
120	55
121	28
122	3
123	2
128	1
129	2
130	1
131	9
132	4
133	215
134	26
135	6
136	2
141	0
145	1
146	1
147	10
148	154
149	21
150	2
161	0
163	0
165	2
166	0
208	1
