Mass Spectrum: Ursodeoxycholic acid
Formula: C24H40O4
CAS: 128-13-2
Molecular weight: 392
m/z	intensity
12	1
13	1
14	6
15	14
16	6
17	4
18	16
25	3
26	19
27	139
28	86
29	286
30	10
31	44
32	5
34	3
35	2
36	20
37	3
38	7
39	144
40	33
41	727
42	52
43	277
44	24
45	47
46	1
47	3
49	1
50	8
51	34
52	18
53	215
54	52
55	999
56	63
57	145
58	15
59	91
60	72
61	6
62	3
63	11
64	5
65	93
66	43
67	635
68	161
69	334
70	92
71	74
72	9
73	33
74	13
75	6
76	7
77	270
78	69
79	618
80	144
81	841
82	154
83	212
84	49
85	130
86	11
87	10
88	4
89	11
90	6
91	552
92	147
93	783
94	551
95	775
96	156
97	109
98	29
99	74
100	10
101	66
102	24
103	57
104	42
105	653
106	311
107	599
108	288
109	493
110	108
111	89
112	22
113	16
114	17
115	84
116	39
117	171
118	160
119	456
120	280
121	430
122	262
123	188
124	62
125	68
126	21
127	61
128	79
129	113
130	52
131	315
132	153
133	381
134	201
135	304
136	99
137	123
138	202
139	193
140	239
141	152
142	59
143	174
144	83
145	479
146	190
147	397
148	261
149	172
150	59
151	46
152	141
153	85
154	31
155	85
156	40
157	218
158	153
159	368
160	211
161	287
162	186
163	137
164	44
165	61
166	20
167	35
168	24
169	54
170	24
171	145
172	89
173	214
174	145
175	133
176	88
177	81
178	75
179	53
180	24
181	106
182	31
183	51
184	21
185	131
186	64
187	131
188	56
189	90
190	39
191	44
192	49
193	50
194	194
195	88
196	28
197	66
198	28
199	182
200	90
201	263
202	116
203	73
204	35
205	36
206	20
207	53
208	33
209	34
210	17
211	53
212	32
213	384
214	147
215	237
216	103
217	139
218	44
219	42
220	24
221	32
222	17
223	21
224	12
225	27
226	25
227	81
228	303
229	168
230	49
231	128
232	183
233	80
234	109
235	102
236	64
237	34
238	21
239	32
240	19
241	59
242	49
243	23
244	17
245	27
246	232
247	84
248	80
249	61
250	54
251	34
252	16
253	70
254	31
255	273
256	76
257	19
258	9
259	13
260	52
261	50
262	53
263	27
264	140
265	45
266	16
267	26
268	11
269	13
270	8
271	17
272	8
273	49
274	43
275	15
276	29
277	12
278	28
279	16
280	18
281	18
282	23
283	31
284	24
285	17
286	9
287	18
288	12
289	17
290	45
291	13
292	7
293	9
294	8
295	26
296	11
297	9
298	7
299	20
300	22
301	37
302	90
303	27
304	10
305	12
306	8
307	5
308	9
309	5
310	27
311	8
312	7
313	11
314	13
315	25
316	15
317	7
318	9
319	5
320	13
321	8
322	6
323	22
324	8
325	4
326	3
327	8
328	10
329	4
330	4
331	3
332	4
333	3
334	4
335	2
336	7
337	4
338	26
339	17
340	8
341	145
342	39
343	9
344	3
345	3
346	2
347	2
348	2
349	1
350	2
351	1
352	3
353	1
354	9
355	8
356	251
357	68
358	16
359	23
360	8
361	2
362	1
363	1
368	1
369	1
370	4
371	2
372	8
373	4
374	89
375	22
376	4
377	1
390	1
392	30
393	9
394	1
