Mass Spectrum: 1,3-Dihydro-1,1-diphenyl-3-(p-tolylimino)benzo[c]thiophene
Formula: C27H21NS
CAS: 128044-46-2
Molecular weight: 391
m/z	intensity
35	14
39	476
41	164
43	8
45	244
47	21
51	811
52	69
53	25
57	15
58	13
63	295
65	999
69	63
70	13
71	12
74	58
75	53
77	710
78	211
79	81
81	34
83	14
86	52
89	241
91	527
92	40
94	11
95	10
97	31
99	9
102	33
104	35
106	17
108	44
109	22
111	8
113	33
115	50
116	27
117	9
120	179
123	51
124	8
126	35
127	10
128	9
133	17
136	31
139	54
140	19
141	9
146	66
148	93
150	22
151	25
152	39
153	15
154	9
156	84
163	78
165	303
166	28
171	9
174	15
176	11
177	10
178	13
187	20
189	104
191	16
192	16
193	9
194	8
195	11
196	9
197	22
200	9
201	8
202	10
213	14
214	8
215	9
222	15
224	15
225	14
226	22
227	9
237	34
239	74
240	25
241	17
250	16
251	13
252	30
253	13
254	11
264	18
265	12
266	27
267	37
268	19
299	9
300	9
311	13
313	21
314	28
390	44
391	54
392	14
