Mass Spectrum: trans-3-Phenyl-4-(4-Chlorophenyl)-5-nitro-2-isoxazoline
Formula: C15H11ClN2O3
CAS: 128097-80-3
Molecular weight: 302
m/z	intensity
50	270
51	690
52	90
61	40
62	170
63	400
64	70
65	40
73	100
74	80
75	150
76	190
77	620
78	50
86	50
87	80
88	80
89	860
90	190
99	80
101	40
102	30
103	130
104	810
114	70
115	40
116	60
123	150
124	160
125	999
126	120
127	290
150	130
151	30
152	110
153	250
154	50
155	90
165	170
166	40
190	50
191	50
192	110
193	210
194	30
227	220
228	130
229	90
230	40
255	240
256	380
257	140
258	140
259	25
