Mass Spectrum: 2,8-Nonadienamide, N-phenyl-
Formula: C15H19NO
CAS: 128039-94-1
Molecular weight: 229
m/z	intensity
26	0
27	42
29	25
30	1
37	0
38	2
39	66
41	127
42	5
43	15
50	1
51	11
52	4
53	36
54	10
55	228
56	7
57	2
62	0
63	4
64	6
65	47
66	27
67	211
68	34
69	16
70	0
71	0
74	0
75	0
76	1
77	47
78	4
79	23
80	5
81	59
82	6
83	2
84	0
86	0
89	0
90	1
91	32
92	40
93	999
94	77
95	72
96	5
97	0
98	0
102	0
103	1
104	6
105	2
106	5
107	5
108	3
109	72
110	15
111	1
115	2
116	1
117	10
118	5
119	19
120	22
121	4
122	0
123	0
127	0
128	1
129	0
130	8
131	2
132	7
133	4
134	6
135	67
136	19
137	68
138	8
139	2
140	0
142	0
143	1
144	2
145	1
146	38
147	5
148	7
149	3
150	0
156	0
157	0
158	2
159	3
160	6
161	39
162	5
163	0
168	0
170	0
171	0
172	26
173	7
174	24
175	6
176	0
186	60
187	22
188	11
189	1
198	0
199	0
200	5
201	1
212	0
214	5
215	0
227	0
228	23
229	140
230	25
