Mass Spectrum: Thiazolium, 5-hydroxy-3-methyl-2-phenyl-, hydroxide, inner salt
Formula: C10H9NOS
CAS: 1280-28-0
Molecular weight: 191
m/z	intensity
50	60
51	170
69	60
77	430
78	50
118	999
119	100
121	619
122	70
123	30
163	420
164	50
165	30
191	470
192	60
193	30
