Mass Spectrum: trans-3-Phenyl-4-(3-methylphenyl)-5-nitro-2-isoxazoline
Formula: C16H14N2O3
CAS: 128097-78-9
Molecular weight: 282
m/z	intensity
50	170
51	540
52	120
53	70
62	60
63	200
64	60
65	120
74	50
75	90
76	160
77	830
78	380
79	190
89	140
90	80
91	110
102	120
103	700
104	500
105	999
106	130
115	60
116	50
130	150
131	50
132	80
133	240
165	170
166	40
178	60
179	60
190	30
191	40
192	60
193	100
205	30
206	150
207	440
208	390
209	60
235	370
236	610
237	110
