Mass Spectrum: Pyrazole-3,5-diamine, 4-(2-methoxyphenylazo)-
Formula: C10H12N6O
CAS: 128044-32-6
Molecular weight: 232
m/z	intensity
33	27
34	2
36	3
37	21
38	55
39	107
40	138
42	999
43	466
44	17
45	4
46	0
50	73
51	273
52	141
53	112
54	39
55	37
56	15
57	15
58	9
59	1
60	1
61	5
62	12
63	103
64	108
65	139
67	379
68	226
69	211
70	46
71	14
73	4
74	10
75	12
77	381
78	131
79	97
80	62
82	18
83	18
84	6
85	3
86	1
87	1
88	2
89	7
90	12
92	230
93	54
94	56
95	14
96	11
97	42
98	10
99	3
101	5
102	3
103	4
104	10
105	14
106	37
108	68
109	165
110	15
112	205
113	11
115	2
116	42
117	11
118	9
120	89
121	26
122	21
125	716
127	1
128	1
129	2
130	3
131	5
132	8
133	11
134	11
135	22
136	1
137	0
142	1
143	7
144	11
145	7
146	17
147	5
148	1
149	2
156	3
157	2
158	5
159	9
160	7
161	10
162	10
163	1
169	0
170	1
171	3
172	10
173	8
174	5
175	3
176	4
177	0
184	0
185	14
186	5
187	2
188	1
189	4
192	2
200	1
201	17
203	14
204	2
228	0
229	15
230	14
232	394
233	42
234	2
