Mass Spectrum: 2-Butenedioic acid, 1,4-bis(2-ethylhexyl) ester
Formula: C20H36O4
CAS: 128111-61-5
Molecular weight: 340
m/z	intensity
27	139
29	321
39	67
41	515
42	95
43	594
44	29
53	40
54	111
55	147
56	195
57	999
58	53
67	27
68	27
69	180
70	528
71	608
72	51
81	21
82	149
83	191
84	104
85	17
95	9
97	24
99	237
100	446
101	29
110	54
111	67
112	317
113	314
117	902
118	74
128	8
129	18
167	9
169	15
171	20
182	7
183	12
186	25
200	11
210	23
211	19
212	43
213	8
227	9
228	20
229	102
230	19
340	6
341	22
342	5
