Mass Spectrum: 2-(6-Methylpyridin-2-ylmethyl)cyclohexanol
Formula: C13H19NO
CAS: 128231-64-1
Molecular weight: 205
m/z	intensity
26	1
27	21
28	8
29	20
30	2
31	10
38	4
39	46
40	9
41	40
42	13
43	12
44	8
45	1
50	3
51	13
52	8
53	17
54	6
55	16
56	3
57	16
58	1
62	1
63	10
64	7
65	42
66	37
67	14
68	4
69	6
70	3
71	1
73	1
75	2
76	2
77	34
78	12
79	28
80	8
81	10
82	4
83	3
84	1
85	1
88	2
89	4
90	3
91	13
92	37
93	34
94	18
95	3
96	2
97	3
98	2
99	3
101	1
102	2
103	3
104	5
105	5
106	48
107	999
108	120
109	6
110	2
115	3
116	3
117	18
118	13
119	7
120	188
121	43
122	3
123	1
127	5
128	2
129	2
130	14
131	28
132	47
133	18
134	170
135	19
136	2
138	2
141	1
142	2
143	4
144	22
145	65
146	40
147	10
148	19
149	11
150	2
154	1
156	2
157	4
158	30
159	12
160	10
161	2
162	59
163	7
170	3
171	2
172	22
173	3
174	4
175	1
176	48
177	45
178	6
184	2
185	2
186	36
187	41
188	28
189	4
190	1
202	0
203	0
204	18
205	25
206	4
207	0
