Mass Spectrum: Cobalt, [(1,2,3,4,5-.eta.)-bicyclo[3.2.0]hepta-2,4-dien-1-yl][(1,2,5,6-.eta.)-1,5-cyclooctadiene]-
Formula: C15H19Co
CAS: 128382-90-1
Molecular weight: 258
m/z	intensity
27	332
28	64
29	101
30	6
31	11
36	4
37	46
38	53
39	691
40	24
41	296
42	18
43	11
45	5
49	21
50	91
51	199
52	38
53	129
54	98
55	22
56	4
57	5
58	5
59	999
60	66
61	28
62	54
63	190
64	30
65	395
66	31
67	45
71	5
72	5
73	16
74	26
75	18
76	10
77	141
78	49
79	177
80	21
83	3
84	85
85	119
86	54
87	15
89	52
90	16
91	583
92	67
93	35
94	8
95	4
96	29
97	58
98	111
99	46
100	10
101	11
102	11
103	31
104	9
105	60
106	14
107	15
108	9
109	18
110	13
111	35
112	18
113	348
114	35
115	36
116	13
117	12
120	10
121	15
122	6
123	23
124	250
125	151
126	6
127	10
128	11
129	10
130	5
135	6
136	24
137	250
138	128
139	9
141	7
142	6
147	3
148	33
149	14
150	267
151	114
152	176
153	18
154	3
161	16
162	37
163	47
164	51
165	27
166	6
167	20
174	16
175	10
176	10
177	5
178	8
179	3
180	3
188	3
189	3
190	6
191	7
192	3
200	5
201	5
202	47
203	25
204	14
213	4
215	29
216	8
217	15
226	6
227	25
228	25
229	215
230	146
231	14
240	4
241	20
242	6
243	29
244	12
251	3
252	5
254	6
255	28
256	18
257	35
258	126
259	22
260	3
