Mass Spectrum: Boron, (N,2-dimethyl-2-propanamine)tris(trifluoromethyl)-, (t-4)-
Formula: C8H13BF9N
CAS: 128353-59-3
Molecular weight: 305
m/z	intensity
26	0
27	28
29	92
30	40
31	11
38	0
39	39
40	7
41	170
42	24
43	2
44	2
45	1
46	0
47	0
48	0
49	6
50	0
51	0
53	2
54	1
55	17
56	39
57	999
58	41
59	6
60	22
61	4
62	0
64	0
65	0
69	15
70	8
71	10
72	511
73	23
75	0
76	1
77	8
78	28
79	2
80	14
81	2
84	0
86	6
87	1
89	1
90	7
91	28
92	7
97	0
98	2
99	18
100	0
104	1
105	1
106	9
109	1
110	11
117	0
119	1
120	12
121	0
122	0
135	1
136	15
137	0
160	1
