Mass Spectrum: Quinoline-3-carboxamide, 1,2-dihydro-4-hydroxy-2-oxo-N-cyclohexyl-
Formula: C16H18N2O3
CAS: 128366-07-4
Molecular weight: 286
m/z	intensity
33	3
34	0
37	1
39	51
41	96
43	167
44	23
45	2
47	0
50	13
51	31
52	14
53	21
54	23
56	591
57	25
58	3
59	0
60	0
62	10
63	24
64	22
65	35
66	9
67	17
69	56
70	41
71	4
72	2
74	5
75	11
76	35
77	119
78	16
79	11
81	29
82	13
83	7
84	3
85	1
86	1
87	3
88	8
89	23
90	32
92	131
93	11
94	5
95	7
98	999
99	61
101	6
102	12
103	19
104	37
105	11
106	1
107	1
108	0
109	0
110	0
112	1
114	21
115	7
116	13
117	5
119	117
120	119
122	12
123	0
124	0
126	1
127	0
128	1
130	10
132	18
133	8
134	1
135	0
136	0
140	0
141	1
142	3
143	4
144	14
145	5
146	20
147	4
148	1
149	0
150	0
151	0
152	0
153	0
154	0
155	0
156	0
157	1
158	4
159	4
160	9
161	41
162	10
163	1
164	0
166	0
167	0
169	5
170	19
171	3
172	2
173	1
174	3
175	9
176	1
177	0
178	0
179	0
180	0
183	0
187	220
188	259
189	32
190	4
191	1
192	0
193	0
194	0
195	0
197	0
198	0
199	0
200	1
202	8
204	258
205	52
206	6
207	0
208	0
209	0
211	0
212	0
213	1
214	0
215	2
216	2
217	5
218	3
219	0
220	0
221	0
223	0
225	0
226	1
227	1
229	9
230	8
231	2
233	11
234	1
235	1
236	0
237	0
238	0
239	4
240	2
241	1
243	120
244	13
245	2
246	0
248	2
249	0
250	0
251	0
252	1
253	0
254	0
257	5
258	0
266	0
267	2
268	6
269	13
270	2
271	0
280	0
281	0
282	0
283	0
286	184
287	28
288	3
289	0
