Mass Spectrum: Boron, (N-cyclohexylcyclohexanamine)tris(trifluoromethyl)-, (t-4)-
Formula: C15H23BF9N
CAS: 128354-00-7
Molecular weight: 399
m/z	intensity
26	1
27	40
28	30
29	72
30	31
31	1
39	49
40	6
41	224
42	19
43	29
44	27
45	0
48	0
49	0
50	1
51	1
52	0
53	26
54	40
55	536
56	114
57	5
58	1
59	0
60	0
65	4
66	2
67	56
68	17
69	8
70	14
71	0
72	0
73	0
75	1
76	8
77	14
78	32
79	19
80	8
81	49
82	44
83	999
84	66
85	1
86	0
89	0
90	10
91	17
92	1
93	2
94	4
95	1
96	7
97	1
98	52
99	5
100	40
101	1
102	0
103	20
104	84
105	3
106	0
108	1
109	0
110	11
111	1
112	1
113	4
116	0
117	2
118	5
122	0
123	0
124	3
125	9
126	0
128	0
129	0
130	1
131	0
132	6
133	0
134	0
136	2
137	0
138	381
139	41
140	1
144	0
145	0
146	6
147	8
148	15
149	0
150	0
152	24
153	2
161	0
178	0
179	1
180	39
181	407
182	55
183	2
185	0
186	2
229	18
230	79
231	9
260	0
280	0
