Mass Spectrum: Heptanoic acid, 6-hydroxy-, ethyl ester
Formula: C9H18O3
CAS: 128456-63-3
Molecular weight: 174
m/z	intensity
25	1
26	32
27	221
28	174
29	284
30	27
31	327
34	0
36	1
37	2
38	8
39	117
40	29
41	426
42	188
43	399
44	35
45	573
46	81
47	7
48	0
49	5
50	6
51	8
52	3
53	28
54	19
55	999
56	643
57	120
58	21
59	19
60	81
61	49
62	1
63	0
65	3
66	5
67	209
68	77
69	184
70	67
71	27
72	2
73	394
74	69
75	16
77	1
79	4
81	55
82	53
83	212
84	555
85	301
86	21
87	32
88	143
89	8
90	0
91	0
93	4
94	3
95	37
96	2
97	2
98	4
99	11
100	6
101	803
102	63
103	17
108	0
109	16
110	110
111	222
112	19
113	185
114	14
115	28
116	1
126	8
127	29
128	19
129	122
130	177
131	14
132	0
141	5
156	15
157	3
159	21
160	1
172	0
