Mass Spectrum: 4-Cyclohex-1-ol-2-methanol, pivalate
Formula: C12H20O3
CAS: 128435-08-5
Molecular weight: 212
m/z	intensity
26	6
27	86
28	17
29	166
30	3
31	30
37	2
38	8
39	164
40	25
41	369
42	39
43	49
44	16
45	11
50	5
51	19
52	11
53	54
54	105
55	99
56	25
57	999
58	38
59	17
63	4
65	21
66	45
67	108
68	32
69	35
70	16
71	4
73	6
74	14
75	2
77	66
78	71
79	186
80	45
81	103
82	60
83	12
84	2
85	97
86	6
87	10
89	2
90	7
91	72
92	492
93	132
94	13
95	123
96	12
97	3
101	6
103	80
104	4
105	1
107	2
108	3
109	22
110	358
111	31
112	2
127	3
158	11
194	4
212	1
