Mass Spectrum: Propanoic acid, 2,2-dimethyl-, [2-[2-(acetylthio)ethyl]-5-[N6-(benzoylamino)-9H-purin-9-yl]tetrahydro-3-furanyl]methyl ester, (2.alpha.,3.beta.,5.alpha.)-(.+-.)-
Formula: C26H31N5O5S
CAS: 128435-63-2
Molecular weight: 525
m/z	intensity
25	2
26	8
27	86
28	141
29	145
30	5
31	7
33	1
34	1
35	3
36	1
37	6
38	34
39	162
40	33
41	346
42	49
43	642
44	22
45	45
46	13
47	33
48	1
49	6
50	83
51	237
52	33
53	177
54	53
55	56
56	21
57	999
58	48
59	20
60	9
61	25
62	5
63	11
64	14
65	57
66	37
67	93
68	47
69	41
70	19
71	8
72	3
73	33
74	34
75	31
76	54
77	981
78	78
79	90
80	51
81	186
82	63
83	23
84	3
85	52
86	20
87	13
88	3
89	6
90	2
91	25
92	24
93	11
94	24
95	318
96	34
97	27
98	8
99	62
100	10
101	28
102	6
103	10
104	12
105	828
106	103
107	47
108	916
109	126
110	18
111	9
112	1
113	61
114	14
115	20
116	4
117	3
118	3
119	41
120	6
121	6
122	3
123	19
124	5
125	46
126	7
127	5
128	3
129	15
130	2
131	2
132	1
133	5
134	33
135	130
136	88
137	27
138	3
139	3
140	4
141	277
142	48
143	104
144	11
145	7
146	2
147	4
148	5
149	6
150	10
151	4
152	1
153	1
154	0
155	2
156	2
157	4
158	1
159	9
160	4
161	5
162	56
163	7
164	1
165	1
166	0
167	2
168	1
169	2
170	1
171	4
172	0
173	2
174	3
175	1
176	1
177	23
178	48
179	4
180	0
181	0
182	0
183	1
184	2
185	74
186	12
187	8
188	15
189	3
190	1
191	1
192	0
195	1
196	2
197	1
198	0
199	2
200	2
201	1
202	1
203	0
204	34
205	5
206	0
209	14
210	192
211	247
212	49
213	5
214	1
215	1
216	3
217	1
218	0
219	1
220	4
221	0
222	1
223	4
224	4
225	1
226	0
227	9
228	1
229	1
230	2
231	1
232	0
233	0
234	0
236	1
237	1
238	24
239	105
240	87
241	11
242	1
243	4
244	3
245	1
246	1
247	12
248	2
249	0
250	0
251	0
252	6
253	7
254	1
255	0
256	0
257	0
258	1
259	0
260	0
261	0
262	1
263	0
264	1
265	0
266	35
267	6
268	0
272	0
273	0
274	0
275	0
276	0
277	0
278	3
279	0
280	1
281	2
282	6
283	1
286	0
287	9
288	2
289	0
290	0
291	0
292	1
293	0
294	0
306	0
307	0
308	0
309	0
314	0
315	0
316	0
317	0
318	0
320	4
321	1
324	1
325	0
332	1
333	0
334	1
335	0
336	3
337	0
344	1
345	0
346	3
347	0
348	0
349	1
350	0
351	0
352	0
362	2
363	0
364	0
378	19
379	4
380	2
381	0
382	2
383	0
388	2
389	0
394	0
398	0
399	0
420	14
421	4
422	1
423	0
424	1
425	0
426	0
440	1
441	0
456	2
457	0
459	0
460	0
466	0
482	7
483	1
484	0
496	2
497	4
498	0
499	0
524	0
525	1
526	0
