Mass Spectrum: 2,2-Dimethyl-propionic acid, 2-(2-hydroxy-ethyl)-5-methoxy-tetrahydrofuran-3-ylmethyl ester
Formula: C13H24O5
CAS: 128435-09-6
Molecular weight: 260
m/z	intensity
26	5
27	84
28	22
29	216
30	6
31	98
33	19
37	1
38	5
39	123
40	28
41	433
42	69
43	89
44	16
45	124
46	4
47	1
48	1
50	3
51	7
52	5
53	86
54	58
55	193
56	63
57	819
58	213
59	45
60	3
61	48
62	1
63	2
64	1
65	8
66	11
67	85
68	80
69	167
70	76
71	182
72	26
73	38
74	10
75	33
76	2
77	8
78	2
79	50
80	40
81	175
82	112
83	126
84	694
85	526
86	35
87	15
88	4
89	1
91	5
92	1
93	1
94	2
95	72
96	24
97	92
98	106
99	120
100	89
101	174
102	12
103	69
104	4
105	1
107	6
108	26
109	92
110	13
111	6
112	6
113	999
114	62
115	15
116	9
117	57
118	6
119	1
121	0
123	1
124	1
125	51
126	231
127	313
128	41
129	8
130	2
131	6
133	1
138	0
139	2
140	4
141	6
142	2
143	36
144	4
145	6
146	1
155	5
156	3
157	10
158	50
159	6
166	0
167	0
169	66
170	13
171	2
172	1
173	1
182	0
183	3
184	1
185	6
186	34
187	3
198	2
199	0
200	35
201	3
202	111
203	12
204	1
211	0
213	6
214	1
215	53
216	6
227	0
228	8
229	135
230	18
231	2
241	0
259	4
