Mass Spectrum: 3,7,11-Tridecatrienoic acid, methyl ester, (Z,E,Z)-
Formula: C14H22O2
CAS: 128461-69-8
Molecular weight: 222
m/z	intensity
26	8
27	180
28	22
29	258
30	2
31	6
33	2
37	1
38	5
39	267
40	29
41	431
42	28
43	71
44	3
45	18
50	7
51	30
52	22
53	168
54	303
55	999
56	50
57	20
58	3
59	255
60	7
61	4
63	7
64	3
65	49
66	39
67	628
68	102
69	33
70	2
71	369
72	51
73	3
74	59
75	20
76	1
77	92
78	32
79	276
80	73
81	173
82	61
83	14
84	17
85	21
86	2
87	17
88	14
89	3
90	1
91	169
92	59
93	667
94	128
95	76
96	34
97	11
98	8
99	7
100	15
101	3
102	3
103	5
104	3
105	38
106	34
107	236
108	69
109	163
110	16
111	8
113	83
114	77
115	7
117	15
118	2
119	39
120	12
121	38
122	33
123	9
124	0
125	16
126	7
127	6
128	1
131	4
133	25
134	12
135	117
136	18
137	3
138	1
139	5
140	21
141	4
145	1
146	8
147	17
148	118
149	40
150	5
152	9
153	15
154	38
155	7
161	9
162	16
163	10
165	2
166	11
167	18
168	1
173	5
179	6
180	5
190	7
191	8
193	12
194	1
207	0
222	2
