Mass Spectrum: Propanoic acid, 2,2-dimethyl-, 3-[(6-chloro-9H-purin-9-yl)methoxy]-5-(phenylmethoxy)pentyl ester, (S)-
Formula: C23H29ClN4O4
CAS: 128435-32-5
Molecular weight: 460
m/z	intensity
27	22
28	17
29	87
30	8
31	16
38	4
39	39
40	8
41	131
42	21
43	24
44	5
45	10
49	2
50	4
51	17
52	10
53	13
54	16
55	76
56	26
57	522
58	28
59	6
61	4
62	2
63	8
64	5
65	56
66	7
67	58
68	95
69	35
70	27
71	71
72	5
73	9
74	3
75	4
76	6
77	36
78	16
79	46
80	4
81	3
82	3
83	39
84	82
85	133
86	15
87	10
88	5
89	12
90	16
91	999
92	116
93	7
97	17
98	42
99	6
100	2
101	15
102	3
103	59
104	93
105	36
106	9
107	65
108	14
112	4
113	45
114	10
115	16
116	2
117	5
118	5
119	20
120	10
121	19
127	3
128	3
129	13
130	6
131	9
132	4
133	9
134	4
140	12
141	3
142	7
143	3
145	6
146	106
147	14
148	4
149	16
154	17
155	176
156	19
157	58
158	5
159	6
167	179
168	138
169	75
170	53
171	11
172	4
173	7
174	15
175	4
176	2
177	2
181	3
182	19
183	495
184	53
185	176
186	27
187	25
188	17
191	49
192	12
195	4
197	4
199	10
204	23
205	4
209	7
221	12
222	2
223	3
225	4
243	9
244	3
245	26
246	4
247	8
269	5
354	12
356	4
369	3
460	11
461	2
462	4
