Mass Spectrum: 3-Pentyl-4,5-dihydroisobenzofuran-1(3H)-one
Formula: C13H18O2
CAS: 128575-99-5
Molecular weight: 206
m/z	intensity
27	11
29	22
39	31
40	5
41	35
43	77
44	3
50	10
51	40
52	21
53	24
57	16
62	3
63	12
64	3
65	22
71	104
72	6
74	4
76	8
77	259
78	92
79	211
80	22
82	14
90	4
91	41
92	4
99	151
100	9
103	12
104	6
105	58
106	26
107	999
108	93
115	7
117	5
118	3
121	7
122	18
123	4
124	4
133	29
134	8
135	51
136	51
150	11
204	2
206	154
207	20
208	2
