Mass Spectrum: 2-Cyclopentene-1-carboxamide, N-phenyl-
Formula: C12H13NO
CAS: 128535-00-2
Molecular weight: 187
m/z	intensity
25	1
26	19
27	107
28	32
29	13
30	3
31	1
33	1
36	1
37	20
38	82
39	524
40	113
41	474
42	26
43	3
44	3
46	1
47	1
49	2
50	47
51	158
52	48
53	24
54	13
55	21
56	2
57	1
59	1
60	0
61	6
62	21
63	73
64	73
65	401
66	248
67	999
68	133
69	20
70	2
71	2
72	2
73	1
74	10
75	7
76	15
77	273
78	28
79	6
80	3
81	2
82	3
83	3
84	1
85	3
87	1
88	2
89	5
90	8
91	76
92	228
93	798
94	302
95	84
96	11
97	2
98	0
100	0
101	1
102	2
103	5
104	11
105	3
106	6
108	0
109	0
111	0
112	0
113	1
115	7
116	2
117	12
119	481
120	280
121	32
122	9
123	0
127	2
128	7
129	4
130	15
131	3
132	4
133	2
134	1
135	0
136	0
137	1
139	1
140	1
141	2
142	3
143	9
144	6
145	3
146	3
147	0
148	1
150	0
152	0
153	0
154	1
155	0
156	3
157	1
158	10
159	10
160	2
161	1
166	0
167	1
168	2
169	1
170	3
171	3
172	14
173	3
174	0
179	0
182	0
183	0
184	1
185	3
187	499
188	72
189	10
190	1
