Mass Spectrum: cis-3-Phenyl-perhydrocyclopenta[d]pyrimidin-2,4-dione
Formula: C13H14N2O2
CAS: 128668-89-3
Molecular weight: 230
m/z	intensity
27	70
39	100
40	30
41	150
43	150
51	40
53	30
54	80
55	80
56	50
64	60
65	50
67	240
68	130
77	60
82	70
83	90
91	150
93	480
95	50
119	999
120	95
148	40
188	40
189	4
230	600
231	60
