Mass Spectrum: Acetic acid, 2-(5-amino-1,3,4-thiadiazol-2-yl)-2-(4-methylphenylhydrazono)-, ethyl ester
Formula: C13H15N5O2S
CAS: 128639-54-3
Molecular weight: 305
m/z	intensity
33	10
34	5
35	0
36	2
37	5
38	18
39	134
40	50
41	83
42	50
43	210
44	51
45	76
46	9
47	13
48	5
50	36
51	108
52	100
53	99
54	20
55	38
56	17
57	45
58	20
59	57
60	173
61	13
62	19
63	53
64	33
65	232
66	27
67	18
68	77
69	28
70	27
71	52
72	27
73	19
74	40
75	47
76	31
77	338
78	192
79	201
80	21
81	9
82	9
83	14
84	20
85	24
86	7
87	8
88	4
89	31
90	34
91	544
92	61
93	8
94	4
95	6
96	5
97	10
98	6
99	6
100	14
101	20
102	34
103	35
104	160
105	999
106	226
107	113
108	12
109	5
110	11
111	8
112	9
113	8
114	19
115	30
116	18
117	12
118	30
119	95
120	27
121	15
122	4
123	5
124	5
125	7
127	345
128	46
129	29
130	55
131	24
132	18
133	10
134	21
135	33
136	7
137	27
138	12
139	10
140	10
141	20
142	87
143	23
144	11
145	9
146	8
147	28
148	24
149	18
150	4
151	3
153	20
154	14
155	4
156	5
157	17
158	22
159	13
160	12
161	12
162	31
163	12
164	5
165	2
166	2
167	3
169	2
170	1
171	14
172	6
173	4
174	4
175	25
176	7
177	3
178	3
179	10
180	2
181	1
182	0
183	0
184	0
185	2
186	3
187	3
189	17
190	5
191	7
192	3
193	2
194	0
195	0
199	1
200	2
201	2
202	6
203	30
204	54
205	31
206	6
207	2
213	0
214	10
215	0
216	3
217	3
218	3
219	12
220	4
221	4
222	0
229	4
230	16
231	198
232	110
233	20
234	9
235	0
244	0
246	5
247	9
248	63
249	46
250	9
251	2
258	0
260	17
261	4
262	14
263	4
264	1
276	55
277	9
278	3
281	0
283	0
301	0
302	2
303	4
305	386
306	63
307	21
308	3
