Mass Spectrum: N-Acetyl glucosamine methoxime, tetrakis(trimethylsilyl)
Formula: C21H50N2O6Si4
CAS: 128637-19-4
Molecular weight: 538
m/z	intensity
25	2
26	12
27	70
28	41
29	41
30	16
31	68
32	43
33	2
34	1
35	0
36	2
37	1
38	1
39	3
40	2
41	13
42	11
43	96
44	13
45	95
46	7
47	44
48	3
49	2
50	2
51	1
52	4
53	6
54	2
55	14
56	18
57	6
58	9
59	43
60	8
61	11
62	3
63	2
64	1
66	6
67	6
68	7
69	7
70	6
71	5
72	19
73	999
74	89
75	334
76	25
77	17
78	2
79	1
80	3
81	7
82	7
83	8
84	6
85	4
86	4
87	102
88	6
89	35
90	4
91	3
92	1
93	5
94	2
95	5
96	7
97	5
98	4
99	14
100	16
101	17
102	9
103	187
104	19
105	19
106	6
107	4
108	2
109	3
110	4
111	4
112	4
113	10
114	7
115	9
116	38
117	94
118	15
119	10
120	5
121	2
122	4
123	3
124	2
125	2
126	3
127	6
128	9
129	135
130	28
131	30
132	17
133	46
134	7
135	6
136	1
137	5
138	3
139	1
140	2
141	14
142	9
143	15
144	17
145	10
146	5
147	235
148	37
149	26
150	4
151	2
152	5
153	8
154	10
155	6
156	13
157	32
158	19
159	8
160	5
161	4
162	1
163	4
164	1
165	2
166	2
167	2
168	10
169	22
170	83
171	35
172	15
173	86
174	18
175	8
176	2
177	3
178	2
179	3
180	1
181	4
182	4
183	7
184	5
185	9
186	12
187	4
188	2
189	31
190	8
191	10
192	1
193	1
194	1
195	9
196	6
197	4
198	3
199	6
200	10
201	9
202	88
203	20
204	37
205	167
206	30
207	17
208	3
209	1
210	5
211	8
212	7
213	20
214	11
215	8
216	8
217	113
218	27
219	11
220	3
221	5
222	1
223	2
225	3
226	1
227	7
228	3
229	16
230	16
231	32
232	23
233	5
234	2
235	1
237	3
238	6
239	1
240	1
241	1
242	12
243	34
244	16
245	36
246	18
247	5
248	2
253	1
255	7
256	3
257	2
258	4
259	2
260	4
261	2
262	1
263	1
268	4
269	8
270	2
271	5
272	7
274	81
275	23
276	9
277	9
278	3
279	4
280	0
281	0
284	8
285	7
286	4
287	1
288	1
291	5
292	2
293	1
294	1
297	1
298	1
299	2
300	3
301	10
302	3
303	6
304	3
305	10
306	4
307	14
308	5
309	8
311	1
312	2
313	4
314	2
315	1
316	1
317	1
319	67
320	21
321	11
322	2
327	3
328	1
332	2
333	25
334	7
342	1
343	2
344	1
345	5
346	1
347	2
358	0
359	1
373	2
374	2
376	2
401	2
433	1
464	1
