Mass Spectrum: Silane, (3,3-diphenyl-1-cyclopropene-1,2-diyl)bis[trimethyl-
Formula: C21H28Si2
CAS: 128685-25-6
Molecular weight: 336
m/z	intensity
29	14
31	8
36	5
37	2
39	0
40	5
42	5
43	56
44	21
45	215
46	16
47	12
51	4
53	17
55	9
56	1
57	14
58	17
59	29
63	2
64	2
65	8
66	5
67	8
68	0
69	12
70	8
71	4
72	6
73	999
74	84
75	39
76	2
77	10
78	7
79	4
81	3
83	12
85	1
89	5
91	6
92	1
93	10
94	3
95	8
97	10
103	11
104	2
105	33
106	3
107	10
115	9
116	2
117	2
119	7
121	12
127	2
128	3
129	19
131	12
133	6
135	33
136	3
139	4
143	2
145	10
152	2
153	1
155	11
159	41
160	6
163	3
165	21
166	6
167	2
178	6
179	2
189	14
191	11
192	4
193	6
195	2
202	13
203	10
205	8
207	7
208	3
215	1
217	14
218	6
219	2
221	3
229	1
231	8
232	10
233	25
245	7
248	376
249	94
250	24
321	2
336	66
337	20
338	7
