Mass Spectrum: Galactose benzyloxime pentakis(trimethylsilyl)
Formula: C28H59NO6Si5
CAS: 128614-11-9
Molecular weight: 645
m/z	intensity
45	44
51	12
57	12
59	12
72	12
73	999
74	84
75	92
77	44
79	12
89	12
91	304
92	24
101	12
103	204
104	24
105	44
106	32
107	12
108	12
117	84
129	72
130	12
131	24
133	44
147	364
148	52
149	32
157	64
172	24
189	64
190	12
191	32
201	152
202	32
203	24
204	152
205	624
206	124
207	84
208	12
217	34
218	8
219	3
221	12
229	52
230	24
231	12
232	24
236	84
237	24
268	12
277	24
291	24
305	32
306	12
307	52
308	12
309	12
319	58
320	17
321	8
322	2
338	24
344	44
345	12
