Mass Spectrum: 11-Dodecen-1-ol trifluoroacetate
Formula: C14H23F3O2
CAS: 128792-46-1
Molecular weight: 280
m/z	intensity
41	853
42	196
43	235
44	10
45	2
47	5
50	4
51	10
52	7
53	91
54	305
55	999
56	348
57	167
58	7
59	3
61	5
63	1
65	16
66	50
67	404
68	443
69	699
70	257
71	73
72	4
73	1
77	9
78	6
79	33
80	34
81	374
82	560
83	498
84	143
85	48
86	3
91	4
92	0
93	11
94	20
95	290
96	390
97	321
98	68
99	40
100	1
101	0
105	0
107	3
108	9
109	149
110	185
111	133
112	22
113	4
115	2
121	3
122	6
123	78
124	104
125	44
126	5
127	5
135	2
136	2
137	50
138	89
139	15
140	1
141	2
149	4
150	0
151	10
152	4
153	3
155	2
163	1
164	1
165	13
166	73
167	17
168	2
169	1
177	0
179	1
180	0
183	1
193	1
197	1
205	0
206	0
207	0
209	1
210	0
211	2
221	1
222	1
223	4
224	2
225	3
236	2
237	5
238	2
239	2
241	1
250	2
251	5
252	6
253	2
262	1
263	0
264	1
265	4
266	3
267	1
277	0
278	6
279	7
280	94
281	20
282	2
