Mass Spectrum: 2,2-Bis[4-[2-hydroxy-3-(phenylamino)propoxy]phenyl]propane
Formula: C33H38N2O4
CAS: 128736-14-1
Molecular weight: 526
m/z	intensity
51	6
54	1
55	1
57	2
63	3
64	2
65	9
66	5
73	1
75	1
76	5
77	99
78	20
79	47
80	3
81	0
89	2
90	2
91	18
92	5
93	20
94	5
97	2
102	2
103	4
104	56
105	14
106	999
107	101
108	4
115	8
116	1
117	12
118	20
119	31
120	10
121	4
122	0
127	1
128	1
129	3
130	8
131	7
132	50
133	11
134	4
135	44
136	13
137	2
141	2
143	1
144	1
145	1
146	2
147	7
148	7
149	8
150	20
151	4
152	5
153	3
154	1
155	0
157	1
158	0
159	1
160	1
162	1
165	9
166	4
167	4
168	2
169	8
170	1
177	11
178	4
180	1
181	5
182	2
183	5
184	4
195	3
196	3
197	8
198	9
199	1
211	5
213	196
214	33
215	2
224	3
225	1
226	1
228	222
229	34
230	3
239	1
240	1
242	3
253	12
255	40
256	9
257	4
267	1
268	4
269	1
270	21
271	3
272	2
285	1
286	0
295	2
296	1
297	3
312	1
316	1
341	0
342	0
344	0
346	0
349	0
354	1
359	5
360	1
361	1
362	4
375	1
377	371
378	103
379	15
380	1
388	2
389	1
390	2
391	2
392	0
402	1
404	1
416	1
417	6
418	1
419	31
420	77
421	21
422	4
423	0
434	1
445	1
446	0
526	5
