Mass Spectrum: d-Mannose, 2,3,4,5,6-pentakis-O-(trimethylsilyl)-, o-methyloxyme, (1Z)-
Formula: C22H55NO6Si5
CAS: 128705-67-9
Molecular weight: 569
m/z	intensity
15	2
26	1
27	4
28	24
29	13
30	2
31	8
32	5
39	1
41	7
42	2
43	9
44	9
45	57
46	4
47	8
49	1
52	1
53	3
54	3
55	9
56	1
57	3
58	6
59	40
60	4
61	4
66	1
67	2
68	1
69	3
70	3
71	2
72	17
73	999
74	83
75	76
76	4
77	5
80	1
81	1
82	4
83	4
84	3
85	3
86	4
87	4
88	4
89	52
90	5
91	2
97	1
98	1
99	4
100	13
101	18
102	8
103	176
104	17
105	25
106	2
107	1
110	1
111	2
112	2
113	5
114	12
115	7
116	8
117	107
118	11
119	10
120	1
125	1
126	2
127	4
128	5
129	70
130	15
131	31
132	5
133	83
134	10
135	6
136	1
140	1
141	2
142	4
143	14
144	2
145	10
146	3
147	382
148	60
149	36
150	4
151	2
152	1
154	2
155	2
156	2
157	48
158	10
159	6
160	231
161	39
162	11
163	12
164	2
165	1
168	2
169	3
170	1
171	1
172	16
173	8
174	4
175	7
176	1
177	6
178	1
179	1
180	1
182	1
185	1
186	4
187	2
188	2
189	41
190	11
191	24
192	4
193	2
196	1
198	1
200	2
201	76
202	15
203	11
204	74
205	328
206	65
207	31
208	4
209	1
210	3
211	1
214	2
215	3
216	10
217	141
218	29
219	13
220	2
221	8
222	2
223	1
228	2
229	27
230	11
231	12
232	4
233	6
234	5
235	1
240	1
242	1
243	4
244	3
245	2
246	5
247	2
248	1
256	2
259	1
260	2
261	1
262	5
263	1
264	1
265	1
268	4
269	3
270	1
274	7
275	2
276	1
277	11
278	4
279	2
288	1
290	1
291	19
292	6
293	3
294	1
300	2
301	1
302	5
303	2
304	2
305	14
306	6
307	13
308	4
309	2
315	1
316	1
317	1
318	2
319	291
320	86
321	42
322	8
323	2
328	1
330	1
331	1
332	3
333	2
334	1
336	1
342	2
343	2
344	8
345	3
346	1
347	1
358	1
359	1
364	7
365	4
366	2
367	1
374	1
376	3
377	1
390	1
402	1
432	1
433	1
464	1
466	1
