Mass Spectrum: d-Galactose, 2,3,4,5,6-pentakis-O-(trimethylsilyl)-, o-methyloxyme, (1Z)-
Formula: C22H55NO6Si5
CAS: 128705-71-5
Molecular weight: 569
m/z	intensity
15	1
26	1
27	2
28	21
29	10
30	1
31	5
32	3
39	1
41	7
42	1
43	8
44	9
45	52
46	3
47	6
52	1
53	2
54	3
55	8
56	1
57	3
58	6
59	37
60	3
61	4
66	1
67	2
68	1
69	3
70	3
71	2
72	17
73	999
74	84
75	67
76	4
77	4
80	1
81	1
82	4
83	3
84	3
85	3
86	4
87	4
88	4
89	47
90	4
91	2
96	1
97	2
98	2
99	4
100	12
101	17
102	9
103	196
104	18
105	27
106	3
107	1
110	1
111	2
112	2
113	4
114	12
115	8
116	8
117	111
118	12
119	10
120	1
121	1
126	2
127	4
128	5
129	73
130	16
131	33
132	6
133	90
134	12
135	7
136	1
138	1
139	1
140	1
141	2
142	5
143	16
144	3
145	10
146	3
147	413
148	65
149	40
150	4
151	2
152	1
154	2
155	2
156	2
157	47
158	11
159	6
160	206
161	37
162	10
163	13
164	2
165	1
168	2
169	4
170	1
171	1
172	15
173	8
174	4
175	7
176	1
177	6
178	1
179	1
180	1
182	1
185	1
186	5
187	2
188	2
189	53
190	14
191	26
192	5
193	2
196	1
198	1
200	2
201	58
202	12
203	10
204	86
205	369
206	74
207	35
208	5
209	1
210	3
211	1
214	2
215	3
216	11
217	206
218	42
219	19
220	3
221	9
222	2
223	1
228	2
229	29
230	12
231	14
232	4
233	5
234	7
235	2
236	1
240	1
242	2
243	3
244	4
245	2
246	5
247	4
248	1
249	1
254	1
256	2
257	1
259	2
260	2
261	1
262	8
263	2
264	1
265	1
268	4
269	3
270	1
271	1
274	7
275	2
276	1
277	14
278	5
279	2
280	1
286	1
288	1
290	1
291	18
292	6
293	3
294	1
300	4
301	1
302	4
303	1
304	3
305	17
306	7
307	20
308	6
309	3
310	1
315	1
316	1
317	1
318	3
319	342
320	100
321	48
322	10
323	2
328	1
330	1
331	1
332	2
333	2
334	1
336	1
342	2
343	3
344	11
345	4
346	2
358	2
359	1
364	4
365	3
366	1
374	2
375	1
376	2
377	1
390	1
393	1
409	1
432	2
433	1
434	1
448	1
464	1
466	2
467	1
480	1
