Mass Spectrum: d-Glucitol, 1-S-hexyl-1-thio-
Formula: C12H26O5S
CAS: 128708-92-9
Molecular weight: 282
m/z	intensity
26	13
27	152
28	13
29	256
30	10
31	126
34	3
35	12
39	68
40	106
41	420
42	90
43	999
44	66
45	149
46	24
47	84
48	67
49	26
50	5
51	3
53	24
54	16
55	389
56	274
57	271
58	21
59	60
60	128
61	664
62	35
63	23
65	10
66	3
67	33
68	16
69	144
70	15
71	121
72	18
73	577
74	92
75	51
76	21
77	106
78	5
79	9
80	4
81	19
82	17
83	261
84	246
85	277
86	158
87	433
88	28
89	111
90	8
91	60
92	4
93	4
95	9
96	3
97	98
98	12
99	70
100	9
101	33
102	15
103	167
104	29
105	9
109	4
110	10
111	165
112	16
113	14
114	13
115	284
116	39
117	263
118	75
119	57
120	6
127	13
128	21
129	480
130	38
131	322
132	276
133	192
134	26
135	5
143	6
144	4
145	23
146	29
147	274
148	20
149	5
160	18
161	164
162	20
163	12
173	158
174	28
175	13
185	8
187	4
191	9
202	4
203	13
204	3
215	155
216	26
217	9
221	11
228	23
229	6
233	41
234	7
235	3
246	68
247	23
248	7
249	3
264	28
265	10
266	4
