Mass Spectrum: 11-Dodecen-1-ol monofluoroacetate
Formula: C14H25FO2
CAS: 128792-44-9
Molecular weight: 244
m/z	intensity
41	984
42	178
43	222
44	11
45	4
47	1
50	2
51	10
52	9
53	124
54	434
55	977
56	158
57	133
58	7
59	7
60	12
61	323
62	3
63	16
65	26
66	70
67	638
68	699
69	638
70	99
71	77
72	5
73	12
77	12
78	5
79	81
80	131
81	876
82	999
83	601
84	58
85	85
86	5
89	3
91	43
92	3
93	23
94	73
95	756
96	813
97	588
98	53
99	13
100	1
101	2
103	2
105	5
106	1
107	22
108	40
109	473
110	473
111	426
112	38
113	6
117	5
119	52
120	4
121	26
122	30
123	244
124	279
125	147
126	14
127	7
129	2
131	3
133	9
134	1
135	22
136	18
137	166
138	162
139	42
140	4
141	3
143	2
147	4
149	17
150	8
151	58
152	21
153	32
154	4
155	2
163	6
164	10
165	75
166	418
167	544
168	66
169	5
177	4
178	4
179	14
180	4
181	19
182	2
191	3
192	18
193	5
210	3
211	13
214	6
244	25
245	2
