Mass Spectrum: Ethanone, 1-[5-methyl-1-(4-nitrophenyl)-1H-1,2,3-triazol-4-yl]-
Formula: C11H10N4O3
CAS: 128883-68-1
Molecular weight: 246
m/z	intensity
34	1
36	0
37	7
38	26
39	76
40	33
41	13
43	999
44	28
45	3
46	9
50	192
51	56
52	28
53	18
54	36
55	15
56	1
57	1
59	1
61	5
62	26
63	78
64	51
65	19
66	7
67	28
68	4
69	4
70	15
71	1
74	50
75	127
76	377
77	94
78	18
79	5
80	3
81	2
82	2
83	1
84	0
85	0
86	2
87	10
88	17
89	20
90	23
91	25
92	14
93	4
94	2
95	0
96	1
97	0
98	1
99	1
100	2
101	16
102	54
103	103
104	24
105	12
106	3
107	2
108	2
109	0
110	0
112	1
113	2
114	13
115	13
116	11
117	154
118	38
119	7
120	2
121	3
122	4
123	2
125	0
126	0
127	12
128	47
129	271
130	146
131	19
132	5
133	5
134	3
135	0
136	1
137	3
138	0
139	0
140	1
141	4
142	9
143	41
144	79
145	31
146	96
147	9
148	3
149	21
150	3
151	4
152	1
153	0
154	2
155	1
156	10
157	142
158	19
159	32
160	18
161	3
162	1
163	84
164	9
165	1
169	0
170	2
171	14
172	15
173	10
175	99
176	565
177	62
178	6
179	1
186	14
187	4
188	38
189	17
190	3
200	1
201	18
203	217
204	28
205	3
206	5
207	0
216	2
217	14
218	43
219	6
220	0
226	0
230	1
231	18
232	3
233	0
234	1
235	0
241	0
242	2
243	0
244	1
246	289
247	41
248	4
