Mass Spectrum: Silane, trimethyl(3-methyl-3-phenyl-1-cyclopropen-1-yl)-
Formula: C13H18Si
CAS: 128889-54-3
Molecular weight: 202
m/z	intensity
26	1
27	4
28	1
29	11
31	10
36	0
38	1
39	11
40	0
41	1
42	2
43	49
44	17
45	125
46	9
47	5
50	5
51	22
52	4
53	13
54	2
55	9
56	1
57	5
58	11
59	59
60	5
61	2
62	3
63	9
64	2
65	3
66	2
67	4
68	0
69	3
70	2
71	3
73	999
74	90
75	44
76	7
77	20
78	7
79	3
80	0
81	0
83	10
84	1
85	1
86	3
87	2
89	4
90	1
91	2
92	1
93	2
94	1
95	0
97	1
101	3
102	10
103	6
104	1
105	7
106	2
107	2
109	1
113	0
115	11
116	1
117	2
119	3
121	1
126	5
127	21
128	54
129	20
130	4
131	7
133	1
135	2
136	0
139	0
141	5
142	2
143	4
144	0
145	11
146	2
147	0
153	0
155	3
157	3
159	8
160	1
167	2
168	0
169	1
171	2
185	2
186	0
187	22
188	3
189	1
202	53
203	11
204	3
