Mass Spectrum: O-Ethyl S-vinyl methylphosphonothioate
Formula: C5H11O2PS
CAS: 128869-81-8
Molecular weight: 166
m/z	intensity
60	107
61	31
63	78
65	78
73	16
77	58
78	29
79	999
80	82
81	18
95	127
96	25
97	26
107	108
108	153
121	29
122	23
123	33
124	13
138	23
140	27
166	88
167	16
168	4
