Mass Spectrum: .beta.-d-Lyxofuranoside, phenyl, triacetate
Formula: C17H20O8
CAS: 128902-59-0
Molecular weight: 352
m/z	intensity
24	0
25	0
26	4
27	12
28	30
29	14
30	1
31	9
32	3
36	0
37	0
38	3
39	28
40	5
41	16
42	13
43	999
44	34
45	9
46	0
47	1
49	0
50	3
51	11
52	2
53	3
54	2
55	24
56	4
57	16
58	1
59	0
60	8
61	17
62	1
63	3
64	2
65	20
66	14
67	2
68	12
69	77
70	7
71	11
72	1
73	29
74	3
75	2
76	1
77	25
78	6
79	3
80	0
81	7
82	1
83	3
84	5
85	37
86	14
87	3
89	2
90	0
91	2
92	0
93	5
94	107
95	11
96	4
97	228
98	15
99	5
100	1
101	2
102	3
103	14
104	1
105	1
107	5
108	0
109	0
110	0
111	2
112	0
113	2
114	5
115	49
116	4
117	0
118	0
119	1
120	0
121	2
122	0
123	0
124	0
125	0
126	1
127	12
128	6
129	3
130	0
131	4
132	0
133	1
134	0
135	1
136	5
137	1
138	6
139	254
140	23
141	2
142	0
143	3
144	0
145	2
146	0
147	1
148	0
149	14
150	1
151	0
152	0
153	0
154	0
155	1
156	6
157	51
158	5
159	1
161	1
162	0
165	1
166	0
167	1
169	0
170	1
171	0
173	0
174	1
175	1
176	1
177	18
178	2
179	0
187	0
189	0
191	0
199	1
207	0
213	0
215	0
216	1
217	7
218	1
219	1
254	0
255	0
256	0
257	1
258	1
259	116
260	16
261	3
262	0
279	3
280	0
293	2
307	0
