Mass Spectrum: 1,2,3,4-Tetrahydroisoquinolin-6-ol-1-carboxylic acid, 1-[4-benzyloxybenzyl]-
Formula: C31H29NO5
CAS: 128944-42-3
Molecular weight: 495
m/z	intensity
44	60
50	7
51	17
63	20
65	96
77	25
89	30
91	999
92	100
107	16
123	12
163	20
164	14
197	35
198	32
207	34
214	97
215	8
238	33
243	41
254	218
255	39
266	7
267	37
268	40
288	8
298	398
299	84
328	39
330	32
342	28
356	7
358	179
359	84
360	88
361	28
372	26
386	7
432	16
433	9
448	105
449	144
450	72
451	138
452	44
495	7
