Mass Spectrum: .beta.-d-Lyxofuranoside, phenyl, cyclic 2,3-(ethylboronate) 5-acetate
Formula: C15H19BO6
CAS: 128902-53-4
Molecular weight: 306
m/z	intensity
24	1
25	1
26	4
27	29
28	6
29	36
30	1
31	5
37	1
38	5
39	82
40	14
41	38
42	18
43	999
44	26
45	9
46	0
47	0
49	0
50	7
51	40
52	4
53	9
54	7
55	178
56	11
57	39
58	2
59	1
60	1
61	3
62	2
63	10
64	4
65	54
66	28
67	5
68	18
69	54
70	21
71	23
72	1
73	53
74	3
75	3
76	4
77	103
78	16
79	10
80	1
81	18
82	12
83	36
84	7
85	12
86	6
87	5
89	1
90	1
91	11
92	3
93	9
94	119
95	21
96	14
97	25
98	14
99	18
100	1
101	1
102	0
103	3
104	2
105	4
106	0
107	26
108	1
109	3
110	29
111	105
112	9
113	4
114	1
115	19
116	2
117	2
118	1
119	2
120	3
121	2
122	2
123	10
124	41
125	53
126	6
127	6
128	1
131	10
132	2
133	4
135	8
136	2
137	3
138	1
139	3
140	7
141	9
142	1
143	1
147	7
148	1
149	5
150	1
151	2
152	11
153	38
154	4
155	5
156	0
157	1
159	0
161	0
162	1
163	0
165	0
166	0
167	1
168	0
169	1
170	5
171	17
172	1
174	3
175	9
176	1
177	0
178	0
183	1
184	0
185	1
187	1
188	0
189	1
199	1
202	0
203	1
204	3
205	1
206	0
208	0
209	0
210	1
211	6
212	78
213	319
214	41
215	7
216	1
232	1
233	3
235	0
246	0
306	2
307	0
