Mass Spectrum: Cyclopropane, 1-benzyl-2-bromo-
Formula: C10H11Br
CAS: 128970-90-1
Molecular weight: 210
m/z	intensity
27	99
28	6
29	6
31	1
36	0
37	8
38	25
39	173
40	13
41	24
42	1
43	2
44	2
45	1
46	1
47	0
49	5
50	74
51	177
52	44
53	63
54	9
55	3
56	0
57	3
58	3
59	1
60	0
61	8
62	26
63	79
64	71
65	174
66	9
67	2
69	1
70	0
71	0
73	4
74	25
75	21
76	26
77	111
78	124
79	14
80	4
81	4
82	4
83	0
84	0
85	2
86	5
87	8
88	3
89	37
90	12
91	999
92	74
93	4
94	1
95	3
97	0
98	3
99	1
100	1
101	6
102	36
103	103
104	547
105	50
106	2
107	1
108	1
109	0
111	0
112	0
113	1
114	3
115	95
116	83
117	28
118	3
119	4
121	3
122	0
124	0
125	1
126	4
127	30
128	63
129	87
130	48
131	844
132	93
133	5
134	1
135	0
145	0
154	1
169	4
171	3
182	0
184	0
210	5
211	0
212	5
213	0
