Mass Spectrum: .alpha.-D-Glucofuranose, 3-O-(2,3,5-O-acetyl-.beta.-D-lyxofuranosyl)-1,2:5,6-DI-O-isopropylidene-
Formula: C23H34O13
CAS: 128902-61-4
Molecular weight: 518
m/z	intensity
26	3
27	18
28	12
29	21
30	1
31	25
37	0
38	0
39	14
40	29
41	47
42	15
43	999
44	24
45	7
47	0
50	0
51	1
52	0
53	7
54	2
55	37
56	4
57	20
58	6
59	62
60	5
61	16
62	0
63	0
65	0
66	0
67	2
68	20
69	63
70	5
71	21
72	25
73	59
74	2
75	0
77	1
78	0
79	1
80	1
81	39
82	6
83	23
84	6
85	66
86	16
87	4
88	0
89	1
91	0
93	0
94	0
95	4
96	1
97	168
98	15
99	22
100	30
101	324
102	20
103	10
104	1
105	0
107	1
108	0
109	14
110	3
111	9
112	1
113	27
114	4
115	43
116	3
117	1
121	1
122	0
123	3
124	0
125	4
126	3
127	56
128	39
129	21
130	1
131	1
132	0
133	0
135	0
136	0
137	1
138	0
139	486
140	40
141	8
142	2
143	13
144	1
145	6
146	0
147	0
149	2
150	0
151	1
152	0
153	2
154	0
155	11
156	4
157	106
158	8
159	2
160	0
161	0
163	0
165	1
167	8
168	5
169	6
170	30
171	5
172	0
173	3
174	0
175	1
179	1
181	1
182	0
183	2
184	2
185	10
186	1
187	9
188	1
189	0
192	0
193	0
195	0
197	1
198	1
199	15
200	2
201	4
202	0
203	0
205	0
207	0
209	1
211	0
213	5
214	0
215	8
216	1
217	5
218	0
222	0
223	0
226	0
227	3
228	0
229	3
230	2
231	1
233	0
237	0
239	1
240	0
241	1
242	0
243	1
244	3
245	4
246	0
249	0
255	0
256	0
257	1
258	0
259	390
260	48
261	8
262	1
265	0
267	0
269	1
271	1
273	11
274	1
275	1
277	0
283	0
285	1
286	0
287	0
288	0
289	0
297	0
298	0
299	3
300	0
301	0
302	0
309	0
313	0
315	0
317	0
318	0
325	0
327	1
329	0
331	0
340	1
341	0
342	0
343	1
355	1
356	0
357	1
358	0
359	1
361	0
371	1
385	0
387	1
395	0
400	1
401	3
402	0
403	0
417	6
418	1
443	0
445	9
446	2
447	0
459	0
461	0
473	0
489	0
503	94
504	24
505	5
506	1
