Mass Spectrum: 4-Nonynoic acid, 7-hydroxy-9-[2-[3-[(tetrahydro-2H-pyran-2-yl)oxy]-6-heptenyl]-1,3-dithian-2-yl]-, [2R-[2R*[R*(S*)]]]-
Formula: C25H40O5S2
CAS: 129001-24-7
Molecular weight: 484
m/z	intensity
25	17
26	185
27	630
28	307
29	466
30	22
31	76
33	5
34	4
35	5
36	6
37	45
38	76
39	495
40	88
41	952
42	88
43	262
44	40
45	135
46	58
47	122
48	11
49	30
50	112
51	121
52	67
53	313
54	203
55	872
56	322
57	306
58	26
59	58
60	29
61	57
62	9
63	25
64	14
65	129
66	72
67	431
68	48
69	153
70	79
71	79
72	20
73	173
74	93
75	108
76	12
77	115
78	33
79	212
80	66
81	291
82	36
83	317
84	395
85	999
86	86
87	64
88	19
89	12
90	6
91	184
92	37
93	105
94	31
95	148
96	29
97	101
98	28
99	104
100	20
101	61
102	8
103	22
104	13
105	101
106	106
107	165
108	34
109	47
110	20
111	112
112	45
113	68
114	15
115	45
116	23
117	60
118	15
119	57
120	16
121	51
122	11
123	71
124	14
125	47
126	13
127	24
128	18
129	45
130	16
131	51
132	52
133	60
134	22
135	46
136	17
137	96
138	19
139	31
140	6
141	36
142	11
143	26
144	7
145	113
146	25
147	39
148	27
149	42
150	16
151	93
152	29
153	53
154	27
155	39
156	10
157	19
158	6
159	19
160	8
161	22
162	16
163	41
164	10
165	22
166	11
167	34
168	8
169	18
170	5
171	34
172	6
173	23
174	5
175	69
176	12
177	34
178	9
179	41
180	10
181	284
182	42
183	13
184	4
185	8
186	4
187	13
188	4
189	18
190	6
191	21
192	22
193	15
194	35
195	34
196	8
197	29
198	6
199	7
200	2
201	8
202	4
203	7
204	3
205	7
206	3
207	84
208	37
209	26
210	7
211	10
212	3
213	84
214	13
215	22
216	4
217	6
218	2
219	7
220	3
221	10
222	4
223	18
224	4
225	35
226	7
227	8
228	5
229	15
230	4
231	55
232	9
233	26
234	7
235	7
236	2
237	52
238	9
239	6
240	2
241	22
242	5
243	5
244	3
245	6
246	3
247	18
248	5
249	8
250	2
251	4
252	2
253	4
254	1
255	2
256	1
257	10
258	6
259	8
260	2
261	3
262	1
263	3
264	2
265	5
266	1
267	3
268	2
269	52
270	10
271	75
272	14
273	11
274	25
275	310
276	70
277	12
278	2
279	2
280	1
281	2
282	2
283	3
284	2
285	4
286	1
287	88
288	18
289	32
290	8
291	40
292	16
293	579
294	120
295	21
296	2
297	2
298	5
299	1
300	3
301	1
302	4
303	4
304	1
305	1
306	0
307	22
308	5
309	19
310	4
311	1
312	0
313	1
314	0
315	18
316	4
317	3
318	0
319	0
321	1
322	0
323	1
324	0
325	6
326	2
327	7
328	1
329	0
330	0
331	0
332	0
333	1
335	1
336	0
337	0
341	0
342	0
343	0
344	0
345	4
346	1
347	0
348	0
349	0
351	0
355	1
356	1
357	0
358	0
359	2
360	1
361	0
362	0
363	0
364	1
365	13
366	3
367	2
368	2
369	2
370	1
371	2
372	1
373	2
374	1
375	1
376	1
377	14
378	3
379	1
380	1
381	4
382	6
383	41
384	11
385	6
386	2
397	2
398	8
399	19
400	5
401	3
465	2
466	4
467	2
468	1
484	10
485	3
486	2
