Mass Spectrum: Pyridine-3-carbonitrile, 1,2,3,4-tetrahydro-5-acetyl-4-(2-furyl)-6-methyl-2-oxo-
Formula: C13H12N2O3
CAS: 129027-87-8
Molecular weight: 244
m/z	intensity
39	116
40	22
42	432
43	999
44	564
45	2
51	2
65	154
68	2
77	3
121	0
175	141
176	5
201	79
202	81
217	403
218	18
244	32
