Mass Spectrum: Benzoic acid, 4-amino-3,5-dibromo-, 2-[N,N-diethylamino]ethyl ester
Formula: C13H18Br2N2O2
CAS: 129083-47-2
Molecular weight: 392
m/z	intensity
41	19
42	116
43	34
44	43
45	5
52	13
54	12
55	8
56	92
57	19
58	106
61	4
62	22
63	30
65	5
70	27
71	51
72	13
84	41
86	999
87	55
89	26
90	37
98	3
99	222
100	19
168	21
169	12
170	20
171	10
250	9
276	15
278	27
280	16
295	4
322	2
392	4
