Mass Spectrum: 2-Furanacetamide, .alpha.-methyl-N-phenyl-
Formula: C13H13NO2
CAS: 129196-81-2
Molecular weight: 215
m/z	intensity
39	46
41	11
65	81
66	23
67	46
77	92
78	9
93	999
94	74
95	197
96	13
215	69
216	9
