Mass Spectrum: Hydrazine, n-propionyl-N-methyl-
Formula: C4H10N2O
CAS: 129167-79-9
Molecular weight: 102
m/z	intensity
14	32
15	57
17	23
18	162
26	73
27	248
29	662
30	85
31	119
42	38
43	50
44	46
45	408
46	999
55	33
56	27
57	290
58	32
59	9
60	7
69	4
72	3
73	55
74	84
75	3
87	11
91	3
102	87
103	6
