Mass Spectrum: 2-t-Butyl-6-methyl-5-(1-phenylbutyl)[1,3]dioxan-4-one
Formula: C19H28O3
CAS: 129287-62-3
Molecular weight: 304
m/z	intensity
26	2
27	61
28	5
29	100
30	2
31	1
39	58
40	8
41	163
42	14
43	76
44	20
45	42
50	3
51	25
52	5
53	33
54	4
55	60
56	8
57	184
58	8
63	10
64	1
65	28
66	1
67	8
68	2
69	71
70	6
71	34
75	2
76	4
77	70
78	32
79	19
81	3
83	2
85	19
86	7
87	74
88	2
89	9
90	5
91	999
92	86
93	3
95	2
97	4
102	14
103	80
104	71
105	61
106	4
107	4
114	4
115	81
116	56
117	123
118	19
119	3
125	11
127	12
128	29
129	75
130	31
131	887
132	235
133	253
134	92
135	7
141	5
142	2
143	30
144	10
145	51
146	7
147	36
148	10
149	16
150	1
157	7
158	20
159	37
160	5
161	4
171	14
172	53
173	88
174	115
175	185
176	26
177	1
183	2
189	42
190	5
201	536
202	89
203	12
218	385
219	55
220	4
247	19
248	1
304	1
