Mass Spectrum: 7,8-Dioxaspiro[bicyclo[3.2.1]octane-2,2'-oxolane]-5'-one
Formula: C9H12O4
CAS: 1292210-70-8
Molecular weight: 184
m/z	intensity
36	2
37	13
38	29
39	160
40	65
41	266
42	271
43	249
44	92
45	22
46	1
47	6
50	23
51	40
52	25
53	103
54	111
55	399
56	348
57	124
58	16
59	3
60	1
62	3
63	11
64	9
65	27
66	21
67	72
68	45
69	77
70	328
71	55
72	16
73	9
74	3
77	28
78	8
79	52
80	10
81	47
82	30
83	119
84	20
85	46
86	8
87	1
91	10
92	2
93	17
94	26
95	71
96	31
97	61
98	999
99	95
100	14
101	18
107	3
108	4
109	16
110	45
111	59
112	11
113	13
114	3
121	2
124	2
125	2
126	3
127	4
128	10
129	1
130	1
136	1
137	1
138	195
139	44
140	23
141	37
142	2
155	7
156	42
157	3
184	95
185	9
186	1
