Mass Spectrum: 1-Isothiocyanato-7-(methylsulfinyl)heptane
Formula: C9H17NOS2
CAS: 129244-98-0
Molecular weight: 219
m/z	intensity
26	1
27	24
28	9
29	37
30	3
31	2
32	2
33	1
34	1
35	3
37	1
38	2
39	70
40	13
41	255
42	28
43	63
44	7
45	29
46	9
47	22
48	11
49	4
50	3
51	5
52	4
53	40
54	33
55	999
56	57
57	14
58	11
59	24
60	32
61	72
62	7
63	70
64	116
65	26
66	14
67	113
68	46
69	191
70	35
71	12
72	338
73	20
74	33
75	6
76	3
77	12
78	52
79	30
80	18
82	37
83	23
84	12
85	19
86	17
87	11
88	2
89	3
90	1
91	13
93	15
94	17
95	72
96	37
97	50
98	25
99	9
100	20
101	19
102	7
103	2
105	5
106	2
108	19
110	30
111	9
112	17
113	8
114	24
115	7
116	3
117	81
118	8
119	20
120	5
121	9
122	30
123	121
124	20
125	4
126	8
127	10
128	15
129	17
130	2
132	1
138	6
139	4
140	20
141	3
142	4
143	2
144	2
146	1
147	3
150	4
151	2
152	3
154	25
155	12
156	275
157	27
158	16
161	9
162	1
163	2
164	2
167	1
168	1
170	5
171	1
172	3
174	1
186	9
187	1
202	404
203	53
204	44
205	6
206	2
219	89
220	12
221	8
222	1
