Mass Spectrum: 2-[(1,1-Dimethylethyl)dimethylsilyl]-N,N-dimethyl-1H-imidazole-1sulfonamide
Formula: C11H23N3O2SSi
CAS: 129378-52-5
Molecular weight: 289
m/z	intensity
29	999
30	68
31	114
32	140
33	4
34	4
37	4
39	165
40	89
41	545
42	734
43	983
44	908
45	270
46	26
47	14
48	26
49	5
50	4
51	2
53	60
54	128
55	194
56	112
57	318
58	131
59	264
60	31
61	24
62	2
63	2
64	27
65	9
66	2
67	52
68	90
69	112
70	162
71	44
72	25
73	238
74	29
75	155
76	32
77	14
78	2
79	4
81	15
82	136
83	65
84	66
85	24
86	23
87	3
88	12
90	5
92	253
93	10
94	10
95	39
96	24
97	432
98	339
99	76
100	17
101	3
102	590
103	47
104	24
106	6
107	15
108	191
109	23
110	25
111	22
112	12
113	2
114	15
115	5
122	3
123	11
124	76
125	291
126	36
127	12
133	11
135	4
139	6
140	2
141	32
142	7
149	3
150	3
151	9
152	2
153	6
154	8
165	4
166	56
167	2
168	10
181	2
189	27
190	4
202	2
232	734
233	261
234	88
235	22
236	2
274	16
