Mass Spectrum: 2(3H)Furanone, dihydro-4-iodomethyl-
Formula: C5H7IO2
CAS: 129352-51-8
Molecular weight: 226
m/z	intensity
20	1
25	2
26	28
27	179
28	37
29	211
30	12
31	10
32	2
36	2
37	18
38	37
39	306
40	54
41	709
42	130
43	175
44	16
45	3
49	2
50	8
51	12
52	3
53	39
54	17
55	999
56	48
57	13
58	1
59	3
60	1
61	0
63	0
65	0
66	1
67	2
68	12
69	93
70	10
71	173
72	8
73	4
74	0
75	0
76	0
77	3
78	2
79	1
81	1
82	1
83	4
84	1
85	3
86	1
87	2
89	0
91	1
95	1
96	0
97	2
98	3
99	26
100	1
101	3
105	1
107	0
109	1
111	1
112	1
113	1
115	0
119	0
123	0
125	0
127	44
128	15
129	2
135	1
137	0
139	1
140	1
141	13
142	0
147	0
149	0
150	0
152	0
153	1
154	2
155	4
156	1
157	2
158	2
159	0
160	0
165	0
167	5
168	0
169	4
171	0
175	0
183	0
189	0
195	0
197	0
200	0
211	0
225	0
226	260
227	15
228	1
