Mass Spectrum: Ferrocene, (chlorocarbonyl)-
Formula: C11H9ClFeO
CAS: 1293-79-4
Molecular weight: 248
m/z	intensity
64	130
91	100
92	999
121	70
155	90
156	530
183	260
213	90
248	570
