Mass Spectrum: 1,1'-Ferrocenedicarboxylic acid
Formula: C12H10FeO4
CAS: 1293-87-4
Molecular weight: 274
m/z	intensity
26	7
27	38
28	45
29	27
30	8
31	5
36	3
37	18
38	75
39	153
40	8
41	14
42	6
43	18
44	81
45	53
46	1
50	9
51	20
52	6
53	48
54	29
55	19
56	382
57	34
58	3
60	3
61	9
62	45
63	315
64	514
65	75
66	16
67	3
68	3
69	3
70	3
71	18
73	248
74	12
75	10
76	4
77	19
78	3
79	6
81	131
82	22
83	19
84	3
85	3
87	1
89	4
91	10
92	999
93	108
94	75
95	7
97	2
98	2
99	2
101	5
102	15
103	3
105	8
106	4
107	9
108	4
109	18
110	7
111	15
115	8
116	3
117	11
118	28
119	59
120	49
121	12
126	11
127	25
128	102
129	26
130	3
131	3
132	2
133	2
135	13
136	6
137	65
138	61
139	4
145	2
146	2
147	5
155	17
157	21
158	7
163	3
164	24
165	65
166	6
180	1
181	2
182	41
183	21
184	48
185	9
201	5
210	38
211	5
212	585
213	86
214	7
229	3
230	41
256	35
257	9
258	3
272	51
273	6
274	791
275	127
276	19
