Mass Spectrum: Acetamide, 2,2,2-trifluoro-N-(2,3-dimethyl-5-oxo-1-phenyl-3-pyrazolin-4-yl)-
Formula: C13H12F3N3O2
CAS: 129476-61-5
Molecular weight: 299
m/z	intensity
33	7
37	4
38	11
39	20
40	12
42	58
43	9
44	2
45	1
46	0
48	0
51	56
52	15
54	58
56	999
59	0
60	0
61	1
63	17
64	24
65	16
67	18
69	75
71	0
72	0
73	0
74	1
75	3
77	85
78	4
80	3
83	412
85	0
87	0
88	0
89	1
91	37
92	18
93	15
94	2
95	0
97	7
99	1
101	0
102	1
103	4
104	10
105	3
106	4
107	0
109	3
110	4
111	5
112	0
115	0
116	1
118	11
119	9
120	5
121	1
122	0
124	0
125	1
127	0
128	1
129	1
130	2
132	16
133	1
136	1
137	5
138	1
139	0
142	0
143	0
145	8
146	4
147	2
148	0
150	1
151	0
152	0
156	0
157	0
158	2
159	5
160	1
161	1
162	0
165	0
171	2
172	2
173	2
174	0
175	0
177	0
178	1
179	1
180	3
184	1
185	1
186	2
187	3
188	2
189	0
199	0
200	1
202	19
203	2
204	0
212	1
213	1
214	4
215	3
216	0
227	1
230	226
231	24
232	2
233	0
250	0
252	0
270	0
280	2
281	0
296	1
299	268
300	34
301	2
302	0
