Mass Spectrum: N-Acetyl p-ethoxyamphetamine
Formula: C13H19NO2
CAS: 129476-59-1
Molecular weight: 221
m/z	intensity
44	999
51	23
52	11
63	10
65	13
77	71
78	20
86	134
89	15
91	22
105	14
107	223
108	25
117	9
119	9
133	135
135	57
136	16
147	0
149	1
150	0
162	656
164	39
176	0
178	2
179	1
205	0
206	0
207	0
221	14
222	1
