Mass Spectrum: Nickel, iodo[.eta.7-1,2,3,4-tetramethyl-5-(4-pentenyl)-2,4-cyclopentadien-1-yl]-
Formula: C14H21INi
CAS: 129447-36-5
Molecular weight: 374
m/z	intensity
26	18
27	383
28	7
29	338
30	14
31	0
35	0
36	3
37	1
38	7
39	376
40	45
41	703
42	50
43	77
44	6
45	0
49	0
50	18
51	121
52	47
53	284
54	33
55	276
56	19
57	25
58	333
59	6
60	124
61	6
62	17
63	50
64	15
65	203
66	28
67	90
68	6
69	40
70	7
71	5
72	8
73	3
74	4
75	11
76	11
77	400
78	101
79	258
80	23
81	39
82	3
83	11
84	50
85	33
86	24
87	14
88	4
89	31
90	9
91	791
92	86
93	119
94	12
95	16
96	14
97	38
98	29
99	40
100	15
101	14
102	30
103	154
104	74
105	511
106	64
107	93
108	11
109	19
110	30
111	27
112	63
113	33
114	24
115	329
116	157
117	358
118	129
119	999
120	151
121	93
122	28
123	42
124	44
125	18
126	19
127	73
128	144
129	159
130	69
131	201
132	78
133	856
134	445
135	192
136	61
137	24
138	78
139	18
140	23
141	61
142	39
143	74
144	20
145	106
146	41
147	242
148	111
149	32
150	99
151	39
152	82
153	24
154	25
155	26
156	19
157	17
158	14
159	32
160	54
161	24
162	35
163	47
164	127
165	65
166	93
167	26
168	28
169	13
170	8
171	9
172	4
173	56
174	53
175	60
176	171
177	89
178	185
179	56
180	64
181	16
182	12
183	6
184	3
185	152
186	59
187	76
188	116
189	136
190	440
191	414
192	834
193	318
194	334
195	104
196	55
197	16
198	11
199	10
200	29
201	31
202	91
203	40
204	271
205	52
206	116
207	23
208	19
209	2
210	5
212	1
213	7
214	7
215	6
216	6
217	5
218	9
219	6
220	5
221	2
222	0
225	0
226	1
227	3
228	6
229	4
230	6
231	8
232	4
233	3
234	0
236	0
238	0
239	1
241	2
242	0
243	4
244	7
245	23
246	930
247	501
248	419
249	199
250	81
251	30
252	18
253	7
260	0
272	0
302	9
303	3
304	3
305	0
306	1
317	1
318	3
319	37
320	7
321	14
322	3
323	2
325	0
326	0
328	0
332	4
334	1
374	533
375	90
376	229
377	43
378	36
379	5
380	8
