Mass Spectrum: 1-[4-(Dodecane-1-sulfonyl)phenyl]-2,2,2-trifluoroethanone
Formula: C20H29F3O3S
CAS: 129476-48-8
Molecular weight: 406
m/z	intensity
25	5
26	137
29	348
30	8
31	31
33	1
38	3
39	104
40	20
41	735
42	164
43	999
44	30
45	4
50	43
51	15
52	3
53	38
54	49
55	649
56	218
57	848
58	34
59	5
62	1
63	8
64	2
65	10
66	4
67	59
68	69
69	386
70	159
71	391
72	19
73	1
74	9
75	25
76	119
77	37
78	4
79	9
80	2
81	27
82	52
83	243
84	98
85	226
86	13
87	1
89	1
90	8
91	11
92	3
93	8
94	1
95	27
96	23
97	152
98	59
99	48
100	2
101	0
102	0
103	4
104	134
105	37
106	2
107	2
108	2
109	3
110	10
111	66
112	31
113	29
114	2
115	2
116	0
117	2
118	11
119	2
120	4
121	81
122	8
123	43
124	13
125	24
126	17
127	12
128	1
129	1
130	0
131	16
132	2
133	2
136	2
137	2
138	2
139	9
140	29
141	5
142	14
143	3
144	0
145	7
146	0
147	1
149	3
152	30
153	15
154	2
155	1
156	0
157	0
159	5
160	0
161	1
165	0
166	2
167	2
168	57
169	79
170	6
171	11
172	0
173	54
174	26
175	3
183	4
184	0
185	2
186	0
187	44
188	181
189	17
190	46
191	4
197	2
201	43
202	9
203	3
211	1
213	1
214	5
215	35
216	6
217	0
220	0
221	18
222	4
223	8
224	0
225	3
227	0
228	4
229	30
230	8
233	3
237	13
238	102
239	501
240	65
241	30
242	2
243	14
244	2
251	10
252	13
253	2
257	9
258	0
265	73
266	8
267	3
271	6
272	0
273	2
279	2
285	2
293	3
299	1
307	2
308	0
309	2
313	2
314	30
315	4
320	4
321	1
322	0
337	48
338	10
339	3
340	93
341	24
342	24
343	4
372	1
389	9
390	1
391	0
406	6
407	2
