Mass Spectrum: 4-Chloro-2-methylbenzyl alcohol
Formula: C8H9ClO
CAS: 129716-11-6
Molecular weight: 156
m/z	intensity
15	5
19	1
25	1
26	9
27	36
28	5
29	49
30	5
31	40
35	3
36	4
37	17
38	41
39	165
40	16
41	28
42	3
43	30
44	8
45	20
46	7
47	4
48	1
49	23
50	108
51	257
52	36
53	34
54	3
55	10
56	1
57	1
58	1
59	20
60	40
61	41
62	96
63	237
64	43
65	192
66	17
67	4
68	13
69	25
70	6
72	7
73	64
74	57
75	105
76	36
77	738
78	100
79	10
80	1
81	2
84	9
85	25
86	37
87	38
88	10
89	237
90	61
91	999
92	109
93	440
94	35
95	1
96	2
97	15
98	10
99	79
100	9
101	57
102	78
103	429
104	65
105	18
106	3
107	1
108	1
109	1
110	2
111	32
112	52
113	116
114	23
115	37
116	2
117	1
119	98
120	43
121	413
122	38
123	11
125	173
126	19
127	210
128	19
129	51
130	4
136	5
138	991
139	253
140	334
141	362
142	29
143	92
144	7
153	77
154	29
155	101
156	643
157	78
158	202
159	19
160	1
