Mass Spectrum: Cyclohexanone, 2-(2-methoxyethyl)-
Formula: C9H16O2
CAS: 129786-15-8
Molecular weight: 156
m/z	intensity
26	6
27	75
28	26
29	60
31	9
39	92
40	21
41	158
42	43
43	33
45	344
46	8
49	7
51	10
52	5
53	41
54	38
55	156
56	16
57	14
58	29
59	193
60	6
65	8
66	8
67	73
68	47
69	28
70	267
71	45
77	10
79	19
80	25
81	31
82	7
83	151
84	13
85	5
91	5
93	7
94	3
95	18
96	34
97	119
98	999
99	69
100	6
109	5
111	24
112	5
113	8
123	8
124	21
125	7
141	2
156	50
157	6
