Mass Spectrum: Undecanoic acid, 3-hydroxy-, methyl ester
Formula: C12H24O3
CAS: 129758-71-0
Molecular weight: 216
m/z	intensity
31	75
33	31
39	44
40	20
41	220
42	87
43	335
44	83
45	30
53	25
54	35
55	182
56	101
57	175
58	23
59	79
61	127
67	53
68	58
69	131
70	54
71	239
72	23
73	14
74	291
75	50
77	9
78	8
79	16
81	59
82	58
83	62
84	34
85	28
86	7
87	45
88	7
91	9
93	7
94	8
95	32
96	60
97	25
98	45
99	10
100	15
101	46
102	18
103	999
104	50
105	11
109	12
110	11
111	10
113	20
114	23
115	16
116	9
117	7
122	8
123	10
124	51
125	23
127	11
128	12
129	11
137	7
138	9
141	25
142	12
143	16
149	10
166	29
167	34
198	14
