Mass Spectrum: Benzene, [1-(methoxymethoxy)-2-propynyl]-
Formula: C11H12O2
CAS: 129758-81-2
Molecular weight: 176
m/z	intensity
26	3
27	9
29	36
30	7
31	30
37	3
38	9
39	60
40	6
41	8
42	1
43	2
44	6
45	559
46	12
50	33
51	69
52	12
53	81
54	3
55	8
57	3
58	8
60	13
61	11
62	31
63	87
64	14
65	63
66	5
68	11
69	3
73	2
74	20
75	26
76	12
77	76
78	12
79	6
83	2
85	3
86	11
87	17
88	26
89	91
90	12
91	27
92	3
98	3
102	40
103	39
104	5
105	40
106	7
110	3
113	36
114	345
115	999
116	302
117	35
118	3
121	6
129	4
130	20
131	41
132	13
133	3
134	2
143	10
144	409
145	61
146	12
161	3
175	4
176	1
