Mass Spectrum: Phenyl 4,6-di-O-dimethyl-tert-butylsilyl-2,3-dideoxy-.alpha.-d-erythro-hex-2-enopyranoside
Formula: C24H42O4Si2
CAS: 129889-15-2
Molecular weight: 450
m/z	intensity
73	999
75	264
81	252
89	276
93	30
94	121
100	107
103	47
115	142
117	472
118	65
133	76
145	45
147	39
149	62
151	139
157	60
197	131
198	42
211	219
212	23
225	166
226	35
246	10
247	19
264	11
281	8
299	7
357	71
381	5
393	9
394	9
426	10
450	8
