Mass Spectrum: .alpha.-D-Ribopyranoside, methyl, cyclic 2,4-(phenylboronate) 3-acetate
Formula: C14H17BO6
CAS: 129940-99-4
Molecular weight: 292
m/z	intensity
26	11
27	55
28	31
29	56
30	4
31	27
32	2
33	14
37	2
38	3
39	56
40	12
41	60
42	29
43	999
44	32
45	64
46	1
47	1
49	1
50	13
51	34
52	19
53	30
54	7
55	23
56	5
57	37
58	7
59	12
60	2
61	14
62	1
63	5
64	2
65	5
66	3
67	3
68	106
69	522
70	28
71	15
72	2
73	15
74	40
75	4
76	7
77	45
78	26
79	15
80	1
81	2
82	3
83	5
84	8
85	18
86	51
87	52
88	7
89	25
90	16
91	42
92	3
93	1
94	1
95	2
96	1
97	7
98	4
99	16
100	3
101	5
102	7
103	40
104	92
105	208
106	13
107	2
109	1
110	3
111	10
112	55
113	86
114	4
115	8
116	7
117	45
118	14
119	20
120	5
121	22
122	10
123	1
124	0
125	1
126	3
127	3
128	9
129	5
130	3
131	11
132	1
133	2
135	1
136	3
137	0
140	1
141	2
142	2
143	4
144	8
145	59
146	212
147	46
148	9
149	24
150	2
151	1
152	1
153	3
154	89
155	345
156	25
157	6
158	22
159	92
160	18
161	16
162	3
163	7
164	19
165	1
167	2
168	0
169	0
170	2
171	40
172	186
173	144
174	18
175	8
176	1
185	1
186	2
187	6
188	10
189	14
190	7
191	0
200	1
201	11
202	26
203	6
204	1
212	1
213	1
214	56
215	229
216	22
217	6
218	1
219	2
231	3
232	7
233	1
260	1
261	6
262	1
279	1
291	4
292	18
293	2
