Mass Spectrum: Pentonamide, N-hexyl-
Formula: C11H23NO5
CAS: 129994-59-8
Molecular weight: 249
m/z	intensity
26	6
27	84
29	125
30	632
31	67
36	2
38	1
39	27
40	50
41	152
42	40
43	464
44	82
45	56
46	21
47	3
48	1
52	1
53	8
54	5
55	63
56	33
57	75
58	33
59	26
60	53
61	146
62	7
65	2
66	1
67	6
68	5
69	19
70	13
71	40
72	22
73	999
74	102
75	21
76	15
77	1
80	1
81	3
82	2
83	8
84	18
85	227
86	73
87	18
88	47
89	48
90	3
91	43
92	1
93	1
96	2
97	2
98	10
99	7
100	43
101	28
102	48
103	89
104	23
105	2
110	1
111	4
112	6
113	3
114	13
115	6
116	13
117	8
118	1
123	1
124	2
125	2
126	2
127	2
128	483
129	47
130	22
131	2
132	4
138	1
141	1
142	7
143	4
144	3
146	8
147	1
148	2
150	2
153	2
154	2
156	2
157	2
158	106
159	355
160	35
161	5
166	3
170	17
171	17
172	27
173	3
174	1
178	9
179	29
180	1
188	375
189	42
190	4
191	2
192	7
193	1
200	29
201	10
202	4
206	19
207	3
213	4
214	2
216	2
218	38
219	5
220	8
230	2
231	9
232	2
234	2
248	2
249	20
250	9
251	1
