Mass Spectrum: Cyclohexene, 1-methyl-3-(formylmethyl)-
Formula: C9H14O
CAS: 129993-40-4
Molecular weight: 138
m/z	intensity
26	4
27	83
29	48
30	2
31	34
33	2
37	3
38	11
39	181
40	32
41	237
42	18
43	85
44	4
45	13
46	0
49	0
50	15
51	48
52	20
53	125
54	78
55	272
56	51
57	17
58	1
59	12
60	0
61	2
62	7
63	16
64	3
65	65
66	30
67	588
68	105
69	41
70	34
71	3
73	1
74	8
75	2
76	0
77	133
78	32
79	401
80	60
81	270
82	91
83	21
84	6
85	1
86	0
89	2
90	0
91	123
92	69
93	185
94	954
95	999
96	104
97	12
98	1
103	4
104	1
105	84
106	7
107	34
108	6
109	115
110	45
111	5
112	0
115	1
117	2
118	0
119	5
120	24
121	16
122	5
123	293
124	26
125	1
137	18
138	234
139	25
140	2
