Mass Spectrum: 12,16-Dihydroxy-4,7,14,20-tetraoxa-1,10-diazabicyclo[8.7.5]-docozane
Formula: C16H32N2O6
CAS: 129940-61-0
Molecular weight: 348
m/z	intensity
54	128
55	367
56	999
57	611
58	833
59	256
69	233
70	722
71	417
72	611
73	139
74	250
75	67
78	222
79	150
82	333
83	444
84	361
85	333
86	500
87	183
88	778
95	139
96	222
97	189
98	339
99	306
100	999
101	311
102	317
109	139
110	128
111	228
112	361
113	167
114	944
115	167
116	311
118	167
122	250
124	133
125	117
126	300
127	117
128	289
129	156
130	322
131	106
132	350
142	178
143	133
144	611
145	111
146	444
147	78
148	150
149	333
150	144
155	167
156	117
157	78
158	233
159	94
160	306
161	83
162	233
167	222
168	67
169	78
170	183
171	111
172	156
173	150
174	178
185	111
186	144
187	128
188	222
189	111
190	256
199	167
200	61
201	122
202	111
203	83
204	194
213	139
214	56
215	100
216	139
217	144
218	161
230	167
231	444
232	111
233	56
243	178
244	83
245	311
246	128
247	78
248	317
249	56
255	94
256	56
257	89
259	139
261	133
269	111
270	44
271	111
273	122
274	89
275	83
285	78
288	44
299	61
301	67
303	111
304	50
305	56
317	133
318	50
330	244
331	167
332	72
348	111
349	56
