Mass Spectrum: Ethanone, 1-[4-(4,6-dimethyl-2-pyrimidylamino)-1,2,3-triazol-5-yl]-
Formula: C10H12N6O
CAS: 129959-32-6
Molecular weight: 232
m/z	intensity
33	63
34	1
39	516
40	198
42	999
43	697
50	7
51	36
52	89
53	193
55	125
56	10
57	3
62	1
63	10
65	336
67	946
68	89
70	51
71	3
77	6
78	7
79	14
80	101
81	101
82	42
83	26
90	1
91	10
93	241
95	42
96	156
105	8
106	18
107	685
108	432
109	46
110	1
117	1
119	29
120	15
121	11
123	327
124	31
125	3
131	0
132	8
134	471
135	62
136	3
144	4
147	7
149	112
150	18
158	29
159	14
161	64
162	97
163	50
175	22
176	78
177	4
184	1
185	12
187	558
189	390
190	19
200	1
201	7
203	618
204	219
205	19
217	5
230	1
232	567
233	43
234	3
