Mass Spectrum: Bicyclo[3.3.1]nonan-9-one, 1,2,4-trimethyl-3-nitro-, (2-endo,3-exo,4-exo)-(.+-.)-
Formula: C12H19NO3
CAS: 129967-65-3
Molecular weight: 225
m/z	intensity
26	11
27	193
28	34
29	173
30	31
39	232
40	50
41	782
42	55
43	367
44	10
46	11
51	44
52	26
53	188
54	49
55	565
56	33
57	75
59	44
63	12
65	68
66	29
67	370
68	66
69	864
70	51
73	18
77	114
78	26
79	151
80	33
81	622
82	74
83	168
85	31
91	112
92	18
93	149
94	36
95	999
96	94
97	33
105	41
106	10
107	156
108	30
109	444
110	45
111	28
119	17
121	96
122	30
123	63
135	36
136	11
137	18
151	152
152	19
161	19
178	11
179	76
180	10
