Mass Spectrum: Benzamide, N-(5-acetyl-1,2,3-triazol-4-yl)-
Formula: C11H10N4O2
CAS: 129959-33-7
Molecular weight: 230
m/z	intensity
34	0
36	0
37	1
38	4
39	10
40	14
41	5
42	17
43	72
44	10
45	1
50	14
51	99
52	10
53	5
54	7
55	6
56	1
57	2
60	0
62	1
63	3
64	1
65	3
66	1
67	3
68	2
69	3
70	2
71	3
72	7
73	1
74	4
75	6
76	21
77	385
78	33
79	3
81	0
82	1
83	1
84	1
87	0
89	2
90	1
91	4
92	2
93	2
94	0
95	0
98	0
99	1
101	0
102	2
104	135
105	999
106	78
107	5
108	2
109	0
110	0
111	0
112	0
113	0
114	0
115	1
116	0
117	1
118	0
119	1
120	1
121	1
122	1
127	0
128	0
129	1
130	0
131	1
132	3
133	0
135	0
136	0
139	0
140	1
141	0
143	2
144	4
145	0
147	0
148	0
149	3
150	0
151	0
152	0
153	0
155	1
156	2
157	2
158	0
159	11
160	1
165	0
166	0
168	0
169	0
171	2
172	0
173	2
174	17
175	2
176	0
178	0
180	0
181	0
185	2
186	0
187	7
188	1
189	0
190	0
193	0
194	0
196	0
200	0
201	24
202	36
203	4
204	0
214	0
215	1
227	0
229	30
230	141
231	19
232	2
233	0
234	0
