Mass Spectrum: 4-Toluenesulfonamide, 3-nitro-N-(1-iminopropyl)-
Formula: C10H13N3O4S
CAS: 129958-15-2
Molecular weight: 271
m/z	intensity
33	2
34	2
37	9
39	228
40	41
41	44
43	999
44	232
45	24
46	20
48	28
50	69
51	140
52	79
53	67
54	116
56	387
57	31
58	8
59	4
61	20
62	92
63	379
64	172
65	90
66	30
67	16
68	7
69	28
70	41
71	199
73	26
74	29
75	43
76	31
77	168
78	90
79	56
80	48
81	12
82	6
83	6
84	9
85	11
86	24
87	28
89	828
90	237
91	93
92	24
93	16
94	18
95	10
96	4
97	5
98	2
99	4
100	2
101	6
102	18
103	17
104	40
105	64
106	173
107	79
108	28
109	12
110	5
111	3
112	2
113	2
115	18
116	10
117	33
118	128
119	143
120	51
121	34
122	23
123	8
124	2
125	1
126	1
127	6
128	7
129	5
130	4
131	11
132	15
133	13
135	84
136	340
137	48
138	7
139	4
140	4
141	23
142	7
143	12
144	31
145	26
146	28
148	303
149	31
150	3
151	3
152	6
153	13
154	5
155	6
157	8
158	9
159	27
160	74
161	44
162	15
163	3
165	29
166	4
167	7
168	5
169	2
170	6
171	4
172	8
173	23
174	5
175	3
176	4
177	2
178	12
179	3
180	5
182	59
183	6
184	18
185	6
186	4
187	2
188	11
189	18
190	92
191	61
192	13
193	1
194	0
195	0
196	2
197	5
199	141
200	300
201	28
202	18
203	2
206	345
207	140
208	18
209	1
210	0
211	0
212	0
214	4
216	25
217	5
218	2
219	1
221	0
222	0
223	0
224	6
225	5
226	2
227	1
228	0
229	0
230	0
233	0
235	0
236	1
237	1
238	1
239	0
240	0
241	9
242	4
243	1
244	0
245	0
251	0
252	0
254	24
255	6
256	2
257	2
259	3
267	2
268	0
271	318
272	38
273	18
274	1
