Mass Spectrum: Methyl 2,3,4-tri-O-acetyl-.beta.-D-xylopyranoside
Formula: C12H18O8
CAS: 13007-37-9
Molecular weight: 290
m/z	intensity
43	999
45	19
47	3
53	0
55	7
57	12
58	6
60	13
61	10
68	46
69	109
71	13
73	15
74	17
82	6
84	14
85	34
86	47
87	23
88	0
97	20
99	18
100	9
102	34
103	36
105	2
110	0
111	9
113	2
115	56
116	2
117	0
127	8
128	104
129	13
131	0
139	5
142	1
144	3
145	8
157	37
158	3
170	72
171	15
199	0
259	0
