Mass Spectrum: N,N-Di(2-propynyl)-N-ethylamine
Formula: C8H11N
CAS: 13002-92-1
Molecular weight: 121
m/z	intensity
27	17
28	55
29	17
39	233
40	19
41	70
42	194
43	19
51	12
52	12
53	46
54	22
65	65
66	151
67	17
68	31
77	98
78	26
79	14
106	999
107	91
108	8
121	91
122	9
