Mass Spectrum: Benzene, 1-chloro-4-(2-chloroethoxy)-
Formula: C8H8Cl2O
CAS: 13001-28-0
Molecular weight: 190
m/z	intensity
41	17
42	9
43	20
44	7
45	5
47	12
49	59
50	105
51	70
53	27
55	20
56	4
57	6
58	0
61	54
63	999
65	373
66	10
69	50
70	4
71	5
72	17
73	121
74	15
75	156
76	25
77	35
78	6
79	3
81	5
82	2
83	6
85	21
86	3
87	5
89	10
91	28
92	15
93	15
94	2
95	2
96	1
97	8
99	169
100	71
101	36
102	19
103	0
105	2
107	7
109	5
111	97
113	74
114	3
115	12
116	1
119	6
120	0
121	7
122	0
124	7
125	9
127	60
128	854
130	422
132	1
133	2
134	1
135	1
136	1
138	1
139	1
141	103
143	45
144	4
145	0
146	1
148	1
149	1
150	1
151	0
153	2
154	5
155	8
156	2
189	14
190	335
192	225
194	32
195	3
196	0
