Mass Spectrum: 2-Difluoroamino-2-fluoro-3-(N-fluoroimino)succinoitrile
Formula: C4F4N4
CAS: 13000-66-3
Molecular weight: 180
m/z	intensity
31	734
32	8
38	212
39	6
52	387
53	12
57	356
58	9
71	173
72	5
76	999
77	26
78	6
109	207
110	12
128	995
129	55
130	1
161	10
162	1
180	7
