Mass Spectrum: Trifluoromethyl ethyl sulfide
Formula: C3H5F3S
CAS: 13003-31-1
Molecular weight: 130
m/z	intensity
35	47
50	12
58	198
61	129
63	95
69	713
70	5
82	129
83	318
85	10
101	50
102	40
103	9
111	132
113	3
115	507
116	9
117	20
129	8
130	999
131	85
132	52
