Mass Spectrum: 5-Benzyl-5-acetylamino-6-imino-1,2,5,6-tetrahydro-2-thioxopyrimidin-4(3H)-one
Formula: C13H14N4O2S
CAS: 130030-08-9
Molecular weight: 290
m/z	intensity
86	20
89	20
90	23
91	999
92	98
98	105
103	20
110	17
117	27
118	44
119	20
128	17
129	23
145	30
152	20
157	201
158	27
171	27
186	17
188	27
189	23
190	30
200	20
201	20
216	34
229	30
230	47
231	51
232	23
247	64
248	133
249	20
290	276
291	34
292	17
