Mass Spectrum: 2-[4-(4-Methoxycinnamoyl)anilino]-3-piperidino-1,4-naphthoquinone
Formula: C31H28N2O4
CAS: 130090-04-9
Molecular weight: 492
m/z	intensity
40	18
41	148
42	203
43	220
44	281
45	12
50	12
51	17
52	10
53	28
54	32
55	116
56	338
57	314
58	13
60	8
63	7
64	5
65	44
67	21
68	22
69	15
70	99
71	7
75	9
76	43
77	67
78	13
79	14
80	17
82	22
83	18
84	999
85	489
86	35
89	27
90	20
91	23
92	45
93	15
97	7
101	15
102	27
103	38
104	56
105	78
106	6
107	5
108	15
112	5
113	20
115	14
116	13
117	16
118	33
119	22
120	89
121	48
127	6
128	8
129	12
130	18
131	15
132	15
133	125
134	13
135	9
137	13
139	5
140	7
143	9
144	11
145	30
146	11
147	33
148	7
151	17
152	14
154	9
156	6
158	15
159	11
160	22
161	146
162	18
163	5
164	6
165	49
166	16
167	13
168	7
169	6
170	11
171	12
172	30
173	6
174	7
176	5
177	5
178	8
179	20
180	16
181	6
182	13
183	9
185	5
186	12
187	16
188	55
189	9
190	13
191	24
192	6
193	11
194	20
195	13
196	9
197	6
198	11
199	83
200	15
201	8
202	16
203	12
206	6
207	11
208	10
209	23
210	50
211	22
212	14
213	11
217	20
218	9
219	8
220	12
221	9
222	14
223	21
224	17
225	27
226	7
227	8
228	8
232	7
235	7
236	18
237	77
238	120
239	26
240	22
241	41
245	15
246	62
247	10
248	12
249	6
252	44
253	178
254	29
255	18
262	6
263	7
272	20
273	12
274	56
275	24
276	41
278	5
280	5
288	6
291	11
301	15
302	13
317	32
318	112
319	21
320	5
327	18
328	9
329	9
330	32
331	14
332	15
333	7
343	9
345	12
346	10
356	10
357	39
358	8
370	20
371	91
372	24
373	77
374	201
375	48
376	7
394	5
406	12
407	5
408	8
409	57
410	26
411	9
419	7
421	14
435	35
436	193
438	8
448	7
449	9
462	23
463	20
475	107
476	39
477	16
491	138
492	644
493	215
494	66
495	16
