Mass Spectrum: Propanedinitrile, (2-methylcyclohexylidene)-
Formula: C10H12N2
CAS: 13017-64-6
Molecular weight: 160
m/z	intensity
22	0
23	1
24	3
25	4
26	54
27	475
28	191
29	264
30	18
33	1
34	0
35	4
36	2
37	36
38	61
39	518
40	109
41	993
42	214
43	103
44	4
45	2
46	1
47	2
48	1
49	7
50	66
51	128
52	97
53	120
54	57
55	668
56	600
57	28
58	2
59	3
60	1
61	9
62	31
63	95
64	107
65	115
66	79
67	200
68	260
69	999
70	57
71	3
72	1
73	0
74	7
75	36
76	71
77	126
78	157
79	103
80	53
81	29
82	24
83	1
84	1
85	0
86	2
87	6
88	16
89	39
90	48
91	172
92	129
93	68
94	54
95	67
96	5
99	1
100	2
101	5
102	21
103	23
104	63
105	155
106	119
107	42
108	6
110	0
111	0
114	7
115	9
116	36
117	25
118	120
119	113
120	64
121	4
127	2
128	11
129	10
130	13
131	73
132	142
133	48
134	8
141	2
142	7
143	18
144	9
145	162
146	14
147	0
157	3
158	10
159	128
160	134
161	13
162	0
