Mass Spectrum: Cyclopropane-1,1,2,2-tetracarbonitrile, 3-ethyl-3-methyl-
Formula: C10H8N4
CAS: 13017-68-0
Molecular weight: 184
m/z	intensity
33	23
34	6
36	9
37	43
38	110
39	218
40	55
41	324
42	56
43	39
44	45
45	13
46	1
48	2
49	9
50	41
51	66
52	51
53	43
55	333
56	999
57	46
58	3
59	2
60	2
61	6
62	20
63	37
64	69
65	37
66	32
67	9
68	7
69	6
70	5
71	5
72	1
73	2
74	4
75	22
76	44
77	31
78	27
79	11
80	3
81	3
82	3
83	3
84	2
85	2
86	2
87	3
88	8
89	8
90	5
91	8
92	10
93	8
94	1
95	2
96	1
97	1
98	2
99	1
100	3
101	6
102	13
103	7
104	3
105	12
106	1
107	0
109	1
110	0
111	1
112	1
113	2
114	2
115	4
116	1
117	4
119	6
120	3
121	1
122	0
124	0
125	0
126	0
127	2
128	4
129	10
130	8
131	0
141	1
142	8
143	1
144	0
149	0
155	0
156	2
157	0
158	0
165	0
169	1
170	0
183	1
184	0
