Mass Spectrum: 2,2-Difluoro-3-(N-fluoroimino)succinoitrile
Formula: C4F3N3
CAS: 13016-06-3
Molecular weight: 147
m/z	intensity
31	291
32	3
50	232
51	3
52	118
53	4
76	999
77	22
78	155
79	7
128	401
129	22
130	1
147	6
