Mass Spectrum: 2-Difluoroamino-3-(N-fluoroimino)-1,1,1,2,4,4,4-heptafluoro- butene
Formula: C4F10N2
CAS: 13016-00-7
Molecular weight: 266
m/z	intensity
31	97
32	1
50	46
51	1
69	999
70	11
76	48
77	1
114	92
115	2
119	239
120	5
247	2
