Mass Spectrum: 1-Difluoroamino-2-(N-fluoroimino)-1,3,3,3-tetrafluoropropane
Formula: C3HF7N2
CAS: 13016-01-8
Molecular weight: 198
m/z	intensity
31	142
32	2
51	487
52	5
58	86
59	2
69	999
70	11
114	106
115	3
146	113
147	4
179	1
198	2
