Mass Spectrum: 2,3,4-Tribromopentane
Formula: C5H9Br3
CAS: 130156-61-5
Molecular weight: 306
m/z	intensity
26	36
27	183
29	34
37	31
38	79
39	434
40	94
41	672
42	39
43	25
50	51
51	77
52	27
53	138
62	22
63	27
65	149
67	999
68	98
69	100
79	49
80	37
81	45
82	37
107	271
109	264
119	102
120	21
121	106
122	18
123	26
147	564
149	559
150	32
227	305
229	585
230	36
231	276
