Mass Spectrum: 2-Butyl-2-ethylperhydro-1,3-oxazine
Formula: C10H21NO
CAS: 130191-22-9
Molecular weight: 171
m/z	intensity
27	80
28	90
29	140
30	170
31	260
39	50
41	270
42	100
54	60
55	100
56	680
57	210
59	360
70	120
71	60
84	660
85	999
86	90
98	180
99	100
100	250
112	220
114	320
129	410
140	50
142	400
156	50
171	20
