Mass Spectrum: Propanedinitrile, (1,2,2-trimethylpropylidene)-
Formula: C9H12N2
CAS: 13017-53-3
Molecular weight: 148
m/z	intensity
22	0
23	1
24	0
25	2
26	42
27	319
28	144
29	184
30	92
31	1
33	1
34	1
35	4
36	3
37	48
38	75
39	473
40	103
41	999
42	303
43	344
44	9
45	1
46	1
47	1
48	1
49	6
50	47
51	104
52	79
53	88
54	34
55	49
56	170
57	390
58	17
59	6
60	1
61	7
62	21
63	65
64	87
65	80
66	83
67	82
68	13
69	16
70	4
71	0
73	0
74	3
75	32
76	43
77	167
78	88
79	282
80	36
81	14
82	3
83	16
84	8
86	1
87	2
88	7
89	14
90	21
91	35
92	35
93	26
94	6
95	0
99	0
100	1
101	2
102	6
103	9
104	83
105	62
106	460
107	121
108	8
109	0
115	1
116	21
117	11
118	190
119	21
120	11
121	11
122	1
127	0
128	0
129	1
130	4
131	52
132	39
133	460
134	43
135	1
147	5
148	78
149	7
