Mass Spectrum: 1,3-Oxazine, tetrahydro-2-methyl-2-propyl-
Formula: C8H17NO
CAS: 130191-21-8
Molecular weight: 143
m/z	intensity
27	110
29	90
30	230
31	410
39	90
41	420
42	999
43	200
44	80
55	80
56	240
57	180
58	80
59	730
69	50
70	500
71	970
72	120
84	420
85	180
98	300
99	290
100	670
112	120
113	50
115	450
128	290
142	80
143	50
