Mass Spectrum: 2H-1,3-Oxazine, tetrahydro-2,3,6-trimethyl-
Formula: C7H15NO
CAS: 130191-20-7
Molecular weight: 129
m/z	intensity
27	50
41	60
42	450
43	220
44	460
45	60
55	90
56	110
57	370
58	70
60	80
70	190
71	50
72	920
78	60
85	140
86	120
114	999
115	80
128	100
129	180
