Mass Spectrum: Tricyclo[6.3.1.0(1,5)]dodecan-9-ol, 2-benzoyloxy-4,4,8-trimethyl-
Formula: C22H30O3
CAS: 13013-90-6
Molecular weight: 342
m/z	intensity
26	3
27	34
28	12
29	101
30	4
31	10
38	2
39	42
40	9
41	266
42	22
43	173
44	22
45	20
50	15
51	58
52	8
53	44
54	12
55	177
56	33
57	137
58	8
59	9
60	15
61	4
63	4
64	2
65	29
66	10
67	89
68	22
69	164
70	42
71	49
72	4
73	9
74	11
75	6
76	23
77	334
78	36
79	127
80	21
81	125
82	29
83	49
84	15
85	30
86	4
87	9
88	4
89	3
91	134
92	34
93	187
94	55
95	145
96	32
97	49
98	19
99	13
101	4
102	6
103	12
104	23
105	999
106	120
107	233
108	96
109	89
110	21
111	41
112	10
113	9
115	13
116	8
117	33
118	21
119	106
120	77
121	159
122	46
123	61
124	16
125	17
126	6
127	40
128	9
129	15
130	8
131	71
132	30
133	104
134	40
135	119
136	380
137	121
138	23
139	25
140	13
141	7
142	4
143	10
144	7
145	77
146	60
147	75
148	22
149	224
150	72
151	62
152	33
153	17
154	5
155	17
156	3
157	6
158	6
159	77
160	32
161	350
162	102
163	358
164	396
165	71
166	9
167	8
168	3
169	4
170	2
171	7
172	3
173	28
174	44
175	35
176	93
177	48
178	16
179	42
180	8
181	13
182	4
183	3
185	8
186	4
187	161
188	26
189	10
190	5
191	38
192	13
193	8
194	3
195	4
196	3
197	2
199	5
200	3
201	25
202	209
203	55
204	9
205	142
206	23
207	4
208	2
209	2
210	3
211	4
213	3
215	2
217	3
218	43
219	37
220	568
221	108
222	12
223	11
224	3
227	4
228	5
229	6
231	7
236	4
237	13
238	4
239	2
242	6
245	4
255	4
257	3
262	3
268	8
269	3
270	4
278	3
279	4
281	4
283	12
284	3
313	2
324	24
325	8
326	3
327	7
341	3
342	8
343	3
