Mass Spectrum: Propanedinitrile, (1,2-dimethylpropylidene)-
Formula: C8H10N2
CAS: 13017-52-2
Molecular weight: 134
m/z	intensity
26	74
27	484
28	205
29	194
30	7
31	15
36	2
37	71
38	115
39	519
40	114
41	530
42	999
43	345
44	11
45	8
46	3
47	1
48	1
49	11
50	68
51	122
52	108
53	94
54	40
55	58
56	103
57	9
58	0
59	7
60	1
61	14
62	39
63	113
64	165
65	360
66	196
67	62
68	26
69	118
70	8
71	10
72	2
73	1
74	6
75	39
76	77
77	89
78	82
79	132
80	89
81	52
82	4
83	1
84	0
85	0
86	5
87	6
88	13
89	17
90	30
91	98
92	744
93	405
94	54
95	3
99	1
100	1
101	3
102	16
103	11
104	13
105	31
106	176
107	149
108	16
109	1
110	0
113	0
115	0
116	2
117	12
118	55
119	788
120	69
121	2
131	4
132	5
133	156
134	369
135	40
136	2
