Mass Spectrum: 2-Benzofurancarboxylic acid, 7-methoxy-, (3,4,4-trimethyl-1,2-dioxetan-3-yl)methyl ester
Formula: C16H18O6
CAS: 130293-25-3
Molecular weight: 306
m/z	intensity
37	13
38	19
39	41
40	8
41	21
42	71
43	999
44	24
50	7
57	8
58	247
59	10
63	6
65	5
76	12
89	16
175	102
176	11
206	6
248	38
249	5
