Mass Spectrum: 2-Bromopropionic acid, 2-pentyl ester
Formula: C8H15BrO2
CAS: 130232-40-5
Molecular weight: 222
m/z	intensity
25	11
26	89
27	360
28	26
29	197
30	12
39	130
40	41
41	262
42	143
43	987
44	23
53	31
54	13
55	271
56	146
57	54
58	4
59	6
61	3
62	4
63	63
64	13
65	20
66	3
67	7
68	4
69	30
70	412
71	999
72	73
73	20
74	4
75	4
76	6
77	5
81	3
82	8
83	3
85	6
86	3
87	39
88	4
90	3
91	28
92	4
93	10
94	2
95	6
96	3
97	6
99	4
105	5
106	6
107	238
108	13
109	221
110	11
113	3
119	2
126	2
131	2
134	5
135	290
136	12
137	283
138	11
139	3
143	11
145	3
153	5
154	2
155	6
179	67
180	4
181	68
182	3
183	2
207	10
209	9
