Mass Spectrum: 2-Bromopropionic acid, 2-octyl ester
Formula: C11H21BrO2
CAS: 130232-43-8
Molecular weight: 264
m/z	intensity
25	9
26	101
27	576
28	62
29	440
30	4
39	218
40	43
41	750
42	344
43	999
44	6
53	62
54	49
55	629
56	667
57	979
58	93
59	11
60	10
61	2
62	7
63	21
64	2
65	14
66	8
67	46
68	50
69	247
70	478
71	900
72	63
73	19
74	11
75	7
76	2
77	9
80	7
81	28
82	54
83	226
84	128
85	41
86	4
89	2
91	15
92	3
93	3
94	3
95	11
96	10
97	82
98	9
99	10
100	9
101	5
104	2
105	8
106	9
107	245
108	17
109	237
110	12
111	34
112	475
113	196
114	16
115	3
117	2
119	4
122	2
127	2
128	3
129	53
130	4
133	2
134	7
135	384
136	20
137	374
138	13
139	14
141	3
151	3
153	19
154	2
155	15
156	5
179	107
180	8
181	99
182	5
185	24
186	3
