Mass Spectrum: 1,3,5-Triazaadamantan-7-ol
Formula: C7H13N3O
CAS: 130267-10-6
Molecular weight: 155
m/z	intensity
26	187
27	534
28	370
29	452
30	245
31	64
32	20
37	5
38	9
39	29
40	99
41	161
42	999
43	510
44	508
45	216
46	81
47	21
48	6
49	18
50	5
51	7
52	5
53	1
54	13
55	58
56	129
57	258
58	63
59	8
63	7
64	7
65	7
66	14
67	11
68	42
69	46
70	32
71	550
72	31
76	4
77	5
78	6
79	1
80	24
81	25
82	32
83	41
84	437
85	186
86	97
87	1
89	2
90	5
91	7
92	4
93	6
94	7
95	10
96	9
97	22
98	209
99	72
100	14
101	9
103	3
105	2
106	5
107	3
108	5
109	11
110	2
111	13
112	65
113	107
114	9
115	1
116	6
117	6
118	4
119	6
120	5
121	3
123	5
124	4
125	11
126	100
127	31
128	9
138	19
139	7
155	749
156	66
157	3
