Mass Spectrum: Boron, [2-[(dimethylamino)dimethylstannyl]-1-ethyl-1-propenyl-C,N]diethyl-, (t-4)-
Formula: C13H30BNSn
CAS: 130219-26-0
Molecular weight: 331
m/z	intensity
25	3
26	20
27	166
29	114
30	79
31	2
36	1
37	26
38	8
39	71
40	94
41	306
42	72
43	9
44	56
46	3
50	33
51	97
52	23
53	109
54	72
55	301
56	999
57	36
58	24
63	9
64	13
65	45
66	16
67	42
68	44
69	108
70	254
71	6
72	13
77	12
78	13
79	34
80	26
81	38
82	41
83	140
84	493
85	20
86	4
93	25
94	63
95	21
96	11
97	6
98	11
106	5
107	9
108	18
109	29
110	4
111	10
112	35
116	22
117	31
118	49
119	50
120	52
121	42
122	188
123	21
124	13
125	13
127	21
129	15
130	10
131	209
132	118
133	334
134	132
135	454
136	12
137	72
138	11
139	77
141	7
142	13
143	27
144	20
145	56
146	136
147	191
148	243
149	265
150	289
151	194
152	39
153	38
154	46
155	51
156	13
157	39
158	23
159	48
160	24
161	32
162	33
163	33
164	36
165	34
166	4
167	9
168	11
169	12
170	9
171	21
172	18
173	30
174	22
175	141
176	91
177	214
178	95
179	294
180	26
181	44
183	60
184	16
185	32
186	20
187	51
188	15
189	40
190	15
191	15
192	13
193	15
194	11
195	4
197	10
198	2
199	50
200	31
201	84
202	35
203	105
204	12
205	12
207	20
208	2
210	6
213	12
214	50
215	37
216	84
217	46
218	124
219	23
220	32
222	24
231	5
243	7
244	27
245	19
246	32
247	25
248	38
249	5
250	4
255	6
256	10
257	15
258	18
259	33
260	21
261	36
262	27
263	46
267	13
268	13
269	15
270	26
271	26
272	32
273	18
274	24
275	9
276	5
287	2
294	15
295	4
296	14
297	64
298	239
299	222
300	354
301	265
302	473
303	77
304	72
305	28
306	79
307	11
314	3
315	9
316	12
