Mass Spectrum: 3-Aminomethyl-3,5,5-trimethylcyclohexanol , trans-
Formula: C10H21NO
CAS: 130343-31-6
Molecular weight: 171
m/z	intensity
15	1
18	2
26	1
27	46
29	122
30	999
31	47
32	211
33	3
38	3
39	164
40	25
41	515
42	60
43	301
44	57
45	19
46	4
48	12
50	7
51	26
52	14
53	149
54	48
55	573
56	217
57	488
58	30
59	22
60	2
62	1
63	6
64	2
65	50
66	19
67	354
68	666
69	295
70	114
71	128
72	16
73	1
75	1
77	77
78	15
79	120
80	47
81	496
82	517
83	173
84	88
85	85
86	13
87	1
91	84
92	21
93	169
94	42
95	173
96	117
97	87
98	15
99	3
100	10
103	4
104	1
105	28
106	9
107	297
108	43
109	810
110	80
111	9
112	9
113	1
114	1
115	2
119	5
120	2
121	197
122	345
123	366
124	328
125	297
126	26
127	2
135	3
136	67
137	9
138	88
139	30
140	34
141	9
152	5
153	33
154	6
156	17
157	1
171	5
172	3
