Mass Spectrum: 1,3,5-Triazine, hexahydro-1,3,5-tripropyl-
Formula: C12H27N3
CAS: 13036-81-2
Molecular weight: 213
m/z	intensity
41	406
42	999
43	845
44	314
56	83
57	190
58	137
70	281
71	156
72	530
73	99
84	45
85	242
100	154
113	488
114	60
127	64
141	88
142	334
171	120
212	105
213	97
