Mass Spectrum: Phenol, 4-(heptyloxy)-
Formula: C13H20O2
CAS: 13037-86-0
Molecular weight: 208
m/z	intensity
16	2
26	5
27	58
29	86
38	3
39	83
40	4
41	158
42	21
43	89
50	8
51	17
52	16
53	82
54	36
55	61
56	1
57	38
58	1
62	5
63	17
64	10
65	50
66	9
67	17
68	6
69	11
73	3
75	2
77	9
78	1
79	9
80	7
81	173
82	46
83	5
91	2
92	2
93	34
94	8
95	19
98	2
107	9
108	4
109	119
110	999
111	70
112	3
123	29
124	2
126	3
136	4
150	1
154	1
208	132
209	23
210	4
