Mass Spectrum: Z-22-Hentriaconten-2-one
Formula: C31H60O
CAS: 130385-21-6
Molecular weight: 448
m/z	intensity
52	3
53	21
54	161
55	999
56	209
57	558
58	727
59	406
60	9
63	3
66	13
67	166
68	203
69	663
70	159
71	659
72	60
74	4
75	4
80	101
81	200
82	326
83	522
84	106
85	104
86	11
87	6
94	188
95	332
96	366
97	399
98	39
99	44
100	24
101	10
104	5
108	62
109	113
110	113
111	247
112	35
113	30
114	20
121	48
122	32
123	58
124	42
125	387
126	41
127	14
135	52
136	25
137	28
138	47
139	17
140	17
141	4
142	9
144	2
148	9
149	36
150	36
151	31
152	26
153	17
154	29
156	7
158	2
162	3
164	7
165	36
166	20
167	9
168	7
169	3
170	7
176	4
180	8
181	9
182	3
183	10
184	5
188	3
190	3
191	14
193	4
194	6
195	13
196	5
197	3
198	5
201	11
202	2
205	8
211	4
212	5
215	53
216	23
217	17
218	5
219	11
220	5
222	7
223	3
224	2
225	8
227	2
230	7
233	60
234	43
235	12
236	17
237	14
240	5
243	2
245	3
247	4
248	10
249	13
250	19
251	17
252	2
253	2
254	4
261	11
263	4
264	24
266	2
268	3
270	3
276	11
277	10
278	27
279	15
288	3
289	15
290	12
291	10
292	27
293	11
295	6
297	4
299	2
301	3
304	3
305	10
306	24
307	14
308	3
309	4
310	2
314	3
315	2
316	4
317	15
318	8
319	10
320	19
321	15
322	7
323	5
324	2
325	2
326	2
331	9
332	5
333	4
334	22
335	19
336	4
337	8
338	4
340	3
342	2
345	14
346	9
347	5
348	33
349	18
351	13
352	55
353	19
357	3
359	13
360	8
362	16
363	8
364	5
365	10
366	50
367	16
368	3
372	2
373	14
374	9
375	4
376	3
377	9
379	5
380	21
381	4
383	13
384	4
387	9
388	10
390	45
391	22
392	5
393	28
394	9
401	36
402	16
404	2
405	11
406	2
407	6
412	2
415	5
416	110
417	37
418	6
419	6
425	2
430	176
431	65
433	39
434	15
435	6
448	147
449	54
450	9
