Mass Spectrum: Z-26-Pentatriaconten-2-one
Formula: C35H68O
CAS: 130385-24-9
Molecular weight: 504
m/z	intensity
53	39
54	246
55	999
56	210
57	637
58	950
59	266
60	32
65	9
66	37
67	200
68	220
69	648
70	208
71	686
72	22
73	195
79	48
80	97
81	346
82	355
83	673
84	88
85	141
86	10
87	17
89	9
91	9
93	42
94	188
95	348
96	213
97	501
98	64
99	32
100	54
101	7
103	12
105	20
107	41
108	101
109	157
110	77
111	174
112	63
113	53
114	26
119	11
121	42
123	138
124	105
125	532
126	42
127	29
128	33
131	13
135	68
136	57
137	63
138	28
139	34
141	20
142	21
147	26
149	67
150	76
151	26
152	36
153	37
154	47
155	8
157	15
161	9
162	12
163	26
164	12
165	38
166	23
167	20
168	10
169	18
171	8
177	21
178	15
179	33
180	23
181	9
183	19
189	9
192	10
194	45
195	25
197	19
205	22
210	18
213	9
221	42
222	40
223	7
225	9
227	9
235	23
236	30
237	12
240	10
249	44
250	58
253	9
254	10
255	10
262	9
263	9
264	30
265	16
268	35
269	7
275	11
278	50
279	23
283	15
284	18
289	7
291	8
292	30
293	29
295	6
296	9
298	8
303	8
306	30
307	27
308	8
311	8
317	10
318	9
320	27
321	20
322	7
323	9
325	12
328	9
329	23
331	27
334	38
335	36
339	16
344	10
347	9
348	45
349	26
359	10
360	8
362	38
363	24
376	32
377	37
378	10
379	10
380	17
387	8
388	10
390	36
391	30
392	8
393	27
394	5
395	9
399	27
400	18
401	28
402	18
404	27
405	39
406	8
407	23
408	105
409	35
416	37
417	10
418	25
419	32
422	96
423	39
424	8
431	11
432	9
433	13
435	18
436	48
437	22
443	13
444	8
446	68
447	31
449	39
450	21
457	21
460	10
461	11
462	14
471	9
486	362
487	139
488	35
489	83
490	32
491	8
503	35
504	405
505	238
506	17
