Mass Spectrum: Z-27-Hexatriaconten-2-one
Formula: C36H70O
CAS: 130385-25-0
Molecular weight: 518
m/z	intensity
53	17
54	91
55	999
56	246
57	723
58	856
59	549
60	15
63	5
64	4
67	318
68	234
69	739
70	106
71	783
72	40
76	5
79	31
80	121
81	376
82	213
83	679
84	67
85	259
86	11
88	4
92	11
93	29
94	249
95	351
96	256
97	274
98	43
99	31
100	20
102	8
103	8
104	6
107	20
108	59
109	119
110	75
111	306
112	24
113	21
114	17
121	75
122	23
123	63
124	44
125	455
126	67
127	17
128	9
129	15
130	5
131	13
135	44
136	23
137	28
138	31
139	26
140	15
146	5
149	57
150	45
151	25
154	35
156	8
157	6
162	4
170	19
171	5
176	17
182	5
184	10
185	17
187	6
192	20
194	10
195	5
196	6
197	3
199	13
201	5
202	5
204	7
207	42
210	8
211	15
213	7
218	5
224	10
226	12
227	6
239	6
240	13
241	9
248	6
250	12
252	6
255	5
256	5
257	4
261	11
265	11
267	10
268	5
269	11
271	10
275	14
276	10
277	8
279	15
284	3
289	20
290	15
291	6
293	12
296	4
298	5
299	4
303	4
304	5
305	12
310	5
312	4
317	12
318	6
319	12
321	7
323	6
327	13
331	4
332	7
333	10
335	13
339	5
340	5
343	6
345	19
346	10
347	13
349	9
350	5
352	5
359	22
360	10
361	5
363	6
364	7
366	6
368	10
369	5
370	5
371	8
374	11
378	4
387	22
388	4
389	4
391	11
392	9
402	18
404	16
405	20
407	10
408	11
416	18
417	6
418	10
419	24
420	5
421	6
422	43
423	18
431	7
433	15
435	10
436	39
437	24
443	13
444	7
447	8
450	27
451	10
457	11
458	19
460	19
461	13
463	24
471	12
472	4
474	8
475	12
485	7
488	9
500	263
501	113
502	34
503	22
505	6
518	209
519	101
520	31
