Mass Spectrum: 9,11-Octadecadienoic acid, methyl ester, (E,E)-
Formula: C19H34O2
CAS: 13038-47-6
Molecular weight: 294
m/z	intensity
14	3
15	26
17	1
18	3
26	3
27	58
28	10
29	118
30	3
31	8
32	7
33	4
36	17
37	5
38	2
39	64
40	16
41	358
42	78
43	171
44	26
45	43
46	4
47	36
49	28
50	5
51	9
52	10
53	63
54	268
55	387
56	41
57	66
58	5
59	89
60	5
61	2
63	3
64	1
65	51
66	49
67	999
68	345
69	247
70	31
71	27
72	7
73	26
74	137
75	23
76	3
77	103
78	35
79	325
80	252
81	728
82	417
83	170
84	201
85	37
86	126
87	105
88	19
89	3
90	1
91	83
92	20
93	154
94	151
95	511
96	357
97	113
98	45
99	19
100	4
101	24
102	4
103	5
104	4
105	25
106	18
107	87
108	96
109	251
110	199
111	53
112	9
113	10
114	5
115	33
116	5
117	9
118	5
119	22
120	18
121	93
122	81
123	127
124	126
125	30
126	7
127	15
128	7
129	26
130	4
131	17
132	7
133	21
134	9
135	103
136	106
137	86
138	76
139	19
140	15
141	19
142	5
143	25
144	3
145	12
146	7
147	12
148	5
149	74
150	126
151	58
152	45
153	12
154	18
155	11
156	2
157	10
158	2
159	15
160	4
161	8
162	3
163	46
164	85
165	40
166	24
167	14
168	18
169	6
170	1
171	6
172	1
173	15
174	3
175	4
176	2
177	29
178	55
179	26
180	11
181	14
182	12
183	3
185	4
186	1
187	8
188	2
189	2
190	1
191	16
192	18
193	10
194	4
195	14
196	12
197	3
199	6
200	1
201	4
202	1
203	1
205	10
206	11
207	6
208	3
209	12
210	10
211	2
213	3
215	2
218	8
219	8
220	57
221	11
222	3
223	10
224	8
225	1
227	4
228	1
233	5
234	17
235	4
236	1
237	9
238	5
239	1
241	1
244	2
245	6
246	2
247	1
251	6
252	3
255	6
256	1
261	2
262	91
263	115
264	22
265	8
266	2
267	4
269	1
277	1
279	1
292	4
293	2
294	314
295	64
296	8
297	1
