Mass Spectrum: Methyl 2-pyridyldithiocarbamate
Formula: C7H8N2S2
CAS: 13037-46-2
Molecular weight: 184
m/z	intensity
41	6
42	3
43	3
44	9
45	71
46	18
47	26
48	12
49	16
50	50
51	281
52	112
53	11
54	1
55	2
57	4
58	6
59	27
60	11
61	2
62	1
63	3
64	15
65	6
66	13
67	8
68	3
69	6
70	8
71	2
74	4
75	5
76	28
77	18
78	999
79	187
80	11
81	4
82	5
83	8
84	8
85	3
86	6
88	1
90	1
91	115
92	7
93	16
94	5
95	2
97	1
104	3
105	44
106	4
107	4
108	4
109	3
110	9
111	10
112	2
118	1
119	3
124	5
125	10
126	1
136	77
137	409
138	110
139	32
140	6
141	1
142	1
150	1
151	55
152	3
153	3
168	9
169	111
170	9
171	9
182	2
183	3
184	492
185	62
186	54
187	5
188	2
