Mass Spectrum: Z-24-Tritriaconten-2-one
Formula: C33H64O
CAS: 130385-22-7
Molecular weight: 476
m/z	intensity
53	32
54	188
55	999
56	230
57	559
58	722
59	401
60	11
65	3
66	18
67	285
68	210
69	674
70	152
71	665
72	47
73	4
77	5
78	2
79	45
80	98
81	301
82	323
83	514
84	102
85	176
86	17
87	1
91	2
92	7
93	37
94	185
95	282
96	235
97	381
98	61
99	38
100	14
101	2
106	1
107	28
108	84
109	170
110	100
111	226
112	32
113	22
114	11
121	42
122	34
123	59
124	18
125	279
126	41
127	14
128	2
134	1
135	63
136	35
137	29
138	37
139	32
140	3
141	2
142	5
149	39
150	19
151	23
152	23
153	14
154	22
155	2
156	4
163	12
164	9
165	13
166	11
167	5
168	1
169	2
170	4
171	2
177	5
178	1
179	9
180	4
181	5
182	3
183	1
184	3
191	2
192	3
193	2
194	7
195	3
196	2
197	2
198	2
199	1
205	1
207	13
208	4
209	2
210	2
211	2
212	2
219	3
220	4
221	2
222	4
223	2
225	3
226	2
233	3
234	2
235	5
236	12
237	6
239	2
240	1
247	5
248	2
249	2
250	12
251	4
252	1
253	3
254	2
261	5
263	3
264	13
265	7
266	2
268	2
275	3
276	2
277	5
278	9
279	5
281	3
289	6
290	3
291	4
292	14
293	8
294	1
303	6
304	4
305	4
306	14
307	9
308	2
309	1
317	4
318	4
319	3
320	15
321	6
322	2
323	2
324	1
331	6
332	2
333	4
334	14
335	8
336	3
337	2
345	7
346	4
347	3
348	12
349	9
350	3
351	2
359	5
360	4
361	2
362	19
363	12
364	2
365	6
366	4
373	7
374	4
375	2
376	19
377	8
378	2
379	7
380	37
381	12
387	7
388	4
389	2
390	9
391	5
393	5
394	33
395	11
396	2
401	4
402	4
405	4
406	2
407	2
408	17
409	5
415	5
416	8
417	3
418	33
419	14
420	3
421	15
422	5
429	7
430	1
433	3
434	1
435	3
443	4
447	2
457	1
458	158
459	59
460	4
461	28
462	9
476	126
477	47
478	1
