Mass Spectrum: 3-Aminomethyl-3,5,5-trimethylcyclohexanol, cis-
Formula: C10H21NO
CAS: 130343-30-5
Molecular weight: 171
m/z	intensity
15	1
18	4
26	1
27	49
29	120
30	999
31	56
32	219
33	3
38	4
39	159
40	23
41	507
42	67
43	340
44	64
45	19
46	4
48	10
50	7
51	27
52	13
53	149
54	54
55	601
56	232
57	534
58	35
59	25
60	3
63	6
64	2
65	52
66	18
67	303
68	486
69	286
70	123
71	136
72	18
73	2
75	1
77	74
78	14
79	119
80	42
81	498
82	440
83	180
84	93
85	92
86	15
87	1
91	81
92	19
93	168
94	40
95	165
96	123
97	124
98	30
99	8
100	6
103	2
105	28
106	7
107	287
108	44
109	619
110	67
111	21
112	13
113	2
114	1
115	10
119	4
120	2
121	207
122	309
123	394
124	284
125	296
126	75
127	5
135	2
136	49
137	8
138	56
139	179
140	50
141	6
152	2
153	7
154	9
156	11
171	30
172	5
