Mass Spectrum: 2-Methoxyphenethyl alcohol, TMS derivative
Formula: C12H20O2Si
CAS: 130436-69-0
Molecular weight: 224
m/z	intensity
43	44
44	12
45	104
47	44
51	24
52	12
53	12
58	44
59	72
61	24
63	12
65	44
72	24
73	999
74	144
75	144
76	12
77	92
78	24
79	52
82	12
88	12
89	332
90	44
91	212
92	24
93	24
102	12
103	904
104	104
105	112
108	12
119	24
120	12
121	184
122	12
134	24
135	84
136	12
147	12
149	44
151	12
161	24
163	12
164	44
165	12
177	52
178	12
179	144
180	24
194	124
195	24
196	12
209	652
210	112
211	24
224	304
225	52
226	12
