Mass Spectrum: (2-Methylene-cyclohexyl)-phenyl-methanol
Formula: C14H18O
CAS: 130447-40-4
Molecular weight: 202
m/z	intensity
27	33
29	25
39	60
41	81
43	18
50	19
51	64
52	23
53	58
54	50
55	86
63	17
65	35
66	21
67	146
68	137
77	292
78	58
79	599
80	53
81	606
82	50
91	111
92	18
93	28
94	27
95	148
96	852
97	116
105	128
106	52
107	999
108	143
115	41
117	20
128	33
129	32
141	47
142	19
154	22
155	18
169	21
171	24
184	35
185	18
202	22
