Mass Spectrum: 1,3,5-Triazin-2-amine, 1,4,5,6-tetrahydro-N,5-dinitro-
Formula: C3H6N6O4
CAS: 130400-13-4
Molecular weight: 190
m/z	intensity
33	5
34	3
35	1
36	4
37	2
38	12
39	33
40	91
41	245
42	784
43	850
44	207
45	118
46	402
47	10
49	3
50	12
51	38
52	8
53	78
55	466
56	160
57	115
58	15
59	16
60	4
61	0
62	4
63	5
64	3
65	9
66	3
67	9
68	24
70	999
71	48
72	24
73	3
74	4
75	23
76	3
77	9
78	4
79	4
80	6
81	69
82	12
83	31
84	10
85	9
86	19
88	19
89	2
90	2
91	11
92	5
93	11
95	14
97	217
98	25
99	10
100	40
101	56
102	2
103	2
104	2
105	4
106	2
107	3
109	6
110	1
111	4
112	10
113	25
114	36
116	19
117	6
118	2
119	13
120	4
121	20
122	2
123	2
124	2
125	5
127	23
128	21
129	7
130	12
131	75
132	3
133	1
134	1
135	1
136	1
137	5
138	2
139	2
140	1
142	39
143	201
144	371
145	24
147	8
148	1
149	2
150	2
151	3
152	6
153	1
154	1
155	2
156	0
157	2
158	0
159	1
160	10
161	2
174	1
175	0
190	158
191	19
192	3
193	1
195	0
