Mass Spectrum: D-Glucitol, 1,4:3,6-dianhydro-, diacetate
Formula: C10H14O6
CAS: 13042-38-1
Molecular weight: 230
m/z	intensity
26	3
27	20
28	1
29	28
30	2
31	16
38	1
39	24
40	6
41	86
42	14
43	999
44	29
45	8
46	0
47	1
50	0
51	0
52	0
53	4
54	10
55	64
56	4
57	24
58	3
59	1
60	2
61	8
65	0
67	0
68	120
69	262
70	14
71	21
72	2
73	6
74	0
80	10
81	51
82	14
83	14
84	30
85	95
86	29
87	42
88	1
89	0
95	0
97	16
98	10
99	45
100	4
101	1
102	5
103	2
108	0
109	3
110	366
111	26
112	2
113	28
114	3
115	31
116	2
117	0
126	1
127	82
128	39
129	8
130	0
139	1
140	0
141	12
142	1
143	0
144	0
145	2
146	1
153	0
157	0
169	0
170	88
171	8
172	1
187	3
188	0
202	0
229	0
231	1
