Mass Spectrum: 2H-Thiopyran, 3,4-dihydro-
Formula: C5H8S
CAS: 13042-80-3
Molecular weight: 100
m/z	intensity
45	350
46	80
47	60
53	70
71	370
72	759
73	60
74	40
85	999
86	50
87	50
99	490
100	959
