Mass Spectrum: Phosphorodichloridous acid, propyl ester
Formula: C3H7Cl2OP
CAS: 13040-68-1
Molecular weight: 160
m/z	intensity
26	22
27	261
28	8
29	55
30	3
31	22
33	1
35	3
36	13
37	3
38	8
39	82
40	42
41	362
42	221
43	999
44	32
45	0
47	33
48	2
49	1
51	0
55	1
56	4
57	10
58	14
59	3
60	0
61	1
62	1
63	1
65	6
66	21
67	3
68	8
69	1
70	0
73	0
76	0
77	3
78	0
79	1
82	2
83	30
84	1
85	9
93	0
95	1
96	10
97	1
98	3
99	0
100	7
101	48
102	3
103	35
104	0
105	6
107	9
108	0
109	3
113	1
115	0
117	3
118	93
119	51
120	60
121	33
122	9
123	5
124	0
125	51
126	2
127	18
128	0
130	0
131	14
132	1
133	9
134	0
135	1
136	3
138	2
140	0
142	1
143	1
144	0
145	3
147	2
149	1
159	1
160	10
161	1
162	7
164	1
