Mass Spectrum: Benzamide, N-(2-thiazolyl)-
Formula: C10H8N2OS
CAS: 13053-82-2
Molecular weight: 204
m/z	intensity
33	2
34	1
35	0
37	7
38	18
39	27
40	18
41	6
42	2
43	4
44	23
45	113
46	9
47	7
48	1
49	9
50	121
51	327
52	23
53	13
55	107
56	6
57	24
58	37
59	8
60	3
61	2
62	4
63	5
64	2
65	3
66	2
67	1
69	5
70	6
71	10
72	5
73	8
74	33
75	28
76	65
77	749
78	52
79	2
81	1
82	2
83	3
84	1
85	2
86	1
87	1
88	1
89	1
90	1
91	1
92	0
93	0
94	0
95	0
96	0
97	1
98	2
99	10
100	3
101	1
102	2
103	5
105	999
106	71
107	5
108	1
109	1
111	1
112	0
114	0
115	0
117	0
118	0
119	0
120	0
121	1
122	1
123	0
125	0
126	0
127	2
128	0
129	1
130	0
131	0
133	0
134	1
135	0
137	0
139	0
140	0
141	0
143	0
145	0
147	0
148	0
149	1
150	0
159	0
161	0
171	1
173	0
174	1
176	133
177	14
178	6
179	0
186	0
188	0
201	0
202	1
203	20
204	101
205	13
206	5
207	0
