Mass Spectrum: Pentanedioic acid, 2,2-dimethyl-, dimethyl ester
Formula: C9H16O4
CAS: 13051-32-6
Molecular weight: 188
m/z	intensity
27	120
29	110
39	120
41	370
42	90
43	90
53	60
55	220
56	80
59	200
68	60
69	999
71	140
73	90
87	170
97	550
102	250
115	60
128	110
129	560
157	110
