Mass Spectrum: Benzamide, N-(5-methyl-3-isoxazolyl)-
Formula: C11H10N2O2
CAS: 13053-85-5
Molecular weight: 202
m/z	intensity
38	12
39	37
40	30
41	19
42	26
43	128
44	14
45	1
50	42
51	153
52	14
53	4
55	13
56	4
57	2
62	1
64	4
65	7
66	2
67	11
68	4
69	3
70	5
71	1
74	10
75	11
76	26
77	504
78	39
84	1
98	35
103	15
105	999
106	67
107	1
121	11
133	16
134	1
144	2
159	60
160	41
161	7
173	10
174	54
175	6
176	2
185	3
187	17
188	1
201	44
202	71
203	7
