Mass Spectrum: DL-Tryptophan, N-[(phenylmethoxy)carbonyl]-
Formula: C19H18N2O4
CAS: 13058-16-7
Molecular weight: 338
m/z	intensity
41	16
42	7
43	18
44	50
45	16
49	10
50	13
51	30
52	11
55	12
56	9
57	10
62	8
63	22
64	8
65	65
69	8
74	4
75	7
76	11
77	74
78	15
79	25
83	7
84	12
86	5
89	27
90	24
91	246
92	25
101	8
102	23
103	34
105	12
107	17
108	13
115	11
117	12
118	2
128	20
129	21
130	999
131	96
132	12
143	14
144	2
146	2
151	2
157	14
158	13
159	6
170	2
187	23
292	2
294	2
338	60
339	13
