Mass Spectrum: 2-Acetamido-5-methyl-1,3,4-thiadiazole
Formula: C5H7N3OS
CAS: 13053-83-3
Molecular weight: 157
m/z	intensity
13	1
14	7
15	38
16	1
25	1
26	8
27	17
28	28
29	5
30	1
32	9
33	3
34	2
38	3
39	5
40	12
41	21
42	53
43	541
44	16
45	11
46	10
47	9
48	1
53	2
54	1
55	7
56	189
57	23
58	47
59	139
60	22
61	7
67	3
68	1
69	4
70	2
71	2
72	9
73	22
74	468
75	15
76	21
81	1
82	9
83	5
85	1
86	1
87	1
88	3
91	1
95	1
97	2
99	6
100	1
101	2
109	1
111	1
114	9
115	999
116	68
117	47
118	3
128	1
129	17
130	1
131	1
142	17
143	1
157	297
158	25
159	13
160	1
