Mass Spectrum: Benzenesulfonamide, N-(1-piperidyl)(methylthio)methylene-
Formula: C13H18N2O2S2
CAS: 13068-69-4
Molecular weight: 298
m/z	intensity
39	47
41	223
42	128
43	37
44	9
45	20
46	9
47	34
48	9
50	28
51	131
52	9
53	23
54	27
55	157
56	56
57	21
58	2
59	2
60	1
61	3
62	2
63	3
64	4
65	13
66	5
67	23
68	12
69	76
70	8
71	1
72	4
74	54
75	9
77	999
78	80
79	4
80	3
81	7
82	23
83	111
84	590
85	37
86	6
87	2
88	1
89	3
91	4
92	6
93	2
95	16
96	1
97	10
98	2
100	1
101	14
102	2
103	2
104	2
107	1
109	153
110	51
111	56
112	102
113	7
114	1
116	1
117	2
118	2
119	8
124	3
125	15
126	3
127	1
128	2
130	15
131	29
132	3
135	8
141	699
142	59
143	41
144	3
145	1
155	3
157	638
158	62
159	32
160	7
187	1
188	1
205	2
224	1
249	1
251	261
252	38
253	14
254	1
283	1
298	7
