Mass Spectrum: 2-Isopropenyl-5-methyl-6-hepten-1-ol
Formula: C11H20O
CAS: 13066-55-2
Molecular weight: 168
m/z	intensity
15	6
17	4
18	2
26	7
27	150
28	34
29	260
30	13
31	79
32	2
37	1
38	7
39	218
40	48
41	747
42	59
43	235
44	13
45	23
50	9
51	25
52	14
53	195
54	58
55	966
56	117
57	156
58	28
59	19
60	1
61	1
62	2
63	6
64	2
65	39
66	27
67	736
68	854
69	670
70	143
71	536
72	36
73	11
74	1
75	4
77	49
78	11
79	247
80	84
81	999
82	584
83	202
84	73
85	122
86	132
87	10
88	3
89	1
91	45
92	17
93	236
94	190
95	688
96	110
97	113
98	55
99	64
100	7
101	2
103	2
104	1
105	17
106	10
107	342
108	89
109	164
110	58
111	66
112	28
113	9
114	1
115	2
117	2
119	7
120	3
121	114
122	283
123	66
124	13
125	49
126	24
127	4
128	1
129	1
131	2
133	4
134	1
135	145
136	22
137	122
138	21
139	42
140	19
141	3
147	1
148	1
149	4
150	12
151	6
152	2
153	52
154	7
155	1
165	2
166	1
167	3
168	4
169	1
