Mass Spectrum: 2-(Ethylthio)cyclooctanone oxime
Formula: C10H19NOS
CAS: 13061-35-3
Molecular weight: 201
m/z	intensity
15	2
26	5
27	69
28	32
29	86
30	12
31	7
32	2
33	1
34	3
35	12
38	2
39	62
40	10
41	192
42	47
43	43
44	16
45	54
46	9
47	41
48	1
49	2
50	2
51	8
52	9
53	70
54	53
55	150
56	26
57	18
58	10
59	43
60	25
61	56
62	18
63	9
64	2
65	23
66	18
67	394
68	45
69	39
70	17
71	14
72	9
73	222
74	13
75	91
76	6
77	29
78	9
79	90
80	66
81	170
82	40
83	16
84	22
85	39
86	134
87	28
88	7
89	8
90	2
91	18
92	8
93	36
94	44
95	73
96	51
97	15
98	100
99	77
100	17
101	43
102	6
103	5
104	2
105	22
106	9
107	32
108	31
109	314
110	46
111	23
112	92
113	999
114	77
115	7
116	5
117	1
118	2
119	1
120	30
121	12
122	66
123	18
124	54
125	9
126	42
127	7
128	2
129	1
130	2
133	1
137	2
138	13
139	23
140	36
141	864
142	84
143	6
144	1
150	2
154	19
155	5
156	23
157	3
158	1
168	2
170	1
172	12
173	2
182	1
183	19
184	44
185	14
186	4
187	1
199	1
200	1
201	57
202	14
203	4
204	1
