Mass Spectrum: Diethyl (2-(hydroxyimino)cyclooctyl)malonate
Formula: C15H25NO5
CAS: 13061-42-2
Molecular weight: 299
m/z	intensity
14	3
15	9
16	2
17	11
18	63
19	8
25	2
26	15
27	108
28	61
29	279
30	23
31	166
32	2
38	2
39	61
40	18
41	207
42	50
43	72
44	85
45	112
46	55
47	6
50	3
51	13
52	19
53	79
54	62
55	192
56	42
57	23
58	6
59	6
60	6
61	2
62	1
63	5
64	3
65	32
66	29
67	252
68	53
69	60
70	24
71	11
72	8
73	12
74	2
75	2
76	2
77	44
78	19
79	111
80	83
81	181
82	62
83	52
84	22
85	30
86	27
87	30
88	12
89	4
90	5
91	66
92	30
93	94
94	77
95	76
96	84
97	36
98	44
99	46
100	10
101	5
102	3
103	8
104	16
105	50
106	57
107	92
108	75
109	126
110	54
111	33
112	92
113	999
114	87
115	48
116	9
117	32
118	25
119	49
120	60
121	76
122	175
123	39
124	46
125	26
126	38
127	59
128	10
129	6
130	12
131	13
132	39
133	61
134	118
135	82
136	96
137	33
138	45
139	74
140	178
141	29
142	24
143	9
144	10
145	17
146	16
147	33
148	51
149	45
150	24
151	32
152	154
153	41
154	26
155	9
156	6
157	3
158	11
159	11
160	69
161	86
162	195
163	120
164	193
165	58
166	28
167	19
168	16
169	13
170	19
171	7
172	6
173	30
174	14
175	9
176	7
177	12
178	30
179	78
180	480
181	70
182	57
183	9
184	9
185	30
186	6
187	60
188	21
189	135
190	311
191	97
192	61
193	28
194	13
195	15
196	14
197	9
198	56
199	12
200	2
201	2
202	1
203	1
204	1
205	4
206	32
207	103
208	368
209	65
210	49
211	13
212	6
213	2
214	26
215	4
216	1
217	1
218	1
219	1
220	3
221	2
222	3
223	2
224	17
225	98
226	107
227	20
228	5
229	1
231	7
232	1
233	9
234	4
235	41
236	225
237	73
238	60
239	10
240	5
241	2
242	1
243	1
244	9
245	2
251	1
252	26
253	63
254	341
255	51
256	9
257	8
258	3
263	1
264	4
265	9
266	2
267	1
268	1
269	2
270	2
271	127
272	18
273	3
280	1
281	10
282	317
283	55
284	10
285	1
298	1
299	74
300	33
301	5
