Mass Spectrum: 1,3-Diazabicyclo[4.4.0]decan-4-one, 3-[3-(1,3-dioxolan-2-yl)propyl]-
Formula: C14H24N2O3
CAS: 130753-11-6
Molecular weight: 268
m/z	intensity
41	420
42	569
43	318
44	227
45	381
46	9
47	2
48	2
49	6
50	2
51	9
52	8
53	82
54	182
55	556
56	279
57	110
58	126
59	7
60	3
61	1
62	1
63	1
65	13
66	10
67	84
68	126
69	219
70	225
71	173
73	762
74	25
75	5
76	1
77	10
78	3
79	36
80	45
81	83
82	362
83	219
84	999
85	103
86	67
87	19
88	3
89	1
90	0
91	4
92	3
93	7
94	28
95	50
96	416
97	450
98	233
99	266
100	88
101	13
102	2
103	1
104	1
105	1
106	2
107	3
108	32
109	36
110	157
111	187
112	199
113	156
114	76
115	147
116	11
117	1
118	1
119	1
120	2
121	3
122	17
123	42
124	355
125	146
126	95
127	16
128	6
129	1
130	4
131	0
132	1
133	2
134	1
135	0
136	16
137	54
138	102
139	152
140	55
141	3
142	66
143	10
144	28
145	2
146	2
147	0
148	1
149	1
150	9
151	18
153	583
154	121
155	16
156	20
157	3
158	1
159	0
160	0
161	0
162	0
163	2
164	1
165	10
166	15
167	56
168	110
169	13
170	3
171	0
172	0
173	2
175	0
176	0
177	2
178	1
179	12
180	8
181	27
182	2
183	33
184	7
185	1
186	4
187	0
188	0
189	0
191	2
193	18
195	519
196	146
197	20
198	3
199	1
200	0
201	0
202	0
203	0
205	1
206	0
207	5
208	3
209	7
210	1
211	17
212	3
213	0
215	0
217	0
219	1
220	0
221	9
223	105
224	12
225	39
226	5
227	1
230	0
232	0
234	0
235	0
236	0
237	29
238	5
239	20
240	4
241	1
243	0
245	0
248	0
250	0
251	3
253	4
254	0
255	0
267	395
268	100
269	17
270	1
