Mass Spectrum: 9H-Fluorene, 9-[1-(2,4-cyclopentadien-1-yl)-1-methylethyl]-
Formula: C21H20
CAS: 130817-78-6
Molecular weight: 272
m/z	intensity
27	11
29	34
30	0
36	0
38	0
39	23
40	5
41	41
42	1
43	0
44	0
50	0
51	7
52	2
53	10
54	0
55	5
62	0
63	10
64	0
65	36
66	6
67	7
69	0
73	1
74	1
75	1
76	1
77	28
78	4
79	61
80	3
82	0
83	1
86	0
87	2
88	1
89	5
90	0
91	231
92	38
93	1
94	0
98	0
99	0
100	0
101	0
102	0
103	2
104	0
105	52
106	20
107	999
108	83
109	4
113	2
114	2
115	14
116	0
119	0
120	0
121	0
123	0
124	0
125	0
126	2
127	0
135	0
136	0
137	2
138	2
139	17
140	2
141	0
150	1
151	0
152	2
153	0
161	0
162	2
163	40
164	31
165	150
166	46
167	3
168	0
174	0
175	0
176	1
177	2
178	2
179	1
187	1
188	0
189	5
190	1
191	4
192	2
193	0
198	0
200	1
201	1
202	2
203	0
204	0
206	0
207	0
211	0
213	1
214	0
215	4
216	1
217	0
225	0
226	2
227	1
228	1
229	1
230	0
237	0
238	0
239	4
240	1
241	2
242	0
243	0
247	0
250	0
252	0
253	0
255	0
256	1
257	0
258	0
272	90
273	18
274	1
