Mass Spectrum: 2-(p-Chlorophenyl)-2-thiazoline picrate
Formula: C9H8ClNS
CAS: 13084-29-2
Molecular weight: 197
m/z	intensity
16	3
17	8
26	3
27	11
28	4
29	3
32	1
34	2
36	2
37	9
38	8
39	10
40	2
41	2
42	1
43	2
44	8
45	63
46	9
47	3
49	5
50	43
51	26
52	8
53	31
54	3
55	2
57	2
58	24
59	140
60	999
61	60
62	112
63	32
64	11
65	3
66	9
67	6
68	3
69	14
70	3
72	1
73	7
74	12
75	56
76	20
77	15
78	12
79	6
80	19
81	4
82	1
83	2
84	3
85	5
86	3
87	4
88	3
89	16
90	13
91	60
92	14
93	4
94	4
95	2
96	1
97	1
98	2
99	3
100	4
101	3
102	36
103	5
105	9
106	4
107	3
108	6
109	1
110	3
111	47
112	4
113	14
114	2
115	1
116	12
117	2
119	5
120	11
121	2
122	2
123	3
124	2
125	3
126	1
127	1
133	2
134	4
135	1
136	9
137	39
138	57
139	15
140	18
141	2
143	1
150	1
151	75
152	13
153	25
154	2
155	27
156	2
157	8
162	1
164	3
166	4
167	1
169	9
170	1
171	11
172	1
183	1
195	4
196	7
197	389
198	47
199	148
200	18
201	7
