Mass Spectrum: p-Chlorophenylmethanediol diacetate
Formula: C11H11ClO4
CAS: 13086-93-6
Molecular weight: 242
m/z	intensity
42	20
43	999
44	19
45	10
50	40
51	39
75	70
76	20
77	99
111	108
112	19
113	59
139	587
140	110
141	396
142	49
143	79
183	19
185	9
199	79
200	10
201	29
242	10
