Mass Spectrum: 5,8-Decadien-2-one, 5,9-dimethyl-, (E)-
Formula: C12H20O
CAS: 130876-99-2
Molecular weight: 180
m/z	intensity
26	9
27	157
28	12
29	136
30	5
31	5
35	5
37	4
38	9
39	221
40	53
41	573
42	53
43	928
44	28
45	25
47	11
49	7
50	12
51	48
52	27
53	175
54	33
55	214
56	31
57	44
58	15
59	7
62	4
63	15
64	5
65	69
66	30
67	271
68	67
69	412
70	44
71	38
72	4
75	6
76	4
77	130
78	33
79	200
80	77
81	268
82	66
83	32
84	34
85	10
86	21
88	3
89	5
90	2
91	180
92	35
93	164
94	50
95	125
96	22
97	39
98	16
99	12
103	11
104	5
105	77
106	22
107	999
108	136
109	169
110	21
111	49
112	11
113	2
115	6
116	2
117	6
119	23
120	12
121	52
122	664
123	106
124	13
125	21
126	5
134	3
135	9
136	45
137	53
138	9
139	3
147	15
148	1
151	4
152	0
162	4
163	0
165	13
166	1
178	2
179	2
180	12
181	2
