Mass Spectrum: 2-Methyl-2-carboxytetrahydrothiazole
Formula: C5H9NO2S
CAS: 13084-13-4
Molecular weight: 147
m/z	intensity
27	59
28	67
29	12
30	19
35	19
41	38
42	302
43	27
44	70
45	76
54	45
55	128
59	130
60	65
61	202
63	101
68	14
72	7
73	8
74	5
75	17
82	14
83	28
86	14
88	19
100	41
101	29
102	999
103	69
104	52
114	33
132	17
147	12
148	2
149	1
