Mass Spectrum: 2-Bicyclo[2.2.1]hept-5-en-2-yl-ethanol
Formula: C9H14O
CAS: 13080-91-6
Molecular weight: 138
m/z	intensity
27	25
29	14
31	23
38	4
39	53
40	20
41	34
42	5
43	9
44	10
50	5
51	14
52	6
53	13
55	11
57	3
63	6
65	38
66	999
67	53
68	3
77	42
78	15
79	43
80	16
81	4
91	39
92	12
93	7
94	8
105	10
107	3
120	8
138	12
