Mass Spectrum: 8-Decen-2-one, 9-methyl-5-methylene-
Formula: C12H20O
CAS: 130876-97-0
Molecular weight: 180
m/z	intensity
25	0
26	9
27	161
28	9
29	111
30	2
31	5
37	3
38	10
39	227
40	60
41	782
42	57
43	845
44	24
45	15
50	12
51	39
52	25
53	179
54	36
55	230
56	25
57	20
58	14
59	11
62	2
63	11
64	4
65	50
66	27
67	236
68	100
69	999
70	98
71	41
72	9
73	4
74	2
75	4
76	2
77	81
78	22
79	190
80	60
81	173
82	104
83	47
84	8
85	6
86	2
87	1
89	4
91	93
92	25
93	139
94	40
95	112
96	21
97	54
98	18
99	8
103	7
104	3
105	53
106	17
107	379
108	69
109	92
110	14
111	58
112	18
113	3
115	6
116	2
117	6
118	2
119	33
120	25
121	40
122	414
123	69
124	12
125	15
126	4
127	3
128	2
129	2
131	2
132	2
133	11
134	11
135	11
136	51
137	151
138	18
139	5
141	5
142	2
143	2
145	5
147	18
148	3
150	2
151	8
152	3
153	4
160	2
161	7
162	13
163	4
165	17
166	3
179	2
180	11
181	3
