Mass Spectrum: 1,3,5-Triazine-2,4,6(1H,3H,5H)-trione, 1,3,5-tris[2-[N-(phenylmethyl)-N-methylamino]ethyl]-
Formula: C33H42N6O3
CAS: 130839-96-2
Molecular weight: 570
m/z	intensity
51	2
54	1
55	1
56	12
57	3
58	4
63	2
65	32
66	2
69	1
70	12
71	2
72	3
73	1
74	1
77	6
78	2
79	1
83	1
84	1
89	6
91	999
92	74
93	3
97	1
98	1
99	3
100	1
104	5
105	13
106	3
107	1
113	4
117	2
118	7
119	2
120	16
121	3
127	6
130	1
131	1
132	15
134	979
135	95
136	5
144	1
146	29
147	9
148	74
149	9
154	1
168	1
170	3
181	1
182	1
189	6
190	1
191	3
196	1
210	1
224	1
225	3
231	1
277	9
278	1
289	1
301	1
303	1
304	1
305	3
306	1
332	9
333	2
344	1
345	3
360	12
361	3
366	1
387	1
394	2
422	1
424	5
425	2
436	5
437	2
451	5
452	1
465	1
479	63
480	20
481	4
555	9
556	4
557	1
570	34
571	13
572	2
