Mass Spectrum: D-Ribo-Hexose, 2,6-dideoxy-3-O-methyl-
Formula: C7H14O4
CAS: 13089-76-4
Molecular weight: 162
m/z	intensity
41	80
42	20
43	130
44	20
45	230
47	10
53	10
55	40
56	40
57	350
58	260
59	270
60	50
61	120
62	10
65	10
67	10
68	10
69	30
70	10
71	120
72	30
73	40
74	999
75	60
77	10
83	20
84	60
85	130
86	370
87	130
88	130
89	30
98	20
99	20
100	50
101	20
105	50
111	10
112	20
113	20
116	20
117	100
125	1
126	2
127	3
129	6
130	55
131	7
132	1
143	1
144	12
145	15
146	1
161	1
162	9
163	2
