Mass Spectrum: 5-Hydroxypipecolic acid
Formula: C6H11NO3
CAS: 13096-31-6
Molecular weight: 145
m/z	intensity
41	109
42	89
43	95
44	76
45	52
46	14
47	3
48	0
52	9
53	25
54	46
55	188
56	151
57	27
58	9
59	4
60	15
61	1
62	0
63	2
64	0
65	21
66	2
67	43
68	31
69	28
70	46
71	12
72	17
73	60
74	35
75	2
76	1
77	11
78	31
79	3
80	96
81	16
82	500
83	33
84	13
85	1
86	10
87	3
88	37
89	4
91	4
92	5
93	1
94	0
95	2
96	2
97	3
98	12
100	999
101	54
102	3
105	3
106	17
107	3
108	2
109	3
110	1
114	1
116	4
117	1
127	2
128	1
129	0
144	0
145	12
146	4
