Mass Spectrum: 1-Methyl-8-phenyl-3,6-diazahomoadamantan-9-one
Formula: C16H20N2O
CAS: 130913-44-9
Molecular weight: 256
m/z	intensity
27	35
29	45
30	22
31	2
38	3
39	29
40	7
41	83
42	140
43	29
44	23
45	6
50	6
51	19
52	6
53	9
54	15
55	66
56	65
57	94
58	999
59	40
60	13
61	4
62	3
63	8
64	5
65	9
66	3
67	5
68	10
69	46
70	15
71	7
72	9
73	3
74	4
75	5
76	6
77	45
78	10
79	3
80	4
81	5
82	18
83	5
84	22
85	6
86	33
87	19
88	5
89	8
90	5
91	40
92	4
93	2
94	5
95	3
96	18
97	8
98	62
99	6
101	2
102	18
103	81
104	16
105	5
110	6
111	3
114	3
115	34
116	26
117	23
118	34
119	5
120	3
124	3
125	4
127	5
128	22
129	13
130	17
131	10
132	3
139	10
140	2
141	5
142	4
143	9
144	17
145	5
146	3
149	12
150	17
151	5
152	3
153	3
154	2
155	4
156	8
157	7
158	12
159	4
160	7
167	2
168	2
169	4
170	11
171	8
172	10
173	5
183	3
184	12
185	12
186	7
187	6
198	7
199	6
200	15
201	4
202	2
210	2
212	13
213	9
214	11
215	3
227	5
228	6
236	7
241	4
255	29
256	340
257	62
258	5
