Mass Spectrum: 1,5-Diazatricyclo[3.3.2.1(3,7)]undecan-11-one, 3,7-dipropyl-
Formula: C15H26N2O
CAS: 130913-36-9
Molecular weight: 250
m/z	intensity
39	17
40	22
41	166
42	202
43	58
44	53
45	3
49	1
51	1
53	14
54	13
55	106
56	63
58	999
59	33
60	1
65	4
66	3
67	22
68	22
69	70
70	24
71	13
72	52
73	4
74	0
75	0
76	0
77	5
78	1
79	9
80	7
81	15
82	22
83	58
84	13
85	33
86	4
87	0
89	0
91	4
92	1
93	4
94	7
95	9
96	16
97	23
98	16
99	4
100	1
103	0
105	1
106	2
107	3
108	6
109	6
110	15
111	6
112	19
113	5
114	1
117	0
119	0
120	1
121	2
122	5
123	4
124	13
125	10
126	28
127	3
128	2
129	0
131	0
132	0
133	0
134	2
135	2
136	8
137	7
138	7
139	3
140	4
141	1
142	0
146	0
147	0
148	2
149	2
150	6
151	4
152	7
153	6
154	4
155	3
160	0
162	1
163	1
164	7
165	7
166	12
167	5
168	4
169	2
170	0
176	1
177	1
178	14
179	6
180	4
181	0
182	8
183	2
184	22
185	2
186	1
190	0
191	0
192	2
193	5
194	15
196	722
197	95
198	14
199	1
205	0
206	3
207	4
208	5
209	3
210	14
211	2
212	4
219	0
221	10
222	5
223	0
224	0
233	0
235	2
236	1
237	1
238	0
239	2
249	7
250	57
251	10
252	1
