Mass Spectrum: N-(4-Oxo-2-thioxo-thiazolidin-3-yl)-benzamide
Formula: C10H8N2O2S2
CAS: 13097-06-8
Molecular weight: 252
m/z	intensity
33	1
34	7
36	2
38	4
40	75
41	6
42	26
43	11
44	30
45	28
46	38
47	6
50	25
51	81
52	4
55	2
56	0
57	5
59	6
60	7
63	2
64	15
65	1
70	1
71	2
73	2
74	12
76	36
77	376
78	13
81	4
86	4
90	1
91	2
103	14
105	999
106	70
107	4
112	2
118	5
121	4
135	1
150	5
153	3
171	2
178	4
250	2
252	126
253	12
254	7
255	1
