Mass Spectrum: 2,3,6-Tri-O-benzoyl-5-O-methyl-d-glucono-1,4-lactone
Formula: C28H24O9
CAS: 13096-69-0
Molecular weight: 504
m/z	intensity
43	7
44	2
45	18
50	26
51	53
52	2
58	23
74	6
75	1
76	15
77	230
78	20
105	999
106	71
122	119
123	3
179	762
180	78
181	4
191	1
247	22
260	40
261	4
350	8
369	59
370	11
383	2
399	8
400	1
504	2
