Mass Spectrum: 1,8-Diethyl-3,6-diazahomoadamantan-9-one
Formula: C13H22N2O
CAS: 130913-35-8
Molecular weight: 222
m/z	intensity
39	50
40	58
41	109
42	151
43	58
44	85
55	69
56	49
57	66
58	177
65	35
67	59
68	37
70	44
71	36
72	999
73	52
77	50
79	63
80	42
81	44
82	111
91	41
92	67
93	49
94	48
95	43
96	36
106	75
107	46
108	50
109	27
111	41
120	53
121	71
122	68
123	36
124	33
130	28
133	24
134	39
135	47
136	139
137	38
138	27
148	51
149	136
150	148
151	42
152	26
162	26
163	50
164	98
165	49
166	22
167	26
177	18
178	47
179	61
180	39
191	53
192	21
193	263
194	57
195	8
203	4
204	4
205	19
206	25
207	33
208	23
209	6
217	4
219	3
220	14
221	33
222	839
223	126
224	9
