Mass Spectrum: 1-iso-Propyl-3,6-diazahomoadamantan-9-one
Formula: C12H20N2O
CAS: 130913-40-5
Molecular weight: 208
m/z	intensity
39	104
40	59
41	298
42	332
43	218
44	76
45	23
51	7
52	5
53	70
54	68
55	319
56	161
57	391
58	999
59	43
65	20
66	5
67	66
68	91
69	86
70	93
71	48
72	344
73	25
77	5
79	27
80	27
81	47
82	136
83	197
84	208
85	104
86	4
87	4
91	4
93	20
94	25
95	41
96	52
97	47
98	20
104	2
106	2
107	2
108	27
109	43
110	47
111	23
112	7
120	2
121	23
122	75
123	43
124	61
125	41
126	18
134	5
135	2
136	63
137	70
138	43
139	7
140	2
148	5
149	23
150	163
151	45
152	61
153	5
163	5
164	43
165	63
166	47
167	7
179	2
180	29
192	7
193	109
194	23
206	5
207	140
208	520
209	71
210	5
