Mass Spectrum: 1,5-Diazabicyclo[3.1.0]hexane
Formula: C4H8N2
CAS: 13090-31-8
Molecular weight: 84
m/z	intensity
14	26
15	123
16	8
26	45
27	89
28	162
29	20
30	17
37	20
38	52
39	191
40	81
41	128
42	401
43	146
44	6
51	22
52	34
54	56
55	87
56	191
57	12
68	12
69	13
81	13
83	999
84	814
85	43
86	6
