Mass Spectrum: 2-t-Butyl-5-methyl[1,3]dioxolan-4-one
Formula: C8H14O3
CAS: 130930-47-1
Molecular weight: 158
m/z	intensity
25	0
26	27
27	235
28	42
29	300
30	5
31	6
37	1
38	8
39	199
40	22
41	471
42	108
43	291
44	17
45	792
46	12
47	2
51	9
52	3
53	25
54	9
55	329
56	81
57	999
58	33
59	3
60	4
61	0
62	0
63	0
64	0
65	0
66	0
67	1
68	1
69	16
70	413
71	218
72	8
73	875
74	31
75	7
76	0
77	1
78	0
79	0
80	0
81	0
82	0
83	2
84	1
85	147
86	11
87	7
88	1
89	1
90	1
91	0
92	0
93	0
94	0
95	0
96	0
97	1
98	0
99	4
100	4
101	663
102	23
103	4
104	1
105	1
106	0
107	0
108	0
109	0
110	0
111	0
112	1
113	1
114	47
115	6
122	0
123	0
138	1
139	1
140	2
141	1
156	1
157	1
158	1
159	1
