Mass Spectrum: (-)-N-Acetylneuraminic acid,synthetic
Formula: C11H19NO9
CAS: 131-48-6
Molecular weight: 309
m/z	intensity
25	4
26	18
27	39
28	153
29	103
30	20
31	98
32	16
34	4
36	4
37	17
38	40
39	74
40	33
41	55
42	100
43	803
44	999
45	355
46	8
47	14
50	12
51	48
52	31
53	48
54	15
55	55
56	68
57	28
58	9
59	36
60	377
61	38
62	4
63	12
64	12
65	46
66	46
67	81
68	43
69	17
70	10
71	15
72	68
73	29
74	21
75	3
76	6
77	26
78	68
79	31
80	198
81	40
82	23
83	54
84	38
85	17
86	6
87	3
88	4
89	4
90	4
91	12
92	12
93	151
94	67
95	26
96	101
97	24
98	29
99	9
100	14
101	11
102	9
103	9
104	9
105	16
106	77
107	28
108	20
109	49
110	29
111	143
112	24
113	12
114	82
115	12
116	6
117	4
118	8
119	11
120	21
121	14
122	218
123	26
124	85
125	62
126	22
127	6
128	75
129	17
130	9
131	5
132	5
133	13
134	20
135	14
136	17
137	9
138	20
139	35
140	252
141	40
142	15
143	7
144	5
145	9
146	8
147	4
148	4
149	6
150	5
151	17
152	13
153	36
154	23
155	8
156	7
157	3
158	4
159	4
160	6
161	4
164	3
165	8
166	8
167	6
168	12
169	42
170	26
171	28
172	8
173	3
174	3
175	2
176	3
177	6
178	25
179	5
180	3
181	4
182	14
183	11
184	8
185	4
186	5
193	7
194	7
195	15
196	7
198	5
200	6
201	3
207	2
210	3
211	4
212	18
213	96
214	10
215	3
218	2
228	2
230	6
231	6
237	5
242	5
243	5
255	9
260	4
273	7
