Mass Spectrum: Benzene, 3-bromo-5-chloro-1-iodo-
Formula: C6H3BrClI
CAS: 13101-40-1
Molecular weight: 316
m/z	intensity
24	4
25	9
26	4
35	39
36	38
37	171
38	82
39	6
40	1
47	25
48	24
49	121
50	212
51	12
52	2
54	1
55	5
56	3
60	47
61	64
62	39
63	17
71	11
72	53
73	300
74	999
75	792
76	48
77	3
79	71
80	9
81	72
82	10
83	5
84	92
85	17
86	27
87	5
93	5
94	3
96	1
100	2
104	9
105	3
106	8
107	2
108	18
109	123
110	303
111	61
112	95
113	7
117	4
118	3
119	2
127	611
128	32
129	6
130	7
131	4
139	6
145	3
152	13
153	33
154	14
155	28
156	12
158	12
159	16
160	5
163	3
164	3
165	2
176	5
189	154
190	14
191	214
192	15
193	50
194	4
201	1
202	1
206	4
207	1
210	1
234	2
237	7
254	1
267	1
268	3
270	5
272	5
274	1
281	1
283	2
316	308
317	20
318	395
319	24
320	98
321	6
