Mass Spectrum: Retinoic acid, 5,6-epoxy-5,6-dihydro-
Formula: C20H28O3
CAS: 13100-69-1
Molecular weight: 316
m/z	intensity
36	10
37	10
38	10
39	230
40	60
41	680
42	80
43	999
44	80
45	100
48	10
50	20
51	60
52	30
53	190
54	30
55	420
56	40
57	70
58	30
59	30
60	10
63	40
64	20
65	150
66	50
67	170
68	30
69	390
70	30
71	100
72	20
73	20
74	20
75	30
77	290
78	90
79	290
80	70
81	150
82	40
83	70
84	20
89	30
91	520
92	100
93	20
95	30
96	50
97	40
98	30
103	60
104	40
105	300
107	290
108	160
109	190
110	30
111	90
115	150
116	60
117	130
118	60
119	190
120	70
121	20
122	80
123	190
124	30
125	40
127	60
128	120
129	120
130	60
131	140
132	50
133	190
134	60
135	150
136	70
137	50
138	30
139	20
140	20
141	70
142	80
143	120
144	60
145	190
146	60
147	90
148	40
149	290
150	60
151	50
152	40
153	50
154	30
155	60
156	50
157	100
158	60
159	240
160	50
161	90
164	170
165	120
166	30
167	40
168	20
169	50
170	50
171	110
172	50
173	80
174	30
175	50
176	50
177	140
178	50
179	30
183	40
185	90
186	40
187	90
188	30
189	40
191	110
192	60
193	30
195	20
197	50
199	50
201	60
203	50
205	30
211	30
213	80
215	40
217	90
225	30
227	40
229	30
231	110
241	30
243	30
247	50
255	50
257	50
271	140
272	50
273	40
283	40
298	30
301	180
314	30
316	420
317	90
318	20
