Mass Spectrum: 5-Ethyl-5-cyclohepta-1,3-dienyl-hexahydropyrimidin-2,4,6-trione
Formula: C13H16N2O3
CAS: 131147-48-3
Molecular weight: 248
m/z	intensity
51	154
52	98
53	143
54	60
55	150
56	56
57	60
58	34
59	90
60	68
61	15
62	19
63	68
64	56
65	293
66	222
67	143
68	30
69	71
70	45
71	23
73	56
74	301
75	38
76	26
77	459
78	128
79	211
80	45
81	117
82	23
83	30
84	8
85	15
86	11
87	11
88	4
89	41
90	19
91	789
92	650
93	999
94	86
95	38
96	15
97	38
98	143
99	11
100	4
101	4
102	19
103	124
104	53
105	124
106	34
107	23
108	15
109	15
110	4
111	4
112	8
113	4
114	19
115	207
116	34
117	113
118	41
119	30
120	105
121	23
122	11
123	4
124	4
125	4
126	4
128	41
129	30
130	26
131	56
132	26
133	45
134	15
135	8
136	4
141	383
142	30
143	8
144	8
145	4
146	23
147	23
148	23
149	4
150	8
152	4
153	4
155	11
156	26
157	421
158	41
159	71
160	15
161	26
162	8
167	4
174	4
176	26
191	8
192	4
204	124
205	11
219	523
220	60
221	192
222	15
233	15
248	64
249	4
