Mass Spectrum: Bromoacetic acid, pentadecyl ester
Formula: C17H33BrO2
CAS: 131143-01-6
Molecular weight: 348
m/z	intensity
27	95
28	10
29	224
30	7
31	11
35	2
36	25
37	4
38	13
39	131
40	36
41	726
42	307
43	999
44	97
45	15
49	6
50	6
51	13
52	9
53	47
54	141
55	916
56	523
57	853
58	42
59	6
60	19
61	60
62	4
63	7
64	3
65	10
66	18
67	136
68	289
69	818
70	444
71	363
72	29
73	8
74	2
75	2
76	2
77	16
78	6
79	18
80	8
81	82
82	379
83	841
84	298
85	196
86	13
90	2
91	7
92	4
93	46
94	13
95	66
96	193
97	589
98	186
99	47
100	6
101	5
105	4
107	2
108	3
109	34
110	89
111	304
112	112
113	22
115	5
120	7
121	137
122	9
123	163
124	62
125	148
126	73
127	16
128	4
131	2
133	3
135	2
137	17
138	44
139	61
140	52
141	62
142	5
148	6
149	3
150	6
151	16
152	29
153	29
154	27
155	4
156	3
162	4
163	2
164	5
165	8
166	17
167	16
168	10
169	10
176	3
178	3
179	12
180	24
181	9
182	65
183	13
190	3
191	2
192	2
195	3
204	5
206	3
207	6
208	52
209	15
210	41
211	11
255	10
