Mass Spectrum: Dichloromethylpho sphonic acid
Formula: CH3Cl2O3P
CAS: 13113-88-7
Molecular weight: 164
m/z	intensity
41	34
42	42
43	67
44	68
45	117
47	886
48	364
49	25
50	105
51	59
52	12
53	19
54	8
55	30
56	14
57	19
58	5
59	15
60	40
61	26
63	199
64	149
65	631
66	2
67	44
68	18
69	127
70	10
71	10
72	4
73	14
74	9
75	6
76	11
77	88
78	13
79	10
81	999
82	611
83	346
84	2
85	243
87	44
88	2
89	6
90	2
91	15
92	2
93	4
94	4
95	8
96	9
97	9
98	11
100	592
102	196
103	0
105	171
106	12
107	8
108	4
109	5
110	3
111	3
112	9
113	2
114	4
115	3
116	1
117	29
118	2
119	11
120	1
121	3
122	14
123	6
124	1
125	1
126	2
127	10
128	13
129	13
130	18
131	10
132	6
133	2
134	1
142	1
143	1
144	0
145	1
146	2
147	2
148	2
149	2
150	1
151	1
152	0
160	0
161	0
162	1
164	11
165	18
166	4
167	11
168	3
