Mass Spectrum: N,N'-Diphenylisophthalamide
Formula: C20H16N2O2
CAS: 13111-32-5
Molecular weight: 316
m/z	intensity
33	9
34	9
36	13
37	9
38	18
39	42
40	94
41	67
43	37
44	45
45	16
47	4
49	6
50	65
51	270
53	20
55	41
56	10
57	34
59	1
60	4
61	3
62	5
63	16
64	8
65	20
66	8
67	5
69	18
70	12
71	10
73	8
74	17
75	17
77	645
78	54
81	7
82	4
83	8
84	7
85	7
86	1
87	2
89	2
91	70
93	4
94	6
95	3
97	7
98	2
99	2
100	1
101	2
102	2
105	999
108	3
109	2
110	1
111	3
112	7
113	4
115	2
116	1
118	2
119	2
122	39
123	6
125	3
126	2
128	3
129	2
131	3
135	1
137	1
140	2
143	1
144	1
146	1
147	1
149	5
151	2
152	2
153	1
154	2
155	3
157	2
158	1
159	7
161	2
171	9
182	1
183	1
184	2
185	2
187	1
189	1
198	2
209	1
211	3
212	2
213	7
214	1
283	1
301	1
313	1
314	3
316	152
317	30
318	4
