Mass Spectrum: Pentanal, dipropyl acetal
Formula: C11H24O2
CAS: 13112-64-6
Molecular weight: 188
m/z	intensity
27	172
28	11
29	160
30	13
31	269
41	401
42	115
43	999
44	107
45	59
47	75
55	35
56	5
57	663
58	73
59	50
60	35
69	430
70	29
71	39
85	11
86	34
87	397
88	23
89	419
99	88
100	8
103	16
128	59
129	392
131	392
