Mass Spectrum: 1,1-Dibutoxy-isobutane
Formula: C12H26O2
CAS: 13112-62-4
Molecular weight: 202
m/z	intensity
29	280
41	353
43	117
55	108
56	71
57	999
73	502
103	146
129	189
159	89
