Mass Spectrum: 1,6-Dihydro-1-methyl-2-methylthio-5-((E)-2-methoxycarbonylvinyl)-4-(2,3,4-tri-O-acetyl-.beta.-D-xylopyranosylamino)-1H-pyrimidin-6-one
Formula: C21H27N3O10S
CAS: 131109-43-8
Molecular weight: 513
m/z	intensity
97	999
196	510
208	92
210	150
222	54
224	380
238	77
252	130
255	19
264	56
266	60
268	31
274	53
292	36
296	94
302	100
320	66
334	65
350	20
362	27
380	54
394	35
454	54
513	26
