Mass Spectrum: 1,6-Dihydro-2-methylthio-5-((E)-2-ethoxycarbonylvinyl)-4-(2,3,4-tri-O-acetyl-.beta.-D-xylopyranosylamino)-1H-pyrimidin-6-one
Formula: C21H27N3O10S
CAS: 131129-99-2
Molecular weight: 513
m/z	intensity
97	999
182	370
194	95
196	28
208	27
210	410
222	28
224	36
238	120
249	27
250	43
252	35
260	71
266	20
278	42
280	29
288	78
296	71
320	75
334	54
348	38
380	34
394	42
440	34
513	63
