Mass Spectrum: Indole, 2,3-dihydro-2,3-dioxo-1-(1-azacycloheptylmethyl)-
Formula: C15H18N2O2
CAS: 13129-70-9
Molecular weight: 258
m/z	intensity
34	0
37	20
38	34
39	128
40	37
41	206
42	218
43	57
44	72
45	5
49	4
50	38
51	66
52	30
53	30
54	26
55	119
56	28
57	22
58	196
59	9
60	1
61	8
62	22
63	53
64	43
65	19
66	6
67	12
68	16
69	24
70	22
71	6
72	0
73	3
74	18
75	17
76	40
77	164
78	21
79	6
80	4
81	6
82	14
83	11
84	26
85	1
86	0
87	1
88	4
89	6
90	115
91	28
92	52
93	9
94	2
95	1
96	8
97	2
98	16
99	6
100	2
102	9
103	8
104	33
105	38
106	5
107	2
109	2
110	9
112	999
113	82
114	3
115	4
116	0
117	5
118	9
119	62
120	8
121	1
124	0
126	1
127	1
128	1
129	3
130	7
131	7
132	152
133	18
134	2
142	0
143	0
144	0
146	47
147	44
148	3
149	0
154	0
155	0
157	0
159	1
160	0
161	3
163	0
165	1
167	3
169	0
171	1
173	1
178	2
179	1
180	2
181	0
185	0
191	1
192	0
193	3
194	0
202	1
205	0
210	0
213	0
214	0
215	0
220	0
227	0
228	0
231	0
246	1
258	13
259	1
