Mass Spectrum: Boron, [3-(dimethylamino)-1-methoxy-2-methyl-1-propen-1-olato]bis(trifluoromethyl)-, (t-4)-
Formula: C9H14BF6NO2
CAS: 131260-19-0
Molecular weight: 293
m/z	intensity
26	2
27	9
29	12
30	17
31	8
33	1
37	1
38	4
39	47
41	231
42	70
43	12
44	34
45	16
46	1
47	0
48	2
49	8
50	2
51	1
52	1
53	6
54	4
55	16
56	16
57	9
58	256
59	19
60	4
61	5
62	0
63	2
64	0
65	1
66	0
67	1
68	7
69	999
70	47
71	6
72	9
73	19
74	57
75	2
76	9
77	2
78	4
79	1
80	1
81	3
82	6
83	4
84	9
85	8
86	6
87	9
88	3
89	3
90	12
91	39
92	163
93	45
94	8
95	0
96	6
97	1
98	5
99	17
100	29
101	15
102	1
103	6
104	11
105	5
106	14
107	0
108	1
110	1
111	2
112	24
113	3
114	6
115	4
116	4
117	0
118	1
119	0
120	0
121	1
122	5
123	20
124	75
125	3
126	1
127	1
128	7
129	3
130	4
131	12
132	1
134	0
135	1
136	4
139	0
140	1
141	0
142	6
143	6
144	6
145	6
146	11
147	0
148	1
149	4
150	6
153	2
154	5
155	1
156	2
157	4
158	14
159	2
160	1
161	1
162	1
163	0
164	1
171	0
172	2
173	25
174	106
175	8
176	1
177	1
178	2
191	1
192	7
196	0
208	0
213	0
214	3
222	0
223	28
224	128
225	12
226	1
242	1
256	0
274	0
278	0
283	1
291	1
292	27
293	83
294	21
295	0
