Mass Spectrum: Methoxymethyl(tosyloxyamino)malonic acid diethyl ester
Formula: C16H23NO8S
CAS: 131285-36-4
Molecular weight: 389
m/z	intensity
30	28
31	73
32	14
33	14
39	36
40	15
41	152
42	85
43	124
44	110
45	999
46	34
47	13
50	11
51	16
53	12
54	31
55	40
56	42
57	22
58	48
59	67
60	11
61	18
63	28
64	22
65	120
66	21
71	27
72	113
73	51
74	29
77	20
78	10
85	42
86	49
87	22
88	29
89	48
90	45
91	908
92	117
93	17
98	16
99	84
100	92
101	32
102	61
103	12
112	16
113	88
114	31
115	21
116	54
117	11
126	10
127	765
128	77
129	48
130	105
131	48
143	61
144	320
145	46
146	333
147	33
155	889
156	99
157	76
158	137
159	72
160	24
171	143
172	55
173	438
174	150
175	27
185	24
186	132
187	82
188	18
204	50
216	26
217	72
218	115
219	17
234	11
264	18
316	47
317	10
344	22
357	15
389	75
390	16
391	5
