Mass Spectrum: Decanoic acid, silver(1+) salt
Formula: C10H19AgO2
CAS: 13126-67-5
Molecular weight: 278
m/z	intensity
27	85
28	86
29	152
31	10
32	22
39	100
40	22
41	436
42	155
43	563
44	81
45	93
53	41
54	45
55	524
56	149
57	586
58	36
59	43
60	920
61	149
62	10
65	10
67	76
68	60
69	265
70	133
71	580
72	43
73	999
74	96
75	10
77	10
79	23
81	110
82	55
83	211
84	176
85	155
86	19
87	193
88	17
93	12
95	88
96	17
97	95
98	144
99	19
101	68
102	12
107	14
109	12
110	62
111	36
112	78
113	20
115	130
116	14
125	10
126	11
129	415
130	33
135	10
137	13
143	75
144	16
153	13
155	547
156	72
172	15
214	3
215	3
216	5
217	6
218	2
219	2
233	3
235	2
277	2
279	3
330	1
385	7
386	1
387	14
388	2
389	7
