Mass Spectrum: Boron, [4-(dimethylamino)-4-methoxy-2-buten-2-olato-N4,O2]bis(trifluoromethyl)-, (t-4)-
Formula: C9H14BF6NO2
CAS: 131260-21-4
Molecular weight: 293
m/z	intensity
23	0
25	2
26	25
27	71
28	18
29	62
30	85
31	54
33	1
35	0
37	2
38	4
39	18
40	53
41	15
42	61
43	160
44	245
45	56
46	37
47	37
48	2
49	9
50	21
51	10
52	0
53	32
54	10
55	10
56	8
57	19
58	24
59	49
60	11
61	3
62	0
63	0
64	1
65	0
66	1
67	0
68	0
69	31
70	3
71	83
72	31
73	37
74	146
75	25
76	84
77	27
78	14
79	1
80	0
81	0
82	0
83	2
84	0
85	579
86	23
87	2
88	0
89	4
90	24
91	291
92	999
93	39
94	50
95	1
96	1
97	4
98	8
99	1
100	120
101	10
102	0
103	0
104	0
105	5
106	17
107	0
111	0
112	1
113	5
114	0
115	1
124	0
125	0
126	1
127	0
132	0
134	0
139	0
140	1
141	22
142	82
143	3
144	0
147	0
149	0
155	0
156	3
174	1
184	1
185	1
235	0
264	1
279	0
