Mass Spectrum: Propylneopentylamine
Formula: C8H19N
CAS: 131229-65-7
Molecular weight: 129
m/z	intensity
26	5
27	57
28	6
29	30
30	462
31	11
39	52
40	6
41	86
42	38
43	189
44	68
45	11
51	2
53	8
54	6
55	65
56	31
57	32
58	32
60	8
67	6
68	5
69	20
70	32
71	33
72	999
73	56
77	1
79	4
80	1
81	6
82	4
83	4
84	11
85	5
86	4
87	1
91	3
93	2
95	2
96	2
97	2
98	3
99	2
100	31
101	2
114	93
115	10
128	5
129	53
130	4
