Mass Spectrum: Bis(tricyclohexyltin) sulfide
Formula: C36H66SSn2
CAS: 13121-76-1
Molecular weight: 770
m/z	intensity
15	5
26	16
27	120
28	58
29	79
30	2
32	7
33	4
34	11
37	6
38	15
39	274
40	45
41	540
42	180
43	57
44	2
45	2
49	4
50	30
51	49
52	26
53	110
54	677
55	470
56	351
57	19
60	3
61	2
62	3
63	7
65	38
66	22
67	999
68	69
69	105
70	6
71	3
73	3
74	6
75	2
76	2
77	50
78	16
79	92
80	18
81	578
82	482
83	352
84	309
85	20
95	2
97	3
113	2
115	2
116	21
117	45
118	48
119	75
120	60
121	89
122	7
123	19
124	7
125	14
135	3
145	3
147	3
149	12
150	7
151	20
152	9
153	26
154	2
155	7
157	6
159	2
173	2
175	3
177	2
195	5
196	2
197	21
198	19
199	75
200	67
201	339
202	211
203	526
204	189
205	562
206	43
207	98
208	7
209	94
210	6
229	2
231	4
232	6
233	20
234	15
235	30
236	20
237	34
238	5
239	7
240	2
241	6
243	2
245	2
247	2
263	2
264	2
265	9
266	8
267	23
268	21
269	48
270	31
271	57
272	24
273	46
274	10
275	23
276	5
277	13
278	2
279	10
280	2
281	9
282	14
283	155
284	113
285	264
286	140
287	345
288	47
289	49
290	9
291	58
292	8
301	2
303	2
305	2
311	4
313	4
314	4
315	60
316	41
317	109
318	53
319	143
320	22
321	29
322	5
323	25
324	4
325	3
349	3
350	2
351	6
352	5
353	10
354	7
355	11
356	5
357	9
358	2
359	4
361	14
362	4
363	16
364	9
365	179
366	122
367	301
368	158
369	398
370	79
371	61
372	10
373	66
374	13
397	8
398	7
399	14
400	9
401	20
402	8
403	5
404	3
405	5
406	3
407	3
409	4
410	2
411	5
412	2
413	6
431	4
432	3
433	9
434	9
435	19
436	13
437	23
438	10
439	19
440	5
441	9
442	3
443	5
448	2
450	2
467	2
469	2
471	2
513	3
514	3
515	7
516	7
517	14
518	10
519	18
520	9
521	15
522	6
523	9
524	3
525	5
527	2
531	3
547	2
549	3
550	2
551	3
552	2
553	3
555	2
571	2
593	5
594	4
595	9
596	9
597	39
598	41
599	111
600	107
601	231
602	173
603	259
604	144
605	207
606	75
607	88
608	34
609	54
610	15
611	10
612	3
613	5
651	2
653	2
655	2
675	6
676	5
677	10
678	9
679	46
680	48
681	124
682	125
683	263
684	204
685	296
686	178
687	240
688	97
689	103
690	44
691	64
692	19
693	11
694	3
695	5
696	2
