Mass Spectrum: L-Leucine, N-[(1,1-dimethylethoxy)carbonyl]-
Formula: C11H21NO4
CAS: 13139-15-6
Molecular weight: 231
m/z	intensity
26	20
27	178
28	176
29	268
30	191
31	115
37	9
38	19
39	183
40	33
41	581
42	89
43	420
44	141
45	28
46	11
49	3
50	12
51	14
52	7
53	27
54	13
55	76
56	86
57	999
58	60
59	507
60	19
62	6
65	4
67	13
68	14
69	43
70	75
71	16
72	7
73	28
74	112
75	18
81	8
82	6
83	21
84	15
85	23
86	527
87	39
88	57
89	4
95	6
96	8
97	5
98	4
99	12
100	4
101	102
102	6
103	3
110	3
111	3
112	42
113	10
114	26
115	5
116	12
119	51
120	4
126	4
129	5
130	464
131	52
132	20
139	4
142	7
157	12
158	26
159	4
160	9
172	4
175	15
176	8
186	106
187	14
