Mass Spectrum: Acrylic acid 3-(3,5-dioxo-4-aza-tricyclo[5.2.1.02,6]dec-8-en-4-yl)-phenyl ester
Formula: C18H15NO4
CAS: 131317-35-6
Molecular weight: 309
m/z	intensity
33	0
34	0
36	0
37	0
38	1
39	33
40	31
41	10
42	2
43	9
44	39
45	4
46	0
48	0
50	0
51	12
52	9
53	9
54	40
55	999
56	83
57	11
58	0
59	0
60	1
61	0
62	0
63	5
64	5
65	41
66	136
67	9
68	1
69	2
70	0
71	0
72	0
73	0
75	0
76	0
77	6
78	8
79	5
80	3
81	2
82	11
83	2
84	0
85	2
86	0
88	0
89	3
90	3
91	58
92	14
93	3
94	0
95	0
96	0
97	0
99	0
102	0
103	0
104	4
105	2
106	4
107	0
108	0
109	2
110	0
111	0
112	0
113	0
115	0
116	2
117	0
118	13
119	9
120	3
121	0
122	0
123	0
124	0
125	0
127	0
128	0
129	0
130	0
131	0
132	8
133	20
134	4
135	7
136	2
137	0
139	0
140	0
141	0
142	0
143	0
144	2
145	9
146	3
147	2
148	1
150	0
151	0
152	0
153	0
154	0
155	0
156	0
157	0
158	1
159	0
160	37
161	17
162	5
163	0
165	0
166	0
167	0
168	0
169	0
170	0
171	0
172	9
173	0
174	0
175	0
179	0
180	0
181	0
182	0
183	0
184	0
185	0
186	1
187	2
188	42
189	297
190	63
191	7
192	0
195	0
197	0
198	0
199	0
200	0
201	0
210	0
211	0
212	0
213	0
214	0
215	29
216	5
217	0
225	0
226	1
227	0
238	0
239	0
240	0
242	2
243	109
244	48
245	6
246	0
254	0
255	27
256	4
257	0
280	0
281	4
282	0
308	1
309	159
310	31
311	4
