Mass Spectrum: Boron, (N-methylmethanamine)(4-methyl-2-oxo-3-pentenyl)bis(trifluoromethyl)-, (t-4)-
Formula: C10H16BF6NO
CAS: 131373-91-6
Molecular weight: 291
m/z	intensity
26	0
27	21
29	36
30	7
31	1
33	0
38	1
39	27
41	22
42	10
43	16
44	86
45	74
46	78
47	2
48	0
49	2
50	2
51	3
52	2
53	24
54	8
55	123
56	7
57	2
58	4
59	3
60	10
61	0
62	0
63	1
64	0
65	5
66	2
67	4
68	1
69	2
70	1
71	1
72	7
73	7
74	25
75	3
76	7
77	12
78	12
79	30
80	10
81	26
82	36
83	999
84	59
85	2
86	4
87	0
88	0
89	2
90	8
91	46
92	188
93	65
94	235
95	8
96	3
97	9
98	32
99	2
101	0
102	0
103	0
104	0
107	0
108	0
109	1
110	0
111	1
112	2
113	4
114	0
115	1
116	2
119	0
120	0
121	0
122	2
123	2
124	6
125	3
126	3
127	10
128	2
129	1
130	0
131	1
135	0
137	0
138	1
139	5
140	10
141	2
142	9
143	0
144	3
145	7
146	2
147	1
149	0
150	0
151	1
152	1
153	0
154	2
155	0
156	0
157	0
159	0
160	1
161	0
163	0
164	0
165	0
166	0
167	0
168	0
169	0
170	0
171	4
172	17
173	2
174	0
175	1
176	2
177	0
182	0
183	1
184	12
185	23
186	2
190	0
201	0
202	0
206	0
207	0
212	0
213	1
221	1
222	5
223	0
226	0
233	0
234	2
235	5
236	5
237	0
252	0
256	1
270	3
271	18
272	27
273	3
276	0
283	0
284	1
285	2
290	27
291	109
292	12
293	1
