Mass Spectrum: 1,5-Anhydro-d-glucitol, tetra-O-acetyl-
Formula: C14H20O9
CAS: 13137-69-4
Molecular weight: 332
m/z	intensity
27	8
28	2
29	9
30	0
31	5
38	0
39	5
40	0
41	11
42	15
43	999
44	23
45	6
47	0
50	0
51	0
52	0
53	3
54	1
55	8
56	3
57	11
58	2
59	0
60	5
61	8
65	0
66	0
67	0
68	18
69	49
70	6
71	5
72	1
73	17
74	1
75	0
79	0
80	0
81	8
82	5
83	6
84	2
85	72
86	17
87	4
89	0
91	0
93	0
94	0
95	0
96	0
97	112
98	22
99	19
100	3
101	1
102	7
103	24
104	1
109	2
110	65
111	23
112	2
113	1
114	0
115	54
116	9
117	1
124	0
126	0
127	32
128	38
129	6
130	0
131	0
133	0
136	1
137	0
139	40
140	4
141	3
144	0
145	12
146	0
147	0
152	9
153	8
154	0
157	29
158	2
159	0
165	0
169	1
170	110
171	18
172	2
173	0
175	0
187	12
188	1
199	6
200	0
207	0
212	31
213	3
214	0
229	0
230	1
231	0
259	2
273	0
