Mass Spectrum: 1,3-Dimethyl-5-isobutylcyclohexane
Formula: C12H24
CAS: 13131-76-5
Molecular weight: 168
m/z	intensity
41	580
42	50
43	150
44	220
55	710
56	980
57	880
58	40
67	80
68	70
69	999
70	100
81	70
83	90
95	280
97	150
110	230
111	600
112	40
153	30
168	40
169	5
