Mass Spectrum: 2-(Acetylamino)-4,5,6,7-tetrahydro-1-benzothiophene-3-carboxylic acid
Formula: C11H13NO3S
CAS: 13130-43-3
Molecular weight: 239
m/z	intensity
29	26
40	37
43	999
45	304
55	14
57	36
59	19
68	10
76	42
85	21
91	63
95	30
96	54
104	19
110	16
134	23
146	19
151	255
178	56
179	148
180	50
191	17
193	288
197	8
206	35
221	603
