Mass Spectrum: 6-Hydroxycarvotanacetone
Formula: C10H16O2
CAS: 131486-99-2
Molecular weight: 168
m/z	intensity
27	13
28	4
29	14
30	1
31	4
38	2
39	47
40	7
41	67
42	7
43	45
44	3
45	2
50	3
51	11
52	5
53	36
54	131
55	50
56	10
57	17
58	3
59	2
62	2
63	4
64	1
65	14
66	7
67	23
68	7
69	37
70	10
71	34
72	2
77	33
78	7
79	32
80	7
81	16
82	999
83	68
84	14
85	7
86	2
91	15
92	4
93	5
94	2
95	17
96	7
97	59
98	83
99	6
100	1
103	1
105	4
106	2
107	31
108	17
109	8
110	7
111	8
112	2
113	1
115	2
117	1
121	4
122	3
123	4
124	2
125	28
126	5
135	14
136	1
137	2
139	12
140	45
141	4
150	15
151	2
152	1
153	1
168	75
169	8
