Mass Spectrum: 3-Butenamide, N-phenyl-
Formula: C10H11NO
CAS: 13140-15-3
Molecular weight: 161
m/z	intensity
25	0
26	6
27	21
28	8
29	1
30	1
31	0
36	0
37	10
38	30
39	188
40	48
41	268
42	12
43	2
44	1
45	0
46	0
49	1
50	20
51	73
52	19
53	4
54	5
55	1
56	1
57	0
61	3
62	7
63	33
64	30
65	128
66	81
67	8
68	12
69	49
70	2
71	0
73	0
74	4
75	4
76	6
77	179
78	13
79	5
80	1
86	0
87	0
88	0
89	1
90	4
91	30
92	124
93	999
94	71
95	2
102	0
103	1
104	3
105	2
106	12
107	1
115	2
116	1
117	7
118	2
119	33
120	111
121	8
122	0
128	0
130	4
131	1
132	4
133	2
134	0
142	0
143	0
144	0
145	0
146	1
160	2
161	200
162	29
163	2
