Mass Spectrum: 1,3-Isobenzofurandione, 3a,4,7,7a-tetrahydro-, trans-
Formula: C8H8O3
CAS: 13149-03-6
Molecular weight: 152
m/z	intensity
41	40
44	15
49	15
50	70
51	15
52	85
53	20
63	20
65	40
66	10
74	15
77	140
78	70
79	670
80	999
81	70
124	15
152	245
153	17
