Mass Spectrum: 7-Oxabicyclo[4.3.0]nonane, cis-
Formula: C8H14O
CAS: 13149-01-4
Molecular weight: 126
m/z	intensity
38	17
39	162
40	40
41	171
42	32
43	30
44	25
45	26
50	20
51	30
52	20
53	118
54	268
55	311
56	23
57	25
63	19
64	47
66	108
67	721
68	481
69	85
70	39
71	22
77	79
78	44
79	252
80	180
81	999
82	122
83	37
84	32
91	45
92	15
93	193
94	69
95	516
96	205
97	45
98	48
107	29
108	113
109	8
111	20
125	67
126	285
127	25
128	1
