Mass Spectrum: 1,3-Oxathiolane, 2-methyl-2-(4-nitrophenyl)-
Formula: C10H11NO3S
CAS: 131496-48-5
Molecular weight: 225
m/z	intensity
15	4
27	11
28	40
32	9
39	7
43	90
45	68
50	20
51	15
58	10
59	119
60	999
61	46
62	51
63	10
64	6
65	9
74	7
75	15
76	36
77	26
91	18
92	12
102	8
103	11
104	37
105	8
119	12
120	18
121	5
134	8
135	3
149	17
150	62
151	6
165	6
166	12
210	45
211	5
225	78
226	10
227	5
