Mass Spectrum: 5-Chloro-3-(morpholinomethyl)benzoxazole-2(3H)-thione
Formula: C12H13ClN2O2S
CAS: 131444-69-4
Molecular weight: 284
m/z	intensity
33	16
34	3
36	9
38	11
40	58
42	121
43	24
44	38
45	13
47	2
48	5
50	15
51	12
52	7
54	14
56	148
57	12
58	4
60	15
63	56
64	7
65	2
70	60
72	33
73	9
75	28
76	11
77	5
78	6
79	5
81	2
82	2
83	1
85	6
86	9
87	7
88	2
90	9
91	1
92	5
93	5
95	7
96	3
98	33
100	999
102	8
103	1
104	1
106	2
108	1
111	17
112	5
113	10
115	4
117	1
120	3
121	2
122	3
124	6
125	11
126	3
127	6
128	2
130	9
131	1
132	3
133	1
134	1
138	3
140	4
141	2
142	1
143	1
150	2
151	1
152	1
153	3
154	2
156	14
157	4
158	5
159	1
166	1
167	1
169	1
182	1
185	83
187	37
188	3
189	1
198	3
199	1
200	1
284	2
286	1
