Mass Spectrum: N-(3-Methoxyphenyl)-N'-phenyl-urea
Formula: C14H14N2O2
CAS: 13142-83-1
Molecular weight: 242
m/z	intensity
63	141
64	168
65	170
66	220
77	130
78	138
79	498
80	151
91	339
92	181
93	999
94	337
95	80
106	220
107	79
119	596
120	180
121	49
122	99
123	598
124	99
149	599
150	99
242	250
243	49
