Mass Spectrum: N-Chloro-2-phenylaziridine
Formula: C8H8ClN
CAS: 13148-32-8
Molecular weight: 153
m/z	intensity
39	174
40	28
41	112
42	18
43	14
44	53
50	129
51	269
52	87
53	19
62	34
63	154
64	70
65	244
66	14
75	31
76	126
77	174
78	90
79	23
89	221
90	148
91	999
92	90
93	25
103	238
104	115
105	31
116	28
117	204
118	921
119	118
120	19
153	6
154	1
155	2
