Mass Spectrum: Cyclopentanecarboxylic acid, 1-(1-methyl-2-propenyl)-2-oxo-, ethyl ester
Formula: C12H18O3
CAS: 131534-42-4
Molecular weight: 210
m/z	intensity
26	78
27	726
28	217
29	999
30	32
31	56
37	12
38	25
39	360
40	90
41	440
42	66
43	207
44	25
45	61
46	15
47	8
50	30
51	66
52	52
53	244
54	100
55	576
56	65
57	31
58	7
59	9
60	17
61	10
62	8
63	18
64	8
65	80
66	60
67	172
68	56
69	37
70	14
71	16
72	8
73	32
74	5
77	107
78	29
79	277
80	61
81	262
82	61
83	37
84	9
85	11
88	16
91	64
92	14
93	143
94	193
95	102
96	16
97	14
99	20
105	12
107	47
108	123
109	231
110	189
111	102
112	14
118	23
119	77
120	18
121	62
122	20
123	23
125	20
126	19
127	39
128	32
135	64
136	47
137	90
138	11
139	8
147	9
153	14
154	32
155	9
156	113
157	13
165	22
166	4
182	36
183	5
192	8
193	1
