Mass Spectrum: 1-tert-Butylamino-3-chloro-2-propanol
Formula: C7H16ClNO
CAS: 13156-02-0
Molecular weight: 165
m/z	intensity
14	4
15	34
16	2
17	2
18	7
25	3
26	24
27	78
28	99
29	206
30	933
31	34
32	2
35	54
36	156
37	19
38	31
39	104
40	23
41	399
42	142
43	66
44	38
45	10
48	1
49	12
50	9
51	10
52	9
53	19
54	27
55	94
56	144
57	763
58	183
59	14
60	540
61	14
62	1
63	3
65	1
66	1
67	3
68	24
69	9
70	218
71	45
72	20
73	5
74	9
75	29
76	2
77	11
78	3
79	7
80	3
81	7
82	9
83	23
84	18
85	18
86	999
87	60
88	1
90	6
91	6
92	12
93	8
94	7
95	3
96	88
97	9
98	52
99	4
100	8
101	1
104	1
106	1
108	15
109	1
110	9
111	3
112	4
113	4
114	93
115	7
116	62
117	5
118	1
122	1
125	1
127	1
129	82
130	9
131	1
132	236
133	16
134	77
135	5
146	1
148	1
149	1
150	541
151	39
152	174
153	11
163	1
164	2
165	10
166	1
167	3
