Mass Spectrum: Cyclopentanecarboxylic acid, 1-(2-butenyl)-2-oxo-, ethyl ester, (Z)-
Formula: C12H18O3
CAS: 131534-41-3
Molecular weight: 210
m/z	intensity
25	10
26	92
27	694
28	222
29	999
30	23
31	47
37	5
38	27
39	448
40	110
41	544
42	92
43	240
44	28
45	66
46	8
47	16
50	25
51	51
52	65
53	251
54	106
55	552
56	58
57	57
59	13
60	15
61	19
62	11
63	17
65	76
66	60
67	228
68	60
69	59
70	13
71	17
73	25
75	10
77	115
78	37
79	282
80	95
81	262
82	59
83	36
84	17
85	9
91	82
92	22
93	132
94	144
95	94
96	19
97	29
98	9
105	13
107	55
108	83
109	178
110	173
111	140
112	22
113	12
117	12
118	14
119	45
120	11
121	418
122	45
123	15
125	32
126	11
127	32
128	23
135	29
136	84
137	231
138	34
139	27
140	12
141	10
149	11
153	14
154	14
156	45
157	5
165	33
166	4
167	11
168	1
181	11
182	40
183	6
192	24
193	2
