Mass Spectrum: 2,6-Diphenyl-5,6-dihydro-4H-1,3-oxazine
Formula: C16H15NO
CAS: 13157-48-7
Molecular weight: 237
m/z	intensity
25	3
26	31
27	119
28	1
29	99
30	21
31	35
32	2
37	6
38	12
39	97
40	10
41	62
42	19
43	100
44	60
45	6
50	88
51	339
52	64
53	22
54	11
55	32
56	44
57	31
58	6
59	2
60	1
62	8
63	42
64	13
65	33
66	6
67	10
68	5
69	17
70	7
71	12
73	5
74	17
75	33
76	124
77	839
78	320
79	46
80	4
81	2
82	4
83	7
84	4
85	6
89	29
90	12
91	64
92	13
93	5
95	6
97	6
102	34
103	389
104	999
105	600
106	60
107	10
115	26
116	28
117	35
118	29
122	48
130	8
131	28
132	39
133	24
134	10
146	59
147	5
208	16
209	13
236	26
237	179
238	31
239	4
