Mass Spectrum: 1-Decene, 4-methyl-
Formula: C11H22
CAS: 13151-29-6
Molecular weight: 154
m/z	intensity
24	0
25	4
26	29
27	198
28	41
29	295
30	6
36	0
37	2
38	6
39	174
40	33
41	642
42	118
43	760
44	24
45	13
49	1
50	5
51	10
52	6
53	53
54	22
55	265
56	155
57	999
58	44
59	17
60	0
62	0
63	2
64	0
65	10
66	5
67	49
68	30
69	116
70	132
71	754
72	43
75	0
77	7
78	2
79	9
80	2
81	13
82	25
83	79
84	104
85	34
86	2
91	2
92	0
93	2
94	0
95	3
96	4
97	31
98	12
99	2
100	0
101	0
105	0
107	1
108	0
109	2
110	11
111	45
112	200
113	33
114	1
115	0
122	0
123	0
124	0
125	2
126	12
127	4
128	0
139	0
154	11
155	1
