Mass Spectrum: 1,4-Methanonaphthalen-2-ol, 1,2,3,4-tetrahydro-, (1.alpha.,2.beta.,4.alpha.)-
Formula: C11H12O
CAS: 13153-75-8
Molecular weight: 160
m/z	intensity
27	30
28	40
39	40
44	30
50	30
51	40
62	30
63	40
65	50
75	30
77	40
89	40
91	40
114	30
115	300
116	999
117	160
118	20
127	30
128	50
129	50
130	30
131	40
141	30
142	30
160	150
161	30
