Mass Spectrum: Cycloundecene(E)
Formula: C11H20
CAS: 13151-60-5
Molecular weight: 152
m/z	intensity
25	2
26	23
27	331
28	121
29	287
30	7
31	2
37	4
38	15
39	493
40	93
41	999
42	144
43	136
44	4
45	1
46	3
47	1
50	11
51	37
52	28
53	181
54	790
55	775
56	121
57	48
58	4
63	7
64	4
65	47
66	78
67	942
68	434
69	367
70	46
71	7
73	0
75	2
76	2
77	41
78	8
79	82
80	45
81	535
82	522
83	151
84	17
85	4
91	13
92	2
93	19
94	20
95	333
96	291
97	49
98	6
105	4
106	3
107	8
108	8
109	116
110	44
111	9
119	1
122	3
123	27
124	34
125	5
135	2
137	3
152	107
153	14
