Mass Spectrum: Cyclooctane, 1,2-dimethyl-
Formula: C10H20
CAS: 13151-94-5
Molecular weight: 140
m/z	intensity
27	252
28	19
29	288
30	6
31	0
37	3
38	7
39	242
40	40
41	768
42	327
43	395
44	10
45	0
46	0
49	0
50	8
51	21
52	10
53	83
54	64
55	999
56	763
57	251
58	10
62	1
63	4
64	1
65	16
66	10
67	94
68	66
69	657
70	565
71	89
72	3
77	12
78	2
79	14
80	2
81	37
82	89
83	264
84	199
85	44
86	2
88	1
91	4
93	2
95	7
96	55
97	260
98	123
99	9
109	1
110	25
111	205
112	92
113	6
125	11
126	0
140	158
141	17
142	0
