Mass Spectrum: 1-Octene, 6-methyl-
Formula: C9H18
CAS: 13151-10-5
Molecular weight: 126
m/z	intensity
25	0
26	0
27	337
28	51
29	501
30	13
31	1
34	0
35	1
36	11
37	5
38	14
39	314
40	49
41	644
42	132
43	464
44	15
45	0
46	0
48	0
49	1
50	11
51	22
52	11
53	77
54	54
55	999
56	327
57	378
58	16
61	0
62	1
63	4
64	0
65	11
66	5
67	44
68	26
69	335
70	542
71	101
72	5
73	0
74	0
75	1
76	0
77	6
78	2
79	6
80	0
81	18
82	12
83	211
84	109
85	15
86	0
87	0
89	0
91	2
92	0
93	0
94	0
95	2
96	37
97	377
98	47
99	2
106	0
107	0
109	0
111	10
112	0
121	0
125	0
126	14
127	1
