Mass Spectrum: Cyclobutane, butyl-
Formula: C8H16
CAS: 13152-44-8
Molecular weight: 112
m/z	intensity
25	0
26	24
27	418
28	31
29	281
30	4
32	0
36	0
37	4
38	11
39	331
40	39
41	757
42	584
43	436
44	9
45	0
49	0
50	10
51	18
52	8
53	51
54	53
55	593
56	999
57	57
58	1
61	0
62	1
63	3
65	7
66	3
67	33
68	64
69	443
70	192
71	16
72	0
74	0
77	3
78	0
79	3
81	2
82	20
83	91
84	199
85	10
97	7
98	0
111	0
112	2
