Mass Spectrum: 3-Azetidinol, 1-(1,1-dimethylethyl)-
Formula: C7H15NO
CAS: 13156-04-2
Molecular weight: 129
m/z	intensity
39	170
40	10
41	360
42	190
43	110
44	10
55	60
56	60
57	999
58	60
70	570
71	60
114	600
115	50
129	110
130	10
