Mass Spectrum: Acetamide, 2-chloro-N-phenethyl-
Formula: C10H12ClNO
CAS: 13156-95-1
Molecular weight: 197
m/z	intensity
35	1
36	3
37	2
38	7
39	53
40	4
41	16
42	24
43	24
44	7
45	0
47	0
48	2
49	39
50	18
51	54
52	13
53	5
54	1
55	1
56	1
57	1
58	0
59	1
61	2
62	7
63	30
64	9
65	101
66	6
67	1
70	0
71	2
72	0
73	1
74	11
75	5
76	9
77	83
78	56
79	32
80	2
81	0
86	1
87	1
88	1
89	25
90	12
91	226
92	30
93	3
94	0
101	1
102	7
103	48
104	999
105	129
106	94
107	3
108	28
109	1
115	4
116	3
117	9
118	10
119	7
120	10
121	2
122	1
127	0
132	1
133	0
134	1
144	1
145	0
147	1
148	3
149	0
150	2
162	17
163	2
164	0
165	0
178	1
197	81
198	11
199	26
200	3
