Mass Spectrum: Pyrimidine, 4,6-dichloro-2-methyl-5-nitro-
Formula: C5H3Cl2N3O2
CAS: 13162-43-1
Molecular weight: 207
m/z	intensity
38	105
39	69
40	153
41	66
42	26
43	143
44	16
46	201
47	243
48	13
49	100
50	45
51	120
52	116
53	46
54	7
55	3
59	15
60	9
61	62
62	226
63	86
64	137
65	48
66	17
67	93
68	70
69	21
70	3
71	20
72	6
73	200
74	63
75	74
76	76
77	23
78	9
79	12
80	72
85	999
86	141
87	367
88	238
89	147
90	87
91	447
92	35
93	4
94	3
96	3
97	20
98	6
99	46
100	840
101	141
102	284
103	43
104	11
105	4
106	34
107	14
108	26
110	10
111	21
112	3
113	35
114	25
115	14
116	335
117	23
118	134
119	6
120	543
121	25
122	543
123	26
124	213
125	18
126	255
127	25
128	97
129	11
130	33
131	20
132	11
133	6
134	84
135	5
136	59
137	3
138	8
141	4
142	18
143	4
144	6
149	681
150	46
151	441
152	30
153	87
154	4
155	2
161	179
162	9
163	115
164	6
165	14
168	2
169	3
172	94
173	5
174	29
177	97
178	5
179	63
181	9
191	14
193	10
195	3
204	5
207	707
208	73
209	426
210	39
211	91
212	4
