Mass Spectrum: 1-Butanamine, N-sulfinyl-
Formula: C4H9NOS
CAS: 13165-70-3
Molecular weight: 119
m/z	intensity
27	649
29	350
30	130
39	230
41	859
42	160
43	999
50	130
55	110
70	539
71	140
75	110
76	140
77	889
