Mass Spectrum: 2-Propenoic acid, 2,3-dichloro-
Formula: C3H2Cl2O2
CAS: 13167-36-7
Molecular weight: 140
m/z	intensity
12	10
13	6
14	6
16	13
17	7
18	23
22	5
24	20
25	93
26	40
27	11
28	132
29	20
30	25
31	10
32	27
35	55
36	288
37	21
38	98
39	4
40	5
41	11
42	7
43	7
44	398
45	151
46	4
47	42
48	31
49	20
50	12
51	8
52	9
53	58
56	4
57	5
58	5
59	90
60	999
61	210
62	342
63	68
64	21
65	9
69	3
70	3
71	3
73	4
76	37
77	38
78	16
79	9
80	5
81	3
82	5
87	36
88	9
89	14
91	10
93	2
94	16
95	215
96	40
97	144
98	22
99	26
100	3
104	81
105	803
106	55
107	258
108	11
109	2
112	9
114	6
123	117
124	5
125	76
126	3
127	13
140	415
141	16
142	260
143	10
144	44
