Mass Spectrum: Cycloheptatrienylium, iodide
Formula: C7H7I
CAS: 1316-80-9
Molecular weight: 218
m/z	intensity
39	300
50	80
51	100
52	50
61	40
62	90
63	190
64	40
65	680
66	40
77	30
78	60
89	150
90	90
91	999
92	150
