Mass Spectrum: 2,4-Dodecadienal
Formula: C12H20O
CAS: 13162-47-5
Molecular weight: 180
m/z	intensity
15	2
17	4
26	7
27	100
28	19
29	143
30	4
31	6
38	4
39	96
40	23
41	264
42	43
43	204
44	6
45	5
50	4
51	16
52	13
53	62
54	60
55	149
56	67
57	48
63	5
65	34
66	43
67	161
68	68
69	57
70	84
71	11
77	35
78	14
79	63
80	27
81	999
82	110
83	169
84	29
85	8
91	26
92	8
93	18
94	23
95	100
96	61
97	21
98	42
105	9
107	17
108	13
109	40
110	18
111	12
112	13
119	13
121	9
123	46
124	16
133	11
135	5
136	12
137	28
138	9
151	11
180	30
