Mass Spectrum: 4,7-Dioxa-3,8-disiladecane, 3,3,8,8-tetraethyl-
Formula: C14H34O2Si2
CAS: 13175-68-3
Molecular weight: 290
m/z	intensity
26	10
27	16
29	37
30	1
31	33
33	1
39	1
40	0
41	4
42	0
43	22
44	7
45	43
46	3
47	43
48	2
49	1
50	0
51	5
52	12
53	2
54	0
55	8
56	6
57	47
58	80
59	465
60	90
61	24
62	1
63	1
64	1
65	7
66	59
67	15
68	0
69	1
70	1
71	7
72	6
73	92
74	139
75	57
76	3
77	14
78	1
79	3
80	53
81	9
82	0
83	4
84	1
85	21
86	34
87	999
88	349
89	54
90	2
91	46
92	4
93	7
94	4
95	0
99	2
100	0
101	21
102	36
103	36
104	3
105	43
106	6
107	3
113	2
114	6
115	798
116	107
117	76
118	6
119	54
120	7
121	6
122	0
129	6
130	1
131	20
132	2
133	49
134	9
135	4
143	0
145	6
146	1
147	46
148	7
149	4
150	0
157	0
159	10
161	227
162	37
163	15
164	1
175	9
176	2
177	1
187	3
189	531
190	91
191	44
192	6
193	1
203	1
204	0
205	1
217	209
218	44
219	21
220	2
221	0
231	2
232	0
233	2
234	0
261	481
262	89
263	36
264	6
265	1
