Mass Spectrum: 3-Heptene, 5-methyl-
Formula: C8H16
CAS: 13172-91-3
Molecular weight: 112
m/z	intensity
15	8
26	9
27	81
28	41
29	81
39	149
40	31
41	271
42	34
43	30
44	9
50	14
51	36
52	16
53	77
54	9
55	999
56	95
57	26
63	10
65	27
66	10
67	80
68	28
69	48
70	86
71	10
77	18
79	22
81	22
83	502
84	53
97	15
112	163
113	14
