Mass Spectrum: 15,17,19,21-Hexatriacontatetrayne
Formula: C36H58
CAS: 131755-24-3
Molecular weight: 490
m/z	intensity
16	2
26	9
27	89
28	12
29	237
30	4
34	4
35	6
36	25
37	4
38	11
39	83
40	17
41	598
42	109
43	999
44	37
45	7
47	9
48	3
49	6
50	5
51	17
52	8
53	55
54	72
55	715
56	244
57	692
58	33
59	16
60	20
61	7
62	4
63	16
64	4
65	33
66	18
67	489
68	87
69	476
70	217
71	263
72	15
73	25
74	20
75	18
76	14
77	89
78	27
79	286
80	73
81	475
82	138
83	371
84	138
85	135
86	24
87	22
88	11
89	28
90	8
91	343
92	66
93	245
94	65
95	369
96	88
97	243
98	93
99	37
100	19
101	29
102	25
103	44
104	40
105	262
106	62
107	185
108	39
109	135
110	35
111	106
112	58
113	39
114	21
115	170
116	57
117	232
118	67
119	229
120	74
121	297
122	65
123	63
124	32
125	61
126	88
127	88
128	173
129	361
130	112
131	376
132	84
133	194
134	76
135	133
136	26
137	39
138	20
139	96
140	35
141	270
142	122
143	270
144	91
145	236
146	63
147	108
148	31
149	50
150	21
151	46
152	157
153	166
154	116
155	313
156	96
157	235
158	68
159	166
160	53
161	99
162	24
163	31
164	21
165	251
166	125
167	261
168	113
169	311
170	96
171	263
172	82
173	118
174	38
175	56
176	16
177	25
178	93
179	116
180	67
181	258
182	104
183	276
184	80
185	158
186	56
187	67
188	20
189	37
190	16
191	41
192	35
193	70
194	42
195	203
196	74
197	195
198	66
199	100
200	32
201	45
202	18
203	26
204	11
205	30
206	21
207	53
208	34
209	197
210	68
211	141
212	42
213	64
214	21
215	32
216	12
217	27
218	50
219	31
220	28
221	38
222	24
223	158
224	57
225	100
226	29
227	42
228	18
229	35
230	15
231	29
232	15
233	16
234	6
235	24
236	15
237	136
238	49
239	56
240	22
241	36
242	30
243	37
244	17
245	18
246	6
247	6
248	3
249	13
250	11
251	98
252	38
253	42
254	15
255	38
256	18
257	28
258	9
259	9
260	4
261	3
263	9
264	9
265	79
266	31
267	40
268	16
269	44
270	16
271	19
272	6
273	7
275	3
277	8
278	9
279	51
280	23
281	72
282	29
283	35
284	13
285	12
286	3
287	4
291	6
292	7
293	80
294	28
295	32
296	12
297	21
298	9
299	9
300	3
301	4
305	4
306	5
307	58
308	34
309	52
310	29
311	21
312	10
313	9
314	4
315	3
320	4
321	35
322	18
323	31
324	13
325	18
326	7
327	6
334	5
335	31
336	16
337	32
338	14
339	13
340	5
341	5
347	3
348	5
349	118
350	66
351	46
352	16
353	11
354	5
355	5
356	3
362	4
363	84
364	42
365	28
366	8
367	8
368	3
369	8
375	3
377	143
378	67
379	29
380	8
381	7
382	3
383	4
390	3
391	134
392	52
393	21
394	6
395	10
396	4
404	3
405	98
406	38
407	17
408	9
409	16
410	6
419	76
420	29
421	16
422	6
423	4
433	41
434	13
435	8
447	29
448	10
449	19
450	6
461	25
462	12
463	5
475	9
476	3
488	5
489	18
490	272
491	109
492	27
493	6
