Mass Spectrum: 1,7-Octanediol
Formula: C8H18O2
CAS: 13175-32-1
Molecular weight: 146
m/z	intensity
26	3
27	80
28	16
29	98
30	3
31	119
33	0
38	0
39	46
41	324
42	212
43	178
44	63
45	985
46	25
47	3
49	2
50	0
51	2
52	1
53	21
54	44
55	330
56	999
57	140
58	39
59	13
60	4
61	0
62	3
63	85
64	2
65	4
66	16
67	140
68	211
69	398
70	62
71	165
72	15
73	28
74	2
75	22
76	1
77	2
78	0
79	7
80	5
81	103
82	130
83	49
84	459
85	83
86	25
87	12
88	2
89	0
91	1
92	0
93	7
94	1
95	259
96	24
97	5
98	21
99	18
100	10
101	7
102	20
103	3
104	0
105	0
107	0
109	12
110	20
111	5
112	0
113	44
114	4
115	0
116	12
117	2
118	0
120	0
124	1
125	0
127	7
128	2
129	5
131	31
132	2
133	0
145	1
147	1
