Mass Spectrum: Phosphonous difluoride, (pentafluorophenyl)-
Formula: C6F7P
CAS: 13175-72-9
Molecular weight: 236
m/z	intensity
31	45
50	17
69	999
79	95
81	30
88	14
93	62
98	168
99	24
110	25
117	172
129	135
148	470
149	33
167	20
168	31
198	2
217	104
236	910
237	63
