Mass Spectrum: 1,3,4-Thiadiazol-2-amine, 5-(4-bromophenyl)-
Formula: C8H6BrN3S
CAS: 13178-12-6
Molecular weight: 255
m/z	intensity
33	7
34	3
36	4
37	23
38	32
39	31
40	7
41	8
42	25
43	8
44	11
45	27
46	6
47	36
48	5
49	22
50	119
51	54
52	10
53	1
54	0
55	0
56	1
57	5
58	8
59	22
60	111
61	25
62	56
63	49
64	12
65	2
66	1
67	1
69	63
70	15
71	4
74	999
75	131
76	128
77	12
78	2
79	4
80	6
81	10
82	10
83	3
84	4
85	9
86	16
87	20
88	37
89	50
90	43
91	4
92	5
93	30
94	28
95	3
96	1
97	0
98	1
99	7
100	7
102	93
103	17
104	4
105	2
106	3
107	10
108	3
109	0
110	0
111	0
112	0
113	0
114	1
115	2
116	3
117	19
119	33
120	150
121	15
122	7
123	1
125	0
128	9
129	11
130	1
131	2
132	2
133	10
134	50
135	5
136	2
137	0
138	1
139	0
140	0
141	1
142	0
143	1
144	0
145	0
146	0
147	0
148	0
149	0
150	0
152	0
153	0
155	27
156	3
157	23
158	2
159	0
160	0
162	0
163	0
164	1
165	0
167	8
168	2
169	12
170	2
171	5
172	0
173	0
175	0
176	1
177	1
178	0
181	27
182	85
183	32
184	81
185	10
186	0
187	0
188	0
190	0
191	0
194	0
196	19
197	3
198	21
199	58
200	8
201	57
202	4
203	2
204	0
205	0
211	3
213	22
214	3
215	19
216	1
217	0
239	1
240	0
241	1
242	0
243	1
244	0
245	1
246	0
252	4
255	258
256	35
257	233
258	25
259	10
260	1
