Mass Spectrum: Imidazole-2-carboxanilide, 1-benzyl-
Formula: C17H15N3O
CAS: 13189-14-5
Molecular weight: 277
m/z	intensity
37	10
38	10
39	46
40	15
41	24
42	12
43	12
44	12
50	10
51	49
52	15
54	17
55	22
57	20
63	24
64	27
65	210
66	12
67	10
68	44
69	12
71	10
76	12
77	73
78	24
79	12
89	49
90	24
91	999
92	86
93	61
94	20
95	49
96	12
97	12
102	12
103	29
104	29
106	12
111	12
115	12
116	27
117	12
119	34
125	15
128	15
129	24
130	76
131	20
144	10
155	34
156	98
157	878
158	218
159	22
165	17
166	51
167	122
168	12
170	12
171	15
182	367
183	73
184	98
185	76
186	34
233	17
234	44
235	12
248	29
249	61
250	12
260	73
261	7
276	100
277	829
278	193
279	17
