Mass Spectrum: 3-Hydroxy-6-(propionyloxy)tropane
Formula: C11H19NO3
CAS: 131840-11-4
Molecular weight: 213
m/z	intensity
29	27
32	6
33	3
39	22
41	44
42	82
43	73
44	66
45	20
51	15
52	11
53	11
54	23
55	57
56	31
57	184
58	26
59	15
62	10
67	19
68	52
69	56
70	70
71	13
75	20
76	10
77	34
80	22
81	69
82	90
83	42
84	32
86	33
94	198
95	39
96	392
97	44
98	44
99	17
100	9
101	10
102	14
105	9
107	13
109	14
110	31
111	10
112	160
113	999
114	135
120	6
122	129
123	26
124	11
138	52
139	16
140	71
141	8
146	5
156	23
157	17
165	11
166	12
167	13
168	6
180	19
194	5
195	11
196	13
197	3
211	3
212	5
213	175
214	19
215	5
