Mass Spectrum: Valeraldehyde, semicarbazone
Formula: C6H13N3O
CAS: 13183-22-7
Molecular weight: 143
m/z	intensity
41	310
42	70
43	250
44	290
45	40
51	10
52	10
53	20
54	50
55	80
56	50
57	290
58	999
59	40
60	390
61	170
67	20
68	20
69	40
70	10
71	280
72	30
74	10
82	20
83	10
84	210
85	50
86	90
97	30
99	20
100	40
101	830
102	40
114	50
115	30
143	90
144	30
