Mass Spectrum: 1-(6,6-Dimethyltetrahydropyran-2-yl)propan-2-one
Formula: C10H18O2
CAS: 13183-53-4
Molecular weight: 170
m/z	intensity
26	3
27	48
28	12
29	48
31	17
38	2
39	68
40	15
41	184
42	25
43	999
44	30
45	12
50	2
51	6
52	2
53	23
54	17
55	79
56	262
57	43
58	132
59	203
60	6
61	2
65	5
66	2
67	28
68	23
69	120
70	18
71	32
72	10
73	2
77	7
79	21
80	2
81	15
82	15
83	32
84	40
85	32
86	4
87	34
91	4
93	28
94	61
95	154
96	15
97	117
98	11
99	27
100	254
101	75
102	4
104	3
105	4
106	3
107	2
108	20
110	5
111	9
112	62
113	142
114	15
115	2
116	2
119	2
123	3
127	13
128	21
129	3
137	9
139	3
141	35
142	4
152	64
153	8
155	70
156	7
170	16
171	3
