Mass Spectrum: Carbonic acid, 4-methylphenyl phenyl ester
Formula: C14H12O3
CAS: 13183-20-5
Molecular weight: 228
m/z	intensity
41	10
44	40
50	30
51	150
52	20
53	20
63	40
64	20
65	220
66	20
77	480
78	90
79	50
89	30
90	20
91	999
92	70
94	20
107	90
108	130
115	30
128	20
129	20
141	90
153	30
155	70
156	70
165	20
168	20
169	40
182	30
183	150
184	380
185	60
228	670
229	110
230	30
