Mass Spectrum: Sydnone, 4-bromo-3-phenyl-
Formula: C8H5BrN2O2
CAS: 13183-09-0
Molecular weight: 240
m/z	intensity
39	80
44	60
50	160
51	270
52	50
63	40
64	30
74	40
75	60
76	230
77	999
78	70
91	60
92	60
101	20
102	50
103	410
104	30
182	480
183	50
184	480
185	50
240	120
241	10
242	120
243	10
