Mass Spectrum: Carbonic acid, sec-butyl phenyl ester
Formula: C11H14O3
CAS: 13183-17-0
Molecular weight: 194
m/z	intensity
41	290
42	10
43	20
44	50
50	30
51	70
52	10
53	10
54	10
55	40
56	30
57	440
58	10
63	20
64	10
65	100
66	40
77	200
78	20
79	20
82	20
93	20
94	999
95	70
100	1
101	1
103	4
105	1
107	15
110	8
111	6
112	3
115	1
117	2
118	8
119	1
121	66
122	9
135	10
136	1
149	1
150	5
165	8
166	1
179	3
194	3
