Mass Spectrum: Carbonic acid, phenyl propyl ester
Formula: C10H12O3
CAS: 13183-16-9
Molecular weight: 180
m/z	intensity
26	5
27	31
28	1
29	9
36	2
37	3
38	8
39	53
40	10
41	63
42	9
43	91
44	21
50	10
51	27
52	3
55	6
62	4
63	12
64	5
65	61
66	48
67	2
74	3
75	2
76	3
77	98
78	10
79	8
91	2
93	9
94	999
95	64
96	3
107	5
121	15
136	4
180	12
