Mass Spectrum: 6-Hydroxyapoatropine
Formula: C17H21NO3
CAS: 131899-21-3
Molecular weight: 287
m/z	intensity
27	2
29	2
30	3
32	2
38	1
39	7
41	11
42	73
43	11
44	20
45	2
50	5
51	20
52	5
53	9
54	9
55	24
56	11
57	16
58	20
60	3
63	5
64	1
65	4
66	2
68	8
70	10
72	9
73	12
74	3
75	4
76	9
77	98
78	10
80	8
81	18
84	18
85	3
86	2
89	3
94	999
95	735
96	75
97	8
98	22
99	12
101	4
102	30
103	184
104	12
107	6
108	7
109	10
110	47
111	6
112	50
113	3
122	44
132	3
133	2
139	16
140	260
141	25
142	3
148	7
150	2
151	2
152	2
156	15
157	4
158	2
230	1
241	1
242	4
243	109
244	17
245	2
257	1
258	2
287	162
288	32
289	8
