Mass Spectrum: 1,3,4-Thiadiazole, 2,3-dihydro-2,3,5-triphenyl-
Formula: C20H16N2S
CAS: 13187-62-7
Molecular weight: 316
m/z	intensity
91	999
92	84
103	105
104	768
105	78
121	57
122	26
180	94
181	52
194	271
195	39
207	205
208	31
239	281
240	52
315	26
316	657
317	189
318	52
