Mass Spectrum: .alpha.-Benzoylthioacetic acid anilide
Formula: C15H13NOS
CAS: 13196-40-2
Molecular weight: 255
m/z	intensity
33	10
34	2
36	2
37	6
39	97
40	19
41	10
42	5
43	6
45	33
46	3
47	3
50	86
51	256
52	22
53	7
54	2
55	1
57	11
58	18
59	4
60	2
61	4
62	10
63	28
65	89
66	21
67	3
68	7
69	11
70	2
71	2
72	1
74	27
75	25
77	705
78	76
79	9
81	1
82	4
83	2
85	56
87	6
89	31
90	16
91	37
93	193
94	9
95	1
96	1
97	1
98	0
99	0
100	1
101	3
102	9
105	999
106	66
107	8
109	44
110	41
111	4
112	3
114	0
117	72
118	39
120	40
121	9
122	2
123	5
124	0
125	0
126	0
128	5
129	1
130	0
131	0
133	3
134	5
135	21
136	12
137	2
138	1
139	0
140	0
141	0
144	21
145	4
146	6
148	10
149	46
150	27
151	5
152	3
153	0
159	0
160	0
161	1
163	28
164	3
165	3
166	0
167	0
168	0
171	0
176	6
177	1
178	2
179	0
180	0
181	0
184	0
190	0
191	0
192	0
193	1
194	2
195	0
197	0
202	0
204	3
205	0
210	0
212	0
213	0
220	10
222	262
223	39
224	3
226	7
227	17
228	2
229	0
234	0
235	0
236	4
237	0
238	1
239	1
252	8
254	161
255	345
256	58
257	20
258	2
259	0
