Mass Spectrum: Boric acid, tris(2-methylpropyl) ester
Formula: C12H27BO3
CAS: 13195-76-1
Molecular weight: 230
m/z	intensity
41	141
42	40
43	70
44	10
45	20
55	40
56	121
57	999
58	40
59	10
69	10
72	10
73	20
74	10
87	10
89	10
100	30
101	111
102	10
103	10
112	10
115	10
116	30
117	70
118	10
119	20
130	60
131	262
132	10
133	10
156	10
157	30
159	10
173	10
174	10
187	10
215	10
230	10
