Mass Spectrum: 2-Bromo-5-nitrothiophene
Formula: C4H2BrNO2S
CAS: 13195-50-1
Molecular weight: 207
m/z	intensity
12	1
16	3
24	2
25	10
26	13
27	2
29	1
30	130
32	24
33	2
34	1
36	21
37	134
38	250
39	12
41	8
42	1
44	42
45	170
46	28
47	8
48	11
49	41
50	35
51	15
52	26
53	10
54	1
55	2
56	27
57	197
58	15
59	9
60	1
62	5
63	7
64	8
67	1
68	39
69	182
70	161
71	15
72	7
73	1
76	1
78	1
79	20
80	72
81	360
82	999
83	69
84	60
85	4
86	3
91	8
92	1
93	8
94	22
95	3
96	26
97	3
98	127
99	6
100	6
103	1
104	10
105	7
106	10
107	6
110	1
111	6
112	146
113	11
114	6
115	3
116	11
117	261
118	19
119	252
120	8
123	34
125	36
127	2
128	4
129	1
130	3
131	2
133	14
135	22
136	2
137	11
138	1
149	567
150	24
151	552
152	21
153	24
159	1
160	3
161	41
162	5
163	39
164	2
165	2
177	74
178	4
179	77
180	3
181	3
191	18
192	1
193	18
194	1
207	341
208	20
209	338
210	18
211	16
