Mass Spectrum: Benzene, 1,2-bis(dibromomethyl)-
Formula: C8H6Br4
CAS: 13209-15-9
Molecular weight: 418
m/z	intensity
26	9
27	17
31	6
35	2
36	32
37	20
38	62
39	64
40	21
41	6
43	5
44	11
45	1
49	29
50	294
51	510
52	101
53	2
55	1
56	1
57	7
60	0
61	35
62	80
63	119
64	4
67	0
69	0
70	0
73	26
74	148
75	252
76	244
77	50
78	5
79	31
80	51
81	30
82	55
83	0
85	2
86	6
87	17
88	1
89	11
90	67
91	152
92	78
96	3
97	7
98	30
99	14
100	13
101	210
102	999
103	145
104	7
105	2
115	2
117	3
118	0
119	6
128	2
129	2
130	58
131	106
132	41
133	0
134	11
141	0
142	0
143	1
155	0
160	0
165	0
170	3
171	5
172	0
180	31
181	537
182	89
183	524
184	58
191	4
203	0
207	12
208	2
209	0
259	2
260	137
261	29
262	269
263	53
264	124
265	22
339	213
340	12
341	617
342	56
343	569
344	53
345	198
346	15
