Mass Spectrum: L-Phenylalanine, N-formyl-
Formula: C10H11NO3
CAS: 13200-85-6
Molecular weight: 193
m/z	intensity
14	2
15	5
16	2
17	5
18	22
26	2
27	14
28	105
29	23
30	8
31	1
37	2
38	9
39	62
40	7
41	17
42	19
43	13
44	13
45	8
46	28
49	1
50	19
51	48
52	12
53	6
54	2
55	3
56	2
57	3
58	3
59	7
60	13
61	4
62	9
63	29
64	9
65	123
66	9
67	2
69	3
70	1
71	3
73	2
74	28
75	6
76	6
77	57
78	20
79	9
80	3
81	1
83	1
85	2
86	2
87	1
89	19
90	11
91	999
92	100
93	15
94	1
101	3
102	21
103	68
104	28
105	9
106	1
107	6
111	1
116	2
117	10
118	25
119	16
120	77
121	7
128	3
130	15
131	27
132	2
146	6
147	217
148	619
149	66
150	7
175	9
193	26
194	4
