Mass Spectrum: Benzoic acid, 4-(1,1-dimethylethoxy)-
Formula: C11H14O3
CAS: 13205-47-5
Molecular weight: 194
m/z	intensity
40	88
41	999
42	50
43	125
44	75
45	25
50	50
51	88
53	100
54	25
55	263
56	475
57	488
58	125
59	100
60	75
61	25
62	25
63	38
64	25
65	100
66	25
67	38
68	25
69	100
70	63
71	125
72	63
73	63
74	63
75	25
76	63
77	75
78	125
79	88
80	13
81	63
82	50
83	88
84	75
85	88
86	25
87	25
88	38
89	38
90	38
91	200
92	88
93	88
94	88
95	75
96	13
97	50
98	50
99	50
100	63
101	13
102	25
103	13
104	25
105	50
106	25
107	25
108	50
109	25
110	25
111	25
112	25
113	113
114	25
115	25
116	25
117	13
118	25
119	13
121	275
122	75
123	50
124	63
125	50
128	63
129	50
130	50
132	113
135	75
137	75
138	638
139	125
140	63
167	88
179	125
194	38
