Mass Spectrum: N-Formyl-L-tyrosine
Formula: C10H11NO4
CAS: 13200-86-7
Molecular weight: 209
m/z	intensity
15	3
17	3
18	11
26	2
27	19
28	40
29	19
30	5
31	1
37	1
38	5
39	33
40	4
41	6
42	7
43	8
44	8
45	6
46	10
50	9
51	28
52	15
53	23
54	3
55	12
57	2
58	2
59	3
61	2
62	5
63	12
64	4
65	20
66	4
67	6
68	13
69	2
70	1
74	6
75	3
76	2
77	109
78	26
79	19
80	4
81	5
82	1
85	2
89	7
90	5
91	40
92	4
93	1
94	13
95	3
101	1
102	1
103	2
104	1
105	5
106	8
107	999
108	84
109	7
114	1
115	1
116	2
117	3
118	16
119	14
120	9
121	4
122	1
123	3
132	1
133	5
134	7
135	9
136	12
137	1
145	1
146	5
147	28
148	3
162	2
163	33
164	433
165	42
166	5
191	7
192	7
209	13
210	1
