Mass Spectrum: 2-Piperidinone, 6-(1-methylethenyl)-3-(1-methylethylidene)-1-phenyl-
Formula: C17H21NO
CAS: 132034-27-6
Molecular weight: 255
m/z	intensity
25	1
26	7
27	158
28	57
29	85
30	11
31	1
34	0
37	3
38	16
39	330
40	96
41	451
42	66
43	42
44	3
45	1
50	29
51	223
52	51
53	260
54	47
55	123
56	11
57	3
58	1
61	0
62	4
63	33
64	43
65	119
66	50
67	566
68	999
69	92
70	5
71	4
72	1
73	1
74	4
75	9
76	38
77	698
78	83
79	164
80	61
81	128
82	45
83	29
84	4
85	6
86	0
87	0
89	11
90	14
91	223
92	116
93	679
94	161
95	318
96	31
97	7
98	18
99	3
101	2
102	6
103	25
104	161
105	60
106	70
107	180
108	107
109	16
110	5
111	2
113	1
115	28
116	14
117	80
118	99
119	369
120	68
121	144
122	56
123	8
124	3
125	1
126	1
127	9
128	24
129	19
130	122
131	51
132	120
133	34
134	37
135	63
136	18
137	2
138	1
139	1
140	2
141	5
142	15
143	42
144	223
145	66
146	177
147	107
148	54
149	8
150	65
151	55
152	7
153	3
154	5
155	4
156	18
157	15
158	71
159	18
160	11
161	22
162	36
163	17
164	40
165	5
166	1
167	4
168	8
169	3
170	26
171	12
172	83
173	100
174	40
175	7
176	1
177	0
179	1
180	1
181	1
182	4
183	4
184	26
185	8
186	75
187	18
188	3
193	0
194	1
195	1
196	3
197	1
198	19
199	16
200	12
201	3
202	0
206	0
209	1
210	2
211	4
212	27
213	18
214	31
215	7
216	1
220	0
222	1
223	1
224	1
225	2
226	80
227	129
228	14
229	3
236	1
238	0
240	23
241	6
242	1
250	1
251	0
252	3
254	100
255	138
256	24
257	2
