Mass Spectrum: 24-Methyl-5,28-stigmastadien-3.beta.-ol
Formula: C30H50O
CAS: 132072-04-9
Molecular weight: 426
m/z	intensity
41	534
42	48
43	546
53	120
54	19
55	999
57	401
58	27
65	59
66	30
67	744
68	171
69	852
70	265
71	156
77	202
78	53
79	779
80	94
81	802
82	126
83	434
84	37
85	61
91	565
92	132
93	647
94	165
95	573
96	124
97	478
98	198
99	211
100	20
103	39
104	37
105	666
106	151
107	581
108	192
109	705
110	118
111	160
112	20
115	46
116	28
117	179
118	102
119	424
120	178
121	300
122	75
123	194
124	61
125	59
126	11
127	18
128	50
129	120
130	50
131	243
132	75
133	432
134	109
135	223
136	41
137	81
138	26
139	14
141	32
142	36
143	204
144	75
145	401
146	98
147	279
148	67
149	112
150	30
151	158
152	51
153	194
154	25
155	38
156	26
157	164
158	137
159	344
160	142
161	217
162	67
163	220
164	42
165	31
169	36
170	15
171	128
172	45
173	161
174	48
175	103
176	48
177	75
178	55
179	20
180	14
183	31
184	13
185	102
186	41
187	107
188	32
189	66
190	17
191	30
192	11
197	58
198	18
199	127
200	33
201	63
202	27
203	48
204	13
205	16
211	84
212	25
213	217
214	79
215	84
216	23
217	50
218	15
219	15
225	28
226	13
227	75
228	62
229	164
230	58
231	174
232	55
233	20
239	48
240	20
241	97
242	24
243	34
244	20
245	55
246	50
247	15
253	89
254	47
255	234
256	87
257	62
258	65
259	42
260	12
267	20
269	27
270	114
271	562
272	195
273	126
274	78
275	13
281	140
282	34
283	40
285	30
286	14
287	20
295	31
296	57
297	28
298	13
299	282
300	120
301	33
309	13
310	42
311	18
312	15
313	37
314	496
315	156
316	26
323	13
327	11
328	467
329	125
330	18
341	108
342	31
365	233
366	90
367	36
369	12
383	138
384	48
393	126
394	37
408	158
409	59
410	19
411	169
412	48
413	11
424	19
425	12
426	717
427	253
428	45
