Mass Spectrum: 2-Cyanmethyl-8-cyan-6.7-pentamethylen-1.2.4-triazolo[1.5-a]pyridin
Formula: C14H13N5
CAS: 132012-02-3
Molecular weight: 251
m/z	intensity
12	13
13	10
14	33
15	234
16	11
17	10
18	30
19	2
24	2
26	208
27	891
28	678
29	635
30	22
31	5
32	2
37	43
38	171
39	999
40	476
41	824
42	222
43	22
44	13
45	5
46	1
50	168
51	383
52	290
53	206
54	96
55	211
56	17
57	6
58	1
61	38
62	134
63	262
64	214
65	224
66	120
67	197
68	88
69	7
70	5
72	1
73	5
74	37
75	198
76	341
77	242
78	108
79	58
80	18
81	7
82	5
83	4
84	4
85	5
86	15
87	52
88	144
89	210
90	145
91	94
92	30
93	9
94	18
95	2
97	8
99	29
100	62
101	114
102	208
103	166
104	86
105	36
106	7
107	2
108	2
109	5
111	14
112	15
113	35
114	137
115	160
116	228
117	122
118	31
119	6
120	4
121	1
122	3
123	2
125	9
126	28
127	85
128	115
129	174
130	126
131	38
132	9
133	4
134	1
135	1
137	1
138	4
139	13
140	73
141	189
142	83
143	84
144	34
145	14
146	3
147	2
151	2
152	9
153	41
154	50
155	65
156	64
157	55
158	31
159	9
160	3
164	1
165	7
166	10
167	25
168	31
169	35
170	53
171	16
172	8
173	4
178	1
179	3
180	12
181	20
182	33
183	45
184	80
185	32
186	8
192	2
193	2
194	19
195	85
196	57
197	122
198	24
199	3
207	6
209	401
210	237
211	67
212	7
219	1
220	15
221	22
222	139
223	87
224	31
225	25
226	7
227	1
233	3
234	13
235	9
236	87
237	14
247	0
248	3
250	95
251	837
252	156
253	16
254	1
