Mass Spectrum: 1-Azabicyclo[2.2.2]octane, 2,6-dimethyl-, (1.alpha.,2.alpha.,4.alpha.,6.alpha.)-
Formula: C9H17N
CAS: 13218-09-2
Molecular weight: 139
m/z	intensity
41	313
42	219
43	31
55	219
56	999
57	63
68	78
69	234
70	469
71	63
82	78
83	47
84	23
85	16
96	422
97	234
98	125
110	94
111	172
124	281
138	47
139	297
