Mass Spectrum: Cyclooctane, methoxy-
Formula: C9H18O
CAS: 13213-32-6
Molecular weight: 142
m/z	intensity
26	5
27	62
28	13
29	60
30	2
31	8
33	3
37	0
38	2
39	65
40	11
41	203
42	30
43	44
44	2
45	67
46	1
47	0
50	1
51	4
52	2
53	27
54	31
55	68
56	13
57	14
58	166
59	20
60	1
62	0
63	0
64	0
65	7
66	23
67	98
68	81
69	44
70	5
71	999
72	43
73	4
74	5
75	0
77	4
78	1
79	11
80	7
81	86
82	99
83	11
84	5
85	68
86	7
87	3
88	0
91	1
93	1
94	0
95	39
96	2
97	4
98	5
99	67
100	11
101	1
103	0
107	0
108	0
109	3
110	86
111	11
112	1
113	30
114	4
115	0
125	0
126	0
127	2
141	2
142	15
143	1
