Mass Spectrum: 1,2,5-Oxasilaborolane, 4,4,5-triethyl-2,2,3-trimethyl-
Formula: C11H25BOSi
CAS: 132125-63-4
Molecular weight: 212
m/z	intensity
26	1
27	17
29	28
30	0
31	34
37	1
39	13
40	2
41	55
42	4
43	139
44	23
45	66
46	4
47	3
50	5
51	3
52	1
53	14
54	5
55	53
56	9
57	26
58	194
59	501
60	42
61	15
62	1
63	2
65	2
66	2
67	28
68	9
69	30
70	29
71	78
72	71
73	234
74	24
75	11
77	3
79	4
80	1
81	22
82	3
83	42
84	37
85	217
86	365
87	387
88	43
89	13
93	1
95	10
96	81
97	41
98	17
99	132
100	63
101	20
102	3
109	6
110	1
111	24
112	10
113	175
114	652
115	999
116	111
117	36
118	1
123	2
125	17
126	6
127	101
128	16
129	5
138	1
139	9
140	5
141	359
142	81
143	20
144	2
153	2
154	2
155	32
156	34
157	5
167	2
169	1
182	217
183	872
184	128
185	39
186	4
196	8
197	33
198	5
199	1
211	2
212	7
213	1
