Mass Spectrum: 2-Propanone, 1-phenyl-, oxime
Formula: C9H11NO
CAS: 13213-36-0
Molecular weight: 149
m/z	intensity
39	170
41	120
50	50
51	120
58	230
63	90
65	250
77	70
89	110
90	260
91	999
92	280
105	70
116	400
117	250
130	120
131	250
132	190
148	120
149	700
150	70
