Mass Spectrum: Tris(2-bromoethyl) phosphite
Formula: C6H12Br3O3P
CAS: 13214-59-0
Molecular weight: 400
m/z	intensity
13	1
14	9
15	23
16	3
17	5
18	27
19	5
20	1
24	1
25	9
26	81
27	706
28	144
29	29
30	4
31	67
32	37
36	4
37	2
38	3
39	14
40	5
41	9
42	10
43	47
44	32
45	101
46	2
47	58
48	6
49	3
50	10
51	13
52	15
53	4
54	2
55	6
56	5
57	6
58	2
59	2
60	3
61	2
62	3
63	10
64	3
65	42
66	1
67	1
69	3
70	5
71	15
72	2
73	2
74	8
75	4
76	4
77	17
78	96
79	17
80	17
81	40
82	16
83	27
84	1
85	1
89	2
91	88
92	4
93	36
94	10
95	37
96	6
97	7
99	19
104	4
105	16
106	60
107	999
108	73
109	944
110	20
111	1
112	1
117	3
119	1
121	4
122	1
123	5
124	5
125	45
126	5
127	3
129	1
133	16
134	2
135	68
136	4
137	9
138	1
139	1
140	1
141	1
143	9
145	10
149	3
151	65
152	3
153	6
154	3
155	2
156	2
158	1
160	2
161	3
162	1
163	3
167	2
169	1
170	2
171	38
172	3
173	37
185	1
186	10
187	11
188	22
189	39
190	11
191	25
192	1
197	42
198	2
199	39
200	2
201	2
203	2
205	3
207	2
213	2
215	93
216	5
217	84
218	5
219	1
227	1
229	2
231	4
233	5
235	3
241	86
242	6
243	80
244	6
245	2
249	7
251	12
253	7
267	1
269	1
277	21
278	1
279	32
280	2
281	15
293	7
294	3
295	20
296	6
297	24
298	4
299	9
309	1
311	3
313	4
315	2
321	61
322	4
323	123
324	9
325	62
326	5
