Mass Spectrum: 1-Azabicyclo[2.2.2]octane, 2,6-dimethyl-, (1.alpha.,2.beta.,4.alpha.,6.beta.)-
Formula: C9H17N
CAS: 13218-10-5
Molecular weight: 139
m/z	intensity
41	295
42	213
43	33
55	197
56	999
57	82
68	82
69	180
70	492
71	82
82	82
83	49
84	25
85	16
96	393
97	230
98	98
110	74
111	66
124	361
138	41
139	295
