Mass Spectrum: Bicyclo[2.2.1]heptan-2-one, 3,3-dimethyl-
Formula: C9H14O
CAS: 13211-15-9
Molecular weight: 138
m/z	intensity
25	5
26	50
27	263
28	78
29	125
30	7
31	8
33	2
34	1
35	1
36	4
37	31
38	82
39	409
40	84
41	724
42	138
43	137
44	16
45	17
46	6
47	3
48	2
49	8
50	51
51	96
52	43
53	142
54	85
55	165
56	50
57	27
58	13
59	5
60	5
61	9
62	16
63	31
64	8
65	80
66	305
67	814
68	151
69	999
70	138
71	17
72	189
73	20
74	7
75	7
76	3
77	76
78	21
79	79
80	25
81	135
82	57
83	32
84	5
85	28
86	4
87	2
88	4
89	3
90	2
91	36
92	7
93	30
94	32
95	157
96	59
97	33
98	4
99	2
102	2
103	2
104	2
105	9
106	5
107	15
108	9
109	37
110	130
111	15
112	2
120	6
121	2
122	2
123	55
124	4
137	3
138	285
139	57
140	5
