Mass Spectrum: 1-Oxa-2-sila-5-boracyclopentane, 4,4,5-triethyl-2,2,3-trimethyl-3-(trimethylstannyl)-
Formula: C14H33BOSiSn
CAS: 132125-64-5
Molecular weight: 376
m/z	intensity
27	6
28	2
29	9
30	0
31	11
34	3
39	3
40	1
41	12
42	1
43	33
44	8
45	41
46	3
47	2
51	1
53	5
54	2
55	16
56	2
57	8
58	31
59	237
60	17
61	9
63	4
64	1
65	1
67	6
68	1
69	12
70	4
71	14
72	8
73	999
74	73
75	38
76	2
77	2
78	1
79	2
81	4
82	2
83	24
84	4
85	29
86	13
87	140
88	14
89	5
93	1
95	8
96	2
97	29
98	5
99	116
100	14
101	19
102	2
103	1
104	1
109	4
110	1
111	16
112	3
113	43
114	15
115	27
116	3
117	4
118	6
119	6
120	7
121	6
122	1
123	3
124	2
125	10
126	5
127	16
128	9
129	22
130	4
131	28
132	14
133	45
134	16
135	64
136	9
137	10
138	2
139	19
140	4
141	9
142	9
143	22
144	5
145	3
146	10
147	10
148	14
149	13
150	16
151	7
152	3
153	4
154	8
155	308
156	43
157	14
158	2
159	5
160	4
161	71
162	42
163	121
164	47
165	162
166	6
167	22
168	2
169	81
170	12
171	4
173	1
174	1
175	3
176	2
177	5
178	2
179	5
181	3
182	2
183	1
184	0
185	3
186	1
187	1
189	3
190	1
191	4
192	2
193	5
194	1
195	2
196	1
197	3
203	2
204	1
205	4
206	2
207	5
208	2
209	6
210	121
211	539
212	85
213	23
214	2
215	3
216	1
217	3
219	1
221	2
223	1
225	0
226	0
227	1
228	0
235	1
237	1
239	1
245	1
247	1
275	1
287	1
289	2
290	1
291	1
293	1
301	3
302	2
303	6
304	3
305	7
307	1
309	1
317	1
318	1
319	1
320	1
321	1
342	2
343	10
344	10
345	17
346	13
347	20
348	4
349	4
350	1
351	3
356	3
357	10
358	10
359	17
360	13
361	21
362	4
363	3
364	1
365	3
