Mass Spectrum: 2-Vinyl-9-[3-deoxy-.beta.-d-ribofuranosyl]hypoxanthine
Formula: C12H14N4O4
CAS: 132121-65-4
Molecular weight: 278
m/z	intensity
41	387
42	509
43	482
44	316
45	94
46	11
47	204
48	3
49	6
50	10
51	13
52	10
53	43
54	46
55	161
56	59
57	999
58	130
59	24
60	47
61	14
63	3
64	7
65	7
66	7
67	22
68	46
69	274
70	256
71	116
72	19
73	58
74	15
75	17
77	9
78	7
79	9
80	5
81	41
82	59
83	61
84	160
85	456
86	87
87	33
88	12
89	4
91	8
92	3
93	6
94	9
95	15
96	18
97	58
98	76
99	90
100	27
101	16
103	7
105	6
106	5
107	7
108	6
109	15
110	14
111	27
112	15
113	7
114	6
115	12
116	227
117	48
118	5
119	7
121	6
122	3
123	7
124	10
125	14
126	8
127	10
128	10
129	13
131	16
135	6
136	8
137	5
138	6
139	7
140	5
141	5
143	6
145	29
146	1
147	1
149	8
150	6
152	4
153	3
154	3
155	2
157	3
158	3
161	7
162	26
163	9
164	5
165	4
168	2
169	3
171	6
178	1
183	10
185	6
196	6
201	25
202	3
219	26
224	9
260	8
261	3
278	8
279	7
