Mass Spectrum: 8-Oxatetracyclo[5.2.1.1(2,6).1(4,10)]dodecane, 7-tert-butyl-1,9,9-trimethyl-
Formula: C18H30O
CAS: 132156-55-9
Molecular weight: 262
m/z	intensity
38	4
39	164
41	853
42	55
43	569
44	19
45	119
46	2
47	2
48	1
49	1
50	20
51	59
52	18
53	137
54	27
55	382
56	44
57	999
58	51
59	49
60	6
61	1
62	1
63	9
64	5
65	84
66	32
67	215
68	25
69	202
70	82
71	93
72	9
73	10
74	2
75	4
76	3
77	167
78	44
79	341
80	70
81	196
82	25
83	107
84	13
85	44
86	5
87	3
88	1
89	4
90	1
91	278
92	139
93	246
94	103
95	151
96	30
97	49
98	6
99	5
100	0
101	0
102	1
103	13
104	15
105	184
106	106
107	129
108	38
109	61
110	22
111	17
112	8
113	3
115	12
116	8
117	33
118	12
119	89
120	39
121	81
122	21
123	20
124	5
125	6
126	1
127	2
128	5
129	7
130	3
131	79
132	15
133	83
134	20
135	43
136	9
137	8
138	2
139	0
141	1
142	1
143	2
144	1
145	58
146	15
147	66
148	121
149	40
150	7
151	3
152	1
153	2
157	0
158	0
159	14
160	9
161	79
162	15
163	25
164	7
165	2
167	1
171	2
173	23
174	3
175	16
176	3
177	14
178	2
181	0
185	0
186	0
187	70
188	100
189	72
190	18
191	40
192	5
201	1
203	4
204	107
205	91
206	13
207	1
219	2
220	2
229	6
230	1
244	0
247	411
248	66
249	5
262	4
263	1
