Mass Spectrum: Phenoxypropylamine, 3,4-dibenzyloxy-N-t-butyl-2-fluoro-.beta.-hydroxy-
Formula: C27H32FNO4
CAS: 132178-24-6
Molecular weight: 453
m/z	intensity
41	105
42	35
43	20
44	75
45	245
46	139
47	8
48	3
49	3
50	12
51	25
52	9
53	6
54	4
55	21
56	62
57	196
58	78
59	8
60	59
61	4
62	6
63	21
64	8
65	134
66	8
67	2
68	3
69	9
70	70
71	123
72	31
73	7
74	95
75	5
76	2
77	17
78	34
79	6
80	1
81	3
82	9
83	30
84	20
85	50
86	999
87	86
88	3
89	25
90	25
91	956
92	110
93	5
94	1
95	2
96	10
97	8
98	18
99	3
100	13
101	1
102	1
103	1
104	2
105	7
106	18
107	4
108	0
109	1
110	1
111	2
112	12
113	2
114	56
115	9
116	44
117	5
118	1
119	1
120	5
121	2
122	0
123	1
124	17
125	2
126	1
127	11
128	6
129	3
130	85
131	9
132	2
133	1
134	0
135	0
137	0
139	1
140	0
141	1
142	1
143	3
144	23
145	2
146	1
147	0
148	0
149	2
150	0
151	0
152	1
153	0
154	0
155	2
156	3
157	1
158	0
159	1
160	4
161	2
162	0
164	6
165	3
166	1
167	3
168	1
169	1
170	0
171	0
172	1
173	0
175	0
176	1
177	0
178	2
179	2
180	4
181	143
182	25
183	4
184	6
185	1
186	1
187	2
188	0
189	0
196	0
197	0
199	0
203	2
204	1
205	3
206	0
213	1
214	1
215	2
216	1
217	1
218	1
220	0
228	1
229	0
231	3
232	14
233	38
234	6
235	0
236	0
241	5
242	2
245	2
246	0
255	0
256	46
257	7
258	1
268	1
270	12
271	2
272	0
274	0
275	1
284	1
286	1
304	0
306	5
307	1
308	0
318	4
319	8
320	2
324	360
325	82
326	11
327	1
329	0
330	0
336	6
337	1
338	1
342	0
344	0
346	3
347	2
348	8
349	1
350	1
360	0
362	3
363	1
364	1
366	1
374	1
396	1
409	19
410	5
411	0
420	1
433	2
434	0
436	0
438	185
439	55
440	9
441	1
450	1
452	3
453	23
454	10
455	8
456	1
