Mass Spectrum: 1,4-Oxazepin-3-one, 2-methyl-5-phenyl-6,7-trimethyleneperhydro-, cis-
Formula: C15H19NO2
CAS: 132287-31-1
Molecular weight: 245
m/z	intensity
41	65
45	78
66	94
67	404
68	193
77	135
78	58
79	105
80	65
91	237
104	245
105	298
106	999
107	86
115	119
117	259
128	63
129	164
130	165
132	101
133	226
134	90
143	62
158	170
162	133
172	106
173	318
174	73
176	138
178	202
200	237
201	189
202	116
217	73
245	573
246	112
