Mass Spectrum: 8-(m-Methoxyphenyl)-1,4-dioxaspiro(4.5)decane-8-carbonitrile
Formula: C16H19NO3
CAS: 13225-35-9
Molecular weight: 273
m/z	intensity
15	3
27	8
28	8
29	3
39	9
40	1
41	5
42	57
43	23
44	4
45	4
50	2
51	6
52	2
53	5
54	2
55	47
56	6
57	1
62	1
63	7
64	5
65	6
66	2
67	2
69	1
70	2
71	17
73	3
75	3
76	4
77	13
78	7
79	3
80	1
83	1
84	6
86	999
87	56
88	7
89	12
90	5
91	7
92	4
93	1
94	3
95	1
96	1
99	611
100	36
101	11
102	11
103	12
104	4
105	1
107	1
108	4
109	1
113	1
114	3
115	13
116	14
117	3
118	2
119	1
121	9
122	11
123	2
127	4
128	11
129	14
130	6
131	4
132	2
133	5
134	2
135	2
140	5
141	3
142	3
143	2
144	4
145	5
146	3
147	2
152	4
153	2
154	2
155	1
156	2
157	2
158	4
159	93
160	17
161	4
163	1
169	1
170	2
171	2
172	7
173	4
174	1
175	1
183	1
184	3
185	4
186	4
187	17
188	2
198	1
200	4
201	6
202	2
203	5
212	2
213	4
214	7
215	6
228	4
229	23
230	4
233	1
243	6
244	1
245	142
246	22
247	3
272	2
273	117
274	21
275	2
