Mass Spectrum: Acetamide, N-(5-methyl-3-isoxazolyl)-
Formula: C6H8N2O2
CAS: 13223-74-0
Molecular weight: 140
m/z	intensity
42	110
43	999
44	40
55	510
56	30
66	70
67	70
98	860
99	80
140	250
141	20
