Mass Spectrum: 3,3',4,4'-Tetraaminodiphenylsulfone
Formula: C12H14N4O2S
CAS: 13224-79-8
Molecular weight: 278
m/z	intensity
28	67
30	11
34	12
39	25
40	11
41	25
42	25
43	29
44	29
45	21
48	80
49	12
50	12
51	12
52	21
53	92
54	46
55	29
56	22
57	17
60	12
63	25
64	231
65	51
66	33
67	50
68	25
69	21
70	12
71	12
73	17
77	17
78	17
79	50
80	660
81	297
82	46
83	12
85	12
90	29
91	88
92	21
93	17
95	92
96	42
97	11
105	17
106	50
107	481
108	999
109	238
110	17
112	54
113	12
118	38
122	21
123	84
124	42
125	38
132	12
136	50
139	112
140	500
141	67
142	29
149	25
155	46
156	17
168	12
193	12
210	38
214	21
252	12
278	291
279	46
280	17
