Mass Spectrum: 2-Phenylpyrazole-3-carbaldehyde
Formula: C10H8N2O
CAS: 132274-70-5
Molecular weight: 172
m/z	intensity
37	118
38	332
39	486
40	175
41	53
49	17
50	372
51	999
52	181
53	64
59	6
61	15
62	64
63	174
64	100
65	162
66	123
67	52
72	6
73	8
74	79
75	58
76	79
77	869
78	374
79	22
88	13
89	232
90	177
91	34
92	4
93	9
95	34
102	6
104	26
105	19
115	39
116	169
117	334
118	76
142	9
143	132
144	142
145	19
171	90
172	601
173	69
