Mass Spectrum: 1,2,3,4-Tetrahydropyridine-3-carbonitrile, 5-acetyl-3-allyl-4-(4-chlorophenyl)-6-methyl-2-thioxo-
Formula: C18H17ClN2OS
CAS: 132351-37-2
Molecular weight: 344
m/z	intensity
33	2
34	3
35	3
36	12
37	10
38	25
39	185
40	36
41	350
42	200
43	999
45	56
47	5
49	4
50	40
51	62
52	37
53	18
54	5
55	5
56	2
57	6
58	6
59	28
60	8
61	5
62	9
63	28
64	11
65	12
66	6
67	17
68	4
69	15
70	11
71	9
72	4
73	8
74	16
75	51
76	19
77	38
78	56
79	9
80	5
81	3
82	5
83	8
84	8
85	8
86	5
87	8
88	6
89	13
90	10
91	7
92	3
93	3
94	3
95	7
96	15
97	10
98	4
99	10
100	7
101	24
102	20
103	6
104	3
105	8
106	4
107	3
108	3
109	3
110	4
111	14
112	7
113	12
114	9
115	21
116	7
117	6
118	2
119	2
121	2
122	31
123	7
124	6
125	16
126	20
127	47
128	59
129	10
130	4
131	3
132	3
133	4
134	2
136	10
137	11
138	11
139	19
140	15
141	7
142	4
143	6
144	3
145	2
148	3
149	16
150	9
151	15
152	9
153	6
154	4
155	5
156	2
157	5
158	2
159	3
160	5
161	5
162	15
163	68
164	27
165	34
166	14
167	9
168	6
170	3
171	4
172	2
173	3
174	6
175	7
176	6
177	24
178	13
179	7
180	7
181	4
182	2
183	2
185	2
186	3
187	3
188	2
189	4
190	6
191	14
192	19
193	16
194	5
195	3
196	2
198	2
199	3
200	3
201	3
202	4
203	2
204	3
205	4
206	7
207	4
208	2
209	3
210	2
215	3
216	3
217	3
218	3
219	6
220	10
221	2
222	6
223	2
224	5
225	5
226	4
227	3
228	3
229	2
231	3
233	190
234	29
235	12
236	2
242	2
244	2
250	2
251	2
252	3
253	5
254	2
255	2
259	4
260	17
261	17
262	8
263	6
266	2
267	3
268	4
269	9
270	3
271	23
272	4
273	9
274	3
275	2
276	2
285	14
286	4
287	7
288	3
301	75
302	18
303	111
304	22
305	34
306	6
311	5
329	11
330	2
331	4
343	19
344	25
345	11
346	9
