Mass Spectrum: Acetamide, 2-hydrazono-2-phenylamino-N-phenyl-
Formula: C14H14N4O
CAS: 132349-84-9
Molecular weight: 254
m/z	intensity
33	16
34	8
37	7
38	31
39	149
40	97
41	22
42	23
43	114
44	22
45	10
46	1
48	104
49	0
50	61
51	228
52	45
53	12
54	10
55	4
56	4
57	6
58	10
59	6
60	8
61	3
62	12
63	63
64	336
65	311
66	106
67	12
68	4
70	1
71	2
73	2
74	13
75	20
76	47
77	627
78	71
79	18
80	14
81	0
83	1
85	1
88	1
89	2
90	19
91	139
92	299
93	372
94	50
95	3
96	23
97	1
98	3
104	999
105	99
106	97
107	22
108	27
109	2
113	0
117	25
118	127
119	189
120	59
121	7
128	39
129	3
130	6
131	5
132	32
133	112
134	70
135	16
144	1
145	6
146	26
147	16
148	12
149	1
152	0
156	1
160	28
161	3
162	6
163	1
167	0
168	1
169	4
170	0
172	0
178	1
180	6
184	0
192	8
194	4
195	22
196	2
197	2
204	2
205	0
207	0
208	0
209	1
210	1
219	2
220	0
221	0
222	1
223	6
224	3
226	9
237	3
238	2
239	1
251	1
254	435
255	68
256	26
257	0
258	6
