Mass Spectrum: 1H-Imidazole-1-acetic acid, 2-methyl-4-nitro-, ethyl ester
Formula: C8H11N3O4
CAS: 13230-22-3
Molecular weight: 213
m/z	intensity
38	8
39	38
40	57
41	145
42	134
43	999
44	76
45	19
46	13
64	5
65	11
66	120
67	134
68	65
69	33
70	5
71	5
72	5
93	5
94	5
95	16
96	2
97	2
98	30
99	2
100	5
138	5
139	8
140	44
141	659
142	2
213	607
214	60
215	5
