Mass Spectrum: Urea, 1-methyl-3-(3,5,5-trimethyl-2-thioxothiazolidin-4-ylideno)-
Formula: C8H13N3OS2
CAS: 132373-15-0
Molecular weight: 231
m/z	intensity
33	13
34	13
35	2
36	10
37	21
39	402
40	166
41	626
42	648
43	58
44	108
45	164
46	35
47	43
48	2
49	7
50	18
51	44
52	64
53	50
54	121
55	79
56	244
58	999
59	340
61	44
62	8
64	150
65	16
66	50
68	406
69	417
70	79
72	233
73	202
74	693
76	208
77	83
78	45
79	14
80	11
82	221
83	132
84	303
85	65
86	27
87	7
88	3
89	4
90	0
91	1
93	1
94	1
97	251
98	146
99	194
100	56
101	51
102	8
103	9
106	476
107	67
108	37
109	27
110	67
111	10
112	8
113	13
114	8
115	2
116	3
117	12
118	2
122	23
123	25
125	717
126	45
127	9
128	10
129	1
131	1
132	2
133	2
136	10
138	0
140	27
141	111
142	9
143	5
146	5
147	42
148	3
149	1
152	1
153	8
154	61
155	115
156	10
157	4
158	2
159	10
160	2
167	11
171	2
173	8
174	17
175	1
182	4
184	0
185	7
186	7
187	1
198	60
199	10
201	145
202	12
203	12
215	1
216	2
228	8
229	15
231	815
232	87
233	69
234	5
