Mass Spectrum: Benzeneethanamine, N-trifluoroacetyl-4-hydroxy-
Formula: C10H10F3NO2
CAS: 13230-73-4
Molecular weight: 233
m/z	intensity
41	18
42	9
43	16
44	36
45	8
46	8
47	1
49	1
50	34
51	91
52	49
53	77
54	6
55	35
56	8
57	3
58	3
59	5
60	8
61	0
62	14
63	35
64	11
65	55
66	15
67	6
68	4
69	125
70	3
71	1
73	1
74	4
75	5
76	7
77	280
78	102
79	35
80	4
81	11
82	16
83	1
84	0
85	1
86	1
87	1
88	1
89	14
90	7
91	85
92	12
93	5
94	18
95	2
96	1
97	11
98	2
99	0
100	0
101	2
102	3
103	12
104	3
105	12
106	16
107	999
108	106
109	7
110	1
114	0
116	2
117	2
118	6
119	56
120	883
121	145
122	10
123	1
124	1
125	0
126	34
127	2
128	0
132	1
133	2
134	7
135	9
136	1
137	0
144	1
146	2
148	0
149	0
151	0
162	1
163	0
164	15
165	1
166	16
167	2
169	0
171	0
186	0
187	0
194	1
214	1
215	0
217	0
231	0
232	0
233	142
234	17
235	1
