Mass Spectrum: Propanamide, 2,2,3,3,3-pentafluoro-N-(2-phenylethyl)-
Formula: C11H10F5NO
CAS: 13230-93-8
Molecular weight: 267
m/z	intensity
28	77
29	7
31	7
32	15
39	36
40	7
41	17
44	9
45	14
50	15
51	41
52	11
53	5
63	18
64	7
65	85
66	6
69	37
74	22
77	42
78	45
79	17
89	16
90	9
91	520
92	52
100	13
103	37
104	999
105	165
106	11
117	3
118	7
119	80
120	3
128	13
129	2
147	21
148	7
149	1
176	62
177	3
200	0
228	1
267	22
268	2
269	0
