Mass Spectrum: 1-Benzyl-4-nitroimidazole
Formula: C10H9N3O2
CAS: 13230-13-2
Molecular weight: 203
m/z	intensity
33	43
34	67
36	44
39	999
41	205
42	202
44	448
45	31
48	5
50	137
52	37
53	34
55	171
57	138
59	6
60	19
62	20
63	53
65	193
66	12
67	27
69	82
70	40
71	48
72	6
73	8
74	11
76	14
77	37
78	23
79	9
80	4
81	11
82	11
83	32
84	16
85	19
87	9
89	45
91	746
92	54
95	9
97	17
98	10
99	9
101	4
103	10
104	16
105	22
106	16
107	5
111	10
112	15
113	9
116	6
118	4
121	3
128	9
129	4
135	10
149	9
159	8
171	22
173	6
182	4
203	95
204	4
