Mass Spectrum: 2-Hydroxy-1,2,5,5,6,7exo-hexamethyl-4-oxo-3-oxabicyclo[4.1.0]heptane
Formula: C12H20O3
CAS: 132305-29-4
Molecular weight: 212
m/z	intensity
41	271
42	53
43	999
44	22
45	22
51	13
52	8
53	81
54	14
55	287
56	17
57	113
58	9
59	37
65	25
66	6
67	131
68	18
69	139
70	204
71	69
72	37
77	41
79	49
81	148
82	16
83	150
84	16
85	23
86	404
87	21
88	29
91	35
93	29
94	5
95	72
96	56
97	242
98	28
99	632
100	39
105	6
107	62
108	9
109	311
110	49
111	166
112	11
113	26
123	169
124	593
125	778
126	84
127	37
135	34
137	237
138	21
139	9
141	124
142	67
143	6
151	73
152	104
153	121
154	10
167	10
168	9
169	91
170	48
197	88
198	10
212	106
213	17
