Mass Spectrum: (Z)-Benzyl 3-(4-hydroxy-3-methoxyphenyl)acrylate
Formula: C17H16O4
CAS: 132336-01-7
Molecular weight: 284
m/z	intensity
38	11
39	93
41	43
50	44
51	165
52	93
53	43
54	12
55	33
62	21
63	106
64	26
65	283
66	32
67	14
69	65
74	13
75	9
76	19
77	191
78	142
79	73
80	16
89	219
90	50
91	999
92	79
93	11
94	8
97	8
102	13
103	22
105	94
106	47
107	34
108	21
110	18
115	48
116	17
117	113
118	43
119	12
121	12
124	19
125	48
126	6
128	10
133	85
134	61
135	74
136	8
137	25
141	7
142	5
145	133
146	34
147	42
148	22
149	48
150	424
151	50
152	11
158	3
159	4
160	4
161	162
162	18
163	15
165	11
166	5
169	5
170	4
171	26
172	5
177	182
178	53
179	27
180	5
181	11
182	6
183	12
184	4
185	16
192	11
193	38
194	15
195	7
196	3
197	21
198	8
199	3
205	4
206	11
207	88
208	17
209	10
210	8
211	8
213	6
223	26
224	25
225	14
226	3
233	3
234	8
235	6
236	2
237	6
238	40
239	88
240	18
241	4
251	10
252	2
253	8
266	46
267	37
268	8
269	7
270	3
284	393
285	76
286	10
