Mass Spectrum: Acetamide, 2-(2-ethyl-6-methylpyridin-3-yloxy)-N,N-diethyl-
Formula: C14H22N2O2
CAS: 132401-73-1
Molecular weight: 250
m/z	intensity
40	2
41	1
42	6
44	7
45	1
46	0
50	2
51	4
52	9
53	10
54	5
56	11
57	4
58	24
62	2
63	5
65	19
66	9
67	13
68	12
70	38
72	446
73	18
74	4
76	12
77	37
78	18
79	24
80	27
81	8
82	4
84	10
86	335
87	75
88	5
89	4
90	17
91	51
92	81
93	43
94	23
95	6
96	8
97	13
98	59
100	999
102	27
103	15
104	24
105	22
106	43
107	49
108	79
109	11
110	10
111	11
114	403
115	471
116	50
117	31
118	42
120	195
121	79
122	32
123	20
124	5
125	1
129	9
130	7
131	7
132	19
133	39
134	133
136	786
137	124
138	85
139	9
145	1
146	6
147	13
148	61
150	683
151	193
152	9
160	1
161	7
162	4
163	4
164	7
165	1
175	12
177	111
178	28
179	2
192	1
193	10
194	1
205	2
207	3
221	19
222	3
232	3
233	4
234	3
235	8
236	24
237	4
245	1
246	2
248	25
250	532
251	60
252	5
