Mass Spectrum: 2-Butene-1,4-dione, 1,2,4-triphenyl-, (Z)-
Formula: C22H16O2
CAS: 13249-75-7
Molecular weight: 312
m/z	intensity
26	1
27	8
28	1
29	1
30	0
31	9
35	0
36	0
37	0
38	0
39	4
40	0
41	1
42	0
43	1
44	0
45	3
46	1
49	0
50	17
51	47
52	7
53	0
55	0
57	0
61	0
62	1
63	3
64	0
65	0
66	0
69	0
71	0
73	0
74	4
75	4
76	19
77	242
78	15
79	1
81	0
86	0
87	1
88	0
89	1
91	1
92	0
93	0
94	0
98	0
99	0
100	0
101	2
102	25
103	3
105	999
106	48
107	2
110	0
113	0
114	0
115	0
117	0
122	0
126	1
127	0
128	0
129	1
130	0
131	0
137	0
139	0
141	0
142	1
150	1
151	2
152	2
153	0
156	0
163	0
164	0
165	1
167	0
174	0
175	0
176	2
177	2
178	8
179	9
180	1
181	0
187	0
188	0
189	1
190	5
191	5
192	0
193	0
205	0
206	3
207	21
208	5
209	1
219	1
234	0
235	17
236	2
237	0
239	0
252	0
253	0
255	0
265	0
267	0
268	0
283	5
284	2
285	0
296	2
297	0
310	0
311	9
312	181
313	36
314	5
315	0
