Mass Spectrum: Spiro[4.5]decan-1-one, 6-hydroxy-
Formula: C10H16O2
CAS: 132412-18-1
Molecular weight: 168
m/z	intensity
26	32
27	374
28	92
29	323
30	18
31	79
38	19
39	385
40	129
41	532
42	150
43	330
44	94
45	37
47	18
48	64
49	25
50	22
51	67
52	45
53	206
54	142
55	497
56	126
57	154
58	41
59	12
60	40
61	18
63	20
65	78
66	75
67	442
68	158
69	225
70	141
71	87
72	12
73	46
74	11
77	123
78	75
79	477
80	234
81	652
82	160
83	292
84	558
85	66
86	18
87	34
91	105
92	32
93	315
94	298
95	339
96	190
97	999
98	214
99	27
101	8
102	17
104	94
105	28
106	85
107	112
108	514
109	197
110	38
111	214
112	38
113	70
117	46
119	25
121	141
122	155
123	39
124	37
125	23
126	16
127	17
131	21
132	197
133	28
134	18
135	64
136	12
137	14
139	19
140	69
141	7
149	97
150	589
151	111
152	15
168	432
169	83
170	8
