Mass Spectrum: d-Glucitol, 4-O-decyl-
Formula: C16H34O6
CAS: 132591-07-2
Molecular weight: 322
m/z	intensity
25	1
26	7
27	79
29	199
30	14
31	93
33	1
34	0
36	0
37	1
38	1
39	37
40	23
41	380
42	94
43	931
44	48
45	90
46	2
47	2
49	1
50	1
51	3
52	3
53	18
54	16
55	286
56	131
57	999
58	43
59	7
60	79
61	290
62	10
63	2
64	0
65	5
66	7
67	27
68	28
69	141
70	88
71	582
72	28
73	647
74	138
75	39
76	2
77	26
78	1
79	5
80	3
81	20
82	43
83	104
84	34
85	518
86	31
87	27
88	5
89	6
90	9
91	450
92	14
93	5
94	2
95	19
96	22
97	46
98	13
99	100
100	8
101	4
102	5
103	705
104	36
105	14
106	0
107	1
108	1
109	14
110	8
111	16
112	13
113	4
114	1
115	39
116	5
117	9
118	0
119	1
120	0
121	25
122	1
123	3
124	1
125	2
126	0
127	3
128	5
129	14
130	2
131	1
132	0
133	81
134	4
135	1
136	0
137	1
138	37
139	12
140	9
141	97
142	10
143	1
144	0
145	1
146	5
147	7
148	0
149	0
150	0
151	1
152	1
153	1
154	0
155	4
156	0
157	5
158	1
159	1
164	0
165	6
166	1
167	0
168	0
169	47
170	6
171	5
172	0
173	0
175	0
177	0
178	0
179	0
180	0
181	0
182	0
183	4
184	3
185	3
186	0
187	1
188	0
189	0
191	0
193	0
195	0
196	1
197	1
198	0
199	0
200	2
201	16
202	2
207	3
208	0
209	0
210	0
211	0
212	0
213	219
214	43
215	5
216	0
221	0
225	1
226	0
227	0
229	0
230	2
231	44
232	6
233	0
240	1
241	0
242	0
243	25
244	5
245	0
255	2
256	0
261	16
262	2
263	0
273	13
274	2
275	0
300	3
301	0
305	1
323	4
324	0
