Mass Spectrum: 2-Ethyl-3-benzyl-1,3,2-oxaazaborinane
Formula: C12H18BNO
CAS: 132573-68-3
Molecular weight: 203
m/z	intensity
50	77
51	39
52	31
53	28
54	46
55	200
56	923
57	246
58	30
59	26
60	9
65	162
66	31
67	27
68	45
69	154
70	269
71	42
77	55
78	31
79	25
82	39
83	50
84	139
85	35
86	27
89	39
90	38
91	999
92	346
93	42
95	14
96	29
97	69
98	300
99	508
100	52
101	29
110	29
111	208
112	769
113	123
114	19
115	21
116	27
117	52
118	58
119	28
120	11
123	50
124	231
125	308
126	923
127	92
128	12
132	12
133	16
134	48
135	8
139	42
140	177
141	25
142	9
145	16
146	77
147	11
172	19
173	41
174	162
175	21
201	108
202	500
203	754
204	100
205	11
