Mass Spectrum: Glycine, N-methyl-N-nitroso-
Formula: C3H6N2O3
CAS: 13256-22-9
Molecular weight: 118
m/z	intensity
30	195
31	65
38	79
39	143
40	46
41	78
42	999
43	546
44	187
45	179
58	12
59	24
60	35
73	328
74	32
88	12
89	8
118	140
119	12
120	1
