Mass Spectrum: Lycorenan, 9,10-dimethoxy-1-methyl-
Formula: C18H23NO3
CAS: 13255-14-6
Molecular weight: 301
m/z	intensity
41	7
42	11
43	7
51	4
55	11
57	11
67	4
69	7
71	4
73	4
77	11
78	4
81	11
82	23
83	7
91	4
93	4
94	7
95	7
97	11
107	11
108	123
109	999
110	75
111	7
121	7
129	4
149	0
151	4
152	4
153	4
154	3
155	3
156	1
157	1
158	1
159	0
160	0
161	1
162	0
163	3
164	7
165	5
166	1
167	3
168	3
169	2
170	1
171	2
172	0
173	0
175	2
176	3
177	8
178	3
179	2
180	3
181	2
182	2
183	3
184	2
185	2
186	3
187	0
188	1
189	1
190	0
191	13
192	23
193	5
194	3
195	0
196	2
197	2
198	1
199	2
200	0
201	0
202	0
203	0
204	0
205	0
206	1
207	1
208	1
209	0
210	1
211	3
212	2
213	2
214	1
215	1
216	0
217	0
218	0
219	0
220	0
221	1
222	3
223	1
224	1
225	1
226	1
227	0
228	1
229	1
230	0
231	0
234	0
235	0
236	1
237	1
238	1
239	1
240	1
241	2
242	4
243	1
244	1
245	0
247	0
248	0
249	0
250	1
251	0
252	1
253	0
254	2
255	0
256	4
257	1
258	2
259	0
260	0
261	0
262	0
263	0
264	3
265	2
266	7
267	4
268	2
269	2
270	2
271	0
272	0
273	0
274	0
275	0
278	0
279	0
280	3
281	3
282	2
283	2
284	4
285	1
286	0
287	0
288	0
289	0
290	0
291	0
292	0
293	0
294	0
295	4
296	1
297	4
298	1
299	9
300	3
301	1
