Mass Spectrum: 4-(Trimethylsilyoxy)-3-penten-2-one
Formula: C8H16O2Si
CAS: 13257-81-3
Molecular weight: 172
m/z	intensity
27	42
28	15
29	37
30	3
31	13
34	1
36	0
37	2
38	8
39	52
40	10
41	14
42	26
43	422
44	45
45	176
46	13
47	53
48	3
49	3
50	3
51	4
52	1
53	12
54	3
55	18
56	7
57	15
58	13
59	27
60	9
61	36
62	2
63	4
64	1
65	4
66	2
67	7
68	3
69	11
70	4
71	43
72	20
73	999
74	79
75	255
76	18
77	40
78	2
79	3
80	2
81	2
82	1
83	3
84	3
85	19
86	3
87	8
88	0
89	1
91	1
93	0
95	1
96	0
97	8
98	7
99	38
100	11
101	11
102	0
103	0
111	2
112	1
113	8
114	2
115	53
116	7
117	6
118	0
119	0
123	2
125	6
126	3
127	23
128	3
129	2
130	3
131	0
132	0
139	13
140	8
141	8
142	3
143	2
144	2
145	0
147	5
148	0
149	0
154	0
155	3
156	6
157	826
158	108
159	35
160	3
171	0
172	97
173	15
174	4
175	0
