Mass Spectrum: 1-Piperazinecarboxylic acid, 4-nitroso- ethyl ester
Formula: C7H13N3O3
CAS: 13256-15-0
Molecular weight: 187
m/z	intensity
41	72
42	534
43	112
44	79
45	1
54	55
55	148
56	999
57	106
58	139
59	1
70	145
71	1
72	28
83	8
84	12
85	95
98	6
112	1
142	27
157	480
158	21
187	6
