Mass Spectrum: 1-Pentanamine, N-methyl-N-nitroso-
Formula: C6H14N2O
CAS: 13256-07-0
Molecular weight: 130
m/z	intensity
26	16
27	114
28	46
29	210
30	95
39	84
41	290
42	456
43	482
44	535
45	24
53	12
54	11
55	109
56	61
57	254
58	143
59	26
60	34
61	108
67	19
68	20
69	195
70	269
71	131
72	13
73	999
74	443
75	22
84	112
85	133
86	16
87	30
98	61
99	32
100	55
101	19
102	11
103	118
113	717
114	53
115	15
130	266
131	24
