Mass Spectrum: D-Glucopyranose, 4,6-O-heptylidene-
Formula: C13H24O6
CAS: 132590-88-6
Molecular weight: 276
m/z	intensity
26	3
27	66
28	17
29	107
30	4
31	77
32	3
38	0
39	33
40	12
41	170
42	28
43	145
44	71
45	97
46	2
47	20
50	0
51	3
52	1
53	20
54	8
55	343
56	26
57	213
58	18
59	13
60	185
61	101
62	3
63	1
65	1
66	1
67	17
68	17
69	205
70	63
71	82
72	25
73	999
74	46
75	11
76	1
77	5
78	1
79	3
80	1
81	105
82	11
83	19
84	6
85	123
86	48
87	42
88	10
89	28
90	5
91	43
92	1
93	3
94	1
95	24
96	34
97	314
98	73
99	92
100	11
101	90
102	16
103	86
104	9
105	1
107	1
109	159
110	11
111	4
112	2
113	120
114	49
115	93
116	53
117	11
118	1
119	85
120	4
121	2
123	2
124	2
125	9
126	4
127	452
128	31
129	10
130	3
131	38
132	3
133	13
134	0
137	0
139	6
140	3
141	2
142	4
143	3
144	52
145	66
146	6
147	0
151	2
153	5
154	0
155	9
156	1
157	20
158	5
159	2
161	1
162	4
163	5
165	0
168	1
169	14
170	7
171	3
172	0
173	166
174	13
175	2
183	2
185	0
186	7
187	66
188	7
189	2
191	485
192	37
193	6
197	0
199	16
200	2
201	3
204	1
206	11
207	1
212	3
213	0
214	2
215	5
217	1
229	10
230	2
241	0
248	17
249	1
257	1
258	1
259	3
275	17
276	2
277	0
