Mass Spectrum: d-Glucitol, 4-O-heptyl-
Formula: C13H28O6
CAS: 132591-05-0
Molecular weight: 280
m/z	intensity
25	0
26	3
27	50
28	11
29	133
30	3
31	51
33	0
34	0
36	0
38	1
39	22
40	4
41	201
42	36
43	291
44	28
45	65
46	2
47	2
49	1
50	1
51	1
52	0
53	8
54	4
55	99
56	43
57	999
58	44
59	6
60	47
61	234
62	7
63	1
65	1
66	3
67	9
68	5
69	31
70	28
71	20
72	6
73	394
74	83
75	25
76	1
77	1
78	0
79	1
80	0
81	9
82	6
83	12
84	4
85	107
86	13
87	19
88	3
89	5
90	3
91	296
92	9
93	4
94	0
95	2
96	22
97	31
98	20
99	74
100	6
101	2
102	2
103	346
104	20
105	8
106	0
107	0
109	2
110	1
111	3
112	1
113	7
114	1
115	28
116	3
117	7
118	1
119	0
121	9
122	0
123	10
124	1
125	1
126	0
127	37
128	3
129	9
130	1
131	1
133	51
134	2
135	0
137	0
139	0
141	1
142	6
143	2
144	1
145	3
146	2
147	3
148	0
152	0
153	0
154	0
155	0
157	6
158	3
159	19
160	2
161	0
164	0
165	1
169	0
170	0
171	131
172	28
173	3
175	1
177	0
183	2
184	1
185	0
187	2
188	2
189	36
190	4
191	0
193	0
199	0
200	0
201	23
202	4
203	0
207	1
213	2
214	0
215	0
217	1
218	0
219	14
220	1
227	0
231	15
232	2
233	0
241	0
245	1
249	0
263	1
277	0
281	2
282	0
