Mass Spectrum: 19-Norpregn-4-ene-3,20-dione, 10-vinyl-
Formula: C22H30O2
CAS: 13258-85-0
Molecular weight: 326
m/z	intensity
41	210
43	999
45	13
51	24
52	11
53	82
54	9
55	202
63	8
65	59
66	14
67	141
68	8
69	36
71	67
77	137
78	46
79	212
80	34
81	164
82	9
83	11
84	19
85	97
91	312
92	58
93	178
94	48
95	120
96	13
97	15
103	23
104	29
105	179
106	61
107	133
108	47
109	57
110	10
111	9
115	52
116	28
117	92
118	29
119	110
120	46
121	82
122	31
123	54
124	17
128	38
129	81
130	21
131	98
132	42
133	148
134	75
135	125
136	216
137	49
138	8
141	14
142	16
143	44
144	20
145	112
146	50
147	250
148	59
149	149
150	8
155	17
156	14
157	33
158	16
159	81
160	32
161	94
162	13
163	10
167	5
169	18
170	10
171	36
172	11
173	87
174	25
175	32
177	15
178	6
181	9
183	13
185	42
186	20
187	68
188	50
189	55
190	26
191	50
192	5
197	11
198	5
199	30
200	9
201	22
202	6
203	13
205	8
209	10
211	13
212	5
213	33
216	16
223	15
225	14
227	10
228	7
229	101
230	18
239	8
240	6
241	87
244	9
255	12
256	39
265	30
266	10
269	19
281	11
282	16
283	205
284	56
308	28
311	22
326	311
