Mass Spectrum: d-Glucitol, 4-O-octyl-
Formula: C14H30O6
CAS: 132696-01-6
Molecular weight: 294
m/z	intensity
26	4
27	74
28	0
29	187
30	5
31	71
36	1
39	30
40	6
41	336
42	66
43	625
44	43
45	96
46	3
47	3
49	2
50	1
51	1
52	1
53	13
54	8
55	145
56	58
57	999
58	42
59	5
60	73
61	318
62	10
63	1
65	2
66	4
67	16
68	13
69	96
70	41
71	780
72	43
73	572
74	123
75	36
76	1
77	6
78	0
79	3
80	1
81	20
82	15
83	33
84	20
85	168
86	17
87	23
88	4
89	6
90	7
91	448
92	11
93	3
94	0
95	11
96	2
97	12
98	2
99	15
100	3
101	4
102	5
103	579
104	28
105	11
106	0
109	1
110	39
111	27
112	15
113	102
114	9
115	35
116	6
117	8
119	1
121	18
122	1
123	3
124	1
125	1
126	1
127	5
128	3
129	8
130	2
131	2
133	74
134	4
135	0
137	9
138	1
139	0
140	0
141	56
142	5
143	4
144	0
145	1
146	4
147	4
148	0
151	0
155	2
156	6
157	4
158	1
159	2
165	3
167	0
172	3
173	21
174	2
179	0
183	1
185	195
186	45
187	5
193	0
197	2
198	0
201	0
202	2
203	46
204	8
205	1
207	1
208	0
214	0
215	30
216	6
217	0
227	2
228	0
233	16
234	3
241	0
245	17
246	2
277	1
295	4
296	0
