Mass Spectrum: E-Hex-2-en-1,2-dicarcoxylic acid
Formula: C8H12O4
CAS: 132631-27-7
Molecular weight: 172
m/z	intensity
26	57
27	548
29	211
31	25
32	7
37	17
38	57
39	408
40	118
41	394
42	192
43	85
44	34
45	63
50	68
51	117
52	86
53	451
54	383
55	99
56	16
57	36
58	4
59	14
60	5
62	9
63	23
65	58
66	35
67	999
68	67
69	77
70	23
71	12
73	10
74	10
77	34
78	10
79	88
80	58
81	280
82	199
83	40
84	30
85	77
86	11
87	23
93	13
95	158
96	12
97	56
98	52
99	11
108	21
109	32
110	182
111	336
112	76
113	87
125	15
126	176
127	20
139	16
154	93
155	6
