Mass Spectrum: Propanamide, N-(2,6-dimethylphenyl)-3-(4-morpholyl)-
Formula: C15H22N2O2
CAS: 132624-18-1
Molecular weight: 262
m/z	intensity
35	0
36	0
37	0
38	0
39	8
40	2
41	25
42	67
43	0
44	4
51	3
52	4
53	6
54	12
55	19
56	36
57	16
58	3
65	9
66	2
67	1
68	7
69	1
70	51
71	1
72	1
77	25
78	6
79	9
80	2
81	0
82	1
83	1
84	8
85	1
86	2
90	1
91	22
92	5
93	3
94	1
95	0
98	0
102	1
103	7
104	4
105	10
106	4
107	1
108	0
111	0
114	999
115	45
116	3
117	3
118	7
119	3
120	19
121	5
122	0
124	0
125	0
130	1
131	0
132	3
133	2
134	1
146	1
147	1
148	9
149	1
156	0
158	0
160	0
161	0
162	0
174	0
175	0
176	0
177	0
214	0
219	0
231	0
262	1
263	0
