Mass Spectrum: 1-(2-Nitrophenyl)-2,2-dibromocyclopropane
Formula: C9H7Br2NO2
CAS: 132608-16-3
Molecular weight: 319
m/z	intensity
50	220
51	238
57	49
58	29
63	327
65	129
75	150
77	287
89	198
103	99
114	99
115	999
160	140
161	230
240	200
242	198
319	30
321	59
323	29
