Mass Spectrum: 3-Pyridinamine, 2-nitro-
Formula: C5H5N3O2
CAS: 13269-19-7
Molecular weight: 139
m/z	intensity
50	40
52	150
53	120
64	110
65	140
66	480
81	50
92	40
93	999
94	60
109	1
138	1
139	330
140	56
141	2
