Mass Spectrum: 2-Oxazolamine, 4,5-dihydro-N-methyl-5-[(4-phenylpiperazin-1-yl)methyl]-
Formula: C15H22N4O
CAS: 132786-16-4
Molecular weight: 274
m/z	intensity
27	83
29	63
30	87
39	33
41	147
42	417
43	125
44	100
51	72
52	7
54	47
55	82
56	298
57	68
58	32
67	20
68	88
69	37
70	999
71	100
72	13
73	73
77	275
78	30
79	17
82	67
83	17
84	17
91	120
92	17
93	25
99	133
100	67
101	17
103	33
104	300
105	483
106	117
107	13
111	17
112	7
113	25
114	8
115	83
117	30
118	33
119	30
120	130
121	13
130	17
132	567
133	70
134	17
142	403
143	20
144	25
145	50
146	17
156	17
157	10
159	100
160	633
161	120
162	33
175	717
176	100
187	103
188	17
200	40
201	42
202	7
214	33
215	3
230	3
231	7
259	8
274	550
275	92
276	50
