Mass Spectrum: Citric acid 3TMS
Formula: C15H32O7Si3
CAS: 1327339-35-4
Molecular weight: 408
m/z	intensity
28	1
29	2
31	1
39	3
40	1
42	3
43	29
44	12
45	84
46	6
47	26
48	2
49	1
53	1
55	7
56	3
57	8
58	15
59	10
60	4
61	22
62	2
63	2
66	3
67	33
68	5
69	24
70	6
71	10
72	58
73	999
74	95
75	370
76	25
77	21
78	1
79	1
82	1
83	3
84	5
85	9
86	2
87	5
88	6
89	5
90	1
91	6
95	4
96	1
97	10
98	2
99	25
100	3
101	12
102	3
103	4
104	1
105	3
106	1
108	1
109	1
111	65
112	4
113	5
114	8
115	122
116	51
117	137
118	14
119	13
120	1
127	3
128	1
131	28
132	6
133	108
134	16
135	16
136	2
137	2
139	10
140	1
141	21
142	3
143	42
144	8
145	36
146	4
147	493
148	78
149	177
150	24
151	12
155	1
156	3
157	12
158	3
159	49
160	6
161	6
162	2
163	22
164	4
165	2
169	8
170	2
171	24
172	9
173	6
174	3
175	5
176	1
182	1
183	3
184	4
185	71
186	11
187	13
188	1
189	9
190	23
191	13
192	3
199	1
200	8
201	889
202	123
203	56
207	4
208	1
209	2
211	81
212	11
213	158
214	23
215	24
219	1
220	1
221	11
222	2
223	2
227	1
229	11
230	10
231	235
232	46
233	121
234	25
235	11
236	2
237	1
243	3
245	5
246	15
247	23
248	6
249	3
250	1
251	1
259	16
260	3
261	5
262	1
263	1
265	2
266	1
272	1
273	57
274	15
275	234
276	50
277	26
278	5
279	2
281	3
283	1
285	9
286	2
287	13
288	3
291	200
292	44
293	20
294	3
295	1
301	13
302	2
303	95
304	21
305	12
306	2
307	1
321	1
322	1
333	1
347	89
348	25
349	14
350	3
351	1
355	75
356	26
357	11
358	3
363	1
365	3
366	1
370	2
371	1
375	76
376	22
377	15
378	3
379	1
393	13
394	5
395	3
