Mass Spectrum: 2-Oxazolamine, 4,5-dihydro-5-(phenoxymethyl)-N,N-bis[(phenylamino)carbonyl]-
Formula: C24H22N4O4
CAS: 132786-23-3
Molecular weight: 430
m/z	intensity
25	7
26	49
27	139
28	278
29	132
30	428
31	30
39	354
40	66
41	94
42	50
43	419
44	177
45	31
46	39
47	13
49	22
50	125
51	263
52	87
53	24
54	67
55	401
56	549
57	442
58	17
59	44
60	12
61	39
62	64
63	192
64	373
65	250
66	117
67	14
68	5
69	28
71	12
72	8
73	20
74	31
75	25
76	26
77	293
78	55
79	38
80	8
81	4
82	12
83	7
84	133
85	282
86	15
87	8
88	10
89	5
90	33
91	567
92	74
93	272
94	258
95	39
96	11
97	19
98	153
99	697
100	38
103	6
104	6
105	10
106	5
107	66
108	43
109	5
114	58
115	6
119	999
120	102
121	8
125	5
131	10
132	5
133	13
134	4
148	6
163	6
192	93
193	63
194	8
212	8
218	5
