Mass Spectrum: N-(Phenylaminocarbonyl)aziridine
Formula: C9H10N2O
CAS: 13279-22-6
Molecular weight: 162
m/z	intensity
41	58
42	317
43	161
44	44
50	30
51	108
52	33
59	11
62	17
63	65
64	74
65	244
66	45
70	238
74	8
76	11
77	297
78	35
79	62
90	3
91	143
92	183
93	105
94	12
104	17
106	675
107	55
118	5
119	999
120	127
121	10
134	77
135	4
147	105
148	11
149	3
161	19
162	551
163	68
