Mass Spectrum: 1,4-Pentanediol, 4-methyl-2-phenyl-
Formula: C12H18O2
CAS: 132781-85-2
Molecular weight: 194
m/z	intensity
27	68
28	22
29	119
31	80
39	95
40	11
41	116
42	20
43	563
44	22
45	50
50	49
51	155
52	40
53	34
55	100
56	51
57	84
58	14
59	498
60	23
62	13
63	46
64	15
65	89
69	71
70	49
71	30
74	28
75	21
76	29
77	411
78	142
79	789
80	59
81	14
83	46
84	22
85	18
87	15
89	44
90	24
91	307
92	49
93	16
97	24
102	24
103	168
104	133
105	299
106	54
107	999
108	108
114	51
115	19
117	169
118	152
119	26
120	78
121	67
122	12
128	22
129	29
131	265
132	34
133	42
135	736
136	79
143	22
145	67
146	393
147	64
148	132
159	15
160	68
161	73
162	13
163	17
166	8
176	13
179	7
