Mass Spectrum: Phosphinic acid, bis(chloromethyl)-
Formula: C2H5Cl2O2P
CAS: 13274-83-4
Molecular weight: 162
m/z	intensity
33	42
35	29
36	34
38	11
40	13
41	1
44	36
45	33
47	361
48	241
49	744
50	8
51	238
52	2
55	3
56	3
57	2
59	4
61	83
62	23
63	12
64	33
65	42
66	8
67	15
68	4
69	8
70	1
71	1
72	0
73	0
74	0
75	0
77	48
78	42
79	17
80	8
83	346
85	108
87	0
89	0
90	0
91	1
92	0
93	0
95	5
97	43
98	7
99	15
100	3
101	2
102	0
103	0
104	0
105	0
106	0
108	0
109	0
113	999
114	11
115	319
116	3
121	0
122	0
123	0
125	1
126	0
127	1
128	1
129	0
130	0
131	0
132	0
133	0
134	0
135	0
138	0
139	0
140	0
141	0
142	0
143	0
144	3
145	1
146	4
147	1
148	0
149	0
151	0
157	0
158	0
162	244
163	5
164	156
165	3
166	25
167	0
