Mass Spectrum: 2-Oxazolamine, 4,5-dihydro-5-[[4-(4-methoxyphenyl)piperazin-1-yl]methyl]-
Formula: C15H22N4O2
CAS: 132786-14-2
Molecular weight: 290
m/z	intensity
26	7
27	36
29	50
30	107
31	7
39	29
40	4
41	101
42	186
43	171
44	24
45	27
50	7
51	13
52	10
53	14
54	43
55	121
56	229
57	129
58	29
60	14
63	7
64	18
65	29
66	9
67	50
68	43
69	129
70	999
71	118
72	7
73	18
77	51
78	18
81	71
82	68
83	68
84	29
85	71
90	14
91	43
92	18
94	21
95	64
96	36
97	71
98	23
99	21
100	7
101	18
103	89
104	14
105	11
106	8
107	29
108	14
109	21
110	14
111	29
112	6
119	14
120	171
121	86
122	23
123	18
124	7
125	9
127	16
128	50
129	11
132	14
133	21
134	114
135	264
136	107
137	21
146	4
147	7
148	21
149	59
150	129
151	20
152	4
153	4
154	14
155	7
162	293
163	71
164	21
165	4
174	25
175	29
176	11
177	16
190	186
191	63
192	36
193	7
203	100
204	14
205	714
206	104
207	9
217	25
218	7
229	6
230	7
231	9
236	11
257	7
275	25
290	643
291	86
292	14
