Mass Spectrum: Phenol, 4-[4-[(2-amino-4,5-dihydrooxazol-5-yl)methyl]piperazin-1-yl]-
Formula: C14H20N4O2
CAS: 132786-13-1
Molecular weight: 276
m/z	intensity
26	7
27	34
29	60
30	114
31	34
39	67
40	7
41	114
42	195
43	154
44	13
45	37
51	7
52	9
53	13
54	40
55	141
56	228
57	134
58	34
59	3
60	34
65	84
66	7
67	40
68	47
69	81
70	999
71	111
79	11
80	13
81	50
82	67
83	54
84	27
85	74
91	11
92	13
93	87
94	34
95	41
96	48
97	54
98	27
99	20
105	7
106	13
107	75
108	30
109	13
111	13
112	10
119	7
120	275
121	336
122	94
123	8
124	3
125	3
127	7
128	57
129	15
132	8
133	26
134	23
135	50
136	242
137	19
141	5
142	19
146	13
147	20
148	433
149	74
150	27
155	13
156	7
160	10
161	27
162	13
163	17
173	10
174	13
175	74
176	248
177	60
178	64
179	10
189	134
190	60
191	725
192	81
193	7
202	3
203	30
204	7
216	34
217	13
261	34
274	10
275	7
276	557
277	101
278	7
