Mass Spectrum: 2-Oxazolamine, 4,5-dihydro-5-(phenoxymethyl)-N-[(phenylamino)carbonyl]-
Formula: C17H17N3O3
CAS: 132786-21-1
Molecular weight: 311
m/z	intensity
25	7
26	40
27	168
28	300
29	185
30	371
31	63
38	155
39	304
40	60
41	211
42	83
43	512
44	394
45	168
46	20
47	13
48	3
49	18
50	116
51	243
52	83
53	44
54	72
55	492
56	556
57	543
58	29
59	12
60	113
61	65
62	57
63	164
64	373
65	216
66	98
67	48
68	35
69	179
70	73
71	96
72	13
73	66
74	33
75	24
76	37
77	277
78	88
79	64
80	19
81	63
82	40
83	64
84	173
85	325
86	38
87	21
88	12
89	13
90	56
91	569
92	63
93	174
94	299
95	78
96	40
97	67
98	175
99	734
100	50
101	13
102	3
103	8
104	9
105	17
106	9
107	88
108	50
109	22
110	16
111	34
112	15
113	15
114	68
115	14
116	7
117	7
118	10
119	999
120	104
121	19
122	7
123	18
124	16
125	21
126	9
127	21
128	7
129	18
130	7
131	13
132	9
133	18
134	8
135	12
136	12
137	18
138	8
139	11
140	4
141	12
143	6
145	6
146	2
147	6
148	11
149	71
150	9
151	8
152	6
153	6
155	9
157	10
158	2
159	2
161	6
162	4
163	12
165	3
166	7
167	17
168	4
169	2
171	5
180	5
181	4
183	3
185	8
191	13
192	109
193	19
194	6
195	1
196	3
197	4
199	5
201	2
205	2
208	5
211	5
212	7
213	10
218	12
219	9
225	2
227	3
228	2
229	6
230	1
236	6
237	2
239	4
241	3
242	2
243	6
255	3
256	13
257	7
264	1
265	2
275	4
279	5
280	3
283	1
284	6
285	2
293	8
307	2
311	12
