Mass Spectrum: 3-Hydroxy-3-phenylvaleric acid
Formula: C11H14O3
CAS: 13278-26-7
Molecular weight: 194
m/z	intensity
14	1
15	2
17	2
18	7
26	1
27	16
28	6
29	48
30	1
31	2
38	1
39	13
40	1
41	4
42	7
43	34
44	2
45	6
50	12
51	48
52	9
53	5
55	7
56	1
57	102
58	4
59	1
60	3
62	2
63	7
64	2
65	10
66	1
69	4
71	1
73	6
74	5
75	5
76	9
77	196
78	45
79	11
82	5
87	7
89	3
90	1
91	27
92	4
93	2
99	3
102	3
103	9
104	5
105	999
106	79
107	6
115	9
116	4
117	14
118	2
119	1
120	9
121	1
123	1
127	1
128	2
129	2
130	1
131	4
132	2
133	4
134	7
135	88
136	8
146	1
147	187
148	18
149	1
164	6
165	443
166	44
167	4
177	1
