Mass Spectrum: 1-(1-tert-Butoxypropan-2-yloxy)propan-2-ol
Formula: C10H22O3
CAS: 132739-31-2
Molecular weight: 190
m/z	intensity
15	3
19	2
26	1
27	16
28	6
29	44
30	2
31	67
32	1
38	1
39	27
40	7
41	149
42	40
43	72
44	6
45	112
46	3
50	1
51	1
53	2
54	1
55	11
56	32
57	461
58	74
59	999
60	35
61	7
69	6
70	1
71	27
72	10
73	7
74	1
75	12
77	1
83	1
85	5
87	8
88	1
89	30
90	2
91	57
92	3
97	1
99	6
100	1
101	16
102	5
103	270
104	16
105	2
114	19
115	36
116	8
117	17
118	1
119	3
131	9
132	1
133	5
134	1
135	1
146	21
147	2
172	2
175	1
