Mass Spectrum: 2-Oxazolamine, 4,5-dihydro-5-[(4-methylphenoxy)methyl]-N-[(phenylamino)carbonyl]-
Formula: C18H19N3O3
CAS: 132786-22-2
Molecular weight: 325
m/z	intensity
25	112
27	418
28	2
29	182
40	110
41	37
42	500
43	159
44	34
45	47
48	3
49	18
50	95
51	154
52	97
53	51
54	49
55	393
56	428
57	478
58	16
59	3
60	62
61	30
62	51
63	168
64	371
65	170
66	12
67	4
68	2
69	19
70	7
71	7
72	7
73	10
74	19
75	16
76	14
77	131
78	36
79	51
80	24
81	6
82	9
83	3
84	169
85	184
86	11
87	6
88	7
89	18
90	48
91	597
92	59
93	25
94	5
95	3
96	2
97	14
98	107
99	359
100	58
101	4
102	6
103	14
104	2
105	11
106	7
107	175
108	594
109	64
110	4
114	48
115	10
117	3
118	4
119	999
120	77
121	45
122	33
123	3
131	7
132	2
133	9
134	14
135	2
145	4
146	3
147	2
148	2
150	3
162	3
176	3
177	2
206	140
207	17
208	2
325	3
