Mass Spectrum: Acetophenone 4-[1-Methyl-4-diethylaminobutyl]thiosemicarbazone
Formula: C18H30N4S
CAS: 13284-51-0
Molecular weight: 334
m/z	intensity
41	273
42	320
43	113
44	253
45	24
46	16
47	14
48	2
49	49
50	53
51	195
52	31
53	24
54	28
55	78
56	206
58	586
59	12
60	86
61	11
62	15
63	30
64	33
65	41
66	14
67	42
68	7
69	203
70	114
71	153
72	205
73	48
74	84
77	561
78	75
79	14
80	7
82	45
84	548
86	999
87	12
88	8
89	17
91	54
92	30
93	9
94	6
95	2
96	29
97	5
98	22
99	563
100	36
101	21
102	5
103	113
104	155
105	22
106	5
107	3
109	25
110	42
111	67
112	254
113	27
114	29
115	54
116	30
117	8
118	213
119	15
120	184
121	14
122	6
124	24
125	11
126	20
128	44
129	21
130	27
131	9
132	26
133	25
134	10
135	6
136	3
137	0
138	1
139	154
140	38
141	3
142	49
143	47
144	41
145	58
146	10
147	5
148	2
149	5
150	5
151	2
152	4
153	0
154	35
155	9
156	5
157	14
158	13
159	6
160	7
161	3
162	1
163	3
164	1
165	2
166	6
167	1
168	8
169	6
170	1
171	13
172	1
173	15
174	3
176	59
177	41
178	13
179	7
180	2
181	1
182	70
183	2
184	12
185	7
186	9
187	8
188	8
189	4
190	2
191	1
192	0
194	4
195	1
196	1
197	1
198	3
199	6
200	5
201	24
202	4
203	2
204	1
206	1
209	0
211	1
212	1
213	1
214	6
215	20
216	15
217	3
218	2
220	1
221	1
222	1
224	0
225	1
226	1
228	7
229	2
230	1
232	1
234	1
239	1
240	0
241	1
243	1
244	1
245	1
246	6
248	15
249	3
250	1
251	0
256	0
257	2
258	1
260	11
261	11
262	21
263	3
264	1
267	0
269	0
271	1
272	2
273	11
274	3
276	1
281	0
282	0
284	1
285	3
287	1
289	0
291	0
292	0
297	4
299	2
301	3
302	0
305	4
306	7
307	3
308	0
317	0
318	1
319	5
320	0
321	1
332	0
333	2
334	14
335	3
336	1
