Mass Spectrum: Propanamide, 3-[methyl(phenylmethyl)amino]-
Formula: C11H16N2O
CAS: 132841-96-4
Molecular weight: 192
m/z	intensity
33	1
35	47
36	118
37	18
38	60
39	78
40	38
41	91
42	273
43	86
44	207
45	7
46	0
50	28
51	44
52	13
53	6
54	12
55	30
56	22
57	20
58	30
59	13
60	5
61	2
62	13
63	36
64	33
65	169
66	9
68	1
69	4
70	7
71	16
72	41
73	8
74	3
75	3
76	8
77	26
78	10
79	4
80	0
81	0
82	3
83	21
84	116
85	8
86	16
87	2
89	44
91	999
92	83
93	3
94	0
95	0
96	0
97	1
98	2
101	317
102	14
103	5
104	6
105	7
106	4
107	1
113	1
115	16
116	2
117	9
118	30
119	69
120	352
121	43
122	1
130	1
131	10
132	48
133	27
134	131
135	12
136	0
146	5
147	0
148	1
149	1
151	0
160	3
177	12
178	0
190	0
191	2
192	5
193	0
