Mass Spectrum: 9-Octadecenamide, N-(2-(diethylamino)ethyl)-, (Z)-
Formula: C24H48N2O
CAS: 13282-67-2
Molecular weight: 380
m/z	intensity
15	1
17	2
18	7
27	9
28	8
29	21
30	31
31	1
39	5
40	1
41	36
42	12
43	33
44	19
45	1
53	3
54	9
55	43
56	18
57	21
58	38
59	8
60	6
61	1
67	14
68	7
69	24
70	11
71	23
72	16
73	9
74	4
77	1
79	3
80	2
81	9
82	6
83	14
84	13
85	9
86	999
87	60
88	2
91	1
93	2
94	1
95	7
96	6
97	12
98	12
99	101
100	15
101	2
107	1
108	1
109	3
110	4
111	7
112	12
113	8
114	4
115	3
121	1
122	2
123	2
124	2
125	4
126	3
127	2
128	2
129	2
135	1
136	1
137	1
138	2
139	2
140	2
141	6
142	3
143	3
151	1
152	1
153	2
154	2
155	4
156	1
158	9
159	1
165	1
166	1
167	1
168	1
169	2
170	1
171	10
172	2
180	1
181	1
183	1
185	3
194	1
196	1
199	1
208	3
211	1
213	2
222	2
225	2
226	1
227	3
228	2
236	1
241	1
252	1
253	1
254	1
256	1
264	3
265	1
267	1
278	1
279	1
280	2
281	5
282	3
295	3
296	1
306	4
307	2
308	4
309	2
323	1
352	2
353	2
362	1
364	10
365	3
366	2
377	2
378	1
379	6
380	3
381	4
