Mass Spectrum: Oxirane, (2-bromoethyl)-
Formula: C4H7BrO
CAS: 13287-42-8
Molecular weight: 150
m/z	intensity
25	4
26	46
27	218
28	34
29	146
30	8
31	153
37	20
38	40
39	322
40	46
41	704
42	58
43	111
44	84
45	12
48	3
50	5
51	8
52	7
54	12
56	44
57	12
58	62
59	11
60	10
69	7
70	6
71	999
73	5
75	5
76	3
77	3
79	8
80	8
81	8
82	5
91	5
93	31
94	12
95	26
96	8
101	4
103	3
105	3
106	3
107	17
108	3
109	16
119	5
120	27
121	6
122	26
123	3
134	4
135	24
136	3
137	25
138	2
150	1
151	1
152	1
153	1
