Mass Spectrum: Ethylenediamine-N,N'-dipropionic acid
Formula: C8H16N2O4
CAS: 13288-40-9
Molecular weight: 204
m/z	intensity
12	3
13	3
14	14
15	95
16	6
17	14
18	73
19	1
24	4
25	16
26	126
27	348
28	297
29	132
30	448
31	12
32	1
39	24
40	29
41	99
42	999
43	297
44	256
45	97
46	8
47	1
49	2
50	3
51	7
52	14
53	18
54	93
55	452
56	516
57	681
58	64
59	8
60	45
61	3
63	2
64	2
65	5
66	8
67	73
68	40
69	40
70	105
71	72
72	236
73	39
74	19
75	2
76	1
77	3
78	5
79	4
80	9
81	18
82	31
83	84
84	620
85	196
86	65
87	19
88	11
89	2
90	3
91	3
92	5
93	9
94	10
95	41
96	37
97	210
98	97
99	43
100	10
101	34
102	684
103	59
104	20
105	5
106	5
107	9
108	10
109	43
110	32
111	26
112	18
113	30
114	80
115	71
116	49
117	8
118	3
119	8
120	7
121	60
122	30
123	23
124	10
125	17
126	30
127	184
128	49
129	24
130	5
131	12
132	10
133	15
134	22
135	31
136	12
137	18
138	33
139	12
140	30
141	23
142	11
143	40
144	13
145	28
146	6
147	8
148	17
149	19
150	25
151	47
152	9
153	4
154	3
155	13
156	42
157	19
158	46
159	18
160	9
161	6
162	21
163	10
164	9
165	4
166	3
167	9
168	11
169	30
170	8
171	4
172	3
173	3
174	9
175	23
176	31
177	8
178	3
182	3
183	3
184	7
185	7
186	200
187	22
188	8
200	6
201	7
202	19
203	46
204	72
205	28
206	5
207	2
