Mass Spectrum: E-3,5-Dimethylhex-2-en-1,2-dicarboxylic acid
Formula: C10H16O4
CAS: 132885-53-1
Molecular weight: 200
m/z	intensity
26	29
27	404
29	188
30	3
31	27
37	3
38	25
39	395
40	90
41	742
42	66
43	999
44	30
45	47
50	35
51	93
52	64
53	155
54	42
55	267
56	95
57	92
58	11
59	71
60	7
62	12
63	19
64	7
65	93
66	82
67	336
68	147
69	180
70	47
71	22
72	7
73	15
74	5
77	94
78	21
79	66
80	16
81	58
82	17
83	132
84	36
85	66
86	3
87	8
91	64
92	9
93	244
94	89
95	237
96	89
97	541
98	54
99	45
100	8
101	34
105	8
107	23
108	45
109	93
110	13
111	115
112	738
113	54
114	31
115	253
116	17
121	52
122	26
123	127
124	14
125	26
126	16
127	14
129	7
136	39
137	14
138	34
139	404
140	315
141	27
153	3
154	141
155	18
156	10
157	18
167	187
168	18
182	84
183	12
