Mass Spectrum: 1,3-Pentadiene, 2,4-di-t-butyl-
Formula: C13H24
CAS: 132850-21-6
Molecular weight: 180
m/z	intensity
27	93
29	252
30	5
38	1
39	104
40	32
41	444
42	18
43	157
44	6
45	1
50	4
51	27
52	8
53	75
54	8
55	190
56	14
57	860
58	36
59	12
60	5
61	5
63	7
64	5
65	53
66	12
67	208
68	19
69	131
70	8
71	8
73	1
74	5
75	20
77	64
78	10
79	71
80	8
81	542
82	40
83	46
84	20
85	4
89	1
91	78
92	13
93	61
94	11
95	125
96	24
97	56
98	5
103	5
104	2
105	35
106	6
107	58
108	25
109	999
110	82
111	6
112	1
115	3
116	1
117	3
119	20
120	7
121	33
122	25
123	931
124	89
125	78
126	8
133	3
134	2
135	23
136	8
137	29
138	3
139	4
149	6
150	3
151	1
163	1
164	1
165	843
166	108
167	9
180	273
181	42
182	10
183	1
