Mass Spectrum: 5-Oxatricyclo[7.3.0.0(2,10)]dodeca-3,7-diene-4-carboxylic acid, 6-oxo-7-phenyl-, methyl ester
Formula: C19H18O4
CAS: 132911-15-0
Molecular weight: 310
m/z	intensity
38	6
39	220
40	30
41	246
42	13
43	48
44	38
45	11
50	26
51	132
52	59
53	400
54	21
55	194
56	6
57	10
59	215
62	11
63	104
64	27
65	226
66	117
67	666
68	50
69	18
70	8
71	9
74	11
75	30
76	82
77	436
78	135
79	235
80	53
81	243
82	30
87	13
88	22
89	180
90	55
91	692
92	75
93	197
94	95
95	39
96	18
97	20
101	23
102	237
103	186
104	41
105	385
106	40
107	40
108	12
109	7
111	18
113	23
114	41
115	999
116	167
117	251
118	94
119	33
120	22
121	132
122	11
125	18
126	36
127	150
128	314
129	242
130	40
131	55
132	12
133	33
138	8
139	110
140	81
141	868
142	726
143	113
144	53
145	60
146	10
149	7
150	9
151	44
152	229
153	197
154	128
155	198
156	139
157	147
158	56
159	18
161	17
162	6
163	18
164	35
165	395
166	157
167	430
168	93
169	98
170	269
171	138
172	44
173	52
174	14
175	25
176	26
177	37
178	201
179	176
180	87
181	130
182	46
183	48
184	67
185	134
186	33
187	49
188	10
189	74
190	38
191	47
192	29
193	112
194	202
195	456
196	94
197	21
198	5
199	11
200	41
201	28
202	56
203	53
204	48
205	186
206	48
207	65
208	33
209	34
210	8
212	11
213	11
215	345
216	58
217	12
218	12
219	7
220	5
221	115
222	272
223	431
224	88
225	15
227	9
231	28
232	54
233	94
234	36
235	36
236	13
237	7
239	11
241	17
243	18
244	17
245	18
249	45
250	300
251	337
252	63
253	9
254	40
255	8
260	29
261	8
263	6
264	23
265	11
266	6
267	6
277	7
278	34
279	6
282	389
283	76
284	8
292	8
310	315
311	64
312	7
