Mass Spectrum: 7-d-Ribopyranoside, 3-O-acetyl-2,4-O-(phenylborylene)-.beta.-d-ribopyranosyl, cyclic 2,4-(phenylboronate) 3-acetate
Formula: C26H28B2O11
CAS: 132970-09-3
Molecular weight: 538
m/z	intensity
26	1
27	7
29	9
30	0
31	4
37	0
38	0
39	10
40	9
41	18
42	5
43	999
44	25
45	10
47	0
50	2
51	6
52	3
53	5
54	2
55	31
56	2
57	13
58	1
59	0
60	6
61	3
63	0
65	1
66	0
67	2
68	10
69	78
70	6
71	9
72	1
73	8
74	1
75	1
76	1
77	13
78	8
79	4
80	1
81	4
82	1
83	3
84	1
85	13
86	8
87	16
88	1
89	5
90	4
91	17
92	1
93	0
94	0
95	2
96	2
97	61
98	16
99	22
100	2
101	4
102	1
103	15
104	27
105	66
106	4
107	0
109	0
110	1
111	5
112	10
113	10
114	1
115	14
116	3
117	13
118	2
119	1
120	0
121	6
122	1
123	1
124	2
125	1
126	0
127	5
128	3
129	11
130	3
131	8
132	1
133	2
134	0
135	0
136	0
137	0
138	1
139	7
140	14
141	20
142	3
143	5
144	2
145	14
146	44
147	31
148	3
149	2
150	0
151	0
152	1
153	5
154	4
155	10
156	2
157	38
158	146
159	641
160	67
161	10
162	1
163	3
164	5
165	6
166	0
167	1
169	0
170	2
171	208
172	884
173	170
174	20
175	10
176	3
177	3
178	0
179	2
180	0
181	1
182	1
183	2
184	0
185	2
186	2
187	8
188	15
189	46
190	6
191	1
192	0
193	0
195	0
196	0
197	1
198	1
199	7
200	26
201	93
202	15
203	3
204	0
205	1
206	1
207	1
208	2
209	1
211	0
212	0
213	3
214	5
215	12
216	15
217	55
218	14
219	12
220	1
223	0
224	0
225	0
226	0
227	0
228	0
229	1
230	2
231	10
232	2
233	2
234	1
235	2
236	0
237	1
239	0
241	0
242	3
243	14
244	2
245	1
246	0
247	1
248	1
249	2
250	0
251	1
252	0
253	0
254	0
255	1
256	0
257	0
258	0
259	2
260	24
261	94
262	15
263	2
264	0
267	1
268	3
269	1
271	0
275	0
276	6
277	25
278	5
279	1
285	0
286	0
287	0
288	0
289	2
290	1
291	3
292	1
293	4
294	0
295	1
296	0
297	2
298	0
302	1
303	3
304	0
305	0
307	0
309	1
310	7
311	7
312	9
313	4
314	3
315	1
317	0
319	0
320	2
321	1
328	0
329	0
330	0
331	0
333	0
340	0
341	1
345	1
346	0
347	0
349	0
355	2
356	11
357	4
358	1
359	1
372	0
373	1
374	1
375	0
388	0
400	1
401	4
402	0
416	0
417	0
418	2
419	6
420	1
431	2
432	5
433	1
460	2
461	5
462	1
478	0
479	0
