Mass Spectrum: Gentamicin a
Formula: C18H36N4O10
CAS: 13291-74-2
Molecular weight: 468
m/z	intensity
41	248
42	458
43	566
44	999
45	298
46	129
47	10
48	4
50	44
51	67
52	101
53	98
54	104
55	151
56	183
57	167
58	169
59	260
60	111
61	26
62	16
63	28
64	29
65	56
66	89
67	105
68	132
69	77
70	137
71	172
72	137
73	162
74	70
75	22
76	17
77	42
78	31
79	48
80	109
81	57
82	64
83	47
84	107
85	58
86	156
87	44
88	21
89	17
90	16
91	26
92	41
93	186
94	134
95	60
96	49
97	43
98	65
99	22
100	35
101	41
102	41
103	17
104	107
105	19
106	61
107	32
108	104
109	165
110	101
111	48
112	64
113	38
114	17
115	25
116	15
117	33
118	58
119	23
120	20
121	19
122	24
123	37
124	64
125	74
126	65
127	80
128	48
129	18
130	119
131	47
132	23
133	26
134	20
135	18
136	15
137	14
138	17
139	15
140	21
141	82
142	15
143	14
144	33
145	123
146	147
147	42
148	20
149	22
150	11
151	8
152	12
153	6
154	24
155	13
156	6
157	8
158	13
159	9
160	17
161	19
162	64
163	64
164	25
165	5
168	6
169	10
170	5
171	16
172	12
173	25
174	6
175	13
176	8
177	7
184	5
185	7
186	7
187	8
188	5
189	5
190	5
191	74
192	6
199	5
203	5
204	39
205	15
206	5
213	4
217	5
218	5
225	4
233	4
245	5
246	27
290	14
291	15
336	7
