Mass Spectrum: trans-1,2-Diaminocyclohexane-N,N,N',N'-tetraacetic acid
Formula: C14H22N2O8
CAS: 13291-61-7
Molecular weight: 346
m/z	intensity
12	56
13	9
14	25
15	165
16	60
17	68
18	140
19	4
24	1
25	1
26	14
27	178
28	255
29	87
30	200
31	97
32	10
35	2
36	2
37	5
38	13
39	198
40	46
41	405
42	999
43	91
44	234
45	52
46	7
47	1
48	1
49	1
50	10
51	27
52	25
53	124
54	140
55	142
56	136
57	55
58	127
59	25
60	36
61	4
62	2
63	12
64	6
65	25
66	21
67	113
68	129
69	39
70	98
71	73
72	15
73	4
74	11
75	6
76	14
77	42
78	16
79	92
80	64
81	222
82	119
83	50
84	94
85	37
86	14
87	2
88	51
89	9
90	8
91	15
92	9
93	11
94	44
95	35
96	75
97	66
98	53
99	13
100	6
101	8
102	13
103	6
104	7
105	4
106	9
107	8
108	46
109	69
110	172
111	51
112	65
113	9
114	11
115	5
116	8
117	6
118	9
119	3
120	8
121	5
122	26
123	23
124	53
125	36
126	19
127	11
128	9
129	14
130	6
131	9
132	5
133	4
134	4
135	7
136	8
137	37
138	17
139	39
140	9
141	20
142	9
143	4
144	4
145	9
146	9
147	9
148	3
149	5
150	3
151	26
152	14
153	70
154	31
155	17
156	44
157	6
158	4
159	9
160	7
161	28
162	7
163	3
164	2
165	14
166	7
167	27
168	32
169	19
170	15
171	4
172	2
173	5
174	3
175	21
176	5
177	1
178	4
179	5
180	6
181	130
182	45
183	46
184	5
185	6
186	2
187	4
188	1
189	9
190	8
191	5
192	2
193	1
194	2
195	11
196	5
197	67
198	10
199	2
200	1
201	5
202	8
203	3
204	7
205	2
206	2
207	2
208	2
209	3
210	4
211	9
212	4
213	2
214	4
215	2
216	5
217	3
218	1
219	2
220	1
221	1
223	2
224	6
225	283
226	83
227	30
228	3
229	1
230	1
231	1
232	1
237	2
238	4
239	2
240	4
241	14
242	2
243	1
245	2
252	1
253	2
257	1
260	1
262	1
269	2
270	6
271	6
272	1
284	1
