Mass Spectrum: 2-Naphthol, 1-(N-benzylformimidoyl)-
Formula: C18H15NO
CAS: 13293-99-7
Molecular weight: 261
m/z	intensity
37	16
38	70
39	356
41	108
43	14
44	5
50	224
51	318
52	77
53	2
62	118
63	266
64	4
65	628
66	23
67	2
68	1
75	97
76	112
77	193
78	86
79	23
80	2
89	186
90	30
91	999
92	70
93	3
94	0
101	27
102	29
103	14
104	54
105	18
106	4
107	3
108	0
110	5
111	5
113	78
114	134
115	365
116	39
117	16
118	1
126	42
127	65
128	71
129	13
130	9
131	0
139	9
140	37
141	29
142	27
143	34
144	6
145	0
151	4
152	26
153	7
154	10
155	4
156	15
157	24
158	8
159	0
169	27
170	132
171	12
172	1
173	0
183	6
184	19
185	2
187	0
244	7
245	1
260	48
261	63
262	12
263	1
