Mass Spectrum: Indole-2(3H)-one, 1-methyl-3,3'-spiro(2-phenylpyrrolidine)-
Formula: C18H18N2O
CAS: 132962-61-9
Molecular weight: 278
m/z	intensity
39	13
40	12
41	13
42	6
43	3
44	6
45	0
50	6
51	17
52	6
53	1
54	1
55	2
56	1
57	2
58	1
60	0
61	0
62	3
63	14
64	7
65	16
66	2
67	0
68	0
69	1
70	1
71	1
72	0
74	3
75	6
76	9
77	41
78	12
79	5
80	1
82	0
83	2
84	1
85	0
86	1
87	2
88	3
89	44
90	30
91	88
92	9
93	2
95	2
96	1
97	1
98	0
99	0
100	0
101	4
102	13
103	25
104	17
105	9
106	3
107	1
109	2
110	1
111	0
112	1
113	1
114	3
115	27
116	15
117	67
118	999
119	447
120	38
121	2
122	0
123	1
124	0
125	1
127	4
128	12
129	6
130	78
131	27
132	40
133	5
134	0
135	0
137	0
138	0
139	14
140	3
141	1
142	5
143	11
144	31
145	14
146	10
147	14
148	3
149	2
150	1
151	2
152	3
153	1
154	1
155	0
156	1
157	2
158	43
159	33
160	200
161	23
162	2
163	3
164	2
165	5
166	1
167	1
168	0
169	0
170	1
171	5
172	14
173	27
174	10
175	2
176	3
177	1
178	3
179	1
180	1
181	0
182	0
183	0
184	0
185	1
187	1
188	1
189	3
190	2
191	1
192	1
193	1
194	0
195	0
198	0
199	0
200	0
201	0
202	0
203	1
204	5
205	2
206	2
207	1
208	0
210	0
214	0
216	2
217	3
218	3
219	1
220	2
221	0
222	1
223	0
224	0
225	0
229	0
230	0
231	0
232	1
233	1
234	6
235	7
236	1
240	0
241	0
244	0
245	0
246	0
247	0
248	1
249	2
250	5
251	0
259	0
260	0
261	1
263	0
269	0
275	0
276	3
277	3
278	444
279	98
280	10
281	0
283	0
