Mass Spectrum: Cycloheptene, 1-chloro-
Formula: C7H11Cl
CAS: 13294-30-9
Molecular weight: 130
m/z	intensity
25	2
26	40
27	352
28	153
29	147
30	2
31	3
33	0
35	1
36	11
37	14
38	46
39	474
40	77
41	395
42	101
43	17
44	4
45	35
46	19
47	2
49	20
50	41
51	102
52	67
53	370
54	609
55	335
56	41
57	4
58	1
60	1
61	15
62	22
63	42
64	11
65	171
66	66
67	616
68	272
69	30
70	12
71	0
72	0
73	17
74	4
75	32
76	10
77	106
78	23
79	292
80	34
81	214
82	15
83	9
84	14
85	1
86	1
87	5
88	273
89	51
90	86
91	59
92	6
93	74
94	71
95	999
96	77
97	5
98	1
99	2
100	2
101	22
102	98
103	12
104	30
105	2
108	0
109	0
115	12
116	0
117	4
129	0
130	260
131	32
132	89
133	9
135	2
