Mass Spectrum: 2-Butenedioic acid, 2,3-dihydroxy-, (E)-
Formula: C4H4O6
CAS: 133-38-0
Molecular weight: 148
m/z	intensity
12	10
13	5
14	12
15	9
16	2
17	1
18	4
24	2
25	4
26	5
27	4
28	84
29	299
30	106
31	255
32	78
33	2
34	3
36	2
39	1
40	8
41	21
42	96
43	16
44	999
45	106
46	125
47	12
48	2
52	2
53	3
54	1
55	4
56	19
57	3
58	131
59	26
60	113
61	5
62	1
63	2
64	32
65	1
68	4
69	9
70	3
71	3
72	2
73	2
74	89
75	26
76	25
77	2
79	1
80	2
81	1
82	2
83	1
84	2
85	17
86	3
87	16
88	2
89	1
92	17
93	1
97	1
99	1
100	1
101	1
102	25
103	41
104	83
105	6
106	1
114	1
115	1
117	1
120	3
130	1
131	1
148	58
149	5
150	1
