Mass Spectrum: Benzoic acid, 2-[(4-chlorophenyl)azo]-
Formula: C13H9ClN2O2
CAS: 13304-24-0
Molecular weight: 260
m/z	intensity
39	120
50	220
51	200
63	120
64	90
65	420
66	50
74	90
75	500
76	220
77	140
93	250
111	999
112	100
113	370
114	50
121	370
122	40
139	600
140	60
141	240
149	130
151	30
152	210
153	40
181	90
215	80
216	50
232	20
234	20
260	420
261	70
262	160
