Mass Spectrum: .alpha.-Hydroxystearic acid
Formula: C18H36O3
CAS: 1330-70-7
Molecular weight: 300
m/z	intensity
41	677
42	165
43	999
44	211
45	270
46	8
47	8
48	5
50	49
51	86
53	47
54	82
55	682
56	178
57	809
58	76
59	29
60	83
61	23
64	7
65	11
66	29
67	227
68	171
69	673
70	166
71	365
72	35
73	128
74	20
75	9
76	392
77	20
78	10
79	40
80	71
81	230
82	257
83	476
84	120
85	209
86	32
87	40
88	6
89	157
90	6
91	29
92	5
93	18
94	18
95	226
96	182
97	416
98	151
99	72
100	74
101	30
107	7
109	115
110	68
111	189
112	56
113	325
114	93
115	30
116	13
118	16
121	6
122	5
123	50
124	49
125	76
126	22
127	160
128	9
129	56
131	109
135	6
137	43
138	84
139	32
140	19
141	153
142	21
143	12
145	24
151	25
152	24
153	16
154	17
155	20
156	79
157	16
168	6
169	29
170	42
171	19
183	7
185	35
199	88
208	8
210	60
211	10
219	33
223	10
227	12
236	24
238	7
241	59
242	15
253	15
255	300
256	59
264	19
270	6
272	9
282	67
283	15
284	106
285	15
300	831
301	172
302	14
