Mass Spectrum: 5(4H)-Oxazolone, 4-methyl-2-phenyl-
Formula: C10H9NO2
CAS: 13302-43-7
Molecular weight: 175
m/z	intensity
12	10
13	13
14	56
15	325
16	11
17	9
18	17
19	1
24	1
25	16
26	171
27	284
28	248
29	45
30	2
31	2
35	5
36	3
37	41
38	87
39	117
40	73
41	91
42	132
43	42
44	15
45	47
46	1
47	4
49	29
50	268
51	535
52	63
54	6
55	10
56	3
57	1
58	1
60	5
61	11
62	21
63	29
64	11
65	8
66	6
67	1
68	0
70	17
71	1
72	1
73	13
74	64
75	60
76	143
77	696
78	52
79	3
80	0
81	0
82	0
83	0
84	5
85	2
86	5
87	3
88	3
89	5
90	2
91	4
92	1
93	1
94	2
95	0
98	0
99	2
100	1
101	1
103	174
104	128
105	999
106	83
107	6
108	2
114	0
115	0
116	1
117	1
118	1
119	1
120	0
122	44
123	4
124	0
125	0
126	0
127	0
128	1
130	133
131	245
132	25
133	1
147	40
148	7
149	1
150	1
151	0
152	0
153	0
155	0
160	0
162	1
163	0
164	0
175	131
176	19
177	1
178	0
