Mass Spectrum: Acetamide, N-(2,3-dihydro-4,6-dihydroxy-2-thioxo-5-pyrimidyl)-
Formula: C6H7N3O3S
CAS: 133030-24-7
Molecular weight: 201
m/z	intensity
33	14
34	3
39	23
40	34
41	62
43	999
44	209
45	98
46	12
47	11
48	2
50	0
51	10
52	12
53	25
54	45
55	26
56	11
57	15
58	24
59	112
60	108
61	16
62	13
63	2
64	1
65	5
67	8
68	10
69	37
70	22
71	48
72	159
73	9
74	1
75	0
76	24
77	3
78	2
79	6
80	13
81	7
82	11
83	3
84	6
86	41
87	5
88	0
89	2
91	1
93	2
94	1
95	0
96	2
97	2
98	5
99	7
100	75
101	5
102	1
103	12
104	10
105	0
114	13
115	1
116	1
117	0
121	6
124	0
125	1
126	0
127	3
130	19
131	6
142	23
143	1
158	20
159	179
160	10
161	8
162	2
201	164
202	13
203	8
