Mass Spectrum: 4'-Methylazobenzene-2-carboxylic acid
Formula: C14H12N2O2
CAS: 13304-23-9
Molecular weight: 240
m/z	intensity
17	8
18	2
26	1
27	6
28	7
31	1
37	1
38	5
39	54
40	3
41	15
43	1
44	12
45	2
50	14
51	32
52	13
53	7
54	1
55	1
57	1
61	1
62	5
63	25
64	13
65	208
66	11
67	1
69	1
71	1
74	3
75	6
76	21
77	59
78	12
79	5
80	1
83	1
87	1
88	1
89	24
90	17
91	999
92	95
93	63
94	5
97	1
102	1
103	1
104	33
105	17
106	15
107	10
108	1
112	2
115	5
116	2
117	1
118	3
119	578
120	50
121	124
122	9
123	1
126	1
127	2
128	4
129	2
133	1
137	1
139	3
140	1
141	5
142	1
149	20
150	2
151	5
152	48
153	9
154	3
155	3
156	2
163	2
164	2
165	55
166	21
167	21
168	9
169	3
179	2
180	3
181	43
182	6
183	2
184	3
193	5
194	6
195	43
196	55
197	19
198	3
209	2
211	12
212	10
213	1
223	16
224	80
225	11
226	1
239	1
240	362
241	60
242	6
