Mass Spectrum: 4-Methyl-2-pyrazolin-5-one
Formula: C4H6N2O
CAS: 13315-23-6
Molecular weight: 98
m/z	intensity
41	123
42	111
43	87
44	70
45	9
48	7
49	10
50	10
51	35
52	101
53	61
54	150
55	56
56	5
57	1
58	3
60	1
66	5
67	15
68	37
69	131
70	46
71	28
72	1
77	1
79	9
80	7
81	23
82	5
84	1
96	0
97	999
98	892
99	77
100	5
