Mass Spectrum: O-Benzoylsalicylamide
Formula: C14H11NO3
CAS: 13316-79-5
Molecular weight: 241
m/z	intensity
41	6
43	6
44	11
45	1
47	1
49	7
50	46
51	146
52	18
53	25
54	2
55	6
56	1
57	3
61	2
62	11
63	48
64	43
65	95
66	10
67	2
68	0
69	3
70	8
71	2
73	1
74	11
75	12
76	24
77	426
78	28
79	3
80	15
81	5
82	1
83	2
84	4
86	3
89	1
90	6
91	10
92	82
93	28
94	3
97	1
102	3
103	1
105	999
106	69
107	3
108	4
109	1
111	0
115	1
119	4
120	56
121	52
122	4
123	0
137	1
139	2
142	0
197	2
225	1
241	136
242	21
243	2
