Mass Spectrum: Flutamide
Formula: C11H11F3N2O3
CAS: 13311-84-7
Molecular weight: 276
m/z	intensity
41	112
42	23
43	907
44	28
45	1
50	4
51	3
52	12
53	7
54	1
55	22
56	6
57	9
58	1
61	2
62	12
63	58
64	9
65	6
66	2
67	1
68	2
69	22
70	233
71	999
72	41
73	2
74	6
75	24
76	3
77	2
78	3
79	3
80	2
81	11
82	3
83	7
84	1
85	1
86	1
87	3
88	7
89	5
90	6
91	5
92	1
93	5
94	9
95	3
96	1
99	5
100	2
101	6
102	1
105	2
106	2
107	1
108	8
109	6
110	2
112	7
113	19
114	4
117	2
118	3
119	1
120	7
121	2
122	1
125	6
126	4
127	3
128	8
129	3
130	1
131	5
132	40
133	11
134	1
138	5
139	15
140	13
141	1
142	1
143	23
144	13
145	1
146	3
147	1
148	5
149	1
156	12
157	2
158	6
159	11
160	53
161	7
166	2
174	6
175	4
176	51
177	4
186	23
187	66
188	6
189	1
190	68
191	6
201	4
202	3
203	1
205	1
206	21
207	2
215	2
233	19
234	1
238	1
246	8
247	3
248	1
260	7
261	2
262	1
276	105
277	14
278	1
