Mass Spectrum: 2-Phenyl-4-(hydroxymethyl)-5-methyl-2H-1,2,3-triazole
Formula: C10H11N3O
CAS: 13322-19-5
Molecular weight: 189
m/z	intensity
27	35
28	9
29	26
31	35
38	35
39	69
40	68
41	44
42	41
43	8
44	17
50	31
51	147
52	35
56	13
62	10
63	71
64	210
65	76
66	12
75	8
76	8
77	282
78	24
84	20
90	19
91	999
92	120
93	14
94	8
103	27
104	10
105	22
132	27
160	139
161	15
171	63
172	81
173	15
174	11
187	22
188	107
189	869
190	101
