Mass Spectrum: 1,3-Dimethyl-6-phenylpiperidin-4-one
Formula: C13H17NO
CAS: 133201-62-4
Molecular weight: 203
m/z	intensity
39	16
40	3
41	27
42	96
43	16
44	53
45	3
50	10
51	27
52	10
53	5
54	7
55	30
56	21
57	13
58	4
62	3
63	12
64	3
65	19
66	8
67	5
68	16
69	19
70	160
71	27
72	6
73	11
74	8
75	6
76	12
77	93
78	80
79	11
80	3
81	8
82	17
83	12
84	24
85	7
87	7
88	2
89	13
90	8
91	75
92	9
93	3
94	6
95	7
96	6
97	9
98	17
99	8
101	3
102	22
103	120
104	999
105	98
106	5
107	4
108	4
109	5
110	5
111	10
112	5
113	4
115	10
116	9
117	37
118	390
119	140
120	21
123	3
124	11
125	18
126	430
127	58
128	24
129	8
130	12
131	52
132	77
133	16
134	2
137	2
138	6
140	2
141	9
142	18
143	6
144	11
145	26
146	35
147	6
155	3
156	2
157	3
158	18
159	12
160	210
161	31
162	2
168	2
170	2
172	4
173	3
174	4
186	10
187	3
188	20
189	4
200	2
201	20
202	98
203	560
204	81
205	6
