Mass Spectrum: 6-(1,1-Dimethylethyl)-dihydropyran-2,4-dione
Formula: C9H14O3
CAS: 133286-44-9
Molecular weight: 170
m/z	intensity
12	1
13	3
14	30
15	100
16	3
17	9
18	32
19	0
24	0
25	1
26	16
27	170
28	43
29	245
30	6
31	12
32	0
33	0
37	3
38	11
39	152
40	27
41	451
42	213
43	272
44	17
45	26
46	0
49	0
50	7
51	13
52	5
53	29
54	6
55	67
56	46
57	999
58	57
59	4
60	1
61	0
62	1
63	2
64	0
65	4
66	1
67	13
68	5
69	79
70	11
71	177
72	7
73	1
74	0
75	0
76	0
77	2
78	0
79	1
80	0
81	1
82	1
83	5
84	9
85	7
86	22
87	6
88	0
89	0
91	1
92	0
93	1
94	0
95	1
96	0
97	1
98	0
99	0
103	0
104	0
105	0
107	0
109	1
110	0
111	6
113	54
114	25
115	69
116	3
117	0
124	0
125	0
126	0
127	1
128	0
129	0
135	0
137	4
138	0
139	0
142	9
143	1
153	0
154	0
155	3
156	0
170	10
171	3
172	0
