Mass Spectrum: 1H,3H-Pyrrolo[1,2-c][1,3,2]oxazaborole, 1-methyl-tetrahydro-3,3-diphenyl-
Formula: C18H20BNO
CAS: 133261-83-3
Molecular weight: 277
m/z	intensity
26	4
27	7
30	2
39	9
40	0
41	9
42	3
43	12
45	1
50	1
51	9
52	3
53	3
54	5
57	1
63	7
64	1
65	6
66	9
67	26
68	7
69	5
70	999
71	48
75	2
76	6
77	28
78	8
81	3
82	35
83	43
87	1
88	2
89	12
90	3
91	16
92	2
94	2
95	4
96	19
97	1
98	2
101	4
102	11
103	22
104	19
105	12
106	1
109	4
110	5
111	1
113	2
114	1
115	17
116	7
117	4
118	1
123	1
124	1
126	2
127	6
128	12
129	7
130	20
131	22
132	2
137	2
138	7
139	15
140	2
141	1
143	1
144	2
150	1
151	4
152	15
153	3
154	2
155	1
156	6
157	1
158	5
162	1
163	18
164	25
165	369
166	385
167	338
168	44
169	3
170	6
171	14
172	6
173	1
176	5
177	4
178	22
179	13
180	3
182	1
183	1
185	1
186	2
187	1
189	3
190	3
191	7
192	5
193	12
194	2
198	2
199	7
200	10
201	1
202	2
203	2
204	6
205	5
206	33
207	38
208	46
209	7
217	1
218	3
219	1
232	2
233	3
234	18
235	14
236	2
247	6
248	29
249	8
261	2
262	5
275	3
276	106
277	383
278	74
279	8
