Mass Spectrum: 2-Phenyl-4-(cyanomethyl)-5-methyl-2H-1,2,3-triazole
Formula: C11H10N4
CAS: 13322-20-8
Molecular weight: 198
m/z	intensity
26	8
27	29
28	9
29	12
37	8
38	35
39	58
40	56
41	41
42	20
44	12
50	27
51	121
52	33
62	9
63	68
64	191
65	43
66	19
67	8
75	6
76	7
77	151
78	14
90	18
91	999
92	71
93	39
99	24
103	15
105	20
132	26
171	26
172	38
173	6
197	11
198	767
199	103
200	5
