Mass Spectrum: Imidazole, 1-benzyl-2-(4-nitrophenyl)thio-
Formula: C16H13N3O2S
CAS: 133303-74-9
Molecular weight: 311
m/z	intensity
33	2
34	2
35	2
36	4
37	13
38	34
39	176
40	52
41	174
42	44
43	149
44	46
46	29
47	2
48	1
50	126
51	89
52	47
53	24
55	102
57	156
58	16
59	10
60	4
61	8
62	23
63	107
65	302
66	14
67	11
69	88
70	54
71	49
72	26
73	12
74	40
75	53
76	48
77	48
78	15
79	11
80	11
81	13
82	31
83	27
84	27
85	12
86	4
87	7
89	53
91	999
92	68
93	12
94	9
95	8
96	9
97	12
98	10
99	9
100	6
101	7
102	9
103	23
104	14
105	6
106	7
107	12
108	23
109	7
111	16
112	15
113	9
114	3
115	6
116	7
117	5
119	10
120	30
121	10
122	7
123	5
124	4
125	6
126	1
127	9
128	5
129	12
130	6
131	5
132	6
134	8
135	4
136	2
137	0
138	1
139	1
140	0
141	1
142	1
143	2
144	1
146	5
147	10
148	2
149	2
150	0
151	1
152	5
153	3
154	2
155	3
156	3
157	14
158	2
159	1
160	2
161	1
162	1
163	2
164	0
165	6
166	5
167	1
168	0
169	0
170	1
171	23
173	30
174	39
175	5
176	2
177	0
179	0
180	0
181	3
182	3
183	0
184	0
185	0
187	2
188	1
189	4
190	3
191	0
192	1
193	0
195	0
196	0
197	0
199	0
203	9
204	1
205	0
206	0
207	4
208	0
210	0
211	0
212	22
213	2
214	0
218	0
219	1
220	5
221	0
222	0
225	0
227	0
230	0
231	0
232	0
233	0
234	0
235	0
236	0
237	0
239	0
241	0
245	0
248	0
254	0
255	0
256	0
262	0
264	0
265	1
266	0
269	0
277	0
278	2
279	0
280	0
281	2
282	0
283	3
284	0
288	1
290	0
298	0
301	0
308	1
310	16
311	49
312	8
313	2
314	0
