Mass Spectrum: 5-Hydroxy-1-phenyl-1H-1,2,3-triazole-4-carboxanilide
Formula: C15H12N4O2
CAS: 133346-51-7
Molecular weight: 280
m/z	intensity
36	5
39	329
40	37
41	32
42	7
44	16
45	2
46	2
51	553
54	19
55	2
56	1
57	1
60	6
61	31
63	81
65	418
66	97
67	12
69	44
71	2
72	3
74	54
77	999
80	2
84	3
85	2
87	5
88	12
89	24
93	761
98	1
99	3
100	6
101	9
104	418
105	41
106	3
113	2
114	2
115	5
116	3
117	7
119	57
120	20
121	4
126	2
127	4
129	8
130	30
132	97
133	44
134	4
140	1
142	1
144	2
145	2
146	4
147	8
151	1
152	3
153	2
154	1
155	1
156	3
157	4
159	34
160	13
167	1
168	2
177	2
178	3
179	6
180	9
181	1
192	2
193	3
194	11
195	16
196	4
205	3
206	1
223	6
275	1
277	2
278	3
280	19
281	2
