Mass Spectrum: Tetrazolo[1,5-a]pyrazine
Formula: C4H3N5
CAS: 13349-87-6
Molecular weight: 121
m/z	intensity
38	160
39	430
40	190
41	88
42	16
51	50
52	100
53	180
65	60
66	999
67	60
92	30
93	440
94	26
121	50
122	10
