Mass Spectrum: 4-Indancarboxylic acid, 5,6,7,7a-tetrahydro-7a-methyl-5-oxo-
Formula: C11H14O3
CAS: 13349-21-8
Molecular weight: 194
m/z	intensity
41	434
43	26
44	999
50	53
51	184
52	79
53	197
54	21
55	158
63	66
65	105
66	58
67	79
77	250
78	79
79	705
80	100
81	26
91	250
92	39
93	316
94	263
95	816
96	39
105	21
106	21
107	303
108	303
109	21
121	118
122	605
123	39
135	84
150	303
151	26
