Mass Spectrum: 9H-Xanthene-9-carboxylic acid, 2-[bis(1-methylethyl)amino]ethyl ester
Formula: C22H27NO3
CAS: 13347-41-6
Molecular weight: 353
m/z	intensity
18	1
27	9
29	2
30	57
31	1
38	1
39	5
40	1
41	32
42	30
43	59
44	56
45	2
50	2
51	4
52	1
53	1
54	3
55	4
56	31
57	8
58	7
62	1
63	4
64	1
68	3
69	3
70	66
71	11
72	106
73	5
74	2
75	4
76	6
77	7
78	1
82	1
83	1
84	27
85	13
86	16
87	3
88	3
89	2
90	4
98	11
99	4
100	2
101	3
102	4
103	1
110	1
111	1
112	12
113	1
114	999
115	85
116	3
125	2
126	12
127	36
128	14
129	1
130	1
139	1
142	1
149	1
150	11
151	30
152	94
153	13
154	1
155	1
165	1
169	1
179	3
180	11
181	492
182	71
183	6
194	1
195	1
197	1
207	1
208	1
223	4
224	1
225	1
253	2
296	2
338	89
339	21
340	3
352	1
353	7
354	2
