Mass Spectrum: Bicyclo[5.3.1]undecan-11-one
Formula: C11H18O
CAS: 13348-11-3
Molecular weight: 166
m/z	intensity
39	260
41	402
53	69
54	239
55	434
67	360
68	173
69	104
70	52
79	56
80	26
81	291
82	152
83	86
84	54
95	230
96	147
97	152
98	999
99	52
108	34
109	150
110	165
111	860
112	65
138	34
139	21
166	400
167	41
