Mass Spectrum: 3-Ethoxy-2-bromo-1-propanol
Formula: C5H11BrO2
CAS: 133532-45-3
Molecular weight: 182
m/z	intensity
41	40
42	12
43	60
45	6
49	5
59	999
60	45
61	8
69	2
79	1
81	1
87	7
93	9
95	8
120	5
122	5
137	36
139	40
167	7
169	7
