Mass Spectrum: 1-(3-Tributylstannyloxiran-2-yl)pentan-1-ol, TBDMS derivative
Formula: C25H54O2SiSn
CAS: 133589-28-3
Molecular weight: 534
m/z	intensity
26	14
27	135
28	11
29	319
39	110
40	14
41	319
42	28
43	201
44	18
45	58
47	48
51	12
53	24
55	116
56	36
57	309
58	43
59	237
60	21
61	53
67	17
69	33
71	14
72	11
73	999
74	76
75	501
76	40
77	47
83	22
85	70
87	17
89	18
95	23
97	11
99	35
101	68
103	24
105	11
111	15
113	16
115	162
116	20
117	44
118	38
119	93
120	51
121	113
123	40
125	20
129	200
130	52
131	116
133	23
135	35
137	21
141	21
143	111
144	17
145	51
147	13
149	21
152	23
153	17
155	17
157	10
159	9
161	12
163	11
171	12
173	44
174	22
175	146
176	79
177	223
178	68
179	205
181	56
183	36
187	475
188	76
189	25
191	65
192	38
193	96
194	46
195	126
196	13
197	36
199	27
201	142
202	27
205	17
207	40
208	22
209	62
210	17
211	51
213	25
215	14
221	15
223	23
225	32
229	25
231	78
232	51
233	121
234	55
235	170
236	16
237	24
239	32
247	13
249	23
251	30
254	24
255	12
257	12
263	12
265	26
266	13
267	36
268	12
269	29
271	13
277	11
279	20
281	25
287	49
288	32
289	98
290	43
291	123
292	16
293	18
295	21
305	10
307	17
309	25
311	20
313	30
315	19
323	6
345	6
361	9
363	15
365	20
419	4
421	4
473	14
474	10
475	24
476	18
477	32
478	11
479	7
481	6
