Mass Spectrum: Z,Z-6,26-Pentatriacontadien-2-one
Formula: C35H66O
CAS: 133530-17-3
Molecular weight: 502
m/z	intensity
51	12
52	49
53	318
55	999
56	196
57	410
58	159
59	76
60	7
65	25
66	40
67	598
68	371
69	718
70	144
71	498
72	39
77	22
78	23
79	162
80	405
81	595
82	466
83	603
84	160
85	182
86	15
87	7
91	52
92	29
93	128
94	273
95	538
96	409
97	623
98	118
99	59
100	13
103	6
105	25
106	39
107	121
108	136
109	303
110	166
111	324
112	90
113	26
114	5
117	7
119	21
120	24
121	152
122	109
123	154
124	105
125	589
126	55
127	18
128	6
133	11
134	23
135	174
136	82
137	126
138	68
139	49
140	13
141	11
147	34
148	17
149	75
150	45
151	45
152	41
153	21
154	15
155	9
161	7
162	17
163	45
164	18
165	43
166	29
167	12
168	8
175	6
176	10
177	9
178	12
179	22
180	23
181	10
183	8
189	15
191	8
192	17
193	17
194	18
197	6
203	8
205	18
207	54
208	23
210	5
217	7
219	10
220	9
221	14
222	19
223	10
233	12
234	9
235	12
236	26
237	9
245	6
247	11
248	15
249	23
250	28
251	8
261	15
262	12
263	17
264	21
274	5
275	17
276	20
277	23
278	30
279	11
281	10
287	9
289	20
290	20
291	19
292	21
294	5
303	27
304	27
305	20
306	21
307	6
315	6
317	28
318	22
319	33
320	27
321	9
329	9
330	11
331	47
332	30
333	27
334	25
335	7
343	9
344	11
345	32
346	21
347	28
348	30
349	10
357	19
358	14
359	29
360	18
361	41
362	30
363	8
366	7
371	15
372	12
373	33
374	19
375	31
376	38
377	8
385	16
386	12
387	21
388	18
389	34
390	29
391	11
399	12
400	7
401	36
402	22
403	45
404	22
405	12
406	5
413	11
414	9
415	28
416	23
417	26
418	12
419	12
420	11
421	6
427	12
429	17
430	6
431	29
432	17
433	9
441	9
443	9
444	217
445	70
446	14
447	13
455	10
457	6
459	28
460	14
469	8
473	11
474	9
483	6
484	228
485	89
486	17
487	29
488	10
501	7
502	294
503	114
504	29
