Mass Spectrum: 1,5-Dibromo-3-methylpent-2-ene
Formula: C6H10Br2
CAS: 133545-67-2
Molecular weight: 240
m/z	intensity
25	1
26	32
27	255
28	20
29	84
30	2
31	0
35	0
36	3
37	7
38	26
39	268
40	58
41	501
42	36
43	19
44	3
45	0
48	0
49	5
50	54
51	101
52	62
53	340
54	50
55	441
56	28
57	11
58	0
59	0
60	0
61	3
62	7
63	18
64	4
65	78
66	51
67	226
68	42
69	12
70	3
71	7
72	0
73	1
74	3
75	4
76	1
77	52
78	10
79	199
80	41
81	999
82	101
83	37
84	3
85	3
86	0
87	0
88	0
89	2
91	11
92	1
93	15
94	1
95	14
96	1
97	3
98	1
99	1
100	0
101	0
102	0
103	0
104	0
105	2
106	2
107	26
108	2
109	22
110	0
111	1
112	0
113	0
114	1
115	3
116	0
117	1
118	0
119	70
120	2
121	68
122	2
123	1
124	0
125	0
126	0
127	0
128	0
129	1
130	0
131	2
132	0
133	34
134	2
135	33
136	2
137	1
138	0
139	0
140	0
141	3
142	2
143	4
144	0
145	0
146	0
155	1
159	1
160	26
161	620
162	79
163	607
164	49
165	4
240	12
241	1
242	23
243	1
244	11
245	0
