Mass Spectrum: 7,12-Dithiabenzo[9,10]spiro[4.8]tridec-9-ene
Formula: C15H20S2
CAS: 133560-56-2
Molecular weight: 264
m/z	intensity
26	0
27	31
28	12
29	22
32	1
38	0
39	61
40	10
41	111
42	5
43	4
44	1
45	61
46	9
47	26
48	0
50	4
51	24
52	15
53	59
54	17
55	50
56	4
57	4
58	6
59	12
60	2
61	5
62	0
63	12
64	3
65	40
66	9
67	101
68	11
69	11
70	1
71	14
72	3
73	10
74	1
75	4
76	7
77	106
78	183
79	71
80	15
81	70
82	5
83	1
84	2
85	16
86	2
87	3
89	18
90	9
91	167
92	14
93	33
94	14
95	518
96	39
97	7
98	1
99	5
101	1
102	24
103	168
104	999
105	124
106	5
108	2
109	1
110	0
111	1
112	4
113	3
114	2
115	15
116	4
117	12
118	1
121	8
122	3
123	4
125	2
126	0
127	7
128	6
129	7
130	0
132	0
133	4
134	106
135	965
136	130
137	61
138	5
141	2
147	3
148	3
149	19
150	2
151	1
153	1
159	21
160	593
161	56
162	54
163	3
167	5
168	28
169	3
170	1
178	2
183	1
185	1
217	2
231	2
264	443
265	78
266	44
267	6
