Mass Spectrum: 8,9-Benzo-2,6,8-trithiaspiro[3.8]dodec-8-ene
Formula: C13H16S3
CAS: 133560-55-1
Molecular weight: 268
m/z	intensity
27	19
28	6
29	2
32	1
38	1
39	50
40	7
41	18
42	0
43	2
44	1
45	99
46	24
47	26
48	1
50	5
51	24
52	14
53	26
54	12
55	6
57	2
58	12
59	14
60	3
61	3
62	1
63	12
64	3
65	31
66	3
67	8
68	4
69	6
70	1
71	26
72	11
73	7
74	1
75	3
76	6
77	56
78	128
79	12
82	0
83	1
84	8
85	92
86	11
87	8
88	1
89	15
90	7
91	89
92	7
93	0
95	0
97	13
98	6
99	72
100	8
101	5
102	19
103	123
104	999
105	98
106	4
108	1
109	1
111	0
115	7
116	3
117	26
118	15
119	2
120	1
121	5
122	2
123	0
127	0
128	3
129	5
130	0
131	7
132	6
133	6
134	72
135	516
136	62
137	33
138	3
141	3
142	1
143	5
147	3
148	1
149	4
150	2
153	0
154	0
155	3
156	0
157	2
158	1
163	0
164	27
165	3
166	4
167	9
168	6
169	1
173	0
187	1
188	1
189	2
221	1
222	2
268	340
269	56
270	49
271	7
272	2
