Mass Spectrum: 8,8-Dimethyl-5,8,9,11-tetrahydro-7H-6,10-dithiabenzocyclononene
Formula: C13H18S2
CAS: 133560-52-8
Molecular weight: 238
m/z	intensity
26	0
27	31
28	22
29	38
32	4
35	0
38	0
39	51
40	4
41	98
42	6
43	11
44	2
45	53
46	9
47	23
48	0
49	0
50	5
51	28
52	15
53	22
54	7
55	51
56	13
57	6
58	2
59	23
60	4
61	8
62	1
63	14
64	4
65	26
66	1
67	9
68	1
69	236
70	17
71	4
72	0
73	6
74	1
75	5
76	9
77	79
78	161
79	15
81	0
82	0
83	0
84	1
85	4
87	12
88	14
89	20
90	10
91	120
92	9
93	1
95	0
97	1
99	2
101	7
102	27
103	152
104	999
105	107
106	4
108	1
109	1
115	12
116	2
117	12
118	1
119	1
121	7
122	2
123	1
128	0
129	1
133	18
134	470
135	818
136	131
137	44
138	3
141	0
145	0
147	2
148	1
149	14
151	1
157	0
159	1
167	2
168	19
191	2
238	389
239	60
240	37
241	3
