Mass Spectrum: 3-Phenylthiopropionic acid, S-benzyl ester
Formula: C16H16OS
CAS: 133535-77-0
Molecular weight: 256
m/z	intensity
26	2
27	31
28	2
29	3
37	1
38	6
39	71
40	6
41	21
42	3
43	5
44	3
45	107
46	3
47	5
50	19
51	74
52	17
53	10
54	1
55	20
56	2
57	6
58	1
59	3
60	1
61	4
62	7
63	37
64	9
65	142
66	10
67	2
68	1
69	8
70	2
71	7
72	1
73	1
74	4
75	7
76	9
77	158
78	55
79	99
80	7
81	4
82	2
83	2
84	2
85	2
87	2
89	30
90	14
91	999
92	101
93	6
94	1
95	2
96	1
97	3
98	1
101	2
102	9
103	70
104	499
105	895
106	87
107	10
108	2
109	6
110	1
111	2
112	1
115	2
117	1
118	1
121	24
122	26
123	61
124	33
125	6
126	2
131	21
132	25
133	303
134	35
135	5
136	2
137	4
141	2
165	8
166	2
167	6
168	1
178	2
179	2
180	10
181	4
186	2
212	1
214	2
223	2
228	3
256	220
257	43
258	15
259	3
