Mass Spectrum: 1,2,4-Metheno-1H-cyclobuta[cd]pentalen-3-ol, octahydro-, (1.alpha.,1a.beta.,2.alpha.,3.alpha.,3a.beta.,4.alpha.,4a.beta.,5b.beta.,6S*)-
Formula: C10H12O
CAS: 13351-15-0
Molecular weight: 148
m/z	intensity
15	3
26	5
27	57
29	25
30	1
31	8
37	3
38	11
39	123
40	24
41	63
42	11
43	11
44	3
45	3
46	2
47	2
49	2
50	20
51	66
52	26
53	54
54	22
55	49
56	4
57	35
58	6
59	3
60	7
61	3
62	8
63	31
64	28
65	75
66	999
67	116
68	24
69	22
70	57
71	4
72	7
73	10
74	6
75	5
76	5
77	105
78	56
79	139
80	70
81	79
82	388
83	69
84	10
86	6
89	11
90	3
91	196
92	114
93	19
94	39
95	7
101	2
102	9
103	34
104	63
105	54
106	20
107	24
108	3
115	168
116	38
117	198
118	30
119	63
120	32
121	6
127	19
128	42
129	222
130	489
131	71
132	8
133	46
134	5
145	3
146	2
147	20
148	20
149	3
