Mass Spectrum: Sulfamoyl chloride, dimethyl-
Formula: C2H6ClNO2S
CAS: 13360-57-1
Molecular weight: 143
m/z	intensity
14	4
15	62
16	1
27	17
28	23
29	7
30	5
32	4
35	2
36	9
38	3
39	3
40	11
41	20
42	295
43	249
44	290
45	14
46	1
48	18
49	2
50	1
60	1
61	1
64	36
65	7
66	2
69	2
76	2
78	3
79	1
80	1
83	1
92	8
99	2
108	999
109	34
110	49
111	1
142	74
143	275
144	37
145	101
146	5
147	4
