Mass Spectrum: 6-Methoxy-4-methyl-8-nitro-5-[4-phenylbutoxy]quinoline
Formula: C21H22N2O4
CAS: 133677-49-3
Molecular weight: 366
m/z	intensity
41	16
42	12
43	5
44	0
45	2
47	4
48	1
49	14
50	5
51	25
52	8
53	15
54	2
55	28
56	5
57	2
62	3
63	19
64	7
65	52
66	4
67	2
68	1
69	5
70	4
71	1
73	1
74	2
75	5
76	8
77	53
78	21
79	24
80	2
81	1
82	2
83	5
84	12
85	0
86	8
87	2
88	6
89	45
90	26
91	999
92	81
93	6
97	1
100	1
101	6
102	14
104	57
105	33
106	3
107	1
110	5
111	2
112	3
113	1
114	4
115	18
116	31
117	38
118	10
119	4
120	15
121	4
124	1
125	2
126	1
127	3
128	11
129	9
130	15
131	18
132	9
133	111
134	11
136	1
139	3
140	3
141	4
142	3
143	4
144	20
145	8
146	6
147	5
149	0
151	1
152	2
153	2
154	0
156	6
157	2
158	6
159	4
160	8
161	4
162	2
163	1
164	1
165	23
166	16
167	4
168	1
169	3
170	2
171	0
172	8
173	4
174	6
175	5
176	4
177	2
178	6
179	7
180	3
183	2
185	2
186	4
187	19
188	26
189	6
191	3
193	0
199	15
200	2
202	3
203	6
204	85
205	17
216	122
217	51
218	19
219	17
220	2
222	0
226	1
232	3
233	15
234	400
235	55
236	7
247	0
277	1
278	2
289	1
292	1
336	1
366	87
367	21
368	2
