Mass Spectrum: Nicotinaldehyde azine
Formula: C12H10N4
CAS: 13362-77-1
Molecular weight: 210
m/z	intensity
50	437
51	883
52	979
53	164
63	100
64	170
65	60
77	754
78	999
79	815
91	60
104	913
105	224
106	62
132	160
155	108
181	570
182	321
183	46
210	20
211	6
