Mass Spectrum: Silane, trimethyl-2-propynyl-
Formula: C6H12Si
CAS: 13361-64-3
Molecular weight: 112
m/z	intensity
25	1
26	9
27	32
28	35
29	95
30	9
31	34
33	0
37	14
38	30
39	104
40	5
41	10
42	54
43	324
44	60
45	329
46	22
47	11
48	3
50	6
51	6
52	5
53	113
54	28
55	101
56	10
57	24
58	32
59	28
60	3
61	1
62	0
63	0
64	1
65	20
66	43
67	66
68	15
69	252
70	29
71	58
73	999
74	108
75	43
76	3
77	9
78	1
79	5
80	2
81	16
82	2
83	15
84	2
85	1
86	0
89	0
90	0
91	0
93	2
95	19
97	287
98	31
99	16
100	1
101	0
109	0
112	86
113	11
114	5
115	0
