Mass Spectrum: Isobutyric acid, octadecyl ester
Formula: C22H44O2
CAS: 13373-82-5
Molecular weight: 340
m/z	intensity
27	46
28	17
29	81
31	5
39	63
40	21
41	321
42	99
43	699
44	28
45	7
51	10
53	15
54	59
55	347
56	189
57	405
58	21
59	8
66	5
67	69
68	93
69	268
70	175
71	519
72	23
73	16
79	8
80	5
81	38
82	104
83	268
84	111
85	128
86	9
88	199
89	999
90	51
91	10
95	26
96	47
97	241
98	87
99	26
101	8
109	8
110	18
111	109
112	51
113	11
124	8
125	58
126	37
127	12
138	9
139	27
140	25
153	12
154	11
167	8
168	12
181	4
182	6
194	6
196	8
224	21
225	2
252	57
253	5
297	15
298	2
340	38
341	8
