Mass Spectrum: N-Benzyl-o-phenetidine
Formula: C15H17NO
CAS: 13371-95-4
Molecular weight: 227
m/z	intensity
26	3
27	17
28	11
29	20
30	2
38	4
39	34
40	3
41	9
42	2
43	2
50	8
51	27
52	24
53	11
54	2
55	1
62	3
63	16
64	9
65	105
66	9
67	1
74	1
75	2
76	4
77	26
78	13
79	12
80	41
81	3
83	1
87	1
89	14
90	9
91	999
92	102
93	17
94	9
95	4
98	2
102	1
103	1
104	17
105	4
106	28
107	3
108	72
109	7
115	3
116	1
117	1
118	2
119	2
120	57
121	6
122	5
127	1
128	2
132	1
134	5
135	5
136	54
137	5
139	2
140	1
141	2
148	1
150	23
151	4
152	6
153	2
154	2
165	1
166	2
167	6
168	5
169	1
170	3
173	1
178	1
180	15
181	5
182	5
183	3
184	1
195	1
196	18
197	5
198	510
199	76
200	6
210	1
224	1
225	4
226	33
227	822
228	142
229	12
230	1
