Mass Spectrum: Propionic acid, methoxycarbonylphenylmethyl ester
Formula: C12H14O4
CAS: 133797-12-3
Molecular weight: 222
m/z	intensity
27	17
28	8
29	152
30	3
39	10
41	4
43	3
44	2
50	6
51	24
52	5
55	6
56	5
57	999
58	30
59	7
62	3
63	11
64	4
65	4
69	2
73	2
76	2
77	69
78	13
79	30
80	2
89	22
90	23
91	16
93	2
105	95
106	17
107	71
108	6
109	2
111	2
114	2
118	10
121	28
122	2
127	2
133	2
134	5
149	20
150	2
151	2
163	142
164	16
165	13
166	126
167	14
168	2
190	59
191	8
222	10
223	2
