Mass Spectrum: Heptane, 1,1,1,3-tetrachloro-
Formula: C7H12Cl4
CAS: 13375-88-7
Molecular weight: 236
m/z	intensity
34	0
35	19
36	28
37	26
38	63
39	487
40	72
41	999
42	418
43	219
44	10
45	1
47	22
48	7
49	87
50	56
51	171
52	26
53	124
54	40
55	634
56	79
57	250
58	10
59	0
60	23
61	145
62	77
63	153
64	26
65	130
66	18
67	99
68	393
69	624
70	44
72	18
73	97
74	19
75	211
76	118
77	121
78	42
79	20
80	2
81	29
82	34
83	466
84	49
85	105
86	13
87	104
88	21
89	120
90	28
91	102
93	592
94	46
95	31
96	154
97	41
98	94
99	67
100	27
101	78
102	59
103	144
104	445
105	75
106	140
107	21
109	318
110	40
111	209
112	21
113	49
114	5
115	13
117	112
119	102
121	59
122	448
123	148
124	306
125	90
126	53
127	23
128	9
129	457
131	195
132	17
133	6
134	3
135	24
136	11
137	38
138	21
139	18
140	12
141	2
143	33
144	12
145	32
146	13
147	10
148	3
149	4
150	1
151	8
152	3
153	4
154	0
155	0
156	0
157	7
158	5
159	9
160	4
161	3
162	2
163	2
164	14
165	323
166	34
167	208
168	17
169	32
170	2
171	2
172	2
173	2
174	2
175	0
176	0
179	0
181	0
185	0
187	0
200	1
201	12
202	2
203	11
204	1
205	3
207	0
236	0
238	0
240	0
