Mass Spectrum: Spiro[4.5]decan-6-one
Formula: C10H16O
CAS: 13388-94-8
Molecular weight: 152
m/z	intensity
26	11
27	128
28	59
29	60
31	1
37	2
38	9
39	203
40	57
41	255
42	42
43	25
44	1
45	2
46	2
47	3
48	1
50	9
51	31
52	20
53	98
54	85
55	158
56	13
57	7
62	3
63	9
64	2
65	38
66	51
67	670
68	116
69	33
70	30
71	6
74	1
75	1
77	44
78	15
79	99
80	51
81	176
82	123
83	50
84	31
85	6
89	2
91	43
92	36
93	161
94	23
95	248
96	38
97	10
98	4
105	18
106	25
107	8
108	288
109	46
110	71
111	999
112	70
113	4
119	34
120	3
121	9
122	2
123	83
124	44
125	3
133	5
134	35
135	5
137	5
151	11
152	315
153	39
