Mass Spectrum: Cyclohexanecarboxylic acid, 4-propyl-, 2,3-dicyano-4-ethoxyphenyl ester
Formula: C20H24N2O3
CAS: 133856-82-3
Molecular weight: 340
m/z	intensity
14	26
26	30
27	153
29	223
39	86
41	369
42	42
43	119
53	72
54	91
55	415
57	225
67	174
69	999
70	52
76	24
77	46
79	59
81	192
82	162
83	541
84	38
95	48
96	29
104	53
109	33
124	144
125	788
126	86
131	41
153	320
154	34
159	77
160	233
161	57
187	25
188	43
