Mass Spectrum: Butanenitrile, 4,4,4-trimethoxy-
Formula: C7H13NO3
CAS: 133871-50-8
Molecular weight: 159
m/z	intensity
25	6
26	89
27	129
29	207
30	35
31	373
33	8
37	12
38	18
39	38
40	35
41	94
42	94
43	39
44	17
45	60
46	4
47	18
50	8
51	78
52	244
53	264
54	356
55	417
56	38
57	48
59	646
60	19
61	6
63	4
64	6
66	46
67	21
68	151
69	30
70	10
71	12
72	12
74	92
75	5
77	4
78	9
79	18
80	368
81	81
82	999
83	70
84	15
85	30
87	27
91	4
94	6
95	4
96	57
97	17
98	25
99	10
101	54
102	4
105	10
106	3
110	5
112	35
113	6
126	115
127	570
128	49
129	7
133	8
134	0
159	3
160	0
