Mass Spectrum: 1-Allyloxy-4-methoxy-benzene
Formula: C10H12O2
CAS: 13391-35-0
Molecular weight: 164
m/z	intensity
15	13
18	1
26	16
27	14
28	7
29	4
37	4
38	15
39	75
40	6
41	141
42	5
43	3
44	1
45	1
50	12
51	20
52	32
53	18
54	24
55	10
57	1
61	3
62	9
63	28
64	30
65	32
66	6
67	10
68	1
69	5
74	3
75	2
76	3
77	23
78	5
79	13
80	27
81	13
82	10
83	1
89	1
91	9
92	18
93	3
94	3
95	196
96	13
97	1
102	1
103	10
104	2
105	7
106	1
107	9
108	14
109	27
110	3
115	1
117	1
118	1
119	2
120	3
121	6
122	1
123	999
124	89
125	7
131	4
132	2
133	3
134	1
135	10
136	3
137	2
147	2
148	2
149	10
150	1
161	3
162	3
163	20
164	272
165	30
166	3
