Mass Spectrum: Cyclohexanone, 2,3-dimethyl-
Formula: C8H14O
CAS: 13395-76-1
Molecular weight: 126
m/z	intensity
41	620
42	420
43	120
50	20
51	40
52	20
53	110
54	50
55	999
56	200
57	60
63	10
65	20
66	10
67	170
68	40
69	190
70	500
71	40
72	10
77	10
78	10
79	30
80	10
81	20
82	500
83	680
84	80
93	60
95	10
97	90
98	180
99	10
108	30
109	20
111	70
126	370
127	60
