Mass Spectrum: 1-Imidazolidinecarboxylic acid, 2-(1,1-dimethylethyl)-5-hydroxy-3-methyl-4-oxo-, 1,1-dimethylethyl ester, cis-(.+-.)-
Formula: C13H24N2O4
CAS: 133984-45-9
Molecular weight: 272
m/z	intensity
27	30
28	13
29	125
30	16
31	7
39	44
40	9
41	212
42	172
43	20
44	10
46	18
55	18
56	38
57	999
58	55
59	18
69	18
70	9
72	10
84	9
85	52
86	19
87	21
88	8
97	140
98	17
100	11
112	20
114	7
115	326
116	16
139	6
159	328
160	21
199	29
200	3
215	140
216	14
