Mass Spectrum: Chloromethyl 2-chloropropanoate
Formula: C4H6Cl2O2
CAS: 13398-02-2
Molecular weight: 156
m/z	intensity
36	9
41	30
42	19
43	20
49	291
51	98
55	179
56	70
57	168
62	39
63	540
65	178
71	70
90	50
91	999
92	170
93	338
121	59
123	20
