Mass Spectrum: (5-Isothiocyanatopentyl)benzene
Formula: C12H15NS
CAS: 133920-05-5
Molecular weight: 205
m/z	intensity
27	14
28	7
29	8
30	4
32	3
34	1
38	4
39	43
40	8
41	53
42	6
43	5
44	8
45	13
47	4
50	13
51	43
52	14
53	9
55	26
56	34
58	7
59	16
60	14
61	5
62	9
63	31
64	10
65	181
66	19
67	9
68	15
69	22
70	27
71	6
72	126
73	4
74	16
75	33
76	10
77	88
78	53
79	56
80	7
81	6
83	10
84	8
85	10
86	9
87	4
88	14
89	36
90	16
91	999
92	138
93	8
94	3
95	5
96	38
97	4
99	7
100	26
101	33
102	14
103	63
104	296
105	115
106	20
107	15
108	6
109	4
110	22
113	4
114	75
115	72
116	48
117	341
118	76
119	9
121	11
122	8
125	4
126	4
127	10
128	30
129	58
130	39
131	43
132	6
133	3
134	4
135	3
143	21
144	37
145	45
146	9
147	11
148	15
149	2
153	1
155	29
156	7
157	6
158	3
159	3
160	5
161	5
162	10
164	2
165	2
170	10
171	15
172	301
173	42
174	4
175	3
176	41
177	10
178	3
179	3
187	2
188	3
189	2
190	29
191	6
192	1
201	2
204	164
205	547
206	83
207	29
208	4
