Mass Spectrum: Diethylpropion Hydrochloride
Formula: C13H19NO
CAS: 134-80-5
Molecular weight: 205
m/z	intensity
40	2
41	12
42	53
44	140
45	4
50	15
51	53
52	5
53	2
54	8
55	11
56	51
57	8
58	3
61	1
62	1
63	3
64	1
65	2
66	1
67	1
68	4
70	34
72	103
73	6
74	4
75	4
77	119
78	12
79	7
80	1
81	1
82	1
84	6
85	2
86	1
87	1
88	1
89	2
91	9
92	1
98	6
100	999
101	74
102	4
103	5
105	45
106	4
107	1
115	4
116	1
117	2
118	1
119	1
120	1
127	1
128	1
129	1
130	1
131	3
132	5
133	4
134	2
142	1
143	1
144	1
145	1
146	2
147	1
148	1
156	1
157	1
158	1
159	1
160	3
161	1
162	2
163	1
170	1
172	1
174	2
175	1
176	1
184	2
185	2
186	1
188	4
189	1
190	2
191	1
202	1
203	1
204	1
205	1
206	1
207	1
