Mass Spectrum: Methyl 4-[4-(dimethylamino)phenyl]-3,4-dihydro-6-methyl-2(1H)-thioxopyrimidine-5-carboxylate
Formula: C15H19N3O2S
CAS: 134074-44-5
Molecular weight: 305
m/z	intensity
38	64
39	213
40	121
42	999
43	121
44	157
45	40
50	80
51	110
52	61
53	46
55	30
56	24
57	35
59	211
60	75
62	44
63	81
64	42
65	62
66	83
67	104
68	38
69	25
72	72
73	70
74	40
75	60
76	79
77	150
78	63
79	51
84	34
85	65
86	40
89	46
90	33
91	64
92	50
93	109
94	42
101	84
102	67
103	49
104	63
105	48
106	39
107	47
108	28
112	36
114	33
115	76
116	47
117	42
118	76
120	484
121	272
123	196
125	39
126	71
127	40
128	77
129	69
130	53
131	57
132	26
134	32
136	25
142	44
143	70
144	140
145	85
146	64
147	60
148	51
153	78
155	30
156	32
157	29
158	49
159	50
169	35
170	65
171	96
172	76
173	32
174	37
185	172
186	52
187	72
191	33
202	31
212	26
213	36
229	43
230	27
231	25
240	24
244	227
245	516
246	337
247	53
272	36
290	191
291	24
302	23
304	206
305	447
306	85
307	27
