Mass Spectrum: 3-Chloro-6-methyl-6,7-dihydro-9H-5-oxa-9-azabenzocyclohepten-8-one
Formula: C10H10ClNO2
CAS: 134076-61-2
Molecular weight: 211
m/z	intensity
20	1
25	0
26	11
27	48
28	65
29	11
30	2
31	1
32	10
35	1
36	4
37	8
38	18
39	123
40	23
41	316
42	78
43	40
44	7
45	3
47	1
48	0
49	6
50	50
51	125
52	55
53	20
54	8
55	23
56	4
57	12
58	3
59	17
60	8
61	9
62	24
63	70
64	13
65	10
66	3
67	7
68	8
69	999
70	46
71	9
72	12
73	18
74	6
75	16
76	44
77	34
78	196
79	34
80	29
81	7
82	2
83	6
84	4
85	11
86	10
87	14
88	7
89	10
90	19
91	10
92	3
93	4
94	2
95	4
96	2
97	10
98	14
99	35
100	8
101	11
102	3
103	2
104	11
105	6
106	10
107	4
108	10
109	21
110	3
111	4
112	17
113	96
114	67
115	35
116	20
117	4
118	3
119	3
120	6
121	2
122	1
123	2
124	6
125	40
126	12
127	40
128	8
129	11
130	3
131	2
132	2
133	4
134	4
135	8
136	2
137	1
138	3
139	2
140	23
141	8
142	32
143	451
144	36
145	143
146	12
147	2
148	5
149	3
150	1
151	1
152	1
153	2
154	104
155	10
156	35
157	4
158	4
159	2
160	1
161	1
163	0
164	0
165	1
166	1
167	9
168	32
169	121
170	28
171	40
172	6
173	0
175	0
176	1
177	14
178	2
179	0
180	1
181	1
182	4
183	4
184	3
185	2
186	0
187	0
188	1
189	0
190	0
192	1
193	1
194	1
195	1
196	1
197	0
198	0
199	1
201	0
209	0
210	0
211	293
212	36
213	103
214	11
215	1
