Mass Spectrum: Propanamide, 2-hydroxy-N-methyl-
Formula: C4H9NO2
CAS: 134001-62-0
Molecular weight: 103
m/z	intensity
38	4
39	4
40	6
41	16
42	73
43	154
44	176
45	902
46	34
47	3
51	0
52	2
53	4
54	3
55	33
56	28
57	11
58	999
59	425
60	834
61	22
62	1
68	3
69	1
70	4
71	1
72	0
73	2
74	1
75	29
76	1
77	0
84	4
85	0
86	8
87	1
88	46
89	3
91	0
101	1
102	1
103	44
104	20
105	1
