Mass Spectrum: Benzeneacetamide, N-[(acetylamino)carbonyl]-.alpha.-ethyl-
Formula: C13H16N2O3
CAS: 13402-08-9
Molecular weight: 248
m/z	intensity
12	1
13	1
14	5
15	29
16	3
26	3
27	17
28	37
29	9
30	2
31	3
32	4
36	1
37	1
38	8
39	43
40	18
41	111
42	45
43	292
44	133
45	5
46	1
50	12
51	43
52	9
53	4
54	2
55	3
56	2
57	7
58	5
59	127
60	9
61	3
62	7
63	24
64	6
65	37
66	4
67	1
69	3
70	46
71	2
72	1
73	1
74	5
75	5
76	8
77	64
78	60
79	27
80	2
81	1
82	1
83	1
84	1
85	24
86	9
87	34
88	4
89	47
90	48
91	999
92	97
93	5
94	1
95	1
96	1
97	1
99	1
101	2
102	9
103	37
104	29
105	28
106	7
107	1
108	1
109	1
111	1
113	1
114	2
115	41
116	128
117	221
118	84
119	520
120	117
121	9
127	1
128	2
129	41
130	9
131	12
132	12
133	3
134	1
135	113
136	10
137	1
142	1
143	2
144	3
145	79
146	381
147	43
148	26
149	5
160	1
161	7
162	2
163	99
164	13
165	1
189	112
190	13
191	2
205	3
206	9
207	1
233	1
248	12
249	3
