Mass Spectrum: 2-Acetyl-6-methyl-6,7-dihydro-9H-5-oxa-9-azabenzocyclohepten-8-one
Formula: C12H13NO3
CAS: 134076-68-9
Molecular weight: 219
m/z	intensity
37	11
38	33
39	112
40	22
41	336
42	50
43	300
44	29
45	8
46	1
48	1
49	4
50	26
51	78
52	45
53	35
54	14
55	45
56	11
57	38
58	3
59	55
60	13
61	6
62	13
63	40
64	12
65	21
66	11
67	19
68	17
69	999
70	51
71	21
72	30
73	8
74	4
75	6
76	12
77	56
78	52
79	48
80	33
81	18
82	6
83	14
84	6
85	10
86	5
87	3
88	2
89	6
90	6
91	21
92	10
93	10
94	16
95	12
96	5
97	11
98	6
99	5
100	2
101	2
102	1
103	3
104	5
105	13
106	30
107	24
108	27
109	24
110	4
111	7
112	4
113	3
114	2
115	3
116	1
117	2
118	3
119	8
120	7
121	4
122	14
123	6
124	1
125	4
126	5
127	2
128	3
129	2
130	1
131	2
132	6
133	9
134	30
135	13
136	151
137	15
138	2
139	2
140	1
141	1
142	1
143	1
144	0
145	1
146	1
147	1
148	8
149	5
150	15
151	192
152	22
153	3
154	1
155	1
156	1
157	1
158	4
159	2
160	16
161	4
162	149
163	16
164	2
165	1
166	0
167	1
168	0
169	1
170	0
171	0
173	0
174	0
175	43
176	18
177	8
178	36
179	5
180	1
181	0
182	0
183	0
184	0
185	0
186	7
187	2
188	0
189	1
190	1
191	2
192	1
193	10
194	2
195	0
196	0
197	0
200	1
201	11
202	3
203	2
204	16
205	2
217	0
218	0
219	131
220	19
221	2
222	1
