Mass Spectrum: 6-Methyl-3-nitro-6,7-dihydro-9H-5-oxa-9-azabenzocyclohepten-8-one
Formula: C10H10N2O4
CAS: 134076-63-4
Molecular weight: 222
m/z	intensity
35	1
36	2
37	7
38	15
39	116
40	24
41	384
42	88
43	38
44	25
45	5
46	2
47	0
48	0
49	2
50	42
51	112
52	59
53	28
54	9
55	23
56	9
57	9
58	1
59	6
60	3
61	5
62	20
63	49
64	14
65	10
66	9
67	11
68	13
69	999
70	49
71	7
72	4
73	10
74	3
75	6
76	17
77	46
78	95
79	51
80	29
81	6
82	2
83	5
84	3
85	3
86	1
87	1
88	2
89	5
90	3
91	13
92	5
93	3
94	7
95	6
96	3
97	3
98	1
99	1
100	1
101	1
102	1
103	3
104	8
105	7
106	64
107	17
108	11
109	2
110	1
111	1
112	1
113	1
114	0
115	1
116	1
117	2
118	3
119	37
120	5
121	2
122	14
123	3
124	23
125	3
126	1
127	0
128	0
129	1
130	1
131	1
132	2
133	11
134	19
135	7
136	1
137	2
138	8
139	1
140	0
141	0
142	0
145	1
146	1
147	3
148	2
149	1
150	31
151	3
152	0
153	7
154	46
155	3
156	1
157	0
158	0
161	0
162	0
163	0
164	1
165	35
166	4
167	1
169	3
173	0
175	0
176	1
178	2
179	9
180	12
181	6
182	1
185	0
191	0
192	4
193	1
194	2
201	0
202	0
206	1
207	0
217	0
222	145
223	16
224	2
