Mass Spectrum: 9-Isopropyl-6-methyl-6,7-dihydro-9H-5-oxa-9-azabenzocyclohepten-8-one
Formula: C13H17NO2
CAS: 134076-78-1
Molecular weight: 219
m/z	intensity
38	19
39	199
40	30
41	519
42	127
43	257
44	12
45	6
49	0
50	25
51	120
52	167
53	59
54	11
55	18
56	9
57	8
58	6
59	2
60	1
61	0
62	7
63	50
64	73
65	142
66	16
67	8
68	15
69	999
70	46
71	5
72	0
73	1
74	4
75	7
76	14
77	82
78	94
79	216
80	101
81	22
82	1
83	1
84	3
85	0
86	0
88	1
89	11
90	23
91	119
92	38
93	67
94	9
95	3
96	0
97	1
102	3
103	6
104	16
105	21
106	61
107	17
108	71
109	612
110	48
111	3
112	0
115	2
116	3
117	27
118	13
119	12
120	225
121	47
122	13
123	1
128	1
129	1
130	5
131	5
132	13
133	38
134	139
135	520
136	717
137	65
138	3
143	3
144	3
145	6
146	19
147	4
148	19
149	15
150	70
151	155
152	15
153	0
158	3
159	2
160	8
161	3
162	54
163	91
164	10
165	1
173	0
174	0
175	1
176	48
177	355
178	53
179	4
190	1
191	12
192	2
202	1
204	102
205	13
218	8
219	445
220	69
221	5
