Mass Spectrum: Cyclohexanone, 2-[2-(phenylmethoxy)ethyl]-, (R)-
Formula: C15H20O2
CAS: 134005-33-7
Molecular weight: 232
m/z	intensity
26	3
27	38
28	11
29	36
30	0
31	9
37	1
38	4
39	69
40	11
41	121
42	24
43	25
44	3
45	16
50	9
51	31
52	9
53	23
54	15
55	147
56	12
57	15
58	2
59	2
60	1
61	2
62	3
63	19
64	6
65	103
66	9
67	39
68	11
69	22
70	97
71	9
72	1
73	7
74	2
75	4
76	2
77	42
78	12
79	63
80	14
81	55
82	12
83	61
84	9
85	3
86	5
87	3
88	2
89	25
90	17
91	999
92	128
93	15
94	2
95	45
96	20
97	85
98	506
99	43
100	2
101	1
102	1
103	2
104	8
105	29
106	9
107	58
108	16
109	3
110	3
111	19
112	3
113	3
114	0
115	1
116	1
117	3
118	1
119	1
120	2
121	2
122	2
123	97
124	54
125	113
126	21
127	4
128	1
129	3
130	1
131	3
132	1
133	1
134	3
135	14
136	2
137	2
138	0
139	1
140	1
141	119
142	11
143	1
144	19
145	5
146	2
147	1
148	1
149	2
150	1
151	2
152	19
153	3
154	1
155	1
156	0
157	0
158	1
159	3
160	1
161	1
162	1
163	2
164	1
165	0
166	0
167	1
168	0
169	1
170	5
171	1
172	0
173	1
186	1
187	3
188	78
189	11
190	1
191	1
192	1
193	0
194	1
195	0
196	1
201	1
202	1
203	1
204	13
205	2
214	1
232	25
233	5
234	1
