Mass Spectrum: .alpha.-d-Allofuranose, 3-[(benzoyloxy)methyl]-3-deoxy-1,2-O-(1-methylethylidene)-, dimethanesulfonate
Formula: C19H26O11S2
CAS: 134056-30-7
Molecular weight: 494
m/z	intensity
27	15
29	14
31	18
39	26
41	60
43	235
51	41
53	12
55	34
57	17
59	56
67	31
68	24
69	49
76	11
77	194
78	16
79	112
81	34
83	26
85	18
95	23
97	59
105	999
106	79
109	12
111	14
122	26
123	74
127	8
139	15
155	103
156	9
161	9
189	8
202	6
219	57
220	7
245	5
479	48
480	10
481	5
