Mass Spectrum: 7H-Oxireno[b][1]benzopyran-7-one, 1a,7a-dihydro-1a-phenyl-
Formula: C15H10O3
CAS: 134051-30-2
Molecular weight: 238
m/z	intensity
38	21
39	35
43	5
50	75
51	208
52	18
53	9
57	5
62	16
63	66
64	39
65	12
69	8
74	21
75	26
76	152
77	800
78	60
82	11
89	32
90	25
91	7
92	27
93	6
102	17
104	33
105	999
106	74
107	5
119	11
120	16
121	11
126	5
127	6
129	8
151	18
152	85
153	75
154	10
160	11
165	10
181	293
182	46
194	5
208	5
209	881
210	632
211	90
212	8
222	12
237	89
238	221
239	35
240	6
