Mass Spectrum: 6-Methyl-8-oxo-6,7,8,9-tetrahydro-5-oxa-9-azabenzocycloheptene-2-carboxylic acid
Formula: C11H11NO4
CAS: 134076-69-0
Molecular weight: 221
m/z	intensity
34	0
35	2
36	13
37	9
38	23
39	170
40	38
41	418
42	97
43	45
44	46
45	33
46	4
47	0
48	0
49	3
50	52
51	137
52	82
53	50
54	11
55	35
56	7
57	11
58	2
59	4
60	6
61	6
62	20
63	52
64	13
65	29
66	22
67	26
68	40
69	999
70	50
71	10
72	3
73	12
74	5
75	9
76	22
77	47
78	66
79	48
80	26
81	26
82	6
83	6
84	3
85	4
86	2
87	4
88	2
89	4
90	12
91	15
92	7
93	15
94	11
95	24
96	32
97	8
98	2
99	1
100	1
101	1
102	1
103	3
104	6
105	10
106	34
107	20
108	20
109	12
110	3
111	2
112	1
113	1
114	0
115	1
116	1
117	2
118	32
119	11
120	6
121	4
122	14
123	20
124	29
125	5
126	1
127	1
128	1
129	2
130	2
131	2
132	6
133	7
134	28
135	98
136	53
137	10
138	3
139	1
140	1
141	0
142	0
143	1
144	1
145	0
146	5
147	4
148	4
149	2
150	9
151	4
152	19
153	326
154	27
155	5
156	1
157	1
158	1
159	1
160	7
161	2
162	187
163	18
164	107
165	10
166	2
167	1
168	1
169	3
171	1
173	0
174	1
175	1
176	4
177	12
178	42
179	156
180	33
181	4
182	0
183	0
184	0
185	1
186	1
187	0
188	1
189	0
190	1
191	1
192	5
193	10
194	2
195	0
201	1
202	3
203	6
204	7
205	1
206	1
207	1
208	0
218	0
219	1
220	1
221	454
222	60
223	7
224	2
225	0
