Mass Spectrum: Imidazolidin-2-one, 4,5-bis(dichloromethylene)-1,3-dicyclohexyl-
Formula: C17H22Cl4N2O
CAS: 134126-49-1
Molecular weight: 410
m/z	intensity
33	3
35	17
36	61
38	35
39	172
41	765
43	88
44	8
47	2
49	3
50	5
51	15
53	113
55	999
56	38
57	3
61	1
62	3
63	11
64	3
65	20
66	14
67	78
68	8
69	5
70	2
71	1
73	3
74	2
75	5
76	4
77	21
78	8
79	58
81	294
82	77
83	220
84	16
85	6
86	7
87	6
88	3
89	2
90	2
91	3
92	1
93	2
94	2
95	2
96	2
97	3
98	3
99	3
100	2
101	2
102	3
103	1
104	1
105	2
106	2
107	2
108	7
109	7
110	6
111	5
112	4
113	2
114	2
115	2
116	2
117	3
118	5
119	5
120	4
121	3
122	3
123	1
124	3
125	2
126	1
127	1
128	1
129	2
131	1
132	5
133	2
134	5
135	2
136	3
137	2
138	2
139	2
140	1
141	5
142	2
143	5
144	1
145	2
146	1
147	2
148	4
149	2
150	4
151	2
152	2
153	5
154	1
155	6
156	2
157	3
158	2
159	3
160	2
161	2
162	2
163	6
164	1
165	7
166	2
167	5
168	8
169	3
170	7
171	2
172	4
173	2
174	2
175	6
176	4
177	6
178	4
179	5
180	2
181	4
182	2
183	5
184	4
185	6
186	5
187	4
188	2
189	4
190	2
191	3
192	1
193	2
194	2
195	3
196	3
197	2
198	3
199	1
200	1
201	2
202	11
203	3
204	12
205	2
206	5
207	1
208	2
209	3
210	4
211	39
212	49
213	54
214	46
215	36
216	16
217	13
218	4
219	2
220	2
221	3
222	2
223	3
224	1
225	2
227	2
228	1
229	1
230	3
232	2
237	2
239	2
241	1
242	1
243	5
246	190
247	143
248	201
249	160
250	113
251	77
252	29
253	18
254	4
255	3
257	8
258	2
259	6
260	1
261	2
289	2
290	2
291	3
293	128
294	21
295	111
296	16
297	34
298	4
299	4
327	8
328	20
329	42
330	30
331	48
332	18
333	22
334	5
335	4
375	3
377	2
410	16
412	23
413	4
414	9
415	1
416	2
