Mass Spectrum: Bicyclo[3.1.0]hexane-6-carboxylic acid, 2-oxo-, ethyl ester, (1.alpha.,5.alpha.,6.beta.)-
Formula: C9H12O3
CAS: 134115-59-6
Molecular weight: 168
m/z	intensity
26	27
27	207
28	32
29	329
30	9
31	6
37	8
38	36
39	291
40	53
41	260
42	55
43	43
44	8
45	19
50	15
51	36
52	29
53	153
54	38
55	87
56	13
57	11
59	5
61	5
62	5
63	13
64	5
65	98
66	171
67	761
68	66
69	29
70	51
71	17
72	6
77	24
78	7
79	12
80	6
81	281
82	39
83	29
84	245
85	15
86	5
93	10
94	131
95	999
96	127
97	146
98	116
99	175
100	8
111	32
112	314
113	25
121	16
122	233
123	327
124	26
125	26
126	11
127	72
128	5
139	43
140	169
141	16
168	198
