Mass Spectrum: Aziridine, 1-acetyl-2-methyl-
Formula: C5H9NO
CAS: 13416-47-2
Molecular weight: 99
m/z	intensity
26	25
27	59
28	206
29	122
30	101
40	25
41	92
42	84
43	527
44	25
54	38
55	75
56	903
57	999
58	42
67	211
68	548
69	801
70	295
71	295
72	253
73	147
83	16
84	160
85	21
97	12
98	21
99	185
100	42
