Mass Spectrum: Benzene, (1-methylpentadecyl)-
Formula: C22H38
CAS: 13419-16-4
Molecular weight: 302
m/z	intensity
27	19
28	11
29	35
30	0
38	0
39	9
40	2
41	52
42	10
43	59
44	2
50	0
51	3
52	1
53	3
54	2
55	27
56	8
57	21
58	1
63	0
64	0
65	2
66	0
67	2
68	1
69	9
70	3
71	10
72	0
74	0
75	1
76	1
77	30
78	13
79	29
80	2
81	2
82	1
83	6
84	1
85	4
86	0
89	1
90	1
91	104
92	10
93	0
94	0
95	0
96	0
97	2
98	0
99	0
100	0
101	1
102	2
103	17
104	45
105	999
106	133
107	8
108	0
111	0
112	0
113	0
115	5
116	2
117	10
118	11
119	8
120	2
127	0
128	1
129	1
130	0
131	4
132	1
133	2
134	0
141	0
143	0
145	0
146	0
147	3
148	0
161	1
169	0
175	0
189	0
231	0
245	0
259	0
260	0
287	3
288	0
300	0
302	71
303	17
304	2
