Mass Spectrum: Benzene, (1-heptylnonyl)-
Formula: C22H38
CAS: 13419-23-3
Molecular weight: 302
m/z	intensity
27	34
28	24
29	72
30	1
38	0
39	13
40	4
41	79
42	9
43	87
44	3
50	0
51	2
52	1
53	5
54	2
55	38
56	5
57	38
58	1
63	0
64	0
65	6
66	0
67	4
68	1
69	21
70	2
71	12
72	0
74	0
75	1
76	1
77	19
78	20
79	12
80	1
81	3
82	1
83	7
84	1
85	14
86	1
87	0
89	3
90	4
91	999
92	90
93	4
94	1
95	1
96	0
97	5
98	0
99	2
100	1
101	2
102	4
103	21
104	100
105	158
106	15
107	1
111	3
115	21
116	10
117	69
118	23
119	65
120	6
127	1
128	5
129	5
130	2
131	10
132	3
133	40
134	4
141	0
143	0
145	2
146	2
147	25
148	3
159	0
160	1
161	7
162	1
169	0
175	1
176	0
187	0
188	9
189	183
190	35
191	3
203	155
204	33
205	3
217	0
231	0
300	0
302	74
303	18
304	2
