Mass Spectrum: 2-Chloro-3-hydroxypropionic acid
Formula: C3H5ClO3
CAS: 134267-57-5
Molecular weight: 124
m/z	intensity
25	32
26	136
27	251
28	33
29	350
30	45
31	351
35	62
36	360
37	20
38	114
39	14
40	9
41	58
42	157
43	766
44	431
45	281
46	17
47	15
48	42
49	39
50	26
51	12
52	5
53	23
54	8
55	110
56	10
57	20
58	56
59	7
60	70
61	59
62	131
63	21
64	41
65	10
67	9
68	5
69	37
70	76
71	116
72	130
73	39
74	4
75	3
76	464
77	25
78	155
79	47
80	8
81	17
82	5
83	12
84	4
85	5
86	4
87	11
88	6
89	57
90	2
91	11
93	6
94	999
95	30
96	317
97	9
98	4
105	10
106	74
107	13
108	24
109	5
122	8
123	11
124	7
125	3
