Mass Spectrum: Ethyl 2-acetamido-4-amino-6-methyl-5-pyrimidinecarboxylate
Formula: C10H14N4O3
CAS: 134221-28-6
Molecular weight: 238
m/z	intensity
33	24
34	3
36	3
37	11
38	43
39	113
41	125
42	363
43	999
44	94
45	33
46	3
47	1
50	6
51	17
52	57
53	77
54	107
55	122
56	17
57	9
58	5
59	4
60	9
62	1
63	4
64	16
65	46
66	138
67	212
68	306
69	84
70	18
71	10
72	2
73	1
74	1
75	1
77	10
78	10
79	25
80	43
81	94
82	79
83	41
84	24
85	9
86	5
87	1
89	1
90	1
91	5
92	14
93	25
94	20
95	39
96	26
97	38
98	7
99	3
100	2
104	1
105	2
106	6
107	25
108	49
109	267
110	41
111	9
112	2
113	1
114	1
118	1
119	1
121	18
122	53
123	153
124	532
125	61
126	6
127	7
128	2
131	1
132	1
133	3
134	24
135	26
136	9
137	5
138	7
139	5
140	3
141	1
145	1
146	2
147	4
150	799
151	496
152	57
153	8
154	1
155	1
163	8
164	9
165	6
166	8
167	15
168	29
169	5
170	1
176	9
177	18
178	2
181	25
182	5
189	1
191	9
192	11
193	58
194	14
196	271
197	26
198	2
207	1
208	3
209	7
210	20
211	2
222	1
223	6
234	4
238	585
239	69
240	8
241	1
