Mass Spectrum: Pyrimido[4,5-d]pyrimidine-2,4(1H,3H)-dione, 7-amino-5-methyl-3-phenyl-
Formula: C13H11N5O2
CAS: 134221-31-1
Molecular weight: 269
m/z	intensity
33	8
37	23
38	84
39	206
40	122
41	99
42	526
43	729
44	63
45	203
51	179
52	95
53	87
54	106
55	74
56	10
57	9
59	3
60	114
61	3
62	10
63	96
64	173
65	197
66	106
67	261
68	349
69	89
70	8
71	3
74	6
75	9
76	19
77	149
78	31
79	53
80	116
81	26
82	20
83	10
89	3
91	234
92	46
93	124
94	92
95	279
96	13
102	2
104	6
105	4
106	13
107	20
108	13
109	52
110	4
112	1
113	1
119	105
120	18
121	51
123	999
124	67
129	6
132	2
133	2
134	59
135	32
136	10
148	11
150	892
151	71
152	3
157	2
175	6
176	37
177	146
178	12
182	10
185	4
233	3
240	4
241	7
252	2
266	18
268	472
269	977
270	160
271	12
