Mass Spectrum: 2,8-Bornanediol, stereoisomer
Formula: C10H18O2
CAS: 13429-50-0
Molecular weight: 170
m/z	intensity
25	160
28	170
31	140
38	190
41	350
43	270
53	130
55	245
66	250
68	125
71	70
76	110
78	170
81	130
91	90
93	210
94	120
95	999
96	200
107	140
108	90
111	70
121	140
126	170
139	415
140	80
152	65
170	10
