Mass Spectrum: Cyclohexanol, 5-methyl-2-(1-methyl-1-phenylethyl)-
Formula: C16H24O
CAS: 134256-18-1
Molecular weight: 232
m/z	intensity
26	4
27	40
28	6
29	32
30	0
31	12
38	0
39	40
40	5
41	143
42	8
43	32
44	5
45	6
50	4
51	18
52	5
53	18
54	4
55	35
56	5
57	19
58	2
59	4
62	1
63	4
64	1
65	14
66	3
67	24
68	4
69	19
70	7
71	7
72	0
73	0
74	0
75	2
76	2
77	34
78	17
79	40
80	5
81	18
82	3
83	4
84	2
85	1
86	0
89	3
90	1
91	192
92	17
93	6
94	4
95	41
96	8
97	3
98	0
99	0
101	1
102	3
103	19
104	7
105	105
106	10
107	4
108	1
109	4
110	1
111	3
112	16
113	21
114	2
115	16
116	9
117	24
118	221
119	999
120	192
121	31
122	8
123	7
124	1
125	0
127	3
128	10
129	12
130	4
131	22
132	17
133	2
134	0
135	0
136	1
137	3
138	1
139	1
141	3
142	2
143	7
144	2
145	5
146	1
147	2
148	0
149	1
152	0
153	1
154	0
155	2
156	1
157	3
158	1
159	2
160	0
161	0
165	0
167	0
169	0
170	0
171	2
172	1
173	1
185	1
187	1
197	2
198	0
199	7
200	1
201	1
213	1
214	25
215	9
216	1
232	12
233	2
234	0
