Mass Spectrum: 1-(3-Chloro-4-fluorophenyl)-2,5-dihydro-1H-pyrrole-2,5-dione
Formula: C10H5ClFNO2
CAS: 134220-37-4
Molecular weight: 225
m/z	intensity
33	41
34	3
35	10
36	25
37	37
38	43
39	21
40	71
41	11
43	195
44	27
45	9
47	6
48	2
49	13
50	41
51	20
52	39
53	153
54	999
55	52
56	61
57	131
58	14
60	13
61	41
62	38
63	32
64	21
67	29
68	25
69	17
70	5
71	15
72	10
73	16
74	35
75	24
76	14
77	3
78	1
80	68
81	135
82	157
83	11
84	16
85	35
87	13
88	47
90	16
91	25
92	12
93	36
94	24
95	18
96	5
97	5
98	23
100	13
101	0
103	18
104	8
105	4
106	17
107	52
108	314
109	40
110	4
111	7
113	19
114	8
115	6
116	12
117	15
118	6
119	7
120	13
121	1
122	0
123	1
124	2
125	0
126	1
127	1
128	5
129	50
130	6
131	16
132	5
133	7
134	66
135	6
136	1
137	1
139	0
141	5
142	26
143	72
144	21
145	39
146	15
147	5
148	1
150	0
151	0
152	0
153	1
155	234
156	71
157	78
158	23
159	1
160	0
161	0
162	28
163	2
167	0
168	9
169	139
170	16
171	108
172	10
173	20
174	2
180	21
181	138
182	20
183	46
184	6
185	1
186	2
187	6
188	1
189	2
190	36
191	4
196	16
197	19
198	7
199	5
209	1
215	1
222	1
225	737
226	83
227	240
228	26
229	1
