Mass Spectrum: 2-(4-Benzamidobenzamido)terephthalic acid
Formula: C22H16N2O6
CAS: 134291-87-5
Molecular weight: 404
m/z	intensity
37	5
38	13
39	21
40	8
41	3
44	24
45	5
50	32
51	74
52	10
53	9
55	3
62	12
63	38
64	35
65	21
66	4
74	8
75	9
77	310
78	17
79	3
80	5
81	2
89	2
90	7
92	55
93	12
105	999
106	66
107	5
108	3
118	5
119	7
120	18
121	32
122	5
136	6
163	9
164	3
181	6
225	37
226	7
254	4
282	5
283	27
284	4
404	9
