Mass Spectrum: 2-Nonen-4-yn-1-ol, (Z)-
Formula: C9H14O
CAS: 134225-90-4
Molecular weight: 138
m/z	intensity
21	2
23	0
24	4
25	3
26	26
27	265
28	0
29	174
30	13
31	68
32	3
33	14
36	7
37	31
38	43
39	414
40	48
41	540
42	70
43	189
44	7
45	2
47	0
48	7
49	14
50	60
51	154
52	92
53	210
54	82
55	157
56	20
60	8
61	12
62	25
63	64
64	10
65	202
66	83
67	597
68	108
69	28
73	2
74	7
75	8
76	1
77	179
78	100
79	182
80	21
81	299
82	80
89	5
90	1
91	81
92	11
94	63
95	999
96	112
97	6
99	0
101	0
102	4
103	9
104	0
105	35
106	1
107	23
108	4
109	63
110	11
113	0
114	1
115	2
116	0
118	0
119	1
120	1
121	4
123	4
124	2
127	1
128	0
130	0
134	1
135	0
136	2
137	6
138	73
139	9
