Mass Spectrum: (-)-Camphanic acid
Formula: C10H14O4
CAS: 13429-83-9
Molecular weight: 198
m/z	intensity
14	1
15	11
16	1
17	3
18	10
26	9
27	156
28	81
29	108
30	2
31	8
32	3
37	2
38	9
39	220
40	41
41	536
42	57
43	295
44	24
45	54
46	5
47	4
48	1
50	12
51	39
52	17
53	118
54	40
55	640
56	39
57	22
58	4
59	16
60	7
61	2
62	6
63	10
64	2
65	44
66	15
67	318
68	35
69	278
70	119
71	14
72	1
73	3
74	1
75	1
76	1
77	71
78	12
79	63
80	10
81	88
82	373
83	999
84	73
85	13
86	2
87	8
88	28
89	3
90	1
91	67
92	16
93	272
94	33
95	161
96	34
97	324
98	26
99	7
100	5
101	1
102	1
103	1
105	9
106	16
107	341
108	84
109	895
110	89
111	210
112	42
113	26
114	9
115	2
119	4
121	27
122	4
123	9
124	212
125	439
126	52
127	272
128	19
129	2
130	1
133	1
134	7
135	10
136	7
137	185
138	19
139	680
140	61
141	9
142	9
143	6
151	9
152	543
153	68
154	67
155	28
156	4
162	1
165	1
170	696
171	70
172	7
180	3
181	9
182	1
183	2
198	15
199	14
200	1
