Mass Spectrum: 2-Methoxytetrahydrofuran
Formula: C5H10O2
CAS: 13436-45-8
Molecular weight: 102
m/z	intensity
26	22
27	197
28	7
29	182
30	8
31	6
33	80
34	0
37	2
38	14
39	118
40	24
41	343
42	500
43	395
44	10
45	82
46	1
47	0
49	0
50	0
51	0
52	0
53	8
54	1
55	10
56	6
57	86
58	18
59	48
60	1
61	304
62	7
63	1
64	0
65	1
66	0
67	0
68	1
69	13
71	999
72	122
73	7
74	8
76	0
77	0
78	1
82	0
83	0
85	2
86	0
87	4
88	0
90	0
91	0
92	0
93	0
94	0
95	0
97	0
98	0
101	100
102	13
103	2
