Mass Spectrum: 2-Aminobutanoic acid, N-benzyloxycarbonyl, methyl ester
Formula: C13H17NO4
CAS: 134306-32-4
Molecular weight: 251
m/z	intensity
26	1
27	23
28	61
29	17
30	6
31	1
33	1
38	4
39	48
40	4
41	34
42	5
43	1
44	0
45	1
48	0
49	0
50	10
51	36
52	10
53	2
54	3
55	6
56	34
57	12
58	20
59	28
60	1
62	4
63	25
64	7
65	117
66	4
67	0
68	0
69	1
71	0
72	2
73	0
74	1
75	1
76	1
77	47
78	9
79	36
80	1
82	0
84	17
85	0
86	1
87	9
88	0
89	30
90	28
91	999
92	85
93	2
98	0
99	0
100	0
101	5
102	4
103	0
104	0
105	8
106	1
107	64
108	137
109	8
110	0
111	0
116	31
117	2
120	0
123	0
124	0
126	0
134	0
139	0
145	0
146	0
148	125
149	14
150	1
192	74
193	9
194	1
251	31
252	5
