Mass Spectrum: (E)-Acrylic acid, 3-(3-methoxycarbonyl-1-cyclohexen-4-yl)-, methyl ester
Formula: C12H16O4
CAS: 134453-35-3
Molecular weight: 224
m/z	intensity
26	35
27	410
28	27
29	75
30	18
31	55
33	18
38	27
39	342
40	50
41	248
42	16
43	57
44	22
45	80
50	62
51	230
52	136
53	434
54	61
55	348
56	22
57	15
58	22
59	430
60	15
61	12
62	10
63	46
64	17
65	136
66	86
67	132
68	59
69	52
71	36
74	21
75	24
76	14
77	396
78	303
79	415
80	79
81	584
82	184
83	33
84	41
85	34
86	7
87	58
88	10
89	13
90	11
91	457
92	72
93	71
94	20
95	21
96	12
97	163
98	91
99	28
100	9
101	13
102	15
103	135
104	345
105	999
106	114
107	48
108	13
109	20
110	10
111	293
112	181
113	26
114	11
115	40
116	11
117	20
118	36
119	33
120	8
121	26
122	10
123	23
124	12
125	7
126	29
127	16
130	13
131	198
132	630
133	647
134	66
135	11
136	18
137	63
138	11
147	15
148	6
149	53
150	27
151	11
159	10
160	228
161	35
162	12
163	65
164	533
165	432
166	43
174	7
177	7
191	7
192	306
193	47
194	6
224	28
