Mass Spectrum: Furfurylmethylamphetamine
Formula: C15H19NO
CAS: 13445-60-8
Molecular weight: 229
m/z	intensity
40	9
41	20
42	28
51	9
53	84
56	30
58	11
65	18
81	999
82	58
91	49
138	452
139	41
