Mass Spectrum: N-Phenyl-1-formamidocyclohexane-1-carboxamide
Formula: C14H18N2O2
CAS: 134420-10-3
Molecular weight: 246
m/z	intensity
37	2
38	17
39	193
40	62
41	296
42	163
43	53
44	56
45	9
50	17
51	89
52	29
53	125
54	125
55	126
56	211
57	41
58	39
62	2
63	22
64	35
65	155
66	72
67	65
68	26
69	36
70	37
71	9
74	2
75	2
76	9
77	214
78	23
79	146
80	36
81	827
82	88
83	12
84	26
85	4
90	2
91	37
92	91
93	999
94	186
95	10
96	33
97	15
98	299
99	69
100	2
104	16
105	3
106	5
107	7
108	13
109	68
110	10
111	2
112	16
117	3
119	37
120	32
121	8
122	2
124	10
125	37
126	993
127	264
128	19
130	5
132	5
146	2
148	2
154	12
172	4
173	5
189	2
200	11
201	18
202	7
203	3
228	6
246	264
247	42
248	3
