Mass Spectrum: Propanamide, N-(1-cyclohexylethyl)-
Formula: C11H21NO
CAS: 1344252-05-6
Molecular weight: 183
m/z	intensity
39	106
40	36
41	133
42	86
43	157
44	999
45	48
53	26
54	25
55	84
56	27
57	77
67	38
68	11
69	31
70	19
71	11
72	10
74	132
79	13
81	21
82	12
95	17
97	10
98	19
99	166
100	66
101	43
112	17
154	17
184	35
