Mass Spectrum: 3-Oxabicyclo[3.2.1]octane-2,4-dione, 1-bromo-5,8,8-trimethyl-
Formula: C10H13BrO3
CAS: 13441-28-6
Molecular weight: 260
m/z	intensity
28	386
29	133
36	62
37	48
38	80
39	515
40	146
41	888
42	97
43	173
44	88
45	62
46	53
50	80
51	164
52	111
53	275
54	66
55	302
56	53
62	53
63	75
65	137
66	75
67	311
68	146
69	999
70	115
77	213
78	75
79	182
80	44
81	75
82	48
83	226
84	53
85	48
91	151
92	53
93	168
94	275
95	84
96	44
105	40
107	44
108	40
109	97
110	40
121	40
122	48
129	75
131	44
137	702
138	124
173	142
174	35
175	120
201	22
203	26
