Mass Spectrum: Clorotepine
Formula: C19H21ClN2S
CAS: 13448-22-1
Molecular weight: 344
m/z	intensity
15	4
18	1
26	1
27	10
28	40
29	22
30	19
34	1
36	2
38	2
39	12
40	3
41	22
42	259
43	164
44	119
45	18
46	1
47	1
49	1
50	6
51	17
52	4
53	3
54	26
55	36
56	466
57	129
58	178
59	8
60	5
61	1
62	6
63	25
64	5
65	10
66	1
67	2
68	7
69	22
70	999
71	104
72	309
73	19
74	6
75	15
76	8
77	28
78	11
79	3
80	2
81	5
82	19
83	35
84	48
85	232
86	88
87	11
88	9
89	46
90	11
91	21
92	7
93	6
94	2
95	8
96	6
97	208
98	50
99	494
100	69
101	11
102	14
103	10
104	19
105	9
106	11
107	3
108	8
109	7
110	3
111	21
112	118
113	24
114	8
115	17
116	8
117	13
118	7
119	4
120	5
121	21
122	6
123	14
124	4
125	13
126	11
127	9
128	5
129	2
130	17
131	8
132	7
133	10
134	33
135	14
136	8
137	8
138	11
139	27
140	6
141	2
142	2
143	5
144	11
145	11
146	4
147	6
148	4
149	9
150	21
151	34
152	31
153	7
154	3
155	9
156	3
157	6
158	7
159	2
160	2
161	3
162	8
163	43
164	44
165	183
166	38
167	6
168	9
169	7
170	8
171	9
172	3
173	4
174	8
175	12
176	85
177	40
178	122
179	25
180	5
181	5
182	8
183	8
184	16
185	4
186	6
187	13
188	4
189	4
190	6
191	7
192	4
193	5
194	2
195	17
196	12
197	11
198	3
199	26
200	5
201	10
202	4
203	4
204	10
205	11
206	6
207	9
208	114
209	104
210	237
211	57
212	115
213	39
214	36
215	12
216	3
217	3
218	6
219	4
220	3
221	14
222	10
223	11
224	5
225	4
226	2
227	3
228	1
229	1
230	2
231	43
232	9
233	22
234	9
235	7
236	9
237	9
238	29
239	8
240	5
241	3
242	4
243	5
244	118
245	184
246	77
247	69
248	15
249	5
250	16
251	5
252	6
253	2
254	10
255	4
256	5
257	6
258	11
259	95
260	35
261	37
262	12
263	3
264	3
265	1
266	2
267	1
268	4
269	3
270	8
271	6
272	82
273	49
274	90
275	26
276	24
277	5
278	2
279	1
281	1
283	3
284	5
285	28
286	31
287	35
288	24
289	12
290	6
291	1
296	1
298	1
299	1
300	25
301	44
302	17
303	17
304	4
305	1
308	1
309	8
310	2
311	6
312	2
313	2
314	2
315	10
316	6
317	5
318	2
319	1
327	1
329	7
330	2
331	2
340	2
341	1
342	8
343	21
344	51
345	18
346	19
347	4
348	1
