Mass Spectrum: N-(2,7-Dimethylocta-1,7-dien-3-yl)-1H-benzimidazole
Formula: C17H22N2
CAS: 134532-04-0
Molecular weight: 254
m/z	intensity
39	90
40	231
41	168
42	6
43	13
44	125
50	14
51	42
52	26
53	96
54	5
55	138
58	3
59	2
61	6
63	69
64	69
65	43
66	5
67	101
68	64
69	163
73	5
74	3
75	12
76	27
77	115
78	32
79	114
80	25
81	486
82	36
83	6
85	3
88	3
89	13
90	57
91	201
92	72
93	179
94	31
95	75
96	5
101	3
102	38
103	11
104	13
105	28
106	8
107	54
108	13
115	45
116	14
117	54
118	999
119	644
120	53
121	135
127	2
129	21
130	7
131	112
132	53
134	12
135	2
136	9
141	2
142	2
143	14
144	30
145	24
156	145
157	91
158	13
168	2
169	51
170	33
171	942
172	154
173	12
181	10
182	6
183	14
184	5
185	33
186	38
197	16
199	5
207	5
208	2
211	5
212	4
213	23
214	7
225	6
233	6
235	2
239	21
247	7
248	10
249	2
250	2
251	3
252	10
253	39
254	173
255	26
