Mass Spectrum: 11H-Dibenzo[b,e][1,4]diazepin-11-one, 5-(3-aminopropyl)-5,10-dihydro-
Formula: C16H17N3O
CAS: 13450-73-2
Molecular weight: 267
m/z	intensity
28	105
29	62
30	999
31	116
32	10
39	325
40	40
41	669
42	401
43	794
44	437
45	187
47	120
48	58
50	223
51	419
52	209
53	227
54	125
55	580
56	531
57	723
58	178
59	58
60	156
63	178
64	160
65	477
66	98
67	169
68	89
69	446
70	223
71	531
72	49
73	169
74	98
75	160
76	401
77	794
78	357
79	147
80	58
81	223
82	107
83	299
84	138
85	214
87	44
88	58
89	138
90	196
91	357
92	339
93	147
94	31
95	200
96	71
97	218
98	80
99	71
101	93
102	223
103	142
104	232
105	241
106	89
107	53
109	93
110	31
111	93
112	40
113	40
115	102
116	58
117	89
118	915
119	513
120	223
121	107
123	44
125	49
126	71
127	254
128	156
129	147
130	133
131	80
132	209
133	71
135	31
139	84
140	84
141	44
145	49
149	49
151	44
152	98
153	138
154	250
155	89
156	35
165	44
166	250
167	375
168	98
169	44
170	35
179	200
180	352
181	732
182	169
183	49
192	49
193	142
194	178
195	624
196	147
205	107
206	71
207	44
208	35
209	544
210	178
211	35
219	44
221	303
222	102
223	696
224	196
235	53
236	58
237	303
238	549
239	84
249	401
250	214
251	35
267	767
268	133
