Mass Spectrum: 4-Nitro-benzoic acid, 2-diethylamino-ethyl ester
Formula: C13H18N2O4
CAS: 13456-39-8
Molecular weight: 266
m/z	intensity
26	3
27	30
28	65
29	48
30	92
31	2
38	2
39	10
40	2
41	20
42	49
43	19
44	40
45	4
49	18
51	6
52	2
53	3
54	8
55	14
56	64
57	22
58	151
59	7
63	4
64	6
65	19
66	3
67	3
68	4
69	9
70	22
71	33
72	18
73	2
74	5
75	13
76	45
77	11
78	2
79	2
80	2
81	4
82	4
83	4
84	40
85	7
86	999
87	90
88	3
91	5
92	26
93	5
94	3
95	5
96	3
97	9
98	4
99	78
100	20
103	4
104	60
105	9
107	2
108	2
109	4
111	2
114	3
115	2
116	2
119	3
120	48
121	8
122	3
123	2
136	5
137	11
141	3
148	29
149	13
150	64
151	6
164	11
165	2
178	3
183	2
186	2
194	94
195	13
196	2
251	17
252	2
265	3
266	6
