Mass Spectrum: 3-(4-Chlorophenyl)-2-cyano-but-2-enoic acid, ethyl ester
Formula: C13H12ClNO2
CAS: 13455-81-7
Molecular weight: 249
m/z	intensity
12	6
13	6
14	33
15	184
16	13
17	19
18	66
19	6
26	104
27	546
28	126
29	999
30	95
31	10
35	9
36	16
37	37
38	71
39	168
40	28
41	35
42	22
43	108
44	26
45	28
47	4
49	23
50	220
51	193
52	37
53	9
54	3
55	9
57	18
59	1
60	6
61	37
62	69
63	160
64	59
65	37
66	22
67	8
68	4
69	14
71	43
72	7
73	54
74	108
75	297
76	85
77	82
78	11
79	2
80	4
81	2
82	2
84	15
85	39
86	40
87	73
88	69
89	68
90	20
91	12
92	6
93	1
94	1
95	2
96	3
97	16
98	20
99	88
100	62
101	110
102	113
103	43
104	6
105	6
108	4
109	6
110	14
111	63
112	133
113	195
114	244
115	259
116	41
117	5
118	2
119	5
121	3
122	4
123	30
124	17
125	58
126	97
127	55
128	25
129	11
130	48
131	23
132	3
133	2
134	7
135	7
136	29
137	167
138	57
139	122
140	562
141	271
142	67
143	10
144	1
147	9
148	11
149	178
150	39
151	61
152	14
153	8
154	6
155	14
156	8
157	14
158	163
159	20
161	83
162	83
163	100
164	74
165	37
166	20
167	7
168	19
169	9
170	7
171	2
174	19
175	39
176	33
177	287
178	45
179	89
180	12
181	4
183	2
184	1
186	299
187	37
188	6
189	2
190	15
191	73
192	26
193	107
194	17
195	27
196	9
197	1
203	139
204	188
205	71
206	80
207	13
208	7
209	1
214	33
215	6
216	2
220	91
221	86
222	39
223	28
224	4
230	1
234	3
235	0
236	1
248	10
249	170
250	30
251	58
252	9
253	1
