Mass Spectrum: p-Chlorophenyl-2-hydroxyethyl sulfide
Formula: C8H9ClOS
CAS: 13457-98-2
Molecular weight: 188
m/z	intensity
14	15
15	38
18	2
19	27
26	19
27	82
28	20
29	76
31	102
35	3
36	4
37	19
38	23
39	50
42	11
43	58
45	999
46	54
47	62
48	4
49	16
50	121
51	88
52	4
53	6
57	18
58	33
59	16
60	8
61	27
62	40
63	104
64	12
65	40
66	4
68	3
69	90
70	7
71	9
72	6
73	57
74	66
75	210
76	43
77	97
78	27
79	10
81	25
82	51
83	7
84	10
85	27
86	7
87	6
89	14
91	11
92	4
93	10
94	3
95	4
96	3
97	8
99	59
100	32
101	23
102	13
103	4
105	5
106	7
107	24
108	239
109	141
110	23
111	55
112	43
113	29
114	14
115	8
118	9
120	5
121	83
122	72
123	16
124	4
125	46
126	5
127	18
128	4
131	5
133	6
134	12
135	12
136	3
141	3
142	18
143	96
144	377
145	65
146	142
147	12
148	6
155	13
157	956
158	105
159	314
160	36
161	14
169	4
170	4
171	5
172	3
186	7
188	786
189	76
190	309
191	25
192	10
