Mass Spectrum: N-(2,7-Dimethylocta-2,7-dienyl)-1H-benzimidazole
Formula: C17H22N2
CAS: 134532-05-1
Molecular weight: 254
m/z	intensity
39	65
40	189
41	156
42	4
44	52
50	5
51	35
52	4
53	87
54	3
55	137
58	2
62	7
63	40
64	23
65	37
66	7
67	63
68	48
69	151
77	119
78	28
79	50
80	19
81	586
82	28
91	119
92	46
93	90
94	9
95	75
96	7
118	999
119	584
120	38
121	60
131	180
132	62
133	3
134	3
144	6
156	17
157	25
169	55
170	25
171	60
172	18
183	66
184	5
185	54
186	71
187	2
197	11
198	43
199	6
239	40
240	6
251	2
252	8
253	43
254	238
255	11
