Mass Spectrum: N,N-Dimethyl-2-phenoxyethylamine
Formula: C10H15NO
CAS: 13468-02-5
Molecular weight: 165
m/z	intensity
30	27
38	5
39	27
40	5
41	7
42	76
43	28
44	76
50	7
51	24
56	27
57	18
58	999
59	39
63	6
65	19
66	7
70	11
71	20
72	25
77	34
91	7
94	14
164	21
165	83
166	10
