Mass Spectrum: Carbonochloridothioic acid, S-phenyl ester
Formula: C7H5ClOS
CAS: 13464-19-2
Molecular weight: 172
m/z	intensity
26	20
27	80
36	20
37	40
38	180
44	20
45	60
50	80
51	110
57	30
58	10
62	10
63	50
65	230
66	40
69	120
74	20
75	10
77	100
81	10
82	30
83	10
84	10
108	40
109	999
110	160
111	50
112	20
137	240
138	10
139	10
144	30
146	10
172	170
174	40
