Mass Spectrum: 3-Azabicyclo[3.3.1]nonane, 9.beta.-methoxy-3-methyl-
Formula: C10H19NO
CAS: 13466-47-2
Molecular weight: 169
m/z	intensity
39	122
41	258
42	264
43	80
44	532
45	177
53	58
55	71
57	187
58	999
59	251
67	64
71	187
83	64
94	258
111	16
122	25
138	258
154	161
160	16
168	112
169	193
