Mass Spectrum: Pyrido[3,4-d](1,3)-dioxine, 2,2,5,8-tetramethyl-
Formula: C11H15NO2
CAS: 13462-55-0
Molecular weight: 193
m/z	intensity
41	145
42	182
43	779
44	12
45	2
47	17
48	9
49	92
50	54
51	212
52	105
53	148
54	24
55	17
56	2
57	7
58	25
59	57
60	2
61	2
62	13
63	58
64	26
65	281
66	917
67	96
69	2
70	1
71	1
73	0
74	3
75	3
77	138
78	31
79	73
80	35
81	8
82	4
84	3
86	2
88	6
89	4
90	2
91	8
92	31
93	8
94	12
95	2
96	0
97	0
104	7
106	281
107	999
108	84
109	5
110	0
111	0
116	0
117	0
118	1
119	0
120	57
121	2
122	9
123	2
124	1
132	2
133	1
135	807
136	69
137	4
147	0
148	1
149	0
150	9
151	3
152	1
160	1
162	3
164	0
177	0
178	5
191	1
192	7
193	455
194	58
195	6
