Mass Spectrum: 1,4-Naphthoquinone, 2-methylamino-3-morpholino-
Formula: C15H16N2O3
CAS: 134614-08-7
Molecular weight: 272
m/z	intensity
40	5
41	34
42	59
43	33
44	28
45	15
47	9
48	2
49	2
50	21
51	30
52	23
53	15
54	69
55	50
56	251
57	155
58	40
59	4
60	1
62	2
63	12
64	4
65	28
66	9
67	6
68	14
69	11
70	13
71	13
72	7
73	3
74	8
75	21
76	79
77	138
78	23
79	9
80	6
81	9
82	8
83	39
84	7
85	39
86	999
87	66
88	13
89	25
90	8
91	9
92	16
93	5
94	5
95	5
96	1
97	4
98	5
99	4
100	36
101	28
102	65
103	105
104	79
105	115
107	7
108	3
109	6
110	1
111	3
112	1
113	16
114	22
115	28
116	20
117	9
118	2
119	1
120	2
121	14
122	1
123	1
124	1
125	4
126	4
127	14
128	27
129	35
130	126
131	66
132	28
133	9
135	1
136	1
137	1
138	1
139	3
140	28
141	11
142	9
143	10
144	13
145	9
147	1
148	1
149	9
150	1
153	1
154	7
155	7
156	12
157	19
158	271
159	72
160	187
161	22
162	1
165	1
166	1
167	3
168	5
169	35
170	31
171	32
172	16
173	28
174	5
175	1
180	1
181	1
182	6
183	10
184	10
185	29
186	260
187	813
188	100
189	11
195	1
196	4
197	96
198	38
199	52
200	57
201	17
202	2
209	1
210	14
211	14
212	20
213	259
214	347
215	52
216	6
223	1
224	1
225	8
226	9
227	12
228	2
241	6
242	105
243	44
244	9
255	5
256	1
257	1
266	1
271	12
272	646
273	115
274	9
275	0
