Mass Spectrum: Octaneperoxoic acid, 1,1-dimethylethyl ester
Formula: C12H24O3
CAS: 13467-82-8
Molecular weight: 216
m/z	intensity
43	179
57	999
58	29
71	30
73	169
83	9
84	9
99	49
109	9
127	328
128	9
144	10
155	10
216	566
