Mass Spectrum: E-11(12-Cyclopropyl)dodecen-1-ol
Formula: C15H28O
CAS: 134760-88-6
Molecular weight: 224
m/z	intensity
41	577
42	66
43	150
44	14
45	14
50	3
51	15
52	16
53	189
54	245
55	510
56	55
57	77
58	7
59	3
60	0
61	0
63	3
64	0
65	52
66	114
67	880
68	999
69	239
70	42
71	51
72	6
73	3
77	63
78	24
79	395
80	260
81	760
82	601
83	148
84	34
85	32
86	5
87	1
89	1
91	30
92	11
93	127
94	121
95	326
96	281
97	88
98	55
99	13
100	2
101	1
103	1
105	5
106	3
107	65
108	49
109	121
110	87
111	39
112	16
113	3
114	1
115	1
119	2
120	2
121	81
122	32
123	44
124	33
125	12
126	4
127	1
128	1
129	0
133	2
134	2
135	54
136	18
137	17
138	12
139	5
140	2
141	1
142	0
143	3
147	1
149	24
150	7
151	6
152	4
153	3
154	1
155	3
156	1
157	2
163	9
164	3
165	3
166	0
167	2
168	1
169	0
177	4
178	3
179	1
180	2
181	2
182	1
191	1
193	1
195	1
196	16
197	2
205	0
206	2
207	1
209	1
210	0
219	0
223	1
224	67
225	12
226	1
227	1
