Mass Spectrum: Isoxazolo[2,3-a]pyridine, perhydro-2-[2-(4-benzyloxy)phenyl]ethyl-
Formula: C22H27NO2
CAS: 134721-10-1
Molecular weight: 337
m/z	intensity
37	0
38	3
39	47
40	6
41	92
42	38
43	25
44	15
45	3
46	5
47	0
50	6
51	17
52	10
53	12
54	27
55	64
56	63
57	12
58	3
59	0
60	0
62	3
63	13
64	6
65	95
66	8
67	17
68	13
69	32
70	19
71	3
72	4
73	0
74	0
75	0
76	1
77	32
78	18
79	10
80	6
81	9
82	33
83	20
84	415
85	25
86	3
88	2
89	18
91	999
92	80
93	8
94	4
95	3
96	31
97	29
98	26
99	93
100	75
101	5
102	5
103	6
104	8
105	13
106	6
107	27
108	4
109	4
110	19
111	2
112	4
115	5
116	1
117	3
118	12
119	22
120	9
121	20
122	5
123	2
124	22
125	3
126	31
127	12
128	3
129	1
130	4
131	3
132	0
133	2
134	3
135	2
136	5
138	1
139	4
140	16
141	2
144	0
145	2
146	3
147	1
151	2
152	5
153	5
154	21
155	4
163	3
165	4
167	4
172	4
174	136
175	18
176	0
178	3
183	2
188	5
192	0
195	2
198	1
202	3
207	0
209	0
210	44
211	10
212	3
213	3
218	4
222	0
226	4
228	4
230	2
237	3
239	3
240	5
246	17
247	3
254	6
255	2
262	3
292	6
294	5
336	8
337	36
338	8
