Mass Spectrum: 2-Bromo-myristoyl-glycinamide
Formula: C16H31BrN2O2
CAS: 134764-29-7
Molecular weight: 362
m/z	intensity
41	603
42	157
43	776
44	192
45	37
46	10
47	77
48	25
49	29
50	10
51	9
52	4
53	74
54	70
55	999
56	222
57	460
58	117
59	29
60	13
61	1
62	1
65	14
66	11
67	155
68	68
69	373
70	86
71	181
72	35
73	146
74	45
75	353
76	16
77	14
78	3
79	42
80	20
81	143
82	55
83	440
84	200
85	244
86	69
87	33
88	5
89	3
91	15
92	2
93	24
94	10
95	87
96	25
97	157
98	169
99	80
100	21
101	286
102	12
103	3
105	17
106	7
107	36
108	10
109	52
110	15
111	67
112	196
113	26
114	16
115	10
116	141
117	11
118	11
119	16
120	18
121	31
122	13
123	22
124	10
125	19
126	32
127	9
128	2
129	99
130	9
131	1
132	4
133	65
134	7
135	49
136	5
137	18
138	9
139	13
140	24
141	7
142	8
143	6
146	7
147	5
149	46
150	163
151	42
152	61
153	13
154	33
155	7
156	6
157	1
158	1
161	4
162	13
163	14
164	12
165	11
166	9
167	7
168	38
169	5
170	1
171	4
172	3
174	6
175	5
176	13
177	263
178	24
179	257
180	16
181	6
182	22
183	4
184	5
185	4
188	6
189	1
190	32
191	19
192	33
194	604
195	30
196	583
197	31
198	9
199	4
202	6
204	8
205	4
206	9
207	21
208	9
209	146
210	31
211	18
212	12
213	3
218	23
219	9
220	23
221	10
222	5
223	2
224	26
225	4
226	1
232	24
233	3
234	23
235	4
236	18
237	5
238	74
239	15
240	876
241	150
242	16
244	3
246	27
247	3
248	24
249	12
250	1
251	9
252	1
255	10
256	1
260	6
262	3
263	7
264	2
265	17
266	676
267	120
268	15
274	23
275	7
276	11
277	1
280	1
281	1
282	5
283	487
284	90
285	12
288	10
289	4
290	15
291	5
292	6
301	11
302	12
303	5
304	10
316	9
317	1
318	166
319	35
320	155
321	31
322	3
344	7
345	53
346	20
347	54
348	13
361	1
362	18
363	21
364	21
365	20
366	2
