Mass Spectrum: E-1-Methoxy-4-hexene
Formula: C7H14O
CAS: 134777-60-9
Molecular weight: 114
m/z	intensity
39	170
40	50
41	310
42	70
43	230
45	640
46	10
53	80
54	150
55	220
56	30
57	30
58	280
59	10
67	999
68	70
69	30
71	190
72	20
81	90
82	580
83	40
85	30
86	10
114	10
