Mass Spectrum: Borinic acid, diphenyl-, methyl ester
Formula: C13H13BO
CAS: 13471-36-8
Molecular weight: 196
m/z	intensity
26	8
27	22
29	108
30	17
31	211
33	3
36	2
37	10
38	9
39	54
40	5
41	24
42	8
43	21
44	12
45	4
49	5
50	54
51	131
52	53
53	34
54	5
55	13
56	7
57	19
58	2
59	4
60	7
61	27
62	9
63	22
64	5
65	31
66	14
67	20
68	4
69	9
70	5
71	10
72	9
73	17
74	19
75	13
76	29
77	171
78	213
79	25
80	3
81	7
82	6
83	7
84	4
85	11
86	7
87	20
88	7
89	24
90	10
91	177
92	78
93	24
94	5
95	4
96	3
97	7
98	9
99	3
100	4
101	5
102	26
103	104
104	102
105	48
106	5
107	3
108	2
109	3
110	6
111	6
112	6
113	19
114	3
115	10
116	34
117	150
118	333
119	999
120	87
121	7
122	2
123	2
124	2
125	3
126	4
127	6
128	8
129	4
130	2
131	3
132	2
133	2
134	1
135	7
136	9
137	27
138	6
139	8
140	2
141	17
142	9
143	2
147	11
148	34
149	17
150	10
151	9
152	33
153	34
154	35
155	12
156	4
157	1
160	2
161	6
162	11
163	43
164	31
165	37
166	8
167	12
168	4
169	3
170	1
175	2
176	2
177	5
178	9
179	13
180	27
181	63
182	52
183	10
184	4
189	2
190	1
191	2
192	2
193	3
194	21
195	222
196	586
197	89
198	8
199	1
