Mass Spectrum: 3-Cyano-3-octyl-1,4-cyclohexadiene
Formula: C15H23N
CAS: 134820-82-9
Molecular weight: 217
m/z	intensity
40	5
41	147
42	26
43	233
55	50
56	11
57	196
65	8
69	16
71	117
76	6
77	77
78	19
91	55
92	12
103	37
104	528
105	999
106	74
