Mass Spectrum: Boron, (N,N-dimethyl-N'-phenylureato-N,N')bis(trifluoromethyl)-, (t-4)-
Formula: C11H11BF6N2O
CAS: 134846-02-9
Molecular weight: 312
m/z	intensity
30	4
37	2
38	6
39	18
42	24
43	3
44	15
45	0
46	1
48	1
49	7
50	9
51	28
52	6
53	0
54	1
55	2
56	8
57	2
58	11
60	1
61	1
62	3
63	15
64	37
65	30
66	3
67	1
68	6
69	3
70	3
71	2
72	566
73	31
74	61
75	8
76	12
77	56
78	7
79	0
80	0
81	1
82	1
87	0
88	0
89	24
90	96
91	170
92	144
93	33
94	18
95	6
96	3
97	5
98	1
99	3
100	3
101	0
102	3
103	7
104	7
105	4
106	7
107	1
110	0
112	0
113	1
114	2
115	4
116	0
117	2
118	12
119	999
120	81
121	46
122	8
123	19
124	36
125	2
127	30
128	3
129	0
130	1
131	2
132	28
133	3
134	2
135	3
136	2
137	1
139	4
140	11
141	6
142	1
145	1
146	3
147	104
148	15
149	5
150	3
151	0
152	1
153	2
154	5
155	0
156	0
162	1
163	5
164	3
165	1
166	0
167	4
168	15
169	1
170	0
173	4
174	14
175	0
177	0
178	1
183	0
184	1
185	1
190	1
191	0
192	11
193	44
194	7
195	1
196	2
197	4
198	2
199	0
210	2
211	37
212	108
213	13
214	0
218	0
223	0
240	0
242	2
243	5
244	0
311	41
312	179
313	27
314	1
