Mass Spectrum: Piperazinetrione
Formula: C4H4N2O3
CAS: 13484-48-5
Molecular weight: 128
m/z	intensity
25	1
26	8
27	77
28	487
29	567
30	57
31	2
35	0
36	1
38	10
39	9
40	34
41	11
42	281
43	96
44	237
45	16
46	11
47	0
50	1
51	1
52	1
53	4
54	18
55	16
56	67
57	252
58	11
59	11
60	5
66	0
67	0
68	0
69	0
70	28
71	3
72	126
73	8
74	11
75	5
77	0
78	0
79	0
80	0
81	0
82	4
83	5
84	1
85	16
86	2
87	30
88	2
89	0
91	0
93	0
96	0
97	0
98	0
99	0
100	999
101	47
102	17
103	4
105	0
108	0
109	0
110	0
111	0
112	1
113	1
114	1
115	0
116	0
118	3
119	0
127	0
128	146
129	42
130	3
