Mass Spectrum: Ethyl 2-((methylamino)carbonyl)hydrazinecarboxylate
Formula: C5H11N3O3
CAS: 13482-66-1
Molecular weight: 161
m/z	intensity
33	12
34	1
36	1
37	0
38	1
39	2
40	9
41	5
42	16
43	40
44	67
45	419
46	13
47	2
50	0
51	0
52	0
53	0
54	1
55	5
56	13
58	509
59	54
60	9
61	2
62	10
63	1
64	1
65	0
66	0
67	1
68	0
69	1
70	1
71	5
72	0
73	3
74	4
75	13
76	45
77	3
78	0
79	0
81	0
82	0
83	1
85	11
86	4
87	1
88	8
89	2
90	0
91	1
92	2
93	0
94	0
95	0
96	0
97	1
98	0
99	0
100	0
101	1
102	6
104	999
105	48
106	5
107	0
108	0
109	0
110	0
111	1
112	0
113	1
115	62
116	77
117	3
118	0
119	0
120	2
121	2
122	0
123	0
125	0
127	0
128	0
129	0
130	1
131	4
132	0
133	0
134	1
135	0
136	0
137	0
138	0
139	6
140	0
141	2
146	0
147	0
148	1
149	2
150	0
151	0
153	0
156	1
158	0
159	0
161	18
162	2
163	0
164	0
