Mass Spectrum: 10-Octadecenoic acid, methyl ester
Formula: C19H36O2
CAS: 13481-95-3
Molecular weight: 296
m/z	intensity
26	9
27	130
28	170
29	280
30	11
31	17
32	14
33	4
35	3
36	12
37	4
38	6
39	110
40	26
41	720
42	140
43	590
44	90
45	35
46	4
48	2
49	2
50	4
51	8
52	8
53	77
54	230
55	999
56	240
57	250
58	17
59	190
60	12
61	6
62	3
63	4
64	3
65	20
66	20
67	300
68	190
69	600
70	170
71	100
72	16
73	50
74	550
75	75
76	7
77	23
78	10
79	61
80	42
81	250
82	170
83	450
84	320
85	79
86	8
87	370
88	34
89	5
90	2
91	21
92	7
93	33
94	38
95	190
96	290
97	340
98	250
99	38
100	12
101	57
102	8
103	3
104	3
105	12
106	6
107	27
108	26
109	100
110	160
111	160
112	57
113	29
114	39
115	62
116	11
117	4
118	3
119	21
120	9
121	31
122	15
123	110
124	80
125	90
126	21
127	29
128	43
129	42
130	11
131	4
132	3
133	20
134	15
135	29
136	12
137	63
138	62
139	56
140	12
141	58
142	15
143	34
144	6
145	3
146	2
147	15
148	12
149	20
150	10
151	40
152	45
153	32
154	9
155	20
156	6
157	15
158	4
159	3
160	2
161	13
162	6
163	12
164	9
165	27
166	35
167	20
168	6
169	20
170	5
171	12
172	4
173	2
174	1
175	8
176	4
177	6
178	4
179	17
180	73
181	21
182	5
183	12
184	4
185	10
186	4
187	3
188	1
189	6
190	2
191	4
192	3
193	12
194	16
195	7
196	3
197	5
198	2
199	10
200	6
201	2
202	1
203	3
204	2
205	3
206	2
207	12
208	10
209	5
210	3
211	3
212	2
213	7
214	5
215	2
216	1
217	2
218	2
219	2
220	29
221	21
222	100
223	22
224	4
225	3
226	2
227	4
228	3
229	2
231	2
232	1
233	2
234	2
235	14
236	13
237	4
238	1
239	3
240	2
241	3
242	1
245	2
246	11
247	8
248	3
249	3
250	2
251	1
252	1
253	6
254	2
255	2
256	1
257	1
260	1
262	2
263	4
264	200
265	110
266	18
267	5
268	2
278	3
279	2
280	1
281	2
282	1
283	1
284	2
285	1
294	3
295	2
296	32
297	7
298	2
299	1
