Mass Spectrum: 2-Amino-3(4-bromobenzoyl)-pyrrolidino-[1,2-a]-imidazole
Formula: C13H12BrN3O
CAS: 134881-52-0
Molecular weight: 305
m/z	intensity
12	4
14	11
15	46
16	5
17	30
18	97
26	49
27	208
28	631
29	46
30	38
31	4
32	5
37	18
38	57
39	225
40	211
41	999
42	201
43	122
44	22
45	5
49	11
50	367
51	149
52	98
53	192
54	231
55	199
56	53
57	11
58	3
61	10
62	30
63	39
64	23
65	22
66	85
67	125
68	718
69	69
70	7
71	4
73	15
74	129
75	403
76	480
77	127
78	32
79	30
80	26
81	38
82	25
83	46
84	6
85	8
86	9
87	18
88	25
89	34
90	15
91	9
92	10
93	30
94	36
95	231
96	19
97	13
98	7
99	11
100	21
101	17
102	42
103	121
104	108
105	49
106	9
107	9
108	3
109	12
110	4
111	3
113	16
114	19
115	19
116	30
117	19
118	8
119	8
120	19
121	23
122	292
123	44
124	7
125	4
126	5
127	13
128	16
129	29
130	27
131	31
132	12
133	6
134	5
135	8
140	5
141	8
142	14
143	18
144	12
145	9
146	3
148	50
149	18
150	198
151	20
152	7
153	6
155	315
156	44
157	327
158	45
159	8
160	4
167	5
168	8
169	20
170	36
171	41
172	10
180	3
181	7
182	23
183	246
184	52
185	238
186	23
194	4
195	7
196	10
197	20
198	39
199	15
200	2
206	3
207	6
208	10
209	18
210	17
211	11
212	8
213	3
221	3
222	5
223	8
224	43
225	45
226	43
227	6
235	3
236	4
237	7
238	4
239	5
240	1
247	1
248	3
249	8
250	3
251	10
252	2
253	2
261	2
262	3
263	5
264	3
265	4
276	14
277	8
278	17
279	7
280	3
288	5
289	4
290	7
291	3
292	1
302	2
304	320
305	253
306	336
307	240
308	36
309	2
