Mass Spectrum: Ethyl 2,3-dimethyl-1,3-oxazolidine-2-acetate
Formula: C9H17NO3
CAS: 134896-24-5
Molecular weight: 187
m/z	intensity
15	18
27	22
29	43
30	24
39	12
41	22
42	67
43	98
44	41
45	11
55	17
56	97
57	40
58	244
59	14
71	13
84	45
85	19
96	11
98	19
99	17
100	999
101	62
112	10
126	11
128	27
142	32
143	12
144	105
156	15
172	86
187	13
