Mass Spectrum: Ethyl 2-methyl-1,3-oxazolidine-2-propanoate
Formula: C9H17NO3
CAS: 134896-26-7
Molecular weight: 187
m/z	intensity
27	176
29	127
30	129
31	160
39	60
41	111
42	446
43	213
44	640
45	279
54	79
55	396
56	81
70	72
82	299
83	75
84	125
85	90
86	999
87	67
98	224
99	57
110	173
111	68
114	60
126	268
128	62
141	80
142	325
156	248
157	60
