Mass Spectrum: 1,3-Oxazolidine-2-butanoic acid, 2,3-dimethyl-, methyl ester
Formula: C10H19NO3
CAS: 134896-33-6
Molecular weight: 201
m/z	intensity
15	42
27	35
29	25
30	30
39	21
41	32
42	55
43	84
44	58
55	181
56	52
57	26
58	303
59	52
70	23
85	30
96	26
97	23
98	43
100	999
101	75
112	131
124	26
170	129
186	138
