Mass Spectrum: 1,3-Oxazolidine-2-propanoic acid, 2,3-dimethyl-, ethyl ester
Formula: C10H19NO3
CAS: 134896-28-9
Molecular weight: 201
m/z	intensity
15	13
27	27
28	49
29	36
30	29
41	17
42	41
43	70
44	28
55	27
56	57
57	34
58	363
59	17
84	12
98	55
99	19
100	999
101	74
112	72
156	186
157	20
158	46
186	112
187	12
