Mass Spectrum: Methyl trans-4-(2-nonylcyclopentyl)butanoate
Formula: C19H36O2
CAS: 134861-68-0
Molecular weight: 296
m/z	intensity
30	4
31	1
39	83
41	655
42	98
43	658
44	32
47	1
52	1
53	62
54	107
55	610
56	107
57	201
58	10
59	131
60	4
65	14
66	8
67	307
68	128
69	308
70	56
71	100
72	8
73	14
74	999
75	180
76	4
77	14
78	4
79	83
80	32
81	211
82	120
83	229
84	97
85	65
87	292
88	39
91	42
92	10
93	73
94	60
95	254
96	145
97	253
98	72
99	21
101	68
102	35
105	20
107	36
108	65
109	122
110	103
111	111
112	24
113	14
114	14
115	15
119	118
120	36
121	84
122	17
123	48
124	27
125	39
126	4
127	31
128	15
129	13
133	45
134	461
135	93
136	18
137	82
138	32
139	24
141	14
146	1
147	49
148	25
149	20
151	27
152	13
154	1
155	6
161	11
162	3
166	13
169	24
174	6
175	8
176	4
177	7
180	13
191	24
220	681
221	145
222	25
223	11
246	51
247	39
248	10
253	51
254	6
264	21
278	11
