Mass Spectrum: Cyclohexanemethanol, 2-(2-propenyl)-, trans-
Formula: C10H18O
CAS: 134837-38-0
Molecular weight: 154
m/z	intensity
26	5
27	112
28	13
29	110
30	4
31	81
37	3
38	7
39	178
40	29
41	402
42	33
43	67
44	9
45	37
46	1
50	8
51	31
52	17
53	119
54	114
55	251
56	19
57	88
58	23
59	3
62	3
63	8
64	3
65	46
66	40
67	470
68	122
69	251
70	30
71	19
72	18
73	3
74	2
75	3
76	2
77	79
78	29
79	199
80	115
81	344
82	195
83	54
84	12
85	3
86	4
87	2
89	3
90	2
91	58
92	13
93	162
94	236
95	999
96	119
97	41
98	10
99	4
100	2
103	3
104	3
105	8
106	3
107	158
108	113
109	16
110	13
111	162
112	71
113	15
114	2
115	2
117	3
119	2
120	2
121	211
122	26
123	114
124	15
125	3
126	3
135	13
136	222
137	30
138	2
139	1
153	3
154	5
155	1
