Mass Spectrum: Boron, bis(trifluoromethyl)(trimethylureato-N,N')-, (t-4)-
Formula: C6H9BF6N2O
CAS: 134846-00-7
Molecular weight: 250
m/z	intensity
26	4
27	85
28	265
29	62
30	70
31	73
33	12
37	1
38	6
39	9
40	17
41	17
42	139
43	26
44	101
45	81
46	7
47	3
48	18
49	75
50	9
51	3
52	2
53	5
54	15
55	20
56	114
57	242
58	131
59	10
60	26
61	5
62	4
63	2
64	1
65	3
66	6
67	4
68	4
69	28
70	4
71	16
72	969
73	162
74	547
75	23
76	52
77	13
78	31
79	4
80	5
81	9
82	2
83	7
84	3
85	104
86	7
87	8
88	9
89	207
90	809
91	265
92	999
93	274
94	19
95	1
96	2
97	10
98	4
99	19
100	8
101	18
102	5
103	3
104	1
105	15
106	62
107	7
108	5
109	0
110	5
111	0
112	0
113	2
114	13
115	43
116	11
117	1
118	2
119	5
120	3
121	10
122	3
123	50
124	178
125	4
126	0
127	1
128	4
129	2
130	112
131	404
132	17
133	1
134	1
135	0
136	0
137	1
138	1
139	0
140	2
142	0
143	0
144	0
147	2
148	0
149	5
150	12
151	2
152	1
158	0
159	3
160	0
171	1
172	0
173	10
174	46
175	2
179	0
180	45
181	202
182	13
183	0
184	0
199	0
209	0
218	0
226	0
249	2
250	12
251	0
