Mass Spectrum: Pregna-4,16-diene-3,20-dione, 16-methyl-
Formula: C22H30O2
CAS: 13485-43-3
Molecular weight: 326
m/z	intensity
40	17
41	171
42	9
43	999
50	10
51	62
52	23
53	100
54	9
55	121
57	5
63	20
64	7
65	70
66	13
67	72
69	17
75	5
77	149
78	45
79	151
80	20
81	63
83	15
89	11
91	226
92	34
93	84
94	12
95	55
97	18
103	18
104	13
105	122
106	24
107	140
108	24
109	30
111	10
115	51
116	14
117	35
118	8
119	52
120	18
121	74
122	23
123	43
124	16
127	9
128	28
129	38
130	12
131	38
132	10
133	60
134	66
135	62
136	12
137	25
141	18
142	15
143	31
144	14
145	47
146	9
147	64
148	14
149	55
151	7
153	7
155	8
157	26
159	50
160	10
161	48
162	8
163	27
169	21
171	14
172	5
173	45
174	5
175	42
176	8
177	14
183	10
185	17
187	37
188	6
189	23
190	7
201	11
202	5
203	16
213	7
215	11
227	5
241	14
251	12
253	12
265	6
267	6
269	30
283	231
293	19
297	10
311	339
325	5
326	166
327	52
