Mass Spectrum: Pyridine, 2-(4-pyridylmethylenamino)-
Formula: C11H9N3
CAS: 134948-84-8
Molecular weight: 183
m/z	intensity
34	6
36	27
37	239
38	405
39	636
40	334
41	495
42	81
43	76
44	31
45	39
47	48
48	12
49	70
50	398
51	777
52	549
53	96
54	45
55	22
56	7
57	11
58	3
59	3
60	6
61	19
62	46
63	124
64	101
65	99
66	199
67	999
69	9
70	5
71	6
72	1
73	4
74	11
75	43
76	54
77	61
78	413
79	667
80	50
81	9
82	3
83	4
84	4
85	3
86	1
87	2
88	3
89	6
90	9
91	75
92	19
93	58
94	728
95	45
96	2
97	3
99	2
100	3
101	7
102	7
103	7
104	21
105	64
106	40
107	89
108	8
109	4
110	2
111	1
112	1
113	1
114	0
115	1
116	1
117	1
118	1
119	3
120	1
121	2
122	2
123	5
124	0
125	0
126	1
127	3
128	12
129	22
130	16
131	2
132	1
133	1
134	0
135	1
136	1
137	0
138	0
139	1
140	0
141	0
142	0
143	0
144	0
145	0
146	0
147	0
148	0
149	1
150	1
152	0
153	1
154	4
155	51
156	32
157	3
158	0
159	0
160	0
161	0
162	0
163	0
166	0
167	0
168	0
170	1
171	1
172	0
173	0
178	0
179	2
180	9
182	231
183	98
184	16
185	1
186	0
