Mass Spectrum: Benzamide, 2-methyl-N-benzyl-N-isopropyl-
Formula: C18H21NO
CAS: 13493-25-9
Molecular weight: 267
m/z	intensity
33	0
35	11
36	63
37	11
38	36
39	85
40	12
41	54
42	21
43	45
44	40
45	15
48	2
49	9
50	59
51	96
52	108
53	17
54	3
55	4
56	10
57	1
58	8
59	6
60	2
61	4
62	14
63	48
64	18
65	197
66	11
67	7
68	1
69	1
70	2
71	1
72	6
73	2
74	7
75	10
76	9
77	62
78	38
79	190
80	10
81	1
82	0
83	0
84	2
85	1
86	3
87	2
89	61
90	54
91	999
92	86
93	4
95	6
96	0
97	0
98	0
99	0
100	0
101	0
102	1
103	4
104	17
105	28
106	34
107	20
108	2
109	0
110	0
111	0
112	0
113	0
114	0
115	2
116	5
117	6
118	59
119	855
120	75
121	5
122	4
123	0
124	0
125	0
126	0
127	0
128	1
129	0
130	2
131	1
132	13
134	164
135	20
136	80
137	6
138	0
139	0
140	0
141	0
142	0
143	0
144	0
145	0
146	3
147	1
148	9
149	16
150	3
151	0
152	1
153	0
154	0
155	0
156	0
157	0
159	3
160	1
161	0
162	1
163	0
164	0
165	2
166	1
167	1
168	0
169	0
171	0
172	0
174	0
176	38
177	5
178	1
179	1
180	0
181	2
182	0
184	0
185	0
188	0
190	0
191	0
192	0
193	0
194	4
195	1
196	1
197	0
198	0
204	0
206	0
207	0
208	1
209	0
210	9
211	2
212	0
222	0
224	33
225	7
226	0
236	0
238	2
239	1
240	0
249	0
250	0
252	102
253	21
254	2
255	0
264	0
266	15
267	66
268	14
269	1
270	0
