Mass Spectrum: 3-Azabicyclo[3.3.1]nonan-9-ol, 3-methyl-, syn-
Formula: C9H17NO
CAS: 13493-40-8
Molecular weight: 155
m/z	intensity
39	84
41	132
42	204
43	93
44	566
55	66
57	144
58	999
70	66
83	42
95	114
138	96
154	123
155	138
