Mass Spectrum: 3-Azabicyclo[3.2.1]octan-8.alpha.-ol, 3-methyl-, anti-
Formula: C8H15NO
CAS: 13493-38-4
Molecular weight: 141
m/z	intensity
39	192
41	334
42	475
43	127
44	999
53	70
55	79
57	558
58	339
67	65
70	62
74	164
79	56
81	368
82	85
84	198
87	65
94	59
124	475
140	543
141	368
