Mass Spectrum: Silane, (3-chloropropyl)ethoxydimethyl-
Formula: C7H17ClOSi
CAS: 13508-63-9
Molecular weight: 180
m/z	intensity
26	28
27	68
28	6
29	35
30	7
31	18
36	18
37	8
38	11
39	71
40	19
41	99
42	459
43	145
44	75
45	218
46	15
47	79
49	48
50	6
51	37
53	18
54	11
55	19
56	8
57	12
58	59
59	257
60	29
61	69
62	7
63	47
64	7
65	43
67	16
69	12
70	5
71	15
72	12
73	61
74	18
75	551
76	42
77	29
78	9
79	42
80	11
81	22
83	9
84	5
85	8
87	19
88	21
89	7
92	12
93	217
94	28
95	471
96	38
97	132
98	9
99	8
101	19
102	18
103	999
104	95
105	48
107	8
109	8
111	28
113	18
115	7
123	542
124	49
125	169
126	18
127	8
136	15
137	132
138	18
139	79
140	6
141	17
165	8
167	3
