Mass Spectrum: Carbonothioic acid, O,O-diphenyl ester
Formula: C13H10O2S
CAS: 13509-34-7
Molecular weight: 230
m/z	intensity
17	60
18	256
26	20
27	40
28	25
35	20
37	20
38	40
39	265
40	20
44	81
45	20
50	122
51	571
52	40
55	20
60	20
62	20
63	61
64	20
65	265
66	61
69	40
74	20
75	20
76	40
77	999
78	163
84	20
93	40
94	163
95	20
97	20
105	20
108	20
109	999
110	142
111	61
115	61
116	20
137	775
138	61
139	40
141	306
142	122
143	20
153	142
154	20
155	20
169	102
170	20
184	20
185	61
186	20
202	632
203	81
204	40
230	61
