Mass Spectrum: D-Xylononitrile, 2,3,4,5-tetraacetate
Formula: C13H17NO8
CAS: 13501-95-6
Molecular weight: 315
m/z	intensity
15	9
27	1
28	3
29	2
31	1
39	2
40	1
41	2
42	14
43	999
44	23
45	4
51	1
52	2
53	1
54	1
55	3
56	1
57	2
60	3
61	4
68	1
69	1
70	3
71	1
73	8
74	1
83	1
84	1
85	4
86	5
87	1
93	1
94	1
98	1
99	5
100	1
101	1
102	4
103	78
104	4
105	1
111	4
112	7
113	1
115	80
116	7
117	1
123	1
125	1
126	1
128	1
129	4
130	1
133	1
138	2
140	5
141	12
142	1
144	1
145	85
146	6
147	1
153	9
154	4
157	17
158	2
170	1
171	3
172	1
175	6
176	1
180	2
183	1
200	10
201	1
213	3
217	5
242	7
243	1
