Mass Spectrum: O,N-Bis(p-toluenesulfonyl)tyrosine
Formula: C23H23NO7S2
CAS: 13504-90-0
Molecular weight: 489
m/z	intensity
41	55
42	8
43	16
44	436
45	66
46	11
47	8
48	66
49	22
50	111
51	158
52	52
53	49
54	7
55	22
56	2
57	11
58	9
59	8
60	8
61	30
62	86
63	203
64	110
65	521
66	66
67	29
68	7
69	43
70	11
71	17
72	1
73	7
74	28
75	20
76	19
77	193
78	89
79	99
80	57
81	12
82	11
83	7
84	8
85	13
86	17
87	30
88	5
89	144
90	65
91	999
92	612
93	52
94	101
95	20
96	5
97	11
98	2
99	1
101	0
102	3
103	5
104	18
105	25
106	46
107	272
108	162
109	18
110	15
111	14
112	1
113	1
114	17
115	8
116	16
117	8
118	7
119	25
120	88
121	39
122	16
123	56
124	89
125	10
126	5
127	2
128	2
129	1
130	1
131	2
132	36
133	69
134	128
135	74
136	11
137	5
138	2
139	165
140	19
141	11
142	1
145	2
146	4
147	4
148	4
149	14
150	1
151	2
152	7
153	6
154	1
155	164
156	382
157	45
158	20
159	3
160	5
162	0
163	1
164	3
165	8
166	2
167	4
168	1
169	2
170	2
171	115
172	12
173	7
177	0
178	12
179	5
180	2
181	9
182	6
183	4
184	5
185	1
193	2
194	0
195	3
196	3
197	7
198	7
199	8
200	5
201	155
202	11
203	8
206	0
207	0
208	1
209	1
210	2
211	2
212	2
213	4
214	24
215	3
216	2
217	16
218	1
219	0
220	0
222	1
223	4
224	7
225	12
226	4
233	4
236	0
237	1
238	1
239	2
240	0
241	0
246	49
247	6
248	19
249	2
250	3
251	5
252	0
261	4
262	13
263	3
264	0
274	11
275	1
276	1
278	1
287	8
288	2
289	30
290	6
291	3
318	1
333	1
354	4
368	0
370	1
379	2
380	1
