Mass Spectrum: But-3-en-2-one, 4-dimethylamino-3-[1-(4-biphenyl)-5-tetrazolyl]-
Formula: C19H19N5O
CAS: 135056-83-6
Molecular weight: 333
m/z	intensity
33	8
34	1
35	0
36	3
37	4
38	14
39	103
40	51
41	130
42	525
43	464
44	130
45	31
46	5
50	25
51	57
52	34
53	39
54	50
55	101
56	105
57	187
58	18
59	4
60	20
61	7
62	15
63	38
64	12
65	22
66	34
67	60
68	76
69	103
70	69
71	37
72	13
73	24
74	17
75	24
76	36
77	61
78	15
79	19
80	41
81	83
82	151
83	999
84	131
85	28
86	9
87	17
88	14
89	24
90	8
91	21
92	7
93	19
94	32
95	123
96	95
97	44
98	20
99	14
100	10
101	16
102	23
103	8
104	6
105	37
106	7
107	40
108	17
109	43
110	32
111	40
112	34
113	28
114	23
115	72
116	14
117	6
118	4
119	12
120	4
121	14
123	95
125	475
126	71
127	39
128	15
129	14
130	5
131	9
132	2
133	4
134	4
135	12
136	15
137	59
138	71
139	107
140	98
141	41
142	8
143	8
144	5
145	6
146	2
147	3
149	13
150	44
151	151
152	507
153	137
154	27
155	6
156	3
157	4
158	1
159	1
160	0
161	5
162	2
163	7
164	19
165	38
166	203
167	305
168	67
169	37
170	8
171	6
173	2
175	4
176	7
177	26
178	56
179	84
180	61
181	26
182	20
183	5
184	8
185	40
186	7
187	2
188	1
189	7
190	7
191	13
192	19
193	94
194	110
195	32
196	6
197	2
198	0
199	2
200	1
201	1
202	3
203	5
204	10
205	12
206	23
207	16
208	12
209	6
210	1
211	1
212	0
213	2
214	0
215	1
216	2
217	5
218	20
219	62
220	22
221	33
222	9
223	3
225	0
227	1
228	5
229	4
230	2
231	11
232	16
233	33
234	22
235	31
236	15
237	4
238	0
241	1
242	2
243	4
244	3
245	15
246	24
247	27
248	39
249	15
250	4
251	1
252	0
255	2
256	4
257	5
258	2
259	5
260	19
261	68
262	133
263	92
264	18
265	2
270	1
271	1
272	6
273	3
274	5
275	24
276	13
277	11
278	3
286	5
287	6
288	19
290	172
291	70
292	11
293	1
301	0
302	8
304	182
305	159
306	32
307	3
311	1
318	2
331	2
333	177
334	37
335	5
336	0
