Mass Spectrum: Carbonic acid, thio-, S-methyl O-phenyl ester
Formula: C8H8O2S
CAS: 13509-28-9
Molecular weight: 168
m/z	intensity
44	80
45	80
46	10
47	200
50	30
51	90
62	20
63	40
64	20
65	280
66	30
75	999
76	30
77	220
78	70
79	10
93	50
94	100
95	10
97	20
108	80
125	30
140	450
141	40
142	20
168	110
