Mass Spectrum: Bicyclo[3.1.1]hept-3-ene, 2-formylmethyl-4,6,6-trimethyl-
Formula: C12H18O
CAS: 135004-95-4
Molecular weight: 178
m/z	intensity
26	3
27	103
29	9
30	1
31	1
37	1
38	7
39	159
40	11
41	318
42	18
43	346
44	9
45	4
50	11
51	60
52	19
53	95
54	9
55	126
56	9
57	25
58	15
59	0
60	1
62	5
63	21
64	6
65	87
66	22
67	89
68	14
69	95
70	8
71	5
73	1
74	3
75	3
76	0
77	214
78	40
79	242
80	78
81	90
82	43
83	10
85	41
86	5
87	2
89	6
90	2
91	485
92	100
93	610
94	69
95	47
96	43
97	5
102	2
103	32
104	11
105	264
106	80
107	324
108	42
109	36
110	9
111	2
115	103
116	24
117	326
118	42
119	999
120	117
121	84
122	33
123	6
124	3
127	1
128	5
129	4
130	14
131	9
132	2
133	49
134	607
135	385
136	48
137	5
143	2
144	2
145	64
146	8
147	14
149	25
150	3
151	1
159	0
160	5
162	1
163	34
164	2
165	0
178	3
