Mass Spectrum: Carbamothioic acid, methyl-, S-phenyl ester
Formula: C8H9NOS
CAS: 13509-39-2
Molecular weight: 167
m/z	intensity
27	9
28	29
29	9
30	19
38	9
39	49
45	29
50	19
51	49
56	9
57	9
58	99
59	9
60	9
61	9
63	9
65	89
66	118
67	9
69	39
74	9
77	49
78	9
82	9
83	9
84	49
91	19
108	19
109	188
110	999
111	108
112	59
124	9
137	9
167	89
168	9
169	9
