Mass Spectrum: Propenone, 2-[1-(4-fluorophenyl)-5-tetrazolyl]-3-dimethylamino-1-phenyl-
Formula: C18H16FN5O
CAS: 135056-92-7
Molecular weight: 337
m/z	intensity
33	10
34	1
36	2
37	6
38	17
39	67
40	41
41	65
42	462
43	86
44	94
45	9
46	2
50	72
51	217
52	43
53	60
54	26
55	24
56	76
57	79
58	8
59	1
60	0
62	23
63	33
64	12
65	13
66	26
67	50
68	52
69	35
70	9
71	4
72	18
73	6
74	24
75	98
77	999
78	71
79	17
80	36
81	43
82	130
83	555
84	33
85	4
86	3
87	6
88	12
89	45
90	13
91	58
92	10
93	13
94	51
95	198
96	44
97	11
98	4
99	3
100	4
101	10
102	32
103	32
105	895
106	70
107	18
109	240
110	30
111	19
112	3
113	7
114	14
115	109
116	34
117	33
118	19
119	8
120	18
121	77
122	66
123	54
124	15
125	3
126	2
127	7
128	14
129	15
130	36
131	44
132	30
133	26
134	19
135	72
136	73
137	18
138	13
139	8
140	5
141	4
142	10
143	20
144	47
145	27
146	24
147	14
148	17
149	11
150	10
151	7
152	3
154	8
155	12
156	28
157	211
158	58
159	25
160	21
161	46
162	17
163	22
164	6
165	5
166	2
167	1
168	4
169	9
170	13
171	52
172	59
173	19
174	25
175	20
176	13
177	26
178	8
179	1
180	1
181	3
182	4
183	21
184	27
185	29
186	35
187	151
188	66
189	34
190	30
191	5
192	0
193	0
195	5
196	9
198	474
199	178
200	37
201	6
202	12
203	33
204	53
205	12
206	1
208	1
209	1
210	2
211	9
212	13
214	179
215	24
216	7
217	10
218	13
219	2
220	0
221	2
222	12
223	4
224	4
225	6
226	3
228	25
229	4
230	6
232	93
233	12
234	2
235	3
236	10
237	44
238	13
239	10
240	4
245	0
246	11
247	2
248	0
249	5
250	8
251	12
252	8
253	4
254	2
260	2
261	0
262	2
263	4
264	8
265	54
266	24
267	35
268	9
269	1
275	0
276	2
277	4
278	13
279	29
280	74
281	32
282	5
283	0
290	4
291	4
292	41
293	14
294	32
295	14
296	2
304	2
305	4
306	8
308	418
309	116
310	15
311	1
322	3
324	0
329	0
334	1
337	202
338	38
339	4
