Mass Spectrum: Propenone, 1-(3-chlorophenyl)-3-dimethylamino-2-(1-phenyl-5-tetrazolyl)-
Formula: C18H16ClN5O
CAS: 135056-97-2
Molecular weight: 353
m/z	intensity
33	8
34	1
35	5
36	18
37	12
38	38
39	106
40	56
41	102
42	570
43	107
44	126
45	10
46	0
48	0
50	104
51	173
52	52
53	74
54	36
55	26
56	89
57	60
58	6
59	0
60	2
61	9
62	16
63	66
64	88
65	56
66	35
67	57
68	50
69	27
70	5
72	34
73	13
74	39
75	221
76	124
77	360
78	35
79	15
80	46
81	32
83	999
84	53
85	22
86	7
87	14
88	9
89	23
90	19
91	139
92	34
93	21
94	10
95	38
96	37
97	12
98	6
99	10
100	7
101	15
102	22
103	79
104	89
105	26
106	23
107	11
109	126
111	584
112	56
113	175
114	40
115	45
116	30
117	81
118	95
119	24
120	36
121	5
123	78
124	11
125	40
126	10
127	21
128	26
129	17
130	31
131	25
132	15
133	7
134	2
136	22
137	17
139	537
140	64
141	163
142	31
143	82
144	40
145	40
146	14
147	12
149	76
150	21
151	39
152	19
153	12
154	13
155	14
156	29
157	35
158	22
159	36
160	13
161	5
162	10
163	11
164	21
165	29
166	21
167	15
168	10
169	25
170	80
171	65
172	49
173	10
174	3
175	2
176	7
177	13
178	34
179	22
180	19
181	9
182	7
183	9
184	26
185	83
186	93
187	20
188	4
189	5
190	19
191	153
192	44
193	63
194	18
195	6
196	3
197	5
198	12
199	27
200	21
201	7
202	3
203	7
204	10
205	39
206	40
207	21
208	22
209	5
210	3
212	13
214	314
215	51
216	68
217	21
218	15
219	22
220	27
221	137
222	30
223	42
224	7
225	1
226	0
227	6
228	22
229	7
230	4
231	7
232	18
233	82
234	30
235	26
236	9
237	2
238	9
239	3
240	5
241	5
242	4
243	2
244	2
245	3
246	12
247	28
248	180
249	30
250	56
251	10
252	7
253	28
254	11
255	16
256	6
257	4
258	2
259	2
260	4
261	4
262	18
263	3
264	5
265	3
266	5
267	11
268	7
269	7
270	4
271	1
272	1
273	0
274	1
275	1
279	2
281	45
282	23
283	30
284	12
285	7
286	1
288	1
289	2
290	8
291	1
292	1
293	3
294	9
295	22
296	64
297	37
298	23
299	10
300	1
306	3
308	47
309	15
310	48
311	21
312	14
313	6
314	0
321	3
324	325
325	101
326	97
327	30
328	4
338	2
351	0
353	170
354	36
355	55
356	11
357	1
