Mass Spectrum: Propenone, 2-[1-(4-methylphenyl)-5-tetrazolyl]-3-dimethylamino-1-phenyl-
Formula: C19H19N5O
CAS: 135056-89-2
Molecular weight: 333
m/z	intensity
33	7
34	2
35	0
36	7
37	5
38	21
39	121
40	49
41	84
42	403
43	80
44	90
45	10
46	0
50	75
51	218
52	71
53	66
54	28
55	22
56	70
57	61
58	7
60	1
61	3
62	15
63	51
64	27
65	147
66	30
67	37
68	38
69	22
70	4
71	4
72	23
73	5
74	15
75	26
77	999
78	145
79	52
80	34
81	23
83	611
84	32
85	3
86	2
87	6
88	14
89	76
90	81
91	293
92	30
93	8
94	7
95	30
96	26
97	8
98	13
99	2
100	2
101	6
102	40
103	39
104	158
105	867
106	92
107	30
109	126
110	10
111	6
112	1
113	7
114	18
115	108
116	93
117	81
118	76
119	25
120	31
121	7
122	22
123	57
124	5
125	2
126	3
127	11
128	23
129	26
130	52
131	127
132	99
133	22
134	23
135	5
136	4
137	6
138	4
139	3
140	5
141	6
142	19
143	26
144	60
145	41
146	21
147	10
148	6
149	3
150	1
151	3
152	11
153	3
154	5
155	14
156	37
157	251
158	72
159	49
160	15
161	7
162	1
164	1
165	4
166	3
167	5
168	5
169	24
170	25
171	74
172	70
173	44
174	24
175	3
177	2
178	2
179	3
180	7
181	13
182	8
183	27
184	85
185	148
186	80
187	184
188	28
189	3
190	2
191	4
192	9
194	410
195	63
196	8
197	9
198	36
199	125
200	93
201	30
202	4
203	1
204	2
205	3
206	4
207	9
208	10
209	3
210	1
211	3
212	10
214	278
215	35
216	4
218	18
219	8
220	6
221	8
222	4
223	0
226	5
228	112
229	17
230	3
231	6
232	13
233	47
234	16
235	11
236	4
237	0
242	11
243	2
244	1
245	6
246	12
247	18
248	12
249	6
250	3
256	1
258	1
259	5
260	13
261	58
262	35
263	44
264	11
265	1
271	0
272	3
273	6
274	17
275	36
276	80
277	36
278	6
286	5
287	6
288	47
289	19
290	54
291	22
292	3
300	0
301	4
304	409
305	138
306	21
307	2
316	0
318	5
319	0
324	1
330	1
333	235
334	48
335	5
