Mass Spectrum: 3-Ethoxyamphetamine
Formula: C11H17NO
CAS: 135014-86-7
Molecular weight: 179
m/z	intensity
42	31
44	999
45	32
51	10
53	9
65	11
77	47
78	14
79	17
89	10
90	6
91	21
105	4
107	36
108	26
117	2
118	3
133	5
135	13
136	20
164	4
178	2
179	9
