Mass Spectrum: Carbonothioic acid, O,S-diphenyl ester
Formula: C13H10O2S
CAS: 13509-33-6
Molecular weight: 230
m/z	intensity
17	70
18	340
26	10
27	10
28	120
32	20
38	10
39	150
40	10
44	20
45	20
50	20
51	110
58	10
63	20
65	210
66	20
69	30
75	10
77	230
78	10
93	20
94	30
97	20
108	20
109	999
110	110
111	50
137	290
138	20
139	10
141	10
152	10
153	20
184	10
185	40
202	300
203	30
204	10
230	60
231	10
