Mass Spectrum: 2-Ethoxyamphetamine
Formula: C11H17NO
CAS: 135014-84-5
Molecular weight: 179
m/z	intensity
42	23
44	999
45	22
51	12
52	7
65	10
77	41
78	17
79	17
89	7
90	6
91	30
105	4
107	32
108	39
115	3
118	3
119	3
135	10
136	85
137	8
179	3
180	1
