Mass Spectrum: N-Fluoroiminomalonic nitrile
Formula: C3FN3
CAS: 13511-45-0
Molecular weight: 97
m/z	intensity
26	472
27	7
32	453
33	12
45	726
46	11
52	162
53	5
78	581
79	26
80	1
97	999
98	45
99	9
