Mass Spectrum: 2-Hexenoic acid, 5-hydroxy-, 1,1-dimethylethyl ester, (Z)-(.+-.)-
Formula: C10H18O3
CAS: 135294-87-0
Molecular weight: 186
m/z	intensity
26	8
27	64
28	8
29	136
30	6
31	27
33	2
35	2
37	3
38	10
39	102
40	47
41	301
42	33
43	124
44	18
45	363
46	10
47	3
48	2
49	3
50	3
51	6
52	3
53	12
54	4
55	35
56	85
57	999
59	60
60	3
61	30
62	3
63	3
65	3
66	3
67	12
68	163
69	267
70	16
71	15
72	4
73	38
74	12
75	4
77	2
78	1
81	4
82	2
83	3
84	3
85	8
86	785
87	60
88	6
89	1
91	2
95	19
96	2
97	24
98	2
99	5
100	2
101	6
102	1
103	12
104	1
105	1
111	6
112	9
113	233
114	20
115	15
116	1
117	1
118	1
127	1
128	1
129	3
130	22
131	12
132	1
141	2
142	16
143	2
145	2
155	2
171	3
