Mass Spectrum: Imidazole, 5-[2-(aminocarbonyl)vinyl]-
Formula: C6H7N3O
CAS: 135200-64-5
Molecular weight: 137
m/z	intensity
41	344
42	53
43	424
44	999
45	293
55	292
56	188
57	177
65	55
66	226
69	181
81	113
84	477
93	692
94	323
109	116
120	288
121	383
136	493
137	603
138	191
