Mass Spectrum: 3-Methyl-2,3-dihydro-benzofuran
Formula: C9H10O
CAS: 13524-73-7
Molecular weight: 134
m/z	intensity
26	12
27	53
28	10
29	12
30	2
31	2
37	19
38	44
39	132
40	15
41	28
42	3
43	11
44	2
45	7
46	2
49	9
50	75
51	145
52	44
53	29
54	3
55	13
57	2
58	2
59	11
60	5
61	18
62	44
63	115
64	31
65	133
66	35
67	17
68	3
73	7
74	35
75	34
76	27
77	132
78	87
79	60
80	7
81	2
84	2
85	5
86	8
87	9
88	4
89	68
90	46
91	876
92	90
93	5
94	17
95	2
97	2
98	6
99	2
101	10
102	26
103	80
104	18
105	109
106	18
107	17
108	3
113	2
114	2
115	39
116	7
117	8
118	28
119	999
120	112
121	8
130	2
131	95
132	72
133	83
134	697
135	92
136	7
