Mass Spectrum: Silane, 1,2-ethanediylbis[chlorodimethyl-
Formula: C6H16Cl2Si2
CAS: 13528-93-3
Molecular weight: 214
m/z	intensity
26	5
27	9
29	15
31	15
36	18
38	5
39	5
42	8
43	69
44	12
45	24
55	8
57	9
58	391
59	164
60	24
63	48
64	7
65	83
67	28
69	5
70	5
71	58
72	21
73	81
74	8
77	6
78	39
79	39
80	17
81	15
83	6
85	78
86	999
87	105
88	39
90	3
91	5
92	8
93	571
94	48
95	201
96	9
97	5
99	5
103	8
104	5
105	112
106	23
107	39
108	9
113	8
115	5
117	5
119	5
131	7
145	5
150	5
151	5
152	5
153	5
179	39
180	7
181	15
199	88
200	17
201	69
202	8
203	15
214	17
215	5
216	9
