Mass Spectrum: Carbamate, N-[6-hydroxy-4-hexenyl]-,(1,1-dimethylethyl)ester
Formula: C11H21NO3
CAS: 1353722-60-7
Molecular weight: 215
m/z	intensity
26	7
27	103
28	63
29	202
30	210
31	81
38	7
39	138
40	25
41	416
42	55
43	97
44	24
45	13
50	5
51	12
52	8
53	45
54	22
55	73
56	110
57	999
58	61
59	175
60	6
62	8
65	10
66	9
67	49
68	57
69	42
70	67
71	7
72	10
73	7
74	160
75	18
77	6
79	27
80	165
81	137
82	25
83	15
84	23
85	7
86	10
87	12
88	6
96	37
97	34
98	106
99	7
100	10
103	4
112	15
113	6
114	13
115	55
116	6
124	104
125	9
130	3
140	3
141	131
142	25
143	3
156	6
159	9
172	2
198	4
216	2
