Mass Spectrum: 5,6,7-Trinitro-1,4-benzodioxane
Formula: C8H5N3O8
CAS: 135399-56-3
Molecular weight: 271
m/z	intensity
37	193
38	53
39	111
40	114
41	60
42	48
43	107
44	81
46	218
49	430
50	79
51	121
53	499
55	153
56	20
61	193
62	50
63	79
65	457
67	307
69	552
70	99
71	18
73	49
74	47
77	999
78	73
79	74
80	17
81	25
83	146
89	21
91	60
93	526
94	66
95	150
105	21
107	22
121	31
123	20
133	168
134	15
149	24
165	15
179	80
241	17
271	367
272	26
