Mass Spectrum: Ethyl-4-methyl-2-cyclohexanone-1-carboxylate
Formula: C10H16O3
CAS: 13537-82-1
Molecular weight: 184
m/z	intensity
39	291
41	465
43	210
55	674
67	785
68	346
69	463
81	219
82	999
83	182
95	216
96	151
101	107
110	132
111	81
114	180
123	101
137	308
138	757
139	400
155	170
156	139
169	37
184	533
185	77
