Mass Spectrum: O,O-Dimethyl [1-benzylamino-1-(4-fluorophenyl)methyl]phosphonate
Formula: C16H19FNO3P
CAS: 135473-47-1
Molecular weight: 323
m/z	intensity
33	13
34	1
38	3
39	20
40	25
41	11
42	4
43	12
44	8
45	2
47	13
48	1
49	0
50	15
51	33
52	8
53	3
54	0
55	4
56	2
57	10
59	0
62	4
63	21
64	10
65	100
66	14
67	2
68	2
69	7
70	6
71	2
73	1
74	4
75	15
76	5
77	43
78	23
79	40
80	4
81	13
82	5
83	19
84	3
86	1
87	1
89	36
90	22
91	999
92	135
93	8
94	6
95	49
96	31
97	15
98	2
99	2
100	1
101	2
102	14
103	7
104	29
105	21
106	154
107	90
108	32
109	134
110	15
111	3
112	4
113	4
115	2
116	9
117	12
118	17
119	3
120	10
121	10
122	61
123	30
124	38
125	14
126	1
127	0
128	1
129	5
130	134
131	18
132	1
133	3
134	6
135	26
136	17
137	4
138	3
139	4
140	1
141	0
143	3
144	0
146	1
147	0
149	3
150	1
151	1
152	3
153	3
154	2
155	0
157	2
158	0
159	2
160	2
161	0
163	16
164	1
165	16
166	3
167	1
168	1
169	3
170	3
171	13
172	1
173	1
174	1
177	1
179	4
180	0
182	1
183	15
184	33
185	10
186	4
187	11
188	1
189	0
190	2
191	4
192	1
193	2
194	16
195	11
196	61
197	10
198	1
200	3
201	0
203	0
204	17
205	3
206	6
210	0
211	8
212	94
213	72
214	610
215	94
216	7
217	0
219	1
228	18
229	2
230	2
231	3
232	16
233	4
