Mass Spectrum: Bowdensine
Formula: C21H25NO7
CAS: 1354-75-2
Molecular weight: 403
m/z	intensity
42	260
43	999
44	122
45	72
46	27
50	13
51	37
52	18
53	41
54	29
55	87
56	56
57	24
58	5
59	5
60	34
61	6
62	11
63	24
64	11
65	27
66	11
67	38
68	112
69	47
70	57
71	20
74	4
75	9
76	15
77	63
78	25
79	24
80	36
81	14
82	20
83	29
84	9
85	12
86	7
87	4
88	6
89	30
90	18
91	50
92	12
93	9
94	13
95	6
96	5
97	4
98	24
99	9
100	20
101	8
102	27
103	37
104	15
105	23
106	11
107	10
108	4
113	5
114	8
115	65
116	21
117	22
118	23
119	12
120	7
121	6
122	4
126	5
127	24
128	36
129	25
130	21
131	29
132	20
133	51
134	10
135	6
139	7
140	5
141	19
142	15
143	16
144	19
145	24
146	15
147	18
148	5
149	5
150	4
151	5
152	10
153	13
154	14
155	13
156	11
157	19
158	12
159	20
160	11
161	25
162	6
163	5
165	30
166	9
167	10
168	8
169	10
170	12
171	17
172	17
173	20
174	11
175	16
176	9
177	10
178	7
179	16
180	5
181	8
182	11
183	12
184	9
185	13
186	10
187	19
188	13
189	29
190	22
191	46
192	12
193	7
194	4
195	6
196	5
197	12
198	10
199	18
200	13
201	13
202	70
203	46
204	37
205	26
206	9
209	6
210	7
211	12
212	8
213	9
214	9
215	32
216	23
217	44
218	28
219	31
220	33
221	5
222	3
223	13
224	14
225	15
226	10
227	9
228	18
229	56
230	46
231	56
232	76
233	20
234	5
239	12
240	15
241	25
242	25
243	20
244	41
245	23
246	16
247	4
252	5
253	23
254	125
255	116
256	86
257	33
258	33
259	14
260	9
267	5
268	11
269	7
270	11
271	22
272	140
273	45
274	34
275	8
282	37
283	46
284	159
285	33
286	10
288	4
289	4
290	3
300	31
301	13
302	18
303	3
314	121
315	30
316	48
317	12
318	5
332	7
342	7
343	11
344	204
345	44
346	7
360	18
361	7
373	4
402	5
403	263
404	73
405	13
