Mass Spectrum: Spiro ( 6,6-dimethyl-2,3-diazobicyclo [3.1.0] hex-2-ene-4,1'-cyclopropane )
Formula: C8H12N2
CAS: 135485-30-2
Molecular weight: 136
m/z	intensity
37	66
38	191
39	999
40	255
41	414
42	70
43	12
50	166
51	255
52	138
53	234
54	85
55	111
56	8
62	22
63	86
64	41
65	162
66	92
67	99
68	12
69	112
77	420
78	71
79	204
80	128
81	39
82	13
90	7
91	371
92	22
93	375
94	33
95	19
107	35
109	22
121	129
122	6
135	29
136	195
