Mass Spectrum: 8-Chloroxanthine
Formula: C5H3ClN4O2
CAS: 13548-68-0
Molecular weight: 186
m/z	intensity
12	9
13	5
14	4
15	9
16	14
17	1
18	3
24	5
25	6
26	22
27	184
28	207
29	35
30	6
31	5
35	61
36	432
37	17
38	137
39	35
40	13
41	39
42	49
43	182
44	147
45	8
46	2
47	16
48	9
49	6
50	12
51	27
52	45
53	355
54	999
55	64
56	13
57	20
58	4
59	3
60	7
61	9
62	80
63	8
64	42
65	11
66	10
67	14
68	17
69	39
70	66
71	10
72	3
73	12
74	5
75	5
76	4
77	68
78	35
79	23
80	31
81	17
82	21
83	12
84	9
85	7
86	2
87	42
88	41
89	18
90	13
91	9
92	6
93	9
94	14
95	9
96	9
97	18
98	9
99	3
100	3
101	2
102	2
103	3
104	3
105	6
106	3
107	8
108	10
109	39
110	9
111	6
112	5
113	3
114	17
115	107
116	16
117	34
118	4
119	3
120	2
121	3
122	3
123	4
124	12
125	41
126	5
127	2
128	3
129	4
130	2
131	3
133	2
134	5
135	5
136	3
137	2
140	12
141	16
142	12
143	802
144	49
145	261
146	16
147	2
149	2
150	5
151	5
152	1
153	4
154	2
157	6
158	7
159	2
165	2
166	2
167	12
168	24
169	8
170	8
171	4
172	2
185	6
186	589
187	44
188	195
189	14
190	2
