Mass Spectrum: Acetamiprid
Formula: C10H11ClN4
CAS: 135410-20-7
Molecular weight: 222
m/z	intensity
14	2
15	55
16	1
25	1
26	9
27	21
28	63
29	15
30	275
31	4
35	2
36	3
37	14
38	42
39	126
40	49
41	48
42	431
43	34
44	75
45	3
47	4
48	1
49	21
50	45
51	60
52	44
53	27
54	42
55	154
56	999
57	41
58	1
59	1
60	6
61	14
62	41
63	184
64	94
65	60
66	26
67	363
68	23
69	14
70	2
71	85
72	12
73	183
74	11
75	74
76	46
77	20
78	52
79	10
80	13
81	8
82	5
83	3
84	9
85	21
86	7
87	10
88	8
89	10
90	258
91	101
92	21
93	12
95	4
96	19
97	17
98	16
99	202
100	28
101	67
102	14
103	29
104	11
105	13
106	3
107	3
108	1
109	1
110	5
111	3
112	50
113	36
114	31
115	13
116	12
117	14
118	11
119	28
120	5
121	2
122	3
123	1
124	6
125	24
126	509
127	69
128	168
129	23
130	25
131	7
132	4
133	2
134	1
135	1
137	2
138	6
139	70
140	12
141	146
142	13
143	41
144	11
145	13
146	19
147	6
148	5
149	1
150	2
151	20
152	525
153	263
154	202
155	145
156	17
157	21
158	4
159	4
160	11
161	2
163	1
164	2
165	11
166	261
167	45
168	88
169	15
170	2
171	5
172	3
178	2
179	16
180	58
181	66
182	46
183	22
184	8
185	4
186	3
187	58
188	7
190	3
191	1
192	3
193	3
194	9
195	2
196	5
197	1
198	1
204	2
205	3
206	4
207	103
208	13
209	36
210	4
219	1
221	133
222	50
223	49
224	17
225	2
