Mass Spectrum: Benzene, 1-bromo-4-(1-buten-3-yl)-
Formula: C10H11Br
CAS: 135570-22-8
Molecular weight: 210
m/z	intensity
26	7
27	46
28	5
29	12
31	0
36	1
37	2
38	8
39	51
40	4
41	5
44	1
49	1
50	47
51	88
52	16
53	23
54	3
55	9
56	0
57	11
58	23
61	4
62	17
63	47
64	55
65	29
66	2
67	0
73	2
74	21
75	44
76	37
77	98
78	32
79	5
80	1
81	1
82	1
85	0
86	6
87	9
88	9
89	48
90	22
91	168
92	13
93	0
98	2
99	1
100	1
101	18
102	57
103	87
104	110
105	13
110	0
112	0
113	10
114	16
115	281
116	999
117	93
118	4
119	2
126	2
127	17
128	36
129	75
130	46
131	684
132	76
133	5
143	2
145	1
155	2
156	6
157	2
158	6
159	0
160	1
169	8
170	1
171	10
172	0
180	1
181	3
182	20
183	19
184	20
185	18
186	1
193	2
195	87
196	10
197	83
198	8
209	4
210	155
211	19
212	150
213	17
214	1
