Mass Spectrum: Benzene, (3-chloro-1-methylpropyl)-
Formula: C10H13Cl
CAS: 13556-61-1
Molecular weight: 168
m/z	intensity
25	0
26	6
27	79
28	7
29	8
35	1
36	1
37	1
38	5
39	50
40	3
41	11
42	1
48	0
49	10
50	29
51	75
52	18
53	14
54	1
55	5
56	1
57	10
61	2
62	9
63	28
64	7
65	36
66	2
67	0
69	0
73	0
74	7
75	11
76	10
77	120
78	48
79	106
80	6
81	0
86	1
87	2
88	1
89	12
90	3
91	161
92	10
93	0
98	0
99	1
101	1
102	11
103	60
104	30
105	999
106	76
107	2
113	0
114	0
115	25
116	5
117	20
118	3
119	3
125	1
126	0
127	1
128	1
129	0
130	0
131	1
132	1
133	0
134	0
153	3
155	1
168	64
169	7
170	20
171	2
