Mass Spectrum: 3-Pentenamide, N-phenyl-
Formula: C11H13NO
CAS: 13555-65-2
Molecular weight: 175
m/z	intensity
26	2
27	29
29	31
30	0
37	0
38	3
39	37
41	4
42	1
50	4
51	24
52	6
53	15
54	14
55	108
56	12
57	0
61	0
62	1
63	9
64	14
65	60
66	33
67	3
68	0
70	0
74	1
75	1
76	4
77	149
78	15
79	3
80	0
81	8
82	36
83	5
84	0
88	0
89	0
90	2
91	32
92	136
93	999
94	80
95	3
98	0
99	0
102	0
103	2
104	4
105	2
106	8
107	0
115	3
116	1
117	9
118	4
119	254
120	238
121	19
122	1
127	0
128	1
129	0
130	8
131	6
132	19
133	3
134	3
135	1
143	0
144	1
145	0
146	6
147	1
148	0
149	5
150	0
156	2
157	1
158	1
159	0
160	16
161	1
167	0
172	0
175	600
176	73
177	6
178	0
