Mass Spectrum: Pyrrolidine, 2-(methoxymethyl)-
Formula: C6H13NO
CAS: 135523-48-7
Molecular weight: 115
m/z	intensity
25	0
26	6
27	41
28	206
29	50
30	47
31	8
33	1
37	1
38	4
39	36
40	9
41	101
42	39
43	187
44	13
45	61
46	1
47	0
49	0
50	0
51	2
52	2
53	13
54	15
55	68
56	22
57	3
58	5
59	0
60	0
63	0
64	0
65	2
66	0
67	10
68	69
69	7
70	999
71	77
72	2
73	0
74	0
79	0
80	5
81	1
82	19
83	9
84	10
85	0
86	2
87	0
93	0
94	0
96	0
97	1
98	1
100	0
105	0
106	0
112	0
114	2
115	20
116	1
