Mass Spectrum: 2-Benzylthio-5-(4-methoxyphenyl)-1,3,4-thiadiazole
Formula: C16H14N2OS2
CAS: 135517-97-4
Molecular weight: 314
m/z	intensity
14	2
15	14
16	3
17	12
18	22
26	4
27	16
28	9
29	10
31	3
32	5
37	9
38	25
39	136
40	10
41	36
42	4
43	12
44	10
45	91
46	5
47	5
49	2
50	64
51	62
52	18
53	10
54	2
55	9
56	3
57	10
58	8
59	3
60	3
61	5
62	25
63	94
64	48
65	247
66	15
67	3
68	1
69	29
70	10
71	8
72	4
73	3
74	11
75	20
76	73
77	48
78	28
79	19
80	2
81	7
82	28
83	7
84	5
85	3
86	4
87	5
88	6
89	45
90	73
91	999
92	89
93	10
94	8
95	8
96	6
97	6
98	2
99	2
101	2
102	10
103	40
104	34
105	89
106	9
107	6
108	131
109	13
110	13
111	3
112	3
113	1
115	2
116	3
117	8
118	12
119	33
120	16
121	74
122	64
123	17
124	5
125	2
128	1
129	2
132	4
133	81
134	53
135	13
136	89
137	10
138	4
139	2
148	917
149	102
150	59
151	262
152	30
153	16
154	2
157	1
165	6
166	3
167	2
171	3
174	1
175	1
176	1
177	1
178	2
179	1
180	2
181	45
182	6
183	5
185	1
192	2
193	4
194	1
195	1
203	1
205	23
206	4
207	2
208	1
223	3
224	3
225	0
233	6
234	1
236	2
237	5
238	2
239	0
247	0
248	1
249	0
250	1
251	0
266	2
267	0
269	0
281	166
282	30
283	10
284	2
285	0
299	1
300	0
314	479
315	94
316	56
317	9
318	2
319	0
