Mass Spectrum: 1,3-Benzodioxole, 3a,7a-dihydro-2,2,4-trimethyl-
Formula: C10H14O2
CAS: 135502-40-8
Molecular weight: 166
m/z	intensity
25	2
26	15
27	106
28	16
29	39
31	15
37	8
38	27
39	215
40	38
41	94
42	25
43	389
44	14
45	7
49	4
50	41
51	116
52	80
53	97
54	26
55	32
56	12
57	21
58	27
59	50
60	6
61	4
62	13
63	45
64	16
65	133
66	30
67	23
68	39
69	13
70	7
71	9
72	3
73	3
74	8
75	11
76	12
77	208
78	88
79	660
80	745
81	145
82	47
83	10
84	6
85	7
89	18
90	36
91	233
92	83
93	27
94	61
95	27
96	6
97	9
98	5
105	13
106	11
107	176
108	859
109	999
110	92
111	9
117	3
119	6
120	4
121	4
122	4
123	12
124	4
137	6
151	84
152	9
166	37
167	6
