Mass Spectrum: Butanoic acid, 3-oxo-, hexyl ester
Formula: C10H18O3
CAS: 13562-84-0
Molecular weight: 186
m/z	intensity
13	1
14	7
15	49
17	1
18	3
25	1
26	12
27	127
28	26
29	134
30	4
31	43
32	1
36	1
37	3
38	6
39	63
40	15
41	221
42	190
43	999
44	30
45	9
50	2
51	3
52	1
53	10
54	17
55	215
56	434
57	87
58	67
59	11
60	56
61	104
62	3
63	1
65	2
67	9
68	5
69	134
70	12
71	8
72	5
73	16
74	3
81	1
82	6
83	18
84	223
85	376
86	17
87	12
88	1
97	2
98	2
99	2
100	4
101	3
102	36
103	404
104	19
105	6
111	3
112	1
115	4
116	1
125	1
126	2
127	1
129	3
130	2
143	4
144	2
153	1
168	2
171	1
186	1
