Mass Spectrum: Salicylamide, N-2-pyridyl-
Formula: C12H10N2O2
CAS: 13563-04-7
Molecular weight: 214
m/z	intensity
33	43
37	7
38	38
39	186
40	77
41	21
42	4
43	6
44	15
50	19
51	51
52	29
53	38
54	4
55	4
56	1
57	1
61	3
62	17
63	81
64	79
65	274
66	68
67	238
68	12
69	1
70	2
71	1
73	0
74	6
75	11
76	8
78	135
79	17
80	3
81	1
83	0
84	6
89	2
90	2
91	17
92	177
93	174
94	999
95	65
96	1
97	0
98	1
99	2
102	0
103	1
104	1
105	7
106	2
107	4
108	10
109	0
110	0
115	2
120	167
121	696
122	52
123	5
125	1
129	1
133	1
140	2
141	2
142	2
150	0
155	1
156	3
157	3
158	1
168	14
169	123
170	32
171	7
184	2
185	66
186	34
187	4
196	1
197	119
198	22
199	1
213	20
214	744
215	100
216	8
