Mass Spectrum: 1H-3a,7-Methanoazulene, octahydro-3,6,8,8-tetramethyl-, [3R-(3.alpha.,3a.beta.,6.alpha.,7.beta.,8a.alpha.)]-
Formula: C15H26
CAS: 13567-54-9
Molecular weight: 206
m/z	intensity
26	6
27	263
29	259
30	4
38	4
39	241
40	38
41	839
42	71
43	178
50	4
51	64
52	26
53	223
54	38
55	524
56	60
57	57
63	11
64	14
65	86
66	30
67	321
68	149
69	426
70	30
71	19
72	2
73	3
75	7
76	2
77	216
78	40
79	286
80	74
81	369
82	999
83	172
84	12
85	6
88	1
89	3
90	3
91	243
92	52
93	423
94	139
95	518
96	152
97	35
98	8
102	1
103	18
104	8
105	106
106	45
107	283
108	231
109	209
110	66
111	25
112	3
115	12
116	6
117	20
119	74
120	87
121	461
122	357
123	142
124	87
125	12
129	6
130	0
133	13
134	2
135	208
136	110
137	90
138	19
147	15
148	3
149	86
150	145
151	21
161	4
162	14
163	284
164	50
165	8
175	1
176	2
178	7
190	0
191	45
192	10
206	171
207	24
