Mass Spectrum: Estr-5(10)-en-3,17-diol, (3.alpha., 17.beta.)-, 17-propionate
Formula: C21H32O3
CAS: 13565-53-2
Molecular weight: 332
m/z	intensity
41	240
43	153
44	17
45	6
47	15
49	10
51	4
53	75
55	265
57	999
58	27
65	40
67	150
68	11
69	53
71	32
77	118
79	236
81	209
82	14
83	32
84	5
86	5
88	7
91	373
92	27
93	246
94	82
95	150
96	6
97	38
99	3
103	24
104	40
105	213
106	71
107	129
108	35
109	48
110	17
111	3
115	45
117	189
118	18
119	183
120	64
121	59
122	8
123	22
128	23
129	101
131	262
132	20
133	209
134	54
135	51
136	25
137	22
141	26
143	117
144	199
145	240
146	352
147	197
148	49
149	47
150	11
153	3
155	23
157	88
159	582
160	96
161	37
163	43
164	6
165	4
169	37
170	10
171	62
172	21
173	26
174	3
183	68
185	111
186	33
187	21
189	3
197	80
198	46
199	120
200	17
201	21
211	53
212	59
213	35
214	11
215	20
217	12
225	264
226	35
229	11
230	3
239	56
240	288
241	75
243	56
257	51
258	77
259	32
260	3
314	702
315	152
316	10
332	229
333	47
