Mass Spectrum: Nickel, [(1,2,6,7-.eta.)-1,6-heptadiene](triphenyl phosphite-P)-
Formula: C25H27NiO3P
CAS: 135619-92-0
Molecular weight: 464
m/z	intensity
28	4
29	452
30	8
31	1
36	0
37	10
38	33
39	542
40	25
41	231
42	38
43	2
44	2
45	0
46	1
47	15
48	0
49	2
50	35
51	128
52	24
53	188
54	999
55	724
56	37
57	1
58	82
60	30
61	3
62	7
63	17
64	6
65	78
66	49
67	406
68	200
69	11
70	2
74	4
75	4
76	8
77	346
78	40
79	32
80	4
81	443
82	27
83	1
84	5
85	2
86	3
87	1
88	0
89	0
90	0
91	10
92	2
93	8
94	70
95	20
96	37
97	8
98	3
99	19
100	12
101	6
102	4
103	1
104	0
105	1
106	0
107	0
108	1
109	3
110	2
111	4
112	67
113	6
114	24
115	11
116	3
117	0
118	1
121	0
122	2
123	32
124	5
125	12
126	3
127	3
128	2
129	1
130	0
131	0
133	0
134	35
135	27
136	18
137	11
138	5
139	13
140	9
141	65
142	17
143	2
144	0
148	0
149	3
150	3
151	11
152	57
153	86
154	39
155	8
156	10
157	2
158	1
159	0
160	2
161	0
162	1
163	0
164	0
165	0
167	0
168	9
169	13
170	39
171	5
172	1
173	3
174	31
175	5
176	12
177	2
178	2
180	0
181	1
182	9
183	1
184	3
185	1
186	3
187	2
188	2
189	2
190	0
191	0
192	0
193	0
197	110
198	126
199	57
200	111
201	18
202	35
203	7
204	6
205	1
206	1
207	0
209	0
210	12
211	12
212	13
213	3
214	3
215	18
216	12
217	185
218	35
219	3
220	0
221	0
222	0
223	0
224	0
225	0
226	2
227	5
228	121
229	17
230	47
231	10
232	23
233	22
234	4
235	0
236	0
237	0
239	0
240	1
241	0
242	0
243	0
244	0
245	2
246	2
247	0
248	0
249	1
250	0
251	0
253	0
262	0
267	0
273	1
274	7
275	27
276	7
277	11
278	2
279	2
280	0
281	0
289	1
290	1
291	1
292	4
293	1
294	1
295	0
299	0
301	0
303	0
304	0
306	0
307	0
308	0
309	18
310	13
311	5
315	1
317	3
318	0
319	1
327	1
329	2
330	0
331	1
332	0
339	0
341	0
342	0
343	1
345	1
346	0
347	0
359	0
365	2
366	0
367	2
368	967
369	183
370	375
371	93
372	66
373	12
374	14
375	3
381	0
383	0
385	0
409	1
410	0
411	0
461	1
463	0
464	166
465	46
466	71
467	20
468	11
469	2
