Mass Spectrum: 1-Oxaspiro[3.5]nonan-2-one, 3-methylene-
Formula: C9H12O2
CAS: 135638-62-9
Molecular weight: 152
m/z	intensity
37	8
38	37
39	552
40	102
41	394
42	91
43	140
44	258
45	105
46	9
50	94
51	293
52	181
53	264
54	246
55	307
56	53
57	23
59	26
60	6
61	8
62	26
63	91
64	27
65	270
66	152
67	421
68	103
69	75
70	49
71	10
72	12
73	14
74	207
75	48
76	22
77	504
78	245
79	999
80	201
81	182
82	50
83	66
84	12
89	16
90	9
91	748
92	139
93	261
94	35
95	178
96	87
97	54
98	95
99	8
102	15
103	84
104	35
105	247
106	254
107	804
108	197
109	61
110	42
111	93
112	8
115	7
116	5
119	55
120	7
121	40
122	21
123	129
124	326
125	38
133	29
134	133
135	28
136	21
137	64
138	7
148	14
150	19
151	33
152	691
153	72
154	6
