Mass Spectrum: N-Cbz-glycylglycine p-nitrophenyl ester
Formula: C18H17N3O7
CAS: 13574-81-7
Molecular weight: 387
m/z	intensity
41	13
43	53
44	22
45	77
46	59
49	8
50	145
51	253
52	73
53	86
54	6
55	21
62	43
63	83
64	7
65	95
67	6
69	7
73	6
74	40
77	577
78	45
79	999
80	92
84	9
87	8
89	90
90	71
91	151
105	24
107	659
108	800
109	73
124	7
129	7
138	15
168	8
192	6
208	6
266	6
281	7
387	8
388	6
