Mass Spectrum: 8-Hydroxy-2,6-dimethylocta-2,6-dienoic acid, ethyl ester
Formula: C12H20O3
CAS: 135897-92-6
Molecular weight: 212
m/z	intensity
26	6
27	200
28	62
29	640
30	17
31	94
38	4
39	343
40	58
41	901
42	68
43	575
44	39
45	97
46	3
47	6
50	5
51	34
52	27
53	406
54	284
55	579
56	110
57	298
58	24
59	101
60	10
61	12
62	9
63	7
64	5
65	73
66	45
67	344
68	273
69	279
70	47
71	225
72	27
73	40
74	99
75	84
76	9
77	133
78	38
79	171
80	200
81	236
82	851
83	441
84	197
85	187
86	18
87	225
88	86
89	14
90	6
91	176
92	62
93	585
94	107
95	285
96	94
97	133
98	203
99	345
100	999
101	140
102	164
103	35
104	14
105	187
106	40
107	118
108	88
109	230
110	104
111	152
112	71
113	86
114	320
115	180
116	17
117	22
118	14
119	138
120	272
121	889
122	111
123	71
124	47
125	70
126	73
127	29
128	569
129	55
130	10
131	26
132	7
133	47
134	13
135	30
136	47
137	70
138	119
139	99
140	16
141	18
142	7
146	4
147	105
148	187
149	65
150	9
151	59
152	17
153	38
154	8
155	21
156	3
157	4
163	6
164	5
165	332
166	154
167	54
168	36
169	9
170	2
179	17
180	71
181	17
182	68
183	12
184	4
194	225
195	31
196	3
197	3
212	15
213	1
