Mass Spectrum: 6-Cyclohexyl-1,2,3,4-tetrahydro-9H-carbazol-1-one
Formula: C18H21NO
CAS: 135897-70-0
Molecular weight: 267
m/z	intensity
39	355
41	999
42	161
43	243
44	9
50	11
51	33
52	25
53	60
54	44
55	198
56	329
57	25
58	0
62	3
63	24
64	9
65	18
66	7
67	26
68	4
69	17
70	4
71	4
74	2
75	11
76	17
77	40
78	17
79	9
80	0
81	7
82	2
84	18
85	0
87	2
88	4
89	17
90	7
91	13
100	0
101	10
102	27
103	9
104	0
113	4
114	8
115	69
116	13
117	7
125	1
126	11
127	49
128	53
129	38
130	12
131	0
139	16
140	26
141	27
142	27
143	19
144	1
150	0
151	4
152	18
153	23
154	81
155	101
156	41
157	6
165	5
166	10
167	41
168	89
169	35
170	14
171	2
178	2
179	1
180	21
181	12
182	45
183	14
184	6
185	16
186	3
191	0
192	1
193	2
194	5
196	12
197	4
198	71
199	19
200	0
206	5
207	0
208	0
210	9
211	30
212	6
224	139
225	25
226	1
238	3
239	1
266	0
267	90
268	17
