Mass Spectrum: Acetic acid, 17-acetyl-13-cyano-10-methyl-hexadecahydrocyclopenta[a]phenanthren-3-yl ester
Formula: C23H33NO3
CAS: 13583-66-9
Molecular weight: 371
m/z	intensity
26	4
27	30
28	5
29	66
30	14
37	7
39	29
40	9
41	195
42	27
43	999
44	50
45	26
46	2
47	1
48	1
49	0
50	3
51	7
52	4
53	40
54	22
55	145
56	34
57	63
58	13
59	3
60	18
61	7
63	3
64	4
65	25
66	14
67	126
68	41
69	67
70	23
71	62
72	5
73	13
74	3
75	2
76	3
77	60
78	23
79	152
80	145
81	179
82	46
83	38
84	25
85	49
86	16
87	4
88	1
89	3
90	3
91	120
92	44
93	147
94	71
95	101
96	26
97	19
98	9
99	6
100	2
101	3
102	2
103	9
104	16
105	67
106	48
107	84
108	400
109	167
110	50
111	17
112	7
113	5
114	1
115	10
116	11
117	42
118	21
119	50
120	28
121	65
122	21
123	15
124	12
125	6
126	2
127	4
128	8
129	20
130	14
131	46
132	27
133	55
134	51
135	38
136	13
137	16
138	7
139	4
140	2
141	10
142	9
143	21
144	15
145	43
146	26
147	42
148	27
149	53
150	12
151	4
152	3
153	3
154	5
155	12
156	10
157	22
158	23
159	34
160	27
161	20
162	12
163	18
164	6
165	3
166	4
167	5
168	4
169	14
170	11
171	20
172	18
173	19
174	19
175	15
176	8
177	10
178	4
179	3
180	2
181	5
182	5
183	17
184	14
185	28
186	25
187	40
188	29
189	13
190	5
191	3
192	2
193	3
194	2
195	9
196	5
197	13
198	18
199	55
200	23
201	20
202	9
203	9
204	5
205	3
206	5
207	2
208	2
209	7
210	7
211	12
212	31
213	23
214	111
215	42
216	15
217	6
218	3
219	7
220	2
221	3
222	2
223	5
224	6
225	12
226	28
227	40
228	29
229	20
230	28
231	6
232	2
233	1
234	2
235	3
236	5
237	7
238	4
239	14
240	37
241	42
242	45
243	25
244	13
245	3
246	2
247	0
248	0
249	0
250	2
251	8
252	8
253	29
254	29
255	38
256	73
257	196
258	45
259	6
260	1
261	2
262	0
263	0
264	1
265	2
266	6
267	8
268	103
269	55
270	79
271	16
272	3
273	1
274	0
275	0
276	2
277	0
278	4
279	4
280	1
281	1
282	27
283	17
284	12
285	3
286	2
287	9
288	2
289	0
290	0
291	0
292	1
293	7
294	13
295	5
296	185
297	42
298	5
299	1
300	2
301	6
302	16
303	3
304	0
305	0
306	0
307	0
308	0
309	0
310	13
311	280
312	83
313	11
314	3
315	1
316	2
317	0
318	0
319	0
320	0
322	0
323	0
324	0
325	0
326	0
327	0
328	7
329	3
330	0
331	0
338	0
339	0
340	0
341	0
342	0
343	0
344	3
345	1
356	1
371	5
372	2
