Mass Spectrum: 5,6-Dimethyl-6-hydroxytetrahydro-1,3-thiazin-2-thione
Formula: C6H11NOS2
CAS: 135923-17-0
Molecular weight: 177
m/z	intensity
39	120
40	38
41	270
42	120
43	999
44	170
45	45
46	27
47	4
48	5
49	1
50	3
51	5
52	5
53	18
54	18
55	32
56	35
57	64
58	96
59	19
60	34
61	6
62	2
63	2
64	44
65	4
66	5
67	14
68	9
69	43
70	8
71	22
72	110
73	15
74	6
75	2
76	540
77	56
78	55
79	34
80	4
81	3
82	6
83	59
84	32
85	150
86	50
87	5
88	1
90	1
91	2
92	2
93	1
94	3
95	2
96	1
97	2
98	3
99	19
100	22
101	17
102	6
103	1
104	1
105	1
109	1
110	6
111	1
113	3
117	1
124	1
126	3
128	10
129	1
131	1
132	3
133	1
134	4
143	39
144	7
145	2
157	1
159	1
160	1
177	7
178	1
179	1
