Mass Spectrum: Dithiocarbamate, S-methyl-, N-(2,3-dimethyl-4-oxo-2-pentyl)-
Formula: C9H17NOS2
CAS: 135923-15-8
Molecular weight: 219
m/z	intensity
38	12
39	140
40	29
41	430
42	98
43	999
44	29
45	18
46	48
47	310
48	300
49	31
50	17
51	17
52	20
53	46
54	16
55	250
56	34
57	54
58	19
59	32
60	70
61	17
62	6
63	7
64	20
65	25
66	72
67	42
68	17
69	91
70	160
71	61
72	68
73	22
74	17
75	13
76	8
77	17
78	9
79	19
80	9
81	21
82	11
83	27
84	26
85	21
86	10
87	11
88	4
89	9
90	5
91	44
92	9
93	11
94	10
95	20
96	12
97	80
98	12
99	11
100	340
101	45
102	27
103	6
104	8
105	14
106	4
107	16
108	35
109	12
110	8
111	11
112	49
113	530
114	44
115	10
116	20
117	20
118	9
119	6
120	4
121	8
122	6
123	9
124	3
125	8
126	3
127	9
128	8
129	12
130	8
131	8
132	7
171	32
172	17
173	4
186	10
204	3
219	17
220	2
221	2
