Mass Spectrum: 2-Butyne, 1,4-bis(ethylthio)-
Formula: C8H14S2
CAS: 13597-11-0
Molecular weight: 174
m/z	intensity
25	28
26	184
27	724
29	510
30	12
33	9
34	32
35	180
36	2
37	23
38	37
39	317
41	224
42	12
43	5
44	16
45	999
46	96
47	266
48	18
49	40
50	178
51	539
52	671
53	335
54	21
55	138
56	7
57	29
58	243
59	488
60	182
61	300
62	90
63	57
64	13
65	34
66	23
67	132
68	12
69	87
70	42
71	291
72	33
73	73
74	7
75	134
76	8
77	265
78	31
79	530
80	102
81	30
82	51
83	96
84	276
85	634
86	376
87	69
88	18
89	100
90	4
91	6
93	23
94	25
95	4
96	3
97	232
98	82
99	127
100	13
101	8
103	6
105	3
110	7
111	154
112	172
113	157
114	776
115	83
116	98
117	95
118	14
119	7
122	49
123	3
124	4
129	4
131	3
144	5
145	146
146	21
147	15
159	5
174	697
175	70
176	68
177	5
