Mass Spectrum: 1,6-Hexanediamine, 1-[(2-methoxyphenyl)methyl]-
Formula: C14H24N2O
CAS: 135980-10-8
Molecular weight: 236
m/z	intensity
45	999
46	960
56	180
91	580
98	370
115	160
121	880
122	220
136	490
150	220
185	40
218	30
235	40
236	10
