Mass Spectrum: Azetidine, 1-(methylsulfonyl)-
Formula: C4H9NO2S
CAS: 13595-45-4
Molecular weight: 135
m/z	intensity
27	117
28	330
29	120
30	150
31	10
41	75
42	273
43	99
44	8
54	99
55	102
56	570
57	117
58	9
63	45
64	27
65	90
66	8
79	999
80	90
81	63
82	4
107	477
108	96
109	8
120	45
121	3
135	225
136	15
