Mass Spectrum: 2(3H)-Furanone, 3-aminodihydro-5-(hydroxymethyl)-4-methyl-
Formula: C6H11NO3
CAS: 13594-38-2
Molecular weight: 145
m/z	intensity
15	38
16	55
17	73
18	136
27	107
28	354
29	171
30	201
31	139
39	73
41	218
42	68
43	171
44	53
45	21
46	21
50	36
51	64
52	21
53	36
54	42
55	64
56	231
57	274
58	414
59	21
60	6
68	36
69	42
70	999
71	64
72	21
73	25
74	57
75	25
77	107
78	42
83	21
84	21
86	454
87	21
101	38
114	103
115	21
145	81
146	8
