Mass Spectrum: Carbonic acid, thio-, O-methyl O-2-naphthyl ester
Formula: C12H10O2S
CAS: 13599-68-3
Molecular weight: 218
m/z	intensity
15	130
16	10
17	20
26	10
27	10
28	170
29	10
32	20
38	10
39	50
41	10
44	60
47	80
50	20
51	40
59	50
60	40
61	10
62	20
63	100
64	10
65	40
74	20
75	360
76	20
77	40
79	10
87	10
88	20
89	70
90	10
101	20
113	30
114	40
115	999
116	100
126	40
127	130
128	130
129	40
141	60
143	100
144	80
147	10
158	210
159	210
160	20
174	130
175	10
218	790
219	110
220	40
