Mass Spectrum: Dithiocarbamate, S-methyl-,N-(2-methyl-3-oxobutyl)-
Formula: C7H13NOS2
CAS: 135923-14-7
Molecular weight: 191
m/z	intensity
39	98
40	6
41	300
42	110
43	999
44	18
45	3
46	83
47	210
48	200
49	22
50	18
51	19
52	17
53	31
54	18
55	110
56	49
57	120
58	29
59	23
60	43
61	15
62	6
63	12
64	22
65	15
66	12
67	51
68	25
69	83
70	43
71	69
72	100
73	42
74	26
75	14
76	8
77	18
78	11
79	22
80	12
81	48
82	26
83	86
84	69
85	280
86	26
87	23
88	11
89	14
90	3
91	60
92	9
93	17
94	16
95	35
96	20
97	28
98	18
99	15
100	43
101	25
102	15
103	12
104	11
105	26
106	9
107	15
108	11
109	18
110	22
111	17
112	15
113	14
115	17
116	9
117	31
118	11
119	14
120	12
121	14
122	9
123	12
124	8
125	14
126	12
127	18
128	21
129	9
131	15
143	77
144	38
145	14
146	12
191	48
192	5
193	4
