Mass Spectrum: Decanamide, N,N-bis(2-hydroxyethyl)-
Formula: C14H29NO3
CAS: 136-26-5
Molecular weight: 259
m/z	intensity
29	15
39	13
41	62
42	26
43	94
44	37
45	28
55	69
56	59
57	89
58	209
59	31
62	38
66	18
67	28
69	59
70	43
71	55
72	48
73	41
74	999
75	45
76	8
85	54
86	24
87	19
88	27
95	22
97	21
98	20
99	27
101	15
103	15
104	123
105	12
106	27
112	34
114	125
115	21
116	12
117	27
126	14
129	44
130	17
132	11
142	22
143	12
144	13
147	50
155	25
156	9
160	22
168	9
180	7
181	7
198	13
199	38
200	9
216	88
217	10
226	6
228	84
229	13
240	7
241	13
