Mass Spectrum: Chromium, tricarbonyl[(1',2',3',4',5',6'-.eta.)-dispiro[1,3-dioxolane-2,7'-bicyclo[4.2.0]octa[1,3,5]triene-8',2''-[1,3]dioxolane]]-
Formula: C15H12CrO7
CAS: 136020-90-1
Molecular weight: 356
m/z	intensity
26	3
27	5
28	20
29	4
30	0
38	0
39	4
41	2
42	6
43	1
44	1
50	47
51	3
52	999
53	107
54	26
62	1
63	1
64	3
65	2
66	4
67	4
68	20
69	9
70	0
71	1
72	1
74	1
75	5
76	48
77	11
78	3
79	0
80	24
81	2
82	2
83	0
84	0
86	0
87	0
88	1
89	1
90	19
91	2
92	8
93	1
94	1
95	6
96	38
97	5
98	0
99	0
100	7
101	5
102	0
103	1
104	60
105	11
106	0
108	2
110	0
111	0
112	1
113	0
114	4
115	1
116	6
117	1
118	0
119	0
120	1
121	0
125	0
126	21
127	9
128	430
129	80
130	16
131	5
132	0
133	6
134	0
136	0
140	12
141	4
142	9
143	3
144	34
145	9
146	4
147	0
148	42
149	6
150	0
152	0
153	0
154	14
155	6
156	13
157	74
158	71
159	13
160	1
162	0
168	5
169	1
170	21
171	8
172	140
173	36
174	10
175	0
176	0
182	6
183	0
184	33
185	5
186	128
187	27
188	10
189	0
194	0
196	17
197	5
198	10
199	19
200	57
201	11
202	1
212	5
213	0
214	14
215	1
216	135
217	28
218	5
220	0
228	0
242	0
243	0
244	5
245	0
270	12
271	1
272	257
273	59
274	13
275	0
298	6
299	0
300	138
301	34
302	8
303	0
324	0
326	1
328	38
329	9
330	1
354	7
355	0
356	162
357	44
358	10
359	0
