Mass Spectrum: 1-Dimethyl(chloromethyl)silyloxyprop-2-ene
Formula: C6H13ClOSi
CAS: 136053-77-5
Molecular weight: 164
m/z	intensity
38	24
39	107
40	22
41	223
42	38
43	169
44	37
45	179
46	19
47	64
49	27
51	18
52	20
53	13
54	72
55	19
56	33
57	15
58	41
59	520
60	51
61	73
62	12
63	73
64	13
65	51
66	18
71	28
72	18
73	19
74	20
75	356
76	30
77	27
78	28
79	223
80	32
81	141
82	15
83	35
85	280
86	33
87	45
88	18
91	19
92	12
93	87
94	15
95	121
96	13
97	43
99	71
101	16
107	36
109	32
111	17
112	21
113	15
114	21
115	999
116	117
117	146
118	18
119	31
121	59
123	24
137	34
139	18
149	21
150	2
151	8
152	1
