Mass Spectrum: Manganese, pentacarbonylmethyl-
Formula: C6H3MnO5
CAS: 13601-24-6
Molecular weight: 210
m/z	intensity
26	13
27	18
28	925
29	62
30	4
31	7
38	4
39	13
40	7
41	19
42	14
43	47
44	39
48	9
49	6
50	4
51	5
53	6
55	999
56	19
57	6
58	5
62	4
63	10
67	112
68	125
69	129
70	582
71	15
72	5
77	10
78	5
79	8
80	6
83	378
84	11
91	8
92	5
93	5
94	5
95	24
96	16
97	22
98	84
99	5
103	5
104	5
105	6
106	5
107	4
111	243
112	7
119	5
123	5
124	10
125	22
126	91
127	5
139	269
140	10
141	5
152	6
153	12
154	271
155	14
156	5
158	5
167	222
168	14
169	6
181	8
182	460
183	29
184	7
195	146
196	12
210	143
211	13
212	5
