Mass Spectrum: 2-Butanone, O-1,2-benzisothiazol-3-yloxime 1,1-dioxide
Formula: C11H12N2O3S
CAS: 13604-36-9
Molecular weight: 252
m/z	intensity
41	5
42	999
43	20
57	5
58	20
69	10
70	350
71	40
111	5
119	10
120	30
140	20
141	10
146	5
183	70
209	10
223	740
224	80
225	30
237	3
252	10
