Mass Spectrum: 1,2-Dioxolan-3-one, 5-ethyl-5-methyl-4-methylene-
Formula: C7H10O3
CAS: 136066-32-5
Molecular weight: 142
m/z	intensity
37	8
38	19
39	147
40	37
41	229
42	97
43	999
44	247
45	30
50	24
51	33
52	20
53	87
54	98
55	239
56	45
57	67
63	5
65	16
66	8
67	226
68	18
69	24
70	46
71	18
72	24
73	12
77	7
79	20
80	7
81	38
82	106
83	61
84	5
95	5
96	13
97	50
98	13
99	62
109	12
110	27
111	15
113	190
114	32
115	19
126	7
127	6
142	13
143	1
