Mass Spectrum: 2-Phenyl-4,6-di(4-acetylaminophenyl)pyrimidine
Formula: C26H22N4O2
CAS: 136009-76-2
Molecular weight: 422
m/z	intensity
34	103
35	12
36	122
38	48
39	95
41	163
42	161
43	606
44	999
45	61
50	19
51	19
52	17
53	24
54	16
55	97
56	30
57	58
58	13
59	11
60	84
61	11
63	36
64	12
65	31
66	10
67	46
68	18
70	18
71	33
73	80
74	15
76	25
77	38
79	28
80	16
81	33
82	21
83	31
84	21
85	23
87	16
88	11
89	82
90	45
91	58
92	22
93	34
95	21
96	12
97	57
98	21
100	12
102	15
103	34
104	55
105	21
107	10
109	15
111	12
115	28
116	65
117	292
118	110
119	25
121	14
126	17
127	10
128	13
129	21
131	88
133	10
137	13
139	10
141	12
142	15
143	36
144	10
152	13
153	12
159	15
161	10
165	13
167	10
169	65
172	12
178	12
180	10
181	16
190	27
191	15
192	13
193	12
205	17
206	12
207	17
208	12
216	10
217	19
218	28
232	10
233	23
234	81
235	114
236	19
261	10
310	10
311	25
324	38
337	50
338	662
339	178
340	27
364	21
366	13
379	44
380	632
381	173
382	25
421	36
422	719
423	208
424	32
