Mass Spectrum: Ethanol, 2-(3-methylphenoxy)-
Formula: C9H12O2
CAS: 13605-19-1
Molecular weight: 152
m/z	intensity
14	3
15	14
16	1
17	3
18	10
26	8
27	58
28	10
29	36
30	2
31	18
32	4
37	4
38	13
39	79
40	9
41	17
42	6
43	28
44	14
45	114
46	2
49	1
50	21
51	53
52	28
53	30
54	4
55	8
60	1
61	3
62	10
63	35
64	11
65	103
66	9
67	2
68	3
69	2
73	1
74	5
75	4
76	4
77	106
78	31
79	122
80	92
81	9
82	1
85	1
86	1
87	2
89	29
90	64
91	293
92	25
93	30
94	6
95	1
103	4
104	3
105	10
106	6
107	417
108	999
109	221
110	16
111	1
119	3
120	1
121	76
122	27
123	3
131	7
132	6
133	4
134	4
135	1
136	2
150	8
151	2
152	380
153	39
154	2
