Mass Spectrum: Ethyl propargyl sulfone
Formula: C5H8O2S
CAS: 13603-87-7
Molecular weight: 132
m/z	intensity
41	559
42	371
43	281
44	30
45	227
46	101
47	110
48	211
49	125
50	104
51	151
52	50
53	749
54	37
55	612
56	106
57	83
58	109
59	161
60	728
61	421
62	745
63	125
64	107
65	333
66	77
67	604
68	25
69	95
70	14
71	30
72	12
73	23
74	66
75	647
76	999
77	787
78	288
79	61
80	87
81	15
82	37
83	42
84	73
85	13
86	48
87	111
88	28
89	21
90	6
91	31
93	526
94	28
95	53
97	16
99	11
101	3
102	12
103	462
104	387
105	36
106	15
116	60
117	107
118	61
131	101
132	217
133	33
134	23
