Mass Spectrum: Benzenemethanol, .alpha.-(bromomethyl)-.alpha.-[[(1,1,2-trimethyl-2-propen-1-yl)oxy]methyl]-
Formula: C15H21BrO2
CAS: 136132-05-3
Molecular weight: 312
m/z	intensity
38	6
39	62
40	19
41	191
42	30
43	162
44	6
45	15
49	8
50	11
51	44
52	12
53	23
54	10
55	496
56	32
57	26
58	5
59	149
60	14
63	10
65	40
66	5
67	63
68	11
69	129
70	13
72	6
76	6
77	272
78	98
79	78
80	5
81	14
82	22
83	999
84	950
85	220
86	12
88	16
89	38
91	155
92	20
93	7
95	5
99	8
100	10
102	122
103	38
104	13
105	250
106	21
107	5
114	25
115	24
116	9
117	9
119	41
120	638
121	175
122	8
123	88
131	7
133	76
134	11
135	5
137	133
138	9
144	7
147	6
150	15
151	8
152	6
154	5
155	529
156	45
157	170
158	15
159	9
169	35
171	7
184	184
185	40
187	14
199	342
200	33
201	335
202	107
203	87
204	12
211	18
213	26
215	18
219	9
