Mass Spectrum: 1,3,4-Thiadiazole-3-carbothioic acid, 2,3-dihydro-5-methyl-2-thioxo-, S-(5-methyl-1,3,4-thiadiazol-2-yl) ester
Formula: C7H6N4OS4
CAS: 136112-97-5
Molecular weight: 290
m/z	intensity
33	44
34	19
35	3
36	10
38	26
39	41
40	117
41	193
42	145
43	41
44	137
45	133
46	133
47	46
48	10
49	6
50	1
51	3
52	2
53	11
54	20
55	124
56	999
57	102
58	330
59	998
60	67
61	45
62	3
64	212
65	10
66	36
67	8
68	9
69	21
70	36
71	20
72	82
73	32
74	12
76	187
77	27
78	17
79	5
80	3
81	11
83	946
84	48
85	10
86	64
87	6
88	23
90	37
91	23
92	4
93	3
94	2
95	2
96	5
97	7
99	248
100	17
101	15
102	5
103	1
104	2
105	3
106	1
107	13
108	3
109	2
110	2
111	2
112	5
113	2
114	1
116	9
117	4
118	5
119	1
120	0
121	0
122	2
123	1
124	1
125	1
126	1
127	1
128	1
129	3
131	58
132	517
133	36
134	42
135	3
136	1
137	0
138	0
140	0
141	0
143	0
144	0
145	0
147	0
148	0
149	1
150	0
151	0
152	1
153	1
154	4
155	2
157	111
158	17
159	86
160	7
161	7
163	26
164	3
165	3
166	1
167	0
169	0
171	7
172	7
173	1
174	0
175	0
176	0
177	0
185	0
186	0
189	89
190	8
191	16
192	1
193	0
195	0
198	0
199	0
201	3
203	0
204	0
208	0
210	0
212	2
213	0
218	0
219	1
221	41
222	3
223	6
224	0
225	0
226	1
228	5
230	72
231	7
232	8
233	0
234	0
249	0
259	0
260	1
262	31
263	3
264	4
265	0
283	0
287	3
290	73
291	9
292	12
293	1
294	0
