Mass Spectrum: Benzenemethanol, .alpha.-(bromomethyl)-.alpha.-[[(1-methyl-2-methylenecyclopent-1-yl)oxy]methyl]-
Formula: C16H21BrO2
CAS: 136132-04-2
Molecular weight: 324
m/z	intensity
38	6
39	55
40	11
41	80
42	13
43	141
44	5
45	10
46	6
50	26
51	82
52	25
53	43
54	8
55	134
56	8
57	21
58	7
59	19
60	12
62	5
63	15
65	54
66	11
67	128
68	13
69	38
71	31
74	8
75	7
76	14
77	240
78	122
79	129
80	26
81	123
82	16
83	79
84	89
85	21
89	14
90	5
91	253
92	33
93	60
94	192
95	999
96	636
97	115
98	8
99	9
100	6
102	27
103	139
104	33
105	247
106	18
107	6
108	34
109	8
111	12
112	37
115	27
116	9
117	17
118	6
119	64
120	535
121	416
122	18
123	242
124	6
125	8
126	15
131	6
132	12
133	61
134	13
135	5
137	62
138	7
149	8
150	36
151	16
152	8
155	104
156	11
157	33
169	7
174	8
176	6
184	11
196	33
197	9
198	8
199	716
200	66
201	696
202	63
203	5
211	29
212	6
213	12
214	89
215	55
216	8
231	9
