Mass Spectrum: 1,1-Bis(methylthio)-2-nitroethylene
Formula: C4H7NO2S2
CAS: 13623-94-4
Molecular weight: 165
m/z	intensity
12	1
13	2
14	4
15	50
16	1
25	1
26	7
27	35
29	8
30	101
31	2
32	14
33	5
34	3
35	6
37	2
38	8
39	82
40	2
41	13
42	6
43	7
44	46
45	730
46	206
47	238
48	37
49	13
50	1
53	1
54	1
55	3
56	16
57	312
58	158
59	126
60	30
61	68
62	7
63	132
64	44
65	7
66	3
68	4
69	35
70	36
71	254
72	999
73	185
74	168
75	356
76	60
77	33
78	7
79	37
80	3
81	4
84	1
85	15
86	896
87	72
88	126
89	283
90	21
91	198
92	54
93	33
94	77
95	12
96	6
97	1
100	1
101	34
102	207
103	557
104	658
105	95
106	62
107	66
108	4
109	5
117	3
118	28
119	8
120	16
121	1
122	4
123	9
132	2
133	6
134	44
135	16
136	5
137	1
138	1
148	82
149	12
150	16
151	1
152	1
165	174
166	11
167	16
