Mass Spectrum: 2,6,10,10-Tetramethylbicyclo[7.2.0]undeca-2,6-diene
Formula: C15H24
CAS: 136296-37-2
Molecular weight: 204
m/z	intensity
25	6
26	10
27	260
29	210
30	18
33	3
34	5
35	5
36	4
39	263
40	50
41	645
42	42
43	238
44	14
45	4
46	2
47	2
50	20
51	75
52	50
53	297
54	18
55	290
56	55
57	83
58	15
60	2
62	5
63	32
64	9
65	136
66	54
67	244
68	42
69	150
70	17
71	7
74	6
75	8
77	292
78	84
79	449
80	361
81	999
82	85
83	28
84	3
86	3
87	3
89	16
91	521
92	169
93	734
94	172
95	195
96	29
97	15
99	3
102	9
103	36
105	425
106	195
107	545
108	188
109	309
110	36
111	4
115	58
116	26
117	42
118	19
119	210
120	86
121	214
122	133
123	124
124	21
127	9
128	17
129	18
130	9
131	28
132	15
133	273
134	68
135	192
136	222
137	38
141	5
143	2
144	7
145	14
146	6
147	128
148	161
149	110
150	13
153	1
155	2
156	2
157	3
159	4
161	155
162	54
163	11
175	48
176	24
177	3
187	3
189	437
190	68
191	9
204	86
205	15
