Mass Spectrum: 1-Acetyl-2,2-dicarboethoxy-4-n-propyl-5-hydroxy pyrrolidine
Formula: C15H25NO6
CAS: 13626-44-3
Molecular weight: 315
m/z	intensity
41	153
43	999
44	53
45	30
47	54
48	4
49	13
50	3
51	4
52	2
53	40
54	56
55	105
56	46
57	56
58	10
59	9
60	10
65	7
66	8
67	24
68	57
69	35
70	18
71	26
72	8
73	8
74	16
77	7
78	1
79	23
80	30
81	47
82	20
83	27
84	6
85	9
86	3
87	5
88	8
91	6
92	1
93	8
94	10
95	1
96	43
97	19
98	40
99	19
100	11
101	5
102	10
106	9
107	4
108	15
109	16
110	19
111	18
112	27
113	2
114	10
115	6
116	5
117	2
119	2
122	1
123	1
124	11
125	3
126	174
127	21
128	8
129	12
130	1
136	9
137	3
138	3
139	2
140	13
141	2
142	7
143	19
144	1
152	7
153	9
154	22
155	14
157	16
158	3
160	2
168	2
169	1
170	11
171	24
172	10
173	6
174	2
175	2
178	1
180	2
182	28
183	21
184	4
186	5
196	2
198	30
200	528
201	54
202	5
203	5
212	2
213	7
214	7
216	9
217	9
224	2
226	2
228	2
240	2
242	62
243	6
254	1
255	19
256	18
257	2
258	3
270	5
271	1
272	3
273	1
297	1
298	2
