Mass Spectrum: 1,4-Butanediamine,N,N'-bis[3-(2-oxo-3-oxazolidinyl)propyl]-N,N-bis(4-methylphenylsulfonyl)-
Formula: C30H42N4O8S2
CAS: 13621-89-1
Molecular weight: 650
m/z	intensity
41	143
42	146
44	319
45	42
46	3
47	1
48	32
49	14
50	14
51	77
52	9
53	6
56	469
57	88
58	23
59	5
60	2
61	3
62	13
63	87
65	380
68	142
70	204
71	8
72	16
74	12
75	4
77	72
79	65
80	34
82	234
84	193
85	23
86	25
87	25
89	85
91	999
92	229
94	10
96	41
98	55
100	152
101	17
105	9
107	56
108	35
110	203
111	13
112	14
113	4
114	22
115	30
118	2
121	9
122	3
123	14
124	9
125	13
126	30
128	271
129	8
137	7
139	130
140	8
141	9
143	6
145	22
151	2
153	5
155	66
156	150
157	60
158	8
160	2
165	5
170	2
171	8
181	2
183	64
184	17
195	20
196	7
197	165
198	17
199	5
224	11
226	7
240	2
242	6
252	8
311	10
408	74
409	14
410	5
495	34
496	7
