Mass Spectrum: Phenethylamine, N-benzyl-p-chloro-
Formula: C15H16ClN
CAS: 13622-43-0
Molecular weight: 245
m/z	intensity
27	10
28	20
39	20
41	20
42	10
43	10
51	20
55	10
57	10
63	10
65	70
69	10
75	10
77	30
89	20
90	10
91	999
92	100
103	30
120	580
121	60
125	30
127	10
139	10
164	30
