Mass Spectrum: 1-Methyl-4-n-hexylaminocytosine
Formula: C11H19N3O
CAS: 136308-26-4
Molecular weight: 209
m/z	intensity
53	62
54	133
55	212
56	137
57	19
66	23
67	39
68	62
69	31
70	125
79	15
80	51
81	196
82	232
83	346
84	15
95	425
96	106
97	47
109	267
110	114
111	19
123	23
124	43
125	999
126	149
136	35
138	700
139	905
140	39
150	11
152	618
153	102
166	338
167	55
180	173
181	7
194	66
208	31
209	417
210	47
