Mass Spectrum: 3-Aza-6-oxabicyclo[3.3.0]octane-2,4-dione, 3-phenyl-
Formula: C12H11NO3
CAS: 136309-86-9
Molecular weight: 217
m/z	intensity
25	0
26	8
27	14
29	12
30	0
31	1
37	2
38	10
39	68
40	7
41	89
42	258
43	8
44	1
50	6
51	21
52	6
53	2
54	5
55	1
56	0
60	0
61	0
62	1
63	13
64	27
65	12
66	1
67	1
68	16
69	47
70	999
71	44
72	2
73	0
74	1
75	1
76	2
77	20
78	1
79	0
80	0
81	0
87	0
88	0
89	0
90	3
91	35
92	3
93	4
94	0
95	0
96	0
97	14
98	0
102	0
103	2
104	2
105	0
106	0
115	0
116	0
117	1
118	0
119	40
120	5
121	2
122	0
128	0
129	0
130	1
131	0
132	1
133	1
134	0
142	0
143	0
144	0
145	0
146	0
147	0
154	0
155	0
158	0
159	1
160	1
161	0
162	0
163	1
171	0
172	0
173	0
187	0
188	0
189	4
190	0
199	0
213	0
215	0
216	0
217	426
218	56
219	5
220	0
