Mass Spectrum: Propanedioic acid, [(2-methylphenyl)hydrazono]-, diethyl ester
Formula: C14H18N2O4
CAS: 13636-62-9
Molecular weight: 278
m/z	intensity
43	50
44	60
79	600
91	400
105	999
106	680
107	120
132	240
204	480
205	120
232	40
233	80
278	370
