Mass Spectrum: Octylbis(trifluoromethyl)phosphine sulfide
Formula: C10H17F6PS
CAS: 136338-51-7
Molecular weight: 314
m/z	intensity
27	331
28	65
29	496
39	230
40	34
41	999
42	280
43	504
45	29
53	77
54	90
55	787
56	608
57	255
63	212
67	90
68	102
69	677
70	867
71	156
77	48
79	27
82	145
83	572
84	386
85	32
91	16
97	110
98	8
99	10
103	45
105	16
109	17
111	10
112	847
113	67
115	30
119	31
127	17
129	8
133	43
143	5
147	183
148	5
149	12
161	15
169	9
179	9
184	25
197	8
202	24
204	5
211	11
213	286
214	24
216	39
229	42
243	8
245	166
246	14
314	338
315	27
316	15
