Mass Spectrum: Thiophene-2-carboxamide, N-(4-iodophenyl)-
Formula: C11H8INOS
CAS: 136340-97-1
Molecular weight: 329
m/z	intensity
33	5
37	30
38	80
39	554
41	20
42	8
43	10
45	71
47	2
50	72
51	25
52	26
53	20
55	11
57	72
58	16
59	4
61	15
62	31
63	157
64	126
65	37
66	5
67	2
69	15
70	6
71	8
73	5
74	17
76	45
77	10
78	2
79	2
81	15
82	22
83	151
84	14
85	7
87	7
88	4
90	27
91	112
92	14
93	7
95	6
96	2
97	2
98	1
99	0
101	1
102	3
103	2
104	1
105	1
106	1
111	999
113	76
115	2
116	1
117	1
118	2
119	1
120	1
121	1
122	1
123	1
124	1
125	1
127	25
128	18
129	2
130	2
133	1
134	1
135	4
139	1
140	2
141	1
145	3
146	1
147	3
149	1
152	1
155	2
157	1
164	1
165	3
169	0
171	4
172	4
173	7
174	2
185	0
189	1
191	14
198	1
201	12
202	12
203	10
204	1
218	18
219	4
220	3
245	1
246	0
300	0
301	0
329	327
330	42
331	16
332	1
333	0
