Mass Spectrum: 3-Furancarboxamide, 2,3-dihydro-N-phenyl-
Formula: C11H11NO2
CAS: 136309-88-1
Molecular weight: 189
m/z	intensity
25	0
26	8
27	48
28	26
29	55
30	2
31	4
37	14
38	49
39	334
40	55
41	406
42	91
43	10
44	2
45	0
46	0
49	1
50	28
51	99
52	19
53	7
54	7
55	16
56	0
58	0
59	0
60	0
61	2
62	7
63	33
64	36
65	107
66	50
67	7
68	25
69	999
70	309
71	15
72	2
73	0
74	4
75	3
76	9
77	188
78	15
79	1
80	0
81	0
82	0
83	0
84	0
86	0
87	0
88	0
89	1
90	2
91	34
92	94
93	227
94	18
95	16
96	3
97	6
98	0
99	0
100	0
101	0
102	0
103	1
104	3
105	2
106	3
107	0
108	0
109	0
115	2
116	0
117	1
118	1
119	43
120	68
121	131
122	10
123	0
127	0
128	0
130	4
131	0
132	0
133	0
134	0
135	0
142	0
143	0
144	0
145	0
146	0
148	0
149	0
157	0
158	0
159	1
160	1
161	1
162	0
163	0
170	0
171	0
172	2
173	0
175	0
187	2
189	101
190	12
191	2
192	0
