Mass Spectrum: Benzene, (4-bromobutyl)-
Formula: C10H13Br
CAS: 13633-25-5
Molecular weight: 212
m/z	intensity
41	39
50	19
51	59
52	9
53	9
55	9
63	29
64	9
65	99
77	49
78	39
79	19
89	19
91	999
92	79
103	19
104	59
105	39
115	9
117	9
132	39
133	39
212	39
214	39
