Mass Spectrum: 2,4,6,8,9,10-Hexathiatricyclo[3.3.1.1(3,7)]decane, 1,3,5,7-tetrakis(chloromethyl)-
Formula: C8H8Cl4S6
CAS: 13639-09-3
Molecular weight: 436
m/z	intensity
16	6
17	22
18	25
26	7
27	14
28	24
29	7
32	32
33	8
34	16
35	5
36	19
38	9
39	12
41	11
42	6
43	19
44	105
45	72
46	35
47	9
48	8
49	37
50	5
51	16
55	10
56	16
57	111
58	308
59	80
60	28
61	11
63	6
64	49
65	6
66	7
67	6
69	20
70	10
71	25
72	7
73	7
75	9
76	118
77	14
78	14
79	13
80	7
81	22
82	9
83	18
84	14
85	6
88	13
89	25
90	46
91	27
92	58
93	999
94	55
95	362
96	15
97	39
98	6
101	7
103	7
105	6
107	26
109	20
115	10
116	18
117	7
118	12
124	5
125	22
126	5
127	16
129	7
130	7
131	6
140	6
141	7
142	10
145	6
147	23
148	52
149	14
150	21
151	242
152	26
153	105
154	9
155	9
157	11
159	10
172	13
173	6
174	23
175	7
176	15
177	8
178	9
179	7
181	5
182	15
183	271
184	31
185	177
186	247
187	63
188	169
189	14
190	34
204	6
208	14
209	39
210	12
211	21
212	14
213	10
214	8
215	5
217	32
218	284
219	46
220	210
221	24
222	17
223	6
224	5
243	7
245	6
247	14
249	34
251	16
253	6
276	39
278	34
280	31
282	23
284	9
301	8
311	138
312	11
313	160
314	11
315	69
318	14
341	6
343	6
436	85
438	123
439	9
440	76
442	24
