Mass Spectrum: Eicocylbis(trifluoromethyl)phosphine sulfide
Formula: C22H41F6PS
CAS: 136338-54-0
Molecular weight: 482
m/z	intensity
27	77
28	25
29	289
39	51
41	632
42	125
43	999
44	28
53	32
54	94
55	852
56	255
57	861
58	31
67	123
68	90
69	611
70	202
71	380
79	22
81	82
82	139
83	473
84	138
85	205
87	19
95	48
96	89
97	429
98	83
99	43
109	21
110	37
111	198
112	55
113	25
124	22
125	87
126	36
127	19
133	36
139	35
140	22
147	68
153	19
197	24
198	44
202	19
211	38
212	21
216	17
224	21
225	27
229	17
237	26
238	52
239	16
251	84
252	60
253	17
265	56
266	15
267	20
279	15
280	109
281	40
295	23
309	23
313	45
322	15
323	19
335	16
336	17
337	19
350	20
351	20
364	23
365	18
377	17
378	17
379	149
380	30
381	198
382	47
413	715
414	149
415	42
448	160
449	82
450	15
482	15
