Mass Spectrum: 1-Methyl-4-tert-butylaminocytosine
Formula: C9H15N3O
CAS: 136308-27-5
Molecular weight: 181
m/z	intensity
55	46
56	108
57	140
58	19
81	46
82	89
83	315
84	132
96	105
97	11
109	11
110	38
124	15
125	999
126	140
166	128
181	330
182	23
