Mass Spectrum: Hexadecylbis(trifluoromethyl)phosphine sulfide
Formula: C18H33F6PS
CAS: 136338-53-9
Molecular weight: 426
m/z	intensity
27	122
28	36
29	402
39	83
41	856
42	147
43	978
44	30
53	46
54	120
55	999
56	325
57	740
67	142
68	106
69	675
70	302
71	311
79	28
81	85
82	149
83	532
84	186
85	167
95	44
96	96
97	483
98	131
99	36
103	29
109	20
110	48
111	225
112	77
113	22
115	16
124	28
125	107
126	48
127	18
133	50
138	20
139	40
140	30
147	106
153	21
154	21
184	20
196	30
197	32
198	34
202	24
211	47
212	17
216	28
224	321
225	76
229	31
237	30
238	72
239	18
243	12
251	107
252	64
253	20
257	44
265	70
266	23
267	18
279	16
281	19
295	19
308	15
309	17
321	13
322	18
323	184
325	269
326	45
337	16
349	14
357	740
358	125
359	42
363	12
392	123
393	92
394	14
426	51
