Mass Spectrum: Dodecylbis(trifluoromethyl)phosphine sulfide
Formula: C14H25F6PS
CAS: 136338-52-8
Molecular weight: 370
m/z	intensity
27	212
28	50
29	492
39	143
40	26
41	952
42	171
43	779
44	24
53	62
54	116
55	999
56	442
57	500
63	127
67	132
68	102
69	693
70	415
71	193
79	30
81	65
82	157
83	481
84	284
85	110
95	23
96	101
97	433
98	181
99	26
103	35
110	46
111	221
112	84
113	15
115	18
119	18
124	20
125	109
126	59
127	16
129	5
133	47
138	7
139	31
140	76
141	10
147	136
149	9
161	12
168	574
169	76
183	7
184	21
194	5
197	25
198	7
201	12
202	23
211	27
212	5
213	12
216	33
224	13
225	17
229	36
237	14
238	33
239	7
243	8
251	36
252	34
253	6
257	6
265	23
266	10
267	61
269	259
270	20
271	15
279	6
301	384
302	47
303	19
336	7
337	32
341	5
370	133
371	19
