Mass Spectrum: 1-Methyl-4-cyclohexylaminocytosine
Formula: C11H17N3O
CAS: 136308-29-7
Molecular weight: 207
m/z	intensity
55	114
56	90
67	35
68	11
70	15
80	31
81	78
82	141
83	161
96	51
98	47
109	27
110	11
124	19
125	999
126	515
127	19
136	23
150	192
151	7
152	47
164	122
165	19
178	43
206	55
207	358
208	47
