Mass Spectrum: Benzenepropanal, .alpha.-[bis(phenylmethyl)amino]-
Formula: C23H23NO
CAS: 136370-73-5
Molecular weight: 329
m/z	intensity
26	0
27	4
28	9
29	2
30	1
31	0
36	0
37	0
38	1
39	19
40	10
41	9
42	3
43	0
44	0
50	2
51	11
52	2
53	1
54	0
55	0
56	0
57	0
59	0
61	0
62	1
63	9
64	2
65	105
66	5
67	0
69	0
70	2
71	0
72	0
73	0
74	0
75	0
76	1
77	15
78	5
79	4
80	0
81	0
86	0
87	0
89	13
90	10
91	999
92	78
93	3
102	1
103	7
104	4
105	7
106	3
107	0
115	2
116	1
117	10
118	7
119	0
120	5
121	0
128	0
129	0
130	5
131	1
132	15
133	2
134	0
141	0
144	0
146	0
147	0
150	0
152	1
153	0
162	0
165	3
166	3
167	1
178	1
179	2
180	0
181	41
182	7
183	0
187	0
191	0
192	0
193	0
194	0
195	0
196	0
204	0
205	0
206	0
207	0
208	11
209	2
210	15
211	2
212	0
222	1
223	0
224	0
236	0
237	0
238	32
239	6
240	1
252	0
300	333
301	77
302	9
303	0
329	0
