Mass Spectrum: 1-Methyl-4-n-butylaminocytosine
Formula: C9H15N3O
CAS: 136308-25-3
Molecular weight: 181
m/z	intensity
52	34
53	19
54	69
55	96
56	100
57	23
66	11
67	23
68	31
69	27
70	112
80	31
81	139
82	170
83	329
84	19
95	434
96	62
97	23
109	224
110	100
111	15
124	23
125	999
126	77
136	15
138	666
139	724
140	31
152	503
153	50
166	73
180	42
181	523
182	42
