Mass Spectrum: 2-Methylpropenoic acid, pentafluorophenyl ester
Formula: C10H5F5O2
CAS: 13642-97-2
Molecular weight: 252
m/z	intensity
38	13
39	331
40	30
41	738
42	5
44	62
45	2
68	5
69	999
70	56
86	30
87	4
93	4
105	17
117	39
118	6
136	37
137	7
155	78
156	9
167	6
183	27
184	338
185	9
