Mass Spectrum: 1-Bromo-2-fluoro-4-iodobenzene
Formula: C6H3BrFI
CAS: 136434-77-0
Molecular weight: 300
m/z	intensity
24	1
25	4
26	4
31	38
36	15
37	75
38	46
39	5
44	4
45	1
47	2
48	8
49	45
50	235
51	14
55	8
56	30
57	10
60	16
61	100
62	82
63	60
64	3
68	243
69	21
72	10
73	85
74	326
75	115
76	6
79	14
80	4
81	13
82	1
91	7
92	108
93	261
94	999
95	65
96	1
104	2
105	1
106	2
110	1
115	1
116	2
117	3
118	2
119	1
122	1
124	1
125	1
127	174
128	15
129	2
130	7
131	2
135	2
137	3
139	3
140	1
141	1
146	1
147	3
148	1
149	3
150	56
151	54
152	10
153	17
154	4
155	16
156	2
163	1
164	2
165	1
173	498
174	47
175	481
176	33
177	1
194	2
221	5
300	556
301	43
302	531
303	35
