Mass Spectrum: 3,6,9,12,15,18-Hexaoxabicyclo[18.3.1]tetracosa-1(24),20,22-triene, 24-(1,3,2-benzodioxaborol-2-yl)-
Formula: C24H31BO8
CAS: 136426-45-4
Molecular weight: 458
m/z	intensity
27	20
28	50
29	48
30	3
31	61
39	14
41	19
42	11
43	124
44	30
45	999
46	21
51	6
52	4
53	7
55	3
57	10
58	13
59	51
60	0
61	0
63	11
64	8
65	26
66	1
69	3
70	0
71	33
72	5
73	82
74	3
75	6
76	15
77	45
78	32
79	15
80	4
81	0
83	1
85	0
86	0
87	138
88	16
89	777
90	43
91	51
92	13
93	8
95	6
96	23
97	18
98	29
99	0
100	0
101	13
102	55
103	51
104	92
105	50
106	4
107	2
108	2
109	3
110	22
111	487
112	71
113	3
114	24
115	136
116	29
117	72
118	39
119	94
120	90
121	10
125	4
126	1
127	3
128	39
129	132
130	48
131	96
132	23
133	624
134	44
135	17
136	59
137	20
139	0
140	0
141	7
142	3
143	27
144	49
145	31
146	38
147	20
148	2
149	8
150	0
151	6
152	14
153	8
154	1
155	7
156	4
157	13
158	14
159	61
160	9
161	9
162	71
163	276
164	38
165	59
166	23
167	13
168	6
169	1
170	0
171	3
172	8
173	33
174	28
175	24
176	11
177	122
178	62
179	52
180	13
181	15
182	3
183	3
184	1
187	8
188	7
189	28
190	7
191	13
192	5
193	13
194	66
195	44
196	37
197	5
198	0
199	1
200	0
201	6
202	1
203	10
204	2
205	2
206	30
207	114
208	41
209	78
210	36
211	6
216	1
217	6
218	3
219	17
220	50
221	245
222	338
223	189
224	43
225	7
232	0
233	5
234	10
235	44
236	43
237	133
238	278
239	76
240	13
246	0
247	2
248	2
249	6
250	27
251	90
252	25
253	14
254	15
255	1
261	3
262	4
263	15
264	24
265	14
266	4
267	4
279	0
280	0
281	5
282	6
283	1
295	6
296	0
348	1
349	10
414	0
457	169
458	704
459	191
460	35
461	4
