Mass Spectrum: 2,4,6-Cycloheptatrien-1-one, 4-(1-methylethyl)-
Formula: C10H12O
CAS: 13656-81-0
Molecular weight: 148
m/z	intensity
41	90
43	50
44	40
50	90
51	160
52	60
53	50
63	60
65	60
74	40
76	60
77	190
78	80
79	140
91	90
103	100
104	80
105	999
106	110
120	70
121	40
148	210
149	100
