Mass Spectrum: 1,3-Propanediamine, N,N-dimethyl-N'-phenyl-
Formula: C11H18N2
CAS: 13658-95-2
Molecular weight: 178
m/z	intensity
58	999
70	123
71	82
72	108
77	144
84	92
85	400
104	87
106	221
132	292
133	246
178	523
179	77
