Mass Spectrum: Benzene, 1,1'-(2-butene-1,4-diyl)bis-
Formula: C16H16
CAS: 13657-49-3
Molecular weight: 208
m/z	intensity
27	7
29	3
30	6
31	5
37	4
38	13
39	53
40	6
41	33
42	3
43	21
50	17
51	43
52	18
53	13
54	2
55	0
56	10
57	20
58	7
62	10
63	22
64	9
65	91
66	12
68	6
69	2
70	3
71	27
72	10
74	5
75	8
76	12
77	53
78	42
79	7
81	3
82	10
83	4
84	4
85	15
86	3
87	6
88	8
89	25
90	4
91	322
92	35
93	3
95	2
96	6
97	5
98	8
99	6
101	8
102	19
103	43
104	176
105	25
109	6
111	6
112	8
113	12
114	4
115	259
116	72
117	999
118	107
119	8
125	4
126	2
127	16
128	49
129	108
130	403
131	44
135	3
139	5
141	2
150	4
151	5
152	9
153	4
154	4
155	6
165	16
166	4
167	9
169	5
176	5
178	27
179	21
180	20
189	9
191	15
193	4
202	7
203	8
204	5
205	7
206	7
207	13
208	107
209	25
