Mass Spectrum: Ethanone, 1-[1,2,5,6-tetrahydro-5-(4-chlorophenyl)-2-methyl-6-(2-thienyl)-1,2,4,5-tetrazin-3-yl]-
Formula: C15H15ClN4OS
CAS: 136515-03-2
Molecular weight: 334
m/z	intensity
33	0
36	3
37	2
38	12
39	93
40	12
41	19
42	999
43	853
44	61
45	53
46	3
47	1
49	1
50	6
51	13
52	11
53	2
54	2
55	5
56	6
57	24
58	15
59	0
60	4
61	1
62	2
63	32
64	13
65	7
66	4
67	0
68	0
69	17
70	19
71	2
72	1
73	8
74	1
75	31
76	5
77	10
78	1
79	0
80	0
81	0
82	2
83	11
84	153
85	52
86	12
87	9
88	0
89	1
90	9
91	4
92	1
93	0
94	1
95	4
96	14
97	8
98	3
99	24
100	3
101	14
102	1
103	0
105	0
106	1
107	0
108	0
109	8
110	50
111	119
112	267
113	57
114	17
115	0
116	0
117	0
118	0
119	0
120	0
122	3
123	1
124	5
125	26
126	81
127	69
128	25
129	14
130	1
131	0
132	0
135	0
136	0
137	3
138	8
139	95
140	109
141	117
142	30
143	31
144	4
145	0
146	4
147	3
148	0
149	1
150	1
151	8
152	19
153	9
154	60
155	9
156	2
157	0
158	0
160	0
161	0
163	0
164	0
165	19
166	41
167	13
168	3
169	0
170	0
171	0
173	0
174	0
176	0
180	0
181	2
182	0
183	22
184	2
185	6
186	2
187	0
188	0
189	0
192	0
193	0
194	1
195	9
196	0
197	0
198	0
200	0
201	0
204	0
206	6
207	5
208	46
209	4
210	2
213	0
220	7
221	7
222	9
223	4
224	71
225	14
226	22
227	4
228	0
333	2
334	425
335	102
336	175
337	28
338	9
