Mass Spectrum: 1-(4-Chlorophenyl)-2-(4-ethoxycarbonylphenyl)-3-(thiophen-2-ylcarbonyl)-cyclopropane
Formula: C23H19ClO3S
CAS: 136673-29-5
Molecular weight: 410
m/z	intensity
63	9
83	19
89	10
111	999
115	99
116	9
125	30
149	29
165	20
189	40
190	19
191	70
192	29
197	59
198	9
225	9
226	19
227	29
229	10
253	9
254	20
255	10
271	10
299	90
300	19
301	39
365	29
367	9
410	9
