Mass Spectrum: 1-(4-Bromophenyl)-2-(4-ethoxycarbonylphenyl)-3-(thiophen-2-ylcarbonyl)-cyclopropane
Formula: C23H19BrO3S
CAS: 136673-28-4
Molecular weight: 454
m/z	intensity
77	9
83	19
85	9
102	9
111	999
115	79
163	10
169	9
178	49
179	49
180	9
187	9
189	40
192	29
193	10
271	10
299	10
324	170
325	39
342	30
344	30
410	9
454	10
