Mass Spectrum: 1-(4-Nitrophenyl)-2-(4-ethoxycarbonylphenyl)-3-(thiophen-2-ylcarbonyl)-cyclopropane
Formula: C23H19NO5S
CAS: 136673-31-9
Molecular weight: 421
m/z	intensity
45	639
46	230
55	118
57	241
60	150
69	110
71	158
76	61
83	120
85	99
93	59
97	70
102	88
111	999
115	50
129	39
130	69
141	39
146	30
149	110
152	69
176	40
184	171
185	89
212	239
213	130
225	19
228	39
229	79
230	29
231	40
242	170
258	120
259	631
260	110
261	40
280	40
