Mass Spectrum: Ethanone, 2,2-dibromo-1-phenyl-
Formula: C8H6Br2O
CAS: 13665-04-8
Molecular weight: 276
m/z	intensity
27	19
28	7
29	3
31	0
34	0
36	1
37	14
38	24
39	39
40	4
41	3
42	1
43	3
44	2
45	5
47	0
48	1
49	9
50	79
51	161
52	10
53	2
54	0
55	0
57	0
58	0
59	0
60	2
61	11
62	24
63	43
64	11
65	2
66	0
67	0
72	0
73	6
74	24
75	16
76	19
77	326
78	21
79	7
80	2
81	7
82	2
83	0
84	1
85	2
86	3
87	3
88	2
89	46
90	75
91	4
92	8
93	3
94	8
95	0
97	0
98	1
99	0
100	0
101	0
102	5
103	0
104	2
105	999
106	72
107	4
117	0
118	1
119	0
120	5
121	1
122	5
123	0
126	0
128	0
130	0
143	1
144	0
145	1
150	0
156	0
157	0
158	0
160	0
162	0
168	0
169	25
170	2
171	28
172	2
173	6
174	0
175	2
198	0
199	0
200	0
202	0
247	0
276	1
278	3
279	0
280	1
