Mass Spectrum: 4,5-Dihydrooxazole, 2-vinyl-
Formula: C5H7NO
CAS: 13670-33-2
Molecular weight: 97
m/z	intensity
27	211
28	79
29	33
38	52
39	150
40	160
41	302
42	52
43	40
52	26
53	20
54	30
55	112
64	12
65	24
66	80
67	999
68	118
69	16
96	15
97	272
98	32
99	3
