Mass Spectrum: 2-Propenoic acid, 2-methyl-, 1,5-pentanediyl ester
Formula: C13H20O4
CAS: 13675-34-8
Molecular weight: 240
m/z	intensity
15	7
18	1
26	4
27	25
28	25
29	48
30	2
31	10
37	2
38	9
39	168
40	63
41	618
42	45
43	25
44	6
45	7
51	1
53	15
54	8
55	28
56	9
57	13
58	4
59	11
65	2
67	94
68	345
69	999
70	57
71	9
79	1
80	4
81	12
82	6
83	5
84	50
85	34
86	20
87	75
88	3
93	2
94	1
95	7
96	3
97	10
98	29
99	7
100	1
107	1
108	38
109	17
110	6
111	7
112	5
113	4
115	1
121	1
124	2
125	12
126	101
127	16
128	1
136	50
137	6
138	1
139	1
143	1
153	2
154	41
155	16
156	1
171	1
172	32
173	20
174	2
194	1
212	9
240	3
