Mass Spectrum: 3(2H)-Thiophenone, dihydro-2-methyl-
Formula: C5H8OS
CAS: 13679-85-1
Molecular weight: 116
m/z	intensity
26	33
27	111
28	146
30	1
31	9
34	11
37	10
39	18
41	53
42	23
43	4
44	4
45	165
46	155
47	28
48	8
58	42
59	147
60	999
61	35
62	40
65	2
67	5
68	1
69	2
72	5
73	22
74	50
76	2
79	13
81	11
88	65
94	4
99	2
101	11
116	527
117	44
118	30
