Mass Spectrum: 3-Trimethylsiloxypalmitic acid, trimethylsilyl ester
Formula: C22H48O3Si2
CAS: 136788-86-8
Molecular weight: 416
m/z	intensity
15	5
38	4
39	25
40	9
41	192
42	35
43	222
44	14
45	51
46	5
47	18
50	3
51	2
52	1
53	18
54	55
55	231
56	46
57	105
58	13
59	29
60	7
61	31
63	4
65	8
66	8
67	100
68	39
69	129
70	25
71	41
72	33
73	999
74	96
75	412
76	33
77	23
78	8
79	22
80	18
81	89
82	45
83	97
84	62
85	23
86	6
87	1
88	4
89	15
91	18
92	9
93	17
94	13
95	72
96	66
97	73
98	50
99	18
100	4
101	49
102	7
103	35
105	10
106	5
107	10
108	9
109	38
110	33
111	34
112	14
113	8
115	15
116	33
117	238
118	29
119	18
120	5
121	11
122	7
123	29
124	17
125	12
126	5
127	7
128	7
129	179
130	76
131	49
132	76
133	76
134	18
135	11
136	5
137	15
138	18
139	8
141	7
142	5
143	61
144	11
145	95
146	36
147	450
148	78
149	60
151	16
152	12
153	7
155	13
156	6
157	13
158	6
159	35
160	7
161	11
163	8
164	4
165	8
166	9
167	4
169	9
170	4
171	18
172	9
173	11
175	11
177	12
178	4
179	7
180	16
181	5
183	7
185	23
186	8
187	15
188	5
189	96
190	21
191	40
192	8
193	8
194	6
197	6
199	27
200	6
201	9
202	4
203	12
204	51
205	14
211	4
213	9
214	4
215	6
217	89
218	19
219	12
220	6
222	25
223	6
227	8
229	6
231	7
233	526
234	109
235	52
236	11
237	5
241	12
242	4
243	4
247	5
255	6
257	5
263	5
265	26
269	4
283	6
285	222
286	56
287	17
296	4
299	28
300	9
312	30
313	8
314	4
320	5
322	5
326	5
327	22
328	5
334	27
335	5
340	53
341	16
342	11
343	2
348	12
355	13
356	8
357	5
360	44
361	14
362	7
375	8
376	5
385	21
386	7
401	240
402	84
403	32
404	7
