Mass Spectrum: Benzenepropanoic acid, .alpha.-hydroxy-, methyl ester
Formula: C10H12O3
CAS: 13674-16-3
Molecular weight: 180
m/z	intensity
26	1
27	9
28	1
29	13
30	6
31	4
33	29
37	2
38	4
39	46
40	5
41	17
42	2
43	12
44	4
45	4
47	1
49	1
50	15
51	51
52	10
53	6
55	3
56	1
57	1
58	2
59	10
60	2
61	3
62	7
63	27
64	8
65	112
66	8
67	1
69	2
71	1
74	6
75	6
76	5
77	79
78	28
79	28
80	2
81	1
85	2
86	2
87	3
88	2
89	34
90	16
91	999
92	179
93	23
94	2
101	2
102	11
103	172
104	28
105	4
106	2
107	2
115	1
116	1
117	5
118	3
119	5
120	35
121	199
122	17
123	2
125	2
130	5
131	107
132	10
133	1
134	2
144	3
146	3
147	3
148	1
149	2
160	5
161	40
162	458
163	52
164	4
165	1
180	28
181	3
