Mass Spectrum: 2-methyl-5-[(methylthio)methyl]furan
Formula: C7H10OS
CAS: 13679-60-2
Molecular weight: 142
m/z	intensity
39	70
40	100
41	100
43	260
51	80
53	80
65	70
67	80
95	999
96	60
142	230
