Mass Spectrum: 2-(E)-Heptenoic acid, (4S)-4-[(t-butoxycarbonyl)amino]-6-methyl-, ethyl ester
Formula: C15H27NO4
CAS: 136779-19-6
Molecular weight: 285
m/z	intensity
26	3
27	52
28	6
29	174
30	22
31	10
38	0
39	31
40	9
41	164
42	17
43	54
44	14
45	7
47	1
49	0
50	1
51	1
52	3
53	22
54	23
55	32
56	48
57	999
58	49
59	42
60	4
61	5
62	2
65	1
66	0
67	9
68	9
69	9
70	15
71	4
72	5
73	5
74	4
75	0
77	3
78	3
79	5
80	3
81	25
82	44
83	18
84	8
85	4
86	53
87	3
88	3
91	3
92	0
93	2
94	4
95	22
96	37
97	13
98	10
99	11
100	25
101	2
102	0
104	3
107	1
108	0
109	4
110	4
111	2
112	25
113	4
114	4
115	1
116	1
117	1
121	0
122	2
123	10
124	7
125	6
126	7
127	12
128	557
129	55
130	53
131	3
132	0
135	0
138	15
139	15
140	79
141	12
142	19
143	12
144	6
145	2
146	0
148	0
153	2
154	1
155	1
156	35
157	4
158	1
159	0
160	1
164	1
166	15
167	1
168	8
169	9
170	13
171	0
172	294
173	29
174	3
183	13
184	36
185	19
186	18
187	3
188	1
190	0
199	2
200	0
202	0
204	0
205	1
206	0
212	44
213	6
214	4
215	0
216	0
220	0
228	170
229	121
230	15
231	1
246	0
270	2
285	0
