Mass Spectrum: 1-Butene, 1,4-dichloro-
Formula: C4H6Cl2
CAS: 13676-58-9
Molecular weight: 124
m/z	intensity
12	0
13	0
14	1
15	1
17	0
18	2
24	0
25	5
26	68
27	251
28	40
29	5
30	0
35	18
36	64
37	20
38	34
39	245
40	10
41	32
42	1
43	7
44	10
45	2
47	6
48	7
49	106
50	100
51	132
52	45
53	512
54	132
55	6
59	0
60	10
61	34
62	257
63	31
64	84
65	7
66	0
69	0
71	0
72	1
73	15
74	1
75	999
76	30
77	295
78	10
79	6
80	0
83	6
84	2
85	7
86	3
87	39
88	462
89	666
90	169
91	195
92	7
93	1
96	5
97	1
98	3
99	0
100	11
101	1
103	0
104	0
109	5
110	0
111	3
112	0
113	0
122	0
123	2
124	213
125	11
126	141
127	5
128	20
129	0
