Mass Spectrum: 3-Trimethylsiloxyoctanoic acid, trimethylsilyl ester
Formula: C14H32O3Si2
CAS: 136788-83-5
Molecular weight: 304
m/z	intensity
16	12
17	2
26	2
27	12
28	4
29	27
30	2
31	4
39	7
41	42
42	6
43	39
44	20
45	89
46	7
47	25
53	6
54	5
55	79
56	10
57	11
58	9
59	51
60	8
61	22
66	6
67	10
68	4
69	6
70	5
71	9
72	32
73	999
74	90
75	188
76	11
77	4
79	2
81	17
82	4
83	45
84	5
85	8
87	8
88	6
89	4
91	7
93	0
94	4
95	12
96	4
97	24
98	4
99	13
100	4
101	70
102	9
103	51
104	3
105	5
107	3
113	4
115	21
116	12
117	59
118	8
119	7
124	3
125	13
127	3
129	23
130	61
131	45
132	18
133	69
134	11
135	0
137	7
143	37
144	10
145	12
147	563
148	90
149	67
150	9
151	4
155	4
156	3
157	9
158	3
159	4
161	4
163	4
169	2
171	8
172	3
173	383
174	59
175	23
176	3
177	9
179	2
185	3
186	28
187	6
188	2
189	100
190	21
191	47
192	9
199	28
200	5
201	3
203	4
204	46
205	11
206	7
211	3
213	3
214	14
215	5
217	27
218	5
219	3
229	12
230	2
231	4
233	375
234	77
235	35
236	5
248	153
250	15
251	2
259	34
273	15
274	4
289	212
290	54
291	22
292	4
303	2
304	3
