Mass Spectrum: Acrylic acid, TMS derivative
Formula: C6H12O2Si
CAS: 13688-55-6
Molecular weight: 144
m/z	intensity
15	44
26	25
27	183
28	33
29	40
31	20
42	20
43	85
44	23
45	188
46	19
47	87
53	19
55	221
57	16
58	29
59	40
60	25
61	67
72	27
73	196
74	37
75	999
76	78
77	47
85	155
86	18
87	19
99	62
101	13
129	992
130	110
131	34
144	28
