Mass Spectrum: N-[2,2-Dichloro-1-(toluene-4-sulfonyl)-ethyl]-benzamide
Formula: C16H15Cl2NO3S
CAS: 136800-77-6
Molecular weight: 371
m/z	intensity
34	0
35	2
36	7
37	3
38	10
39	13
40	6
41	1
43	0
44	7
46	0
47	7
48	6
49	7
50	64
51	186
52	12
53	3
55	0
58	2
60	3
61	2
62	4
63	5
64	2
65	1
66	0
69	0
72	0
73	4
74	19
75	16
76	40
77	554
78	37
79	1
81	0
82	5
83	12
84	3
85	7
86	1
87	2
88	0
89	3
90	3
91	2
95	1
97	1
99	0
101	0
102	2
103	6
105	999
106	74
107	5
108	1
109	1
110	1
111	2
112	0
113	1
116	1
117	1
121	0
122	0
123	0
124	1
125	1
126	0
127	0
135	0
145	0
150	0
151	1
153	0
178	0
180	23
181	3
182	7
183	1
213	1
215	58
216	7
217	36
218	4
219	6
220	0
