Mass Spectrum: Benzamide, N-(3,4-dihydro-2-cyano-3-spiro-cyclopentane-1-naphthyl)-
Formula: C22H20N2O
CAS: 136819-71-1
Molecular weight: 328
m/z	intensity
33	1
34	0
36	0
37	1
38	4
39	28
40	17
41	31
42	13
43	5
44	4
45	0
50	22
51	81
53	12
54	3
55	16
56	2
57	1
58	0
60	0
61	0
62	2
63	8
64	4
65	9
66	2
67	4
68	1
69	2
70	1
71	0
73	0
74	5
75	10
77	491
78	32
79	3
80	1
81	1
82	0
83	1
84	1
85	0
86	0
87	1
88	3
89	17
90	11
91	10
92	1
93	1
94	0
95	1
96	3
97	1
98	0
99	1
100	1
101	3
102	4
105	999
106	65
107	4
108	0
110	0
111	0
112	2
113	5
114	5
115	10
116	15
117	6
118	1
120	0
122	0
124	1
125	2
126	8
127	19
128	8
129	2
130	2
131	1
132	0
133	0
134	0
136	0
138	3
139	9
140	22
141	6
142	2
143	1
144	0
149	0
150	1
151	3
152	9
153	17
154	16
155	4
156	1
157	0
158	0
163	0
164	2
165	4
166	7
167	5
168	8
169	4
170	1
171	1
174	0
175	0
176	0
177	1
178	3
179	7
180	4
181	12
182	4
183	2
184	0
189	0
190	1
191	1
192	2
193	3
194	4
195	4
196	1
203	0
204	0
205	1
206	1
207	3
208	1
209	0
217	0
219	0
221	0
223	8
224	1
225	5
226	1
228	0
230	0
234	0
241	0
242	0
252	0
255	0
256	0
257	1
258	0
260	0
267	0
269	0
283	0
285	0
286	1
298	0
299	1
300	0
302	0
311	0
325	0
326	1
328	58
329	12
330	1
