Mass Spectrum: 2,4(1H,3H)-Pyrimidinedione, 5-[5-O-[bis(4-methoxyphenyl)phenylmethyl]-2-deoxy-.beta.-d-erythro-pentofuranosyl]-1-methyl-
Formula: C31H32N2O7
CAS: 136804-01-8
Molecular weight: 544
m/z	intensity
26	18
27	109
28	27
29	136
30	26
31	220
36	7
37	7
38	28
39	179
40	47
41	183
42	999
43	175
44	90
45	61
46	4
47	3
49	3
50	24
51	46
52	33
53	48
54	24
55	53
56	12
57	20
58	12
59	5
60	9
61	4
62	6
63	23
64	12
65	15
66	29
67	31
68	41
69	93
70	15
71	13
72	2
73	8
74	9
75	13
76	14
77	49
78	13
79	14
80	52
81	134
82	27
83	17
84	14
85	5
86	4
87	9
88	11
89	11
90	2
91	7
92	15
93	8
94	16
95	14
96	33
97	9
98	5
99	4
100	7
101	25
102	6
103	2
104	3
105	37
106	9
107	14
108	25
109	13
110	77
111	8
112	21
113	24
114	12
115	15
116	2
117	2
118	1
119	2
120	3
121	8
122	22
123	5
124	7
125	3
126	25
127	19
128	10
129	5
130	4
131	3
132	3
133	1
134	1
135	47
136	9
137	5
138	8
139	67
140	9
141	9
142	2
144	6
145	3
149	7
150	9
151	19
152	97
153	281
154	43
155	34
156	4
157	1
158	1
163	6
164	5
165	41
166	10
167	4
168	94
169	14
170	2
175	0
176	5
177	4
178	6
179	4
180	5
181	21
182	9
183	7
184	2
187	3
188	2
189	19
191	5
192	1
193	33
194	8
195	20
196	12
197	13
198	3
199	2
200	3
201	3
202	29
203	8
204	2
205	2
206	5
207	7
208	1
209	1
210	3
211	26
212	42
213	18
214	6
215	39
216	18
217	14
218	4
219	3
220	2
221	1
222	2
223	1
224	2
225	17
226	13
227	34
228	21
229	25
230	6
231	4
232	1
233	2
234	4
235	0
236	1
239	1
240	1
241	3
242	3
243	11
244	9
245	24
246	5
247	1
255	1
256	0
257	2
258	4
259	23
260	10
261	1
271	5
272	3
273	18
274	19
275	4
285	0
286	0
287	3
288	144
289	36
290	8
291	0
301	2
302	3
303	403
304	123
305	18
306	2
317	1
318	3
319	2
320	3
321	0
467	1
544	11
545	4
546	0
