Mass Spectrum: 4-(1H-Inden-7-sulfonyloxy)benzophenone
Formula: C22H16O4S
CAS: 136849-97-3
Molecular weight: 376
m/z	intensity
16	1
17	2
18	7
26	1
27	4
28	5
29	1
32	1
37	1
38	8
39	31
40	2
41	5
43	1
44	2
45	2
48	2
50	16
51	59
52	5
53	3
55	2
58	1
61	1
62	14
63	51
64	29
65	43
66	4
69	2
70	0
71	0
74	5
75	10
76	9
77	139
78	10
79	2
85	1
86	3
87	8
88	18
89	90
90	7
91	11
92	21
93	5
94	1
98	1
99	1
101	2
102	13
103	5
105	106
106	8
107	0
108	0
109	0
110	0
111	0
113	21
114	30
115	999
116	98
117	6
119	1
120	4
121	15
122	1
126	1
127	1
128	1
129	1
131	2
133	0
134	2
135	2
136	0
137	0
139	12
140	3
141	43
142	5
143	0
145	1
147	0
150	1
151	2
152	8
153	4
154	0
161	0
163	2
164	1
165	2
166	0
168	1
169	18
170	2
176	1
177	1
178	9
179	204
180	23
181	13
182	1
189	2
190	1
191	4
192	1
193	0
196	0
197	0
198	2
199	0
205	3
206	2
207	6
208	1
233	0
234	0
235	6
236	1
239	0
240	0
241	0
252	0
253	0
255	0
265	0
266	0
267	0
268	0
269	0
270	1
271	0
283	0
284	0
294	0
295	3
296	1
297	0
298	0
299	5
300	1
301	0
311	1
312	1
313	0
376	177
377	53
378	17
379	3
380	0
