Mass Spectrum: N-Methylpropionamide, N-acetyl-
Formula: C6H11NO2
CAS: 136879-35-1
Molecular weight: 129
m/z	intensity
14	7
15	55
16	1
25	2
26	26
27	131
28	100
29	382
30	80
31	35
32	72
33	1
37	2
38	3
39	8
40	7
41	17
42	127
43	999
44	87
45	32
46	1
51	2
52	6
53	7
54	21
55	79
56	339
57	939
58	439
59	64
60	5
64	1
66	2
67	1
68	30
69	21
70	46
71	4
72	41
73	216
74	474
75	17
84	2
86	237
87	263
88	58
89	3
101	881
102	53
103	2
114	31
115	2
129	141
130	11
131	1
