Mass Spectrum: 8-Bromo-1,2-dihydro-7-hydroxy-4H,11H-benzo[4',5']thieno[3',2'-d][1,4]oxazino[4,3-a]pyrimidin-11-one
Formula: C13H9BrN2O3S
CAS: 136800-75-4
Molecular weight: 352
m/z	intensity
37	58
38	69
40	312
41	135
43	516
44	186
45	101
50	54
51	48
52	89
54	999
55	71
56	98
57	102
58	32
59	26
61	100
62	88
63	91
64	26
65	17
66	43
69	387
70	54
72	327
73	71
74	65
75	50
76	28
77	38
79	81
80	82
81	77
82	81
84	53
85	29
86	26
88	167
89	40
90	20
91	12
93	133
94	64
95	19
99	41
100	35
101	21
105	35
106	56
107	78
108	21
109	14
114	35
115	15
117	73
119	114
120	33
122	39
131	16
132	79
133	141
134	47
135	29
136	18
141	12
144	26
145	30
146	22
147	46
148	23
158	30
159	51
160	27
161	36
162	34
163	12
175	17
176	15
186	19
187	40
188	24
189	13
213	17
214	16
215	14
216	27
226	16
240	37
242	19
243	16
244	19
254	24
256	18
266	16
268	23
269	21
271	24
272	12
282	33
283	12
284	31
294	25
295	14
296	32
309	18
311	16
352	157
353	32
354	165
355	19
