Mass Spectrum: 1-Trimethylsilyl-3-(dimethyl-n-pentylsilyl)propene
Formula: C13H30Si2
CAS: 136935-50-7
Molecular weight: 242
m/z	intensity
40	91
41	79
42	54
43	151
44	103
45	133
46	12
55	67
56	35
57	36
58	58
59	558
60	61
61	30
62	6
65	18
67	25
68	9
69	42
70	18
71	27
72	25
73	999
74	9
75	49
83	55
84	73
85	79
86	12
87	61
97	36
98	85
99	61
100	18
111	73
112	18
113	79
115	18
117	16
129	285
130	46
131	28
133	25
157	64
158	12
159	8
169	18
171	33
172	300
173	42
174	25
227	5
228	1
