Mass Spectrum: 1-Dimethylethylsilyl-3-(dimethyl-n-pentylsilyl)propene
Formula: C14H32Si2
CAS: 136935-53-0
Molecular weight: 256
m/z	intensity
41	20
42	13
43	107
44	7
45	73
53	13
55	26
57	13
58	80
59	999
60	67
61	40
67	13
68	7
69	27
70	13
71	27
72	20
73	268
74	27
75	15
83	47
84	74
85	67
86	27
87	624
88	60
89	27
97	25
98	67
99	40
100	12
101	20
102	13
111	29
112	40
113	47
114	7
115	29
117	29
125	29
126	29
127	20
129	322
130	34
131	17
143	40
155	20
157	74
158	12
169	26
170	7
171	40
185	26
186	225
187	54
188	27
227	7
241	2
256	2
