Mass Spectrum: (1S,14S)-Bicyclo[12.10.0]-3,6,9,12,15,18,21,24-octaoxatetracosane
Formula: C16H30O8
CAS: 136982-93-9
Molecular weight: 350
m/z	intensity
51	8
53	32
54	55
55	258
56	94
57	323
58	290
59	419
60	23
61	23
64	32
67	74
68	45
69	252
70	136
71	387
72	255
73	999
74	48
75	55
76	8
77	15
79	32
80	15
81	152
82	52
83	142
84	52
85	129
86	419
87	742
88	261
89	581
90	36
91	17
93	22
94	42
95	94
96	45
97	152
98	24
99	307
100	65
101	210
102	58
103	103
104	12
105	36
107	18
108	14
109	45
110	26
111	81
112	100
113	155
114	55
115	190
116	42
117	216
118	32
119	17
123	39
124	16
125	48
126	19
127	39
128	11
129	52
130	36
131	116
132	11
133	242
134	21
135	15
137	26
138	12
139	22
140	16
141	20
142	8
143	27
144	11
145	28
146	39
147	39
148	12
149	20
151	25
153	15
154	10
155	13
156	11
157	39
158	16
159	142
160	20
161	161
162	16
163	18
173	20
174	110
175	223
176	20
177	21
187	55
188	16
189	15
190	7
191	10
200	26
201	81
202	18
203	32
204	6
205	26
206	7
217	36
218	27
219	39
220	7
221	5
222	4
223	5
224	5
225	6
229	7
231	11
232	3
233	8
234	4
235	10
236	4
237	4
239	5
244	7
245	5
246	5
247	52
248	8
249	5
250	5
252	3
253	5
259	5
261	10
262	10
263	19
264	4
265	4
266	4
267	5
273	5
275	9
277	6
278	4
279	3
280	5
281	3
288	3
289	13
290	4
291	3
292	5
293	5
294	3
305	3
306	5
307	5
308	3
350	36
351	8
352	2
