Mass Spectrum: 1-Trimethylsilyl-3-(dimethyl-n-pentylsilyl)propane
Formula: C13H32Si2
CAS: 136935-51-8
Molecular weight: 244
m/z	intensity
41	24
42	18
43	91
44	30
45	120
46	9
57	15
58	42
59	670
60	43
61	21
68	6
69	18
70	6
71	27
72	121
73	999
74	79
75	37
79	8
83	6
85	79
86	18
87	61
88	5
89	3
97	18
98	6
99	412
100	109
101	37
102	3
103	6
114	18
115	18
127	12
128	9
129	339
130	48
131	24
171	15
172	3
173	242
174	43
175	21
189	2
203	2
204	1
229	12
230	3
231	1
244	5
245	1
