Mass Spectrum: 1,3,5-Tris(dimethyl-n-pentylsilyl)pent-1-ene
Formula: C26H58Si3
CAS: 136935-63-2
Molecular weight: 454
m/z	intensity
40	40
41	74
42	47
43	74
44	45
45	53
46	13
55	40
56	20
57	25
58	27
59	999
60	80
61	40
69	27
70	13
71	26
72	25
73	376
74	40
75	22
83	26
84	13
85	55
86	13
87	86
109	47
110	128
111	40
112	20
113	27
129	785
130	114
131	47
166	107
167	27
169	40
181	22
185	26
239	7
240	5
241	3
253	2
254	4
255	4
256	1
324	13
325	4
326	2
383	1
454	9
455	4
456	2
