Mass Spectrum: 1,2,3,4-Tetradecanetetrol, [2R-(2R*,3S*,4S*)]-
Formula: C14H30O4
CAS: 136953-04-3
Molecular weight: 262
m/z	intensity
27	32
28	49
29	77
30	2
31	26
38	0
39	12
41	113
42	16
43	134
44	50
45	25
46	6
47	3
49	0
51	0
52	0
53	6
54	10
55	161
56	258
57	86
58	9
59	1
60	23
61	57
62	6
63	0
65	1
66	4
67	38
68	17
69	113
70	12
71	29
72	3
73	103
74	999
75	59
76	5
77	1
78	0
79	5
80	2
81	37
82	30
83	88
84	9
85	11
86	2
87	3
88	2
89	1
90	0
91	7
92	5
93	3
94	1
95	45
96	21
97	74
98	8
99	3
100	1
101	1
102	0
103	19
104	1
105	0
107	1
108	0
109	25
110	10
111	16
112	2
113	1
114	0
115	0
116	3
117	0
118	0
119	0
121	2
122	0
123	8
124	5
125	1
126	1
127	1
128	0
130	0
131	0
133	0
135	1
136	0
137	2
138	3
139	0
140	0
141	0
151	1
152	4
153	1
154	0
163	0
164	0
165	2
166	4
168	0
169	12
170	3
171	16
172	2
177	0
178	0
181	0
182	0
183	3
184	2
185	0
195	1
199	0
200	4
201	24
202	3
203	0
209	0
213	4
214	2
226	0
227	0
231	0
243	0
244	0
245	0
263	0
