Mass Spectrum: 1,2,3,4-Hexadecanetetrol, [2R-(2R*,3S*,4S*)]-
Formula: C16H34O4
CAS: 136953-06-5
Molecular weight: 290
m/z	intensity
27	28
28	13
29	73
30	2
31	22
37	0
38	0
39	13
41	138
42	19
43	160
44	47
45	27
46	6
47	3
49	0
50	0
51	0
52	0
53	9
54	13
55	182
56	264
57	119
58	11
59	2
60	33
61	69
62	7
63	0
65	2
66	7
67	66
68	28
69	183
70	21
71	45
72	4
73	152
74	999
75	98
76	8
77	4
78	1
79	12
80	5
81	78
82	55
83	139
84	14
85	25
86	3
87	6
88	4
89	2
90	1
91	14
92	11
93	9
94	4
95	77
96	41
97	108
98	13
99	7
100	2
101	2
102	0
103	30
104	2
105	3
106	0
107	4
108	2
109	41
110	16
111	55
112	8
113	3
114	0
115	1
116	3
117	2
118	1
119	1
120	0
121	6
122	2
123	22
124	13
125	19
126	4
127	1
128	0
129	1
130	0
131	0
132	0
133	1
134	0
135	4
136	1
137	12
138	9
139	4
140	1
141	1
142	0
143	0
144	0
145	0
147	0
148	0
149	1
150	0
151	3
152	4
153	1
154	0
155	1
156	0
157	0
158	0
159	0
161	0
163	0
164	0
165	0
166	3
167	1
168	0
169	0
170	0
171	0
177	0
178	0
179	1
180	7
181	2
182	0
183	0
184	0
185	0
191	0
192	0
193	2
194	6
195	1
196	0
197	19
198	5
199	19
200	2
203	0
205	1
206	0
207	0
208	0
209	0
210	0
211	5
212	3
213	0
215	0
217	0
223	1
224	0
225	0
227	3
228	5
229	26
230	4
231	0
236	0
237	0
241	8
242	3
243	0
253	0
254	0
255	1
256	0
259	0
271	0
272	0
273	1
291	0
292	0
