Mass Spectrum: 1,3-Bis(trimethylsilyl)pent-1-ene
Formula: C11H26Si2
CAS: 136935-43-8
Molecular weight: 214
m/z	intensity
40	50
41	30
42	10
43	40
44	50
45	180
46	30
47	10
55	24
56	12
57	24
58	18
59	79
60	12
61	4
69	18
70	9
71	12
72	42
73	999
74	88
75	45
83	18
84	3
85	30
95	12
96	3
97	12
98	97
99	18
100	6
109	12
111	76
112	12
113	3
124	6
125	6
126	30
127	9
128	5
140	39
141	6
142	3
199	2
214	13
215	3
216	1
