Mass Spectrum: 1,3,5-Tris(trimethylsilyl)hex-1-ene
Formula: C15H36Si3
CAS: 136935-45-0
Molecular weight: 300
m/z	intensity
48	3
56	6
57	6
58	15
59	76
60	6
72	31
73	999
74	85
75	36
83	9
85	30
96	30
97	36
98	218
99	73
100	18
112	12
123	30
124	12
125	6
138	18
139	12
169	12
171	12
186	73
187	18
188	6
226	15
227	6
285	1
300	1
