Mass Spectrum: Trivinylphosphine oxide
Formula: C6H9OP
CAS: 13699-67-7
Molecular weight: 128
m/z	intensity
47	999
48	249
49	358
54	218
55	138
57	292
71	89
74	78
75	216
83	219
84	88
85	180
100	79
101	89
103	69
128	129
