Mass Spectrum: 1,2-Bis(dimethyl-n-pentylsilyl)ethane
Formula: C16H38Si2
CAS: 136935-55-2
Molecular weight: 286
m/z	intensity
40	30
41	148
42	54
43	188
44	94
51	20
52	7
53	27
54	13
55	128
56	40
57	107
58	94
59	999
60	87
61	40
69	80
70	27
71	121
72	68
73	490
74	47
75	54
83	40
84	27
85	134
86	94
87	107
88	20
95	34
96	20
97	40
98	34
99	54
100	20
101	34
102	13
103	26
113	47
114	50
115	47
116	20
117	80
118	20
127	28
128	13
129	651
130	87
131	74
141	87
142	67
143	40
144	13
145	369
146	54
147	40
149	80
157	20
169	13
177	27
187	54
188	13
201	40
202	7
215	74
216	13
271	4
286	71
287	20
288	7
289	1
