Mass Spectrum: 1-Trimethylsilyl-3-(dimethyl-n-pentylsilyl)but-1-ene
Formula: C14H32Si2
CAS: 136935-52-9
Molecular weight: 256
m/z	intensity
40	134
41	67
42	40
43	141
44	125
45	101
55	54
56	40
57	41
58	43
59	577
60	41
61	25
62	20
69	41
70	20
71	40
72	26
73	999
75	94
76	45
83	40
84	47
85	60
87	81
97	154
98	54
99	35
101	40
112	114
113	40
129	376
130	54
131	28
143	17
158	22
159	7
171	15
172	3
186	22
187	7
256	9
257	2
258	1
