Mass Spectrum: 1,2,3,4-Tridecanetetrol, [2R-(2R*,3S*,4S*)]-
Formula: C13H28O4
CAS: 136953-03-2
Molecular weight: 248
m/z	intensity
27	38
28	48
29	80
30	2
31	30
39	14
40	12
41	118
42	17
43	122
44	54
45	28
46	7
47	3
49	0
51	0
52	0
53	6
54	9
55	171
56	270
57	88
58	8
59	2
60	26
61	58
62	7
63	0
65	1
66	5
67	35
68	18
69	110
70	14
71	25
72	3
73	110
74	999
75	55
76	4
77	2
78	0
79	5
80	2
81	40
82	30
83	117
84	11
85	9
86	1
87	3
88	3
89	1
90	0
91	5
92	4
93	3
94	1
95	53
96	22
97	47
98	5
99	3
100	1
101	2
103	18
104	1
105	0
107	2
108	0
109	18
110	7
111	5
112	1
113	1
114	0
115	0
116	1
117	0
118	0
119	0
121	1
122	0
123	3
124	3
125	1
126	0
127	0
130	0
133	0
135	0
137	1
138	3
139	1
140	0
141	0
143	0
147	0
149	0
150	0
151	3
152	3
153	0
154	0
155	11
156	3
157	17
158	2
163	0
164	0
167	0
168	0
169	2
170	3
171	0
181	0
182	0
183	0
186	3
187	29
188	3
189	0
199	4
200	1
201	0
207	0
212	0
213	0
217	0
229	0
231	1
249	0
