Mass Spectrum: 1,3-Bis(dimethyl-n-pentylsilyl)propene
Formula: C17H38Si2
CAS: 136935-56-3
Molecular weight: 298
m/z	intensity
40	13
41	80
42	40
43	100
44	33
45	53
55	40
56	13
57	26
58	60
59	999
60	80
61	40
67	7
69	40
70	33
71	33
72	40
73	443
74	40
75	20
83	40
84	47
85	77
86	26
87	94
88	13
95	7
97	26
98	53
99	53
100	26
101	26
111	26
112	20
113	33
114	6
115	26
117	26
125	20
126	26
127	26
128	33
129	597
130	80
131	47
141	20
142	6
143	33
154	33
155	26
156	13
157	67
158	26
159	24
185	13
213	13
227	13
228	127
229	53
230	20
283	3
298	1
