Mass Spectrum: Dipropargyl sulfide
Formula: C6H6S
CAS: 13702-09-5
Molecular weight: 110
m/z	intensity
25	6
26	34
27	125
29	3
33	4
36	14
37	197
38	351
39	833
40	73
43	1
44	31
45	999
46	55
47	48
48	1
49	2
50	38
51	62
52	24
53	18
57	8
58	256
59	21
60	14
61	5
62	8
63	32
64	55
65	88
66	421
67	17
68	36
69	428
70	263
71	371
72	18
73	15
74	5
75	2
76	4
77	134
78	21
82	24
83	9
84	188
85	5
86	2
95	22
108	4
109	300
110	219
111	25
112	3
