Mass Spectrum: (2,4,6-Trimethylcyclohexyl) methanol
Formula: C10H20O
CAS: 13702-56-2
Molecular weight: 156
m/z	intensity
27	122
28	90
29	146
31	149
39	177
41	514
42	62
43	140
51	25
53	101
55	522
56	44
57	156
65	37
67	235
68	194
69	999
70	80
71	40
77	41
79	55
81	248
82	257
83	309
84	30
91	28
93	26
94	18
95	135
96	286
97	33
107	16
109	227
110	55
121	30
123	489
124	53
125	76
138	59
