Mass Spectrum: 2H-Pyran-2-propanoic acid, tetrahydro-3-hydroxy-, methyl ester, (2R-trans)-
Formula: C9H16O4
CAS: 137022-50-5
Molecular weight: 188
m/z	intensity
25	8
27	84
29	107
30	14
31	122
38	5
39	59
40	13
41	122
42	69
43	178
44	124
45	29
53	16
54	9
55	87
56	27
57	81
58	22
59	25
60	7
67	13
68	12
69	19
70	69
71	999
72	78
73	12
74	48
79	6
81	7
82	8
83	41
84	25
85	171
86	16
87	16
88	9
94	14
95	7
96	13
97	25
100	23
101	63
110	48
111	110
112	21
113	10
114	68
115	30
117	45
119	6
124	9
128	108
129	14
137	10
138	88
139	51
140	5
144	9
151	9
152	55
153	6
156	148
157	58
158	6
170	120
171	12
