Mass Spectrum: Cholestan-5-en-3-ol acetate
Formula: C29H48O2
CAS: 137036-77-2
Molecular weight: 428
m/z	intensity
41	234
43	999
44	22
45	5
47	11
48	2
49	5
51	2
53	37
55	438
57	228
60	2
65	14
67	131
68	28
69	133
70	21
71	89
73	3
77	34
79	95
81	231
82	12
83	129
84	43
85	15
86	32
88	2
91	82
93	161
95	283
96	9
97	78
98	2
102	2
103	5
105	114
106	62
107	141
108	71
109	89
110	19
111	25
113	2
115	2
117	19
118	5
119	45
120	23
121	80
122	62
123	68
124	13
125	16
127	8
129	6
131	25
133	61
134	28
135	49
136	8
137	21
139	2
143	9
145	33
146	4
147	68
148	20
149	25
151	11
152	2
157	10
159	25
160	10
161	106
162	38
163	34
164	8
165	5
173	17
174	13
175	28
176	40
177	36
178	2
185	2
187	12
188	2
189	17
190	13
191	2
193	9
199	2
201	13
202	13
203	143
204	27
205	2
206	14
213	13
215	15
217	15
229	5
231	26
232	17
233	9
245	5
246	16
247	11
255	13
259	2
273	16
274	12
287	12
301	30
302	6
314	32
315	58
316	188
317	45
328	17
329	4
353	5
357	14
368	32
369	11
371	20
385	16
386	426
387	132
388	21
428	16
