Mass Spectrum: N-Benzylidene-p-toluenesulfonamide
Formula: C14H13NO2S
CAS: 13707-41-0
Molecular weight: 259
m/z	intensity
26	2
27	8
28	3
37	2
38	6
39	65
40	5
41	20
42	1
45	4
48	3
49	2
50	42
51	128
52	16
53	5
61	2
62	11
63	48
64	17
65	227
66	13
67	4
69	2
70	1
71	2
73	1
74	10
75	13
76	29
77	184
78	22
79	5
80	1
82	1
85	1
86	2
87	3
88	1
89	60
90	28
91	999
92	117
93	6
94	1
95	1
96	9
99	1
102	2
103	24
104	113
105	11
106	1
107	5
108	3
109	2
110	1
111	3
115	2
116	3
117	1
118	3
119	1
121	3
122	2
123	1
124	2
125	1
126	1
127	1
128	2
139	17
140	2
141	2
151	2
152	11
153	3
154	3
155	539
156	74
157	29
158	3
164	1
165	8
166	2
167	3
168	5
177	1
178	1
179	1
180	4
181	1
191	1
192	2
193	3
194	22
195	56
196	8
197	1
258	1
259	102
260	17
261	6
262	1
