Mass Spectrum: S-Triazine, 2-chloro-4-methylthio-6-phenyl-
Formula: C10H8ClN3S
CAS: 13705-07-2
Molecular weight: 237
m/z	intensity
36	21
38	12
39	28
40	38
44	19
45	36
46	44
47	37
50	50
51	98
52	25
53	19
58	20
62	23
63	12
72	24
73	133
74	31
75	58
76	125
77	166
78	13
87	94
88	17
89	36
99	40
102	24
103	254
104	999
105	65
116	13
129	115
130	58
134	25
156	93
157	12
190	25
191	58
192	16
193	23
202	22
204	17
225	21
236	60
237	798
238	123
239	286
240	32
