Mass Spectrum: 6-Hydroxylittorine
Formula: C17H23NO4
CAS: 137198-36-8
Molecular weight: 305
m/z	intensity
18	2
27	5
28	10
29	11
30	5
31	1
32	2
39	17
40	2
41	33
42	128
43	28
44	29
50	4
51	15
52	4
53	15
54	9
55	28
56	20
57	34
58	23
60	1
62	2
63	7
64	3
65	54
66	5
68	21
69	6
70	28
71	4
72	10
73	20
74	3
77	56
78	14
79	22
80	9
81	35
82	56
84	21
85	4
86	6
88	1
89	4
91	144
92	17
93	6
94	999
95	767
96	146
97	15
98	31
99	11
101	1
102	5
103	66
104	8
106	3
108	16
110	40
111	7
112	27
113	9
114	3
117	4
120	14
121	24
122	40
128	3
131	2
136	2
139	2
140	383
141	37
145	3
148	2
150	2
155	4
156	11
157	3
159	8
169	4
170	3
172	1
173	1
178	4
179	1
181	1
185	4
196	2
206	1
213	2
214	1
246	1
261	231
262	39
263	6
264	1
276	4
305	46
306	8
