Mass Spectrum: Benzenamine, N-(2-phenylethenylsulfonyl)-
Formula: C14H13NO2S
CAS: 13719-47-6
Molecular weight: 259
m/z	intensity
33	36
34	6
36	2
37	9
39	379
40	66
41	15
42	5
44	22
45	28
47	1
48	2
50	40
51	274
52	41
53	14
55	5
57	3
61	1
62	17
63	98
65	502
66	47
67	6
70	2
74	14
75	22
77	597
78	30
79	9
84	2
87	2
89	15
91	71
92	343
93	267
94	12
103	999
104	73
105	3
107	5
115	1
116	10
117	34
118	207
119	11
123	3
127	1
128	1
129	1
133	4
134	6
136	3
150	3
151	2
152	8
153	2
162	2
165	7
167	109
168	15
169	5
175	5
178	3
180	8
190	1
191	1
194	521
195	325
196	36
198	1
204	1
259	152
260	24
261	9
