Mass Spectrum: 1,2,4,5-Tetrazine, 3,6-dipropyl-
Formula: C8H14N4
CAS: 13717-92-5
Molecular weight: 166
m/z	intensity
14	67
17	51
26	56
27	351
28	292
29	684
38	26
39	126
40	72
41	999
42	106
43	807
44	27
52	30
54	104
58	39
69	53
70	886
71	50
166	37
