Mass Spectrum: 1,2,4,5-Tetrazine, 3,6-diethyl-
Formula: C6H10N4
CAS: 13717-91-4
Molecular weight: 138
m/z	intensity
15	91
26	113
27	204
28	999
29	236
39	35
40	46
41	32
42	63
43	32
51	29
52	40
53	40
54	388
55	179
56	564
57	29
138	72
