Mass Spectrum: 3,7-Diamino-6-methyl-7H-S-triazino[5,1-c]-S-triazole
Formula: C4H7N7
CAS: 13728-23-9
Molecular weight: 153
m/z	intensity
41	102
42	547
43	999
44	18
45	4
49	4
50	1
51	8
52	13
53	76
54	48
55	36
56	78
57	99
58	4
63	1
64	3
65	3
66	23
67	311
68	421
69	18
70	6
77	2
80	7
81	14
82	20
83	28
84	401
85	14
86	1
98	170
99	17
109	7
110	5
112	2
113	5
114	0
124	2
125	1
137	9
138	7
139	0
152	13
153	407
154	34
155	5
