Mass Spectrum: N-.alpha.-t-Butoxycarbonyl-L-glutamic-.gamma.-t-butyl ester
Formula: C14H25NO6
CAS: 13726-84-6
Molecular weight: 303
m/z	intensity
41	286
42	29
43	54
44	21
45	20
47	4
48	3
49	3
51	1
53	5
54	12
55	45
56	134
57	999
58	59
59	152
60	9
69	4
72	4
73	15
74	13
75	3
77	1
78	1
81	1
82	18
84	335
85	41
86	19
87	10
88	24
91	1
100	18
101	50
102	460
103	25
104	1
106	12
107	20
110	10
111	12
115	5
119	42
120	1
127	1
128	18
129	78
130	269
131	17
132	4
146	361
147	147
148	40
149	6
155	74
156	17
157	1
158	11
164	6
173	239
174	250
175	17
176	3
181	1
188	2
191	400
192	59
193	8
202	301
203	45
204	7
225	2
230	18
232	11
247	13
248	9
258	31
259	6
303	4
304	1
