Mass Spectrum: 2-Quinolinecarbonitrile, 1-benzoyl-1,2-dihydro-
Formula: C17H12N2O
CAS: 13721-17-0
Molecular weight: 260
m/z	intensity
50	40
51	110
76	30
77	400
78	30
102	20
105	999
106	90
128	40
129	60
155	40
260	120
261	30
