Mass Spectrum: trans-1-Chloromethyl-2-methoxymethylcyclohexane
Formula: C9H17ClO
CAS: 137303-15-2
Molecular weight: 176
m/z	intensity
35	19
36	72
37	29
38	39
39	256
40	53
41	409
42	48
43	66
44	26
45	999
46	38
47	45
49	20
50	26
51	41
52	28
53	149
54	176
55	269
56	23
58	51
59	22
62	11
63	22
65	57
66	52
67	432
68	157
69	69
71	168
72	17
75	36
77	74
78	30
79	155
80	72
81	515
82	183
83	21
84	13
85	11
88	48
89	38
90	20
91	58
93	91
94	80
95	627
96	129
97	19
102	19
104	11
105	12
107	17
108	271
109	196
110	18
113	71
116	38
118	13
125	18
130	28
132	18
133	78
135	25
140	61
144	79
145	15
146	19
