Mass Spectrum: Propyl hydrodisulfide
Formula: C3H8S2
CAS: 137363-84-9
Molecular weight: 108
m/z	intensity
26	6
27	116
28	7
29	14
31	1
32	9
33	12
34	4
35	2
36	1
37	8
38	16
39	125
40	15
41	497
42	46
43	692
44	28
45	118
46	56
47	58
48	5
49	3
55	8
56	10
57	10
58	26
59	35
60	6
61	6
62	2
64	85
65	69
66	253
67	13
68	26
69	17
70	4
71	12
72	2
73	22
74	13
75	5
76	21
78	8
79	109
80	4
81	8
83	2
93	2
108	999
109	45
110	93
111	3
112	2
