Mass Spectrum: 2-Propenoic acid, 3-(methylthio)-, methyl ester
Formula: C5H8O2S
CAS: 13733-57-8
Molecular weight: 132
m/z	intensity
26	29
27	25
28	63
29	22
30	9
31	5
33	3
34	7
35	5
39	45
40	51
41	15
42	6
43	7
44	35
45	408
46	94
47	137
48	24
49	7
53	63
54	19
55	57
56	10
57	92
58	299
59	131
60	25
61	23
63	5
69	12
70	4
71	40
72	168
73	486
74	58
75	36
76	12
83	9
84	4
85	205
86	28
87	53
88	4
89	24
90	6
91	4
99	36
100	441
101	999
102	90
103	65
104	6
115	21
116	9
117	713
118	36
119	38
120	3
132	895
133	68
134	48
135	4
