Mass Spectrum: 2-Oxabicyclo[3.2.1]nonan-7-one, 1,5-dimethyl-
Formula: C9H14O2
CAS: 13747-98-3
Molecular weight: 154
m/z	intensity
26	11
27	190
29	141
30	2
31	2
37	2
38	8
39	229
40	46
41	281
42	23
43	999
44	23
45	4
46	2
47	0
48	0
50	11
51	30
52	17
53	92
54	25
55	219
56	35
57	5
58	66
59	4
61	0
62	2
63	9
64	2
65	28
66	13
67	288
68	159
69	82
70	9
71	31
72	2
74	1
77	42
78	10
79	79
80	15
81	117
82	162
83	71
84	20
85	10
86	3
89	0
90	0
91	26
92	6
93	68
94	57
95	963
96	130
97	607
98	59
99	5
105	2
107	6
108	24
109	31
110	371
111	307
112	295
113	17
114	1
118	1
121	3
122	1
125	4
126	4
136	7
137	1
139	42
140	3
154	25
155	4
