Mass Spectrum: 1,3,3-Trimethylcyclohex-1-ene-4-carboxylic acid
Formula: C10H16O2
CAS: 13746-43-5
Molecular weight: 168
m/z	intensity
26	1
27	26
28	12
29	22
31	2
38	3
39	90
40	15
41	142
42	12
43	120
44	8
45	25
46	3
47	2
49	1
50	7
51	31
52	16
53	82
55	101
56	20
57	28
58	4
59	9
60	4
61	5
62	4
63	16
64	4
65	70
66	16
67	148
68	82
69	73
70	12
73	11
75	1
76	2
77	121
78	30
79	155
80	25
81	321
83	56
85	12
86	3
87	1
89	8
90	5
91	262
92	43
93	120
94	10
95	34
96	278
97	45
98	6
99	4
100	6
101	5
102	2
103	8
104	3
105	64
106	17
107	999
108	147
109	57
110	9
111	31
112	10
113	10
114	4
117	14
118	4
122	147
123	284
124	33
125	100
126	15
129	1
131	2
132	1
133	4
139	13
140	2
141	1
148	1
150	30
151	4
152	5
153	350
154	35
155	2
167	1
168	182
169	22
170	2
