Mass Spectrum: 1-(4-Chlorobenzoyl)-4-phenyl-2-pyrrolidinone
Formula: C17H14ClNO2
CAS: 137427-84-0
Molecular weight: 299
m/z	intensity
33	3
36	12
38	33
39	42
41	9
42	6
43	8
50	101
51	69
52	15
53	7
54	5
56	59
61	8
63	31
65	29
67	1
68	1
69	2
70	3
71	1
75	229
76	56
77	80
78	63
80	1
82	1
85	17
86	4
87	5
89	15
91	63
98	1
99	1
100	4
104	999
108	2
111	352
113	120
115	22
118	183
120	1
125	1
126	1
127	4
128	6
129	2
131	21
132	20
133	2
139	762
141	293
143	3
144	6
145	2
146	1
149	1
150	2
151	2
152	1
153	1
155	8
156	4
157	3
160	90
165	1
167	12
168	9
169	4
170	3
178	1
180	4
182	28
184	9
195	5
197	1
221	1
257	9
259	3
264	1
269	2
271	38
273	15
274	1
299	173
301	65
302	4
