Mass Spectrum: Thiirane, octyl-
Formula: C10H20S
CAS: 13748-26-0
Molecular weight: 172
m/z	intensity
15	17
26	24
27	411
28	62
29	515
30	15
34	5
35	8
37	6
38	13
39	380
40	55
41	940
42	242
43	659
44	29
45	340
46	78
47	222
48	8
49	12
50	12
51	28
52	15
53	155
54	379
55	999
56	480
57	423
58	48
59	156
60	269
61	96
62	17
63	11
65	34
66	57
67	544
68	343
69	791
70	326
71	85
72	17
73	170
74	952
75	128
76	57
77	30
78	10
79	47
80	24
81	464
82	421
83	617
84	109
85	42
86	13
87	522
88	67
89	45
91	8
93	12
94	13
95	242
96	502
97	347
98	146
99	16
101	235
102	31
103	20
107	6
108	6
109	107
110	115
111	39
112	20
113	5
114	5
115	143
116	20
117	21
121	5
123	16
124	5
125	27
129	61
130	10
131	155
132	14
133	8
136	6
138	189
139	46
140	31
141	9
143	60
144	7
157	5
170	7
171	14
172	380
173	49
174	19
