Mass Spectrum: (3-Nitrophenyl)phenylmethanol
Formula: C13H11NO3
CAS: 137499-70-8
Molecular weight: 229
m/z	intensity
30	23
38	13
39	74
43	14
50	109
51	277
52	63
53	24
59	11
62	19
63	66
64	24
65	38
66	11
70	16
74	32
75	55
76	170
77	802
78	431
79	947
80	61
82	34
83	20
86	10
87	16
89	25
91	24
92	23
94	22
101	13
102	15
104	133
105	999
106	124
107	574
108	44
113	10
115	45
121	18
122	10
124	12
126	14
127	22
128	20
134	260
135	24
139	33
150	383
151	242
152	153
153	73
154	43
155	13
163	35
164	46
165	201
166	45
167	10
181	30
182	69
183	21
184	17
195	19
211	16
212	50
213	14
227	10
228	159
229	670
230	101
231	12
