Mass Spectrum: Propane, 3-bromo-1,1,1-trichloro-
Formula: C3H4BrCl3
CAS: 13749-37-6
Molecular weight: 224
m/z	intensity
25	5
26	26
27	91
28	37
32	7
35	7
36	12
37	42
38	48
39	96
40	4
47	29
48	8
49	90
50	4
51	27
55	5
56	3
59	2
60	10
61	48
62	5
63	17
71	3
72	14
73	55
74	9
75	64
76	5
77	17
79	9
80	4
81	9
82	25
83	127
84	15
85	83
86	3
87	14
91	4
92	4
93	107
94	9
95	116
96	12
97	10
98	5
99	2
105	4
106	4
107	383
108	12
109	999
110	33
111	416
112	15
113	68
114	3
117	120
118	2
119	116
121	37
123	4
127	114
128	2
129	156
130	3
131	40
132	2
133	3
145	3
147	3
149	2
151	2
153	24
155	29
157	7
161	1
163	2
164	5
166	6
168	3
187	2
188	28
189	517
190	62
191	825
192	49
193	378
194	16
195	52
196	3
198	1
199	11
200	3
201	15
202	4
203	10
205	3
224	22
226	43
227	2
228	28
230	8
