Mass Spectrum: 2-(5-Aminohexyl)furan
Formula: C10H17NO
CAS: 13748-11-3
Molecular weight: 167
m/z	intensity
39	93
41	109
42	70
44	999
51	33
53	111
55	35
56	29
57	38
58	6
62	3
63	4
65	26
66	20
67	22
68	9
70	70
71	5
72	2
73	2
77	19
79	42
81	151
82	25
83	8
84	6
91	10
94	183
95	20
96	7
99	4
105	4
107	61
108	15
109	5
110	6
117	5
121	11
122	4
124	4
135	39
136	7
139	16
150	24
151	3
152	4
167	60
168	8
