Mass Spectrum: 6,7-Dodecanedione
Formula: C12H22O2
CAS: 13757-90-9
Molecular weight: 198
m/z	intensity
27	120
29	200
39	60
41	200
42	80
43	999
44	60
55	120
57	40
71	630
72	70
99	860
100	80
141	30
155	20
169	20
198	50
