Mass Spectrum: 1H-Imidazole, 2-(diethoxymethyl)-
Formula: C8H14N2O2
CAS: 13750-84-0
Molecular weight: 170
m/z	intensity
40	60
41	130
42	140
47	100
68	360
69	190
95	70
96	100
97	999
98	70
124	90
125	450
126	210
170	20
