Mass Spectrum: Carbamate, N-phenyl-, (3-methyl-2-oxiranyl) methyl ester
Formula: C11H13NO3
CAS: 137531-94-3
Molecular weight: 207
m/z	intensity
26	16
27	138
28	19
29	65
30	4
31	49
37	15
38	33
39	96
40	18
41	238
42	22
43	437
44	70
45	725
46	16
49	2
50	27
51	75
52	23
53	10
54	5
55	27
56	7
57	29
58	10
59	4
60	12
61	7
62	12
63	47
64	106
65	130
66	49
67	7
68	1
69	8
70	13
71	78
72	4
73	15
74	9
75	6
76	10
77	195
78	18
79	7
80	2
81	2
82	2
83	3
84	1
85	1
87	5
88	7
89	3
90	11
91	188
92	129
93	281
94	24
95	3
96	2
97	2
98	2
99	2
100	1
103	4
104	9
105	4
106	28
107	5
108	1
109	1
110	1
111	2
113	1
115	1
117	4
118	23
119	999
120	330
121	30
122	3
123	1
127	1
128	1
129	2
130	1
132	6
133	2
134	1
135	1
136	5
137	49
138	7
143	2
148	1
149	42
150	4
151	1
161	1
162	13
163	6
164	1
175	1
176	3
177	1
192	1
207	397
208	54
209	6
