Mass Spectrum: 1H-Imidazole, 2-(diethoxymethyl)-1-methyl-
Formula: C9H16N2O2
CAS: 13750-82-8
Molecular weight: 184
m/z	intensity
41	60
42	160
47	60
56	60
81	120
82	150
83	70
110	290
111	999
112	60
139	390
140	190
184	30
