Mass Spectrum: Phosphinothioic acid, (4-morpholinyl)phenyl-, O-methyl ester
Formula: C11H16NO2PS
CAS: 137552-60-4
Molecular weight: 257
m/z	intensity
39	9
42	19
43	38
47	57
50	28
51	95
54	19
55	23
56	133
57	28
58	47
63	105
65	29
77	133
78	28
84	9
85	999
86	66
91	29
107	29
109	133
110	19
124	52
125	24
139	324
140	47
141	19
148	19
153	9
155	9
157	19
171	438
172	114
173	38
185	9
200	29
210	19
214	86
224	57
239	9
257	209
258	43
259	19
