Mass Spectrum: 3,5,7-Triphenyl-1-azaadamantane-4,6-dione
Formula: C27H23NO2
CAS: 137628-75-2
Molecular weight: 393
m/z	intensity
39	2
41	4
42	147
43	46
44	14
53	1
56	2
57	56
58	4
65	3
69	1
77	55
78	12
79	2
89	28
90	9
91	284
92	22
101	1
102	20
103	999
104	114
105	57
106	7
115	75
116	24
117	97
118	49
119	6
120	3
121	1
127	14
128	40
129	50
130	59
131	108
132	20
133	3
141	18
142	8
143	19
144	28
145	40
146	27
147	3
152	2
153	1
154	2
155	2
156	16
157	7
158	13
159	11
160	7
161	7
165	14
166	4
167	4
168	6
169	1
170	4
171	4
172	4
173	7
174	2
176	4
177	1
178	28
179	12
180	7
183	13
187	4
188	3
189	9
190	13
191	56
192	57
193	11
194	3
196	4
198	1
199	6
202	20
203	33
204	35
205	80
206	52
207	9
208	1
215	20
216	9
217	31
218	33
219	66
220	77
221	14
222	2
228	3
229	5
230	6
231	12
232	40
233	49
234	102
235	19
236	4
243	1
244	7
245	19
246	63
247	55
248	129
249	29
250	3
257	1
258	2
259	2
260	23
261	11
262	10
263	2
272	3
273	4
274	7
275	5
276	6
277	2
278	2
279	3
280	2
288	9
289	6
290	3
291	2
292	1
293	2
294	24
295	8
302	2
303	1
304	1
305	5
306	3
307	2
308	4
309	3
310	1
316	1
317	1
320	0
321	6
322	24
323	13
324	2
333	1
334	1
335	2
336	15
337	13
338	3
346	0
348	2
349	7
350	113
351	34
352	6
364	32
365	36
366	11
392	20
393	489
394	149
395	23
396	2
