Mass Spectrum: (2,2-Dichlorocyclopropoxy)benzene
Formula: C9H8Cl2O
CAS: 13764-07-3
Molecular weight: 202
m/z	intensity
35	7
36	22
37	54
38	135
39	450
40	37
41	3
43	4
44	14
45	3
47	19
48	3
49	54
50	192
51	658
52	65
53	13
55	36
60	10
61	152
62	44
63	122
64	36
65	211
66	83
69	3
72	5
73	74
74	47
75	56
76	62
77	938
78	143
79	8
82	11
83	96
84	9
85	58
87	9
89	9
90	4
91	38
92	8
93	18
94	117
95	7
96	3
97	14
98	2
99	8
101	9
102	26
103	346
104	37
105	18
109	999
110	54
111	643
112	30
113	108
114	4
119	13
125	5
131	195
132	23
138	4
139	57
140	3
141	16
165	14
166	32
167	200
168	27
169	65
170	2
202	35
204	22
