Mass Spectrum: 2H-6,7a-(Epoxymethano)bisoxireno[4,5:8,9]cyclodeca[1,2-b]furan-10-one, 2-(acetyloxy)-1,1a,6,6a,8,9-hexahydro-1a,5-dimethyl-
Formula: C17H18O7
CAS: 13761-06-3
Molecular weight: 334
m/z	intensity
43	999
53	89
55	86
65	79
77	120
85	79
91	117
95	86
105	38
111	47
124	58
135	620
139	172
149	214
152	77
162	227
163	253
177	128
187	44
191	62
201	40
203	40
205	38
219	13
229	26
231	28
247	19
249	13
256	4
263	8
264	7
274	93
292	44
334	146
