Mass Spectrum: AM1220
Formula: C26H26N2O
CAS: 137642-54-7
Molecular weight: 382
m/z	intensity
41	8
42	32
44	7
55	11
56	4
57	4
67	3
68	8
70	92
71	5
75	3
76	4
77	9
82	9
83	5
94	4
96	22
98	999
99	76
100	4
101	9
102	14
103	4
110	4
111	3
115	6
126	13
127	85
128	27
129	24
130	5
141	3
144	3
155	45
156	7
213	7
214	3
215	3
225	4
226	8
227	4
228	4
240	6
241	8
242	3
253	6
254	22
255	10
256	4
266	4
267	3
269	4
270	4
282	5
283	5
284	19
285	6
