Mass Spectrum: O-Ethyl phosphonodiamide, N,N'-di(isopropyl)-
Formula: C8H21N2O2P
CAS: 137796-04-4
Molecular weight: 208
m/z	intensity
46	64
56	43
58	999
59	43
60	37
64	54
65	39
79	115
80	331
81	31
97	36
104	17
105	29
106	31
108	57
109	4
120	18
121	31
122	261
123	133
125	18
136	21
137	17
147	23
149	30
150	25
151	80
152	8
163	22
165	54
193	372
194	31
207	3
208	21
