Mass Spectrum: 5-Nitro-2-furaldehyde p-tosylhydrazone
Formula: C12H11N3O5S
CAS: 13777-58-7
Molecular weight: 309
m/z	intensity
37	114
38	133
39	267
40	31
41	76
42	9
43	14
44	24
45	54
46	18
48	58
50	579
51	999
53	30
54	8
55	10
56	3
57	10
58	7
59	4
61	37
62	63
63	138
65	490
66	29
67	32
68	12
69	35
70	9
71	11
72	1
73	6
74	14
75	11
77	139
79	594
80	60
81	8
82	7
83	6
84	5
85	9
86	10
87	9
89	101
91	589
92	464
93	35
95	11
96	9
97	4
98	1
105	2
107	112
108	73
109	9
111	25
112	3
113	2
115	1
119	1
121	14
122	7
123	10
124	8
125	15
126	6
127	1
128	1
137	9
139	107
140	16
141	8
142	2
153	164
154	11
156	209
157	14
158	8
170	1
171	2
309	2
