Mass Spectrum: Cyclooctene, 5,6-episulfide
Formula: C8H12S
CAS: 13785-73-4
Molecular weight: 140
m/z	intensity
27	368
39	644
41	437
45	380
51	179
52	87
53	297
54	330
65	257
67	491
73	392
78	392
79	999
80	530
85	699
86	481
91	515
93	194
97	345
98	206
99	248
105	125
106	244
107	274
111	127
112	77
125	65
140	876
141	91
142	46
