Mass Spectrum: Ethanedioic acid, bis(1-methylpropyl) ester
Formula: C10H18O4
CAS: 13784-89-9
Molecular weight: 202
m/z	intensity
40	33
41	716
42	57
43	174
44	100
45	459
46	10
47	22
48	8
49	99
50	10
51	44
52	2
53	20
54	10
55	106
56	221
57	999
58	174
59	192
60	8
65	0
67	1
69	11
71	16
72	3
73	56
74	21
81	3
82	1
83	18
84	69
85	19
86	54
88	8
91	1
101	16
102	15
103	37
104	1
117	10
119	1
129	1
131	10
145	1
147	19
148	1
