Mass Spectrum: 2-(2-Chloroethoxy)ethyl bis(2-chloroethyl) phosphate
Formula: C8H16Cl3O5P
CAS: 137888-36-9
Molecular weight: 328
m/z	intensity
43	598
44	83
45	191
46	3
47	25
48	2
49	44
50	3
51	16
52	1
53	2
57	35
58	4
60	1
61	11
62	203
63	999
64	87
65	366
66	6
69	2
70	555
71	33
72	2
75	1
77	14
78	5
79	12
81	156
82	20
83	8
87	10
88	4
89	5
91	11
92	1
93	215
94	7
95	77
96	3
97	1
99	246
100	3
101	4
105	2
106	554
107	214
108	178
109	42
110	1
111	8
112	4
113	64
115	2
117	75
119	27
121	1
122	1
123	19
124	6
125	770
126	22
127	12
128	2
129	1
131	4
133	2
135	7
137	30
138	4
139	97
140	3
141	8
143	108
144	2
145	39
147	1
151	65
152	3
153	1
157	10
159	6
160	1
161	50
162	1
163	18
165	12
169	1
171	4
173	2
175	28
177	9
185	2
186	1
187	357
188	15
189	115
190	5
191	1
198	2
200	1
201	72
202	3
203	26
205	33
206	1
207	18
209	4
212	1
213	28
214	1
215	27
217	7
223	53
224	1
225	30
226	1
227	5
231	2
233	1
235	2
236	5
237	15
238	2
239	8
249	466
250	30
251	307
252	20
253	51
254	4
256	2
257	10
258	1
259	4
263	25
264	2
265	22
266	1
267	14
269	7
279	120
280	10
281	75
282	5
283	12
284	1
285	2
287	2
293	65
294	6
295	43
296	3
297	6
327	1
329	1
