Mass Spectrum: Benzoylecgonine isopropyl ester
Formula: C19H25NO4
CAS: 137819-55-7
Molecular weight: 331
m/z	intensity
15	3
26	1
27	22
28	10
29	8
30	9
31	1
32	8
37	1
38	2
39	26
40	6
41	78
42	196
43	84
44	34
45	5
50	15
51	69
52	8
53	23
54	20
55	68
56	31
57	52
58	17
59	2
60	2
62	1
63	2
64	1
65	18
66	8
67	52
68	51
69	14
70	23
71	4
72	1
73	1
74	3
76	15
77	299
78	32
79	24
80	25
81	132
82	999
83	490
84	44
85	3
86	11
87	5
88	1
89	1
90	1
91	45
92	9
93	35
94	421
95	56
96	243
97	151
98	13
99	2
100	5
101	1
103	1
105	364
106	33
107	17
108	43
109	9
110	22
111	6
112	3
113	1
114	1
115	1
117	3
118	2
119	26
120	16
121	9
122	100
123	29
124	45
125	4
126	9
127	1
128	16
129	5
130	1
131	1
132	3
133	1
134	1
135	6
136	6
137	4
138	24
139	6
140	34
141	4
142	1
144	5
148	3
149	1
150	20
151	3
152	5
153	1
154	1
156	2
160	1
162	1
164	1
165	1
166	46
167	8
168	212
169	22
170	2
180	11
181	4
182	8
183	7
184	12
185	1
194	2
196	1
198	1
200	3
201	1
204	1
207	2
208	12
209	41
210	639
211	86
212	9
213	1
214	2
226	98
227	12
228	2
242	1
244	11
245	6
246	1
250	2
260	1
272	171
273	30
274	4
287	2
288	2
302	1
316	1
330	1
331	167
332	35
333	5
