Mass Spectrum: Phosphonothioic difluoride
Formula: F2HPS
CAS: 13780-63-7
Molecular weight: 102
m/z	intensity
50	60
63	80
69	530
82	60
83	30
101	130
102	999
104	70
