Mass Spectrum: 5-Trifluoroacyloxy-5-benzyl-1,2,3,4-tetraphenylcyclopentadien
Formula: C38H27F3O2
CAS: 137832-43-0
Molecular weight: 572
m/z	intensity
12	5
14	3
15	8
16	8
17	40
18	126
20	3
26	5
27	24
28	32
29	25
30	4
31	11
32	3
36	3
38	3
39	45
40	4
41	42
42	10
43	27
44	25
45	32
49	2
50	19
51	67
52	13
53	6
54	3
55	18
56	7
57	19
60	6
63	16
64	5
65	146
66	8
67	4
68	4
69	91
70	7
71	7
73	6
74	5
75	5
76	10
77	100
78	59
79	8
81	4
82	4
83	10
84	5
85	4
86	3
87	5
88	5
89	23
91	999
92	72
93	5
95	4
96	3
97	12
98	7
99	4
101	5
102	13
103	31
104	6
105	211
106	18
107	5
109	5
111	6
112	5
113	6
114	4
115	23
116	3
125	7
126	21
127	10
128	15
129	7
137	8
138	13
139	20
140	3
141	5
143	3
145	9
149	6
150	24
151	91
152	113
153	17
155	2
157	5
162	7
163	19
164	10
165	82
166	21
167	70
168	16
170	14
171	4
174	6
175	26
176	88
177	58
178	806
179	162
180	18
182	31
186	3
187	26
188	20
189	39
190	31
191	115
192	18
194	23
195	6
199	7
200	16
201	13
202	41
203	26
204	7
205	7
206	11
207	8
211	2
212	4
213	11
214	3
215	17
216	3
217	2
219	5
224	4
225	3
226	13
227	7
228	6
229	10
237	3
238	2
239	11
240	5
241	2
248	1
250	7
251	3
252	42
253	13
254	5
255	2
259	5
260	1
261	2
262	1
263	15
264	6
265	45
266	18
267	99
268	23
269	3
274	6
275	12
276	42
277	34
278	83
279	52
280	19
281	5
287	7
288	2
289	61
290	23
291	42
292	11
293	3
294	13
295	7
296	1
298	2
299	1
300	12
301	7
302	41
303	41
304	15
305	10
306	16
307	36
308	9
309	2
311	2
312	1
313	7
314	2
315	3
316	1
317	1
322	0
324	3
325	1
326	10
327	6
328	3
329	2
334	1
335	1
336	1
337	5
338	2
339	16
340	7
341	6
342	2
343	0
347	3
348	2
349	1
350	11
351	8
352	12
353	9
354	7
355	13
356	39
357	22
358	5
359	1
360	1
361	3
362	2
363	13
364	7
365	32
366	45
367	36
368	15
369	49
370	15
371	2
372	1
373	0
375	45
376	19
377	7
378	6
379	9
380	13
381	22
382	7
383	11
384	18
385	17
386	4
387	1
388	0
389	1
390	0
392	0
393	4
394	7
395	3
396	1
397	1
398	1
399	0
400	1
401	1
402	0
403	5
404	1
405	1
406	0
407	0
411	0
412	1
413	2
414	1
415	3
416	1
417	3
418	1
419	0
420	1
424	0
425	0
426	0
427	2
428	1
429	1
430	0
431	2
432	0
433	1
435	88
436	29
437	5
438	1
439	0
441	1
442	0
443	1
444	1
445	0
447	2
448	1
453	38
454	13
455	2
456	0
458	128
459	65
460	45
461	13
462	2
463	12
464	3
465	0
467	0
472	0
475	4
476	2
477	0
481	49
482	17
483	3
487	1
488	0
494	0
503	1
504	0
507	0
518	5
519	2
520	0
553	1
554	0
572	506
573	216
574	46
575	6
576	0
