Mass Spectrum: 3-Thiopheneacetamide
Formula: C6H7NOS
CAS: 13781-66-3
Molecular weight: 141
m/z	intensity
33	4
34	3
35	0
36	4
37	20
38	34
39	89
40	20
41	13
42	14
43	20
44	240
45	357
46	17
47	27
48	13
50	51
51	51
52	26
53	148
54	10
55	5
56	4
57	25
58	29
59	8
60	5
61	7
62	11
63	19
64	3
65	9
66	1
67	2
68	11
69	72
70	33
71	35
72	5
73	2
74	1
75	0
76	1
77	1
78	2
79	1
80	2
81	9
82	8
83	4
84	3
85	8
86	1
87	1
91	2
92	3
93	7
94	2
95	18
97	999
98	359
99	61
100	16
101	1
107	0
110	1
111	1
112	5
113	3
114	0
122	2
124	6
125	0
129	0
131	0
133	0
135	1
138	0
141	267
142	21
143	13
144	1
