Mass Spectrum: Ethyl 2-isocyanatopropionate
Formula: C6H9NO3
CAS: 13794-28-0
Molecular weight: 143
m/z	intensity
14	2
15	22
16	1
25	1
26	17
27	88
28	35
29	207
30	9
31	3
38	3
39	7
40	32
41	41
42	245
43	37
44	15
45	21
46	1
51	1
52	1
53	2
54	6
55	26
56	30
57	25
58	1
68	2
69	17
70	999
71	157
72	15
73	5
74	1
83	3
84	24
85	1
86	1
96	1
98	5
100	12
101	1
114	1
115	9
116	5
128	1
143	2
