Mass Spectrum: Bis(trifluoromethylselenyl)acetic acid, ethyl ester
Formula: C6H6F6O2Se2
CAS: 137946-97-5
Molecular weight: 384
m/z	intensity
35	4
36	13
37	2
38	8
39	46
40	9
41	269
42	144
43	234
44	21
45	193
46	9
47	10
48	13
49	21
50	38
51	22
52	1
53	4
54	1
55	10
56	3
57	11
58	6
59	10
60	4
61	5
62	1
63	5
64	1
65	9
66	5
67	12
68	1
69	825
70	13
71	8
73	54
74	5
75	5
76	27
77	24
78	41
79	12
80	72
81	17
82	18
83	6
84	6
85	5
86	4
87	20
88	7
89	200
90	191
91	520
92	82
93	999
94	119
95	200
96	26
97	9
98	1
99	5
100	1
101	3
102	1
103	4
104	3
105	11
106	6
107	16
108	14
109	22
110	14
111	34
112	4
113	7
115	6
116	5
117	38
118	45
119	104
120	37
121	192
122	28
123	52
124	8
125	10
126	10
127	42
128	52
129	86
130	38
131	170
132	11
133	38
134	4
135	5
136	8
137	5
138	14
139	9
140	4
141	6
142	4
143	7
144	5
145	10
146	8
147	24
148	4
149	44
150	7
151	15
152	2
153	6
154	6
155	15
156	19
157	43
158	25
159	147
160	111
161	283
162	24
163	556
164	26
165	100
166	17
167	9
168	14
169	22
170	26
171	27
172	25
173	33
174	14
175	53
176	39
177	118
178	6
179	235
180	6
181	53
182	2
183	9
184	8
185	21
186	14
187	87
188	72
189	123
190	68
191	239
192	24
193	54
194	7
195	12
196	4
197	24
198	7
199	12
200	4
201	5
202	3
203	12
204	12
205	34
206	7
207	66
208	16
209	25
210	3
211	20
212	3
213	9
214	7
215	5
216	10
217	2
218	10
219	2
220	3
221	3
223	3
225	4
226	2
227	5
229	11
230	2
231	85
232	73
233	205
234	31
235	421
236	69
237	105
238	62
239	63
240	88
241	52
242	86
243	47
244	32
245	15
246	10
247	2
248	2
249	7
251	5
253	2
254	2
255	6
256	3
257	8
258	1
259	7
261	2
263	1
265	10
266	5
267	15
268	10
269	15
270	9
271	12
272	3
273	5
274	1
281	54
282	16
283	12
284	3
285	3
287	2
288	1
289	1
291	1
292	1
297	1
301	1
302	1
303	6
304	6
305	29
306	18
307	73
308	39
309	126
310	13
311	148
312	8
313	53
314	4
315	22
316	1
317	11
319	3
331	1
332	1
333	2
334	3
335	5
336	2
337	9
338	2
339	8
341	4
355	6
374	2
376	6
377	9
378	38
379	24
380	87
381	50
382	158
383	20
384	178
385	12
386	56
387	3
388	5
