Mass Spectrum: Mannitol, 2,3:5,6-DI-O-isopropylidene-1-C-methylene-1-deoxy-
Formula: C13H22O5
CAS: 137945-76-7
Molecular weight: 258
m/z	intensity
26	5
27	68
28	6
29	62
30	2
31	88
33	0
36	0
37	0
38	0
39	72
40	10
41	305
42	52
43	999
44	20
45	27
47	9
49	0
50	1
51	1
52	2
53	28
54	10
55	100
56	26
57	102
58	23
59	554
60	18
61	51
62	1
63	0
64	0
65	3
66	2
67	11
68	21
69	491
70	67
71	55
72	69
73	101
74	5
75	2
76	0
77	3
78	0
79	24
80	6
81	27
82	13
83	158
84	10
85	37
86	11
87	9
88	0
89	0
91	1
93	0
94	1
95	29
96	3
97	50
98	447
99	55
100	21
101	606
102	34
103	5
105	3
106	0
107	93
108	9
109	5
110	0
111	10
112	7
113	31
114	15
115	59
116	5
117	3
118	0
119	0
121	1
122	0
123	1
124	5
125	85
126	16
127	232
128	25
129	10
130	5
131	33
132	2
133	0
136	0
137	0
138	0
139	1
140	5
141	5
142	17
143	13
144	1
145	1
149	1
152	0
154	0
155	1
156	0
157	21
158	2
159	1
160	0
165	0
166	0
167	32
168	2
169	20
170	3
171	0
172	0
173	1
180	0
181	0
182	5
183	1
184	2
185	182
186	17
187	3
188	0
196	0
199	2
200	12
201	2
202	0
206	0
207	0
209	0
211	0
212	0
215	0
220	0
225	0
227	2
228	1
229	0
238	0
240	4
241	0
243	391
244	48
245	6
246	0
247	0
258	2
