Mass Spectrum: d-Glutamic acid
Formula: C5H9NO4
CAS: 138-16-9
Molecular weight: 147
m/z	intensity
14	3
15	11
16	2
17	9
18	38
19	1
25	2
26	20
27	61
28	359
29	54
30	49
31	5
36	5
37	3
38	6
39	37
40	10
41	290
42	46
43	31
44	27
45	46
46	24
47	1
51	3
52	8
53	5
54	31
55	39
56	271
57	22
58	2
59	2
60	6
61	1
66	10
67	3
68	5
69	6
70	4
71	4
72	2
73	21
74	73
75	5
81	2
82	6
83	16
84	999
85	62
86	5
87	17
88	4
95	2
96	1
97	2
98	1
99	1
100	2
101	24
102	190
103	9
104	1
111	2
113	1
129	40
130	4
