Mass Spectrum: 1,8-Dibenzyl-3,6-diazahomoadamantan-9-ol
Formula: C23H28N2O
CAS: 138023-28-6
Molecular weight: 348
m/z	intensity
37	7
38	15
39	140
40	49
41	300
42	600
43	240
44	300
45	230
46	8
49	3
50	35
51	86
52	27
53	50
54	39
55	130
56	120
57	170
58	490
59	26
60	23
61	21
62	9
63	36
64	12
65	140
66	21
67	39
68	56
69	59
70	65
71	64
72	730
73	100
74	33
75	13
76	20
77	160
78	67
79	65
80	43
81	35
82	63
83	53
84	40
85	130
86	53
87	21
88	22
89	44
90	32
91	999
92	100
93	22
94	38
95	29
96	36
97	31
98	42
99	21
100	15
101	16
102	22
103	65
104	78
105	120
106	63
107	25
108	27
109	17
110	32
111	34
112	13
113	9
114	12
115	170
116	73
117	120
118	43
119	18
120	29
121	17
122	40
123	17
124	14
125	11
126	9
127	28
128	69
129	140
130	68
131	100
132	36
133	10
134	10
135	10
136	18
137	13
138	10
139	9
140	4
141	28
142	12
143	24
144	23
145	27
146	22
147	15
148	150
149	28
150	5
151	8
152	15
153	17
154	12
155	25
156	15
157	16
158	38
159	16
160	32
161	13
162	11
163	6
164	4
165	41
166	26
167	26
168	22
169	16
170	30
171	28
172	120
173	32
174	140
175	32
176	17
177	7
178	24
179	34
180	24
181	12
182	16
183	16
184	35
185	19
186	20
187	9
188	11
189	10
190	16
191	5
192	3
193	3
194	11
195	5
196	21
197	40
198	32
199	15
200	38
201	46
202	26
203	8
204	8
205	8
206	6
207	9
208	5
209	13
210	13
211	7
212	19
213	13
214	55
215	17
216	5
217	5
223	4
224	5
225	5
226	12
227	11
228	11
229	12
230	9
231	17
232	4
233	2
237	2
238	6
239	53
240	14
241	6
242	2
243	3
245	5
246	2
248	4
249	3
250	2
255	6
256	5
257	280
258	60
259	33
260	48
261	18
262	11
263	4
272	2
273	19
274	84
275	34
276	260
277	55
278	8
286	14
287	8
288	8
289	6
290	59
291	15
292	11
293	3
302	20
303	9
304	19
305	6
306	3
315	3
317	4
318	3
319	35
320	12
329	4
330	4
331	80
332	20
333	4
334	2
346	4
347	75
348	710
349	183
350	23
351	2
