Mass Spectrum: 2-Isocyano-1,3-di(4-tolyl)-2-(4-tosyl)propane
Formula: C25H25NO2S
CAS: 138023-55-9
Molecular weight: 403
m/z	intensity
14	1
15	2
16	2
17	11
18	36
26	2
27	32
28	9
29	8
30	1
31	7
32	2
36	1
37	0
38	3
39	46
40	4
41	17
42	2
43	6
44	4
45	7
48	2
50	8
51	24
52	8
53	11
54	1
55	4
56	2
57	5
58	0
59	3
60	1
61	1
62	5
63	24
64	8
65	96
66	6
67	5
69	4
70	2
71	2
73	2
74	4
75	4
76	6
77	103
78	26
79	100
80	8
81	2
82	2
83	2
84	1
85	1
86	1
87	2
88	2
89	27
90	12
91	143
92	36
93	3
94	1
95	2
96	1
97	2
98	1
99	1
100	1
101	5
102	10
103	56
105	999
106	92
107	8
108	4
110	0
111	2
112	2
113	4
114	5
115	55
116	22
117	24
118	6
119	1
121	2
123	1
124	1
125	1
126	2
127	15
128	20
129	37
130	10
131	6
132	3
133	2
138	0
139	15
140	23
141	8
142	11
143	20
144	17
145	1
149	1
150	0
151	1
152	3
153	2
154	8
155	12
156	81
157	11
158	1
159	0
160	0
163	1
164	0
165	6
166	2
167	1
171	1
176	1
177	1
178	4
179	3
180	1
181	1
182	0
183	0
185	1
188	0
189	5
190	4
191	5
192	3
193	1
194	0
195	1
200	0
201	0
202	4
203	4
204	4
205	19
206	5
207	3
208	0
214	0
215	1
216	2
217	7
218	2
219	3
220	14
221	14
222	3
223	0
227	0
228	0
229	0
230	2
231	8
232	26
233	5
234	5
235	1
236	0
238	0
244	0
246	82
247	155
248	109
249	19
250	1
262	0
263	0
264	2
265	0
280	0
298	5
299	1
300	0
338	0
402	9
403	11
404	3
405	1
406	0
