Mass Spectrum: 1,8-Dipropyl-3,6-diazahomoadamantan-9-ol
Formula: C15H28N2O
CAS: 138023-27-5
Molecular weight: 252
m/z	intensity
38	12
39	39
40	15
41	401
42	406
43	297
44	33
45	16
46	3
51	25
52	11
53	70
54	49
55	357
56	254
57	314
58	695
59	68
60	57
61	41
64	19
65	39
66	25
67	95
68	93
69	204
70	169
71	176
72	999
73	141
74	52
75	5
76	25
77	44
78	25
79	53
80	67
81	137
82	119
83	128
84	114
85	147
86	73
87	25
88	8
89	18
90	24
91	42
92	16
93	95
94	69
95	77
96	141
97	131
98	190
99	128
100	16
101	20
102	2
103	7
104	18
105	40
106	25
107	61
108	53
109	60
110	111
111	103
112	117
113	43
114	23
115	32
116	14
117	9
118	8
119	8
120	33
121	26
122	59
123	87
124	485
125	118
126	306
127	35
128	36
129	35
130	8
131	14
132	49
133	14
134	53
135	43
136	104
137	103
138	87
139	119
140	64
141	34
142	26
143	16
144	3
145	5
146	4
147	14
148	36
149	102
150	110
151	48
152	108
153	103
154	45
155	56
156	8
157	8
158	7
159	10
160	11
161	21
162	59
163	102
164	194
165	117
166	140
167	103
168	53
169	18
170	13
172	26
173	8
174	14
175	13
176	19
177	46
178	223
179	174
180	720
181	138
182	52
183	32
184	25
185	14
186	25
187	10
188	7
189	9
190	36
191	51
192	56
193	42
194	253
195	69
196	68
197	19
198	3
199	1
203	8
204	9
205	25
206	23
207	27
208	106
209	206
210	94
211	26
212	17
217	8
218	10
219	46
220	34
221	37
222	35
223	390
224	121
225	33
226	11
227	9
228	8
232	3
233	34
234	42
235	219
236	51
237	35
238	3
249	6
250	35
251	160
252	830
253	141
254	11
255	1
