Mass Spectrum: 9-Acetoxy-1-methyl-3,6-diazahomoadamantane
Formula: C12H20N2O2
CAS: 138023-32-2
Molecular weight: 224
m/z	intensity
30	56
31	5
37	4
38	10
39	98
40	71
41	300
42	530
43	600
44	160
45	97
46	2
50	6
51	14
52	14
53	69
54	54
55	200
56	130
57	110
58	270
59	12
60	12
61	3
62	4
63	7
64	3
65	31
66	3
67	63
68	110
69	60
70	170
71	130
72	999
73	71
74	6
75	14
76	1
77	48
78	17
79	98
80	65
81	120
82	170
83	54
84	94
85	36
86	16
87	2
90	1
91	32
92	28
93	310
94	180
95	68
96	130
97	52
98	59
99	9
100	4
102	1
103	4
104	3
105	10
106	40
107	140
108	600
109	86
110	120
111	53
112	16
113	3
114	2
115	2
116	46
117	4
118	5
119	8
120	120
121	430
122	240
123	48
124	73
125	22
126	14
127	5
129	12
130	5
131	2
132	5
133	8
134	31
135	17
136	48
137	32
138	65
139	21
140	9
141	2
147	5
148	4
149	98
150	18
151	14
152	26
153	86
154	18
155	2
161	2
162	3
163	65
164	75
165	310
166	64
167	11
168	5
179	7
180	20
181	120
182	30
183	3
192	2
193	4
194	2
195	2
196	30
197	4
209	6
210	3
223	15
224	640
225	89
226	6
