Mass Spectrum: 1,4-Dimethyltricyclo[5.3.0.0(4.10)]decan-8-one
Formula: C12H18O
CAS: 138041-97-1
Molecular weight: 178
m/z	intensity
40	66
41	166
43	11
53	119
55	102
65	47
67	202
68	54
69	28
77	125
78	8
79	205
80	39
81	150
82	80
91	157
92	28
93	311
94	174
95	402
96	50
97	83
105	36
106	28
107	333
108	999
109	157
118	16
119	14
120	16
121	108
122	22
123	11
135	250
136	419
137	22
145	28
150	57
163	28
178	511
179	31
