Mass Spectrum: 2-Propanol, 1-(phenylmethoxy)-
Formula: C10H14O2
CAS: 13807-91-5
Molecular weight: 166
m/z	intensity
14	1
15	5
17	1
18	4
19	5
26	1
27	13
28	20
29	11
31	22
32	5
38	4
39	37
40	3
41	18
42	7
43	14
44	3
45	245
46	6
50	10
51	29
52	8
53	3
54	1
56	1
57	2
58	2
59	8
61	1
62	5
63	20
64	7
65	97
66	6
73	1
74	2
75	64
76	4
77	38
78	9
79	43
80	3
86	1
87	1
89	28
90	17
91	999
92	468
93	34
94	1
103	1
104	3
105	45
106	18
107	166
108	27
109	2
119	3
120	1
121	18
122	28
123	3
125	1
133	1
147	1
148	6
149	1
152	3
162	1
163	1
164	1
165	1
166	107
167	12
168	1
