Mass Spectrum: 9-Acetoxy-1,8-dipropyl-3,6-diazahomoadamantane
Formula: C17H30N2O2
CAS: 138023-37-7
Molecular weight: 294
m/z	intensity
39	3
40	2
41	91
42	158
43	186
44	70
45	22
46	10
53	6
54	5
55	122
56	75
57	60
58	280
59	16
60	20
61	2
65	4
66	2
67	52
68	29
69	44
70	232
71	202
72	999
73	179
74	12
75	4
77	8
78	2
79	42
80	15
81	28
82	38
83	35
84	19
85	57
86	16
87	8
88	4
89	2
91	16
92	8
93	45
94	26
95	28
96	48
97	60
98	35
99	27
100	8
101	4
102	3
103	21
104	1
105	15
106	16
107	48
108	24
109	29
110	50
111	63
112	228
113	24
114	4
115	3
116	35
117	22
118	5
119	13
120	25
121	37
122	45
123	35
124	241
125	40
126	88
127	17
128	12
129	10
130	9
131	5
132	9
133	11
134	104
135	67
136	76
137	43
138	31
139	20
140	15
141	5
142	4
143	5
144	1
145	3
146	8
147	17
148	66
149	125
150	93
151	34
152	41
153	42
154	17
155	5
156	5
157	2
158	1
159	2
160	10
161	22
162	88
163	496
164	157
165	29
166	29
167	14
168	13
169	5
170	5
171	6
172	3
173	2
174	8
175	11
176	59
177	96
178	289
179	154
180	215
181	78
182	12
183	4
184	7
188	6
189	14
190	87
191	345
192	102
193	35
194	45
195	19
196	11
197	3
198	2
203	6
204	16
205	87
206	44
207	51
208	75
209	50
210	19
211	4
217	4
218	3
219	75
220	31
221	87
222	174
223	44
224	18
225	7
226	11
231	3
232	3
233	70
234	38
235	408
236	90
237	37
238	21
239	8
240	12
241	5
247	3
248	5
249	9
250	23
251	131
252	42
253	7
254	5
255	6
256	4
262	7
263	4
264	10
265	32
266	11
267	2
268	4
269	8
270	5
271	2
273	2
275	3
277	2
278	3
279	28
280	5
291	2
292	16
293	113
294	784
295	150
296	14
297	1
