Mass Spectrum: 1-Methyl-8-propyl-3,6-diazahomoadamantan-9-ol
Formula: C13H24N2O
CAS: 138023-30-0
Molecular weight: 224
m/z	intensity
39	142
40	73
41	284
42	397
43	334
44	126
45	32
50	8
51	80
52	93
53	295
54	341
55	822
56	518
57	633
58	805
59	150
60	93
61	59
62	17
63	28
64	26
65	95
66	91
67	321
68	299
69	445
70	390
71	518
72	999
73	239
74	76
75	20
76	30
77	128
78	63
79	219
80	167
81	232
82	557
83	235
84	427
85	114
86	82
87	75
88	46
89	43
90	39
91	148
92	72
93	186
94	264
95	369
96	711
97	393
98	438
99	206
100	72
101	56
102	11
103	19
104	24
105	89
106	148
107	173
108	315
109	280
110	334
111	338
112	293
113	115
114	63
115	33
116	19
117	37
118	41
119	74
120	150
121	263
122	301
123	276
124	727
125	278
126	265
127	108
128	74
129	58
130	41
131	19
132	35
133	56
134	128
135	263
136	414
137	289
138	390
139	199
140	111
141	61
142	35
143	19
144	2
145	9
146	18
147	39
148	111
149	297
150	575
151	477
152	705
153	237
154	108
155	76
156	24
157	20
158	13
159	2
160	11
161	37
162	108
163	128
164	152
165	174
166	505
167	189
168	147
169	61
170	110
171	33
172	2
173	2
174	2
175	10
176	20
177	54
178	54
179	80
180	223
181	297
182	117
183	56
184	20
185	19
190	15
191	37
192	26
193	91
194	74
195	299
196	111
197	22
198	1
199	7
200	2
203	2
205	24
206	35
207	165
208	58
209	110
210	33
211	10
212	2
221	10
222	39
223	223
224	668
225	98
226	7
