Mass Spectrum: 9-Endo-hydroxy-9-exo-ethylbicyclo[4,2,1]nona-2,4-diene
Formula: C11H16O
CAS: 138146-04-0
Molecular weight: 164
m/z	intensity
15	35
27	340
28	73
29	491
30	18
31	55
39	292
40	53
41	233
43	141
44	6
45	10
46	1
50	47
51	148
52	60
53	117
55	154
57	999
58	43
59	17
60	3
61	3
62	16
63	56
65	148
66	56
67	107
69	61
70	6
71	4
72	3
73	6
74	9
75	11
77	354
78	232
79	797
80	140
81	41
82	7
83	14
85	42
86	9
87	2
89	23
91	458
92	177
93	62
94	26
95	36
96	9
97	12
98	16
102	14
103	50
105	122
107	498
108	61
109	78
110	9
115	75
117	194
118	27
119	13
120	15
121	15
122	45
123	17
127	4
128	8
129	9
131	40
132	5
133	13
135	391
136	65
137	2
146	48
147	9
149	23
164	175
165	18
