Mass Spectrum: 6(1'-Oxo-propyl)-1,3-cis,cis-cyclooctadiene
Formula: C11H16O
CAS: 138146-07-3
Molecular weight: 164
m/z	intensity
27	469
29	696
30	17
31	11
39	361
41	275
42	21
43	58
44	2
45	4
48	2
50	47
51	137
52	69
53	126
55	114
57	995
58	37
59	11
62	14
63	43
65	158
66	51
67	115
69	57
70	4
73	4
74	6
75	9
77	357
79	999
80	208
81	39
82	5
83	8
85	56
86	9
89	11
91	468
92	183
93	55
94	19
95	34
96	12
97	26
98	22
102	9
103	24
105	124
107	283
108	39
109	120
110	17
115	19
117	155
118	20
120	34
121	14
122	70
123	20
124	4
131	52
132	5
133	5
135	225
136	34
137	4
146	49
147	5
149	19
164	75
165	9
