Mass Spectrum: endo-9-endo-Hydroxy-9-exo-vinyltricyclo[4,2,1,0(2,5)]non-3-ene
Formula: C11H14O
CAS: 138146-08-4
Molecular weight: 162
m/z	intensity
15	53
27	743
28	48
29	204
30	10
31	56
37	22
39	592
40	98
41	259
42	46
43	104
45	7
47	10
50	129
51	277
52	142
53	269
55	980
56	60
57	57
62	39
63	125
65	256
66	156
67	182
68	42
69	52
70	14
71	15
73	11
74	33
75	27
77	687
78	272
79	999
80	314
81	123
83	442
84	33
89	31
91	649
92	342
93	86
95	385
96	468
102	19
103	108
104	67
105	267
106	96
107	296
108	122
109	17
115	145
116	70
117	103
119	131
120	78
121	79
127	37
128	87
129	119
130	27
131	41
133	311
134	178
135	46
143	25
147	120
161	42
