Mass Spectrum: 2,2'-Thiobis[4-methyl-6-(1,1,3,3-tetramethylbutyl)phenol]
Formula: C30H46O2S
CAS: 13816-08-5
Molecular weight: 470
m/z	intensity
34	10
35	9
36	8
38	12
39	100
40	102
41	431
43	849
45	23
46	1
47	1
50	6
51	16
53	44
55	173
57	999
59	98
61	4
62	1
63	9
64	3
65	19
67	20
68	5
69	46
71	253
72	14
73	9
74	3
75	1
77	47
78	17
79	31
80	4
81	9
82	5
83	11
84	6
85	9
87	5
89	5
91	87
92	11
93	12
94	9
95	1
96	4
97	69
98	9
99	4
101	4
103	24
104	12
105	66
106	9
107	26
108	10
109	14
110	4
111	13
112	9
113	34
115	50
116	17
117	40
118	16
119	56
121	101
122	15
123	15
124	4
125	6
126	1
127	6
128	24
129	22
131	40
132	21
133	48
134	18
135	34
136	43
137	20
139	32
140	8
141	5
142	6
143	9
144	12
145	65
146	292
147	246
148	93
149	185
150	53
151	25
152	13
153	38
155	26
157	13
159	17
160	35
161	42
162	22
163	25
164	71
165	32
166	7
167	9
168	1
169	2
170	1
171	9
172	3
173	4
174	9
175	9
176	5
177	9
179	234
180	62
181	121
182	15
183	6
184	1
185	1
187	2
189	4
190	1
191	4
192	4
193	14
194	7
195	29
196	5
197	6
198	1
199	4
201	1
203	3
204	3
205	2
206	1
207	9
208	2
209	4
211	2
212	3
213	1
217	2
218	3
219	9
220	6
221	2
222	1
223	1
234	1
235	5
236	1
237	1
241	1
244	1
245	1
249	3
251	53
252	9
253	6
254	1
259	1
269	1
273	2
283	3
284	5
285	6
287	224
288	41
289	14
290	3
291	4
301	3
313	1
315	2
327	5
328	1
343	5
344	1
357	4
358	1
385	2
395	3
396	4
398	12
399	207
400	50
401	16
402	3
414	1
454	1
456	1
465	2
466	5
467	3
468	4
470	122
471	53
472	16
473	2
