Mass Spectrum: Bicyclo[4.2.1]nona-2,4-dien-9-endo-ol, 9-exo-ethenyl-
Formula: C11H14O
CAS: 138146-02-8
Molecular weight: 162
m/z	intensity
14	70
15	76
27	652
29	185
30	50
31	55
37	36
39	464
40	99
41	244
42	58
43	91
50	94
51	277
52	115
53	174
55	780
56	58
57	41
63	107
65	246
66	133
67	146
68	54
69	43
75	45
77	560
78	263
79	999
80	172
81	66
82	98
83	127
84	83
89	57
91	661
92	321
93	122
94	108
95	261
96	64
102	52
103	142
105	284
106	149
107	431
108	147
115	189
116	77
117	82
118	102
119	177
120	166
121	108
128	133
129	180
133	358
134	166
135	16
147	160
148	18
