Mass Spectrum: Silane, trichlorodecyl-
Formula: C10H21Cl3Si
CAS: 13829-21-5
Molecular weight: 274
m/z	intensity
14	1
15	3
26	4
27	86
28	12
29	165
30	4
35	2
36	11
38	3
39	62
40	11
41	287
42	128
43	914
44	30
49	2
50	1
51	3
52	2
53	15
54	14
55	160
56	155
57	999
58	45
63	14
64	1
65	6
66	1
67	9
68	5
69	58
70	107
71	560
72	32
73	1
77	1
79	2
81	2
82	2
83	16
84	38
85	260
86	18
91	1
95	1
97	7
98	10
99	23
100	7
101	9
102	1
103	2
105	2
111	3
112	5
113	29
114	4
115	5
116	1
117	7
118	1
119	3
123	1
125	10
126	6
127	8
128	4
129	2
130	1
131	5
133	116
134	6
135	114
136	6
137	41
138	3
139	22
140	4
141	13
142	2
143	4
145	1
147	1
151	2
152	1
153	20
154	2
155	13
156	2
157	3
158	1
159	3
161	30
162	3
163	30
164	2
165	10
166	1
167	10
168	2
169	7
170	1
171	2
173	2
174	25
175	147
176	37
177	145
178	20
179	50
180	6
181	9
183	2
187	4
188	7
189	77
190	12
191	73
192	10
193	26
194	3
195	4
197	1
201	2
202	7
203	38
204	10
205	37
206	6
207	12
208	2
209	2
215	1
216	5
217	16
218	7
219	18
220	4
221	6
222	1
223	1
230	6
231	11
232	8
233	11
234	4
235	5
236	1
238	1
244	5
245	11
246	7
247	12
248	3
249	5
250	1
274	10
275	2
276	11
277	2
278	4
