Mass Spectrum: 5-Azulenemethanol, 1,2,3,4,5,6,7,8-octahydro-.alpha.,.alpha.,3,8-tetramethyl-
Formula: C15H26O
CAS: 13822-35-0
Molecular weight: 222
m/z	intensity
26	17
27	94
28	70
29	147
31	112
39	122
40	22
41	478
42	19
43	362
44	14
45	25
51	32
52	24
53	125
54	14
55	267
56	15
57	42
59	999
60	27
63	4
65	64
66	37
67	154
68	44
69	151
70	15
71	64
72	4
73	14
75	12
77	163
78	44
79	256
80	59
81	330
82	50
83	52
89	10
91	322
92	53
93	338
94	74
95	215
96	58
97	17
103	22
104	16
105	460
106	70
107	549
108	97
109	77
110	31
111	13
115	26
116	10
117	40
118	11
119	216
120	53
121	161
122	65
123	36
128	18
129	16
131	27
133	152
134	39
135	130
136	24
145	28
147	124
148	49
149	144
150	18
159	18
161	991
162	159
163	265
164	88
175	18
176	16
189	200
190	30
204	201
205	34
207	9
222	49
223	10
