Mass Spectrum: Bicyclo[2.2.1]heptane-2,3-diol, 1,7,7-trimethyl-, (2-endo,3-exo)-
Formula: C10H18O2
CAS: 13837-85-9
Molecular weight: 170
m/z	intensity
39	220
40	10
41	610
42	60
43	710
44	60
45	40
51	20
53	130
54	20
55	380
56	70
57	220
58	60
59	110
60	290
61	10
65	20
67	290
68	50
69	440
70	170
71	190
72	130
73	10
77	50
78	10
79	100
80	100
81	480
82	310
83	180
84	280
85	260
86	20
87	100
88	20
91	70
92	10
93	70
94	160
95	999
96	160
97	90
98	10
99	170
100	80
107	70
108	70
109	260
110	90
111	350
112	90
113	10
119	40
120	10
121	190
123	220
124	30
126	10
127	10
134	20
137	190
139	70
152	260
153	20
155	10
