Mass Spectrum: Butane(dithioic) acid, methyl ester
Formula: C5H10S2
CAS: 13831-08-8
Molecular weight: 134
m/z	intensity
26	18
27	137
29	57
30	1
33	6
34	2
35	9
37	6
38	12
39	79
41	73
42	10
43	31
44	6
45	556
46	49
47	105
48	14
49	10
50	5
51	8
52	1
53	101
54	5
55	17
56	1
57	30
58	203
59	353
60	24
61	97
62	2
63	3
64	13
67	1
69	27
70	6
71	170
72	13
73	36
74	2
75	8
76	44
77	63
78	4
79	11
81	4
82	3
83	2
84	6
85	80
86	80
87	999
88	62
89	47
90	8
91	190
92	16
93	18
101	5
103	1
105	2
106	50
108	2
118	2
119	160
120	10
121	14
133	1
134	549
135	40
136	50
137	1
