Mass Spectrum: Acetamide, N-(3-ethyl-1-phenylindol-2-yl)-
Formula: C18H18N2O
CAS: 138349-53-8
Molecular weight: 278
m/z	intensity
33	4
36	0
37	4
39	125
40	40
41	32
43	999
45	3
46	0
47	0
48	0
50	51
51	206
52	37
53	11
54	6
55	5
56	2
57	5
58	0
59	1
60	0
62	19
63	62
64	24
65	60
66	23
67	5
68	1
69	2
70	2
71	2
74	18
75	41
76	42
77	193
78	32
79	9
80	2
81	2
82	4
83	8
86	4
87	9
88	18
89	68
90	31
91	39
92	18
93	15
94	3
95	8
97	3
98	2
99	2
100	4
101	24
102	34
103	34
104	21
105	9
106	2
107	0
109	10
110	5
112	2
113	10
114	16
115	78
116	48
117	32
118	8
119	3
120	0
121	0
122	0
123	2
124	1
125	2
126	5
127	11
128	26
129	10
130	35
131	9
132	7
133	1
134	0
135	0
137	1
138	2
139	11
140	21
141	12
142	27
143	63
144	10
145	1
146	0
149	0
150	4
151	12
152	19
153	8
154	6
155	8
156	4
157	7
158	9
159	3
160	0
161	0
163	6
164	9
165	38
166	18
167	33
168	11
169	5
170	1
171	1
172	0
173	0
174	0
175	2
176	8
177	13
178	19
179	19
180	37
181	6
182	1
183	0
185	1
186	0
192	40
193	66
194	28
195	5
196	2
197	0
201	2
202	0
205	72
206	50
207	15
208	39
209	6
210	0
218	67
219	252
220	96
221	856
222	147
223	13
224	1
225	1
226	0
234	42
235	173
236	203
237	33
238	3
239	0
247	13
248	2
249	0
250	1
261	3
263	66
264	11
265	1
266	0
278	434
279	81
280	7
281	0
283	0
