Mass Spectrum: Phosphite, (-)-menthyldiphenyl-
Formula: C22H29O3P
CAS: 138374-09-1
Molecular weight: 372
m/z	intensity
26	2
27	42
29	57
30	1
31	0
37	2
38	5
39	74
41	155
42	4
43	76
44	0
47	29
48	0
49	1
50	10
51	45
52	4
53	22
54	17
55	260
56	13
57	114
58	2
61	0
62	2
63	9
64	5
65	73
66	25
67	74
68	15
69	179
70	8
71	11
72	0
74	1
75	1
76	6
77	177
78	15
79	25
80	22
81	146
82	72
83	402
84	21
85	0
91	8
92	6
93	27
94	999
95	278
96	44
97	68
98	5
99	0
100	1
101	1
102	0
103	1
104	0
105	1
106	0
107	2
108	0
109	22
110	6
112	4
113	0
115	2
116	1
117	1
118	0
119	1
120	0
121	2
122	0
123	87
124	5
125	0
127	1
128	1
129	1
131	1
133	0
134	0
136	0
137	8
138	415
139	67
140	116
141	44
142	4
143	0
144	0
145	0
146	0
149	0
151	2
152	26
153	38
154	6
155	0
156	0
157	1
167	1
168	5
169	3
170	9
171	2
172	1
173	1
174	0
182	0
183	1
185	0
186	0
187	0
188	0
189	1
197	1
199	13
200	1
201	0
205	0
213	0
214	0
215	27
216	3
217	84
218	9
219	3
221	0
233	9
234	28
235	704
236	104
237	9
238	1
239	0
246	0
247	1
250	0
254	3
255	0
259	0
260	0
261	1
262	1
263	1
267	0
275	1
276	2
277	2
278	1
279	0
289	14
290	1
297	0
301	0
303	0
309	1
310	0
311	0
313	0
315	0
316	0
317	1
329	3
330	1
357	1
358	0
371	1
372	17
373	2
374	1
