Mass Spectrum: 2(1H)-Naphthalenone, 3,4,5,6,7,8-hexahydro-
Formula: C10H14O
CAS: 13837-12-2
Molecular weight: 150
m/z	intensity
26	5
27	99
28	20
29	34
38	9
39	145
40	32
41	105
42	12
43	11
50	18
51	53
52	39
53	69
54	27
55	50
58	11
62	6
63	21
64	6
65	55
66	39
67	78
68	24
69	4
77	155
78	54
79	469
80	180
81	55
82	6
91	164
92	40
93	717
94	126
95	87
96	12
103	8
104	8
105	21
106	29
107	89
108	999
109	91
117	13
121	21
122	72
123	7
132	14
135	22
136	5
150	643
151	67
152	4
