Mass Spectrum: 3-Azahexane, N-[3,4-dichlorophenylacetyl]-1-[pyrrolidin-1-yl]-
Formula: C17H24Cl2N2O
CAS: 138356-66-8
Molecular weight: 342
m/z	intensity
41	999
42	32
43	11
44	11
45	19
46	9
48	0
50	0
51	0
53	1
54	3
55	19
56	12
57	2
58	1
60	0
62	1
63	3
64	1
67	1
68	2
69	6
70	8
71	2
72	8
73	2
75	1
77	0
78	1
79	0
80	1
81	1
82	5
83	3
84	439
85	25
86	2
87	1
89	6
90	0
93	1
94	0
95	0
96	4
97	57
98	6
99	1
101	0
103	0
107	0
109	0
111	1
116	0
123	5
124	2
125	3
126	1
127	0
133	1
135	1
139	1
141	1
153	0
154	0
158	0
159	15
160	1
161	10
162	1
163	1
165	0
186	1
188	0
210	0
228	0
230	1
232	0
262	0
272	1
274	1
342	1
343	0
344	1
