Mass Spectrum: m-Menth-1(7)-ene, (R)-(-)-
Formula: C10H18
CAS: 13837-71-3
Molecular weight: 138
m/z	intensity
27	90
29	58
39	97
40	29
41	209
42	29
43	78
51	31
52	22
53	70
54	26
55	229
56	39
57	31
65	24
66	26
67	258
68	87
69	109
70	26
77	48
78	17
79	78
80	26
81	158
82	999
83	104
84	17
91	36
93	46
94	58
95	563
96	68
109	29
123	29
138	168
139	19
