Mass Spectrum: 3,7,11-Trimethyl-dodeca-2,4,6,10-tetraenal
Formula: C15H22O
CAS: 13832-89-8
Molecular weight: 218
m/z	intensity
26	11
27	70
28	24
29	81
30	2
31	2
37	2
38	6
39	134
40	31
41	635
42	36
43	107
44	4
45	4
50	11
51	35
52	17
53	105
54	18
55	110
56	15
57	20
58	9
59	5
62	3
63	15
64	7
65	60
66	20
67	95
68	32
69	999
70	66
71	80
72	5
73	2
74	3
75	3
77	150
78	41
79	172
80	236
81	106
82	79
83	32
84	18
85	6
89	8
90	4
91	259
92	53
93	308
94	80
95	102
96	42
97	15
98	3
102	5
103	27
104	13
105	232
106	91
107	260
108	145
109	136
110	32
111	17
112	5
114	2
115	31
116	27
117	79
118	16
119	111
120	61
121	323
122	89
123	49
124	19
125	11
126	7
127	4
128	10
129	19
130	6
131	102
132	61
133	65
134	34
135	284
136	90
137	16
138	27
139	4
141	5
142	5
143	9
144	7
145	21
146	8
147	86
148	177
149	382
150	246
151	29
152	5
153	2
155	2
157	12
158	4
159	19
160	9
161	104
162	38
163	13
164	3
171	2
173	7
174	11
175	78
176	14
177	5
185	8
187	5
188	2
189	14
190	10
191	2
192	3
200	6
201	4
202	2
203	67
204	11
205	2
216	2
217	4
218	438
219	82
220	11
