Mass Spectrum: Cyclohexane, 1-methylene-3-(1-methylethenyl)-, (R)-
Formula: C10H16
CAS: 13837-95-1
Molecular weight: 136
m/z	intensity
15	26
27	257
29	167
39	436
40	116
41	558
42	60
43	152
50	34
51	104
52	63
53	332
54	63
55	242
56	51
57	70
58	21
59	12
63	29
65	121
66	104
67	335
68	194
69	94
70	29
71	31
75	21
77	291
78	89
79	999
80	371
81	781
82	99
83	24
85	38
86	19
90	17
91	276
92	135
93	990
94	497
95	264
96	24
97	17
103	29
105	106
106	46
107	388
108	458
109	58
115	19
117	19
119	46
120	36
121	856
122	97
135	26
136	587
137	77
