Mass Spectrum: .psi.,.psi.-Carotene, 1,1',2,2'-tetrahydro-1,1'-dimethoxy-
Formula: C42H64O2
CAS: 13833-01-7
Molecular weight: 600
m/z	intensity
12	3
13	5
14	15
15	56
16	10
17	19
18	82
24	3
25	6
26	34
27	21
28	108
29	165
30	24
31	174
32	110
33	6
37	6
38	21
39	113
40	25
41	350
42	43
43	27
44	85
45	39
46	6
49	6
50	34
51	48
52	29
53	69
54	13
55	385
56	37
57	71
58	12
59	31
60	5
61	5
62	11
63	37
64	14
65	59
66	18
67	147
68	25
69	533
70	45
71	39
72	17
73	999
74	55
75	11
76	11
77	138
78	52
79	212
80	57
81	468
82	48
83	90
84	17
85	94
86	9
87	7
88	5
89	17
90	9
91	518
92	137
93	326
94	57
95	248
96	29
97	43
98	10
99	16
100	6
101	5
102	11
103	45
104	27
105	505
106	275
107	267
108	42
109	221
110	24
111	61
112	11
113	15
114	5
115	66
116	35
117	95
118	69
119	375
120	85
121	229
122	44
123	99
124	18
125	19
126	10
127	29
128	79
129	116
130	62
131	183
132	77
133	229
134	88
135	66
136	17
137	37
138	12
139	14
140	7
141	73
142	82
143	238
144	109
145	385
146	98
147	166
148	35
149	35
150	12
151	16
152	22
153	39
154	24
155	93
156	123
157	312
158	92
159	211
160	55
161	51
162	14
163	21
164	9
165	43
166	32
167	46
168	36
169	175
170	71
171	193
172	57
173	78
174	28
175	35
176	12
177	34
178	24
179	46
180	29
181	69
182	42
183	184
184	65
185	113
186	34
187	61
188	18
189	31
190	17
191	19
192	23
193	55
194	39
195	100
196	51
197	137
198	53
199	72
200	31
201	34
202	19
203	28
204	11
205	19
206	21
207	65
208	43
209	165
210	52
211	112
212	53
213	56
214	19
215	25
216	16
217	16
218	12
219	24
220	24
221	61
222	34
223	71
224	34
225	51
226	21
227	21
228	9
229	16
230	10
231	17
232	10
233	33
234	19
235	51
236	18
237	42
238	18
239	31
240	18
241	28
242	14
243	25
244	11
245	18
246	14
247	31
248	18
249	34
250	15
251	27
252	11
253	25
254	14
255	31
256	18
257	17
258	10
259	20
260	14
261	33
262	17
263	28
264	13
265	25
266	18
267	32
268	23
269	29
270	14
271	14
272	9
273	23
274	14
275	33
276	13
277	22
278	13
279	19
280	18
281	25
282	14
283	11
284	8
285	10
286	7
287	21
288	13
289	18
290	11
291	17
292	9
293	20
294	8
295	14
296	6
297	8
298	6
299	13
300	11
301	19
302	8
303	11
304	6
305	12
306	7
307	10
308	5
309	12
310	5
311	6
312	8
313	10
314	10
315	9
316	5
317	10
318	6
319	13
320	8
321	14
322	9
323	8
324	5
325	8
326	5
327	7
328	5
329	8
330	6
331	12
332	8
333	14
334	9
335	12
336	7
337	5
338	6
339	5
340	3
341	7
342	4
343	10
344	9
345	14
346	14
347	15
348	8
349	7
350	5
351	5
352	5
353	6
354	8
355	6
356	5
357	7
358	5
359	10
360	5
361	9
362	5
363	4
364	3
365	5
366	5
367	5
368	4
369	4
370	6
371	5
372	3
373	3
374	5
375	5
376	5
377	5
378	16
379	9
380	5
381	4
382	3
383	4
384	4
385	5
386	5
387	6
388	8
389	5
390	5
391	4
392	5
393	4
394	3
395	4
396	3
397	7
398	5
399	12
400	6
401	7
402	9
403	4
404	3
405	2
406	2
407	2
408	2
409	3
410	14
411	8
412	8
413	5
414	5
415	5
416	4
417	3
418	3
419	2
420	2
421	2
422	2
423	5
424	5
425	7
426	5
427	5
428	8
429	5
430	21
431	13
432	7
433	4
434	2
435	1
436	1
437	1
439	1
440	1
441	1
442	18
443	7
444	10
445	5
446	3
447	2
448	1
449	2
450	1
451	3
452	2
453	4
454	4
455	4
456	5
457	4
458	5
459	2
460	5
461	3
462	21
463	9
464	5
465	5
466	2
467	5
468	3
469	5
470	2
471	1
472	1
474	1
475	1
476	6
477	3
478	4
479	3
480	5
481	3
482	3
483	2
484	2
485	2
486	1
487	1
488	2
489	2
490	2
491	10
492	5
493	3
494	38
495	16
496	5
497	2
498	1
499	1
500	1
501	1
506	1
507	2
508	7
509	4
510	2
511	1
512	2
513	1
514	1
519	1
520	1
521	4
522	3
523	3
524	1
525	1
526	1
527	1
528	1
529	1
530	2
531	1
532	5
533	2
534	5
535	7
536	34
537	16
538	18
539	8
540	5
541	3
542	2
543	1
544	1
550	1
551	1
552	2
553	1
554	1
555	1
564	3
565	2
566	11
567	5
568	17
569	10
570	12
571	5
572	4
573	2
574	1
596	2
597	1
598	7
599	2
600	20
