Mass Spectrum: 1,2-Dichloroethyl hydroperoxide
Formula: C2H4Cl2O2
CAS: 138434-10-3
Molecular weight: 130
m/z	intensity
26	20
28	137
29	418
32	63
35	193
36	516
37	30
38	159
41	26
42	272
44	8
47	63
48	118
49	578
50	999
51	205
52	310
61	81
63	131
77	385
78	440
79	100
80	151
81	194
83	28
95	175
96	17
97	288
98	4
99	142
