Mass Spectrum: 2,3-Bis(difluoroamino)-1,1,1,4,4,4-hexafluoro-2-butene
Formula: C4F10N2
CAS: 13846-27-0
Molecular weight: 266
m/z	intensity
31	84
32	1
50	60
51	1
69	999
70	11
76	35
77	1
114	65
115	2
176	37
177	2
247	129
248	7
