Mass Spectrum: 13.beta.-Ethyl-17.alpha.-ethynyl-3-methoximinogon-4-en-17.beta.-ol 17-trimethylsilyl eter
Formula: C25H39NO2Si
CAS: 138466-60-1
Molecular weight: 413
m/z	intensity
67	170
73	999
74	120
75	320
77	240
78	130
79	260
83	200
91	260
105	160
117	180
119	110
129	130
137	220
155	180
223	90
273	370
323	70
382	100
398	90
413	330
