Mass Spectrum: 4-Spirohexanone, 5,5-dichloro-
Formula: C6H6Cl2O
CAS: 138469-24-6
Molecular weight: 164
m/z	intensity
25	60
27	72
28	8
29	3
31	4
35	9
36	25
37	41
38	73
39	334
40	999
41	47
42	4
43	1
44	0
47	16
48	4
49	21
50	33
51	39
52	10
53	39
54	24
55	3
60	8
61	71
62	16
63	34
64	7
65	120
66	22
67	4
68	314
69	13
70	0
71	1
72	7
73	43
74	6
75	25
76	2
77	3
78	0
79	0
81	0
82	8
83	2
84	6
85	8
86	2
87	10
88	1
89	11
91	2
93	3
94	1
95	1
96	17
97	3
98	11
99	7
100	6
101	22
102	3
103	7
107	1
108	4
109	2
110	8
111	1
112	4
113	0
114	0
121	1
122	2
123	0
124	1
128	0
129	6
130	2
131	2
132	0
136	2
138	1
164	41
165	3
166	26
167	1
168	4
