Mass Spectrum: 2-Propanol, 1-(4-methylphenyl)-3-ureido-
Formula: C11H16N2O3
CAS: 138416-27-0
Molecular weight: 224
m/z	intensity
33	2
34	0
36	0
38	7
39	36
40	13
41	16
42	33
43	46
44	103
45	9
46	1
50	13
51	29
52	18
53	19
54	6
56	238
57	27
58	6
60	246
61	28
63	19
64	7
65	59
66	4
67	1
68	1
69	1
70	2
73	218
74	195
75	8
77	88
78	23
79	44
80	17
81	3
82	3
83	0
85	1
86	1
87	2
89	14
90	24
91	100
92	13
93	14
94	2
95	0
96	0
99	259
100	11
103	62
104	5
105	15
107	185
108	382
109	31
110	1
111	0
112	0
117	999
118	50
119	9
120	5
121	33
122	25
123	2
124	0
125	0
129	0
130	1
131	7
132	3
133	10
134	5
135	1
136	0
137	0
144	2
145	3
146	3
147	2
148	1
150	10
151	1
152	0
160	1
162	10
163	3
164	0
172	0
177	0
178	0
179	0
180	1
181	1
182	0
187	0
204	0
206	21
207	3
208	0
222	0
224	41
225	5
226	0
