Mass Spectrum: 8-Decene-3,5-dione, 4,6,9-trimethyl-
Formula: C13H22O2
CAS: 13851-06-4
Molecular weight: 210
m/z	intensity
26	5
27	73
28	40
29	219
30	5
31	3
37	1
38	3
39	104
40	19
41	425
42	27
43	149
44	4
45	12
46	1
50	4
51	16
52	8
53	94
54	26
55	636
56	73
57	710
58	25
59	10
62	1
63	3
64	1
65	25
66	10
67	125
68	34
69	666
70	39
73	1
75	9
77	22
78	4
79	42
80	6
81	256
82	33
83	56
84	15
85	50
86	218
87	13
88	1
95	41
96	999
97	407
98	34
99	10
107	35
109	131
110	14
111	46
112	13
113	129
114	10
121	13
123	23
124	200
125	565
126	70
127	9
135	29
136	5
137	13
138	4
139	9
140	2
141	3
142	97
143	9
144	1
151	2
152	4
153	39
154	14
155	17
163	3
164	1
167	4
168	1
177	6
178	1
181	45
182	6
192	6
193	1
195	5
196	1
210	48
211	7
212	1
