Mass Spectrum: Myrtenyl 2-methyl butyrate
Formula: C15H24O2
CAS: 138530-44-6
Molecular weight: 236
m/z	intensity
27	18
29	47
30	1
38	1
39	40
40	8
41	144
42	10
43	43
44	4
50	4
51	13
52	8
53	41
54	5
55	49
56	16
57	370
58	16
63	6
64	2
65	36
66	11
67	34
69	14
74	4
77	93
78	45
79	134
80	17
81	22
82	8
83	9
84	5
85	125
86	7
89	3
90	2
91	999
92	383
93	106
94	10
95	6
96	11
102	2
103	33
104	10
105	123
106	64
107	27
108	41
109	11
110	6
115	13
116	3
117	34
118	9
119	758
120	78
132	5
133	19
134	286
135	40
152	32
236	2
