Mass Spectrum: 9-Borabicyclo[3.3.1]nonane, 9-[2-(diethylboryl)-1-ethyl-1-butenyl]-, (Z)-
Formula: C18H34B2
CAS: 138517-71-2
Molecular weight: 272
m/z	intensity
26	44
27	163
28	16
29	52
36	7
37	29
38	21
39	101
40	253
41	999
42	26
43	18
45	2
49	6
50	33
51	100
52	69
53	250
54	75
55	245
56	18
57	27
61	5
62	10
63	33
64	69
65	186
66	59
67	232
68	151
69	543
70	23
71	2
72	0
73	2
74	10
75	24
76	32
77	91
78	52
79	157
80	90
81	208
82	95
83	63
84	6
85	3
86	7
87	9
88	15
89	46
90	42
91	131
92	92
93	223
94	82
95	166
96	20
97	24
98	4
99	8
100	8
101	15
102	12
103	39
104	32
105	75
106	58
107	139
108	64
109	125
110	78
111	20
112	4
113	9
114	7
115	16
116	21
117	64
118	81
119	117
120	92
121	158
122	131
123	171
124	74
125	14
126	7
127	10
128	6
129	16
130	30
131	92
132	72
133	106
134	96
135	193
136	32
137	21
138	12
139	10
140	0
141	3
142	7
143	18
144	41
145	122
146	98
147	139
148	90
149	85
150	127
151	37
152	28
153	9
154	9
155	7
156	5
157	20
158	69
159	174
160	113
161	125
162	67
163	43
164	26
165	8
166	3
167	3
168	1
169	0
170	3
171	21
172	105
173	301
174	86
175	60
176	10
177	5
178	2
179	7
180	10
181	17
182	3
183	0
184	1
185	15
186	72
187	218
188	145
189	42
190	9
191	8
192	7
193	10
194	9
195	5
199	9
200	61
201	179
202	165
203	50
204	11
205	8
206	3
207	3
208	1
209	2
212	1
213	11
214	16
215	38
216	15
217	4
218	3
219	11
220	5
221	2
222	0
228	10
229	32
230	25
231	8
232	4
233	10
234	8
235	1
241	32
242	247
243	545
244	98
245	9
246	3
247	4
248	4
259	0
261	0
262	4
270	31
271	250
272	551
273	113
274	16
275	3
276	2
