Mass Spectrum: Myrtenyl angelate
Formula: C15H22O2
CAS: 138530-45-7
Molecular weight: 234
m/z	intensity
18	6
27	20
29	24
30	5
39	60
50	7
51	20
52	16
53	44
54	12
55	312
63	7
64	3
65	45
76	3
77	101
78	47
79	122
83	364
91	999
92	352
93	17
101	28
102	3
103	17
104	26
105	112
106	54
117	36
119	677
120	79
131	7
133	14
134	321
135	39
145	9
174	2
205	2
