Mass Spectrum: 4-Hydroxy-3-methylbut-2-enoic acid, methyl ester
Formula: C6H10O3
CAS: 13866-57-4
Molecular weight: 130
m/z	intensity
26	18
27	163
28	15
29	146
30	11
31	145
33	31
35	3
37	18
38	53
39	416
40	93
41	510
42	111
43	679
44	30
45	64
47	13
49	11
50	19
51	35
52	24
53	201
54	56
55	124
56	22
57	66
58	27
59	173
60	6
61	103
62	3
65	3
66	9
67	93
68	42
69	743
70	151
71	455
72	21
73	8
74	9
75	14
76	4
77	4
78	2
79	7
80	7
81	93
82	149
83	87
84	67
85	95
86	43
87	54
88	9
89	42
90	2
91	4
93	3
95	4
96	9
97	121
98	554
99	616
100	35
101	999
102	49
103	6
107	2
109	2
110	2
111	57
112	759
113	60
114	14
115	43
116	4
117	1
129	12
130	109
131	32
132	2
