Mass Spectrum: Chromium, [(1,2,3,4,5,6-.eta.)-bicyclo[4.2.0]octa-1,3,5-triene]dicarbonylhydro(trichlorosilyl)-
Formula: C10H9Cl3CrO2Si
CAS: 138605-75-1
Molecular weight: 346
m/z	intensity
28	39
29	1
30	0
35	2
36	10
37	1
38	3
39	18
40	2
41	3
42	1
43	2
44	0
49	0
50	46
51	31
52	999
53	106
54	25
55	1
56	2
57	2
61	0
62	3
63	35
64	3
65	13
66	1
67	1
69	0
71	0
73	0
74	3
75	3
76	6
77	42
78	63
79	6
80	10
81	1
82	0
83	0
85	1
86	4
87	31
88	4
89	11
90	6
91	6
92	3
93	0
98	5
99	6
100	4
101	8
102	10
103	59
104	138
105	17
106	1
107	0
108	0
113	0
114	0
115	2
116	0
117	1
119	0
120	0
125	0
126	0
127	7
128	6
129	33
130	8
131	3
132	0
133	17
134	1
135	18
136	0
137	6
138	0
139	1
140	0
141	0
142	0
144	0
145	0
146	0
150	2
151	1
152	2
153	5
154	38
155	33
156	776
157	145
158	32
159	2
160	0
163	1
164	0
165	1
166	0
167	0
171	0
172	2
173	0
174	0
182	12
183	2
184	246
185	49
186	12
187	2
188	0
189	3
190	0
191	63
192	13
193	23
194	4
195	1
200	0
207	1
210	5
211	0
212	91
213	21
214	5
215	0
219	0
220	0
228	0
240	3
241	0
253	1
254	3
255	22
256	7
257	15
258	4
259	3
260	0
276	0
277	0
278	0
282	1
283	1
284	0
285	0
286	0
287	0
289	6
290	1
291	6
292	1
293	2
294	0
295	0
309	1
310	1
311	34
312	10
313	26
314	6
315	5
316	1
317	0
319	0
342	0
343	0
344	0
345	0
346	0
348	0
