Mass Spectrum: 5.alpha.-Androst-15-en-17.beta.-ol, 17-methyl-
Formula: C20H32O
CAS: 13864-65-8
Molecular weight: 288
m/z	intensity
27	121
29	191
39	141
40	50
41	505
42	80
43	797
44	50
45	101
50	10
51	40
52	30
53	262
54	90
55	676
56	50
57	101
58	20
59	10
63	10
64	10
65	101
66	30
67	464
68	101
69	151
70	10
71	131
72	10
75	10
77	161
78	40
79	262
80	181
81	999
82	101
83	80
84	111
85	20
91	181
92	30
93	151
94	80
95	292
96	40
97	70
98	121
99	30
102	10
103	10
104	10
105	101
106	30
107	111
108	101
109	505
110	101
111	90
112	10
115	20
116	10
117	20
118	10
119	30
120	40
121	90
122	40
123	50
124	171
125	30
129	10
131	20
133	20
134	10
135	40
137	10
145	20
146	10
147	30
148	40
149	60
159	10
161	20
163	10
173	10
175	10
189	70
203	20
204	101
205	20
213	10
215	30
217	30
230	40
231	10
255	30
256	10
266	10
270	60
271	10
273	20
288	141
289	40
