Mass Spectrum: Methoxymethyl phenyl sulfide
Formula: C8H10OS
CAS: 13865-50-4
Molecular weight: 154
m/z	intensity
15	22
27	5
29	55
38	9
39	55
44	11
45	999
46	27
47	6
50	23
51	50
52	3
57	5
58	6
62	5
63	14
65	83
66	15
69	52
70	2
71	5
74	14
75	8
76	6
77	61
78	39
79	14
81	8
82	16
83	7
84	5
91	33
108	19
109	100
110	16
111	4
121	6
123	36
124	45
125	3
154	300
155	27
156	13
