Mass Spectrum: 3-Dodecylcyclohexanone
Formula: C18H34O
CAS: 138695-42-8
Molecular weight: 266
m/z	intensity
29	172
39	58
41	549
42	115
43	419
44	22
54	58
55	667
56	130
57	175
58	11
67	164
68	92
69	295
70	81
71	70
81	152
82	81
83	175
84	82
95	81
96	117
97	999
98	342
99	34
109	35
110	22
111	46
112	11
121	22
123	23
125	10
223	94
224	23
266	70
267	22
