Mass Spectrum: 2H-1,3-Thiazine, tetrahydro-2-(methylimino)-
Formula: C5H10N2S
CAS: 13866-04-1
Molecular weight: 130
m/z	intensity
15	53
17	27
27	62
30	302
39	80
40	27
41	234
42	100
43	27
44	23
45	116
46	130
47	48
54	23
55	114
56	95
57	280
59	43
60	30
68	20
69	50
70	28
72	67
73	105
74	626
75	204
76	37
83	57
88	73
100	54
101	62
102	335
130	999
131	79
132	49
