Mass Spectrum: Bicyclo[7.2.0]undec-4-ene, 4,11,11-trimethyl-8-methylene-
Formula: C15H24
CAS: 13877-93-5
Molecular weight: 204
m/z	intensity
27	220
28	131
29	198
30	6
39	296
40	73
41	988
42	49
43	140
44	9
50	9
51	58
52	49
53	250
54	34
55	396
56	43
57	61
58	9
59	6
60	6
63	15
64	12
65	122
66	49
67	335
68	85
69	902
70	55
71	24
75	9
76	6
77	293
78	88
79	631
80	229
81	457
82	143
83	49
84	6
89	9
90	6
91	567
92	247
93	999
94	207
95	204
96	30
97	9
103	21
104	15
105	442
106	274
107	439
108	113
109	165
110	21
111	18
115	18
116	9
117	37
118	12
119	299
120	262
121	256
122	146
123	70
124	9
126	9
127	9
128	9
129	6
131	21
132	9
133	735
134	305
135	341
136	73
137	15
145	9
146	6
147	168
148	140
149	43
150	9
160	9
161	409
162	73
163	12
175	76
176	37
177	6
189	174
190	21
204	140
205	18
