Mass Spectrum: 1-Acetyl-2,3,4,5-tetrahydro-3-hydroxy-1,5-benzodiazepine
Formula: C11H14N2O2
CAS: 138792-63-9
Molecular weight: 206
m/z	intensity
41	18
42	9
43	169
44	5
50	10
51	44
52	22
53	7
63	17
64	16
65	114
66	20
76	8
77	75
78	34
79	12
80	8
90	13
91	42
92	121
93	41
94	12
104	19
105	11
106	33
107	25
108	5
117	15
118	57
119	999
120	270
121	54
129	5
130	35
131	36
132	83
133	113
134	23
135	65
136	7
145	194
146	119
147	42
148	7
159	12
160	15
161	35
162	40
163	182
164	28
177	171
178	15
188	51
189	24
191	9
206	663
207	83
