Mass Spectrum: 2-Oxabicyclo[4.2.0]oct-4-en-3-one, 5-(acetyloxy)-8-[4-(acetyloxy)-2-oxo-2H-pyran-6-yl]-7-phenyl-1-(2-phenylethenyl)-, [1.alpha.(E),6.alpha.,7.beta.,8.alpha.]-
Formula: C30H24O8
CAS: 138744-80-6
Molecular weight: 512
m/z	intensity
27	24
28	32
29	17
30	6
31	1
38	8
39	35
40	45
41	18
42	62
43	999
44	176
45	27
50	20
51	78
52	15
53	9
54	3
55	36
56	1
57	2
60	21
61	0
62	7
63	27
64	5
65	12
66	17
67	3
69	196
70	9
71	10
73	0
74	9
75	16
76	21
77	166
78	35
79	6
80	0
81	1
82	0
83	0
84	5
85	3
86	0
87	5
88	1
89	13
90	6
91	62
92	5
93	0
95	4
98	0
101	7
102	52
103	158
104	37
105	22
106	0
107	1
111	134
112	8
113	4
114	4
115	74
116	47
117	45
118	19
119	2
120	3
121	4
123	4
126	6
127	63
128	63
129	49
130	13
131	174
132	19
133	1
137	18
138	2
139	12
140	16
141	18
142	5
143	3
144	102
145	208
146	36
147	5
150	0
151	4
152	12
153	14
154	2
155	78
156	9
157	23
158	29
159	3
160	0
163	1
165	17
166	4
167	7
168	19
169	7
170	170
171	147
172	28
173	37
174	5
176	3
177	3
178	9
179	5
180	0
181	8
182	5
183	12
184	3
185	32
186	84
187	12
189	3
191	4
192	0
193	2
194	1
195	10
196	20
197	59
198	9
199	0
202	7
203	3
205	1
207	3
209	1
210	0
211	1
212	1
213	35
214	418
215	88
216	13
217	4
218	0
219	0
221	3
223	4
224	1
225	0
226	4
227	3
228	10
229	10
230	3
231	4
232	0
237	3
238	4
239	15
240	5
241	6
242	1
243	1
247	0
249	0
250	1
251	3
252	9
253	7
254	4
255	7
256	464
257	89
258	14
259	3
263	3
264	2
265	13
266	3
267	3
269	0
271	5
272	4
273	27
274	14
275	3
276	0
277	0
278	2
279	4
280	3
281	4
282	0
285	0
289	0
293	4
294	4
295	3
296	2
297	9
298	5
299	13
300	5
301	1
305	0
306	0
307	6
309	0
313	6
314	4
315	21
316	6
317	0
323	5
324	4
325	3
338	1
339	3
340	3
341	44
342	28
343	6
349	3
355	0
356	1
357	5
365	3
366	9
367	5
382	4
383	11
384	35
385	10
386	1
400	13
401	4
408	0
424	1
425	1
426	102
427	30
428	5
468	4
469	0
470	0
