Mass Spectrum: 3,5-Heptadiyn-2-one
Formula: C7H6O
CAS: 13879-71-5
Molecular weight: 106
m/z	intensity
41	20
42	30
43	210
48	20
49	20
50	70
51	120
52	60
53	20
55	20
60	20
61	180
62	340
63	430
64	20
65	10
66	10
73	20
74	90
75	20
76	10
77	70
78	60
79	20
90	20
91	999
92	30
106	160
107	20
