Mass Spectrum: Cyclohexanol, TMS derivative
Formula: C9H20OSi
CAS: 13871-89-1
Molecular weight: 172
m/z	intensity
25	1
26	4
27	46
28	10
29	46
30	2
31	12
36	2
39	57
40	8
41	69
42	15
43	51
44	19
45	139
46	8
47	66
48	3
49	2
50	5
51	6
52	3
53	19
54	14
55	47
56	7
57	11
58	9
59	58
60	15
61	67
62	4
63	4
64	2
65	6
66	5
67	22
68	3
69	4
70	3
71	13
72	10
73	509
74	62
75	999
76	68
77	38
78	1
79	15
80	4
81	29
82	17
83	2
85	10
87	4
89	5
90	1
91	3
92	5
93	3
97	2
98	2
99	15
100	2
101	51
102	10
103	24
104	3
105	3
108	0
111	5
112	1
113	14
114	3
115	15
116	9
117	6
127	5
128	3
129	553
130	61
131	18
132	3
133	2
134	2
141	2
142	1
143	55
144	6
145	5
153	1
157	556
158	67
159	27
160	1
171	9
172	134
173	26
174	6
