Mass Spectrum: 2-Butanol, 2-nitroso-, acetate (ester)
Formula: C6H11NO3
CAS: 13880-90-5
Molecular weight: 145
m/z	intensity
26	22
27	84
29	106
30	55
31	22
34	17
38	13
39	33
40	126
41	44
42	80
43	999
44	184
46	13
50	13
51	13
53	22
54	13
55	122
56	55
57	55
58	17
70	15
71	22
72	84
73	244
74	22
86	22
115	82
145	15
