Mass Spectrum: N-[1-(hydroxymethyl)propyl]-2-methyl-2-propenamide
Formula: C8H15NO2
CAS: 13880-06-3
Molecular weight: 157
m/z	intensity
39	260
40	61
41	964
42	73
43	26
44	31
45	3
49	1
51	2
52	2
53	11
54	13
55	42
56	31
57	11
58	30
59	4
66	1
69	999
70	52
71	5
79	1
82	21
83	29
84	3
86	27
87	3
93	1
94	3
95	8
96	26
97	5
98	8
109	1
110	82
111	28
112	4
124	16
125	3
126	324
127	25
128	2
138	2
139	40
140	16
141	3
156	1
