Mass Spectrum: (Octane-1-sulfonyl)acetic acid
Formula: C10H20O4S
CAS: 13887-94-0
Molecular weight: 236
m/z	intensity
29	168
30	3
34	6
35	7
37	4
38	27
39	317
40	80
41	970
42	455
43	999
44	137
45	90
46	13
47	19
48	31
49	5
50	8
51	15
52	5
53	64
54	70
55	586
56	385
57	903
58	48
59	67
60	357
61	70
62	5
63	34
64	31
65	39
66	9
67	69
68	83
69	331
70	236
71	604
72	36
73	8
74	2
75	2
77	9
79	20
80	35
81	132
82	62
83	194
84	147
85	20
86	2
87	5
88	2
89	2
91	11
92	4
93	4
94	10
95	11
96	11
97	42
98	5
99	1
101	2
104	6
105	3
107	75
108	6
109	12
110	29
111	20
112	125
113	22
120	8
121	5
122	2
123	3
125	362
126	9
127	17
133	19
134	1
135	3
138	4
143	1
145	15
146	2
147	2
149	4
151	6
159	4
161	12
162	2
176	4
177	195
178	17
179	12
236	97
237	11
238	5
