Mass Spectrum: N-Chloro-N-fluoro-trifluoromethylamine
Formula: CClF4N
CAS: 13880-72-3
Molecular weight: 137
m/z	intensity
31	42
33	3
35	33
36	2
37	11
38	1
49	354
50	54
51	115
52	6
64	23
69	999
70	11
83	12
99	23
101	7
137	16
138	1
139	5
