Mass Spectrum: DL-Norvaline, ethyl ester
Formula: C7H15NO2
CAS: 13893-43-1
Molecular weight: 145
m/z	intensity
18	16
27	36
28	49
29	49
30	220
31	4
39	8
41	16
42	20
43	30
44	34
45	2
46	6
49	2
55	24
56	20
57	10
70	14
72	999
73	49
74	65
84	4
86	2
102	81
