Mass Spectrum: 4-Hexenoic acid, methyl ester, (Z)-
Formula: C7H12O2
CAS: 13894-60-5
Molecular weight: 128
m/z	intensity
15	280
26	50
27	438
28	167
29	349
30	28
31	63
33	89
34	19
37	13
38	57
39	620
40	122
41	969
42	225
43	445
44	35
45	54
50	29
51	58
52	31
53	233
54	151
55	671
56	51
57	26
58	78
59	271
60	12
61	78
62	78
63	15
64	27
65	32
66	21
67	230
68	999
69	640
70	48
71	153
72	16
73	97
74	833
75	33
76	39
77	19
79	31
81	47
82	39
83	39
84	39
85	41
86	13
87	62
88	47
95	22
96	74
97	255
98	21
99	12
100	78
101	39
111	47
113	72
126	19
127	12
128	395
129	43
