Mass Spectrum: Octacosan-14-ol
Formula: C28H58O
CAS: 138967-02-9
Molecular weight: 410
m/z	intensity
27	10
29	48
39	21
41	242
42	67
43	517
44	38
45	11
53	14
54	53
55	556
56	158
57	834
58	51
66	28
67	163
68	130
69	815
70	170
71	501
72	35
80	15
81	142
82	229
83	905
84	109
85	231
86	21
95	96
96	159
97	999
98	104
99	64
100	6
101	7
109	57
110	66
111	710
112	85
113	46
123	39
124	48
125	354
126	57
127	28
137	27
138	36
139	124
140	29
141	11
151	12
152	21
153	48
154	14
166	20
167	26
168	13
170	3
180	17
181	14
182	13
194	24
195	13
196	10
199	39
208	23
213	322
214	48
215	4
222	9
227	326
228	51
229	5
236	8
241	40
242	8
250	6
363	1
364	6
390	3
391	1
392	33
393	12
394	3
409	3
