Mass Spectrum: 3-Hexanol, 1,5-dimethoxy-2,4-dimethyl-
Formula: C10H22O3
CAS: 13897-22-8
Molecular weight: 190
m/z	intensity
41	175
42	78
43	165
45	556
55	97
56	370
57	97
58	48
59	999
60	48
67	24
68	126
69	141
70	14
71	73
72	53
73	165
82	292
83	43
84	12
85	97
86	24
87	19
89	48
99	97
101	61
103	365
104	19
111	12
113	19
114	80
115	48
116	2
117	231
118	14
119	17
121	7
125	14
126	17
127	17
130	16
135	11
143	7
146	12
147	7
156	9
157	7
158	30
159	4
172	20
173	2
175	3
188	5
