Mass Spectrum: 4-Penten-2-one
Formula: C5H8O
CAS: 13891-87-7
Molecular weight: 84
m/z	intensity
12	4
13	8
15	136
25	5
26	26
27	50
28	10
29	14
31	5
37	22
38	39
39	167
40	18
41	133
42	50
43	999
44	23
50	8
51	5
53	5
55	3
69	24
84	52
