Mass Spectrum: Benzenemethanol, .alpha.-methyl-4-(2-methylpropyl)-, acetate
Formula: C14H20O2
CAS: 138948-58-0
Molecular weight: 220
m/z	intensity
26	1
27	75
29	39
30	0
38	0
39	48
41	103
42	7
43	873
44	20
45	7
50	5
51	20
52	6
53	11
54	0
55	18
56	1
57	70
58	5
59	1
60	2
61	3
62	2
63	14
64	7
65	34
66	3
67	2
69	0
70	0
71	3
72	2
73	1
74	1
75	3
76	3
77	42
78	16
79	17
80	1
81	1
87	2
88	1
89	17
90	17
91	167
92	19
93	17
94	1
101	2
102	9
103	24
104	44
105	39
106	3
107	6
113	0
114	0
115	69
116	23
117	999
118	295
119	91
120	27
121	254
122	24
123	1
126	0
127	4
128	13
129	10
130	4
131	12
132	2
133	8
134	10
135	139
136	20
137	1
139	0
141	2
142	1
143	3
144	3
145	17
146	3
147	2
148	0
149	1
153	0
159	8
160	206
161	172
162	23
163	142
164	19
165	1
176	1
177	44
178	225
179	31
180	3
205	14
206	2
219	2
220	155
221	25
222	3
