Mass Spectrum: 3-Hexenoic acid, methyl ester, (E)-
Formula: C7H12O2
CAS: 13894-61-6
Molecular weight: 128
m/z	intensity
26	29
27	226
28	20
29	96
30	8
31	23
33	4
34	0
36	0
37	10
38	29
39	279
40	44
41	999
42	91
43	155
44	9
45	16
48	0
49	2
50	19
51	33
52	16
53	114
54	60
55	181
56	14
57	8
58	4
59	315
60	9
61	4
62	5
63	8
64	1
65	18
66	13
67	112
68	540
69	550
70	29
71	136
72	10
73	4
74	503
75	14
76	1
77	1
79	1
81	40
82	3
83	2
84	0
85	23
86	14
87	43
88	2
95	13
96	75
97	71
98	4
99	10
100	9
101	0
111	4
113	46
114	2
127	3
128	177
129	13
130	0
