Mass Spectrum: 3-Hexenoic acid, methyl ester, (Z)-
Formula: C7H12O2
CAS: 13894-62-7
Molecular weight: 128
m/z	intensity
26	33
27	216
28	48
29	82
30	10
31	28
37	15
38	37
39	308
40	22
41	999
42	100
43	179
44	12
45	20
50	23
51	40
52	18
53	133
54	73
55	229
56	17
57	12
58	9
59	319
60	7
61	10
62	9
63	9
65	24
66	16
67	151
68	677
69	563
70	34
71	154
72	13
73	6
74	629
75	25
81	63
82	7
85	23
86	14
87	61
95	16
96	107
97	116
98	9
99	13
100	12
111	7
113	69
128	207
129	16
