Mass Spectrum: Furaltadone
Formula: C13H16N4O6
CAS: 139-91-3
Molecular weight: 324
m/z	intensity
42	125
51	58
52	60
54	52
56	120
63	12
64	16
68	23
70	62
71	21
72	22
79	47
80	30
81	23
83	9
99	32
100	999
101	86
115	16
125	14
128	24
184	11
202	5
319	6
