Mass Spectrum: Nicotinamide, N-(.alpha.-methylphenethyl)-
Formula: C15H16N2O
CAS: 139-68-4
Molecular weight: 240
m/z	intensity
33	2
34	0
36	2
37	4
38	29
39	84
40	48
41	51
42	48
43	27
44	52
45	1
50	132
51	280
52	52
53	16
54	2
55	6
56	3
57	6
62	10
63	30
64	30
65	107
66	7
67	1
68	0
69	2
70	4
71	2
73	0
74	2
75	7
76	27
77	146
78	523
79	48
80	2
83	0
84	0
89	27
90	53
91	215
92	24
93	2
94	0
102	2
103	9
105	274
106	999
107	68
108	3
112	0
113	0
114	2
115	19
116	17
117	98
118	162
119	16
120	1
121	3
122	20
123	116
124	6
132	1
133	2
134	1
135	0
148	124
149	472
150	44
151	1
166	0
167	2
168	0
171	1
173	0
239	0
240	10
241	0
