Mass Spectrum: Tyrosine, 3-fluoro-
Formula: C9H10FNO3
CAS: 139-26-4
Molecular weight: 199
m/z	intensity
41	9
42	22
43	31
44	12
45	28
46	42
47	1
49	2
50	16
51	83
52	16
53	25
54	3
55	8
56	7
57	59
58	3
59	3
60	2
61	2
62	10
63	17
64	5
65	4
66	2
67	1
68	11
69	9
70	13
71	4
73	9
74	288
75	60
76	14
77	165
78	23
79	14
80	4
81	10
82	3
83	17
84	3
85	2
86	1
87	3
88	2
89	13
90	2
91	1
92	3
93	2
94	2
95	13
96	17
97	9
98	3
99	2
103	2
104	11
105	30
106	15
107	23
108	5
109	53
110	4
111	2
112	6
116	10
117	3
122	1
123	6
124	9
125	999
126	309
127	20
132	4
133	2
134	5
135	3
136	6
137	10
138	17
139	2
151	2
152	10
153	27
154	67
155	4
165	2
181	5
182	3
199	110
200	23
201	3
