Mass Spectrum: 3-(t-Butyl)-5-azopyrazole
Formula: C7H14N4
CAS: 139078-00-5
Molecular weight: 154
m/z	intensity
27	158
28	999
29	335
30	157
31	191
35	155
41	174
42	67
43	167
44	55
45	62
54	32
57	67
58	142
59	421
66	34
67	173
68	27
81	32
82	22
87	43
88	533
89	30
94	51
95	25
108	33
109	42
122	29
123	22
124	31
137	32
138	23
139	95
152	17
154	240
155	28
