Mass Spectrum: 1,3-Dithiane, 2-undecyl-
Formula: C15H30S2
CAS: 139021-95-7
Molecular weight: 274
m/z	intensity
26	19
27	4
28	39
38	17
39	2
41	112
42	10
43	60
44	1
45	36
46	14
47	21
48	0
49	0
53	7
54	5
55	72
56	7
57	20
58	4
59	14
60	32
61	23
62	1
63	0
64	2
65	2
66	2
67	32
68	11
69	39
70	3
71	10
72	3
73	48
74	44
75	30
76	3
77	3
78	1
79	8
80	1
81	24
82	17
83	26
84	2
85	14
86	2
87	48
88	4
89	3
91	9
92	1
93	3
94	1
95	18
96	12
97	20
98	1
99	3
100	2
101	29
102	3
103	2
105	20
106	54
107	34
108	13
109	12
110	5
111	9
113	1
115	6
116	0
117	0
119	999
120	61
121	92
122	4
123	6
124	2
125	1
127	0
129	3
131	0
133	16
134	21
135	3
136	1
137	1
138	1
143	5
145	2
147	6
157	3
159	0
165	0
166	4
167	0
171	0
175	0
189	1
191	0
199	208
200	38
201	12
202	1
203	1
205	0
215	0
217	1
219	1
227	9
228	1
231	0
241	3
273	5
274	262
275	55
276	28
277	5
