Mass Spectrum: 1-(2-Chloroethyl)-3-(4-methylcyclohexyl)urea
Formula: C10H19ClN2O
CAS: 13908-15-1
Molecular weight: 218
m/z	intensity
35	13
36	61
37	4
38	23
39	124
40	32
41	267
42	117
43	331
44	292
45	10
49	15
50	2
51	13
52	6
53	36
54	56
55	215
56	999
57	108
58	13
60	8
61	22
62	5
63	110
64	4
65	42
66	5
67	63
68	30
69	48
70	38
71	13
73	18
77	16
78	19
79	21
80	66
81	92
82	45
83	16
84	26
85	22
86	7
87	66
88	2
91	4
93	7
94	5
95	46
96	36
97	37
98	11
99	6
105	2
106	11
107	2
108	4
109	3
110	2
111	11
112	41
113	12
114	1
122	2
123	323
124	17
125	121
126	6
127	3
135	4
137	2
139	3
140	5
141	2
148	3
149	6
150	1
151	2
153	1
161	159
162	14
163	60
164	4
165	1
167	5
168	1
169	1
175	8
176	1
177	2
181	1
182	21
183	41
184	5
189	1
203	3
205	1
218	20
219	4
220	5
221	1
