Mass Spectrum: N-Benzylidenebenzenesulfonamide
Formula: C13H11NO2S
CAS: 13909-34-7
Molecular weight: 245
m/z	intensity
15	0
16	4
17	13
18	40
25	0
26	5
27	29
28	9
29	4
32	2
36	0
37	5
38	10
39	35
40	2
41	3
42	1
43	4
44	2
45	6
46	1
47	1
48	4
49	4
50	107
51	365
52	29
53	7
54	1
55	3
56	1
57	4
58	1
60	0
61	1
62	5
63	9
64	8
65	13
66	6
67	1
68	0
69	6
70	2
71	3
72	0
73	3
74	23
75	20
76	34
77	999
78	123
79	7
80	2
81	3
82	2
83	2
84	1
85	1
89	4
91	5
92	3
93	27
94	17
95	2
96	1
97	13
98	1
99	1
102	2
103	9
104	273
105	47
106	24
107	2
108	1
109	3
110	1
111	1
112	1
113	1
115	1
119	0
122	2
124	0
125	11
126	2
127	2
128	1
129	1
139	1
141	342
142	67
143	20
144	3
149	0
150	0
151	3
152	12
153	5
154	3
155	0
157	25
158	2
159	1
168	1
171	2
178	0
179	0
180	20
181	31
182	4
244	0
245	58
246	10
247	3
248	0
