Mass Spectrum: 6H-1,4-Diazepin-6-one, 2,3-dihydro-5,7-dimethyl-, 4-bromophenylhydrazone
Formula: C13H15BrN4
CAS: 139038-69-0
Molecular weight: 306
m/z	intensity
26	36
27	180
28	314
29	74
30	92
31	52
37	18
38	44
39	223
40	68
41	184
42	999
43	68
44	28
45	21
46	12
50	102
51	51
52	75
53	312
54	239
55	356
56	83
57	15
61	13
62	39
63	201
64	109
65	105
66	77
67	183
68	631
69	107
70	20
71	5
72	1
73	6
74	35
75	113
76	150
77	36
78	23
79	40
80	84
81	97
82	801
83	79
84	54
85	80
86	4
87	4
88	14
89	16
90	198
91	134
92	50
93	71
94	280
95	609
96	147
97	27
98	4
99	1
100	1
101	1
102	7
103	7
104	17
105	26
106	12
107	343
108	68
109	33
110	23
111	19
112	3
113	3
114	6
115	21
116	13
117	14
118	4
119	21
120	4
121	9
122	44
123	304
124	76
125	21
127	2
128	5
129	9
130	7
131	6
134	13
135	19
136	363
137	147
138	13
142	8
143	30
144	7
145	31
149	19
150	2
151	25
152	3
153	6
154	8
155	148
156	14
157	149
158	13
159	2
169	43
170	27
171	193
172	39
173	145
174	11
181	3
182	36
183	264
184	378
185	280
186	344
187	27
188	1
194	4
195	4
196	20
197	6
198	19
199	5
200	1
247	4
248	17
249	9
250	20
251	5
252	6
261	3
262	6
263	9
264	39
265	18
266	34
267	11
268	1
276	8
277	16
278	21
279	22
280	16
281	5
289	9
290	9
291	16
292	7
293	5
294	1
305	48
306	532
307	145
308	525
309	104
310	9
