Mass Spectrum: 1,1-Dichloro-4,4-diethoxy-2-butyne
Formula: C8H12Cl2O2
CAS: 139185-49-2
Molecular weight: 210
m/z	intensity
36	44
37	70
38	138
39	234
40	38
41	35
43	138
44	46
45	31
47	999
49	53
50	104
51	38
55	40
57	19
59	67
65	82
67	25
73	337
75	825
76	46
77	63
83	88
85	128
87	47
89	25
101	46
103	857
104	53
105	62
107	31
109	265
111	217
113	34
136	21
138	381
140	231
142	39
166	234
168	162
