Mass Spectrum: 1,3-Methanopentalene, octahydro-
Formula: C9H14
CAS: 13913-22-9
Molecular weight: 122
m/z	intensity
39	270
41	230
53	210
67	470
79	999
80	750
81	800
93	620
94	410
107	190
121	40
122	10
