Mass Spectrum: Z,Z-2,5-Pentadecadien-1-ol
Formula: C15H28O
CAS: 139185-79-8
Molecular weight: 224
m/z	intensity
41	971
42	238
43	728
44	331
45	61
46	2
47	8
49	11
50	24
51	49
52	20
53	178
54	217
55	445
56	273
57	999
58	88
59	26
60	5
61	3
62	2
63	9
65	56
66	80
67	496
68	96
69	180
70	139
71	186
72	68
73	11
74	4
75	1
77	68
78	61
79	239
80	242
81	232
82	547
83	218
84	73
85	196
86	15
87	14
88	0
89	1
91	55
92	14
93	77
94	51
95	169
96	84
97	99
98	30
99	23
100	32
101	59
102	12
103	16
104	1
105	8
106	6
107	24
108	18
109	120
110	32
111	42
112	12
113	6
114	1
115	4
117	1
119	7
120	1
121	30
122	10
123	50
124	18
125	14
126	6
127	3
128	1
129	2
131	3
132	4
133	6
134	7
135	20
136	7
137	16
138	10
139	5
140	4
141	8
142	2
145	3
146	0
147	3
148	1
149	8
150	2
151	9
152	12
153	7
154	2
155	5
157	1
159	1
160	1
161	2
162	1
163	6
164	5
165	30
166	13
167	4
168	1
169	5
171	1
173	4
175	4
177	5
178	0
179	2
180	6
181	2
182	2
183	4
184	11
185	5
187	0
189	3
191	5
193	1
195	0
196	1
197	1
205	5
206	74
207	22
208	8
209	6
221	1
222	1
223	2
224	5
225	3
