Mass Spectrum: 1-Pyrazolidinecarbothioamide, N-(2-benzoyl-4-chlorophenyl)-
Formula: C17H16ClN3OS
CAS: 139192-97-5
Molecular weight: 345
m/z	intensity
14	133
15	16
16	54
27	49
29	76
30	56
34	16
36	22
38	11
39	32
40	140
41	49
42	54
43	58
44	262
50	50
51	174
52	12
57	16
62	12
63	17
69	20
70	15
71	78
72	260
73	18
74	36
75	51
76	28
77	537
78	39
88	13
99	10
100	14
105	999
106	81
124	40
126	16
133	123
134	13
137	16
150	12
151	15
152	13
168	61
170	29
177	11
178	11
196	277
197	29
198	102
199	11
213	45
214	12
215	19
238	30
240	15
245	11
272	88
273	426
274	103
275	161
276	28
