Mass Spectrum: 1-Pyrazolidinecarboxamide, N-(1-naphthalenyl)-
Formula: C14H15N3O
CAS: 139193-05-8
Molecular weight: 241
m/z	intensity
14	44
15	14
16	18
27	33
29	31
30	64
38	12
39	40
40	42
41	32
42	44
43	75
44	300
50	21
51	24
57	33
58	17
62	26
63	49
64	14
69	19
70	45
71	215
72	999
73	44
74	18
75	22
76	13
77	14
85	60
86	10
87	20
88	29
113	53
114	121
115	92
116	17
126	13
127	30
140	171
141	212
142	38
143	45
169	738
170	101
171	11
239	13
241	164
242	28
