Mass Spectrum: 1-Pyrazolidinecarbothioamide, N-methyl-
Formula: C5H11N3S
CAS: 139192-92-0
Molecular weight: 145
m/z	intensity
14	34
15	63
16	13
26	18
27	83
29	51
30	371
31	14
34	15
39	26
40	34
41	73
42	163
43	188
44	724
45	41
46	20
47	48
54	17
55	34
56	65
57	95
59	44
60	53
69	53
70	21
71	514
72	999
73	63
74	330
75	133
76	27
83	22
86	17
87	28
88	11
90	40
113	12
115	26
116	11
143	14
145	770
146	65
147	38
