Mass Spectrum: 2H-Pyrrol-2-one, 1,5-dihydro-5-methoxy-3,5-dimethyl-
Formula: C7H11NO2
CAS: 13917-74-3
Molecular weight: 141
m/z	intensity
28	159
29	206
30	36
31	567
32	425
33	7
34	1
35	2
36	24
37	25
38	56
39	233
40	180
41	510
42	87
43	23
44	17
45	9
46	0
47	1
48	1
49	6
50	25
51	35
52	39
53	59
54	145
55	19
56	4
57	6
58	2
59	6
60	2
61	9
62	17
63	38
64	32
65	119
66	234
67	71
68	75
69	16
70	4
71	3
72	0
73	0
74	4
75	2
76	2
77	4
78	2
79	6
80	71
81	49
82	120
83	10
84	1
85	1
86	0
87	0
88	0
89	1
90	0
91	18
92	2
93	5
94	6
95	4
96	3
97	2
98	0
99	0
100	0
101	0
102	0
103	0
104	0
105	2
106	0
107	3
108	14
109	999
110	79
111	8
112	0
113	0
114	0
115	3
116	1
117	10
118	7
119	1
120	0
121	0
122	1
123	0
124	0
125	0
126	2
127	0
128	0
129	0
130	0
131	0
133	0
135	0
137	0
138	0
139	0
140	0
141	2
142	0
