Mass Spectrum: 1-Pyrazolidinecarboxamide, N-phenyl-
Formula: C10H13N3O
CAS: 139193-02-5
Molecular weight: 191
m/z	intensity
14	36
15	15
16	15
27	33
29	24
30	81
38	17
39	50
40	32
41	36
42	49
43	97
44	341
50	13
51	42
52	12
57	15
63	22
64	46
65	53
66	17
69	33
70	53
71	303
72	999
73	42
77	66
91	67
92	31
93	49
119	139
120	21
189	11
191	168
192	21
