Mass Spectrum: 2-Pyrazinecarboxylic acid, 6-hydroxy, methyl ester
Formula: C6H6N2O3
CAS: 13924-98-6
Molecular weight: 154
m/z	intensity
41	79
42	52
43	16
44	12
45	25
47	8
48	1
52	20
53	103
54	51
55	23
56	8
57	4
59	76
60	3
64	3
65	14
66	138
67	465
68	228
69	18
70	7
71	12
77	3
78	10
79	1
81	13
82	5
83	5
88	1
93	3
94	135
95	999
96	279
97	17
98	2
99	4
108	2
111	2
121	1
122	2
123	46
124	45
125	10
126	174
127	11
139	1
154	494
155	41
156	4
