Mass Spectrum: Propanoic acid, 2-(2,2,5,5-tetramethyl-1,2,5-azadisilolan-1-yl)-, methyl ester
Formula: C10H23NO2Si2
CAS: 139215-47-7
Molecular weight: 245
m/z	intensity
25	1
26	10
27	33
28	72
29	48
30	6
31	70
33	4
34	1
35	1
36	0
37	1
38	1
39	8
40	11
41	18
42	20
43	227
44	116
45	169
46	11
47	10
48	1
49	5
50	2
51	8
52	5
53	13
54	6
55	43
56	16
57	44
58	154
59	999
60	86
61	48
62	2
63	2
64	4
65	5
66	7
67	7
68	8
69	17
70	63
71	74
72	61
73	408
74	44
75	120
76	8
77	6
78	1
79	2
80	4
81	3
82	2
83	19
84	19
85	489
86	48
87	204
88	52
89	184
90	15
91	10
92	2
93	5
94	6
95	3
96	2
97	4
98	12
99	26
100	169
101	73
102	40
103	34
104	8
105	10
106	2
107	1
108	2
109	5
110	8
111	4
112	13
113	20
114	23
115	40
116	81
117	158
118	28
119	33
120	5
121	3
124	1
125	1
126	7
127	5
128	32
129	32
130	449
131	112
132	67
133	284
134	43
135	23
136	3
137	1
138	1
139	1
140	3
141	7
142	37
143	29
144	27
145	81
146	56
147	25
148	7
149	12
150	2
151	2
152	1
153	1
154	3
155	3
156	21
157	10
158	18
159	14
160	12
161	167
162	89
163	32
164	7
165	2
166	1
167	1
168	4
169	2
170	114
171	33
172	46
173	13
174	27
175	19
176	5
177	4
178	2
179	1
180	1
181	2
182	1
183	1
184	12
185	11
186	877
187	185
188	85
189	12
190	3
191	6
192	1
193	2
198	2
199	1
200	5
201	3
202	329
203	71
204	30
205	7
206	2
207	4
208	0
212	1
213	0
214	5
215	3
216	18
217	8
218	3
219	14
220	4
221	3
222	0
223	1
228	4
229	3
230	846
231	183
232	80
233	11
234	3
235	2
244	8
245	154
246	34
247	14
248	2
249	0
250	0
