Mass Spectrum: 3,5,9-Undecatrien-2-one, 6,10-dimethyl-, (E,Z)-
Formula: C13H20O
CAS: 13927-47-4
Molecular weight: 192
m/z	intensity
16	3
26	11
27	135
29	74
38	11
39	153
40	1
41	835
42	50
43	584
44	19
45	27
50	13
51	52
52	24
53	121
54	13
55	60
56	10
57	10
58	10
62	5
63	21
64	6
65	64
66	18
67	89
68	22
69	999
70	70
71	11
74	3
75	6
76	4
77	101
78	27
79	135
80	165
81	640
82	71
83	13
86	13
89	6
91	87
92	28
93	59
94	23
95	30
96	7
98	5
99	4
103	11
104	4
105	38
106	36
107	62
108	30
109	481
110	46
111	7
115	13
116	7
117	15
118	9
119	52
120	9
121	38
122	18
123	18
124	148
125	18
128	8
129	6
130	5
131	18
132	19
133	13
134	67
135	42
136	13
141	5
142	7
143	4
145	7
146	4
147	10
148	7
149	62
150	9
155	4
157	9
158	4
159	47
160	5
163	7
164	8
172	4
173	5
174	20
175	7
177	65
178	9
192	93
193	14
