Mass Spectrum: 1-Phthalazinecarbonitrile, 2-benzoyl-1,2-dihydro-
Formula: C16H11N3O
CAS: 13925-27-4
Molecular weight: 261
m/z	intensity
50	130
51	420
53	20
62	20
63	40
74	30
75	70
76	110
77	410
78	110
101	50
102	50
103	20
104	20
105	999
106	240
107	20
127	20
128	20
129	20
130	60
156	999
157	120
261	50
262	10
