Mass Spectrum: N,N'-Bis(2-dimethylaminoethyl)-N,N'-dimethylpropane-1,3-diamine
Formula: C13H32N4
CAS: 139258-71-2
Molecular weight: 244
m/z	intensity
26	4
27	12
28	14
29	11
30	24
31	2
38	1
39	6
40	2
41	37
42	101
43	38
44	49
45	6
46	1
50	0
51	0
52	0
53	0
54	3
55	6
56	23
57	43
58	999
59	44
60	1
61	0
64	0
65	0
66	0
67	2
68	4
69	3
70	64
71	42
72	308
73	16
74	0
77	1
78	0
79	0
80	0
81	2
82	9
83	6
84	155
85	32
86	37
87	3
88	0
89	0
90	0
91	1
92	0
93	0
94	1
95	0
96	5
97	24
98	9
99	11
100	14
101	5
102	5
103	13
104	1
105	1
106	0
107	0
108	0
109	0
110	1
111	3
112	2
113	35
114	4
115	175
116	17
117	3
118	0
119	0
120	0
121	0
122	0
123	0
124	0
125	1
126	2
127	12
128	16
129	30
130	4
131	0
139	0
140	0
141	24
142	18
143	4
144	1
148	1
149	0
153	0
154	3
155	10
156	2
157	0
166	0
167	0
168	2
169	0
170	1
171	1
172	2
173	0
174	2
175	0
181	0
182	0
183	0
184	0
185	1
186	79
187	12
188	1
189	0
199	1
200	4
201	1
213	0
242	0
