Mass Spectrum: Benzylephedrine
Formula: C17H21NO
CAS: 139253-56-8
Molecular weight: 255
m/z	intensity
39	10
40	1
41	4
42	22
43	5
44	5
50	6
51	17
52	5
56	26
57	6
58	8
63	8
64	4
65	62
66	5
76	4
77	65
78	11
79	39
89	14
90	10
91	999
92	79
105	21
106	10
107	7
115	6
117	6
118	5
120	5
132	6
146	11
147	11
148	851
149	100
150	5
