Mass Spectrum: Cobalt, di-.mu.-chlorotetranitrosyldi-
Formula: Cl2Co2N4O4
CAS: 13931-93-6
Molecular weight: 308
m/z	intensity
59	999
89	100
94	620
124	820
154	690
188	80
218	30
248	50
278	40
308	10
