Mass Spectrum: Pyrrolidine, 1-(1-pentenyl)-
Formula: C9H17N
CAS: 13937-90-1
Molecular weight: 139
m/z	intensity
26	20
27	80
28	9
29	60
30	30
39	70
40	20
41	200
43	160
44	40
52	20
53	35
54	40
55	140
56	50
57	100
65	10
66	10
67	60
68	70
69	80
70	140
71	120
79	30
80	30
81	80
82	40
83	80
84	40
85	40
93	20
94	20
95	60
96	60
97	80
98	20
99	20
106	20
107	20
108	60
109	50
110	999
111	140
112	20
113	10
120	15
121	10
122	20
123	30
124	60
135	20
136	20
137	40
138	50
139	220
140	40
141	20
