Mass Spectrum: Trimethylsilyl-di(timethylsiloxy)-silane
Formula: C9H28O2Si4
CAS: 139347-50-5
Molecular weight: 280
m/z	intensity
40	7
43	33
44	16
45	149
46	6
47	3
57	6
58	14
59	136
60	7
61	4
71	4
72	10
73	999
74	102
75	65
77	7
82	2
87	5
88	3
89	3
101	4
103	44
104	3
105	7
113	3
115	8
116	2
117	132
118	13
119	22
120	1
129	4
131	50
132	4
133	129
134	15
135	6
137	2
139	2
147	156
148	20
149	10
159	2
161	9
163	2
175	25
176	3
177	179
178	32
179	19
180	1
189	23
190	3
191	942
192	216
193	133
194	16
195	5
205	33
206	34
207	405
208	89
209	49
210	5
211	1
221	16
222	3
249	2
263	1
265	49
266	12
267	6
279	22
280	22
281	8
