Mass Spectrum: Benzenepropanoic acid, .alpha.-(1-aminoethyl)-, [R-(R*,R*)]-
Formula: C11H15NO2
CAS: 139344-69-7
Molecular weight: 193
m/z	intensity
26	2
27	22
28	24
29	5
30	11
31	1
37	2
38	5
39	36
40	5
41	17
42	45
43	18
44	999
45	48
46	2
50	18
51	50
52	14
53	9
54	8
55	8
56	11
57	3
61	2
62	6
63	21
64	7
65	59
66	6
67	2
68	3
69	8
70	18
71	2
73	2
74	7
75	8
76	8
77	67
78	39
79	21
80	2
82	2
83	5
84	28
85	2
86	2
87	4
88	2
89	13
90	6
91	305
92	43
93	4
94	2
97	2
98	1
100	1
101	5
102	82
103	44
104	30
105	13
106	4
107	11
108	1
115	25
116	9
117	64
118	7
119	1
120	2
121	1
127	3
128	6
129	8
130	16
131	54
132	65
133	10
134	1
136	3
141	1
142	1
143	1
144	1
146	3
147	4
148	2
149	3
150	6
158	7
159	1
160	2
161	4
175	1
176	33
177	4
178	5
179	1
192	1
193	19
194	3
