Mass Spectrum: 2H-Bisoxireno[2,3:8,8a]azuleno[4,5-b]furan-7(3aH)-one, octahydro-3a,8c-dimethyl-6-methylene-, (1aR,2aR,3aS,5aS,8aS,8bS,8cS)-
Formula: C15H18O4
CAS: 139343-89-8
Molecular weight: 262
m/z	intensity
31	56
39	320
40	120
41	695
43	999
44	120
50	40
51	80
52	88
53	535
54	80
55	400
65	200
66	112
67	392
68	80
69	256
71	160
77	328
78	88
79	400
80	88
81	280
82	120
91	408
92	80
93	256
94	144
95	591
96	384
97	312
105	240
107	200
108	80
109	400
110	120
111	799
112	240
115	80
117	120
119	152
120	72
121	176
122	136
123	440
124	96
125	120
131	120
133	120
137	128
138	80
139	535
145	120
147	80
149	200
150	120
151	112
159	88
160	48
161	88
162	56
163	120
173	64
174	40
175	80
176	48
177	80
178	80
187	40
188	48
189	56
190	80
191	96
192	96
201	64
203	40
204	40
206	40
219	120
220	40
244	24
247	40
262	96
