Mass Spectrum: Acetic acid, 2-(2-furoylhydrazono)-
Formula: C7H6N2O4
CAS: 139397-87-8
Molecular weight: 182
m/z	intensity
33	1
35	0
36	31
37	242
38	428
39	740
41	199
42	209
43	85
45	300
46	4
47	1
48	6
49	19
50	29
51	50
52	54
53	76
54	40
55	40
56	13
57	3
58	5
59	15
60	1
61	0
62	3
63	6
64	13
65	20
66	54
67	84
68	21
69	12
70	5
71	6
72	0
73	2
74	1
75	4
77	6
79	3
80	4
81	7
82	11
83	7
84	4
85	0
86	0
87	30
88	1
89	1
91	7
93	17
95	999
96	45
97	7
98	1
101	4
103	2
105	2
108	3
109	1
110	4
111	18
112	2
113	2
115	0
119	3
123	11
124	1
126	44
127	3
137	200
138	12
139	2
144	0
150	0
151	11
152	1
153	2
154	0
156	0
164	0
165	2
166	5
169	0
181	0
182	3
