Mass Spectrum: s-Triazolo[4,3-a]pyridine, 3,8-dimethyl-
Formula: C8H9N3
CAS: 13936-48-6
Molecular weight: 147
m/z	intensity
39	410
41	200
42	150
50	150
51	270
52	290
53	150
65	120
76	100
77	60
78	290
79	770
80	120
104	100
105	999
106	290
146	60
147	710
148	100
