Mass Spectrum: 3-Acetyl-1,5-diphenyl-1H-[1,2,4]triazin-6-one
Formula: C17H13N3O2
CAS: 139456-35-2
Molecular weight: 291
m/z	intensity
37	6
38	22
39	83
40	13
41	40
42	16
43	999
44	34
45	7
46	0
49	1
50	35
51	151
52	31
53	5
54	3
55	12
56	4
57	12
58	1
59	7
60	4
61	3
62	19
63	94
64	154
65	91
66	7
67	4
68	2
69	8
70	8
71	6
72	3
73	3
74	6
75	13
76	46
77	237
78	19
79	2
80	0
81	3
82	2
83	5
84	2
85	2
86	2
87	7
88	15
89	130
90	34
91	569
92	41
93	3
94	0
95	2
96	1
97	4
98	2
99	1
100	0
101	1
102	4
103	48
104	46
105	14
106	2
107	0
109	2
110	1
111	2
112	0
113	1
114	6
115	19
116	40
117	72
118	632
119	98
120	6
121	0
122	0
123	0
124	0
125	1
126	0
127	0
128	1
129	26
130	7
131	3
132	2
133	0
135	0
138	0
139	0
140	0
141	0
143	2
144	124
145	15
146	2
147	0
149	0
151	0
152	0
153	0
158	0
160	117
161	13
162	0
164	0
165	1
166	0
167	0
168	0
170	0
178	1
179	0
180	3
181	0
186	9
187	1
188	4
192	1
193	1
194	1
195	0
196	0
206	2
207	0
219	0
220	9
221	3
222	1
234	2
235	4
236	1
237	0
238	0
247	0
248	38
249	8
250	1
262	5
263	25
264	5
265	0
276	0
290	0
291	245
292	47
293	7
294	0
