Mass Spectrum: 3-Acetyl-1-(4-chlorophenyl)-5-methyl-4,5-dihydro-1H-[1,2,4]triazin-6-one
Formula: C12H12ClN3O2
CAS: 139455-72-4
Molecular weight: 265
m/z	intensity
37	7
38	19
39	47
40	15
41	35
42	143
43	999
44	215
45	11
46	0
47	2
48	0
49	5
50	34
51	26
52	13
53	12
54	29
55	57
56	54
57	14
58	1
59	6
60	3
61	9
62	27
63	98
64	41
65	13
66	3
67	9
68	10
69	96
70	20
71	6
72	4
73	25
74	15
75	94
76	21
77	11
78	2
79	1
80	1
81	2
82	7
83	6
84	4
85	13
86	3
87	5
88	7
89	30
90	126
91	25
92	5
93	2
94	0
95	2
96	3
97	8
98	21
99	68
100	9
101	23
102	5
103	7
104	2
105	2
106	1
107	1
108	0
109	1
110	2
111	82
112	8
113	26
114	3
115	1
116	2
117	7
118	5
119	2
120	0
121	0
122	0
123	3
124	6
125	186
126	64
127	78
128	21
129	7
130	2
131	2
132	1
133	1
136	0
137	1
138	36
139	9
140	13
141	6
142	4
143	2
144	2
145	4
146	5
147	1
148	1
149	3
150	1
151	5
152	45
153	52
154	21
155	16
156	2
157	0
158	1
159	4
160	2
161	0
162	0
163	0
164	0
165	1
166	1
167	1
168	0
169	0
171	0
172	0
177	1
178	0
179	2
180	120
181	13
182	38
183	3
185	1
186	1
187	9
188	3
189	1
192	0
193	1
194	13
195	2
196	4
197	1
199	0
200	1
201	0
203	0
204	16
205	2
206	7
207	1
208	2
212	0
213	0
216	1
218	1
220	1
221	2
222	739
223	91
224	246
225	28
226	2
229	0
230	3
231	1
232	0
234	1
235	0
236	22
237	5
238	7
239	1
250	13
251	1
252	4
253	0
263	3
264	1
265	311
266	46
267	102
268	13
269	1
