Mass Spectrum: 1-Deoxy-d-arabitol
Formula: C5H12O4
CAS: 13942-77-3
Molecular weight: 136
m/z	intensity
41	197
42	183
43	602
44	491
45	999
46	54
47	38
49	2
51	2
53	12
55	319
56	791
57	570
58	473
59	103
60	138
61	510
62	35
63	10
69	31
70	79
71	42
73	336
74	942
75	613
76	28
77	8
78	9
83	5
85	16
86	5
87	109
88	56
89	5
90	2
91	39
101	9
103	17
105	27
106	4
119	15
135	3
136	9
