Mass Spectrum: 3-Acetyl-1-(4-chlorophenyl)-5-hydroxymethyl-4,5-dihydro-1H-[1,2,4]triazin-6-one
Formula: C12H12ClN3O3
CAS: 139455-88-2
Molecular weight: 281
m/z	intensity
37	6
38	15
39	41
40	19
41	39
42	60
43	999
44	45
45	11
46	1
47	3
48	1
49	4
50	27
51	21
52	11
53	11
54	23
55	32
56	10
57	21
58	5
59	12
60	42
61	9
62	21
63	80
64	34
65	13
66	5
67	7
68	33
69	12
70	39
71	36
72	8
73	24
74	12
75	81
76	20
77	14
78	3
79	3
80	1
81	4
82	11
83	13
84	7
85	15
86	4
87	5
88	6
89	23
90	102
91	27
92	7
93	3
94	1
95	3
96	2
97	7
98	80
99	62
100	9
101	20
102	6
103	3
104	2
105	3
106	2
107	2
108	1
109	1
110	12
111	87
112	11
113	28
114	8
115	1
116	1
117	8
118	9
119	5
120	1
121	1
122	0
123	2
124	4
125	106
126	172
127	75
128	58
129	15
130	2
131	2
132	2
133	1
134	0
135	0
136	0
137	3
138	61
139	11
140	20
141	21
142	4
143	5
144	3
145	5
146	3
147	21
148	2
149	3
150	0
151	4
152	17
153	44
154	17
155	16
156	4
157	2
158	0
159	0
160	0
162	0
163	2
164	0
165	2
166	10
167	3
168	3
169	1
170	1
171	0
172	1
173	1
174	2
175	1
176	0
177	2
178	1
179	8
180	107
181	19
182	37
183	6
184	1
185	0
186	0
187	3
188	1
189	0
190	0
191	0
192	1
193	1
194	1
195	1
196	1
197	1
198	1
199	1
200	1
204	14
205	1
206	5
207	1
208	34
209	23
210	14
211	7
212	1
213	0
214	0
215	3
216	3
217	1
220	0
221	1
222	137
223	18
224	48
225	9
226	2
227	1
228	0
232	2
234	2
235	0
236	1
237	2
238	0
239	1
246	2
247	1
249	2
250	214
251	191
252	90
253	62
254	7
255	0
256	0
263	2
264	0
265	3
266	0
267	1
279	0
281	133
282	19
283	43
284	6
285	0
