Mass Spectrum: 1,6-Dihydroxy-8(10)-p-menthen-2-one
Formula: C10H16O3
CAS: 139462-56-9
Molecular weight: 184
m/z	intensity
14	1
15	22
18	1
26	6
27	92
28	35
29	51
30	2
31	23
37	2
38	8
39	167
40	41
41	323
42	55
43	670
44	88
45	81
46	2
47	5
50	9
51	31
52	16
53	131
54	23
55	221
56	64
57	38
58	13
59	170
60	6
61	9
62	3
63	9
64	2
65	37
66	17
67	224
68	130
69	681
70	228
71	450
72	56
73	56
74	192
75	9
76	2
77	51
78	11
79	108
80	134
81	227
82	35
83	175
84	14
85	35
86	19
87	999
88	257
89	14
90	2
91	27
92	5
93	64
94	23
95	324
96	89
97	558
98	488
99	49
100	9
101	32
102	4
103	5
104	1
105	27
106	9
107	29
108	14
109	120
110	22
111	80
112	19
113	20
114	14
115	4
116	5
117	1
119	4
120	6
121	13
122	34
123	645
124	99
125	83
126	10
127	10
128	37
129	3
133	9
134	1
135	4
137	18
138	27
139	16
140	41
141	169
142	22
143	2
147	2
148	16
149	11
150	6
151	47
152	5
153	3
155	1
156	6
164	1
165	5
166	155
167	70
168	8
169	4
184	718
185	94
186	9
