Mass Spectrum: 2-(4-Fluorophenyl)-1-oxo-1,9,9a,10-tetrahydro-2H-2,3,4a-triazaanthracene-4-carboxylic acid, methyl ester
Formula: C19H16FN3O3
CAS: 139456-33-0
Molecular weight: 353
m/z	intensity
35	1
36	1
37	1
38	2
39	33
40	2
41	17
42	17
43	29
44	4
45	2
47	2
48	1
49	1
50	5
51	14
52	6
53	5
54	10
55	20
56	7
57	36
58	3
59	31
60	2
61	1
62	5
63	11
64	4
65	12
66	1
67	7
68	3
69	17
70	7
71	19
72	2
73	3
74	2
75	13
76	7
77	59
78	111
79	17
80	2
81	12
82	36
83	35
84	5
85	13
86	3
87	2
88	1
89	65
90	15
91	46
92	4
93	3
94	3
95	55
96	8
97	13
98	3
99	5
100	2
101	8
102	23
103	130
104	999
105	106
106	6
107	4
108	7
109	116
110	18
111	12
112	3
113	5
114	3
115	63
116	29
117	16
118	4
119	4
120	2
121	2
122	4
123	5
124	2
125	5
126	4
127	4
128	28
129	27
130	187
131	40
132	5
133	4
134	1
135	5
136	2
137	32
138	4
139	3
140	3
141	4
142	5
143	4
144	4
145	2
146	1
147	2
149	3
150	1
151	2
152	1
153	2
154	2
155	24
156	13
157	25
158	7
159	2
161	1
162	1
163	3
165	2
167	2
168	1
169	2
170	1
171	1
173	1
175	1
176	1
177	1
179	1
180	1
181	1
182	1
183	2
184	1
186	1
188	2
189	1
190	2
191	1
193	1
194	1
195	1
196	1
197	1
201	2
202	1
203	1
207	1
209	1
210	1
211	1
212	1
214	3
215	66
216	120
217	17
218	2
221	2
222	1
223	1
224	2
225	1
236	1
237	2
238	1
239	1
249	1
251	1
252	1
264	1
265	2
266	37
267	8
268	1
280	1
281	1
282	1
292	3
293	1
294	6
295	2
322	10
323	3
324	7
325	2
336	2
351	2
353	229
354	49
355	7
356	1
