Mass Spectrum: Ethanone, 2-(benzothiazol-2-ylthio)-1-phenyl-
Formula: C15H11NOS2
CAS: 13944-95-1
Molecular weight: 285
m/z	intensity
33	13
35	1
37	11
38	24
39	104
40	21
41	16
42	11
43	12
45	118
46	13
47	4
50	62
51	243
52	18
53	5
54	2
55	3
57	9
58	21
59	4
60	3
63	99
64	28
65	65
66	4
67	1
69	77
70	13
71	8
72	2
74	27
75	25
77	558
78	49
79	3
81	13
82	30
83	7
84	6
85	1
86	1
87	2
88	2
89	12
90	26
91	60
92	6
94	7
95	13
96	11
97	2
98	0
99	0
100	1
102	21
103	18
105	999
106	70
108	89
109	26
110	4
111	4
112	1
113	0
114	0
116	9
118	16
120	18
121	11
122	33
123	6
124	1
125	0
126	0
127	0
128	0
129	0
130	0
131	0
133	8
134	15
135	21
136	34
137	4
138	2
139	5
140	4
141	1
142	0
143	0
145	0
146	1
147	0
148	3
149	2
150	1
151	1
152	1
153	1
154	0
155	0
157	0
158	0
159	0
161	0
162	0
163	0
164	0
166	38
167	34
168	5
169	3
170	0
171	1
172	0
173	0
174	0
176	1
177	0
178	1
180	128
181	12
182	11
183	2
184	1
185	1
186	0
187	0
189	0
190	0
191	0
192	0
194	0
197	0
198	0
199	0
200	0
201	1
202	0
203	0
204	0
205	0
206	0
207	1
208	1
209	0
210	0
211	0
212	0
213	0
222	0
223	1
224	1
225	1
226	0
235	0
236	0
238	0
242	1
243	2
244	0
245	0
251	0
252	3
253	2
254	0
255	0
257	12
258	2
259	1
260	0
267	0
268	0
280	0
281	0
282	0
283	1
284	2
285	103
286	19
287	11
288	1
289	0
