Mass Spectrum: Ethyl 2-formyl-1-cyclopropanecarboxylate, trans
Formula: C7H10O3
CAS: 13949-93-4
Molecular weight: 142
m/z	intensity
12	0
13	1
14	8
15	33
16	1
19	4
20	0
24	0
25	2
26	42
27	251
28	41
29	707
30	20
31	27
32	0
34	1
36	1
37	24
38	67
39	567
40	117
41	469
42	135
43	41
44	9
45	41
46	0
47	0
49	1
50	5
51	6
52	2
53	8
54	3
55	71
56	4
57	47
58	10
59	1
60	5
61	0
65	0
66	2
67	28
68	390
69	737
70	115
71	17
72	1
73	6
74	0
79	2
80	1
81	7
82	2
83	4
84	5
85	138
86	99
87	7
88	1
95	15
96	518
97	999
98	115
99	12
100	1
101	1
109	0
111	0
112	0
113	350
114	71
115	68
116	3
117	0
123	0
125	1
127	3
141	8
142	135
143	11
144	1
