Mass Spectrum: 4-Acetyl-2-(4-chlorophenyl)-6,7,8,8a-tetrahydro-2H-pyrrolo[1,2-d][1,2,4]triazin-1-one
Formula: C14H14ClN3O2
CAS: 139456-23-8
Molecular weight: 291
m/z	intensity
37	9
38	28
39	130
40	40
41	343
42	115
43	999
44	43
45	12
46	1
47	4
48	2
49	5
50	30
51	32
52	19
53	90
54	49
55	96
56	20
57	13
58	7
59	7
60	7
61	8
62	26
63	96
64	39
65	14
66	30
67	61
68	318
69	300
70	318
71	21
72	5
73	21
74	14
75	90
76	19
77	9
78	35
79	4
80	6
81	6
82	8
83	13
84	9
85	15
86	14
87	6
88	7
89	32
90	138
91	18
92	5
93	17
94	15
95	85
96	16
97	6
98	19
99	41
100	8
101	16
102	9
103	7
104	3
105	1
106	1
107	1
108	1
109	9
110	5
111	81
112	10
113	23
114	3
115	3
116	2
117	6
118	3
119	2
120	1
121	2
122	1
123	14
124	8
125	215
126	30
127	85
128	11
129	8
130	4
131	4
132	1
133	1
135	1
136	1
137	11
138	136
139	24
140	46
141	8
142	3
143	2
144	1
145	1
147	0
149	2
151	7
152	48
153	77
154	24
155	27
156	4
157	4
158	3
159	1
163	1
164	5
165	7
166	13
167	4
168	5
169	1
170	1
171	1
172	2
173	1
174	0
177	1
178	4
179	13
180	11
181	6
182	5
183	3
184	3
185	8
186	2
187	1
188	1
190	1
192	10
193	21
194	11
195	8
196	2
197	0
199	0
200	3
203	1
204	1
205	3
206	21
207	106
208	18
209	33
210	3
211	1
212	0
213	0
218	1
219	1
220	484
221	69
222	173
223	23
224	4
233	0
234	5
235	106
236	17
237	37
238	6
239	2
246	1
248	34
249	5
250	11
251	2
252	1
256	2
262	27
263	6
264	10
265	2
287	2
288	0
289	6
290	3
291	226
292	39
293	77
294	12
295	1
