Mass Spectrum: Carbamic acid, (1,3-dithian-2-ylmethyl)-, methyl ester
Formula: C7H13NO2S2
CAS: 139540-22-0
Molecular weight: 207
m/z	intensity
26	3
27	23
28	29
29	16
30	19
31	8
33	1
34	0
35	2
37	1
38	3
39	36
40	7
41	73
42	26
43	11
44	65
45	140
46	44
47	41
48	2
49	2
53	1
54	1
55	4
56	14
57	5
58	40
59	118
60	9
61	13
62	1
63	0
64	8
65	2
66	0
67	2
68	1
69	2
70	1
71	12
72	7
73	47
74	33
75	52
76	14
77	15
78	7
79	6
80	0
81	0
82	0
83	0
84	1
85	42
86	10
87	13
88	52
89	5
90	3
91	46
92	2
93	3
97	3
98	1
99	16
100	20
101	7
102	2
103	4
104	3
105	7
106	17
107	4
108	1
114	0
115	1
116	0
117	1
118	0
119	999
120	67
121	95
122	4
123	2
131	1
132	205
133	43
134	21
135	3
146	2
147	0
175	2
176	6
177	0
178	0
207	117
208	10
209	10
210	1
