Mass Spectrum: Lup-20(29)-ene-3,21-dione, 28-hydroxy-
Formula: C30H46O3
CAS: 13952-73-3
Molecular weight: 454
m/z	intensity
41	760
42	70
44	20
45	50
53	200
54	50
55	860
56	60
57	130
59	100
65	60
67	610
68	170
69	920
70	90
71	180
77	190
79	440
80	110
81	999
82	250
83	350
85	80
91	430
92	100
93	740
94	220
95	830
96	460
97	280
98	110
99	50
105	460
106	190
107	800
108	250
109	590
110	140
111	160
117	70
118	40
119	530
120	260
121	590
122	270
123	360
124	100
125	430
126	160
127	130
131	150
132	90
133	400
134	240
135	450
136	190
137	370
138	190
139	270
140	50
143	60
145	200
146	80
147	300
148	150
149	290
150	170
151	220
152	210
153	130
157	60
159	250
160	80
161	290
162	100
163	290
164	100
165	110
166	490
167	140
171	50
173	170
174	90
175	260
176	110
177	220
178	90
179	130
180	50
185	70
187	250
188	110
189	260
190	90
191	200
192	70
193	100
199	50
201	120
202	60
203	220
204	90
205	950
206	360
207	170
215	50
216	50
217	100
218	90
219	290
220	150
221	110
227	40
229	40
231	60
232	40
233	160
234	110
235	160
236	30
245	240
246	80
247	70
259	60
327	70
356	50
368	100
369	140
382	80
394	50
395	50
396	40
397	30
398	20
399	90
411	80
423	80
436	70
440	30
454	650
455	210
456	30
