Mass Spectrum: Silane, triethyl(phenylmethoxy)-
Formula: C13H22OSi
CAS: 13959-92-7
Molecular weight: 222
m/z	intensity
26	32
27	132
28	26
29	128
30	6
31	43
38	7
39	99
40	8
41	31
42	6
43	39
44	9
45	155
46	9
47	88
49	5
50	22
51	70
52	15
53	9
55	19
56	9
57	29
58	29
59	119
60	11
61	11
62	7
63	39
64	11
65	185
66	9
67	13
68	38
69	7
73	12
74	16
75	49
76	6
77	55
78	7
79	19
82	59
83	11
85	6
86	6
87	58
88	7
89	39
90	19
91	999
92	79
95	18
103	19
105	25
106	6
107	25
111	6
112	7
115	6
135	118
136	19
137	12
141	8
162	8
163	158
164	29
165	49
166	8
192	11
193	512
194	85
195	27
221	1
