Mass Spectrum: Tributylsilyloxymethylbenzene
Formula: C19H34OSi
CAS: 13959-74-5
Molecular weight: 306
m/z	intensity
26	16
27	89
28	6
29	165
30	3
31	3
36	3
38	3
39	81
40	9
41	141
42	29
43	37
44	11
45	115
46	4
47	61
50	9
51	22
52	6
53	14
54	2
55	45
56	81
57	42
58	11
59	95
60	17
61	48
62	4
63	11
65	97
68	2
71	6
72	6
73	29
74	15
75	17
77	17
78	6
79	8
82	15
83	11
85	25
87	28
89	25
90	25
91	999
92	85
93	2
97	4
99	2
101	55
103	25
105	11
107	29
121	11
123	2
124	2
133	4
135	39
136	17
137	325
138	43
139	15
149	15
150	15
151	11
161	7
163	41
164	7
176	2
177	1
191	11
192	8
193	249
194	43
195	15
247	5
248	8
249	428
250	99
251	30
252	2
