Mass Spectrum: Dimethyl-(6-methyl-2-thioxo-[1,3,2]oxathiaphosphinan-2-yl)-amine
Formula: C6H14NOPS2
CAS: 139575-19-2
Molecular weight: 211
m/z	intensity
33	30
34	74
36	9
38	9
39	68
40	18
41	65
42	58
43	65
44	999
45	248
46	45
47	60
48	19
49	6
50	12
51	12
53	31
54	42
55	291
56	38
57	12
58	35
59	21
60	30
61	11
63	16
64	30
65	13
66	6
69	7
71	12
72	13
73	12
76	12
77	7
78	10
79	8
81	12
82	8
83	5
84	20
85	16
86	11
87	34
88	26
89	10
90	10
91	5
92	21
94	10
96	8
99	11
105	5
106	9
107	5
108	6
117	5
119	10
120	46
121	12
122	24
123	8
124	38
125	5
135	25
151	6
163	10
183	5
211	30
