Mass Spectrum: 3-Azabicyclo[3.3.1]nonan-9-ol, 3-methyl-, anti-
Formula: C9H17NO
CAS: 13962-79-3
Molecular weight: 155
m/z	intensity
39	152
41	242
42	362
43	155
44	999
45	68
53	56
55	98
57	320
58	389
67	83
68	89
74	119
79	56
84	83
94	83
95	257
96	56
138	200
154	508
155	311
