Mass Spectrum: 2,6-Octadiene, 3,7-dimethyl-1-(2-propenyloxy)-
Formula: C13H22O
CAS: 139694-23-8
Molecular weight: 194
m/z	intensity
26	3
27	74
28	59
29	65
30	1
31	4
37	1
38	2
39	120
40	50
41	999
42	39
43	43
44	2
45	2
50	2
51	8
52	6
53	67
54	9
55	131
56	12
57	30
58	2
59	8
63	1
65	14
66	5
67	136
68	231
69	893
70	52
71	22
72	1
73	0
77	21
78	4
79	47
80	115
81	181
82	36
83	35
84	11
85	11
86	0
89	1
91	27
92	46
93	199
94	53
95	87
96	12
97	18
98	4
99	58
100	3
103	1
104	0
105	10
106	3
107	57
108	14
109	38
110	7
111	17
112	21
113	2
115	1
119	3
120	1
121	99
122	13
123	120
124	38
125	7
126	0
133	2
135	6
136	93
137	28
138	28
139	5
140	0
150	0
151	13
152	3
153	13
154	1
161	0
165	0
167	0
168	1
169	1
179	13
180	1
194	107
195	15
196	1
