Mass Spectrum: Estr-5-en-3-one, 17.beta.-hydroxy-, cyclic ethylene acetal
Formula: C20H30O3
CAS: 13963-24-1
Molecular weight: 318
m/z	intensity
77	171
79	281
81	148
86	344
87	103
91	378
92	72
93	169
98	161
99	999
100	108
104	55
105	228
106	64
107	103
117	121
119	89
129	87
131	90
133	55
143	69
145	69
159	50
256	37
289	24
290	51
291	12
303	16
317	14
318	521
319	123
320	21
