Mass Spectrum: .alpha.D-Glucofuranose, 1,2:5,6-bis-O-(1-methylethylidene)-, benzoate
Formula: C19H24O7
CAS: 13964-22-2
Molecular weight: 364
m/z	intensity
26	1
27	13
28	8
29	23
30	1
31	15
36	0
37	0
38	1
39	19
40	4
41	65
42	27
43	196
44	8
45	8
46	0
47	1
49	0
50	5
51	24
52	3
53	8
54	3
55	33
56	8
57	36
58	5
59	87
60	9
61	12
62	0
63	1
64	0
65	3
66	1
67	6
68	13
69	51
70	13
71	26
72	43
73	39
74	3
75	2
76	8
77	115
78	11
79	3
80	3
81	35
82	6
83	22
84	12
85	57
86	4
87	6
88	0
89	1
90	0
91	8
92	1
93	2
94	1
95	13
96	4
97	28
98	27
99	28
100	35
101	351
102	24
103	9
104	7
105	999
106	80
107	6
108	0
109	19
110	8
111	10
112	4
113	8
114	2
115	14
116	1
117	2
118	0
119	1
120	1
121	3
122	5
123	7
124	2
125	7
126	24
127	47
128	5
129	18
130	2
131	1
132	0
133	1
134	0
135	1
136	1
137	4
138	2
139	3
140	1
141	15
142	2
143	94
144	7
145	9
146	3
147	4
148	0
149	13
150	1
151	1
152	1
153	2
154	1
155	17
156	4
157	1
158	0
159	1
160	0
161	1
162	0
163	3
164	1
165	2
166	1
167	17
168	2
169	7
170	1
171	2
172	0
173	0
174	1
175	0
176	0
177	2
178	0
179	1
180	1
181	1
182	0
183	1
184	18
185	53
186	6
187	2
188	0
189	0
190	1
191	1
192	0
193	1
194	0
195	0
196	1
197	1
198	0
199	1
200	0
201	103
202	11
203	4
204	1
205	1
206	1
207	2
208	0
209	0
210	1
211	0
212	0
213	3
214	1
215	0
216	0
217	0
218	0
219	1
220	0
221	0
222	0
223	0
224	0
225	0
226	0
227	7
228	1
229	3
230	1
231	9
232	1
233	0
234	0
239	0
240	0
241	0
242	2
243	6
244	1
245	0
247	1
248	3
249	8
250	1
251	0
252	0
253	0
255	0
256	0
257	0
258	0
259	72
260	11
261	2
262	0
263	1
264	0
265	0
266	0
267	0
268	0
275	0
276	0
277	0
278	0
279	0
280	0
281	0
289	0
290	0
291	208
292	40
293	6
349	200
350	45
351	8
352	1
