Mass Spectrum: Tetrafluoro-1-trifluoromethoxy-1-iodoethane
Formula: C3F7IO
CAS: 139604-89-0
Molecular weight: 312
m/z	intensity
44	25
50	11
69	999
70	11
97	209
98	2
100	23
127	129
158	7
177	51
185	208
186	2
196	21
227	143
228	2
