Mass Spectrum: 2-t-Butylperoxy-2-ethylbutan-1-ol, butyrate ester
Formula: C14H28O4
CAS: 139727-33-6
Molecular weight: 260
m/z	intensity
41	389
42	90
43	999
45	116
47	12
48	3
53	23
54	11
55	244
56	51
57	550
58	30
59	42
60	4
65	3
67	26
68	2
69	70
71	980
73	520
74	19
75	3
77	2
79	4
81	11
82	33
83	414
84	77
86	32
87	45
89	39
91	2
97	5
98	0
99	37
100	17
101	10
103	11
109	1
111	3
113	5
115	0
116	0
117	3
128	1
129	2
135	0
137	1
139	4
141	4
142	2
157	4
159	13
169	4
170	4
171	170
172	17
173	2
217	1
260	3
