Mass Spectrum: Sydnone, 4-acetyl-3-phenyl-
Formula: C10H8N2O3
CAS: 13973-33-6
Molecular weight: 204
m/z	intensity
39	50
43	999
44	40
50	100
51	80
52	30
63	20
64	20
74	20
75	30
76	100
77	280
78	30
103	130
104	890
105	80
146	270
147	30
204	110
205	10
