Mass Spectrum: 3,6,9,12,15,18-Hexaoxabicyclo[18.3.1]tetracosa-1(24),20,22-triene, 24-(1,3,2-dioxaborolan-2-yl)-
Formula: C20H31BO8
CAS: 139720-00-6
Molecular weight: 410
m/z	intensity
26	0
27	18
28	55
29	40
30	16
31	46
39	8
41	12
42	10
43	115
44	30
45	999
46	22
47	0
50	0
51	6
52	4
53	6
57	10
58	13
59	40
60	0
61	0
63	4
64	1
65	13
66	0
69	1
70	0
71	20
72	20
73	114
74	7
75	3
76	3
77	31
78	27
79	16
80	2
85	3
86	48
87	172
88	6
89	754
90	37
91	59
92	6
94	2
101	8
102	22
103	40
104	124
105	66
106	26
107	14
108	1
109	13
113	2
114	92
115	422
116	71
117	150
118	48
119	34
120	8
127	4
128	34
129	119
130	102
131	141
132	33
133	678
134	50
135	6
141	2
142	6
143	30
144	20
145	45
146	99
147	48
148	5
149	2
155	1
156	0
157	4
158	67
159	285
160	72
161	43
162	12
163	4
165	0
171	2
172	59
173	249
174	128
175	65
176	9
177	88
178	5
185	1
186	5
187	23
188	24
189	36
190	27
191	16
192	0
198	0
199	1
200	3
201	5
202	57
203	221
204	27
205	10
206	0
214	0
215	6
216	10
217	10
218	1
219	4
221	108
222	9
232	0
233	7
234	12
235	7
246	3
247	18
248	1
260	0
261	0
262	2
263	0
277	3
278	10
279	4
291	4
322	3
323	6
409	14
410	63
411	16
412	1
