Mass Spectrum: Oxazolidine, 2-ethyl-4,4-dimethyl-
Formula: C7H15NO
CAS: 13973-28-9
Molecular weight: 129
m/z	intensity
15	27
26	15
27	90
29	124
30	64
31	26
39	97
40	23
41	210
42	218
43	67
44	49
45	15
46	343
53	22
54	30
55	413
56	175
57	123
58	92
68	21
69	12
70	61
71	55
72	149
73	196
74	51
82	15
84	398
85	25
86	46
98	277
99	133
100	999
101	61
114	13
115	0
129	57
130	4
