Mass Spectrum: 2-Pentenoic acid, 3-ethyl-, methyl ester
Formula: C8H14O2
CAS: 13979-17-4
Molecular weight: 142
m/z	intensity
26	20
27	276
28	9
29	176
30	5
31	19
33	4
37	6
38	22
39	263
40	44
41	441
42	42
43	182
44	5
45	48
47	1
49	3
50	27
51	62
52	34
53	270
54	75
55	702
56	55
57	36
58	6
59	237
60	9
61	3
62	4
63	8
64	4
65	32
66	22
67	221
68	50
69	183
70	15
71	58
72	9
73	8
74	90
75	6
76	1
77	24
78	5
79	48
80	8
81	446
82	277
83	108
84	9
85	114
86	8
87	28
88	7
90	1
91	5
93	10
94	2
95	96
96	9
97	12
98	4
99	20
100	9
101	22
102	1
107	2
108	3
109	95
110	339
111	999
112	75
113	469
114	40
115	4
125	57
126	5
127	63
128	5
141	11
142	956
143	84
144	7
