Mass Spectrum: (+)-9-Norartemisinin, 9-n-pentyl-
Formula: C19H30O5
CAS: 139727-70-1
Molecular weight: 338
m/z	intensity
41	302
43	999
44	3
45	32
47	3
49	11
51	8
53	65
55	364
56	27
57	52
58	38
59	10
61	4
63	0
65	19
67	140
68	30
69	194
71	106
72	4
73	8
74	0
77	33
79	74
81	142
82	24
83	63
84	24
85	23
86	6
87	3
88	0
89	0
91	42
93	74
95	131
96	21
97	39
98	1
99	19
100	2
101	1
103	3
105	38
107	66
108	4
109	85
110	21
111	48
112	20
113	14
114	0
115	3
116	0
117	7
119	48
120	6
121	43
122	6
123	51
124	45
125	37
126	4
127	2
128	1
129	2
130	2
131	13
133	41
134	3
135	46
136	27
137	72
138	14
139	9
140	3
141	2
143	3
145	15
147	24
148	1
149	32
150	44
151	39
152	8
153	12
154	2
155	0
157	3
158	24
159	69
160	11
161	11
162	1
163	28
164	12
165	20
166	7
167	5
168	1
169	0
171	1
173	5
174	0
175	9
177	61
178	14
179	12
180	12
181	8
182	11
183	2
185	1
187	7
189	26
190	10
191	10
192	1
193	21
194	1
195	32
196	6
197	0
199	0
201	2
202	1
203	6
205	24
207	132
208	84
209	19
210	2
215	2
217	6
218	3
219	3
220	21
221	11
222	5
223	3
224	0
227	1
229	4
230	2
231	3
232	1
233	9
235	58
236	23
237	4
238	1
243	0
245	4
248	266
249	42
251	24
252	3
253	0
260	36
261	7
263	21
264	3
265	17
266	5
268	5
269	0
271	0
273	2
275	2
276	0
277	0
278	2
280	2
285	0
288	46
289	8
291	4
292	2
293	1
303	1
306	66
307	12
308	1
321	1
323	1
338	1
