Mass Spectrum: Dihydroartemisinin, 10-O-(t-butyloxy)-
Formula: C19H32O6
CAS: 139727-23-4
Molecular weight: 356
m/z	intensity
41	276
42	14
43	999
44	24
45	69
47	12
48	3
49	34
50	1
51	16
52	1
53	48
54	4
55	323
57	388
58	49
59	31
60	0
61	3
63	0
65	12
66	5
67	79
68	30
69	107
71	97
73	538
74	19
75	2
77	22
78	1
79	50
81	114
83	49
84	27
85	21
86	17
87	2
88	2
91	32
93	79
94	6
95	103
96	12
97	49
98	3
99	28
100	1
101	2
103	2
105	48
107	80
108	6
109	50
110	11
111	30
112	6
113	6
115	2
117	5
118	0
119	33
121	53
122	2
123	55
124	19
125	23
126	2
127	1
129	2
130	2
131	12
132	0
133	40
135	56
137	30
138	2
139	15
140	2
141	1
143	6
145	70
146	9
147	23
148	2
149	25
151	50
152	13
153	7
155	1
156	1
157	5
158	1
159	23
161	45
162	9
163	322
164	37
165	17
166	1
167	6
169	3
170	0
171	4
172	0
173	21
174	1
175	18
176	5
177	12
178	0
179	19
180	4
181	13
182	5
183	1
184	1
185	4
186	0
187	2
188	0
189	18
191	27
192	4
193	6
194	1
195	6
196	5
197	1
199	3
201	2
203	14
204	1
205	3
207	7
208	0
209	8
210	2
213	2
215	1
216	3
217	23
218	2
219	9
221	89
222	11
223	1
225	0
231	3
232	0
233	4
234	9
235	20
236	3
237	1
249	7
250	1
266	10
267	130
268	20
269	2
324	11
325	2
