Mass Spectrum: 9-Borabicyclo[3.3.1]nonane, 9-[(1-thioxooctadecyl)thio]-
Formula: C26H49BS2
CAS: 139759-20-9
Molecular weight: 436
m/z	intensity
29	240
30	3
33	9
34	30
37	11
38	4
39	48
41	615
43	996
44	20
45	55
47	29
50	6
51	19
52	15
53	85
54	12
55	762
57	624
58	69
59	94
60	71
61	41
62	5
63	5
64	22
65	78
66	22
67	804
68	35
69	446
70	19
71	215
72	28
73	101
74	36
75	14
76	18
77	73
78	40
79	243
80	152
81	597
82	78
83	480
84	34
85	103
86	31
87	410
88	34
89	43
90	23
91	115
92	110
93	229
94	63
95	426
96	1
97	226
98	30
99	54
100	104
101	340
102	36
103	36
104	14
105	22
106	42
107	196
108	999
109	835
111	172
112	37
113	85
114	112
115	87
116	33
117	46
118	15
119	54
120	83
121	355
122	77
123	120
124	42
125	56
126	21
127	40
128	28
129	56
130	46
131	27
132	8
133	9
134	20
135	66
136	52
140	18
141	40
142	68
143	46
144	30
145	14
147	8
148	6
149	42
150	125
151	108
152	145
153	93
154	69
155	32
156	29
157	29
158	16
159	7
162	8
163	28
164	19
165	29
166	10
167	14
168	11
169	27
170	29
171	29
172	12
173	7
176	5
177	25
178	59
179	38
180	12
181	8
182	17
183	81
184	80
185	53
186	40
187	22
188	7
191	10
192	7
193	12
194	9
196	103
197	406
198	87
199	62
200	10
201	14
205	6
207	5
208	6
210	15
211	98
212	209
213	40
214	25
215	6
222	8
224	5
225	17
226	7
227	17
239	13
240	6
241	21
242	5
247	6
249	18
250	52
251	13
253	7
257	4
258	6
281	26
282	29
283	552
284	188
285	94
286	20
287	5
293	10
294	5
295	5
315	8
317	8
325	5
326	13
327	7
328	4
353	4
359	30
360	22
361	5
366	6
367	8
368	5
369	4
379	9
380	5
392	6
393	28
394	14
395	7
402	29
403	45
404	13
406	5
407	23
408	18
409	6
434	8
435	106
436	383
437	126
438	57
439	10
