Mass Spectrum: Artemisinin, 9-demethyl-9-propyl-
Formula: C17H26O5
CAS: 139727-67-6
Molecular weight: 310
m/z	intensity
41	404
42	66
43	999
44	25
45	29
47	9
48	3
49	29
50	3
51	20
52	8
53	91
54	40
55	463
56	35
57	55
58	34
59	13
60	2
61	3
63	2
65	29
66	14
67	141
68	48
69	137
70	9
71	101
72	1
73	13
74	2
76	2
77	52
78	10
79	81
80	9
81	164
82	23
83	109
84	59
85	33
86	41
87	1
88	6
90	0
91	55
92	9
93	77
94	14
95	146
96	26
97	56
98	7
99	14
100	3
101	3
102	5
103	9
104	5
105	47
106	11
107	71
108	21
109	91
110	24
111	38
112	18
113	7
115	4
116	2
117	8
118	6
119	67
120	11
121	50
122	18
123	62
124	45
125	53
126	6
127	3
128	0
129	3
130	0
131	13
132	7
133	48
134	13
135	55
136	39
137	88
138	23
139	11
140	2
141	3
143	4
144	2
145	16
146	2
147	24
148	4
149	42
150	90
151	68
152	11
153	9
154	2
157	3
158	31
159	106
160	16
161	51
162	17
163	39
164	11
165	40
166	14
167	30
168	7
169	2
171	1
173	5
174	6
175	12
176	16
177	97
178	30
179	218
180	130
181	55
182	15
183	2
185	1
187	4
189	10
190	4
191	14
192	33
193	42
194	28
195	21
196	3
199	2
201	6
202	4
203	7
204	3
205	14
206	13
207	65
208	40
209	7
211	0
215	0
217	9
218	2
219	14
220	631
221	108
222	12
223	36
224	6
225	2
231	2
232	71
233	14
234	1
235	93
236	20
237	22
238	6
239	2
245	4
247	3
249	2
250	6
251	3
260	116
261	22
262	2
263	5
264	5
265	3
268	8
278	159
279	30
280	3
293	1
309	1
310	5
