Mass Spectrum: 2-Amino-5-fluoro-5-(trifluoromethyl)-4,5-dihydro-1,3-thiazol-4-one
Formula: C4H2F4N2OS
CAS: 13973-15-4
Molecular weight: 202
m/z	intensity
33	15
34	23
36	7
37	0
38	6
40	277
42	999
44	202
45	46
46	33
47	39
48	10
50	26
51	10
52	1
53	7
54	6
55	8
56	11
57	12
58	15
59	49
60	74
61	2
63	507
65	40
66	2
67	1
69	448
70	746
72	34
73	4
74	20
75	6
76	9
77	4
78	1
79	2
80	1
81	16
82	17
83	5
85	8
86	9
87	3
88	1
89	10
90	13
91	19
92	4
94	30
95	2
96	5
97	1
98	1
100	48
101	2
102	3
107	1
108	11
109	10
110	0
111	10
112	1
113	108
114	15
115	10
116	2
122	2
126	0
127	2
128	15
131	0
132	140
133	34
134	8
135	10
136	2
140	48
141	17
142	4
143	11
144	1
150	1
159	65
160	2
161	2
162	1
164	3
166	1
169	33
170	2
171	1
182	10
183	20
184	17
202	353
203	17
204	16
