Mass Spectrum: Heptanedioic acid, 4,4-diacetyl-, dimethyl ester
Formula: C13H20O6
CAS: 13984-59-3
Molecular weight: 272
m/z	intensity
33	2
38	3
39	38
40	11
41	64
42	57
43	999
44	42
45	17
46	0
47	0
48	3
50	2
51	7
52	6
53	35
54	17
55	98
56	10
57	13
58	7
59	61
60	2
61	0
63	1
64	5
65	12
66	10
67	35
68	13
69	22
70	7
71	15
72	1
73	3
74	24
75	2
77	8
78	4
79	16
80	3
81	31
82	11
83	25
84	13
85	28
86	2
87	5
88	0
91	5
92	3
93	17
94	5
95	43
96	41
97	152
98	12
99	4
100	2
101	1
104	0
105	1
107	7
108	3
109	16
110	39
111	36
112	21
113	21
114	3
115	4
116	0
119	0
120	7
121	16
122	6
123	35
124	58
125	199
126	19
127	15
128	6
129	1
136	2
137	9
138	84
139	20
140	3
141	3
142	4
143	2
144	4
145	0
148	4
149	8
150	1
151	2
152	3
153	2
155	24
156	6
157	35
158	3
163	0
165	8
166	32
167	32
168	3
169	6
170	10
171	5
180	4
181	3
183	2
187	1
196	0
197	9
198	100
199	106
200	11
201	1
212	1
225	0
228	0
230	78
231	8
232	0
