Mass Spectrum: 2-t-Butyl-6-chloromethyl-[1,3]dioxan-4-one
Formula: C9H15ClO3
CAS: 139883-58-2
Molecular weight: 206
m/z	intensity
25	7
27	98
28	12
29	130
30	2
31	8
37	4
38	13
39	185
40	27
41	343
42	48
43	133
44	18
45	12
49	36
50	4
51	12
53	11
54	2
55	24
56	32
57	999
58	38
59	2
68	3
69	19
70	5
71	60
72	9
75	38
76	13
77	18
78	4
79	35
81	9
85	71
86	77
87	41
103	663
104	28
105	199
106	8
121	4
127	7
149	70
150	3
151	25
157	2
207	2
