Mass Spectrum: Methyl 4-acetyl-5-oxohexanoate
Formula: C9H14O4
CAS: 13984-53-7
Molecular weight: 186
m/z	intensity
26	7
27	63
28	6
29	33
30	2
31	14
37	2
38	8
39	75
40	14
41	64
42	67
43	999
44	37
45	13
50	3
51	7
52	3
53	21
54	7
55	145
56	9
57	6
58	20
59	59
60	2
61	1
63	3
65	5
66	4
67	20
68	9
69	59
70	19
71	201
72	12
73	2
74	70
75	3
77	2
79	1
80	1
81	3
82	20
83	49
84	210
85	40
86	2
87	35
88	2
91	0
93	1
94	0
95	21
96	1
97	44
98	4
99	4
100	13
101	33
102	5
107	0
108	2
109	3
110	6
111	90
112	323
113	340
114	30
115	4
116	1
125	7
126	28
127	4
128	2
129	14
130	0
136	2
137	1
139	41
140	3
143	34
144	312
145	30
146	2
154	10
155	23
156	1
168	2
171	1
186	26
187	2
