Mass Spectrum: Butanenitrile, 4-(dimethylamino)-
Formula: C6H12N2
CAS: 13989-82-7
Molecular weight: 112
m/z	intensity
41	6
42	13
43	9
44	35
58	999
59	43
70	13
71	22
72	39
73	2
111	23
112	106
113	7
