Mass Spectrum: Propylamine, N,N,2,2-tetramethyl-, N-oxide
Formula: C7H17NO
CAS: 13993-87-8
Molecular weight: 131
m/z	intensity
41	350
42	124
43	480
44	240
45	28
55	68
56	16
57	400
58	48
59	6
60	320
61	999
62	24
71	60
86	60
131	40
