Mass Spectrum: Trans-1,4-diethylcyclohexane
Formula: C10H20
CAS: 13990-93-7
Molecular weight: 140
m/z	intensity
41	360
42	60
43	150
55	520
56	60
57	90
67	90
69	999
70	70
81	60
82	10
110	200
111	680
112	50
140	210
141	23
142	1
