Mass Spectrum: 3-Methyl-5-methoxymethyl-1,2-oxazole
Formula: C6H9NO2
CAS: 13999-31-0
Molecular weight: 127
m/z	intensity
27	334
28	328
29	236
39	176
41	207
42	246
43	221
44	114
45	999
54	364
55	267
56	67
57	423
58	135
66	66
68	253
69	133
70	33
71	99
81	20
82	567
83	44
84	69
85	299
86	152
96	400
97	230
98	33
112	35
126	67
127	416
128	43
129	9
