Mass Spectrum: Dimethylamine, N-(neopentyloxy)-
Formula: C7H17NO
CAS: 13993-88-9
Molecular weight: 131
m/z	intensity
41	356
42	127
43	465
44	238
45	26
55	79
56	20
57	396
58	59
59	10
60	218
61	999
62	26
70	20
71	20
72	20
73	20
74	89
84	20
85	30
86	59
100	79
101	32
114	20
115	42
116	14
131	10
