Mass Spectrum: 17-O-Methyl testosterone ether
Formula: C20H30O2
CAS: 13990-32-4
Molecular weight: 302
m/z	intensity
41	350
42	9
43	999
44	4
45	55
47	22
49	8
51	4
52	16
53	142
54	26
55	311
56	5
57	130
58	126
59	31
65	88
66	37
67	238
68	41
69	60
71	383
72	31
77	243
78	58
79	336
80	47
81	136
82	16
83	39
84	51
85	20
86	52
91	405
92	52
93	188
94	51
95	148
96	23
97	56
103	30
104	18
105	237
106	56
107	198
108	78
109	155
110	25
111	34
115	50
116	12
117	78
118	24
119	164
120	83
121	231
122	191
123	156
124	376
125	40
128	26
129	43
130	10
131	84
132	25
133	115
134	79
135	91
136	47
137	100
138	19
141	10
142	4
143	34
144	10
145	83
146	30
147	103
148	87
149	115
150	19
157	33
158	17
159	75
160	49
161	146
162	43
163	41
165	8
171	19
173	36
174	30
175	34
176	9
179	64
185	24
186	5
187	73
188	20
189	44
190	4
199	36
200	27
201	22
202	106
203	23
211	19
213	28
215	4
217	41
226	10
227	33
228	9
229	120
230	17
231	16
232	16
240	15
241	11
242	31
244	22
245	92
246	9
260	18
269	12
284	38
285	4
287	27
302	357
303	82
304	10
