Mass Spectrum: Nequinate
Formula: C22H23NO4
CAS: 13997-19-8
Molecular weight: 365
m/z	intensity
39	50
41	45
42	7
43	12
44	23
50	7
51	22
52	7
53	27
55	11
62	4
63	26
64	8
65	166
66	10
75	7
76	12
77	30
78	10
79	4
88	11
89	51
90	20
91	999
92	166
93	5
101	10
102	13
103	12
104	18
105	5
114	8
115	31
116	26
117	12
118	4
128	11
129	11
130	8
131	11
132	4
143	11
144	17
145	6
146	7
156	8
157	6
158	12
170	6
171	32
172	33
173	11
174	10
184	6
185	7
186	4
187	3
188	3
198	4
199	7
200	200
201	30
202	5
204	6
212	6
213	28
214	18
226	5
227	5
228	37
229	5
232	38
233	6
241	13
242	10
248	13
260	60
261	10
276	8
280	25
281	4
290	11
291	93
292	18
295	6
304	60
305	22
306	4
307	2
308	7
309	3
316	4
318	38
319	6
323	233
324	53
325	8
332	7
333	11
334	12
336	36
337	26
338	4
349	2
350	34
351	6
364	5
365	93
366	22
367	6
