Mass Spectrum: Propanenitrile, 3-chloro-2,3-dihydroximino-
Formula: C3H2ClN3O2
CAS: 139912-33-7
Molecular weight: 147
m/z	intensity
33	4
35	201
36	311
37	75
38	533
39	37
40	54
41	320
42	140
43	389
44	999
45	76
47	161
49	74
50	130
51	60
52	452
53	498
54	222
55	40
56	17
57	28
58	48
59	22
60	41
61	122
62	216
63	124
64	282
65	207
66	21
67	11
68	128
69	509
70	44
71	21
73	140
74	79
75	28
76	27
77	47
78	353
80	141
81	652
82	294
83	20
85	90
86	237
87	544
88	102
89	199
90	130
92	58
93	4
94	7
95	19
96	11
97	15
99	162
100	226
101	75
102	73
103	16
104	14
105	13
106	6
107	3
108	3
109	5
110	22
111	285
112	477
113	55
114	9
115	9
117	196
118	9
119	63
120	55
121	10
122	29
123	6
124	4
125	2
126	2
127	24
128	21
129	24
130	62
131	13
132	20
133	2
134	0
135	2
136	0
137	3
138	3
139	2
140	0
141	1
144	0
145	2
147	756
149	292
150	10
151	2
152	8
153	1
