Mass Spectrum: 4,8-Dimethylbicyclo[3.3.1]nonane-2,6-dione
Formula: C11H16O2
CAS: 139914-54-8
Molecular weight: 180
m/z	intensity
32	1
37	7
38	13
39	344
40	90
41	541
42	130
43	125
44	3
45	5
46	1
47	1
48	1
49	8
50	8
51	38
52	23
53	155
54	56
55	661
56	57
57	16
58	1
59	1
60	1
61	0
62	3
63	9
64	3
65	47
66	38
67	189
68	177
69	999
70	57
71	11
72	4
73	1
74	3
75	2
76	4
77	62
78	16
79	83
80	44
81	199
82	85
83	135
84	154
85	14
86	2
87	1
88	1
89	2
90	1
91	40
92	12
93	38
94	36
95	204
96	241
97	145
98	61
99	6
100	1
102	0
103	1
104	0
105	12
106	6
107	25
108	34
109	130
110	76
111	95
112	25
113	2
115	0
117	0
118	0
119	9
120	31
121	25
122	10
123	83
124	26
125	35
126	168
127	13
128	1
129	2
131	0
133	3
134	4
135	7
136	39
137	69
138	129
139	30
140	2
147	6
148	2
149	0
150	1
151	23
152	42
153	4
161	0
162	2
163	5
164	0
165	74
166	8
167	0
179	3
180	421
181	49
182	4
