Mass Spectrum: Morpholine-4-carboxamide, N,N-dibenzyl-
Formula: C19H22N2O2
CAS: 139994-83-5
Molecular weight: 310
m/z	intensity
33	2
34	10
39	57
40	196
41	51
42	138
43	27
44	51
45	18
50	9
51	34
52	8
53	2
54	10
55	48
56	116
57	40
58	10
63	18
65	148
66	9
68	3
70	186
71	9
76	3
77	58
78	15
79	5
83	3
84	3
86	117
87	23
88	13
89	24
91	999
92	98
93	6
97	5
98	3
103	1
104	28
105	31
106	18
107	3
108	1
111	1
112	29
114	325
115	16
116	1
117	7
118	6
119	1
120	1
132	620
133	56
134	7
135	1
140	15
146	5
165	1
169	3
175	21
176	14
178	1
194	20
195	33
196	60
197	8
219	434
220	59
221	4
226	3
262	1
310	54
311	8
