Mass Spectrum: 1,2-Ethanediamine, N,N'-bis(phenylmethyl)-
Formula: C16H20N2
CAS: 140-28-3
Molecular weight: 240
m/z	intensity
26	0
27	4
28	13
29	2
30	60
31	1
39	23
40	2
41	12
42	14
43	6
44	23
45	0
50	3
51	13
52	5
53	0
54	1
56	1
57	0
58	2
62	1
63	10
64	3
65	82
66	5
67	0
68	0
69	0
71	0
74	0
75	1
76	1
77	12
78	4
79	3
80	0
81	0
87	0
89	13
90	10
91	999
92	75
93	4
102	0
103	0
104	8
105	5
106	34
107	16
108	1
115	0
116	0
117	4
118	28
119	10
120	813
121	105
122	10
123	0
130	0
131	0
132	6
133	6
134	13
135	27
136	3
141	0
145	0
147	0
149	13
150	0
151	0
163	1
165	0
166	0
167	0
183	0
196	0
208	0
209	0
238	0
239	1
240	16
241	4
242	0
