Mass Spectrum: Acetic acid, phenylmethyl ester
Formula: C9H10O2
CAS: 140-11-4
Molecular weight: 150
m/z	intensity
14	2
15	16
26	3
27	12
29	10
30	1
31	1
37	4
38	17
39	91
40	6
41	18
42	16
43	376
44	12
45	9
49	4
50	70
51	167
52	41
53	14
61	7
62	27
63	84
64	22
65	186
66	11
73	3
74	17
75	11
76	14
77	246
78	58
79	311
80	30
81	1
85	2
86	4
87	3
89	179
90	406
91	716
92	55
93	2
105	52
106	7
107	195
108	999
109	78
110	4
150	317
151	31
152	2
