Mass Spectrum: Ethanol, 2-chloro-, phosphite (3:1)
Formula: C6H12Cl3O3P
CAS: 140-08-9
Molecular weight: 268
m/z	intensity
14	1
15	6
25	1
26	22
27	264
28	43
29	24
30	6
31	9
33	1
35	2
36	1
37	1
38	1
39	2
41	3
42	11
43	30
44	9
45	32
46	1
47	135
48	13
49	70
50	10
51	21
52	3
53	1
55	1
57	1
60	2
61	16
62	129
63	999
64	62
65	445
66	9
67	2
68	1
71	1
74	2
75	1
76	1
77	64
78	3
79	4
80	1
81	23
82	29
83	146
84	1
85	3
89	7
90	2
91	82
92	2
93	4
95	3
96	1
97	4
99	6
100	2
101	4
102	1
103	1
107	2
108	3
109	121
110	33
111	2
112	10
114	1
117	65
119	22
121	1
123	1
125	1
126	16
127	168
128	9
129	55
130	1
131	1
135	20
136	1
137	4
139	1
140	1
143	25
145	203
146	5
147	73
148	2
149	3
153	2
155	1
157	1
161	4
163	4
165	1
171	191
172	9
173	63
174	3
179	7
181	4
183	1
189	422
190	20
191	270
192	12
193	45
194	2
197	1
205	1
207	205
208	9
209	131
210	6
211	22
212	1
233	362
234	24
235	233
236	15
237	39
238	3
268	1
270	1
