Mass Spectrum: Acetic acid, chloro-, phenylmethyl ester
Formula: C9H9ClO2
CAS: 140-18-1
Molecular weight: 184
m/z	intensity
26	5
27	7
28	1
29	5
35	1
36	8
37	2
38	7
39	40
40	4
41	10
42	10
43	5
44	10
45	7
47	2
48	4
49	37
50	25
51	61
52	19
53	5
61	3
62	10
63	33
64	11
65	96
66	6
73	1
74	7
75	6
76	7
77	107
78	28
79	96
80	8
81	1
82	4
86	2
87	2
89	83
90	357
91	999
92	62
93	3
103	1
104	1
105	43
106	14
107	198
108	656
109	42
110	3
120	1
125	29
126	2
127	10
135	1
149	14
150	2
184	365
185	34
186	109
187	11
