Mass Spectrum: Pyridine, 5-ethenyl-2-methyl-
Formula: C8H9N
CAS: 140-76-1
Molecular weight: 119
m/z	intensity
27	61
28	12
29	0
30	2
31	2
37	17
38	35
39	146
40	15
41	29
42	15
43	9
44	4
45	5
46	1
48	1
49	9
50	86
51	146
52	102
53	32
54	9
57	1
59	8
60	3
61	15
62	26
63	68
64	28
65	105
66	44
67	13
68	2
70	2
73	2
74	13
75	14
76	15
77	85
78	59
79	14
80	14
85	3
86	6
87	5
88	4
89	31
90	22
91	397
92	56
93	42
94	4
102	9
103	3
104	106
105	7
115	0
116	15
117	70
118	259
119	999
120	75
121	3
