Mass Spectrum: (3R,6R)-2,2,6-Trimethyl-6-vinyltetrahydro-2H-pyran-3-ol
Formula: C10H18O2
CAS: 14009-71-3
Molecular weight: 170
m/z	intensity
26	4
27	75
29	61
30	3
31	35
39	163
40	51
41	322
42	55
43	471
44	45
45	34
51	39
52	25
53	175
54	33
55	333
56	55
57	126
58	14
59	695
60	25
61	3
63	9
65	53
66	30
67	732
68	999
69	256
70	104
71	192
72	121
73	22
77	66
78	21
79	258
80	29
81	168
82	57
83	179
84	128
85	82
87	4
91	59
92	41
93	157
94	572
97	80
98	10
99	24
100	5
102	30
105	25
109	85
111	69
112	40
113	15
119	22
121	118
123	15
125	20
126	4
137	43
138	3
139	100
142	2
143	19
144	2
152	11
155	56
156	7
157	1
