Mass Spectrum: 2,3-Diazabicyclo[2.2.1]hept-5-ene-2,3-dicarboxylic acid, diethyl ester
Formula: C11H16N2O4
CAS: 14011-60-0
Molecular weight: 240
m/z	intensity
26	15
27	162
28	75
29	999
30	53
31	23
37	2
38	7
39	67
40	46
41	57
42	22
43	37
44	10
45	37
46	6
47	3
50	2
51	12
52	17
53	66
54	15
55	36
56	16
57	10
59	6
62	8
63	5
64	3
65	55
66	298
67	243
68	35
69	19
70	2
73	20
74	36
75	11
77	4
78	16
79	32
80	110
81	24
82	6
90	9
91	4
92	3
93	20
94	11
95	77
96	16
97	6
102	6
103	7
104	2
106	2
107	6
108	12
109	4
111	3
112	3
121	24
122	19
123	26
124	5
131	2
139	12
140	11
141	13
150	5
151	5
152	6
153	2
166	29
168	83
169	11
176	2
195	25
196	4
240	164
241	25
242	3
