Mass Spectrum: 1-Cyano-N-fluoroformimidoyl fluoride (anti)
Formula: C2F2N2
CAS: 14011-05-3
Molecular weight: 90
m/z	intensity
26	281
27	4
31	772
32	8
45	999
46	15
52	201
53	6
57	112
58	3
71	352
72	11
90	921
91	28
92	2
