Mass Spectrum: Nitroacetamide
Formula: C2H4N2O3
CAS: 14011-21-3
Molecular weight: 104
m/z	intensity
30	369
31	49
36	9
38	19
39	29
40	39
41	59
42	229
43	229
44	500
45	49
46	57
50	11
51	14
58	999
59	49
60	9
61	99
62	9
69	19
70	14
71	14
88	14
91	7
104	54
105	9
