Mass Spectrum: Titanyl acetylacetonate
Formula: C10H14O5Ti
CAS: 14024-64-7
Molecular weight: 262
m/z	intensity
12	5
13	9
14	37
15	160
16	4
17	1
18	2
24	2
25	12
26	42
27	102
28	17
29	30
31	16
36	11
37	67
38	116
39	274
40	23
41	48
42	79
43	999
44	24
45	7
48	6
49	17
50	49
51	43
52	12
53	38
54	7
55	18
56	3
57	4
58	8
60	7
61	14
62	30
63	29
64	273
65	38
66	22
67	89
68	6
69	18
70	3
71	5
72	10
73	5
74	6
75	3
76	4
77	21
78	7
79	52
80	30
81	203
82	75
83	18
84	6
85	112
86	6
87	3
88	3
89	9
90	7
91	13
92	10
93	6
94	8
95	3
96	3
97	4
98	3
99	13
100	46
101	7
102	12
103	50
104	55
105	42
106	20
107	25
108	24
109	8
110	3
111	1
112	1
113	2
115	6
116	5
117	11
118	7
119	16
120	29
121	81
122	23
123	40
124	13
125	6
126	3
127	9
128	4
129	6
130	3
131	5
132	6
133	9
134	25
135	9
136	30
137	9
138	4
139	3
141	3
142	3
143	33
144	33
145	271
146	55
147	69
148	30
149	55
150	8
151	4
152	4
153	3
155	11
156	3
157	3
158	4
159	4
160	5
161	86
162	115
163	684
164	360
165	97
166	32
167	5
168	2
169	1
170	2
172	3
173	2
174	3
175	4
176	12
177	4
178	3
179	16
180	17
181	141
182	21
183	16
184	6
185	17
186	6
187	5
188	3
189	3
190	7
191	2
192	6
200	3
201	6
202	9
203	20
204	9
205	12
206	26
207	7
208	3
209	2
210	3
211	1
214	2
215	2
216	13
217	14
218	18
219	133
220	35
221	14
222	4
225	6
226	3
227	4
228	3
229	10
230	3
231	4
232	5
233	15
234	15
235	5
236	2
239	7
240	1
242	4
243	5
244	37
245	47
246	77
247	250
248	48
249	25
250	4
260	55
261	60
262	483
263	101
264	49
265	7
