Mass Spectrum: Acetic acid, 2,2'-[1,2-phenylenebis(oxy)]bis-, didecyl ester
Formula: C30H50O6
CAS: 140236-95-9
Molecular weight: 506
m/z	intensity
26	65
27	198
39	53
41	384
42	86
43	999
44	39
45	32
52	27
55	537
56	131
57	974
58	46
60	27
65	38
67	69
68	44
69	285
70	96
71	439
72	25
77	56
79	37
81	70
82	42
83	227
84	49
85	374
86	26
93	49
95	101
96	28
97	124
98	24
99	67
105	19
107	21
109	185
110	54
111	41
112	21
121	210
122	186
123	233
124	37
134	138
135	24
136	68
140	24
149	170
150	127
151	479
152	84
161	205
162	65
163	39
167	75
168	74
169	22
171	22
179	31
180	49
181	494
182	76
183	21
185	19
208	397
209	54
210	18
219	11
220	20
221	86
222	102
226	39
227	25
318	28
320	84
322	102
323	21
348	118
349	24
366	72
367	20
506	804
507	278
508	57
