Mass Spectrum: Quinoline, 6-[5-(dimethylamino)-1-pentenyl]decahydro-1-methyl-5,6-diphenyl-
Formula: C29H40N2
CAS: 14028-84-3
Molecular weight: 416
m/z	intensity
55	26
56	21
57	15
58	999
59	52
68	26
70	52
71	52
82	52
84	110
85	21
91	78
95	52
96	105
97	10
111	42
112	52
115	52
117	31
129	52
130	52
142	105
186	100
187	31
188	110
189	21
199	36
200	52
201	52
300	15
358	21
401	15
416	42
