Mass Spectrum: Hydrocinnamic acid, .alpha.-methyl-, ester with 2-methyllactonitrile
Formula: C14H17NO2
CAS: 14025-74-2
Molecular weight: 231
m/z	intensity
41	110
42	20
43	30
44	40
50	40
56	10
57	130
58	20
65	70
67	20
68	30
77	60
78	20
79	20
85	10
88	10
91	999
92	90
93	90
104	30
105	40
106	40
107	370
108	30
115	30
116	40
117	80
118	150
119	160
120	20
130	10
132	10
134	10
145	20
146	10
147	30
148	10
149	10
163	130
164	80
165	10
195	20
231	70
232	10
