Mass Spectrum: 6-Methyl benzobicyclo[2.2.1] heptenone-5
Formula: C12H12O
CAS: 140224-88-0
Molecular weight: 172
m/z	intensity
39	32
40	23
41	18
43	16
44	5
45	6
50	15
51	38
52	9
53	6
55	16
56	6
57	19
58	7
62	13
63	43
64	20
65	29
66	6
67	8
69	13
70	5
71	14
74	11
75	14
76	11
77	34
78	11
79	8
80	7
81	9
83	8
85	8
87	8
88	7
89	43
90	5
91	24
94	6
95	7
97	8
101	7
102	19
103	9
105	7
109	6
113	9
114	11
115	390
116	999
117	121
118	8
121	9
126	11
127	66
128	193
129	405
130	62
131	15
136	13
139	9
141	26
142	17
143	77
144	34
145	6
158	40
159	8
160	22
172	190
173	25
