Mass Spectrum: But-3-en-2-one, 4-benzylamino-3-(1-phenyl-5-tetrazolyl)-
Formula: C18H17N5O
CAS: 140215-49-2
Molecular weight: 319
m/z	intensity
34	0
35	1
36	0
37	3
38	10
39	51
40	16
41	25
42	12
43	172
44	15
45	2
47	1
48	0
50	22
51	71
52	20
53	8
54	6
55	11
56	2
57	3
58	0
59	1
60	1
62	8
63	35
64	50
65	167
66	13
67	6
68	4
69	7
70	9
71	2
72	1
73	2
74	4
75	8
76	34
77	165
78	21
79	8
80	2
81	2
82	2
83	4
84	1
85	6
86	1
87	2
88	5
89	33
91	999
92	90
93	41
94	4
95	3
96	1
97	2
98	0
99	0
100	0
101	3
102	10
103	51
104	46
105	16
106	19
107	4
108	1
109	1
110	2
111	16
112	1
113	1
114	2
115	8
116	10
117	17
118	27
119	9
120	1
121	1
122	1
123	1
124	0
125	0
126	0
127	2
128	11
129	8
130	29
131	47
132	8
133	3
134	1
135	2
136	1
138	0
140	2
141	2
142	6
143	21
144	12
145	25
146	6
147	1
149	7
150	1
151	1
152	5
153	1
154	3
155	9
156	12
157	41
158	289
159	35
160	3
161	1
163	0
165	12
167	171
168	24
169	6
170	8
171	13
172	22
173	6
174	1
177	0
178	0
180	15
181	11
182	28
183	5
184	3
185	11
186	6
187	26
188	4
189	0
191	0
192	1
193	8
194	3
195	1
196	2
197	2
198	4
199	42
200	44
201	5
202	1
203	0
204	1
205	1
206	2
207	2
208	1
209	0
211	0
212	5
214	114
215	14
216	1
217	1
218	0
219	4
220	2
221	4
222	3
223	0
228	21
229	3
231	5
232	3
233	3
234	2
235	1
244	0
245	2
246	4
247	4
248	36
249	14
250	2
257	0
259	1
260	0
261	0
262	4
263	1
264	0
272	2
273	5
274	9
275	6
276	70
277	29
278	4
279	0
288	1
290	64
291	18
292	3
293	0
301	2
302	0
304	1
316	0
319	238
320	50
321	5
322	0
