Mass Spectrum: Quinoline, decahydro-1-methyl-5,6-diphenyl-6-(2-piperidyl)-
Formula: C27H36N2
CAS: 14028-82-1
Molecular weight: 388
m/z	intensity
55	73
56	157
57	52
68	52
70	105
82	68
84	999
85	68
91	152
96	78
97	131
98	52
103	31
104	31
110	52
111	26
112	121
115	105
116	26
117	47
128	31
129	52
130	21
144	21
186	105
187	42
193	52
200	94
201	110
202	26
304	47
305	157
306	52
387	105
388	78
