Mass Spectrum: Piperidine, 2-[3-allyl-4-(dimethylamino)-2,6-diphenylcyclohexyl]-1-methyl-
Formula: C29H40N2
CAS: 14028-79-6
Molecular weight: 416
m/z	intensity
55	21
56	15
57	15
58	999
59	52
68	36
70	52
71	52
82	5
84	110
85	21
91	73
96	52
97	105
98	10
111	42
112	52
115	52
117	31
129	42
130	42
143	26
186	94
187	21
188	110
189	10
199	26
200	52
201	52
214	42
301	15
358	21
401	15
416	42
