Mass Spectrum: 2(5H)-Furanone, 5-(acetyloxy)-
Formula: C6H6O4
CAS: 14032-72-5
Molecular weight: 142
m/z	intensity
26	162
27	223
28	24
29	176
30	3
31	1
36	1
37	10
38	12
39	6
40	0
41	10
42	44
43	999
44	24
45	29
46	1
50	0
52	2
53	25
54	154
55	180
56	8
57	4
59	0
60	7
61	0
68	0
69	1
70	10
71	32
72	11
73	1
81	0
82	228
83	708
84	37
85	3
86	1
95	0
98	3
99	10
100	35
101	1
112	0
113	129
114	7
115	0
