Mass Spectrum: Stigmasterol, TMS derivative
Formula: C32H56OSi
CAS: 14030-29-6
Molecular weight: 484
m/z	intensity
15	1
26	2
27	17
29	31
30	1
31	1
37	2
38	2
39	24
40	5
41	187
42	13
43	242
44	12
45	33
46	3
47	15
49	1
50	3
51	5
52	4
53	36
55	772
56	41
57	241
58	13
59	23
60	6
61	25
62	3
63	3
64	1
65	19
66	8
67	213
68	27
69	576
70	38
71	128
72	15
73	579
74	55
75	389
76	29
77	75
78	15
79	195
80	28
81	441
82	49
83	999
84	81
85	39
86	3
87	4
88	4
89	17
91	202
92	36
93	224
94	49
95	225
96	56
97	199
98	18
99	9
100	2
101	22
102	4
103	23
104	12
105	224
106	43
107	202
108	37
109	123
110	29
111	25
112	3
113	7
114	2
115	33
116	17
117	77
118	25
119	213
120	95
121	122
122	25
123	62
124	12
125	7
126	1
127	8
128	20
129	620
130	99
131	137
132	41
133	210
134	39
135	68
136	9
137	29
138	8
139	100
140	12
141	16
142	15
143	96
144	32
145	180
146	42
147	140
148	22
149	35
150	5
151	11
152	3
153	5
154	4
155	38
156	14
157	70
158	39
159	184
160	41
161	78
162	13
163	21
164	7
165	11
166	6
167	6
168	7
169	29
170	9
171	41
172	15
173	88
174	19
175	25
176	6
177	10
178	7
179	7
180	4
181	12
182	10
183	16
184	7
185	37
186	13
187	31
188	11
189	28
190	5
191	7
192	2
193	4
194	4
195	10
196	13
197	23
198	8
199	43
200	12
201	31
202	7
203	11
204	2
205	5
206	1
207	4
208	2
209	4
210	2
211	26
212	12
213	91
214	26
215	67
216	20
217	18
218	4
219	5
220	2
221	3
222	1
223	3
224	1
225	13
226	6
227	25
228	26
229	19
230	4
231	7
232	2
233	4
234	2
235	3
236	1
237	2
238	1
239	23
240	14
241	24
242	9
243	26
244	6
245	5
246	1
247	3
248	2
249	3
250	1
251	2
252	1
253	61
254	27
255	245
256	53
257	30
258	6
259	3
261	1
267	20
268	6
269	5
270	2
271	37
272	9
273	10
274	3
275	1
281	21
282	32
283	27
284	6
285	5
286	2
287	2
288	1
289	2
295	12
296	9
297	4
298	1
299	2
300	4
301	7
302	3
303	5
304	2
309	15
310	5
311	3
312	3
313	2
314	1
315	4
316	1
317	3
318	7
319	2
323	1
325	2
326	2
327	6
328	2
329	13
330	11
331	7
332	2
337	3
339	2
340	2
341	1
342	9
343	36
344	23
345	11
346	3
351	83
352	34
353	16
354	52
355	89
356	23
357	9
358	3
359	1
365	7
366	9
367	3
368	1
371	5
372	28
373	9
374	3
379	68
380	21
381	4
385	2
386	6
387	2
394	176
395	56
396	9
397	1
441	3
442	3
443	1
455	1
456	2
469	30
470	12
471	3
482	2
484	165
485	65
486	18
487	4
