Mass Spectrum: Dispiro[3,5,6-metheno-1-silapentalene-1(2H),1'-[1,3]disilacyclobutane-3',1''(2''H)-[3,5,6]metheno[1]silapentalene], 2,2',2'',4'-tetrakis(2,2-dimethylpropyl)dodecahydro-
Formula: C38H64Si2
CAS: 140395-68-2
Molecular weight: 576
m/z	intensity
12	4
13	2
14	6
15	16
16	7
17	22
18	74
26	8
27	25
28	19
29	217
30	6
31	9
32	4
36	2
37	3
38	5
39	32
41	319
42	22
43	148
44	15
45	31
46	2
47	2
49	6
50	3
51	6
52	2
53	11
55	72
57	999
58	50
59	143
60	11
61	6
65	8
66	14
67	22
68	4
69	44
70	9
71	88
72	8
73	84
74	8
75	4
77	12
78	5
79	28
80	5
81	39
82	11
83	85
84	13
85	79
86	10
87	13
89	3
91	48
92	10
93	74
94	13
95	99
96	16
97	72
98	10
99	49
100	6
101	12
103	6
105	28
106	9
107	58
108	12
109	99
110	16
111	92
112	11
113	36
114	5
115	17
116	4
117	15
118	5
119	53
120	12
121	93
122	15
123	53
124	10
125	43
126	7
127	26
128	7
129	13
130	4
131	39
132	10
133	77
134	14
135	55
136	10
137	45
138	8
139	36
140	6
141	16
142	3
143	15
144	4
145	63
146	14
147	63
148	13
149	42
150	7
151	20
152	4
153	15
154	3
155	9
157	8
158	2
159	25
160	5
161	29
162	6
163	26
164	6
165	27
166	5
167	11
169	8
171	7
173	15
174	4
175	23
176	6
177	27
178	5
179	12
180	3
181	8
183	6
185	5
187	11
188	3
189	17
190	4
191	14
192	3
193	8
195	10
196	2
197	4
199	6
201	13
202	4
203	24
204	7
205	14
206	3
207	6
209	5
211	3
213	5
215	10
216	3
217	12
218	3
219	7
221	6
223	2
225	2
227	5
229	9
230	2
231	12
232	3
233	5
235	3
239	2
241	3
243	4
245	4
247	4
249	2
251	1
253	2
255	3
257	4
259	5
260	1
261	5
262	1
265	2
267	2
269	2
271	3
273	4
275	3
279	1
281	1
283	1
285	4
287	10
288	3
289	2
297	1
299	2
301	2
309	1
311	1
313	2
315	1
317	1
323	1
325	1
337	1
339	1
341	1
343	3
345	10
346	3
347	1
351	1
355	1
369	3
370	1
371	2
379	1
383	1
387	1
399	1
401	2
407	1
421	2
422	1
435	4
436	2
449	1
453	10
454	4
455	1
463	1
491	3
492	2
510	2
519	88
520	43
521	16
522	4
562	2
563	1
577	14
578	7
579	2
