Mass Spectrum: 2(5H)-Furanone, 5-hydroxy-
Formula: C4H4O3
CAS: 14032-66-7
Molecular weight: 100
m/z	intensity
22	0
23	0
26	619
27	697
28	66
29	436
30	38
31	5
34	0
35	0
36	12
37	49
38	44
39	16
41	11
42	21
43	30
44	53
45	251
46	72
47	3
48	0
49	1
50	1
51	0
52	15
53	115
54	388
55	999
56	173
57	4
58	1
60	0
64	0
65	0
66	0
67	0
68	0
69	1
70	0
71	119
72	288
73	13
74	7
75	0
76	0
77	0
78	0
79	0
80	0
81	6
82	92
83	48
84	10
85	0
86	0
91	0
92	0
94	0
98	0
99	92
100	88
101	4
102	0
