Mass Spectrum: 10-Undecen-1-ol, TMS derivative
Formula: C14H30OSi
CAS: 14031-97-1
Molecular weight: 242
m/z	intensity
39	68
40	16
41	187
42	36
43	56
44	22
45	69
46	6
47	36
52	8
53	20
54	39
55	123
56	15
57	13
58	18
59	62
60	11
61	62
62	5
66	7
67	59
68	25
69	49
72	16
73	304
74	40
75	999
76	88
77	51
81	42
82	30
83	23
84	5
85	12
87	17
88	7
89	72
90	7
91	17
95	39
96	18
97	9
99	20
101	31
102	4
103	122
104	15
105	6
109	17
110	6
115	17
127	9
129	17
143	6
185	6
199	10
200	2
209	6
226	6
227	134
228	28
229	10
242	4
243	1
