Mass Spectrum: Diethoxymethyl acetate
Formula: C7H14O4
CAS: 14036-06-7
Molecular weight: 162
m/z	intensity
27	380
28	257
29	306
30	54
31	396
33	7
34	1
35	1
36	4
37	2
38	3
39	10
40	5
41	22
42	80
43	999
44	81
45	235
46	9
47	518
48	8
49	2
50	1
51	2
52	1
53	1
54	2
55	2
56	11
57	20
58	3
59	7
60	79
61	54
62	3
63	12
64	1
65	1
67	1
69	1
70	15
71	2
72	4
73	23
74	29
75	200
76	7
77	5
78	1
79	1
80	0
83	1
84	0
85	0
86	1
87	5
88	24
89	10
90	1
91	8
92	1
93	0
99	0
100	2
101	3
102	13
103	197
104	11
105	2
107	1
108	1
114	0
115	0
117	50
118	3
119	3
130	1
131	2
133	0
138	0
145	0
146	0
147	3
148	0
