Mass Spectrum: 1-.beta.-d-3'-Anhydro-uridine
Formula: C9H10N2O5
CAS: 14042-38-7
Molecular weight: 226
m/z	intensity
12	7
13	12
14	37
15	131
16	18
17	34
18	52
19	52
25	19
26	203
27	292
28	362
29	692
30	100
31	861
32	28
36	8
37	12
38	38
39	206
40	262
41	450
42	289
43	325
44	136
45	227
46	76
47	47
50	10
51	27
52	72
53	182
54	204
55	294
56	96
57	311
58	53
59	49
60	52
61	43
62	7
64	8
65	9
66	19
67	88
68	263
69	494
70	424
71	163
72	23
73	188
74	17
75	20
76	6
77	7
78	16
79	30
80	40
81	73
82	103
83	74
84	300
85	186
86	79
87	32
88	7
89	8
91	10
93	13
94	39
95	207
96	533
97	142
98	132
99	18
100	8
101	16
102	7
103	14
104	13
105	6
106	9
107	11
108	43
109	29
110	51
111	47
112	322
113	999
114	145
115	285
116	22
117	10
121	11
122	14
123	17
124	75
125	30
126	17
127	8
129	15
132	14
133	22
134	6
135	21
136	43
137	387
138	52
139	52
140	28
141	85
142	10
143	7
147	8
148	10
149	43
150	13
151	23
152	39
153	13
154	14
155	30
156	5
163	9
164	6
165	28
166	10
167	161
168	57
169	12
171	12
177	68
178	18
179	67
180	17
181	7
183	16
185	4
191	3
195	67
196	38
197	11
198	5
199	3
205	3
207	4
208	12
209	18
210	3
213	3
225	3
226	392
227	45
228	8
