Mass Spectrum: Sparsomycin
Formula: C13H19N3O5S2
CAS: 1404-64-4
Molecular weight: 361
m/z	intensity
41	120
42	409
43	185
44	423
45	999
46	345
47	853
48	572
49	187
50	45
51	65
52	50
53	75
54	92
55	56
56	43
57	121
58	91
59	270
60	78
61	951
62	83
63	152
64	91
65	40
66	41
67	41
68	61
69	47
70	79
71	49
72	43
73	52
74	12
75	13
76	66
77	31
78	51
79	57
80	180
81	77
82	22
83	36
84	101
85	67
86	556
87	119
88	42
89	12
90	11
91	21
92	45
93	50
94	122
95	50
96	26
97	18
98	10
99	17
100	6
101	10
104	10
105	6
106	13
107	52
108	88
109	22
110	166
111	18
112	41
116	23
117	159
118	37
119	20
120	14
121	12
122	6
124	2
125	6
126	38
133	6
134	6
135	32
136	49
137	9
138	3
139	16
140	23
146	6
147	6
149	7
150	18
151	171
152	181
153	23
154	2
160	12
161	5
162	14
163	16
164	5
165	58
166	7
176	2
177	11
178	82
179	332
180	41
181	11
186	9
189	8
191	7
192	10
196	2
206	2
218	7
220	33
221	8
222	3
232	2
233	20
234	10
236	6
252	5
284	8
296	136
297	21
298	8
300	3
343	3
