Mass Spectrum: 1H-Benzo[e]pyrazolo[1,5-c][1,3]-oxazine, 5,10b-dihydro-2,5-diphenyl-
Formula: C22H18N2O
CAS: 140472-91-9
Molecular weight: 326
m/z	intensity
33	4
34	6
35	1
36	3
37	8
38	24
39	254
40	62
41	57
42	18
43	26
44	22
45	7
46	1
48	0
50	133
51	547
52	77
53	20
54	6
55	21
56	5
57	14
58	43
59	2
60	1
61	4
62	41
63	170
64	76
65	189
66	16
67	4
68	2
69	7
70	6
71	5
72	1
74	31
75	56
76	101
77	999
78	119
79	26
81	6
82	10
83	8
84	3
85	2
86	6
87	14
89	277
90	260
91	260
92	45
93	6
94	13
95	7
97	5
98	6
99	3
100	3
101	19
102	54
103	113
104	451
105	112
106	17
107	11
108	1
109	3
110	6
111	3
112	2
113	9
114	9
115	52
116	25
118	407
119	63
120	64
121	5
122	1
123	1
124	2
125	2
126	11
127	12
128	22
129	10
130	17
131	41
132	36
133	5
135	3
136	0
137	1
138	3
139	19
140	7
141	6
142	3
143	3
144	7
145	23
146	148
147	14
148	2
149	4
150	8
151	20
152	55
153	19
154	7
155	5
156	0
157	0
159	0
161	1
162	3
163	16
164	13
165	71
166	17
167	20
168	5
169	1
170	0
171	5
172	0
174	1
175	2
176	17
177	17
178	75
179	30
180	38
181	49
182	11
183	1
184	0
186	0
187	4
188	5
189	39
190	19
191	31
192	33
193	18
194	76
195	24
196	5
197	0
200	0
201	1
202	5
203	5
204	10
205	16
206	38
207	256
208	64
209	11
210	2
211	0
213	0
215	1
216	0
218	4
219	7
220	18
221	13
222	281
223	93
224	11
225	0
226	0
229	0
230	0
231	4
232	1
233	8
234	2
235	1
236	0
237	0
239	0
240	0
242	0
243	0
245	0
247	9
248	3
249	52
250	11
251	1
252	1
253	0
254	1
255	0
256	0
263	0
266	0
268	0
269	0
276	0
279	0
281	0
282	0
283	0
295	2
296	1
297	0
298	0
299	1
300	0
309	3
310	1
320	0
322	1
323	6
324	7
325	25
326	222
327	52
328	7
329	0
