Mass Spectrum: .alpha.-D-Glucopyranoside, methyl 2,3-di-O-methyl-
Formula: C9H18O6
CAS: 14048-30-7
Molecular weight: 222
m/z	intensity
41	76
43	68
45	217
61	60
71	112
73	233
74	145
75	645
85	96
87	221
88	999
89	72
99	32
101	112
103	20
111	72
112	72
130	193
159	193
161	399
162	24
190	28
191	36
