Mass Spectrum: Benzetimide
Formula: C23H26N2O2
CAS: 14051-33-3
Molecular weight: 362
m/z	intensity
55	32
56	16
65	63
69	7
77	28
80	9
82	270
89	18
91	999
92	87
103	17
104	15
115	47
117	34
118	16
120	46
127	10
128	32
129	23
131	11
141	11
143	7
158	19
172	136
173	33
174	242
175	39
271	393
272	60
285	31
361	48
362	69
363	14
