Mass Spectrum: Manganese, tetracarbonyl[3-(methylthio)propionyl]-
Formula: C8H7MnO5S
CAS: 14051-98-0
Molecular weight: 270
m/z	intensity
45	410
47	940
48	790
55	530
75	130
87	120
102	999
130	320
142	150
158	190
186	120
214	80
242	310
270	3
