Mass Spectrum: Decanoic acid, 10-chloro-10-oxo-, methyl ester
Formula: C11H19ClO3
CAS: 14065-32-8
Molecular weight: 234
m/z	intensity
25	2
26	9
27	144
28	47
29	147
30	6
31	20
33	3
34	1
35	37
36	283
37	13
38	97
39	130
40	29
41	415
42	124
43	314
44	29
45	50
46	2
47	2
48	2
49	1
50	5
51	12
52	6
53	57
54	68
55	999
56	123
57	77
58	12
59	284
60	23
61	5
62	1
63	8
64	3
65	18
66	12
67	156
68	103
69	399
70	103
71	41
72	12
73	81
74	793
75	60
76	9
77	19
78	11
79	76
80	124
81	162
82	76
83	315
84	479
85	56
86	6
87	280
88	41
89	6
91	30
92	11
93	51
94	75
95	126
96	121
97	388
98	804
99	70
100	18
101	77
102	11
103	4
104	16
105	16
106	23
107	63
108	10
109	55
110	125
111	186
112	98
113	35
114	27
115	70
116	10
117	5
118	2
119	22
120	44
121	147
122	39
123	41
124	95
125	513
126	50
127	27
128	12
129	18
130	13
131	9
132	8
133	6
134	2
135	3
136	4
137	41
138	380
139	200
140	22
141	15
142	16
143	10
144	35
145	5
146	2
147	11
148	64
149	78
150	10
151	15
152	12
153	3
154	20
155	15
156	16
157	353
158	35
159	4
165	14
166	403
167	123
168	15
169	6
170	38
171	17
172	5
198	40
199	444
200	59
201	7
202	2
203	33
204	3
205	11
206	3
