Mass Spectrum: 7-Phenylureido-4-chloro-3-propyloxyisocoumarin
Formula: C19H17ClN2O4
CAS: 140653-02-7
Molecular weight: 372
m/z	intensity
41	207
42	39
43	245
44	160
45	32
46	35
47	5
49	22
50	97
51	112
52	87
53	25
54	34
55	23
56	4
57	26
59	43
60	18
61	30
62	61
63	145
64	232
65	183
66	200
67	33
68	4
69	20
70	4
71	5
73	21
74	35
75	51
76	47
77	100
78	51
79	33
81	6
82	10
83	21
84	16
85	17
86	9
87	11
88	9
89	6
90	85
91	405
92	103
93	997
94	72
96	5
97	24
99	30
100	40
101	12
102	24
103	10
104	39
105	16
106	20
109	23
110	4
111	19
112	9
117	15
119	999
120	221
121	27
124	29
125	10
126	17
127	4
129	13
130	10
134	22
135	23
136	16
137	4
138	39
139	21
140	17
142	4
145	35
146	180
148	242
149	75
150	10
152	38
154	32
155	4
164	62
166	43
174	168
175	71
176	16
177	5
180	13
182	59
183	135
184	27
185	46
192	14
208	11
209	282
210	71
211	426
212	78
213	110
214	9
223	5
235	17
237	314
238	9
239	125
240	9
249	10
253	53
255	22
261	5
267	24
268	18
271	10
279	90
281	42
286	30
330	130
331	14
332	50
354	25
372	54
373	6
374	23
