Mass Spectrum: 1-Oxaspiro[4,5]decane 4-carbonitrile, 2-oxo-
Formula: C10H13NO2
CAS: 140650-87-9
Molecular weight: 179
m/z	intensity
33	0
34	1
35	0
36	1
37	3
38	11
39	167
40	44
41	253
42	145
43	93
44	7
45	3
46	3
48	2
50	13
51	32
52	64
53	191
54	181
55	258
56	174
57	39
58	3
59	0
60	1
61	2
62	2
63	8
64	7
65	29
66	22
67	102
68	20
69	44
70	25
71	12
72	2
73	0
74	2
75	1
76	2
77	27
78	13
79	52
80	73
81	428
82	66
83	18
84	5
85	1
88	0
89	1
90	2
91	14
92	22
93	11
94	16
95	20
96	11
97	35
98	22
99	999
100	71
101	4
102	1
103	1
104	3
105	5
106	8
107	8
108	52
109	57
110	31
111	10
112	2
113	0
115	0
116	1
117	2
118	6
119	4
120	56
121	7
122	13
123	109
124	58
125	7
126	1
128	0
130	0
131	0
132	3
133	4
134	9
136	526
137	139
138	14
139	1
143	0
145	0
146	0
148	0
149	2
150	37
151	20
152	22
153	3
154	0
156	0
160	0
161	2
162	1
163	0
164	3
165	0
166	0
171	1
172	0
174	0
178	4
179	30
180	3
181	0
182	0
