Mass Spectrum: Imidazolidine, 1,3-di(4-methylphenyl)-
Formula: C17H20N2
CAS: 14068-24-7
Molecular weight: 252
m/z	intensity
37	1
38	8
39	64
40	11
41	42
42	54
43	4
44	2
46	0
50	23
51	53
52	27
53	17
54	8
55	2
56	3
57	0
59	1
62	14
63	51
64	25
65	189
66	15
67	1
69	0
74	2
75	8
76	18
77	106
78	52
79	64
80	7
81	0
82	0
84	0
85	0
86	1
87	2
89	81
90	81
91	457
92	50
93	6
94	0
97	0
102	10
103	48
105	999
106	98
107	35
108	3
109	0
110	1
111	1
115	5
116	17
117	89
118	259
119	138
120	45
121	6
122	0
126	74
128	1
130	25
131	18
132	124
133	488
134	75
135	6
136	0
140	0
142	0
143	0
144	1
145	0
146	2
147	0
149	0
152	0
157	0
159	6
160	8
161	11
162	1
165	0
166	0
167	0
179	0
180	1
181	1
182	0
192	0
193	0
194	2
195	0
196	0
197	0
206	0
207	2
208	2
209	2
210	8
211	1
219	0
221	4
222	4
223	6
224	1
235	0
236	0
237	0
251	878
252	667
253	107
254	9
