Mass Spectrum: N-[4-Chlorophenylsulfonyl]benzenecarboxamidine
Formula: C13H11ClN2O2S
CAS: 14067-79-9
Molecular weight: 294
m/z	intensity
41	6
42	5
43	44
44	2
45	7
46	7
47	7
48	11
49	18
50	244
51	435
52	39
53	7
54	2
55	2
57	3
58	1
60	2
61	15
62	8
63	59
64	44
65	42
66	7
67	2
69	9
70	2
71	2
73	19
74	75
75	472
77	999
78	54
79	5
80	4
81	2
82	3
84	32
85	43
86	15
87	17
88	5
89	13
90	11
91	33
92	31
93	7
95	7
97	26
99	23
100	5
101	9
103	106
104	423
105	38
107	10
108	13
111	715
113	271
114	16
115	4
117	5
118	3
119	207
120	29
121	3
123	6
124	1
125	1
126	12
127	357
129	140
130	10
131	13
133	6
134	2
135	4
136	8
137	0
139	5
140	2
141	1
142	2
143	2
144	1
145	0
146	0
149	2
150	2
151	12
152	13
153	9
155	5
159	26
161	11
162	1
165	0
167	105
168	8
169	5
171	3
172	0
173	0
175	92
177	56
178	11
179	4
180	1
183	13
184	1
185	1
186	1
188	7
189	0
190	2
191	1
192	2
194	38
195	11
196	2
199	1
200	1
202	0
203	0
204	1
206	0
209	0
210	1
212	35
214	95
215	13
216	22
217	4
218	0
221	1
225	3
226	3
229	524
230	487
231	208
232	150
233	18
234	1
241	0
245	0
259	0
267	1
276	1
278	3
280	1
290	5
291	0
293	3
294	190
295	42
296	64
297	13
298	3
