Mass Spectrum: 4-Methyl-6-nitrobenzofurazan oxide
Formula: C7H5N3O4
CAS: 140647-89-8
Molecular weight: 195
m/z	intensity
51	153
61	106
62	241
63	999
64	288
65	188
76	154
86	95
87	116
89	517
90	89
91	525
92	110
118	66
119	93
135	13
137	16
165	12
166	115
179	89
195	740
