Mass Spectrum: 1-Oxaspiro[4.5]decan-3-carboxylic acid, 2-oxo-4-cyano-, ethyl ester
Formula: C13H17NO4
CAS: 140650-86-8
Molecular weight: 251
m/z	intensity
33	46
34	32
35	7
36	28
37	20
38	66
39	577
40	50
41	945
42	457
43	426
44	806
45	193
46	46
47	19
48	5
49	4
50	48
51	141
52	281
53	346
54	280
55	776
56	186
57	128
58	21
59	13
60	25
61	11
62	9
63	31
64	28
65	106
66	75
67	264
68	103
69	243
70	100
71	65
72	16
73	29
74	13
75	9
76	17
77	122
78	80
79	228
80	386
81	512
82	122
83	91
84	28
85	27
86	22
87	32
88	16
89	12
90	14
91	120
92	62
93	76
94	63
95	68
96	47
97	94
98	189
99	999
100	76
101	17
102	9
103	20
104	31
105	66
106	73
107	88
108	69
109	78
110	31
111	49
112	25
113	19
114	15
115	31
116	18
117	39
118	40
119	45
120	168
121	78
122	132
123	78
124	53
125	105
126	39
127	20
128	11
129	11
130	13
131	24
132	83
133	70
134	147
135	70
136	172
137	76
138	98
139	26
140	16
141	20
142	10
143	9
144	12
145	9
146	9
147	10
148	22
149	37
150	53
151	49
152	48
153	92
154	25
155	8
156	4
157	8
158	8
159	47
160	44
161	52
162	102
163	32
164	33
165	18
166	23
167	28
168	13
169	6
170	6
171	15
172	6
173	8
175	17
176	54
177	95
178	298
179	102
180	66
181	17
182	10
183	10
184	4
185	5
186	6
187	70
188	25
189	13
190	8
191	8
192	6
193	5
194	11
195	8
196	7
197	5
198	3
199	4
200	3
201	3
202	3
203	8
204	20
205	170
206	64
207	21
208	16
209	6
210	5
211	3
212	4
213	4
214	2
215	3
216	1
217	3
218	2
219	2
220	5
221	6
223	28
224	16
225	4
226	2
228	2
229	1
230	2
231	1
232	2
233	11
234	5
235	4
236	2
237	2
238	2
239	3
240	1
241	2
242	1
243	1
244	0
245	1
246	0
247	1
248	2
249	2
250	3
251	16
252	3
253	2
