Mass Spectrum: 1,2-Ditosylhydrazine
Formula: C14H16N2O4S2
CAS: 14062-05-6
Molecular weight: 340
m/z	intensity
16	1
17	6
18	1
26	1
27	8
28	30
29	17
30	20
31	107
32	4
37	1
38	6
39	73
40	6
41	21
42	1
43	2
44	4
45	50
46	1
47	2
48	2
50	17
51	37
52	10
53	10
54	1
55	1
57	1
58	2
59	1
60	1
61	4
62	15
63	55
64	18
65	237
66	14
67	10
69	10
70	3
71	5
73	1
74	5
75	4
76	3
77	84
78	26
79	73
80	12
81	1
82	3
83	2
84	2
85	2
86	3
87	3
88	1
89	63
90	31
91	999
92	287
93	61
94	4
95	8
96	2
97	6
104	2
105	2
106	27
107	108
108	89
109	9
110	1
111	13
112	1
115	1
121	26
122	15
123	188
124	53
125	11
126	3
135	1
137	1
138	2
139	772
140	78
141	39
142	3
149	1
152	1
153	1
154	2
155	370
156	185
157	381
158	40
159	18
160	1
162	1
165	6
166	3
167	1
171	234
172	23
173	12
174	1
178	1
179	1
180	1
181	4
182	2
184	9
185	2
186	142
187	14
188	8
197	6
198	9
199	6
200	1
211	1
212	1
213	5
214	9
215	1
246	18
247	3
248	2
278	407
279	70
280	42
281	6
282	1
