Mass Spectrum: Cyclohexene, 4,4-dimethyl-
Formula: C8H14
CAS: 14072-86-7
Molecular weight: 110
m/z	intensity
24	0
25	0
26	20
27	307
28	9
29	133
30	5
34	0
35	0
36	1
37	8
38	29
39	462
40	70
41	700
42	33
43	77
44	1
45	8
46	11
48	1
49	1
50	29
51	81
52	39
53	156
54	947
55	282
56	999
57	48
58	1
60	4
61	4
62	9
63	22
64	5
65	62
66	41
67	311
68	181
69	165
70	10
73	0
74	2
75	3
76	2
77	89
78	26
79	74
80	39
81	293
82	97
83	7
84	0
85	0
86	0
87	0
88	0
89	2
90	1
91	45
92	9
93	32
94	11
95	818
96	63
97	2
98	1
100	0
102	0
103	0
105	0
107	0
108	1
109	6
110	385
111	35
112	1
