Mass Spectrum: 2-Oxo-5-benzoxy-6-methyl-4-phenyl-1,2,3,4-tetrahydropyrimidine
Formula: C18H16N2O2
CAS: 14080-15-0
Molecular weight: 292
m/z	intensity
39	134
40	55
41	176
42	447
43	208
44	703
45	197
48	124
50	55
51	224
52	66
53	42
54	37
55	118
56	61
57	103
60	47
63	29
64	197
65	47
66	50
67	95
68	61
69	79
70	37
71	46
73	37
74	26
75	37
76	71
77	999
78	118
79	39
81	45
82	34
83	58
84	39
85	42
89	37
90	30
91	68
95	34
96	32
97	42
98	32
101	29
102	82
103	92
104	129
105	798
106	83
107	22
109	35
110	46
115	96
116	46
117	46
118	30
125	17
127	43
128	67
129	61
130	52
131	74
132	59
137	30
142	33
143	35
144	85
145	37
154	17
165	24
169	22
170	41
172	41
177	24
178	39
179	21
185	137
186	46
187	461
188	59
213	85
214	28
215	570
216	98
277	152
278	39
290	43
291	359
292	619
293	117
