Mass Spectrum: 3-(2-Methylpiperidino)propionitrile
Formula: C9H16N2
CAS: 140837-33-8
Molecular weight: 152
m/z	intensity
14	2
15	13
25	1
26	25
27	71
28	104
29	53
30	72
31	1
37	2
38	6
39	66
40	27
41	200
42	213
43	37
44	214
45	5
46	1
47	1
48	1
50	4
51	13
52	30
53	50
54	109
55	234
56	236
57	31
58	10
63	1
64	1
65	6
66	7
67	28
68	51
69	74
70	40
71	18
72	1
77	4
78	3
79	9
80	12
81	50
82	35
83	73
84	93
85	6
91	2
92	3
93	9
94	14
95	20
96	220
97	79
98	27
99	8
105	1
106	2
107	3
108	7
109	71
110	47
111	30
112	999
113	84
114	2
120	1
121	1
122	1
123	9
124	2
125	1
126	1
133	1
134	1
135	5
136	1
137	909
138	87
139	4
150	1
151	38
152	78
153	9
