Mass Spectrum: 1,3,4,6-Tetra-O-acetyl-2-acetamido-2-deoxy-d-glucopyranose
Formula: C16H23NO10
CAS: 14086-90-9
Molecular weight: 389
m/z	intensity
59	179
60	139
61	15
68	29
69	59
70	29
71	25
72	229
73	15
80	25
81	43
83	39
84	269
85	109
86	34
87	10
89	19
95	9
96	389
97	169
98	169
99	99
100	59
101	129
102	79
103	25
108	40
109	29
110	19
111	13
112	49
113	23
114	999
115	109
121	15
122	31
124	31
125	46
126	149
127	29
128	13
129	9
130	18
136	12
138	12
139	429
140	129
141	19
142	59
143	23
144	31
145	15
150	39
154	39
155	19
156	449
157	9
158	9
160	19
166	56
167	42
168	59
172	9
181	209
182	49
184	45
185	7
186	11
187	5
198	149
199	199
200	29
202	20
209	6
210	19
213	15
214	19
217	8
226	15
227	9
228	13
241	419
242	59
243	9
244	449
258	6
259	28
260	3
269	3
270	5
274	5
283	11
284	9
286	28
287	29
304	8
318	27
319	4
329	14
330	9
346	30
347	5
