Mass Spectrum: 9-Trimethylsilyloxy-12-octadecenoic acid, methyl ester
Formula: C22H44O3Si
CAS: 140909-03-1
Molecular weight: 384
m/z	intensity
41	283
42	62
43	80
45	19
46	61
50	6
54	163
55	517
56	98
58	120
59	26
60	37
65	17
67	753
68	331
69	683
70	58
71	48
73	999
74	171
75	956
76	72
78	15
79	155
80	143
81	727
82	491
83	279
84	50
85	6
86	63
89	78
91	155
92	17
93	157
94	135
95	794
96	334
97	171
98	52
100	74
101	13
102	172
103	15
104	80
105	6
107	152
108	85
109	576
110	316
111	17
112	17
113	6
115	82
116	63
117	52
119	87
120	26
121	131
123	148
124	414
125	82
126	56
127	15
129	176
130	379
131	109
132	48
133	26
134	113
136	135
137	526
138	109
139	26
140	15
141	19
142	13
143	286
144	30
145	48
146	39
148	10
150	109
151	65
152	52
153	15
154	39
155	524
156	56
157	32
158	4
159	128
160	15
161	28
163	28
164	113
165	58
166	30
167	17
168	133
169	13
171	45
173	37
175	10
176	10
177	24
178	72
179	28
181	45
182	13
183	13
185	32
186	6
187	98
188	28
189	6
191	19
192	37
195	28
197	15
199	45
200	10
201	17
202	6
205	48
206	26
207	4
209	13
210	17
211	8
212	10
213	6
215	39
216	6
217	8
218	8
219	15
220	30
221	15
223	17
224	8
225	6
227	478
228	104
229	58
230	50
231	6
234	15
235	4
237	6
241	4
242	48
243	21
244	19
245	19
246	15
252	10
255	161
256	34
257	41
259	888
260	163
261	61
262	157
263	87
264	13
265	4
268	13
271	4
272	50
285	65
286	10
294	410
295	120
299	8
302	15
311	6
313	4
337	126
338	34
339	10
353	15
355	10
359	4
369	52
370	8
