Mass Spectrum: Methyl(phenylsulfinyl)acetate
Formula: C9H10O3S
CAS: 14090-83-6
Molecular weight: 198
m/z	intensity
12	1
13	2
14	5
15	81
16	3
26	3
27	9
28	11
29	24
30	28
31	290
32	152
33	4
34	2
36	1
37	9
38	16
39	77
40	6
41	4
42	10
43	53
44	84
45	143
46	5
47	6
48	1
49	6
50	53
51	122
52	9
53	12
54	11
55	20
56	6
57	13
58	26
59	190
60	9
61	9
62	11
63	23
64	5
65	121
66	314
67	16
68	2
69	69
70	9
71	17
72	3
73	7
74	19
75	23
76	13
77	187
78	34
79	13
80	1
81	15
82	20
83	9
84	134
85	8
86	6
88	12
89	3
90	1
91	25
92	8
93	4
94	2
95	9
96	1
97	52
98	3
99	2
103	5
104	2
105	3
106	2
107	2
108	27
109	255
110	999
111	83
112	45
113	3
118	1
121	7
122	2
123	194
124	20
125	289
126	22
127	13
128	1
137	1
138	6
139	1
140	3
141	3
150	2
151	1
153	7
154	7
155	1
156	1
162	2
166	1
167	3
182	110
183	11
184	8
185	8
198	64
199	7
200	3
