Mass Spectrum: 3-Methoxy-1-pentene
Formula: C6H12O
CAS: 14092-18-3
Molecular weight: 100
m/z	intensity
39	100
40	20
41	490
42	30
43	40
45	60
53	40
54	10
55	50
56	20
57	20
59	10
67	30
68	10
69	60
71	999
72	60
73	50
85	10
99	10
100	70
101	6
