Mass Spectrum: 1,4-Naphthoquinone, 2-acetyl-5,8-dihydroxy-3-methoxy-
Formula: C13H10O6
CAS: 14090-55-2
Molecular weight: 262
m/z	intensity
41	578
42	135
43	999
44	137
45	404
46	63
47	21
49	42
50	163
51	281
52	182
53	328
54	122
55	470
56	148
57	326
58	82
59	31
60	141
61	80
62	99
63	207
64	103
65	125
66	80
67	182
68	99
69	254
70	95
71	127
72	84
73	152
74	103
75	84
76	122
77	233
78	86
79	133
80	50
81	148
82	80
83	135
84	63
85	89
86	42
87	63
88	42
89	74
90	42
91	114
92	139
93	103
94	38
95	141
96	57
97	93
98	53
99	42
100	61
101	42
102	42
103	69
104	84
105	131
106	59
107	105
108	283
109	84
110	46
111	84
112	44
113	42
114	21
115	141
116	40
117	61
118	63
119	114
120	150
121	82
122	42
123	61
124	21
125	42
126	16
127	16
128	25
129	53
130	40
131	63
132	42
133	42
134	122
135	99
136	78
137	63
138	16
139	21
141	16
142	33
143	40
144	42
145	23
146	42
147	63
148	21
149	169
150	44
151	27
152	50
153	21
157	40
158	42
159	141
160	59
161	118
162	118
163	131
164	36
165	40
166	21
167	21
170	19
171	21
173	42
174	82
175	42
176	148
177	80
178	44
179	21
184	21
185	16
186	25
187	40
188	38
189	254
190	78
191	188
192	103
193	21
198	21
199	33
201	42
202	42
203	59
204	381
205	182
206	57
207	21
214	21
215	53
216	48
217	122
218	40
219	624
220	144
221	42
223	23
227	21
228	21
229	42
230	14
231	44
232	129
233	42
234	112
235	53
244	57
246	21
247	917
248	184
249	74
250	46
256	40
257	53
258	23
259	25
261	21
262	868
263	184
264	63
