Mass Spectrum: 2,4-Octanedione
Formula: C8H14O2
CAS: 14090-87-0
Molecular weight: 142
m/z	intensity
25	0
26	16
27	118
29	129
30	5
31	29
33	1
36	0
37	2
38	7
39	77
40	8
41	193
42	52
43	916
44	24
45	8
46	0
47	1
48	0
50	5
51	7
52	1
53	14
54	4
55	67
56	27
57	272
58	127
59	9
60	0
61	3
62	1
63	1
65	1
66	3
67	20
68	2
69	39
70	2
71	39
72	86
73	3
74	0
77	2
78	0
79	4
80	2
81	12
82	0
83	5
84	17
85	999
86	57
87	5
91	0
93	0
94	0
95	12
96	1
97	4
98	2
99	11
100	597
101	26
102	3
105	0
107	1
109	6
110	1
111	2
112	1
113	121
114	11
115	0
120	0
123	0
124	9
125	1
127	79
128	7
129	0
141	0
142	71
143	8
144	0
