Mass Spectrum: Acetamide, N-bicyclo[2.2.1]hept-2-en-7-yl-, anti-
Formula: C9H13NO
CAS: 14098-17-0
Molecular weight: 151
m/z	intensity
41	200
43	820
44	160
51	100
53	140
55	120
60	860
65	100
67	80
72	140
73	120
77	160
78	50
79	140
80	220
81	200
82	90
92	960
93	999
94	140
95	380
108	380
109	280
136	60
151	720
152	160
153	20
