Mass Spectrum: tert-Octyl mercaptan
Formula: C8H18S
CAS: 141-59-3
Molecular weight: 146
m/z	intensity
15	8
26	2
27	54
28	8
29	129
30	2
32	7
33	9
34	26
35	1
36	1
37	1
38	4
39	70
40	10
41	277
42	14
43	78
44	3
45	7
46	1
47	17
48	2
49	2
50	3
51	7
52	3
53	18
54	5
55	180
56	116
57	999
58	46
59	23
60	3
61	9
62	1
63	2
65	4
66	1
67	6
68	2
69	36
70	9
71	20
72	1
73	1
74	38
75	306
76	15
77	15
78	1
79	3
81	4
82	1
83	13
84	3
85	1
87	1
88	36
89	69
90	9
91	8
92	2
95	1
96	1
97	69
98	7
102	1
103	5
112	22
113	120
114	11
117	1
131	1
146	13
147	1
