Mass Spectrum: Butane, 1,1'-[(1-methylethylidene)bis(oxy)]bis-
Formula: C11H24O2
CAS: 141-72-0
Molecular weight: 188
m/z	intensity
26	84
27	526
28	118
29	702
30	34
31	364
33	24
34	0
36	1
37	19
38	39
39	323
40	57
41	744
42	211
43	590
44	36
45	39
46	2
47	0
48	0
49	2
50	8
51	9
52	3
53	20
54	10
55	109
56	441
57	278
58	546
59	999
60	38
61	107
62	3
63	1
65	0
66	0
67	0
68	0
69	1
70	1
71	7
72	12
73	13
74	3
75	2
77	0
79	0
81	0
82	0
83	2
84	0
85	13
86	4
87	1
88	0
89	0
97	0
98	1
99	113
100	10
101	4
113	0
114	10
115	441
116	39
117	15
118	1
119	0
131	0
145	0
159	0
173	15
174	1
