Mass Spectrum: 9-Undecenal, 2,6,10-trimethyl-
Formula: C14H26O
CAS: 141-13-9
Molecular weight: 210
m/z	intensity
41	984
42	140
43	473
44	21
45	53
46	2
47	0
48	0
49	0
50	4
51	18
52	11
53	140
54	47
55	671
56	330
57	304
58	84
59	49
60	3
61	1
62	0
63	2
64	1
65	34
66	15
67	303
68	201
69	999
70	267
71	170
72	22
73	6
74	7
75	1
76	0
77	28
78	6
79	66
80	31
81	284
82	403
83	257
84	263
85	99
86	9
87	6
88	0
89	0
91	19
92	8
93	92
94	49
95	178
96	133
97	188
98	63
99	22
100	7
101	5
102	1
103	3
104	0
105	6
106	4
107	90
108	40
109	389
110	80
111	87
112	45
113	9
114	2
115	2
116	1
117	1
118	0
119	3
120	2
121	56
122	26
123	90
124	26
125	80
126	195
127	25
128	5
129	4
130	3
131	1
132	0
133	2
134	2
135	48
136	25
137	39
138	8
139	21
140	21
141	5
142	2
143	4
144	1
145	1
146	0
147	2
148	1
149	75
150	14
151	6
152	116
153	23
154	6
155	2
156	1
157	1
158	0
159	1
160	0
161	1
162	0
163	5
164	3
165	2
166	2
167	6
168	3
169	4
170	1
171	1
172	0
173	0
174	0
175	1
176	0
177	14
178	2
179	14
180	4
181	2
182	1
183	1
184	0
185	0
186	0
187	0
188	0
189	0
190	0
191	1
192	64
193	10
194	1
195	7
196	1
197	1
198	0
199	0
201	0
202	0
203	0
204	0
205	0
206	1
207	0
208	1
209	0
210	123
211	19
212	2
213	0
