Mass Spectrum: Monoethanolamine
Formula: C2H7NO
CAS: 141-43-5
Molecular weight: 61
m/z	intensity
13	1
14	6
15	46
16	4
17	10
18	33
19	2
26	5
27	23
28	112
29	23
30	999
31	40
32	4
33	2
38	1
39	3
40	7
41	20
42	70
43	25
44	7
45	3
55	2
56	6
57	1
58	3
59	4
60	9
61	59
62	2
