Mass Spectrum: Octadecanoic acid, 12-hydroxy-, methyl ester
Formula: C19H38O3
CAS: 141-23-1
Molecular weight: 314
m/z	intensity
26	7
27	133
28	10
29	190
30	3
31	31
33	4
38	3
39	77
40	26
41	384
42	97
43	532
44	48
45	48
53	52
54	42
55	999
56	68
57	298
58	28
59	130
60	3
61	12
65	4
67	152
68	51
69	375
70	47
71	217
72	8
73	42
74	364
75	56
79	38
81	199
82	26
83	262
84	53
85	142
86	13
87	737
88	63
91	10
93	41
94	4
95	329
96	74
97	354
98	61
99	23
101	105
102	9
108	4
109	128
110	24
111	88
112	22
113	8
114	4
115	134
116	12
119	30
121	35
123	32
124	3
125	47
126	3
127	7
129	83
130	8
131	3
133	7
135	22
136	8
137	60
138	9
139	33
141	4
143	183
144	24
147	5
149	23
151	35
152	4
153	55
155	11
157	135
158	9
161	33
162	2
163	4
165	9
167	20
169	16
171	55
177	2
179	23
180	20
181	20
182	3
185	22
187	3
191	12
195	18
197	864
198	90
199	9
200	218
201	83
202	6
209	7
213	6
215	13
222	3
226	12
227	5
229	153
230	18
235	5
237	2
241	3
245	14
246	8
247	37
248	8
263	25
264	47
265	118
266	41
281	10
283	5
288	4
296	503
297	107
314	3
