Mass Spectrum: Piperazine, 1-[(3,4,-dichlorophenyl)acetyl]-
Formula: C12H14Cl2N2O
CAS: 141044-84-0
Molecular weight: 272
m/z	intensity
42	469
43	224
44	699
45	246
46	14
47	3
48	0
49	7
50	21
51	21
52	17
53	100
54	122
55	196
56	999
57	251
58	121
59	11
60	6
61	13
62	56
63	106
64	9
65	3
66	2
67	3
68	48
69	587
70	111
71	70
72	45
73	54
74	19
75	27
76	3
77	8
78	10
79	4
80	5
81	33
82	14
83	30
84	35
85	404
86	90
87	78
88	56
89	180
90	16
91	4
94	0
95	3
96	5
97	32
98	113
99	120
100	9
101	13
102	5
103	5
104	2
105	5
106	8
107	9
108	2
109	11
110	3
111	9
112	3
113	157
114	10
115	3
116	34
117	9
118	2
119	0
120	1
121	2
122	0
123	167
124	66
125	74
126	22
127	8
128	1
129	0
130	2
131	3
133	30
134	0
135	21
136	2
137	6
138	3
139	4
140	3
141	2
142	0
144	2
145	2
146	2
147	1
148	1
149	1
150	2
151	2
152	4
153	2
154	1
157	2
158	12
159	333
160	41
161	215
162	22
163	35
164	6
165	3
166	6
167	2
168	2
169	0
171	1
172	10
173	6
174	10
175	5
176	4
177	1
178	1
180	2
181	0
182	3
183	0
184	1
185	0
186	36
187	6
188	37
189	6
190	13
191	1
192	1
194	3
196	0
198	0
199	1
200	12
201	6
202	8
203	4
204	18
205	2
206	11
207	1
208	5
209	0
210	1
212	1
213	3
214	2
215	3
216	6
217	10
218	17
219	7
220	9
221	2
222	1
228	1
229	57
230	12
231	37
232	8
233	7
234	0
237	18
238	3
239	7
240	2
242	23
243	11
244	20
245	8
246	6
247	2
270	1
271	5
272	143
273	48
274	96
275	31
276	18
277	5
