Mass Spectrum: 3-Aminopropionic acid, N-[2-(3,4-dichlorophenyl)ethyl]-N-
Formula: C19H28Cl2N2O2
CAS: 141044-90-8
Molecular weight: 386
m/z	intensity
42	215
43	55
44	23
45	84
46	6
47	1
49	2
50	1
51	3
52	4
53	53
54	38
55	89
56	48
57	6
58	6
59	10
60	3
61	0
62	1
63	4
65	1
67	3
68	7
69	20
70	30
71	42
72	34
73	17
74	3
75	4
76	1
77	7
78	4
79	1
80	2
81	16
82	15
84	999
85	67
86	3
87	2
88	33
89	14
90	1
91	1
94	1
95	1
96	14
97	11
98	135
99	63
100	11
101	18
102	19
103	14
104	1
106	1
107	0
109	2
110	1
111	4
112	1
113	1
114	3
115	1
116	17
117	35
118	2
119	0
123	5
124	3
125	7
126	1
127	1
128	1
129	0
130	4
131	0
133	1
135	1
136	1
137	18
138	10
139	10
140	4
141	1
142	3
143	4
144	3
145	0
146	0
147	0
149	0
151	0
152	0
153	1
155	0
156	4
157	0
158	12
159	15
160	1
161	9
162	0
163	1
164	1
166	0
171	0
172	6
173	36
174	6
175	23
176	2
177	4
178	0
180	1
182	0
194	0
198	0
199	0
200	0
202	1
212	0
213	1
214	10
216	7
217	0
218	2
225	0
227	54
228	8
230	7
231	0
232	4
234	0
268	4
270	3
272	0
274	1
285	0
287	1
299	14
300	2
301	8
302	110
303	17
304	72
305	10
306	13
307	1
316	2
318	1
341	3
343	2
345	0
384	8
385	9
386	36
387	12
388	21
389	5
390	3
391	0
