Mass Spectrum: 2,6,10,14-Tetramethylpentadecan-7-one
Formula: C19H38O
CAS: 141098-35-3
Molecular weight: 282
m/z	intensity
27	134
29	334
41	748
42	137
43	995
55	816
56	437
57	995
58	147
59	132
67	131
69	991
70	311
71	995
72	999
73	300
81	452
82	434
83	311
85	748
95	609
99	163
109	159
113	93
126	632
127	139
128	284
141	104
156	167
157	123
169	562
170	79
198	30
267	18
282	29
