Mass Spectrum: Cyclohexanone, 5-(1-hydroxy-2-propenyl)-2,2-dimethyl-, (R*,S*)-(.+-.)-
Formula: C11H18O2
CAS: 141033-66-1
Molecular weight: 182
m/z	intensity
26	14
27	156
28	43
29	163
30	5
31	43
37	3
38	8
39	163
40	42
41	447
42	61
43	194
44	9
45	17
50	7
51	21
52	12
53	78
54	28
55	999
56	161
57	173
58	30
59	30
60	5
61	8
62	2
63	6
64	2
65	24
66	34
67	147
68	59
69	258
70	201
71	48
72	7
73	4
76	2
77	36
78	40
79	138
80	53
81	134
82	50
83	74
84	29
85	77
86	14
87	3
88	4
91	27
92	8
93	64
94	25
95	97
96	34
97	660
98	66
99	11
100	10
101	7
102	5
103	4
104	2
105	14
106	4
107	82
108	22
109	30
110	10
111	115
112	52
113	29
114	5
115	2
119	4
120	8
121	27
122	99
123	39
124	7
125	219
126	266
127	30
128	6
131	3
133	2
135	6
136	4
137	15
138	10
139	28
140	30
141	9
142	2
147	3
149	10
151	5
153	12
154	4
155	2
164	4
165	25
166	5
167	50
168	6
169	4
170	1
180	3
181	35
182	93
183	13
184	1
