Mass Spectrum: Cyclodecacyclotetradecene, 1,2,3,4,5,6,7,8,9,10,11,12,13,14,15,16,17,18,19,20-eicosahydro-
Formula: C22H40
CAS: 14113-62-3
Molecular weight: 304
m/z	intensity
26	9
27	57
28	62
29	220
30	4
38	3
39	56
40	4
41	801
42	85
43	344
44	8
50	2
51	5
52	7
53	89
54	125
55	999
56	134
57	176
58	8
62	2
65	39
66	48
67	793
68	328
69	487
70	88
71	69
72	3
75	3
77	90
78	39
79	344
80	509
81	830
82	511
83	372
84	37
85	28
86	3
89	3
91	113
92	38
93	363
94	515
95	785
96	533
97	332
98	24
99	9
103	3
104	3
105	46
106	21
107	206
108	228
109	348
110	311
111	136
112	10
113	4
115	3
116	3
117	6
118	3
119	18
120	18
121	286
122	135
123	153
124	98
125	33
126	9
127	3
131	3
133	14
134	31
135	507
136	214
137	189
138	70
139	15
140	3
141	2
145	3
147	8
148	8
149	137
150	74
151	54
152	120
153	17
154	3
161	6
162	3
163	55
164	25
165	33
166	24
167	5
175	3
176	2
177	32
178	14
179	15
180	26
181	3
189	3
190	3
191	22
192	10
193	17
194	16
195	3
204	2
205	21
206	26
207	14
208	365
209	53
210	4
219	30
220	17
221	6
222	15
223	3
233	19
234	10
235	5
236	9
237	3
245	3
247	24
248	14
249	3
250	4
261	21
262	18
263	9
264	3
275	23
276	19
277	4
278	3
289	9
290	3
304	954
305	224
306	34
