Mass Spectrum: 1,10-Cycloeicosanedione
Formula: C20H36O2
CAS: 14113-56-5
Molecular weight: 308
m/z	intensity
26	3
27	170
29	254
38	3
39	103
41	765
42	176
43	447
44	10
45	13
51	4
52	7
53	72
54	98
55	999
56	175
57	187
58	255
59	66
60	6
63	5
65	19
66	15
67	278
68	72
69	440
70	116
71	278
72	82
73	25
74	6
77	13
78	7
79	150
80	66
81	301
82	112
83	296
84	164
85	138
86	62
87	19
91	27
92	10
93	134
94	65
95	276
96	105
97	385
98	186
99	66
100	45
101	10
104	7
105	13
106	12
107	110
108	69
109	131
110	85
111	182
112	200
113	79
114	28
115	5
116	9
117	8
118	5
119	16
120	18
121	113
122	69
123	114
124	112
125	300
126	39
127	37
128	65
129	7
131	7
132	6
133	17
134	20
135	127
136	35
137	40
138	22
139	35
140	115
141	140
142	32
143	7
145	8
146	5
147	30
148	14
149	45
150	37
151	38
152	37
153	135
154	18
155	25
156	25
157	8
159	7
161	9
162	18
163	35
164	15
165	57
166	12
167	26
168	68
169	47
170	13
171	6
173	7
175	32
176	7
177	21
178	7
179	7
180	20
181	36
182	19
183	67
184	18
185	7
187	6
188	5
189	7
190	8
191	9
192	11
193	11
194	7
195	19
196	8
197	8
198	50
199	8
203	8
205	7
206	18
207	10
208	11
209	18
210	20
211	125
212	24
213	7
214	6
219	6
221	7
222	7
223	8
224	7
225	13
226	34
227	7
228	5
233	18
234	7
235	6
237	16
238	6
239	53
240	13
247	8
248	7
250	7
251	114
252	17
253	15
261	7
262	6
265	36
266	7
267	10
272	7
279	26
280	7
290	38
291	7
293	19
294	6
308	145
309	37
310	8
