Mass Spectrum: Cyclodecacyclotetradecene, 14,15-didehydro-1,4,5,8,9,10,11,12,13,16,17,18,19,20-tetradecahydro-
Formula: C22H32
CAS: 14113-61-2
Molecular weight: 296
m/z	intensity
27	121
29	159
30	0
39	188
41	561
42	39
43	52
51	50
52	40
53	219
54	51
55	362
56	5
57	22
62	0
63	1
64	4
65	222
66	46
67	647
68	49
69	97
70	1
71	4
74	3
75	3
76	5
77	447
78	148
79	713
80	507
81	372
82	31
83	52
84	4
85	5
87	12
89	13
90	9
91	999
92	185
93	448
94	59
95	174
96	22
97	11
102	4
103	63
104	95
105	485
106	130
107	168
108	38
109	61
110	8
111	11
113	12
115	157
116	99
117	429
118	155
119	261
120	96
121	105
122	25
123	13
124	10
127	22
128	92
129	313
130	131
131	492
132	98
133	255
134	50
135	59
136	2
137	12
139	9
141	97
142	64
143	280
144	117
145	482
146	193
147	186
148	55
149	20
150	14
152	15
153	14
154	15
155	77
156	44
157	196
158	72
159	321
160	76
161	56
162	12
163	13
165	14
167	13
168	7
169	104
170	29
171	191
172	58
173	112
174	42
175	19
176	15
181	14
182	12
183	115
184	31
185	182
186	63
187	67
188	27
189	6
190	12
195	11
196	11
197	68
198	35
199	111
200	58
201	51
202	30
203	17
211	56
212	20
213	50
214	26
215	33
216	27
225	65
226	28
227	31
228	21
229	12
239	62
240	30
241	48
242	11
253	61
254	12
255	7
267	16
268	15
281	15
296	40
297	11
