Mass Spectrum: Ethanone, 1-cyclopropyl-2-phenyl-
Formula: C11H12O
CAS: 14113-94-1
Molecular weight: 160
m/z	intensity
26	2
27	9
28	3
29	1
37	2
38	8
39	100
40	10
41	312
42	11
43	2
45	2
49	9
51	24
52	6
53	3
55	5
56	1
57	1
61	2
62	7
63	27
64	8
65	95
66	5
67	1
68	3
69	999
70	41
71	3
73	1
74	3
75	3
76	2
77	7
78	3
79	1
81	0
83	0
85	0
86	1
87	1
88	1
89	20
90	11
91	207
92	17
93	1
95	1
96	0
97	0
102	1
103	2
104	4
105	1
115	5
116	2
117	2
118	2
119	1
128	2
129	1
131	1
141	1
142	1
143	0
149	1
160	90
161	10
162	1
