Mass Spectrum: Methylcarbamothioic acid, O-isobutyl ester
Formula: C6H13NOS
CAS: 14128-37-1
Molecular weight: 147
m/z	intensity
27	230
28	150
29	320
30	180
39	210
40	44
41	450
42	100
43	120
44	42
45	48
47	60
55	75
56	230
57	160
58	710
59	36
60	64
72	56
73	22
74	330
75	28
76	24
91	120
92	999
93	48
94	52
133	26
147	140
148	12
149	8
