Mass Spectrum: 2-(4-Acetamidophenyl)-4-chloro-5-nitrobenzimidazole
Formula: C15H11ClN4O3
CAS: 141245-83-2
Molecular weight: 330
m/z	intensity
36	27
37	18
38	31
39	49
40	68
41	76
43	999
44	74
50	31
51	29
52	37
57	15
61	26
62	52
63	58
64	46
65	67
73	16
75	29
76	38
77	23
88	39
89	44
90	43
91	36
92	52
93	68
97	47
104	16
118	36
119	24
124	19
179	17
206	24
207	26
215	22
241	36
242	51
243	18
244	16
258	27
287	40
288	119
289	25
290	33
330	98
331	17
332	21
