Mass Spectrum: Oxiranemethanol, 2-phenyl-
Formula: C9H10O2
CAS: 141248-89-7
Molecular weight: 150
m/z	intensity
37	5
38	15
39	90
40	11
41	20
42	8
43	25
45	9
50	56
51	158
52	26
53	12
55	8
61	6
62	19
63	66
64	15
65	176
66	20
74	20
75	22
76	26
77	235
78	200
79	95
80	5
89	53
90	33
91	999
92	130
93	33
94	18
102	23
103	89
104	59
105	318
106	24
107	7
119	103
120	741
121	109
122	7
131	6
132	19
135	17
149	39
150	34
151	3
