Mass Spectrum: 2-Hexanone, 5-methyl-5-phenyl-
Formula: C13H18O
CAS: 14128-61-1
Molecular weight: 190
m/z	intensity
41	118
43	306
44	12
52	24
65	15
77	42
78	21
79	42
91	288
92	24
103	30
105	21
115	21
117	30
118	70
119	999
120	97
132	9
157	9
175	9
190	67
191	6
