Mass Spectrum: Cyclopropane, 3-chloro-1,1,2,2-tetramethyl-
Formula: C7H13Cl
CAS: 14123-41-2
Molecular weight: 132
m/z	intensity
25	5
27	96
28	20
29	73
30	0
31	3
34	0
35	0
36	3
37	3
38	12
39	186
40	21
41	295
42	19
43	142
44	0
45	0
46	2
47	0
48	2
49	8
50	11
51	31
52	10
53	105
54	23
55	874
56	53
57	139
58	8
60	0
61	3
62	5
63	13
64	2
65	24
66	11
67	35
68	5
69	140
70	8
71	0
72	0
73	3
74	1
75	22
76	2
77	33
78	4
79	54
80	6
81	126
82	12
83	1
84	1
85	0
87	0
89	35
90	9
91	12
92	2
93	1
94	0
95	4
96	17
97	999
98	79
99	3
101	0
102	0
103	0
105	0
115	0
116	0
117	31
118	2
119	10
120	0
132	0
134	0
