Mass Spectrum: Benzeneethanol, .alpha.-benzyl-.alpha.-[[(diisopropylamino)oxy]methyl]-
Formula: C22H31NO2
CAS: 141248-83-1
Molecular weight: 341
m/z	intensity
39	60
40	12
41	117
42	123
43	268
44	121
45	19
50	9
51	23
52	5
53	5
55	21
56	40
57	20
58	171
59	9
60	227
61	7
62	4
63	19
65	97
66	6
67	4
69	7
70	27
71	10
74	123
75	6
77	30
78	11
79	18
83	4
84	23
85	7
86	204
87	12
89	15
90	9
91	838
92	80
93	6
100	25
101	46
102	999
103	80
104	7
105	40
106	4
107	8
115	17
116	55
117	447
118	56
119	24
120	6
121	6
129	28
131	5
133	35
134	7
178	7
193	10
207	49
208	10
210	11
211	13
250	47
251	8
326	5
341	19
342	5
