Mass Spectrum: Cyclobutanecarboxylic acid, 2-methyl-, methyl ester
Formula: C7H12O2
CAS: 14132-44-6
Molecular weight: 128
m/z	intensity
15	680
26	96
27	664
29	368
30	80
31	256
37	32
38	64
39	592
41	896
42	672
43	576
44	64
45	80
49	32
51	48
53	112
54	664
55	800
56	96
57	48
58	128
59	224
65	48
67	96
68	304
69	864
70	144
71	96
72	48
73	48
74	256
75	48
81	64
85	112
87	999
88	208
96	64
97	216
100	112
101	64
113	112
128	128
