Mass Spectrum: Furan, 2-(1,2-diethoxyethyl)-
Formula: C10H16O3
CAS: 14133-54-1
Molecular weight: 184
m/z	intensity
29	90
39	80
41	80
43	200
44	60
81	50
94	70
95	60
97	999
98	50
110	50
111	50
125	740
126	50
138	80
184	40
