Mass Spectrum: Card-20(22)-enolide, 3,14,15-trihydroxy-19-oxo-, (3.beta.,5.alpha.,15.beta.)-
Formula: C23H32O6
CAS: 14155-65-8
Molecular weight: 404
m/z	intensity
17	414
28	195
29	444
31	333
32	27
37	137
39	288
41	799
42	270
43	474
44	492
51	174
52	203
53	488
54	140
55	825
57	270
65	248
67	796
68	170
69	288
71	285
77	663
78	225
79	933
80	185
81	744
83	222
91	999
92	266
93	603
94	337
95	433
96	692
98	185
100	196
101	303
103	118
104	255
105	777
106	222
107	466
108	185
109	288
110	140
111	962
112	118
115	185
117	407
118	155
119	370
120	185
121	370
122	177
123	155
124	155
128	155
129	296
130	137
131	407
132	137
133	303
134	137
135	222
138	137
140	155
141	174
142	174
143	270
144	237
145	455
146	237
147	407
148	277
149	177
155	137
157	196
158	140
159	266
162	159
163	174
171	148
174	148
176	322
179	222
185	118
189	188
195	222
197	140
199	237
200	118
201	222
202	159
211	118
212	133
217	259
218	137
229	159
230	340
231	107
240	85
245	111
246	107
247	137
248	251
253	81
268	77
276	288
284	100
298	59
307	33
321	196
322	407
323	107
324	59
325	59
337	40
339	518
340	496
341	103
350	526
351	129
357	211
358	155
368	796
369	196
370	74
386	470
387	125
400	11
404	7
