Mass Spectrum: 3-Phenylpropionic acid, .alpha.-benzoylamino-2-fluoro-4-hydroxy-5-methoxy-
Formula: C17H16FNO5
CAS: 141523-19-5
Molecular weight: 333
m/z	intensity
41	49
43	82
44	194
45	92
46	82
50	57
51	146
52	4
53	3
55	23
57	55
63	4
65	31
67	3
69	32
73	3
75	20
76	31
77	555
78	144
79	11
83	62
84	11
91	131
95	8
97	8
104	4
105	999
106	113
112	69
121	16
122	104
123	4
124	45
125	3
127	8
140	81
150	40
151	7
153	10
154	3
155	450
156	50
164	12
166	3
168	75
169	35
177	34
183	3
184	14
212	393
213	42
225	3
226	16
267	4
271	7
287	397
288	78
333	64
