Mass Spectrum: Acetamide, N-[3-(5-methyl-1,2,4-oxazol-3-yl)-1,2,4-thiadiazol-5-yl]-N-phenyl-
Formula: C13H11N5O2S
CAS: 141540-12-7
Molecular weight: 301
m/z	intensity
33	2
34	4
36	0
37	2
38	10
39	39
40	14
41	12
42	51
43	999
44	31
45	22
46	90
47	8
48	5
50	24
51	96
52	18
53	9
54	4
55	5
56	14
57	13
58	11
59	13
60	4
61	2
62	4
63	21
64	26
65	59
66	7
67	3
68	8
69	9
70	34
71	4
72	9
73	12
74	19
75	9
76	37
77	226
78	25
79	9
80	1
81	0
82	1
83	3
84	15
85	23
86	18
87	4
88	5
89	3
90	15
91	58
92	15
93	7
94	1
95	2
96	11
97	6
98	3
99	11
100	50
101	10
102	6
103	27
104	21
105	9
106	5
107	0
108	4
109	13
110	17
111	17
112	2
113	1
114	10
115	1
116	3
117	32
118	254
119	37
120	3
121	1
122	17
123	26
124	3
125	1
126	0
127	4
128	19
129	16
130	2
131	2
132	2
133	15
134	3
135	18
136	6
137	2
138	0
139	0
141	13
142	15
143	19
144	62
145	6
146	1
147	0
148	5
149	37
150	199
151	19
152	9
153	1
154	0
157	1
158	5
159	5
160	1
161	3
162	0
163	1
164	1
165	1
166	0
167	0
168	0
169	7
170	1
171	4
172	0
173	0
174	2
175	73
176	14
177	5
178	0
183	0
184	3
185	1
186	0
187	0
188	0
189	1
190	13
191	3
192	1
193	0
200	3
201	3
202	9
203	4
204	1
205	0
213	0
214	0
216	138
217	239
218	39
219	14
220	7
221	0
222	0
227	0
228	0
229	0
230	0
231	0
243	1
244	8
245	1
246	0
249	0
258	10
259	684
260	100
261	39
262	7
263	0
277	0
278	0
286	0
288	0
301	9
302	2
303	0
