Mass Spectrum: Ethyl [4-(benzyloxy)-2-fluoro-5-methoxyphenyl](hydroxy)acetate
Formula: C18H19FO5
CAS: 141523-22-0
Molecular weight: 334
m/z	intensity
41	7
43	3
44	1
45	3
49	1
50	4
51	21
52	4
53	2
55	3
56	1
57	7
59	1
62	2
63	12
64	6
65	69
66	4
67	0
69	4
70	5
71	7
72	0
73	2
74	0
75	3
76	2
77	7
78	6
79	3
80	1
81	3
82	2
83	18
84	8
85	1
86	1
89	13
91	999
92	77
93	4
94	1
95	6
96	3
97	6
98	2
99	9
100	0
103	0
104	0
105	2
106	2
107	3
108	1
109	1
110	3
111	23
112	5
113	8
114	0
115	0
119	0
121	1
122	1
123	10
124	9
125	4
126	1
127	3
128	2
129	0
133	0
135	0
137	0
138	2
139	14
140	23
141	40
142	3
143	3
149	0
150	0
151	2
152	5
153	7
154	2
155	2
156	0
159	0
165	0
167	2
168	2
169	17
170	14
171	14
172	1
180	4
181	4
182	1
183	1
186	0
187	1
197	17
198	21
199	5
200	1
201	2
211	0
213	0
215	0
225	1
226	19
227	5
228	7
229	5
230	0
231	2
232	5
233	0
241	0
243	7
244	1
245	0
259	1
260	2
261	271
262	44
263	5
285	2
316	0
317	14
318	3
334	429
335	85
336	11
337	1
