Mass Spectrum: Pentane, 1-bromo-5-methoxy-
Formula: C6H13BrO
CAS: 14155-86-3
Molecular weight: 180
m/z	intensity
41	150
42	30
43	10
45	999
46	20
53	10
55	40
58	10
67	20
68	20
69	450
70	20
71	10
101	100
135	20
137	20
