Mass Spectrum: 3-Bromo-2-methyl-2-cyclopenten-1-ol, TBDMS derivative
Formula: C12H23BrOSi
CAS: 141536-77-8
Molecular weight: 290
m/z	intensity
27	11
28	3
29	19
31	3
38	1
39	19
40	3
41	34
42	3
43	18
44	3
45	34
46	2
47	33
48	1
49	0
50	2
51	13
52	7
53	16
54	2
55	7
56	5
57	31
58	11
59	46
60	10
61	20
62	2
63	3
64	1
65	6
66	1
67	6
68	1
69	5
70	2
71	6
72	2
73	148
74	24
75	999
76	162
77	118
78	20
79	207
80	67
81	6
82	1
83	4
84	1
85	7
86	0
87	3
88	0
89	1
91	3
92	0
93	2
94	0
95	3
96	1
97	8
98	1
99	5
100	1
101	8
102	1
103	2
104	0
105	6
106	0
107	1
109	2
110	0
111	3
112	0
113	1
114	0
115	6
116	1
117	22
118	2
119	2
120	1
121	2
122	0
123	1
124	0
125	2
126	0
127	0
128	0
131	1
132	0
133	0
134	0
135	1
136	0
137	39
138	2
139	41
140	2
141	5
142	0
143	0
149	0
151	0
152	0
153	9
154	1
155	3
156	0
157	0
158	7
159	24
160	7
161	22
162	1
163	1
175	0
177	1
187	2
189	2
205	1
211	10
212	1
219	1
233	159
234	27
235	165
236	23
237	6
275	9
276	1
277	9
278	1
289	2
290	28
291	7
292	27
293	4
294	1
