Mass Spectrum: Benzeneethanamine, 4-benzyloxy-2-fluoro-.beta.-hydroxy-5-methoxy-
Formula: C16H18FNO3
CAS: 141523-21-9
Molecular weight: 291
m/z	intensity
41	12
42	6
43	13
44	11
45	2
47	2
49	11
50	8
51	28
52	6
53	4
54	1
55	3
57	9
59	2
60	1
62	4
63	17
64	9
65	75
66	5
67	4
69	5
70	6
71	7
72	1
73	3
75	3
76	3
77	8
78	6
79	4
80	3
81	3
82	3
83	22
84	13
85	1
86	5
89	16
90	10
91	999
92	76
93	4
95	5
96	4
97	5
98	1
99	7
100	1
105	3
106	3
107	3
111	28
112	5
113	4
115	1
123	7
124	6
125	1
127	2
128	4
139	7
140	9
141	18
143	4
152	3
153	1
156	4
169	8
170	7
171	40
172	4
180	6
182	0
201	3
229	4
254	13
255	2
260	20
261	211
262	44
263	6
271	32
272	6
274	4
291	11
292	1
