Mass Spectrum: 5.alpha.-Card-20(22)-enolide, 3.beta.,14,15.beta.-trihydroxy-, 3,15-diacetate
Formula: C27H38O7
CAS: 14155-62-5
Molecular weight: 474
m/z	intensity
30	67
31	278
32	703
39	145
40	82
41	547
42	326
43	999
44	733
45	477
46	57
51	30
53	150
54	60
55	587
56	90
57	226
58	55
60	319
61	50
65	75
66	32
67	457
68	82
69	293
70	57
71	115
73	32
77	201
78	50
79	429
80	98
81	487
82	105
83	175
84	50
85	77
91	454
92	113
93	489
94	143
95	434
96	98
97	143
98	80
99	30
100	72
101	125
105	381
106	158
107	424
108	236
109	306
110	80
111	427
112	50
117	125
118	67
119	278
120	140
121	329
122	153
123	196
124	140
125	82
128	47
129	80
130	32
131	178
132	55
133	241
134	128
135	178
136	98
137	123
138	80
139	65
140	100
141	65
142	45
143	183
144	55
145	301
146	100
147	376
148	145
149	226
150	80
151	105
152	30
153	42
155	50
156	45
157	80
158	42
159	150
160	115
161	193
162	552
163	193
164	45
165	45
166	45
167	55
169	30
171	55
172	65
173	87
174	82
175	206
176	80
177	75
178	80
179	82
180	40
181	32
182	30
183	35
184	30
185	80
186	30
187	130
188	52
189	125
190	55
191	55
192	62
193	125
194	32
195	90
196	30
197	75
198	30
199	98
200	47
201	276
202	175
203	871
204	241
205	72
207	62
208	30
209	50
210	30
211	93
212	30
213	128
214	55
215	185
216	160
217	108
218	32
219	32
222	196
223	55
225	32
226	80
227	52
228	60
229	75
230	75
231	178
232	145
233	80
234	42
239	42
243	45
244	286
245	90
246	32
247	75
248	42
253	32
257	67
261	90
262	422
263	128
264	32
276	32
290	32
291	67
292	258
293	67
300	42
304	412
305	100
321	80
322	402
323	115
328	30
334	25
335	25
336	178
337	67
338	75
339	82
340	32
353	32
354	675
355	183
356	80
370	57
371	27
372	55
396	160
397	50
398	52
399	80
400	27
414	547
415	150
416	52
430	17
431	7
432	17
456	25
474	437
475	130
476	60
