Mass Spectrum: 3-Bromo-1,2,3,4,7,8,9,10-octahydro-11H,13H-benzo[4',5']thieno[3',2':4,5]pyrimidino[1,2-a]azepine-4,13-dione
Formula: C15H15BrN2O2S
CAS: 141581-83-1
Molecular weight: 366
m/z	intensity
39	542
41	999
42	219
43	61
44	68
45	97
46	7
47	8
50	50
51	75
52	61
53	133
55	867
56	50
57	25
58	36
59	9
60	11
61	13
64	223
65	87
66	68
67	145
68	126
69	229
70	78
71	42
72	19
73	20
75	50
76	38
77	75
78	55
79	75
80	104
81	81
82	135
83	21
84	20
85	11
86	7
87	11
88	18
89	20
90	42
91	37
92	46
93	62
94	123
95	67
96	202
97	24
98	5
99	5
100	6
102	44
103	19
104	17
105	14
106	16
108	105
109	55
110	16
111	8
112	4
115	26
116	14
117	9
118	10
119	16
120	38
121	62
122	31
123	10
124	3
125	3
127	2
128	5
130	31
131	6
133	32
134	52
135	60
136	66
137	25
138	11
139	4
140	3
142	3
143	9
144	5
146	31
147	13
148	15
149	13
150	11
151	4
155	4
157	4
158	5
159	7
160	13
161	19
162	31
163	33
164	39
165	9
166	6
169	3
171	7
172	5
174	17
175	12
176	18
177	8
178	5
185	2
186	4
187	6
188	9
189	11
190	10
191	13
192	11
193	2
199	3
200	3
201	6
203	65
204	50
205	15
206	6
207	4
214	3
215	6
216	9
217	13
218	7
219	2
228	3
229	19
230	11
232	129
233	15
234	11
243	6
244	6
245	8
246	3
257	30
258	23
259	115
260	160
261	24
262	9
271	9
273	10
283	4
286	147
287	73
288	42
289	9
337	3
339	3
364	2
366	71
367	14
368	74
369	11
370	4
