Mass Spectrum: (7R,8R,8aS,E)-6-((2R)-2,5-Dimethyloctylidene)-8-methyloctahydroindolizine-7,8-diol
Formula: C19H35NO2
CAS: 141643-33-6
Molecular weight: 309
m/z	intensity
52	3
53	28
54	14
55	117
56	25
57	29
61	3
65	16
66	9
67	54
68	59
69	80
70	999
71	131
72	84
73	5
74	13
77	26
78	7
79	44
80	21
81	46
82	25
83	62
84	51
85	24
86	14
87	4
88	10
91	20
92	4
93	26
94	18
95	66
96	100
97	44
98	17
99	12
100	12
105	8
106	9
107	25
108	50
109	63
110	23
111	19
112	296
113	99
114	240
115	22
116	5
117	3
118	3
119	4
120	21
121	22
122	33
123	75
124	26
125	14
126	21
127	3
131	2
132	3
133	4
134	16
135	10
136	36
137	19
138	18
139	22
140	6
146	3
147	3
148	14
149	7
150	41
151	14
154	3
160	4
162	4
164	80
165	24
166	18
167	3
172	3
174	14
175	3
176	7
177	4
178	5
179	3
180	5
182	316
183	44
184	7
192	48
193	15
194	3
195	5
196	6
206	10
207	4
208	3
210	76
211	19
220	10
221	2
222	5
224	9
225	2
234	7
235	9
236	3
238	7
248	51
249	11
262	6
264	62
265	12
266	48
267	11
272	2
274	16
276	63
277	12
278	3
280	6
281	1
290	5
292	165
293	33
294	11
295	2
308	17
309	42
310	8
