Mass Spectrum: 7-Oxabicyclo[4.1.0]heptan-1-ol, acetate
Formula: C8H12O3
CAS: 14161-46-7
Molecular weight: 156
m/z	intensity
39	50
40	10
41	100
42	30
43	999
44	40
53	10
55	40
57	50
58	50
67	170
68	40
69	10
70	40
71	20
85	70
95	40
96	80
97	10
113	260
114	120
156	40
