Mass Spectrum: Boron, (1,1,1,3,3,3-hexafluoro-2-propanolato)(N-methylenemethanamine)bis(trifluoromethyl)-, (t-4)-
Formula: C7H6BF12NO
CAS: 141671-61-6
Molecular weight: 359
m/z	intensity
26	0
27	8
28	2
29	28
30	10
31	14
33	2
38	0
39	1
41	11
42	74
43	20
44	10
45	3
46	1
47	1
48	2
49	11
50	4
51	18
52	0
54	1
55	0
56	1
57	2
58	12
59	0
60	3
61	1
62	0
63	1
64	0
65	0
66	1
67	0
68	1
69	45
70	7
71	0
72	5
73	0
74	2
75	2
76	12
77	4
78	9
79	16
80	56
81	2
82	4
87	0
88	1
89	4
90	13
91	268
92	999
93	37
94	52
95	1
96	0
97	3
98	1
99	8
100	0
101	9
102	0
104	0
106	0
107	0
108	0
109	1
110	1
111	0
112	0
113	9
114	0
115	0
117	0
119	0
122	1
123	2
124	1
125	0
127	0
128	1
129	4
130	0
132	1
140	0
141	2
142	4
143	0
144	0
146	0
147	0
149	0
151	1
152	1
154	0
159	0
160	0
172	0
176	0
177	4
178	0
184	0
185	0
190	0
192	0
194	1
197	1
199	0
217	0
222	1
226	0
227	5
228	19
229	1
233	0
238	1
239	66
240	261
241	17
242	15
243	0
249	0
266	0
267	0
271	0
272	0
277	0
278	1
279	0
283	0
289	8
290	30
291	2
292	1
339	0
340	2
341	0
