Mass Spectrum: 2-Ethoxycarbonyl-1,4-cyclohexadione-4-ethylene ketal
Formula: C11H16O5
CAS: 14160-65-7
Molecular weight: 228
m/z	intensity
26	33
27	189
29	152
30	9
31	76
39	51
40	23
41	46
42	172
43	122
44	28
45	92
46	13
51	12
52	12
53	40
54	37
55	290
56	55
57	18
60	9
63	3
65	20
66	20
67	17
68	16
69	16
70	6
71	12
72	7
73	39
74	5
77	8
79	2
81	24
82	32
83	40
84	6
86	999
87	77
88	9
93	8
94	8
95	16
96	25
97	13
98	52
99	521
100	231
101	26
107	7
108	3
109	36
110	35
111	47
112	12
113	10
114	14
121	23
122	18
123	6
124	12
125	14
126	87
127	47
128	7
129	5
132	6
136	15
137	16
138	18
139	27
140	7
142	12
143	91
144	9
152	14
153	12
154	53
155	96
156	18
171	132
172	46
173	2
181	20
182	167
183	111
184	15
199	15
210	2
228	152
229	17
