Mass Spectrum: 3-(2-Methyl-[1,3]dithiolan-2-yl)-propionic acid, ethyl ester
Formula: C9H16O2S2
CAS: 141630-41-3
Molecular weight: 220
m/z	intensity
26	5
27	55
28	1
29	73
31	2
35	6
39	24
40	3
41	28
42	4
43	20
44	4
45	56
46	7
47	19
51	4
52	2
53	35
54	7
55	32
56	3
57	4
58	22
59	158
60	15
61	77
62	2
63	3
64	5
65	3
66	2
67	6
69	3
70	2
71	25
72	5
73	24
74	5
75	4
76	4
77	2
79	3
80	2
81	6
82	3
85	17
86	34
87	82
88	8
89	7
90	2
91	7
92	3
97	12
98	2
99	41
100	4
101	17
103	8
104	3
105	11
111	2
112	3
113	17
114	57
115	71
116	7
117	12
118	18
119	999
120	49
121	61
122	3
127	6
128	5
131	71
132	17
133	24
134	3
141	4
145	3
146	26
147	13
148	3
149	4
160	9
161	23
162	2
175	111
176	10
177	10
189	3
193	3
205	12
220	74
221	8
222	7
