Mass Spectrum: 3,4,5-Trichloropyridazine
Formula: C4HCl3N2
CAS: 14161-11-6
Molecular weight: 182
m/z	intensity
14	4
24	12
25	9
26	5
27	12
28	7
35	57
36	90
37	50
38	35
39	4
40	2
41	1
42	3
43	2
44	9
45	1
47	118
48	30
49	157
50	51
51	37
52	2
53	7
54	1
56	1
59	33
60	31
61	17
62	19
63	4
64	4
65	1
70	3
71	22
72	25
73	17
74	9
75	4
76	37
77	26
78	23
79	9
80	1
82	7
83	28
84	539
85	233
86	204
87	77
88	9
89	1
91	7
92	2
93	1
94	148
95	4
96	92
97	4
98	17
99	1
104	2
105	1
106	6
107	12
108	6
109	8
110	1
111	16
112	2
113	5
114	1
115	1
117	1
118	26
119	999
120	107
121	645
122	62
123	106
124	9
129	1
131	1
132	1
133	1
135	1
136	2
138	1
141	1
142	1
143	1
145	1
146	9
147	463
148	30
149	305
150	18
151	50
152	3
153	1
154	82
155	5
156	81
157	4
158	26
159	2
160	3
164	4
181	1
182	889
183	47
184	859
185	46
186	281
187	16
188	32
189	2
