Mass Spectrum: 3-Methylheptacosane
Formula: C28H58
CAS: 14167-66-9
Molecular weight: 394
m/z	intensity
27	9
29	52
30	1
39	13
40	4
41	196
42	45
43	464
44	16
54	19
55	255
56	387
57	999
58	43
68	32
69	199
70	141
71	663
72	36
82	33
83	155
84	49
85	432
86	30
96	18
97	112
98	27
99	139
100	11
110	8
111	62
112	19
113	96
114	9
124	9
125	29
126	12
127	64
128	7
138	4
139	10
140	7
141	47
142	5
153	4
154	4
155	33
156	4
166	2
167	4
168	3
169	22
170	3
183	17
184	3
196	2
197	14
198	2
210	2
211	13
212	2
225	12
226	2
239	10
240	2
250	2
252	2
253	9
254	2
267	10
268	2
281	7
294	1
295	6
308	2
309	5
320	1
322	1
323	3
324	1
336	21
337	33
338	8
351	4
352	1
364	102
365	315
366	84
367	11
378	2
379	11
380	3
394	2
