Mass Spectrum: Eseroline, benzyl ether
Formula: C20H24N2O
CAS: 141723-96-8
Molecular weight: 308
m/z	intensity
41	72
42	72
43	27
44	31
45	20
49	12
50	140
51	258
52	91
53	51
54	24
55	28
56	29
57	13
58	20
61	16
62	49
63	136
64	48
65	301
66	35
67	15
68	9
69	7
70	7
71	20
73	12
74	37
75	34
76	50
77	257
78	135
79	225
80	41
81	12
82	16
83	9
84	8
85	8
86	11
87	13
88	4
89	142
90	95
91	999
92	281
93	35
94	11
95	6
96	8
97	6
98	8
99	4
101	8
102	19
103	40
104	109
105	51
106	519
107	299
108	31
109	6
113	4
114	6
115	46
116	35
117	102
118	85
119	21
120	49
121	12
122	6
123	4
126	5
127	12
128	18
129	13
130	48
131	44
132	112
133	68
134	35
135	11
136	4
139	6
140	6
141	9
142	12
143	17
144	51
145	45
146	92
147	48
148	22
149	7
150	5
151	5
152	13
153	6
154	15
155	20
156	13
157	12
158	35
159	49
160	291
161	197
162	57
163	15
164	6
165	23
166	16
167	20
168	13
169	9
170	15
171	23
172	35
173	63
174	290
175	137
176	52
177	31
178	13
179	11
180	13
181	14
182	12
183	10
184	15
185	18
186	28
187	37
188	96
189	47
190	31
191	18
192	7
193	8
194	96
195	107
196	42
197	28
198	19
199	19
200	21
201	22
202	26
203	20
204	21
205	10
206	8
207	4
208	5
209	4
210	16
211	11
212	11
213	12
214	9
215	10
216	10
217	10
218	12
219	7
220	11
221	9
222	12
223	10
224	8
225	7
226	6
227	7
228	5
229	5
230	6
231	5
232	8
233	6
234	9
235	6
236	16
237	26
238	5
239	0
240	0
241	0
242	0
243	0
244	0
245	0
246	0
247	2
248	5
249	11
250	31
251	40
252	14
253	0
259	0
260	0
261	1
262	6
263	13
264	19
265	21
266	9
267	1
272	0
273	0
274	0
275	1
276	8
277	12
278	23
279	14
280	26
281	9
285	0
286	0
287	0
288	0
289	0
290	3
291	9
292	13
293	40
294	19
295	11
307	7
308	13
