Mass Spectrum: Acetamide, N-2-norbornen-7-yl-, syn-
Formula: C9H13NO
CAS: 14174-01-7
Molecular weight: 151
m/z	intensity
41	130
42	80
43	999
44	100
45	30
50	40
51	60
52	60
53	140
54	50
55	80
56	60
57	30
58	20
59	30
60	710
61	30
62	20
63	30
65	70
66	60
67	70
68	30
72	80
73	60
77	120
78	50
79	100
80	160
81	200
82	60
86	30
91	660
92	670
93	80
94	230
95	30
106	30
108	210
109	140
110	20
123	10
136	20
137	10
151	250
152	40
