Mass Spectrum: Mannopyranose, 6-deoxy-2,3,4-tri-O-methyl-, l-
Formula: C9H18O5
CAS: 14187-51-0
Molecular weight: 206
m/z	intensity
29	178
31	94
41	116
43	324
44	337
55	58
57	55
59	185
71	51
72	61
73	178
74	110
75	366
87	84
88	74
89	996
90	181
101	999
116	32
129	74
130	129
131	139
142	4
143	76
144	9
145	3
156	12
157	3
163	8
174	7
175	22
189	11
191	27
