Mass Spectrum: p-Toluic acid, 3-phenylpropyl ester
Formula: C17H18O2
CAS: 141809-62-3
Molecular weight: 254
m/z	intensity
26	8
27	35
28	2
29	26
30	3
39	84
40	12
41	53
42	11
43	22
44	1
50	23
51	59
52	22
53	13
55	16
56	3
57	5
58	2
61	7
62	11
63	44
64	13
65	107
66	8
69	11
70	18
71	5
72	2
73	4
74	7
75	5
76	6
77	42
78	28
79	19
80	3
81	3
82	3
83	6
84	6
85	2
86	2
88	2
89	27
90	27
91	427
92	47
93	11
94	4
95	5
96	3
97	2
102	4
103	25
104	65
105	22
106	3
107	12
108	6
112	3
113	3
115	24
116	75
117	362
118	999
119	470
120	43
121	4
123	2
127	4
128	3
131	2
132	3
133	5
134	3
135	18
136	48
137	35
138	3
139	2
163	3
