Mass Spectrum: Pentanal, 5-[(tetrahydro-2H-pyran-2-yl)oxy]-
Formula: C10H18O3
CAS: 14194-86-6
Molecular weight: 186
m/z	intensity
24	12
25	4
27	96
28	33
29	160
30	3
31	39
37	0
38	0
39	62
41	219
42	11
43	191
44	22
45	7
46	0
47	3
48	0
49	0
50	0
51	3
52	0
53	14
54	8
55	105
56	161
57	182
58	9
59	6
60	1
61	0
62	0
63	0
65	3
66	0
67	188
68	14
69	7
70	0
71	5
72	2
73	0
74	3
75	1
77	0
78	0
79	0
81	1
83	26
84	95
85	999
86	70
87	4
88	0
89	0
95	0
96	0
97	1
98	3
99	2
100	0
101	120
102	8
103	5
104	0
105	1
106	0
108	0
111	1
112	0
113	1
114	1
115	0
116	0
117	0
118	0
119	0
121	0
122	0
123	0
124	0
125	0
128	0
129	1
130	0
131	0
133	0
135	0
138	0
140	1
141	0
142	0
145	0
150	0
156	2
158	0
159	0
168	1
169	1
170	0
185	1
186	1
187	0
