Mass Spectrum: Solasodine glucoside
Formula: C33H53NO7
CAS: 14197-65-0
Molecular weight: 575
m/z	intensity
41	210
42	116
43	427
44	117
45	142
46	22
47	14
49	3
51	1
52	1
53	43
54	41
55	255
56	59
57	133
58	29
59	10
60	95
61	57
62	1
65	18
66	7
67	101
68	57
69	85
70	45
71	38
72	13
73	97
74	14
75	1
76	2
77	51
78	12
79	106
80	21
81	87
82	32
83	37
84	31
85	18
86	14
87	5
89	7
91	127
92	20
93	91
94	29
95	59
96	39
97	25
98	65
99	10
100	1
101	15
102	6
103	21
104	8
105	88
106	21
107	60
108	25
109	33
110	37
111	78
112	24
113	535
114	999
115	85
116	12
117	30
118	11
119	51
120	25
121	41
122	22
123	14
124	70
125	72
126	18
127	7
128	11
129	18
130	10
131	34
132	10
133	33
134	11
135	10
136	9
138	575
139	89
140	12
141	7
142	9
143	26
144	12
145	31
146	8
147	19
148	11
149	10
150	12
151	1
152	30
153	7
154	2
155	8
156	6
157	19
158	11
159	24
160	8
161	13
162	13
163	8
164	17
165	5
166	19
167	5
168	9
169	4
170	1
171	10
172	5
173	9
174	3
175	8
176	7
177	3
178	8
180	9
181	3
183	5
185	6
186	2
187	3
188	6
189	2
192	7
195	1
197	6
198	1
199	8
213	3
214	4
225	1
227	1
232	4
234	5
241	1
253	6
267	11
268	1
271	10
272	1
282	9
283	5
285	2
286	1
300	4
301	1
314	5
328	1
342	4
355	1
356	4
357	3
370	11
371	1
380	1
384	24
385	63
386	16
387	1
394	1
396	10
398	17
399	2
412	21
413	98
414	57
415	14
416	2
424	2
425	1
