Mass Spectrum: Carbamodithioic acid, [(4-hydroxyphenyl)methyl]-, (4-hydroxyphenyl)methyl ester
Formula: C15H15NO2S2
CAS: 14191-94-7
Molecular weight: 305
m/z	intensity
49	28
50	164
76	444
77	363
78	115
96	45
97	146
98	35
106	272
107	999
108	244
121	21
122	237
123	181
124	28
139	62
140	164
141	35
165	48
246	251
247	45
248	24
305	21
