Mass Spectrum: Androst-4-en-3-one, 17-[(cyclohexylcarbonyl)oxy]-, (17.beta.)-
Formula: C26H38O3
CAS: 14191-92-5
Molecular weight: 398
m/z	intensity
41	244
42	17
43	58
47	10
48	1
49	4
51	1
53	49
54	28
55	497
56	22
57	11
65	21
66	8
67	109
68	19
69	29
71	5
73	10
77	66
78	8
79	125
80	22
81	112
82	15
83	999
84	94
86	31
88	1
91	124
92	18
93	89
94	37
95	76
96	8
97	18
99	1
103	7
104	3
105	84
106	19
107	81
108	30
109	62
110	17
111	385
112	25
115	10
116	1
117	25
118	8
119	50
120	16
121	61
122	103
123	70
124	286
125	33
128	7
129	18
130	5
131	43
132	12
133	57
134	57
135	39
136	18
137	24
138	10
141	2
143	12
144	18
145	39
146	92
147	264
148	72
149	75
150	9
151	3
155	1
157	12
158	8
159	25
160	14
161	33
162	21
163	15
164	5
165	7
169	1
171	9
172	6
173	13
174	13
175	10
176	7
177	7
185	28
186	16
187	10
188	1
189	5
197	1
199	6
200	3
201	4
213	13
214	1
227	9
228	53
229	16
230	46
231	11
242	6
245	19
246	1
252	7
253	7
255	13
260	20
270	54
271	32
272	9
273	11
287	5
288	85
289	17
314	2
356	33
357	6
398	64
399	19
400	5
