Mass Spectrum: Nerolidol
Formula: C15H26O
CAS: 142-50-7
Molecular weight: 222
m/z	intensity
26	8
27	127
28	20
29	97
30	3
31	16
38	4
39	113
40	107
41	897
42	46
43	427
44	18
45	18
50	5
51	16
52	10
53	109
54	20
55	276
56	23
57	46
58	13
59	10
61	3
63	4
65	29
66	12
67	204
68	111
69	999
70	95
71	407
72	29
73	5
77	62
78	10
79	168
80	117
81	271
82	114
83	61
84	13
85	17
86	3
91	76
92	43
93	413
94	72
95	120
96	40
97	31
98	11
99	9
103	5
105	70
106	18
107	265
108	47
109	158
110	28
111	44
112	5
113	4
115	3
117	3
119	86
120	26
121	115
122	46
123	109
124	19
125	10
126	4
127	5
133	47
134	46
135	76
136	160
137	29
138	5
139	10
140	7
141	10
147	28
148	40
149	17
150	6
151	7
152	9
153	5
154	4
160	3
161	151
162	29
163	4
164	5
165	2
171	3
175	8
176	9
177	15
178	3
179	29
180	4
189	43
190	5
195	3
204	47
205	6
207	6
222	3
