Mass Spectrum: 9-Octadecenoic acid (Z)-, pentyl ester
Formula: C23H44O2
CAS: 142-57-4
Molecular weight: 352
m/z	intensity
27	6
28	3
29	21
39	17
40	3
41	135
42	43
43	439
44	18
45	1
53	3
54	62
55	315
56	81
57	120
58	6
59	1
60	9
61	1
68	45
69	287
70	467
71	999
72	48
73	18
81	9
82	35
83	221
84	142
85	37
86	4
87	13
88	1
96	94
97	216
98	167
99	26
100	9
101	20
102	2
109	13
110	74
111	143
112	55
113	22
114	30
115	24
116	4
123	56
124	31
125	68
126	29
127	40
128	9
129	9
133	8
134	15
137	15
138	28
140	9
141	9
142	2
143	28
144	4
147	5
148	11
151	33
152	30
153	22
154	9
155	41
156	4
157	7
161	6
165	24
166	32
168	3
169	12
170	4
171	5
172	1
175	4
176	1
179	24
180	65
181	20
182	2
184	3
186	3
189	2
190	2
193	16
194	10
195	3
196	2
197	23
198	5
199	7
200	2
201	8
202	1
203	1
207	15
208	11
210	3
213	3
214	1
215	1
220	28
221	30
222	69
223	15
224	2
225	3
227	1
228	1
235	14
236	13
239	7
240	1
241	1
245	16
246	16
247	10
248	2
253	2
254	1
255	1
256	2
258	1
263	24
264	205
265	163
266	29
267	3
269	2
270	3
280	6
281	1
282	3
283	21
284	6
285	1
295	1
296	1
297	1
309	10
310	3
311	1
337	10
338	3
352	20
353	6
354	1
