Mass Spectrum: 2-Butenoic acid, 3-amino-, methyl ester
Formula: C5H9NO2
CAS: 14205-39-1
Molecular weight: 115
m/z	intensity
14	8
15	35
16	2
17	2
18	2
26	12
27	27
29	201
30	120
31	23
37	11
38	26
39	60
40	56
41	118
42	243
43	28
44	27
45	12
50	2
51	14
52	65
53	19
54	109
55	50
56	15
57	76
58	7
59	22
66	5
67	24
68	125
69	8
70	8
71	3
72	3
73	11
74	5
82	16
83	188
84	999
85	58
86	6
87	5
98	1
99	4
100	21
115	637
116	47
117	4
