Mass Spectrum: 1-Butanol, 4-[(3-hydroxypropyl)thio]-
Formula: C7H16O2S
CAS: 142039-93-8
Molecular weight: 164
m/z	intensity
26	9
27	204
29	169
30	55
31	549
33	2
34	16
35	24
37	2
38	1
39	74
41	286
42	22
43	242
44	129
45	204
46	86
47	336
48	21
49	13
50	1
53	23
54	23
55	473
56	28
57	247
58	306
59	62
60	194
61	999
62	23
63	63
71	234
74	31
76	2
85	9
86	14
87	344
88	545
89	351
90	43
92	70
99	2
101	30
102	38
104	21
105	462
106	41
107	13
113	0
118	0
128	3
133	1
145	3
146	11
147	11
164	839
165	81
166	39
