Mass Spectrum: 2-Butenoic acid, 3-amino-, 1,4-butanediyl ester
Formula: C12H20N2O4
CAS: 14205-47-1
Molecular weight: 256
m/z	intensity
15	5
17	3
18	6
26	2
27	14
28	59
29	23
30	21
31	3
38	1
39	14
40	7
41	29
42	104
43	18
44	9
45	1
52	1
53	2
54	17
55	44
56	8
57	141
58	11
67	3
68	13
69	2
70	3
71	52
72	4
73	2
82	3
83	105
84	999
85	53
86	5
94	1
96	3
97	1
98	1
99	2
100	1
101	55
102	75
103	4
110	1
111	2
112	1
114	4
115	2
124	2
125	2
126	2
127	2
128	4
129	6
138	2
139	13
140	3
141	1
142	2
143	5
144	1
155	20
156	42
157	4
166	1
168	1
172	85
173	15
174	4
215	14
216	2
228	1
240	1
241	1
256	83
257	13
258	1
