Mass Spectrum: 2-Butenoic acid, 3-amino-, 1,1-dimethylethyl ester
Formula: C8H15NO2
CAS: 14205-43-7
Molecular weight: 157
m/z	intensity
27	60
29	120
30	40
31	60
39	100
40	20
41	280
42	240
43	60
44	102
53	20
54	40
55	80
56	100
57	210
59	240
68	63
83	999
84	430
85	50
101	950
102	80
157	280
158	40
