Mass Spectrum: (Bromomethylene)bis(phosphonic acid), tetramethyl ester
Formula: C5H13BrO6P2
CAS: 142087-77-2
Molecular weight: 310
m/z	intensity
14	13
15	359
27	25
29	84
30	17
31	58
33	13
39	20
41	40
42	44
43	63
44	11
45	76
47	273
48	25
49	22
55	68
61	15
62	136
63	204
65	22
69	12
70	35
71	37
77	42
78	12
79	300
80	43
81	21
82	38
84	19
86	11
92	19
93	999
94	273
95	65
96	12
97	13
98	18
99	16
107	84
108	11
109	446
110	19
111	13
123	29
124	861
125	129
126	17
127	13
139	13
140	48
141	74
142	15
143	54
155	14
157	42
159	19
164	20
166	14
169	49
170	21
171	422
172	82
173	29
174	28
177	16
187	812
188	33
189	12
191	15
192	10
201	216
202	685
203	56
204	107
205	14
210	10
227	14
229	10
232	85
235	34
237	33
244	63
245	29
246	41
247	20
248	13
249	74
250	31
251	71
252	23
265	25
267	24
271	14
279	55
280	78
281	58
282	72
310	115
311	6
312	112
313	12
