Mass Spectrum: 3-(3,3-Dimethylbutyl)thiophene-1,1-dioxide
Formula: C10H16O2S
CAS: 142076-47-9
Molecular weight: 200
m/z	intensity
41	360
42	29
43	382
45	66
47	4
48	13
49	2
50	38
51	67
52	42
53	82
54	19
55	200
56	48
57	999
58	50
59	10
61	16
62	8
63	25
64	65
65	42
66	13
67	38
68	8
69	67
70	361
71	197
72	11
73	3
75	22
77	54
78	17
79	85
80	17
81	76
82	53
83	22
84	9
85	14
86	10
87	8
88	2
89	2
91	48
92	17
93	62
94	25
95	70
96	22
97	45
98	9
99	22
101	20
103	20
105	69
106	20
107	41
108	20
109	21
111	6
113	16
114	6
115	18
117	34
118	66
119	104
120	57
121	43
122	6
123	32
124	14
125	26
126	6
127	18
129	9
130	138
131	169
132	24
133	18
134	21
135	37
136	24
137	27
138	4
139	41
140	4
141	6
142	6
143	26
144	427
145	49
146	28
147	3
149	22
155	4
157	6
159	9
165	13
167	56
168	8
169	5
170	8
171	70
183	64
184	8
185	33
186	8
187	4
200	114
201	18
202	2
