Mass Spectrum: 4-Hydroxy-3,5,5-trimethylcyclohex-2-enone
Formula: C9H14O2
CAS: 14203-59-9
Molecular weight: 154
m/z	intensity
26	1
27	19
28	5
29	21
30	1
31	3
37	2
38	8
39	109
40	27
41	142
42	166
43	63
44	5
45	6
50	9
51	20
52	10
53	35
54	8
55	63
56	17
57	16
62	3
63	7
64	2
65	20
66	8
67	35
68	18
69	374
70	410
71	25
72	6
77	40
78	8
79	28
80	3
81	4
82	9
83	18
84	5
85	7
91	29
92	4
93	38
94	8
95	18
96	5
97	52
98	999
99	56
100	6
107	7
108	2
109	9
110	2
111	62
112	467
113	36
114	3
121	6
124	1
125	6
126	3
127	1
139	10
140	2
154	25
155	3
