Mass Spectrum: 4-Imidazolidinone, 2,2-dimethyl-3-[(1-methylethylidene)amino]-
Formula: C8H15N3O
CAS: 142071-78-1
Molecular weight: 169
m/z	intensity
26	7
27	43
28	88
29	39
30	155
31	4
37	1
38	5
39	72
40	28
41	116
42	151
43	21
44	7
45	1
50	0
51	2
52	4
53	3
54	28
55	32
56	350
57	28
58	93
59	7
60	0
63	1
64	0
65	0
66	0
67	1
68	15
69	23
70	464
71	999
72	69
73	6
74	0
76	0
77	2
78	0
79	0
80	0
81	1
82	2
83	9
84	12
85	14
86	1
91	0
92	0
93	0
94	0
95	4
96	4
97	64
98	32
99	54
100	3
101	0
104	0
105	2
108	0
109	0
110	1
111	5
112	14
113	58
114	4
115	0
121	0
122	0
123	0
124	0
125	0
126	9
127	1
128	0
129	0
138	2
139	0
140	1
141	2
142	0
151	0
152	0
153	0
154	51
155	5
156	0
167	0
168	0
169	313
170	36
171	2
