Mass Spectrum: 1,2-Diphospholane, 1,2-bis(1,1-dimethylethyl)-
Formula: C11H24P2
CAS: 142132-77-2
Molecular weight: 218
m/z	intensity
26	1
27	28
28	0
29	205
30	4
33	0
38	0
39	39
41	269
42	37
43	72
44	1
45	20
46	2
47	4
48	2
49	0
50	0
51	0
53	5
54	0
55	20
56	10
57	999
58	40
59	8
60	2
61	7
62	4
63	20
64	2
65	3
66	0
67	1
68	0
69	2
70	0
71	24
72	8
73	58
74	3
75	18
76	3
77	52
78	14
79	2
80	0
81	1
82	0
83	1
84	0
85	4
86	0
87	6
88	2
89	6
90	1
91	0
92	5
93	1
94	0
95	0
97	0
98	0
99	2
100	0
101	1
102	2
103	6
104	16
105	859
106	615
107	23
108	0
109	0
111	0
113	3
114	0
115	0
117	1
118	1
119	2
120	9
121	4
122	19
123	1
126	0
127	0
129	0
130	0
131	0
132	9
133	1
134	0
135	0
136	0
138	0
140	0
143	0
144	0
145	0
146	0
147	11
148	5
149	0
150	0
159	0
161	385
162	505
163	36
164	1
165	0
177	2
178	11
179	0
187	0
188	3
189	0
190	0
199	0
203	2
204	1
218	266
219	33
220	2
