Mass Spectrum: Benzenamine, 4-(1H-tetrazol-1-yl)-
Formula: C7H7N5
CAS: 14213-13-9
Molecular weight: 161
m/z	intensity
29	37
37	43
38	75
39	136
40	44
41	78
42	20
50	48
51	126
52	371
53	197
54	64
55	17
61	27
62	41
63	68
64	44
65	167
66	27
76	14
77	34
78	88
79	493
80	105
91	17
92	54
105	351
106	999
107	72
132	17
133	276
134	20
161	43
