Mass Spectrum: 1-Oxaspiro[4.4]nonan-2-one, 4-(benzylaminocarbonyl)-
Formula: C16H19NO3
CAS: 142183-73-1
Molecular weight: 273
m/z	intensity
33	23
34	11
35	1
36	3
37	5
38	16
39	160
40	171
41	204
42	62
43	72
44	86
45	8
46	2
47	1
48	1
49	3
50	27
51	72
52	29
53	47
54	44
55	470
56	60
57	41
58	5
59	5
60	3
61	2
62	7
63	28
64	14
65	152
66	23
67	72
68	15
69	25
70	17
71	14
72	4
73	5
74	6
75	6
76	10
77	92
78	39
79	78
80	62
81	39
82	22
83	35
84	36
85	24
86	2
87	2
88	4
89	34
91	999
92	119
93	33
94	77
95	76
96	19
97	21
98	44
99	11
100	3
101	2
102	2
103	9
104	62
105	51
106	456
107	55
108	18
109	55
110	11
111	21
112	10
113	4
115	13
116	12
117	59
118	35
119	15
120	10
121	31
122	75
123	27
124	6
125	6
126	4
127	3
128	4
129	7
130	20
131	9
132	45
133	17
134	7
135	4
136	5
137	6
138	13
139	15
140	26
141	7
142	4
143	6
144	13
145	6
146	8
147	4
148	6
149	23
150	5
151	2
152	2
153	2
154	4
155	3
156	9
157	18
158	13
159	15
160	68
161	49
162	44
163	7
164	10
165	3
166	3
167	4
168	4
169	6
170	6
171	9
172	6
173	4
174	1
175	1
176	1
177	3
178	2
180	3
181	4
182	18
183	5
184	9
185	17
186	20
188	70
189	97
190	11
191	2
192	0
193	0
194	1
195	0
196	1
197	2
198	5
199	5
200	4
201	2
202	3
203	9
204	1
205	2
206	0
207	1
209	2
210	3
211	12
212	9
213	22
214	136
215	22
216	6
217	1
218	0
219	0
221	0
223	1
224	1
225	1
226	6
227	35
228	12
229	6
231	55
232	14
233	2
234	0
235	0
236	0
237	0
238	1
239	1
240	0
241	0
243	0
244	7
245	4
246	0
247	0
249	0
251	0
252	1
253	1
254	2
255	14
256	3
257	0
258	0
265	0
267	0
268	0
269	1
270	2
271	5
272	8
273	136
274	22
275	2
276	0
277	0
278	0
279	0
