Mass Spectrum: Phosphine oxide, di-t-butylpropyl-
Formula: C11H25OP
CAS: 142132-67-0
Molecular weight: 204
m/z	intensity
26	2
27	56
29	220
30	5
31	1
33	0
34	0
35	0
37	0
38	1
39	51
40	6
41	320
42	13
43	55
44	1
45	9
46	1
47	34
48	9
49	18
50	4
51	4
52	0
53	5
54	1
55	23
56	17
57	999
58	39
59	5
60	0
61	16
62	5
63	100
64	138
65	9
67	0
69	3
70	0
71	5
72	10
73	30
74	4
75	8
76	1
77	5
78	33
79	2
80	0
81	0
83	3
84	0
85	4
86	2
87	15
88	1
89	56
90	10
91	25
92	875
93	108
94	4
97	0
101	0
103	7
104	5
105	29
106	242
107	15
108	0
115	0
117	1
118	1
119	1
120	104
121	7
122	1
123	2
129	0
131	18
132	3
133	40
134	7
135	1
136	0
138	0
139	0
145	0
146	1
147	24
148	715
149	62
150	4
151	0
161	6
162	28
163	4
164	0
176	1
177	0
178	0
179	1
188	0
189	4
190	0
191	0
203	1
204	73
205	14
206	1
