Mass Spectrum: Phosphine, bis(1,1-dimethylethyl)(3-phosphinopropyl)-
Formula: C11H26P2
CAS: 142132-73-8
Molecular weight: 220
m/z	intensity
29	351
30	6
39	44
40	21
41	409
42	37
43	84
44	3
45	57
46	7
47	25
48	7
49	2
53	6
54	0
55	37
56	14
57	946
58	39
59	28
60	5
61	44
62	2
65	15
66	20
67	1
69	3
71	22
72	13
73	144
78	8
79	39
80	3
81	0
83	1
85	1
87	7
89	7
90	8
91	131
92	145
93	11
103	6
104	31
105	64
106	199
107	999
108	61
109	2
110	0
117	21
118	4
119	8
120	6
121	20
122	61
123	13
130	3
131	10
132	15
133	14
134	12
146	2
147	2
148	1
161	3
162	99
163	801
164	95
165	6
167	4
173	7
178	27
179	6
180	1
181	0
182	5
187	3
188	8
190	27
191	4
204	1
205	2
218	5
219	217
220	211
221	27
222	0
