Mass Spectrum: 1-Phosphetanamine, 1,1-bis(1,1-dimethylethyl)-1,1-dihydro-
Formula: C11H26NP
CAS: 142132-66-9
Molecular weight: 203
m/z	intensity
28	7
29	404
30	16
31	10
33	1
34	0
35	2
37	2
38	2
39	83
41	430
42	34
43	36
44	3
45	15
46	119
47	111
48	722
49	157
50	4
51	2
52	0
53	6
54	2
55	30
56	21
57	829
58	63
59	12
60	4
61	58
62	59
63	334
64	11
65	1
67	0
69	3
70	2
71	8
72	10
73	629
74	75
75	15
76	5
77	5
78	2
79	1
81	1
83	3
84	0
85	5
86	20
87	212
88	41
89	24
90	646
91	999
92	63
93	4
95	1
97	0
98	0
99	0
100	3
101	1
102	6
103	4
104	188
105	284
106	22
107	1
109	0
111	0
113	0
114	0
115	2
116	0
117	1
118	1
119	253
120	18
121	2
122	0
123	0
124	0
129	2
130	3
131	8
132	17
133	2
134	0
137	0
144	1
145	1
146	71
147	658
148	77
149	4
160	6
161	63
162	6
163	1
164	0
165	0
174	0
175	1
176	0
177	0
178	1
179	0
187	0
188	7
189	1
202	2
203	31
204	14
205	2
