Mass Spectrum: Morpholine, 4,4'-ethenylidenebis-
Formula: C10H18N2O2
CAS: 14212-87-4
Molecular weight: 198
m/z	intensity
14	5
15	87
16	2
18	2
25	2
26	29
27	129
28	365
29	372
30	211
31	26
32	5
33	1
37	1
38	2
39	27
40	21
41	430
42	416
43	554
44	119
45	126
46	4
47	1
49	1
51	2
52	14
53	18
54	144
55	999
56	729
57	902
58	63
59	20
60	4
61	1
62	2
63	1
64	1
65	2
66	20
67	22
68	162
69	104
70	104
71	77
72	101
73	14
74	2
75	1
77	3
78	2
79	2
80	9
81	12
82	85
83	152
84	123
85	305
86	456
87	345
88	24
89	2
92	2
93	2
94	4
95	7
96	10
97	16
98	41
99	45
100	51
101	16
102	1
104	1
105	2
106	1
107	2
108	2
109	12
110	28
111	39
112	513
113	466
114	225
115	22
116	3
119	1
120	1
121	1
122	1
123	10
124	5
125	32
126	17
127	18
128	17
129	225
130	18
131	2
132	1
135	1
136	1
137	7
138	8
139	21
140	14
141	81
142	10
143	15
144	3
145	1
146	1
147	5
148	3
151	2
152	1
153	81
154	15
155	60
156	8
157	4
158	1
166	1
167	18
168	22
169	51
170	14
171	3
172	1
181	2
182	1
183	6
184	1
195	1
196	2
197	22
198	438
199	55
200	4
