Mass Spectrum: 5-(1-Allyloxycarbonyl-1,4-dihydropyridin-4-ylidene)-2,2-dimethyl-1,3-dioxan-4,6-dione
Formula: C15H15NO6
CAS: 142131-84-8
Molecular weight: 305
m/z	intensity
12	14
13	1
14	6
15	51
16	23
17	9
18	35
22	1
25	1
26	12
27	35
28	39
29	21
30	2
31	7
32	1
36	1
37	10
38	16
39	173
40	22
41	999
42	46
43	184
44	237
45	6
46	1
49	1
50	10
51	28
52	8
53	5
54	2
55	4
56	1
57	8
58	8
59	9
60	1
61	4
62	27
63	114
64	24
65	10
66	3
67	1
68	1
69	2
70	1
71	1
73	1
74	1
75	1
76	2
77	11
78	34
79	8
80	2
81	1
83	1
84	1
85	2
87	1
88	1
89	4
90	67
91	31
92	7
93	2
102	2
103	9
104	11
105	4
106	34
107	4
108	1
116	1
117	3
118	5
119	44
120	14
121	1
128	1
129	2
130	57
131	45
132	10
133	7
134	4
143	2
144	1
145	3
146	12
147	3
148	2
157	2
159	320
160	52
161	20
162	13
163	15
164	6
174	1
175	6
176	1
177	1
185	1
188	1
203	71
204	36
205	11
206	1
208	0
221	1
246	0
247	1
248	10
249	1
250	0
261	4
262	0
290	2
291	0
305	45
306	7
307	3
308	0
