Mass Spectrum: .alpha.-D-Galactopyranose, 2-(acetylamino)-2-deoxy-
Formula: C8H15NO6
CAS: 14215-68-0
Molecular weight: 221
m/z	intensity
41	96
42	414
43	999
44	913
45	142
46	18
47	28
48	1
49	5
50	3
51	7
52	18
53	18
54	60
55	121
56	146
57	60
58	79
59	135
60	327
61	244
62	9
63	2
64	2
65	2
66	4
67	8
68	24
69	49
70	37
71	91
72	475
73	416
74	53
75	3
76	2
77	3
78	5
79	3
80	5
81	12
82	39
83	104
84	63
85	33
86	29
87	9
88	23
89	7
90	6
91	34
92	1
93	1
94	3
95	9
96	47
97	22
98	18
99	31
100	185
101	104
102	50
103	20
104	1
105	1
106	2
107	1
108	3
109	5
110	7
111	8
112	24
113	24
114	76
115	21
116	3
117	2
118	6
119	4
120	0
121	1
122	1
123	8
124	23
125	55
126	27
127	5
128	5
129	5
130	15
131	10
132	7
133	1
134	0
135	1
136	1
137	3
138	5
139	4
140	2
141	12
142	97
143	102
144	11
145	2
146	0
147	0
148	1
149	2
150	1
151	1
152	2
153	2
154	11
155	12
156	4
157	2
158	0
160	9
161	1
162	1
163	0
164	0
165	1
166	14
167	7
168	2
169	1
170	0
171	1
172	3
173	1
174	4
175	0
178	0
179	1
180	1
181	1
182	0
183	1
184	2
185	6
186	3
187	0
190	1
192	0
196	0
197	1
202	0
203	0
204	2
205	0
221	1
222	0
223	0
