Mass Spectrum: Acetic acid, 2-(dimethylamino)ethyl ester
Formula: C6H13NO2
CAS: 1421-89-2
Molecular weight: 131
m/z	intensity
14	5
15	39
17	1
18	5
26	3
27	9
28	15
29	12
30	52
31	1
39	1
40	3
41	8
42	77
43	102
44	42
45	9
54	2
55	3
56	24
57	22
58	999
59	37
60	3
61	1
70	8
71	72
72	23
73	3
74	1
86	3
87	13
88	13
89	2
131	5
