Mass Spectrum: 5(1-Ethoxycarbonyl-1,4-dihydropyridin-4-ylidene)-2,2-dimethyl-1,3-dioxan-4,6-dione
Formula: C14H15NO6
CAS: 142131-81-5
Molecular weight: 293
m/z	intensity
12	5
13	2
14	11
15	93
16	11
17	20
18	73
19	1
25	1
26	32
27	268
28	91
29	999
30	27
31	22
32	5
34	1
36	0
37	16
38	19
39	47
40	10
41	45
42	23
43	352
44	57
45	18
46	2
47	1
49	2
50	22
51	55
52	23
53	12
54	5
55	4
56	3
57	6
58	12
59	25
60	2
61	10
62	62
63	255
64	99
65	41
66	8
67	5
68	2
69	2
70	2
71	1
72	0
73	3
74	1
75	2
76	4
77	20
78	63
79	26
80	12
81	1
82	1
83	1
84	1
85	1
87	1
88	2
89	8
90	98
91	313
92	48
93	8
94	2
95	3
96	2
97	1
98	0
102	1
104	131
105	15
106	70
107	12
108	4
109	1
110	1
111	1
112	1
113	1
115	1
116	1
117	10
119	773
120	146
121	12
122	1
123	1
124	1
128	0
129	1
130	2
131	1
132	6
133	8
134	8
135	5
136	2
137	1
144	2
145	22
146	17
147	123
148	46
149	5
150	1
151	3
152	1
153	0
155	0
156	0
162	23
163	122
164	74
165	8
166	1
169	0
171	0
172	1
173	1
174	1
175	1
176	4
177	2
178	1
179	1
180	1
181	0
183	1
184	0
185	0
187	0
191	612
192	97
193	10
194	1
205	2
206	0
207	2
208	13
209	1
220	0
221	1
222	0
234	0
235	9
236	53
237	7
238	1
240	0
248	2
249	0
253	0
254	0
265	0
266	0
278	5
279	0
280	0
293	90
294	13
295	2
296	0
