Mass Spectrum: 1,4-Benzenediol, dibenzoate
Formula: C20H14O4
CAS: 14210-97-0
Molecular weight: 318
m/z	intensity
33	4
34	1
37	2
38	9
39	15
40	10
41	6
42	3
43	6
44	5
50	71
51	194
53	7
54	15
55	5
57	5
60	1
62	3
63	7
64	2
65	1
67	1
68	1
69	3
71	2
73	3
74	13
75	10
77	483
78	24
80	2
81	2
82	5
83	1
85	1
97	1
101	1
105	999
106	73
108	2
109	1
122	1
149	2
315	2
318	72
319	11
320	2
