Mass Spectrum: 5-(1-Ehoxycarbonyl-1,4-dihydropyridin-4-yliden)-2,2-pentamethylen-1,3-dioxan-4,6-dion
Formula: C17H19NO6
CAS: 142131-85-9
Molecular weight: 333
m/z	intensity
12	11
13	2
14	7
15	25
16	15
17	10
18	32
19	1
22	1
26	30
27	288
28	126
29	999
30	27
31	12
32	1
35	1
36	2
37	9
38	15
39	110
40	31
41	228
42	201
43	45
44	92
45	13
46	2
48	1
49	2
50	12
51	41
52	17
53	25
54	21
55	201
56	26
57	5
58	0
59	1
60	1
61	5
62	29
63	153
64	72
65	39
66	7
67	9
68	7
69	51
70	25
71	3
73	2
74	1
75	1
76	2
77	16
78	54
79	22
80	20
81	14
82	1
83	11
84	1
85	1
87	1
88	1
89	7
90	94
91	202
92	40
93	6
94	1
95	2
96	2
97	5
98	18
99	9
100	1
102	1
104	78
105	8
106	45
107	7
108	3
109	0
115	1
116	1
117	8
118	26
119	342
120	168
121	14
122	1
123	0
124	0
127	0
128	0
130	2
131	1
132	4
133	2
134	3
135	2
136	1
137	1
144	1
145	6
146	43
147	68
148	70
149	9
150	1
151	2
152	1
156	0
158	0
159	0
160	1
161	1
162	8
163	36
164	101
165	12
166	1
168	0
172	0
173	0
174	1
175	0
176	0
177	4
178	1
179	0
187	0
188	0
189	1
191	201
192	209
193	23
194	2
204	0
205	4
206	0
207	1
208	15
209	4
210	0
215	0
216	0
218	1
219	0
220	0
221	1
222	0
232	0
233	2
234	1
236	77
237	10
238	1
246	0
247	0
249	23
250	3
251	0
260	0
261	0
262	1
263	0
277	30
278	4
279	0
288	0
289	2
290	3
291	0
305	1
306	0
333	32
334	6
335	1
336	0
