Mass Spectrum: Tricyclo[4.2.1.1(2,5)]decane-9,10-dione, (1.alpha.,2.beta.,5.beta.,6.alpha.)-
Formula: C10H12O2
CAS: 14224-67-0
Molecular weight: 164
m/z	intensity
26	36
27	317
29	39
37	7
38	27
39	418
40	74
41	221
42	26
43	29
44	45
45	4
50	36
51	75
52	50
53	162
54	809
55	222
56	11
57	26
58	12
62	6
63	17
64	5
65	65
66	190
67	999
68	100
69	15
70	77
71	13
74	5
75	5
77	105
78	66
79	492
80	650
81	67
82	32
83	11
84	6
85	10
91	78
92	25
93	232
94	71
95	31
96	6
97	9
103	9
104	8
105	12
107	77
108	179
109	17
110	5
117	10
118	11
119	6
120	123
121	27
131	8
133	17
135	11
136	20
141	7
145	5
146	4
149	25
164	467
165	49
166	9
