Mass Spectrum: Heptanedioic acid, 3-methyl-, dimethyl ester, (+)-
Formula: C10H18O4
CAS: 14226-72-3
Molecular weight: 202
m/z	intensity
29	170
39	230
40	70
41	560
42	230
43	380
45	110
53	120
55	530
56	110
59	720
67	180
68	190
69	999
70	80
71	70
73	120
74	720
75	50
79	50
81	180
82	260
83	330
85	220
87	330
94	80
95	190
96	120
97	700
98	70
99	100
100	70
101	190
109	70
110	130
111	220
113	80
114	90
115	140
122	130
123	80
125	170
126	90
127	180
128	180
129	970
130	90
138	80
139	290
140	80
141	70
142	240
143	70
154	180
155	120
157	50
170	70
171	410
