Mass Spectrum: 4-Benzyloxy-N-phthaloylphenylethylamine
Formula: C23H19NO3
CAS: 142294-15-3
Molecular weight: 357
m/z	intensity
41	4
43	8
50	13
51	21
52	6
63	7
65	72
66	4
75	5
76	32
77	70
78	15
79	4
89	10
90	8
91	999
92	75
102	5
104	26
105	23
106	4
107	63
108	4
119	13
120	164
121	16
130	8
132	8
133	27
160	79
161	8
165	3
197	35
198	5
210	173
211	28
267	4
357	29
358	7
