Mass Spectrum: 2-Bromo-6-fluorotoluene
Formula: C7H6BrF
CAS: 1422-54-4
Molecular weight: 188
m/z	intensity
15	1
26	5
27	6
31	20
33	5
36	1
37	15
38	22
39	47
40	1
43	13
44	45
48	1
49	12
50	60
51	46
52	6
53	4
54	16
56	15
57	113
58	6
59	19
60	4
61	35
62	67
63	99
64	10
65	2
68	13
69	8
70	6
73	7
74	27
75	18
76	5
77	1
79	9
80	18
81	91
82	29
83	216
84	29
85	28
86	20
87	19
88	10
89	49
90	6
91	1
92	4
93	7
94	16
95	10
104	3
105	13
106	7
107	288
108	254
109	999
110	81
111	3
113	1
116	1
117	3
118	1
119	3
128	1
130	1
135	2
137	2
141	1
143	1
161	3
163	2
187	39
188	293
189	57
190	283
191	21
