Mass Spectrum: 1-Phenyl-1,8a-dihydro-[1,2,4]triazolo[4,3-a]pyridin-3,6-dicarboxylic acid, diethyl ester
Formula: C18H19N3O4
CAS: 142397-09-9
Molecular weight: 341
m/z	intensity
12	1
13	1
14	4
15	15
16	3
17	4
18	13
19	2
24	0
25	1
26	16
27	109
28	40
29	258
30	10
31	19
32	1
36	0
37	3
38	11
39	43
40	6
41	23
42	5
43	15
44	10
45	20
46	3
47	0
48	0
49	2
50	30
51	115
52	28
53	15
54	5
55	3
56	2
57	3
58	1
59	0
60	1
61	1
62	4
63	29
64	92
65	52
66	11
67	3
68	1
69	2
70	1
71	1
72	0
73	1
74	2
75	3
76	11
77	130
78	111
79	20
80	7
81	4
82	1
83	1
84	2
85	0
86	1
87	1
88	2
89	28
91	999
92	84
93	9
94	5
95	2
96	1
97	1
98	1
99	0
100	0
101	1
102	2
103	13
104	16
105	25
106	103
107	11
108	2
109	0
110	0
111	1
112	0
113	1
114	2
115	9
116	4
117	15
118	147
119	20
120	3
121	1
122	8
123	44
124	37
125	3
126	1
127	4
128	5
129	3
130	2
131	4
132	1
133	1
134	2
135	0
136	1
137	1
138	0
139	2
140	11
141	4
142	3
143	3
144	2
145	11
146	3
147	1
148	0
149	30
150	10
151	23
152	14
153	3
154	6
155	3
156	2
157	1
158	0
159	0
160	0
161	0
162	0
163	0
164	1
165	1
166	3
167	24
168	10
169	8
170	4
171	3
172	8
173	1
174	0
176	0
177	12
178	2
179	2
180	1
181	1
182	1
183	1
184	1
185	1
186	0
187	0
188	0
189	1
190	99
191	11
192	4
193	3
194	14
195	6
196	9
197	5
198	2
199	1
200	1
201	0
202	0
203	0
205	0
206	0
207	0
208	0
209	0
210	0
211	1
212	2
213	5
214	1
215	0
216	0
217	3
218	1
219	0
220	0
222	19
223	4
224	3
225	1
226	3
227	0
228	1
229	0
230	0
231	1
232	0
233	0
234	0
235	0
236	0
238	9
239	2
240	27
241	8
242	3
243	0
244	0
245	0
246	0
250	1
251	0
252	0
255	0
256	0
257	0
258	0
260	0
266	12
267	6
268	10
269	3
270	8
271	2
272	1
273	0
276	1
277	1
282	0
284	21
285	3
286	0
294	0
296	22
297	7
298	3
299	0
312	41
313	8
314	1
315	0
316	0
326	0
327	0
328	0
329	0
340	200
341	145
342	30
343	6
344	1
345	0
