Mass Spectrum: 2,2'-Bi-1,4-dioxane
Formula: C8H14O4
CAS: 14230-41-2
Molecular weight: 174
m/z	intensity
26	33
27	38
28	176
29	92
30	35
31	365
32	7
38	0
39	23
40	11
41	90
42	22
43	250
44	50
45	113
46	2
48	0
49	1
50	4
51	1
52	1
53	6
54	21
55	61
56	27
57	79
58	69
59	144
60	13
61	9
62	0
63	0
65	0
66	1
67	1
68	1
69	36
70	51
71	53
72	17
73	194
74	8
75	4
81	1
82	1
83	10
84	7
85	8
86	741
87	999
88	55
89	19
90	1
91	0
94	0
95	1
96	1
97	3
98	0
99	62
100	21
101	24
102	19
103	9
105	0
109	0
111	1
112	55
113	15
114	15
115	33
116	18
117	7
118	0
123	0
126	0
127	0
128	1
129	6
130	87
131	39
132	3
137	0
143	58
144	8
145	2
146	0
147	0
156	2
159	4
163	0
173	0
174	57
175	6
176	0
