Mass Spectrum: 1,3-Diphenyl-9-methyl-1,10a-dihydro-1,2,4-triazolo[4,3-a]-quinoline
Formula: C23H19N3
CAS: 142397-14-6
Molecular weight: 337
m/z	intensity
15	9
16	8
17	34
18	110
26	7
27	40
28	26
29	13
31	18
32	5
37	5
38	17
39	87
40	13
41	54
42	7
43	18
44	22
45	11
46	5
50	43
51	177
52	38
53	9
54	3
55	12
56	5
57	16
61	4
62	13
63	72
64	171
65	66
66	13
67	3
69	7
70	4
71	7
73	3
74	13
75	34
76	63
77	218
78	28
79	5
82	4
83	5
84	3
85	3
86	3
87	8
88	12
89	57
91	999
92	86
93	6
95	8
96	4
97	4
98	3
99	3
100	6
101	36
102	41
103	92
104	41
105	6
109	17
111	3
112	4
113	9
114	23
115	89
116	50
117	15
118	3
125	4
126	6
127	14
128	73
129	23
130	22
131	5
138	3
139	7
140	15
141	7
142	21
143	39
144	14
150	3
151	4
152	5
153	4
154	3
155	6
157	4
161	23
163	4
164	8
165	20
166	14
167	33
169	26
171	3
175	2
176	5
177	4
178	4
179	4
180	2
187	2
188	2
189	6
190	19
191	12
192	14
193	37
194	589
195	89
196	6
200	1
201	2
202	5
203	6
204	7
205	7
206	5
207	2
214	3
215	4
216	16
217	38
218	166
219	278
220	46
221	4
227	1
228	4
229	7
230	17
231	40
232	32
233	54
234	13
235	2
243	2
244	6
245	3
258	1
260	5
261	1
262	1
291	2
292	1
293	1
304	1
320	4
322	594
323	151
324	18
325	1
334	2
335	11
336	79
337	144
338	34
339	6
340	1
