Mass Spectrum: 4-Oxo-4,5,6,7-tetrahydrobenzofurazan
Formula: C6H6N2O2
CAS: 142328-06-1
Molecular weight: 138
m/z	intensity
40	59
41	241
42	239
43	17
50	20
51	61
52	224
53	999
54	107
55	97
56	12
63	7
64	21
65	11
66	50
67	18
68	57
69	11
70	59
76	7
78	9
79	11
80	912
81	58
82	89
93	17
95	35
96	22
108	24
109	9
110	45
138	395
139	34
