Mass Spectrum: .beta.-Dihydroequilenin diacetate
Formula: C22H24O4
CAS: 1423-96-7
Molecular weight: 352
m/z	intensity
41	33
43	999
44	21
45	5
50	6
51	6
53	12
55	29
57	16
59	3
60	3
61	3
63	5
65	5
67	8
69	11
70	0
71	8
73	4
75	2
76	7
77	13
78	1
79	6
81	6
82	0
83	4
85	5
87	2
88	2
89	4
91	8
92	1
93	4
95	4
97	5
99	1
101	2
102	1
103	1
104	4
105	3
107	3
109	0
111	0
113	2
115	17
116	0
117	3
121	0
123	0
126	4
127	7
128	9
129	4
131	3
133	0
135	1
139	8
140	1
141	8
142	2
144	3
147	1
149	3
150	2
151	9
152	30
153	18
154	3
155	3
157	21
158	2
163	28
165	48
166	14
167	11
168	2
169	6
170	2
171	3
173	1
176	8
177	13
178	23
179	20
180	6
181	22
182	9
183	5
184	4
185	0
186	3
187	0
189	12
190	7
191	10
192	4
193	1
194	30
195	34
196	11
197	7
199	0
200	1
202	7
203	7
204	3
205	10
206	12
207	29
208	17
209	14
210	22
211	8
212	3
213	0
215	4
217	3
218	3
219	6
220	8
221	14
222	6
223	7
224	4
225	4
226	5
227	0
231	3
233	14
235	232
236	32
237	5
238	2
240	2
247	3
248	10
249	30
250	182
251	38
252	6
264	3
265	2
266	3
267	2
277	63
278	11
280	0
290	1
292	38
293	14
294	2
310	12
311	6
324	0
351	1
352	37
353	8
354	0
