Mass Spectrum: Propane, 1,3-bis(4,6-diphenyl-1,3,5-triazin-2-yl)-
Formula: C33H26N6
CAS: 142406-95-9
Molecular weight: 506
m/z	intensity
26	1
27	2
29	0
36	0
37	0
38	0
39	5
40	1
41	38
42	2
43	0
44	0
50	5
51	12
52	4
53	1
54	35
55	1
62	0
63	1
64	0
65	0
66	6
67	7
68	5
69	0
74	0
75	5
76	54
77	87
78	6
79	1
83	0
88	0
89	1
90	0
92	1
93	10
94	2
95	0
101	1
102	8
103	180
104	999
105	84
106	3
112	0
115	1
116	3
117	0
118	0
120	0
128	0
129	20
130	6
131	0
140	0
142	0
143	5
144	0
145	0
149	0
150	6
151	1
152	0
154	0
155	5
156	1
157	0
158	0
165	0
167	0
168	1
169	3
170	2
171	1
177	0
178	0
179	0
180	0
181	0
190	0
191	0
193	0
194	0
195	0
196	5
197	1
201	0
202	1
204	0
205	12
206	2
207	0
208	1
209	0
218	0
219	0
232	0
233	1
234	0
235	0
245	0
246	1
247	713
248	121
249	12
250	0
253	15
259	2
260	893
261	160
262	15
263	1
271	0
272	4
273	3
274	4
275	0
276	0
282	0
283	0
285	0
297	1
298	0
299	26
300	6
301	1
309	0
349	1
350	0
361	1
400	0
401	0
402	2
403	0
478	0
491	0
505	2
506	89
507	34
508	7
509	0
