Mass Spectrum: 2-Pentalenecarbonitrile, octahydro-rel-3a,cis-6a-dimethyl-5-oxo-trans-2-(phenylthio)-
Formula: C17H19NOS
CAS: 142484-11-5
Molecular weight: 285
m/z	intensity
39	89
40	12
41	81
42	10
43	38
45	17
50	7
51	30
52	8
53	36
54	11
55	70
56	7
57	5
58	5
63	9
65	110
66	64
67	34
68	5
69	33
77	62
78	17
79	65
80	13
81	15
82	13
83	8
84	14
91	65
92	37
93	32
94	13
95	11
103	7
104	13
105	23
106	32
107	92
108	28
109	179
110	999
111	82
112	43
115	6
116	13
117	16
118	28
119	23
120	19
121	21
122	7
123	15
124	6
130	6
131	14
132	23
133	13
134	104
135	17
136	5
146	5
148	13
149	15
150	18
160	7
161	5
165	31
166	6
175	8
176	744
177	92
178	7
202	5
219	7
285	424
286	84
287	28
