Mass Spectrum: Ethane, 1,2-bis(4,6-diphenyl-1,3,5-triazin-2-yl)-
Formula: C32H24N6
CAS: 142406-94-8
Molecular weight: 492
m/z	intensity
26	0
27	2
28	1
39	6
40	0
41	2
42	0
44	1
50	9
51	17
52	11
53	12
54	37
55	2
63	3
64	1
74	0
75	9
76	102
77	127
78	9
79	15
80	65
81	10
82	0
88	0
89	1
90	0
91	0
101	1
102	16
103	430
104	999
105	433
106	31
107	1
114	0
115	1
116	2
117	1
128	1
129	38
130	30
131	3
140	0
141	0
142	3
143	115
144	3
151	1
152	0
153	0
154	1
155	16
156	4
157	1
158	0
165	0
177	0
178	3
179	0
180	3
181	4
182	23
183	66
184	8
185	0
195	9
204	0
205	28
206	6
207	3
208	95
209	15
210	0
218	0
219	1
232	2
233	12
234	2
244	0
245	0
246	0
247	1
258	2
259	4
260	180
261	34
262	3
269	0
270	0
281	1
283	3
284	7
285	84
286	66
287	14
288	1
309	2
310	0
320	1
322	3
323	0
347	0
348	0
349	0
386	0
387	1
388	3
389	3
390	1
490	11
491	8
492	914
493	331
494	57
495	6
496	0
