Mass Spectrum: Cyclohexanecarbonitrile, 3,3,5,5-tetramethyl-1-(phenylthio)-
Formula: C17H23NS
CAS: 142484-07-9
Molecular weight: 273
m/z	intensity
39	83
40	13
41	200
42	23
43	83
44	8
45	17
50	7
51	28
52	8
53	90
54	13
55	99
56	38
57	160
58	13
63	6
65	116
66	61
67	72
68	10
69	61
70	8
71	9
77	55
78	14
79	56
80	70
81	130
82	16
83	25
84	14
91	58
92	15
93	37
94	33
95	52
96	9
97	58
105	16
106	35
107	29
108	406
109	192
110	999
111	81
112	45
119	7
120	10
121	20
122	80
123	24
134	7
135	5
137	10
147	17
148	69
149	11
164	220
165	26
218	14
273	179
274	34
275	10
