Mass Spectrum: Cyclopropanecarboxaldehyde, methylene-
Formula: C5H6O
CAS: 142423-24-3
Molecular weight: 82
m/z	intensity
24	0
26	92
27	716
28	102
29	95
30	2
31	6
35	0
36	8
37	47
38	74
39	489
40	29
41	4
42	23
43	8
44	0
48	6
49	36
50	147
51	179
52	60
53	495
54	445
55	76
56	17
57	1
60	2
61	7
62	6
63	11
64	2
65	1
66	1
67	4
68	0
77	0
79	1
80	0
81	999
82	64
83	4
