Mass Spectrum: Spiro[2.3]hexan-4-one, 5,5-dichloro-6-methyl-
Formula: C7H8Cl2O
CAS: 142428-07-7
Molecular weight: 178
m/z	intensity
26	15
27	72
29	3
31	1
35	3
36	7
37	20
38	48
39	247
40	999
41	81
42	7
43	3
44	1
47	10
48	3
49	32
50	35
51	83
52	20
53	68
54	20
55	4
56	2
60	3
61	14
62	12
63	23
64	6
65	34
66	9
67	28
68	491
69	55
70	3
72	6
73	31
74	7
75	98
76	5
77	87
78	12
79	84
80	9
81	1
82	7
83	5
84	6
85	9
86	3
87	30
88	2
89	10
93	2
96	2
97	1
99	14
100	6
101	13
102	2
103	5
107	11
108	5
109	6
110	31
111	4
112	18
113	3
114	4
115	32
116	3
117	11
122	2
128	1
129	2
135	2
136	5
137	2
138	3
143	43
144	3
145	15
150	2
152	1
163	3
178	63
179	5
180	38
181	3
182	5
