Mass Spectrum: Hexane, 2-nitro-
Formula: C6H13NO2
CAS: 14255-44-8
Molecular weight: 131
m/z	intensity
26	19
27	205
28	31
29	187
30	44
31	13
37	4
38	12
39	172
40	30
41	429
42	110
43	999
44	44
45	24
46	11
50	8
51	15
52	6
53	34
54	12
55	189
56	67
57	142
58	8
59	27
60	15
62	1
63	2
65	5
66	1
67	11
68	2
69	41
70	3
71	3
72	3
74	4
75	12
76	25
77	3
78	0
79	1
81	2
82	0
83	26
84	37
85	406
86	31
87	0
88	0
89	2
90	0
91	0
101	2
102	5
105	1
114	1
123	0
127	0
132	0
