Mass Spectrum: 2-Octene, 1-(methoxymethoxy)-, (E)-
Formula: C10H20O2
CAS: 142509-32-8
Molecular weight: 172
m/z	intensity
26	4
27	64
29	83
30	4
31	13
33	5
38	3
39	75
40	13
41	163
42	38
43	63
44	8
45	999
46	29
47	16
50	3
51	8
52	6
53	35
54	96
55	165
56	67
57	47
58	14
59	18
60	3
61	15
63	3
65	8
66	7
67	64
68	45
69	197
70	61
71	134
72	12
73	3
74	2
75	9
77	6
80	5
81	34
82	30
83	42
84	41
85	43
86	6
87	2
88	3
90	3
91	4
93	6
94	3
95	9
96	67
97	31
98	11
99	13
100	4
101	8
107	3
108	2
109	15
110	39
111	41
112	16
113	5
114	2
120	3
122	2
125	3
126	3
127	10
128	82
129	9
140	15
141	5
142	3
155	2
172	2
