Mass Spectrum: 4,4-(Ethylenedioxy)-2-pentanone
Formula: C7H12O3
CAS: 14255-36-8
Molecular weight: 144
m/z	intensity
27	124
29	152
31	166
39	135
41	205
42	212
43	981
44	155
45	105
53	16
55	21
57	31
58	35
59	32
61	74
69	92
71	47
72	25
73	99
74	147
84	68
85	78
86	77
87	999
88	170
89	21
99	31
100	20
101	25
105	9
113	7
125	9
129	282
130	22
131	4
