Mass Spectrum: 1-Propanol, (2S)-[(tert.butyloxycarbonyl)-(R)-(phenylalanyl)amino]-
Formula: C17H26N2O4
CAS: 142515-45-5
Molecular weight: 322
m/z	intensity
26	4
27	34
28	39
29	163
30	27
31	124
33	0
37	0
38	1
39	40
41	228
42	38
43	31
44	379
45	10
46	3
50	3
51	8
52	2
53	6
54	5
55	32
56	118
57	999
58	83
59	110
60	8
61	29
62	1
63	5
64	2
65	31
66	2
67	2
68	0
70	10
71	1
72	4
73	7
74	12
75	1
76	16
77	28
78	11
79	4
80	1
81	1
82	2
83	4
84	2
85	4
86	10
87	19
88	1
89	6
90	5
91	131
92	50
93	9
94	1
96	0
98	13
99	25
100	10
101	1
102	15
103	44
104	30
105	8
106	1
113	25
114	16
116	3
117	5
118	16
119	21
120	458
121	42
122	1
127	1
128	24
129	1
130	7
131	110
132	12
133	0
136	0
142	2
143	14
144	1
145	1
146	30
147	5
148	19
150	0
154	0
156	0
157	0
158	0
159	0
160	0
162	0
163	14
164	201
165	32
166	4
168	0
171	0
174	27
175	34
176	6
177	0
181	0
187	6
188	1
189	2
190	0
191	4
192	8
193	1
194	0
203	2
204	0
205	11
206	3
207	0
208	0
209	4
210	0
217	1
218	1
219	0
220	31
221	9
222	2
223	1
224	11
225	2
226	0
229	0
231	8
232	1
233	0
235	4
236	7
237	0
245	3
246	0
248	6
249	28
250	4
251	0
265	1
266	49
267	8
268	1
289	0
291	4
292	10
293	1
306	2
322	8
323	2
324	0
