Mass Spectrum: Bicyclo[3.2.1]octan-3-one
Formula: C8H12O
CAS: 14252-05-2
Molecular weight: 124
m/z	intensity
27	174
28	28
29	105
30	2
31	1
33	0
34	0
35	0
36	0
37	6
38	17
39	290
40	59
41	327
42	46
43	25
44	3
45	3
46	5
47	2
48	0
49	1
50	16
51	35
52	22
53	134
54	309
55	346
56	22
57	2
58	1
59	0
61	1
62	3
63	7
64	1
65	29
66	43
67	362
68	228
69	26
70	6
71	0
73	0
74	1
75	1
76	1
77	31
78	17
79	68
80	999
81	767
82	96
83	43
84	2
85	0
89	0
91	10
92	2
93	17
94	2
95	192
96	43
97	2
103	0
104	0
105	1
106	10
107	7
108	1
109	175
110	14
111	0
122	2
123	14
124	358
125	34
126	1
