Mass Spectrum: Stearic acid, 2-hydroxy-1-methylpropyl ester
Formula: C22H44O3
CAS: 14251-39-9
Molecular weight: 356
m/z	intensity
26	8
27	106
28	34
29	289
30	8
31	36
32	1
38	2
39	49
40	13
41	490
42	132
43	880
44	35
45	364
46	12
47	3
50	2
51	3
52	2
53	25
54	48
55	660
56	157
57	622
58	55
59	20
60	125
61	44
62	3
63	2
65	4
66	5
67	81
68	49
69	270
70	88
71	314
72	584
73	999
74	57
75	6
77	4
78	2
79	16
80	11
81	81
82	39
83	188
84	163
85	182
86	15
87	33
88	157
89	251
90	12
91	6
92	2
93	12
94	9
95	88
96	30
97	138
98	226
99	62
100	8
101	125
102	14
103	3
104	2
105	2
106	2
107	8
108	6
109	49
110	14
111	66
112	67
113	27
114	16
115	38
116	11
117	2
118	2
119	2
121	13
122	5
123	27
124	10
125	27
126	16
127	33
128	5
129	47
130	9
131	3
132	232
133	20
134	4
135	10
136	4
137	13
138	6
139	12
140	11
141	10
142	3
143	18
144	6
145	26
146	5
147	2
148	1
149	6
150	3
151	6
152	4
153	8
154	19
155	7
156	3
157	35
158	6
159	1
163	3
164	2
165	3
166	3
167	6
168	10
169	6
170	4
171	14
172	4
173	1
174	5
175	1
177	2
178	1
179	3
180	2
181	4
182	5
183	6
184	1
185	21
186	5
187	2
188	2
191	1
192	1
193	2
194	2
195	4
196	6
197	3
199	12
200	4
201	2
202	1
206	1
207	2
209	3
210	11
211	3
213	13
214	3
222	5
223	4
224	6
225	4
227	9
228	3
237	3
238	2
239	2
241	21
242	4
243	1
247	2
248	3
249	4
250	2
251	2
253	2
255	8
256	3
264	3
265	6
266	20
267	314
268	62
269	22
270	5
283	6
284	49
285	16
286	3
338	3
339	3
341	4
342	1
356	11
357	5
358	1
