Mass Spectrum: 1-Acetoxy-2-(2-chloroethoxy)ethane
Formula: C6H11ClO3
CAS: 14258-40-3
Molecular weight: 166
m/z	intensity
15	86
27	150
29	52
31	56
41	33
42	60
43	999
44	78
45	60
55	30
57	37
62	41
63	225
64	33
65	63
73	41
87	176
88	22
93	90
106	56
108	20
