Mass Spectrum: 5-Chloro(dimethyl)silylnorbornene
Formula: C9H15ClSi
CAS: 14254-26-3
Molecular weight: 186
m/z	intensity
26	21
27	35
28	28
29	19
31	11
37	41
38	66
39	251
40	139
41	35
42	35
43	109
44	18
49	10
50	25
51	39
52	7
53	61
54	13
55	32
57	6
58	21
59	91
60	17
61	33
62	51
63	305
64	35
65	419
66	999
67	95
68	6
76	9
77	49
78	71
79	411
80	47
81	119
85	112
86	7
87	7
90	18
91	41
92	97
93	311
94	45
95	99
103	8
105	731
106	62
107	261
108	23
109	9
120	85
121	11
122	29
123	4
124	2
185	2
186	29
187	3
188	10
189	2
