Mass Spectrum: 5-Aminosalicylic acid, O,O'-bis(tert-butyldimethylsilyl)-
Formula: C19H35NO3Si2
CAS: 1425474-26-5
Molecular weight: 381
m/z	intensity
27	5
29	19
30	1
31	3
38	1
39	11
41	44
42	5
43	12
45	41
46	3
47	8
49	1
51	2
52	6
53	5
54	2
55	6
56	10
57	51
58	16
59	63
60	7
61	6
62	1
63	2
64	2
65	4
66	2
67	2
68	1
70	1
71	2
73	999
74	90
75	76
76	6
77	13
78	4
79	19
80	7
83	6
84	2
85	8
86	2
87	1
88	1
89	3
90	1
91	9
92	7
93	4
94	1
95	2
97	3
98	1
99	8
100	2
101	1
102	1
103	6
104	7
105	14
106	79
107	12
108	8
109	3
110	2
112	13
113	3
115	13
116	2
117	4
118	3
119	9
120	11
121	5
122	3
123	2
124	1
127	1
129	1
130	4
131	5
132	6
133	29
134	19
135	22
136	16
137	5
138	3
139	1
143	2
144	3
145	2
146	4
147	21
148	9
149	24
150	91
151	18
152	9
153	2
158	2
159	1
160	4
161	2
162	6
163	4
164	14
165	14
166	96
167	17
168	6
169	1
173	1
174	4
175	2
176	23
177	7
178	8
179	5
180	5
181	3
182	2
186	1
189	1
190	5
191	3
192	6
194	25
195	10
196	12
197	3
201	1
203	1
204	1
205	1
206	4
208	24
209	51
210	69
211	12
212	4
213	1
216	1
217	1
218	3
219	2
220	4
221	2
222	7
223	2
224	40
225	9
226	5
227	1
234	7
235	2
236	4
237	1
238	3
239	11
240	5
241	1
248	5
249	3
250	30
251	11
252	6
264	2
265	1
266	33
267	8
268	6
269	1
278	1
280	1
282	5
290	1
292	1
293	1
306	1
307	1
308	3
309	1
310	1
322	2
324	964
325	246
326	98
327	18
328	3
366	34
367	10
368	5
