Mass Spectrum: 2-Hexene, 2,4-dimethyl-
Formula: C8H16
CAS: 14255-23-3
Molecular weight: 112
m/z	intensity
27	138
29	126
39	165
40	27
41	399
42	27
43	110
50	7
51	23
52	11
53	63
54	11
55	972
56	126
57	51
65	19
67	59
68	11
69	98
70	27
77	15
79	15
81	23
82	23
83	999
84	67
97	90
112	213
113	19
