Mass Spectrum: Pentanal, 2,2-dimethyl-
Formula: C7H14O
CAS: 14250-88-5
Molecular weight: 114
m/z	intensity
27	150
28	10
29	120
39	120
40	10
41	260
42	20
43	999
44	20
53	10
55	40
56	10
57	150
59	10
69	10
72	140
85	240
86	10
