Mass Spectrum: Fenazaflor
Formula: C15H7Cl2F3N2O2
CAS: 14255-88-0
Molecular weight: 374
m/z	intensity
26	2
27	8
28	2
31	2
35	1
36	1
37	11
38	26
39	162
40	7
41	2
44	3
47	5
48	1
49	12
50	55
51	225
52	12
53	4
54	1
55	1
60	3
61	29
62	26
63	48
64	31
65	199
66	14
67	1
68	1
69	125
70	2
71	3
72	17
73	21
74	32
75	22
76	33
77	999
78	68
79	2
81	1
82	1
83	14
84	10
85	15
86	13
87	35
88	108
89	11
90	1
91	1
92	3
93	23
94	6
95	2
96	17
97	18
98	43
99	11
100	17
101	2
102	1
106	1
107	23
108	5
109	18
110	5
111	5
112	4
113	9
114	3
115	2
116	5
117	1
118	1
119	1
120	2
121	78
122	29
123	16
124	10
125	6
126	2
127	2
128	1
131	8
132	7
133	6
134	6
135	2
136	2
137	2
138	3
139	4
140	2
142	1
143	8
144	2
145	1
146	1
147	2
148	1
149	50
150	9
151	26
152	6
153	5
154	4
155	1
156	2
158	274
159	21
160	175
161	13
162	29
163	7
164	17
165	11
166	2
167	1
168	1
169	1
170	1
171	1
172	13
173	6
174	4
175	2
176	1
179	1
180	1
181	1
182	1
183	2
184	10
185	3
186	7
187	6
188	4
189	2
190	2
191	7
192	2
193	1
194	1
198	3
199	16
200	24
201	8
202	7
203	3
204	1
205	1
206	1
207	2
208	3
209	2
210	3
211	2
212	7
213	2
214	5
215	2
216	2
217	2
218	16
219	4
220	6
221	2
225	4
226	27
227	11
228	10
229	4
230	1
231	1
232	1
234	264
235	31
236	177
237	20
238	30
239	4
240	10
241	2
242	1
243	1
244	1
245	1
246	5
247	1
248	2
249	1
250	1
253	107
254	63
255	74
256	40
257	14
258	7
259	7
260	27
261	19
262	4
263	9
264	2
265	2
266	1
268	3
269	1
270	3
271	1
272	1
274	1
275	14
276	4
277	6
278	1
279	1
280	1
281	126
282	16
283	81
284	10
285	14
286	1
290	1
291	4
292	1
293	3
294	6
295	40
296	8
297	13
298	2
304	19
305	22
306	15
307	15
308	4
309	5
310	2
311	3
312	1
313	1
329	10
330	94
331	22
332	61
333	11
334	11
335	4
336	1
337	2
339	2
340	1
341	1
355	10
356	2
357	6
358	1
359	1
371	1
374	255
375	45
376	169
377	29
378	28
379	4
