Mass Spectrum: Benzoic acid, 4-(1,3-dioxolan-2-yl)-, methyl ester
Formula: C11H12O4
CAS: 142651-24-9
Molecular weight: 208
m/z	intensity
29	20
30	4
31	6
32	11
37	3
38	13
39	57
40	24
41	8
42	7
43	45
44	11
45	256
46	6
49	1
50	139
51	186
52	42
53	17
54	1
55	9
56	1
57	11
59	45
60	1
61	7
62	49
63	140
64	23
65	67
66	100
67	6
68	2
69	12
70	5
71	14
73	830
74	83
75	100
76	192
77	485
78	44
79	14
80	1
81	4
82	2
83	9
84	4
85	10
86	10
87	15
88	33
89	135
90	76
91	179
92	160
93	18
94	2
95	4
96	3
97	15
98	3
99	3
101	2
102	1
103	148
104	140
105	999
106	78
107	19
108	2
109	2
110	1
111	5
112	1
113	1
115	2
116	2
117	9
118	32
119	236
120	64
121	58
122	6
123	2
124	1
125	3
126	1
127	1
128	1
129	2
130	1
131	3
132	6
133	249
134	27
135	260
136	223
137	20
138	2
139	1
141	1
145	2
146	2
147	12
148	65
149	391
150	47
151	5
152	2
153	2
154	1
155	2
159	1
160	1
161	2
163	889
164	88
165	16
166	2
167	2
168	1
169	1
174	1
175	1
176	154
177	162
178	23
179	9
180	9
181	13
182	1
183	1
191	1
193	125
194	27
195	14
196	2
197	3
203	1
204	1
205	2
207	819
208	133
209	20
210	6
211	1
212	1
