Mass Spectrum: N-Methyl-N-(2-hydroxyethyl)carbamic acid,phenyl ester
Formula: C10H13NO3
CAS: 142649-84-1
Molecular weight: 195
m/z	intensity
38	41
39	228
40	42
41	30
42	323
43	166
44	127
45	737
46	16
50	53
51	151
52	14
53	10
55	23
56	76
57	13
58	281
59	10
62	13
63	43
64	22
65	168
66	99
72	11
74	255
75	19
76	14
77	292
78	26
91	15
92	16
93	623
95	42
96	3
100	9
101	20
102	999
103	58
104	10
105	8
106	3
107	59
108	4
118	3
119	2
120	7
121	2
164	15
165	1
