Mass Spectrum: Bis(trifluoromethyl)fluorophosphine
Formula: C2F7P
CAS: 1426-40-0
Molecular weight: 188
m/z	intensity
31	146
32	2
50	77
51	1
69	999
70	12
81	24
100	130
101	4
119	82
120	4
169	21
170	1
188	128
189	3
