Mass Spectrum: Ethyl 3-methyl-4-oxooctanoate
Formula: C11H20O3
CAS: 142685-47-0
Molecular weight: 200
m/z	intensity
40	40
41	580
42	240
43	200
44	10
45	100
51	10
53	30
54	10
55	140
56	40
57	999
58	50
61	10
65	10
67	20
69	90
70	30
71	40
72	10
73	90
83	30
84	60
85	830
86	60
87	120
88	50
89	10
95	20
97	10
99	10
101	20
109	30
111	10
112	210
113	30
114	10
115	170
116	60
117	10
125	30
127	10
143	120
144	10
155	320
156	30
158	200
159	20
200	10
