Mass Spectrum: 3-Penten-1-yne, 3-methyl-, (Z)-
Formula: C6H8
CAS: 14272-81-2
Molecular weight: 80
m/z	intensity
32	105
37	135
38	117
39	470
40	147
41	152
42	17
48	23
49	129
50	282
51	341
52	341
53	217
54	176
55	11
61	117
62	117
63	164
65	364
66	70
73	4
74	25
75	23
76	12
77	502
78	102
79	999
80	980
81	114
