Mass Spectrum: Propanoic acid, 2,2-dimethyl-, lithium salt
Formula: C5H9LiO2
CAS: 14271-99-9
Molecular weight: 108
m/z	intensity
27	6
29	21
30	7
31	7
37	7
38	7
39	54
40	11
41	103
42	24
44	41
45	12
50	8
51	39
53	6
55	11
56	29
57	139
58	49
59	14
64	24
65	11
87	7
99	26
100	6
113	10
114	193
115	999
116	67
117	6
129	5
130	2
131	30
132	1
139	1
145	1
147	1
165	1
173	2
207	1
222	8
223	34
224	4
239	2
246	2
247	7
248	1
253	1
273	1
274	3
315	1
316	1
329	2
330	15
331	45
332	8
333	1
345	1
346	1
347	5
348	1
438	1
439	4
440	1
455	1
546	1
547	3
548	1
562	0
563	0
654	0
655	0
656	0
763	0
