Mass Spectrum: 2-(E)-Pentenoic acid, (4S)-4-[(t-butoxycarbonyl)amino]-
Formula: C10H17NO4
CAS: 142723-69-1
Molecular weight: 215
m/z	intensity
25	0
26	11
27	89
28	19
29	169
30	10
31	40
37	1
38	4
39	69
41	272
42	51
43	89
44	49
45	14
46	1
47	0
49	0
50	2
51	6
52	8
53	40
54	22
55	34
56	49
57	999
58	52
59	316
60	7
61	1
62	3
66	1
67	5
68	14
69	28
70	147
71	31
72	7
73	6
74	1
76	0
77	0
78	1
79	0
80	3
81	19
82	23
83	6
84	3
85	1
86	3
87	1
88	7
89	7
90	0
91	0
94	0
95	6
96	35
97	86
98	42
99	50
100	114
101	6
102	1
103	0
104	0
109	0
110	1
111	1
112	1
113	5
114	74
115	95
116	12
117	0
118	0
122	0
123	6
124	47
125	3
126	4
127	1
128	2
129	0
130	0
132	0
139	0
140	0
141	14
142	13
143	1
144	27
145	1
156	4
157	1
158	1
159	206
160	18
161	2
170	1
172	0
182	2
183	0
187	2
200	15
201	2
202	0
