Mass Spectrum: Butanoic acid, 4-iodo-, methyl ester
Formula: C5H9IO2
CAS: 14273-85-9
Molecular weight: 228
m/z	intensity
41	520
42	190
43	490
44	170
45	10
58	150
59	999
60	20
69	50
74	90
101	610
102	30
127	40
128	30
141	30
142	30
154	10
155	50
169	80
197	180
228	7
