Mass Spectrum: Propanenitrile, 3-[(2-methylpropyl)amino]-
Formula: C7H14N2
CAS: 14278-96-7
Molecular weight: 126
m/z	intensity
26	13
27	53
28	82
29	55
30	188
39	47
40	10
41	86
42	125
43	52
44	45
52	12
53	10
54	185
55	25
56	38
57	43
70	52
82	10
83	999
84	67
86	80
111	10
126	23
