Mass Spectrum: Butanamide, 3-oxo-4-phenylthio-N-(4-methoxyphenyl)-
Formula: C17H17NO3S
CAS: 142860-91-1
Molecular weight: 315
m/z	intensity
33	4
34	1
35	0
36	3
37	4
38	18
39	84
40	19
41	59
42	41
43	79
45	281
47	22
48	1
50	33
51	99
52	78
53	54
54	10
55	27
56	5
57	16
58	7
59	6
60	1
61	3
62	10
63	35
64	34
65	97
66	27
67	19
69	57
71	9
72	0
73	1
74	7
75	7
77	129
78	53
79	67
80	64
81	17
82	9
83	6
84	12
85	2
86	0
87	1
88	1
89	5
90	12
91	61
92	32
93	20
95	90
96	6
97	5
98	2
99	0
100	0
101	0
102	2
103	6
104	10
105	17
106	28
108	334
109	79
110	35
111	5
112	2
113	0
115	3
116	2
117	2
118	3
119	13
121	172
122	246
123	999
124	94
125	18
126	2
127	1
128	1
129	1
130	1
131	3
132	8
133	15
134	41
135	12
136	114
137	11
138	1
139	0
140	0
141	1
142	0
143	0
144	2
145	2
146	4
147	31
148	16
149	117
150	58
151	9
152	2
154	4
155	0
156	1
158	20
159	2
160	3
161	1
162	4
163	8
164	49
165	137
166	36
167	4
168	3
169	0
170	0
171	0
172	1
174	16
175	2
176	5
177	4
178	7
179	1
180	0
181	0
182	0
183	0
184	0
185	0
186	0
187	0
188	3
189	1
190	2
191	17
192	92
193	15
194	1
195	0
196	1
197	0
198	0
199	1
200	0
202	0
204	3
205	3
206	35
207	8
208	2
210	1
211	0
212	0
213	0
214	0
215	0
216	1
217	0
218	2
219	0
220	0
221	0
222	0
223	0
224	0
225	0
226	0
228	0
229	0
230	0
231	0
232	2
233	2
234	2
235	1
236	0
237	0
238	0
241	0
242	0
244	0
248	0
249	0
250	4
251	2
252	1
253	0
254	0
255	0
256	0
257	0
258	0
264	2
266	15
267	5
268	1
269	0
279	0
281	0
282	0
283	0
293	0
294	0
295	0
297	2
298	0
299	0
305	0
306	0
307	0
308	0
309	0
311	1
312	1
315	410
316	73
317	28
318	4
319	0
