Mass Spectrum: Coumarin-3-carbohydrazide, N2-benzoyl-
Formula: C17H12N2O4
CAS: 142818-66-4
Molecular weight: 308
m/z	intensity
33	14
35	7
37	13
38	25
39	99
40	92
41	43
42	15
43	57
44	55
45	13
46	1
47	1
48	0
49	5
50	74
51	208
52	19
53	23
54	5
55	27
57	45
58	6
60	10
61	12
62	39
63	96
64	16
65	18
66	6
67	5
68	4
69	13
70	9
71	10
73	11
74	27
75	46
76	40
77	470
78	37
79	7
80	2
81	5
82	3
83	5
84	4
85	5
86	6
87	11
88	15
89	146
90	38
91	17
92	6
93	4
94	1
95	3
96	1
97	3
98	3
99	2
101	88
103	20
105	999
106	65
107	5
108	1
109	3
110	2
111	2
112	3
113	2
114	1
115	3
116	5
117	3
118	29
119	25
120	4
121	6
122	1
123	2
124	2
125	1
126	0
127	0
128	1
129	2
130	0
131	1
132	1
133	2
134	1
135	1
136	4
137	0
138	0
141	0
143	2
144	2
145	17
146	28
147	2
148	1
149	7
150	0
151	0
152	1
153	0
154	0
157	1
161	0
162	0
163	0
166	0
169	0
171	8
173	161
174	15
175	2
176	0
177	0
179	0
181	0
186	0
187	0
189	5
190	2
191	0
192	4
193	0
195	0
205	0
213	0
219	0
222	2
223	0
234	0
248	0
257	0
278	0
283	0
290	0
301	0
305	1
307	2
308	85
309	14
310	2
