Mass Spectrum: 3-Dimethylaminomethylene-5,5-dimethylfuran-2,4-dione
Formula: C9H13NO3
CAS: 142996-84-7
Molecular weight: 183
m/z	intensity
12	4
13	4
14	32
15	371
16	8
17	12
18	56
25	8
26	52
27	152
28	128
29	52
30	16
31	8
32	1
36	1
37	11
38	26
39	159
40	39
41	419
42	999
43	781
44	136
45	9
46	4
49	1
50	6
51	19
52	41
53	214
54	42
55	101
56	9
57	7
58	9
59	6
61	1
62	3
63	4
64	2
65	6
66	13
68	409
69	524
70	36
71	4
72	1
74	3
77	2
78	1
79	2
80	20
81	30
82	38
83	10
84	4
85	2
91	1
92	1
93	1
94	9
95	5
96	38
97	451
98	148
99	19
100	1
106	1
108	9
109	23
110	7
111	2
112	1
114	1
122	6
123	2
124	16
125	47
126	4
127	1
128	3
136	1
137	2
138	3
139	24
140	6
141	1
142	6
150	3
152	1
165	72
166	9
168	16
169	1
183	179
184	24
185	2
