Mass Spectrum: 2-Pyrrolidinone, 5-(cyclohexylmethyl)-
Formula: C11H19NO
CAS: 14293-08-4
Molecular weight: 181
m/z	intensity
41	128
42	19
43	19
44	9
53	19
54	19
55	69
56	49
57	9
67	19
81	9
83	19
84	999
85	49
