Mass Spectrum: Propanoic acid, 2-methyl-, 1,2,3-propanetriyl ester
Formula: C15H26O6
CAS: 14295-64-8
Molecular weight: 302
m/z	intensity
26	2
27	32
28	7
29	5
31	2
38	1
39	17
40	4
41	81
42	20
43	491
44	21
45	2
53	1
55	9
56	4
57	8
58	1
59	1
61	1
69	8
70	24
71	999
72	44
73	5
74	1
87	4
89	7
101	2
102	1
114	2
115	1
126	6
127	2
128	1
129	15
130	1
131	4
142	5
143	46
144	14
145	5
146	1
159	2
199	2
201	64
202	7
203	1
213	1
214	5
215	10
216	1
229	8
230	1
