Mass Spectrum: 2'-Trifluoromethyl-4'-methoxyacetanilide
Formula: C10H10F3NO2
CAS: 142955-44-0
Molecular weight: 233
m/z	intensity
42	15
43	999
44	16
45	2
46	4
47	4
49	22
50	19
51	56
52	105
53	58
54	7
55	4
56	4
57	11
59	3
61	2
62	19
63	78
64	11
65	9
66	6
67	1
68	3
69	31
70	8
71	5
72	0
73	0
74	2
75	40
76	6
77	21
78	28
79	9
80	13
81	18
82	6
83	7
84	9
85	5
86	4
87	4
88	11
89	7
90	5
91	3
92	2
93	9
95	24
96	3
97	3
99	10
101	43
102	8
104	0
106	11
108	25
109	4
110	2
112	4
113	20
114	10
115	10
119	3
120	23
121	7
122	3
123	1
125	2
126	12
127	6
128	106
129	20
130	2
132	13
133	7
139	8
140	8
141	2
142	6
143	0
145	3
146	4
147	12
148	8
149	2
151	1
152	0
154	3
156	202
157	15
158	2
160	9
163	32
164	2
169	1
171	68
172	17
174	9
176	609
177	36
178	2
182	1
184	3
188	2
191	725
192	44
193	3
194	1
198	9
202	5
204	1
212	2
214	32
215	3
216	0
217	3
230	1
231	0
232	1
233	222
234	36
235	3
