Mass Spectrum: Benzo[b]perhydroazepin-2-one, azine
Formula: C20H22N4
CAS: 142997-89-5
Molecular weight: 318
m/z	intensity
33	3
37	9
38	42
39	373
41	504
42	107
43	330
44	17
45	5
50	82
51	270
52	178
53	419
54	41
55	9
57	11
58	7
62	33
63	201
64	96
65	295
66	54
67	20
68	9
70	5
72	15
73	9
75	54
76	95
77	657
78	321
79	114
80	25
81	9
82	0
87	19
89	430
90	264
91	613
92	98
93	54
94	5
101	34
102	114
103	236
104	277
106	362
107	63
108	4
114	40
115	402
116	549
117	999
118	470
119	146
120	28
121	2
127	58
128	91
129	65
130	355
131	137
132	96
133	13
134	0
141	41
142	109
143	226
144	917
145	175
146	25
147	2
155	14
157	63
158	35
159	27
160	11
161	1
170	2
171	3
172	6
173	3
174	15
175	1
178	0
182	1
183	1
184	0
185	0
186	2
188	0
197	5
198	199
199	191
200	32
201	1
211	10
212	175
213	22
214	2
217	0
265	0
277	1
302	0
317	4
318	17
319	4
