Mass Spectrum: 6-Methyl-6-nitroheptan-2-one
Formula: C8H15NO3
CAS: 142963-25-5
Molecular weight: 173
m/z	intensity
15	20
27	49
28	51
29	34
30	39
39	69
40	22
41	343
42	41
43	999
44	39
45	10
51	6
53	26
54	8
55	154
56	308
57	34
58	47
59	12
60	6
67	41
68	41
69	788
70	53
71	141
72	8
73	6
81	12
82	26
83	61
84	10
85	12
90	8
93	22
94	10
97	10
108	156
109	298
110	39
111	37
126	121
127	104
128	22
131	4
157	4
