Mass Spectrum: Cevane-3,4,6,7,14,15,16,20-octol, 4,9-epoxy-, 6,7-diacetate 3-(2-hydroxy-2-methylbutanoate) 15-(2-methylbutanoate), [3.beta.(S),4.alpha.,6.alpha.,7.alpha.,15alp
Formula: C41H63NO14
CAS: 143-57-7
Molecular weight: 793
m/z	intensity
41	47
42	4
43	153
44	68
45	85
46	10
47	8
48	4
49	50
50	4
51	19
52	3
53	25
54	104
55	53
56	17
57	64
58	5
59	0
60	20
61	2
65	1
67	14
68	6
69	22
70	9
71	25
72	68
73	69
74	14
77	7
78	8
79	5
80	0
81	10
82	18
83	17
84	62
85	21
86	26
87	6
88	5
89	16
90	16
91	6
93	1
94	2
95	5
96	14
97	11
98	134
99	18
100	10
101	1
103	1
104	1
105	6
106	11
107	5
108	1
109	5
110	23
111	147
112	999
113	77
114	4
115	1
119	3
121	2
122	0
123	2
124	10
125	5
126	4
127	6
128	8
129	3
131	0
132	0
133	0
135	2
136	6
137	1
138	6
140	6
141	1
142	1
145	0
147	1
148	6
149	15
150	6
151	0
152	6
153	0
154	16
155	1
156	0
157	4
159	0
162	5
164	4
166	2
167	2
168	1
169	0
180	4
182	6
220	0
223	2
225	1
228	0
254	0
262	0
263	0
287	5
288	3
676	0
677	1
734	3
793	5
794	0
