Mass Spectrum: Nonadecylamine
Formula: C19H41N
CAS: 1430-05-3
Molecular weight: 283
m/z	intensity
15	1
17	3
18	98
27	9
28	7
29	22
30	999
31	17
32	3
39	5
40	1
41	45
42	9
43	66
44	488
45	101
46	2
47	1
53	2
54	2
55	47
56	20
57	49
58	12
59	43
60	1
67	4
68	7
69	34
70	13
71	17
72	37
73	20
74	1
81	3
82	9
83	34
84	9
85	9
86	65
87	15
88	1
95	1
96	6
97	25
98	8
99	3
100	36
101	7
110	3
111	12
112	6
113	2
114	18
115	5
124	2
125	7
126	4
127	1
128	12
129	5
138	1
139	3
140	3
142	14
143	3
152	1
153	2
154	2
156	12
157	3
167	1
168	1
170	9
171	3
182	1
184	9
185	3
196	1
198	9
199	3
212	9
213	3
226	9
227	2
238	1
240	8
241	2
252	2
254	9
255	2
266	1
268	4
269	1
282	9
283	59
284	13
285	1
