Mass Spectrum: Acetamide, N-[2-(2-oxopropyl)phenyl]-
Formula: C11H13NO2
CAS: 14300-15-3
Molecular weight: 191
m/z	intensity
41	24
42	24
43	597
44	17
45	12
50	24
51	68
52	43
53	24
55	24
57	24
58	12
63	12
65	12
67	12
69	19
71	12
75	12
76	12
77	146
78	97
79	73
80	12
83	12
85	12
89	7
90	7
91	24
103	7
104	48
105	19
106	999
107	804
108	73
130	29
131	73
132	24
133	12
134	29
148	85
149	414
150	43
173	48
191	353
192	43
