Mass Spectrum: 2,2'-Thiobis[4-methyl-6-(1-methyl-1-phenylethyl)phenol]
Formula: C32H34O2S
CAS: 14306-89-9
Molecular weight: 482
m/z	intensity
34	9
36	6
37	6
39	199
40	127
41	625
43	171
44	49
45	73
46	2
47	6
50	33
51	152
52	47
53	85
55	97
56	21
57	62
59	77
60	7
61	7
62	8
63	35
65	108
66	18
67	28
68	9
69	46
70	25
71	34
72	5
73	26
74	10
75	18
77	369
78	221
79	172
80	15
81	11
82	11
83	33
84	18
85	20
86	2
87	9
88	9
89	43
91	909
92	71
93	20
94	6
95	11
96	8
97	35
98	15
99	8
100	5
101	13
103	575
104	93
105	213
106	21
107	33
108	23
109	19
110	11
111	25
112	16
113	15
115	161
116	36
117	89
119	999
120	95
121	64
122	17
123	20
124	7
125	14
126	10
127	34
128	66
129	50
130	20
131	85
132	121
133	163
134	40
135	65
136	19
137	21
139	54
140	11
141	44
142	18
143	13
144	11
145	65
146	169
147	108
148	192
149	82
150	20
151	37
152	89
153	54
154	23
155	30
156	10
157	9
158	4
159	5
160	10
162	13
163	67
165	312
166	107
167	58
168	14
169	12
171	34
172	9
173	42
174	10
175	8
176	15
177	30
178	124
179	148
180	224
181	117
182	57
183	43
184	49
185	20
186	10
187	42
188	15
189	23
190	18
191	49
192	27
193	30
194	72
195	116
196	47
197	64
198	31
199	16
200	7
202	66
203	5
204	4
205	15
206	19
207	75
208	292
209	261
210	116
211	693
212	134
213	34
214	9
215	14
216	5
217	9
218	2
219	4
221	19
222	29
223	56
224	129
225	99
226	830
227	176
228	20
229	9
230	1
235	3
237	3
238	5
239	12
240	24
241	102
242	26
243	21
244	5
245	3
251	2
252	3
253	3
254	3
255	9
257	69
258	21
259	7
267	2
269	7
271	5
281	2
282	1
283	7
284	2
285	7
286	3
287	2
297	1
301	2
347	2
349	4
363	2
364	8
365	2
389	3
404	8
405	2
467	4
468	9
469	3
475	2
476	3
477	9
478	23
479	19
482	699
483	219
484	61
485	13
