Mass Spectrum: Benzene, [(3-methyl-2-butenyl)oxy]-
Formula: C11H14O
CAS: 14309-15-0
Molecular weight: 162
m/z	intensity
12	4
14	3
15	15
16	2
20	0
24	0
25	2
26	16
27	89
28	15
29	27
30	0
31	6
33	0
36	2
37	19
38	39
39	185
40	61
41	231
42	23
43	14
44	2
45	0
46	2
47	11
48	1
49	5
50	29
51	48
52	13
53	84
54	7
55	35
56	2
57	1
58	1
59	0
60	2
61	8
62	15
63	29
64	11
65	86
66	80
67	80
68	59
69	224
70	26
71	1
72	2
73	2
74	7
75	5
76	4
77	22
78	8
79	9
80	1
81	3
82	8
83	1
84	0
85	0
86	0
87	0
88	0
89	3
90	1
91	22
92	3
93	15
94	999
95	69
96	4
101	0
102	1
103	4
104	1
105	5
106	1
107	44
108	3
109	0
115	8
116	2
117	4
118	3
119	11
120	4
121	2
122	0
123	1
126	0
127	4
128	5
129	5
130	1
131	8
132	12
133	7
134	1
135	0
136	0
138	1
139	0
141	1
142	0
143	1
144	3
145	24
146	6
147	102
148	11
149	1
157	0
158	0
159	1
160	3
161	6
162	76
163	9
164	0
