Mass Spectrum: Acetamide, 2-anilino-N,N-dimethyl-
Formula: C10H14N2O
CAS: 14307-89-2
Molecular weight: 178
m/z	intensity
15	4
17	1
18	3
27	2
28	8
30	7
38	1
39	5
40	1
41	1
42	7
43	4
44	12
45	5
46	4
50	6
51	27
52	5
53	2
56	1
58	4
63	2
64	1
65	4
66	1
72	32
73	1
74	1
75	2
76	4
77	94
78	20
79	41
80	3
89	5
91	1
92	1
93	4
104	27
105	22
106	999
107	81
108	3
133	2
177	1
178	185
179	23
180	2
