Mass Spectrum: Propenamide, N-[1,1-dimethyl-3-(4-morpholyl)propyl]-
Formula: C12H22N2O2
CAS: 143084-52-0
Molecular weight: 226
m/z	intensity
33	5
34	1
36	0
39	43
41	253
42	311
44	105
45	20
46	0
49	0
51	4
55	554
56	245
57	120
58	308
59	10
60	0
63	0
65	2
67	15
68	29
69	67
70	122
71	35
72	80
74	1
76	0
77	1
80	7
82	67
83	16
84	42
85	38
86	78
87	57
89	0
91	1
93	2
94	5
98	247
100	999
101	31
104	0
106	0
108	3
110	26
112	100
113	149
114	374
115	21
116	1
117	0
122	1
124	9
125	9
126	9
128	3
129	0
136	0
137	0
138	2
140	87
141	5
142	1
143	0
152	0
154	14
155	6
156	2
157	0
165	0
166	0
167	0
168	0
169	1
170	0
171	0
180	0
181	0
183	34
184	3
185	0
195	6
196	0
197	0
198	0
199	2
200	0
211	0
226	7
227	1
