Mass Spectrum: (Z)-(8S,9R)-8-(2-((3-Methylbutanoyl)oxy)propan-2-yl)-2-oxo-8,9-dihydro-2H-furo[2,3-h]chromen-9-yl 2-methylbut-2-enoate
Formula: C24H28O7
CAS: 143061-67-0
Molecular weight: 428
m/z	intensity
27	12
29	38
30	1
31	2
38	2
39	30
40	4
41	85
42	13
43	78
44	4
45	5
50	5
51	11
52	5
53	24
54	17
55	349
56	23
57	312
58	17
59	25
60	14
61	3
62	3
63	14
64	8
65	8
66	2
69	25
70	2
72	4
74	4
75	7
76	12
77	16
78	6
79	6
80	1
81	4
82	29
83	999
84	60
85	244
86	18
87	6
88	3
89	10
90	3
91	9
92	8
93	7
99	4
100	8
101	5
102	27
103	9
104	3
105	5
106	2
107	4
113	5
114	2
115	18
116	4
117	4
118	3
119	2
127	11
128	30
129	13
130	9
131	24
132	5
133	4
134	5
139	2
141	8
142	3
143	6
144	2
145	4
146	4
147	3
152	2
153	3
154	1
155	6
156	3
158	67
159	15
160	14
161	5
162	3
169	2
170	1
171	11
172	2
173	3
175	8
176	1
181	1
182	1
183	5
184	7
186	59
187	99
188	20
189	14
190	12
191	14
197	5
198	19
199	25
200	4
201	11
203	22
204	3
212	3
213	39
214	6
215	9
216	4
217	2
226	49
227	403
228	64
229	325
230	48
231	6
242	5
243	284
244	161
245	93
246	13
247	2
261	40
262	7
263	1
273	4
274	2
285	1
287	2
298	2
311	66
312	13
313	7
326	12
327	4
328	7
329	37
330	7
331	1
345	2
428	27
429	8
430	1
