Mass Spectrum: N-Benzylethanethioamide
Formula: C9H11NS
CAS: 14309-88-7
Molecular weight: 165
m/z	intensity
39	90
42	130
51	70
59	160
63	60
65	190
77	80
79	90
89	60
91	999
92	110
104	70
106	300
132	190
165	750
166	90
167	40
