Mass Spectrum: 5-Hydroxy-4,5-dimethyl-2,5-dihydrofuran-2-one
Formula: C6H8O3
CAS: 14300-89-1
Molecular weight: 128
m/z	intensity
37	21
38	47
39	321
40	135
41	244
43	876
44	57
45	57
68	228
69	254
70	21
82	10
84	73
85	482
110	114
113	999
114	73
