Mass Spectrum: Silane, bicyclo[2.2.1]hept-5-en-2-yltrichloro-
Formula: C7H9Cl3Si
CAS: 14319-64-3
Molecular weight: 226
m/z	intensity
25	1
26	3
27	32
28	3
29	2
31	0
33	0
35	1
36	3
37	2
38	9
39	97
40	32
41	25
42	1
44	0
49	0
50	9
51	24
52	10
53	13
54	2
55	0
61	2
62	6
63	23
64	6
65	68
66	999
67	80
68	1
73	1
74	0
75	1
76	0
77	72
78	15
79	66
80	5
81	0
85	0
86	0
87	0
88	0
89	4
90	2
91	87
92	15
93	87
94	6
95	0
98	5
99	8
100	4
101	5
102	0
103	0
112	1
113	0
114	0
115	0
116	0
123	3
124	1
125	6
126	1
127	4
128	0
129	1
133	33
134	2
135	35
136	3
137	13
138	1
139	2
140	0
147	0
149	0
150	0
151	0
152	0
153	1
154	0
155	1
156	0
157	0
160	0
161	0
162	2
163	2
164	1
165	2
166	0
167	0
171	0
173	0
175	1
177	0
187	0
189	1
190	0
191	3
192	0
193	1
195	0
198	1
200	0
202	0
207	0
225	0
226	2
227	0
228	2
229	0
230	0
