Mass Spectrum: Cholestan-3-ol, 5-chloro-6-nitro-, acetate (ester), (3.beta.,5.alpha.,6.beta.)-
Formula: C29H48ClNO4
CAS: 1431-22-7
Molecular weight: 509
m/z	intensity
12	1
13	2
14	18
15	25
16	4
17	32
18	151
25	1
26	5
27	39
28	78
29	132
30	45
31	3
32	9
35	31
36	310
37	9
38	98
39	37
40	10
41	447
42	80
43	999
44	37
45	77
46	5
47	3
50	2
51	7
52	5
53	69
54	18
55	724
56	94
57	751
58	37
59	3
60	73
61	10
62	1
63	5
64	2
65	38
66	16
67	405
68	104
69	640
70	87
71	455
72	26
73	2
74	2
75	3
76	2
77	131
78	34
79	366
80	68
81	950
82	147
83	452
84	49
85	99
86	9
87	3
88	1
89	9
90	7
91	425
92	90
93	514
94	144
95	881
96	107
97	292
98	33
99	28
100	7
101	9
102	6
103	43
104	38
105	488
106	152
107	644
108	173
109	479
110	88
111	169
112	25
113	31
114	9
115	67
116	43
117	200
118	115
119	410
120	216
121	423
122	119
123	253
124	49
125	81
126	36
127	35
128	81
129	156
130	81
131	302
132	103
133	363
134	130
135	449
136	104
137	138
138	32
139	32
140	19
141	118
142	108
143	282
144	137
145	432
146	169
147	458
148	147
149	238
150	70
151	98
152	56
153	47
154	28
155	102
156	98
157	331
158	158
159	360
160	163
161	229
162	76
163	144
164	37
165	79
166	101
167	64
168	32
169	92
170	58
171	146
172	82
173	186
174	92
175	146
176	56
177	86
178	40
179	56
180	23
181	55
182	32
183	101
184	52
185	145
186	69
187	127
188	58
189	94
190	48
191	77
192	37
193	88
194	32
195	54
196	39
197	121
198	55
199	137
200	68
201	108
202	55
203	60
204	34
205	99
206	69
207	66
208	25
209	31
210	54
211	321
212	133
213	329
214	105
215	93
216	51
217	43
218	26
219	61
220	25
221	26
222	13
223	25
224	32
225	283
226	138
227	175
228	76
229	120
230	57
231	52
232	35
233	46
234	18
235	29
236	13
237	36
238	20
239	65
240	42
241	62
242	56
243	66
244	52
245	88
246	60
247	337
248	128
249	116
250	43
251	49
252	31
253	137
254	68
255	191
256	66
257	45
258	55
259	60
260	181
261	134
262	58
263	46
264	27
265	26
266	17
267	20
268	20
269	28
270	22
271	66
272	52
273	59
274	38
275	34
276	12
277	21
278	8
279	11
280	10
281	57
282	48
283	48
284	39
285	39
286	40
287	27
288	21
289	64
290	17
291	20
292	8
293	6
294	8
295	20
296	17
297	24
298	17
299	24
300	65
301	28
302	17
303	9
304	5
305	3
306	1
307	148
308	44
309	71
310	31
311	21
312	20
313	24
314	37
315	17
316	10
317	14
318	8
319	7
320	5
321	8
322	13
323	14
324	17
325	33
326	41
327	33
328	84
329	228
330	64
331	12
332	4
335	12
336	9
337	15
338	50
339	39
340	27
341	48
342	73
343	33
344	27
345	15
346	16
347	9
348	15
349	14
350	35
351	139
352	91
353	190
354	87
355	100
356	229
357	73
358	20
359	5
360	12
362	9
363	13
364	10
365	598
366	567
367	472
368	971
369	300
370	282
371	86
372	47
373	14
374	10
375	2
377	3
378	29
379	28
380	51
381	64
382	120
383	462
384	298
385	213
386	64
387	29
388	8
389	7
394	21
395	50
396	271
397	99
398	141
399	44
400	18
401	69
402	167
403	86
404	66
405	24
411	14
412	23
413	317
414	181
415	40
416	8
417	1
419	9
420	3
421	4
422	2
423	3
424	1
425	15
426	24
427	30
428	9
429	2
430	15
431	6
432	1
434	1
438	3
439	1
440	5
441	2
442	2
443	24
444	9
445	1
447	3
448	1
449	1
456	16
457	6
458	4
461	184
462	85
463	76
464	29
465	7
466	1
473	5
474	2
479	2
480	1
481	1
509	1
