Mass Spectrum: 1,1-Dichlorogermacyclopentene-3
Formula: C4H6Cl2Ge
CAS: 1432-32-2
Molecular weight: 198
m/z	intensity
35	51
36	102
38	91
39	185
49	9
50	25
51	31
54	999
70	8
71	9
72	14
73	10
74	17
75	5
76	2
95	4
97	18
98	7
99	12
100	5
101	5
105	36
107	66
109	102
111	43
113	7
123	2
125	1
140	4
142	9
144	13
146	7
161	2
163	4
165	1
194	8
196	18
198	26
200	14
202	2
