Mass Spectrum: 1-(4'-Methoxymethylbiphenyl-4-yl)ethanol
Formula: C16H18O2
CAS: 143355-44-6
Molecular weight: 242
m/z	intensity
31	8
32	8
37	1
38	8
39	46
40	3
41	8
42	2
43	220
44	8
45	999
46	20
47	2
50	25
51	45
52	9
53	5
55	2
57	2
58	1
61	4
62	15
63	41
64	9
65	18
67	5
70	2
73	2
74	16
75	22
76	22
77	81
78	13
79	3
82	15
83	14
84	2
85	1
86	7
87	12
88	7
89	27
90	9
91	32
92	5
93	1
95	1
96	2
97	6
98	28
99	22
100	3
101	6
102	11
103	6
104	2
105	15
106	6
110	2
111	3
112	6
113	50
114	29
115	46
116	5
119	1
120	3
121	40
122	4
125	2
126	11
127	21
128	28
129	11
137	2
138	1
139	25
140	4
141	13
149	1
150	8
151	25
152	110
153	56
154	26
155	53
156	7
163	11
164	12
165	151
166	52
167	270
168	60
169	13
170	1
176	5
177	5
178	22
179	15
180	6
181	16
182	10
183	8
184	1
189	3
190	1
191	4
192	5
193	17
194	7
195	31
196	57
197	53
198	17
199	59
200	9
207	2
208	1
209	14
210	6
211	124
212	22
213	2
223	2
224	5
225	22
226	8
227	597
228	98
229	10
239	1
240	5
241	43
242	490
243	85
244	8
