Mass Spectrum: Benzeneacetic acid, 3-amino-
Formula: C8H9NO2
CAS: 14338-36-4
Molecular weight: 151
m/z	intensity
35	14
36	4
37	23
38	51
39	150
40	36
41	84
42	39
43	58
44	83
45	108
47	26
48	10
49	19
50	86
51	130
52	104
53	91
54	39
55	25
57	13
60	5
61	21
62	36
63	66
64	22
65	99
66	42
67	38
68	5
69	9
71	5
73	10
74	23
75	27
76	54
77	319
78	147
79	181
80	61
81	6
83	56
85	49
87	8
89	35
90	16
91	25
92	9
93	18
94	24
95	6
103	5
104	97
105	60
106	999
107	182
108	15
109	5
120	4
121	27
122	22
123	15
133	16
151	601
152	56
