Mass Spectrum: Benzoic acid, 2-acetylhydrazide
Formula: C9H10N2O2
CAS: 14331-27-2
Molecular weight: 178
m/z	intensity
15	8
26	1
27	5
28	4
29	1
31	1
37	1
38	4
39	9
40	3
41	6
42	4
43	71
44	3
49	1
50	25
51	75
52	7
53	1
62	2
63	5
64	2
65	3
69	1
70	6
73	1
74	7
75	7
76	19
77	389
78	30
79	1
89	4
90	10
91	3
92	2
93	2
97	1
103	26
104	16
105	999
106	79
107	5
118	3
119	1
120	1
121	2
135	1
136	100
137	8
160	36
161	4
163	1
178	94
179	9
180	1
