Mass Spectrum: Acetic acid, 2,2'-[methylenebis(thio)]bis-, dibutyl ester
Formula: C13H24O4S2
CAS: 14338-82-0
Molecular weight: 308
m/z	intensity
14	2
15	3
26	2
27	45
28	27
29	259
30	6
31	18
32	7
34	1
35	2
38	1
39	25
40	3
41	272
42	38
43	33
44	9
45	52
46	46
47	59
48	4
49	3
50	1
51	2
52	2
53	6
54	2
55	61
56	468
57	737
58	34
59	29
60	228
61	123
62	6
63	23
64	4
65	1
67	1
68	2
69	11
70	2
71	8
72	3
73	7
74	12
75	18
76	3
77	221
78	20
79	32
80	2
81	2
85	5
86	6
87	156
88	11
89	8
90	1
91	21
92	13
93	26
94	1
95	2
99	1
100	2
101	18
102	2
103	21
104	22
105	832
106	42
107	49
108	2
109	36
110	1
111	3
114	2
115	1
116	22
117	21
118	4
119	999
120	50
121	92
122	4
123	3
130	1
131	5
132	4
133	2
134	1
135	2
136	1
137	579
138	28
139	53
140	2
141	1
144	2
145	4
147	1
148	3
149	6
150	1
151	6
159	5
160	9
161	105
162	10
163	6
165	1
178	1
188	1
192	4
193	455
194	44
195	44
196	4
197	1
201	3
206	1
207	57
208	6
209	6
234	201
235	70
236	24
237	7
238	1
266	1
308	154
309	27
310	16
311	3
