Mass Spectrum: 5.alpha.-Androstan-7-one, cyclic ethylene acetal
Formula: C21H34O2
CAS: 1434-36-2
Molecular weight: 318
m/z	intensity
28	20
39	90
40	10
41	404
42	101
43	494
44	151
45	70
53	111
54	40
55	404
56	30
57	40
58	70
65	40
66	20
67	343
68	90
69	111
70	10
71	10
73	282
74	10
75	10
77	111
78	20
79	232
80	40
81	333
82	40
83	40
85	10
86	252
87	121
91	161
92	20
93	202
94	90
95	272
96	70
97	20
99	727
100	50
105	90
106	20
107	101
108	30
109	70
110	10
111	10
112	151
113	101
115	20
117	10
119	70
120	20
121	80
122	10
125	999
126	80
127	10
128	20
131	20
133	90
134	30
135	171
136	30
137	10
138	10
139	70
140	10
141	30
142	272
143	20
145	40
147	40
149	30
153	636
154	90
155	111
159	10
160	20
161	60
162	70
163	50
165	10
175	20
178	101
179	30
181	111
182	10
191	30
230	40
236	151
241	50
256	101
281	10
303	10
318	525
319	101
320	10
