Mass Spectrum: Benzoic acid, 4-bromo-3-hydroxy-
Formula: C7H5BrO3
CAS: 14348-38-0
Molecular weight: 216
m/z	intensity
50	131
51	173
52	99
53	748
54	61
55	81
56	3
57	7
58	2
60	60
61	266
62	501
63	999
64	308
65	144
66	64
67	10
70	2
71	49
72	4
73	98
74	87
75	38
76	3
77	21
79	63
80	55
81	158
82	37
83	4
85	10
86	11
87	3
90	24
91	135
92	235
93	55
94	11
95	10
104	5
105	6
106	2
107	18
109	18
116	3
117	55
118	2
119	137
120	8
121	46
122	4
128	3
129	2
130	2
131	13
133	15
135	5
136	2
138	36
140	3
141	6
143	120
144	7
145	113
146	8
160	16
161	17
170	16
171	142
172	34
173	163
174	11
188	20
190	19
191	2
199	544
200	53
201	525
202	41
203	3
216	660
217	49
218	636
219	50
220	4
