Mass Spectrum: Adamantane, 1-acetyl-3-chloro-
Formula: C12H17ClO
CAS: 143467-20-3
Molecular weight: 212
m/z	intensity
25	0
26	12
27	174
28	17
29	65
30	1
31	2
35	2
36	1
37	5
38	18
39	366
40	68
41	289
42	83
43	999
44	39
45	8
49	19
50	35
51	149
52	57
53	171
54	25
55	132
56	15
57	18
58	2
61	6
62	16
63	58
64	19
65	179
66	51
67	83
68	10
69	19
70	2
71	5
72	1
73	6
74	7
75	36
76	14
77	398
78	133
79	367
80	40
81	48
82	3
83	5
84	2
85	3
86	3
87	6
88	5
89	29
90	11
91	579
92	154
93	268
94	23
95	6
96	1
97	2
98	0
99	6
100	3
101	15
102	10
103	37
104	18
105	239
106	37
107	34
108	4
109	3
110	1
111	3
112	8
113	168
114	18
115	77
116	16
117	35
118	10
119	58
120	6
121	7
122	2
123	2
124	0
125	9
126	3
127	101
128	16
129	37
130	4
131	17
132	4
133	698
134	121
135	20
136	3
137	1
138	0
139	2
140	1
141	28
142	3
143	10
144	0
145	1
146	0
147	2
148	1
149	6
151	0
152	0
153	1
154	0
155	1
156	0
157	1
158	0
159	2
161	1
163	0
165	0
166	0
167	0
168	2
169	932
170	103
171	316
172	33
173	1
177	12
178	1
181	0
183	1
184	0
185	0
197	5
198	0
199	2
212	102
213	12
214	33
215	5
