Mass Spectrum: Androstan-3-one, cyclic 1,2-ethanediyl acetal, (5.alpha.)-
Formula: C21H34O2
CAS: 1434-14-6
Molecular weight: 318
m/z	intensity
65	10
66	10
67	90
68	30
69	30
70	10
71	10
73	10
77	30
78	10
79	60
80	20
81	90
82	10
83	10
86	70
87	20
91	50
92	10
93	50
94	10
95	80
96	10
97	10
98	10
99	999
100	130
101	20
105	30
106	10
107	40
108	10
109	30
110	10
112	130
113	20
115	10
117	10
119	10
121	20
122	10
123	20
124	10
125	470
126	50
127	10
131	10
133	10
135	20
137	10
145	10
147	10
149	40
150	10
153	10
159	10
161	10
163	10
167	10
173	10
175	10
185	10
187	10
189	20
190	10
199	10
201	10
202	10
203	10
204	10
261	10
274	10
303	10
318	100
319	30
