Mass Spectrum: Molybdenum, tris[(O,1,2,3-.eta.)-1-phenyl-2-propen-1-one]-
Formula: C27H24MoO3
CAS: 143517-76-4
Molecular weight: 494
m/z	intensity
26	13
27	92
28	42
29	19
31	1
37	3
38	9
39	38
40	1
41	9
42	2
43	8
44	5
49	3
50	62
51	200
52	21
53	8
54	3
55	65
56	6
57	4
58	0
61	2
62	7
63	20
64	4
65	23
66	3
71	1
73	3
74	17
75	14
76	22
77	540
78	64
79	15
81	1
82	2
83	3
84	24
85	1
87	2
88	3
89	19
90	2
91	208
92	19
94	12
95	19
96	20
97	11
98	28
100	11
101	6
102	12
103	27
104	29
105	999
106	73
107	10
108	2
111	1
112	0
113	4
114	4
115	115
116	27
117	73
118	24
119	9
120	23
121	3
122	2
123	1
124	3
125	1
126	1
127	9
128	32
129	21
130	8
131	56
132	76
133	25
134	82
135	9
137	0
139	5
141	44
142	45
143	19
144	6
145	4
146	6
147	5
148	5
149	8
150	6
151	4
152	9
153	9
154	4
155	14
156	4
157	8
158	2
159	5
160	3
161	4
162	5
163	4
164	3
165	11
166	4
167	6
168	5
169	5
170	14
171	10
172	17
173	21
174	24
175	17
176	21
177	8
178	10
179	3
181	6
184	5
185	4
186	13
187	9
188	15
189	17
190	21
191	12
192	19
193	5
194	12
195	3
196	8
197	12
198	17
199	15
200	25
201	15
202	24
203	15
204	17
205	9
206	12
207	4
208	6
209	3
210	7
211	5
212	10
213	11
214	15
215	20
216	17
217	14
218	13
219	13
220	13
221	8
222	11
223	19
224	33
225	23
226	56
227	55
228	58
229	60
230	62
231	28
232	44
233	12
234	15
235	4
236	19
237	4
238	12
239	21
240	26
241	15
242	34
243	12
244	19
245	8
246	12
247	13
248	18
249	8
250	17
251	14
252	23
253	21
254	38
255	18
256	31
257	19
258	24
259	49
260	24
261	4
262	9
263	2
264	3
265	1
266	3
267	0
268	2
270	1
271	3
272	3
273	3
274	5
275	4
276	5
277	4
278	6
279	3
280	3
281	0
282	0
298	5
299	0
300	6
301	7
302	10
303	9
304	11
305	7
306	9
307	3
308	4
310	3
313	0
314	3
315	1
316	2
318	0
319	0
323	3
324	3
325	3
326	6
327	6
328	13
329	9
330	11
331	12
332	13
333	8
334	15
335	3
336	13
337	4
338	9
339	10
340	14
341	11
342	19
343	5
344	10
345	3
346	1
348	5
349	2
354	2
356	135
357	31
358	90
359	170
360	186
361	121
362	250
363	50
364	101
365	20
366	3
460	1
462	0
463	2
464	4
465	2
466	4
488	33
489	9
490	22
491	43
492	51
493	37
494	60
495	17
496	23
497	6
