Mass Spectrum: Tungsten, tris[(O,2,3,4-.eta.)-3-phenyl-3-buten-2-one]-
Formula: C30H30O3W
CAS: 143517-79-7
Molecular weight: 622
m/z	intensity
25	1
26	18
27	88
28	0
29	62
30	1
31	180
38	4
39	40
40	15
41	44
42	3
43	346
44	9
45	47
46	6
49	3
50	22
51	95
52	15
53	79
54	1
55	11
57	1
58	1
59	35
61	1
62	6
63	28
64	8
65	41
66	3
67	2
71	1
74	23
75	13
76	16
77	202
78	46
79	53
87	1
88	2
89	27
90	1
91	999
92	73
93	2
101	11
102	44
103	240
104	57
105	252
106	25
109	1
113	4
114	8
115	450
116	209
117	80
118	17
119	19
120	0
121	2
126	8
127	114
128	382
129	452
130	130
131	201
132	31
133	10
134	2
139	3
140	0
141	94
142	57
143	85
144	26
145	24
146	22
147	11
148	32
149	5
152	12
153	17
154	9
155	38
156	13
157	14
158	7
159	1
165	38
166	13
167	19
168	9
169	13
170	1
171	11
172	1
173	5
174	2
176	1
178	14
179	16
180	4
181	15
182	5
183	15
184	2
189	7
190	5
191	12
192	1
193	5
195	6
201	1
202	24
203	17
204	12
205	20
206	5
207	1
212	3
213	7
214	7
215	45
216	31
217	23
218	11
219	11
220	5
221	2
224	1
225	3
226	10
227	8
228	20
229	40
230	18
231	25
232	22
233	33
234	8
235	3
236	1
237	46
238	58
239	63
240	10
241	14
242	13
243	23
244	16
245	24
246	9
247	8
248	4
249	12
250	14
251	8
252	11
253	10
254	6
255	11
256	8
257	18
258	50
259	552
260	135
261	17
263	5
264	9
265	12
266	9
267	11
268	7
269	8
270	2
271	20
272	10
273	12
274	28
275	26
276	47
277	26
278	48
279	7
280	25
281	2
282	2
283	3
284	7
285	6
286	11
287	12
288	22
289	19
290	25
291	24
292	47
293	32
294	35
295	20
296	27
297	8
298	9
299	21
300	47
301	50
302	56
303	26
304	46
305	12
306	10
307	7
308	7
310	9
311	23
312	35
313	51
314	42
315	45
316	52
317	41
318	46
319	21
320	31
321	10
322	18
323	9
324	66
325	54
326	115
327	56
328	150
329	65
330	286
331	159
332	280
333	49
334	220
335	28
336	9
337	8
338	16
339	18
340	30
341	57
342	82
343	109
344	135
345	142
346	123
347	61
348	76
349	20
350	15
351	13
352	19
353	9
354	20
355	12
356	51
357	40
358	278
359	168
360	296
361	57
362	265
363	58
364	45
365	14
366	37
367	10
368	9
369	6
370	20
371	15
372	20
373	11
374	26
375	18
376	14
377	13
378	16
379	10
380	11
381	5
382	10
383	8
384	7
385	8
386	3
387	7
388	5
389	4
390	6
391	3
392	7
393	1
394	9
395	4
396	11
397	7
398	14
399	10
400	18
401	12
402	21
403	10
404	14
405	2
406	6
412	3
413	6
414	7
415	9
416	12
417	4
418	7
419	4
420	7
421	1
422	5
424	15
425	13
426	26
427	17
428	34
429	18
430	34
431	16
432	18
433	6
434	9
435	4
436	3
438	7
439	7
440	10
441	8
442	8
443	7
444	12
445	7
446	13
447	7
448	13
449	4
450	16
451	9
452	22
453	14
454	38
455	20
456	36
457	14
458	21
459	32
460	25
461	38
462	9
463	29
464	9
468	3
470	16
471	12
472	42
473	38
474	411
475	304
476	468
477	127
478	395
479	92
480	13
486	13
487	10
488	19
489	9
490	17
491	5
492	3
504	9
505	4
506	10
508	9
509	1
618	9
619	7
620	65
621	50
622	81
623	26
624	62
625	21
626	3
