Mass Spectrum: Tungsten, tris[(O,1,2,3-.eta.)-2-methyl-1-phenyl-2-propen-1-one]-
Formula: C30H30O3W
CAS: 143517-78-6
Molecular weight: 622
m/z	intensity
28	228
29	22
31	0
37	3
38	12
39	109
40	15
41	100
42	11
43	27
45	1
50	47
51	167
52	28
53	46
54	15
55	20
57	12
58	0
61	0
62	13
63	48
64	19
65	83
66	8
67	8
69	16
70	1
71	1
74	17
75	19
76	35
77	496
78	74
79	36
82	0
86	4
87	9
88	10
89	53
90	9
91	852
92	155
93	16
95	6
100	2
101	31
102	36
103	82
104	23
105	999
106	76
107	12
108	15
113	20
114	31
115	442
116	150
117	221
118	74
119	28
120	15
121	10
126	20
127	88
128	325
129	459
130	104
131	374
132	155
133	42
134	42
135	3
139	14
140	1
141	97
142	66
143	104
144	32
145	44
146	42
147	15
148	79
149	10
150	4
151	13
152	47
153	41
154	31
155	89
156	60
157	51
158	24
159	14
163	9
164	6
165	90
166	30
167	55
168	23
169	70
170	86
171	186
172	40
173	27
174	8
176	8
177	3
178	37
179	40
180	13
181	34
182	13
183	79
184	20
185	25
186	2
187	6
189	19
190	10
191	21
192	9
193	13
194	3
195	12
196	9
197	10
198	2
199	4
200	5
201	4
202	55
203	44
204	37
205	58
206	13
207	17
208	0
209	1
213	9
215	96
216	44
217	45
218	29
219	80
220	26
221	13
222	8
226	20
227	17
228	53
229	56
230	52
231	37
232	17
233	21
234	19
235	19
236	9
237	4
239	29
240	15
241	41
242	36
243	90
244	35
245	147
246	59
247	48
248	18
249	1
250	2
252	14
253	14
254	9
255	19
256	13
257	51
258	176
259	132
260	190
261	60
262	35
263	9
264	2
265	8
266	2
267	7
268	3
269	12
270	8
271	14
272	20
273	20
274	22
275	9
276	18
277	9
278	17
279	6
280	8
281	5
282	4
283	9
284	3
285	5
286	8
287	11
288	32
289	11
290	14
291	10
292	17
293	13
294	12
295	9
296	11
297	12
298	10
299	8
300	12
301	20
302	16
303	7
304	20
305	5
311	9
312	12
313	18
314	16
315	20
316	16
317	13
318	11
319	5
320	8
324	16
325	14
326	29
327	14
328	36
329	20
330	92
331	56
332	96
333	19
334	77
335	9
338	4
339	4
340	9
341	22
342	28
343	35
344	30
345	42
346	24
347	18
348	12
349	1
350	6
352	5
353	1
354	7
355	6
356	22
357	17
358	104
359	67
360	121
361	25
362	102
363	24
364	17
365	10
366	16
367	7
368	8
370	9
371	10
372	8
373	11
374	11
375	8
376	2
377	4
378	9
379	2
380	7
382	3
383	8
384	3
385	8
386	20
387	14
388	32
389	15
390	10
391	2
394	3
396	11
397	1
398	12
400	10
402	6
404	2
416	2
428	5
429	1
430	8
432	8
433	1
434	8
436	3
438	3
439	5
440	7
441	7
442	8
443	1
444	2
446	8
448	8
450	10
451	4
452	19
453	13
454	34
455	18
456	46
457	20
458	38
459	61
460	55
461	69
462	15
463	56
464	11
470	11
471	10
472	36
473	23
474	143
475	92
476	160
477	38
478	115
479	25
489	34
490	27
491	44
492	12
493	37
494	11
620	57
621	48
622	77
623	24
624	64
625	20
