Mass Spectrum: Glyoxal-bis(guanylhydrazone)
Formula: C4H10N8
CAS: 14358-42-0
Molecular weight: 170
m/z	intensity
41	154
42	204
43	937
44	452
45	96
55	70
58	246
59	148
60	584
70	198
71	29
74	33
84	120
85	422
86	139
96	29
98	729
99	57
112	999
113	323
170	604
171	62
