Mass Spectrum: 10-Acetoxy-2-hydroxy-1,2,6a,6b,9,9,12a-heptamethyl-1,3,4,5,6,6a,6b,7,8,8a,9,10,11,12,12a,12b,13,14b-octadecahydro-2H-picene-4a-carboxylic acid, methyl ester
Formula: C33H52O5
CAS: 14356-56-0
Molecular weight: 528
m/z	intensity
25	5
26	28
27	103
28	81
29	180
30	164
31	34
33	3
37	4
38	9
39	75
40	19
41	359
42	89
43	999
44	558
45	91
46	27
47	4
48	17
49	6
50	18
51	21
52	11
53	43
54	43
55	432
56	165
57	699
58	51
59	87
60	83
61	23
62	4
63	10
64	36
65	25
66	12
67	126
68	69
69	370
70	125
71	437
72	91
73	74
74	16
75	7
76	14
77	47
78	19
79	86
80	35
81	206
82	104
83	223
84	101
85	296
86	31
87	29
88	7
89	8
90	4
91	116
92	36
93	124
94	37
95	156
96	81
97	233
98	71
99	178
100	24
101	17
102	8
103	13
104	22
105	152
106	38
107	125
108	31
109	92
110	44
111	94
112	44
113	67
114	15
115	29
116	14
117	43
118	26
119	158
120	49
121	95
122	36
123	66
124	30
125	53
126	33
127	51
128	29
129	57
130	17
131	101
132	49
133	130
134	85
135	91
136	29
137	33
138	18
139	18
140	30
141	96
142	28
143	46
144	93
145	81
146	281
147	152
148	31
149	134
150	16
151	17
152	15
153	26
154	25
155	52
156	21
157	46
158	21
159	58
160	24
161	48
162	23
163	27
164	10
165	35
166	13
167	20
168	54
169	41
170	17
171	45
172	14
173	50
174	24
175	71
176	20
177	31
178	19
179	524
180	75
181	29
182	15
183	33
184	15
185	63
186	19
187	81
188	31
189	115
190	270
191	92
192	16
193	10
194	7
195	16
196	12
197	27
198	12
199	29
200	63
201	128
202	58
203	71
204	30
205	43
206	23
207	10
208	5
209	7
210	9
211	16
212	5
213	15
214	7
215	20
216	9
217	19
218	64
219	74
220	14
221	7
222	4
223	11
224	9
225	15
226	4
227	7
228	6
229	14
230	4
231	11
232	4
233	13
234	9
235	10
236	7
237	5
238	8
239	16
240	5
241	7
242	4
243	6
244	2
245	16
246	25
247	43
248	15
249	26
250	61
251	13
252	9
253	12
254	5
255	9
256	15
257	9
258	3
259	5
260	59
261	15
262	37
263	14
264	7
265	11
266	10
267	12
268	3
269	5
270	3
271	10
272	6
273	5
274	3
275	2
276	2
277	4
278	25
279	11
280	6
281	8
282	3
283	2
284	8
285	5
286	2
287	3
288	1
289	1
290	0
291	1
292	1
293	3
294	5
295	6
296	3
297	2
298	1
299	2
300	1
301	1
302	1
303	0
304	0
305	1
306	1
307	1
308	4
309	6
310	2
311	1
312	1
313	1
314	1
315	2
316	1
317	1
318	1
319	0
320	2
321	3
322	5
323	6
324	9
325	3
326	1
327	2
328	1
329	0
330	5
331	4
332	3
333	1
334	2
335	1
336	4
337	8
338	3
339	2
340	1
341	1
342	0
343	0
344	1
345	0
346	0
347	0
348	0
349	0
350	2
351	4
352	9
353	5
354	1
355	1
356	0
357	1
358	0
359	1
360	0
361	0
362	0
363	0
364	3
365	5
366	2
367	2
368	3
369	5
370	1
371	1
372	0
373	0
374	0
375	2
376	0
377	0
378	2
379	5
380	2
381	1
382	1
383	1
384	2
385	0
386	2
387	0
388	0
389	0
390	0
391	2
392	2
393	9
394	3
395	1
396	24
397	9
398	1
399	4
400	1
401	0
402	0
403	0
404	0
405	1
406	2
407	4
408	6
409	5
410	2
411	1
412	1
413	0
414	0
415	1
416	0
417	0
418	0
419	0
420	2
421	3
422	2
423	0
424	0
425	14
426	5
427	1
428	1
429	3
430	1
431	0
432	0
433	0
434	2
435	5
436	3
437	1
438	0
439	0
442	0
443	0
444	0
445	0
446	0
447	0
448	2
449	4
450	6
451	6
452	3
453	23
454	8
455	1
456	0
457	0
458	0
459	0
460	0
461	0
462	2
463	4
464	2
465	1
466	2
467	4
468	127
469	52
470	12
471	2
472	0
473	0
474	0
475	0
476	2
477	3
478	3
479	1
480	0
481	0
482	1
483	0
484	0
485	0
486	0
487	0
488	1
489	0
490	3
491	3
492	3
493	1
494	0
495	3
496	3
497	1
498	0
499	0
509	0
510	15
511	6
512	1
513	3
514	1
526	2
527	1
528	25
529	9
530	2
