Mass Spectrum: 2-Isopropyl-5,6-dimethyl-1,3,2-oxathiaborinane
Formula: C8H17BOS
CAS: 143674-21-9
Molecular weight: 172
m/z	intensity
51	19
53	105
54	57
55	395
56	381
57	81
58	29
59	90
60	924
61	214
62	33
63	24
67	71
68	476
69	999
70	381
71	176
73	52
74	152
75	124
76	71
86	219
87	300
88	52
89	33
97	24
101	43
102	762
103	271
104	48
111	24
115	43
120	76
129	33
130	57
147	48
153	14
154	52
171	91
172	319
173	62
