Mass Spectrum: 2-Izopropyl-4,6-dimethyl-1,3,2-oxathiaborinane
Formula: C8H17BOS
CAS: 143674-23-1
Molecular weight: 172
m/z	intensity
51	7
53	47
54	14
55	109
56	19
57	23
58	19
59	123
60	605
61	651
62	44
63	35
65	7
67	47
68	56
69	999
70	144
71	98
72	9
73	35
74	109
75	28
76	9
85	9
86	98
87	149
88	16
89	12
95	7
96	16
97	42
98	5
101	21
102	326
103	419
104	47
105	56
110	9
111	12
113	9
115	9
119	8
120	16
123	9
124	12
125	9
126	7
128	30
129	109
130	26
131	14
138	16
139	37
146	16
147	56
157	12
171	51
172	198
173	58
174	16
