Mass Spectrum: Tetrafluoroformamidine
Formula: CF4N2
CAS: 14362-70-0
Molecular weight: 116
m/z	intensity
14	521
15	2
19	362
26	354
27	5
28	283
29	2
31	336
32	4
33	125
34	1
40	15
45	147
46	2
50	77
51	1
52	138
53	1
59	12
64	999
65	15
69	12
83	14
97	44
98	1
116	18
117	1
