Mass Spectrum: L-Alanine, N-[(phenylmethoxy)carbonyl]-3-[(2,3,4,6-tetra-O-acetyl-.beta.-D-galactopyranosyl)oxy]-, methyl ester
Formula: C26H33NO14
CAS: 14364-68-2
Molecular weight: 583
m/z	intensity
91	999
92	89
97	40
98	72
99	35
107	60
108	45
109	262
110	29
115	89
116	16
127	111
128	27
139	69
140	37
141	42
144	33
145	59
146	42
152	47
157	52
158	23
169	744
170	68
192	13
200	35
211	61
212	22
220	31
229	38
235	29
236	220
237	31
238	35
264	56
271	35
282	16
289	19
331	665
332	107
333	21
480	5
481	2
523	17
524	10
583	3
584	2
