Mass Spectrum: Cyclopentane, 1-bromo-2-chloro-, trans-
Formula: C5H8BrCl
CAS: 14376-82-0
Molecular weight: 182
m/z	intensity
27	43
38	27
39	151
40	35
41	196
51	14
53	15
63	12
65	43
66	20
67	999
68	80
75	37
77	11
103	308
104	18
105	99
106	13
182	27
184	35
186	9
