Mass Spectrum: Spiro-1-(5,6-benzo-3,8-diselenacyclononene)cyclobutane
Formula: C14H18Se2
CAS: 143770-44-9
Molecular weight: 346
m/z	intensity
26	2
27	28
28	6
29	6
32	0
37	0
38	2
39	57
40	8
41	51
42	3
43	2
44	1
50	7
51	25
52	14
53	60
54	15
55	9
56	1
57	3
61	0
62	1
63	11
64	2
65	16
66	7
67	47
68	5
69	1
70	0
71	1
74	2
75	3
76	7
77	57
78	98
79	64
80	38
81	999
82	76
83	4
85	1
87	0
89	7
90	2
91	32
92	6
93	11
94	5
95	5
96	1
97	1
101	1
102	32
103	109
104	400
105	53
106	7
107	2
108	1
109	1
111	0
115	3
116	1
117	3
118	1
119	2
120	1
121	1
125	0
127	0
128	2
129	3
130	2
131	4
132	2
133	6
134	3
135	2
136	0
141	1
142	1
143	3
144	1
145	2
147	3
148	0
149	1
154	1
155	1
156	3
157	6
158	7
159	8
160	12
161	9
162	24
163	3
164	4
165	0
167	0
169	1
170	0
172	0
174	0
177	1
178	3
179	14
180	21
181	38
182	24
183	71
184	23
185	14
186	3
195	0
197	0
199	0
206	0
207	0
208	2
209	2
210	7
211	4
212	11
213	2
214	12
215	1
216	4
232	0
233	0
234	5
235	7
236	28
237	18
238	71
239	40
240	118
241	14
242	133
243	8
244	41
245	2
246	3
258	1
259	0
260	1
261	1
262	3
263	0
264	3
265	0
266	1
338	2
339	3
340	13
341	9
342	36
343	22
344	59
345	11
346	66
347	9
348	20
349	3
350	1
