Mass Spectrum: Dimethyl malate, (S)-, TBDMS derivative
Formula: C12H24O5Si
CAS: 143727-01-9
Molecular weight: 276
m/z	intensity
27	18
28	22
29	38
30	3
31	13
33	4
39	17
40	3
41	55
42	9
43	55
44	13
45	61
46	4
47	39
53	3
55	30
56	11
57	43
58	45
59	347
60	30
61	46
66	5
69	5
71	37
72	11
73	615
74	56
75	440
76	33
77	23
83	4
85	30
86	4
87	8
88	12
89	999
90	121
91	72
92	4
94	6
95	5
99	23
100	6
101	68
102	11
103	31
105	12
113	739
114	44
115	124
116	16
117	40
118	5
119	43
120	4
121	270
122	25
123	11
127	5
129	14
130	3
131	54
132	13
133	52
134	7
135	8
141	4
145	10
146	5
147	320
148	49
149	451
150	52
151	23
159	278
160	36
161	120
162	15
163	19
173	9
175	61
176	8
177	10
187	78
188	9
189	54
190	10
191	322
192	42
193	15
201	14
202	2
203	8
205	4
217	232
218	38
219	726
220	103
221	42
222	4
233	6
234	0
261	24
262	5
263	3
276	1
277	0
