Mass Spectrum: Aziridinone, 1-(1,1-dimethylethyl)-3,3-dimethyl-
Formula: C8H15NO
CAS: 14387-85-0
Molecular weight: 141
m/z	intensity
29	50
39	160
41	740
42	280
43	420
44	20
56	160
57	999
58	220
59	10
68	190
69	100
83	40
84	230
85	20
98	50
113	50
126	20
141	10
