Mass Spectrum: 1,2,4-Triazol-5-acetic acid, 3-amino-
Formula: C4H6N4O2
CAS: 143832-52-4
Molecular weight: 142
m/z	intensity
36	31
38	53
40	548
41	503
42	784
43	690
44	743
45	143
46	5
49	3
50	6
51	14
53	76
55	139
56	351
57	731
58	56
60	14
63	12
64	3
65	6
68	403
69	46
70	10
75	3
77	3
78	2
79	1
80	0
81	7
82	13
83	5
84	2
86	31
91	2
96	126
98	999
99	31
100	1
106	1
107	1
108	0
122	0
124	35
125	2
139	1
142	379
143	18
