Mass Spectrum: Piperidine, 4-(4-methylphenyl)-1-(phenylmethyl)-
Formula: C19H23N
CAS: 143867-14-5
Molecular weight: 265
m/z	intensity
14	7
15	3
16	8
26	1
27	12
29	7
30	18
39	45
40	6
41	33
42	237
43	22
44	27
50	6
51	27
52	6
53	15
54	17
55	33
56	151
57	7
62	2
63	22
65	142
66	10
67	3
68	7
69	4
70	29
71	2
73	1
74	1
75	3
76	5
77	46
78	18
79	16
80	4
82	20
83	2
87	2
89	33
91	999
92	115
93	6
94	2
96	8
102	7
103	21
104	27
105	78
106	7
113	1
115	75
116	26
117	133
118	74
119	45
120	27
121	2
126	1
127	9
128	25
129	24
130	19
131	19
132	60
133	10
134	10
135	1
141	2
143	8
144	9
145	32
146	99
147	13
153	1
154	1
156	1
157	1
158	11
159	11
160	2
161	1
167	1
172	28
173	100
174	133
175	19
176	1
178	1
186	2
188	49
189	7
191	1
193	1
194	1
199	1
207	2
208	1
215	1
231	1
236	1
239	1
247	1
250	2
261	0
264	245
265	364
266	73
267	7
268	0
