Mass Spectrum: 2-Phenylmethoxy-4,5-dimethoxybenzaldehyde
Formula: C16H16O4
CAS: 14382-86-6
Molecular weight: 272
m/z	intensity
37	1
38	5
39	37
40	3
41	11
42	1
43	2
45	2
47	0
50	11
51	29
52	12
53	27
54	4
55	4
56	0
57	0
59	6
60	0
61	1
62	6
63	22
65	130
66	17
67	8
69	28
70	1
71	0
72	0
73	0
74	1
75	2
76	2
77	10
78	4
79	17
80	6
81	7
82	10
83	2
84	1
85	1
86	0
87	0
89	23
91	999
92	149
93	12
95	61
96	4
97	2
98	0
99	0
100	0
101	0
102	0
103	1
104	0
105	4
106	2
107	9
108	6
109	12
110	43
111	5
112	0
113	1
115	4
116	0
117	0
118	0
119	1
120	3
121	2
122	1
123	8
124	8
125	63
126	5
127	3
128	3
129	2
130	0
131	0
132	0
133	0
134	0
135	3
136	7
137	23
138	21
139	5
140	2
141	3
142	0
143	0
144	0
145	0
146	0
147	0
148	0
149	0
150	0
151	2
152	11
153	16
154	3
155	1
156	0
157	1
158	0
159	0
163	0
165	29
166	8
167	13
168	4
169	2
170	0
171	1
172	0
173	0
175	0
176	0
180	315
181	170
182	23
183	6
184	2
185	1
186	0
187	0
191	0
193	0
194	0
195	1
196	2
197	6
198	1
199	1
200	1
201	1
202	0
209	0
211	6
212	3
213	9
214	1
215	1
216	0
217	0
223	0
224	0
225	1
226	0
227	2
229	14
230	2
231	0
239	1
240	0
241	4
243	172
244	77
245	12
246	1
247	0
253	0
254	3
255	3
256	1
257	6
258	1
259	0
267	0
269	0
270	3
272	409
273	86
274	11
275	1
276	0
