Mass Spectrum: 2-Propenoic acid, 3-(3-hydroxy-2,6,6-trimethyl-1-cyclohexen-1-yl)-, methyl ester, (E)-
Formula: C13H20O3
CAS: 14398-28-8
Molecular weight: 224
m/z	intensity
26	2
27	50
28	6
29	60
30	2
31	11
33	1
36	1
37	0
38	3
39	84
40	14
41	158
42	11
43	181
44	11
45	17
46	1
47	0
50	6
51	35
52	16
53	63
54	10
55	185
56	18
57	28
58	8
59	48
60	7
61	7
62	3
63	18
64	15
65	76
66	28
67	70
68	12
69	69
70	10
71	18
72	6
73	6
74	10
75	11
76	6
77	126
78	28
79	168
80	53
81	87
82	16
83	30
84	6
85	12
86	3
87	10
88	3
89	17
90	9
91	202
92	32
93	159
94	39
95	96
96	29
97	50
98	8
99	6
100	3
101	5
102	4
103	26
104	12
105	110
106	23
107	219
108	320
109	999
110	94
111	45
112	10
113	13
114	3
115	39
116	22
117	44
118	11
119	66
120	19
121	156
122	40
123	72
124	15
125	44
126	7
127	31
128	12
129	15
130	9
131	89
132	21
133	43
134	15
135	175
136	524
137	151
138	25
139	50
140	11
141	7
142	2
143	3
144	3
145	42
146	10
147	57
148	13
149	269
150	50
151	31
152	7
153	143
154	14
155	7
156	2
157	4
158	2
159	42
160	9
161	11
162	4
163	69
164	31
165	72
166	11
167	44
168	214
169	24
170	6
171	1
172	0
173	4
174	3
175	17
176	5
177	238
178	29
179	11
180	2
181	18
182	4
183	2
184	1
185	1
186	2
187	1
189	1
190	1
191	30
192	109
193	55
194	10
195	20
196	14
197	2
205	3
206	12
207	6
208	3
209	175
210	23
211	3
216	0
217	1
218	1
219	1
220	0
223	4
224	165
225	25
226	3
