Mass Spectrum: Iodoacetamide
Formula: C2H4INO
CAS: 144-48-9
Molecular weight: 185
m/z	intensity
12	27
13	24
14	85
15	44
16	50
18	22
21	1
25	2
26	15
27	50
28	244
29	8
30	368
38	24
39	32
40	60
41	128
42	538
43	81
44	511
45	2
58	999
59	65
93	8
127	511
128	88
137	15
139	59
140	71
141	293
142	329
143	26
167	1
168	41
169	47
185	720
186	18
