Mass Spectrum: DL-Allothreonine
Formula: C4H9NO3
CAS: 144-98-9
Molecular weight: 119
m/z	intensity
12	2
13	4
14	15
15	55
16	6
17	9
18	31
24	1
25	3
26	17
27	82
28	376
29	507
30	216
31	18
32	2
33	1
34	4
36	2
37	3
38	5
39	17
40	6
41	19
42	45
43	98
44	66
45	244
46	39
47	10
48	3
51	2
52	6
53	3
54	17
55	14
56	166
57	950
58	106
59	29
60	24
61	4
68	3
69	6
70	2
71	3
72	14
73	6
74	193
75	999
76	32
77	15
78	1
79	1
80	1
82	1
83	3
84	5
85	3
86	4
87	3
88	3
89	8
95	1
97	1
100	1
101	17
102	7
103	7
104	29
105	1
118	1
119	1
120	5
