Mass Spectrum: Oxalic acid
Formula: C2H2O4
CAS: 144-62-7
Molecular weight: 90
m/z	intensity
12	6
16	11
17	37
18	106
19	2
28	140
29	200
30	3
32	1
36	1
39	1
40	3
44	161
45	999
46	583
47	10
48	2
56	30
90	8
91	1
