Mass Spectrum: 4-Cycloheptylpiperazinyl-1-carbothiohydrazide, 2-[1-(2-pyridyl)ethylidene]
Formula: C19H29N5S
CAS: 144078-22-8
Molecular weight: 359
m/z	intensity
41	566
42	17
43	126
44	297
45	19
46	5
47	2
48	2
49	24
50	115
51	351
52	172
53	26
54	133
55	650
56	617
57	96
58	166
59	16
60	39
61	11
62	13
63	29
64	16
65	37
66	12
67	80
68	121
69	139
70	189
71	31
72	21
73	7
74	14
75	23
76	48
77	72
78	999
79	421
80	43
81	37
82	111
83	128
84	109
85	199
86	43
88	19
89	3
90	6
91	18
92	72
93	20
94	25
95	37
96	87
97	223
98	52
99	51
101	72
102	1
103	51
104	219
105	126
106	63
107	6
108	28
109	16
110	102
111	50
112	167
113	14
115	14
116	9
117	40
119	51
120	80
121	219
122	3
123	105
124	64
125	904
126	147
127	62
129	56
130	10
131	14
132	10
133	17
134	13
135	6
136	21
137	61
138	130
139	44
140	610
141	48
142	11
144	17
145	2
146	6
148	161
149	51
150	63
151	21
152	288
153	34
154	6
155	0
156	2
159	0
160	2
162	8
163	9
164	12
165	28
166	2
167	9
169	5
171	26
172	1
173	3
176	70
177	565
178	136
179	204
180	222
181	92
182	418
183	46
184	2
185	4
186	1
187	2
189	0
190	1
191	3
192	1
193	5
195	4
196	2
197	2
201	0
204	1
205	4
206	53
207	12
208	3
219	1
221	6
223	35
224	6
225	15
226	3
234	1
235	2
237	0
239	771
240	137
241	43
242	6
247	0
248	2
253	4
260	0
262	2
281	3
326	2
330	4
344	3
357	1
358	0
359	223
360	57
361	17
362	3
