Mass Spectrum: Anthracene, 9,10-bis(2,2-bis(ethoxymethyl)-1-propyl)-
Formula: C32H46O4
CAS: 144000-83-9
Molecular weight: 494
m/z	intensity
25	1
26	7
27	83
28	13
29	355
30	11
31	840
33	2
34	0
36	1
37	0
38	1
39	21
40	0
41	136
42	11
43	60
44	22
45	54
46	1
47	8
50	1
51	5
52	2
53	7
54	2
55	56
56	4
57	45
58	14
59	999
60	31
61	4
63	2
64	1
65	5
66	6
67	6
68	1
69	12
70	6
71	127
72	8
73	138
74	8
75	4
76	1
77	8
78	2
79	7
80	0
81	3
83	4
84	0
85	30
86	5
87	9
88	1
89	1
91	16
92	2
93	7
94	2
95	1
97	1
98	1
99	211
100	16
101	183
102	13
103	12
104	1
105	2
106	0
107	2
108	1
109	1
111	0
113	19
114	3
115	16
116	2
117	8
118	1
119	1
120	0
121	0
125	0
126	0
127	3
128	2
129	5
130	1
131	4
132	0
133	1
134	0
135	3
139	1
141	2
142	0
143	3
144	4
145	15
146	1
149	0
150	1
151	1
152	4
153	2
154	1
155	1
156	0
158	0
159	2
161	0
162	0
163	2
164	1
165	7
166	2
167	3
168	0
171	0
172	2
173	0
174	0
175	1
176	2
177	2
178	20
179	7
180	1
181	1
183	0
185	0
186	1
187	1
188	1
189	29
190	19
191	857
192	156
193	17
194	2
200	4
201	6
202	83
203	84
204	176
205	109
206	21
207	3
208	0
209	0
211	0
213	6
214	3
215	108
216	63
217	290
218	46
219	22
220	3
221	1
224	0
225	0
226	13
227	18
228	71
229	180
230	71
231	67
232	22
233	6
234	2
235	5
236	2
237	0
239	8
240	5
241	14
242	25
243	108
244	32
245	72
246	19
247	9
248	2
249	3
250	1
251	0
252	2
253	5
254	4
255	8
256	8
257	257
258	58
259	90
260	22
261	7
262	2
263	2
264	0
265	1
266	1
267	2
268	2
269	7
270	2
271	7
272	1
273	6
274	2
275	5
276	2
277	0
278	0
279	0
280	0
281	2
282	1
283	6
284	2
285	6
286	1
287	3
288	0
289	7
290	3
291	5
292	1
293	0
295	1
296	0
297	29
298	6
299	6
300	1
301	4
302	2
303	86
304	24
305	5
306	1
307	0
309	1
310	1
311	4
312	1
313	1
314	1
315	1
316	1
317	1
319	1
320	0
325	1
327	1
329	2
330	0
331	1
333	0
334	0
335	0
336	22
337	6
338	0
339	2
341	1
342	1
343	8
344	2
345	0
347	1
348	0
349	90
350	32
351	6
355	0
356	1
357	1
362	1
363	1
364	1
367	0
371	0
375	0
377	0
379	0
385	0
386	0
387	0
388	1
389	2
390	2
391	0
392	1
393	2
394	1
401	0
402	2
403	1
404	1
406	0
407	0
421	1
422	0
431	1
434	2
435	0
436	9
437	3
448	5
449	3
464	9
465	4
466	1
477	0
480	2
481	1
492	0
493	0
494	536
495	225
496	37
497	4
498	0
