Mass Spectrum: Copper, bis(1,3-diphenyl-1,3-propanedionato-O,O')-, (SP-4-1)-
Formula: C30H22CuO4
CAS: 14405-48-2
Molecular weight: 509
m/z	intensity
44	23
50	23
51	65
52	11
63	76
65	38
69	84
75	11
76	11
77	443
78	38
89	23
90	11
91	23
102	11
103	11
105	999
106	95
112	19
114	11
121	11
129	11
139	11
140	88
141	53
142	38
143	23
147	84
148	11
152	19
153	11
155	11
156	23
158	11
165	31
166	11
167	38
168	11
178	11
179	11
181	11
191	11
194	23
195	11
205	11
207	11
208	11
209	122
210	23
211	46
216	11
220	11
223	496
224	160
225	19
241	11
242	11
243	11
247	11
257	11
258	11
259	11
271	19
278	11
282	11
283	11
284	11
285	420
286	88
287	267
288	50
289	31
299	23
301	11
324	11
327	15
359	15
363	23
365	11
387	61
388	11
389	23
390	11
441	31
492	11
493	8
509	382
510	122
511	198
512	65
513	11
