Mass Spectrum: 7-Chloro-1,3,4,10-tetrahydro-10-hydroxy-1-[[3-[1-piperidinyl]propyl]imino]-3-[3,4,5(trimethoxy)phenyl]-9(2H)-acridinone
Formula: C30H36ClN3O5
CAS: 144154-86-9
Molecular weight: 553
m/z	intensity
41	140
42	79
43	58
44	71
45	5
47	5
49	23
50	2
51	17
52	6
53	13
54	27
55	116
56	93
57	57
58	8
63	3
65	10
66	2
67	18
68	27
69	60
70	64
71	9
76	1
77	10
78	7
79	8
80	7
81	10
82	29
83	70
84	182
85	58
86	18
88	3
91	30
92	4
93	5
94	6
95	2
96	95
98	999
99	58
100	2
102	1
104	3
105	1
106	2
107	2
108	5
110	75
111	34
112	177
113	20
114	2
115	2
119	2
120	1
121	4
122	11
124	152
125	70
126	42
127	5
130	1
134	2
136	9
137	8
138	1
139	40
140	27
141	6
142	11
148	8
149	3
151	12
153	14
154	4
155	1
161	4
163	1
164	4
165	4
166	2
167	6
168	5
169	7
170	2
171	4
176	3
177	1
179	14
181	46
182	6
183	3
184	4
194	4
195	5
203	1
204	3
216	5
217	5
218	5
219	4
220	2
229	2
230	4
231	5
232	5
233	2
237	2
243	5
244	4
245	10
246	4
247	5
252	2
255	2
256	1
257	6
258	4
259	9
260	3
261	5
266	1
268	6
269	5
270	1
271	8
273	1
277	4
279	1
280	1
281	4
282	1
283	2
287	1
294	1
304	1
320	2
322	1
335	1
350	3
352	1
362	8
363	1
364	4
365	3
377	2
379	9
380	4
381	1
382	1
389	2
391	1
392	10
395	8
396	19
397	6
398	11
399	1
403	1
405	9
406	2
407	1
409	4
410	2
411	10
412	6
413	21
414	6
415	7
423	6
424	7
425	11
426	31
427	10
428	11
429	2
437	5
438	2
439	15
440	7
441	5
442	1
448	3
519	9
520	1
535	1
536	6
537	8
538	3
539	3
553	30
554	10
555	11
556	1
