Mass Spectrum: 7-Chloro-3-[2-chlorophenyl]-1-[[[-3-[dimethylamino]propyl]imino]-1,3,4,10-tetrahydro-10-hydroxy-9(2H)-acridinone
Formula: C24H25Cl2N3O2
CAS: 144128-60-9
Molecular weight: 457
m/z	intensity
42	164
43	50
44	148
45	41
46	2
49	23
51	17
54	9
55	7
56	49
58	999
59	17
61	4
63	6
65	2
68	7
69	2
70	41
71	24
72	159
73	9
75	13
77	13
82	5
84	75
85	59
86	56
87	2
89	3
97	3
99	23
101	14
102	12
103	11
110	2
111	7
113	8
114	5
115	10
120	3
125	36
126	5
127	19
128	11
136	5
138	14
139	10
140	9
148	5
149	2
150	5
151	4
152	6
153	5
163	2
164	15
165	2
166	8
177	3
188	2
216	9
217	6
218	5
219	9
227	6
228	2
230	5
231	6
232	5
238	2
240	12
241	13
242	5
243	5
244	6
245	30
246	10
247	10
255	4
256	4
257	12
258	5
259	23
261	6
269	10
270	6
271	10
280	8
292	2
303	5
304	29
305	25
306	20
307	10
318	5
319	12
320	6
321	6
322	2
331	4
333	11
335	26
336	5
337	7
339	5
340	20
341	9
342	14
347	6
353	14
354	13
355	18
356	15
357	46
358	16
359	26
360	5
361	2
367	23
368	17
369	27
370	115
371	36
372	71
373	19
374	13
381	13
382	24
383	76
384	33
385	52
386	17
387	10
390	14
391	2
392	20
393	8
394	11
439	4
441	19
443	10
457	34
458	10
459	24
460	6
461	4
