Mass Spectrum: 1-[[3-[Dimethylamino]propyl]imino]-7-fluoro-1,3,4,10-tetrahydro-9(2H)-acridinone
Formula: C25H25F4N3O
CAS: 144155-39-5
Molecular weight: 459
m/z	intensity
41	113
42	30
43	51
45	4
50	1
51	2
52	2
53	5
56	35
58	999
59	31
63	2
65	3
67	1
68	4
70	34
71	2
72	291
73	10
75	3
77	3
78	1
80	1
82	3
84	52
85	19
86	7
91	12
92	1
94	6
95	7
97	2
99	4
101	1
102	2
103	4
106	2
107	4
109	7
110	1
115	2
119	2
120	7
121	3
122	2
123	2
125	1
126	3
127	6
131	3
132	4
133	6
134	3
135	2
136	1
138	1
140	2
144	1
145	4
146	5
148	22
149	1
151	6
152	2
153	3
154	1
157	2
158	5
159	15
160	2
164	1
165	1
169	1
170	1
171	3
172	7
173	4
174	2
176	2
177	2
178	1
182	1
183	2
184	3
185	4
186	2
187	2
188	2
196	1
197	2
199	3
200	10
201	9
202	6
203	1
212	3
213	5
214	7
215	9
216	6
220	1
225	2
226	1
227	5
229	70
230	9
239	2
241	7
242	6
243	32
244	4
255	2
257	2
259	5
260	2
272	1
287	2
288	7
289	3
290	3
302	1
303	2
332	2
338	1
340	1
346	1
353	2
356	3
357	3
358	7
359	2
360	1
370	1
371	10
372	3
373	5
374	2
383	1
385	2
387	10
388	101
389	24
390	3
400	5
401	41
402	9
403	1
459	12
460	4
