Mass Spectrum: 7-Chloro-1,3,4,10-tetrahydro-10-hydroxy-1-[[3-[1-pyrrolidinyl]propyl]-3-[3,4,5-(trimethoxy)phenyl]-9(2H)-acridinone
Formula: C29H34ClN3O5
CAS: 144128-57-4
Molecular weight: 539
m/z	intensity
41	406
42	570
43	652
44	286
45	14
46	25
50	17
51	23
52	29
53	15
54	131
55	248
56	165
57	87
58	35
59	33
60	12
61	5
62	7
63	18
64	6
65	39
66	23
67	52
68	168
69	41
70	500
71	154
72	27
73	12
74	7
75	10
76	8
77	36
78	23
79	22
80	42
81	43
82	105
84	999
85	89
86	96
87	50
89	12
90	6
91	14
93	28
94	32
96	187
97	113
98	423
99	44
100	9
101	10
102	12
103	6
104	5
105	9
106	19
107	15
108	28
109	17
110	104
111	104
112	39
113	16
114	8
115	7
116	6
117	7
118	6
119	14
120	11
121	15
122	13
123	39
125	252
126	123
127	8
128	16
129	15
130	6
131	5
132	6
133	8
134	9
135	11
136	16
137	17
138	13
139	17
140	17
141	16
142	12
145	5
146	6
147	7
148	10
149	12
150	6
151	16
153	57
154	20
155	13
156	7
159	8
160	6
161	7
162	6
163	14
164	10
165	10
166	10
167	15
168	16
169	13
171	9
173	9
175	7
176	6
177	8
178	6
179	18
181	64
182	13
183	5
184	7
185	5
187	5
189	5
190	8
191	7
193	5
194	12
195	13
196	5
197	9
198	6
202	5
203	5
204	5
205	4
206	11
208	6
209	5
210	6
211	7
212	14
216	7
217	8
218	7
219	10
220	6
221	8
223	4
224	5
230	6
231	6
232	9
233	5
239	6
244	7
245	14
246	14
247	13
248	5
253	5
255	11
256	5
257	9
259	7
261	5
262	5
269	5
271	7
280	13
281	20
282	8
283	9
284	5
296	4
298	4
350	5
352	4
362	7
364	8
366	5
377	6
378	7
379	23
380	10
381	5
382	5
384	5
389	5
392	11
393	5
394	5
395	12
396	17
397	12
398	17
399	7
400	6
405	10
410	5
411	17
412	24
413	61
414	28
415	22
416	6
423	9
424	6
425	9
426	28
427	10
428	13
429	6
439	21
440	7
441	7
446	14
447	7
448	24
449	9
450	9
451	5
452	11
453	5
468	6
539	6
540	2
541	2
