Mass Spectrum: 7-Bromo-1-[[3-[dimethylamino]propyl]imino]-1,3,4,10-tetrahydro-3-(p-trifluoromethylphenyl)-9(2H)-acridinone
Formula: C25H25BrF3N3O
CAS: 144155-36-2
Molecular weight: 519
m/z	intensity
42	137
43	46
44	97
45	10
46	2
50	4
51	7
52	4
53	3
54	4
55	1
56	44
58	999
59	44
60	1
62	2
63	6
64	2
65	4
66	2
67	2
68	6
69	1
70	51
72	496
73	20
75	13
76	5
77	11
78	3
79	2
80	3
81	2
82	5
84	68
85	38
86	11
87	3
88	3
89	4
90	3
91	2
92	2
93	1
94	1
95	2
96	2
97	1
99	19
100	6
101	5
102	6
103	7
104	2
105	2
107	1
109	6
111	2
112	2
113	4
114	5
115	5
116	2
117	2
118	2
119	2
120	1
121	1
124	1
125	3
126	3
127	18
128	6
129	3
130	3
133	3
138	2
139	5
140	7
141	3
142	1
143	1
145	4
146	2
151	10
152	4
153	8
154	9
155	7
156	3
157	2
159	19
163	2
164	3
165	3
166	4
167	4
168	2
169	3
170	2
171	2
172	3
177	2
178	2
179	3
180	4
181	4
182	9
183	4
184	2
190	1
192	1
193	2
194	2
195	5
196	3
197	2
198	1
199	1
205	1
206	2
207	3
208	6
209	4
210	7
211	3
215	1
216	1
218	2
219	2
220	2
221	2
222	1
223	2
224	3
225	2
227	1
234	1
235	1
237	1
239	1
240	2
241	4
242	2
246	2
248	1
253	1
255	2
256	1
260	3
261	2
262	4
263	4
264	2
265	2
269	2
270	3
271	2
272	1
274	2
275	2
276	4
277	2
278	2
282	1
283	3
284	3
285	3
286	1
287	1
289	18
290	4
291	16
292	3
298	1
299	2
300	2
301	3
302	2
303	8
304	2
305	7
306	1
309	1
310	1
311	1
313	1
315	1
317	2
338	3
339	3
340	2
341	1
348	1
350	2
351	1
352	1
353	2
367	1
369	2
370	4
382	1
383	3
418	3
419	2
420	3
421	1
431	4
432	2
433	6
434	3
435	5
436	2
437	3
447	5
448	45
449	14
450	42
451	10
452	1
460	4
461	18
462	9
463	17
464	4
470	1
472	2
474	2
519	7
520	2
521	7
522	2
