Mass Spectrum: 7-Chloro-1,3,4,10-tetrahydro-10-hydroxy-1-[[5-[1-pyrrolidinyl]pentyl]imino]-3-[3-(trifluoromethyl)phenyl]-9(2H)-acridinone
Formula: C29H31ClF3N3O2
CAS: 144128-48-3
Molecular weight: 545
m/z	intensity
41	280
42	268
43	164
44	141
45	21
46	6
47	7
49	35
50	11
51	28
52	13
53	35
54	38
55	196
56	80
57	48
58	21
59	16
60	6
63	16
64	6
65	14
66	9
67	37
68	53
69	108
70	143
71	48
72	25
73	10
74	7
75	25
76	9
77	21
78	15
79	9
80	37
81	24
82	64
83	133
84	999
85	72
86	39
87	15
88	9
89	10
90	6
91	7
93	7
94	13
95	13
96	209
97	181
98	90
99	31
100	17
101	13
102	13
103	12
106	10
107	7
108	12
110	271
111	68
112	28
113	23
114	20
115	13
116	6
119	7
120	12
121	6
122	13
123	13
124	47
125	18
126	35
127	23
128	17
129	9
130	6
133	10
134	14
135	7
136	27
137	22
138	130
139	106
140	47
141	17
142	7
145	16
146	8
147	6
148	9
149	9
150	10
151	24
152	18
153	28
154	20
155	14
156	9
159	47
160	7
161	6
162	9
163	13
164	31
165	13
166	17
167	11
168	7
169	7
170	7
171	10
172	12
173	10
174	9
175	8
176	8
177	9
178	11
179	9
180	7
181	6
182	9
183	12
184	6
185	8
186	6
187	6
188	8
189	8
190	9
191	8
192	7
193	7
194	7
195	10
199	7
200	9
201	8
202	8
203	6
204	6
205	6
209	6
210	6
215	6
216	14
217	12
218	20
219	21
220	10
221	8
227	7
228	9
229	9
230	11
231	14
232	10
233	7
240	8
241	8
243	9
244	13
245	25
246	11
247	9
257	12
258	8
259	15
269	7
270	7
271	9
273	9
287	6
297	7
299	11
301	6
304	7
306	6
308	6
309	6
310	9
311	15
312	7
313	7
338	7
339	6
369	7
372	10
373	14
374	17
375	11
376	13
377	6
387	8
388	27
389	49
390	42
391	59
392	21
393	15
401	26
402	10
403	22
404	24
405	11
406	9
407	6
417	45
418	12
419	15
441	14
443	7
445	7
454	18
455	15
456	18
457	20
458	28
459	13
460	10
472	8
474	8
528	8
529	11
530	6
545	4
546	1
547	1
