Mass Spectrum: 1,2,4,5-Tetrazin-3-amine, 6-phenyl-
Formula: C8H7N5
CAS: 14418-30-5
Molecular weight: 173
m/z	intensity
33	0
34	0
36	2
37	20
38	31
39	104
40	8
41	25
42	103
43	12
44	3
45	2
46	0
47	0
48	2
49	18
50	157
51	104
52	67
53	11
54	1
55	1
56	0
57	0
58	0
59	0
60	2
61	13
62	28
63	60
64	21
65	2
66	0
67	0
68	0
69	0
70	0
71	0
72	1
73	7
74	26
75	78
76	329
77	95
78	5
79	1
80	0
81	0
82	0
83	1
84	1
85	3
86	4
87	5
88	7
89	6
90	1
91	2
92	0
93	0
94	0
95	0
96	0
97	0
99	5
100	5
103	999
104	134
105	9
106	0
107	0
108	0
109	0
111	0
114	0
115	0
116	0
117	1
118	0
119	2
120	0
121	0
122	0
128	0
129	0
130	0
131	0
132	0
133	0
134	0
135	0
136	0
143	0
144	1
145	1
146	0
149	0
173	129
174	13
175	2
176	0
