Mass Spectrum: 7-Chloro-1-[[3-[dimethylamino]propyl]imino]-3-(p-tolyl)-1,3,4,10-tetrahydro-acridin-9(2H)-one
Formula: C25H28ClN3O
CAS: 144180-26-7
Molecular weight: 421
m/z	intensity
41	138
42	23
43	73
45	6
51	4
52	2
53	3
54	3
55	4
56	36
58	999
59	28
62	3
65	12
66	2
68	4
70	36
71	23
72	274
73	11
75	5
76	2
77	12
78	4
79	8
82	3
84	51
85	24
86	14
89	5
91	33
92	4
99	6
100	2
101	3
102	5
103	10
105	118
106	9
110	2
111	4
113	3
114	4
115	25
116	6
117	40
118	14
119	3
120	2
121	2
123	2
125	2
126	5
127	8
128	8
129	4
130	2
131	2
135	2
136	5
138	4
139	6
140	7
141	5
142	3
145	2
147	2
148	2
149	3
150	3
151	3
152	7
153	7
154	7
155	4
158	3
160	2
162	2
163	2
164	16
165	6
166	11
167	5
168	2
169	2
174	3
176	2
177	2
178	2
179	3
180	2
181	2
182	3
183	2
187	2
188	4
189	4
190	3
191	2
192	2
193	2
194	2
195	5
196	2
200	2
201	2
202	4
203	2
204	3
205	2
206	2
209	2
210	6
213	3
214	2
215	5
216	13
217	11
218	12
219	7
220	3
221	2
223	2
224	2
227	2
228	5
229	8
230	12
231	14
232	12
233	5
234	2
240	6
241	12
242	7
243	9
244	9
245	83
246	14
247	26
248	4
252	3
253	4
254	8
255	7
256	7
257	12
258	15
259	48
260	11
261	14
262	2
266	3
267	2
268	3
269	7
270	9
271	8
272	2
273	6
275	3
276	3
277	2
278	3
280	3
281	2
282	3
283	5
284	11
285	8
286	4
287	3
288	3
290	3
291	3
292	3
293	3
294	12
295	4
296	5
297	2
299	4
300	2
302	4
303	3
304	24
305	14
306	18
307	8
308	9
309	3
315	4
316	5
317	2
318	16
319	18
320	39
321	19
322	18
323	7
324	3
329	3
331	4
332	4
333	33
334	12
335	45
336	13
337	17
338	4
347	9
348	2
349	62
350	491
351	131
352	173
353	38
354	4
361	4
362	56
363	307
364	91
365	109
366	25
367	3
376	3
377	3
378	3
421	99
422	29
423	37
424	9
425	1
