Mass Spectrum: 7-Chloro-1-[[3-[dimethylamino]propyl]imino]-1,3,4,10-tetrahydro-10-hydroxy-3-[2(trifluoromethyl)phenyl]-9(2H)-acridinone
Formula: C25H25ClF3N3O2
CAS: 144128-62-1
Molecular weight: 491
m/z	intensity
42	113
43	34
44	78
45	14
46	3
50	2
51	5
52	2
53	2
54	4
55	3
56	30
58	999
59	30
60	1
63	4
64	1
65	3
66	2
67	2
68	5
69	2
70	32
72	249
73	10
75	8
76	2
77	5
78	3
80	1
82	3
84	62
85	27
86	60
87	4
88	1
89	2
90	2
91	1
95	1
96	1
97	1
99	13
100	3
101	3
102	3
103	2
109	5
110	3
111	4
112	2
113	4
114	3
115	4
119	1
122	2
123	2
124	2
125	3
126	4
127	5
128	3
129	2
130	1
133	5
136	4
137	2
138	5
139	4
140	5
141	3
145	3
146	2
148	3
149	2
150	3
151	8
152	4
153	4
154	4
155	3
159	12
162	2
163	2
164	9
165	3
166	5
167	3
168	2
169	2
171	3
172	2
173	1
174	2
176	3
177	2
178	2
179	2
180	2
181	1
182	3
183	2
187	1
188	2
189	2
190	1
193	1
194	2
195	2
196	1
199	1
201	1
202	1
203	3
204	1
205	2
208	1
209	2
210	1
211	3
215	1
216	3
217	3
218	3
219	3
220	2
221	2
222	1
223	1
224	1
225	2
228	2
229	3
230	3
231	4
232	3
233	1
234	1
240	2
241	2
242	1
243	3
244	3
245	11
246	5
247	3
248	1
253	1
255	2
256	3
257	6
258	4
259	14
260	3
261	5
262	3
264	1
269	3
270	3
271	8
272	2
273	3
275	2
280	2
283	1
284	2
285	2
287	1
290	1
304	3
305	2
306	3
318	1
319	2
320	1
321	2
329	2
331	1
333	1
334	2
335	2
336	1
338	1
339	1
346	1
347	2
348	2
349	2
354	2
355	1
356	2
369	1
370	5
371	1
372	1
373	2
374	11
375	3
376	4
383	3
384	1
387	3
388	1
389	3
390	3
391	18
392	5
393	6
394	1
401	3
402	2
403	6
404	30
405	8
406	11
407	4
415	2
416	7
417	19
418	7
419	7
420	3
426	1
432	1
433	1
475	5
476	2
477	2
491	20
492	6
493	7
494	2
