Mass Spectrum: 7-Chloro-1,3,4,10-tetrahydro-10-hydroxy-1-[[4-[1-pyrrolidinyl]butyl]imino]-3-[3-(trifluoromethyl)phenyl]-9(2H)-acridinone
Formula: C28H29ClF3N3O2
CAS: 144154-98-3
Molecular weight: 531
m/z	intensity
41	108
42	347
43	146
44	30
45	5
47	11
48	5
52	5
53	18
54	31
55	218
56	78
57	27
58	19
63	7
65	7
67	18
68	55
69	153
70	220
71	117
72	28
73	5
75	12
76	4
77	12
78	8
79	5
80	15
81	13
82	62
83	298
84	999
85	90
86	4
87	5
88	7
89	5
91	4
94	9
95	13
96	182
97	708
98	72
100	7
101	6
102	6
103	6
106	4
108	8
110	440
111	112
112	18
113	12
114	9
115	8
120	7
121	4
122	12
123	25
124	681
125	248
126	269
127	34
128	8
129	5
133	4
135	4
136	8
137	6
138	13
139	20
140	21
141	9
142	6
145	10
147	4
148	6
149	7
150	6
151	14
152	10
153	12
154	10
155	7
159	45
160	5
162	6
163	7
164	26
165	9
166	16
167	8
168	5
169	4
171	4
172	6
173	5
174	6
176	6
177	7
178	8
179	6
181	4
182	6
183	8
185	5
187	4
188	6
189	6
190	5
191	5
192	4
193	4
194	5
195	7
196	4
200	6
201	6
202	6
203	5
204	5
205	4
209	5
210	4
215	6
216	14
217	11
218	13
219	12
220	8
221	7
222	5
228	5
229	10
230	11
231	12
232	8
233	5
234	4
240	7
241	9
242	6
243	13
244	17
245	18
246	9
247	6
255	6
256	8
257	24
258	10
259	21
260	4
261	6
269	7
270	7
271	8
272	4
273	9
275	4
283	6
284	4
285	8
287	9
289	4
290	4
296	7
297	14
298	9
299	7
304	8
305	5
306	6
308	5
309	5
310	5
337	4
338	9
339	8
354	5
356	6
369	6
372	12
373	12
374	23
375	13
376	31
377	10
378	10
387	6
388	10
389	16
390	19
391	42
392	14
393	13
400	4
401	19
402	9
403	27
404	15
405	10
406	6
407	5
415	5
417	17
418	5
419	6
431	5
440	14
441	19
442	22
443	46
444	56
445	40
446	22
447	10
458	9
460	11
513	6
514	31
515	52
516	24
517	18
518	5
531	29
532	9
533	10
