Mass Spectrum: 5,8-Dichloro-3-[2,4-dichlorophenyl]-1-[[3-[dimethylamino]propyl]imino]-
Formula: C24H23Cl4N3O
CAS: 144155-46-4
Molecular weight: 509
m/z	intensity
42	104
43	29
44	47
45	6
47	4
49	2
51	1
54	5
55	4
56	34
58	999
59	24
65	3
67	2
68	4
70	35
71	35
72	126
73	5
75	5
82	4
84	68
85	28
86	19
87	2
88	2
99	7
101	6
102	5
109	5
111	3
113	3
115	3
123	5
124	4
125	5
126	5
127	4
135	4
136	7
137	12
138	7
139	7
140	3
144	4
146	4
147	2
148	3
149	5
150	4
151	7
152	7
153	4
154	2
159	46
160	6
161	34
162	8
163	8
164	9
165	3
166	3
169	7
171	4
172	12
173	7
174	12
175	5
176	4
177	2
179	2
180	2
181	2
182	2
183	2
184	2
185	3
186	5
187	7
188	8
189	5
190	3
196	2
197	3
198	19
199	6
200	16
201	6
202	6
203	3
208	2
210	2
211	2
212	3
213	3
214	6
215	3
216	3
218	2
222	2
223	4
224	3
225	4
226	2
227	3
228	2
229	3
231	2
236	3
237	2
238	8
239	5
240	6
241	3
244	2
246	2
247	2
248	3
249	3
250	14
251	9
252	16
253	8
254	8
255	4
256	3
257	3
261	4
262	2
263	4
264	7
265	9
266	12
267	7
268	7
269	2
273	2
274	8
275	8
276	4
277	7
278	7
279	119
280	19
281	75
282	10
283	13
284	2
289	2
291	6
292	7
293	47
294	10
295	29
296	5
297	5
303	3
304	2
305	4
307	6
308	3
309	6
310	3
311	4
337	4
338	9
339	6
340	6
341	2
348	2
350	2
352	4
354	2
372	7
373	8
374	12
375	8
376	7
377	3
387	4
388	3
389	4
390	3
391	2
403	47
404	13
405	46
406	12
407	17
408	7
409	6
410	5
411	3
412	3
417	2
419	2
420	6
421	12
422	8
423	20
424	7
425	15
426	4
427	6
433	13
434	4
435	13
436	4
437	14
438	151
439	43
440	192
441	47
442	95
443	21
444	20
445	4
446	2
451	51
452	13
453	64
454	15
455	31
456	7
457	7
491	3
493	3
509	6
510	2
511	8
512	3
513	4
