Mass Spectrum: 7-Chloro-3,4-dihydro-10-[phenylmethyl]-3-[4-[trifluoromethyl]phenyl]-2H,9H-acridin-4,5-dione
Formula: C27H19ClF3NO2
CAS: 144129-01-1
Molecular weight: 481
m/z	intensity
65	61
91	999
92	40
164	21
280	15
308	18
309	37
311	38
390	59
391	55
392	17
479	39
480	38
481	176
482	64
483	65
484	17
