Mass Spectrum: 7-Chloro-3-[3,4-dichlorophenyl]-1-[[1-ethyl-3-piperidinyl]imino]-10-hydroxy-1,3,4,10-tetrahydro-9(2H)-acridinone
Formula: C26H26Cl3N3O2
CAS: 144128-42-7
Molecular weight: 517
m/z	intensity
41	50
42	119
43	58
44	51
45	12
49	7
50	6
51	15
52	10
53	16
54	23
55	49
56	64
57	105
58	50
63	11
65	11
66	5
67	20
68	43
69	55
70	72
71	29
72	270
73	21
74	7
75	16
76	5
77	19
78	35
79	11
80	25
81	14
82	45
83	83
84	74
85	103
86	17
87	2
91	6
93	5
94	18
95	10
96	304
97	38
98	35
99	16
100	6
101	10
102	11
105	2
106	23
107	6
108	40
109	33
110	92
111	999
112	325
113	36
114	10
115	10
121	8
122	17
123	13
124	25
125	21
126	18
127	14
128	23
129	6
135	7
136	14
137	23
138	14
139	13
140	6
141	6
145	6
146	7
147	7
148	6
149	14
150	9
151	7
152	9
153	16
154	13
155	10
156	2
159	22
160	5
161	18
162	11
163	18
164	17
165	9
166	10
167	2
171	13
172	12
173	18
174	13
175	14
176	5
177	5
178	4
179	5
182	2
183	7
185	2
188	2
189	2
190	11
191	5
192	6
193	2
195	4
199	5
200	2
201	2
202	2
211	2
216	10
217	6
218	10
219	30
220	6
221	12
229	2
230	7
231	6
232	6
234	5
240	7
241	2
243	5
244	3
245	9
246	3
250	8
251	3
252	12
253	2
255	5
257	4
269	4
304	6
337	2
338	5
339	3
340	5
373	2
374	2
375	3
376	5
389	5
390	11
391	27
392	13
393	22
394	5
395	6
