Mass Spectrum: 7-Chloro-1-[[3-[diethylamino]propyl]imino]-1,3,4,10-tetrahydro-10-hydroxy-3-(3,4,5-trimethoxyphenyl)-9(2H)-acridinone
Formula: C29H36ClN3O5
CAS: 144128-54-1
Molecular weight: 541
m/z	intensity
41	47
42	68
43	41
44	73
45	8
49	16
51	12
52	6
53	8
54	14
55	19
56	95
57	55
58	204
59	10
63	7
65	11
66	6
67	7
68	10
69	11
70	50
71	36
72	127
73	32
74	10
77	16
78	14
79	7
81	6
82	9
83	9
84	81
86	999
87	59
89	5
91	13
92	6
93	8
94	5
95	7
96	7
98	178
100	343
101	26
105	5
106	6
107	6
108	6
109	6
110	13
111	13
112	56
113	60
114	32
115	8
119	7
120	6
121	11
123	5
124	7
125	13
126	6
127	14
128	7
129	6
130	9
133	5
134	6
135	6
136	12
137	9
138	6
139	6
140	6
141	15
147	5
148	9
149	6
151	16
152	7
153	24
154	12
155	8
156	5
159	8
163	7
164	10
165	8
166	9
167	10
168	8
169	8
176	6
177	6
179	26
180	10
181	79
183	14
184	5
190	6
191	6
194	14
195	13
196	7
197	7
203	5
204	6
206	5
208	5
209	6
210	6
211	11
212	5
216	9
217	9
218	10
219	9
220	6
221	9
223	6
225	8
229	7
230	8
231	9
232	10
233	7
234	7
237	6
239	7
243	7
244	8
245	21
246	12
247	11
253	5
254	6
255	13
256	8
257	13
258	7
259	16
260	6
261	6
262	7
263	8
269	5
270	6
271	11
272	5
273	7
280	8
281	11
282	6
283	6
294	5
322	5
337	5
338	5
350	7
352	6
361	6
362	16
363	8
364	8
365	6
366	8
367	5
377	11
378	9
379	22
380	10
381	7
382	6
389	6
390	6
391	14
392	49
393	15
394	6
395	12
396	32
397	15
398	17
399	6
403	6
404	8
405	34
406	11
407	5
409	7
410	5
411	22
412	21
413	48
414	18
415	15
416	5
417	5
423	10
424	11
425	25
426	101
427	33
428	36
429	12
437	8
438	11
439	42
440	18
441	17
442	8
446	11
447	6
448	12
449	5
450	6
451	5
452	8
453	6
491	9
507	28
508	9
524	6
525	23
526	10
527	9
541	74
542	24
543	25
544	8
