Mass Spectrum: 1-[Acetyloxy]-7-chloro-3-[3,4-dichlorophenyl]-9(10H)-acridinone
Formula: C21H12Cl3NO3
CAS: 144154-99-4
Molecular weight: 431
m/z	intensity
42	812
43	999
45	249
47	147
49	108
50	10
51	74
52	17
53	14
55	53
56	20
57	59
58	20
59	15
60	27
61	22
62	6
63	95
64	4
65	35
66	6
67	14
68	9
69	30
70	25
71	34
72	8
73	32
74	26
75	52
76	18
77	83
78	63
79	12
81	19
82	8
83	19
84	13
85	23
86	7
87	123
88	8
89	36
90	3
91	16
92	6
93	8
94	9
95	15
96	5
97	20
98	19
99	40
100	32
101	16
102	9
103	8
105	148
106	39
107	18
108	3
109	14
110	13
111	30
112	13
113	42
114	33
115	4
116	3
117	6
118	13
119	16
120	8
121	8
122	29
123	20
124	28
125	16
126	19
127	16
128	15
129	6
131	33
132	13
133	10
134	5
135	13
136	16
137	18
138	12
139	9
140	5
141	5
142	3
143	3
145	43
147	10
148	9
149	61
150	18
151	15
152	11
153	11
154	5
155	6
156	2
157	3
159	13
160	16
161	11
162	23
163	33
164	15
165	5
166	2
167	25
168	6
169	2
170	10
171	5
172	10
173	9
174	8
175	8
176	6
177	15
178	11
179	5
180	14
181	11
183	11
184	3
185	7
186	7
187	8
188	11
189	5
190	4
194	6
195	14
197	8
198	7
199	10
200	13
201	16
202	4
206	2
207	5
209	3
210	3
211	3
212	3
213	4
214	4
216	3
218	3
221	5
223	4
224	3
225	15
226	15
227	35
228	20
229	3
234	5
235	4
236	8
237	4
238	6
239	2
256	6
260	3
261	14
262	20
263	13
264	8
265	2
270	2
272	3
274	2
279	5
290	12
291	14
292	5
293	4
296	4
297	11
298	23
299	10
300	14
301	3
302	2
308	2
319	13
320	3
321	4
324	4
325	6
326	14
327	5
328	7
329	2
332	13
334	15
335	2
336	3
353	3
354	8
355	5
356	6
357	2
360	24
361	13
362	25
363	13
364	8
365	4
388	17
389	340
390	83
391	329
392	72
393	109
394	20
395	12
396	2
431	9
432	3
433	7
434	2
435	2
