Mass Spectrum: 7-Chloro-1-[heptylimino]-1,3,4,10-tetrahydro-10-hydroxy-3-[4-(trifluoromethyl)phenyl]-9(2H)-acridone
Formula: C27H28ClF3N2O2
CAS: 144128-56-3
Molecular weight: 504
m/z	intensity
41	918
42	178
43	999
44	202
45	64
49	50
50	32
51	72
52	31
53	59
54	44
55	475
56	144
57	893
58	64
59	23
60	26
63	43
64	19
65	54
66	33
67	48
68	37
69	115
70	118
71	57
72	29
73	24
75	55
76	29
77	80
78	101
79	24
81	21
82	22
83	32
84	68
85	24
86	44
89	25
91	48
92	19
94	63
95	26
96	20
97	25
98	33
99	26
100	22
101	26
102	31
103	38
106	47
109	35
110	30
111	42
112	36
113	36
114	76
115	40
116	21
119	20
120	23
121	23
123	19
124	48
125	29
126	118
127	94
128	66
129	34
133	22
135	27
136	31
137	21
138	35
139	36
140	52
141	31
142	42
145	53
146	19
148	21
149	26
150	25
151	64
152	44
153	61
154	55
155	37
159	159
162	21
163	28
164	67
165	31
166	50
167	26
168	25
169	19
171	28
172	34
173	32
174	23
176	23
177	22
178	30
179	22
180	21
181	19
182	29
183	43
184	19
188	20
189	19
190	21
195	28
196	20
199	28
200	34
201	33
202	22
203	19
209	25
210	23
211	20
215	19
216	46
217	38
218	55
219	44
220	27
221	19
226	43
228	25
229	27
230	31
231	48
232	33
233	22
234	19
240	22
241	28
242	19
243	33
244	76
245	100
246	41
247	33
257	51
258	28
259	100
260	21
261	32
269	20
270	26
271	29
273	47
275	19
287	33
304	39
305	29
306	27
309	19
310	19
329	104
330	24
331	36
338	34
339	31
340	19
343	26
345	19
348	25
353	19
354	22
355	25
356	24
359	28
360	20
361	19
362	24
366	21
367	22
369	95
370	28
371	33
372	40
373	44
374	82
375	42
376	39
383	33
387	31
389	212
390	113
391	120
392	43
393	23
401	228
402	70
403	176
404	139
405	66
406	46
407	32
415	30
417	297
418	76
419	96
420	24
431	22
445	24
453	20
454	44
459	51
469	36
470	54
471	40
473	22
475	20
485	45
486	78
487	158
488	571
489	209
490	194
491	56
503	34
504	499
505	148
506	154
507	45
