Mass Spectrum: 3-[3-Bromophenyl]-7-chloro-3,4-dihydro-10-hydroxy-1,9(2H,10H)-acridinedione
Formula: C19H13BrClNO3
CAS: 144128-92-7
Molecular weight: 417
m/z	intensity
41	659
42	96
43	999
44	104
45	94
46	7
47	8
49	32
50	116
51	183
52	60
53	106
54	72
55	614
56	241
57	647
58	46
59	24
60	50
61	28
62	46
63	129
64	35
65	70
66	58
67	126
68	87
69	329
70	215
71	306
72	11
73	94
74	62
75	186
76	107
77	247
78	96
79	53
80	19
81	100
82	101
83	227
84	111
85	137
86	31
87	52
88	42
89	72
90	43
91	64
92	15
93	26
94	57
95	63
96	51
97	170
98	59
99	65
100	50
101	91
102	115
103	103
104	32
105	39
106	33
107	25
108	29
109	38
110	80
111	115
112	55
113	66
114	94
115	92
116	35
117	25
118	11
119	33
120	14
121	28
122	17
123	48
124	39
125	54
126	52
127	57
128	85
129	43
130	18
131	21
132	13
133	35
134	15
135	19
136	36
137	50
138	47
139	52
140	45
141	29
142	8
143	28
144	9
145	24
146	7
147	61
148	24
149	45
150	21
151	33
152	25
153	37
154	42
155	26
156	23
157	14
158	7
159	10
161	54
162	28
163	56
164	43
165	38
166	20
167	11
168	13
169	29
171	26
173	8
174	7
175	10
176	10
177	10
178	15
179	21
180	19
181	15
182	25
183	17
184	16
185	15
186	7
187	11
188	15
189	13
190	21
191	19
192	12
193	16
194	7
195	11
197	6
199	7
200	13
201	14
202	15
203	11
204	12
205	16
206	10
207	9
208	8
209	25
211	23
212	7
213	6
214	10
215	9
216	17
217	20
218	18
219	119
220	23
221	41
222	8
223	8
227	12
228	19
229	8
230	8
232	16
234	11
235	8
236	7
237	6
238	12
240	8
244	17
245	24
246	54
247	15
248	30
249	12
250	11
252	9
254	7
256	11
258	6
262	48
263	10
264	23
279	9
280	10
292	10
293	16
294	11
295	7
320	29
321	45
322	23
323	21
324	7
360	8
372	12
374	15
388	7
390	9
399	24
400	36
401	113
402	62
403	112
404	37
405	29
406	6
415	10
416	9
417	64
418	24
419	71
420	21
421	18
