Mass Spectrum: Benzenesulfonamide, N,N-dimethyl-
Formula: C8H11NO2S
CAS: 14417-01-7
Molecular weight: 185
m/z	intensity
15	10
17	1
27	11
29	3
30	4
37	2
38	5
39	19
40	7
41	10
42	123
43	71
44	393
45	20
46	1
47	1
48	3
49	3
50	67
51	220
52	16
53	6
54	1
55	1
56	1
57	2
58	3
59	1
60	9
62	4
63	7
64	7
65	15
66	6
67	1
69	7
70	2
71	2
72	1
73	15
74	24
75	20
76	25
77	999
78	209
79	24
80	2
81	3
82	3
83	1
84	1
85	1
90	1
91	9
92	24
93	4
94	23
95	3
96	1
97	15
98	1
99	1
103	2
104	8
105	7
106	4
107	1
108	5
109	5
110	3
111	3
114	1
117	1
118	2
120	54
121	20
122	2
125	40
126	11
127	20
128	31
133	1
141	180
142	23
143	37
144	3
145	1
184	100
185	500
186	30
187	14
188	1
