Mass Spectrum: 1-[[3-[Dimethylamino]propyl]imino]-1,3,4,10-tetrahydro-3-(p-trifluoromethylphenyl)-9(2H)-acridinone
Formula: C25H26F3N3O
CAS: 144155-37-3
Molecular weight: 441
m/z	intensity
42	131
43	39
44	60
45	6
46	1
50	3
51	6
52	2
53	2
54	4
55	1
56	38
58	999
59	33
60	1
62	1
63	4
64	2
65	4
66	1
67	2
68	5
69	1
70	41
72	354
73	13
75	5
76	8
77	21
78	3
79	1
80	2
81	0
82	3
84	61
85	28
86	9
87	1
88	2
89	7
90	3
91	2
92	4
93	1
95	1
96	1
97	0
99	4
101	8
102	12
103	8
104	3
105	3
107	1
109	4
113	5
114	6
115	8
116	4
117	3
118	2
119	1
120	3
125	2
126	2
127	11
128	7
129	1
130	25
131	2
133	2
135	1
138	0
139	3
140	9
141	3
142	2
143	1
144	1
145	3
146	1
149	0
151	7
152	3
153	5
154	8
155	6
156	2
157	0
159	17
160	0
164	2
165	2
166	4
167	7
168	2
169	4
170	3
171	2
172	2
175	0
177	1
178	2
179	3
180	1
181	3
182	12
183	10
184	8
185	2
189	1
193	1
195	7
196	9
197	10
198	9
199	2
201	1
202	1
205	0
206	1
207	1
208	2
209	6
210	2
211	82
212	11
213	1
215	1
216	1
217	1
219	2
221	4
223	8
224	8
225	35
226	5
227	1
228	1
235	1
237	3
239	4
240	2
241	3
242	2
243	1
244	0
246	1
251	1
252	0
253	1
254	2
256	1
257	0
258	1
269	1
270	8
271	5
272	3
274	1
283	1
284	2
285	2
286	0
290	1
296	0
297	1
298	2
299	0
300	1
301	1
303	0
309	0
310	1
311	1
312	1
313	1
314	3
315	1
318	1
319	2
320	2
321	1
322	2
323	1
324	1
325	1
326	2
327	1
328	2
329	1
333	1
334	0
335	2
336	1
338	4
339	5
340	11
341	4
342	2
343	0
345	1
351	1
352	3
353	15
354	5
355	10
356	5
357	2
365	2
366	1
367	4
368	2
369	19
370	173
371	40
372	5
381	2
382	13
383	107
384	27
385	4
395	0
396	1
397	0
398	1
422	1
439	1
441	33
442	10
443	1
