Mass Spectrum: 1,2,4,5-Tetrazin-3-amine, 6-methyl-
Formula: C3H5N5
CAS: 14418-27-0
Molecular weight: 111
m/z	intensity
38	20
39	53
40	208
41	129
42	999
43	76
44	42
55	6
81	4
83	18
111	52
