Mass Spectrum: 1-[[2-[Butylamino]butyl]imino]-7-chloro-3-[2,4-dichlorophenyl]-1,3,4,10-tetrahydro-9(2H)-acridinone
Formula: C27H30Cl3N3O
CAS: 144155-60-2
Molecular weight: 517
m/z	intensity
41	54
42	38
43	43
44	27
45	10
47	16
48	7
52	2
53	4
54	7
55	29
56	28
57	55
58	85
59	4
60	10
61	3
63	2
65	2
66	1
67	10
68	6
69	26
70	12
71	23
72	145
73	16
74	3
75	2
76	0
77	5
78	9
79	3
80	2
81	6
82	7
83	14
87	4
88	8
89	1
91	4
92	0
93	2
94	1
95	4
96	4
97	9
98	14
99	10
100	6
101	4
102	2
105	2
106	6
107	2
109	3
110	3
111	6
112	19
114	999
115	74
116	3
117	0
119	2
121	2
123	3
124	6
125	4
126	3
127	7
128	5
129	5
131	5
135	2
136	3
137	3
138	2
139	3
140	3
141	3
142	0
143	2
145	0
147	1
148	0
149	3
150	2
151	2
152	2
153	2
154	2
155	1
157	0
159	9
161	5
162	0
163	2
164	4
165	1
166	2
167	1
169	1
171	1
172	0
173	0
174	1
181	0
183	0
185	2
191	0
195	0
197	0
203	0
208	0
213	1
216	1
217	1
218	1
219	6
220	0
221	0
227	0
228	0
230	1
231	1
232	0
237	3
238	4
239	2
240	2
241	2
243	1
244	2
245	1
246	0
255	0
256	2
257	2
259	0
264	1
269	0
274	0
284	1
303	1
304	2
305	0
338	2
339	2
340	2
341	1
368	0
391	1
403	2
405	1
416	0
417	0
