Mass Spectrum: 7-Chloro-1-[[3-[dimethylamino]propyl]imino]-1,3,4,10-tetrahydro-10-hydroxy-3,3-pentamethylene-9(2H)-acridinone
Formula: C23H30ClN3O2
CAS: 144128-46-1
Molecular weight: 415
m/z	intensity
42	183
43	48
44	101
45	19
47	44
48	20
49	1
51	0
52	3
53	13
54	9
55	27
56	36
57	31
58	999
59	36
63	2
65	5
66	2
67	17
68	8
69	7
70	33
71	25
72	251
73	11
75	4
77	10
78	3
79	12
80	3
81	15
82	6
83	9
84	1
86	1
88	17
89	3
91	7
93	4
95	8
99	7
100	2
101	2
102	2
103	2
105	2
110	2
111	4
113	2
114	2
115	2
117	1
123	3
125	2
126	3
127	5
128	4
129	2
130	2
136	5
138	5
139	3
140	5
141	2
148	4
149	2
150	2
151	4
152	5
153	5
154	8
155	5
162	4
163	2
164	13
165	4
166	9
167	6
168	2
176	2
177	4
178	7
179	6
180	6
181	2
182	3
183	2
188	4
189	2
190	4
191	5
192	7
193	6
194	4
195	6
196	2
200	5
201	2
202	2
203	5
204	6
205	5
206	7
207	3
208	5
209	2
213	2
214	5
215	2
216	7
217	14
218	18
219	12
220	10
221	5
222	2
227	1
228	2
229	6
230	22
231	15
232	15
233	13
234	9
235	5
236	2
238	2
240	2
241	5
242	15
243	12
244	17
245	14
246	9
247	6
248	3
249	2
250	3
251	2
253	3
254	10
255	12
256	19
257	18
258	17
259	17
260	7
261	5
262	2
263	1
264	2
266	2
267	5
268	12
269	16
270	22
271	20
272	79
273	22
274	26
275	6
280	3
281	7
282	10
283	16
284	18
285	72
286	27
287	26
288	9
293	4
294	6
295	4
296	6
297	13
298	31
299	19
300	17
301	9
302	3
307	5
309	5
310	2
311	15
312	6
313	16
314	15
315	35
316	11
317	11
318	2
323	2
325	9
326	6
327	24
328	250
329	58
330	84
331	18
332	1
339	6
340	48
341	178
342	61
343	62
344	25
345	3
346	2
350	4
352	4
353	3
354	2
355	6
356	6
357	9
358	2
359	2
370	5
372	4
385	2
397	2
398	2
399	33
400	11
401	11
402	2
413	2
415	37
416	10
417	12
418	2
