Mass Spectrum: 5,7-Dibromo-1-[[3-[dimethylamino]propyl]imino]-1,3,4,10-tetrahydro-3-(p-trifluoromethylphenyl)-9(2H)-acridinone
Formula: C25H24Br2F3N3O
CAS: 144155-35-1
Molecular weight: 597
m/z	intensity
44	15
58	999
59	17
70	13
71	52
72	367
84	70
85	48
367	28
369	54
526	140
527	41
528	258
529	56
530	125
531	14
539	14
541	42
543	12
