Mass Spectrum: 7-Chloro-1-([-3-(dimethylamino)propyl]imino)-3-(4-nitrophenyl)-1,3,4,10-tetrahydro-9(2H)-acridinone
Formula: C24H25ClN4O3
CAS: 144155-49-7
Molecular weight: 452
m/z	intensity
42	110
43	40
44	44
45	6
55	21
56	33
58	999
59	35
60	10
70	29
71	6
72	168
77	6
84	32
85	10
245	37
247	10
259	21
304	5
305	5
320	5
336	15
349	15
364	23
366	12
368	8
380	26
381	268
382	58
383	92
384	21
394	81
395	18
396	30
407	8
435	5
452	15
453	4
454	6
455	1
