Mass Spectrum: 1-[2-Propensulfonyl]chloride
Formula: C3H5ClO2S
CAS: 14418-84-9
Molecular weight: 140
m/z	intensity
41	999
42	119
43	700
44	13
45	89
46	10
47	4
48	76
49	18
50	4
51	8
53	6
54	0
55	25
57	31
58	5
59	3
60	24
61	3
63	7
64	57
65	14
67	10
68	2
69	29
71	22
72	2
73	14
74	1
75	5
76	56
77	1
78	25
79	5
80	0
81	8
82	6
83	31
85	20
86	2
87	1
88	1
89	1
94	2
95	6
96	6
97	6
99	14
101	6
103	0
105	636
107	69
108	1
112	1
113	2
114	0
115	2
117	1
119	2
121	2
122	0
123	3
124	0
125	3
126	0
138	2
139	1
140	19
141	3
142	0
