Mass Spectrum: 2,4-Hexadienedioic acid, diethyl ester
Formula: C10H14O4
CAS: 1441-57-2
Molecular weight: 198
m/z	intensity
26	100
27	307
28	121
29	509
30	12
31	11
32	1
36	0
37	2
38	6
39	64
40	20
41	152
42	17
43	41
44	16
45	65
46	3
47	0
48	0
49	4
50	67
51	186
52	268
53	91
54	91
55	38
56	2
57	1
58	0
59	0
60	0
61	0
62	1
63	1
64	0
65	1
66	2
67	5
68	32
69	99
70	10
71	2
73	1
74	0
75	2
76	2
77	7
78	4
79	166
80	121
81	149
82	17
83	48
84	9
85	2
86	1
87	1
90	0
91	0
92	0
93	1
94	0
95	16
96	33
97	999
98	78
99	9
100	0
101	2
102	3
103	2
104	1
105	0
106	10
107	63
108	158
109	13
110	1
111	2
112	3
113	2
114	0
115	0
116	1
117	2
118	1
119	0
120	0
121	0
122	1
123	178
124	87
125	447
126	57
127	5
128	0
129	0
134	20
135	1
136	2
137	0
139	0
140	0
141	48
142	36
143	2
144	0
145	0
146	0
147	0
148	0
149	0
150	0
152	181
153	556
154	78
155	8
156	0
169	47
170	33
171	3
172	0
177	0
180	1
183	3
198	175
199	19
200	2
