Mass Spectrum: 5-Chloro-3-[2,4-dichlorophenyl]-1-[[3-[dimethylamino]propyl]imino]-9(2H)-acridinone
Formula: C24H24Cl3N3O
CAS: 144155-41-9
Molecular weight: 475
m/z	intensity
41	129
43	83
45	5
48	1
50	2
51	1
52	1
53	4
55	14
56	29
58	999
59	26
62	2
63	2
65	4
68	6
70	33
72	262
73	9
75	10
77	5
78	1
80	3
82	4
84	53
85	24
86	12
87	2
89	5
90	2
97	2
99	8
101	10
102	6
103	1
110	6
111	5
113	8
114	4
115	5
116	1
118	2
120	1
123	6
124	1
125	6
126	7
127	7
128	3
135	2
136	14
137	13
138	7
139	10
140	7
141	3
146	1
148	4
149	5
150	5
151	5
152	6
153	7
154	4
155	4
159	30
161	24
162	5
163	4
164	20
166	12
167	2
168	1
169	1
171	1
172	7
174	10
176	5
177	2
179	4
180	1
181	2
182	3
183	2
186	1
187	2
188	4
189	4
190	2
191	2
193	2
194	1
195	3
197	3
198	1
200	2
201	2
202	3
204	3
205	2
208	1
209	2
210	2
211	2
213	4
214	1
215	1
216	12
217	7
218	11
219	5
220	2
221	1
223	2
224	3
226	1
227	2
228	2
229	4
230	6
231	8
232	8
233	2
234	2
236	1
237	2
238	3
239	4
240	7
241	7
243	5
244	6
245	50
247	23
248	2
250	3
252	2
253	2
255	3
257	7
258	6
259	28
261	13
262	2
264	1
268	1
269	4
271	3
273	3
274	2
275	5
276	3
278	2
279	2
283	1
285	1
287	1
289	1
290	1
302	1
303	6
304	11
305	6
306	4
307	1
313	1
314	4
315	1
316	3
317	2
318	4
319	2
320	1
326	1
327	1
328	1
338	8
339	8
340	10
341	6
342	4
343	2
348	1
350	1
352	2
353	3
354	2
355	3
356	1
362	1
367	1
368	1
369	16
370	4
371	10
372	2
373	2
374	3
375	2
376	3
377	1
378	1
381	1
383	1
387	4
388	1
389	7
390	2
391	5
392	1
393	1
403	6
404	66
405	18
406	62
407	15
408	20
409	4
410	2
416	3
417	35
418	12
419	35
420	9
421	11
422	2
423	1
475	7
476	2
477	7
478	2
479	2
