Mass Spectrum: 7-Chloro-1-[[3-[dimethylamino]propyl]imino]-1,3,4,10-tetrahydro-10-hydroxy-3-(pyridin-4-yl)-9(2H)-acridinone
Formula: C23H25ClN4O2
CAS: 144128-66-5
Molecular weight: 424
m/z	intensity
42	125
43	38
44	96
45	31
50	4
51	21
52	8
56	44
58	999
59	30
63	4
65	8
70	39
71	13
72	198
73	9
75	12
77	10
78	12
79	8
84	65
85	52
86	21
93	18
99	8
104	12
106	23
111	4
128	4
136	5
139	4
140	4
164	15
166	4
217	4
219	3
243	4
245	26
246	9
247	5
259	28
261	4
271	4
281	14
295	8
306	9
307	16
308	4
320	15
321	12
322	20
323	16
324	26
325	8
326	8
334	11
335	15
336	21
337	114
338	29
339	38
340	10
348	13
349	10
350	51
351	12
352	18
357	23
358	3
359	19
408	23
410	8
424	17
425	5
426	6
427	1
