Mass Spectrum: 7-Chloro-3,4-dihydro-3-[2-methoxyphenyl]-1,9(2H,10H)-acridinedione
Formula: C20H16ClNO3
CAS: 144155-06-6
Molecular weight: 353
m/z	intensity
41	97
42	31
43	136
44	11
45	26
50	112
51	322
52	103
53	102
55	116
56	8
57	22
61	16
62	61
63	274
64	80
65	380
66	55
67	28
68	25
69	49
71	14
73	49
74	68
75	338
76	106
77	448
78	157
79	79
80	10
81	27
82	34
83	10
84	19
85	16
86	24
87	92
88	83
89	188
91	999
92	75
93	57
94	75
95	48
97	26
98	19
99	71
100	85
101	235
102	194
103	111
104	35
105	70
106	17
108	234
110	197
111	96
112	79
113	84
114	196
115	207
117	20
118	49
119	187
121	310
122	79
123	107
124	41
125	49
126	89
127	127
128	417
129	14
130	53
131	72
132	26
134	117
135	58
136	151
137	195
138	123
139	110
140	77
141	63
143	58
146	47
147	71
148	29
149	31
150	44
151	97
152	86
153	97
154	141
155	46
156	115
157	15
159	13
160	54
161	56
162	139
163	394
164	115
165	127
166	41
167	11
169	102
173	11
174	16
175	14
177	284
179	22
181	13
182	27
183	22
184	9
185	11
186	12
187	12
188	39
189	23
190	47
191	73
192	24
193	95
194	13
195	27
198	16
200	15
201	19
202	26
203	26
204	44
205	16
206	39
207	10
208	12
211	29
212	22
214	22
215	14
216	68
217	77
218	97
219	352
220	69
221	139
222	22
223	12
227	22
228	35
229	21
230	29
232	599
233	96
234	215
235	34
236	13
238	16
240	15
241	12
242	9
244	34
245	103
246	679
247	119
248	212
249	30
254	10
256	16
257	14
258	13
260	15
262	10
264	13
266	16
267	34
268	21
269	20
270	11
278	11
279	33
280	107
281	39
282	54
283	15
284	13
285	21
286	10
290	10
291	10
292	29
293	18
294	97
295	41
296	53
297	23
298	12
304	44
305	11
306	61
307	31
308	37
309	29
310	61
311	17
312	19
317	12
318	30
319	36
320	69
321	24
322	178
323	42
324	133
325	34
326	31
327	9
334	0
335	50
336	76
337	45
338	91
339	19
340	27
351	22
352	261
353	924
354	282
355	311
356	73
357	10
