Mass Spectrum: 1-[Butylimino]-7-chloro-1,3,4,10-tetrahydro-3-[4-trifluoromethylphenyl]-9(2H)-acridinone]
Formula: C24H22ClF3N2O
CAS: 144155-31-7
Molecular weight: 446
m/z	intensity
41	40
42	23
43	133
44	142
45	145
46	45
47	12
49	15
51	15
55	64
56	183
57	172
58	672
59	125
60	107
61	75
62	13
63	14
67	18
69	22
70	17
71	30
72	113
73	52
74	78
75	36
77	28
79	32
81	42
82	18
83	38
84	85
85	47
86	999
87	105
88	31
89	57
95	16
96	19
97	18
98	55
99	31
100	13
101	12
109	18
110	17
111	14
112	37
114	14
122	15
123	20
124	42
125	30
126	108
127	55
128	74
129	58
130	12
133	13
135	12
136	12
140	14
151	30
153	12
154	142
155	16
156	13
159	13
163	16
182	15
183	44
184	17
185	85
186	56
187	58
188	44
189	33
190	92
191	149
192	38
193	84
194	24
195	53
196	32
197	31
199	50
200	19
201	35
202	21
203	28
204	15
209	14
213	49
215	162
216	31
217	16
218	41
219	201
220	27
221	77
230	14
231	16
232	19
239	15
240	13
241	25
242	15
243	17
244	36
245	64
246	72
247	29
248	20
253	15
256	17
257	21
258	16
259	42
261	13
262	14
272	14
273	12
348	15
391	266
392	55
393	82
394	14
446	10
