Mass Spectrum: Azacyclohexane, 1-[2-[3,4-dichlorophenyl]ethyl]-3-[1-pyrrolidyl]-
Formula: C17H24Cl2N2
CAS: 144243-05-0
Molecular weight: 326
m/z	intensity
41	72
42	83
43	27
44	16
45	3
47	2
49	3
50	1
51	5
52	2
53	9
54	23
55	45
56	20
57	11
58	2
60	1
62	3
63	6
64	0
65	3
66	0
67	11
68	28
69	55
70	37
71	5
72	3
73	4
74	1
75	5
77	14
78	3
79	42
80	107
81	48
82	115
83	17
84	109
85	9
86	2
89	9
91	4
93	2
94	9
95	7
96	87
97	63
98	234
99	21
100	1
101	15
102	19
103	18
104	3
105	6
108	7
110	999
111	89
112	5
113	1
115	1
116	1
118	1
119	1
121	4
122	3
123	10
124	43
125	11
126	4
127	3
131	1
133	3
135	1
136	4
137	15
138	13
139	18
140	5
141	4
144	1
148	2
149	5
150	3
151	1
152	1
153	1
155	1
156	3
159	16
160	1
161	10
163	3
164	1
165	6
166	2
167	274
168	32
169	3
171	2
172	9
173	32
174	9
175	21
176	4
177	4
178	0
181	5
182	37
183	6
184	12
185	2
187	1
190	1
191	1
195	0
198	2
200	1
202	1
208	1
211	1
216	138
217	17
218	90
219	13
220	17
221	2
222	4
223	0
225	2
226	0
232	1
235	0
238	1
240	2
242	6
243	1
244	4
246	1
250	0
251	2
254	3
255	1
256	15
257	8
258	11
259	5
260	2
265	1
268	1
269	1
272	0
278	1
280	1
283	2
290	1
292	4
295	1
297	1
307	1
311	2
312	1
325	1
326	23
327	5
328	15
329	3
330	2
