Mass Spectrum: Azacyclohexane, 3-[1-pyrrolidyl]-
Formula: C9H18N2
CAS: 144243-28-7
Molecular weight: 154
m/z	intensity
41	83
42	60
43	39
44	26
45	6
46	1
48	0
49	0
50	1
51	2
52	3
53	14
54	37
55	58
56	56
57	17
58	2
60	0
63	3
65	2
66	1
67	12
68	41
69	86
70	65
71	10
72	5
73	0
75	0
76	0
77	2
78	2
79	68
80	179
81	76
82	206
83	36
84	190
85	15
86	5
87	1
88	0
91	2
93	1
94	8
95	8
96	96
97	140
98	23
99	3
100	2
107	1
108	12
110	999
111	231
112	19
113	6
114	1
115	0
116	1
120	0
122	5
123	13
124	32
125	16
126	3
127	1
128	1
129	0
131	0
137	1
138	0
139	3
140	0
151	0
152	1
153	9
154	157
155	18
156	2
