Mass Spectrum: Hexane-1,6-dicarbamic acid, bis(2-ethoxyethyl) diester
Formula: C16H32N2O6
CAS: 144210-57-1
Molecular weight: 348
m/z	intensity
33	2
34	0
37	0
39	12
41	124
43	299
45	999
47	9
52	1
53	7
55	108
56	73
59	340
61	10
62	9
63	6
65	1
66	2
67	13
69	28
70	62
72	675
73	350
74	97
75	9
76	3
77	1
79	3
80	3
81	13
82	32
83	21
84	29
86	331
88	103
89	16
91	594
93	2
94	2
96	17
98	220
99	104
100	56
101	60
102	33
103	7
105	1
106	0
107	0
108	0
110	1
112	23
114	71
115	37
116	30
117	33
118	3
119	2
121	0
124	8
125	45
126	26
128	22
130	85
131	7
132	2
134	29
135	1
139	0
141	107
142	50
143	56
144	9
147	91
149	4
152	0
154	0
156	56
157	13
160	102
161	57
162	4
166	0
168	93
169	34
170	32
172	9
174	44
175	25
176	2
179	0
180	0
181	0
183	0
185	10
187	53
188	111
189	49
190	6
199	3
200	8
202	234
203	149
204	18
205	2
211	8
213	106
214	77
215	62
216	61
217	12
218	1
227	0
228	1
229	3
231	116
232	24
233	18
235	1
241	0
242	0
243	3
244	0
245	0
255	0
257	5
258	77
259	86
260	13
261	1
273	0
275	2
276	1
286	0
287	1
290	0
301	0
303	45
304	20
305	3
343	0
345	0
346	2
347	5
348	111
350	35
351	4
354	0
