Mass Spectrum: Azacyclohexane, 1-[(3,4-dichlorophenyl)acetyl]-3-[1-pyrrolidyl]-
Formula: C17H22Cl2N2O
CAS: 144243-30-1
Molecular weight: 340
m/z	intensity
41	62
42	50
43	27
44	17
45	39
46	18
47	1
48	0
49	1
50	1
51	2
53	11
54	29
55	64
56	29
57	10
58	1
59	2
60	2
62	4
63	8
65	3
67	13
68	32
69	62
70	98
71	9
72	6
73	9
74	2
75	3
77	1
79	9
80	25
81	18
82	43
83	25
84	138
85	9
86	3
87	4
88	4
89	24
90	2
91	5
93	2
94	8
95	16
96	59
97	79
98	18
99	6
100	4
101	1
103	3
107	1
108	47
110	999
111	109
112	11
113	3
114	1
116	1
117	1
119	1
122	15
123	344
124	104
125	18
126	8
127	3
129	1
130	1
131	3
133	7
135	3
137	1
138	3
139	2
143	2
144	2
148	0
149	1
150	1
151	1
152	5
153	36
154	6
155	1
159	75
160	7
161	49
162	3
163	7
164	3
165	1
166	1
168	2
171	9
172	2
173	2
178	1
179	1
180	0
181	3
182	1
184	1
185	1
186	5
188	2
190	1
192	2
198	4
205	0
206	1
207	3
208	1
210	2
213	2
218	1
219	8
220	2
223	0
224	2
228	3
230	2
233	3
237	5
240	1
244	1
245	3
249	1
252	1
253	1
257	1
259	1
260	1
262	1
263	1
265	1
268	1
269	3
270	5
271	4
272	8
273	2
274	1
275	1
277	1
279	2
280	1
284	1
286	2
290	1
292	2
298	1
299	1
301	0
302	0
305	1
307	2
311	1
312	1
314	0
318	1
319	1
320	1
324	1
325	2
326	1
338	1
339	6
340	82
341	12
