Mass Spectrum: Pyrazolo[3,4-d]pyrimidine-4,6(5H,7H)-dione, 1-benzyl-3-(2-furyl)-5-methyl-
Formula: C17H14N4O3
CAS: 144294-72-4
Molecular weight: 322
m/z	intensity
34	0
36	0
37	0
38	2
39	22
40	10
41	7
42	1
43	2
44	2
45	0
50	2
51	9
52	3
53	1
54	0
55	2
56	2
57	1
58	4
59	0
60	0
61	1
62	8
63	30
64	14
65	62
66	3
67	0
68	1
69	1
70	1
71	0
74	0
75	1
76	3
77	7
78	3
79	1
80	0
81	0
82	0
83	1
84	0
88	3
89	15
91	999
92	76
93	3
94	2
95	0
101	0
102	0
103	1
104	3
105	4
106	2
107	1
108	1
109	0
112	0
113	0
115	1
116	1
117	10
118	59
119	54
120	5
121	1
122	0
123	0
127	1
128	1
129	1
130	0
131	1
132	1
133	1
134	1
135	0
139	0
140	0
141	1
142	0
143	1
144	4
145	0
146	3
147	0
149	0
151	0
152	2
153	1
154	0
155	1
156	0
159	0
160	1
161	1
164	0
165	0
166	1
167	1
168	0
169	0
170	0
171	7
172	1
173	0
174	10
175	2
176	0
177	0
178	0
179	1
180	2
181	1
182	0
183	0
187	0
188	4
189	0
190	0
191	0
192	0
193	1
194	0
195	0
197	0
198	0
201	1
202	1
203	1
205	0
206	0
207	0
208	3
209	2
210	1
217	1
218	0
219	0
220	1
221	0
222	0
223	0
228	0
229	0
230	0
231	8
232	1
235	0
236	12
237	11
238	1
245	3
246	0
249	2
250	0
251	0
255	0
262	1
263	0
264	19
265	12
266	2
267	1
268	7
269	1
279	0
280	0
283	0
291	0
292	2
293	11
294	3
295	0
299	1
300	0
301	0
305	0
317	0
319	2
320	3
321	16
322	637
323	123
324	16
325	1
