Mass Spectrum: 2-Octadecenoic acid, methyl ester
Formula: C19H36O2
CAS: 14435-34-8
Molecular weight: 296
m/z	intensity
26	10
27	201
28	55
29	470
30	12
31	8
32	4
33	5
38	5
39	176
40	51
41	890
42	168
43	999
44	34
45	24
50	4
51	11
52	11
53	168
54	85
55	478
56	96
57	352
58	20
59	126
60	5
61	4
62	1
63	3
65	21
66	24
67	184
68	134
69	176
70	42
71	100
72	10
73	11
74	142
75	42
76	3
77	18
78	6
79	42
80	22
81	260
82	73
83	92
84	47
85	67
86	6
87	193
88	15
89	4
91	10
92	4
93	20
94	17
95	104
96	69
97	71
98	35
99	21
100	184
101	30
102	5
103	2
105	5
106	3
107	11
108	10
109	48
110	26
111	45
112	13
113	579
114	64
115	18
116	4
117	2
119	6
120	4
121	9
122	6
123	30
124	13
125	17
126	21
127	28
128	13
129	7
130	3
133	5
134	5
135	8
136	5
137	15
138	10
139	10
140	5
141	20
142	7
143	10
144	5
147	4
148	3
149	5
150	5
151	10
152	9
153	8
154	5
155	9
156	5
157	5
158	3
161	3
162	3
163	3
164	3
165	7
166	7
167	5
168	4
169	10
170	5
171	4
172	3
179	5
180	10
181	4
182	2
183	7
184	3
185	6
186	5
193	4
194	4
195	2
197	5
198	3
199	45
200	9
201	3
207	4
208	3
209	3
210	3
211	3
212	3
213	20
214	5
220	7
221	5
222	18
223	7
224	3
225	3
227	4
228	4
235	4
236	4
237	2
239	3
240	3
241	3
242	3
246	4
253	4
254	3
255	3
263	3
264	24
265	36
266	9
267	4
268	3
278	2
287	1
294	3
295	4
296	79
297	19
298	5
299	2
