Mass Spectrum: l-Alanine, N-[N-[(1,1-dimethylethoxy)carbonyl]-d-phenylalanyl]-
Formula: C17H24N2O5
CAS: 144345-57-3
Molecular weight: 336
m/z	intensity
26	1
27	28
28	54
29	96
30	8
31	19
37	0
38	2
39	39
40	7
41	149
42	29
43	26
44	210
45	28
46	4
50	3
51	13
52	3
53	4
54	2
55	22
56	31
57	999
58	47
59	35
60	0
62	1
63	6
64	1
65	37
66	2
70	24
71	10
72	4
73	5
74	9
75	0
76	1
77	31
78	10
79	3
83	2
84	0
85	1
87	7
88	28
89	9
90	16
91	202
92	69
93	12
94	0
97	0
98	5
99	79
100	11
101	2
102	3
103	48
104	22
105	9
106	0
116	2
117	7
118	30
119	28
120	669
121	61
122	1
126	2
127	23
128	30
129	2
130	3
131	59
132	23
133	2
143	0
144	1
145	140
146	52
147	9
148	2
158	0
160	2
163	13
164	307
165	33
166	2
172	0
173	0
174	14
175	184
176	29
177	2
189	10
190	1
191	0
192	3
201	5
217	24
218	20
219	41
220	117
221	18
222	0
235	0
236	8
237	19
238	1
245	7
246	0
248	0
262	3
263	47
264	6
280	99
281	35
282	4
294	0
336	2
337	7
338	1
