Mass Spectrum: 2,7-Octadien-4-ol, 2-methyl-6-methylene-
Formula: C10H16O
CAS: 14434-41-4
Molecular weight: 152
m/z	intensity
26	1
27	18
28	3
29	42
30	1
31	6
37	1
38	4
39	74
40	13
41	193
42	13
43	44
44	3
45	3
50	7
51	19
52	10
53	40
54	5
55	89
56	20
57	64
58	3
59	1
60	1
61	1
62	2
63	7
64	2
65	62
66	14
67	133
68	63
69	36
70	10
72	1
74	1
75	1
76	1
77	21
78	7
79	30
80	4
81	15
82	7
83	67
84	12
85	999
86	51
87	3
89	3
90	1
91	32
92	8
93	11
94	5
95	11
96	13
97	13
98	2
102	1
103	4
104	2
105	10
106	5
107	5
108	24
109	47
110	12
115	4
116	2
117	8
118	1
119	32
120	4
121	11
122	1
123	11
124	2
133	1
134	17
135	2
137	8
138	1
152	6
153	1
