Mass Spectrum: n-Propyl cyanoacetate
Formula: C6H9NO2
CAS: 14447-15-5
Molecular weight: 127
m/z	intensity
26	12
27	134
29	75
30	8
31	39
37	1
39	59
40	132
41	205
42	283
43	303
44	20
54	2
57	83
58	7
59	27
60	11
61	1
67	20
68	999
69	36
70	1
86	290
87	10
98	11
99	23
100	2
112	38
113	2
126	3
