Mass Spectrum: Propan-1-one, 3-(4-amino-1,2,4-triazol-2-yl)thio-3-(4-nitrophenyl)-1-phenyl-
Formula: C17H15N5O3S
CAS: 144459-27-8
Molecular weight: 369
m/z	intensity
33	5
34	0
38	1
39	10
40	2
41	2
43	39
45	21
46	2
47	1
48	0
51	99
52	5
53	1
55	2
56	1
58	29
60	21
62	2
63	11
65	9
66	0
67	0
68	0
70	3
71	6
72	1
74	12
77	555
78	29
80	0
82	0
84	1
85	6
86	1
87	2
89	11
90	10
91	11
92	3
93	0
94	0
95	0
96	0
97	0
98	0
100	9
102	33
103	28
105	827
107	3
108	1
109	1
110	0
111	0
112	0
116	999
117	117
118	45
119	7
120	4
121	1
122	1
123	0
125	8
126	1
128	1
129	2
130	8
131	3
132	2
133	1
134	2
135	2
136	1
137	0
139	0
140	0
141	0
142	0
143	0
144	0
146	5
148	6
149	5
150	1
151	1
152	2
153	0
155	0
158	0
159	0
160	0
161	0
162	0
163	3
165	3
166	0
167	1
168	0
169	0
171	0
173	0
174	3
176	24
177	4
178	11
179	4
180	1
181	0
183	0
185	0
186	0
187	1
189	1
190	2
191	2
192	1
193	1
194	0
195	1
197	0
201	1
202	0
203	0
204	0
206	10
207	5
208	3
209	0
216	0
218	7
219	3
220	5
222	3
223	8
224	1
225	1
226	0
232	0
233	1
234	1
236	9
237	7
238	2
239	0
240	0
248	3
249	1
250	5
251	4
254	85
255	11
256	0
259	0
261	1
262	7
264	81
265	9
266	4
267	0
269	1
279	0
309	1
310	0
311	2
312	0
323	0
336	0
337	0
339	0
363	0
364	0
366	3
367	3
369	63
370	11
371	3
372	0
