Mass Spectrum: Boroxin, tris(bicyclo[3.3.1]non-9-yl)-
Formula: C27H45B3O3
CAS: 144499-09-2
Molecular weight: 450
m/z	intensity
26	4
27	21
29	52
39	21
41	139
42	18
43	40
52	4
53	41
54	29
55	203
56	16
57	22
58	3
65	16
66	31
67	473
68	51
69	96
70	15
71	9
77	43
78	19
79	258
80	183
81	999
82	90
83	63
84	6
89	7
91	63
92	26
93	182
94	97
95	229
96	49
97	24
103	10
104	8
105	47
106	39
107	393
108	47
109	112
110	16
111	8
115	4
117	15
118	9
119	42
120	60
121	255
122	389
123	87
124	7
126	4
127	5
129	4
130	6
131	13
132	9
133	22
134	18
135	21
136	11
137	9
140	6
141	5
144	4
145	9
146	12
147	29
148	22
149	25
150	5
151	10
153	4
154	11
155	10
158	4
159	7
160	8
161	18
162	14
163	5
167	4
168	10
169	11
171	6
172	6
173	11
174	6
175	16
176	12
177	9
182	6
186	5
187	6
188	4
189	12
190	5
196	4
198	4
200	5
201	7
202	4
203	11
213	4
215	5
217	5
224	5
228	4
229	6
230	5
241	4
242	5
243	6
254	6
255	5
256	9
257	4
267	5
268	4
269	7
270	10
271	6
281	6
282	8
283	8
284	8
285	7
294	5
295	4
296	5
297	11
298	9
299	10
309	8
310	7
311	13
312	9
313	6
314	6
322	6
323	13
324	10
325	20
326	11
327	8
336	9
337	10
338	11
339	12
340	12
342	9
343	9
350	10
351	16
352	12
353	11
363	5
364	15
365	37
366	46
367	36
368	10
369	5
377	4
378	25
379	50
380	64
381	42
382	8
391	8
392	29
393	53
394	29
395	13
396	9
405	30
406	145
407	306
408	316
409	134
410	30
411	5
419	19
420	106
421	287
422	303
423	77
424	16
434	6
435	13
436	9
447	12
448	128
449	452
450	701
451	187
452	36
453	4
