Mass Spectrum: 1,3-Dioxolane, 2-methyl-2-(3-methylbutyl)-
Formula: C9H18O2
CAS: 14447-30-4
Molecular weight: 158
m/z	intensity
26	20
27	63
29	50
39	50
40	23
41	90
42	30
43	380
44	40
45	40
51	20
53	20
55	62
56	30
57	30
58	30
59	40
67	22
69	35
70	25
71	40
72	40
73	23
77	45
81	40
84	20
85	63
86	20
87	999
88	50
95	20
97	20
99	20
105	40
115	20
122	20
124	30
125	20
126	20
143	160
144	23
