Mass Spectrum: Diethyl bis(2-cyanoethyl)malonate
Formula: C13H18N2O4
CAS: 1444-05-9
Molecular weight: 266
m/z	intensity
15	7
19	1
26	17
27	144
29	414
30	13
31	13
37	1
38	5
39	43
40	15
41	205
42	23
43	22
44	12
45	30
46	1
47	1
50	3
51	16
52	29
53	218
54	59
55	32
56	3
57	2
59	3
63	3
64	6
65	36
66	22
67	40
68	9
69	340
70	24
71	3
72	3
73	3
76	1
77	4
78	20
79	8
80	124
81	22
82	16
83	5
84	2
85	2
87	1
90	1
91	2
92	42
93	8
94	33
95	7
96	17
97	9
98	25
99	41
100	3
101	4
104	3
105	1
106	26
107	9
108	999
109	79
110	8
111	2
112	3
113	5
117	2
118	1
119	30
120	14
121	45
122	14
123	2
124	33
125	3
126	138
127	113
128	8
129	1
136	3
137	8
138	7
139	2
140	3
141	1
145	16
146	5
147	149
148	118
149	104
150	12
151	1
152	7
154	303
155	29
156	2
163	1
165	39
166	12
167	5
168	5
173	156
174	14
175	2
177	14
178	1
180	2
182	34
183	3
192	2
193	30
194	15
195	2
198	1
213	2
221	51
222	6
226	1
239	1
