Mass Spectrum: 1,6-Anhydro-2,3-O-isopropylidene-.beta.-D-mannopyranose
Formula: C9H14O5
CAS: 14440-51-8
Molecular weight: 202
m/z	intensity
14	2
15	48
16	1
19	19
25	1
26	13
27	100
28	41
29	226
30	14
31	156
32	2
33	1
37	2
38	7
39	136
40	24
41	229
42	114
43	999
44	127
45	67
46	3
47	27
50	3
51	8
52	6
53	38
54	26
55	211
56	45
57	179
58	24
59	673
60	114
61	20
62	1
63	1
65	1
66	1
67	3
68	15
69	266
70	157
71	210
72	26
73	165
74	7
75	2
79	1
80	2
81	103
82	7
83	23
84	13
85	971
86	54
87	12
88	2
89	9
93	1
95	3
96	2
97	134
98	74
99	203
100	419
101	62
102	10
103	13
104	1
105	1
109	7
110	2
111	4
113	8
114	3
115	20
116	1
117	1
123	1
125	1
126	2
127	117
128	9
129	14
130	1
131	2
139	2
141	8
142	1
143	3
144	2
145	6
156	4
157	1
169	1
171	1
185	1
186	1
187	919
188	80
189	12
190	1
202	1
