Mass Spectrum: 1,3-Dioxolane, 2-butyl-2-methyl-
Formula: C8H16O2
CAS: 14447-27-9
Molecular weight: 144
m/z	intensity
27	60
28	40
29	60
39	40
41	70
42	20
43	380
44	20
45	30
53	22
55	40
57	90
58	30
59	30
67	20
71	40
72	30
74	20
78	20
85	100
87	999
88	60
89	20
99	23
115	23
129	230
130	30
