Mass Spectrum: 1H-Isoindole-1,3(2H)-dione, hexahydro-
Formula: C8H11NO2
CAS: 1444-94-6
Molecular weight: 153
m/z	intensity
17	20
18	70
26	10
27	70
28	110
29	20
40	20
41	150
42	10
43	10
44	20
50	40
51	50
52	40
53	90
54	490
55	60
56	40
57	10
59	10
63	10
65	20
66	40
67	850
68	60
69	10
70	20
71	10
77	50
78	20
79	70
80	50
81	120
82	999
83	70
84	10
96	20
97	10
98	90
99	100
103	10
104	10
106	10
107	20
108	50
109	10
110	10
111	50
112	10
123	10
124	90
125	100
126	10
136	20
138	40
139	10
153	670
154	70
155	10
