Mass Spectrum: Methyl 4-O-benzyl-2,5-dideoxypentonate, (R,R)-, TBDMS derivative
Formula: C19H32O4Si
CAS: 144527-91-3
Molecular weight: 352
m/z	intensity
27	3
29	9
31	1
39	9
40	1
41	11
42	1
43	12
44	0
45	5
46	0
47	2
50	1
51	2
52	2
53	1
54	1
55	3
56	2
57	15
58	6
59	42
60	4
61	6
63	3
65	17
69	2
71	4
72	0
73	195
74	16
75	60
76	4
77	8
79	6
81	0
82	2
83	3
85	6
86	1
87	0
89	40
90	8
91	999
92	89
93	3
97	1
99	9
100	2
101	18
102	2
103	2
104	0
105	4
107	2
110	0
112	0
113	4
114	12
115	46
116	3
117	5
119	9
121	0
128	0
129	8
130	2
131	19
132	3
133	1
134	0
135	17
136	1
137	0
143	15
144	0
145	4
146	0
147	10
148	1
149	1
159	27
160	5
161	17
162	2
163	0
164	0
165	3
171	3
172	0
173	4
175	32
176	1
177	1
181	6
182	0
185	1
186	0
187	19
188	3
189	21
190	3
191	0
203	45
204	5
205	1
213	0
217	63
218	12
219	3
229	0
235	2
245	0
246	0
251	1
263	1
277	0
295	84
296	16
297	5
321	2
337	0
