Mass Spectrum: 2,4(1H,3H)-Pyrimidinedione, 5-.beta.-D-ribofuranosyl-
Formula: C9H12N2O6
CAS: 1445-07-4
Molecular weight: 244
m/z	intensity
55	267
60	971
61	999
67	115
68	87
69	123
70	92
71	140
73	112
82	501
84	121
87	202
98	115
112	112
113	67
114	177
125	332
126	160
137	309
138	168
139	95
141	436
142	191
165	183
171	73
178	59
179	67
207	18
208	577
209	67
210	10
226	18
238	9
244	3
