Mass Spectrum: Spiro[bicyclo[4.2.0]octa-1,3,5-triene-7,2'-[1,3]dioxolane]
Formula: C10H10O2
CAS: 14458-33-4
Molecular weight: 162
m/z	intensity
26	14
27	28
28	14
29	31
30	3
31	1
37	11
38	38
39	104
40	18
41	2
42	28
43	25
44	7
45	13
49	5
50	64
51	88
52	25
53	10
54	0
55	1
57	0
58	1
59	7
60	1
61	14
62	55
63	161
64	61
65	15
66	5
67	0
68	4
69	1
72	1
73	3
74	24
75	25
76	48
77	166
78	62
79	21
80	1
82	0
83	0
84	0
85	3
86	10
87	10
88	12
89	248
90	291
91	59
92	5
95	0
96	0
97	1
98	3
99	1
100	0
101	3
102	52
103	39
104	55
105	999
106	75
107	7
111	0
112	1
113	1
115	5
116	2
117	21
118	62
119	14
120	1
130	0
131	16
132	10
133	73
134	13
135	151
136	14
137	1
161	2
162	349
163	37
164	3
