Mass Spectrum: Phosphine, diisopropyl-(3-dimethylaminopropyl)-
Formula: C11H26NP
CAS: 144533-36-8
Molecular weight: 203
m/z	intensity
27	164
28	15
29	45
30	72
31	1
33	0
34	0
35	2
36	0
37	3
38	7
39	73
40	52
41	230
42	162
43	269
44	48
45	50
46	11
47	47
48	170
49	75
50	2
51	1
52	1
53	3
54	2
55	20
56	26
57	39
58	657
59	27
60	10
61	66
62	61
63	5
64	0
65	0
66	0
67	3
68	4
69	25
70	76
71	24
72	33
73	55
74	24
75	93
76	130
77	13
78	1
79	0
80	0
81	1
82	4
83	5
84	121
85	48
86	6
87	7
88	6
89	50
90	999
91	48
92	2
93	0
95	0
97	0
98	0
99	1
100	5
101	4
102	25
103	31
104	5
105	0
106	0
107	0
108	0
109	0
112	0
113	0
114	1
115	14
116	10
117	30
118	129
119	10
120	0
126	0
128	0
129	1
130	0
131	13
132	111
133	13
134	1
143	3
144	2
145	118
146	11
147	0
149	0
151	0
156	0
157	3
158	3
159	10
160	271
161	26
162	1
170	0
172	0
176	0
186	0
188	4
189	0
198	0
202	1
203	0
204	0
