Mass Spectrum: Ethane, 1,1,1-trimethoxy-
Formula: C5H12O3
CAS: 1445-45-0
Molecular weight: 120
m/z	intensity
26	7
27	27
28	14
29	77
30	9
31	61
32	23
33	1
39	0
40	0
41	4
42	56
43	999
44	20
45	42
46	2
47	112
48	2
50	0
55	0
56	0
57	13
58	13
59	34
60	0
61	11
62	0
72	0
73	2
74	6
75	3
88	25
89	589
90	25
91	2
104	0
105	98
106	4
107	0
