Mass Spectrum: 2,5-Bis(methoxymethoxy)hex-3-yne
Formula: C10H18O4
CAS: 14458-81-2
Molecular weight: 202
m/z	intensity
26	3
27	31
29	65
30	17
31	30
33	7
37	1
38	5
39	44
40	11
41	51
42	7
43	181
44	16
45	999
46	36
47	5
50	10
51	23
52	21
53	71
54	9
55	30
56	17
57	9
58	4
59	22
60	8
61	10
62	2
63	7
64	2
65	26
66	33
67	64
68	24
69	29
70	3
71	12
72	3
73	4
74	2
75	18
76	2
77	56
78	12
79	139
80	116
81	140
82	17
83	23
84	5
85	8
86	1
87	2
88	1
89	16
90	1
91	3
93	12
94	4
95	81
96	83
97	98
98	21
99	7
100	3
101	7
102	1
103	1
105	2
107	1
108	5
109	10
110	26
111	250
112	79
113	15
114	2
115	4
116	1
123	1
125	27
126	7
127	167
128	12
129	6
131	2
139	8
140	10
141	21
142	149
143	12
144	2
155	1
157	62
158	5
159	1
171	1
172	1
186	1
187	1
201	0
