Mass Spectrum: 9-Borabicyclo[3.3.2]decan-10-ol, 9-(1-oxopropoxy)-, propanoate
Formula: C15H25BO4
CAS: 144522-72-5
Molecular weight: 280
m/z	intensity
25	0
26	3
27	31
28	2
29	264
30	5
38	0
39	14
40	9
41	35
42	3
43	4
44	1
45	7
50	0
51	1
52	1
53	9
54	11
55	21
56	14
57	999
58	30
59	2
65	3
66	4
67	28
68	7
69	6
70	0
73	1
74	3
75	2
77	6
78	2
79	21
80	12
81	31
82	5
83	3
84	0
85	1
87	0
91	12
92	5
93	15
94	17
95	11
96	7
97	2
98	3
99	1
100	13
101	52
102	3
103	5
104	0
105	14
106	10
107	26
108	20
109	12
110	3
111	1
112	1
113	2
114	3
115	1
116	1
117	1
118	1
119	20
120	11
121	12
122	7
123	13
124	6
125	3
126	1
127	1
128	1
129	3
131	1
132	0
133	33
134	36
135	6
136	1
137	14
138	51
139	7
140	4
141	2
142	1
143	2
147	12
148	10
149	28
150	15
151	22
152	9
153	3
154	2
155	2
156	3
157	9
158	1
159	2
161	5
162	15
163	7
164	6
165	5
166	3
167	8
168	2
169	3
170	0
171	0
173	1
176	4
177	29
178	48
179	9
180	3
181	2
182	1
183	0
184	0
185	1
186	0
190	0
191	2
193	1
194	3
195	18
196	11
197	4
198	1
199	0
205	8
206	29
207	15
208	3
209	6
210	4
211	1
212	4
222	7
223	32
224	8
225	2
233	0
234	1
237	0
238	1
250	5
251	38
252	68
253	8
254	1
279	1
280	7
281	1
