Mass Spectrum: 4,6-Bis(t-butyl)-2-(dimethylbenzyl)phenol
Formula: C23H32O
CAS: 144688-99-3
Molecular weight: 324
m/z	intensity
34	9
36	5
37	4
39	149
40	120
41	673
43	165
44	51
45	4
49	2
50	11
51	67
52	20
53	42
55	104
57	999
58	30
59	3
60	2
62	3
63	17
65	58
66	12
67	28
68	4
69	24
70	9
71	12
72	9
73	6
74	4
75	5
76	76
78	165
79	94
80	34
81	16
82	16
83	8
84	4
85	6
86	14
87	7
89	21
91	262
92	23
93	17
94	23
95	9
96	7
97	7
98	2
99	1
100	3
101	12
102	15
103	70
104	26
105	83
106	9
107	20
108	9
109	5
110	9
111	18
113	3
114	2
115	66
116	23
117	34
119	116
120	11
121	11
122	2
123	2
124	3
125	11
127	20
128	46
129	35
130	10
131	27
132	10
133	31
134	6
135	5
136	1
137	1
138	1
139	11
141	16
142	27
143	17
144	7
145	18
147	135
149	4
150	2
151	6
152	15
153	11
154	8
155	9
156	6
157	10
158	6
159	14
160	6
161	9
162	2
163	2
164	3
165	14
167	14
168	3
169	4
171	10
172	5
173	10
174	5
175	21
176	5
177	5
178	21
179	14
181	9
182	3
183	5
184	3
185	3
186	1
187	8
188	5
189	29
190	11
191	13
192	7
193	6
194	4
195	4
196	1
197	2
198	1
199	3
201	13
202	12
203	25
204	9
205	9
206	4
207	5
208	2
209	4
210	1
211	5
212	1
214	2
215	23
216	6
217	11
218	3
219	5
220	3
221	13
222	3
223	1
225	1
226	1
227	1
229	7
231	307
232	50
233	6
234	2
235	3
236	1
237	3
238	1
239	1
245	7
246	8
247	8
248	1
249	1
251	2
253	5
263	1
264	1
265	1
267	10
268	3
269	1
279	3
281	1
291	1
292	1
293	11
294	4
295	16
296	3
297	1
305	4
306	7
307	18
309	622
310	153
311	18
312	1
324	316
325	85
326	10
