Mass Spectrum: 1,3-Cyclopentadiene-1,3-dicarboxylic acid, 5-[1-(dimethylamino)ethylidene]-2-methyl-, dimethyl ester
Formula: C14H19NO4
CAS: 14469-80-8
Molecular weight: 265
m/z	intensity
40	19
41	30
42	142
43	999
44	214
45	40
46	45
50	21
51	59
52	21
53	16
54	11
55	23
56	202
57	21
58	273
59	30
63	28
64	14
65	35
66	14
70	11
72	21
73	11
75	21
76	19
77	83
78	30
79	26
89	23
90	16
91	42
94	11
101	33
102	21
103	45
104	26
105	26
108	11
115	14
116	11
117	30
118	16
119	21
129	11
130	23
131	52
132	42
133	19
142	9
144	16
145	19
146	238
147	42
148	26
157	38
158	14
159	33
160	11
162	16
169	19
172	11
173	23
174	78
175	28
176	11
178	11
188	14
189	16
190	26
191	11
202	47
204	16
205	16
206	71
207	23
218	38
220	16
232	23
233	23
234	83
235	14
250	23
264	16
265	142
266	21
