Mass Spectrum: Benzene, (5-bromopentyl)-
Formula: C11H15Br
CAS: 14469-83-1
Molecular weight: 226
m/z	intensity
41	77
43	18
50	15
51	48
52	14
53	17
55	115
56	9
57	10
62	5
63	31
64	9
65	151
67	10
69	18
71	4
74	7
75	5
77	58
78	38
79	19
81	2
82	1
83	3
85	3
87	2
89	18
91	999
92	256
93	18
95	6
97	3
102	5
103	27
104	97
105	103
107	15
109	2
111	1
115	31
117	37
119	9
120	1
125	1
127	2
128	3
130	2
131	4
132	4
133	21
135	114
137	101
138	1
141	1
143	1
144	2
145	3
146	3
147	40
149	4
151	2
152	1
154	2
161	1
165	4
166	2
167	4
168	1
170	1
179	1
180	1
181	1
183	1
205	1
222	2
225	8
226	111
228	109
229	2
