Mass Spectrum: Benzenemethanol, .alpha.-(2-methylenecyclopentyl)-, (R*,R*)-
Formula: C13H16O
CAS: 144629-62-9
Molecular weight: 188
m/z	intensity
26	5
27	56
28	4
29	16
31	2
37	2
38	7
39	79
40	12
41	67
42	7
43	5
49	2
50	31
51	96
52	32
53	64
54	17
55	17
56	2
57	3
62	5
63	16
64	4
65	24
66	14
67	481
68	22
69	2
74	8
75	9
76	9
77	370
78	55
79	652
80	64
81	193
82	622
83	37
89	6
91	32
92	3
102	4
103	5
104	2
105	77
106	35
107	999
108	69
109	4
115	18
116	4
117	3
121	5
127	4
128	10
129	8
141	7
142	4
153	2
155	2
170	3
171	5
