Mass Spectrum: 1,4-Cyclopentadiene-1-carboxylic acid, 3-(1-aminoethylidene)-, methyl ester
Formula: C9H11NO2
CAS: 14469-78-4
Molecular weight: 165
m/z	intensity
40	29
41	78
42	727
43	38
49	10
50	54
51	100
52	90
53	74
54	38
55	14
56	10
57	10
59	29
61	36
62	100
63	190
64	72
65	345
66	69
67	23
68	45
69	3
74	27
75	18
76	27
77	190
78	72
79	999
80	21
81	10
86	9
87	9
88	9
89	36
90	90
91	54
92	45
93	163
94	21
95	18
96	7
104	54
105	45
106	63
107	109
108	16
109	14
117	14
118	149
119	16
120	38
121	3
122	40
132	10
133	23
134	672
135	81
136	9
164	7
165	310
166	38
