Mass Spectrum: 2-Monomyristin, 2TMS derivative
Formula: C23H50O4Si2
CAS: 14473-56-4
Molecular weight: 446
m/z	intensity
26	10
27	70
28	80
29	170
30	10
31	10
32	10
36	10
39	40
40	10
41	310
42	80
43	500
44	50
45	110
46	10
47	40
52	10
53	20
54	30
55	300
56	80
57	360
58	40
59	100
60	30
61	40
66	10
67	40
68	20
69	110
70	40
71	160
72	40
73	999
74	90
75	440
76	30
77	30
79	10
80	10
81	40
82	10
83	60
84	40
85	90
86	10
87	20
88	20
89	50
90	10
91	10
93	10
95	60
96	10
97	50
98	60
99	30
100	20
101	100
102	20
103	500
104	50
105	40
106	10
107	10
109	30
110	10
111	30
112	20
113	40
114	10
115	30
116	50
117	110
118	20
119	20
121	10
123	20
125	10
127	10
128	20
129	230
130	130
131	160
132	40
133	110
134	20
135	20
137	10
141	30
142	10
143	20
144	10
145	60
146	20
147	520
148	80
149	70
150	10
151	10
154	10
155	20
156	10
157	20
158	10
159	40
160	10
161	10
163	30
167	10
168	10
169	10
171	10
172	10
173	20
174	10
175	100
176	20
177	30
185	10
187	10
188	10
189	30
190	10
191	170
192	30
193	20
199	10
201	30
202	10
203	230
204	40
205	50
206	10
207	20
211	190
212	30
213	10
216	20
217	180
218	810
219	190
220	70
221	70
222	20
223	10
229	10
237	10
241	10
243	10
246	10
247	40
248	10
249	30
250	10
257	10
263	10
275	10
278	20
279	10
283	10
285	300
286	70
287	20
290	10
291	10
292	10
299	40
300	10
301	20
312	10
327	10
329	10
332	10
333	20
334	10
342	30
343	100
344	30
345	10
352	10
355	10
356	20
357	10
359	10
372	10
373	30
374	20
375	50
376	20
377	10
385	10
401	10
430	30
431	80
432	30
433	10
