Mass Spectrum: 1H-Imidazole-4-carboxamide, 1-benzyl-5-[(chloroacetyl)amino]-
Formula: C13H13ClN4O2
CAS: 144748-46-9
Molecular weight: 292
m/z	intensity
50	20
51	50
52	15
53	15
55	30
56	26
57	60
58	12
63	31
64	15
65	120
66	19
69	30
70	10
77	45
78	18
79	11
89	35
90	34
91	999
92	85
93	25
198	25
199	18
200	10
226	36
227	10
243	39
244	5
275	50
276	7
277	17
278	2
292	38
293	10
294	13
