Mass Spectrum: p-Terphenyl, 2',5'-diphenethyl-
Formula: C34H30
CAS: 14474-61-4
Molecular weight: 438
m/z	intensity
63	10
65	94
66	10
77	54
78	13
79	108
80	9
89	9
90	10
91	567
92	54
103	54
104	13
105	999
106	87
107	9
115	29
127	10
128	14
139	10
141	14
151	14
152	23
153	10
163	10
164	9
165	64
166	13
167	10
176	13
177	10
178	29
179	20
189	20
191	10
202	20
203	9
213	9
215	29
216	9
226	31
227	20
228	31
229	17
238	13
239	94
240	74
241	74
242	29
243	17
244	10
250	6
251	16
252	105
253	164
254	108
255	254
256	155
257	28
263	8
264	8
265	28
266	13
267	16
268	8
269	54
270	8
346	74
347	29
438	94
439	29
