Mass Spectrum: 1-Propanamine, 3-dibenzo[b,e]thiepin-11(6H)-ylidene-N,N-dimethyl-, S-oxide
Formula: C19H21NOS
CAS: 1447-71-8
Molecular weight: 311
m/z	intensity
26	10
27	20
29	20
30	20
31	40
40	20
42	30
43	10
44	50
45	20
55	10
56	10
57	30
58	999
59	30
202	10
