Mass Spectrum: Benzoic acid, 3-(phenylazo)-
Formula: C13H10N2O2
CAS: 14474-22-7
Molecular weight: 226
m/z	intensity
17	13
18	2
26	1
27	11
28	12
29	1
37	4
38	9
39	53
40	3
41	4
43	2
44	2
45	7
49	1
50	41
51	163
52	12
53	6
55	2
57	2
61	2
62	5
63	20
64	21
65	197
66	12
67	1
69	1
71	1
73	1
74	9
75	29
76	86
77	999
78	78
79	4
81	1
83	1
87	1
88	1
89	2
90	2
91	12
92	6
93	35
94	2
97	2
99	1
101	1
102	3
103	13
104	54
105	455
106	36
107	2
115	4
119	2
120	3
121	406
122	31
123	3
125	1
126	2
127	6
128	2
137	5
139	2
141	5
142	1
149	70
150	7
151	14
152	63
153	47
154	6
155	1
167	1
169	1
179	1
181	10
182	2
197	1
198	7
199	1
209	7
210	1
226	582
227	90
228	9
229	1
