Mass Spectrum: 9-Thiabicyclo[3.3.1]non-2-ene, 6-exo-chloro-9-oxo-
Formula: C8H11ClOS
CAS: 14472-75-4
Molecular weight: 190
m/z	intensity
27	139
28	122
29	82
30	3
31	4
33	2
34	7
35	3
36	14
38	5
39	152
40	54
41	271
42	19
43	30
44	22
45	51
46	6
47	15
48	8
49	12
50	10
51	64
52	42
53	114
54	50
55	44
56	6
57	10
58	10
59	33
60	10
61	25
62	6
63	46
64	12
65	169
66	75
67	155
68	16
69	13
70	7
71	27
72	11
73	25
74	6
75	105
76	45
77	333
78	235
79	807
80	150
81	38
82	11
83	12
84	17
85	55
86	16
87	113
88	25
89	53
90	16
91	288
92	70
93	72
94	17
95	8
96	9
97	123
98	24
99	33
100	17
101	49
102	23
103	108
104	34
105	999
106	180
107	102
108	12
109	15
110	27
111	52
112	98
113	185
114	55
115	77
116	14
117	9
118	6
119	7
121	12
122	5
123	16
124	5
125	25
126	17
127	37
128	14
129	10
130	4
131	11
132	6
133	7
134	7
135	17
136	8
137	100
138	17
139	63
140	130
141	98
142	48
143	35
144	9
145	4
146	3
147	4
148	3
149	5
154	10
155	573
156	72
157	32
158	8
159	5
162	9
164	5
167	3
173	378
174	37
175	123
176	21
177	7
190	486
191	48
192	169
193	20
194	8
