Mass Spectrum: Androstan-11-one, oxime, (5.alpha.)-
Formula: C19H31NO
CAS: 14475-43-5
Molecular weight: 289
m/z	intensity
27	230
28	60
29	450
30	80
31	20
39	300
40	60
41	999
42	180
43	220
44	40
45	20
46	20
51	50
52	30
53	490
54	150
55	999
56	110
57	40
58	20
63	20
65	190
66	120
67	910
68	170
69	210
70	50
71	10
73	60
77	360
78	100
79	590
80	210
81	720
82	110
83	70
84	20
86	20
91	430
92	110
93	380
94	180
95	440
96	80
97	40
98	10
103	30
104	30
105	220
106	120
107	200
108	110
109	190
110	50
111	20
112	20
115	40
116	20
117	80
118	60
119	100
120	110
121	100
122	50
123	40
124	40
125	20
128	10
129	20
130	40
131	60
132	70
133	60
134	80
135	50
136	20
137	10
138	30
143	10
144	30
145	50
146	60
147	50
148	90
149	50
150	140
151	20
157	20
158	10
159	30
160	30
161	20
162	40
163	20
164	70
165	20
166	940
167	120
172	20
173	20
174	30
175	10
176	70
177	10
178	10
179	260
181	60
188	20
190	20
192	140
193	30
194	10
202	20
204	10
205	30
206	40
246	20
256	20
257	20
272	390
273	90
274	70
275	20
289	190
290	40
