Mass Spectrum: Phenol, 4-bromo-3-methyl-
Formula: C7H7BrO
CAS: 14472-14-1
Molecular weight: 186
m/z	intensity
25	2
26	22
27	79
29	23
30	1
31	8
36	4
37	45
38	110
39	206
40	17
41	20
42	12
43	25
44	15
45	3
48	3
49	24
50	138
51	284
52	134
53	146
54	12
55	55
56	6
57	13
58	4
59	4
60	8
61	78
62	82
63	124
64	25
65	12
66	26
67	29
68	7
69	10
70	4
71	7
72	2
73	19
74	55
75	52
76	30
77	543
78	314
79	176
80	14
81	21
82	6
83	5
84	7
85	12
86	14
87	13
88	7
89	24
90	9
91	8
92	4
93	46
94	41
95	2
96	1
97	5
98	1
99	1
101	1
103	4
104	4
105	100
106	115
107	999
108	96
109	8
111	3
115	1
116	5
117	14
118	5
119	13
121	2
128	1
129	1
130	1
131	5
133	6
135	0
136	0
141	0
142	0
143	0
145	0
149	0
155	3
156	2
157	24
158	3
159	24
160	2
161	2
165	0
167	2
168	2
169	5
170	3
171	4
185	72
186	970
187	151
188	962
189	89
190	6
