Mass Spectrum: O-Desmethyl-cis-tramadol
Formula: C15H23NO2
CAS: 144830-14-8
Molecular weight: 249
m/z	intensity
15	2
18	1
26	1
27	7
28	5
29	8
30	15
31	1
38	1
39	15
40	3
41	22
42	33
43	13
44	37
45	45
46	30
47	1
50	1
51	3
52	1
53	6
54	1
55	29
56	7
57	9
58	999
59	38
60	1
62	1
63	3
64	2
65	19
66	4
67	5
68	2
69	5
70	6
71	3
72	3
73	1
74	10
75	1
76	1
77	14
78	3
79	5
80	2
81	2
82	3
83	1
84	10
85	1
86	1
89	2
90	1
91	8
92	3
93	18
94	10
95	5
96	1
97	1
98	3
101	1
102	1
103	3
104	1
105	3
106	1
107	13
108	3
110	2
114	2
115	6
116	2
117	2
118	1
119	2
120	4
121	32
122	4
123	1
126	1
127	3
128	3
129	2
130	1
131	7
132	2
133	3
134	2
136	3
137	1
141	1
143	1
144	2
145	7
146	4
147	2
148	2
149	3
150	1
152	1
154	1
155	1
156	1
157	2
158	1
159	3
160	1
161	1
162	1
173	1
174	5
175	1
204	1
206	1
231	1
248	4
249	34
250	6
251	1
