Mass Spectrum: 1-(4-Ethoxyphenyl)acetone
Formula: C11H14O2
CAS: 144818-72-4
Molecular weight: 178
m/z	intensity
43	239
51	62
52	39
53	36
63	25
77	162
78	62
79	24
89	30
90	21
91	12
105	8
107	999
108	81
118	1
121	2
135	645
136	63
137	3
162	0
163	0
178	222
179	26
