Mass Spectrum: Pregn-4-ene-3,20-dione, 17-hydroxy-6,16-dimethyl-, (6.beta.,16.alpha.)-
Formula: C23H34O3
CAS: 14486-40-9
Molecular weight: 358
m/z	intensity
41	297
43	999
45	32
53	120
55	354
56	13
57	77
58	11
65	42
67	185
69	217
71	47
72	27
77	139
78	35
79	176
80	20
81	131
83	96
85	47
91	219
92	31
93	194
95	140
97	94
99	11
101	271
103	14
105	193
106	26
107	204
108	34
109	160
110	31
111	43
115	32
117	46
118	14
119	151
120	17
121	234
122	27
123	143
128	21
129	36
130	16
131	55
132	13
133	87
135	135
136	59
137	352
138	91
141	14
143	34
145	82
146	18
147	102
149	53
150	40
151	28
155	19
157	28
159	175
160	28
161	115
162	17
163	69
169	21
170	12
171	24
173	108
174	12
175	111
177	20
183	23
185	46
187	119
188	42
189	71
190	26
195	11
197	14
199	17
201	50
203	18
205	19
213	25
215	29
225	38
227	93
228	18
229	27
239	14
241	27
243	438
244	70
245	15
255	22
256	55
257	56
258	126
259	57
279	14
282	11
297	704
315	601
343	16
358	260
359	73
