Mass Spectrum: Benzaldehyde, 4-benzyloxy-3.5-dimethyl-
Formula: C16H16O2
CAS: 144896-51-5
Molecular weight: 240
m/z	intensity
34	0
35	0
37	0
39	59
40	6
41	21
42	1
43	4
45	0
47	0
48	0
50	13
51	40
52	16
53	16
54	1
55	1
56	0
57	0
58	0
59	0
61	1
62	11
63	43
65	212
66	16
67	2
68	0
69	0
72	0
74	3
75	4
77	82
78	20
79	9
80	0
81	0
83	0
84	0
85	0
86	2
87	2
89	49
91	999
92	207
93	17
94	1
95	0
96	0
97	0
98	0
99	0
101	0
102	2
103	10
104	4
105	11
106	1
107	0
108	0
110	0
111	0
112	0
113	0
114	0
115	1
116	0
117	0
118	0
119	10
120	27
121	19
122	1
123	0
124	0
126	0
127	0
128	1
129	1
130	0
131	1
132	0
133	2
134	0
139	0
140	0
141	1
142	0
143	0
144	0
145	0
147	0
148	11
149	30
150	5
151	1
152	2
153	2
154	0
155	0
156	0
157	0
159	0
160	0
161	0
162	0
163	1
164	0
165	4
166	1
168	1
169	0
170	0
172	0
173	0
174	0
175	0
176	0
177	0
178	2
179	1
180	0
181	5
182	0
184	0
187	0
188	0
189	0
190	0
191	0
192	0
193	0
194	1
196	1
197	0
198	0
199	0
200	0
203	0
205	0
206	0
208	0
209	0
211	2
212	2
213	0
218	0
219	0
220	0
221	0
222	0
223	1
224	0
225	4
230	0
234	0
235	0
236	0
237	1
238	0
239	1
240	230
241	50
242	5
243	0
