Mass Spectrum: Uridine, 5-tridecafluorohexyl-2'-deoxy-
Formula: C15H11F13N2O5
CAS: 144862-39-5
Molecular weight: 546
m/z	intensity
41	45
42	35
43	208
44	69
45	225
46	41
47	12
48	2
50	1
51	4
52	3
53	28
54	68
55	29
56	14
57	69
58	13
59	9
60	18
61	9
63	0
64	0
65	0
66	1
67	7
68	21
69	94
70	33
71	124
72	10
73	253
74	28
75	39
76	2
77	3
78	4
79	1
80	0
81	34
82	5
83	3
84	7
85	67
86	22
87	25
88	2
89	6
90	12
91	26
92	2
93	2
94	2
95	5
96	5
97	19
98	21
99	154
100	13
101	6
102	2
103	6
104	1
105	1
106	4
107	2
108	1
109	1
110	1
111	1
112	2
113	2
114	3
115	10
116	19
117	999
118	101
119	21
120	3
121	4
122	4
123	1
124	3
125	3
126	1
127	1
128	1
129	4
130	1
131	8
132	3
133	3
134	1
135	0
136	0
137	2
138	0
139	4
140	1
141	3
142	0
143	3
144	7
145	6
146	2
147	4
148	2
149	1
150	1
151	0
152	0
153	1
155	1
156	1
157	2
158	1
159	1
160	1
161	92
162	7
163	1
164	1
166	1
167	1
168	1
169	4
170	0
171	2
172	0
173	4
174	1
175	7
176	1
178	0
180	0
181	1
185	0
187	11
188	1
189	10
190	1
191	1
192	0
193	1
194	1
195	0
199	0
203	1
206	0
211	0
216	0
217	2
218	1
219	0
223	1
231	0
239	1
241	1
244	0
249	1
253	0
259	0
261	1
264	1
281	1
289	0
291	2
314	1
331	1
336	0
337	1
340	0
341	30
342	2
353	1
354	0
358	0
361	0
364	3
366	0
367	1
368	5
369	0
372	0
373	3
376	1
378	1
381	3
386	6
387	1
388	1
392	2
393	0
394	5
395	1
396	0
398	2
400	3
404	1
407	0
411	11
412	3
413	1
414	43
415	5
416	1
423	4
424	0
426	6
427	1
430	1
431	30
432	3
437	8
438	1
442	0
449	1
454	12
455	2
456	1
457	9
458	1
466	0
485	1
486	7
487	1
496	5
497	2
515	2
516	2
528	2
546	2
547	0
