Mass Spectrum: 3,4-Furandimethanol
Formula: C6H8O3
CAS: 14496-24-3
Molecular weight: 128
m/z	intensity
14	1
15	4
25	1
26	9
27	103
28	44
29	68
30	4
31	81
32	1
37	9
38	18
39	141
40	12
41	89
42	14
43	33
44	11
45	4
47	3
49	4
50	30
51	68
52	42
53	350
54	93
55	70
56	13
57	10
58	3
61	1
62	4
63	9
64	3
65	37
66	10
67	9
68	7
69	37
70	7
71	12
72	1
73	2
77	2
79	7
80	21
81	248
82	65
83	11
84	3
85	3
91	1
93	2
94	12
95	9
96	2
97	45
98	14
99	7
100	1
105	1
107	1
108	19
109	999
110	820
111	123
112	26
113	2
123	8
124	1
125	9
126	4
127	12
128	380
129	26
130	3
