Mass Spectrum: Santalol, E-cis,epi-.beta.-
Formula: C15H24O
CAS: 14490-17-6
Molecular weight: 220
m/z	intensity
41	398
43	351
44	15
45	17
50	8
51	41
52	23
53	119
54	20
55	161
56	22
57	39
58	7
59	2
63	11
65	90
66	33
67	185
68	28
69	62
70	13
71	21
72	2
77	207
78	49
79	343
80	43
81	98
82	15
83	24
84	38
85	5
89	4
91	282
92	61
93	379
94	999
95	128
96	15
97	18
98	5
102	2
103	17
105	111
106	50
107	138
108	35
109	56
110	8
111	4
115	13
116	6
117	27
118	11
119	86
120	32
121	74
122	228
123	41
124	4
125	1
127	2
128	5
129	6
130	3
131	29
132	15
133	50
134	76
135	37
136	8
137	9
143	3
144	2
145	18
146	8
147	21
148	13
149	6
150	4
151	4
152	26
153	6
154	7
159	30
160	10
161	40
162	8
163	3
173	13
174	12
175	2
177	3
187	25
188	4
189	10
190	2
202	27
203	5
220	2
