Mass Spectrum: Dihydrotomatidine
Formula: C27H47NO2
CAS: 1449-16-7
Molecular weight: 417
m/z	intensity
41	14
42	3
43	11
44	3
49	1
53	3
54	1
55	23
56	17
57	7
58	2
65	1
67	13
68	5
69	12
70	12
71	8
77	3
79	12
80	1
81	19
82	11
83	5
84	4
86	1
91	9
92	1
93	12
94	3
95	9
96	8
97	9
98	999
99	66
100	2
105	9
106	2
107	11
108	4
109	5
110	3
111	2
112	1
113	2
114	7
115	0
117	2
119	5
120	2
121	5
122	2
123	2
124	4
125	3
126	4
127	1
129	1
131	3
133	4
134	1
135	2
136	1
137	0
138	6
140	52
141	6
143	1
145	3
147	4
148	0
149	2
150	2
152	1
159	2
161	4
162	1
164	0
166	1
168	2
173	1
194	1
399	1
402	1
416	1
417	2
