Mass Spectrum: Benzene, (2-butenyloxy)-
Formula: C10H12O
CAS: 14503-58-3
Molecular weight: 148
m/z	intensity
25	0
26	6
27	56
28	1
29	82
30	2
31	1
32	0
35	0
36	1
37	2
38	9
39	84
40	13
41	13
42	2
43	5
44	0
45	1
46	0
47	0
48	0
49	1
50	12
51	38
52	6
53	27
54	20
55	259
56	15
57	5
58	0
59	0
60	0
61	1
62	2
63	11
64	6
65	39
66	40
67	4
68	1
69	3
70	1
71	2
72	0
73	1
74	2
75	2
76	2
77	38
78	6
79	4
80	0
81	1
82	0
83	1
84	0
85	0
89	0
90	0
91	10
92	2
93	7
94	999
95	65
96	4
97	1
98	0
99	0
102	0
103	2
104	0
105	11
106	1
107	5
108	0
109	1
110	0
111	0
112	0
115	1
116	0
117	1
118	0
119	2
120	3
121	0
122	0
123	0
124	0
125	0
127	0
128	1
129	1
131	2
132	1
133	9
134	1
135	0
137	0
139	0
145	0
146	0
147	1
148	83
149	10
