Mass Spectrum: 2-Propanol, 1-[(1,1-dimethylethyl)thio]-, (R)-
Formula: C7H16OS
CAS: 145021-03-0
Molecular weight: 148
m/z	intensity
26	3
27	41
28	3
29	149
30	3
31	24
35	0
37	1
38	3
39	57
40	7
41	297
42	16
43	41
44	5
45	159
46	15
47	30
48	31
49	25
50	3
51	4
52	0
53	8
54	2
55	33
56	126
57	999
58	75
59	62
60	4
61	8
62	0
63	0
65	1
67	1
69	4
70	1
71	4
72	1
73	29
74	58
75	84
76	6
77	7
78	2
79	3
81	18
82	2
83	1
84	0
85	1
86	0
87	4
88	5
89	8
90	6
91	23
92	17
93	13
94	1
95	1
97	0
99	0
100	0
101	20
102	1
103	13
104	34
105	4
106	2
107	0
109	1
110	2
111	0
113	0
114	1
115	16
116	1
117	2
119	1
121	0
123	2
124	9
125	0
126	0
129	0
130	5
131	7
132	0
133	16
134	1
135	1
144	1
145	0
147	1
148	274
149	34
150	14
151	2
