Mass Spectrum: 5-Cyano-4-methyl-6-oxo-1-phenyl-1,6-dihydropyridazine-3-carbohydrazide
Formula: C13H11N5O2
CAS: 145121-27-3
Molecular weight: 269
m/z	intensity
33	1
34	1
35	0
37	24
38	60
39	115
40	72
41	45
42	10
43	16
44	18
45	6
46	2
47	0
48	0
49	3
50	52
51	228
52	47
53	9
54	6
55	7
56	3
57	7
58	5
59	6
60	3
61	4
62	17
63	91
64	184
65	185
66	32
67	51
68	7
69	5
70	2
71	3
72	1
73	3
74	8
75	15
77	999
78	85
79	6
80	2
81	2
82	1
83	2
84	1
85	1
86	1
87	2
88	7
89	7
90	19
91	157
92	75
93	96
94	9
95	1
96	0
97	2
98	1
99	1
100	0
101	4
102	4
103	10
105	266
106	20
107	2
108	1
109	1
110	0
111	4
112	1
113	1
114	2
115	23
116	5
117	3
118	12
119	52
120	8
121	2
122	1
123	0
124	0
125	2
126	7
127	68
128	15
129	4
130	2
131	1
132	3
133	2
134	2
135	2
136	1
137	0
138	0
139	1
140	2
141	2
142	9
143	12
144	3
145	1
147	2
148	1
149	3
150	1
151	1
152	5
153	18
154	48
155	27
156	7
157	2
158	0
159	0
160	0
161	0
162	0
163	0
164	0
165	0
166	1
167	3
168	6
169	5
170	1
171	1
172	0
173	0
176	0
177	1
178	0
179	0
180	3
181	7
182	20
183	32
184	6
185	1
186	0
189	0
191	0
192	2
193	0
194	0
195	1
196	2
197	1
198	0
199	0
200	0
202	0
203	0
204	0
205	0
207	1
208	2
209	13
210	48
211	20
212	4
213	1
220	0
221	0
222	0
223	1
224	1
225	1
226	1
227	0
236	12
238	493
239	80
240	8
241	1
242	0
249	0
250	0
251	1
252	3
253	4
254	17
255	2
256	0
263	0
264	0
265	0
266	3
269	403
270	64
271	7
272	0
