Mass Spectrum: S-Benzoyl-N-(p-dimethylaminobenzylidene)thiohydroxylamine
Formula: C16H16N2OS
CAS: 145198-43-2
Molecular weight: 284
m/z	intensity
15	2
17	2
18	1
27	4
28	3
37	1
38	3
39	9
41	2
42	20
43	3
44	6
45	3
50	17
51	53
52	7
53	2
54	1
55	1
57	1
61	1
62	3
63	9
64	4
65	9
66	2
67	1
68	2
69	3
70	1
71	1
72	1
73	3
74	6
75	8
76	13
77	234
78	23
79	7
80	1
81	2
82	1
88	1
89	5
90	5
91	11
92	4
93	3
94	1
95	1
96	4
97	1
102	11
103	10
104	12
105	999
106	74
107	6
108	9
109	8
110	2
111	1
116	3
117	5
118	9
119	10
120	9
121	8
122	4
123	3
128	1
129	9
130	11
131	10
132	6
133	2
134	4
135	10
136	9
137	4
138	2
139	1
143	3
144	1
145	69
146	60
147	59
148	41
149	22
150	3
151	2
152	3
153	1
161	1
162	4
163	29
164	18
165	3
166	1
175	17
176	2
177	17
178	9
179	55
180	7
181	9
182	1
208	1
223	1
224	1
225	7
226	1
237	1
238	2
251	6
252	43
253	9
254	1
283	4
284	248
285	47
286	15
287	3
