Mass Spectrum: Androst-5-en-17-one, 3-hydroxy-, cyclic 1,2-ethanediyl mercaptole (3.beta.)
Formula: C21H32OS2
CAS: 14517-40-9
Molecular weight: 364
m/z	intensity
41	400
91	510
105	430
118	999
131	780
145	260
159	180
213	150
244	170
255	260
270	400
304	170
336	370
346	200
349	30
364	440
365	90
