Mass Spectrum: Tricyclo[5.2.1.0(2,6)]dec-8-en-3-ol, 10,10-difluoro-
Formula: C10H12F2O
CAS: 145123-28-0
Molecular weight: 186
m/z	intensity
37	7
38	31
39	206
40	33
41	106
42	32
43	54
44	15
47	2
50	49
51	147
52	52
53	73
55	272
56	110
57	142
58	20
59	23
60	5
61	4
62	19
63	42
64	28
65	109
66	213
67	324
68	39
69	43
70	30
71	14
72	5
73	14
74	16
75	68
77	301
78	143
79	144
80	25
81	76
83	999
84	591
85	88
86	10
87	9
88	30
89	47
90	57
91	367
92	143
93	30
94	14
95	65
96	129
97	188
98	31
99	20
100	19
101	155
102	136
103	122
104	140
105	160
106	20
107	40
109	480
110	819
111	104
112	14
113	10
114	50
115	132
116	45
117	263
118	131
119	268
120	43
121	52
122	236
123	132
124	71
125	34
127	422
128	64
129	43
130	9
131	13
133	85
134	20
135	72
136	17
137	102
138	159
139	40
140	249
141	70
142	60
143	15
144	29
145	35
146	67
147	100
148	164
149	84
150	10
151	60
152	12
153	121
154	13
155	5
156	3
157	27
158	15
159	2
163	2
164	7
165	34
166	250
167	124
168	565
169	72
170	4
171	5
184	6
186	185
187	21
188	1
