Mass Spectrum: 2-Naphthalenecarboxylic acid, 8-ethenyl-3,4,4a,5,6,7,8,8a-octahydro-5-methylene-
Formula: C14H18O2
CAS: 1451-36-1
Molecular weight: 218
m/z	intensity
63	109
64	60
65	331
66	104
67	313
68	78
69	73
71	47
77	600
78	240
79	757
80	104
81	164
82	44
83	41
87	62
89	47
91	999
92	208
93	266
94	70
95	78
96	44
102	31
103	130
104	99
105	553
106	99
107	99
115	151
116	86
117	365
118	151
119	958
120	182
121	47
122	39
123	235
124	47
127	44
128	96
129	130
130	65
131	302
132	295
133	749
134	88
135	60
136	41
141	26
143	78
144	57
145	174
146	52
148	26
149	70
150	26
158	67
161	13
162	52
163	44
164	125
172	26
173	224
174	70
175	33
176	36
185	31
189	47
190	130
201	26
218	469
219	99
