Mass Spectrum: 4-(2-Carboxy-1-methylethoxy)-3-nitrobenzoic acid
Formula: C11H11NO7
CAS: 145220-46-8
Molecular weight: 269
m/z	intensity
37	70
38	173
39	645
40	123
41	999
42	210
43	816
44	78
45	884
46	26
47	4
48	2
49	7
50	77
51	163
52	138
53	249
54	31
55	86
56	10
57	30
58	11
59	15
60	18
61	34
62	126
63	343
64	95
65	57
66	40
67	24
68	105
69	425
70	29
71	50
72	5
73	14
74	32
75	42
76	23
77	31
78	32
79	80
80	48
81	181
82	23
83	9
84	3
85	12
86	102
87	333
88	16
89	8
90	10
91	109
92	70
93	37
94	23
95	14
96	22
97	121
98	10
99	2
100	0
101	3
102	4
103	11
104	5
105	8
106	7
107	30
108	39
109	77
110	9
111	4
112	1
113	1
114	0
115	2
116	1
117	1
118	5
119	88
120	45
121	24
122	6
123	6
124	5
125	109
126	7
127	3
128	4
129	3
130	0
131	1
132	1
133	1
134	1
135	3
136	38
137	33
138	14
139	5
140	1
141	0
143	0
145	1
146	1
147	1
148	0
149	3
150	29
151	4
152	3
153	161
154	15
155	2
157	0
158	0
159	0
161	0
162	1
163	1
164	1
165	2
166	130
167	44
168	5
169	0
171	0
176	1
177	1
178	3
179	1
180	1
181	1
182	1
183	982
184	77
185	13
186	1
187	0
190	0
191	1
192	0
193	1
196	0
199	0
202	0
203	0
213	0
221	1
224	1
239	3
240	1
251	2
252	2
269	23
270	3
271	0
