Mass Spectrum: Tetracosanoic acid, 3-oxo-, methyl ester
Formula: C25H48O3
CAS: 14531-37-4
Molecular weight: 396
m/z	intensity
15	8
16	1
17	5
18	24
25	1
26	3
27	16
28	16
29	63
30	1
31	8
32	4
33	1
39	11
40	3
41	124
42	29
43	260
44	13
45	3
50	1
51	1
52	1
53	7
54	18
55	179
56	46
57	203
58	20
59	41
60	2
61	1
65	1
66	2
67	34
68	24
69	117
70	28
71	93
72	5
73	3
74	114
75	26
76	1
77	2
78	1
79	8
80	11
81	37
82	24
83	88
84	46
85	54
86	3
87	39
88	11
89	1
91	2
92	1
93	8
94	16
95	39
96	21
97	60
98	41
99	11
100	3
101	67
102	4
103	3
105	1
107	6
108	8
109	23
110	9
111	28
112	13
113	5
114	2
115	2
116	999
117	407
118	28
119	6
120	1
121	10
122	6
123	11
124	4
125	11
126	4
127	3
128	1
129	228
130	33
131	5
133	1
135	9
136	5
137	5
138	3
139	6
140	23
141	4
142	2
143	39
144	7
145	1
147	1
149	4
150	3
151	2
152	2
153	5
154	29
155	4
157	6
158	45
159	4
160	1
163	2
164	1
165	1
166	1
167	3
168	5
169	1
171	10
172	19
173	2
177	1
179	1
180	1
181	2
182	2
183	1
185	15
186	2
191	1
193	1
194	1
195	2
196	1
197	1
199	2
200	4
205	1
207	1
208	1
209	2
210	1
213	1
214	3
219	1
221	1
222	2
223	2
224	1
227	2
228	1
235	1
236	2
237	2
238	1
241	1
242	1
249	1
250	1
251	1
252	1
255	2
256	1
262	1
264	1
265	1
266	1
269	1
270	1
278	8
279	4
280	5
281	1
283	1
284	1
293	1
294	1
297	2
298	2
302	1
303	2
304	26
305	9
306	1
307	1
311	6
312	3
313	1
317	1
318	6
319	2
320	1
321	5
322	6
323	76
324	18
325	4
326	1
335	1
336	1
338	2
339	1
340	7
341	2
346	4
347	1
353	6
354	69
355	18
356	2
363	2
364	2
365	8
366	2
367	3
368	3
369	1
378	67
379	19
380	3
381	1
382	1
395	2
396	220
397	62
398	10
399	1
