Mass Spectrum: Trifluoromethyl isopropyl disulfide
Formula: C4H7F3S2
CAS: 145372-21-0
Molecular weight: 176
m/z	intensity
45	225
46	49
47	156
49	37
58	154
59	461
60	121
64	336
65	57
69	999
73	46
74	45
75	62
78	26
82	89
91	19
92	22
101	50
107	14
114	131
115	82
116	12
133	182
134	80
135	21
147	12
157	72
159	6
161	49
175	22
176	861
177	148
178	83
