Mass Spectrum: Dicyclopropyl ketoxime
Formula: C7H11NO
CAS: 1453-52-7
Molecular weight: 125
m/z	intensity
26	28
27	176
28	16
29	72
30	76
31	29
33	0
37	14
38	44
39	522
40	76
41	999
42	89
43	41
44	29
45	13
46	10
47	0
48	0
49	1
50	18
51	46
52	56
53	142
54	138
55	168
56	24
57	56
58	17
59	9
60	4
61	2
62	4
63	13
64	9
65	100
66	81
67	192
68	147
69	24
70	38
71	2
72	1
73	0
74	0
75	1
76	1
77	87
78	21
79	150
80	147
81	114
82	58
83	14
84	79
85	4
86	0
89	0
90	0
91	62
92	51
93	93
94	32
95	8
96	34
97	25
98	7
99	10
100	0
104	1
105	0
106	56
107	48
108	150
109	15
110	294
111	22
112	1
122	0
123	0
124	331
125	561
126	54
127	3
