Mass Spectrum: Trifluoromethyl t-butyl disulfide
Formula: C5H9F3S2
CAS: 145372-23-2
Molecular weight: 190
m/z	intensity
45	30
47	10
49	17
53	18
55	60
56	29
57	999
58	67
59	70
64	52
69	150
71	4
73	38
74	9
82	15
89	9
101	1
115	3
133	9
175	9
190	4
