Mass Spectrum: 4-Pyridinecarboxamide, N-(4-chlorophenyl)-
Formula: C12H9ClN2O
CAS: 14547-69-4
Molecular weight: 232
m/z	intensity
41	6
42	2
43	1
44	2
45	1
47	3
48	1
49	17
50	100
51	420
52	45
53	10
54	1
56	1
57	0
58	1
61	7
62	21
63	66
64	28
65	20
66	2
69	4
70	0
71	3
72	3
73	37
74	11
75	43
76	14
77	9
78	717
79	48
80	1
84	6
85	4
86	6
87	3
88	4
89	6
90	21
91	17
92	6
93	2
97	2
98	3
99	72
100	9
101	22
102	3
106	999
107	67
108	4
111	10
112	0
113	4
114	2
115	1
125	8
126	19
127	17
128	22
129	5
130	5
131	1
140	3
141	2
150	0
153	3
155	1
167	0
168	3
169	0
183	0
197	1
231	9
232	322
233	53
234	107
235	18
236	1
