Mass Spectrum: Phosphonic acid, 1,1-dimethylethyl ethyl ester
Formula: C6H15O3P
CAS: 14540-45-5
Molecular weight: 166
m/z	intensity
25	2
26	27
27	132
28	47
29	160
30	8
31	70
33	1
34	0
35	0
36	1
37	8
38	18
39	153
40	33
41	310
42	24
43	94
44	4
45	68
46	3
47	75
48	5
49	7
50	15
51	11
52	4
53	16
54	6
55	51
56	137
57	215
58	15
59	110
60	3
61	0
63	8
64	7
65	216
66	41
67	6
68	1
69	9
70	1
71	0
72	0
73	1
75	0
77	3
78	0
79	1
80	1
81	23
82	61
83	999
84	2
85	6
86	0
87	1
91	2
92	28
93	7
95	22
96	1
97	0
99	1
103	0
105	3
106	0
107	0
109	16
110	43
111	407
112	9
113	2
119	0
120	0
121	4
123	28
124	1
127	0
128	0
137	0
142	0
149	0
151	130
152	7
153	1
