Mass Spectrum: Thiazole, 2-methoxy-
Formula: C4H5NOS
CAS: 14542-13-3
Molecular weight: 115
m/z	intensity
26	50
27	60
28	10
39	20
40	30
42	190
44	70
45	220
56	560
57	180
58	360
59	80
60	40
85	140
86	200
100	790
114	940
115	999
116	130
117	60
