Mass Spectrum: Thiazole, 5-methoxy-
Formula: C4H5NOS
CAS: 14542-14-4
Molecular weight: 115
m/z	intensity
26	20
27	30
28	150
29	50
31	50
39	40
40	90
44	60
45	820
47	40
57	120
58	170
59	30
72	100
73	110
85	60
88	130
100	90
115	999
116	90
117	70
