Mass Spectrum: 2H-[1,2,3]Triazole, 4-nitro-
Formula: C2H2N4O2
CAS: 14544-45-7
Molecular weight: 114
m/z	intensity
33	0
38	119
39	148
40	48
41	36
42	33
43	4
44	2
46	174
52	13
53	16
54	4
55	4
56	2
57	2
67	29
68	85
69	32
70	3
71	3
84	6
85	0
98	37
99	1
112	1
114	999
115	31
116	3
