Mass Spectrum: 1-Heptanone, 1,3-diphenyl-
Formula: C19H22O
CAS: 1454-57-5
Molecular weight: 266
m/z	intensity
26	2
27	53
29	45
30	0
31	0
38	1
39	31
40	4
41	67
42	3
43	17
44	1
45	0
50	17
51	95
52	11
53	8
54	0
55	27
56	0
57	3
58	1
62	2
63	11
64	2
65	27
66	3
67	3
68	7
69	8
71	0
73	0
74	3
75	7
76	19
77	551
78	83
79	21
80	1
81	1
83	1
85	1
89	9
90	2
91	421
92	31
93	1
95	1
98	0
101	2
102	12
103	61
104	177
105	999
106	89
107	19
108	0
113	0
114	0
115	34
116	14
117	246
118	46
119	7
120	89
121	34
122	2
127	3
128	7
129	8
130	4
131	64
132	9
133	5
139	0
141	1
143	1
144	1
145	15
146	941
147	116
148	10
149	1
152	2
153	1
157	0
160	0
161	3
165	4
166	1
167	1
176	1
177	0
178	3
179	3
181	6
182	0
189	1
191	5
192	1
193	1
194	1
195	1
196	0
203	0
205	9
206	1
207	3
208	2
209	706
210	119
211	10
219	1
221	2
223	1
248	0
265	2
266	55
267	12
268	2
