Mass Spectrum: 1,6-Octadiene, 8-methoxy-
Formula: C9H16O
CAS: 14543-49-8
Molecular weight: 140
m/z	intensity
26	37
27	452
29	283
30	15
31	32
32	7
33	17
37	10
38	27
39	499
40	45
41	999
42	71
43	102
44	0
45	702
46	15
47	2
50	27
51	45
52	26
53	195
54	204
55	431
56	39
57	26
58	242
59	73
60	3
62	3
63	16
65	48
66	47
67	481
68	58
69	49
70	6
71	751
72	75
73	13
74	3
75	2
77	49
78	33
79	202
80	204
81	57
82	94
83	32
84	52
85	79
86	9
87	1
89	1
91	27
92	5
93	179
94	23
95	46
96	4
97	216
98	74
99	5
102	3
105	1
107	7
108	59
109	12
111	18
112	5
125	7
