Mass Spectrum: 1,1-Dimethylamino-1-butene
Formula: C6H13N
CAS: 14548-12-0
Molecular weight: 99
m/z	intensity
26	7
27	39
28	23
29	45
30	108
31	2
37	1
38	4
39	32
40	7
41	26
42	152
43	33
44	52
45	16
46	1
49	0
50	5
51	6
52	3
53	12
54	7
55	39
56	24
57	17
58	999
59	27
60	0
64	0
65	0
66	1
67	2
68	9
69	1
70	6
71	3
72	7
73	0
78	0
79	0
80	1
81	1
82	7
83	3
84	17
85	1
86	0
94	1
96	5
97	0
98	12
99	12
100	1
