Mass Spectrum: 4-Methylenecyclopentene
Formula: C6H8
CAS: 14548-32-4
Molecular weight: 80
m/z	intensity
36	0
37	10
38	28
39	147
40	19
41	24
42	1
48	0
49	8
50	84
51	118
52	92
53	47
54	15
55	1
56	0
61	3
62	8
63	22
64	3
65	41
66	2
67	2
73	5
74	18
75	16
76	11
77	287
78	175
79	999
80	467
81	32
82	1
