Mass Spectrum: 3-Methyl-5-pyrid-2-yl-1,2,4-oxadiazole
Formula: C8H7N3O
CAS: 1455-84-1
Molecular weight: 161
m/z	intensity
41	114
50	70
51	134
52	56
53	27
57	79
58	28
63	28
64	27
76	38
77	140
78	235
79	38
103	14
104	290
105	999
160	44
161	699
