Mass Spectrum: Benzamide, N-[1-(4,6-di-O-acetyl-2,3-dideoxy-.beta.-d-erythro-hexopyranosyl)-1,2-dihydro-2-oxo-4-pyrimidinyl]-
Formula: C21H23N3O7
CAS: 145593-78-8
Molecular weight: 429
m/z	intensity
27	45
28	28
29	69
30	8
31	12
39	45
40	16
41	133
42	69
43	999
44	35
45	13
47	17
50	14
51	63
52	14
53	26
54	11
55	71
56	20
57	164
58	15
60	12
61	20
65	22
66	13
67	156
68	22
69	55
70	21
71	44
72	22
73	21
76	18
77	349
78	34
79	25
80	14
81	249
82	35
83	56
84	18
85	63
86	21
87	11
91	64
92	10
93	11
94	501
95	351
96	27
99	11
103	17
104	16
105	719
106	63
107	17
108	11
109	11
111	21
112	44
113	211
114	19
115	34
116	18
117	11
119	23
121	17
122	29
123	14
128	10
129	21
130	23
131	12
132	24
134	14
136	10
138	10
139	103
140	10
141	17
142	11
143	10
145	55
149	21
153	25
154	12
155	191
156	24
161	15
163	13
164	9
165	8
169	19
170	10
171	27
173	20
176	10
186	66
187	34
189	19
198	18
199	19
205	525
206	89
207	9
214	65
215	607
216	867
217	119
218	13
220	219
221	38
242	7
258	3
268	3
309	51
310	24
326	6
340	4
356	11
369	29
370	20
429	52
430	13
