Mass Spectrum: 1H-Pyrrole-2-carboxamide, 4-amino-N-(3-amino-3-iminopropyl)-1-methyl-
Formula: C9H15N5O
CAS: 14559-42-3
Molecular weight: 209
m/z	intensity
41	190
42	690
43	999
44	170
53	200
54	270
57	420
69	190
94	330
95	410
96	230
98	200
112	130
123	650
124	310
138	330
139	520
150	90
165	80
192	720
209	130
