Mass Spectrum: 1H-Pyrrole-2-carboxamide, N-(3-amino-3-iminopropyl)-1-methyl-4-nitro-
Formula: C9H13N5O3
CAS: 14559-43-4
Molecular weight: 239
m/z	intensity
41	160
42	180
43	999
44	180
45	130
51	140
52	210
53	120
54	100
56	80
57	110
58	450
64	130
65	110
69	90
71	160
75	110
77	100
78	620
79	230
86	200
107	360
120	50
123	90
147	230
153	650
169	220
181	170
195	90
205	150
222	670
223	120
238	100
239	280
