Mass Spectrum: 3,5-Diamino-1,2,4-triazole
Formula: C2H5N5
CAS: 1455-77-2
Molecular weight: 99
m/z	intensity
10	31
13	3
14	1
16	4
17	5
18	1
26	4
27	29
28	21
29	61
30	14
31	2
34	3
38	2
39	3
40	3
41	37
42	160
43	664
44	60
53	24
54	6
57	205
58	6
67	5
68	34
69	37
70	12
71	2
99	999
100	41
