Mass Spectrum: 2-Chloroethylphosphorodichloridate
Formula: C2H4Cl3O2P
CAS: 1455-05-6
Molecular weight: 196
m/z	intensity
12	1
13	2
14	10
15	22
18	2
24	1
25	5
26	59
27	379
28	43
29	43
30	8
31	8
32	1
35	16
36	31
37	6
38	9
39	2
41	2
42	33
43	14
44	3
45	1
47	153
48	16
49	92
50	9
51	30
52	2
57	1
59	1
60	7
61	24
62	999
63	346
64	320
65	109
66	11
67	1
68	5
69	3
70	1
71	1
74	1
75	2
76	2
77	14
78	1
79	3
80	1
81	1
82	17
83	20
84	7
85	6
91	1
93	10
94	2
95	3
96	2
97	3
98	14
99	62
100	7
101	27
102	1
103	6
105	1
107	1
109	1
111	4
112	2
113	1
114	1
115	1
117	339
118	9
119	220
120	6
121	42
122	1
123	2
125	2
127	3
128	1
129	1
131	5
132	1
133	3
134	4
135	194
136	5
137	129
138	4
139	21
140	1
141	2
142	1
143	2
144	1
145	1
146	1
147	434
148	6
149	283
150	4
151	48
152	30
153	1
154	30
155	2
156	9
158	1
159	1
160	3
161	32
162	3
163	23
164	1
165	4
166	2
168	2
173	3
174	4
175	2
176	1
177	1
179	5
181	3
190	8
191	2
192	3
193	2
194	1
195	3
197	4
199	1
