Mass Spectrum: N-Formyl-beta-alanine
Formula: C4H7NO3
CAS: 14565-43-6
Molecular weight: 117
m/z	intensity
20	5
22	2
25	7
26	46
27	142
28	215
29	149
30	999
31	23
32	11
36	6
37	2
38	5
39	12
40	19
41	42
42	128
43	169
44	243
45	136
46	63
47	4
50	2
51	4
52	3
53	7
54	9
55	148
56	22
57	9
58	268
59	10
60	53
61	6
63	1
64	1
65	1
67	3
68	5
69	9
70	84
71	330
72	114
73	41
74	9
75	3
76	1
77	5
78	1
79	4
80	1
81	11
82	2
83	4
84	4
85	5
86	5
87	6
88	98
89	213
90	9
91	4
92	3
93	1
94	1
95	3
96	3
97	4
98	9
99	98
100	22
101	6
102	2
103	1
104	1
105	4
106	1
108	1
109	2
110	1
111	2
112	3
113	1
114	1
115	2
116	1
117	6
118	1
