Mass Spectrum: Ethanamine, 2-(2,6-dimethylphenoxy)-N-methyl-
Formula: C11H17NO
CAS: 14573-22-9
Molecular weight: 179
m/z	intensity
12	2
13	1
14	8
15	27
16	7
17	42
18	180
19	1
20	85
25	1
26	4
27	41
28	190
29	12
30	85
31	4
32	25
34	1
35	21
36	92
37	10
38	30
39	57
40	10
41	130
42	68
43	47
44	999
45	27
46	1
50	9
51	26
52	12
53	20
54	4
55	5
56	13
57	25
58	550
59	20
60	1
61	1
62	3
63	12
64	4
65	25
66	4
67	2
68	1
69	2
70	1
71	1
72	1
73	1
74	2
75	2
76	4
77	67
78	22
79	25
80	2
81	1
82	1
83	1
84	1
85	1
86	1
87	1
88	1
89	5
90	2
91	48
92	10
93	6
94	2
95	1
96	1
97	1
98	1
101	1
102	4
103	13
104	8
105	25
106	4
107	19
108	2
109	1
110	1
111	1
112	1
115	3
116	1
117	2
118	4
119	3
120	4
121	23
122	16
123	2
128	1
129	1
130	3
131	1
132	1
133	1
134	1
135	4
136	5
137	1
142	1
143	1
144	1
145	1
146	1
147	2
148	3
149	1
160	1
161	1
162	1
163	2
164	2
165	1
178	1
179	13
180	3
