Mass Spectrum: 3,3'-Diamino-4'-hydroxydiphenylsulfone
Formula: C12H12N2O3S
CAS: 14571-19-8
Molecular weight: 264
m/z	intensity
28	19
29	15
30	10
31	3
32	6
34	5
35	1
36	17
37	8
38	22
39	24
40	20
41	25
42	23
43	27
44	25
45	19
46	4
47	3
48	24
50	18
51	25
52	28
53	30
54	25
55	34
56	22
57	34
58	9
59	4
60	28
61	16
62	16
63	28
64	50
65	40
66	43
67	25
68	16
69	35
70	19
71	26
72	4
73	29
74	10
75	6
76	7
77	185
78	15
79	17
80	49
81	43
82	20
83	25
84	21
85	19
86	3
87	9
89	1
90	70
91	242
92	365
93	935
94	274
95	173
96	160
97	372
98	216
99	97
100	63
101	54
105	59
106	22
107	126
108	310
109	962
110	270
111	253
112	70
113	42
114	22
115	81
116	27
117	18
119	65
120	24
121	46
122	36
123	101
124	371
125	999
126	253
127	180
128	27
129	165
130	21
131	12
133	81
134	31
135	45
136	24
137	55
138	15
139	26
140	56
141	49
143	36
147	27
148	13
149	259
150	26
151	14
152	27
153	15
154	43
155	11
156	27
157	40
161	11
162	20
163	29
165	13
166	21
167	18
168	13
169	11
170	49
171	20
180	20
181	11
182	36
183	64
184	54
185	62
186	17
198	25
199	83
200	85
201	15
213	25
214	74
215	192
216	257
217	45
218	84
222	13
223	21
224	15
225	11
227	13
228	40
229	13
232	90
233	17
236	11
239	16
241	13
242	31
246	52
247	13
248	255
249	45
250	11
264	509
265	73
266	24
