Mass Spectrum: 4-Methylproline methyl ester
Formula: C7H13NO2
CAS: 145730-69-4
Molecular weight: 143
m/z	intensity
41	255
42	33
43	29
44	22
45	2
46	0
50	0
51	3
52	10
53	7
54	36
55	57
56	190
57	25
58	4
59	6
60	1
61	0
63	0
64	0
65	1
66	12
67	2
68	4
69	6
70	17
71	6
72	3
73	1
77	1
78	1
79	0
81	1
82	5
83	27
84	999
85	59
86	3
87	3
88	13
89	0
91	3
95	2
96	0
97	4
98	36
99	7
100	5
105	0
106	1
107	0
108	0
109	0
110	0
111	2
112	8
113	1
114	0
115	41
116	2
124	1
125	1
126	8
127	6
141	0
142	3
143	91
144	34
145	2
