Mass Spectrum: 1,4-Benzodioxin, 6-butyl-2,3-dihydro-5-(2-methylaminoethyloxy)-
Formula: C15H23NO3
CAS: 14597-82-1
Molecular weight: 265
m/z	intensity
25	3
26	17
27	33
28	5
29	83
30	44
31	41
35	3
36	19
38	12
39	28
40	7
41	27
42	52
43	45
44	478
45	47
46	3
47	3
49	4
50	7
51	18
52	22
53	20
54	5
55	18
56	41
57	32
58	999
59	80
60	22
61	7
63	9
64	8
65	37
66	18
67	7
68	3
69	19
70	41
71	9
75	5
76	164
77	62
78	16
79	15
80	27
81	16
82	5
87	6
88	16
89	6
91	27
92	11
93	7
94	14
95	6
96	3
98	4
103	5
105	45
106	6
107	12
108	8
109	16
110	9
111	3
115	4
118	4
119	9
120	4
121	18
122	9
123	13
131	3
133	4
134	4
135	6
136	7
137	6
138	4
139	7
147	7
148	3
149	34
150	8
151	20
152	13
153	6
162	3
163	11
164	16
165	650
166	80
167	9
175	4
176	3
177	11
178	16
179	108
180	15
189	7
190	6
191	37
192	22
193	6
194	4
204	4
205	5
206	17
207	74
208	272
209	43
210	4
220	6
221	3
222	13
234	13
264	4
265	151
266	30
267	3
