Mass Spectrum: 1-(3,6-Dimethyl-2-pyrazinyl)-2-methyl-1-propanone
Formula: C10H14N2O
CAS: 145984-66-3
Molecular weight: 178
m/z	intensity
37	1
38	22
39	136
40	47
41	60
42	141
43	148
44	5
45	8
46	0
50	0
51	7
52	17
53	19
54	22
55	7
56	4
58	3
63	3
64	14
65	13
66	61
67	26
68	2
69	5
70	31
71	24
72	1
73	2
77	4
78	1
79	13
80	91
81	13
82	8
84	0
87	1
88	1
91	2
92	4
93	0
95	2
104	0
105	11
106	7
107	999
108	450
109	49
110	3
118	2
119	1
120	1
121	5
122	241
123	20
124	1
132	1
133	11
134	2
135	155
136	32
137	3
145	49
146	4
147	7
148	4
149	40
150	135
151	19
159	11
161	12
162	2
163	259
164	29
165	4
176	5
177	36
178	399
179	43
180	2
