Mass Spectrum: Cholest-4-en-3-ol
Formula: C27H46O
CAS: 14597-42-3
Molecular weight: 386
m/z	intensity
41	530
43	999
44	18
45	9
47	5
49	2
51	1
53	90
55	742
57	460
58	16
59	5
60	4
65	37
67	342
69	309
71	186
72	9
77	103
79	268
81	404
83	230
84	18
85	53
86	4
87	8
88	2
91	231
93	333
95	590
97	208
98	3
99	22
101	8
102	9
103	15
105	257
106	35
107	390
109	319
110	43
111	60
112	2
113	9
114	3
115	27
117	71
118	8
119	141
120	58
121	209
122	112
123	152
124	563
125	61
126	2
127	17
128	12
129	23
131	89
133	180
134	101
135	194
136	39
137	112
138	19
139	10
141	8
142	2
143	33
144	4
145	99
147	244
148	81
149	109
150	20
151	21
152	16
153	2
155	9
157	31
159	82
160	10
161	166
162	49
163	56
165	43
166	8
169	7
171	23
172	3
173	74
174	23
175	77
176	60
177	61
178	12
179	12
183	7
185	26
186	4
187	70
188	24
189	44
190	24
191	21
192	2
193	22
197	9
199	23
200	6
201	39
202	25
203	190
204	35
205	15
206	24
207	12
211	15
213	59
214	5
215	81
216	21
217	26
218	7
219	16
220	7
225	2
226	2
227	21
228	12
229	154
230	44
231	46
232	17
233	31
234	17
241	5
243	16
244	12
245	33
246	18
247	49
248	13
253	9
255	35
256	10
257	18
258	7
259	13
260	66
261	76
262	20
263	2
271	25
272	6
273	42
274	31
275	11
285	6
286	13
287	31
288	8
299	27
300	11
301	44
302	13
313	10
314	54
315	111
316	252
317	64
318	8
327	25
328	88
329	28
331	2
332	12
342	40
343	12
353	33
354	10
357	11
366	5
367	8
368	25
369	30
370	10
371	29
372	5
373	10
383	6
384	68
385	44
386	210
387	63
388	24
