Mass Spectrum: Cyanic acid, 2,2-dimethylpropyl ester
Formula: C6H11NO
CAS: 1459-44-5
Molecular weight: 113
m/z	intensity
26	29
27	183
28	42
29	264
39	299
40	42
41	341
42	388
43	363
53	102
54	25
55	999
56	119
57	123
67	29
69	38
70	384
71	85
84	252
85	12
98	34
