Mass Spectrum: Aspartic acid, O(1)-[4-nitrobenzyl]-, ester
Formula: C11H12N2O6
CAS: 14602-76-7
Molecular weight: 268
m/z	intensity
41	31
42	30
43	40
44	31
45	13
46	6
47	0
49	1
50	25
51	62
52	19
53	13
54	3
55	20
56	23
57	6
58	1
59	1
60	20
61	3
62	10
63	40
64	17
65	109
66	10
67	6
68	7
69	8
70	24
71	10
72	7
73	3
74	7
75	7
76	12
77	112
78	78
79	90
80	7
81	3
82	5
83	5
84	6
85	4
86	6
87	10
88	27
89	114
90	96
91	999
92	55
93	2
94	5
95	2
96	5
97	3
98	3
99	4
100	7
101	1
102	8
103	1
104	3
105	20
106	41
107	467
108	349
109	25
110	3
111	5
112	2
113	1
114	8
115	2
116	2
117	1
118	2
119	0
120	7
121	8
122	2
123	1
124	7
125	2
126	0
127	0
128	2
129	7
130	1
131	0
132	14
133	2
134	1
135	2
136	58
137	395
138	88
139	9
140	0
141	0
142	3
143	1
144	1
145	0
147	1
149	1
150	1
151	1
152	6
153	37
154	3
155	0
157	1
159	1
160	9
161	3
162	1
163	0
165	2
166	1
167	8
168	1
169	0
171	0
173	0
176	0
177	2
178	99
179	13
180	3
181	12
182	2
184	0
189	0
197	1
206	0
212	0
221	2
222	33
223	5
224	1
226	0
227	1
232	0
236	2
243	10
244	1
248	0
249	4
250	7
251	1
266	0
267	7
268	40
269	1
