Mass Spectrum: N,N-Diethyl-N'-formyl-N'-methoxyurea
Formula: C7H14N2O3
CAS: 146039-03-4
Molecular weight: 174
m/z	intensity
14	1
15	19
16	1
26	9
27	61
28	80
29	272
30	42
31	23
32	15
33	2
39	2
40	5
41	13
42	80
43	31
44	256
45	8
46	9
47	14
52	1
53	1
54	4
55	17
56	62
57	13
58	73
59	8
60	5
68	1
69	3
70	42
71	32
72	754
73	32
74	5
75	3
83	5
84	4
85	3
86	8
87	3
88	3
98	5
99	21
100	999
101	68
102	5
113	2
114	7
115	5
116	20
117	1
127	16
128	1
129	1
131	14
132	1
142	3
143	8
144	1
146	9
159	2
174	3
