Mass Spectrum: L-Menthyl chloroformate
Formula: C11H19ClO2
CAS: 14602-86-9
Molecular weight: 218
m/z	intensity
15	3
16	2
26	3
27	60
28	19
29	50
30	1
31	1
35	3
36	12
37	2
38	8
39	112
40	20
41	261
42	38
43	128
44	141
45	4
46	1
49	2
50	6
51	24
52	13
53	94
54	78
55	337
56	70
57	81
58	5
59	1
61	1
62	3
63	66
64	3
65	55
66	17
67	379
68	112
69	142
70	28
71	10
72	1
73	1
74	1
75	11
76	2
77	67
78	14
79	116
80	98
81	999
82	306
83	184
84	15
85	2
86	1
87	1
88	3
89	11
90	2
91	41
92	6
93	50
94	95
95	932
96	241
97	56
98	4
102	1
103	3
104	2
105	5
106	1
107	7
108	3
109	90
110	26
111	8
112	2
115	1
117	1
118	1
119	3
120	1
121	5
123	400
124	39
125	3
130	1
131	1
132	1
133	2
134	1
135	1
136	1
137	9
138	266
139	64
140	6
175	1
