Mass Spectrum: 1,5-Cyclooctadien-4-one
Formula: C8H10O
CAS: 1460-21-5
Molecular weight: 122
m/z	intensity
26	7
27	58
28	3
29	3
31	0
37	2
38	10
39	105
40	130
41	25
42	42
43	2
44	25
45	3
46	2
49	0
50	9
51	18
52	9
53	29
54	16
55	16
56	1
57	1
60	1
61	1
62	3
63	8
64	1
65	15
66	30
67	13
68	999
69	46
70	3
71	0
73	0
74	1
75	0
76	0
77	25
78	248
79	68
80	61
81	12
82	2
83	0
84	0
87	0
89	1
90	0
91	16
92	14
93	13
94	25
95	3
96	1
97	0
98	0
103	2
104	5
105	1
106	1
107	11
108	1
109	0
110	0
119	0
120	0
121	21
122	189
123	17
124	1
