Mass Spectrum: N-Cyano-3-methylbut-2-enamine
Formula: C6H10N2
CAS: 146072-39-1
Molecular weight: 110
m/z	intensity
26	15
27	144
28	59
29	62
30	8
37	9
38	24
39	214
40	48
41	999
42	70
43	176
44	6
50	23
51	40
52	17
53	145
54	29
55	90
56	28
57	5
62	4
63	7
64	4
65	22
66	18
67	123
68	315
69	919
70	80
71	4
73	4
78	178
79	12
80	7
81	12
82	13
83	14
92	20
93	6
95	179
96	12
109	13
110	19
111	4
