Mass Spectrum: 2-Butenoic acid, 4-nitrophenyl ester, (E)-
Formula: C10H9NO4
CAS: 14617-88-0
Molecular weight: 207
m/z	intensity
28	181
30	90
32	36
38	72
39	490
40	90
41	818
42	72
44	18
50	36
53	18
61	18
62	36
63	109
64	72
65	36
68	72
69	999
70	200
71	9
74	9
75	9
76	9
93	9
109	9
122	9
123	9
139	9
160	9
161	9
207	18
