Mass Spectrum: Benzaldehyde, 3,5-bis(phenylmethoxy)-
Formula: C21H18O3
CAS: 14615-72-6
Molecular weight: 318
m/z	intensity
41	19
42	4
43	12
44	2
45	1
47	0
49	5
50	7
51	22
52	7
53	3
54	1
55	8
56	2
57	4
58	1
60	0
61	1
62	6
63	32
64	14
65	140
66	9
67	1
68	2
69	6
70	1
71	1
73	1
74	1
75	2
76	1
77	9
78	3
79	4
80	3
81	3
82	4
83	2
84	11
85	1
86	2
88	1
89	22
90	11
91	999
92	85
93	4
94	2
95	4
96	1
97	1
98	1
103	0
105	3
106	0
107	0
108	1
109	0
110	1
111	1
115	5
116	0
120	1
121	0
122	0
123	1
124	4
125	1
127	1
128	2
129	1
131	1
138	5
139	1
141	2
142	1
143	0
151	1
152	1
153	7
154	0
165	1
167	2
169	1
171	1
179	2
180	16
181	41
182	5
197	1
199	1
209	1
221	1
225	1
226	0
227	11
228	2
242	0
249	0
318	41
319	9
320	1
