Mass Spectrum: 1-Hydroxy-1-phenyl-1-(tricyclo[2,2,1,0(2,6)]hept-2-yl)-3-piperidinopropane
Formula: C21H29NO
CAS: 14617-18-6
Molecular weight: 311
m/z	intensity
12	0
13	0
15	17
16	0
17	0
18	4
26	3
27	36
28	46
29	30
30	37
31	2
32	0
37	0
39	45
41	125
42	129
43	29
44	66
45	2
50	3
51	19
52	6
53	15
54	13
55	107
56	39
57	13
58	3
62	0
63	3
65	28
66	10
67	11
68	10
69	33
70	46
71	2
74	0
75	1
77	128
78	26
79	12
80	2
81	2
82	6
83	7
84	33
85	25
86	4
87	0
89	2
91	77
92	9
93	24
94	3
96	21
98	999
99	71
100	2
101	0
102	1
103	4
105	44
106	4
107	1
108	0
109	0
110	3
111	2
112	12
113	2
114	6
115	8
116	1
117	2
118	0
119	0
120	1
121	0
122	0
124	0
126	0
127	1
128	3
129	2
130	0
131	1
132	0
133	5
134	1
135	0
139	0
141	2
142	1
143	0
144	0
145	0
146	0
151	0
152	1
153	1
154	0
155	0
156	0
157	0
158	0
162	0
165	1
166	0
167	0
168	0
169	0
171	0
176	0
178	0
179	0
180	0
181	0
183	0
192	0
199	0
200	0
216	0
218	24
219	4
220	0
234	0
268	0
293	0
294	0
295	0
310	0
311	0
312	0
