Mass Spectrum: N-(n-Heptyl)trifluoroacetamide
Formula: C9H16F3NO
CAS: 14618-18-9
Molecular weight: 211
m/z	intensity
30	173
31	17
38	20
39	301
40	58
41	999
42	336
43	721
44	116
45	20
46	20
47	14
48	3
49	35
50	44
51	10
52	65
54	76
55	575
56	466
57	341
58	202
59	10
63	7
64	8
65	13
66	33
67	49
68	14
69	653
70	259
71	17
72	66
73	4
77	8
78	142
79	30
81	12
83	40
84	12
85	18
86	18
92	7
93	5
94	18
95	2
96	15
97	48
98	61
99	14
100	25
106	7
107	11
108	6
113	5
114	204
115	5
124	29
126	650
127	804
128	74
129	3
139	11
140	113
141	44
142	698
143	70
144	5
154	63
155	16
167	3
168	85
169	18
182	32
183	5
196	5
211	6
212	1
