Mass Spectrum: Stannane, bromotributyl-
Formula: C12H27BrSn
CAS: 1461-23-0
Molecular weight: 370
m/z	intensity
25	4
26	38
27	327
28	108
29	999
30	23
31	3
37	4
38	8
39	125
40	17
41	704
42	28
43	14
44	2
45	2
50	3
51	5
52	4
53	8
54	5
55	38
56	33
57	474
58	21
59	2
69	1
79	1
80	6
82	5
113	3
114	2
115	4
116	19
117	77
118	75
119	123
120	83
121	140
122	12
123	29
124	5
125	28
130	2
131	6
132	6
133	14
134	6
135	17
137	0
138	1
139	1
141	2
143	7
144	4
145	11
146	4
147	13
148	4
149	14
151	5
153	3
154	2
155	2
156	1
169	5
171	7
172	4
173	76
174	45
175	144
176	55
177	188
178	21
179	69
180	6
181	36
182	2
183	7
191	5
193	9
195	82
196	37
197	192
198	92
199	297
200	43
201	200
203	63
205	23
207	1
209	1
215	1
217	1
222	2
224	2
225	4
226	3
227	5
228	3
229	2
230	3
231	14
232	11
233	19
234	12
235	27
236	3
237	5
239	3
249	8
250	1
251	21
252	14
253	114
254	62
255	267
256	115
257	403
258	77
259	269
260	16
261	80
262	5
263	31
264	2
267	2
269	2
283	1
287	5
288	5
289	16
290	9
291	22
293	3
295	4
305	11
307	21
308	7
309	200
310	126
311	466
312	243
313	750
314	135
315	410
316	30
317	112
318	12
319	63
320	10
333	2
335	3
337	4
