Mass Spectrum: 7-Nitro-1,3,5-triazaadamantane
Formula: C7H12N4O2
CAS: 14612-28-3
Molecular weight: 184
m/z	intensity
33	6
34	1
37	4
38	12
39	95
40	69
41	147
42	999
44	45
45	5
46	6
48	2
50	2
51	6
52	8
53	21
54	26
55	66
56	21
57	9
58	9
59	2
60	5
61	1
64	4
65	4
66	8
67	28
68	82
69	23
70	12
71	6
72	1
73	2
74	1
77	2
78	1
80	57
81	42
82	77
83	14
84	9
85	6
86	1
87	1
91	1
92	2
93	2
95	37
96	12
97	17
98	6
99	2
100	1
101	1
105	1
106	1
107	2
108	7
109	53
111	75
112	7
113	3
114	1
115	2
121	1
122	1
123	4
124	37
125	8
126	2
127	2
128	1
129	4
131	1
135	1
136	2
137	4
138	43
139	5
140	7
141	1
142	1
149	1
153	1
154	1
156	24
157	2
167	1
184	137
185	11
186	1
