Mass Spectrum: Acetamide, N-(2-acetyl-3-oxo-4-isoxazolidinyl)-
Formula: C7H10N2O4
CAS: 14617-47-1
Molecular weight: 186
m/z	intensity
25	2
26	10
27	27
28	66
29	46
30	63
31	10
37	2
38	5
39	12
40	20
41	63
42	81
43	999
44	180
45	22
46	3
51	3
52	2
53	4
54	6
55	40
56	22
57	62
58	17
59	137
60	65
61	6
66	2
67	14
68	10
69	48
70	21
71	34
72	13
74	31
75	6
76	3
77	2
79	5
80	2
81	25
82	9
83	34
84	47
85	55
86	59
87	8
88	3
91	3
93	5
94	4
95	16
96	7
97	20
98	9
99	32
100	5
101	36
102	28
103	3
105	2
107	4
108	2
109	10
110	5
111	32
112	69
113	10
114	2
115	7
116	2
121	5
122	2
123	7
124	3
125	8
126	3
127	5
128	6
129	9
130	2
135	3
136	3
137	8
138	2
139	5
140	2
141	6
142	3
143	3
144	302
145	22
146	3
151	3
152	3
153	3
154	2
155	4
163	2
165	3
167	4
168	2
169	2
185	2
186	35
187	5
