Mass Spectrum: 2,5-Dimethyl-1-trifluoroacetylpyrrolidine
Formula: C8H12F3NO
CAS: 14618-40-7
Molecular weight: 195
m/z	intensity
39	183
40	70
41	545
42	202
43	55
44	91
45	81
50	58
51	70
52	38
53	51
54	46
55	187
56	87
57	30
59	5
65	21
66	31
67	999
68	80
69	489
70	189
77	19
78	69
79	36
80	8
81	59
82	34
83	98
84	19
85	23
96	28
97	17
98	8
110	21
114	24
119	6
125	4
126	194
127	10
140	37
141	4
142	4
151	3
152	27
153	22
154	5
162	9
163	4
178	9
179	16
180	972
181	90
182	5
194	9
195	70
196	6
