Mass Spectrum: Butyric acid, m-nitrophenyl ester
Formula: C10H11NO4
CAS: 14617-97-1
Molecular weight: 209
m/z	intensity
26	8
27	141
28	10
29	14
30	41
37	5
38	28
39	72
40	7
41	173
42	41
43	998
44	29
50	23
51	9
52	5
53	8
54	3
55	44
56	3
60	2
61	3
62	12
63	60
64	49
65	30
66	5
69	6
70	14
71	999
72	39
73	3
74	5
75	14
76	18
77	4
79	2
81	6
91	2
92	22
93	21
94	3
109	5
122	5
123	5
139	9
209	4
