Mass Spectrum: 5.alpha.-Cholestan-2-one, oxime
Formula: C27H47NO
CAS: 14614-13-2
Molecular weight: 401
m/z	intensity
26	10
27	50
28	130
29	300
30	40
31	10
32	70
37	10
38	10
39	100
40	20
41	700
42	110
43	999
44	80
45	30
46	10
50	50
51	20
52	50
53	120
54	60
55	810
56	130
57	590
58	50
59	10
60	50
61	10
65	30
66	20
67	390
68	130
69	440
70	200
71	250
72	10
73	120
74	20
77	90
78	30
79	330
80	80
81	470
82	100
83	210
84	30
85	40
86	70
87	30
88	10
89	10
91	170
92	40
93	310
94	120
95	420
96	100
97	110
98	110
99	20
100	10
101	10
103	10
104	20
105	160
106	70
107	250
108	120
109	190
110	50
111	80
112	50
113	10
115	20
116	10
117	30
118	30
119	110
120	100
121	180
122	90
123	110
124	270
125	80
126	40
127	10
128	10
129	20
130	10
131	40
132	20
133	70
134	50
135	90
136	40
137	50
138	170
139	30
140	30
141	10
142	10
143	20
144	10
145	50
146	30
147	80
148	30
149	60
150	30
151	10
152	20
153	10
154	10
155	10
156	10
157	20
158	20
159	70
160	30
161	60
162	20
163	30
164	10
165	20
166	20
167	10
168	10
169	10
170	10
171	20
172	10
173	60
174	60
175	40
176	20
177	10
178	30
179	20
180	10
181	10
185	20
186	10
187	30
188	40
189	20
190	10
191	10
192	20
193	10
194	10
199	20
200	10
201	20
202	20
203	20
204	10
205	10
206	10
207	10
208	10
211	10
212	10
213	20
214	10
215	90
216	60
217	40
218	20
219	20
220	20
221	10
227	10
228	20
229	20
230	80
231	30
232	40
233	20
234	20
235	10
241	10
242	10
243	10
244	50
245	20
246	130
247	70
248	70
249	10
255	10
256	20
257	20
258	20
259	10
260	20
261	90
262	80
263	20
270	20
271	10
272	30
273	20
274	30
275	10
276	20
285	10
286	10
287	10
288	50
289	30
290	10
298	10
299	10
300	10
301	10
302	10
303	10
313	10
314	10
315	20
316	20
317	10
326	10
327	40
328	60
329	40
330	20
331	10
343	20
354	30
355	10
356	20
357	20
368	20
369	40
370	70
371	60
372	20
373	10
374	10
375	10
382	10
383	20
384	280
385	120
386	90
387	40
388	20
399	20
400	40
401	880
402	280
403	60
404	20
