Mass Spectrum: Acetamide, N-(2-methyl-3-oxo-4-isoxazolidinyl)-
Formula: C6H10N2O3
CAS: 14617-48-2
Molecular weight: 158
m/z	intensity
41	51
43	999
46	40
47	18
51	39
53	37
56	75
58	69
59	152
60	17
72	19
73	16
78	20
82	17
84	100
85	60
87	58
88	17
105	17
112	84
113	65
115	16
116	16
142	17
143	18
158	85
159	42
