Mass Spectrum: Trifluoroacetamide, N-isopropyl-N-propyl-
Formula: C8H14F3NO
CAS: 14618-26-9
Molecular weight: 197
m/z	intensity
25	0
26	8
27	209
28	78
29	28
30	15
31	7
33	3
36	0
37	1
38	4
39	81
40	19
41	374
42	108
43	999
44	58
45	30
46	2
47	6
48	0
49	0
50	3
51	5
52	2
53	1
54	11
55	55
56	80
57	13
58	14
59	28
60	2
61	1
62	0
63	2
64	2
65	1
66	3
67	2
68	4
69	97
70	53
71	4
72	2
73	0
74	1
75	0
76	1
77	2
78	20
79	4
80	0
81	1
82	2
83	1
84	19
85	1
86	43
87	2
88	0
89	0
90	1
91	1
92	7
93	9
94	4
95	1
96	6
97	6
98	23
99	1
100	1
101	0
102	0
103	0
104	0
105	0
106	9
107	6
108	2
109	1
110	2
111	0
112	1
113	4
114	29
115	1
117	0
118	0
119	0
120	1
121	0
122	2
123	0
124	0
125	1
126	726
127	38
128	39
129	3
130	0
131	0
133	0
134	0
135	0
136	15
137	1
138	1
139	0
140	338
141	17
142	2
149	1
150	0
151	0
152	2
153	0
154	83
155	10
156	6
157	0
159	0
162	0
165	0
166	2
167	0
168	124
169	9
170	1
180	2
181	1
182	210
183	17
184	1
195	0
196	1
197	51
198	6
199	0
