Mass Spectrum: Cyclopentanemethanol, .alpha.,.alpha.-dimethyl-
Formula: C8H16O
CAS: 1462-06-2
Molecular weight: 128
m/z	intensity
39	192
40	42
41	272
42	42
43	302
44	80
51	52
53	70
55	182
58	60
59	999
65	30
66	40
67	300
68	78
69	110
81	50
83	120
91	58
95	200
97	40
100	80
113	92
