Mass Spectrum: Octadecane, 1,1-dimethoxy-
Formula: C20H42O2
CAS: 14620-55-4
Molecular weight: 314
m/z	intensity
53	10
54	10
55	70
56	20
57	60
58	30
59	10
67	40
68	20
69	40
70	10
71	109
72	10
74	10
75	999
76	30
77	10
79	10
81	30
82	40
83	40
84	10
85	20
87	10
95	30
96	20
97	40
101	10
109	10
110	10
111	20
123	10
124	10
125	10
250	10
283	50
284	10
