Mass Spectrum: Pyrazolo[4,3-d]isoxazole, 4-methyl-6-phenyl-
Formula: C11H9N3O
CAS: 146254-81-1
Molecular weight: 199
m/z	intensity
33	4
34	0
36	2
37	1
38	7
39	21
40	28
41	31
42	212
43	76
44	107
45	14
50	53
51	198
52	43
53	47
54	27
55	15
56	5
57	3
58	1
61	0
62	5
63	10
64	5
66	11
67	8
68	11
69	2
70	3
72	5
73	7
74	13
75	16
77	808
78	54
79	17
80	73
82	10
84	0
86	45
87	1
88	2
89	5
91	31
92	4
93	6
94	5
95	60
96	7
97	0
98	5
99	4
100	2
101	5
102	13
103	7
105	999
106	64
107	16
108	1
114	2
115	5
116	5
117	3
118	1
119	0
123	131
124	8
127	3
128	7
129	13
130	37
131	13
132	3
134	0
140	2
141	2
142	3
143	3
144	9
145	1
154	1
155	3
156	19
157	30
158	11
159	2
167	0
168	3
169	3
170	5
171	105
172	82
173	9
174	1
181	0
182	4
183	82
184	20
185	24
186	1
196	0
197	7
199	913
200	450
201	54
202	3
