Mass Spectrum: (2,7-Octadienyl)succinic anhydride, (E)-
Formula: C12H16O3
CAS: 14620-85-0
Molecular weight: 208
m/z	intensity
14	1
15	7
26	12
27	225
28	64
29	196
30	4
31	5
37	2
38	11
39	352
40	52
41	575
42	39
43	53
44	12
45	9
47	2
50	14
51	50
52	34
53	211
54	793
55	890
56	45
57	17
58	3
59	2
60	112
61	9
62	4
63	12
64	4
65	79
66	93
67	866
68	228
69	49
70	9
71	24
72	29
73	21
74	7
75	2
76	2
77	136
78	98
79	999
80	514
81	368
82	98
83	118
84	33
85	9
86	15
87	3
88	1
89	2
90	1
91	142
92	84
93	400
94	242
95	194
96	54
97	71
98	9
99	149
100	187
101	11
102	4
103	13
104	19
105	51
106	65
107	142
108	272
109	145
110	19
111	19
112	17
113	19
114	6
115	7
116	4
117	20
118	31
119	54
120	74
121	248
122	35
123	115
124	497
125	58
126	18
127	9
128	20
129	23
130	22
131	48
132	9
133	29
134	50
135	56
136	90
137	17
138	208
139	30
140	10
141	79
142	9
143	6
144	49
145	93
146	21
147	23
148	46
149	71
150	9
151	9
152	7
153	11
154	115
155	11
156	1
157	2
158	1
159	2
160	2
161	14
162	47
163	51
164	40
165	48
166	278
167	119
168	12
169	1
171	1
172	5
173	2
174	1
175	14
176	2
178	1
179	29
180	22
181	4
188	1
189	5
190	159
191	26
192	7
193	19
194	3
207	2
208	76
209	11
210	2
