Mass Spectrum: Amphetamine, TMS derivative
Formula: C12H21NSi
CAS: 14629-65-3
Molecular weight: 207
m/z	intensity
15	1
27	3
29	7
30	2
31	7
38	1
39	17
40	1
41	11
42	15
43	37
44	32
45	76
46	11
47	3
50	3
51	10
52	3
53	4
54	2
55	6
56	6
57	8
58	18
59	87
60	16
61	4
62	2
63	9
64	3
65	41
66	3
67	2
68	1
69	2
70	8
71	4
73	636
74	68
75	26
76	2
77	10
78	4
79	3
82	1
83	2
84	3
86	25
87	3
88	2
89	8
91	122
92	13
93	3
95	1
96	3
98	2
100	101
101	19
102	7
103	5
104	2
105	5
106	1
107	3
114	7
116	999
117	142
118	49
119	7
120	2
121	13
122	2
123	1
129	1
130	1
131	4
132	2
133	4
134	3
135	7
136	1
145	3
146	2
147	3
148	2
149	8
150	1
159	3
160	6
161	1
162	1
173	2
174	2
175	9
176	4
177	1
190	2
192	88
193	16
194	4
206	7
207	1
