Mass Spectrum: 2-Butyl-3,4,5,6-tetrahydropyridine
Formula: C9H17N
CAS: 1462-94-8
Molecular weight: 139
m/z	intensity
41	61
54	51
55	50
69	49
82	89
84	70
96	387
97	999
98	60
110	169
124	40
138	19
139	10
