Mass Spectrum: Myrtene acid chloride
Formula: C10H13ClO
CAS: 146254-24-2
Molecular weight: 184
m/z	intensity
26	10
27	159
28	9
29	70
36	5
37	2
38	14
39	214
40	34
41	245
42	15
43	179
44	5
45	3
49	0
50	33
51	117
52	54
53	158
54	17
55	59
56	18
57	4
58	5
59	7
62	8
63	36
64	8
65	96
66	51
67	67
68	28
69	53
70	4
71	3
73	4
74	6
75	14
76	7
77	297
78	112
79	307
80	35
81	97
82	11
83	11
87	9
89	13
90	5
91	230
92	37
93	226
94	48
95	15
96	0
99	0
100	5
101	3
102	7
103	51
104	15
105	999
106	382
107	292
108	59
109	12
113	25
114	20
115	34
116	14
117	12
118	3
119	41
120	32
121	134
122	13
123	0
125	0
127	5
128	8
129	8
130	4
131	45
132	5
133	99
134	12
135	6
140	13
141	223
142	206
143	95
144	70
145	7
147	15
148	64
149	514
150	57
151	4
155	4
156	10
157	1
158	2
169	10
171	3
184	47
185	5
186	15
