Mass Spectrum: Benzene, [(2-bromoethoxy)methyl]-
Formula: C9H11BrO
CAS: 1462-37-9
Molecular weight: 214
m/z	intensity
50	17
51	50
52	17
63	25
65	63
77	70
78	20
79	101
91	999
92	374
93	20
105	45
106	17
107	50
109	50
121	17
213	20
214	81
215	25
216	81
217	25
