Mass Spectrum: 1H,3H-Pyrrolo[1,2-c][1,3,2]oxazaborole, tetrahydro-1-ethyl-3,3-diphenyl-
Formula: C19H22BNO
CAS: 146204-88-8
Molecular weight: 291
m/z	intensity
26	1
27	6
28	13
29	3
30	6
39	8
40	3
41	13
42	3
43	20
45	1
50	2
51	14
52	7
53	18
54	5
55	1
56	2
62	1
63	6
64	0
65	5
66	3
67	1
68	9
69	4
70	999
71	41
72	0
74	0
75	1
76	5
77	38
78	9
79	3
80	7
81	8
82	18
83	24
87	1
88	2
89	9
90	3
91	17
92	1
95	3
96	16
97	3
98	1
101	2
102	8
103	12
104	11
105	18
106	2
107	0
108	2
109	4
110	6
111	1
113	1
114	1
115	17
116	7
117	8
118	1
122	0
123	0
124	3
126	2
127	2
128	10
129	4
130	22
131	30
132	2
137	1
138	1
139	11
140	2
141	1
143	1
144	2
145	1
146	1
150	0
151	3
152	16
153	4
154	2
155	2
156	8
157	2
158	5
159	0
162	0
163	13
164	15
165	286
166	267
167	329
168	43
169	2
170	0
176	4
177	2
178	19
179	10
180	2
181	2
182	3
183	2
184	6
185	11
186	4
187	0
189	2
190	3
191	10
192	10
193	32
194	5
200	2
201	1
202	1
203	2
204	5
205	4
206	21
207	4
212	1
213	6
214	8
215	1
217	2
218	5
219	2
220	2
221	12
222	29
223	4
231	0
232	4
233	4
234	15
235	10
236	2
260	0
261	9
262	31
263	12
264	1
289	6
290	119
291	423
292	82
293	8
294	0
