Mass Spectrum: 4-Fluorobenzyl alcohol, TMS derivative
Formula: C10H15FOSi
CAS: 14629-55-1
Molecular weight: 198
m/z	intensity
15	2
26	1
27	3
29	11
30	1
31	5
32	4
33	1
37	1
38	2
39	13
40	1
42	5
43	43
44	10
45	78
46	6
47	27
48	1
49	5
50	9
51	16
52	3
53	4
54	1
55	6
56	2
57	38
58	17
59	50
60	5
61	6
62	8
63	32
64	3
65	3
66	1
67	1
68	1
69	4
70	6
71	1
72	4
73	154
74	18
75	40
76	8
77	212
78	18
79	13
80	1
81	10
82	4
83	156
84	7
85	2
86	2
87	5
88	2
89	23
90	4
91	33
93	2
94	3
95	23
96	8
97	16
98	1
99	1
101	4
102	1
103	6
104	6
105	24
106	5
107	37
108	11
109	999
110	79
111	3
115	1
119	1
120	1
121	2
122	5
123	17
124	3
125	6
127	1
133	1
135	1
137	1
139	4
140	1
141	1
147	1
149	2
150	1
151	3
152	2
153	194
154	27
155	28
156	3
157	2
161	3
162	1
163	5
164	1
165	5
166	1
167	53
168	7
169	2
178	1
179	2
181	15
183	862
184	133
185	37
186	4
197	12
198	30
199	6
200	1
