Mass Spectrum: (4-BUTOXYBENZYL)TRIPHENYLPHOSPHONIUM BROMIDE
Formula: C29H30BrOP
CAS: 146346-92-1
Molecular weight: 504
m/z	intensity
17	9
18	52
26	4
27	21
28	27
29	60
30	1
32	6
38	2
39	36
40	3
41	58
42	3
43	3
44	5
50	13
51	49
52	19
53	9
54	1
55	11
56	9
57	48
58	2
60	3
62	4
63	17
64	5
65	15
66	1
68	1
69	4
74	4
75	5
76	7
77	72
78	46
79	19
80	20
81	18
82	19
83	9
87	2
88	2
89	26
90	34
91	16
92	6
93	2
94	2
95	1
101	2
102	5
103	1
104	1
105	6
106	21
107	999
108	552
109	41
110	2
113	2
114	1
115	29
116	4
117	1
119	2
120	8
121	4
122	1
126	4
127	3
128	9
129	3
131	17
132	2
133	27
134	3
135	1
138	1
139	23
140	6
141	11
142	2
144	3
145	2
146	2
147	2
150	3
151	9
152	93
153	21
154	15
155	3
156	1
157	42
158	5
159	5
163	478
164	71
165	10
166	2
168	2
169	6
170	22
171	7
173	5
174	1
177	1
178	1
181	13
182	6
183	743
184	221
185	95
186	11
187	4
189	1
193	1
195	1
197	2
199	4
201	3
202	2
207	1
211	7
212	25
213	4
215	2
226	2
227	1
228	3
229	2
230	4
231	1
233	2
242	20
243	2
244	20
245	3
257	4
258	1
259	4
260	4
261	231
262	999
263	253
264	22
265	1
268	18
269	4
277	5
278	3
324	8
325	2
347	55
348	15
349	2
