Mass Spectrum: 9H-Fluoren-9-one, 3-nitro-2,7-bis[2-(1-piperidinyl)ethoxy]-
Formula: C27H33N3O5
CAS: 146397-91-3
Molecular weight: 479
m/z	intensity
54	14
55	77
56	34
57	32
58	9
68	17
69	41
70	24
71	17
82	26
83	39
84	19
85	15
96	33
97	15
98	999
99	68
110	24
111	26
112	345
113	41
450	16
451	5
463	6
464	2
478	6
479	15
480	5
