Mass Spectrum: 4-Chloro-N-(3,5-dibromo-4-hydroxyphenyl)benzenesulfonamide
Formula: C12H8Br2ClNO3S
CAS: 146463-23-2
Molecular weight: 439
m/z	intensity
34	9
35	28
36	50
37	67
38	98
39	86
40	83
41	54
42	46
43	159
44	112
45	132
48	122
50	999
51	555
52	709
53	687
55	53
56	19
57	37
60	83
61	85
62	97
63	86
64	50
65	41
67	14
68	29
69	38
70	16
71	22
72	29
73	118
74	303
75	813
76	376
77	195
78	224
79	402
80	120
81	43
82	40
83	16
84	38
85	79
86	21
87	37
88	23
89	14
90	9
91	34
92	16
93	9
95	17
99	25
101	10
104	58
105	45
106	137
107	37
108	52
111	886
112	151
113	213
114	37
115	9
126	9
127	22
128	29
129	54
130	70
131	74
132	52
133	22
143	9
149	9
153	9
154	11
156	90
157	51
158	133
159	75
160	67
161	20
175	92
177	51
182	23
184	148
185	100
186	130
187	75
188	26
209	9
211	16
237	22
238	13
239	40
241	23
260	11
261	19
264	629
266	960
267	142
268	350
269	27
439	80
441	134
443	94
444	12
445	13
