Mass Spectrum: Butanamide, N-(4-methoxyphenyl)-2,4-dioxo-3,4-diphenyl-
Formula: C23H19NO4
CAS: 146463-41-4
Molecular weight: 373
m/z	intensity
33	19
34	1
35	4
36	4
37	5
38	13
39	43
40	20
41	27
42	6
43	6
44	11
45	2
47	1
49	36
50	30
51	104
52	42
53	31
54	5
55	4
56	1
57	2
58	0
60	5
62	105
63	64
64	58
65	31
66	5
67	7
68	2
69	4
70	2
71	0
73	1
74	8
75	13
77	400
78	34
79	19
80	39
81	7
82	3
83	3
84	1
85	1
86	2
87	5
89	78
90	72
91	42
92	41
93	6
95	46
96	5
98	29
100	23
101	3
102	8
105	999
106	87
108	278
109	15
111	3
112	0
113	3
115	14
116	3
118	171
119	19
122	281
123	769
124	55
125	7
126	6
127	6
128	9
129	7
130	1
131	0
132	1
134	48
135	15
136	3
137	2
138	2
139	11
140	2
141	4
142	1
145	12
146	3
147	7
149	77
150	37
151	31
152	56
153	9
154	1
155	0
162	5
163	10
165	116
166	32
167	83
168	12
169	1
170	0
171	4
174	0
175	2
176	18
177	43
178	45
179	15
180	5
181	3
182	0
187	2
189	0
190	1
191	1
193	4
194	18
195	64
196	101
197	14
198	1
202	0
204	0
205	2
206	1
207	4
208	2
210	58
211	8
212	2
213	0
219	1
221	8
222	52
223	239
224	40
225	5
227	21
228	2
238	0
240	0
248	0
250	5
251	27
252	4
253	0
254	1
255	0
256	0
266	0
267	0
268	1
269	1
283	0
284	0
294	0
295	0
296	0
297	0
298	0
300	44
301	6
302	0
312	0
321	0
326	6
327	14
328	5
329	0
345	0
349	1
350	0
354	0
355	11
356	3
357	2
358	0
363	0
369	1
370	1
371	2
373	153
374	36
375	5
376	0
