Mass Spectrum: .alpha.-D-Glucopyranose, 4-O-.beta.-D-galactopyranosyl-
Formula: C12H22O11
CAS: 14641-93-1
Molecular weight: 342
m/z	intensity
12	1
13	1
14	13
15	103
16	5
17	69
18	276
25	2
26	26
27	144
28	166
29	338
30	47
31	310
32	19
33	2
36	4
37	5
38	10
39	92
40	20
41	200
42	155
43	424
44	273
45	240
46	10
47	87
48	1
49	4
50	5
51	9
52	9
53	52
54	27
55	190
56	182
57	559
58	49
59	43
60	805
61	198
62	9
63	2
64	1
65	3
66	3
67	9
68	34
69	393
70	203
71	255
72	90
73	999
74	119
75	15
76	2
77	5
78	1
79	4
80	13
81	78
82	17
83	25
84	29
85	295
86	66
87	132
88	11
89	47
90	9
91	107
92	4
93	2
94	4
95	17
96	18
97	160
98	111
99	82
100	9
101	54
102	33
103	53
104	4
105	2
106	1
107	2
108	2
109	33
110	25
111	12
112	5
113	35
114	21
115	61
116	16
117	5
118	1
119	12
120	2
121	3
122	1
123	8
124	2
125	9
126	46
127	105
128	15
129	9
130	1
131	14
132	3
133	9
134	1
135	2
136	1
137	2
138	1
139	6
140	3
141	3
142	2
143	9
144	48
145	116
146	11
147	3
148	1
149	2
150	1
151	3
152	1
153	2
154	1
155	6
156	1
157	4
158	1
159	1
160	1
161	7
162	6
163	45
164	4
165	2
167	2
168	1
169	6
170	1
171	2
173	51
174	5
175	3
176	1
177	1
179	2
181	2
183	1
185	3
186	5
187	9
188	1
189	2
190	1
191	14
192	2
193	1
197	3
199	2
201	1
203	2
204	11
205	9
206	1
207	1
209	1
211	1
215	4
216	1
217	2
221	2
225	1
227	3
229	1
233	5
234	1
235	1
239	1
241	1
245	2
253	1
257	2
275	3
293	1
