Mass Spectrum: 2,2-Difluoroheptacosanoic acid
Formula: C14H26F2O2
CAS: 146402-22-4
Molecular weight: 264
m/z	intensity
41	478
42	42
43	999
44	13
45	75
46	1
47	36
48	1
49	1
50	2
51	23
53	58
54	42
55	350
56	218
57	678
58	7
59	83
60	28
61	27
62	2
63	3
64	9
65	18
66	8
67	63
68	45
69	190
70	116
71	319
73	147
74	24
75	13
77	57
78	10
79	40
80	2
81	61
82	50
83	100
84	55
85	162
87	161
88	17
89	9
91	36
93	23
94	16
95	34
96	52
97	70
98	42
99	61
100	11
101	90
102	9
103	15
104	1
105	30
106	14
107	24
108	11
109	17
110	25
111	36
112	33
113	39
115	71
116	17
117	25
118	16
119	31
120	22
121	17
122	5
123	12
124	15
125	23
126	20
127	17
129	189
130	25
131	159
132	11
133	15
134	23
135	12
136	5
137	16
138	70
139	12
140	9
141	16
143	183
144	30
145	73
146	8
147	24
148	8
149	10
151	306
152	39
153	9
154	11
155	14
157	73
158	15
159	16
161	22
162	6
163	4
165	213
166	20
167	11
168	17
169	9
171	47
172	11
173	13
174	1
175	10
176	8
177	4
178	2
179	50
180	5
181	4
182	1
183	7
185	121
186	14
187	11
188	2
189	4
190	2
191	1
192	1
193	34
194	4
195	2
196	1
197	10
198	2
199	18
200	5
201	5
202	1
203	2
204	1
205	0
206	1
207	40
208	4
209	1
210	0
211	2
212	1
213	10
214	3
215	2
216	0
217	1
218	0
219	0
221	22
222	3
223	1
224	1
225	1
226	1
227	2
228	9
229	3
230	0
231	0
235	6
236	2
237	23
238	4
239	1
240	0
241	1
242	0
243	0
244	1
245	0
246	11
247	2
249	2
250	0
251	2
252	2
253	0
254	0
255	0
256	1
257	0
259	0
262	0
263	2
264	98
265	21
266	3
267	0
