Mass Spectrum: Rhodium, tris(1,1,1-trifluoro-2,4-pentanedionato-O,O')-
Formula: C15H12F9O6Rh
CAS: 14652-54-1
Molecular weight: 562
m/z	intensity
26	1
27	41
28	424
29	64
31	44
39	37
41	31
42	52
43	999
44	91
45	105
51	15
55	15
57	1
58	0
59	0
60	72
63	7
67	8
69	381
70	8
73	8
75	7
77	7
78	6
83	2
84	9
85	487
86	23
87	9
89	13
91	14
97	14
103	3
117	3
118	0
119	38
120	9
130	1
131	15
132	3
139	99
140	7
143	0
144	1
145	7
146	9
153	3
154	167
155	9
158	1
159	5
160	2
161	1
162	2
163	2
165	1
167	2
171	0
172	1
173	0
174	0
175	1
177	2
178	0
179	5
180	2
181	4
185	2
186	0
187	0
188	0
189	0
191	0
192	0
193	3
194	0
195	0
198	0
199	3
200	3
201	3
202	0
203	1
204	1
205	1
206	0
207	2
208	0
209	3
210	0
211	2
212	2
213	6
215	7
216	0
217	1
218	0
219	1
220	0
221	2
222	0
223	4
224	0
225	2
226	1
227	20
228	1
229	9
230	0
231	0
232	0
233	0
234	0
235	0
236	0
237	0
239	5
240	7
241	21
242	2
243	4
244	0
245	0
246	0
247	2
248	0
249	0
250	0
251	1
253	2
254	0
255	17
256	2
257	49
258	3
259	1
260	0
263	1
264	0
267	1
268	2
269	6
270	3
271	132
272	10
273	3
274	1
275	1
276	1
277	1
278	0
279	0
280	1
281	2
282	1
283	2
285	3
286	0
287	0
288	0
289	1
290	0
291	4
292	0
293	0
294	1
295	2
296	2
297	3
298	2
299	7
300	3
301	1
302	0
303	1
304	0
305	1
306	0
307	1
308	0
309	0
314	0
315	5
316	0
317	0
318	0
319	2
320	0
321	1
322	0
323	1
324	1
325	13
326	0
328	0
329	2
333	1
334	0
335	3
336	1
337	1
339	3
340	0
341	1
342	0
343	1
344	1
345	1
346	0
347	3
348	0
349	0
350	0
351	0
352	0
353	1
354	0
355	1
356	0
357	2
358	2
359	2
361	3
362	0
363	0
364	0
365	2
366	13
367	5
368	0
369	3
370	2
371	2
372	1
373	1
374	1
375	0
376	0
378	0
379	0
380	0
381	0
383	1
384	0
385	0
386	0
387	1
388	1
389	0
390	1
391	1
393	3
394	0
395	0
396	0
397	2
398	0
399	0
400	0
401	4
402	1
403	1
405	1
406	1
409	679
410	72
411	9
412	1
413	1
414	0
415	1
416	0
417	1
418	0
419	0
422	0
423	3
425	4
426	2
427	0
428	1
429	2
430	0
431	1
433	0
434	0
435	1
437	1
441	1
443	0
445	0
447	1
448	1
449	1
451	1
452	0
455	1
456	0
457	1
459	3
460	1
462	0
465	0
466	0
467	0
468	7
469	1
470	1
471	1
472	1
473	1
475	0
476	0
477	1
478	1
479	1
481	4
482	1
483	1
484	1
485	0
487	0
490	0
493	3
494	0
495	0
496	0
497	1
498	0
499	1
501	11
502	2
503	0
504	1
505	0
506	1
507	0
508	1
510	0
511	1
512	7
513	3
514	0
515	0
519	2
520	1
521	0
522	0
525	1
526	0
527	2
528	0
529	0
539	0
540	1
541	1
542	0
543	6
544	1
546	0
548	1
549	0
551	1
555	1
556	1
558	0
562	415
563	74
564	12
565	2
