Mass Spectrum: Cyclohexanecarboxylic acid, 4-formylphenyl ester
Formula: C14H16O3
CAS: 146606-04-4
Molecular weight: 232
m/z	intensity
50	11
51	27
53	33
54	42
55	545
56	18
63	18
64	13
65	73
66	10
67	73
68	10
77	24
79	14
81	33
82	14
83	999
84	56
93	20
95	11
111	418
112	29
121	75
122	40
123	42
232	13
233	2
