Mass Spectrum: tert-Butyl 2-aminophenylcarbamate
Formula: C11H16N2O2
CAS: 146651-75-4
Molecular weight: 208
m/z	intensity
14	1
15	8
16	1
18	1
26	6
27	42
28	36
29	93
30	5
31	22
32	1
37	4
38	12
39	97
40	18
41	242
42	21
43	54
44	6
45	4
49	2
50	15
51	40
52	77
53	105
54	25
55	20
57	513
58	25
59	51
60	2
61	2
62	4
63	16
64	13
65	27
66	6
67	6
68	1
73	1
74	1
75	3
76	6
77	7
78	34
79	64
80	285
81	48
82	3
88	1
89	1
90	8
91	9
92	8
93	3
94	1
103	1
105	52
106	73
107	206
108	999
109	74
110	3
133	4
134	66
135	109
136	9
149	5
150	1
152	220
153	19
154	1
208	56
209	8
210	1
