Mass Spectrum: Cyclohexanecarboxylic acid, 4-butyl-, 4-(5-propyl-1,3-dioxan-2-yl)phenyl ester
Formula: C24H36O4
CAS: 146605-96-1
Molecular weight: 388
m/z	intensity
53	35
54	53
55	572
56	69
57	276
58	23
65	63
67	156
68	33
69	366
70	46
71	61
77	35
79	36
81	238
82	64
83	999
84	76
91	37
93	57
94	30
95	91
96	59
97	319
98	26
105	21
107	29
109	41
121	142
122	111
123	102
129	39
135	22
137	23
139	418
140	47
166	108
167	209
168	25
205	90
206	114
221	186
222	52
266	379
267	448
268	79
387	37
388	35
389	9
