Mass Spectrum: 1-Benzylideneamino-1-ethoxycarbonylmethyl-thiourea
Formula: C12H15N3O2S
CAS: 14665-11-3
Molecular weight: 265
m/z	intensity
12	1
13	2
14	7
15	15
16	4
17	61
18	2
24	2
25	5
26	60
27	197
28	243
29	122
30	287
31	178
32	42
33	12
34	36
35	1
36	3
37	9
38	18
39	48
40	18
41	16
42	34
43	75
44	52
45	134
46	62
47	8
48	3
49	9
50	102
51	156
52	50
53	12
54	6
55	79
56	16
57	17
58	10
59	75
60	271
61	45
62	27
63	40
64	20
65	15
66	8
67	3
68	1
69	3
70	9
71	30
72	22
73	103
74	162
75	62
76	293
77	396
78	88
79	40
80	3
81	3
82	4
83	4
84	5
85	4
86	14
87	9
88	153
89	293
90	141
91	42
92	9
93	2
94	1
95	3
96	1
97	18
98	64
99	19
100	10
101	49
102	291
103	927
104	585
105	207
106	126
107	16
108	1
109	4
110	5
111	2
112	1
114	14
115	20
116	999
117	63
118	49
119	12
120	2
121	9
122	5
123	2
125	1
127	2
128	3
129	13
130	2
131	98
132	23
133	697
134	65
135	6
136	9
137	1
138	1
139	1
141	1
142	17
143	3
144	63
145	7
146	4
147	1
148	19
149	4
150	2
151	1
158	2
159	2
160	21
161	124
162	193
163	19
164	9
165	1
175	2
177	2
178	3
179	1
186	1
187	4
188	57
189	12
190	10
191	4
192	5
195	1
203	1
205	19
206	57
207	9
208	1
215	1
217	4
218	6
219	151
220	64
221	14
222	4
231	2
232	2
236	5
263	4
264	28
265	593
266	101
267	35
268	4
