Mass Spectrum: Urea, N,N'-bis(phenylmethyl)-
Formula: C15H16N2O
CAS: 1466-67-7
Molecular weight: 240
m/z	intensity
30	13
39	17
50	10
51	45
52	13
63	17
64	6
65	125
66	8
74	7
76	9
77	100
78	43
79	167
80	15
89	18
90	8
91	421
92	54
104	71
105	30
106	999
107	118
108	13
132	12
133	9
147	9
148	6
149	206
150	16
167	7
182	7
240	479
241	82
242	8
