Mass Spectrum: 2-Propen-1-one, 3-(4-morpholinyl)-1-phenyl-
Formula: C13H15NO2
CAS: 14677-24-8
Molecular weight: 217
m/z	intensity
12	4
13	1
14	10
15	116
16	7
17	19
18	56
19	9
26	116
27	465
28	846
29	263
30	120
31	74
32	3
34	1
37	7
38	26
39	158
40	59
41	339
42	516
43	118
44	85
45	55
46	2
47	1
50	209
51	676
52	121
53	219
54	223
55	527
56	200
57	110
58	29
59	7
60	2
61	5
62	18
63	46
65	157
67	83
68	88
69	40
70	50
71	14
72	20
73	19
74	49
75	49
76	80
77	999
78	140
80	68
82	885
83	66
84	57
85	99
86	185
87	20
88	5
89	27
90	15
91	276
92	33
93	12
94	85
96	42
97	14
98	14
99	2
100	1
101	9
102	49
103	108
104	89
105	529
106	41
107	3
108	3
109	5
110	63
111	13
112	214
113	18
114	8
115	57
116	23
117	44
118	11
119	3
120	5
121	1
122	6
123	1
125	1
126	2
127	9
128	21
129	18
130	149
131	352
132	157
133	32
134	3
138	4
140	92
141	12
142	7
143	10
144	41
145	35
146	38
147	5
148	1
149	1
152	1
153	8
154	2
155	3
156	8
157	13
158	73
159	81
160	67
161	7
162	1
167	1
168	3
170	143
171	20
172	32
173	9
174	12
175	2
182	2
186	25
187	14
188	21
189	3
198	3
200	367
201	54
202	4
216	33
217	282
218	48
219	5
