Mass Spectrum: 1-O-Acetyl-exo-2,3-O-ethylidene-.beta.-d-erythrofuranose
Formula: C8H12O5
CAS: 14679-50-6
Molecular weight: 188
m/z	intensity
43	999
44	60
45	230
55	70
56	30
57	80
68	20
69	220
71	60
73	20
83	20
85	60
87	20
99	80
100	30
101	180
102	30
129	70
145	50
