Mass Spectrum: Trifluoromethyl n-propyl disulfide
Formula: C4H7F3S2
CAS: 14673-95-1
Molecular weight: 176
m/z	intensity
45	718
46	340
47	402
48	31
57	33
58	127
59	134
63	68
64	316
65	65
69	999
73	208
74	50
75	345
78	226
79	36
82	68
101	37
106	10
114	93
115	21
133	94
134	53
147	91
157	10
176	903
177	85
178	81
