Mass Spectrum: N-Acetyl-2,5-dimethoxy-4-methylthioamphetamine
Formula: C14H21NO3S
CAS: 146724-73-4
Molecular weight: 283
m/z	intensity
43	129
44	999
45	47
65	14
77	23
79	11
86	136
91	40
105	9
109	16
111	10
121	17
122	20
123	11
135	9
137	26
139	8
151	25
152	65
153	15
162	37
167	163
168	16
181	6
183	94
184	10
197	390
198	153
199	30
209	65
210	8
211	6
224	917
225	129
226	52
240	4
283	203
284	27
