Mass Spectrum: Oct-2-en-4-one, 7,7,8,8-tetrafluoro-6-hydroxy-2-methyl-6-phenyl-
Formula: C15H16F4O2
CAS: 146801-27-6
Molecular weight: 304
m/z	intensity
33	4
34	0
36	0
39	75
40	14
41	30
42	10
43	34
45	3
46	0
47	0
48	0
51	76
53	43
55	181
56	7
57	3
58	0
59	1
61	1
62	3
63	7
65	13
66	2
67	5
69	11
70	1
71	3
72	1
73	1
74	3
75	5
77	94
78	33
79	23
80	19
83	999
84	33
86	2
87	1
88	0
89	2
91	18
92	2
93	1
94	2
95	3
96	1
98	30
99	2
101	35
103	8
105	75
107	11
109	29
110	1
111	0
113	0
114	0
115	2
116	0
117	0
119	2
120	5
121	1
122	2
123	2
125	1
127	4
129	6
131	2
132	0
133	3
135	3
136	0
137	0
138	0
139	1
141	1
142	0
143	0
144	0
145	1
147	5
148	0
150	8
151	4
152	0
153	1
154	0
155	0
156	0
157	0
159	9
160	0
161	0
162	0
163	1
164	0
165	0
166	0
167	0
168	0
169	0
171	0
173	0
175	0
177	0
182	0
183	0
185	1
187	1
188	0
191	0
193	11
194	1
195	0
200	0
201	2
203	110
204	14
205	2
207	34
208	3
209	0
211	0
215	0
219	0
229	0
235	0
243	0
244	0
245	0
249	0
262	6
263	0
286	0
289	0
302	0
304	35
305	5
306	0
307	0
