Mass Spectrum: 8-Azaxanthine
Formula: C4H3N5O2
CAS: 1468-26-4
Molecular weight: 153
m/z	intensity
12	12
13	16
14	4
15	6
16	12
17	2
18	7
24	10
25	12
26	19
27	219
28	250
29	180
30	12
31	1
35	1
38	60
39	33
40	14
41	45
42	39
43	138
44	108
45	3
50	1
51	1
52	44
53	845
54	399
55	46
56	10
57	4
58	1
64	2
65	3
66	6
67	111
68	18
69	60
70	78
71	3
72	1
79	1
80	5
81	2
82	70
83	17
84	3
95	1
97	12
98	2
99	2
109	5
110	999
111	51
112	3
124	1
125	109
126	6
127	11
128	1
135	1
136	1
137	8
152	2
153	936
154	62
155	7
