Mass Spectrum: Dimexano
Formula: C4H6O2S4
CAS: 1468-37-7
Molecular weight: 214
m/z	intensity
28	105
29	63
30	24
31	89
32	147
38	48
43	104
44	90
45	116
46	89
47	268
59	24
60	310
61	63
62	31
64	232
66	22
75	999
76	519
77	115
78	49
79	62
80	9
91	51
94	46
96	8
106	29
107	88
108	23
109	10
121	46
122	247
123	19
124	26
139	12
154	10
182	29
214	74
215	6
216	14
217	1
