Mass Spectrum: N-(p-Nitrophenylsulfonyl)-l-phenylalanyl chloride
Formula: C15H13ClN2O5S
CAS: 146815-23-8
Molecular weight: 368
m/z	intensity
26	1
27	7
28	79
29	1
30	9
35	9
36	100
37	3
38	32
39	25
40	2
41	7
42	1
43	1
44	4
45	2
46	1
48	7
50	37
51	23
52	6
53	3
54	1
55	1
57	1
58	2
61	1
62	6
63	28
64	27
65	82
66	6
69	4
70	3
71	1
73	1
74	9
75	46
76	54
77	25
78	5
79	1
80	1
81	1
82	1
83	1
84	1
86	1
87	1
88	2
89	45
90	57
91	748
92	92
93	8
94	1
95	2
96	2
97	2
98	1
102	3
103	6
104	3
105	5
106	9
107	3
108	5
109	5
110	1
112	1
114	1
115	2
116	21
117	142
118	999
119	115
120	9
121	1
122	86
123	10
124	3
125	6
126	1
127	1
128	1
131	7
132	1
138	3
139	4
140	4
141	3
146	1
148	2
151	1
152	5
153	2
154	2
155	8
156	9
157	1
163	1
164	1
165	9
166	13
167	6
168	4
170	4
171	6
172	2
173	1
176	1
177	1
178	1
179	1
180	2
181	1
182	3
183	1
184	1
186	47
187	7
188	2
190	1
191	2
192	3
193	4
194	3
195	1
196	1
197	1
199	1
200	2
202	4
204	1
208	1
210	2
212	1
213	4
218	1
219	5
220	1
238	1
240	16
241	3
242	1
262	1
274	4
290	3
291	4
292	1
304	272
305	69
306	22
307	4
