Mass Spectrum: 4-Hydroxy-N-[5-(4-hydroxy-butyrylamino)-pentyl]-butyramide
Formula: C13H26N2O4
CAS: 146897-14-5
Molecular weight: 274
m/z	intensity
25	21
27	125
28	105
29	183
30	908
31	455
37	5
38	10
39	98
40	32
41	649
42	219
43	283
44	278
45	132
46	14
50	7
51	12
52	15
53	30
54	49
55	230
56	276
57	120
58	104
59	133
60	38
61	6
62	7
63	7
64	4
65	12
66	8
67	43
68	60
69	351
70	102
71	35
72	217
73	145
74	20
75	7
76	15
77	13
78	4
79	7
80	15
81	17
82	44
83	54
84	999
85	140
86	390
87	675
88	40
89	9
90	3
91	9
92	6
93	13
94	9
95	11
96	23
97	37
98	222
99	271
100	594
101	265
102	22
103	11
104	26
105	11
106	6
107	5
108	5
109	9
110	11
111	30
112	367
113	178
114	197
115	107
116	27
117	356
118	25
119	7
120	2
121	6
122	7
123	9
124	23
125	18
126	173
127	139
128	135
129	141
130	202
131	106
132	10
133	8
135	7
136	3
137	4
138	19
139	10
140	218
141	34
142	18
143	33
144	249
145	236
146	22
147	5
148	2
152	26
153	44
154	134
155	21
156	8
157	77
158	346
159	124
160	13
161	2
162	3
163	3
164	3
165	7
166	6
168	13
169	31
170	245
171	78
172	100
173	21
174	6
175	2
176	2
177	2
178	2
179	2
180	3
181	7
182	5
183	8
184	4
185	10
186	99
187	100
188	21
189	7
190	15
191	2
192	6
193	9
194	6
195	4
196	6
197	102
198	17
199	66
200	15
201	5
202	2
203	2
204	2
207	3
208	4
209	3
210	7
211	8
212	28
213	44
214	9
215	53
216	14
217	4
218	4
219	3
220	4
225	33
226	12
227	4
228	3
229	4
230	166
231	24
232	7
236	4
237	11
238	6
239	18
240	6
241	5
243	127
244	52
245	9
246	3
254	6
255	10
256	17
257	25
258	7
259	3
274	90
275	20
276	5
