Mass Spectrum: Acetaldehyde, bis(2-chloroethyl) acetal
Formula: C6H12Cl2O2
CAS: 14689-97-5
Molecular weight: 186
m/z	intensity
27	454
28	91
29	100
30	22
31	46
32	3
33	1
35	4
36	9
37	2
38	4
39	4
40	1
41	9
42	23
43	187
44	33
45	537
46	11
47	16
48	7
49	71
50	11
51	22
52	3
53	1
55	2
56	1
57	5
58	11
59	2
60	2
61	18
62	36
63	999
64	31
65	318
66	7
67	1
69	1
70	1
71	9
73	137
74	5
75	3
76	1
77	1
78	1
79	2
81	2
83	1
84	1
87	8
88	1
93	4
95	1
107	926
109	332
110	13
111	5
112	1
121	1
123	1
137	4
139	1
171	48
173	32
175	7
185	3
187	1
