Mass Spectrum: 4-Methyl-N-(tetrahydro-pyran-2-ylidene)benzenesulfonamide
Formula: C12H15NO3S
CAS: 1468-27-5
Molecular weight: 253
m/z	intensity
12	3
14	7
15	44
16	8
17	21
18	75
19	5
26	29
27	165
28	161
29	131
30	16
31	53
32	6
37	6
38	24
39	277
40	42
41	291
42	116
43	62
44	30
45	20
46	6
47	4
48	8
49	3
50	40
51	69
52	26
53	32
54	20
55	233
56	104
57	24
58	3
59	9
60	3
61	5
62	25
63	91
64	36
65	376
66	26
67	13
68	6
69	11
70	15
71	13
72	3
73	4
74	9
75	7
76	7
77	45
78	19
79	23
80	15
81	14
82	20
83	78
84	9
85	15
86	7
87	5
88	3
89	82
90	68
91	999
92	98
93	8
94	5
95	4
96	2
97	4
98	15
99	6
100	16
101	10
102	3
103	3
104	14
105	20
106	36
107	101
108	226
109	24
110	4
111	5
112	3
116	5
117	7
118	38
119	8
120	8
121	5
123	4
124	4
130	5
131	129
132	34
133	96
134	20
139	14
140	3
143	3
144	20
145	26
146	69
147	7
148	7
151	3
155	212
156	21
157	12
160	11
161	9
171	36
172	13
173	8
174	6
188	18
189	245
190	34
191	4
197	3
198	5
253	57
254	10
255	4
