Mass Spectrum: 4H,4H,8H,8H-7a,8a-Diaza-3a,4a-diazonia-4,8-diborata-s-indacene, 1,2,3,5,6,7-hexabromo-4,4,8,8-tetraethyl-
Formula: C14H20B2Br6N4
CAS: 14695-75-1
Molecular weight: 740
m/z	intensity
26	74
27	252
28	8
29	147
30	3
31	2
35	0
36	24
37	86
38	87
39	340
40	567
41	999
42	23
43	2
44	1
48	2
49	11
50	28
51	38
52	116
53	410
54	28
55	9
56	17
57	64
58	4
59	11
60	1
61	7
62	20
63	14
64	17
65	22
66	32
67	202
68	657
69	253
70	10
73	2
74	7
75	19
76	60
77	36
78	9
79	15
80	19
81	15
82	19
85	1
86	3
87	3
88	4
89	8
90	25
91	105
92	28
93	100
94	0
97	0
99	0
100	2
101	3
102	4
103	10
104	17
105	32
106	22
107	28
108	5
109	0
113	0
114	1
115	19
116	23
117	56
118	90
119	324
120	83
121	271
122	6
124	3
125	6
127	5
128	23
129	40
130	33
131	40
132	12
133	5
134	2
139	1
140	2
141	3
142	7
143	11
144	32
145	12
146	29
147	4
148	1
151	0
152	3
153	4
154	13
155	31
156	27
157	35
158	14
159	8
160	1
166	1
167	3
168	5
169	18
170	10
171	32
172	7
173	16
174	0
181	2
182	5
183	14
184	17
185	16
186	12
187	4
193	1
194	8
195	5
196	36
197	8
198	43
199	4
200	17
201	1
207	5
208	16
209	11
210	29
211	7
212	16
213	6
214	5
215	3
220	2
221	1
222	4
223	13
224	7
225	22
226	7
227	11
228	3
232	0
233	6
234	20
235	37
236	49
237	56
238	39
239	27
240	10
241	2
245	1
246	1
247	3
248	4
249	9
250	9
251	10
252	2
253	2
260	2
261	21
262	95
263	146
264	184
265	236
266	102
267	108
268	6
273	1
274	2
275	21
276	20
277	22
278	6
279	7
281	1
287	0
288	5
289	10
290	35
291	120
292	70
293	216
294	47
295	100
296	10
302	25
303	4
304	70
305	7
306	69
307	4
308	22
309	1
312	2
314	45
315	99
316	116
317	107
318	41
319	35
320	4
321	9
324	0
325	1
326	1
327	1
328	8
329	32
330	38
331	28
332	11
333	4
334	0
335	1
339	0
340	17
341	72
342	66
343	213
344	92
345	212
346	42
347	67
348	6
352	0
353	2
354	2
355	5
356	2
357	5
358	0
359	2
366	0
368	0
369	7
370	22
371	20
372	64
373	24
374	63
375	11
376	20
377	2
380	2
381	5
382	6
383	12
384	5
385	10
386	2
387	3
390	0
391	1
392	1
393	1
395	0
405	0
407	2
408	7
409	18
410	23
411	46
412	24
413	42
414	10
415	13
416	1
418	0
419	1
420	0
421	0
446	0
447	0
467	0
468	1
469	3
470	3
471	5
472	2
473	4
474	1
475	1
487	0
489	0
497	1
498	1
499	2
500	1
501	2
502	0
503	1
525	0
526	0
527	0
528	0
547	0
548	1
549	3
550	3
551	6
552	3
553	6
554	2
555	3
556	0
557	1
559	0
563	0
564	1
565	5
566	2
567	9
568	2
569	8
570	1
571	4
575	0
576	1
577	3
578	3
579	6
580	3
581	6
582	2
583	2
605	0
606	1
607	2
608	1
609	3
610	0
611	1
625	1
626	3
627	8
628	9
629	20
630	13
631	25
632	12
633	22
634	12
635	23
636	18
637	33
638	18
639	30
640	11
641	15
642	3
643	3
644	0
645	0
654	1
655	4
656	4
657	9
658	6
659	13
660	6
661	10
662	3
663	4
664	0
665	0
682	1
683	3
684	4
685	10
686	9
687	17
688	9
689	17
690	6
691	9
692	2
693	3
710	9
711	27
712	58
713	124
714	141
715	292
716	203
717	382
718	177
719	279
720	89
721	108
722	24
723	19
724	2
