Mass Spectrum: 1-Piperidinyloxy, 4-amino-2,2,6,6-tetramethyl-
Formula: C9H19N2O
CAS: 14691-88-4
Molecular weight: 171
m/z	intensity
15	5
26	1
27	21
29	34
30	43
31	3
38	2
39	52
40	9
41	127
42	98
43	120
44	22
45	2
51	3
52	3
53	17
54	14
55	32
56	52
57	42
58	76
59	4
63	1
65	7
66	4
67	28
68	54
69	33
70	999
71	52
72	7
73	3
74	10
77	4
78	2
79	9
80	7
81	26
82	31
83	12
84	259
85	324
86	25
87	1
91	3
93	3
94	3
95	6
96	6
97	10
98	43
99	5
100	2
101	15
107	2
108	3
109	22
110	5
114	7
115	75
116	5
122	2
123	2
124	17
125	2
126	2
128	2
139	1
140	3
141	7
155	1
156	2
157	6
171	50
172	6
