Mass Spectrum: N,N'-(4,4'-Biphenylene)bis[2-(p-tolyloxy)acetamide]
Formula: C30H28N2O4
CAS: 146903-30-2
Molecular weight: 480
m/z	intensity
34	177
36	232
38	209
39	343
40	262
41	419
42	246
43	584
44	135
45	147
46	24
48	66
49	25
50	206
51	245
52	160
53	152
55	375
56	137
57	257
58	664
60	110
61	39
63	133
64	105
65	319
66	48
67	53
68	52
69	114
70	145
71	113
72	72
73	46
74	54
75	63
76	153
77	359
78	102
79	223
80	61
81	41
82	39
83	59
84	56
85	44
86	30
87	88
88	551
89	81
91	999
92	113
93	209
94	24
95	20
96	14
97	39
98	41
99	24
100	21
101	32
102	31
103	45
104	49
105	105
107	208
108	385
109	32
110	16
111	23
112	45
114	95
115	77
116	37
117	21
118	31
119	18
120	36
121	538
122	66
123	17
124	12
125	16
126	22
127	53
128	65
129	30
130	70
131	17
132	15
133	24
134	9
135	21
139	25
140	67
141	23
142	18
143	20
144	7
145	9
146	28
147	72
148	47
149	38
151	15
152	49
153	28
154	45
155	54
156	50
157	17
158	12
160	64
161	20
163	8
165	12
166	59
167	64
168	47
169	49
170	12
171	71
172	10
173	24
174	15
178	8
179	13
180	29
181	39
182	93
183	150
184	342
185	54
189	7
193	16
194	24
195	99
196	242
197	77
198	20
207	15
208	26
209	112
210	22
220	12
222	66
223	75
224	36
225	22
226	9
236	17
237	134
238	28
239	9
240	9
265	18
266	29
283	14
331	32
332	30
344	28
345	69
346	15
358	10
479	9
480	231
481	64
482	12
