Mass Spectrum: .alpha.-d-Glucopyranose, 2-azido-4,6-O-benzylidene-3-chloroacetyl-1-methylthio-deoxy-
Formula: C16H18ClN3O5S
CAS: 146934-31-8
Molecular weight: 399
m/z	intensity
41	148
42	110
43	149
45	191
46	20
47	154
49	394
51	236
52	40
53	38
54	23
55	135
57	171
58	42
59	48
60	86
61	135
63	37
64	9
65	21
66	26
68	187
69	311
70	206
71	62
72	21
73	40
74	46
75	29
77	999
79	537
80	33
81	46
82	24
83	33
84	29
85	166
86	174
87	42
89	67
91	392
92	76
94	27
96	89
97	69
98	27
99	18
100	14
101	17
103	84
105	601
107	521
108	44
109	2
110	6
111	10
112	17
113	10
114	20
115	35
116	14
117	29
119	107
120	89
121	12
122	4
124	51
125	10
126	10
127	19
128	16
129	13
130	11
131	17
133	47
134	7
135	1
136	49
137	25
138	3
139	2
140	7
141	1
142	59
143	42
144	4
145	268
146	76
147	23
148	2
149	80
150	7
151	5
152	8
153	3
154	1
155	1
156	3
157	45
158	15
159	4
160	2
161	18
162	26
163	12
164	1
165	1
166	1
167	2
168	1
169	0
170	3
171	9
172	9
173	12
174	15
175	8
176	2
177	1
179	7
180	0
181	2
183	26
184	8
185	10
186	1
187	4
188	2
189	3
190	0
191	38
192	12
193	1
195	13
196	0
197	5
198	0
200	7
201	0
202	3
203	50
204	5
205	0
207	1
209	5
211	1
212	2
214	0
218	77
219	1
220	31
221	2
222	1
224	1
230	8
231	2
232	0
233	1
235	0
236	1
238	1
246	1
248	35
249	4
250	19
251	6
253	1
258	2
266	1
267	4
268	1
269	1
277	1
278	0
280	0
294	3
296	3
297	15
298	3
299	4
324	159
325	70
326	10
327	7
328	0
352	3
354	1
398	2
399	2
400	0
