Mass Spectrum: Decylbis(trifluoromethyl)phosphine sulfide
Formula: C12H21F6PS
CAS: 146920-11-8
Molecular weight: 342
m/z	intensity
27	265
28	63
29	510
39	180
40	30
41	983
42	188
43	608
53	72
54	113
55	999
56	580
57	412
63	158
67	117
68	102
69	599
70	579
71	125
81	46
82	140
83	412
84	286
85	89
95	15
96	76
97	424
98	216
99	26
103	36
110	32
111	256
112	160
113	16
115	22
119	24
125	11
127	15
129	11
133	42
140	719
141	70
147	156
148	6
149	9
161	13
169	8
173	6
179	8
183	6
184	23
197	16
202	23
213	7
216	36
224	10
229	43
237	6
238	15
239	24
241	266
242	29
243	6
251	11
252	15
257	6
265	5
273	271
274	30
275	15
309	15
342	205
343	26
344	8
