Mass Spectrum: Tetradecylbis(trifluoromethyl)phosphine sulfide
Formula: C16H29F6PS
CAS: 146920-12-9
Molecular weight: 398
m/z	intensity
27	171
28	45
29	464
39	113
40	22
41	936
42	160
43	899
44	28
53	57
54	122
55	999
56	364
57	641
67	143
68	105
69	648
70	355
71	249
79	29
81	77
82	149
83	537
84	227
85	128
95	33
96	98
97	455
98	141
99	29
103	32
110	52
111	227
112	88
113	17
115	15
119	15
124	28
125	113
126	61
127	13
133	49
138	15
139	36
140	28
147	117
152	10
153	16
154	13
155	11
167	10
168	46
169	15
183	10
184	22
196	422
197	97
202	20
211	40
212	14
216	28
224	19
225	28
229	57
237	23
238	51
239	14
243	9
251	69
252	50
253	14
257	7
265	44
266	18
267	9
279	8
281	8
295	120
297	270
298	34
308	6
309	8
329	512
330	79
331	27
335	8
364	51
365	58
366	8
398	73
399	10
