Mass Spectrum: Octadecylbis(trifluoromethyl)phosphine sulfide
Formula: C20H37F6PS
CAS: 146920-13-0
Molecular weight: 454
m/z	intensity
27	97
28	31
29	349
39	66
41	750
42	140
43	999
44	30
53	39
54	112
55	940
56	283
57	817
67	133
68	98
69	638
70	236
71	357
79	24
81	84
82	142
83	507
84	159
85	189
87	24
95	46
96	93
97	452
98	99
99	39
103	22
109	21
110	41
111	210
112	62
113	21
115	13
124	24
125	94
126	41
127	18
133	42
138	15
139	36
140	24
147	82
153	20
154	16
184	16
197	27
198	40
202	21
211	41
212	21
216	21
224	36
225	30
229	21
237	28
238	62
239	15
251	97
252	214
253	48
265	62
266	18
267	18
279	16
281	20
285	39
295	20
309	18
322	18
323	19
336	17
337	16
349	16
350	17
351	163
352	30
353	212
354	38
363	15
364	14
385	674
386	125
387	41
420	137
421	83
422	14
454	23
