Mass Spectrum: Cytarabine
Formula: C9H13N3O5
CAS: 147-94-4
Molecular weight: 243
m/z	intensity
41	233
42	271
43	330
44	219
45	89
47	36
49	10
50	30
51	57
52	65
53	52
54	58
55	129
56	77
57	178
58	43
59	9
60	100
61	88
66	51
67	175
68	238
69	372
70	79
71	79
72	24
73	213
74	34
79	8
81	53
82	25
83	155
84	118
85	65
86	112
87	9
93	10
94	56
95	150
96	104
97	55
98	30
100	9
102	8
103	8
109	21
110	52
111	999
112	430
113	45
114	74
115	33
125	16
126	21
127	16
131	30
133	44
135	46
136	37
137	84
138	12
140	121
144	20
149	8
151	235
152	9
153	11
154	33
167	30
170	34
204	8
219	35
226	32
