Mass Spectrum: Diphenylpyraline
Formula: C19H23NO
CAS: 147-20-6
Molecular weight: 281
m/z	intensity
15	7
16	1
26	3
27	24
28	23
29	51
30	23
31	1
37	1
38	2
39	37
40	4
41	34
42	244
43	163
44	175
45	7
47	1
50	14
51	55
52	10
53	16
54	15
55	144
56	38
57	168
58	50
59	2
60	1
61	1
62	4
63	17
64	3
65	13
66	1
67	5
68	19
70	327
71	66
72	16
73	1
74	5
75	6
76	13
77	118
78	26
79	17
80	6
81	8
82	63
83	28
84	22
85	9
86	5
88	5
89	15
90	3
91	12
92	1
93	1
94	15
96	285
97	90
98	609
99	999
100	70
102	12
103	1
105	78
106	8
107	2
110	1
111	1
112	8
114	497
115	68
116	6
117	2
118	1
120	1
125	1
126	6
127	6
128	22
129	4
130	1
131	1
132	1
137	1
138	1
139	23
140	3
141	11
142	1
146	1
147	1
150	2
151	20
152	171
153	32
154	6
155	5
156	1
160	1
161	1
162	2
163	18
164	37
165	322
166	108
167	373
168	61
169	4
174	7
175	1
178	1
179	1
181	3
182	3
183	1
184	1
280	7
281	2
282	1
