Mass Spectrum: 2-Isoxazoline-5-carbonitrile, 3-(4-aminofurazan-3-yl)-
Formula: C6H5N5O2
CAS: 147085-18-5
Molecular weight: 179
m/z	intensity
33	1
34	0
37	54
38	78
39	74
40	164
41	197
42	82
43	48
44	26
45	0
46	0
48	1
49	8
50	35
51	67
52	163
53	223
54	154
55	12
56	16
58	999
59	13
60	2
62	12
63	21
64	41
65	36
66	40
67	39
68	26
69	95
70	5
71	1
72	0
75	14
76	24
77	24
78	12
79	17
80	7
81	6
82	4
84	21
85	0
86	0
87	0
88	1
89	1
90	3
91	14
92	77
93	6
95	105
96	90
97	3
98	0
100	0
101	1
103	9
104	8
105	7
106	1
107	6
108	11
111	10
112	0
118	2
119	13
120	2
122	268
123	16
124	1
126	3
127	0
131	0
132	0
133	0
135	14
136	1
137	1
138	1
146	0
149	64
150	5
152	5
153	0
154	0
171	0
175	0
176	3
179	345
180	25
181	2
