Mass Spectrum: 1,8-Dimethyl-3,6-diazahomoadamantan-9-one oxime
Formula: C11H19N3O
CAS: 147084-64-8
Molecular weight: 209
m/z	intensity
30	54
31	6
37	6
38	13
39	130
40	100
41	290
42	470
43	150
44	95
45	8
50	8
51	19
52	29
53	79
54	80
55	230
56	160
57	83
58	999
59	42
60	1
62	4
63	6
64	7
65	26
66	42
67	70
68	130
69	54
70	54
71	30
72	260
73	15
74	6
75	4
76	2
77	42
78	15
79	48
80	64
81	61
82	170
83	68
84	67
85	66
86	7
87	2
88	4
89	9
90	3
91	31
92	21
93	62
94	87
95	78
96	180
97	47
98	40
99	8
100	1
103	3
104	6
105	21
106	37
107	53
108	98
109	100
110	67
111	22
112	6
113	1
116	2
117	5
118	10
119	19
120	63
121	88
122	230
123	83
124	68
125	34
126	10
130	1
131	6
132	14
133	33
134	51
135	140
136	100
137	50
138	20
139	9
140	2
145	4
146	6
147	26
148	30
149	480
150	110
151	130
152	21
153	5
154	2
159	2
160	2
161	18
162	11
163	150
164	47
165	47
166	12
167	15
168	2
175	3
176	10
177	11
178	34
179	11
180	5
181	2
182	4
190	8
191	53
192	370
193	380
194	54
195	10
196	2
207	4
208	7
209	410
210	54
211	3
