Mass Spectrum: 3,6-Diazahomoadamantan-9-one Hydrazone
Formula: C9H16N4
CAS: 147084-94-4
Molecular weight: 180
m/z	intensity
39	156
40	90
41	212
42	342
43	178
44	89
45	11
51	69
52	97
53	146
54	232
55	465
56	324
57	513
58	999
59	77
60	34
61	15
62	3
63	26
64	25
65	81
66	66
67	219
68	179
69	280
70	200
71	252
72	836
73	76
74	13
75	13
76	25
77	99
78	51
79	133
80	117
81	181
82	201
83	117
84	120
85	89
86	12
87	2
89	2
90	5
91	64
92	54
93	132
94	217
95	263
96	107
97	141
98	56
99	43
100	3
102	15
103	13
104	31
105	61
106	84
107	155
108	153
109	168
110	67
111	86
112	48
113	49
114	16
115	21
116	10
117	8
118	16
119	53
120	81
121	331
122	150
123	151
124	62
125	67
126	35
127	36
128	18
129	15
130	16
131	8
132	8
133	33
134	23
135	107
136	81
137	48
138	30
139	21
140	15
141	26
142	13
143	2
144	12
145	2
146	13
147	16
148	49
149	3
150	3
151	6
152	28
153	8
154	2
155	2
158	2
159	2
160	3
161	13
162	15
163	46
164	130
165	86
166	33
167	36
168	10
169	10
170	3
176	2
177	13
178	16
179	97
180	789
181	89
182	5
