Mass Spectrum: Carbazic acid, 3-(1-butylpentylidene)-, ethyl ester
Formula: C12H24N2O2
CAS: 14702-40-0
Molecular weight: 228
m/z	intensity
41	500
42	120
43	150
44	30
45	170
46	80
50	10
51	10
52	10
53	40
54	110
55	350
56	110
57	180
58	80
59	40
62	40
65	10
66	10
67	50
68	40
69	100
70	60
71	60
72	70
73	20
75	30
76	10
77	20
79	10
80	10
81	10
82	80
83	150
84	120
85	50
95	10
96	10
97	20
98	999
99	50
103	10
104	140
105	40
110	20
111	30
112	20
113	10
116	20
124	10
125	70
126	20
127	10
129	30
130	10
140	160
141	20
143	30
144	999
145	90
146	10
153	90
154	10
157	30
158	30
167	10
171	30
180	10
181	10
186	100
187	10
199	90
200	10
213	10
228	50
