Mass Spectrum: Carbazic acid, 3-(1-butylpentylidene)-, methyl ester
Formula: C11H22N2O2
CAS: 14702-37-5
Molecular weight: 214
m/z	intensity
41	390
42	76
43	184
44	39
45	8
51	11
52	17
53	51
54	107
55	271
56	87
57	209
58	22
59	28
66	8
67	34
68	28
69	82
70	56
71	22
72	11
73	11
76	11
77	14
79	8
81	28
82	59
83	124
84	82
85	22
89	53
90	85
91	28
95	11
96	14
97	28
98	999
99	59
110	25
111	22
112	28
114	28
125	79
126	11
130	626
131	45
140	164
141	11
143	28
144	25
153	76
154	11
157	28
168	17
172	68
186	56
214	48
