Mass Spectrum: 2-Propanol, 1,1,1,3-tetrachloro-2-methyl-
Formula: C4H6Cl4O
CAS: 14703-48-1
Molecular weight: 210
m/z	intensity
12	2
13	3
14	16
15	78
16	1
17	16
18	72
25	7
26	40
27	180
28	34
29	43
30	1
31	45
32	3
35	9
36	15
37	26
38	24
39	88
40	9
41	37
42	58
43	77
44	2
45	4
47	47
48	23
49	150
50	34
51	78
52	6
53	16
54	5
55	24
56	4
57	39
58	2
59	4
60	20
61	130
62	56
63	152
64	20
65	56
66	2
67	8
69	4
71	4
72	11
73	28
74	5
75	91
76	14
77	58
78	8
79	14
81	2
82	41
83	192
84	32
85	140
86	9
87	44
88	2
89	17
90	4
91	41
92	7
93	999
94	38
95	345
96	24
97	288
98	16
99	180
100	6
101	31
103	6
104	1
105	5
106	2
107	14
108	2
109	12
110	6
111	59
112	5
113	36
114	2
115	6
117	39
119	38
120	2
121	24
122	3
123	22
124	4
125	855
126	78
127	565
128	51
129	113
130	11
131	53
132	4
133	48
134	2
135	16
137	3
139	44
140	3
141	29
142	2
143	9
144	2
145	4
146	2
147	2
148	2
157	7
159	58
160	6
161	764
162	32
163	754
164	24
165	240
166	27
175	3
177	3
193	2
195	33
196	2
197	40
198	2
199	19
201	4
