Mass Spectrum: Carbazic acid, 3-cyclohexylidene-, methyl ester
Formula: C8H14N2O2
CAS: 14702-42-2
Molecular weight: 170
m/z	intensity
41	740
42	220
43	100
44	60
45	10
46	10
50	20
51	50
52	40
53	160
54	680
55	350
56	60
57	60
58	10
59	150
65	50
66	40
67	999
68	130
69	100
70	20
71	10
72	10
74	10
75	20
76	190
77	50
78	10
79	70
80	90
81	340
82	80
83	140
84	50
85	30
86	10
88	10
89	120
90	40
91	30
92	10
93	20
94	80
95	90
96	310
97	60
98	30
99	10
101	10
102	40
103	10
109	20
110	30
111	80
112	20
113	10
114	60
115	20
116	20
117	10
123	10
126	10
127	130
128	10
129	10
130	20
137	40
138	470
139	50
140	10
141	90
142	190
143	20
144	10
145	10
147	10
149	10
154	40
169	180
170	540
171	60
172	10
