Mass Spectrum: trans-2-Methyl-.beta.-methyl-.beta.-nitrostyrene
Formula: C10H11NO2
CAS: 147102-54-3
Molecular weight: 177
m/z	intensity
39	160
51	122
53	141
63	118
65	377
77	229
79	100
89	116
91	999
92	93
103	115
115	886
116	419
117	109
119	304
127	169
128	358
129	467
130	271
131	161
132	152
147	48
149	253
176	27
177	189
