Mass Spectrum: (cis-2-Carboxycyclohexyl)acetic acid
Formula: C9H14O4
CAS: 14715-37-8
Molecular weight: 186
m/z	intensity
14	2
15	4
16	1
17	5
18	5
26	7
27	103
28	58
29	70
30	2
31	8
37	2
38	10
39	174
40	35
41	215
42	45
43	143
44	44
45	47
46	7
47	7
48	1
49	1
50	15
51	38
52	21
53	110
54	260
55	227
56	16
57	37
58	5
59	6
60	108
61	35
62	7
63	14
64	4
65	42
66	50
67	654
68	216
69	33
70	21
71	17
72	4
73	97
74	8
75	3
76	4
77	77
78	60
79	230
80	495
81	999
82	714
83	76
84	15
85	28
86	29
87	10
88	1
89	9
90	9
91	96
92	45
93	43
94	122
95	255
96	157
97	51
98	35
99	31
100	196
101	176
102	13
103	11
104	18
105	13
106	11
107	13
108	166
109	487
110	40
111	31
112	18
113	20
114	6
115	9
116	10
117	3
118	12
119	2
120	3
121	15
122	195
123	49
124	157
125	37
126	116
127	573
128	46
129	4
130	2
131	2
132	4
133	1
134	1
135	2
136	1
138	1
139	9
140	462
141	51
142	10
143	1
146	1
149	2
150	170
151	17
152	2
167	3
168	577
169	98
170	9
187	5
