Mass Spectrum: Toluene, 4-(2,4-dichlorobenzylideno)-
Formula: C14H11Cl2N
CAS: 14717-13-6
Molecular weight: 263
m/z	intensity
33	2
34	2
35	10
36	46
37	16
38	55
39	267
40	57
41	91
42	5
50	102
51	143
52	44
53	19
54	2
62	67
63	162
64	62
65	614
66	38
67	2
73	50
74	58
75	92
76	31
77	44
78	15
82	53
83	21
84	16
85	18
86	27
87	40
88	21
89	157
90	137
91	999
92	100
93	7
95	90
97	39
98	6
99	18
100	42
101	14
102	9
103	2
104	2
105	2
106	4
107	6
108	3
109	27
110	12
111	29
112	26
114	54
116	37
117	37
118	305
119	31
120	2
121	2
123	71
124	10
125	24
126	7
127	5
128	4
130	46
131	49
133	23
134	2
135	4
136	32
137	8
138	12
139	10
140	3
141	1
145	4
146	18
147	5
148	15
149	8
150	10
151	8
152	4
153	1
154	1
157	8
158	2
159	7
160	2
161	3
162	3
163	12
164	14
165	41
166	17
167	3
168	0
170	0
171	9
172	5
173	8
174	4
175	3
176	2
177	7
178	5
179	1
183	0
184	6
185	2
186	7
187	1
188	3
189	1
190	13
191	19
192	20
193	13
194	2
195	0
196	0
197	0
198	0
199	5
200	4
201	3
202	1
203	0
208	0
210	0
211	1
212	1
213	3
214	0
215	0
220	0
222	0
224	0
225	1
226	9
227	23
228	140
229	29
230	47
231	7
235	1
236	0
237	0
238	0
247	0
248	5
249	0
250	3
251	0
252	0
260	0
262	296
263	383
264	233
265	242
266	64
267	41
268	5
