Mass Spectrum: trans-3-Methyl-.beta.-methyl-.beta.-nitrostyrene
Formula: C10H11NO2
CAS: 147102-55-4
Molecular weight: 177
m/z	intensity
39	262
51	211
63	248
64	186
65	267
77	258
79	151
80	200
89	140
91	858
103	115
115	999
116	495
117	128
119	362
127	148
128	279
129	308
130	180
149	121
160	115
177	275
178	25
