Mass Spectrum: Furazancarboxylic acid, [(2-hydroxyethyl)amino]-
Formula: C5H7N3O4
CAS: 147194-40-9
Molecular weight: 173
m/z	intensity
52	19
53	158
54	55
55	130
56	35
57	21
58	28
59	12
66	18
67	23
68	63
69	93
70	55
71	185
72	30
80	45
81	15
82	43
83	18
85	38
86	125
87	12
94	25
96	23
98	999
99	78
100	11
112	105
113	12
124	275
125	15
129	200
130	20
142	550
143	50
173	68
174	4
