Mass Spectrum: 1-(2-Hydroxy-ethyl)-4,6-dimethyl-1H-pyrimidin-2-one
Formula: C8H12N2O2
CAS: 14716-32-6
Molecular weight: 168
m/z	intensity
35	15
36	55
37	7
38	32
39	56
40	33
41	39
42	83
43	20
44	16
45	20
46	0
47	0
49	0
50	5
51	13
52	22
53	56
54	32
55	15
56	18
57	2
58	0
59	0
61	2
62	3
63	9
64	9
65	30
66	38
67	41
68	30
69	9
70	10
71	2
73	0
74	0
75	1
76	3
77	13
78	13
79	9
80	32
81	17
82	45
83	7
84	15
85	1
86	2
87	0
89	4
91	80
92	29
94	232
95	55
96	106
97	9
98	1
100	0
102	0
103	2
104	4
105	4
106	10
107	25
108	43
109	323
110	55
111	7
112	1
113	0
115	2
116	0
117	6
118	11
119	18
120	19
121	13
122	23
123	26
125	999
126	69
127	5
128	0
129	0
131	1
132	1
133	1
134	3
135	18
137	246
138	75
139	7
140	0
141	0
143	4
144	1
150	8
151	11
153	34
154	2
155	1
167	4
168	46
169	6
170	1
