Mass Spectrum: Acetylnatalensine
Formula: C19H21NO5
CAS: 1472-74-8
Molecular weight: 343
m/z	intensity
42	257
43	999
44	194
45	215
46	9
47	35
48	14
49	139
50	35
51	141
52	31
53	44
54	27
55	71
56	28
57	56
58	14
59	33
60	36
61	6
62	21
63	76
64	35
65	63
67	65
68	20
69	46
70	26
71	58
72	14
73	9
74	97
75	51
76	89
77	137
78	44
79	50
80	20
81	20
82	14
83	69
84	128
85	10
86	94
87	164
88	32
89	57
90	33
91	173
92	32
93	9
94	8
95	16
96	15
97	24
98	17
99	10
100	25
101	31
102	60
103	36
104	28
105	28
106	19
107	31
108	30
109	11
110	9
111	17
112	9
113	30
114	30
115	159
116	35
117	20
118	11
119	11
120	12
121	15
122	5
123	11
124	12
125	14
126	38
127	86
128	85
129	37
130	32
131	15
132	6
133	6
134	4
135	29
137	15
138	14
139	113
140	46
141	75
142	21
143	24
144	12
145	10
147	17
148	13
149	27
150	25
151	67
152	270
153	223
154	60
155	42
156	22
157	15
158	6
159	40
160	54
161	16
162	11
163	12
164	18
165	57
166	89
167	80
168	41
169	34
170	13
171	25
172	27
173	49
174	32
175	24
176	18
177	8
178	20
179	10
180	73
181	684
182	111
183	79
184	23
185	67
186	37
187	33
188	173
189	23
190	8
191	9
192	18
193	59
194	31
195	22
196	28
197	41
198	42
199	47
200	34
201	25
202	11
203	5
204	7
207	5
208	17
209	219
210	268
211	323
212	134
213	81
214	44
215	18
216	16
217	15
218	8
220	21
221	9
222	56
223	153
224	566
225	259
226	96
227	129
228	92
229	32
230	11
231	5
235	4
236	6
237	13
238	95
239	45
240	195
241	62
242	63
243	19
244	16
245	10
246	22
248	5
250	280
251	192
252	221
253	54
254	37
255	15
256	41
257	33
258	9
266	16
267	8
268	151
269	130
270	64
271	21
272	11
282	61
283	142
284	160
285	34
286	7
298	7
300	32
301	10
310	37
311	67
312	38
313	10
314	8
328	22
329	5
342	21
343	763
344	171
345	24
