Mass Spectrum: Dimethylfluoroamine
Formula: C2H6FN
CAS: 14722-43-1
Molecular weight: 63
m/z	intensity
13	46
14	118
15	798
16	10
20	316
27	52
28	334
29	4
31	185
32	2
38	38
39	48
40	143
41	189
42	999
43	526
44	14
62	403
63	265
64	7
