Mass Spectrum: Phenylacetamide, 4-fluoro-N-methyl-N-[2-[1-azacyclopentyl]ethyl]-
Formula: C15H21FN2O
CAS: 147241-21-2
Molecular weight: 264
m/z	intensity
42	162
43	48
44	29
45	18
46	2
47	0
48	0
50	4
51	7
52	3
53	15
54	15
55	70
56	33
57	23
58	15
59	4
60	4
61	1
62	3
63	9
64	3
65	5
66	1
67	6
68	6
69	23
70	14
71	13
72	8
73	4
74	2
75	1
76	0
77	14
78	20
79	4
80	2
81	11
82	12
83	35
84	999
85	58
86	4
87	1
88	8
89	7
90	0
91	10
92	2
93	3
94	2
95	6
96	13
97	217
98	40
99	15
100	2
101	1
102	0
103	3
104	0
105	7
106	10
107	16
108	6
109	112
110	9
111	3
112	0
113	2
115	4
116	6
117	14
118	1
119	5
120	0
121	4
122	1
123	3
124	9
125	3
126	2
127	2
128	1
129	3
131	2
132	0
133	2
134	1
135	5
136	3
137	1
138	2
139	1
141	3
142	0
143	1
145	0
146	0
147	1
148	1
149	3
150	2
151	1
152	8
153	1
154	0
155	1
157	1
159	1
160	0
163	0
164	0
165	1
166	1
167	2
168	1
169	0
171	0
173	0
174	0
176	0
178	1
179	0
180	0
181	0
183	0
184	0
185	1
186	0
187	0
189	0
192	0
193	0
194	35
195	4
196	0
197	2
202	0
205	0
207	0
213	1
214	2
215	1
216	0
230	0
231	0
232	0
233	0
239	1
245	1
247	9
248	2
250	0
253	1
256	1
262	280
263	68
264	651
265	111
266	10
