Mass Spectrum: Benzene, 1,1'-(chloroethenylidene)bis[4-ethyl-
Formula: C18H19Cl
CAS: 14720-90-2
Molecular weight: 270
m/z	intensity
12	2
13	1
15	175
16	7
17	25
18	90
27	781
28	98
29	999
30	19
35	6
36	25
37	4
38	30
39	268
40	28
41	63
42	2
43	7
45	1
49	13
50	65
51	189
52	47
53	48
54	2
55	5
57	1
61	3
62	35
63	151
64	33
65	93
66	9
67	2
69	12
73	11
74	31
75	77
76	101
77	221
78	66
79	74
80	5
82	36
83	26
86	13
87	33
88	55
89	215
90	49
91	92
92	7
94	96
95	34
96	15
98	6
99	19
101	164
102	164
103	96
105	431
106	42
107	23
108	39
109	26
110	10
111	4
112	3
113	23
115	323
116	35
117	9
119	25
120	121
121	51
123	1
125	87
126	40
127	121
128	155
129	149
130	49
131	10
133	5
136	2
137	12
138	8
139	57
140	10
141	15
142	3
143	2
149	18
150	23
151	45
152	57
153	16
154	2
155	1
157	4
162	11
163	38
164	28
165	145
166	24
167	14
168	1
174	3
175	11
176	49
177	62
178	183
179	81
180	10
187	14
189	204
190	102
191	223
192	54
193	11
199	8
200	12
202	140
203	107
204	113
205	99
206	68
207	31
208	3
212	31
213	58
214	17
215	30
216	7
217	13
219	49
220	14
221	15
222	1
225	14
226	7
227	8
228	2
229	1
233	2
235	61
236	8
238	1
241	40
242	7
243	9
253	4
255	248
256	46
257	68
258	11
268	7
270	502
271	92
272	141
273	22
274	1
