Mass Spectrum: Silane, 1,2-ethenediylbis[trimethyl-
Formula: C8H20Si2
CAS: 1473-61-6
Molecular weight: 172
m/z	intensity
24	0
25	0
26	0
27	1
29	18
30	1
31	18
32	0
33	0
34	3
35	1
36	0
37	0
38	0
39	1
40	0
41	1
42	4
43	72
44	17
45	156
46	11
47	5
48	0
49	0
50	0
51	0
52	0
53	8
54	2
55	17
56	3
57	12
58	21
59	41
60	4
61	1
62	0
63	0
64	0
65	0
66	2
67	8
68	1
69	9
70	3
71	11
72	7
73	999
74	84
75	35
76	1
77	0
79	0
80	0
81	3
82	0
83	43
84	11
85	6
86	1
87	0
89	0
93	0
94	0
95	2
96	0
97	8
98	23
99	116
100	13
101	6
102	0
103	0
111	1
113	2
114	0
115	1
116	1
117	0
121	0
125	1
127	2
128	0
129	1
130	1
131	2
132	0
139	0
141	4
142	0
143	1
144	1
155	0
157	151
158	26
159	12
160	1
161	0
171	0
172	45
173	8
174	3
175	0
