Mass Spectrum: Phenothiazin-3-ol, 8-chloro-10-[3-(dimethylamino)propyl]-, acetate (ester)
Formula: C19H21ClN2O2S
CAS: 14734-77-1
Molecular weight: 376
m/z	intensity
41	10
42	50
43	80
44	30
55	10
56	10
58	999
60	40
65	20
66	20
67	20
84	10
85	40
86	390
248	40
249	30
250	20
251	10
262	20
263	20
264	10
288	10
289	50
290	20
291	30
292	10
293	10
330	10
331	20
333	10
334	20
342	10
376	300
377	40
378	100
379	20
