Mass Spectrum: Propanedinitrile, 2-(1-cyclohexen-1-yl)-2-(1-cyclopenten-3-one-1-yl)-
Formula: C14H14N2O
CAS: 147317-63-3
Molecular weight: 226
m/z	intensity
26	17
27	270
29	40
30	2
37	4
38	13
39	149
40	8
41	175
42	9
43	10
50	28
51	74
52	49
53	310
54	24
55	36
56	4
57	4
61	3
62	12
63	42
64	23
65	42
66	23
67	26
68	6
69	3
71	1
74	3
75	11
76	16
77	68
78	25
79	173
80	47
81	999
82	64
83	7
85	0
86	0
87	4
88	9
89	27
90	25
91	33
92	7
93	8
94	2
95	6
96	0
97	0
99	0
100	0
101	6
102	13
103	25
104	13
105	10
106	4
107	5
108	3
109	0
111	0
113	2
114	6
115	29
116	37
117	19
118	13
119	8
120	4
121	7
126	0
127	6
128	16
129	21
130	26
131	14
132	8
133	4
134	0
140	6
141	8
142	29
143	20
144	16
145	10
146	6
147	5
152	0
153	3
154	5
155	15
156	23
157	16
158	26
159	5
160	2
161	1
166	1
167	3
168	7
169	17
170	17
171	10
172	32
173	5
180	2
181	4
182	5
183	15
184	32
185	10
186	8
187	0
193	1
197	12
198	16
199	7
200	0
207	2
208	0
209	0
211	4
225	6
226	160
227	27
228	2
