Mass Spectrum: Dihydroconiferyl benzoate
Formula: C17H18O4
CAS: 147318-30-7
Molecular weight: 286
m/z	intensity
27	13
37	9
38	10
39	51
40	12
42	11
50	57
51	291
52	55
53	21
55	55
63	26
65	127
66	72
68	9
74	14
76	38
77	999
78	154
79	125
80	22
81	26
88	6
89	35
90	9
91	219
92	51
94	152
95	16
96	8
103	79
104	132
105	681
106	77
107	103
108	46
109	49
110	18
115	18
116	12
117	18
119	63
120	19
121	144
122	213
123	34
124	41
125	22
131	249
132	197
133	310
134	46
135	95
136	31
137	501
138	73
139	24
140	9
148	15
149	404
150	86
151	74
153	14
163	47
164	967
165	109
168	8
180	8
181	36
271	16
286	418
287	87
