Mass Spectrum: 2,2-Dimethyl-5-tert-butyl-1,3-oxathiane
Formula: C10H20OS
CAS: 147354-44-7
Molecular weight: 188
m/z	intensity
50	3
51	11
52	8
53	91
54	38
55	326
56	182
57	606
58	76
59	318
60	46
61	61
62	9
63	8
65	11
66	6
67	61
68	21
69	409
70	242
71	27
72	15
73	758
74	999
75	258
76	606
77	18
78	3
79	24
80	6
81	136
82	83
83	455
84	424
85	30
87	61
88	121
89	121
90	9
91	10
92	2
93	3
95	15
96	49
97	106
98	14
99	17
101	6
102	3
103	8
104	5
105	2
109	2
110	1
111	2
112	1
113	8
115	288
116	23
117	49
118	4
119	2
121	2
128	5
129	2
130	5
131	394
132	99
133	33
134	6
141	3
143	5
144	8
146	2
148	1
173	546
174	70
175	30
176	3
188	546
189	68
190	30
