Mass Spectrum: Cholestan-3-one, 4,4-dimethyl-, oxime, (5.alpha.)-
Formula: C29H51NO
CAS: 14732-99-1
Molecular weight: 429
m/z	intensity
41	66
42	341
43	21
53	34
54	18
55	298
56	48
57	226
58	288
59	21
65	16
67	138
68	48
69	213
70	32
71	106
72	21
77	26
79	98
80	32
81	186
82	53
83	106
84	85
85	40
86	13
91	53
92	13
93	106
94	32
95	162
96	74
97	106
98	160
99	999
100	80
101	53
105	53
106	13
107	80
108	29
109	74
110	21
111	13
112	53
113	13
114	53
117	13
119	32
120	21
121	58
122	32
123	53
124	53
125	13
126	18
131	16
133	29
134	24
135	48
136	24
137	8
138	8
140	280
141	93
142	8
145	8
147	32
148	13
149	24
150	24
151	8
152	8
161	13
163	13
167	13
411	16
412	146
413	56
414	85
415	21
429	133
430	34
