Mass Spectrum: Pregnane-3,11,20-trione, (5.beta.)-
Formula: C21H30O3
CAS: 1474-68-6
Molecular weight: 330
m/z	intensity
26	4
27	49
29	85
30	3
31	3
39	61
40	50
41	287
42	34
43	999
44	146
45	19
50	3
51	13
52	9
53	82
54	20
55	351
56	32
57	45
58	8
59	5
60	1
61	1
63	4
64	3
65	51
66	23
67	231
68	75
69	129
70	13
71	137
72	15
73	3
75	2
76	1
77	129
78	33
79	274
80	69
81	369
82	57
83	79
84	49
85	412
86	26
87	5
91	197
92	42
93	240
94	80
95	310
96	109
97	73
98	39
99	16
100	2
101	2
102	2
103	15
104	9
105	154
106	59
107	214
108	129
109	446
110	108
111	63
112	8
113	4
115	19
116	10
117	40
118	21
119	106
120	50
121	230
122	429
123	283
124	429
125	137
126	16
127	8
128	13
129	21
130	12
131	72
132	25
133	114
134	95
135	231
136	112
137	146
138	108
139	26
140	4
141	9
142	8
143	27
144	15
145	87
146	37
147	154
148	85
149	129
150	40
151	111
152	19
153	5
155	10
156	6
157	39
158	17
159	82
160	36
161	79
162	33
163	69
164	24
165	55
166	30
167	11
168	3
169	13
170	8
171	39
172	24
173	114
174	34
175	171
176	51
177	52
178	18
179	11
180	3
181	5
182	3
183	14
184	9
185	41
186	20
187	43
188	31
189	43
190	60
191	99
192	17
193	223
194	32
195	11
196	4
197	13
198	6
199	34
200	12
201	36
202	22
203	23
204	28
205	19
206	77
207	45
208	9
209	16
210	5
211	17
212	7
213	27
214	13
215	17
216	8
217	17
218	12
219	343
220	63
221	12
222	11
223	8
224	7
225	15
226	9
227	58
228	21
229	24
230	9
231	19
232	13
233	7
234	4
235	3
236	2
237	6
238	3
239	13
240	5
241	44
242	39
243	62
244	19
245	59
246	32
247	10
251	11
252	5
253	6
254	11
255	21
256	7
257	19
258	9
259	66
260	283
261	61
262	8
265	4
266	3
267	6
268	5
269	65
270	25
271	11
272	28
273	35
274	9
275	4
279	12
280	4
283	7
284	10
285	7
286	7
287	57
288	22
289	4
294	10
295	7
297	42
298	10
299	3
300	3
301	7
302	32
303	8
312	70
313	23
314	7
315	266
316	59
317	8
329	6
330	591
331	146
332	20
333	3
