Mass Spectrum: 1H-Pyrrole-2-methanamine, N,N-dimethyl-
Formula: C7H12N2
CAS: 14745-84-7
Molecular weight: 124
m/z	intensity
26	13
27	38
28	76
29	6
30	14
37	8
38	19
39	52
40	20
41	33
42	131
43	19
44	145
45	34
48	4
49	29
51	47
52	63
53	122
54	13
55	4
56	6
57	6
58	38
62	4
63	2
64	3
65	4
66	5
67	11
68	9
78	13
79	45
80	999
81	121
82	17
92	7
93	6
94	7
107	21
108	7
123	47
124	258
125	22
