Mass Spectrum: 1,3-Pentadiene, 1-(3,4-methylenedioxybenzyl)-5-(piperidine-1-yl)-
Formula: C17H21NO2
CAS: 147429-43-4
Molecular weight: 271
m/z	intensity
41	876
42	516
43	148
44	109
45	11
46	2
47	4
48	6
49	25
50	130
51	220
52	92
53	155
54	286
55	396
56	125
57	50
58	14
59	1
60	5
61	24
62	105
63	120
64	227
65	132
66	55
67	88
68	156
69	214
70	153
71	17
73	19
74	47
75	72
76	166
77	269
78	137
79	150
80	199
81	198
82	137
83	126
84	249
85	35
86	36
87	24
88	51
89	72
90	30
91	108
92	89
93	154
94	88
95	54
96	172
97	308
98	366
99	32
100	13
101	80
102	136
103	91
104	25
105	36
106	48
107	108
108	47
110	999
111	121
112	39
113	24
114	73
115	175
116	71
117	37
118	12
119	6
121	106
122	580
123	271
124	101
125	17
126	81
127	372
128	571
129	510
130	118
131	46
132	8
133	18
134	150
135	338
136	826
137	95
138	6
139	6
140	7
141	15
142	13
143	80
144	47
145	36
146	16
147	35
148	105
149	42
150	109
151	14
152	4
153	8
154	19
155	37
156	100
157	513
158	123
159	96
160	88
161	21
162	6
163	2
165	2
166	3
167	6
168	5
169	10
170	11
171	32
172	48
173	133
174	27
175	5
176	2
178	0
181	4
182	3
183	5
184	15
185	86
186	284
187	500
188	156
189	20
190	2
196	0
197	2
198	6
199	7
200	25
201	11
202	8
203	3
210	0
211	4
212	11
213	8
214	74
215	17
216	7
217	0
218	3
224	0
226	3
227	1
228	43
229	11
230	29
231	5
240	7
241	7
242	86
243	33
244	38
245	6
254	2
256	15
257	5
268	3
269	3
270	207
271	861
272	188
273	22
274	2
