Mass Spectrum: 17.beta.-(Benzoyloxy)estr-4-en-3-one
Formula: C25H30O3
CAS: 1474-55-1
Molecular weight: 378
m/z	intensity
27	3
29	6
39	5
40	1
41	27
42	0
43	10
50	1
51	14
52	0
53	8
54	0
55	23
56	0
57	1
65	5
66	1
67	16
68	1
69	4
71	0
76	3
77	147
78	13
79	27
80	4
81	17
82	0
83	2
91	34
92	5
93	21
94	7
95	12
96	0
97	4
103	1
104	2
105	999
106	73
107	11
108	2
109	7
110	41
111	5
115	2
116	0
117	9
118	3
119	14
120	5
121	5
122	3
123	4
124	1
128	1
129	4
130	1
131	11
132	2
133	13
134	5
135	6
136	0
141	1
142	0
143	3
144	4
145	11
146	21
147	30
148	9
149	4
155	0
156	0
157	2
158	1
159	5
160	13
161	7
162	10
163	4
169	0
170	0
171	2
172	1
173	3
174	3
175	3
181	0
183	0
184	0
185	3
186	2
187	2
188	0
195	0
197	2
198	1
199	5
200	2
201	1
202	0
210	0
211	0
212	3
213	6
214	7
215	9
216	4
217	0
223	0
227	1
228	8
229	4
230	2
237	0
238	8
239	1
241	13
242	1
245	0
254	0
255	11
256	181
257	35
258	4
272	0
273	22
274	3
335	0
336	0
350	1
376	2
378	56
379	14
380	1
