Mass Spectrum: 3,4(2H,5H)-Furandione, 2,2,5,5-tetramethyl-
Formula: C8H12O3
CAS: 14744-18-4
Molecular weight: 156
m/z	intensity
27	90
28	40
39	220
40	80
41	310
42	940
43	360
44	60
57	30
58	280
59	420
69	30
70	999
71	50
85	20
100	40
128	60
156	60
