Mass Spectrum: Acetic acid, [1-(phenylmethyl)-2(1H)-pyridinylidene]-, ethyl ester
Formula: C16H17NO2
CAS: 14759-28-5
Molecular weight: 255
m/z	intensity
63	110
64	60
65	290
77	90
78	160
79	160
89	70
90	50
91	999
92	170
119	90
156	100
167	70
168	60
180	190
181	90
182	400
183	120
210	150
254	140
255	310
256	60
