Mass Spectrum: 1H-1,2,3-Triazole, 1-anilino-4-methyl-
Formula: C9H10N4
CAS: 14757-63-2
Molecular weight: 174
m/z	intensity
38	120
39	640
41	280
50	160
51	430
52	210
54	290
63	120
64	100
65	830
66	100
69	100
77	999
78	480
92	730
93	680
104	270
105	400
106	120
131	120
145	590
146	690
174	220
