Mass Spectrum: 5,6-Dimethyl-3,4-dihydro-2H-1,3-thiazin-2-thione
Formula: C6H9NS2
CAS: 147698-85-9
Molecular weight: 159
m/z	intensity
38	19
39	270
40	32
41	240
42	5
44	6
45	220
46	28
47	44
49	2
50	18
51	56
52	29
53	93
54	27
55	48
56	7
57	22
58	130
59	999
60	84
61	59
62	5
63	6
64	6
65	85
66	54
67	190
68	22
69	53
70	11
71	33
72	48
73	21
74	7
76	27
77	22
78	4
80	29
81	3
82	17
83	20
84	13
85	830
86	48
87	42
98	7
99	260
100	660
101	180
102	41
103	8
126	12
144	7
158	7
159	940
160	81
161	86
162	7
163	2
