Mass Spectrum: Allyl isocyanate
Formula: C4H5NO
CAS: 1476-23-9
Molecular weight: 83
m/z	intensity
14	3
15	4
24	2
25	14
26	102
27	167
28	379
29	25
30	1
36	6
37	36
38	66
39	250
40	43
41	70
42	20
43	4
44	2
50	10
51	48
52	62
53	30
54	350
55	424
56	999
57	39
58	3
62	1
63	1
64	1
67	1
68	3
80	1
82	58
83	85
84	4
