Mass Spectrum: (Trimethylsilyl)methyl trifluoromethyl disulfide
Formula: C5H11F3S2Si
CAS: 147618-70-0
Molecular weight: 220
m/z	intensity
45	184
46	197
47	43
49	29
55	25
57	32
58	47
59	106
61	28
63	59
69	76
73	999
74	94
75	112
77	430
78	49
89	14
90	31
91	13
104	17
119	524
120	57
121	54
123	39
147	18
220	81
221	10
222	9
