Mass Spectrum: Decanoic acid (4-methyl-piperazin-1-yl)-amide
Formula: C15H31N3O
CAS: 147643-22-9
Molecular weight: 269
m/z	intensity
41	140
42	207
43	218
44	100
45	18
46	1
49	1
50	1
51	1
52	1
53	8
54	20
55	100
56	256
57	95
58	253
59	30
60	2
61	1
63	1
64	1
65	1
67	8
68	10
69	55
70	332
71	387
72	62
73	12
74	1
75	1
77	1
78	1
79	1
80	1
81	7
82	28
83	98
84	29
85	28
86	7
87	7
88	1
89	1
91	1
92	1
93	1
95	6
97	127
98	457
99	999
100	71
101	5
102	1
107	1
108	1
109	1
110	2
111	1
112	4
113	16
114	60
115	29
116	3
117	1
121	1
122	1
123	1
124	1
125	1
126	1
127	4
128	2
129	1
130	1
137	1
138	1
139	1
140	1
141	2
142	4
143	1
152	1
153	1
155	8
156	1
157	5
158	1
166	1
167	1
168	1
169	1
170	9
171	1
172	7
173	1
181	3
182	4
183	1
184	3
185	1
186	1
195	1
196	1
197	2
199	55
200	7
201	1
209	1
211	8
212	5
213	6
214	1
223	7
225	7
226	4
227	9
228	1
240	2
241	1
252	1
254	59
255	10
256	1
268	8
269	25
270	5
271	1
