Mass Spectrum: Trifluoromethyl butyl disulfide
Formula: C5H9F3S2
CAS: 147618-69-7
Molecular weight: 190
m/z	intensity
45	130
46	75
47	112
55	188
57	999
58	73
59	66
64	74
69	252
73	11
78	59
79	20
87	51
89	32
114	17
133	51
147	40
171	7
190	290
191	53
192	30
