Mass Spectrum: 1-Butene, 3-(2-butenyloxy)-
Formula: C8H14O
CAS: 1476-05-7
Molecular weight: 126
m/z	intensity
25	0
26	11
27	122
29	146
30	4
31	3
37	3
38	5
39	119
40	8
41	101
42	19
43	120
44	1
45	9
50	8
51	17
52	7
53	64
54	93
55	999
56	139
57	145
58	8
59	1
66	0
67	27
68	21
69	34
70	13
71	108
72	115
73	4
81	5
82	145
83	12
84	6
85	1
93	5
96	10
97	6
98	3
111	16
112	1
