Mass Spectrum: 3,7-Diacetyl-1,5-dimethyl-3,7-diazabicyclo-[3,3,1]nonan-9-one
Formula: C13H20N2O3
CAS: 147698-79-1
Molecular weight: 252
m/z	intensity
33	0
34	0
36	0
37	1
39	142
40	53
41	337
42	337
43	958
44	316
45	37
46	0
50	2
51	7
52	9
53	41
54	36
55	150
56	48
57	27
58	15
60	59
61	1
62	0
63	1
64	1
65	7
66	7
67	24
68	41
69	112
70	115
71	15
72	11
73	4
74	2
77	10
78	3
79	13
80	17
81	22
82	46
83	19
84	53
85	20
86	68
87	44
88	2
89	0
91	6
92	2
93	9
94	25
95	23
96	40
97	13
98	25
99	4
100	2
101	0
102	0
103	0
104	0
105	1
106	5
107	8
108	31
109	101
110	51
111	20
112	13
113	3
114	1
115	0
117	0
118	0
120	5
121	11
122	51
124	999
125	82
126	66
127	13
128	1
129	0
132	0
133	0
134	1
135	2
136	8
137	15
138	46
139	12
140	5
141	1
147	0
148	1
149	4
150	6
151	6
152	13
153	5
154	1
155	0
162	7
164	18
166	550
167	139
168	56
169	6
170	0
175	0
176	0
177	1
178	3
179	5
180	12
181	7
182	1
183	0
191	1
192	1
193	1
195	11
196	1
197	0
206	0
209	20
210	4
211	0
225	0
237	2
238	0
249	0
252	77
253	10
254	1
