Mass Spectrum: N-(4,5,6,7-Tetrahydro-benzo[b]thiophen-2-yl)-acetamide
Formula: C10H13NOS
CAS: 14770-80-0
Molecular weight: 195
m/z	intensity
29	14
39	154
41	104
43	249
45	140
46	1
47	35
50	14
51	38
52	26
53	45
54	14
55	11
56	1
58	39
59	22
60	23
61	3
62	6
63	21
64	12
65	63
66	42
67	18
69	47
70	13
71	25
72	1
73	8
75	2
76	6
77	51
78	36
79	40
80	25
81	20
82	4
83	8
84	17
89	12
91	161
92	30
93	19
94	4
95	4
96	7
97	49
98	10
102	4
104	8
106	19
109	9
110	13
111	12
112	22
114	3
116	21
117	23
118	71
119	25
120	25
121	14
122	4
123	12
125	999
126	74
127	45
134	4
135	12
136	8
137	12
138	8
149	25
150	24
151	12
152	283
153	862
154	95
155	44
167	5
191	7
195	434
196	49
197	26
