Mass Spectrum: Dicyclohexylphosphinodithioic acid, 2-oxocyclohexyl ester
Formula: C18H31OPS2
CAS: 147723-57-7
Molecular weight: 358
m/z	intensity
12	6
13	7
14	18
15	74
16	5
17	27
18	126
19	1
25	2
26	33
27	211
28	127
29	218
30	51
31	16
32	4
33	1
34	2
35	12
36	5
37	10
38	18
39	227
40	47
41	730
42	229
43	84
44	103
45	84
46	5
47	50
48	5
49	7
50	10
51	17
52	10
53	99
54	61
55	999
56	72
57	31
58	23
59	50
60	9
61	11
63	86
64	5
65	52
66	16
67	326
68	35
69	77
70	74
71	37
72	13
73	89
74	10
75	3
76	2
77	32
78	7
79	170
80	55
81	321
82	49
83	458
84	38
85	89
86	26
87	19
88	4
89	1
90	2
91	7
92	2
93	3
94	2
95	16
96	11
97	94
98	550
99	91
100	11
101	20
102	2
103	6
104	2
105	3
106	1
107	1
108	2
109	7
110	2
111	21
112	15
113	286
114	491
115	57
116	23
117	13
118	2
119	9
120	1
121	3
122	1
123	2
124	4
125	2
126	14
127	8
128	10
129	10
130	10
131	6
132	2
133	4
136	1
137	1
138	2
139	1
140	1
141	2
142	1
143	2
144	1
145	35
146	31
147	68
148	86
149	50
150	9
151	3
152	1
155	1
157	1
159	71
160	13
161	56
162	25
163	16
164	6
165	4
166	2
167	1
169	2
171	2
173	1
175	20
176	4
177	3
178	6
179	37
180	165
181	32
182	17
183	4
184	1
192	1
193	7
194	122
195	25
196	13
197	37
198	4
199	4
213	4
214	1
216	2
227	2
229	116
230	28
231	9
232	1
243	11
244	4
245	2
246	1
247	2
259	0
260	0
261	12
262	20
263	5
264	3
265	0
275	6
276	15
277	2
278	1
325	214
326	43
327	14
328	2
357	0
358	13
359	4
360	1
361	0
