Mass Spectrum: dl-Phenylephrine
Formula: C9H13NO2
CAS: 1477-63-0
Molecular weight: 167
m/z	intensity
26	1
27	10
28	20
29	10
30	17
31	1
39	37
40	8
41	17
42	34
43	25
44	999
45	44
46	1
50	6
51	18
52	5
53	9
54	2
55	13
56	4
57	6
58	2
59	0
60	1
61	2
62	4
63	12
64	5
65	34
66	15
67	9
68	3
69	4
70	2
71	3
72	0
73	2
74	4
75	3
76	2
77	65
78	10
79	7
80	2
81	3
82	2
83	3
84	2
85	2
89	2
90	1
91	11
92	3
93	13
94	17
95	47
96	4
97	3
98	1
99	0
103	2
104	1
105	5
106	3
107	13
108	3
109	1
111	1
115	1
116	1
117	1
118	2
119	3
120	9
121	19
122	7
123	13
124	10
125	1
129	0
130	1
131	1
132	1
133	8
134	2
135	2
136	2
146	1
147	1
148	6
149	3
150	4
151	1
167	11
168	7
