Mass Spectrum: Ethyl butyrylcarbamate
Formula: C7H13NO3
CAS: 14789-92-5
Molecular weight: 159
m/z	intensity
14	4
15	14
16	1
17	2
18	9
19	6
25	4
26	43
27	339
28	87
29	352
30	39
31	290
32	4
36	1
37	12
38	24
39	161
40	35
41	448
42	268
43	874
44	188
45	265
46	88
47	10
50	1
51	3
52	5
53	5
54	38
55	248
56	20
57	8
58	10
59	109
60	21
61	9
62	292
63	6
64	3
66	2
67	2
68	24
69	105
70	449
71	999
72	183
73	17
74	33
75	31
76	1
82	2
83	1
84	3
85	595
86	33
87	15
88	36
89	17
90	174
91	8
95	1
98	161
99	8
100	26
101	9
102	55
103	225
104	27
105	3
112	5
113	9
114	16
115	2
116	175
117	13
118	2
129	1
130	42
131	937
132	61
133	7
134	1
144	440
145	30
146	4
158	4
159	25
160	25
161	2
