Mass Spectrum: 3-Butyryl-5-phenoxymethyl-2-oxazolidinone
Formula: C14H17NO4
CAS: 14789-96-9
Molecular weight: 263
m/z	intensity
15	9
26	4
27	77
28	42
29	39
30	31
31	6
37	2
38	8
39	73
40	10
41	134
42	53
43	626
44	28
45	2
50	10
51	51
52	6
53	4
54	11
55	81
56	190
57	17
58	9
59	1
62	2
63	10
64	7
65	47
66	20
67	2
68	5
69	36
70	32
71	999
72	54
73	4
74	17
75	3
76	5
77	193
78	32
79	45
80	4
81	1
82	44
83	3
84	8
85	4
86	28
87	1
88	1
91	12
92	5
93	9
94	450
95	127
96	9
97	2
98	35
99	40
100	54
101	3
102	2
103	2
104	2
105	17
106	3
107	204
108	62
109	5
110	3
112	1
113	7
114	5
115	2
117	2
118	3
119	9
120	14
121	13
122	1
126	69
127	6
128	9
129	1
130	1
131	14
132	31
133	56
134	17
135	3
136	5
137	1
141	2
142	4
143	1
144	3
146	1
148	3
149	3
150	32
151	3
154	1
156	5
164	9
165	8
166	1
169	5
170	15
171	3
172	1
176	3
178	12
179	1
191	7
192	3
193	114
194	62
195	7
205	1
206	3
207	6
214	1
216	4
219	1
220	2
221	1
234	1
235	83
236	10
237	1
248	62
249	9
250	1
263	703
264	114
265	45
266	6
