Mass Spectrum: 4-(3-Oxocyclohexyl)butyric acid, methyl ester
Formula: C11H18O3
CAS: 147895-12-3
Molecular weight: 198
m/z	intensity
26	4
27	89
28	19
29	66
30	3
31	11
38	4
39	109
40	31
41	272
42	91
43	104
44	9
45	13
47	3
48	2
50	3
51	10
52	7
53	54
54	41
55	301
56	32
57	20
58	7
59	76
60	4
61	2
62	2
63	3
64	2
65	14
66	11
67	118
68	78
69	149
70	25
71	19
72	5
73	6
74	213
75	16
76	2
77	16
78	7
79	60
80	45
81	94
82	62
83	40
84	23
85	103
86	8
87	57
88	11
89	2
91	15
92	7
93	30
94	25
95	85
96	124
97	999
98	127
99	20
100	11
101	14
102	8
103	2
104	21
105	11
106	25
107	31
108	16
109	27
110	75
111	43
112	7
113	8
114	3
115	3
119	4
120	19
121	106
122	14
123	65
124	20
125	29
126	4
127	40
128	7
129	3
130	10
131	8
132	2
133	5
134	6
135	7
136	2
137	7
138	35
139	18
140	15
141	29
142	4
147	7
148	11
149	44
150	12
151	13
152	3
153	3
154	2
155	22
156	5
157	1
165	5
166	17
167	32
168	4
169	1
170	6
171	1
180	22
181	4
182	2
183	1
197	2
198	39
199	8
200	1
