Mass Spectrum: 5-Phenoxymethyl-3-propionyl-2-oxazolidinone
Formula: C13H15NO4
CAS: 14789-95-8
Molecular weight: 249
m/z	intensity
15	3
26	5
27	45
28	43
29	250
30	21
31	6
37	1
38	5
39	43
40	6
41	23
42	20
43	15
44	10
45	2
50	10
51	47
52	4
53	3
54	9
55	36
56	134
57	999
58	42
59	6
62	2
63	9
64	6
65	37
66	17
67	2
68	2
69	3
70	5
71	6
72	1
74	11
75	2
76	5
77	167
78	25
79	40
80	3
81	2
82	35
83	4
84	9
85	3
86	20
87	1
91	9
92	4
93	7
94	461
95	120
96	9
97	2
98	18
99	41
100	37
101	2
103	2
104	1
105	12
106	2
107	236
108	69
109	6
111	1
112	58
113	5
114	1
115	1
118	1
119	8
120	11
121	7
122	1
127	2
128	8
131	12
132	25
133	30
134	7
135	1
136	3
142	5
143	1
144	2
148	2
149	3
150	40
151	9
152	1
155	8
156	9
164	19
165	2
171	1
172	1
176	2
191	3
192	2
193	59
194	27
195	3
221	1
249	640
250	96
251	11
