Mass Spectrum: 1H-Indene-3-ethanamine, N,N-dimethyl-
Formula: C13H17N
CAS: 14780-23-5
Molecular weight: 187
m/z	intensity
26	0
27	4
28	1
29	8
30	41
31	0
38	0
39	7
40	5
41	4
42	46
43	12
44	7
45	0
50	3
51	9
52	1
53	1
54	0
55	1
56	7
57	12
58	999
59	41
60	0
61	0
62	2
63	10
64	3
65	4
66	0
69	0
70	2
71	4
72	1
74	3
75	5
76	4
77	9
78	4
79	0
81	0
85	0
86	1
87	2
88	1
89	6
90	0
91	2
92	0
94	0
98	0
99	0
100	0
101	2
102	8
103	1
113	1
114	1
115	29
116	4
117	0
126	4
127	13
128	49
129	9
130	0
139	3
140	0
141	9
142	3
143	2
144	0
153	0
154	0
155	0
167	0
168	0
170	0
184	1
185	0
186	0
187	48
188	6
189	0
