Mass Spectrum: Ethyl propionylcarbamate
Formula: C6H11NO3
CAS: 14789-91-4
Molecular weight: 145
m/z	intensity
12	1
13	2
14	10
15	27
16	3
17	6
18	10
24	1
25	6
26	64
27	280
28	185
29	807
30	43
31	258
32	5
37	1
38	3
39	5
40	4
41	9
42	39
43	60
44	187
45	242
46	64
47	5
51	4
52	4
53	5
54	26
55	123
56	234
57	999
58	50
59	7
61	4
62	172
63	3
68	1
70	282
71	15
72	77
73	52
74	40
75	9
85	2
86	6
87	8
88	40
89	12
90	138
91	7
98	8
99	81
100	24
101	7
102	10
103	1
116	10
117	257
118	37
119	3
144	1
145	130
146	21
147	2
