Mass Spectrum: 3,7-Diazabicyclo[3.3.1]nonane, 3,7-dimethyl-
Formula: C9H18N2
CAS: 14789-33-4
Molecular weight: 154
m/z	intensity
26	9
27	87
28	86
29	49
30	77
31	5
37	1
38	10
39	217
40	45
41	470
42	999
43	189
44	398
45	15
46	0
47	0
48	0
49	0
50	4
51	16
52	13
53	56
54	40
55	48
56	42
57	252
58	770
59	35
60	2
61	0
62	1
63	4
64	1
65	33
66	25
67	95
68	127
69	26
70	176
71	24
72	9
73	1
74	0
75	0
76	2
77	25
78	10
79	29
80	36
81	68
82	297
83	57
84	175
85	15
86	6
87	0
91	3
92	7
93	15
94	191
95	61
96	307
97	267
98	28
99	3
104	0
106	3
107	11
108	164
109	28
110	137
111	54
112	24
113	16
114	1
118	0
120	1
121	0
122	49
123	20
124	159
125	35
126	4
127	0
132	0
135	0
136	0
137	3
138	3
139	13
140	1
151	0
152	0
153	140
154	229
155	27
156	1
