Mass Spectrum: 3-Isobutyryl-5-phenoxymethyl-2-oxazolidinone
Formula: C14H17NO4
CAS: 14789-97-0
Molecular weight: 263
m/z	intensity
15	9
26	5
27	96
28	60
29	31
30	61
31	6
37	2
38	9
39	110
40	21
41	216
42	96
43	982
44	57
45	2
50	13
51	75
52	7
53	6
54	20
55	76
56	225
57	26
58	12
59	2
62	3
63	15
64	9
65	67
66	31
67	3
68	6
69	45
70	342
71	999
72	50
73	3
74	40
75	4
76	9
77	285
78	48
79	63
80	5
81	2
82	41
83	4
84	7
85	5
86	15
87	1
88	1
91	18
92	7
93	12
94	383
95	120
96	10
97	4
98	32
99	44
100	90
101	5
102	1
103	5
104	3
105	39
106	5
107	229
108	55
109	5
110	2
112	1
115	3
116	1
117	1
118	1
119	11
120	15
121	38
122	3
124	1
125	1
126	58
127	5
130	1
131	16
132	26
133	148
134	42
135	4
136	8
137	1
141	1
142	7
143	1
147	1
148	2
149	4
150	30
151	3
154	3
156	3
163	1
164	5
165	7
169	4
170	5
176	9
177	1
178	7
179	1
191	9
192	3
193	158
194	417
195	47
196	5
220	5
221	1
235	3
248	6
249	3
261	4
263	826
264	135
265	15
266	1
