Mass Spectrum: 1,2,4-Triazole, 5-benzylaminosulfonyl-
Formula: C9H10N4O2S
CAS: 147945-41-3
Molecular weight: 238
m/z	intensity
33	3
35	0
36	4
38	30
39	102
40	50
41	84
42	176
43	27
44	12
45	5
46	20
48	42
50	90
51	181
52	47
53	15
54	5
55	5
57	1
59	2
60	2
61	5
62	13
63	44
64	29
65	122
66	8
67	8
69	132
70	70
71	8
72	0
73	4
74	20
75	24
77	417
78	168
79	189
80	14
84	2
85	1
86	1
87	1
89	43
91	383
92	26
93	1
94	0
95	3
97	3
99	1
100	0
101	2
102	2
104	275
106	999
107	76
108	1
110	1
116	18
117	8
118	8
119	2
120	0
124	0
126	0
129	1
130	1
131	4
132	68
133	5
134	12
145	2
146	10
147	0
152	0
156	2
157	0
158	3
161	12
163	0
172	0
173	13
174	3
175	0
180	0
182	0
223	0
237	2
