Mass Spectrum: Methyloctyl dichlorosilane
Formula: C9H20Cl2Si
CAS: 14799-93-0
Molecular weight: 226
m/z	intensity
15	1
26	2
27	49
28	10
29	86
30	2
35	1
36	10
38	3
39	39
40	7
41	162
42	59
43	445
44	14
45	1
51	2
52	1
53	10
54	14
55	93
56	131
57	263
58	10
59	1
63	46
64	3
65	18
66	1
67	9
68	11
69	83
70	112
71	118
72	6
73	1
77	4
78	15
79	42
80	8
81	15
82	27
83	90
84	113
85	146
86	9
90	1
91	3
92	9
93	15
94	4
95	6
96	2
97	20
98	7
99	17
100	5
101	10
102	1
103	3
104	1
105	15
106	8
107	11
108	3
109	5
110	1
111	9
112	174
113	999
114	73
115	689
116	43
117	130
118	7
119	27
120	7
121	10
122	3
123	2
125	10
126	4
127	13
128	3
129	6
131	4
132	1
133	16
134	11
135	8
136	4
137	1
139	6
140	4
141	620
142	54
143	420
144	34
145	77
146	6
147	81
148	11
149	29
150	4
151	1
153	2
154	7
155	83
156	11
157	56
158	6
159	10
160	1
161	30
162	11
163	11
164	4
165	1
167	13
168	3
169	45
170	6
171	26
172	3
173	5
175	2
181	3
182	1
183	19
184	3
185	12
186	2
187	3
190	29
191	14
192	11
193	5
194	1
197	10
198	4
199	8
200	3
201	1
207	1
209	1
211	104
212	14
213	70
214	9
215	12
216	1
226	62
227	9
228	42
229	6
230	8
231	1
