Mass Spectrum: n-Hexylmethyldichlorosilane
Formula: C7H16Cl2Si
CAS: 14799-94-1
Molecular weight: 198
m/z	intensity
15	2
26	2
27	48
28	9
29	59
30	1
36	7
38	3
39	36
40	6
41	116
42	41
43	136
44	4
45	2
50	1
51	2
52	1
53	9
54	9
55	54
56	178
57	94
58	4
63	65
64	5
65	26
66	2
67	4
68	7
69	56
70	4
71	6
77	6
78	17
79	39
80	8
81	13
82	2
83	9
84	225
85	38
86	2
90	1
91	3
92	12
93	21
94	6
95	8
96	1
97	11
98	9
99	23
100	8
101	15
102	2
103	4
105	17
106	17
107	19
108	7
109	6
111	2
112	17
113	999
114	74
115	681
116	42
117	127
118	7
119	15
120	5
121	7
122	2
123	2
125	11
126	5
127	19
128	4
129	9
130	1
131	3
132	1
133	11
134	49
135	9
136	17
137	2
139	4
140	4
141	567
142	49
143	385
144	31
145	71
146	5
147	14
148	1
149	5
153	1
154	2
155	31
156	5
157	21
158	2
159	5
162	44
163	17
164	17
165	6
166	1
167	3
168	1
169	19
170	5
171	11
172	3
173	4
175	1
183	95
184	10
185	65
186	7
187	12
188	1
198	51
199	7
200	35
201	4
202	6
