Mass Spectrum: Benzopyrazine, 1,2,3,4-tetrahydro-2-oxo-3-difluoroacetylmethylene-
Formula: C11H8F2N2O2
CAS: 147917-07-5
Molecular weight: 238
m/z	intensity
37	33
38	76
39	104
40	30
41	69
42	35
43	15
44	32
45	13
46	3
47	6
49	22
50	104
51	999
52	188
53	93
54	28
55	9
57	30
58	3
62	45
63	94
64	52
65	44
67	37
68	50
69	8
70	2
71	14
72	14
73	8
74	6
75	38
76	60
77	48
78	37
79	12
80	9
81	2
82	3
83	1
84	0
89	9
90	52
91	29
92	8
93	2
94	0
102	15
103	33
104	25
105	14
106	2
107	0
116	3
117	1
118	3
119	0
130	9
131	82
132	6
133	0
134	3
135	0
158	5
159	15
160	1
161	0
169	0
186	3
187	62
188	7
189	0
190	0
191	3
199	0
237	0
238	14
239	2
