Mass Spectrum: 3-Azatricyclo[4.2.1.0(2,5)]non-7-en-4-one, exo,exo-
Formula: C8H9NO
CAS: 14805-31-3
Molecular weight: 135
m/z	intensity
15	8
17	42
26	18
27	78
29	12
30	17
37	9
38	25
39	135
41	30
42	23
43	39
45	9
50	27
51	57
52	34
53	35
54	9
56	6
62	9
63	22
64	8
65	95
66	999
67	68
68	10
69	18
70	686
71	26
77	74
78	31
79	80
80	73
81	7
89	7
91	176
92	53
93	5
106	91
107	264
108	23
118	11
120	9
134	14
135	7
136	4
