Mass Spectrum: Fluanisone
Formula: C21H25FN2O2
CAS: 1480-19-9
Molecular weight: 356
m/z	intensity
15	9
18	1
26	2
27	23
28	83
29	36
30	32
31	2
33	1
34	1
37	1
38	5
39	46
40	9
41	117
42	288
43	68
44	23
45	3
46	1
48	1
49	1
50	20
51	52
52	30
53	19
54	60
55	146
56	493
57	61
58	16
59	3
61	1
62	4
63	23
64	30
65	172
66	22
67	13
68	43
69	45
70	483
71	58
72	16
73	2
74	8
75	91
76	20
77	180
78	83
79	93
80	35
81	25
82	57
83	56
84	57
85	6
86	2
87	4
88	2
89	10
90	14
91	142
92	122
93	126
94	45
95	519
96	92
97	34
98	163
99	11
100	1
101	9
103	25
104	90
105	41
106	140
107	87
108	23
109	50
110	14
111	3
112	4
113	1
115	11
116	16
117	36
118	54
119	44
120	571
121	234
122	45
123	999
124	76
125	9
126	2
127	3
128	3
129	2
130	25
131	20
132	56
133	62
134	357
135	304
136	435
137	44
138	129
139	12
140	1
142	2
143	3
144	14
145	16
146	59
147	31
148	110
149	381
150	129
151	38
152	5
153	1
155	1
156	1
157	8
158	5
159	12
160	26
161	19
162	665
163	108
164	118
165	265
166	27
167	2
168	2
170	1
171	4
172	2
173	9
174	31
175	38
176	50
177	201
178	27
179	3
183	1
184	1
185	1
186	3
187	14
188	6
189	34
190	469
191	99
192	18
193	10
194	32
195	4
198	1
199	1
200	2
201	3
202	2
203	91
204	29
205	866
206	128
207	16
208	4
209	1
211	1
212	1
213	1
214	2
215	1
216	4
217	20
218	564
219	362
220	60
221	10
222	2
229	2
230	1
231	5
232	2
233	4
234	1
277	1
321	1
324	1
325	2
335	1
336	9
337	3
338	1
341	55
342	14
343	2
352	1
354	21
355	13
356	293
357	70
358	10
359	1
