Mass Spectrum: 1-Benzyl-3-hydroxypiperidine
Formula: C12H17NO
CAS: 14813-01-5
Molecular weight: 191
m/z	intensity
15	6
26	2
27	29
29	23
30	49
31	9
38	4
39	60
40	7
41	81
42	81
43	96
44	51
45	3
50	9
51	28
52	8
53	11
54	10
55	37
56	16
57	12
58	4
62	5
63	26
64	8
65	139
66	8
67	5
68	6
69	11
70	12
71	97
72	9
73	1
74	1
75	2
76	2
77	15
78	6
79	5
80	5
81	1
82	27
83	2
84	12
85	2
86	2
87	1
89	33
90	19
91	999
92	112
93	5
94	1
96	5
98	2
100	375
101	23
102	2
103	4
104	31
105	11
106	5
113	2
114	174
115	14
116	3
117	14
118	40
119	11
120	24
121	2
128	1
129	1
130	4
131	3
132	32
133	6
134	213
135	22
144	3
145	1
146	93
147	12
148	6
158	1
160	11
161	1
162	5
172	7
173	5
174	6
190	106
191	189
192	26
193	2
