Mass Spectrum: 2H-Benzopyran-4-ol, 3,4-dihydro-3-phenyl-
Formula: C15H14O2
CAS: 1481-96-5
Molecular weight: 226
m/z	intensity
37	1
38	5
39	35
40	6
41	3
42	0
43	1
45	0
50	16
51	45
52	11
53	7
54	1
55	5
56	0
57	0
61	1
62	6
63	26
64	12
65	62
66	15
67	2
68	0
70	3
71	1
72	0
73	0
74	7
75	12
76	55
77	120
78	106
79	36
80	2
82	8
84	1
85	0
86	1
87	3
88	12
89	26
90	10
91	84
92	21
93	34
94	23
95	3
96	0
97	1
98	1
99	0
100	0
101	4
102	24
103	145
104	999
105	511
106	44
107	18
109	0
110	0
111	0
113	13
115	13
116	3
117	3
118	4
119	9
121	660
122	989
123	80
124	6
125	1
126	2
127	3
128	5
129	1
130	1
131	18
132	2
133	0
134	2
135	4
136	0
137	0
138	0
139	5
140	1
141	2
142	0
143	0
145	6
146	1
147	6
148	1
149	0
150	3
151	7
152	20
153	4
154	1
155	0
156	0
157	0
162	1
163	4
164	4
165	22
166	4
167	2
168	0
169	0
170	0
172	0
173	0
174	0
175	1
176	9
177	7
178	22
179	7
180	1
181	4
182	1
183	0
184	1
185	0
189	2
190	0
191	0
192	0
193	0
194	2
195	1
196	0
197	0
199	0
201	0
202	2
203	0
205	1
207	24
208	21
209	3
210	2
211	1
215	12
216	1
217	0
218	0
221	1
222	5
223	2
224	6
226	232
227	37
228	3
