Mass Spectrum: 10-Oxodecanoic acid, methyl ester
Formula: C11H20O3
CAS: 14811-73-5
Molecular weight: 200
m/z	intensity
26	6
27	97
28	29
29	163
30	6
31	22
33	4
35	2
36	3
37	2
38	4
39	96
40	21
41	386
42	82
43	262
44	83
45	44
46	2
47	4
49	4
50	3
51	10
52	5
53	46
54	55
55	551
56	74
57	137
58	19
59	212
60	13
61	6
63	2
64	2
65	12
66	11
67	190
68	73
69	223
70	50
71	58
72	17
73	83
74	999
75	101
76	12
77	18
78	8
79	62
80	70
81	221
82	97
83	298
84	146
85	49
86	12
87	717
88	83
89	8
90	3
91	18
92	5
93	53
94	41
95	79
96	99
97	312
98	208
99	41
100	12
101	98
102	10
103	4
104	8
105	9
106	17
107	65
108	108
109	70
110	18
111	83
112	67
113	23
114	17
115	67
116	13
117	7
118	4
119	10
120	6
121	39
122	45
123	74
124	66
125	655
126	73
127	16
128	6
129	129
130	17
131	8
132	15
133	15
134	5
135	12
136	5
137	10
138	32
139	31
140	39
141	17
142	3
143	130
144	43
145	6
146	3
147	3
148	5
149	33
150	140
151	27
152	12
153	7
154	7
155	5
156	8
157	633
158	77
159	9
164	2
165	4
166	18
167	8
168	81
169	507
170	63
171	12
172	293
173	33
174	4
175	2
180	3
181	4
182	7
183	4
184	3
185	18
186	5
194	3
195	2
196	3
199	6
200	3
201	10
202	1
