Mass Spectrum: Phoxim, oxygen analog
Formula: C12H15N2O4P
CAS: 14816-17-2
Molecular weight: 282
m/z	intensity
40	5
41	0
42	2
43	64
44	9
45	140
47	16
49	1
50	107
51	362
52	13
62	19
63	30
64	9
65	77
66	0
74	9
75	28
76	83
77	626
78	19
81	505
82	12
83	3
87	2
88	33
89	131
90	7
91	158
92	3
93	14
94	4
99	100
101	1
102	5
103	127
104	23
105	3
107	1
109	999
110	12
114	24
115	73
116	137
117	19
118	7
119	24
120	0
121	0
125	527
126	3
127	37
129	161
130	21
137	153
143	3
144	31
145	1
146	25
153	114
154	1
155	19
156	25
157	31
158	0
174	2
178	17
196	1
208	0
210	1
224	0
252	2
254	0
267	1
282	69
283	4
