Mass Spectrum: 3,6,9,12-Tetrathiatetradecanedioic acid
Formula: C10H18O4S4
CAS: 148253-89-8
Molecular weight: 330
m/z	intensity
26	5
27	31
29	6
31	9
39	6
41	6
42	7
43	20
44	16
45	193
46	61
47	124
48	2
49	5
51	2
53	8
55	5
57	7
58	18
59	86
60	106
61	136
62	8
63	7
64	31
65	8
66	7
72	5
73	292
74	22
75	46
76	7
77	24
78	16
79	8
80	7
81	7
82	8
83	5
85	7
86	65
87	100
88	7
89	6
90	7
91	27
92	35
93	13
94	5
95	16
96	7
97	7
101	8
103	8
104	5
105	78
106	19
107	16
108	4
109	7
112	4
117	5
118	194
119	999
120	240
121	68
122	15
123	33
124	8
125	7
127	5
128	2
133	8
134	5
135	8
137	5
144	8
145	7
146	6
147	5
149	8
150	8
151	75
152	103
153	18
154	12
155	7
165	40
166	8
168	8
177	5
178	109
179	54
180	9
211	8
212	356
213	20
214	35
215	7
216	7
238	162
239	14
240	21
241	6
242	3
256	5
312	5
330	31
331	7
332	8
