Mass Spectrum: 1,3-Oxazolidine, 2-methyl-2-(4'-methylphenyl)-
Formula: C11H15NO
CAS: 148202-30-6
Molecular weight: 177
m/z	intensity
39	28
42	34
43	34
44	52
45	31
65	64
77	47
79	36
86	166
89	28
90	21
91	145
103	35
105	999
106	98
115	46
116	28
117	74
118	248
119	213
130	17
131	38
132	29
133	20
144	22
146	795
147	116
162	527
163	68
176	13
177	90
