Mass Spectrum: 2-Norbornene, 1,2,3,4,7,7-hexafluoro-5-vinyl-
Formula: C9H6F6
CAS: 1482-04-8
Molecular weight: 228
m/z	intensity
27	42
31	27
39	194
41	27
51	51
53	68
54	999
55	47
57	29
59	155
69	63
75	40
77	28
81	29
88	16
93	30
95	30
97	19
99	23
101	32
113	22
115	24
119	44
124	49
127	36
132	27
133	50
137	22
145	30
150	26
151	49
158	22
159	49
163	77
164	40
169	131
174	49
177	22
181	103
182	74
187	19
189	17
208	65
228	94
