Mass Spectrum: Acetamide, N-[5-(1H-benzimidazol-2-yl)-4-methyl-2-thiazolyl]-
Formula: C13H12N4OS
CAS: 148291-11-6
Molecular weight: 272
m/z	intensity
35	9
36	25
37	8
38	19
39	40
40	32
41	46
42	162
43	999
45	29
50	19
51	30
52	42
53	15
54	8
55	2
57	18
58	22
59	18
60	3
62	32
63	112
64	65
65	43
67	119
69	116
70	88
71	46
72	7
74	11
75	30
76	41
77	29
78	20
79	3
80	1
81	11
82	25
83	39
84	10
85	18
86	16
87	2
88	17
89	32
90	94
91	85
92	46
93	10
94	4
95	4
96	11
97	4
100	6
102	124
103	33
104	13
105	7
107	13
108	10
109	9
110	3
111	27
112	8
113	4
115	8
116	36
117	33
118	138
119	55
121	2
127	3
128	20
129	49
130	6
131	26
132	24
133	34
134	112
135	16
136	3
139	5
141	11
143	308
144	118
145	19
146	1
149	2
150	3
153	14
154	1
155	151
156	83
157	18
158	14
159	15
160	32
161	102
162	71
163	34
164	7
168	8
169	14
170	26
171	7
172	6
173	2
175	51
176	7
179	1
181	2
183	2
184	4
185	21
187	458
188	576
189	103
190	29
191	5
195	12
196	75
197	23
200	8
201	33
202	178
203	25
204	4
212	4
213	10
214	2
226	4
227	16
228	63
229	268
230	722
231	115
232	25
233	3
268	2
269	44
270	44
272	449
273	69
274	19
