Mass Spectrum: L-Alanine, 3-[(aminocarbonyl)amino]-
Formula: C4H9N3O3
CAS: 1483-07-4
Molecular weight: 147
m/z	intensity
12	1
14	4
15	43
16	98
17	180
18	173
19	4
26	4
27	18
28	184
29	125
30	999
31	62
32	2
36	2
38	2
39	4
40	11
41	37
42	145
43	206
44	206
45	20
46	11
47	1
52	1
53	2
54	3
55	8
56	23
57	160
58	43
59	75
60	16
61	59
62	1
67	1
68	3
69	15
70	9
71	4
72	2
73	235
74	106
75	304
76	8
77	2
81	1
82	2
83	5
84	37
85	246
86	48
87	35
88	3
91	1
95	2
96	2
97	3
98	1
99	1
100	8
101	3
102	32
103	2
104	56
105	7
107	1
108	1
109	1
110	1
111	1
112	14
113	2
114	2
115	1
118	5
121	1
125	1
126	1
128	4
129	6
130	9
131	4
147	3
148	9
149	1
