Mass Spectrum: Diphenyliodonium chloride
Formula: C12H10ClI
CAS: 1483-72-3
Molecular weight: 316
m/z	intensity
26	5
27	18
28	1
35	4
36	41
37	15
38	46
39	25
40	1
41	1
48	1
49	19
50	207
51	324
52	22
53	1
55	2
56	15
57	5
60	3
61	5
62	6
63	6
64	1
65	3
66	1
72	2
73	20
74	73
75	57
76	62
77	999
78	100
79	4
82	2
83	1
84	3
85	4
86	4
87	2
88	1
93	2
94	7
97	1
102	22
111	5
112	411
113	29
114	148
115	9
127	18
128	4
151	1
152	6
153	7
154	21
155	3
176	1
188	1
203	4
204	682
205	42
206	1
238	2
280	3
281	25
282	3
