Mass Spectrum: [4,8-Bis(decyloxy)-5-(4-fluorobenzoyl)naphthalene, 1-(4-fluorobenzoyl)-
Formula: C44H54F2O4
CAS: 148341-00-8
Molecular weight: 684
m/z	intensity
26	4
27	46
28	10
29	238
30	6
31	1
32	1
36	1
38	1
39	21
40	4
41	404
42	41
43	999
44	31
45	2
50	1
51	2
52	2
53	9
54	7
55	311
56	34
57	433
58	19
59	1
65	1
67	16
68	5
69	113
70	16
71	87
72	4
73	1
74	1
75	3
77	2
78	1
79	4
81	9
82	2
83	48
84	5
85	48
86	3
91	1
93	1
94	2
95	64
96	7
97	20
98	2
99	2
105	1
109	49
110	4
111	2
112	1
113	1
121	2
122	2
123	554
124	43
125	3
128	1
129	4
130	1
133	1
135	1
137	1
140	1
145	2
146	3
147	4
148	1
149	2
151	1
156	2
157	2
158	1
161	1
169	2
170	1
171	1
173	1
174	1
175	3
176	4
177	1
181	1
182	1
183	2
184	3
185	9
186	5
187	3
194	1
195	2
196	2
197	6
198	2
199	4
200	1
201	3
205	1
206	2
207	12
208	2
209	2
210	3
211	3
212	166
213	176
214	23
215	3
217	1
218	3
219	6
220	4
221	2
222	2
223	9
224	3
225	7
226	5
227	3
228	1
233	3
234	6
235	16
236	9
237	5
238	3
239	3
240	1
241	1
242	1
247	1
248	2
249	2
250	4
251	8
252	4
253	4
254	1
261	1
262	6
263	43
264	12
265	7
266	1
267	2
269	1
270	1
273	1
274	2
275	3
276	3
277	3
278	7
279	10
280	9
281	8
282	4
283	2
284	1
286	1
287	1
288	1
289	2
290	7
291	122
292	24
293	8
294	2
295	2
296	2
297	2
299	10
300	12
301	12
303	5
304	4
305	4
306	5
307	48
308	54
309	191
310	35
311	6
312	1
313	1
316	1
317	2
318	1
319	3
320	1
321	3
322	3
323	1
325	1
327	1
328	3
329	2
330	1
331	1
333	1
335	1
339	1
341	1
344	1
345	1
346	2
347	2
348	1
349	1
355	1
356	1
357	23
358	8
359	3
360	1
369	4
371	24
373	8
374	6
375	18
376	7
377	3
378	2
379	2
380	2
381	2
382	2
383	2
384	3
385	7
386	14
387	403
388	109
389	19
390	3
391	1
393	1
394	1
396	2
397	2
398	2
399	3
400	5
401	5
403	141
404	430
405	161
406	31
407	5
408	1
413	1
416	1
417	5
418	1
419	1
421	6
422	3
423	1
429	2
433	18
438	3
441	1
442	1
444	1
445	1
446	1
447	1
449	10
450	3
451	1
459	1
473	1
487	1
488	1
501	1
515	1
516	3
517	1
526	2
527	17
528	8
529	2
530	1
531	1
540	3
543	39
544	193
545	97
546	24
547	4
557	1
562	3
563	1
585	1
586	3
587	1
599	1
613	1
627	1
628	3
629	1
639	1
640	1
641	1
642	2
656	21
657	9
658	3
666	1
667	1
669	2
670	3
671	2
684	992
685	522
