Mass Spectrum: 2-Hexenamide, N-phenyl-
Formula: C12H15NO
CAS: 1483-36-9
Molecular weight: 189
m/z	intensity
25	1
26	10
27	126
28	1
29	50
30	2
37	5
38	20
39	199
41	277
42	17
43	15
44	0
50	14
51	49
52	18
53	45
54	11
55	987
56	30
57	3
61	0
62	6
63	30
64	26
65	133
66	46
67	25
68	55
69	73
70	4
73	1
74	2
75	1
76	5
77	71
78	6
79	6
80	1
81	20
82	1
89	2
90	3
91	35
92	43
93	999
94	73
95	9
96	6
97	367
98	28
99	0
103	2
104	7
105	2
106	2
115	5
116	1
117	11
118	7
119	5
120	5
128	2
130	11
131	2
132	10
133	2
134	1
135	2
144	1
145	2
146	29
147	5
148	0
158	0
159	0
160	6
161	1
174	16
175	0
186	0
188	3
189	270
190	45
191	6
