Mass Spectrum: 1,1,4,4-Tetraphenyl butynediol-1,4
Formula: C28H22O2
CAS: 1483-74-5
Molecular weight: 390
m/z	intensity
25	0
26	3
27	7
28	4
29	0
31	0
37	0
38	1
39	13
41	2
42	2
43	0
44	0
45	0
49	0
50	13
51	75
52	9
53	75
54	2
55	1
56	0
57	1
58	0
60	0
61	0
62	2
63	11
64	2
65	5
66	1
67	0
69	0
71	0
72	0
73	0
74	4
75	11
76	18
77	549
78	60
79	16
80	1
81	1
82	0
83	0
86	1
87	3
88	3
89	13
90	2
91	25
92	2
93	0
94	2
95	2
96	0
98	1
99	1
100	1
101	8
102	17
103	17
104	4
105	999
106	139
107	25
108	2
109	1
110	0
111	0
112	1
113	6
114	3
115	13
116	1
117	2
118	1
119	2
120	2
121	1
122	0
123	1
124	0
125	2
126	10
127	4
128	5
129	78
130	24
131	23
132	7
133	19
134	2
135	1
136	0
137	2
138	6
139	10
140	2
141	2
142	7
143	0
144	0
145	0
146	1
147	9
148	1
149	1
150	7
151	12
152	28
153	13
154	8
155	14
156	3
157	4
158	2
159	0
161	1
162	3
163	13
164	8
165	95
166	19
167	17
168	3
169	2
170	2
171	0
172	0
174	2
175	4
176	15
177	16
178	75
179	78
180	13
181	16
182	39
183	174
184	25
185	3
186	1
187	6
188	7
189	61
190	19
191	41
192	8
193	6
194	25
195	7
196	1
197	0
199	0
200	3
201	1
202	5
203	1
204	0
205	4
206	7
207	139
208	56
209	9
210	1
211	0
212	0
213	2
214	0
215	3
216	1
217	6
218	9
219	2
220	0
221	0
222	0
223	5
224	2
225	1
226	4
227	1
228	1
229	0
231	0
232	0
233	1
234	1
235	8
236	3
237	3
238	2
239	13
240	4
241	4
242	1
243	1
244	0
247	0
248	0
249	0
250	5
251	3
252	42
253	15
254	4
255	2
256	0
257	1
258	0
259	0
260	0
261	2
262	1
263	14
264	7
265	73
266	30
267	500
268	130
269	17
270	3
271	0
272	0
273	0
274	2
275	1
276	9
277	6
278	5
279	3
280	1
281	5
282	1
283	3
284	2
285	259
286	60
287	7
288	0
289	1
290	0
291	0
292	1
293	4
294	22
295	87
296	35
297	6
298	1
299	1
300	1
301	0
302	0
303	0
309	0
311	1
312	3
313	3
314	1
315	1
316	0
317	0
318	0
319	0
320	0
324	0
325	0
326	1
327	1
328	1
329	1
330	0
331	0
337	0
338	0
339	2
340	1
341	1
342	1
343	6
344	69
345	20
346	2
347	0
348	0
349	0
350	1
351	1
352	2
353	1
354	4
355	6
356	14
357	5
358	1
368	0
369	0
370	3
371	52
372	136
373	43
374	7
375	0
386	0
390	1
391	0
