Mass Spectrum: 2-Pentenamide, N-phenyl-
Formula: C11H13NO
CAS: 1483-35-8
Molecular weight: 175
m/z	intensity
26	2
27	37
28	8
29	71
30	2
37	0
38	4
39	67
40	8
41	6
42	1
43	0
44	0
50	4
51	25
52	8
53	35
54	15
55	253
56	12
57	0
62	1
63	11
64	14
65	79
66	42
67	5
68	6
69	0
73	0
74	1
75	1
76	3
77	55
78	7
79	2
80	1
81	8
82	15
83	751
84	38
85	2
86	0
88	0
89	1
90	3
91	16
92	29
93	999
94	73
95	2
101	0
102	0
103	2
104	7
105	2
106	2
107	0
115	1
116	1
117	7
118	9
119	5
120	6
121	0
127	0
128	2
129	1
130	8
131	11
132	5
133	2
134	2
135	0
142	0
143	0
144	1
145	0
146	43
147	6
148	0
156	1
157	0
158	1
159	2
160	2
161	0
174	6
175	730
176	93
177	7
178	0
180	0
