Mass Spectrum: 2,4-Hexadienoanilide
Formula: C12H13NO
CAS: 1483-88-1
Molecular weight: 187
m/z	intensity
26	5
27	24
29	0
37	4
38	19
39	159
41	186
42	7
49	0
50	11
51	32
52	13
53	4
54	2
55	9
61	2
62	7
63	22
64	17
65	150
66	52
67	434
68	29
69	0
74	1
75	1
76	2
77	32
78	4
79	2
80	1
81	1
82	0
86	6
89	1
90	2
91	8
92	24
93	322
94	36
95	999
96	65
97	4
102	0
103	2
104	4
105	1
106	0
109	0
115	4
116	2
117	4
118	3
119	21
120	7
121	0
127	0
128	2
129	1
130	5
131	2
132	3
133	15
134	2
141	0
142	1
143	10
144	5
145	11
146	23
147	2
154	1
155	0
156	2
157	1
158	5
159	6
160	1
167	2
168	3
169	1
170	3
171	1
172	167
173	20
174	1
184	0
185	0
186	10
187	433
188	59
189	5
