Mass Spectrum: 4,5-Dihydrooxazole-5-one, 4-chloromethylene-2-phenyl-
Formula: C10H6ClNO2
CAS: 14848-36-3
Molecular weight: 207
m/z	intensity
41	9
42	2
43	7
44	6
45	18
46	2
47	24
48	11
49	19
50	92
51	179
52	16
53	15
54	3
55	12
56	2
57	5
59	1
60	12
61	8
62	17
63	16
64	5
65	5
66	2
67	4
68	1
69	3
70	1
71	3
73	18
74	134
75	67
76	111
77	607
78	60
79	4
81	1
82	2
83	3
84	3
85	3
86	5
87	6
88	4
89	4
90	2
91	12
92	3
93	2
94	1
95	3
96	1
97	3
98	1
99	3
100	4
101	2
102	3
103	12
104	24
105	999
106	97
107	8
108	0
109	1
110	1
111	2
112	1
113	0
114	1
115	2
116	1
117	1
118	1
119	1
120	0
121	6
122	24
123	5
124	9
125	2
126	0
127	1
128	30
129	4
130	1
131	0
132	1
133	1
134	2
135	3
136	0
137	1
139	1
141	0
143	0
144	1
145	2
146	2
147	0
148	1
149	6
150	2
151	1
152	1
153	1
154	0
155	1
157	0
158	1
160	3
161	2
162	2
163	3
164	1
165	1
167	0
172	3
173	1
174	5
175	0
177	1
178	1
179	1
180	1
181	1
182	0
185	0
187	0
188	2
189	10
190	56
191	7
192	3
196	0
203	0
204	0
205	4
206	9
207	247
208	33
209	78
210	10
211	1
