Mass Spectrum: 4-[2-(4-Fluorophenyl)ethyl]piperidine
Formula: C13H18FN
CAS: 148492-11-9
Molecular weight: 207
m/z	intensity
29	74
30	68
39	30
40	3
41	35
42	69
43	64
44	77
45	1
50	6
51	15
52	5
53	25
54	23
55	134
56	558
57	222
58	15
59	11
62	6
63	25
64	4
65	11
66	5
67	30
68	48
69	67
70	95
71	14
73	3
74	7
75	40
76	6
77	47
78	6
79	6
80	24
81	3
82	266
83	264
84	686
85	779
86	85
87	4
89	21
90	2
91	6
92	2
93	4
94	16
95	39
96	92
97	37
98	331
99	51
101	41
102	10
103	65
105	2
107	40
109	999
110	78
111	67
112	30
113	5
115	15
116	2
120	12
121	44
122	101
123	34
124	4
125	4
126	2
127	4
128	4
129	2
133	28
134	8
135	38
136	7
138	2
145	3
146	24
147	38
148	17
149	11
150	8
159	2
160	2
161	19
162	12
163	3
164	6
175	1
178	13
179	1
188	12
189	4
192	20
193	2
206	328
207	667
208	87
209	12
