Mass Spectrum: Bicyclo[4.1.0]heptan-2-one, 6-methyl-
Formula: C8H12O
CAS: 14845-41-1
Molecular weight: 124
m/z	intensity
42	200
43	50
44	30
50	20
51	60
52	30
53	250
54	100
55	370
56	50
57	20
63	30
65	40
66	50
67	600
68	999
69	120
77	50
78	10
79	70
80	70
81	600
82	130
83	20
91	50
92	30
93	100
94	20
95	140
96	250
97	40
105	40
109	70
124	450
125	60
