Mass Spectrum: 2-Phenylethanethiol, TMS derivative
Formula: C11H18SSi
CAS: 14856-80-5
Molecular weight: 210
m/z	intensity
40	120
41	50
42	30
43	140
44	390
45	390
46	50
47	210
48	120
49	40
50	220
51	440
52	160
53	50
54	10
55	30
56	10
57	30
58	40
59	140
60	40
61	70
62	60
63	130
64	150
65	140
66	90
67	20
68	10
69	20
70	10
71	20
72	30
73	480
74	120
75	820
76	130
77	330
78	440
79	80
80	10
81	10
82	10
84	10
85	10
86	10
87	30
88	10
89	60
90	40
91	720
92	130
93	30
94	10
95	10
97	10
98	10
100	10
101	20
102	80
103	370
104	999
105	260
106	40
107	10
108	10
109	10
110	10
115	10
116	10
117	20
118	10
119	120
120	20
121	30
122	10
127	10
128	10
131	40
133	30
134	50
135	40
136	20
137	10
138	170
139	20
140	10
145	10
148	110
149	60
150	10
151	10
165	10
166	10
195	10
210	20
