Mass Spectrum: Pregabalin
Formula: C8H17NO2
CAS: 148553-50-8
Molecular weight: 159
m/z	intensity
26	2
27	50
28	112
29	69
30	999
31	25
32	34
36	1
37	2
38	5
39	90
40	20
41	252
42	78
43	202
44	92
45	13
46	2
50	3
51	6
52	5
53	25
54	28
55	187
56	240
57	44
58	50
59	9
60	7
61	1
63	2
64	1
65	8
66	5
67	38
68	39
69	64
70	56
71	7
72	2
73	11
74	2
77	6
78	3
79	12
80	6
81	28
82	20
83	41
84	122
85	37
86	9
87	4
91	1
93	6
94	6
95	12
96	15
97	13
98	41
99	23
100	14
101	2
102	8
103	191
104	8
105	2
108	2
109	9
110	7
111	42
112	13
113	3
116	3
117	1
122	1
123	7
124	7
125	1
126	22
127	3
129	1
140	6
141	61
142	6
143	1
144	2
