Mass Spectrum: 5.alpha.-Cholest-7-ene-3.beta.-ol-6-one
Formula: C27H44O2
CAS: 14858-06-1
Molecular weight: 400
m/z	intensity
41	289
42	73
43	999
44	40
45	6
51	5
53	42
54	10
55	280
56	36
57	216
58	11
59	7
65	20
66	9
67	105
68	31
69	120
70	16
71	62
72	3
77	66
78	18
79	118
80	17
81	116
82	20
83	64
84	9
85	17
91	179
92	35
93	119
94	269
95	488
96	45
97	45
98	4
99	4
103	18
104	13
105	176
106	46
107	117
108	29
109	216
110	29
111	31
112	3
115	30
116	15
117	60
118	17
119	91
120	61
121	124
122	30
123	49
124	9
125	12
127	8
128	24
129	45
130	19
131	79
132	25
133	109
134	58
135	59
136	14
137	15
138	10
139	52
140	5
141	21
142	18
143	39
144	17
145	86
146	33
147	111
148	78
149	51
150	13
151	11
152	7
153	9
154	6
155	21
156	10
157	39
158	17
159	78
160	27
161	100
162	28
163	55
164	9
165	11
166	6
167	10
168	5
169	16
170	7
171	32
172	13
173	89
174	27
175	120
176	27
177	32
178	11
179	13
180	13
181	9
182	4
183	16
184	9
185	33
186	12
187	46
188	16
189	25
190	8
191	50
192	11
193	196
194	34
195	11
196	3
197	14
198	8
199	36
200	14
201	34
202	13
203	20
204	5
205	6
206	36
207	23
208	23
209	12
211	12
212	5
213	37
214	15
215	25
216	9
217	16
218	4
219	6
221	3
223	3
225	11
226	5
227	57
228	13
229	27
230	7
231	13
232	8
233	20
234	17
235	3
237	4
239	7
241	22
242	12
243	54
244	13
245	32
246	26
247	53
248	17
249	3
251	15
252	3
253	7
254	3
255	9
257	10
258	6
259	15
260	33
261	250
262	53
263	8
267	2
268	6
269	145
270	33
271	18
272	14
273	21
274	23
275	5
283	2
285	43
286	41
287	433
288	110
289	19
297	4
299	4
301	5
302	3
311	3
313	4
314	3
315	10
316	9
327	2
328	3
329	11
330	3
343	4
357	4
367	58
368	17
369	3
371	3
382	5
383	5
385	87
386	25
387	4
398	13
399	9
400	311
401	99
402	17
