Mass Spectrum: Furo[3,4-c]pyridine, 1,3-dihydro-6-methyl-1,7-bis(trimethylsiloxy)-
Formula: C14H25NO3Si2
CAS: 14857-19-3
Molecular weight: 311
m/z	intensity
45	256
73	999
74	130
75	280
147	180
178	68
179	20
180	16
194	40
195	14
222	400
223	60
224	20
267	96
268	20
296	300
297	94
298	16
310	216
311	156
312	16
