Mass Spectrum: N-Hydroxy-12-azadispiro(4,1,4,2)tridec-8-ene-6,13-dione
Formula: C12H15NO3
CAS: 14854-16-1
Molecular weight: 221
m/z	intensity
96	999
98	925
108	220
148	42
176	10
193	253
204	2
221	20
222	8
