Mass Spectrum: 2-Chloro-2-methyl-1-oxa-2-silacyclohexanone-6
Formula: C5H9ClO2Si
CAS: 14857-29-5
Molecular weight: 164
m/z	intensity
39	40
41	60
42	80
43	30
44	60
45	50
55	30
63	140
64	10
65	50
77	20
78	50
79	80
80	20
81	30
85	20
92	999
93	80
94	350
95	250
96	20
97	80
101	50
105	90
107	30
120	599
121	190
122	210
123	60
129	10
136	250
137	30
138	90
139	10
149	10
163	10
164	30
166	10
