Mass Spectrum: 2-Butanol, 1-(phenylmethoxy)-
Formula: C11H16O2
CAS: 14869-00-2
Molecular weight: 180
m/z	intensity
15	4
17	2
18	10
19	2
26	2
27	19
28	6
29	20
30	1
31	134
32	2
37	1
38	4
39	42
40	4
41	43
42	3
43	20
44	3
45	56
46	2
50	12
51	36
52	10
53	5
55	13
56	16
57	11
58	6
59	304
60	11
61	2
62	5
63	22
64	7
65	113
66	7
71	2
72	3
73	4
74	4
75	3
76	3
77	55
78	12
79	47
80	4
87	1
89	90
90	20
91	999
92	489
93	36
94	2
95	2
103	1
104	4
105	54
106	19
107	184
108	25
109	2
115	1
119	3
120	2
121	23
122	34
123	4
125	3
128	1
129	1
131	1
133	3
134	1
135	32
136	5
147	1
148	1
149	6
150	2
151	2
161	1
162	2
163	1
165	1
180	91
181	12
182	1
