Mass Spectrum: N,N'-Bis(2-chloro-4-nitrophenyl)terephthalamide
Formula: C20H12Cl2N4O6
CAS: 148651-23-4
Molecular weight: 474
m/z	intensity
42	35
43	177
44	56
45	100
50	188
51	110
52	39
53	28
57	52
58	211
62	30
63	225
64	28
65	401
74	32
75	142
76	553
77	45
88	260
90	36
93	36
101	32
103	60
104	999
105	47
111	33
121	186
132	62
139	38
149	848
150	43
163	38
167	74
211	26
255	31
257	37
303	644
304	50
305	211
439	85
441	28
474	69
476	48
