Mass Spectrum: 1,2,3-Triazole-4-carboxamide, 5-hydroxy-1-(4-methylphenyl)-N-(4-methylphenyl)-
Formula: C17H16N4O2
CAS: 148613-20-1
Molecular weight: 308
m/z	intensity
33	2
34	11
36	2
37	3
38	11
39	112
40	21
41	57
42	10
43	24
44	63
45	4
46	0
48	0
49	0
50	28
51	82
52	57
53	46
54	9
55	14
56	6
57	14
58	5
59	0
60	2
61	1
62	12
63	54
64	23
65	263
66	26
67	8
68	4
69	32
70	5
71	6
73	3
74	3
75	10
76	22
77	209
78	76
79	118
80	66
81	8
82	6
83	5
84	3
85	1
86	1
87	5
88	4
89	66
90	60
91	550
92	71
93	8
94	2
95	2
96	1
97	4
98	1
99	0
100	0
101	4
102	14
103	27
104	49
105	30
106	386
107	999
108	79
109	5
111	7
112	6
113	2
114	1
115	3
116	39
117	61
118	526
119	110
120	11
121	1
123	1
124	0
125	3
126	2
127	0
128	8
129	5
130	11
131	12
132	65
133	47
134	22
135	11
136	1
139	5
140	2
143	4
145	16
146	188
147	174
148	17
149	8
150	1
151	0
152	1
153	0
154	5
155	0
156	4
157	2
158	1
159	12
160	10
161	23
162	3
163	1
164	0
165	2
166	6
167	8
168	2
171	7
172	8
173	86
174	57
175	7
176	0
178	0
179	0
180	1
181	0
182	0
183	0
188	2
189	1
191	1
192	2
193	2
194	5
195	1
196	2
197	0
201	0
205	1
206	3
207	6
208	33
209	18
210	3
218	0
219	4
220	2
221	3
222	2
223	73
224	19
225	1
232	0
233	2
234	1
235	3
236	2
237	54
238	8
239	0
245	0
246	0
247	1
249	2
250	3
251	22
252	4
261	5
262	5
263	3
264	0
265	1
279	8
280	3
282	2
283	1
306	0
308	287
309	53
310	6
