Mass Spectrum: Clobutinol
Formula: C14H22ClNO
CAS: 14860-49-2
Molecular weight: 255
m/z	intensity
40	3
41	18
42	64
43	114
44	61
45	56
46	6
49	1
50	6
51	11
52	1
53	5
54	3
55	7
56	14
57	34
58	999
59	37
60	1
62	5
63	28
64	7
65	10
66	1
67	2
68	4
69	3
70	16
71	31
72	16
73	10
74	7
75	11
76	3
77	11
78	2
79	2
81	1
82	1
84	9
85	7
86	14
87	6
88	3
89	90
90	40
91	36
92	3
94	1
96	1
97	1
98	2
99	30
100	2
101	13
102	5
103	5
104	1
105	4
111	2
112	4
113	3
114	3
115	21
116	7
117	3
118	2
123	1
124	1
125	170
126	17
127	65
128	21
129	11
130	101
131	10
132	1
133	1
138	1
139	1
141	3
142	1
143	3
144	1
145	3
149	2
151	4
157	1
165	5
167	1
168	2
169	4
170	1
171	2
180	2
182	1
240	2
