Mass Spectrum: Butanoic acid, 3-hydroxy-, methyl ester
Formula: C5H10O3
CAS: 1487-49-6
Molecular weight: 118
m/z	intensity
26	9
27	67
28	30
29	66
30	20
31	88
33	71
37	5
38	9
39	53
40	8
41	67
42	178
43	999
44	73
45	518
46	15
50	5
51	9
55	8
57	13
58	45
59	121
61	136
62	5
63	11
65	14
69	35
70	4
71	287
72	13
74	551
75	50
76	6
77	17
78	9
79	4
85	55
86	6
87	191
88	9
100	40
101	6
103	186
104	10
117	11
119	4
