Mass Spectrum: 3-Chloropropyl formate
Formula: C4H7ClO2
CAS: 1487-44-1
Molecular weight: 122
m/z	intensity
28	504
29	707
30	146
31	999
39	286
41	562
43	40
45	73
47	239
49	99
57	240
58	176
61	11
62	12
63	27
65	13
73	122
76	548
77	29
78	177
79	6
93	36
94	3
95	12
