Mass Spectrum: L-Proline, N-cyclopropylcarbonyl-, methyl ester
Formula: C10H15NO3
CAS: 148706-26-7
Molecular weight: 197
m/z	intensity
26	3
27	13
28	1
29	3
30	2
31	2
36	3
37	1
38	4
39	56
40	14
41	142
42	21
43	11
44	2
45	2
52	1
53	4
54	4
55	13
56	4
59	11
66	1
67	6
68	40
69	277
70	999
71	46
72	1
80	2
81	3
82	4
83	2
84	3
94	2
95	1
96	4
108	2
109	3
110	2
111	2
124	1
128	26
129	2
136	2
137	3
138	741
139	65
140	4
165	1
166	4
197	52
198	8
