Mass Spectrum: 2,2-Dimethyl-2-sila-1,3-dioxacyclohexane
Formula: C5H12O2Si
CAS: 14879-83-5
Molecular weight: 132
m/z	intensity
31	180
43	80
45	180
59	90
61	70
75	110
87	170
101	40
117	999
132	50
