Mass Spectrum: 16-Pregnen-3,20-dione
Formula: C21H30O2
CAS: 14884-07-2
Molecular weight: 314
m/z	intensity
41	221
43	999
44	16
45	6
47	11
48	5
49	4
51	2
52	3
53	107
55	360
56	18
57	17
63	2
65	42
66	9
67	103
68	30
69	34
70	3
71	14
77	96
78	29
79	126
80	24
81	122
82	6
83	13
84	18
85	5
86	14
89	1
91	152
92	7
93	108
95	63
96	2
97	18
99	4
100	1
101	3
102	1
103	14
104	3
105	89
107	89
108	4
109	38
110	2
111	21
113	1
115	27
116	8
117	41
119	48
121	63
122	5
123	37
124	6
127	5
128	16
129	18
130	5
131	37
133	47
134	7
135	46
136	11
137	16
141	8
142	7
143	18
144	4
145	36
146	5
147	38
149	18
150	1
151	3
153	4
155	7
156	1
157	20
158	3
159	30
161	44
162	6
163	9
169	7
171	18
172	2
173	13
174	1
175	12
177	7
183	8
185	11
186	1
187	10
189	13
197	10
199	9
201	21
202	3
203	6
204	4
211	7
213	9
215	5
216	4
223	2
225	6
227	1
229	9
239	8
241	1
243	3
244	3
253	32
254	6
255	1
256	1
257	4
263	2
269	2
270	3
271	145
272	24
273	1
281	25
282	5
285	1
299	44
300	10
314	117
315	28
316	3
