Mass Spectrum: 2-Sec-butylxanthen-9-one
Formula: C17H16O2
CAS: 148877-17-2
Molecular weight: 252
m/z	intensity
33	0
34	3
36	2
37	19
38	53
39	123
40	15
41	37
42	29
43	211
44	13
45	152
46	3
47	11
48	1
49	20
50	234
51	422
52	65
53	26
54	3
55	51
56	5
57	10
58	10
59	10
60	87
61	14
62	14
63	31
64	15
65	49
66	25
67	7
68	4
69	22
70	7
71	5
72	6
73	30
74	84
75	59
76	85
77	781
78	80
79	18
80	2
81	13
82	6
83	38
84	5
85	3
86	1
87	3
88	3
89	11
90	6
91	8
92	15
93	11
94	29
95	6
96	2
97	4
98	16
99	3
100	1
101	4
102	6
103	8
104	24
105	999
106	79
107	9
108	1
109	2
110	2
111	13
112	3
113	6
114	4
115	17
116	3
117	1
118	3
119	3
120	2
121	16
122	781
123	83
124	7
125	2
126	3
127	4
128	5
129	2
130	0
131	1
133	6
134	3
135	12
136	2
137	4
138	3
139	37
140	6
141	12
142	2
143	1
144	0
145	1
146	1
147	2
148	0
149	3
150	2
151	7
152	44
153	7
154	1
155	2
156	11
157	2
158	3
161	0
162	0
163	6
164	6
165	37
166	11
167	5
168	22
169	4
170	0
171	0
174	0
175	1
176	4
177	5
178	7
179	5
180	27
181	22
182	3
183	1
184	1
185	1
187	0
189	1
191	1
192	2
193	4
194	8
195	8
196	14
197	23
198	4
199	0
200	0
202	0
203	0
204	0
205	10
206	3
207	4
208	8
209	41
210	8
211	1
213	0
218	2
219	1
220	1
221	16
222	10
223	566
224	96
225	10
226	1
233	0
234	2
235	6
236	2
237	37
238	6
239	1
250	1
251	3
252	160
253	31
254	3
