Mass Spectrum: (2-Indol-1-yl-ethyl)-methyl-amine
Formula: C11H14N2
CAS: 148806-52-4
Molecular weight: 174
m/z	intensity
33	2
34	5
36	1
37	1
38	6
39	25
40	54
41	15
42	30
44	999
45	180
46	89
47	3
48	2
50	15
51	32
52	10
53	4
54	3
55	7
56	23
57	17
58	11
59	3
60	1
61	2
62	12
63	36
64	12
65	11
66	3
67	2
68	1
69	7
70	3
71	5
72	0
73	1
74	8
75	14
76	17
77	100
78	12
79	4
80	3
81	2
82	4
83	3
84	2
85	2
86	2
87	5
88	5
89	49
90	25
91	16
92	4
93	9
94	0
95	1
96	1
97	2
98	1
99	1
100	1
101	11
102	33
103	66
104	12
105	5
106	1
107	0
108	0
109	0
111	1
112	2
113	2
114	4
115	19
116	21
117	31
118	6
119	3
120	2
121	0
123	0
124	0
125	0
126	1
127	4
128	27
129	29
130	298
131	552
132	58
133	3
134	1
135	5
136	0
137	0
138	0
142	7
143	22
144	12
145	2
172	6
174	255
175	29
176	1
