Mass Spectrum: Pyrimido[4,5-b]chromene-2,4(1H,3H)-dione, 10a-hydroxy-
Formula: C11H8N2O4
CAS: 148839-23-0
Molecular weight: 232
m/z	intensity
33	2
34	3
35	1
36	3
37	16
38	48
39	79
40	86
41	96
42	999
43	155
44	116
45	10
46	1
48	1
49	6
50	39
51	51
52	16
53	18
54	10
55	7
56	13
57	43
58	5
59	1
60	6
61	25
62	56
63	74
64	32
65	18
66	4
67	4
68	12
69	56
70	63
72	40
73	5
74	20
75	30
76	23
77	14
78	6
79	5
80	3
81	1
82	1
83	0
85	123
86	14
87	28
88	77
89	47
90	13
91	3
92	9
93	5
94	1
95	0
97	1
98	3
99	6
100	36
101	13
102	5
103	5
104	4
105	3
106	1
107	6
108	0
109	1
110	1
111	1
112	2
113	2
114	57
115	112
116	15
117	2
118	14
119	2
120	1
121	7
122	2
123	0
124	0
125	1
128	354
129	19
130	3
131	0
132	2
133	2
134	0
138	0
140	0
141	1
143	312
144	35
145	11
146	3
147	0
149	0
150	0
155	1
157	1
158	0
159	4
160	0
161	7
162	0
170	4
171	197
172	37
173	31
174	3
175	0
177	0
186	2
187	2
188	2
189	3
190	0
197	0
204	1
212	0
214	249
215	53
216	11
217	0
230	0
231	1
232	16
233	1
