Mass Spectrum: 1-(4-Aminophenyl)-3,6-diazahomoadamantan-9-one hydrazone
Formula: C15H21N5
CAS: 148988-04-9
Molecular weight: 271
m/z	intensity
30	70
31	10
36	12
37	3
38	13
39	60
40	51
41	190
42	560
43	130
44	180
45	23
50	9
51	29
52	28
53	36
54	78
55	89
56	160
57	160
58	999
59	41
60	3
62	4
63	18
64	11
65	86
66	33
67	28
68	71
69	56
70	96
71	37
72	720
73	42
74	4
75	9
76	11
77	66
78	31
79	34
80	36
81	35
82	74
83	11
84	98
85	11
86	15
87	7
88	4
89	38
90	36
91	120
92	60
93	80
94	33
95	30
96	19
97	26
98	41
99	34
100	6
101	11
102	17
103	34
104	34
105	39
106	110
107	28
108	11
109	16
110	11
111	26
112	23
113	20
114	10
115	89
116	53
117	170
118	120
119	87
120	29
121	13
122	8
123	9
124	4
125	15
126	6
127	63
128	48
129	29
130	130
131	83
132	77
133	43
134	13
135	8
136	9
137	8
138	2
139	7
140	12
141	23
142	29
143	100
144	160
145	110
146	31
147	13
148	9
149	6
150	3
151	4
152	9
153	13
154	34
155	33
156	70
157	71
158	71
159	82
160	21
161	18
162	5
163	6
164	2
165	4
166	10
167	24
168	42
169	78
170	110
171	110
172	55
173	85
174	26
175	17
176	4
179	4
180	9
181	25
182	48
183	140
184	120
185	180
186	92
187	38
188	12
189	3
193	3
194	5
195	30
196	52
197	78
198	100
199	70
200	34
201	17
202	9
203	3
208	4
209	12
210	45
211	53
212	270
213	90
214	100
215	40
216	6
222	2
223	4
224	25
225	21
226	95
227	55
228	18
229	29
230	6
238	7
239	23
240	24
241	30
242	15
243	18
244	3
253	24
254	45
255	460
256	140
257	7
267	6
268	13
269	12
270	24
271	180
272	33
273	3
