Mass Spectrum: 2-Pentanol, 1-t-butylthio-
Formula: C9H20OS
CAS: 148925-70-6
Molecular weight: 176
m/z	intensity
26	2
27	90
28	6
29	221
30	5
31	43
33	0
34	0
35	1
36	0
37	0
38	1
39	54
40	6
41	281
42	14
43	71
44	8
45	19
46	7
47	25
48	20
49	22
50	1
51	2
52	0
53	9
54	4
55	182
56	162
57	999
58	75
59	30
60	16
61	12
62	1
63	2
64	0
65	0
67	9
68	84
69	75
70	4
71	13
72	13
73	218
74	10
75	13
76	2
77	7
78	0
79	0
80	0
81	1
82	0
83	1
84	0
85	1
86	31
87	20
88	5
89	18
90	2
91	2
92	0
94	0
95	0
97	0
99	0
100	0
101	12
102	27
103	64
104	181
105	22
106	7
107	0
109	2
110	0
111	1
115	1
116	0
117	0
118	9
119	32
120	11
121	4
122	0
123	0
124	0
127	0
128	0
129	22
130	1
131	0
132	2
133	23
134	2
135	1
143	3
144	0
145	1
146	0
147	0
148	0
158	8
159	1
160	0
161	5
162	0
163	0
175	0
176	362
177	36
178	16
179	1
180	0
