Mass Spectrum: 5H-Inden-5-one, 1,2,3,6,7,7a-hexahydro-
Formula: C9H12O
CAS: 1489-28-7
Molecular weight: 136
m/z	intensity
25	1
26	14
27	141
28	26
29	33
30	1
31	3
34	2
35	1
36	5
37	11
38	27
39	178
40	39
41	113
42	16
43	16
44	11
45	7
46	3
47	1
48	1
49	2
50	55
51	122
52	101
53	101
54	25
55	38
56	9
57	4
58	2
59	3
60	4
61	6
62	13
63	36
64	10
65	77
66	88
67	61
68	15
69	16
70	5
71	11
72	3
73	4
74	7
75	7
76	9
77	154
78	70
79	371
80	271
81	65
82	48
83	9
84	10
85	4
86	3
87	2
88	3
89	4
90	2
91	95
92	28
93	78
94	218
95	33
96	10
97	11
98	3
99	2
100	2
101	3
102	2
103	8
104	6
105	16
106	11
107	203
108	999
109	131
110	15
120	2
121	16
122	2
135	12
136	416
137	63
138	10
139	2
