Mass Spectrum: 1,3-Pentanediol, 2-methyl-
Formula: C6H14O2
CAS: 149-31-5
Molecular weight: 118
m/z	intensity
23	0
25	3
26	50
27	257
28	62
29	334
30	38
31	564
32	29
37	7
38	15
39	160
40	27
41	576
42	612
43	350
44	4
45	80
46	1
47	14
49	3
50	7
51	7
52	3
53	23
54	6
55	89
56	18
57	317
58	93
59	999
60	40
61	3
63	2
65	4
66	1
67	24
68	4
69	48
70	42
71	192
72	9
73	0
74	0
75	35
76	2
77	13
79	2
81	0
82	6
83	2
84	3
85	14
86	2
87	5
88	2
89	94
90	4
91	1
97	0
98	8
99	1
100	6
101	1
