Mass Spectrum: Patulin
Formula: C7H6O4
CAS: 149-29-1
Molecular weight: 154
m/z	intensity
27	561
28	307
29	361
37	72
38	144
39	153
41	162
42	135
43	371
44	135
45	54
50	63
51	126
52	199
53	678
54	434
55	932
56	162
57	27
61	49
66	81
69	298
70	162
71	217
80	99
81	81
82	533
83	217
84	180
97	280
98	144
99	54
108	90
109	9
110	999
111	117
112	63
125	194
126	574
127	58
136	235
137	122
154	547
155	63
