Mass Spectrum: (R)-Noradrenaline
Formula: C8H11NO3
CAS: 149-95-1
Molecular weight: 169
m/z	intensity
14	2
15	9
16	54
17	80
18	9
25	1
26	9
27	47
28	69
29	31
30	999
31	66
32	9
33	1
36	3
37	9
38	19
39	108
40	13
41	14
42	11
43	17
44	5
45	1
46	2
47	1
49	4
50	25
51	52
52	27
53	37
54	12
55	35
56	4
57	4
58	2
59	2
60	2
61	6
62	12
63	35
64	22
65	377
66	41
67	17
68	8
69	4
70	7
71	2
73	1
74	4
75	5
76	9
77	45
78	32
79	15
80	16
81	36
82	15
83	9
84	2
85	1
86	1
87	2
88	4
89	7
90	4
91	6
92	9
93	555
94	67
95	17
96	5
97	2
98	1
102	2
103	8
104	25
105	13
106	13
107	11
108	7
109	22
110	28
111	150
112	12
113	1
114	1
115	6
116	2
117	2
118	1
119	1
120	4
121	8
122	45
123	68
124	26
125	4
126	1
130	1
131	2
132	15
133	9
134	20
135	7
136	18
137	84
138	104
139	720
140	163
141	16
142	1
148	3
149	17
150	15
151	111
152	16
153	6
154	1
167	1
168	1
169	98
170	9
171	1
