Mass Spectrum: 3,8-Decanedione, 2,2,9,9-tetramethyl-
Formula: C14H26O2
CAS: 1490-36-4
Molecular weight: 226
m/z	intensity
41	370
42	50
43	300
44	30
55	130
56	50
57	999
58	50
59	50
67	40
68	10
69	120
70	20
81	80
82	20
83	50
84	20
85	180
86	20
96	30
98	20
100	10
101	10
102	20
107	20
109	150
110	20
113	80
114	20
123	999
124	100
126	40
127	40
128	30
141	40
151	90
152	10
169	280
170	30
193	8
194	5
198	8
199	4
211	10
212	2
226	50
227	8
