Mass Spectrum: 1,3,5-Triazaadamantane, 7-benzoyl-
Formula: C14H17N3O
CAS: 149034-77-5
Molecular weight: 243
m/z	intensity
33	41
34	14
36	3
37	8
38	15
39	77
40	233
41	109
42	999
43	57
44	81
45	35
46	4
47	2
48	2
50	33
51	85
52	23
53	23
54	18
55	36
56	13
57	17
58	25
59	11
60	37
61	8
62	8
63	15
64	16
65	21
66	15
67	16
68	48
69	60
70	22
71	20
72	4
73	3
74	7
75	12
76	27
77	200
78	29
79	7
80	29
81	30
82	39
83	66
84	14
85	7
86	1
87	2
88	2
89	4
90	5
91	22
92	8
93	7
94	11
95	11
96	10
97	13
98	6
99	2
100	1
101	2
102	9
103	10
104	26
105	172
106	19
107	5
108	3
109	32
110	10
111	12
112	3
113	0
114	0
115	11
116	4
117	9
118	4
119	13
120	21
121	4
122	5
123	2
124	3
125	1
126	0
127	1
128	3
129	13
130	18
131	30
132	6
133	2
134	4
135	3
136	15
137	20
138	50
139	5
140	0
141	0
142	0
143	2
144	7
145	9
146	7
147	29
148	5
149	4
150	0
151	0
152	0
154	0
155	0
156	3
157	1
158	4
159	5
160	3
161	3
162	5
163	123
164	115
165	17
166	5
167	0
168	0
169	0
170	1
171	2
172	21
173	6
174	41
175	5
176	0
177	0
178	0
181	0
183	0
184	4
185	3
186	10
187	8
188	64
189	8
190	0
192	0
196	0
198	2
199	1
200	5
201	5
202	1
203	0
213	2
214	12
215	55
216	8
217	0
228	0
229	0
235	0
241	0
243	93
244	14
245	1
