Mass Spectrum: 2-Propanethione, 1,1,1,3,3,3-hexafluoro-
Formula: C3F6S
CAS: 1490-33-1
Molecular weight: 182
m/z	intensity
12	41
19	9
24	5
31	225
32	122
38	9
43	7
44	103
45	3
46	5
47	4
48	5
50	56
51	5
55	4
56	12
62	5
63	486
64	21
65	22
69	553
70	6
74	6
75	18
76	142
77	2
81	10
82	65
83	2
84	3
93	32
94	151
95	9
96	7
97	20
100	26
112	13
113	999
114	28
115	45
119	7
131	16
132	121
133	5
134	5
145	5
147	7
150	11
163	177
164	10
165	8
166	1
181	16
182	468
183	17
184	21
