Mass Spectrum: 3,8-Decanedione, 2,9-dimethyl-
Formula: C12H22O2
CAS: 1490-37-5
Molecular weight: 198
m/z	intensity
41	220
42	30
43	950
44	20
55	100
56	10
57	40
58	10
67	70
68	20
69	80
70	20
71	500
72	20
82	20
84	10
86	20
87	50
88	10
95	150
99	10
100	10
109	999
110	80
112	170
113	70
127	30
128	20
137	80
138	10
155	110
156	10
180	20
181	20
198	100
199	20
