Mass Spectrum: Ethene-1,1-dicarbonitrile, 2-benzylamino-
Formula: C11H9N3
CAS: 14918-98-0
Molecular weight: 183
m/z	intensity
34	1
36	1
37	2
38	20
39	77
40	26
41	20
43	8
45	1
46	0
48	0
50	28
51	61
52	23
53	3
55	1
56	0
57	0
59	0
61	1
62	12
63	36
65	173
66	12
67	0
69	0
70	0
71	0
73	1
74	5
75	5
76	7
77	46
78	19
79	10
80	0
81	0
82	0
83	0
84	0
85	0
86	1
87	1
89	31
91	999
92	72
93	1
95	0
96	0
97	0
99	0
100	0
101	2
103	3
104	7
105	1
106	1
107	0
109	2
110	0
112	0
115	0
116	1
117	2
118	1
121	0
125	0
126	1
127	1
128	3
129	0
130	0
139	0
151	0
153	0
154	2
155	4
156	0
180	1
181	2
183	143
184	17
185	0
