Mass Spectrum: .beta.-d-Allopyranoside, methyl 6-deoxy-2-O-methyl-
Formula: C8H16O5
CAS: 14917-72-7
Molecular weight: 192
m/z	intensity
26	4
27	34
28	6
29	55
30	8
31	63
33	33
34	0
38	1
39	17
40	6
41	34
42	21
43	57
44	9
45	92
46	2
47	3
51	1
53	7
54	5
55	16
56	7
57	71
58	83
59	85
60	39
61	57
62	2
63	1
65	1
67	1
68	1
69	15
70	12
71	33
72	35
73	61
74	999
75	52
76	5
77	1
81	1
82	1
83	27
84	2
85	84
86	6
87	107
88	160
89	17
90	1
91	2
96	1
97	1
98	1
99	7
100	3
101	5
102	1
103	6
104	1
105	10
111	1
113	2
114	6
115	3
116	1
117	3
118	1
119	1
120	2
121	0
122	0
123	0
124	0
125	0
126	0
127	0
128	0
129	1
130	22
131	3
132	1
133	0
134	1
135	0
136	0
137	0
138	0
139	0
140	0
141	0
142	0
143	1
144	0
145	0
146	0
147	2
148	0
149	1
150	0
151	0
152	0
153	0
154	0
155	0
156	0
157	0
158	0
159	0
160	0
161	2
162	0
163	0
164	0
165	0
166	0
167	0
168	0
169	0
170	0
171	0
172	0
173	0
174	0
175	0
176	0
177	0
191	0
192	0
193	0
