Mass Spectrum: Oxazole-5-one, 2-phenyl-4-[2-fluoro-4,5-dimethoxybenzylidene]-
Formula: C18H14FNO4
CAS: 149156-23-0
Molecular weight: 327
m/z	intensity
41	0
42	0
43	1
44	1
45	1
46	0
47	1
48	0
49	7
50	20
51	64
52	4
53	2
55	0
56	1
57	7
58	0
59	0
61	1
62	3
63	4
64	2
65	1
66	0
67	0
68	1
69	3
70	1
71	0
72	1
73	1
74	5
75	10
76	0
77	377
78	24
79	1
80	1
81	8
82	4
83	5
84	5
85	0
86	3
87	1
88	2
89	3
90	1
91	5
92	1
93	4
94	16
95	3
96	8
97	2
98	0
99	1
100	5
101	1
102	2
103	8
105	999
106	10
107	11
108	24
109	5
110	1
111	0
112	0
113	0
114	0
115	0
116	0
117	1
118	0
119	2
120	4
121	20
122	9
123	4
124	6
125	1
126	0
127	0
128	0
130	1
131	1
132	4
133	11
134	3
135	2
136	0
137	3
138	0
139	1
140	0
141	0
144	0
145	0
147	0
148	10
149	17
150	13
151	5
152	1
155	0
157	0
158	0
160	0
161	0
162	0
164	9
165	1
166	0
169	3
170	0
176	2
177	1
178	4
179	1
180	1
181	0
182	0
183	0
184	0
185	0
186	0
188	0
192	0
194	44
195	5
196	0
197	0
208	0
209	0
221	0
222	0
224	0
238	0
240	0
252	0
253	0
255	0
265	0
266	0
267	0
268	0
270	0
282	0
283	0
309	16
310	3
311	0
312	0
325	0
327	409
328	95
329	14
330	1
