Mass Spectrum: Pregnan-20-one, 3-(acetyloxy)-, (3.alpha.,5.beta.)-
Formula: C23H36O3
CAS: 1491-77-6
Molecular weight: 360
m/z	intensity
40	9
41	197
42	31
43	999
44	22
45	63
46	0
50	7
51	8
52	6
53	60
54	16
55	208
56	25
57	26
58	12
59	2
60	43
61	6
62	0
63	3
64	1
65	26
66	14
67	217
68	44
69	73
70	6
71	168
72	9
73	1
74	2
75	1
76	1
77	92
78	29
79	243
80	50
81	272
82	25
83	47
84	135
85	94
86	12
87	2
88	0
89	1
90	1
91	193
92	45
93	260
94	110
95	246
96	24
97	30
98	5
99	4
100	3
101	0
102	2
103	7
104	10
105	205
106	84
107	225
108	168
109	131
110	14
111	14
112	1
113	2
114	0
115	9
116	6
117	37
118	24
119	119
120	88
121	183
122	61
123	42
124	8
125	5
126	0
127	2
128	4
129	12
130	7
131	67
132	55
133	120
134	67
135	102
136	26
137	22
138	5
139	2
140	0
141	4
142	3
143	20
144	10
145	90
146	37
147	144
148	44
149	64
150	14
151	7
152	1
153	1
154	1
155	4
156	2
157	23
158	11
159	79
160	40
161	106
162	44
163	36
164	7
165	4
166	0
167	0
168	0
169	5
170	2
171	21
172	18
173	64
174	33
175	62
176	27
177	16
178	5
179	3
180	0
181	0
182	1
183	3
184	1
185	21
186	14
187	41
188	29
189	25
190	33
191	28
192	12
193	3
194	0
195	1
196	0
197	7
198	2
199	21
200	13
201	60
202	20
203	37
204	26
205	10
206	3
207	1
208	0
209	0
210	0
211	9
212	5
213	34
214	18
215	258
216	70
217	55
218	17
219	3
220	1
221	0
222	0
223	0
224	0
225	9
226	5
227	32
228	20
229	62
230	185
231	46
232	8
233	2
234	0
235	0
236	0
237	0
238	0
239	4
240	7
241	12
242	94
243	32
244	17
245	23
246	79
247	14
248	1
249	0
250	1
251	0
252	0
253	14
254	7
255	52
256	48
257	87
258	38
259	17
260	3
261	1
262	0
263	0
264	0
265	2
266	0
267	34
268	7
269	2
270	0
271	7
272	5
273	1
274	0
275	2
276	0
277	0
280	0
281	1
282	51
283	14
284	4
285	125
286	27
287	3
288	1
289	0
290	8
291	1
292	0
298	1
299	2
300	513
301	124
302	20
303	2
304	0
313	0
314	2
315	1
316	2
317	1
318	0
319	0
325	0
326	0
327	1
328	0
329	0
342	31
343	8
344	1
345	2
346	0
358	0
359	0
360	6
361	1
362	0
