Mass Spectrum: 4-Amino-2-nitropyridine
Formula: C5H5N3O2
CAS: 14916-64-4
Molecular weight: 139
m/z	intensity
40	69
41	56
42	53
43	13
44	5
46	11
51	7
52	122
53	23
54	7
55	25
57	8
64	14
65	35
66	557
67	172
68	11
69	80
70	7
71	7
76	18
77	6
81	75
82	6
83	7
85	6
92	11
93	999
94	46
95	16
97	6
107	7
109	14
111	8
121	9
122	5
123	10
135	8
136	13
137	15
138	8
139	305
140	18
