Mass Spectrum: Nickel, tricarbonyl(triphenylphosphine)-, (T-4)-
Formula: C21H15NiO3P
CAS: 14917-13-6
Molecular weight: 404
m/z	intensity
26	17
27	5
28	999
29	6
30	4
36	0
39	21
41	6
42	1
43	1
44	4
49	1
50	14
51	27
52	17
53	2
54	5
55	2
56	1
57	11
60	1
61	0
62	0
63	6
64	4
65	8
66	1
67	6
68	1
69	1
71	1
73	0
74	2
75	3
76	18
77	32
78	90
79	5
80	1
81	3
82	5
83	5
86	1
88	1
89	5
91	7
92	2
93	1
96	0
101	1
102	8
103	4
104	1
105	0
106	3
107	84
108	256
109	21
110	1
113	1
114	2
115	24
116	3
117	0
120	2
125	1
126	6
127	7
128	13
129	4
130	1
131	11
132	1
133	19
134	2
135	0
136	1
138	1
139	12
140	1
141	10
142	1
144	1
145	1
146	2
147	1
149	1
150	4
151	14
152	91
153	62
154	176
155	20
156	2
157	23
158	2
159	3
160	1
165	4
166	7
167	1
168	2
169	1
170	19
171	3
174	0
179	1
180	2
181	8
182	9
183	514
184	110
185	53
186	8
187	1
191	0
200	0
202	1
203	1
207	0
212	1
215	1
216	1
226	2
227	1
228	3
229	2
230	5
231	2
233	2
241	4
242	11
243	3
244	4
245	0
246	1
257	5
258	1
259	4
260	12
261	104
262	754
263	146
264	14
265	0
277	1
319	1
320	33
321	7
322	14
323	3
324	3
325	1
326	1
348	16
349	2
350	5
351	1
352	1
355	1
376	4
377	0
378	1
379	0
404	1
406	0
