Mass Spectrum: Heptane, 2,3-epoxy-
Formula: C7H14O
CAS: 14925-96-3
Molecular weight: 114
m/z	intensity
26	70
27	650
28	560
29	640
30	20
31	60
32	50
38	20
39	400
40	70
41	790
42	960
43	900
44	290
45	999
46	30
47	10
50	10
51	20
52	20
53	90
54	60
55	860
56	130
57	740
58	160
59	70
65	10
67	60
68	130
69	110
70	170
71	550
72	250
73	30
77	10
79	10
81	100
82	20
83	10
85	860
86	50
96	30
97	10
98	30
99	190
114	70
