Mass Spectrum: L-Leucine, N-acetyl-, methyl ester
Formula: C9H17NO3
CAS: 1492-11-1
Molecular weight: 187
m/z	intensity
27	50
28	130
29	27
30	305
31	19
32	11
33	19
39	27
40	8
41	100
42	72
43	491
44	244
45	11
53	11
55	27
56	19
57	41
58	8
59	19
60	27
67	8
68	19
69	19
70	61
71	19
72	11
73	11
74	11
81	11
84	19
85	27
86	999
87	61
88	213
89	41
96	11
97	11
98	111
99	11
101	27
112	27
113	19
128	583
129	33
130	19
131	102
144	11
187	2
