Mass Spectrum: 2-Nonanol, acetate
Formula: C11H22O2
CAS: 14936-66-4
Molecular weight: 186
m/z	intensity
27	21
29	41
39	41
40	9
41	160
42	84
43	999
44	29
45	27
54	16
55	197
56	183
57	100
58	98
59	45
61	51
67	25
68	19
69	142
70	149
71	78
72	8
82	42
83	85
84	110
85	36
86	8
87	382
88	17
96	14
97	107
98	52
99	8
100	4
102	44
111	32
126	117
127	24
130	4
143	9
171	1
