Mass Spectrum: 4,5-Dichloro-9-anthroic acid
Formula: C15H8Cl2O2
CAS: 14935-28-5
Molecular weight: 290
m/z	intensity
44	171
45	34
48	29
49	28
50	142
51	143
60	98
61	14
62	197
63	164
64	13
73	34
74	367
75	119
76	30
77	27
79	34
84	35
85	20
86	35
87	999
92	29
93	12
95	29
96	66
97	18
98	303
99	383
100	259
105	568
106	24
109	41
110	156
111	42
112	21
113	98
114	19
115	11
117	35
119	17
120	10
122	197
123	175
124	45
125	40
127	192
128	21
131	110
132	26
133	27
135	72
136	14
137	24
145	56
146	63
148	12
149	176
150	45
159	38
161	68
162	56
163	199
164	57
174	608
175	310
176	170
177	11
184	28
196	11
197	30
198	17
199	277
201	136
209	12
210	761
211	148
212	251
213	39
219	49
220	34
227	147
228	26
229	71
233	50
243	16
244	225
246	126
247	74
248	63
249	27
254	38
255	18
256	11
264	22
272	125
273	275
274	76
275	302
276	40
277	45
290	824
291	155
292	724
293	220
294	63
295	14
