Mass Spectrum: N-(4-Methylphenyl)-benzenesulfenamide
Formula: C13H13NS
CAS: 14933-93-8
Molecular weight: 215
m/z	intensity
77	251
91	30
106	999
107	269
109	90
110	119
124	10
182	30
214	19
215	458
