Mass Spectrum: 24-Oxa[14]cytochalasa-6(12),13,21-triene-1,23-dione, 7,20-dihydroxy-16-methyl-10-phenyl-, (7S,13E,16R,20R,21E)-
Formula: C29H37NO5
CAS: 14930-96-2
Molecular weight: 479
m/z	intensity
39	24
41	140
42	24
43	60
44	20
45	10
51	14
53	70
54	14
55	220
56	36
57	44
58	8
65	58
66	26
67	138
68	30
69	58
70	38
71	22
72	6
73	26
77	86
78	36
79	210
80	42
81	192
82	56
83	98
84	48
85	20
86	12
89	20
90	14
91	999
92	126
93	148
94	56
95	100
96	76
97	36
98	26
99	46
100	18
101	26
102	6
103	48
104	36
105	196
106	88
107	160
108	78
109	58
110	56
111	124
112	30
116	54
117	60
118	124
119	56
120	150
121	118
122	58
123	36
124	56
125	22
126	6
127	32
128	94
129	96
130	54
131	100
132	56
133	136
134	170
135	112
136	54
137	32
138	24
139	8
141	52
142	36
143	80
144	54
145	166
146	88
147	116
148	104
149	50
150	48
151	32
152	46
153	28
154	28
155	72
156	32
157	72
158	54
159	192
160	128
161	172
162	120
163	56
164	78
165	44
166	50
167	30
168	14
169	44
170	40
171	74
172	156
173	116
174	270
175	116
176	208
177	86
178	164
179	64
180	20
181	24
182	20
183	46
184	56
185	80
186	150
187	132
188	114
189	104
190	228
191	46
192	60
193	24
194	12
195	30
196	44
197	42
198	96
199	80
200	160
201	46
202	62
203	32
204	146
205	56
206	36
207	22
208	28
209	36
210	36
211	36
212	40
213	36
214	44
215	26
216	80
217	36
218	84
219	32
220	24
221	32
222	6
223	14
224	36
225	26
226	76
227	44
228	50
229	12
230	36
231	16
232	16
233	14
234	14
235	8
236	28
237	34
238	34
239	34
240	56
241	56
242	54
243	20
244	38
245	20
246	26
247	30
248	26
249	22
250	30
251	26
252	46
253	32
254	50
255	30
256	40
257	20
258	20
259	14
260	28
261	20
262	20
263	56
264	54
265	48
266	44
267	28
268	56
269	36
270	66
271	16
272	26
273	14
274	14
275	14
276	36
277	54
278	84
279	58
280	44
281	18
282	22
283	8
284	32
285	10
286	10
287	8
288	24
289	18
290	56
291	52
292	52
293	32
294	150
295	58
296	36
297	24
298	16
302	18
303	14
304	14
305	8
306	98
307	38
308	56
309	36
310	54
311	24
312	6
314	12
315	8
316	36
317	24
318	34
319	28
320	10
321	8
322	8
323	8
324	164
325	54
326	32
327	12
328	12
330	16
331	14
332	36
333	20
334	192
335	78
336	28
337	24
341	10
342	52
343	16
344	26
345	24
346	14
347	10
348	14
349	10
350	12
351	12
352	340
353	136
354	34
355	20
356	16
358	14
360	32
361	20
362	16
363	20
364	10
368	8
369	12
370	859
371	200
372	96
373	16
374	12
376	12
378	100
379	24
380	6
382	16
383	16
384	16
385	12
386	32
387	16
388	695
389	174
390	44
394	14
396	62
397	36
398	18
399	12
400	8
410	4
425	60
426	28
428	20
443	140
444	66
445	24
461	613
462	192
463	56
464	16
479	238
480	84
481	26
