Mass Spectrum: Phosphonic difluoride
Formula: F2HOP
CAS: 14939-34-5
Molecular weight: 86
m/z	intensity
31	30
47	180
50	40
66	250
67	210
69	480
85	260
86	999
