Mass Spectrum: 2-Undecanol, acetate
Formula: C13H26O2
CAS: 14936-67-5
Molecular weight: 214
m/z	intensity
26	1
27	18
28	4
29	43
30	1
31	1
38	1
39	33
40	8
41	189
42	75
43	999
44	30
45	27
46	1
51	1
52	1
53	18
54	29
55	272
56	231
57	200
58	121
59	56
60	3
61	66
62	2
65	4
66	4
67	47
68	44
69	265
70	272
71	102
72	10
73	1
79	4
80	1
81	19
82	67
83	175
84	134
85	46
86	6
87	483
88	21
89	3
95	5
96	42
97	170
98	72
99	6
100	3
101	1
102	57
109	2
110	33
111	124
112	79
113	7
114	4
115	5
116	1
123	1
124	8
125	64
126	55
127	12
130	7
139	7
140	1
142	1
152	2
153	1
154	122
155	21
156	1
157	1
170	9
171	9
172	1
199	1
