Mass Spectrum: Schizozygine, 14-deoxotetrahydro-N,N-dimethyl-
Formula: C22H30N2O2
CAS: 14937-07-6
Molecular weight: 354
m/z	intensity
53	34
55	69
56	62
57	76
58	999
59	34
65	17
67	41
68	17
69	17
70	17
71	27
77	34
78	17
79	27
80	17
81	17
82	52
83	17
84	41
85	17
86	34
91	17
94	17
96	86
97	17
98	34
102	27
103	27
110	41
112	27
115	34
124	27
125	17
126	191
127	27
128	17
140	17
141	27
142	41
154	27
155	17
156	27
162	34
163	27
174	41
177	34
186	17
187	34
188	27
200	69
201	27
212	27
213	27
214	34
225	27
226	17
227	86
228	34
229	10
237	17
238	27
239	17
240	17
241	10
252	34
253	27
254	17
255	10
266	138
267	52
268	41
269	17
280	52
281	27
282	27
294	17
295	10
296	270
297	62
298	10
308	17
309	138
310	34
311	17
354	277
355	69
356	10
