Mass Spectrum: 5.beta.-Cholest-24-en-12-one
Formula: C27H44O
CAS: 14949-29-2
Molecular weight: 384
m/z	intensity
41	999
42	60
43	232
44	10
50	10
51	20
52	10
53	191
54	80
55	878
56	70
57	70
65	40
66	30
67	595
68	111
69	969
70	70
71	20
77	111
78	30
79	303
80	70
81	767
82	555
83	242
84	40
85	10
91	202
92	50
93	313
94	121
95	494
96	101
97	70
98	10
105	161
106	60
107	282
108	131
109	545
110	121
111	50
115	10
117	20
118	10
119	111
120	60
121	262
122	90
123	181
124	40
125	20
129	10
130	10
131	40
132	10
133	90
134	50
135	161
136	50
137	70
138	20
139	30
143	10
145	60
146	10
147	111
148	121
149	272
150	50
151	50
152	10
157	10
159	40
160	10
161	101
162	151
163	80
164	20
165	10
173	40
174	10
175	50
176	20
177	30
187	30
188	20
189	60
190	10
191	20
201	40
202	20
203	40
205	20
206	70
207	10
215	60
216	40
217	20
218	10
219	161
220	50
221	10
227	10
229	20
230	10
231	40
232	20
233	484
234	90
235	10
241	10
242	30
243	40
244	10
245	10
246	60
247	10
254	10
255	60
256	30
257	80
258	20
259	222
260	50
269	20
270	10
271	60
272	10
273	161
274	30
275	10
281	30
283	40
284	90
285	50
286	10
287	10
295	10
297	30
299	30
300	20
301	50
302	141
303	30
309	10
311	10
312	10
313	10
314	20
315	40
316	20
323	10
326	10
328	10
340	10
341	40
342	10
351	101
352	30
366	121
367	40
368	10
369	60
370	20
382	10
384	656
385	191
386	40
