Mass Spectrum: 1(2H)-Naphthalenone, 3,4-dihydro-3-phenyl-
Formula: C16H14O
CAS: 14944-26-4
Molecular weight: 222
m/z	intensity
27	3
28	2
38	2
39	17
40	2
41	2
43	1
50	8
51	22
52	4
53	1
62	5
63	23
64	9
65	14
66	1
69	1
74	4
75	7
76	9
77	32
78	9
79	1
81	1
82	3
83	2
86	1
87	3
88	4
89	70
90	244
91	55
92	6
94	3
95	2
96	1
98	1
101	2
102	7
103	23
104	12
105	6
110	1
111	10
113	1
114	1
115	35
116	11
117	5
118	999
119	88
120	6
126	1
127	3
128	3
130	3
131	37
132	3
139	3
143	1
144	13
145	10
146	1
150	1
151	3
152	8
153	2
163	2
164	2
165	11
166	2
176	5
177	4
178	24
179	12
180	4
187	1
188	1
189	9
190	3
191	8
192	4
193	4
194	2
202	3
203	4
204	4
205	3
207	14
208	2
220	1
221	9
222	359
223	62
224	6
