Mass Spectrum: Cyclopentane, cyclopropylidene-
Formula: C8H12
CAS: 14949-48-5
Molecular weight: 108
m/z	intensity
26	0
27	398
28	68
29	89
30	2
31	6
33	1
34	3
36	2
37	34
38	90
39	790
40	205
41	542
42	58
43	16
44	6
46	3
47	1
48	3
49	13
50	118
51	250
52	180
53	228
54	149
55	43
56	9
57	1
58	5
59	3
60	5
61	15
62	45
63	92
64	21
65	240
66	339
67	678
68	269
69	29
70	2
72	0
73	7
74	19
75	18
76	11
77	507
78	157
79	999
80	356
81	41
82	5
83	1
84	2
85	1
86	1
87	2
88	0
89	13
90	9
91	430
92	63
93	910
94	83
95	10
96	5
97	2
98	1
102	2
103	7
104	1
105	24
106	6
107	60
108	248
109	26
110	1
