Mass Spectrum: Guanidine, cyclohexyl-
Formula: C7H15N3
CAS: 14948-83-5
Molecular weight: 141
m/z	intensity
17	20
18	200
26	20
27	60
28	80
29	40
30	100
41	130
42	60
43	540
44	100
45	80
53	30
54	50
55	100
56	460
57	30
59	320
60	999
61	20
67	60
68	20
69	30
70	70
71	20
81	60
82	30
83	20
84	60
85	60
86	60
98	360
99	100
112	60
113	30
124	20
126	40
139	20
140	30
141	290
142	30
