Mass Spectrum: Ethyl 5,8-dihydroxy-1,3-dimethylisoquinoline-4-carboxylate
Formula: C14H15NO4
CAS: 14949-37-2
Molecular weight: 261
m/z	intensity
41	50
42	142
43	296
44	482
45	999
46	408
47	27
49	26
50	38
51	76
52	41
53	55
54	34
55	32
57	19
60	31
61	40
62	111
63	169
64	70
65	35
66	27
67	19
69	46
70	6
71	25
73	10
74	12
75	22
76	24
77	75
78	40
79	47
80	31
82	18
84	4
85	9
86	12
87	19
88	24
89	66
90	60
91	123
92	29
93	20
102	17
103	41
104	35
105	44
106	10
107	42
108	32
115	10
116	20
117	14
118	25
119	5
129	5
130	40
131	53
132	57
133	101
134	22
140	19
143	6
145	4
146	36
148	10
149	16
158	19
159	58
160	19
161	11
163	6
172	41
173	5
175	22
176	5
177	29
185	20
186	308
187	110
188	7
189	72
190	25
213	85
214	189
215	638
216	98
217	26
261	21
262	4
