Mass Spectrum: 3-Azabicyclo[3.3.1]nonan-9.alpha.-ol, 3,9-dimethyl-
Formula: C10H19NO
CAS: 14948-72-2
Molecular weight: 169
m/z	intensity
39	127
41	212
42	309
43	454
44	999
45	54
55	115
57	227
58	369
67	90
68	90
70	75
71	212
74	187
84	106
108	218
109	136
136	145
150	66
168	196
169	212
