Mass Spectrum: 1(2H)-Naphthalenone, 3,4-dihydro-3-methyl-
Formula: C11H12O
CAS: 14944-23-1
Molecular weight: 160
m/z	intensity
13	1
14	16
15	23
16	4
17	3
18	12
26	8
27	39
28	95
29	9
37	5
38	17
39	90
40	13
41	25
42	9
43	6
44	2
45	3
49	2
50	35
51	66
52	11
53	13
54	1
55	4
56	1
57	9
58	10
59	3
61	6
62	26
63	79
64	36
65	38
66	6
67	1
69	13
70	2
71	4
72	3
73	2
74	16
75	17
76	15
77	46
78	12
79	6
85	3
86	6
87	9
88	9
89	133
90	421
91	152
92	11
97	2
98	6
99	3
101	8
102	25
103	34
104	11
105	13
106	1
107	2
109	1
110	2
111	1
113	6
114	9
115	151
116	49
117	96
118	999
119	88
120	6
122	4
126	4
127	20
128	34
129	21
130	11
131	56
132	19
133	3
141	10
142	81
143	28
144	10
145	393
146	44
147	3
157	2
158	4
159	49
160	533
161	63
162	4
