Mass Spectrum: Imidazole-4-carboxylic acid, 2-amino-, ethyl ester
Formula: C6H9N3O2
CAS: 149520-94-5
Molecular weight: 155
m/z	intensity
43	209
44	19
45	18
51	3
53	61
54	103
55	176
56	173
57	16
59	2
63	2
65	2
67	3
68	2
69	6
70	17
71	8
79	63
80	186
81	313
82	194
83	36
84	3
86	9
98	14
99	31
108	16
109	999
110	216
111	21
112	3
126	16
127	24
140	5
154	3
155	502
156	43
157	2
