Mass Spectrum: 1,2,3,4-Tetrahydro-3-methyl-9H-carbazol-1-one
Formula: C13H13NO
CAS: 14961-29-6
Molecular weight: 199
m/z	intensity
37	4
38	8
39	38
40	14
41	31
42	16
43	30
44	4
50	37
51	88
52	31
53	8
54	2
55	9
56	3
57	8
58	2
60	1
61	5
62	15
63	53
64	34
65	35
67	5
69	6
70	4
71	6
72	4
73	3
74	26
75	46
76	54
77	154
78	31
79	4
81	6
83	11
84	5
85	5
86	5
87	8
88	9
89	30
90	19
91	6
92	20
93	2
95	4
96	2
97	4
98	6
99	9
100	14
101	82
102	161
103	47
104	7
105	3
109	4
110	2
111	4
113	8
114	9
115	27
116	14
117	14
125	3
126	14
127	63
128	204
129	999
130	230
131	21
132	1
138	2
139	10
140	12
141	9
142	7
143	43
144	60
145	4
151	4
152	10
153	10
154	66
155	34
156	274
157	275
158	50
159	3
164	3
166	11
167	28
168	21
169	6
170	68
171	108
172	14
173	1
178	5
179	3
180	34
181	34
182	14
183	10
184	50
185	5
197	4
198	44
199	691
200	108
201	8
