Mass Spectrum: Aziridine, 1-(methoxymethyl)-
Formula: C4H9NO
CAS: 1497-83-2
Molecular weight: 87
m/z	intensity
15	245
17	87
27	140
28	181
29	298
30	64
31	178
32	23
42	921
43	122
44	59
45	999
56	315
57	389
86	66
87	87
