Mass Spectrum: Manganese, tetracarbonyl(N,N-dimethyl-.beta.-alanyl)-
Formula: C9H10MnNO5
CAS: 14971-49-4
Molecular weight: 267
m/z	intensity
42	750
44	708
55	354
56	612
58	999
68	50
70	295
71	750
72	625
73	325
83	41
99	416
111	20
127	216
128	66
150	62
155	70
163	16
167	16
168	16
183	50
195	25
196	12
211	62
239	95
267	29
