Mass Spectrum: Leucine, N-(N-carboxy-l-leucyl)-, N-benzyl p-nitrobenzyl ester, d-
Formula: C27H35N3O7
CAS: 14978-78-0
Molecular weight: 513
m/z	intensity
27	56
28	53
29	37
30	115
31	8
38	9
39	55
40	10
41	99
42	32
43	314
44	94
50	24
51	60
52	20
53	22
55	58
56	20
57	33
62	9
63	29
64	14
65	58
67	13
68	16
69	116
70	79
71	9
74	48
77	107
78	114
79	167
80	20
82	10
83	34
84	26
85	10
86	304
87	23
88	12
89	94
90	126
91	999
92	127
93	7
95	8
96	16
97	25
98	8
100	31
105	27
106	96
107	126
108	144
109	12
110	12
112	53
113	29
120	18
121	10
126	19
130	84
132	11
136	203
137	93
141	46
149	4
156	42
157	237
158	27
160	5
165	3
167	8
168	19
169	27
170	6
174	4
176	682
177	104
178	8
181	9
183	48
184	6
185	19
190	3
196	11
197	15
204	4
209	26
210	3
213	29
214	6
220	262
221	59
222	7
223	8
224	8
225	456
226	80
227	10
233	8
248	15
253	3
260	4
265	25
266	20
267	7
271	9
276	3
293	5
322	3
333	5
349	74
350	15
362	5
390	6
405	4
457	10
458	2
498	2
