Mass Spectrum: 4-(4-Tolyl)-2-oxo-1-phenacylamino-1,2-dihydropyrimidine
Formula: C18H15N3O2
CAS: 149875-57-0
Molecular weight: 305
m/z	intensity
12	3
14	1
15	2
16	5
17	8
18	21
26	8
27	27
28	20
29	14
30	1
31	2
37	4
38	9
39	51
40	10
41	17
42	19
43	15
44	27
45	6
46	1
49	2
50	57
51	182
52	28
53	9
54	6
55	11
56	6
57	8
58	1
59	1
60	4
61	3
62	14
63	44
64	20
65	71
66	9
67	5
68	4
69	15
70	3
71	4
73	5
74	15
75	24
76	40
77	647
78	54
79	8
80	8
81	3
82	2
83	4
84	2
85	2
86	2
87	4
88	7
89	51
90	32
91	73
92	10
93	2
94	1
95	3
96	1
97	2
98	1
99	2
100	2
101	13
102	16
103	39
104	16
105	999
106	80
107	5
109	1
110	1
111	2
112	1
113	4
114	8
115	52
116	42
117	29
118	14
119	6
121	12
122	22
123	2
125	1
126	2
127	11
128	35
129	19
130	22
131	7
132	4
133	1
139	1
140	8
141	13
142	22
143	10
144	4
145	5
146	4
147	1
154	1
155	10
156	29
157	15
158	34
159	4
160	1
167	1
168	1
169	1
170	3
171	6
172	1
173	1
182	2
184	475
185	224
186	41
187	4
199	3
200	3
201	1
205	0
233	1
234	2
235	0
261	3
262	9
263	5
264	1
290	3
291	0
303	1
304	14
305	45
306	9
307	1
