Mass Spectrum: 4-(4-Methylphenyl)-1-(benzoylmethyl-2(1H)-pyrimidinone
Formula: C19H16N2O2
CAS: 149875-62-7
Molecular weight: 304
m/z	intensity
12	3
13	1
14	3
15	5
16	11
17	40
18	116
25	1
26	9
27	54
28	72
29	10
30	4
31	1
32	3
35	1
36	5
37	2
38	10
39	59
40	19
41	55
42	14
43	15
44	37
45	3
48	1
49	1
50	40
51	147
52	32
53	21
54	12
55	15
56	72
57	13
58	2
59	1
60	3
61	3
62	9
63	35
64	15
65	87
66	8
67	3
68	2
69	6
70	5
71	6
72	1
73	4
74	10
75	15
76	23
77	373
78	49
79	15
80	6
81	3
82	12
83	28
84	4
85	4
86	2
87	5
88	5
89	51
90	29
91	100
92	10
93	2
95	1
96	1
97	3
98	3
99	2
100	1
101	13
102	14
103	16
105	999
106	84
107	7
108	1
109	1
111	3
112	3
113	5
114	8
115	102
116	52
117	32
118	56
119	13
120	48
121	5
122	1
125	2
126	4
127	38
128	72
129	92
130	22
131	4
132	3
133	1
135	3
138	1
139	1
140	15
141	12
142	58
143	31
144	15
145	3
146	2
149	0
152	2
153	1
154	4
155	11
156	59
157	16
158	4
159	2
165	1
166	1
167	1
168	2
169	28
170	591
171	110
172	16
173	2
181	1
182	1
183	7
184	14
185	68
186	10
187	3
189	0
195	0
196	0
197	4
198	20
199	301
200	41
201	3
202	0
203	0
204	0
205	0
207	0
211	0
212	1
213	1
215	1
217	1
219	0
227	3
228	1
242	0
247	0
256	0
258	1
259	1
260	1
261	1
262	8
263	1
264	0
273	0
275	30
276	83
277	17
278	1
283	0
284	0
285	1
286	0
287	2
288	0
289	6
290	1
301	0
302	1
303	28
304	288
305	59
306	7
307	0
