Mass Spectrum: 4-(4-Methoxyphenyl)-2-oxo-1-phenacylamino-1,2-dihydropyrimidine
Formula: C18H15N3O3
CAS: 149875-59-2
Molecular weight: 321
m/z	intensity
12	3
14	3
15	29
16	12
17	21
18	38
26	10
27	21
28	26
29	19
30	3
31	3
36	1
37	10
38	19
39	47
40	15
41	14
42	11
43	14
44	34
45	3
49	5
50	77
51	195
52	33
53	12
54	7
55	9
56	5
57	5
58	2
60	2
61	6
62	21
63	67
64	47
65	24
66	7
67	5
68	7
69	12
70	2
71	2
73	5
74	23
75	33
76	63
77	597
78	61
79	12
80	6
81	2
82	2
83	3
84	2
85	2
86	3
87	6
88	11
89	56
90	45
91	26
92	29
93	5
94	3
95	6
96	1
97	2
98	2
99	3
100	4
101	15
102	43
103	47
104	33
105	999
106	87
107	15
108	5
109	2
111	2
112	2
113	2
114	11
115	16
116	40
117	31
118	15
119	14
120	3
121	52
122	6
126	2
127	4
128	11
129	16
130	17
131	22
132	19
133	30
134	18
135	11
136	2
139	2
140	1
141	4
142	5
143	12
144	16
145	16
146	15
147	10
148	4
149	1
152	1
153	1
155	1
156	4
157	6
158	63
159	33
160	12
161	4
162	3
167	0
169	1
170	5
171	12
172	25
173	17
174	32
175	5
176	1
181	0
184	1
185	4
186	13
187	22
188	4
189	1
190	0
197	0
198	2
200	557
201	212
202	89
203	11
204	1
214	1
215	2
216	4
217	2
221	0
225	0
234	0
244	0
249	1
250	1
263	0
276	0
277	3
278	26
279	7
280	1
290	0
291	0
292	0
293	0
304	0
305	0
306	0
318	0
320	14
321	55
322	11
323	1
324	0
