Mass Spectrum: 2-[Bis(2-pyridinylmethyl)amino]ethanol
Formula: C14H17N3O
CAS: 149860-22-0
Molecular weight: 243
m/z	intensity
29	24
30	16
31	21
36	2
37	4
38	22
39	267
40	37
41	54
42	109
43	19
44	271
45	39
46	1
50	22
51	82
52	65
53	36
54	12
55	1
56	8
58	5
59	3
62	4
63	28
64	33
65	482
66	126
67	29
68	2
72	13
73	7
74	1
75	1
76	3
77	8
78	72
79	26
80	48
81	2
85	1
86	1
90	3
92	606
93	999
94	139
95	7
99	6
104	5
105	14
106	89
107	28
108	78
109	5
116	1
117	6
118	7
119	342
120	50
121	120
122	11
130	1
131	8
132	2
133	232
134	41
135	7
136	1
141	1
142	1
143	1
144	1
147	3
149	2
151	868
152	85
153	5
154	3
155	1
156	2
163	1
165	9
166	1
167	1
168	6
169	28
170	6
171	35
172	7
181	8
182	3
183	33
184	6
185	1
195	9
196	3
198	4
210	13
211	1
212	77
213	11
225	3
243	10
244	10
245	1
