Mass Spectrum: Ethyl dichlorophosphite
Formula: C2H5Cl2OP
CAS: 1498-42-6
Molecular weight: 146
m/z	intensity
12	1
13	3
14	13
15	37
16	2
25	7
26	73
27	356
28	140
29	542
30	16
31	20
32	7
33	5
35	24
36	44
37	8
38	16
39	1
40	1
41	3
42	10
43	57
44	10
45	30
46	3
47	172
48	32
49	13
50	1
51	4
55	2
56	1
57	1
59	1
60	2
61	3
62	7
63	16
64	39
65	66
66	99
67	9
68	33
69	4
70	2
74	6
75	5
76	14
77	7
78	1
79	2
80	2
81	9
82	32
83	704
84	9
85	219
86	1
87	1
91	4
92	12
93	21
94	10
95	9
96	29
97	2
98	10
99	3
100	9
101	231
102	8
103	161
104	3
105	30
107	1
108	1
109	10
110	21
111	463
112	18
113	138
114	4
115	1
116	2
117	14
118	999
119	15
120	637
121	6
122	108
123	4
124	1
125	1
127	2
128	4
129	4
130	1
131	28
132	1
133	17
134	1
135	3
142	2
144	1
145	16
146	113
147	11
148	74
149	4
150	11
