Mass Spectrum: Azinobis(2-norbornane)
Formula: C14H20N2
CAS: 149932-28-5
Molecular weight: 216
m/z	intensity
30	51
31	2
32	7
36	0
37	2
38	9
39	246
40	57
41	568
42	158
43	591
44	44
45	2
50	7
51	34
52	44
53	274
54	145
55	75
56	29
57	14
58	19
59	3
60	0
61	3
62	0
63	9
64	6
65	76
66	134
67	999
68	120
69	41
70	7
71	3
73	0
75	1
76	2
77	73
78	23
79	136
80	204
81	459
82	77
83	19
84	2
85	1
86	0
87	0
89	0
90	1
91	87
92	76
93	47
94	78
95	41
96	9
97	4
98	1
101	0
103	0
104	2
105	5
106	21
107	38
108	373
109	110
110	84
111	7
115	1
117	1
118	2
119	9
120	13
121	8
122	21
123	10
124	23
125	2
126	0
128	0
131	2
132	2
133	13
134	5
135	12
136	13
137	9
138	0
143	0
144	0
145	2
146	2
147	12
148	32
149	15
150	21
151	2
157	0
158	0
159	8
160	38
161	13
162	7
163	3
164	8
165	3
173	6
174	4
175	19
176	12
177	1
185	0
186	2
187	30
188	508
189	72
190	4
201	47
202	6
214	1
215	24
216	337
217	52
218	3
