Mass Spectrum: L-Histidine, N-[(phenylmethoxy)carbonyl]-
Formula: C14H15N3O4
CAS: 14997-58-1
Molecular weight: 289
m/z	intensity
12	5
14	1
15	5
16	16
17	3
18	10
25	2
26	22
27	68
28	113
29	37
30	7
31	31
32	4
36	3
37	20
38	34
39	132
40	24
41	30
42	11
43	9
44	389
45	8
46	2
48	1
49	10
50	89
51	205
52	72
53	69
54	82
55	34
56	7
57	6
58	1
60	3
61	9
62	23
63	56
64	15
65	107
66	18
67	6
68	6
69	7
70	1
71	2
73	8
74	26
75	14
76	13
77	484
78	108
79	999
80	112
81	529
82	215
83	19
84	2
85	3
86	4
87	4
88	1
89	67
90	84
91	506
92	53
93	11
94	25
95	9
96	2
97	2
103	1
105	38
106	13
107	617
108	859
109	159
110	62
111	5
115	2
117	1
118	2
119	1
120	8
121	5
122	4
123	1
129	1
135	14
136	23
137	26
138	46
139	5
140	6
141	1
152	1
154	9
155	1
162	1
163	2
165	2
166	1
167	3
168	1
169	1
170	1
171	79
172	17
173	1
178	1
179	2
180	6
181	22
182	4
183	4
184	5
185	1
197	1
198	4
199	6
200	10
201	2
210	1
226	6
227	1
228	6
229	1
244	6
245	3
271	2
289	4
