Mass Spectrum: 17a-Methyl-3.beta.-methoxy-17a-aza-D-homoandrost-5-ene-17-one
Formula: C21H33NO2
CAS: 149942-10-9
Molecular weight: 331
m/z	intensity
41	999
43	475
44	205
45	186
46	17
47	20
49	13
50	11
51	50
52	36
53	227
54	80
55	886
56	773
57	226
58	235
59	67
60	19
61	22
63	18
64	12
65	140
66	60
67	246
68	177
69	143
70	146
71	661
72	84
73	83
74	18
77	279
78	71
79	341
80	89
81	238
82	165
83	48
84	332
85	85
86	62
87	61
88	10
89	26
91	429
92	64
93	175
94	120
95	146
96	128
97	82
98	191
99	40
100	21
101	15
102	20
103	56
104	35
105	216
106	64
107	142
108	139
109	120
110	162
111	76
112	115
113	33
114	23
115	122
116	42
117	104
118	38
119	119
120	61
121	86
122	104
123	88
124	246
125	174
126	84
127	50
128	109
129	112
130	40
131	77
132	36
133	74
134	79
135	79
136	79
137	57
138	145
139	36
140	49
141	91
142	71
143	92
144	36
145	77
146	36
147	51
148	44
149	84
150	84
151	47
152	59
153	43
154	33
155	51
156	26
157	98
158	41
159	54
160	34
161	60
162	82
163	60
164	154
165	64
166	55
167	44
168	22
169	27
170	21
171	32
172	24
173	44
174	37
175	27
176	34
177	25
178	88
179	140
180	71
181	35
182	34
183	27
184	23
185	26
186	20
187	25
188	29
189	22
190	42
191	17
192	27
193	18
194	20
195	29
196	24
197	25
198	17
199	23
200	17
201	15
202	16
203	10
204	21
205	12
206	25
207	17
208	19
209	25
210	17
211	23
212	20
213	18
214	17
215	13
216	14
218	11
220	20
221	10
222	14
223	15
224	18
225	22
226	20
227	17
228	20
229	11
230	12
238	12
239	12
240	15
241	12
242	18
243	10
244	16
246	10
250	15
251	11
254	12
256	17
257	10
258	11
260	11
266	11
268	12
270	17
272	12
274	13
279	12
280	29
282	86
283	25
284	24
286	13
288	41
296	17
297	84
298	94
299	23
300	32
302	40
303	10
304	12
312	23
313	20
314	61
315	18
316	204
317	46
318	16
320	12
328	17
329	33
330	109
331	310
332	131
333	25
334	6
