Mass Spectrum: Benzyl phosphine
Formula: C7H9P
CAS: 14990-01-3
Molecular weight: 124
m/z	intensity
39	79
51	29
52	9
63	9
65	120
77	30
78	50
90	20
91	999
92	341
93	19
94	20
122	20
124	220
125	40
