Mass Spectrum: Ambroxol, O-tert-butyldimethylsilyl-
Formula: C19H32Br2N2OSi
CAS: 1499158-46-1
Molecular weight: 490
m/z	intensity
27	3
29	15
30	17
31	2
38	1
39	12
41	58
42	10
43	24
45	33
46	3
47	40
48	2
49	1
50	4
51	14
52	14
53	30
54	19
55	28
56	69
57	63
58	23
59	85
60	14
61	32
62	6
63	13
64	5
65	15
66	7
67	14
68	26
69	33
70	8
71	5
73	468
74	65
75	529
76	66
77	91
78	21
79	109
80	21
81	348
82	45
83	8
84	3
85	17
86	7
87	10
88	4
89	9
90	22
91	17
92	20
93	8
94	14
96	999
97	102
98	200
99	38
100	14
101	32
102	34
103	46
104	169
105	20
106	3
107	1
108	6
109	3
110	32
111	7
112	14
113	25
114	11
115	140
116	22
117	129
118	24
119	24
120	6
121	1
122	1
123	1
124	1
125	2
126	2
127	16
128	12
129	7
130	8
131	8
132	5
133	31
134	4
137	5
138	2
139	6
140	2
141	13
142	9
143	10
144	5
145	9
146	10
147	2
148	1
150	1
151	2
152	4
153	3
154	6
155	87
156	35
157	27
158	17
159	5
160	4
161	2
162	2
164	1
165	1
167	2
168	4
169	7
170	36
171	30
172	478
173	328
174	57
175	13
176	1
177	2
178	42
179	81
180	42
182	73
183	89
184	96
185	81
186	25
187	2
195	4
196	4
197	16
198	23
199	15
200	19
201	10
202	1
208	3
209	4
210	6
211	81
212	22
213	11
214	36
215	7
216	5
217	9
218	5
221	2
222	1
223	5
224	4
225	6
226	5
227	55
228	580
229	105
230	30
231	3
232	1
233	1
234	1
235	2
236	3
237	7
238	4
239	7
240	5
241	3
242	42
243	10
244	5
245	2
247	1
248	1
249	6
250	4
251	9
252	6
253	4
254	2
255	1
256	6
257	3
258	7
259	3
260	5
262	270
263	36
264	518
265	52
266	251
267	22
268	1
273	1
274	1
275	3
277	393
278	33
279	767
280	85
281	379
282	38
283	2
286	3
287	4
288	17
289	75
290	29
291	133
292	23
293	64
294	6
297	1
299	1
300	2
301	3
302	7
303	29
304	13
305	53
306	10
307	26
308	4
309	1
312	1
313	1
314	2
315	10
316	3
317	84
318	12
319	138
320	23
321	70
322	15
323	5
324	4
329	2
330	1
331	4
332	1
333	2
334	1
335	3
336	4
337	4
338	8
339	3
340	14
341	3
342	19
343	7
344	13
345	9
346	4
347	4
348	1
355	2
357	5
358	3
359	5
360	3
361	4
362	2
363	1
364	1
365	1
366	1
411	1
412	1
413	2
414	1
416	2
417	1
418	4
419	1
420	2
433	8
434	1
435	16
436	4
437	9
438	2
475	4
476	1
477	8
478	2
479	4
480	1
488	1
489	7
490	37
491	11
492	72
493	20
494	37
495	10
496	2
