Mass Spectrum: L-Glutamic acid 5-methyl ester
Formula: C6H11NO4
CAS: 1499-55-4
Molecular weight: 161
m/z	intensity
14	4
15	48
16	1
17	4
18	14
25	1
26	19
27	61
28	317
29	67
30	91
31	35
32	12
33	5
35	1
36	6
37	4
38	8
39	40
40	9
41	231
42	98
43	85
44	33
45	45
46	49
47	2
50	3
51	4
52	11
53	6
54	45
55	66
56	610
57	79
58	8
59	40
60	6
61	3
62	1
63	1
66	8
67	4
68	8
69	7
70	15
71	15
72	7
73	7
74	183
75	17
76	3
77	5
78	2
79	3
80	1
81	1
82	14
83	21
84	999
85	61
86	9
87	54
88	28
89	4
90	1
93	1
94	1
95	2
97	1
98	56
99	12
100	72
101	49
102	41
103	3
104	2
105	1
106	14
107	2
110	1
111	1
112	2
113	9
114	2
115	32
116	568
117	35
118	4
124	1
126	1
127	1
128	3
129	27
130	104
131	7
132	1
143	52
144	5
145	1
160	1
162	1
