Mass Spectrum: 17a-Benzyl-3.beta.-acetoxy-17a-aza-D-homoandrost-5-ene-17-one
Formula: C28H37NO3
CAS: 149942-09-6
Molecular weight: 435
m/z	intensity
41	160
43	816
44	50
45	14
46	1
47	1
48	1
49	1
50	7
51	19
52	7
53	39
54	13
55	179
56	21
57	25
58	5
59	2
60	5
61	6
62	2
63	10
64	5
65	84
66	12
67	83
68	14
69	26
70	13
71	6
72	3
73	3
74	2
75	2
76	1
77	84
78	31
79	128
80	19
81	88
82	16
83	13
84	23
85	5
86	3
87	2
89	17
90	5
91	999
92	108
93	65
94	19
95	31
96	11
97	10
98	7
99	2
102	2
103	27
104	132
105	170
106	506
107	112
108	56
109	17
110	8
111	4
112	3
115	25
116	12
117	56
118	66
119	69
120	38
121	23
122	9
123	6
124	9
125	2
126	2
127	6
128	22
129	34
130	18
131	54
132	46
133	32
134	13
135	11
136	6
137	2
138	3
139	1
140	2
141	15
142	13
143	49
144	18
145	49
146	98
147	44
148	44
149	82
150	17
151	3
152	3
153	4
154	3
155	11
156	6
157	27
158	40
159	33
160	39
161	13
162	26
163	22
164	9
165	6
166	3
167	5
168	3
169	9
170	6
171	15
172	9
173	12
174	28
175	9
176	4
177	2
178	4
179	4
180	3
181	6
182	3
183	9
184	6
185	13
186	7
187	9
188	8
189	4
190	2
191	2
193	3
194	2
195	5
196	3
197	8
198	7
199	19
200	20
201	11
202	5
203	2
204	1
205	1
207	2
209	6
210	4
211	17
212	8
213	16
214	17
215	5
216	5
217	1
218	1
221	1
223	2
224	3
225	5
226	19
227	18
228	7
229	5
230	3
231	1
233	1
235	3
237	8
238	3
239	4
240	7
241	4
242	3
243	1
251	3
252	3
253	35
254	11
255	44
256	9
257	2
262	1
266	1
267	2
268	4
269	1
270	21
271	5
282	1
283	1
284	3
285	3
286	1
332	2
344	1
358	2
360	54
361	15
362	3
373	1
374	6
375	34
376	13
377	3
378	2
389	1
391	2
392	5
393	3
407	1
420	50
421	15
422	3
434	6
435	113
436	39
437	7
438	1
