Mass Spectrum: 17a-Allyl-3.beta.-methoxy-17a-aza-D-homoandrost-5-ene-17-one
Formula: C23H35NO2
CAS: 149942-12-1
Molecular weight: 357
m/z	intensity
41	999
42	155
43	409
44	82
45	211
46	6
47	17
49	13
51	26
52	19
53	205
54	146
55	745
56	574
57	382
58	418
59	52
60	12
61	7
63	8
65	109
66	43
67	296
68	140
69	164
70	186
71	686
72	53
73	35
74	5
77	262
78	52
79	423
80	104
81	288
82	226
83	135
84	176
85	42
86	39
87	9
88	6
89	15
91	498
92	78
93	230
94	116
95	136
96	137
97	75
98	105
99	297
100	59
101	10
102	7
103	53
104	35
105	345
106	79
107	170
108	103
109	63
110	131
111	56
112	241
113	47
115	97
116	40
117	146
118	50
119	184
120	101
121	92
122	81
123	47
124	173
125	37
126	21
127	24
128	77
129	106
130	25
131	157
132	31
133	106
134	78
135	67
136	68
137	25
138	67
139	12
141	49
142	42
143	117
144	47
145	130
146	46
147	64
148	68
149	50
150	184
151	38
152	33
153	18
154	16
155	41
156	26
157	87
158	77
159	104
160	38
161	45
162	39
163	22
164	70
165	24
166	34
167	18
168	12
169	33
170	20
171	49
172	25
173	46
174	25
175	23
176	44
177	17
178	18
179	11
180	9
181	15
182	10
183	28
184	17
185	43
186	21
187	24
188	24
189	26
190	73
191	15
192	9
193	8
194	5
195	16
196	10
197	27
198	16
199	42
200	19
201	15
202	14
203	11
204	22
205	106
206	27
207	8
209	24
210	10
211	50
212	19
213	28
214	21
215	11
216	10
218	9
221	7
222	5
223	14
224	12
225	26
226	19
227	37
228	16
229	11
230	10
231	7
235	9
237	10
238	5
239	9
240	8
241	13
242	9
243	7
244	5
251	16
252	6
253	64
254	17
255	35
256	14
257	8
258	6
259	7
267	7
268	11
269	10
270	10
271	7
272	6
282	7
283	8
284	6
285	9
286	12
298	5
300	7
302	7
308	8
310	26
311	6
314	15
316	6
324	11
326	16
328	13
330	10
340	38
342	574
343	141
344	23
346	5
347	3
348	6
355	8
356	168
357	357
358	83
359	31
360	11
