Mass Spectrum: 17a-Allyl-3.beta.-acetoxy-17a-aza-D-homoandrost-5-ene-17-one
Formula: C24H35NO3
CAS: 149942-08-5
Molecular weight: 385
m/z	intensity
41	512
42	141
43	999
44	29
45	22
46	2
47	9
48	2
49	5
50	3
51	11
52	8
53	93
54	74
55	451
56	298
57	225
58	209
59	14
60	10
61	8
63	7
64	4
65	44
66	20
67	179
68	72
69	99
70	115
71	37
72	11
73	10
74	2
76	4
77	108
78	29
79	193
80	50
81	174
82	111
83	69
84	89
85	15
86	14
87	4
88	2
89	3
91	239
92	40
93	124
94	56
95	73
96	68
97	37
98	54
99	157
100	30
101	5
102	3
103	23
104	21
105	183
106	40
107	78
108	50
109	27
110	60
111	11
112	145
113	29
115	43
116	18
117	76
118	27
119	82
120	54
121	43
122	37
123	18
124	94
125	19
126	11
127	14
128	37
129	55
130	25
131	74
132	23
133	43
134	36
135	26
136	33
137	3
138	41
139	6
141	29
142	23
143	73
144	24
145	71
146	22
147	40
148	38
149	56
150	99
151	18
152	14
153	8
154	7
155	30
156	14
157	46
158	52
159	52
160	17
161	14
162	19
163	13
164	33
165	11
166	11
167	20
168	6
169	14
170	8
171	21
172	10
173	16
174	9
175	7
176	20
177	7
178	8
179	5
180	5
181	6
182	4
183	13
184	7
185	18
186	8
187	8
188	9
189	9
190	27
191	6
192	3
193	3
194	2
195	7
196	3
197	10
198	7
199	21
200	8
201	5
202	6
203	3
204	8
205	54
206	11
207	3
209	11
210	4
211	28
212	9
213	16
214	13
215	5
216	4
218	5
219	2
221	2
223	3
224	6
225	10
226	22
227	27
228	9
229	3
230	6
235	6
237	5
238	2
239	3
240	3
241	4
242	4
244	2
250	2
251	6
252	2
253	48
254	11
255	17
256	4
267	2
268	10
269	7
270	13
271	6
272	2
279	4
282	5
283	2
284	5
285	9
286	3
298	3
308	2
310	182
311	41
312	6
324	12
325	29
326	24
327	5
328	4
342	5
343	2
358	4
368	10
369	3
370	139
371	35
372	6
376	1
383	6
384	9
385	88
386	27
387	4
