Mass Spectrum: Bicine
Formula: C6H13NO4
CAS: 150-25-4
Molecular weight: 163
m/z	intensity
12	1
13	1
14	15
15	128
16	3
17	35
18	134
19	8
25	2
26	26
27	139
28	155
29	72
30	135
31	80
32	2
36	2
38	3
39	10
40	20
41	113
42	999
43	191
44	247
45	304
46	7
50	1
51	2
52	5
53	2
54	23
55	21
56	489
57	63
58	38
59	8
60	86
61	2
67	2
68	6
69	6
70	20
71	5
72	28
73	29
74	357
75	14
76	1
79	2
80	4
81	3
82	4
83	3
84	4
85	6
86	345
87	36
88	130
89	6
95	1
96	2
97	2
98	4
99	4
100	9
101	9
102	50
103	4
104	13
105	1
111	1
113	2
114	377
115	23
116	13
117	2
118	119
119	7
120	1
126	2
127	4
128	1
130	1
132	638
133	37
134	5
144	2
145	40
146	4
162	2
163	7
