Mass Spectrum: 1,2-Disilacyclopentane, 1,1,2,2-tetramethyl-
Formula: C7H18Si2
CAS: 15003-82-4
Molecular weight: 158
m/z	intensity
26	16
28	9
31	9
39	11
41	13
43	412
44	159
45	15
46	13
47	13
53	34
54	13
55	63
56	13
57	68
58	93
59	521
60	41
67	24
69	78
70	31
71	90
72	247
73	752
74	68
75	24
77	23
81	27
83	123
84	68
85	250
86	30
95	16
97	38
98	93
99	192
100	96
102	52
113	41
115	999
116	398
117	494
118	65
119	33
127	37
129	96
130	609
131	103
132	44
141	34
143	535
144	82
145	44
158	810
159	126
160	61
