Mass Spectrum: 1,1,2,2-Tetramethyl-1,2-disilacyclohexane
Formula: C8H20Si2
CAS: 15003-83-5
Molecular weight: 172
m/z	intensity
57	100
58	260
59	580
60	60
71	40
72	60
73	999
74	120
75	60
83	60
85	300
86	120
87	40
97	580
98	160
99	240
100	60
101	30
113	100
116	260
117	180
118	40
129	210
130	60
131	100
143	60
144	180
145	60
146	20
157	440
158	120
159	60
171	40
172	520
173	101
174	42
175	5
176	1
