Mass Spectrum: 4-Pyridinecarboxylic acid, (1-methyl-3-oxobutylidene)hydrazide
Formula: C11H13N3O2
CAS: 15017-12-6
Molecular weight: 219
m/z	intensity
33	3
34	4
37	5
38	23
39	249
40	15
41	190
42	207
43	736
44	7
45	35
49	20
50	226
51	659
52	88
53	43
54	66
55	95
56	42
57	37
58	16
61	2
62	2
63	14
64	10
65	21
66	15
67	30
68	12
69	59
70	46
71	48
72	9
73	24
74	5
75	7
76	27
78	898
79	197
80	18
81	6
83	9
84	0
85	3
87	1
91	10
92	4
93	8
95	25
96	14
97	36
98	3
99	25
100	1
104	1
106	999
107	76
108	13
114	2
115	3
117	2
118	4
119	5
120	16
121	10
123	8
130	5
131	5
133	9
134	2
135	132
136	23
137	6
146	1
148	0
149	9
158	1
159	4
160	38
162	734
163	59
164	5
165	2
171	1
172	10
173	7
174	3
176	23
177	88
178	8
186	6
201	21
202	12
203	3
204	131
205	8
218	6
219	200
220	28
