Mass Spectrum: 5-Bromo-6-carboxy-2,4-dihydroxypyrimidine
Formula: C5H3BrN2O4
CAS: 15018-62-9
Molecular weight: 234
m/z	intensity
12	21
13	7
14	2
15	3
16	3
24	5
25	17
26	9
27	38
28	363
29	18
30	3
32	1
36	3
37	3
38	72
39	99
40	199
41	42
42	29
43	66
44	999
45	22
46	6
50	7
51	15
52	9
53	48
54	14
55	16
56	3
57	6
58	2
59	5
60	5
62	1
63	1
64	4
65	8
66	9
67	55
68	97
69	19
70	38
71	5
73	1
74	2
75	2
76	2
77	1
79	29
80	44
81	28
82	44
83	3
84	2
85	3
86	1
87	1
89	1
91	49
92	72
93	47
94	71
95	3
96	2
97	2
98	2
103	1
104	46
105	5
106	49
107	6
108	5
109	3
111	20
112	14
113	5
114	2
116	1
117	13
118	51
119	26
120	417
121	23
122	355
123	10
124	1
125	1
128	4
131	2
133	2
134	4
136	4
144	1
145	9
146	39
147	645
148	70
149	624
150	36
151	4
156	22
157	2
162	1
163	8
165	7
172	9
174	10
179	1
180	1
185	1
186	3
188	1
190	584
191	40
192	558
193	41
194	5
198	1
216	3
218	2
234	39
235	3
236	41
237	4
