Mass Spectrum: 1-Methoxymethyl-2-methylbenzene
Formula: C9H12O
CAS: 15018-12-9
Molecular weight: 136
m/z	intensity
15	8
26	2
27	17
28	1
29	20
30	4
31	2
37	2
38	9
39	64
40	6
41	12
42	1
43	3
44	1
45	30
46	1
49	2
50	31
51	75
52	23
53	20
54	1
55	1
59	1
60	1
61	4
62	17
63	50
64	12
65	80
66	7
67	3
73	1
74	9
75	8
76	10
77	185
78	119
79	96
80	6
85	1
86	3
87	3
88	1
89	29
90	9
91	214
92	23
93	23
94	2
98	1
101	2
102	17
103	156
104	999
105	473
106	49
107	3
119	34
120	7
121	240
122	21
123	1
135	81
136	67
137	6
