Mass Spectrum: Salicylaldehyde nicotinoylhydrazone
Formula: C13H11N3O2
CAS: 15017-28-4
Molecular weight: 241
m/z	intensity
26	6
27	18
28	11
29	1
37	3
38	11
39	51
40	4
41	4
42	1
43	5
44	6
49	3
50	44
51	203
52	61
53	29
54	4
55	4
61	1
62	6
63	29
64	16
65	24
66	8
67	3
68	3
74	2
75	7
76	9
77	83
78	561
79	175
80	39
81	7
89	3
90	17
91	26
92	9
93	7
94	9
95	2
96	1
102	9
103	2
104	6
105	139
106	999
107	117
108	23
109	1
115	1
116	1
117	12
118	6
119	120
120	43
121	11
122	494
123	455
124	32
125	2
127	1
128	2
129	1
130	1
133	4
134	4
135	14
136	1
148	25
149	3
154	3
155	1
156	4
157	1
160	1
163	1
166	1
167	2
168	2
175	1
181	1
182	3
183	4
184	6
185	3
195	1
196	4
197	4
198	1
211	2
212	3
213	1
222	1
223	1
224	28
225	5
239	2
240	19
241	317
242	54
243	6
