Mass Spectrum: 2-(2,4,6-Trinitrophenyl)-3-oxobutanoic acid,ethyl ester
Formula: C12H11N3O9
CAS: 15010-19-2
Molecular weight: 341
m/z	intensity
29	250
30	50
43	999
44	40
148	10
178	10
179	10
209	10
226	50
236	10
253	10
268	2
281	6
296	5
341	7
342	1
