Mass Spectrum: Methyl 2,3-isopropylidene- 4,6-dimethyl-.alpha.-d-mannoside
Formula: C12H22O6
CAS: 150161-23-2
Molecular weight: 262
m/z	intensity
41	104
42	36
43	204
44	2
45	492
46	9
47	5
51	3
52	1
53	20
54	11
55	74
56	12
57	31
58	50
59	68
60	15
61	23
62	0
65	1
66	0
67	3
68	38
69	36
70	3
71	276
72	44
73	209
74	34
75	66
76	2
77	6
78	2
79	1
81	22
82	14
83	18
84	55
85	326
86	18
87	52
88	9
89	6
90	0
95	8
97	60
98	28
99	161
100	999
101	190
102	11
103	10
105	19
106	1
109	4
110	9
111	35
112	24
113	31
114	16
115	152
116	12
117	6
118	0
123	1
124	1
125	1
127	9
129	17
131	30
132	1
133	0
139	25
140	7
141	15
142	20
143	14
144	20
145	2
155	2
157	2
159	2
170	0
173	34
174	2
185	0
187	9
188	0
199	2
202	0
204	1
205	0
217	2
219	3
231	22
232	1
247	43
248	6
249	0
262	3
