Mass Spectrum: Dihydroneoergosterol
Formula: C27H42O
CAS: 15019-42-8
Molecular weight: 382
m/z	intensity
41	294
42	18
43	999
44	13
45	49
49	22
51	14
53	43
55	333
57	157
59	62
65	13
67	55
69	223
70	10
71	184
72	3
77	34
79	45
81	72
83	97
84	8
85	57
86	11
87	28
89	8
91	55
93	27
95	59
97	586
98	12
99	25
103	15
105	39
107	30
109	37
111	33
113	22
115	67
116	25
117	33
119	20
121	25
123	41
124	16
125	19
127	31
128	63
129	60
130	5
131	55
132	3
133	26
135	20
137	17
139	17
141	154
142	63
143	111
144	20
145	32
146	10
147	17
149	17
151	17
152	36
153	72
154	47
155	88
157	97
158	7
159	70
160	16
161	35
163	14
165	74
166	43
167	89
168	63
169	118
170	59
171	57
172	25
173	29
174	11
175	18
176	18
177	35
178	37
179	65
180	53
181	111
182	21
183	416
184	99
185	52
186	25
187	55
188	16
189	29
190	38
191	31
192	19
193	44
194	39
195	268
196	112
197	128
198	43
199	50
200	58
201	263
202	57
203	29
204	23
205	41
206	18
207	34
208	22
209	52
210	146
211	120
213	588
214	169
215	84
216	26
217	30
218	3
219	24
220	14
221	35
222	38
223	58
224	44
225	39
226	39
227	56
228	131
229	66
230	102
231	31
232	13
233	20
235	30
237	455
238	103
239	49
240	25
241	30
242	29
243	27
244	25
245	8
246	14
247	13
248	3
249	20
250	3
251	44
252	19
253	65
254	11
255	42
256	15
257	13
258	8
259	3
261	3
263	11
265	36
266	15
267	31
268	19
269	35
270	13
271	3
277	3
279	15
280	3
281	19
282	12
283	23
284	12
285	7
293	8
295	12
296	13
297	11
299	3
309	3
338	7
339	12
343	3
349	47
350	17
352	10
354	12
362	4
363	14
364	191
365	81
366	26
367	16
368	16
378	11
379	15
380	79
381	14
382	353
383	108
384	28
