Mass Spectrum: Methyl 4-benzoylbutyrate
Formula: C12H14O3
CAS: 1501-04-8
Molecular weight: 206
m/z	intensity
27	3
28	5
29	7
34	1
35	1
36	4
39	27
41	34
42	17
43	2
49	1
50	34
51	132
52	12
53	4
54	1
55	79
56	3
57	3
58	2
59	54
60	2
61	1
62	2
63	7
64	3
65	10
66	2
67	1
68	4
69	5
70	2
71	1
72	1
73	2
74	9
75	9
76	22
77	420
78	42
79	4
81	1
83	5
85	3
86	1
87	3
88	1
89	3
90	1
91	14
92	3
93	1
95	1
97	2
100	3
101	11
102	4
103	10
104	12
105	999
106	78
107	5
108	1
109	1
110	1
111	1
115	6
116	1
117	4
118	1
119	1
120	119
121	13
122	1
123	3
124	1
127	2
128	4
129	6
130	1
131	6
132	12
133	26
134	3
135	2
144	1
145	3
146	40
147	59
148	7
149	1
152	1
165	1
167	1
168	1
174	19
175	64
176	8
177	1
206	41
207	5
208	1
