Mass Spectrum: 4-Chlorobenzoic acid, 3-phenylpropyl ester
Formula: C16H15ClO2
CAS: 150272-45-0
Molecular weight: 274
m/z	intensity
28	2
29	5
36	8
39	5
40	11
41	5
50	8
51	9
63	4
65	16
74	5
75	27
76	11
77	20
78	15
79	8
89	6
90	4
91	109
92	14
102	3
103	22
104	16
105	14
111	93
112	11
113	32
114	3
115	29
116	10
117	482
118	999
119	83
120	5
139	184
140	16
141	56
142	5
156	8
157	6
