Mass Spectrum: Cyclodecanol
Formula: C10H20O
CAS: 1502-05-2
Molecular weight: 156
m/z	intensity
25	1
26	18
27	337
29	380
30	19
31	122
37	5
38	8
39	304
40	57
41	999
42	314
43	437
44	272
45	91
46	1
47	2
50	8
51	23
52	9
53	115
54	473
55	912
56	338
57	875
58	135
59	19
60	2
62	1
63	6
64	3
65	17
66	66
67	669
68	632
69	365
70	199
71	215
72	44
73	10
74	2
75	2
77	19
78	3
79	44
80	25
81	475
82	541
83	212
84	94
85	63
86	13
87	2
91	11
92	2
93	16
94	29
95	328
96	224
97	97
98	51
99	41
100	6
107	8
108	5
109	125
110	127
111	68
112	72
113	17
114	3
121	2
123	8
124	1
125	13
126	2
127	6
128	6
136	2
137	2
138	19
139	6
154	12
155	4
