Mass Spectrum: 2-Methoxybenzoic acid, 3-phenylpropyl ester
Formula: C17H18O3
CAS: 150272-47-2
Molecular weight: 270
m/z	intensity
26	8
27	42
28	3
29	30
30	3
39	78
40	15
41	52
42	4
43	25
44	1
50	57
51	97
52	15
53	22
54	4
55	10
56	3
57	7
58	5
59	3
60	2
61	6
62	11
63	57
64	50
65	74
66	11
67	2
68	4
69	10
70	6
71	5
73	7
74	12
75	15
76	26
77	247
78	56
79	48
80	9
81	5
82	4
83	8
84	4
85	9
88	2
89	5
90	9
91	219
92	134
93	9
94	12
95	9
96	13
97	4
100	2
101	3
102	8
103	20
104	47
105	103
106	12
107	12
108	15
109	4
111	6
113	2
115	17
116	56
117	297
118	999
119	120
120	34
121	16
122	5
123	50
124	4
125	3
127	6
130	3
131	5
132	4
133	12
134	25
135	537
136	63
137	8
139	19
140	5
141	7
142	2
145	4
147	5
151	3
152	82
153	28
154	3
156	6
157	2
158	4
161	5
165	3
179	21
180	4
242	2
270	7
