Mass Spectrum: 4-Pentenoic acid, 2-acetyl-2,3-dimethyl-, ethyl ester
Formula: C11H18O3
CAS: 150221-35-5
Molecular weight: 198
m/z	intensity
25	4
26	29
27	247
28	59
29	365
30	11
31	21
35	2
37	3
38	5
39	124
40	21
41	184
42	35
43	999
44	43
45	42
47	3
50	8
51	26
52	12
53	88
54	37
55	308
56	57
57	34
58	6
59	27
61	5
62	3
63	5
64	3
65	27
66	13
67	133
68	16
69	29
70	98
71	34
72	9
73	30
74	25
75	5
77	15
78	2
79	36
80	7
81	84
82	64
83	197
84	15
85	16
87	13
88	3
91	15
93	10
94	6
95	126
96	12
97	24
98	115
99	113
100	13
101	35
102	23
105	4
106	10
107	14
108	12
109	161
110	90
111	209
112	31
113	417
114	31
115	8
116	11
118	2
121	3
123	14
124	29
125	42
126	7
127	65
128	20
129	21
137	4
140	57
141	507
142	48
143	5
144	75
145	8
152	30
153	26
155	24
156	186
157	23
158	5
169	13
170	1
180	16
181	1
183	3
198	8
199	0
