Mass Spectrum: DL-Phenylalanine, methyl ester
Formula: C10H13NO2
CAS: 15028-44-1
Molecular weight: 179
m/z	intensity
26	2
27	18
28	105
29	27
30	12
31	3
33	184
34	1
39	56
40	7
41	34
42	48
43	30
44	4
45	2
46	2
50	20
51	54
52	14
53	9
54	4
55	9
56	7
57	16
58	0
59	9
60	91
61	2
62	8
63	31
64	9
65	94
66	9
67	4
68	1
69	5
70	2
71	7
73	0
74	6
75	6
76	10
77	84
78	18
79	6
80	4
81	3
82	1
83	4
84	1
85	4
86	0
87	1
88	999
89	70
90	20
91	264
92	82
93	36
94	4
95	3
96	1
97	4
98	1
99	1
101	1
102	8
103	107
104	23
105	6
106	1
107	1
108	1
109	2
111	2
113	0
115	4
116	3
117	14
118	35
119	31
120	794
121	77
122	4
123	1
125	1
127	0
128	1
129	1
130	0
131	6
132	0
133	0
135	1
137	0
139	1
140	0
141	6
142	0
147	0
151	1
152	0
153	0
155	0
162	0
164	1
165	0
177	1
178	1
179	6
180	1
