Mass Spectrum: Piperazine, 1-[(3,4-dichlorophenyl)acetyl]-4-n-propyl-
Formula: C15H20Cl2N2O
CAS: 150208-58-5
Molecular weight: 314
m/z	intensity
42	999
43	365
44	207
45	7
47	1
49	6
50	13
51	13
52	4
53	5
54	98
55	164
56	543
57	166
58	142
59	4
60	1
61	8
62	36
63	89
64	6
65	3
66	1
67	8
68	48
69	57
70	320
71	54
72	131
73	33
74	9
75	21
77	5
78	1
79	8
81	14
82	38
83	51
84	203
85	97
86	384
87	37
88	0
89	155
90	11
91	1
93	1
94	1
95	3
96	15
97	63
98	534
99	462
100	33
101	8
102	4
103	5
104	1
107	4
108	1
109	6
110	3
111	33
112	9
113	19
115	5
116	1
117	2
118	0
120	0
121	0
123	98
124	37
125	67
126	28
127	72
128	6
129	2
130	1
131	2
133	16
135	11
136	1
137	3
138	14
139	4
140	4
141	3
143	6
144	5
145	1
146	0
148	1
149	1
150	1
151	1
152	2
153	1
154	1
155	7
156	1
159	267
160	0
161	191
163	39
164	3
165	1
166	3
167	1
168	2
169	0
171	1
172	5
173	2
174	2
175	1
176	0
177	0
178	0
179	1
180	0
181	0
182	0
183	0
186	9
187	2
188	5
189	1
190	1
191	0
192	0
193	0
194	0
195	0
196	0
198	0
199	0
200	2
201	1
202	1
203	0
204	0
206	1
207	0
208	1
209	0
210	0
212	0
213	0
214	0
215	1
216	0
220	0
221	0
222	0
223	0
224	0
228	0
229	2
230	11
231	2
232	7
233	1
234	1
235	0
236	0
242	5
243	4
244	5
245	3
246	2
247	0
248	0
250	0
251	0
252	0
256	5
257	1
258	4
259	0
260	0
270	0
271	0
272	0
273	0
274	0
279	0
280	0
281	0
283	0
285	166
286	26
287	114
288	17
289	19
290	2
299	0
300	0
301	0
302	0
312	0
313	1
314	25
315	7
316	16
317	4
318	3
319	0
