Mass Spectrum: N-Benzyloxycarbonyl-dl-norleucine
Formula: C14H19NO4
CAS: 15027-13-1
Molecular weight: 265
m/z	intensity
14	6
15	28
16	9
17	2
18	7
25	3
26	40
27	239
28	306
29	294
30	52
31	23
32	3
36	3
37	23
38	45
39	237
40	42
41	419
42	107
43	999
44	227
45	13
46	4
48	2
49	11
50	95
51	205
52	71
53	79
54	104
55	97
56	226
57	179
58	10
59	3
60	8
61	14
62	30
63	67
64	20
65	186
66	24
67	39
68	25
69	68
70	33
71	10
72	3
73	63
74	57
75	15
76	16
77	413
78	111
79	734
80	86
81	29
82	40
83	29
84	52
85	60
86	44
87	9
88	3
89	75
90	91
91	961
92	122
93	15
94	11
95	14
96	23
97	9
98	17
99	5
100	5
101	231
102	9
103	5
104	3
105	97
106	81
107	546
108	975
109	77
110	8
111	13
112	117
113	14
114	4
115	3
116	2
117	2
118	1
119	2
120	1
121	2
122	1
123	1
124	1
125	2
126	1
127	1
128	7
129	18
130	43
131	6
132	3
133	4
134	1
135	1
136	1
137	1
138	1
139	3
140	1
141	1
142	1
143	1
144	1
145	1
146	1
147	1
148	2
149	1
151	1
152	1
153	1
155	1
156	4
157	3
158	1
159	1
165	4
166	2
167	4
168	3
169	1
170	1
173	1
174	5
176	66
177	9
178	4
179	5
180	5
181	2
182	1
183	1
185	1
219	1
220	9
221	2
265	12
266	2
