Mass Spectrum: Benzene-1,3-diamine, N,N-diacetyl-5-[3,4,4,4-tetrafluoro-2-(1,2,2,2-tetrafluoro-1-trifluoromethylethyl)-1,3-di(trifluoromethyl)-1-butenyloxy]-
Formula: C19H11F17N2O3
CAS: 150225-65-3
Molecular weight: 638
m/z	intensity
33	0
34	0
36	1
37	0
38	6
39	11
40	16
41	25
43	999
44	24
45	3
47	1
50	10
51	14
52	18
53	13
54	9
55	4
56	2
57	2
58	1
59	1
60	2
61	1
62	6
63	22
64	7
65	17
66	29
67	35
68	18
69	57
70	2
71	1
73	0
74	2
75	2
76	4
77	11
78	27
79	26
80	41
81	5
82	2
83	2
84	2
85	1
87	0
88	1
89	5
90	10
91	12
92	9
93	9
94	12
95	47
96	11
97	2
98	2
99	1
100	2
101	0
102	0
103	1
104	5
105	26
106	73
107	201
108	22
109	4
110	1
111	0
112	0
113	0
114	0
116	0
117	2
118	2
119	7
120	6
121	9
122	6
123	6
124	7
125	1
126	1
128	0
129	2
130	1
131	2
132	3
133	11
134	2
135	2
136	3
137	5
138	0
141	0
142	0
143	1
144	0
145	0
146	2
147	9
148	15
149	21
150	7
151	0
152	0
155	2
156	0
157	1
158	0
161	0
162	1
163	1
164	5
165	3
166	0
167	0
170	0
171	0
172	0
174	1
175	1
176	0
177	0
178	0
179	1
180	0
181	1
183	0
184	0
187	0
188	1
189	2
191	108
192	11
193	2
194	0
195	0
196	1
197	0
198	1
199	3
200	0
204	0
205	1
206	1
207	1
208	0
209	0
212	0
216	1
217	0
218	1
219	1
220	0
221	0
225	0
227	0
228	0
229	0
230	0
240	0
241	3
242	0
243	3
244	0
246	0
247	0
248	0
249	1
250	0
255	0
257	0
258	0
259	1
260	1
276	0
277	2
278	0
280	0
288	1
289	0
293	1
296	0
297	0
298	0
309	1
315	0
316	2
317	1
319	0
343	0
347	1
359	0
360	0
366	0
368	0
369	0
385	1
388	1
397	0
415	0
416	0
446	0
465	0
485	2
515	0
526	3
527	1
548	0
549	0
550	0
551	1
554	62
555	7
557	2
580	0
593	2
594	3
596	30
597	3
598	0
619	0
635	0
636	3
638	16
639	1
