Mass Spectrum: 2-[4-Methoxyphenyl-(1-methylazepan-2-ylidenamino)methylene]malononitrile
Formula: C18H20N4O
CAS: 150356-95-9
Molecular weight: 308
m/z	intensity
12	7
13	9
15	553
17	17
18	101
26	42
27	312
28	281
29	293
30	235
31	20
32	45
37	10
38	59
39	355
40	85
41	707
42	999
43	200
44	544
45	21
50	58
51	75
52	46
53	121
54	215
55	664
56	220
57	314
58	44
61	12
62	48
63	111
64	114
65	71
66	52
67	155
68	360
69	155
70	402
71	58
72	30
73	7
74	19
75	60
76	69
77	239
78	61
79	64
80	47
81	131
82	104
83	82
84	80
85	12
86	24
87	75
88	74
89	62
90	69
91	61
92	136
93	35
94	43
95	56
96	249
97	50
98	50
99	30
100	40
101	99
102	64
103	58
104	30
105	21
106	29
107	32
108	43
109	20
110	78
111	43
112	32
113	119
114	220
115	45
116	49
117	27
118	24
119	30
120	18
121	52
122	15
123	21
124	14
125	71
126	61
127	57
128	102
129	30
130	12
131	12
132	21
133	93
134	103
135	68
136	17
137	138
138	19
139	55
140	226
141	78
142	51
143	20
144	12
145	26
146	29
147	25
148	37
149	29
150	9
151	15
152	29
153	29
154	18
155	31
156	18
157	50
158	56
159	32
160	30
161	9
162	24
165	5
166	10
168	135
169	30
170	17
171	121
172	39
173	17
174	24
175	18
176	25
177	5
179	6
180	9
181	12
183	159
184	38
185	24
186	14
187	22
188	29
189	32
190	4
193	5
194	8
195	9
196	9
197	16
198	26
199	83
200	53
201	142
202	23
203	4
207	4
208	5
209	8
210	10
211	19
212	46
213	26
214	17
215	15
216	4
221	6
222	8
223	8
224	12
225	10
226	28
227	12
228	17
229	8
231	4
235	3
236	7
237	15
238	10
239	16
240	19
241	13
243	108
244	19
249	4
250	12
251	18
252	17
253	7
254	5
263	2
264	5
265	13
266	14
268	100
269	17
276	3
277	7
278	5
279	7
280	11
281	11
282	27
283	6
292	1
293	24
294	4
307	70
308	164
309	46
310	7
