Mass Spectrum: 2(1H)-Pyridinone, 1,4-dimethyl-
Formula: C7H9NO
CAS: 15031-42-2
Molecular weight: 123
m/z	intensity
27	109
28	52
38	52
39	174
41	78
42	200
50	57
51	83
52	70
53	209
55	57
80	100
94	999
95	218
123	917
124	87
