Mass Spectrum: n-Octane-1,8-di-aminocarboxylic acid, dibenzyl(ester)
Formula: C24H32N2O4
CAS: 150333-74-7
Molecular weight: 412
m/z	intensity
41	32
42	8
43	15
44	16
45	7
46	1
49	3
50	4
51	15
52	5
53	3
54	2
55	26
56	19
57	5
58	2
59	5
62	4
63	11
64	3
65	81
66	3
67	7
68	2
69	29
70	7
71	0
72	2
73	1
74	28
75	2
77	30
78	7
79	53
80	5
81	2
82	2
83	3
84	6
85	2
86	5
87	2
88	1
89	24
90	15
91	999
92	97
93	5
95	2
96	2
97	2
98	4
99	3
100	6
101	1
104	5
105	10
106	12
107	127
108	113
109	11
110	1
111	0
112	5
113	0
114	6
115	1
117	2
118	2
119	2
120	16
121	1
124	5
125	2
126	9
127	0
128	1
131	4
132	1
133	1
140	0
142	0
143	2
145	1
146	1
149	2
150	0
151	1
152	2
154	21
155	2
158	3
162	0
164	1
165	1
167	1
169	12
171	463
172	50
173	3
178	0
179	2
180	16
181	7
185	0
197	26
198	3
199	0
201	0
204	2
213	2
215	269
216	35
217	4
219	1
229	0
233	11
234	2
259	3
260	0
261	13
262	2
277	303
278	57
279	7
287	0
304	7
305	14
306	2
367	0
369	0
412	22
413	12
414	3
