Mass Spectrum: 2(1H)-Pyridinone, 1,6-dimethyl-
Formula: C7H9NO
CAS: 15031-43-3
Molecular weight: 123
m/z	intensity
27	85
28	68
38	79
39	418
42	59
53	103
54	50
56	138
65	62
80	68
93	50
94	999
95	309
108	156
123	950
124	91
