Mass Spectrum: 6-Bromohexanoic acid, phenyl ester
Formula: C12H15BrO2
CAS: 150355-03-6
Molecular weight: 270
m/z	intensity
25	2
26	33
27	223
28	13
29	93
30	4
39	368
40	62
41	651
42	141
43	193
44	3
54	18
55	314
56	21
57	8
60	10
61	6
62	11
63	43
64	21
65	201
66	72
67	35
68	31
69	969
70	82
71	6
73	5
74	7
75	5
76	5
77	109
78	15
80	6
81	6
82	5
83	5
84	5
85	3
91	15
92	10
93	30
94	999
95	156
96	14
97	64
98	4
99	2
104	2
105	5
107	49
109	39
110	3
114	3
119	3
121	7
122	2
123	6
125	5
127	7
128	3
130	2
132	7
133	17
134	8
135	9
136	12
137	4
148	2
149	20
150	4
151	21
156	2
176	15
177	299
178	33
179	283
180	20
181	2
270	38
271	3
272	38
273	5
