Mass Spectrum: 5-Germaspiro[4.4]nona-1,3,6,8-tetraene, 3,8-bis(diethylboryl)-2,7-diethyl-1,4,6,9-tetraphenyl-
Formula: C44H50B2Ge
CAS: 150479-94-0
Molecular weight: 674
m/z	intensity
26	23
27	106
28	10
29	15
38	2
39	18
40	263
41	999
42	25
51	11
53	12
54	2
55	33
57	8
65	11
67	8
68	75
69	328
70	15
74	3
77	12
81	2
88	18
89	63
91	40
92	3
97	6
98	2
99	12
101	12
102	12
103	45
104	3
105	25
109	2
111	9
112	45
113	181
114	24
115	54
116	22
117	71
118	10
123	13
125	16
126	13
127	36
128	33
129	61
130	20
131	14
133	3
135	14
137	16
138	8
139	30
140	30
141	90
142	14
143	10
147	56
148	2
149	86
150	31
151	109
152	15
153	24
154	4
155	13
157	3
159	6
160	2
161	9
162	8
163	32
164	17
165	57
166	16
167	18
168	2
169	5
171	260
172	20
173	358
174	122
175	511
176	49
177	110
178	61
179	19
180	5
181	11
182	18
183	68
184	34
185	120
186	76
187	150
188	29
189	48
190	12
191	19
192	6
193	13
194	4
195	5
196	2
197	13
198	3
199	35
200	23
201	54
202	63
203	59
204	20
205	26
207	12
209	7
210	13
211	32
212	25
213	82
214	36
215	100
216	30
217	24
218	2
219	12
223	11
224	13
225	24
226	16
227	39
228	29
229	45
230	13
231	25
232	8
233	5
234	2
235	14
236	9
237	28
238	15
239	28
240	21
241	45
242	34
243	51
244	20
245	10
247	6
248	5
249	31
250	21
251	51
252	30
253	48
254	12
255	19
256	9
257	24
258	8
259	11
260	9
261	12
262	10
263	16
264	10
265	18
266	5
267	12
268	7
269	12
270	15
271	57
272	67
273	19
274	7
275	11
276	5
277	16
278	2
279	10
281	11
282	5
283	11
284	7
285	18
286	12
287	20
288	13
289	17
290	4
291	7
292	2
293	2
295	2
296	6
297	14
298	9
299	19
300	21
301	45
302	17
303	51
304	24
305	59
306	16
307	19
308	7
309	8
310	9
311	25
312	21
313	35
314	26
315	46
316	26
317	34
318	16
319	13
320	2
321	3
322	4
323	7
324	11
325	23
326	16
327	27
328	18
329	35
330	20
331	25
332	21
333	31
334	23
335	21
336	14
337	16
338	12
339	25
340	37
341	41
342	29
343	52
344	40
345	49
346	31
347	18
348	8
349	8
350	2
351	10
352	8
353	13
354	11
355	25
356	15
357	25
358	17
359	31
360	10
361	13
362	8
363	11
364	6
365	6
367	8
368	2
369	24
370	48
371	45
372	71
373	58
374	89
375	30
376	23
377	5
379	5
381	5
383	8
384	2
385	2
387	10
388	8
389	3
391	6
393	2
394	5
395	2
397	5
399	12
400	9
401	16
402	14
403	25
404	10
405	21
406	9
407	10
408	2
409	2
410	2
411	8
412	16
413	36
414	30
415	53
416	36
417	63
418	30
419	28
420	6
421	5
423	5
424	6
425	11
426	9
427	11
428	7
429	10
430	2
431	9
432	2
433	6
435	6
436	2
438	2
440	2
441	14
442	16
443	19
444	17
445	27
446	22
447	14
448	11
449	3
450	2
451	4
453	7
454	2
455	8
457	5
458	2
461	5
462	2
463	8
464	2
465	5
468	2
469	7
470	10
471	19
472	16
473	23
474	27
475	25
476	7
477	5
478	2
481	5
483	5
484	2
485	2
493	2
497	5
498	5
499	7
500	2
501	7
502	2
503	3
505	2
508	3
510	4
511	6
512	2
513	8
514	8
515	7
516	5
517	5
518	5
519	7
520	2
521	2
525	8
526	8
527	14
528	12
529	14
530	13
531	9
532	5
533	2
535	5
539	2
540	5
541	10
542	15
543	18
544	18
545	26
546	21
547	28
548	13
549	11
552	2
553	5
554	10
555	20
556	24
557	28
558	25
559	24
560	16
561	11
568	5
569	15
570	17
571	30
572	27
573	39
574	34
575	34
576	23
577	15
578	4
579	4
582	10
583	19
584	21
585	34
586	33
587	43
588	17
589	16
590	5
600	10
601	41
602	33
603	55
604	63
605	80
606	46
607	31
608	11
611	11
612	14
613	24
614	26
615	33
616	25
617	15
618	11
619	5
640	21
641	51
642	52
643	82
644	85
645	102
646	49
647	25
648	10
668	18
669	197
670	329
671	471
672	503
673	825
674	967
675	459
676	179
677	147
678	37
