Mass Spectrum: 2,6-Bis(4-chlorbenzyl)-4-[1-(4-chlorophenyl)-2-dimethylamino-2-phenyl]vinyl-1,3,5-triazine
Formula: C33H27Cl3N4
CAS: 150454-77-6
Molecular weight: 584
m/z	intensity
15	15
17	11
18	32
27	12
28	19
30	8
36	23
38	9
39	27
41	16
42	66
43	21
44	110
50	12
51	35
54	16
55	8
62	10
63	43
64	9
65	29
71	13
73	11
75	35
76	19
77	181
78	20
87	8
88	15
89	234
90	83
91	127
92	9
96	20
99	51
100	9
101	39
102	34
103	43
104	45
105	7
111	20
112	14
113	12
114	36
115	30
116	210
117	80
118	215
119	22
123	35
125	999
126	92
127	333
128	83
129	31
130	46
131	98
132	24
136	11
137	31
138	23
139	17
140	22
141	11
143	37
144	11
149	10
150	49
151	87
152	82
153	38
154	53
155	22
156	17
157	59
158	8
159	6
161	12
162	12
163	16
164	48
165	39
166	25
167	7
168	8
169	261
170	29
171	86
172	11
174	7
175	29
176	83
177	51
178	79
179	18
180	7
181	5
188	6
189	20
190	42
191	34
192	13
193	8
194	184
195	20
196	60
197	9
199	12
200	7
201	32
202	36
203	120
204	65
205	21
206	9
207	8
212	40
213	17
214	20
215	11
216	17
217	18
218	18
219	10
220	8
224	4
225	9
226	6
227	10
228	8
229	28
230	13
231	28
232	18
233	5
236	4
237	10
238	42
239	12
240	25
241	42
242	22
243	20
244	8
245	12
246	21
247	6
250	6
251	8
252	11
253	7
254	24
255	8
256	32
257	15
258	6
263	4
264	5
265	24
266	16
267	38
268	11
269	12
270	4
271	4
272	11
273	11
274	4
276	2
277	3
278	6
279	21
280	27
281	65
282	59
283	32
284	17
285	3
290	8
291	101
292	45
293	54
294	18
295	4
299	1
301	1
303	2
304	2
305	4
306	12
307	12
308	132
309	28
310	40
311	9
313	1
317	1
318	1
319	1
320	1
323	2
324	6
325	2
326	2
328	1
330	1
342	1
343	2
344	1
345	2
346	18
347	6
348	1
349	2
351	1
352	1
353	1
354	1
355	1
356	1
357	1
358	1
380	6
381	30
382	14
383	11
384	4
385	1
389	5
390	3
391	64
392	18
393	44
394	11
395	8
396	1
398	1
406	1
407	5
408	1
409	1
415	21
416	52
417	42
418	42
419	21
420	8
421	3
422	0
423	4
424	2
425	2
426	1
430	1
431	1
432	6
433	8
434	7
435	6
436	2
437	1
442	21
443	6
444	14
445	4
446	2
457	0
459	34
460	10
461	24
462	7
463	4
464	1
466	4
467	1
468	4
469	1
470	1
473	0
493	2
494	0
495	2
496	0
497	0
526	1
527	0
528	1
540	1
541	1
542	2
543	1
544	1
547	0
549	4
550	2
551	2
552	1
553	1
554	1
555	1
569	3
570	1
571	2
572	1
573	1
583	27
584	171
585	83
586	155
587	66
588	57
589	21
590	8
591	2
