Mass Spectrum: Pentane, 1,3-epoxy-4-methyl-
Formula: C6H12O
CAS: 15045-60-0
Molecular weight: 100
m/z	intensity
26	13
27	193
28	54
29	403
30	6
31	34
37	0
38	5
39	124
40	13
41	294
42	76
43	999
44	49
45	6
50	3
51	6
52	0
53	15
54	9
55	232
56	29
57	891
58	20
59	3
67	5
69	12
70	37
71	325
72	186
73	11
85	6
100	55
