Mass Spectrum: 2,4,6-Tris(1-formylpropylidene)-hexahydro-1,3,5-triazine
Formula: C15H21N3O3
CAS: 150454-71-0
Molecular weight: 291
m/z	intensity
14	8
15	48
16	6
17	11
18	73
19	8
26	13
27	207
28	438
29	542
30	98
31	32
32	11
38	13
39	178
40	50
41	463
42	166
43	300
44	38
45	8
50	6
51	24
52	106
53	173
54	484
55	95
56	40
57	19
64	8
65	16
66	49
67	46
68	420
69	98
70	680
71	48
72	5
77	16
78	18
79	19
80	34
81	21
82	148
83	19
84	32
85	8
91	7
92	11
93	13
94	19
95	20
96	162
98	999
99	70
100	10
102	23
104	6
105	18
106	29
107	15
108	18
109	23
110	20
111	6
112	6
113	5
114	5
115	11
116	23
118	6
119	9
120	16
121	23
122	26
123	60
124	17
125	8
131	11
132	11
133	9
134	20
135	14
136	10
137	48
138	13
139	10
140	12
146	4
147	8
148	11
149	18
150	21
151	85
152	13
153	4
160	5
161	5
162	8
163	9
164	10
165	54
166	15
167	24
168	3
174	6
175	4
176	21
177	15
178	18
179	60
180	10
182	4
188	8
189	8
190	25
191	9
192	64
193	20
194	4
195	25
196	3
200	3
202	9
203	8
204	39
205	8
206	79
207	52
208	8
216	8
217	8
218	39
219	9
220	367
221	57
222	5
230	12
231	5
232	22
234	224
235	42
236	5
244	2
246	112
248	654
249	109
250	12
258	5
260	10
262	558
263	340
264	55
265	5
274	40
276	482
277	93
278	13
279	1
289	1
291	534
292	98
293	12
294	1
