Mass Spectrum: Benzamide, N-(9-borabicyclo[3.3.1]non-9-yl)-
Formula: C15H20BNO
CAS: 150465-97-7
Molecular weight: 241
m/z	intensity
27	27
29	21
30	8
37	5
38	5
39	39
40	27
41	68
42	27
43	17
44	6
50	28
51	119
52	22
53	24
54	39
55	60
56	37
57	6
63	6
64	6
65	19
66	20
67	94
68	50
69	54
70	16
71	3
74	7
75	9
76	32
77	593
78	58
79	34
80	38
81	61
82	49
83	16
84	4
87	2
89	8
90	3
91	22
92	11
93	16
94	21
95	62
96	64
97	61
98	6
99	4
102	6
103	27
104	999
105	645
106	101
107	18
108	27
109	42
110	54
111	3
113	2
115	4
116	4
117	4
118	3
119	17
120	9
121	69
122	15
123	7
128	3
129	8
130	18
131	76
132	331
133	73
134	19
135	17
136	17
137	22
138	57
139	5
141	3
142	2
144	17
145	56
146	31
147	13
148	5
149	3
155	3
156	4
157	28
158	104
159	59
160	25
161	4
163	3
164	6
169	5
170	8
171	18
172	33
173	7
183	13
184	52
185	33
186	15
187	11
196	3
197	60
198	236
199	41
200	18
201	3
211	13
212	64
213	34
214	4
217	2
224	3
226	5
239	32
240	195
241	292
242	51
243	5
