Mass Spectrum: Glycyl-dl-norleucine
Formula: C8H16N2O3
CAS: 1504-41-2
Molecular weight: 188
m/z	intensity
15	4
17	2
18	8
26	2
27	30
28	54
29	31
30	999
31	70
32	9
36	1
39	16
40	3
41	48
42	15
43	34
44	12
45	5
46	2
51	1
52	1
53	3
54	5
55	14
56	20
57	14
58	2
59	2
60	1
67	3
68	3
69	20
70	14
71	3
73	9
74	10
75	1
81	1
82	2
83	1
84	8
85	13
86	94
87	6
88	1
89	3
95	1
96	1
97	1
98	6
99	6
100	1
101	1
102	1
103	1
112	5
113	2
114	19
115	2
116	1
126	1
127	10
128	1
130	5
131	2
132	19
133	1
141	1
142	5
143	8
144	1
145	4
154	5
155	2
158	4
159	1
170	2
171	1
188	14
189	2
