Mass Spectrum: 3-Hydroxymethylene-1,7,7-trimethylbicyclo[2.2.1]heptan-2-one
Formula: C11H16O2
CAS: 15051-75-9
Molecular weight: 180
m/z	intensity
24	1
25	4
26	21
27	333
28	91
29	366
30	8
31	34
32	1
36	1
37	3
38	16
39	457
40	86
41	999
42	111
43	794
44	28
45	454
46	11
47	3
48	1
49	2
50	20
51	93
52	44
53	256
54	58
55	597
56	51
57	67
58	7
59	48
60	320
61	16
62	9
63	28
64	9
65	123
66	45
67	305
68	109
69	312
70	98
71	43
72	5
73	3
74	7
75	20
76	6
77	179
78	40
79	185
80	42
81	281
82	120
83	349
84	113
85	17
86	5
87	4
89	7
90	6
91	236
92	45
93	141
94	131
95	682
96	257
97	236
98	27
99	10
100	1
101	1
102	2
103	17
104	8
105	71
106	34
107	105
108	100
109	926
110	140
111	48
112	10
113	3
114	2
115	12
116	4
117	16
118	7
119	196
120	227
121	70
122	34
123	216
124	208
125	38
126	5
127	2
128	4
129	9
130	1
131	5
132	5
133	52
134	82
135	47
136	201
137	656
138	178
139	25
140	3
141	1
143	2
144	2
145	5
146	3
147	120
148	15
149	11
150	6
151	115
152	398
153	45
154	4
159	1
160	1
161	14
162	11
163	19
164	8
165	620
166	68
167	6
168	2
177	2
178	11
179	8
180	766
181	110
182	10
183	1
