Mass Spectrum: Carbamic acid, N-[1-(2-chloroethylaminocarbonyl)-2-(3-indolyl)ethyl]-, benzyl ester
Formula: C21H22ClN3O3
CAS: 15054-20-3
Molecular weight: 399
m/z	intensity
33	5
35	36
36	149
38	61
39	25
40	23
41	13
42	8
44	48
45	12
46	0
48	0
49	1
50	13
51	27
52	9
53	4
54	2
55	4
56	3
57	3
58	1
59	0
60	1
61	2
62	7
63	30
65	82
66	4
67	0
69	4
70	4
71	9
72	24
73	2
74	5
75	10
77	109
78	17
79	21
80	3
81	1
82	1
83	1
84	1
85	4
86	2
87	1
89	31
91	502
92	33
93	3
94	0
96	3
97	3
99	253
100	19
101	12
102	37
103	64
104	9
105	9
106	6
107	18
108	10
109	1
110	0
111	0
112	1
113	2
115	18
116	6
117	14
118	4
119	4
120	3
121	1
122	0
123	1
124	1
125	3
126	6
127	8
128	36
130	999
131	97
132	11
133	2
134	6
135	5
136	3
137	1
139	4
140	4
141	6
143	48
144	8
145	2
146	2
147	1
148	2
149	3
150	3
151	1
152	1
153	1
154	3
155	8
156	9
157	26
158	14
159	8
160	1
161	2
162	1
163	1
164	1
165	1
166	0
167	3
168	2
169	8
170	26
171	6
172	1
173	1
174	2
175	1
176	0
177	0
178	0
179	2
180	2
181	1
182	1
183	2
184	3
185	6
186	1
187	0
188	0
189	1
190	0
191	0
192	0
193	1
194	0
195	0
196	0
197	0
198	0
199	0
200	0
201	1
202	1
203	1
204	1
205	1
206	5
207	1
208	5
209	2
211	50
212	25
213	28
214	5
215	0
216	0
217	0
218	2
219	1
220	4
221	1
222	1
223	0
224	0
225	1
226	1
227	1
228	3
229	1
230	1
231	1
232	2
234	270
235	36
236	4
237	0
240	0
245	0
246	0
248	74
249	13
250	23
251	3
252	0
253	0
255	0
256	0
258	0
270	0
272	1
273	0
285	1
292	3
293	1
301	0
306	0
362	0
363	17
364	4
365	0
372	0
397	0
399	3
400	0
401	1
