Mass Spectrum: 2H-Pyran, 2,2'-[1,6-hexanediylbis(oxy)]bis[tetrahydro-
Formula: C16H30O4
CAS: 15057-15-5
Molecular weight: 286
m/z	intensity
26	5
27	50
28	40
29	80
30	2
31	29
38	0
39	30
40	9
41	184
42	31
43	73
44	13
45	5
47	2
50	0
51	1
52	1
53	9
54	11
55	166
56	57
57	72
58	3
59	3
65	1
66	0
67	76
68	7
69	8
70	3
71	5
72	1
73	0
74	1
79	2
80	0
81	8
82	8
83	72
84	49
85	999
86	48
87	7
91	0
93	0
95	1
96	0
97	1
98	6
99	21
100	7
101	164
102	9
103	7
104	0
105	1
111	3
112	1
113	4
114	0
115	2
116	4
117	5
118	1
119	5
121	0
123	0
126	0
127	1
128	1
129	8
130	1
131	0
135	0
137	0
138	0
140	0
143	0
144	0
145	0
147	0
149	0
152	0
153	0
155	1
156	1
157	0
169	1
170	1
171	6
172	1
173	1
175	0
182	0
183	4
184	2
185	5
186	1
187	2
199	1
201	46
202	6
203	2
