Mass Spectrum: Cyclobutane, 1,1-dichloro-
Formula: C4H6Cl2
CAS: 1506-77-0
Molecular weight: 124
m/z	intensity
39	40
41	30
53	170
62	150
64	60
75	20
77	10
89	310
91	120
96	999
98	769
100	140
109	40
111	30
113	10
124	8
126	7
128	1
