Mass Spectrum: 4-Cyclohexene-1,2-diol, 2TMS derivative
Formula: C12H26O2Si2
CAS: 150648-21-8
Molecular weight: 258
m/z	intensity
26	1
27	6
28	4
29	15
31	4
39	11
41	11
43	27
44	23
45	145
46	8
47	33
49	1
50	6
51	14
52	28
53	10
55	6
57	6
58	9
59	56
60	6
61	19
65	2
66	61
67	19
70	0
71	4
72	18
73	999
74	91
75	154
76	12
77	55
78	38
79	118
80	10
81	7
83	0
85	6
87	5
91	2
93	1
94	16
95	6
99	14
100	3
101	21
102	1
103	51
104	4
105	5
111	7
113	3
114	32
115	16
116	21
117	12
119	6
120	2
125	3
127	9
129	1
131	42
132	5
133	83
134	11
135	6
137	0
139	1
142	54
143	7
147	537
148	85
149	52
150	5
151	16
153	8
155	450
156	65
157	21
163	0
167	17
168	374
169	59
170	22
177	71
178	10
179	4
188	8
189	28
190	4
191	4
192	8
204	634
205	125
206	56
207	5
243	22
244	2
258	25
259	4
