Mass Spectrum: Methyl-2-O-methyl.alpha.d-glucopyranoside
Formula: C8H16O6
CAS: 15064-82-1
Molecular weight: 208
m/z	intensity
45	159
55	27
56	31
57	87
58	23
59	103
60	31
61	103
69	23
71	91
73	91
74	999
75	63
85	75
87	406
88	119
89	34
97	12
98	9
99	27
101	19
102	10
103	13
111	8
112	15
113	8
115	7
117	6
127	6
129	3
130	23
144	5
145	24
147	1
148	1
158	10
159	15
177	7
