Mass Spectrum: Arsenic acid tripentyl ester
Formula: C15H33AsO4
CAS: 15063-75-9
Molecular weight: 352
m/z	intensity
40	90
41	944
42	999
43	515
44	227
45	80
50	25
51	35
53	90
54	30
55	944
56	141
57	186
58	60
67	35
69	232
70	464
71	111
85	25
87	30
91	50
109	227
121	50
130	25
143	550
161	60
178	25
179	181
213	131
249	111
265	55
283	197
284	20
295	20
