Mass Spectrum: Disilane, ethylpentamethyl-
Formula: C7H20Si2
CAS: 15063-64-6
Molecular weight: 160
m/z	intensity
25	4
27	10
29	47
30	5
31	81
33	2
39	2
40	9
41	4
42	15
43	211
44	53
45	250
46	16
47	8
48	1
53	13
54	2
55	29
56	5
57	33
58	99
59	849
60	64
61	29
66	1
67	4
69	22
70	11
71	24
72	35
73	999
74	92
75	34
81	5
83	9
84	6
85	56
86	63
87	581
88	61
89	21
94	2
97	3
99	19
100	3
101	26
102	9
103	6
113	5
115	26
116	10
117	289
118	37
119	18
120	1
129	11
131	222
132	34
133	19
134	2
145	86
146	15
147	8
149	2
160	167
161	30
162	12
