Mass Spectrum: .alpha.-Pinene, 10-(dimethylaminomethyl)-
Formula: C13H23N
CAS: 15063-97-5
Molecular weight: 193
m/z	intensity
27	46
28	10
29	33
30	50
31	5
38	1
39	41
40	7
41	58
42	73
43	25
44	14
45	1
46	0
50	3
51	12
52	7
53	20
54	3
55	9
56	10
57	9
58	999
59	37
60	0
62	0
63	4
64	1
65	13
66	3
67	6
68	1
69	3
70	2
71	2
72	0
74	0
75	0
76	0
77	21
78	7
79	13
80	2
81	2
82	1
84	0
89	0
90	0
91	22
92	4
93	4
94	1
95	0
96	0
102	0
103	2
104	1
105	9
106	1
107	1
108	1
109	0
110	0
115	1
116	0
117	1
118	0
119	2
120	0
121	0
122	1
123	0
124	0
128	0
131	0
132	0
133	0
134	0
136	0
146	0
148	0
149	0
150	0
178	1
192	0
193	2
194	0
