Mass Spectrum: Ethyl hydrogen 4-oxoheptanedioate
Formula: C9H14O5
CAS: 1506-55-4
Molecular weight: 202
m/z	intensity
15	2
17	3
18	11
26	5
27	46
28	50
29	114
30	7
31	9
32	1
39	3
41	6
42	15
43	26
44	9
45	91
46	3
47	1
51	1
53	3
54	2
55	159
56	75
57	50
58	2
59	4
60	4
61	1
65	3
67	5
68	3
69	2
70	9
71	3
72	2
73	213
74	186
75	52
76	2
77	2
79	1
81	1
82	3
83	35
84	16
85	3
87	1
93	2
95	2
96	3
97	3
98	9
99	4
100	4
101	999
102	347
103	23
104	2
109	2
110	11
111	255
112	41
113	4
114	1
116	1
121	3
128	11
129	760
130	53
131	6
138	10
139	33
140	3
147	1
155	1
156	11
157	223
158	18
159	2
184	6
185	16
186	2
202	5
203	4
