Mass Spectrum: 6,10-Dithiaspiro[4,5]decane
Formula: C8H14S2
CAS: 15077-17-5
Molecular weight: 174
m/z	intensity
46	310
47	240
53	90
58	280
59	80
65	230
67	999
68	60
71	500
72	100
73	150
74	100
79	100
85	190
97	90
100	880
101	70
106	60
107	90
113	180
114	60
127	100
132	130
141	280
145	430
146	60
147	40
174	820
175	86
176	76
177	7
178	2
