Mass Spectrum: Benzoic acid, (4-pyridylmethylene)hydrazide
Formula: C13H11N3O
CAS: 1507-93-3
Molecular weight: 225
m/z	intensity
33	17
34	2
35	4
36	19
37	23
38	72
39	116
40	32
41	13
42	9
43	12
44	14
45	4
46	0
47	0
48	2
50	140
51	326
52	34
53	7
54	4
55	2
56	0
57	1
58	0
60	3
61	7
62	23
63	86
64	50
65	32
66	31
67	2
68	0
69	1
70	0
71	0
73	5
74	21
75	21
77	635
78	55
79	6
80	1
81	0
82	0
83	0
84	1
85	0
86	0
87	1
88	0
89	1
90	1
91	8
92	9
93	10
94	1
95	0
97	0
98	0
99	0
100	0
102	3
105	999
106	81
108	0
109	0
110	0
111	0
112	0
113	0
114	0
115	2
116	0
117	0
118	1
121	245
122	22
123	1
125	0
126	0
127	0
128	1
129	0
130	0
132	0
134	0
135	0
136	1
137	0
138	0
139	0
140	0
141	0
143	0
144	0
145	0
146	1
147	5
148	1
149	0
159	0
160	0
161	0
162	0
166	0
167	0
168	0
171	1
172	1
173	1
174	0
175	0
176	0
181	0
197	0
223	1
224	3
225	18
226	2
227	0
