Mass Spectrum: N-[2-(6-Amino-9H-purin-9-yl)ethyl]-1,3-propanediamine
Formula: C10H17N7
CAS: 150899-84-6
Molecular weight: 235
m/z	intensity
40	52
41	181
42	219
43	176
44	999
45	57
52	18
53	36
54	70
55	76
56	217
57	294
58	41
59	19
65	12
66	29
67	50
68	67
69	29
70	92
71	54
79	20
80	15
81	27
82	31
83	30
84	15
85	34
87	38
92	10
94	19
95	24
98	11
99	11
100	189
101	13
108	48
109	11
119	21
121	11
135	106
136	381
137	16
148	174
149	82
162	16
163	18
191	21
