Mass Spectrum: Propanedinitrile, ethylidene-
Formula: C5H4N2
CAS: 1508-07-2
Molecular weight: 92
m/z	intensity
26	74
27	305
28	42
29	5
30	0
31	10
36	24
37	168
38	243
39	95
40	98
41	959
42	24
43	6
44	2
45	6
46	1
47	0
48	6
49	13
50	23
51	53
52	446
53	18
54	1
55	1
56	1
57	1
58	0
59	3
60	2
61	1
62	69
63	193
64	242
65	210
66	259
67	10
68	0
69	2
70	0
71	1
73	3
74	4
75	8
76	14
77	44
78	17
79	1
81	1
82	0
83	1
84	2
85	0
86	1
87	0
88	10
89	43
90	20
91	80
92	999
93	96
94	3
95	0
