Mass Spectrum: 2-Deoxysorbitol pentaacetate
Formula: C16H24O10
CAS: 15086-09-6
Molecular weight: 376
m/z	intensity
41	4
42	8
43	999
44	17
45	4
53	1
54	1
55	8
56	4
57	17
58	1
60	1
61	10
66	1
67	2
68	2
69	5
70	30
71	9
72	2
73	10
74	1
79	1
80	1
81	5
82	6
83	6
84	2
85	8
86	4
87	3
88	1
94	5
95	15
96	2
97	1
98	2
99	56
100	5
101	1
102	1
103	54
104	2
111	5
112	42
113	9
114	1
115	81
116	37
117	40
118	2
124	1
126	2
127	2
128	1
129	55
130	4
141	17
142	4
145	33
146	2
153	1
154	14
155	7
157	5
158	25
159	59
160	4
171	1
172	1
175	5
187	3
196	1
201	29
202	2
214	5
215	1
217	13
218	1
231	5
303	9
304	1
317	2
