Mass Spectrum: Thiourea, N-phenyl-N'-(2-phenylethyl)-
Formula: C15H16N2S
CAS: 15093-42-2
Molecular weight: 256
m/z	intensity
15	2
26	8
27	50
28	39
29	4
30	613
31	9
32	37
33	34
34	112
35	2
36	6
37	17
38	34
39	139
40	26
41	39
42	13
43	16
44	11
45	10
46	36
47	3
49	8
50	98
51	306
52	64
53	19
54	23
55	5
56	2
57	5
58	8
59	9
60	9
61	13
62	29
63	89
64	55
65	276
66	277
67	35
68	4
69	5
70	5
71	3
72	35
73	8
74	35
75	33
76	57
77	848
78	193
79	130
80	9
81	3
82	3
83	4
84	7
85	3
86	4
87	5
88	4
89	48
90	49
91	999
92	225
93	950
94	79
95	5
96	2
97	3
98	3
99	1
100	1
101	7
102	36
103	250
104	391
105	535
106	62
107	5
108	29
109	24
110	12
111	3
112	1
113	1
114	1
115	2
116	21
117	60
118	144
119	129
120	40
121	57
122	7
123	2
124	2
125	2
127	1
128	12
129	7
130	7
131	911
132	88
133	7
134	9
135	726
136	91
137	37
138	5
139	1
147	16
148	2
149	2
150	2
151	336
152	192
153	31
154	9
155	1
162	4
163	472
164	55
165	66
166	9
167	5
168	1
177	1
178	2
179	3
180	14
181	3
190	1
191	1
192	2
193	7
194	45
195	12
196	2
203	1
204	2
205	2
206	1
218	4
219	9
220	4
221	9
222	405
223	76
224	10
225	1
255	7
256	292
257	54
258	17
259	2
