Mass Spectrum: 4-(Diethylphosphoryl)-4-methylpentan-2-one
Formula: C10H21O2P
CAS: 15090-36-5
Molecular weight: 204
m/z	intensity
33	3
34	3
36	5
37	2
39	180
40	44
41	310
43	999
44	76
45	44
47	155
48	126
49	351
50	28
51	14
53	47
55	157
56	107
57	75
58	22
59	48
60	12
61	63
62	14
63	67
64	13
65	40
67	59
68	5
69	26
70	11
71	18
72	3
73	12
75	32
76	56
77	385
78	730
79	41
80	7
81	47
82	25
83	121
84	13
85	14
87	4
89	26
90	8
91	12
92	23
93	21
94	28
95	23
97	7
99	178
100	12
101	2
103	8
105	186
106	776
107	86
108	9
109	3
110	2
111	5
112	3
113	2
117	7
118	14
119	3
120	26
121	12
122	3
123	195
124	16
131	2
133	3
134	2
135	2
137	1
139	2
147	26
148	48
149	3
160	5
161	56
162	14
163	1
174	4
175	178
176	15
177	1
187	2
189	17
190	1
204	18
205	1
