Mass Spectrum: 3-(1H-Pyrrol-3-yl)propionic acid, methyl ester
Formula: C8H11NO2
CAS: 150985-69-6
Molecular weight: 153
m/z	intensity
26	3
27	22
28	39
29	5
37	3
38	10
39	50
40	12
41	27
42	8
43	5
46	2
47	8
50	6
51	15
52	21
53	73
54	7
55	4
59	9
61	6
63	9
64	4
65	34
66	17
67	54
68	12
77	6
78	7
79	11
80	999
81	62
82	3
91	4
92	32
93	147
94	364
95	22
96	10
110	11
120	6
121	3
122	43
123	3
138	1
149	2
152	2
153	386
154	28
155	2
