Mass Spectrum: Ethylenimine
Formula: C2H5N
CAS: 151-56-4
Molecular weight: 43
m/z	intensity
12	19
13	38
14	104
15	353
16	17
17	12
18	5
21	14
24	4
25	21
26	76
27	123
28	798
29	26
30	9
38	54
39	74
40	181
41	261
42	999
43	599
44	24
