Mass Spectrum: p-Mentha-1,8-dien-7-yl acetate
Formula: C12H18O2
CAS: 15111-96-3
Molecular weight: 194
m/z	intensity
26	3
27	126
29	91
30	1
31	6
37	0
38	4
39	159
40	45
41	292
42	26
43	999
44	20
50	8
51	35
52	25
53	146
54	17
55	124
56	25
57	8
58	4
59	5
61	12
62	1
63	10
64	4
65	70
66	52
67	281
68	579
69	68
70	18
71	9
72	0
73	7
74	0
75	0
76	2
77	135
78	71
79	287
80	82
81	77
82	14
83	63
84	276
85	20
86	1
89	4
90	3
91	621
92	472
93	390
94	50
95	25
96	10
97	8
98	3
99	0
100	0
101	4
102	1
103	15
104	10
105	261
106	262
107	59
108	73
109	110
110	14
111	5
115	11
116	3
117	29
118	11
119	514
120	51
121	37
122	5
123	12
124	8
125	2
126	2
127	2
128	0
131	4
132	3
133	35
134	501
135	71
136	12
137	10
138	2
148	1
149	1
150	7
151	12
152	302
153	33
154	3
166	9
167	1
177	2
192	2
194	104
195	14
196	1
