Mass Spectrum: Benzenebutanoic acid, .alpha.,.alpha.-dimethyl-.gamma.-oxo-
Formula: C12H14O3
CAS: 15116-34-4
Molecular weight: 206
m/z	intensity
39	160
40	30
41	170
42	30
43	60
44	10
45	70
46	10
50	100
51	380
52	50
53	30
55	70
56	180
57	30
59	80
62	10
63	30
64	10
65	40
66	10
67	10
69	60
70	10
73	30
74	20
75	40
76	80
77	810
78	220
79	20
83	20
87	10
89	20
90	10
91	70
92	20
93	10
101	10
102	10
103	10
104	20
105	999
106	270
107	20
115	50
116	10
117	10
118	10
119	10
120	730
121	70
122	10
123	140
124	10
127	10
128	20
129	30
130	10
131	10
132	10
141	10
143	20
144	10
145	40
146	10
147	90
148	10
159	10
160	210
161	40
162	40
163	10
173	20
178	10
188	10
189	10
190	10
191	10
206	540
207	70
208	10
