Mass Spectrum: Phosphonofluoridic acid, methyl-
Formula: CH4FO2P
CAS: 1511-67-7
Molecular weight: 98
m/z	intensity
45	59
47	241
48	78
50	81
52	129
63	89
65	19
66	30
67	198
68	30
69	30
78	377
79	91
80	700
81	200
83	942
96	49
97	197
98	999
99	310
