Mass Spectrum: 2-Exo-methyl-3-methylenebenzonorbornene
Formula: C13H14
CAS: 151123-60-3
Molecular weight: 170
m/z	intensity
41	25
50	42
51	138
52	17
53	43
55	25
56	5
61	12
62	46
63	202
64	26
65	92
66	9
69	6
74	39
75	40
76	63
77	96
78	19
86	16
87	36
88	31
89	130
90	11
91	50
94	9
99	6
101	12
102	40
103	12
113	33
114	22
115	999
116	827
117	90
118	5
126	38
127	127
128	633
129	310
130	50
131	5
139	84
140	14
141	744
142	202
143	81
144	46
151	15
152	97
153	114
154	75
155	629
156	95
165	28
169	40
170	531
171	73
172	39
173	8
