Mass Spectrum: 2-(Ethylideneamino)acetonitrile
Formula: C4H6N2
CAS: 151171-30-1
Molecular weight: 82
m/z	intensity
25	18
26	120
27	196
28	263
29	66
30	44
38	45
39	77
40	486
41	263
42	156
43	8
49	9
50	6
51	29
52	53
53	39
54	237
55	124
56	76
57	5
66	21
67	999
68	46
79	5
80	7
81	152
82	97
83	12
