Mass Spectrum: cis-anti-cis Dicyclohexyl-18-crown-6
Formula: C20H36O6
CAS: 15128-66-2
Molecular weight: 372
m/z	intensity
39	39
40	11
41	341
42	133
43	381
44	176
45	999
46	24
47	1
50	4
51	5
52	4
53	76
54	110
55	187
56	23
57	216
58	99
59	156
60	5
61	9
62	3
63	9
66	2
67	144
68	33
69	147
70	81
71	56
72	101
73	233
74	1
75	8
77	5
78	9
79	99
80	53
81	427
82	99
83	53
84	27
85	7
86	27
87	127
88	44
89	227
92	4
93	4
94	2
95	7
96	50
97	127
98	14
99	341
100	21
101	41
105	3
107	41
108	1
110	0
111	7
112	9
113	24
114	21
115	7
117	5
123	3
124	21
125	20
126	33
127	41
128	0
129	1
133	7
140	50
141	110
142	73
143	184
144	12
155	41
156	5
157	3
158	23
159	2
168	21
169	24
170	21
171	9
172	0
184	4
185	49
186	21
187	79
188	2
229	5
