Mass Spectrum: Cyclopentane, 1-acetyl-1,2-epoxy-
Formula: C7H10O2
CAS: 15121-02-5
Molecular weight: 126
m/z	intensity
25	1
26	22
27	96
28	35
29	113
30	4
31	7
36	1
37	7
38	15
39	106
40	19
41	106
42	59
43	999
44	35
45	7
46	0
49	2
50	17
51	24
52	11
53	61
54	23
55	842
56	78
57	28
58	7
59	1
60	1
61	3
62	4
63	7
64	3
65	19
66	15
67	20
68	11
69	62
70	38
71	30
72	4
73	2
74	1
75	2
76	1
77	7
78	2
79	11
80	4
81	14
82	20
83	589
84	94
85	9
86	1
87	0
88	1
89	1
90	1
91	2
92	1
93	5
94	1
95	7
96	3
97	28
98	17
99	5
100	1
101	1
104	0
105	1
106	1
107	2
108	2
109	4
110	4
111	21
112	2
113	1
123	1
124	1
125	3
126	195
127	17
128	2
