Mass Spectrum: trans-syn-trans-dicyclohexyl-18-crown-6
Formula: C20H36O6
CAS: 15128-65-1
Molecular weight: 372
m/z	intensity
39	44
40	12
41	370
42	139
43	227
44	181
45	999
46	24
47	56
48	20
49	15
50	5
51	4
52	3
53	5
54	107
55	287
56	21
57	227
58	6
59	127
60	3
61	9
62	3
63	11
64	1
65	8
66	11
67	193
68	58
69	227
70	222
71	99
72	196
73	401
74	15
75	24
77	15
78	27
79	110
80	87
81	884
82	219
83	194
84	4
85	227
86	47
87	227
88	107
89	370
90	19
91	21
93	12
94	18
95	27
96	11
97	179
98	227
99	456
100	36
101	70
102	6
103	9
104	7
105	24
106	7
107	116
108	11
109	9
110	8
111	14
112	24
113	27
114	30
115	27
116	7
117	16
118	1
119	16
120	4
121	3
122	3
123	9
124	33
125	27
126	44
127	56
128	6
129	7
130	1
131	7
132	1
133	10
134	4
135	1
136	1
137	4
138	1
139	5
140	70
141	204
142	133
143	313
144	39
145	5
147	1
149	9
150	2
151	9
152	0
153	6
154	8
155	67
156	19
157	10
158	16
159	12
160	7
161	5
162	0
163	0
165	0
166	1
167	3
168	37
169	33
170	69
171	27
172	7
173	1
177	1
178	2
179	1
182	0
183	3
184	11
185	70
186	44
187	139
188	13
189	4
195	4
197	0
198	0
199	4
200	1
201	2
202	4
203	9
204	0
205	3
212	3
213	5
214	3
215	1
216	0
225	1
229	9
230	3
231	27
232	3
233	3
247	1
249	0
266	4
267	1
