Mass Spectrum: 1,1'-(p-Phenylenedioxy)bis(3-chloro-2-propanol)
Formula: C12H16Cl2O4
CAS: 15129-28-9
Molecular weight: 294
m/z	intensity
14	1
15	34
18	1
19	1
26	12
27	75
28	12
29	256
30	7
31	90
32	1
35	1
36	7
37	3
38	16
39	69
40	7
41	18
42	14
43	138
44	45
45	8
47	1
49	46
50	34
51	33
52	18
53	44
54	21
55	21
56	4
57	135
58	8
59	1
61	4
62	10
63	61
64	69
65	130
66	35
67	14
68	4
69	4
73	2
74	3
75	17
76	40
77	41
78	15
79	48
80	6
81	103
82	28
83	2
87	1
89	3
90	1
91	10
92	21
93	124
94	38
95	58
96	4
97	2
103	6
104	1
105	8
106	7
107	16
108	5
109	285
110	999
111	78
112	7
115	1
117	1
118	1
119	5
120	1
121	8
122	9
123	77
124	9
125	2
127	1
131	2
133	3
135	18
136	6
137	2
143	2
144	6
145	4
146	2
147	9
148	2
149	4
151	14
152	13
153	2
157	1
158	23
159	3
160	8
161	1
163	1
165	6
166	7
167	1
171	1
173	3
179	1
183	5
184	1
185	7
186	2
187	2
191	1
199	2
201	8
202	179
203	20
204	58
205	6
209	6
211	2
215	12
216	2
217	4
222	1
227	47
228	6
229	15
230	2
236	1
244	4
245	2
246	2
250	2
252	1
258	4
260	1
277	2
279	1
294	174
295	22
296	112
297	13
298	18
299	2
