Mass Spectrum: 2,2-Dimethyl-1-oxa-2-silacyclohexanone-6
Formula: C6H12O2Si
CAS: 15129-96-1
Molecular weight: 144
m/z	intensity
39	20
41	40
42	30
43	60
44	130
45	70
55	20
57	30
58	100
59	130
60	30
61	70
72	999
73	100
74	50
75	160
76	40
77	30
85	80
86	10
87	10
88	80
100	350
101	699
102	70
103	20
116	979
117	100
118	40
129	120
130	10
143	10
144	20
