Mass Spectrum: Ethanone, 1-(trimethyloxiranyl)-
Formula: C7H12O2
CAS: 15120-99-7
Molecular weight: 128
m/z	intensity
31	25
39	100
40	20
41	230
42	60
43	999
44	25
45	20
50	5
51	5
53	35
54	5
55	55
56	5
57	135
58	15
59	95
60	5
61	5
65	5
67	30
69	35
70	30
71	220
72	5
79	5
85	210
86	200
87	10
88	30
109	5
110	10
112	5
113	150
