Mass Spectrum: N,N-Diethyl-N'-propylacetamidine
Formula: C9H20N2
CAS: 151328-42-6
Molecular weight: 156
m/z	intensity
27	166
29	109
42	999
43	93
44	93
56	63
58	79
68	55
70	465
71	88
72	133
83	27
84	118
85	33
99	73
100	9
111	6
113	21
114	8
125	5
127	93
128	11
139	3
141	55
142	4
156	333
157	35
