Mass Spectrum: (2E,4E)-1-(Piperidin-1-yl)octadeca-2,4-dien-1-one
Formula: C23H41NO
CAS: 151391-73-0
Molecular weight: 347
m/z	intensity
27	21
29	77
40	14
41	319
42	77
43	312
44	20
53	138
56	77
57	127
65	53
66	153
67	252
68	56
69	309
70	53
71	30
77	64
79	167
80	46
81	522
82	96
83	113
84	999
85	101
86	71
91	43
93	89
94	96
95	166
96	48
97	58
98	21
105	20
107	95
108	37
109	60
110	30
111	17
112	311
121	42
122	44
123	38
124	29
125	23
126	29
127	258
128	36
134	35
136	37
137	61
138	587
139	174
140	45
150	146
151	73
152	89
153	39
164	824
165	121
166	54
178	305
179	181
180	46
192	872
193	136
194	20
206	134
207	30
218	23
220	92
221	25
234	87
236	13
242	19
250	18
262	73
263	42
264	10
276	49
277	14
290	49
291	13
304	62
305	14
306	11
318	60
319	17
330	104
331	23
332	41
333	8
346	90
347	332
348	86
349	11
