Mass Spectrum: Silane, (fluoromethyl)dimethyl-
Formula: C3H9FSi
CAS: 151479-73-1
Molecular weight: 92
m/z	intensity
26	2
27	14
29	42
30	3
31	108
33	16
39	2
40	3
41	11
42	41
43	110
44	15
45	54
46	2
47	154
48	16
49	207
50	11
51	5
52	1
53	22
54	4
55	13
56	1
57	53
58	31
59	999
60	84
61	52
62	21
63	204
64	15
65	7
67	0
70	0
71	0
72	3
73	0
74	0
75	5
76	4
77	53
78	4
79	0
84	0
92	4
93	0
