Mass Spectrum: 2-Bromopropionic acid, cyclohexyl ester
Formula: C9H15BrO2
CAS: 15151-89-0
Molecular weight: 234
m/z	intensity
25	19
26	133
27	436
28	18
29	86
30	5
39	180
40	56
41	380
42	63
43	124
44	6
53	87
54	176
55	751
56	149
57	104
58	14
59	3
60	3
61	7
62	12
63	268
64	17
65	88
66	12
67	323
68	34
69	57
70	13
71	16
72	18
73	13
74	15
75	8
76	11
77	13
81	75
82	391
83	999
84	81
85	10
86	2
89	3
90	6
91	48
92	7
93	18
95	5
97	2
98	2
99	29
100	10
105	5
106	9
107	95
108	18
109	112
110	8
111	5
113	3
119	3
121	2
127	4
134	6
135	89
136	9
137	96
138	3
139	3
141	3
152	3
154	2
155	5
