Mass Spectrum: 1H-Pyrazol-1-amine, 5-methyl-3-nitro-
Formula: C4H6N4O2
CAS: 151588-03-3
Molecular weight: 142
m/z	intensity
36	20
37	62
38	115
39	650
40	306
41	999
42	402
43	112
44	61
45	11
46	88
47	16
49	5
50	54
51	66
52	108
53	73
54	129
55	97
56	36
57	21
63	1
64	25
65	17
66	117
67	93
68	33
69	4
71	0
72	21
73	1
81	0
82	3
86	1
87	0
89	1
95	0
96	61
97	20
106	0
137	0
141	8
142	342
143	94
144	0
