Mass Spectrum: 2-Butanone, 4-chloro-4,4-difluoro-
Formula: C4H5ClF2O
CAS: 1515-16-8
Molecular weight: 142
m/z	intensity
12	1
13	1
14	9
15	48
16	1
18	1
24	1
25	2
26	6
27	10
28	2
29	5
31	10
32	1
33	5
35	2
36	2
37	4
38	5
39	9
40	2
41	10
42	56
43	999
44	62
45	14
46	1
47	2
48	1
49	14
50	3
51	9
52	1
53	1
54	1
55	1
56	1
57	2
58	2
59	1
60	1
61	2
62	2
63	46
64	32
65	16
66	1
67	2
68	1
69	2
71	4
72	1
73	1
74	1
75	4
76	1
77	2
78	1
79	16
80	6
81	6
82	2
83	1
85	30
86	1
87	10
88	1
89	1
90	1
91	17
92	1
95	1
97	1
98	1
99	60
100	2
101	20
102	1
103	3
104	1
105	1
106	1
107	2
109	1
111	1
113	1
120	1
123	1
125	1
127	35
128	1
129	11
130	1
139	1
141	1
142	45
143	3
144	15
145	1
