Mass Spectrum: Xanthine, 1,3-dipropyl-8-[2-(3-nitrophenyl)ethenyl]-
Formula: C19H21N5O4
CAS: 151539-32-1
Molecular weight: 383
m/z	intensity
41	130
42	82
43	112
44	175
45	276
46	78
47	1
48	2
49	34
50	592
51	750
52	184
53	104
54	17
55	68
56	22
57	31
58	104
59	15
60	11
61	43
62	127
63	362
64	78
65	608
66	40
67	23
68	21
69	69
70	14
71	29
72	18
73	136
74	293
75	401
76	424
77	492
78	47
79	86
80	10
81	15
82	5
83	10
84	17
85	16
86	15
87	33
88	12
89	169
90	81
91	999
92	86
93	16
94	4
95	11
96	3
97	14
98	43
99	17
100	10
101	357
102	613
103	128
104	15
105	23
106	7
107	26
108	4
109	3
110	1
111	3
112	1
113	2
114	2
115	7
116	6
117	42
118	215
119	52
120	12
121	5
122	1
123	4
124	2
125	1
127	3
128	6
129	252
130	49
131	6
132	87
133	7
134	5
135	12
136	3
137	1
139	1
140	1
142	1
143	1
144	1
145	11
146	492
147	180
148	52
149	21
150	7
151	2
152	12
153	1
157	1
159	2
160	1
161	1
162	4
163	19
164	2
165	5
166	43
167	4
169	3
174	1
175	103
176	746
177	79
178	5
180	1
181	1
191	1
192	180
193	749
194	78
195	10
207	0
208	1
223	1
252	0
265	1
269	12
283	7
298	21
299	13
318	7
340	9
341	5
383	29
384	7
