Mass Spectrum: 1H-Pyrazole-3-carbonitrile, 1-methyl-4-nitro-
Formula: C5H4N4O2
CAS: 151599-40-5
Molecular weight: 152
m/z	intensity
36	9
37	31
38	39
39	25
40	42
42	999
43	259
46	56
48	3
50	39
51	95
52	97
53	61
54	19
55	6
56	4
57	2
58	0
63	136
64	13
65	9
66	14
67	19
68	13
69	6
70	3
71	0
74	0
76	31
77	37
78	9
79	22
80	4
81	1
83	8
84	5
85	0
90	1
91	1
92	0
93	0
94	2
102	0
103	1
105	7
108	45
109	1
120	0
122	53
124	0
135	1
136	21
137	1
149	1
152	307
153	14
