Mass Spectrum: Dnp-glycyl-l-tryptophan
Formula: C19H17N5O7
CAS: 15159-83-8
Molecular weight: 427
m/z	intensity
41	99
42	60
43	103
44	91
45	11
47	5
49	7
50	24
51	62
52	32
53	29
55	58
56	217
57	213
58	13
62	22
63	42
64	20
65	27
68	14
69	60
70	22
71	36
74	5
75	12
76	23
77	70
78	142
79	32
82	7
83	15
84	13
85	8
86	62
87	6
88	5
89	5
90	19
91	108
92	34
93	6
94	6
102	20
103	30
104	19
105	6
106	15
107	42
108	5
115	5
117	39
119	7
128	11
129	41
130	999
131	100
143	5
144	20
145	20
153	29
154	25
159	12
163	11
170	5
183	42
184	118
186	12
187	174
188	16
196	40
427	17
