Mass Spectrum: Morpholine-4-carbonyl chloride
Formula: C5H8ClNO2
CAS: 15159-40-7
Molecular weight: 149
m/z	intensity
13	1
14	7
15	70
16	2
19	1
25	3
26	77
27	224
28	419
29	206
30	78
31	35
35	10
36	7
37	5
38	8
39	13
40	45
41	116
42	684
43	80
44	44
45	47
46	1
47	2
48	1
49	12
50	1
51	9
52	14
53	4
54	86
55	108
56	999
57	219
58	21
59	2
61	1
62	6
63	317
64	23
65	104
66	7
67	1
68	4
69	53
70	400
71	14
72	8
75	4
76	21
77	5
78	11
79	4
80	2
81	1
82	1
83	2
84	197
85	23
86	407
87	19
88	1
90	13
91	78
92	54
93	43
94	17
95	5
96	1
100	3
104	1
105	29
106	41
107	13
108	13
109	1
112	8
114	859
115	46
116	4
118	9
119	105
120	16
121	44
122	4
123	3
131	1
134	461
135	20
136	154
137	6
148	9
149	359
150	22
151	114
152	6
