Mass Spectrum: 2,4-Hexadienoic acid, methyl ester
Formula: C7H10O2
CAS: 1515-80-6
Molecular weight: 126
m/z	intensity
25	1
26	19
27	80
28	1
29	46
30	4
31	14
33	1
37	16
38	54
39	353
40	72
41	417
42	26
43	51
44	7
45	11
46	2
47	4
49	4
50	25
51	48
52	22
53	47
54	13
55	99
56	8
57	14
58	3
59	75
60	3
61	11
62	19
63	47
64	11
65	158
66	222
67	999
68	58
69	17
70	3
71	9
72	28
73	4
77	8
78	3
79	20
80	3
81	24
82	11
83	84
84	11
85	29
86	2
87	1
91	27
92	3
93	20
94	34
95	715
96	52
97	28
98	18
99	4
105	2
107	2
109	8
110	2
111	879
112	55
113	15
114	1
125	53
126	615
127	38
128	5
