Mass Spectrum: Propen-1-one, 1,3-bis(3-aminophenyl)-
Formula: C15H14N2O
CAS: 151678-34-1
Molecular weight: 238
m/z	intensity
33	5
34	1
35	0
36	4
37	24
38	109
39	447
40	74
41	149
42	64
43	22
44	12
45	4
46	12
50	78
51	127
52	134
53	48
54	48
55	21
56	10
57	17
59	43
61	22
62	79
63	245
64	181
65	999
66	158
67	23
68	6
69	10
70	9
71	9
73	12
74	33
75	54
76	42
77	58
78	36
79	12
80	15
81	5
82	8
83	19
85	7
86	7
87	14
88	19
89	179
90	155
91	477
92	588
93	185
94	15
95	5
96	28
98	30
99	5
100	5
101	26
102	32
103	16
104	44
105	34
106	9
107	2
108	1
109	4
110	8
111	10
112	5
113	6
114	6
115	24
116	71
117	303
118	236
119	64
120	172
121	20
122	2
123	2
124	1
125	3
126	5
127	10
128	28
129	9
130	20
131	4
132	1
134	1
135	0
137	1
138	1
139	10
140	8
141	6
142	5
143	12
144	17
145	56
146	209
147	21
148	1
150	2
151	8
152	14
153	10
154	9
155	3
156	7
157	2
158	0
159	1
162	0
163	6
164	10
165	50
166	16
167	20
168	11
169	8
170	2
171	8
174	0
175	1
176	8
177	10
178	9
179	4
180	25
181	18
182	14
183	4
184	3
189	0
190	12
191	23
192	48
193	79
194	59
195	48
196	10
197	2
198	1
202	0
203	1
204	4
205	4
206	6
207	11
208	46
209	231
210	65
211	8
212	0
219	14
220	16
221	60
222	202
223	37
224	3
233	1
237	370
238	513
239	82
240	9
241	0
