Mass Spectrum: Methanesulfonyl azide
Formula: CH3N3O2S
CAS: 1516-70-7
Molecular weight: 121
m/z	intensity
45	40
46	80
48	280
63	80
64	400
78	30
79	999
80	40
81	60
106	20
121	60
