Mass Spectrum: 2,5-Isoxazolidinedicarboxylic acid, 2-ethyl 5-methyl ester
Formula: C8H13NO5
CAS: 15166-62-8
Molecular weight: 203
m/z	intensity
28	580
29	999
32	610
43	290
44	550
45	370
55	370
56	330
59	670
71	270
72	755
87	515
101	345
115	150
131	160
144	555
203	85
