Mass Spectrum: Cyclobutanone, 2-methyl-
Formula: C5H8O
CAS: 1517-15-3
Molecular weight: 84
m/z	intensity
28	216
29	34
41	345
42	603
43	259
44	29
56	999
69	172
70	34
84	474
85	52
