Mass Spectrum: Benzenemethanol, .alpha.-methyl-, (R)-
Formula: C8H10O
CAS: 1517-69-7
Molecular weight: 122
m/z	intensity
26	13
27	85
28	45
29	55
30	0
31	4
33	1
34	1
37	18
38	30
39	99
40	3
41	11
42	11
43	348
44	14
45	50
49	13
50	119
51	262
52	62
53	43
54	12
55	9
57	3
59	3
60	10
61	13
62	19
63	45
64	6
65	20
66	6
68	4
70	0
73	11
74	50
75	18
76	29
77	503
78	205
79	950
80	63
81	5
87	2
89	9
90	0
91	35
92	3
93	3
94	2
97	2
98	2
102	8
103	43
104	35
105	109
106	17
107	999
108	79
109	3
120	6
121	58
122	342
123	28
124	1
