Mass Spectrum: (1R,2S,5R)-(-)-Menthyl (S)-p-toluenesulfinate
Formula: C17H26O2S
CAS: 1517-82-4
Molecular weight: 294
m/z	intensity
27	32
28	6
29	50
30	1
31	5
38	2
39	44
40	7
41	176
42	16
43	154
44	8
45	16
50	4
51	9
52	4
53	24
54	16
55	298
56	45
57	332
58	16
59	4
61	1
62	2
63	10
64	3
65	50
66	6
67	96
68	34
69	341
70	34
71	176
72	9
73	3
77	30
78	10
79	29
80	33
81	288
82	105
83	999
84	69
85	17
86	7
87	1
89	10
90	8
91	129
92	62
93	17
94	19
95	218
96	73
97	151
98	11
99	9
100	1
105	3
107	10
108	8
109	30
110	11
111	9
112	4
113	2
115	1
117	1
119	4
121	6
122	5
123	96
124	16
125	3
133	4
134	1
135	6
136	2
137	12
138	182
139	558
140	66
141	11
142	2
143	2
152	1
153	3
155	23
156	5
157	83
158	7
159	4
172	9
173	2
198	1
214	1
246	6
262	1
278	27
279	6
280	3
294	4
295	3
296	1
