Mass Spectrum: Piperazine, 1,4-bis[(cyanimino)methylthio]methyl-
Formula: C10H14N6S2
CAS: 151754-88-0
Molecular weight: 282
m/z	intensity
33	3
35	9
36	3
39	9
40	40
41	149
42	356
43	62
44	51
45	112
46	62
47	189
48	48
49	18
52	9
53	41
54	116
55	227
56	279
57	45
58	44
59	43
60	37
61	332
62	10
63	16
66	18
67	60
68	209
69	221
70	99
72	123
73	52
74	228
75	67
76	12
77	3
78	10
79	15
80	115
81	89
82	376
83	102
84	30
85	119
86	41
87	34
88	18
90	4
91	6
92	6
93	23
94	251
95	134
96	24
97	8
99	999
100	97
101	70
102	9
103	8
105	3
106	8
107	11
108	64
109	24
110	67
111	11
112	14
113	21
114	16
115	30
116	9
117	4
118	5
119	6
120	19
121	7
122	11
123	4
125	16
126	187
127	33
128	79
129	28
130	8
131	3
134	11
135	62
136	19
137	57
138	7
139	5
140	64
141	35
142	110
143	13
144	6
149	3
152	160
153	21
154	72
155	63
156	15
157	5
160	6
162	200
163	17
165	3
166	10
167	23
168	236
169	45
170	17
171	7
181	4
183	206
184	23
185	10
187	6
192	3
193	10
194	40
195	7
200	6
203	3
207	23
208	206
209	31
210	107
211	12
212	5
219	7
221	7
225	24
226	2
227	8
235	305
236	36
237	13
251	9
256	2
267	892
268	114
269	74
270	9
281	8
282	79
283	14
284	7
