Mass Spectrum: Diethylammonium diethyldithiocarbamate
Formula: C9H22N2S2
CAS: 1518-58-7
Molecular weight: 222
m/z	intensity
26	29
27	142
29	156
30	867
31	12
34	5
38	34
39	7
40	18
41	36
42	101
43	28
44	314
45	7
46	4
52	4
54	6
56	42
57	15
58	999
59	37
60	7
64	10
70	6
71	4
72	144
73	253
74	16
76	788
77	22
78	68
80	4
88	9
116	7
117	3
149	5
