Mass Spectrum: 3-Methoxy-N,N-dimethylbenzylamine
Formula: C10H15NO
CAS: 15184-99-3
Molecular weight: 165
m/z	intensity
15	21
18	1
26	1
27	10
28	10
29	11
30	33
38	8
39	36
40	5
41	14
42	122
43	18
44	140
45	4
50	15
51	37
52	28
53	10
55	3
56	5
57	27
58	999
59	38
61	0
62	8
63	36
64	19
65	64
66	11
67	4
74	4
75	4
76	8
77	92
78	97
79	36
80	6
82	19
89	30
90	15
91	159
92	43
93	9
94	17
95	1
103	1
104	5
105	10
106	18
107	49
108	6
109	0
117	4
118	4
119	4
120	20
121	285
122	521
123	46
124	2
132	5
133	4
134	14
135	3
148	13
149	12
150	6
162	7
164	186
165	208
166	21
