Mass Spectrum: Urea, N-(2-chloroethyl)-N'-(5-fluoromethyl-2,2-dimethyl-1,3-dioxan-5-yl)-
Formula: C10H18ClFN2O3
CAS: 151917-77-0
Molecular weight: 268
m/z	intensity
39	0
40	0
42	9
43	5
44	2
47	0
48	0
49	0
51	0
52	0
54	6
56	8
57	16
58	22
59	34
60	5
61	8
63	31
65	13
66	3
68	24
69	11
72	133
73	162
75	999
78	9
80	15
82	10
83	6
84	8
85	32
86	14
88	79
89	13
90	24
91	7
92	13
93	0
94	2
95	1
96	1
97	5
98	7
99	2
100	5
101	8
102	22
104	13
105	17
106	33
107	8
108	5
109	1
110	1
111	4
112	10
113	8
114	26
115	11
116	10
117	17
118	3
119	3
120	3
123	139
125	59
126	7
127	3
129	3
130	7
131	14
132	32
133	3
139	0
140	0
141	1
143	5
144	5
145	17
146	12
147	4
148	3
149	4
151	12
152	1
153	2
154	1
155	2
157	1
158	2
159	4
161	41
162	11
163	28
164	6
165	6
166	0
167	0
171	1
172	4
174	48
175	20
176	8
177	12
180	205
181	33
182	46
183	3
187	0
188	1
190	23
191	7
193	57
195	17
196	3
197	7
198	1
199	1
203	2
205	1
207	1
210	216
211	116
212	57
213	30
214	3
217	0
230	0
233	0
235	0
237	0
238	0
248	1
250	9
253	296
255	107
256	5
257	0
