Mass Spectrum: N-Formyl-L-histidine
Formula: C7H9N3O3
CAS: 15191-21-6
Molecular weight: 183
m/z	intensity
12	4
13	1
14	3
15	10
16	17
17	5
18	21
25	2
26	22
27	44
28	337
29	115
30	25
31	4
32	3
37	9
38	24
39	62
40	34
41	51
42	38
43	11
44	168
45	71
46	92
47	3
50	2
51	9
52	41
53	30
54	193
55	67
56	49
57	9
58	1
60	1
63	3
64	9
65	17
66	33
67	17
68	40
69	21
70	1
71	2
74	5
77	2
78	1
79	6
80	11
81	999
82	370
83	104
84	6
85	7
91	3
92	23
93	89
94	293
95	59
96	8
97	2
98	2
102	1
105	1
106	4
107	13
108	17
109	56
110	292
111	22
112	1
118	6
119	51
120	175
121	47
122	10
123	2
124	2
132	1
133	4
134	3
135	5
136	11
137	46
138	324
139	86
140	21
141	1
144	1
146	1
147	3
148	2
149	2
150	1
152	10
153	2
154	6
155	2
162	2
163	6
164	2
165	43
166	5
167	1
180	1
181	4
182	2
183	122
184	12
185	2
