Mass Spectrum: 1,2,4-Triazine-3(2H)-thione, 5,6-dihydro-4-amino-5-hydroxy-5-phenyl-
Formula: C9H10N4OS
CAS: 151998-84-4
Molecular weight: 222
m/z	intensity
33	25
34	4
35	2
37	5
38	16
39	46
40	8
41	19
42	21
43	74
44	16
45	45
46	10
47	18
48	5
50	90
51	180
52	33
53	11
54	8
55	8
56	6
57	13
58	26
59	88
60	114
61	17
62	30
63	37
64	15
65	45
66	5
67	1
68	3
69	13
70	3
71	5
72	3
74	85
75	99
76	72
77	545
78	93
79	31
80	2
81	0
82	1
83	3
84	3
85	8
86	12
87	16
88	5
89	33
90	58
91	121
92	20
93	3
95	1
96	0
97	2
98	2
99	1
100	8
101	8
102	46
103	28
105	649
106	66
107	10
108	1
109	3
110	0
111	1
113	1
114	0
117	999
118	53
119	123
120	11
121	15
122	2
123	2
127	1
128	0
129	1
130	1
131	4
132	9
133	7
134	21
135	6
136	3
137	1
140	0
143	0
144	5
145	7
146	3
147	69
148	10
149	31
150	3
151	4
152	0
159	0
160	2
161	1
162	0
163	5
164	2
171	1
175	0
176	2
177	1
178	1
188	1
189	2
191	5
192	2
193	26
194	2
195	1
197	0
198	0
202	2
203	2
204	3
205	11
206	3
207	1
208	0
209	0
220	1
222	582
223	72
224	33
225	3
226	0
