Mass Spectrum: Tricyclohexyl phosphite
Formula: C18H33O3P
CAS: 15205-58-0
Molecular weight: 328
m/z	intensity
26	0
27	17
29	30
30	1
31	1
38	0
39	20
40	2
41	132
42	8
43	15
44	3
45	1
47	2
50	0
51	1
52	0
53	13
54	31
55	277
56	14
57	15
58	2
59	0
62	0
65	6
66	2
67	84
68	5
69	2
70	1
71	2
72	1
73	0
77	2
78	0
79	11
80	7
81	42
82	131
83	999
84	20
85	5
86	8
87	0
91	0
93	0
95	1
96	21
97	1
98	1
99	12
100	7
101	0
103	0
104	0
105	0
108	0
109	5
110	1
111	0
118	0
120	1
121	0
122	7
123	6
124	0
135	19
136	5
137	3
138	3
145	0
146	3
147	41
148	4
149	3
151	0
162	1
163	6
164	267
165	378
166	26
167	3
181	0
218	0
219	0
220	0
228	0
229	3
230	0
246	5
247	75
248	10
249	1
301	0
328	24
329	5
330	1
