Mass Spectrum: 1,3-Bis(4-methylphenyl)propane
Formula: C17H20
CAS: 1520-43-0
Molecular weight: 224
m/z	intensity
32	3
39	9
40	1
41	33
42	1
51	6
52	1
53	11
63	3
64	0
65	32
66	2
67	1
75	0
77	104
78	29
79	93
80	5
89	6
90	3
91	297
92	27
93	16
98	1
101	0
102	6
103	71
104	49
105	516
106	999
107	77
108	2
112	13
113	1
115	31
116	11
117	134
118	136
119	475
120	45
121	5
128	3
129	4
130	1
131	11
132	80
133	9
165	4
167	1
178	2
179	3
180	1
181	1
191	2
192	2
193	2
194	1
195	2
196	0
207	2
209	1
222	1
223	2
224	453
225	82
226	6
