Mass Spectrum: Benzeneacetic acid, .alpha.-oxo-, methyl ester
Formula: C9H8O3
CAS: 15206-55-0
Molecular weight: 164
m/z	intensity
26	3
27	18
29	22
30	6
37	6
38	17
39	27
41	0
43	2
44	0
49	8
50	113
51	286
52	14
53	9
59	15
61	2
62	7
63	6
64	0
65	1
73	5
74	35
75	23
76	35
77	598
78	40
92	1
104	3
105	999
106	78
107	4
136	20
137	0
164	19
165	0
