Mass Spectrum: Azetidine, 1-nitroso-
Formula: C3H6N2O
CAS: 15216-10-1
Molecular weight: 86
m/z	intensity
30	999
31	20
32	122
37	40
38	61
39	224
40	142
41	530
42	387
43	81
44	244
50	20
51	40
52	61
53	40
54	224
55	285
56	142
57	122
58	20
67	20
68	20
69	102
70	20
71	20
86	428
87	20
