Mass Spectrum: Alpha-acetoxyacetophenone 2,4-dinitrophenylhydrazone
Formula: C16H14N4O6
CAS: 15212-17-6
Molecular weight: 358
m/z	intensity
13	1
14	8
15	8
16	1
26	3
27	11
28	47
29	5
30	20
31	1
37	2
38	7
39	9
40	3
41	9
42	37
43	141
44	11
45	44
46	1
49	1
50	15
51	39
52	10
53	3
55	2
57	2
60	51
61	3
62	8
63	19
64	9
65	5
66	2
67	1
69	1
71	1
73	1
74	9
75	23
76	44
77	165
78	22
79	9
80	2
81	1
83	1
85	1
87	1
88	2
89	8
90	7
91	19
92	5
93	6
94	1
95	1
97	1
99	1
101	3
102	28
103	999
104	122
105	62
106	8
107	2
111	1
115	3
116	3
117	9
118	11
119	10
120	4
121	13
122	5
127	1
128	1
131	1
132	1
133	1
134	16
135	4
136	1
137	3
138	2
139	3
140	1
146	1
148	1
149	3
150	3
151	4
152	5
153	6
154	1
163	2
164	4
165	15
166	9
167	6
168	3
176	3
177	4
178	9
179	7
180	4
181	4
182	2
183	28
184	5
190	1
191	2
192	6
193	6
194	3
195	6
196	3
204	1
205	7
206	5
207	7
208	3
209	2
211	5
212	2
219	4
220	2
221	2
222	2
223	3
224	7
225	3
234	1
235	1
236	1
238	4
239	2
240	1
241	2
250	1
251	7
252	3
253	10
254	4
255	1
265	11
266	7
267	4
268	2
269	21
270	4
279	1
280	2
281	68
282	12
283	2
285	1
287	1
295	1
297	3
298	155
299	37
300	66
301	10
302	1
312	1
313	1
314	17
315	4
316	6
317	1
327	39
328	7
329	1
358	91
359	16
360	3
