Mass Spectrum: Trachelanthamidine, 1,2.beta.-epoxy-
Formula: C8H13NO2
CAS: 15211-03-7
Molecular weight: 155
m/z	intensity
27	345
28	397
29	147
30	53
31	684
32	5
39	179
41	339
42	189
43	879
44	216
45	237
46	87
53	63
54	89
55	471
56	61
57	47
58	258
59	379
67	53
68	89
69	61
70	999
71	58
80	103
81	58
83	108
85	58
94	11
95	18
96	108
97	24
98	16
101	100
106	58
108	79
109	26
120	29
124	139
125	11
126	50
127	5
136	26
137	39
155	187
156	16
