Mass Spectrum: 5,7-Diamino-1,3-diazaadamantane
Formula: C8H16N4
CAS: 152278-05-2
Molecular weight: 168
m/z	intensity
38	5
39	38
40	47
41	95
42	630
43	130
44	160
45	16
46	4
50	4
51	9
52	9
53	26
54	51
55	44
56	270
57	200
58	79
59	7
60	5
61	8
62	1
63	4
64	4
65	15
66	33
67	27
68	42
69	93
70	94
71	74
72	12
73	5
76	2
77	10
78	7
79	6
80	59
81	97
82	240
83	999
84	76
85	44
86	4
91	7
92	15
93	67
94	55
95	120
96	92
97	210
98	120
99	15
100	7
102	5
105	2
106	4
107	17
108	69
109	170
110	110
111	87
112	250
113	16
117	1
118	2
119	9
120	4
121	19
122	21
123	33
124	210
125	100
126	40
127	3
131	2
132	1
136	5
137	4
138	110
139	53
140	6
149	1
150	12
151	20
152	8
153	3
166	1
167	14
168	540
169	56
170	3
