Mass Spectrum: 2,4-Pentanedione, 1,1,1,5,5,5-hexafluoro-
Formula: C5H2F6O2
CAS: 1522-22-1
Molecular weight: 208
m/z	intensity
25	2
26	2
27	4
28	3
29	11
31	23
33	7
36	0
37	1
38	1
39	6
40	2
41	38
42	32
43	3
44	6
45	4
47	7
48	0
49	0
50	15
51	9
52	1
53	10
54	0
55	2
56	4
57	1
59	5
60	3
61	3
62	0
63	19
64	7
65	0
66	0
67	4
68	2
69	999
70	28
71	16
72	0
73	1
74	4
75	19
76	1
77	1
78	3
79	0
81	1
82	0
83	7
84	0
85	1
87	0
88	0
89	26
90	1
91	64
92	5
93	3
94	1
95	2
96	0
97	8
98	0
99	1
101	0
102	0
103	0
105	0
107	0
109	5
110	0
111	2
112	0
113	4
117	1
119	111
120	27
121	3
122	1
123	1
125	0
127	0
129	0
134	0
135	2
136	0
137	20
138	1
139	713
140	29
141	3
145	0
147	0
155	4
157	0
159	0
161	1
185	0
187	0
189	2
206	0
208	44
209	2
