Mass Spectrum: 3Beta,5-epoxy-3alpha-methoxy-a-homo-5beta-cholestan-4aalpha-ol
Formula: C29H50O3
CAS: 15222-73-8
Molecular weight: 446
m/z	intensity
15	4
17	8
18	43
26	2
27	18
28	12
29	64
30	2
31	6
33	37
38	1
39	18
40	7
41	194
42	22
43	323
44	11
45	14
47	1
50	1
51	2
52	1
53	87
54	24
55	308
56	82
57	369
58	21
59	29
60	1
61	12
63	1
65	10
66	7
67	134
68	38
69	217
70	27
71	190
72	46
73	52
74	9
75	5
77	35
78	9
79	139
80	28
81	279
82	51
83	174
84	35
85	296
86	54
87	100
88	10
89	6
90	1
91	108
92	26
93	189
94	57
95	303
96	59
97	999
98	83
99	123
100	94
101	66
102	32
103	120
104	11
105	143
106	50
107	217
108	66
109	192
110	52
111	145
112	23
113	532
114	464
115	288
116	40
117	58
118	19
119	122
120	49
121	159
122	50
123	134
124	59
125	49
126	15
127	64
128	45
129	75
130	103
131	150
132	27
133	143
134	56
135	143
136	63
137	67
138	19
139	29
140	35
141	17
142	15
143	36
144	27
145	83
146	31
147	162
148	65
149	118
150	27
151	46
152	21
153	27
154	9
155	12
156	13
157	63
158	25
159	68
160	31
161	108
162	31
163	79
164	17
165	36
166	15
167	19
168	8
169	14
170	17
171	35
172	14
173	62
174	23
175	102
176	28
177	60
178	19
179	39
180	14
181	18
182	6
183	12
184	8
185	33
186	12
187	48
188	17
189	69
190	19
191	41
192	23
193	55
194	15
195	14
196	3
197	11
198	6
199	24
200	9
201	74
202	19
203	81
204	22
205	52
206	50
207	53
208	15
209	9
210	2
211	9
212	4
213	20
214	10
215	45
216	10
217	35
218	13
219	82
220	28
221	27
222	8
223	8
224	3
225	5
226	2
227	10
228	5
229	26
230	9
231	52
232	15
233	44
234	12
235	15
236	4
237	8
238	2
239	7
240	3
241	18
242	7
243	14
244	6
245	31
246	20
247	106
248	28
249	16
250	3
251	6
252	1
253	2
254	1
255	12
256	5
257	14
258	9
259	34
260	33
261	61
262	19
263	15
264	7
265	6
266	2
267	3
268	1
269	5
270	2
271	9
272	6
273	36
274	29
275	49
276	16
277	13
278	9
279	4
280	1
281	2
283	17
284	6
285	12
286	45
287	266
288	96
289	51
290	13
291	21
292	7
293	3
294	1
297	11
298	1
299	23
300	13
301	35
302	38
303	27
304	9
305	7
306	2
311	10
312	8
313	101
314	93
315	330
316	175
317	92
318	20
319	4
325	13
326	14
327	29
328	57
329	53
330	46
331	141
332	819
333	236
334	37
335	4
337	3
339	9
340	5
341	52
342	71
343	230
344	235
345	70
346	17
347	8
350	3
351	5
352	7
353	10
354	46
355	34
356	10
357	11
358	8
359	103
360	54
361	27
362	8
363	11
364	5
367	14
368	22
369	17
370	21
371	29
372	40
373	41
374	11
375	6
376	1
377	9
378	6
381	9
384	11
385	107
386	51
387	141
388	57
389	14
396	50
397	21
398	11
399	112
400	118
401	163
402	284
403	83
404	15
410	3
413	116
414	139
415	62
416	67
417	287
418	91
419	16
428	590
429	194
430	38
431	286
432	90
433	16
442	11
443	4
444	3
445	12
446	254
447	80
448	13
449	2
