Mass Spectrum: Pentanoic acid, 2-acetyl-4-methyl-, ethyl ester
Formula: C10H18O3
CAS: 1522-34-5
Molecular weight: 186
m/z	intensity
13	1
14	6
15	51
16	1
17	1
18	4
25	1
26	15
27	142
28	29
29	179
30	5
31	57
32	3
37	2
38	6
39	57
40	9
41	117
42	32
43	999
44	25
45	52
46	8
47	1
50	4
51	8
52	4
53	22
54	8
55	214
56	27
57	38
58	27
59	16
60	21
61	14
62	1
63	1
65	2
66	1
67	9
68	4
69	56
70	29
71	42
72	3
73	446
74	18
75	3
77	5
78	1
79	6
80	2
81	13
82	7
83	28
84	71
85	85
86	12
87	28
88	40
89	7
90	1
91	2
93	2
94	2
95	7
96	13
97	109
98	30
99	44
100	7
101	796
102	111
103	27
104	2
105	4
106	1
107	6
108	3
109	3
110	1
111	10
112	7
113	8
114	3
115	78
116	20
117	3
121	1
122	8
123	3
124	3
125	30
126	3
127	2
128	1
129	29
130	222
131	33
132	4
133	1
137	1
138	2
139	3
140	8
141	82
142	8
143	47
144	151
145	14
146	1
153	1
154	1
157	11
158	7
159	1
171	5
172	2
186	5
187	1
