Mass Spectrum: Butanoic acid, 2-acetyl-3-methyl-, ethyl ester
Formula: C9H16O3
CAS: 1522-46-9
Molecular weight: 172
m/z	intensity
26	10
27	113
28	15
29	188
30	5
31	25
37	2
38	7
39	86
40	16
41	137
42	28
43	904
44	27
45	45
46	5
47	2
49	1
50	4
51	6
52	2
53	17
54	5
55	60
56	21
57	41
58	17
59	50
60	6
61	11
65	2
66	7
67	14
68	11
69	308
70	18
71	7
72	2
73	24
76	2
77	4
78	2
79	4
80	2
81	7
82	8
83	76
84	119
85	159
86	24
87	564
88	43
89	22
91	3
93	2
95	2
96	2
97	3
98	17
99	18
100	9
101	61
102	64
103	12
104	2
105	3
110	2
111	16
112	3
113	7
114	3
115	999
116	70
117	7
122	2
126	7
127	212
128	18
129	38
130	768
131	58
132	7
133	2
141	1
153	1
155	1
157	7
171	1
172	3
173	3
