Mass Spectrum: 4-(2-Hydroxypropoxy)amphetamine
Formula: C12H19NO2
CAS: 152383-89-6
Molecular weight: 209
m/z	intensity
41	12
42	22
43	23
44	999
45	56
59	7
65	6
77	28
78	9
79	5
89	10
90	17
91	22
107	75
108	54
109	4
120	2
121	5
133	2
134	3
135	3
148	2
149	2
165	2
166	98
167	9
177	3
191	0
194	1
