Mass Spectrum: N-[Azirid-1-ylmethyl]piperidine
Formula: C8H16N2
CAS: 1523-29-1
Molecular weight: 140
m/z	intensity
41	103
42	125
43	34
44	66
45	8
46	2
49	1
51	1
52	1
53	5
54	13
55	83
56	178
57	15
58	14
59	3
60	1
62	0
65	1
67	5
68	8
69	36
70	38
71	8
72	5
73	3
74	13
76	0
77	2
79	0
80	1
81	2
82	7
83	12
84	59
85	18
86	32
87	3
88	0
90	2
94	1
95	0
96	23
97	93
98	999
99	74
100	2
101	1
102	1
108	1
109	3
110	6
111	25
112	23
113	9
114	6
115	2
116	0
121	0
123	1
124	1
125	7
126	4
127	0
138	0
139	7
140	16
141	2
142	0
