Mass Spectrum: 4-Acetylphenylbenzoate
Formula: C15H12O3
CAS: 1523-18-8
Molecular weight: 240
m/z	intensity
34	6
35	0
38	52
39	50
40	82
41	8
43	126
44	31
45	2
46	0
47	0
50	95
51	222
52	20
53	15
55	9
57	5
58	1
60	1
61	4
62	18
63	56
64	45
65	19
66	7
67	1
68	1
69	2
70	2
71	1
73	3
74	22
75	16
77	549
78	39
79	15
80	3
81	1
82	1
83	0
84	1
85	1
86	0
87	0
88	0
89	1
90	1
92	42
93	8
94	1
95	0
98	1
100	1
101	1
102	3
105	999
106	63
107	14
108	1
109	0
110	0
112	1
113	0
115	4
116	0
118	0
120	14
121	10
122	2
123	0
127	0
128	0
129	0
132	0
134	0
135	1
136	2
137	0
139	2
140	0
141	1
148	0
149	0
150	0
152	0
160	0
165	0
168	0
169	0
171	0
183	0
196	0
197	0
225	0
238	0
239	1
240	14
241	2
