Mass Spectrum: Tri-ruthenium dodecacarbonyl
Formula: C12O12Ru3
CAS: 15243-33-1
Molecular weight: 642
m/z	intensity
27	0
28	999
29	13
30	1
31	0
39	0
40	1
41	1
42	0
43	1
44	1
45	0
53	0
55	1
56	0
57	1
58	0
67	0
68	0
69	1
70	0
71	0
73	0
78	0
81	0
82	0
83	0
84	0
85	0
91	0
95	0
96	1
97	0
98	0
99	2
100	2
101	3
102	6
104	4
110	0
111	0
112	0
113	0
114	0
116	0
124	0
127	0
128	0
129	0
130	1
132	0
139	0
145	0
150	0
151	0
152	0
153	0
154	0
155	0
156	0
157	0
158	0
160	0
164	0
165	0
166	0
167	0
168	0
169	0
179	0
180	0
181	0
186	0
188	0
195	0
196	0
197	0
198	1
199	0
200	2
201	3
202	2
203	3
204	3
205	1
206	3
208	0
209	0
210	0
211	0
212	0
213	1
214	1
215	1
216	1
217	0
218	1
220	0
227	0
228	0
229	0
230	0
231	0
232	0
234	0
258	0
259	0
260	0
277	0
294	0
295	0
296	1
297	2
298	2
299	3
300	5
301	6
302	9
303	9
304	9
305	10
306	8
307	6
308	6
309	1
310	3
311	0
312	1
313	0
314	1
315	1
316	1
317	1
318	1
319	0
320	0
321	0
322	0
323	0
324	0
325	1
326	1
327	1
328	2
329	2
330	4
331	4
332	4
333	5
334	4
335	3
336	3
337	0
338	1
340	0
341	0
342	0
343	0
344	0
345	0
346	0
348	0
350	0
351	0
352	0
353	1
354	1
355	2
356	3
357	3
358	4
359	4
360	5
361	5
362	4
363	3
364	3
365	0
366	1
368	0
369	0
370	0
371	0
372	0
373	0
374	0
376	0
378	0
379	0
380	0
381	1
382	1
383	2
384	3
385	3
386	6
387	5
388	6
389	6
390	5
391	4
392	3
393	1
394	2
396	0
406	0
407	0
408	1
409	1
410	1
411	3
412	4
413	4
414	6
415	7
416	7
417	8
418	6
419	5
420	4
421	1
422	2
424	0
434	0
435	0
436	0
437	1
438	1
439	2
440	4
441	4
442	6
443	6
444	7
445	8
446	6
447	4
448	4
449	1
450	2
452	0
462	0
463	0
464	0
465	1
466	1
467	2
468	3
469	4
470	5
471	6
472	7
473	7
474	6
475	4
476	4
477	1
478	1
480	0
489	0
490	0
491	0
492	1
493	2
494	2
495	5
496	6
497	7
498	11
499	11
500	12
501	13
502	10
503	8
504	7
505	2
506	3
507	0
508	0
518	0
519	0
520	1
521	2
522	2
523	4
524	5
525	6
526	9
527	9
528	10
529	11
530	9
531	7
532	6
533	2
534	3
535	0
536	0
549	0
550	0
551	0
552	1
553	1
554	1
555	2
556	2
557	2
558	1
559	1
560	1
561	0
562	0
577	0
578	0
579	0
580	0
581	0
582	1
583	1
584	1
585	1
586	1
587	0
588	0
589	0
590	0
604	0
605	0
606	1
607	1
608	2
609	2
610	3
611	4
612	4
613	4
614	4
615	3
616	2
617	1
618	1
620	0
630	0
632	0
633	0
634	1
635	1
636	2
637	2
638	4
639	4
640	4
641	4
642	3
643	3
644	2
645	0
646	1
648	0
