Mass Spectrum: Benzeneethanamine, 3,4-dibenzyloxy-2,5-difluoro-
Formula: C22H21F2NO3
CAS: 152434-83-8
Molecular weight: 385
m/z	intensity
41	19
42	6
43	44
44	7
45	7
47	1
49	2
50	11
51	19
52	8
53	3
55	7
56	3
57	8
58	11
59	7
60	3
61	3
62	8
63	25
64	9
65	110
66	7
67	1
69	6
70	3
71	4
72	15
73	47
74	4
75	4
76	2
77	13
78	5
79	5
81	5
82	2
83	7
85	4
86	0
87	3
88	1
89	29
90	14
91	999
92	77
93	4
95	3
97	4
98	0
99	2
101	6
102	0
104	4
105	9
106	2
107	4
108	1
109	2
111	2
113	0
115	3
117	2
118	3
119	4
120	3
121	0
122	0
123	0
125	0
127	0
128	0
129	3
133	2
135	1
137	1
139	1
141	1
143	0
145	0
148	0
149	0
151	0
155	1
157	3
158	2
159	3
165	4
166	0
167	2
170	0
171	2
173	1
174	4
175	9
179	3
180	6
181	63
182	11
183	1
184	0
185	0
186	0
187	3
188	4
189	2
195	0
199	0
202	0
215	5
216	0
217	0
227	1
228	3
229	0
235	0
240	0
242	0
243	1
245	0
257	0
259	1
260	5
261	2
262	2
263	8
264	4
265	10
266	0
272	0
274	12
275	1
276	4
277	5
278	6
279	0
280	0
294	3
304	0
305	0
306	0
319	0
322	4
324	0
332	0
336	5
337	0
348	0
352	2
355	10
356	3
368	10
369	4
385	1
