Mass Spectrum: Cycohexane-1,1,3,3-tetracarbonitrile, 2,4-dimethyl-6-(2,2-dimethylhydrazino)-
Formula: C14H18N6
CAS: 152482-85-4
Molecular weight: 270
m/z	intensity
33	2
34	0
35	0
37	9
38	15
39	46
40	32
41	70
42	143
43	152
44	184
45	34
46	2
47	0
48	0
50	4
51	10
52	23
53	11
54	6
55	7
56	5
57	10
59	416
60	49
62	4
63	9
64	16
65	21
66	28
67	10
68	8
69	4
70	11
71	41
72	4
74	0
75	2
76	5
77	8
78	6
79	6
80	3
81	2
82	1
83	7
86	999
87	34
89	3
90	3
91	8
92	19
93	22
94	6
95	1
96	0
97	1
98	0
99	1
100	0
101	1
102	2
103	3
104	2
105	2
106	2
107	2
108	3
109	1
110	0
111	0
112	3
113	15
115	2
116	1
117	1
118	1
119	3
120	2
121	4
122	0
123	0
124	0
127	0
128	0
129	0
130	1
131	0
132	0
133	1
134	1
135	3
136	8
137	1
138	0
139	0
140	0
141	0
142	1
143	1
144	0
145	0
146	0
147	0
148	0
149	2
150	0
151	0
152	0
153	0
154	0
155	0
156	0
157	0
158	0
159	0
160	0
161	0
162	0
163	0
164	0
169	0
170	0
171	0
174	0
175	0
176	0
178	17
179	1
180	0
182	0
183	0
184	0
185	1
186	0
189	0
191	0
200	0
211	0
227	0
228	0
231	0
255	0
266	0
268	0
270	41
271	6
272	0
