Mass Spectrum: 1-Propene, 1,1,3,3-tetrafluoro-2-trifluoromethyl-3-cyano-
Formula: C5F7N
CAS: 152491-64-0
Molecular weight: 207
m/z	intensity
31	76
50	25
69	999
70	9
76	193
81	15
88	28
93	418
94	11
100	371
101	16
107	13
112	226
119	36
131	10
138	192
139	8
157	10
162	59
181	507
182	19
188	84
189	5
207	19
208	2
