Mass Spectrum: 1-Propene, 1,1-bis(trifluoromethylthio)-2-trifluoromethyl-3,3,3-trifluoro-
Formula: C6F12S2
CAS: 152491-61-7
Molecular weight: 364
m/z	intensity
50	9
63	124
64	13
69	999
70	9
75	14
76	78
82	16
87	73
88	16
93	19
94	9
101	14
106	120
113	97
125	35
144	18
151	11
157	78
175	256
176	12
177	10
194	102
195	5
207	42
263	37
295	89
345	27
364	28
365	2
366	3
