Mass Spectrum: Benzaldehyde, 3,4-benzyloxy-2,5-difluoro-
Formula: C21H16F2O3
CAS: 152434-82-7
Molecular weight: 354
m/z	intensity
41	15
42	1
43	2
44	1
45	0
47	0
49	0
50	5
51	19
52	5
53	1
55	1
56	0
57	2
60	0
61	1
62	4
63	25
64	10
65	154
66	8
67	0
68	1
69	2
70	0
71	1
73	0
74	1
75	2
76	2
77	12
78	2
79	2
80	0
81	1
82	0
83	2
84	0
85	1
86	1
87	4
88	6
89	37
90	28
91	999
92	108
93	4
95	0
97	1
99	2
100	0
101	2
103	0
104	1
105	5
106	0
107	1
109	1
111	0
115	2
116	1
117	0
125	0
127	1
128	1
129	0
133	1
139	1
141	0
143	0
144	1
145	1
146	0
147	0
149	8
150	1
151	4
152	3
153	1
154	0
155	2
156	1
157	5
158	1
159	2
165	5
166	2
167	6
168	1
169	1
170	1
171	0
173	1
174	0
175	1
177	1
178	2
179	7
180	13
181	283
182	43
183	3
184	0
185	4
186	1
187	0
188	1
189	1
196	0
199	0
205	0
215	0
217	0
233	1
234	1
241	0
243	0
245	1
246	0
248	0
261	6
262	8
263	287
264	43
265	5
266	0
271	0
275	0
278	0
279	0
289	1
334	0
335	0
336	0
353	0
354	12
355	3
356	0
