Mass Spectrum: Benzeneethanamine, 2,5-difluoro-.beta.,3,4-trihydroxy-N-methyl-
Formula: C9H11F2NO3
CAS: 152434-78-1
Molecular weight: 219
m/z	intensity
41	61
42	49
43	104
44	999
45	151
46	103
47	4
48	5
49	6
50	10
51	30
52	8
53	12
54	6
55	47
56	22
57	50
58	13
59	4
60	26
61	12
62	3
63	10
64	8
65	7
66	3
67	15
68	8
69	36
70	17
71	22
72	4
73	23
74	6
75	7
76	4
77	24
78	55
79	16
80	4
81	19
82	9
83	20
84	10
85	9
86	6
87	6
88	2
89	1
90	1
91	7
92	2
93	8
94	4
95	15
96	6
97	15
98	8
99	12
100	9
101	23
102	1
103	1
104	2
105	9
106	24
107	11
108	3
109	6
110	3
111	8
112	5
113	3
114	1
115	4
116	1
117	4
118	1
119	4
120	3
121	6
122	3
123	5
124	24
125	8
126	3
127	9
128	3
129	21
130	3
131	3
132	1
133	4
134	2
135	4
136	2
137	3
138	2
139	2
140	3
141	3
142	1
143	4
144	1
145	6
146	4
147	5
149	7
150	2
151	3
152	3
153	1
154	1
155	10
156	1
157	4
158	2
159	10
160	3
161	3
163	3
164	1
165	1
166	1
167	3
168	1
169	1
170	1
171	5
172	6
173	13
174	4
175	10
176	1
178	2
180	4
181	1
182	2
183	1
185	4
186	0
187	5
188	4
189	1
191	1
193	1
195	1
198	1
199	7
200	6
201	3
202	3
203	1
219	5
220	2
