Mass Spectrum: Benzene, 1,4-difluoro-2,3-benzyloxy-
Formula: C20H16F2O2
CAS: 152434-81-6
Molecular weight: 326
m/z	intensity
41	23
43	2
44	0
47	38
48	22
49	12
50	18
51	37
52	10
53	3
55	1
57	5
61	1
62	8
63	43
64	16
65	215
66	11
68	1
69	2
70	1
71	0
72	1
73	1
74	1
75	4
76	2
77	21
78	4
79	5
81	2
82	5
83	6
84	3
85	3
86	1
87	9
88	15
89	51
91	999
92	96
93	3
95	0
97	0
99	2
100	1
101	3
105	8
106	0
107	2
115	0
116	3
117	1
118	0
120	0
128	1
133	1
139	0
151	1
157	3
159	1
165	1
166	1
167	1
170	1
177	1
178	0
179	2
180	22
181	112
182	15
183	1
233	3
234	5
235	9
236	1
326	6
327	1
