Mass Spectrum: Benzenethanamine, 3-benzyloxy-2,6-difluoro-N-formyl-.beta.-hydroxy-
Formula: C16H15F2NO3
CAS: 152434-90-7
Molecular weight: 307
m/z	intensity
41	13
42	4
43	6
44	10
45	1
46	2
47	4
48	2
49	35
50	5
51	21
52	4
53	1
55	2
56	2
57	6
58	33
59	151
60	5
61	0
62	3
63	16
64	5
65	87
66	4
69	1
70	1
73	3
74	1
75	4
76	1
77	5
78	1
79	1
81	3
82	3
83	7
84	16
86	10
88	2
89	14
90	8
91	999
92	82
93	4
94	4
95	3
96	1
99	0
100	1
101	6
102	3
104	18
105	3
107	2
111	1
112	1
113	1
114	2
115	3
121	0
122	1
123	2
127	0
130	6
137	1
140	0
141	1
142	4
143	1
148	1
149	7
150	4
151	1
152	1
153	1
156	6
157	4
158	3
159	4
168	4
169	0
170	1
171	42
172	4
183	1
196	3
199	1
201	13
202	1
215	1
216	7
217	0
242	1
244	1
249	135
250	19
251	1
262	10
263	1
269	0
289	1
290	1
307	16
308	3
