Mass Spectrum: Benzeneethanamine, 3-benzyloxy-2,6-difluoro-.beta.-hydroxy-
Formula: C15H15F2NO2
CAS: 152434-89-4
Molecular weight: 279
m/z	intensity
41	32
43	11
44	6
45	4
47	31
48	14
49	10
50	16
51	38
52	10
53	3
55	2
56	3
57	18
58	1
59	2
60	2
61	2
62	10
63	49
64	13
65	200
66	11
67	0
68	3
69	3
70	3
71	2
72	1
73	2
74	5
75	13
76	4
77	16
78	6
79	4
80	1
81	10
82	12
83	14
84	3
85	8
86	2
87	11
88	3
89	36
90	16
91	999
92	114
93	9
94	12
95	11
96	4
97	2
98	1
99	3
100	3
101	23
102	12
103	2
104	2
105	5
106	5
107	5
108	1
109	2
110	2
111	11
112	5
113	5
114	13
115	12
116	2
117	1
118	3
119	2
120	6
121	4
122	11
123	9
124	3
125	3
126	2
127	2
128	2
129	2
130	27
131	3
133	1
135	1
137	2
138	1
139	5
140	6
141	4
142	11
143	8
144	2
145	1
146	1
147	0
149	2
150	7
151	40
152	10
153	4
154	1
156	0
157	4
158	11
159	52
160	4
165	1
167	70
168	328
169	32
170	10
171	85
172	9
173	1
181	1
183	7
184	1
185	1
186	1
188	2
194	1
199	2
201	1
210	2
211	0
212	0
214	0
222	1
227	0
230	1
238	1
241	1
242	8
243	1
248	1
249	15
250	4
251	0
258	2
259	89
260	14
261	1
262	5
263	1
279	7
280	2
281	1
