Mass Spectrum: 2,4-Difluorobenzene, 1-benzyloxy-
Formula: C13H10F2O
CAS: 152434-86-1
Molecular weight: 220
m/z	intensity
41	50
42	8
43	62
44	10
45	2
47	3
48	1
49	21
50	15
51	45
52	7
53	4
54	3
55	37
56	16
57	75
58	3
60	1
61	2
62	8
63	36
64	8
65	123
66	7
67	11
68	5
69	26
70	10
71	39
72	2
73	2
74	3
75	12
76	1
77	11
78	1
79	5
80	2
81	17
82	10
83	20
84	66
85	26
86	18
87	2
88	2
89	23
90	10
91	999
92	75
93	6
94	2
95	12
96	6
97	17
98	4
99	9
100	2
101	30
102	1
105	6
106	2
107	4
108	2
109	8
110	4
111	10
112	3
113	7
115	2
117	3
119	5
120	2
121	3
122	1
123	6
124	2
125	6
126	2
127	4
128	2
129	14
130	3
131	2
132	0
133	3
134	2
135	4
136	0
137	3
138	0
139	2
140	1
141	4
143	2
145	3
146	1
147	1
149	3
150	1
151	4
152	1
153	2
154	1
155	2
157	1
159	3
163	2
164	1
165	3
167	2
168	1
169	2
170	3
171	2
173	1
