Mass Spectrum: Benzyloxybenzene, 2,5-difluoro-
Formula: C13H10F2O
CAS: 152434-79-2
Molecular weight: 220
m/z	intensity
41	11
43	1
44	1
45	1
50	26
51	44
52	8
53	1
55	1
56	6
57	15
61	5
62	17
63	51
65	147
66	7
68	2
69	2
70	1
71	1
73	1
74	6
75	23
76	3
77	15
78	2
79	2
80	1
81	12
82	4
83	0
85	1
86	1
87	2
89	41
91	999
92	71
93	4
99	5
100	3
101	79
102	4
105	3
110	1
113	5
114	0
125	1
127	1
129	10
130	1
220	27
221	4
