Mass Spectrum: Phenol, 2-benzyloxy-3,6-difluoro-
Formula: C13H10F2O2
CAS: 152434-80-5
Molecular weight: 236
m/z	intensity
41	15
42	1
43	6
44	7
45	3
49	1
50	9
51	21
52	5
53	4
54	0
55	4
56	4
57	11
58	0
60	1
61	1
62	5
63	24
64	7
65	108
66	6
67	1
68	2
69	35
70	5
71	8
72	0
73	2
74	1
75	3
76	1
77	9
78	2
79	2
80	0
81	3
82	1
83	3
84	1
85	2
86	1
87	2
88	9
89	26
90	11
91	999
92	80
93	3
95	1
96	1
97	12
98	2
99	2
100	3
101	3
105	2
106	1
107	1
109	1
111	1
115	1
116	1
117	14
118	1
119	1
123	0
124	0
125	1
126	0
127	1
128	1
129	1
130	0
131	0
133	2
135	0
139	1
141	0
145	18
146	4
147	0
149	4
150	0
151	1
157	2
159	2
165	0
167	1
169	0
170	0
177	0
179	0
181	2
187	0
188	1
215	0
219	0
233	0
235	1
236	37
237	5
