Mass Spectrum: Acetamide oxime, 2-nitro-2-phenylhydrazono-
Formula: C8H9N5O3
CAS: 152574-42-0
Molecular weight: 223
m/z	intensity
33	31
34	23
36	12
37	47
38	141
39	406
40	83
41	114
42	100
43	270
44	63
45	33
46	21
50	120
51	237
52	88
53	95
54	40
55	65
56	9
57	19
58	11
59	42
60	8
61	23
62	45
63	183
64	362
65	788
66	77
67	19
68	55
69	27
70	42
71	16
72	8
73	13
74	25
77	788
78	90
79	33
80	9
81	3
82	2
83	5
84	6
85	17
86	68
87	8
88	18
89	54
91	999
92	491
93	84
94	15
95	3
96	1
97	2
98	0
99	1
100	1
102	60
104	130
105	187
106	41
107	96
108	17
109	2
110	1
111	1
112	3
113	3
115	16
116	12
117	50
118	69
119	25
120	3
122	5
123	0
125	0
126	0
127	1
129	10
131	72
132	98
133	16
134	3
135	0
139	0
140	1
141	5
143	97
144	78
145	17
146	42
147	5
148	2
149	13
150	2
151	0
152	0
153	1
154	0
156	0
157	2
159	46
160	54
161	9
162	0
165	0
167	6
168	1
171	0
173	4
176	265
177	110
178	11
179	0
189	0
191	0
194	4
195	0
203	2
205	22
206	8
207	2
208	1
219	0
220	14
221	25
223	245
224	20
225	1
