Mass Spectrum: 1-Cyclohex-1-enyl-1-phenyl-ethanol
Formula: C14H18O
CAS: 152589-39-4
Molecular weight: 202
m/z	intensity
26	10
27	113
28	8
29	45
30	1
31	5
37	2
38	10
39	159
40	20
41	177
42	14
43	999
44	24
45	12
49	1
50	47
51	186
52	54
53	93
54	37
55	74
56	5
57	17
58	4
59	2
60	1
61	2
62	14
63	66
64	24
65	86
66	27
67	135
68	11
69	25
70	60
71	27
72	4
73	3
74	18
75	28
76	52
77	445
78	132
79	164
80	44
81	153
82	30
83	53
84	13
85	12
86	6
87	10
88	7
89	40
90	9
91	526
92	57
93	41
94	5
95	13
96	7
97	42
98	127
99	10
100	1
101	10
102	49
103	173
104	73
105	612
106	64
107	30
108	3
109	50
110	7
111	61
112	6
113	9
114	7
115	219
116	52
117	77
118	22
119	19
120	25
121	296
122	28
123	6
124	9
125	59
126	15
127	63
128	219
129	192
130	88
131	36
132	14
133	12
134	19
135	4
137	1
138	1
139	22
140	7
141	457
142	201
143	176
144	56
145	37
146	7
147	35
148	6
149	3
150	7
151	12
152	46
153	65
154	69
155	200
156	127
157	41
158	84
159	129
160	23
161	7
162	1
163	3
164	3
165	35
166	15
167	42
168	23
169	286
170	40
171	10
172	3
173	13
174	3
175	14
176	4
177	2
178	6
179	4
180	2
181	8
182	12
183	91
184	550
185	99
186	10
187	328
188	43
189	4
190	3
191	1
201	21
202	160
203	26
204	5
