Mass Spectrum: N-8-Guanidino-spermidine
Formula: C8H21N5
CAS: 15271-46-2
Molecular weight: 187
m/z	intensity
42	696
43	783
44	999
45	84
46	12
47	2
48	1
49	1
50	6
51	10
52	12
53	32
54	49
55	204
56	226
57	114
58	93
59	365
60	108
61	6
62	1
63	2
64	2
65	6
66	5
67	20
68	73
69	62
70	610
71	77
72	250
73	358
74	25
75	4
76	2
77	10
78	6
79	7
80	11
81	16
82	52
83	56
84	375
85	130
86	217
87	399
88	33
89	7
90	1
91	10
92	3
93	5
94	8
95	14
96	32
97	55
98	159
99	47
100	93
101	143
102	16
103	3
104	2
105	8
106	4
107	5
108	7
109	10
110	29
111	42
112	295
113	72
114	118
115	211
116	21
117	3
118	2
119	3
120	3
121	7
122	8
123	25
124	27
125	25
126	20
127	22
128	8
129	82
130	17
131	11
132	2
133	3
134	3
135	5
136	4
137	8
138	12
139	20
140	55
141	19
142	7
143	192
144	32
145	4
146	2
147	3
148	2
149	11
150	6
151	8
152	18
153	9
154	11
155	12
156	8
157	67
158	11
159	2
160	2
161	0
162	0
163	0
164	0
165	0
166	0
167	0
168	0
169	0
170	0
171	0
172	0
173	0
174	0
175	0
176	0
177	0
178	0
179	0
180	0
181	0
182	0
183	0
184	0
185	0
186	2
187	48
188	29
189	9
190	2
