Mass Spectrum: Pyridine-3-carboxamide, N-(3-nitrophenyl)-
Formula: C12H9N3O3
CAS: 152751-67-2
Molecular weight: 243
m/z	intensity
33	4
34	3
37	16
38	41
39	65
40	79
41	29
42	13
43	32
44	54
45	4
46	1
48	1
50	120
51	270
52	66
53	19
54	7
55	11
56	9
57	13
58	0
60	1
62	22
63	56
64	51
65	45
66	6
67	4
68	1
69	4
70	3
71	3
72	0
73	0
74	6
75	13
76	30
77	110
78	606
79	48
80	8
81	2
82	1
83	2
84	1
85	1
86	0
87	2
88	0
90	13
91	23
92	25
93	3
94	3
95	33
96	2
97	0
98	0
105	173
106	999
107	67
108	7
109	1
110	0
111	0
112	0
113	0
115	0
118	0
119	3
120	3
121	4
125	2
135	0
137	2
138	14
139	0
140	0
141	1
146	0
149	2
168	0
169	0
170	0
171	0
195	0
196	4
197	0
212	0
213	3
214	8
226	8
227	0
242	29
243	173
244	21
245	0
