Mass Spectrum: endo-4-Oxatricyclo[5.2.1.0(2,6)]dec-8-ene
Formula: C9H12O
CAS: 1528-23-0
Molecular weight: 136
m/z	intensity
26	15
27	71
28	43
29	28
31	9
37	15
38	28
39	207
40	80
41	133
42	40
43	19
49	12
50	19
51	46
52	19
53	23
54	9
55	12
62	12
63	25
65	111
66	999
67	96
68	68
69	519
70	80
71	15
77	56
78	40
79	62
80	22
83	12
91	71
92	20
93	9
95	14
103	9
105	19
136	77
137	8
