Mass Spectrum: Carbonic acid, dithio-, S-methyl O-(2-methylcyclohexyl) ester, trans-
Formula: C9H16OS2
CAS: 15288-13-8
Molecular weight: 204
m/z	intensity
40	20
41	323
42	20
43	80
45	40
47	40
53	80
54	20
55	919
56	50
67	90
68	30
69	111
81	121
91	161
95	30
96	565
97	999
98	60
204	90
205	10
206	10
