Mass Spectrum: 1-Butanamine, N-(3-phenyl-2-propenylidene)-
Formula: C13H17N
CAS: 15286-55-2
Molecular weight: 187
m/z	intensity
27	28
28	23
29	60
30	12
39	46
41	71
42	101
43	11
50	14
51	45
52	13
53	9
54	26
55	17
56	10
57	29
58	9
62	7
63	30
64	6
65	34
66	9
67	24
68	137
69	8
70	6
72	25
74	7
75	12
76	18
77	106
78	36
79	7
80	10
81	5
82	54
83	49
84	42
89	40
90	7
91	211
92	20
96	96
97	6
101	7
102	43
103	108
104	77
105	19
110	111
111	8
113	7
114	10
115	999
116	206
117	182
118	27
127	15
128	29
129	43
130	536
131	88
132	27
133	3
141	9
142	16
143	68
144	953
145	348
146	36
156	15
157	6
158	257
159	80
160	9
170	6
172	57
173	7
185	7
186	821
187	986
188	132
189	12
