Mass Spectrum: Pentanoic acid, 2-methylcyclohexyl ester, trans-
Formula: C12H22O2
CAS: 15287-81-7
Molecular weight: 198
m/z	intensity
41	320
42	50
43	70
45	20
53	60
54	100
55	550
56	70
57	570
58	40
67	250
68	220
69	50
72	20
73	50
77	20
79	30
81	630
82	40
83	10
84	20
85	870
86	40
95	70
96	999
97	380
98	30
102	20
103	80
113	20
114	60
