Mass Spectrum: N,N'-Dipropionylhydrazine
Formula: C6H12N2O2
CAS: 1528-34-3
Molecular weight: 144
m/z	intensity
14	1
15	4
26	13
27	95
28	46
29	564
30	15
31	13
32	519
33	5
39	5
40	2
41	17
42	11
43	14
44	19
45	8
52	1
53	2
54	7
55	22
56	15
57	999
58	41
59	7
60	1
69	13
70	8
71	4
72	4
73	2
74	7
86	1
87	8
88	969
89	74
90	4
97	4
101	1
102	2
115	19
116	1
125	13
126	41
127	6
144	467
145	52
146	4
