Mass Spectrum: Cyclohexanol, 2-methyl-, acetate, (1R-trans)-
Formula: C9H16O2
CAS: 15288-15-0
Molecular weight: 156
m/z	intensity
41	127
42	37
43	999
44	42
45	16
53	30
54	42
55	169
56	13
57	50
58	16
66	8
67	155
68	189
69	54
71	33
72	50
81	355
82	16
85	8
96	627
97	67
113	8
114	33
141	1
155	1
156	1
