Mass Spectrum: 1,2,4-Benzenetricarboxylic acid, cyclic 1,2-anhydride, butyl ester
Formula: C13H12O5
CAS: 1528-45-6
Molecular weight: 248
m/z	intensity
41	266
55	123
56	999
57	86
74	111
75	311
76	24
103	233
104	24
148	135
175	599
176	61
193	799
194	73
204	61
