Mass Spectrum: 1H-1,2,4-Triazol-3-amine, N-methyl-
Formula: C3H6N4
CAS: 15285-16-2
Molecular weight: 98
m/z	intensity
28	310
30	440
42	200
43	160
55	120
56	90
57	380
69	50
70	50
71	60
97	910
98	999
99	60
