Mass Spectrum: Carbonic acid, dithio-, S-methyl O-(2-methylcyclohexyl) ester, cis-
Formula: C9H16OS2
CAS: 15288-12-7
Molecular weight: 204
m/z	intensity
41	275
42	20
43	79
45	41
47	37
51	10
53	72
54	41
55	662
56	62
57	10
59	14
65	14
67	83
68	52
69	93
75	20
76	10
77	10
79	14
81	125
91	135
92	10
93	12
95	37
96	391
97	999
98	83
109	20
113	10
204	83
205	10
206	12
