Mass Spectrum: Butanoic acid, 2-methylcyclohexyl ester, trans-
Formula: C11H20O2
CAS: 15287-80-6
Molecular weight: 184
m/z	intensity
39	80
40	10
41	240
42	50
43	660
44	20
45	10
53	20
54	30
55	370
56	20
57	20
58	10
66	10
67	140
68	130
69	40
70	10
71	999
72	40
73	10
77	10
79	10
81	460
82	20
89	50
95	50
96	690
97	240
98	10
100	50
123	40
