Mass Spectrum: 4H-1,2,4-Triazole-3(2H)-thione, 4-(2-furfurylidenamino)-
Formula: C7H6N4OS
CAS: 152880-95-0
Molecular weight: 194
m/z	intensity
33	10
34	5
36	7
37	82
38	188
39	518
40	41
41	43
42	280
43	364
44	72
45	114
46	34
47	13
48	3
49	18
50	120
51	181
52	254
53	38
54	26
55	11
56	2
57	7
58	41
59	108
60	85
61	13
62	7
63	15
64	113
65	85
66	79
67	17
68	9
69	17
70	46
71	73
72	11
73	11
74	119
75	6
76	7
77	3
78	4
79	30
80	27
81	18
82	7
83	13
84	7
85	41
86	2
87	2
89	0
93	717
94	254
95	24
96	5
97	14
98	4
101	999
102	45
103	43
104	2
105	1
106	9
107	5
108	6
109	4
110	2
111	5
112	4
113	3
114	0
116	0
119	0
121	3
123	0
124	0
125	2
126	0
127	2
132	0
133	1
134	0
135	2
136	0
138	7
139	2
140	2
141	0
149	1
151	0
161	1
162	1
164	0
165	1
166	0
168	0
189	0
190	0
191	1
194	455
195	45
196	22
197	2
