Mass Spectrum: 1H-Tetrazole-1-ethanol, 5-amino-
Formula: C3H7N5O
CAS: 15284-29-4
Molecular weight: 129
m/z	intensity
53	39
54	82
55	93
56	288
57	444
58	36
69	12
70	298
71	53
73	52
74	9
84	29
85	692
86	33
98	999
99	89
100	19
101	11
112	28
129	722
130	88
