Mass Spectrum: 1-Triethylgermanium-3-buten-1-yne
Formula: C10H18Ge
CAS: 1529-24-4
Molecular weight: 212
m/z	intensity
26	39
27	68
29	40
39	17
41	18
51	11
52	14
70	23
71	54
72	33
73	90
74	65
75	110
76	10
77	28
95	38
97	71
98	35
99	379
100	44
101	247
102	35
103	145
104	13
105	44
107	31
109	53
111	40
112	13
113	26
121	238
122	17
123	789
124	119
125	999
126	216
127	925
128	48
129	190
130	26
131	31
132	31
133	26
135	35
137	93
138	22
139	115
141	44
149	17
151	564
152	44
153	727
154	238
155	916
156	35
157	186
158	11
159	14
161	15
163	31
165	62
166	15
167	81
169	34
179	520
181	692
182	264
183	930
184	97
185	179
186	19
208	26
210	36
211	16
212	49
214	11
