Mass Spectrum: Adenosine, N(6)-benzyl-4'-[N-methylcarbamoyl]-4'-dehydroxymethyl-
Formula: C18H20N6O4
CAS: 152918-15-5
Molecular weight: 384
m/z	intensity
42	151
43	164
44	78
45	90
46	10
50	24
51	49
52	29
53	36
54	27
55	79
56	37
57	53
58	412
59	17
60	65
63	41
64	12
65	169
66	52
67	43
68	24
69	37
70	26
71	92
72	11
73	57
75	11
76	10
77	76
78	31
79	94
80	16
81	13
82	21
83	26
84	38
85	178
86	9
88	9
89	49
90	34
91	999
92	89
93	77
94	31
95	36
96	4
97	9
100	14
101	32
102	43
103	27
104	42
105	104
106	630
107	55
108	18
111	19
113	4
116	19
117	16
118	10
119	76
120	183
121	58
122	4
125	30
127	4
128	8
129	4
131	19
132	18
133	77
134	24
135	18
136	24
140	9
141	9
142	13
143	10
145	22
146	17
148	63
149	16
154	71
155	15
157	4
160	16
162	15
169	11
174	17
189	40
190	16
197	21
198	4
204	16
208	9
209	28
210	4
219	22
222	11
224	525
225	956
226	340
227	43
238	11
254	293
255	43
259	14
266	26
267	31
268	209
269	35
280	14
308	4
349	5
384	154
385	35
