Mass Spectrum: Ginkgolide A
Formula: C20H24O9
CAS: 15291-75-5
Molecular weight: 408
m/z	intensity
55	32
56	78
57	999
58	276
59	32
98	316
99	64
100	32
140	20
224	178
225	30
226	16
290	366
291	74
292	36
307	12
308	140
309	24
310	14
346	46
351	10
352	36
363	12
364	194
365	32
379	6
380	72
381	12
407	10
408	148
409	24
410	10
