Mass Spectrum: [2]Benzopyrano[7,6-f]indazole-8-acetic acid, 2,4,6,8,9,11-hexahydro-5,10-dihydroxy-2,6-dimethyl-4,11-dioxo-, methyl ester
Formula: C19H18N2O7
CAS: 15298-42-7
Molecular weight: 386
m/z	intensity
41	430
42	180
43	999
44	680
45	460
46	40
50	10
51	40
52	20
53	80
54	60
55	540
56	200
57	670
58	60
59	110
60	120
61	70
62	10
63	20
64	20
65	60
66	40
67	140
68	80
69	400
70	180
71	340
72	40
73	100
74	30
75	40
76	40
77	70
78	20
79	80
80	40
81	220
82	140
83	250
84	120
85	210
86	20
87	40
88	50
89	20
90	10
91	80
92	30
93	70
94	40
95	160
96	80
97	180
98	80
99	70
100	20
101	40
102	20
103	30
104	20
105	70
106	30
107	60
108	30
109	220
110	60
111	130
112	70
113	60
114	20
115	50
116	20
117	20
118	10
119	80
120	20
121	50
122	20
123	60
124	30
125	70
126	50
127	70
128	40
129	60
130	20
131	30
132	10
133	60
134	30
135	60
136	30
137	60
138	20
139	40
140	40
141	40
142	80
143	30
144	10
145	20
146	10
147	30
148	10
149	220
150	30
151	30
152	20
153	30
154	40
155	50
156	40
157	30
158	20
159	20
160	10
161	70
162	30
163	40
164	10
165	30
166	20
167	50
168	30
169	40
170	20
171	30
172	10
173	20
174	10
175	30
176	10
177	30
178	20
179	20
180	10
181	20
182	20
183	30
184	20
185	20
186	10
187	10
188	10
189	20
190	20
191	190
192	30
193	20
194	20
195	20
196	20
197	20
198	20
199	20
200	20
201	20
202	20
204	10
205	20
206	10
207	10
208	10
209	20
210	20
211	20
212	20
213	20
214	10
215	10
216	10
217	20
218	10
219	10
220	10
221	10
222	10
223	30
224	20
225	20
226	10
227	20
228	20
229	20
230	10
231	10
232	10
233	10
234	10
235	10
236	10
237	30
238	30
239	30
240	20
241	30
242	20
243	30
251	10
252	20
253	20
254	40
255	40
256	30
257	40
258	10
259	10
265	40
266	40
267	40
268	20
269	80
270	40
271	60
272	10
278	10
279	20
280	10
281	10
282	20
283	190
284	190
285	110
286	50
287	20
293	20
294	90
296	20
297	300
298	110
299	110
300	20
307	20
308	150
309	80
310	20
311	240
312	230
313	270
314	40
325	20
326	50
327	10
328	20
353	10
354	50
355	10
356	10
368	160
369	30
371	30
386	680
387	150
388	20
