Mass Spectrum: Adenosine, N(6)-[2-methoxybenzyl]-4'-[N-ethylcarbamoyl]-4'-dehydroxymethyl-
Formula: C20H24N6O5
CAS: 152918-41-7
Molecular weight: 428
m/z	intensity
41	245
42	154
43	408
44	434
45	191
46	97
50	116
51	239
52	115
53	97
54	74
55	202
56	134
57	151
58	70
59	48
60	107
61	41
63	123
64	56
65	353
66	119
67	89
68	63
69	101
70	100
71	139
72	167
73	112
74	70
75	34
76	41
77	448
78	339
79	124
80	16
81	68
82	53
83	89
84	38
85	200
87	22
89	61
90	36
91	999
92	146
93	247
94	90
95	110
97	64
98	17
99	16
101	24
102	17
103	18
104	122
105	238
106	293
107	118
108	76
109	56
111	35
114	15
115	19
116	24
117	17
118	46
119	223
120	242
121	668
122	170
123	15
124	67
129	15
131	17
132	16
133	43
134	273
135	88
136	414
137	198
145	19
146	25
148	146
149	69
162	50
163	96
164	137
176	33
177	16
192	162
206	113
210	19
212	16
221	93
222	25
223	15
224	390
225	91
226	20
236	18
240	215
241	17
254	239
255	450
256	111
266	15
268	58
284	74
298	60
336	16
397	80
428	197
429	20
