Mass Spectrum: D-Tryptophan
Formula: C11H12N2O2
CAS: 153-94-6
Molecular weight: 204
m/z	intensity
26	3
27	9
28	61
29	16
30	7
37	2
38	4
39	12
41	3
42	4
43	2
44	1
45	9
46	4
49	1
50	11
51	25
52	9
53	3
54	2
55	0
56	0
57	0
61	2
62	7
63	18
64	5
65	8
66	1
67	0
72	0
73	1
74	19
75	15
76	18
77	93
78	14
79	13
80	2
81	0
85	0
86	2
87	3
88	3
89	12
90	7
91	3
92	0
93	0
98	1
99	1
100	1
101	12
102	34
103	73
104	9
105	1
106	0
107	0
113	2
114	3
115	13
116	4
117	21
118	4
127	1
128	28
129	33
130	999
131	80
132	20
133	2
140	2
141	2
142	8
143	5
144	1
155	4
156	4
157	6
158	13
159	19
160	2
170	1
204	31
205	3
