Mass Spectrum: 2-Isopropyl-5-oxohexanal
Formula: C9H16O2
CAS: 15303-46-5
Molecular weight: 156
m/z	intensity
36	30
39	89
40	7
41	178
42	31
43	999
44	26
45	7
51	10
53	13
54	7
55	84
56	17
57	34
58	777
59	92
60	2
67	10
68	48
69	192
70	113
71	269
79	7
80	1
81	68
82	6
83	49
84	11
85	76
86	46
87	2
93	6
95	110
96	36
97	3
98	5
99	58
109	0
110	105
111	6
112	7
113	13
114	0
120	20
123	62
128	18
138	24
141	17
