Mass Spectrum: Formetorex
Formula: C10H13NO
CAS: 15302-18-8
Molecular weight: 163
m/z	intensity
38	7
39	68
40	22
41	29
42	60
43	21
44	623
45	21
46	5
50	24
51	63
52	13
53	6
57	5
58	7
59	4
60	7
61	4
62	13
63	60
64	16
65	166
66	12
72	951
73	38
74	11
75	11
76	9
77	48
78	17
79	7
87	5
89	44
90	20
91	359
92	67
93	7
102	7
103	27
104	8
114	3
115	55
116	15
117	176
118	999
119	97
120	22
132	4
163	7
