Mass Spectrum: Ethylenediamine N,N'-bis[2-[1-phenylmethylidene]hydrazinothiocarboxamide
Formula: C18H20N6S2
CAS: 15307-54-7
Molecular weight: 384
m/z	intensity
42	123
43	206
44	195
45	58
46	16
47	11
48	4
49	18
50	220
51	529
52	68
53	11
54	10
55	23
56	8
57	47
58	62
59	114
60	167
61	43
62	71
63	179
64	78
65	84
66	40
67	10
68	5
69	25
70	10
71	15
72	46
73	46
74	92
75	85
76	318
77	999
78	179
79	37
80	6
81	9
82	4
83	3
84	18
85	20
86	69
87	5
88	24
89	281
90	224
91	118
92	70
93	139
94	12
95	4
96	2
97	2
98	1
99	7
100	14
101	129
102	322
103	94
104	942
105	179
106	322
107	23
108	2
109	7
111	16
113	0
114	1
115	7
116	15
117	24
118	53
119	206
120	326
121	52
122	9
123	3
124	3
126	2
127	3
128	35
129	40
130	26
131	437
132	47
133	12
134	11
135	15
136	11
137	6
138	4
139	1
141	3
142	9
143	1
144	13
145	12
146	15
147	16
148	9
149	4
150	3
151	6
152	17
153	6
154	3
155	1
156	0
158	4
159	15
160	19
162	675
163	277
164	51
165	24
166	3
167	1
169	1
170	2
172	6
173	1
174	7
176	15
177	36
178	88
179	230
180	631
181	117
182	29
183	2
186	2
187	34
188	34
189	9
190	3
191	20
192	10
193	6
194	36
195	5
196	1
201	0
202	1
203	9
204	58
205	86
206	31
207	395
208	419
209	64
210	6
211	0
214	0
216	0
218	1
219	3
220	3
222	454
223	61
224	23
225	3
231	2
232	1
233	1
234	3
236	7
237	0
238	1
239	0
245	1
246	15
247	10
248	2
256	1
262	8
263	6
264	41
265	3
266	10
267	1
277	7
278	0
280	5
281	1
282	7
283	0
309	0
310	32
311	8
312	3
384	7
385	2
386	0
