Mass Spectrum: Tofenacin
Formula: C17H21NO
CAS: 15301-93-6
Molecular weight: 255
m/z	intensity
43	52
44	999
55	30
57	29
58	29
59	286
65	19
77	43
78	10
81	10
89	9
91	32
115	19
139	10
141	10
152	19
153	9
165	140
166	92
167	19
178	51
179	50
180	20
181	61
197	10
