Mass Spectrum: Benzofurazan-4,7(4H,7H)-dione, 5-acetylamino-6-phenylamino-
Formula: C14H10N4O4
CAS: 153136-32-4
Molecular weight: 298
m/z	intensity
33	1
34	0
35	2
37	10
38	31
39	63
40	23
43	999
44	38
45	18
47	3
48	2
50	101
51	255
52	42
53	23
54	25
55	7
56	2
57	3
59	3
61	5
62	15
63	31
64	20
65	44
66	23
67	20
68	19
69	11
70	24
71	2
72	1
74	28
75	36
77	754
78	79
79	16
80	9
81	8
82	8
83	12
85	9
87	8
88	14
89	22
90	13
91	33
92	31
93	75
94	40
95	15
96	3
97	2
98	5
99	5
100	5
101	9
102	35
103	161
104	462
105	52
107	23
108	5
109	2
110	1
111	1
112	2
114	27
115	37
116	26
117	16
118	43
119	26
120	39
121	5
123	7
124	1
125	3
126	7
127	10
129	191
130	41
131	86
132	47
134	12
135	8
136	1
137	1
138	0
139	1
140	5
141	18
142	37
143	72
144	37
145	15
146	13
147	19
148	2
149	0
150	0
151	1
152	4
153	16
154	13
155	51
156	46
157	38
158	29
159	28
160	5
161	1
162	0
163	1
164	0
165	3
166	2
167	4
168	10
169	9
170	12
171	28
172	14
173	9
174	9
175	4
176	3
177	0
178	1
179	2
180	5
181	13
182	12
183	20
184	47
185	54
186	23
187	3
188	1
189	0
190	0
192	6
193	6
194	5
195	2
196	5
197	4
198	8
199	8
200	14
201	8
202	10
203	1
204	0
206	0
207	1
208	3
209	10
210	25
211	41
212	87
213	12
215	2
216	0
217	0
218	0
220	0
221	3
222	1
224	3
225	17
226	10
227	4
228	2
229	2
230	0
231	0
234	0
235	1
237	13
238	22
239	115
240	18
241	2
243	5
244	3
245	0
247	1
248	0
249	1
250	4
251	18
252	4
256	691
257	78
258	9
259	1
260	0
261	0
262	0
263	0
268	1
273	0
275	0
277	0
280	60
281	8
282	1
283	1
284	0
286	1
293	0
295	0
296	2
298	146
299	21
300	2
301	0
