Mass Spectrum: Dicyclohexylphosphinodithioic acid, a-benzoylbenzyl ester
Formula: C26H33OPS2
CAS: 153139-67-4
Molecular weight: 456
m/z	intensity
12	3
14	4
15	6
16	8
17	50
18	174
20	4
26	7
27	59
28	59
29	102
30	4
31	9
32	12
34	4
38	4
39	90
40	11
41	469
42	24
43	56
44	31
45	54
46	4
47	7
50	16
51	75
52	10
53	58
54	32
55	999
56	47
57	18
58	3
59	5
60	4
61	4
62	4
63	76
64	11
65	44
66	10
67	60
68	5
69	11
70	5
71	15
73	9
74	4
75	5
76	13
77	284
78	30
79	100
80	22
81	435
82	51
83	536
84	40
85	85
86	6
87	7
89	41
90	71
91	65
92	7
95	9
96	4
97	54
98	5
99	12
102	4
103	4
105	567
106	48
107	5
109	5
111	21
112	8
113	337
114	29
115	37
116	5
117	6
118	64
119	7
121	67
122	11
123	35
124	4
125	5
126	5
127	5
128	13
129	5
139	9
141	9
145	126
146	21
147	98
148	146
149	89
150	16
151	15
152	96
153	22
154	4
163	8
164	22
165	149
166	50
167	141
168	21
169	4
171	6
178	257
179	311
180	47
181	40
182	4
185	4
194	13
195	25
196	366
197	61
198	7
199	5
210	616
211	138
212	97
213	25
214	6
224	7
225	4
227	5
229	238
230	44
231	13
245	8
246	4
252	37
253	5
257	3
259	3
261	319
262	51
263	35
264	5
273	3
278	31
279	4
280	4
283	2
292	2
334	6
335	2
341	2
351	9
352	2
373	5
374	7
375	2
423	197
424	60
425	18
426	4
456	20
457	6
458	3
