Mass Spectrum: 5-[p-Chlorocinnamylidene]rhodanine
Formula: C12H8ClNOS2
CAS: 15328-90-2
Molecular weight: 281
m/z	intensity
41	4
43	4
44	12
45	135
46	5
47	12
48	1
49	21
50	103
51	120
52	17
53	19
54	1
57	39
58	51
59	136
60	14
61	27
62	64
63	151
64	25
65	35
66	56
67	4
69	100
70	10
71	12
72	6
73	36
74	73
75	147
76	49
77	46
79	725
81	20
82	45
83	10
84	24
85	21
86	113
87	53
88	36
89	106
90	12
91	2
93	29
94	3
95	10
96	12
97	145
98	70
99	52
100	16
101	66
102	29
103	4
105	3
106	6
107	2
108	8
109	5
110	7
111	24
112	8
113	86
114	169
115	999
116	86
117	10
119	12
120	2
121	3
122	2
123	16
124	2
125	44
126	104
127	62
128	6
129	1
130	1
131	2
132	8
133	10
134	10
135	1
136	20
137	4
138	4
140	3
141	6
145	1
147	1
148	4
149	134
150	30
151	44
152	10
155	6
156	2
157	12
158	116
159	491
160	65
161	35
162	119
163	16
164	38
165	3
168	14
170	5
185	1
189	24
190	5
191	8
192	5
194	667
195	74
196	217
197	25
198	10
221	3
222	12
223	1
224	4
281	385
282	55
283	132
284	22
285	12
