Mass Spectrum: Aniline, N-(2-bromoallyl)-
Formula: C9H10BrN
CAS: 15332-75-9
Molecular weight: 211
m/z	intensity
26	25
27	37
28	51
29	2
30	12
31	0
32	2
34	0
36	1
37	14
38	44
39	237
40	33
41	24
42	2
43	2
44	1
45	1
47	0
48	0
49	3
50	46
51	137
52	49
53	16
54	12
55	2
56	1
58	0
59	1
60	0
61	4
62	13
63	41
64	36
65	188
66	37
67	4
68	0
69	0
71	0
73	2
74	13
75	12
76	18
77	228
78	43
79	54
80	5
81	3
82	7
83	3
84	0
85	0
87	1
89	3
90	8
91	28
92	54
93	43
94	3
95	5
98	0
99	0
100	1
101	2
102	8
103	26
104	40
105	30
106	999
107	80
108	3
109	0
110	0
111	1
115	12
116	3
117	88
118	9
119	11
120	1
121	10
122	1
123	0
128	4
129	4
130	149
131	37
132	355
133	36
134	1
136	0
144	1
145	1
147	0
156	0
170	1
171	2
182	1
184	2
187	0
195	0
210	8
211	198
212	28
213	193
214	20
215	1
