Mass Spectrum: Zinc, bis(dipentylcarbamodithioato-S,S')-, (T-4)-
Formula: C22H44N2S4Zn
CAS: 15337-18-5
Molecular weight: 528
m/z	intensity
41	999
42	835
43	983
44	551
45	170
46	45
47	99
48	11
49	7
50	15
51	27
52	19
53	94
54	78
55	511
56	180
57	98
58	41
59	81
60	150
61	84
62	40
63	10
64	12
65	23
66	15
67	78
68	105
69	588
70	215
71	784
72	231
73	78
74	110
75	45
76	195
77	58
78	23
79	18
80	39
81	27
82	71
83	17
84	70
85	27
86	75
87	31
88	75
89	47
90	7
91	5
92	7
93	17
94	38
95	22
96	94
97	20
98	207
99	21
100	214
101	124
102	43
103	36
104	52
105	7
106	11
107	6
108	27
109	20
110	177
111	31
112	186
113	23
114	64
115	28
116	13
117	6
118	11
119	7
120	7
121	4
122	8
123	4
124	19
125	8
126	37
127	5
128	73
129	76
130	242
131	25
132	31
133	9
134	6
136	25
138	42
139	10
140	10
142	13
143	14
144	60
150	18
151	4
152	43
153	6
154	15
156	104
157	18
158	31
162	13
163	7
164	12
165	15
166	62
167	87
168	685
169	87
170	24
171	7
172	12
173	5
175	12
176	8
180	10
182	8
184	6
188	16
194	6
196	15
198	54
199	20
200	343
201	54
202	23
226	8
228	6
230	9
231	16
232	93
233	41
234	15
235	5
296	91
297	16
298	63
299	19
300	44
301	8
302	6
328	54
329	13
330	42
331	12
332	24
333	5
334	5
393	14
395	18
396	4
397	11
398	6
399	4
425	17
427	11
429	8
495	27
496	7
497	21
498	8
499	16
500	4
501	3
527	41
528	110
529	56
530	83
531	41
532	56
533	1
