Mass Spectrum: 5-[2-Piperidino-1-(4-chlorophenyl)-vinyl]-1,2,4-thiadiazole
Formula: C15H16ClN3S
CAS: 153333-59-6
Molecular weight: 305
m/z	intensity
12	6
14	12
15	77
16	3
17	4
18	27
26	52
27	345
28	576
29	312
30	191
31	5
32	17
33	4
34	2
35	5
36	7
37	11
39	327
41	999
42	386
43	97
44	66
45	52
46	16
47	6
49	6
50	38
51	43
52	21
53	59
54	107
55	210
56	322
57	91
58	27
59	55
60	14
61	14
62	27
63	36
64	12
65	15
66	17
67	68
68	52
69	194
70	48
71	15
72	26
73	30
74	24
75	55
76	19
77	11
78	5
79	8
80	12
81	14
82	45
84	485
85	52
86	20
87	36
88	30
89	24
90	4
91	2
93	28
94	15
95	8
96	44
97	21
98	11
99	27
100	17
101	20
102	16
103	5
104	3
105	6
106	8
107	5
108	6
109	5
111	58
112	14
113	20
114	86
115	23
116	8
117	6
118	4
119	11
120	15
121	13
123	93
124	15
125	33
126	23
127	23
128	20
129	9
130	7
131	8
132	40
133	17
134	8
135	21
136	22
137	10
138	15
139	10
140	10
141	12
142	35
143	7
144	3
145	6
146	29
147	10
148	22
149	15
150	26
151	23
152	20
153	24
154	16
155	54
156	14
157	19
158	21
159	27
160	14
161	11
162	27
163	8
164	10
165	6
166	6
167	20
168	12
169	10
170	5
171	3
173	46
174	41
175	21
176	14
177	8
178	6
179	4
180	9
181	7
182	20
183	20
184	10
185	22
186	33
187	54
188	11
189	18
190	6
191	5
192	5
193	12
194	22
195	23
196	12
197	3
198	3
199	4
200	4
201	5
202	2
203	4
204	2
205	3
206	4
207	6
208	13
209	42
210	42
211	21
212	14
213	4
214	4
215	3
216	3
217	7
218	8
219	5
221	70
222	17
223	30
224	6
225	5
226	3
227	1
228	2
229	1
230	5
231	2
232	3
233	2
234	4
235	5
236	32
237	46
238	10
239	2
240	1
241	0
243	9
244	4
245	19
246	78
247	19
248	27
249	10
250	2
251	3
252	1
253	1
255	10
256	2
257	4
258	1
259	2
260	2
261	2
262	5
263	1
264	2
268	0
270	2
272	135
273	26
274	43
275	9
276	5
277	15
278	5
279	6
280	1
281	0
287	1
289	5
290	1
291	1
305	160
306	44
307	60
308	14
309	3
310	0
