Mass Spectrum: Octadecanoic acid, 4-hydroxybutyl ester
Formula: C22H44O3
CAS: 15337-64-1
Molecular weight: 356
m/z	intensity
26	5
27	66
28	25
29	178
30	7
31	80
32	3
33	1
36	2
37	2
38	3
39	42
40	15
41	349
42	171
43	607
44	48
45	25
46	1
47	1
49	1
50	2
51	2
52	2
53	17
54	66
55	592
56	100
57	321
58	27
59	17
60	114
61	44
62	2
63	2
64	1
65	4
66	4
67	45
68	29
69	178
70	50
71	257
72	42
73	999
74	50
75	4
76	1
77	4
78	2
79	11
80	7
81	38
82	27
83	114
84	171
85	78
86	14
87	35
88	4
89	71
90	4
91	52
92	4
93	9
94	6
95	32
96	19
97	92
98	167
99	26
100	6
101	16
102	12
103	4
104	128
105	7
106	2
107	7
108	4
109	17
110	9
111	40
112	46
113	15
114	12
115	19
116	7
117	3
118	1
119	2
120	2
121	9
122	3
123	9
124	4
125	17
126	13
127	14
128	4
129	34
130	5
131	2
132	114
133	10
134	2
135	7
136	2
137	4
138	4
139	9
140	7
141	6
142	2
143	8
144	2
145	4
146	2
147	2
149	5
150	2
151	3
152	3
153	5
154	9
155	4
156	2
157	5
158	4
159	2
160	1
161	1
162	1
163	3
164	1
165	2
166	3
167	4
168	5
169	3
170	3
171	9
172	3
173	2
174	10
175	2
176	2
177	1
178	1
179	2
180	4
181	3
182	4
183	3
184	1
185	17
186	4
187	2
188	3
189	1
191	2
192	1
193	2
194	2
195	3
196	4
197	2
198	1
199	7
200	2
201	1
202	1
203	1
204	1
205	1
206	1
207	2
208	1
209	2
210	6
211	2
212	1
213	3
214	1
215	1
216	1
217	1
218	1
219	1
220	1
221	1
222	4
223	3
224	4
225	2
226	1
227	4
228	2
229	1
237	2
238	2
239	1
240	1
241	17
242	3
243	2
246	1
247	2
248	3
249	2
250	1
251	1
252	1
253	1
254	3
255	2
256	1
264	3
265	4
266	21
267	59
268	12
282	2
283	3
284	67
285	164
286	28
287	4
288	1
325	4
326	8
327	2
328	1
338	3
339	2
340	1
356	3
357	2
358	1
