Mass Spectrum: Eicos-9-ene-1,20-diacetate
Formula: C24H44O4
CAS: 153444-61-2
Molecular weight: 396
m/z	intensity
41	333
43	999
44	31
45	7
51	2
53	37
54	182
55	515
56	55
57	83
58	6
59	2
61	113
62	2
65	11
66	44
67	433
68	175
69	238
70	32
71	44
72	5
73	30
74	2
77	13
79	133
80	347
81	362
82	437
83	201
84	18
85	25
86	2
87	2
91	13
92	11
93	101
94	184
95	325
96	398
97	164
98	21
99	11
100	1
101	1
105	4
107	72
108	73
109	173
110	189
111	102
112	12
113	6
114	1
115	1
119	3
121	160
122	94
123	119
124	126
125	64
126	7
133	2
135	123
136	67
137	75
138	87
139	27
140	4
147	2
149	54
150	34
151	28
152	37
153	9
154	3
161	1
163	26
164	19
165	19
166	23
167	4
177	14
178	13
179	9
180	13
181	5
191	6
192	11
193	9
194	17
195	7
197	2
205	6
206	8
207	5
208	6
209	2
210	1
213	2
219	8
220	12
221	4
225	3
233	8
234	6
235	3
237	2
238	1
239	3
241	1
247	7
248	15
249	3
251	3
252	1
253	3
255	3
256	2
265	4
266	3
267	2
275	11
276	54
277	13
278	2
279	5
280	4
281	3
292	2
293	26
294	11
295	3
307	3
308	7
309	2
318	1
321	1
335	4
336	31
337	8
353	2
354	2
396	50
397	12
398	2
