Mass Spectrum: 1-Phenyl-9-(3-phenylthioureido)-3,6-diazahomoadamantane
Formula: C22H26N4S
CAS: 153464-75-6
Molecular weight: 378
m/z	intensity
38	38
39	120
40	58
41	76
42	220
43	39
44	62
45	24
46	41
47	30
48	11
49	14
50	49
51	86
52	47
53	22
54	47
55	23
56	41
57	26
58	56
59	14
60	4
61	11
62	18
63	47
64	29
65	150
66	230
67	44
68	21
69	11
70	21
71	16
72	999
73	52
74	20
75	16
76	25
77	160
78	45
79	12
80	11
81	10
82	26
83	12
84	33
85	8
86	2
87	16
88	3
89	12
90	9
91	110
92	91
93	750
94	59
95	6
96	7
97	8
98	29
99	6
100	2
101	5
102	19
103	32
104	44
105	45
106	15
107	8
108	9
109	5
110	10
111	14
112	4
113	20
114	4
115	82
116	26
117	41
118	74
119	25
120	15
121	4
122	1
123	4
124	3
125	76
126	12
127	24
128	75
129	33
130	17
131	12
132	34
133	9
134	3
135	130
136	17
137	11
139	4
140	7
141	39
142	35
143	37
144	22
145	10
146	26
147	10
148	2
149	1
151	2
152	8
153	10
154	26
155	79
156	44
157	12
158	45
159	50
160	13
161	2
165	1
166	3
167	8
168	13
169	19
170	80
171	18
172	7
173	3
174	4
180	5
181	6
182	18
183	22
184	28
185	8
186	8
187	18
188	3
195	3
196	4
197	7
198	5
199	7
200	5
201	10
202	22
203	9
209	2
211	6
212	15
213	36
214	15
225	8
226	11
227	77
228	18
229	8
242	2
243	5
253	8
279	2
284	2
285	240
286	47
287	16
288	2
292	2
344	6
345	2
378	16
379	4
380	1
