Mass Spectrum: Benzene, 1-(1,1-dimethylethoxy)-3-methyl-
Formula: C11H16O
CAS: 15359-97-4
Molecular weight: 164
m/z	intensity
41	138
43	63
51	75
52	50
53	50
55	50
56	50
57	138
58	63
65	88
77	125
78	63
79	113
80	100
85	63
89	50
90	113
91	113
106	75
107	275
108	999
109	150
149	75
164	100
