Mass Spectrum: o-Mentha-1(7),8-dien-3-ol
Formula: C10H16O
CAS: 15358-81-3
Molecular weight: 152
m/z	intensity
41	737
42	80
43	301
44	28
50	40
51	138
52	64
53	299
54	78
55	517
56	108
57	325
63	38
64	8
65	144
66	54
67	563
68	90
69	162
70	315
71	22
77	395
78	100
79	483
80	92
81	741
82	24
83	341
84	36
91	577
92	172
93	999
94	160
95	301
96	641
97	124
98	10
105	160
106	232
107	202
108	142
109	581
110	120
111	34
117	22
119	589
120	30
121	68
123	100
124	60
133	22
134	206
135	28
137	421
138	24
152	56
