Mass Spectrum: Dianthranilide
Formula: C14H10N2O2
CAS: 15351-42-5
Molecular weight: 238
m/z	intensity
39	120
50	40
64	140
76	180
91	200
119	999
194	210
210	120
238	640
