Mass Spectrum: (-)-Menthoxyacetyl chloride
Formula: C12H21ClO2
CAS: 15356-62-4
Molecular weight: 232
m/z	intensity
12	2
14	5
15	11
16	4
17	2
18	7
26	8
27	230
28	175
29	215
30	48
31	26
32	10
35	16
36	125
37	6
38	39
39	233
40	42
41	744
42	80
43	376
44	67
45	19
46	3
47	1
48	1
49	56
50	9
51	34
52	20
53	166
54	123
55	938
56	218
57	379
58	19
59	7
60	2
61	2
62	3
63	9
64	4
65	40
66	19
67	455
68	194
69	562
70	97
71	74
72	6
73	5
74	2
75	35
76	3
77	66
78	13
79	98
80	95
81	999
82	405
83	929
84	75
85	53
86	7
87	7
88	4
89	199
90	12
91	80
92	9
93	53
94	71
95	872
96	252
97	157
98	21
99	10
100	1
102	2
103	17
104	5
105	16
106	3
107	12
108	7
109	111
110	50
111	26
112	23
113	5
114	1
115	3
116	1
117	12
118	2
119	51
120	5
121	23
122	6
123	369
124	36
125	8
126	1
127	1
129	20
130	2
131	6
132	1
133	7
134	3
135	5
136	7
137	26
138	311
139	453
140	49
141	3
143	3
145	2
146	2
147	150
148	10
149	48
150	4
151	2
152	1
153	9
154	4
155	8
156	1
160	1
161	11
162	2
163	5
165	2
166	1
167	2
168	5
169	13
170	1
175	2
180	1
189	1
191	2
193	2
