Mass Spectrum: d-Menthol
Formula: C10H20O
CAS: 15356-60-2
Molecular weight: 156
m/z	intensity
27	382
28	56
29	327
30	9
31	91
37	3
38	10
39	273
40	49
41	667
42	107
43	382
44	69
45	39
46	1
47	2
48	1
49	1
50	7
51	26
52	12
53	125
54	63
55	556
56	222
57	340
58	38
59	23
62	1
63	6
64	2
65	25
66	11
67	290
68	145
69	366
70	135
71	999
72	67
73	14
77	30
78	6
79	35
80	110
81	860
82	361
83	135
84	32
85	87
86	43
87	6
91	10
92	1
93	27
94	46
95	717
96	288
97	53
98	4
99	42
100	7
105	1
107	3
108	2
109	90
110	66
111	17
112	17
113	14
114	1
121	2
123	287
124	30
125	4
137	9
138	311
139	42
140	1
141	8
154	1
155	2
156	1
