Mass Spectrum: Tetracosa-2,6,14,18,22-pentaene-10,11-diol, 2,6,10,15,19,23-hexamethyl-
Formula: C30H52O2
CAS: 153650-82-9
Molecular weight: 444
m/z	intensity
39	17
40	8
41	299
42	20
43	176
44	8
45	24
48	8
51	11
53	77
54	21
55	237
56	37
57	130
58	56
59	51
60	12
61	7
65	33
66	20
67	300
68	293
69	999
70	252
71	238
72	33
73	26
74	21
76	15
77	78
78	19
79	169
80	122
81	696
82	286
83	252
84	184
85	130
86	14
87	29
88	12
89	7
91	128
92	122
93	394
94	227
95	582
96	198
97	227
98	144
99	128
100	21
101	18
102	7
103	14
104	20
105	131
106	70
107	388
108	222
109	616
110	151
111	221
112	45
113	158
114	22
115	9
116	7
117	21
118	9
119	145
120	67
121	454
122	224
123	447
124	172
125	241
126	69
127	120
128	19
129	21
131	21
132	16
133	160
134	126
135	422
136	491
137	514
138	194
139	233
140	44
141	34
142	9
143	29
144	11
145	59
146	23
147	208
148	132
149	341
150	151
151	227
152	59
153	95
154	17
155	15
156	12
157	12
158	9
159	50
160	18
161	144
162	53
163	127
164	47
165	156
166	54
167	36
168	20
169	14
170	9
171	19
173	34
174	11
175	98
176	60
177	430
178	156
179	102
180	25
181	30
183	11
185	12
187	48
188	18
189	123
190	69
191	89
192	56
193	67
194	64
195	189
196	40
197	29
198	8
199	12
201	40
202	21
203	116
204	80
205	82
206	38
207	111
208	103
209	24
210	8
211	22
212	14
213	12
214	7
215	42
216	25
217	41
218	39
219	55
220	39
221	33
222	14
223	15
225	13
226	10
227	16
229	22
230	12
231	67
232	23
233	51
234	25
235	24
241	10
243	11
244	7
245	14
247	30
248	28
249	53
250	27
251	11
253	10
255	10
257	13
258	20
259	16
260	8
261	12
263	11
269	9
271	32
272	10
273	18
274	10
275	21
276	108
277	27
278	9
283	8
287	8
289	91
290	22
291	27
292	18
293	10
294	48
295	17
296	7
297	13
299	7
300	14
301	10
302	8
313	8
315	31
316	9
317	11
319	8
326	9
329	9
330	7
332	8
339	28
340	16
341	11
343	8
344	15
352	8
354	8
355	12
357	48
358	23
359	8
360	9
362	23
365	14
375	23
376	8
383	24
384	7
388	6
393	9
401	13
408	18
409	7
410	6
426	66
427	27
429	9
444	71
445	22
446	7
