Mass Spectrum: 2-Formamido-2',4'-dinitro-4-[trifluoromethyl]-diphenylsulfide
Formula: C14H8F3N3O5S
CAS: 1536-26-1
Molecular weight: 387
m/z	intensity
41	57
42	16
43	20
44	45
45	709
46	145
47	47
48	22
49	30
50	229
51	273
52	182
53	103
54	31
55	22
56	15
57	155
58	75
59	20
60	38
61	58
62	261
63	999
64	188
65	104
66	30
67	17
68	19
69	771
70	170
71	103
72	29
73	30
74	301
75	440
76	155
77	128
78	103
79	127
80	68
81	107
82	118
83	114
84	46
85	35
86	44
87	64
88	87
89	80
90	59
91	64
92	36
93	138
94	86
95	440
96	143
97	56
98	105
99	67
100	44
101	181
102	59
103	19
104	17
105	44
106	72
107	104
108	136
109	63
110	43
111	42
112	27
113	130
114	97
115	56
116	16
117	20
118	17
119	50
120	90
121	63
122	71
123	124
124	49
125	56
126	114
127	73
128	95
129	77
130	21
131	25
132	116
133	132
134	30
135	24
136	44
137	122
138	57
139	79
140	125
141	34
142	16
143	22
144	36
145	113
146	84
147	46
148	595
149	70
150	19
151	38
152	47
153	110
154	65
155	20
156	20
157	125
158	48
159	47
160	93
161	60
162	17
163	27
164	88
165	48
166	27
167	16
168	56
169	108
170	68
171	160
172	67
173	164
174	55
175	63
176	317
177	45
178	12
179	136
180	192
181	42
182	52
183	129
184	60
185	39
186	32
187	32
188	538
189	79
190	38
191	17
192	88
193	141
194	34
195	47
196	144
197	117
198	77
199	36
200	31
201	17
202	90
203	84
204	80
205	15
206	31
207	48
208	121
209	30
210	23
211	13
213	21
214	28
215	21
216	22
217	22
218	14
219	19
220	68
221	139
222	327
223	52
226	107
227	35
228	43
229	28
231	16
232	15
233	16
234	46
235	38
236	26
237	56
238	39
239	61
240	21
241	13
244	12
245	21
246	31
247	59
248	325
249	512
250	89
251	21
253	31
254	42
259	18
261	49
264	38
265	81
266	162
267	42
268	15
275	13
276	17
277	12
278	143
279	27
290	18
294	17
295	33
296	14
306	25
311	20
312	56
313	12
323	12
340	17
368	29
387	79
388	13
