Mass Spectrum: 3(1H)-Imino-2-(2,3,5-tris-O-benzoyl-.beta.-D-ribofuranosyl)-2,3-dihydro-s-triazolo[4.3-b]-s-triazole
Formula: C29H24N6O7
CAS: 153631-14-2
Molecular weight: 568
m/z	intensity
42	11
43	16
44	24
45	46
46	0
47	3
48	0
49	11
50	94
51	169
52	24
53	9
54	2
55	5
56	1
57	3
60	1
61	4
62	5
63	7
64	2
65	11
66	11
67	9
68	5
69	5
70	2
71	1
72	0
73	9
74	39
75	20
76	37
77	474
78	40
79	3
80	0
81	3
82	2
83	2
84	4
85	2
89	0
91	1
92	1
93	2
94	14
95	2
96	2
97	3
98	0
99	3
100	1
103	5
104	8
105	999
106	79
107	5
111	1
112	1
115	1
117	1
121	25
122	412
123	33
124	4
125	1
129	0
135	1
136	1
139	1
145	0
146	0
147	1
150	1
155	0
158	1
161	0
162	8
163	1
164	0
165	0
166	1
171	1
175	0
177	1
181	0
186	2
198	0
199	1
201	33
202	5
203	5
204	1
217	3
218	12
219	2
265	0
281	0
294	1
309	0
321	0
322	95
323	18
324	3
339	1
445	9
446	2
