Mass Spectrum: N-Carbomethoxy-N-methoxymethylamine
Formula: C4H9NO3
CAS: 153654-07-0
Molecular weight: 119
m/z	intensity
28	56
29	999
30	252
31	144
32	111
33	9
42	100
43	56
44	26
45	211
46	19
56	26
57	22
58	56
59	703
60	777
61	36
119	118
120	6
