Mass Spectrum: 2-Thiopheneacetic acid, propyl ester
Formula: C9H12O2S
CAS: 153850-63-6
Molecular weight: 184
m/z	intensity
26	37
27	296
28	34
29	83
31	21
36	19
37	18
38	41
39	161
40	11
41	213
42	22
43	661
44	29
45	249
46	7
47	21
49	6
50	37
51	48
52	25
53	137
57	31
58	33
59	5
61	1
62	11
63	31
64	1
65	2
69	38
70	21
71	17
75	10
77	53
78	10
79	39
81	4
82	6
84	4
85	4
89	4
95	17
96	17
97	999
98	109
99	61
105	4
111	25
112	4
135	16
136	8
141	4
142	21
143	1
144	4
184	131
185	19
186	5
