Mass Spectrum: Thiophene, 2-(4-methylbenzylsulfonyl)-
Formula: C12H12O2S2
CAS: 153837-88-8
Molecular weight: 252
m/z	intensity
33	0
34	0
37	3
38	16
39	143
40	10
41	5
42	0
43	1
44	7
45	28
46	0
47	2
48	3
50	18
51	41
52	16
53	20
54	1
55	8
57	23
58	4
59	3
60	0
61	1
62	5
63	20
64	8
65	19
66	3
67	0
68	0
69	5
70	2
71	9
72	0
73	1
74	3
75	4
77	149
78	48
79	102
80	7
81	5
82	7
83	11
84	2
85	1
86	0
87	1
88	1
89	8
90	2
91	5
92	0
93	0
95	0
96	0
97	2
98	1
99	7
100	0
101	2
102	11
103	71
105	999
106	85
107	3
108	0
109	0
114	0
115	2
116	1
119	1
120	0
121	0
127	0
128	2
129	1
131	3
132	0
133	0
134	0
135	0
139	0
140	0
141	0
142	0
143	0
147	2
148	0
149	0
152	0
153	0
154	0
155	0
171	2
172	1
173	2
174	0
184	0
185	0
187	1
188	1
189	0
220	0
252	6
253	0
254	0
