Mass Spectrum: 2-Butenenitrile, 3-(2,3-dimethyl-5-oxo-1-phenyl-3-pyrazolin-4-ylamino)-
Formula: C15H16N4O
CAS: 153901-34-9
Molecular weight: 268
m/z	intensity
34	0
37	1
38	5
39	33
40	11
41	18
42	134
43	42
44	2
45	1
50	4
51	28
52	11
53	8
54	25
55	36
56	999
57	134
58	4
59	0
60	0
62	1
63	7
64	19
65	17
66	28
67	12
68	5
69	3
70	0
71	2
72	0
74	0
75	1
76	4
77	74
78	8
79	3
80	6
81	5
83	291
84	25
85	1
87	0
88	0
89	0
90	2
91	24
92	10
93	27
94	5
95	2
96	2
97	1
98	0
99	1
100	0
102	0
103	4
104	43
105	7
106	5
107	8
108	5
109	27
110	18
111	2
112	0
114	2
115	2
116	1
117	3
118	17
119	17
120	11
121	11
122	4
123	2
124	1
125	0
126	0
127	0
128	0
129	1
130	2
131	1
132	5
133	3
134	23
135	6
136	5
137	24
138	2
139	0
140	0
142	1
143	2
144	1
145	2
146	3
147	7
148	37
149	40
150	4
152	15
153	1
154	0
155	0
156	0
157	2
158	6
159	4
160	1
161	0
162	0
163	0
164	0
167	0
169	1
170	0
171	1
172	1
173	1
174	1
175	5
176	27
177	8
178	0
181	0
182	0
184	4
185	2
186	1
187	3
188	5
189	0
191	0
193	0
195	0
196	0
197	1
198	2
199	14
200	9
201	3
202	2
203	3
204	0
208	0
210	2
211	1
212	3
213	3
214	5
215	0
223	0
224	5
225	3
226	5
228	195
229	29
230	2
231	0
236	0
237	0
238	1
239	4
240	1
241	2
242	3
243	0
245	8
246	1
249	0
250	0
251	1
253	21
254	3
255	0
265	0
268	479
269	78
270	8
271	0
