Mass Spectrum: Cyclopropanoic acid, 1-trimethylsilylethynyl,-2-methyl, methyl ester, trans-
Formula: C11H18O2Si
CAS: 153943-55-6
Molecular weight: 210
m/z	intensity
39	183
41	91
43	508
45	190
46	7
47	10
50	32
51	69
53	175
54	23
55	67
56	7
59	747
60	30
61	28
63	50
65	76
67	207
69	130
70	11
71	15
73	234
74	37
75	106
77	187
78	240
79	90
81	62
83	311
84	23
85	16
89	162
91	209
93	153
94	18
95	43
97	332
98	35
99	38
101	9
103	10
106	880
107	161
109	89
110	10
111	7
113	999
114	88
115	33
119	14
121	314
122	42
123	29
125	16
133	7
135	30
136	37
137	43
138	6
139	7
149	5
150	7
151	13
163	5
165	5
167	13
179	70
180	9
195	47
196	7
210	180
211	27
212	9
