Mass Spectrum: .alpha.-D-Ribofuranoside (2-pyridyl)-2,3-O-isopropylidene-1-thio-
Formula: C13H17NO4S
CAS: 153984-51-1
Molecular weight: 283
m/z	intensity
26	7
27	59
28	3
29	56
30	2
31	158
37	0
38	4
39	88
40	7
41	141
42	11
43	293
44	10
45	34
47	8
50	7
51	65
52	37
53	9
54	5
55	83
56	6
57	72
58	10
59	623
60	19
61	12
64	1
65	3
66	4
67	142
68	42
69	171
70	10
71	236
72	10
73	128
74	5
75	2
76	2
77	2
78	173
79	93
80	17
81	3
82	5
83	26
84	79
85	128
86	14
87	15
89	26
90	1
91	1
92	3
93	2
95	3
96	5
97	32
98	8
99	4
100	4
101	48
102	2
104	3
105	1
106	11
107	4
108	2
109	4
110	24
111	999
112	613
113	77
114	62
115	95
116	6
117	4
118	1
120	1
121	2
122	2
123	15
124	22
125	6
126	21
127	3
129	40
130	3
131	1
133	1
134	1
136	80
137	10
138	14
139	71
140	59
141	16
142	50
143	5
144	3
145	1
146	1
147	0
148	2
149	7
150	10
151	172
152	102
153	17
154	9
155	3
156	0
157	2
162	5
163	0
164	4
165	2
166	12
167	2
168	17
169	157
170	14
171	8
172	44
173	51
174	8
175	0
178	129
179	14
180	8
181	0
190	1
192	9
193	1
194	25
195	3
196	3
197	0
207	0
208	2
210	3
220	1
224	4
225	7
226	1
250	3
252	7
253	2
268	18
269	2
270	1
283	154
284	26
285	9
286	1
