Mass Spectrum: 4-Acetamido-3-nitrobenzoic acid
Formula: C9H8N2O5
CAS: 1539-06-6
Molecular weight: 224
m/z	intensity
41	26
42	44
43	999
44	31
45	36
46	5
47	21
48	11
49	11
50	3
51	8
52	81
53	41
54	9
55	13
56	3
57	5
58	0
59	2
60	2
61	19
62	58
63	122
64	61
65	61
66	13
67	10
68	15
69	6
70	4
71	3
72	0
73	4
74	16
75	18
76	21
77	27
78	34
79	18
80	57
81	11
82	3
83	4
84	6
86	4
87	4
88	15
89	16
90	55
91	46
92	15
93	6
94	3
95	4
96	14
97	3
99	0
100	0
101	1
102	2
103	9
104	6
105	7
106	26
107	11
108	65
109	6
110	0
111	1
117	8
118	28
119	20
120	6
121	3
122	3
124	47
125	3
131	1
132	3
133	3
134	3
135	6
136	92
137	12
138	17
139	1
145	0
147	5
148	1
149	1
152	51
153	6
154	0
162	1
165	50
166	14
167	2
177	0
178	22
179	4
180	7
182	599
183	53
184	7
207	3
208	0
209	1
224	78
225	8
226	0
