Mass Spectrum: .alpha.-Propyldopacetamide
Formula: C11H15NO3
CAS: 154-62-1
Molecular weight: 209
m/z	intensity
15	1
26	2
27	22
28	21
29	15
30	1
38	4
39	29
40	5
41	15
42	3
43	9
44	30
45	1
50	8
51	30
52	9
53	16
54	3
55	43
56	3
57	2
58	1
62	4
63	14
64	8
65	31
66	9
67	8
68	2
69	3
70	1
71	1
72	3
74	2
75	6
76	6
77	56
78	9
79	10
80	3
81	5
82	2
83	1
86	1
87	7
88	2
89	20
90	10
91	31
92	6
93	12
94	12
95	6
96	1
97	1
98	2
101	2
102	3
103	10
104	3
105	13
106	6
107	9
108	2
109	3
110	9
111	6
114	2
115	9
116	2
117	6
118	2
119	10
120	4
121	6
122	24
123	999
124	81
125	7
127	1
128	1
129	1
130	1
131	7
132	1
133	4
134	2
135	10
136	41
137	14
138	18
139	2
141	1
142	2
145	3
146	1
147	13
148	7
149	9
150	17
151	3
152	1
162	1
163	6
164	7
165	283
166	42
167	107
168	9
169	1
170	6
171	9
172	1
180	8
181	1
209	164
210	21
211	2
