Mass Spectrum: N-.alpha.-Benzoyl-L-arginine
Formula: C13H18N4O3
CAS: 154-92-7
Molecular weight: 278
m/z	intensity
41	132
42	134
43	306
44	154
45	36
46	3
49	6
50	92
51	276
52	31
53	21
54	26
55	35
56	48
57	13
58	16
59	15
60	31
61	5
62	5
63	10
64	4
65	11
66	6
67	9
68	70
69	105
70	206
71	4
72	33
73	10
74	20
75	18
76	39
77	592
78	50
79	17
80	2
81	5
82	3
83	9
84	5
85	174
86	31
87	17
89	8
90	1
91	33
92	6
93	4
94	5
95	9
96	28
97	62
98	39
99	10
100	11
102	2
103	5
105	999
106	92
107	13
108	4
109	2
110	10
111	14
112	18
113	218
114	23
115	14
116	3
117	5
118	6
119	4
120	2
121	22
122	77
123	13
124	1
125	3
126	4
127	16
128	2
129	4
130	4
131	4
132	6
133	16
134	20
135	6
136	2
137	10
138	10
139	17
140	5
141	6
142	0
143	2
144	2
145	3
146	8
147	6
148	11
149	3
150	1
151	2
152	5
153	3
154	4
155	4
156	1
157	6
158	4
159	6
160	7
161	22
162	19
163	9
164	3
165	1
166	1
167	1
170	0
171	3
172	3
173	27
174	10
175	4
176	3
177	1
178	1
179	10
180	3
181	6
182	1
183	1
185	0
186	1
187	2
188	3
189	10
190	7
191	2
192	2
193	1
194	2
195	3
196	3
198	8
199	18
200	14
201	62
202	11
203	3
204	2
205	1
206	1
207	1
209	0
212	0
214	2
215	2
216	5
217	1
218	77
219	128
220	18
221	2
226	0
231	0
232	23
233	4
234	1
236	4
237	11
238	2
239	1
240	1
241	1
242	4
243	7
244	2
245	1
258	0
259	1
260	6
261	54
262	7
266	0
277	0
278	5
279	0
