Mass Spectrum: 2-Deoxy-D-glucose
Formula: C6H12O5
CAS: 154-17-6
Molecular weight: 164
m/z	intensity
12	1
13	5
15	114
16	6
17	38
18	193
19	136
20	3
24	1
25	4
26	24
27	120
28	218
29	311
30	45
31	412
32	123
33	7
34	1
36	1
37	3
38	5
39	58
40	20
41	108
42	123
43	462
44	314
45	342
46	27
47	40
49	2
50	1
51	3
52	2
53	14
54	19
55	143
56	352
57	556
58	113
59	19
60	999
61	310
62	22
63	2
65	1
66	1
67	2
68	45
69	121
70	29
71	348
72	69
73	252
74	465
75	50
76	4
77	2
79	1
81	14
82	23
83	12
84	12
85	180
86	552
87	45
88	8
89	11
90	7
91	14
92	3
93	1
94	2
95	2
96	1
97	35
98	28
99	16
100	34
101	5
102	10
103	197
104	13
105	2
107	2
109	2
110	7
111	15
112	2
113	1
114	1
115	251
116	29
117	20
118	2
120	32
121	2
123	1
125	1
127	3
128	9
129	24
130	2
131	1
133	17
134	1
145	1
146	5
147	21
148	2
149	1
