Mass Spectrum: 1,5-Anhydroglucitol
Formula: C6H12O5
CAS: 154-58-5
Molecular weight: 164
m/z	intensity
26	13
27	108
28	39
29	203
30	18
31	285
39	49
40	14
42	95
43	372
44	156
45	254
46	15
47	16
53	9
54	7
55	97
56	112
57	407
58	44
59	37
60	465
61	254
62	9
67	9
68	11
69	186
70	30
71	88
72	17
73	999
74	304
75	33
81	20
82	11
83	24
84	10
85	126
86	145
87	62
88	7
89	20
91	15
95	16
96	6
97	34
98	10
99	31
100	31
102	28
103	412
104	28
105	6
109	11
110	6
111	16
113	5
115	177
116	40
117	9
123	9
125	8
127	5
128	22
129	6
132	8
133	86
134	6
146	82
147	11
164	5
165	13
