Mass Spectrum: 3,5-Dimethoxyamphetamine
Formula: C11H17NO2
CAS: 15402-82-1
Molecular weight: 195
m/z	intensity
41	3
44	999
45	25
50	6
51	25
52	9
53	12
54	3
55	6
56	4
57	6
58	1
59	3
60	1
62	5
63	18
64	7
65	52
66	15
67	11
69	17
70	2
73	1
74	3
75	8
76	4
77	61
78	47
79	26
80	7
81	3
82	1
83	2
86	2
88	1
89	11
90	13
91	55
92	16
93	11
94	10
95	6
102	2
104	5
106	4
107	9
108	15
109	10
110	2
115	2
117	2
118	3
119	5
120	6
121	24
122	7
123	20
124	2
129	1
132	2
133	5
134	5
135	6
136	4
137	14
138	10
139	2
146	1
147	4
148	13
149	2
151	58
152	354
153	39
154	5
157	1
162	2
163	5
164	6
165	2
166	1
176	1
177	1
178	3
179	2
180	3
193	2
194	3
195	47
196	4
