Mass Spectrum: 1,2-Bis(difluoroamino)ethane
Formula: C2H4F4N2
CAS: 15403-23-3
Molecular weight: 132
m/z	intensity
15	999
16	12
27	257
28	646
29	15
33	341
34	4
42	179
43	5
46	289
47	4
66	422
67	6
80	174
81	4
132	23
133	1
