Mass Spectrum: 2-Oxabicyclo[2.2.1]heptane, 1,3,3,7-tetramethyl-, (1R,4S,7R)-(+)-
Formula: C10H18O
CAS: 15404-56-5
Molecular weight: 154
m/z	intensity
26	1
27	130
28	24
29	110
31	15
39	160
40	25
41	330
42	30
43	900
44	22
45	14
51	21
52	12
53	90
54	32
55	450
56	40
57	45
58	30
59	70
65	22
66	12
67	120
68	42
69	250
70	52
71	55
77	34
78	5
79	70
80	20
81	999
82	100
83	800
84	180
85	30
91	18
93	40
94	18
95	130
96	900
97	170
98	38
105	8
107	60
108	14
109	13
110	14
111	130
112	16
121	90
122	10
125	150
126	16
136	30
139	70
140	2
154	220
155	25
