Mass Spectrum: 5-Ethylhydantoin
Formula: C5H8N2O2
CAS: 15414-82-1
Molecular weight: 128
m/z	intensity
14	3
15	15
16	4
17	2
18	7
25	1
26	24
27	91
28	625
29	79
30	41
31	1
32	2
37	4
38	9
39	51
40	15
41	59
42	15
43	35
44	135
45	25
46	1
51	3
52	9
53	4
54	21
55	16
56	340
57	288
58	34
59	1
60	1
68	2
69	5
70	41
71	23
72	17
73	4
82	10
83	2
84	6
85	6
99	321
100	999
101	47
102	6
113	2
126	3
127	1
128	21
129	3
