Mass Spectrum: N-Formyl-N-methyl-3,4-methylenedioxyamphetamine
Formula: C12H15NO3
CAS: 154148-22-8
Molecular weight: 221
m/z	intensity
37	3
38	13
39	71
40	11
41	32
42	126
43	61
44	13
50	56
51	214
52	32
53	32
54	9
55	16
56	129
58	999
59	37
60	2
61	5
62	22
63	46
64	12
65	31
66	9
67	7
68	3
70	4
71	4
72	1
74	9
75	12
76	29
77	229
78	67
79	44
80	5
86	863
87	42
89	22
90	8
91	18
92	5
93	3
94	2
101	2
102	9
103	37
104	37
105	61
106	16
107	5
117	4
118	7
119	4
120	3
121	7
122	5
130	2
131	23
132	13
133	10
135	205
136	33
137	3
146	3
147	9
148	9
149	4
151	2
159	2
162	692
163	74
164	6
176	3
177	3
191	4
192	1
221	25
222	2
