Mass Spectrum: Thiophene, 2,3-dihydro-5-benzyl-2,4-dimethyl-, 1,1-dioxide
Formula: C13H16O2S
CAS: 154198-05-7
Molecular weight: 236
m/z	intensity
30	4
32	228
33	1
34	4
35	1
37	3
38	22
39	461
40	96
41	488
42	260
43	207
45	48
46	3
47	7
48	19
49	14
50	100
51	325
52	106
53	164
55	144
56	12
57	22
59	36
60	38
61	14
62	31
63	145
64	49
65	349
66	70
67	65
68	12
69	106
70	476
71	64
72	19
73	9
74	36
75	42
76	65
77	446
78	186
79	143
80	23
81	26
82	6
83	5
84	4
85	15
87	31
88	11
89	105
91	999
92	78
93	65
94	23
95	11
96	11
97	29
99	32
100	8
101	42
102	132
103	98
104	25
105	77
106	10
107	38
109	39
110	6
111	12
112	6
113	19
115	699
116	125
117	180
118	79
119	18
121	21
122	30
123	13
125	11
126	41
127	303
128	824
129	893
130	428
131	237
132	78
133	12
134	8
135	28
136	6
137	12
138	8
139	33
140	11
141	208
142	209
143	523
144	78
145	370
146	100
147	26
148	5
149	10
150	93
151	15
152	25
153	35
154	29
155	114
156	146
157	79
158	28
159	242
160	177
161	23
162	1
163	4
164	1
165	8
166	2
167	4
168	2
169	34
170	32
171	41
172	9
173	9
174	3
175	2
176	1
177	10
178	6
179	1
180	0
184	0
185	9
186	21
187	238
188	51
189	7
190	0
191	10
192	4
193	1
199	0
201	1
202	0
203	9
204	3
205	0
217	0
218	0
219	4
220	0
232	0
234	1
236	714
237	105
238	45
239	6
240	1
