Mass Spectrum: Tridecanedioic acid, diethyl ester
Formula: C17H32O4
CAS: 15423-05-9
Molecular weight: 300
m/z	intensity
15	24
16	7
26	24
27	187
28	291
29	698
30	24
31	31
39	80
40	28
41	552
42	174
43	500
44	49
45	208
53	42
54	66
55	854
56	118
57	240
58	42
59	56
60	278
61	226
67	163
68	73
69	497
70	274
71	149
72	10
73	260
74	35
75	7
77	14
79	52
80	35
81	201
82	62
83	490
84	427
85	87
86	10
87	59
88	542
89	52
91	21
93	59
94	45
95	135
96	97
97	406
98	999
99	97
100	10
101	326
102	28
105	24
107	80
108	28
109	76
110	49
111	187
112	323
113	38
114	14
115	83
116	17
119	17
121	56
122	21
123	59
124	38
125	177
126	135
127	24
128	10
129	90
130	21
131	17
133	17
134	7
135	24
136	14
137	35
138	45
139	56
140	24
141	7
142	10
143	49
144	21
147	14
148	38
149	274
150	31
151	21
152	38
153	17
154	7
155	10
156	21
157	83
158	21
161	10
162	14
163	83
164	14
165	21
166	69
167	312
168	42
169	7
170	17
171	94
172	14
173	24
179	7
180	49
181	62
182	7
185	21
190	10
191	9
198	49
199	17
200	42
207	10
208	94
209	49
210	10
211	10
212	28
213	490
214	76
227	21
228	38
241	7
255	604
256	108
257	14
300	7
