Mass Spectrum: 9H-Fluorene, 9-[(t-butylamino)dimethylsilyl]-
Formula: C19H25NSi
CAS: 154283-79-1
Molecular weight: 295
m/z	intensity
26	0
27	1
29	10
30	3
31	2
38	0
39	3
40	1
41	10
42	6
43	10
44	13
45	13
46	17
47	5
48	0
50	0
51	1
53	0
55	1
56	1
57	7
58	14
59	14
60	9
61	1
62	1
63	3
64	0
65	3
66	0
67	0
69	0
70	1
71	0
72	3
73	198
74	255
75	120
76	14
77	4
78	0
79	0
81	0
82	0
83	0
84	1
85	1
86	1
87	1
88	0
89	2
90	0
91	2
92	0
93	52
94	3
95	18
96	2
97	1
98	1
99	0
100	10
101	1
102	0
103	0
105	0
106	1
110	0
111	1
112	0
113	1
114	27
115	10
116	4
117	0
120	0
126	0
127	0
128	1
129	0
130	999
131	117
132	35
133	2
137	1
138	0
139	6
140	9
141	0
149	0
150	0
151	1
152	2
153	1
154	0
155	0
161	0
162	1
163	16
164	13
165	100
166	15
167	2
169	0
176	1
177	1
178	8
179	6
180	2
181	2
182	0
189	0
190	0
191	1
192	1
193	2
194	0
195	25
196	5
197	1
198	0
203	0
204	0
205	1
206	1
207	3
208	0
209	0
210	0
215	0
217	0
219	1
220	0
221	3
222	3
223	16
224	4
225	2
226	0
236	0
237	0
238	6
239	1
240	12
241	2
242	0
243	0
245	0
258	12
259	3
260	4
261	1
262	0
279	1
280	20
281	4
282	1
294	1
295	35
296	9
297	2
298	0
