Mass Spectrum: .alpha.-Chlorobenzaldehyde phenylhydrazone
Formula: C13H11ClN2
CAS: 15424-14-3
Molecular weight: 230
m/z	intensity
12	1
13	2
14	4
15	12
16	1
17	2
18	6
24	0
26	35
27	71
28	41
29	5
30	0
31	0
32	0
35	5
36	9
37	39
38	122
39	492
40	54
41	62
42	6
43	14
45	7
47	1
50	145
51	232
52	98
53	12
54	4
55	1
57	0
58	2
59	0
61	16
62	48
63	182
64	251
65	578
66	51
67	2
69	1
71	0
72	2
73	11
74	27
75	54
76	151
77	156
78	18
79	1
80	0
82	0
84	3
85	2
86	5
87	7
89	75
91	999
92	302
93	26
94	1
97	13
99	8
100	6
101	4
103	157
104	43
105	5
106	0
110	0
111	0
112	0
113	1
115	11
116	4
117	1
118	5
119	0
123	2
124	3
125	3
126	2
127	3
128	1
129	1
130	0
137	2
138	0
139	3
140	2
141	0
142	0
143	0
151	0
152	1
153	1
154	1
155	0
163	1
164	1
165	8
166	6
167	20
168	5
169	0
178	0
179	1
180	0
181	0
183	0
192	2
193	18
194	109
195	27
196	3
197	0
227	0
230	79
231	13
232	26
233	3
234	0
