Mass Spectrum: 1,3-Bis(methylcyclohexylaminomethyl)-2-bromobenzene
Formula: C22H35BrN2
CAS: 154243-38-6
Molecular weight: 406
m/z	intensity
12	9
14	10
15	78
16	23
17	97
18	414
26	26
27	154
28	225
29	233
30	103
31	8
32	20
38	16
39	174
40	35
41	746
42	999
43	207
44	669
45	26
50	17
51	40
52	27
53	85
54	106
55	806
56	197
57	89
58	39
60	10
62	8
63	34
64	8
65	46
66	21
67	85
68	213
69	82
70	241
71	40
72	15
73	11
75	11
76	20
77	229
78	152
79	111
80	44
81	78
82	89
83	127
84	55
85	21
86	17
89	82
90	53
91	80
92	19
93	20
94	21
95	12
96	36
97	22
98	29
99	38
100	17
101	13
102	48
103	422
104	577
105	366
106	50
107	32
108	12
109	11
110	54
111	40
112	197
113	51
114	60
115	62
116	40
117	90
118	40
119	18
120	19
121	16
123	7
124	20
125	125
126	136
128	32
129	36
130	93
131	89
132	98
133	62
134	23
135	9
138	15
139	15
140	15
141	23
142	30
143	37
144	81
145	41
146	42
147	55
148	35
152	6
153	47
154	49
156	20
157	120
158	458
159	107
160	330
161	311
166	5
167	22
168	24
169	22
170	48
171	36
172	191
173	81
174	23
175	7
182	111
183	243
184	128
185	242
186	45
187	13
195	9
196	9
197	12
198	13
199	9
200	10
201	10
202	6
203	13
204	16
208	6
209	17
210	21
211	36
212	75
213	292
214	283
215	275
216	70
217	107
218	19
222	4
223	6
224	7
225	8
226	7
236	6
237	9
238	16
239	21
240	11
241	17
243	10
244	11
245	59
246	10
249	5
250	9
251	18
252	46
253	19
254	36
255	9
264	5
265	4
266	5
267	5
269	9
278	11
279	7
280	8
281	17
282	4
283	12
284	3
293	196
294	94
295	527
296	151
297	350
298	60
299	5
307	6
309	4
323	6
325	9
326	26
327	24
328	7
337	4
363	183
364	41
365	183
366	39
367	4
405	6
406	15
407	8
408	13
409	4
