Mass Spectrum: Glyoxime, 1-cyano-
Formula: C3H3N3O2
CAS: 154391-42-1
Molecular weight: 113
m/z	intensity
33	0
34	0
36	1
37	0
38	103
39	39
40	24
41	48
42	26
43	119
44	999
47	1
48	0
50	3
51	3
52	70
53	160
54	64
55	219
57	2
58	0
59	0
68	15
69	25
70	100
71	32
73	0
87	105
88	1
89	0
96	9
97	1
98	0
113	322
114	24
115	2
116	0
