Mass Spectrum: p-Benzophenetidide
Formula: C15H15NO2
CAS: 15437-14-6
Molecular weight: 241
m/z	intensity
26	3
27	15
28	8
29	14
38	2
39	7
41	1
43	1
50	12
51	55
52	16
53	17
54	2
55	2
57	1
62	2
63	7
64	5
65	5
66	1
68	1
74	3
75	5
76	15
77	329
78	26
79	5
80	6
81	36
82	2
90	1
91	2
93	1
94	1
103	9
104	6
105	999
106	86
107	8
108	50
109	8
110	9
127	1
128	1
135	3
136	8
137	3
138	25
139	3
154	2
166	1
167	2
182	1
183	2
184	1
196	1
211	1
212	6
213	8
214	1
240	5
241	488
242	82
243	8
