Mass Spectrum: 2-Furanmethanol, 5-[(dimethylamino)methyl]-
Formula: C8H13NO2
CAS: 15433-79-1
Molecular weight: 155
m/z	intensity
36	354
42	482
44	242
53	185
55	763
58	620
65	248
69	199
81	161
83	882
94	171
110	137
111	999
112	60
124	621
125	40
137	16
138	32
154	237
155	815
156	68
