Mass Spectrum: 2-Bromo-2-cyano-N,N-dimethylacetamide
Formula: C5H7BrN2O
CAS: 15430-62-3
Molecular weight: 190
m/z	intensity
12	2
13	2
14	6
15	118
16	1
25	2
26	3
27	14
28	55
29	5
30	11
36	1
38	11
39	24
40	31
41	24
42	204
43	63
44	165
45	11
51	3
52	4
53	2
54	13
55	4
56	3
57	1
58	3
66	1
67	11
68	23
69	3
70	8
72	999
73	36
74	2
79	8
80	6
81	7
82	6
83	80
84	4
91	2
93	2
94	1
99	1
111	15
112	2
118	8
119	1
120	9
122	2
146	1
148	1
190	38
191	3
192	36
193	2
