Mass Spectrum: Dimethyl-dithiocarbamic acid 2,3,6-trichloro-5-cyano-pyridin-4-yl ester
Formula: C9H6Cl3N3S2
CAS: 154355-34-7
Molecular weight: 325
m/z	intensity
16	20
17	1
19	11
26	1
27	4
28	34
29	4
30	2
32	7
35	2
36	1
37	1
38	4
39	2
40	4
41	6
42	118
43	17
44	51
45	30
46	7
47	46
48	2
49	4
50	3
51	3
52	3
54	2
55	2
56	58
57	3
58	3
59	4
60	1
61	18
62	7
63	2
64	6
66	1
67	1
68	5
69	1
70	9
71	5
72	72
73	185
74	23
75	11
76	16
77	30
78	26
79	13
80	2
81	4
82	15
83	2
84	1
85	7
86	1
87	4
88	999
89	46
90	49
91	8
92	1
93	2
94	23
95	2
96	3
97	6
98	1
99	2
100	13
101	2
102	1
103	16
104	1
105	7
106	18
107	2
108	5
109	35
110	5
111	14
112	2
113	1
115	4
117	6
118	3
119	2
120	11
121	1
122	3
123	3
124	1
125	1
126	1
127	1
128	1
129	2
131	1
132	27
133	8
134	11
135	4
136	2
137	2
138	1
141	10
142	1
143	4
144	16
145	24
146	29
147	5
148	2
150	1
152	1
153	1
155	1
157	1
162	4
163	4
164	2
167	6
168	1
169	3
170	2
171	3
172	2
173	2
175	1
176	5
177	1
178	4
179	1
180	1
181	1
183	1
193	4
195	4
197	1
199	2
201	1
202	21
203	2
204	13
205	8
206	5
207	8
208	3
209	2
210	1
211	2
213	4
214	1
215	2
216	1
217	3
218	1
219	5
220	2
221	4
222	1
223	2
224	1
226	1
228	1
234	14
235	1
236	11
237	2
238	3
239	1
240	1
242	1
243	1
244	1
245	1
246	1
247	1
248	1
249	3
250	1
251	2
252	1
253	1
255	2
256	1
257	1
274	1
275	1
276	1
277	1
278	1
281	11
282	1
283	12
284	1
285	4
287	1
289	3
290	768
291	98
292	570
293	74
294	146
295	17
296	11
297	1
325	4
326	1
327	1
329	1
