Mass Spectrum: N,N-Dimethyl-2-{5-[(pyrrolidin-1-ylsulfonyl)methyl]-1H-indol-3-yl}ethanamine
Formula: C17H25N3O2S
CAS: 154323-57-6
Molecular weight: 335
m/z	intensity
15	1
27	2
28	6
29	3
30	9
32	1
38	1
39	4
40	1
41	9
42	21
43	11
44	2
48	6
50	1
51	2
52	1
53	1
54	1
55	3
56	4
58	999
59	37
60	1
62	1
63	2
64	12
65	2
66	1
67	1
68	2
69	2
70	7
71	3
73	1
75	2
76	2
77	5
78	2
79	1
81	1
83	1
84	3
85	1
88	1
89	5
90	2
91	3
92	1
95	1
97	1
99	1
100	3
101	1
102	4
103	3
104	1
111	1
113	1
114	3
115	29
116	6
117	4
118	2
119	1
125	1
126	1
127	6
128	11
129	5
130	6
131	1
134	1
140	3
141	5
142	47
143	94
144	18
145	2
153	1
154	8
155	4
156	33
157	16
158	19
159	3
167	1
168	2
169	1
170	1
172	1
181	1
182	1
183	1
184	1
185	1
197	1
199	4
200	13
201	10
202	2
211	1
212	1
213	1
277	3
278	1
291	1
333	1
335	17
336	3
337	1
