Mass Spectrum: N-[2-(Morpholin-4-yl)-1-phenylethylidene]hydroxylamine
Formula: C12H16N2O2
CAS: 15437-08-8
Molecular weight: 220
m/z	intensity
38	7
39	33
40	15
41	104
42	239
43	59
44	27
45	26
50	36
51	69
52	13
53	2
54	15
56	201
57	32
58	5
60	2
61	3
62	4
63	15
64	4
65	10
70	46
71	5
72	20
73	4
74	9
75	11
76	33
77	102
78	10
84	19
85	8
86	36
89	7
91	19
98	14
100	999
101	52
102	10
103	104
104	17
106	2
114	3
119	9
120	5
133	2
134	6
135	2
185	12
186	2
203	44
204	4
220	19
221	2
