Mass Spectrum: (1S,5S,6R)-6-Methyl-2-methylene-6-(4-methylpent-3-en-1-yl)bicyclo[3.1.1]heptane
Formula: C15H24
CAS: 15438-94-5
Molecular weight: 204
m/z	intensity
27	35
28	14
29	34
30	2
38	3
39	77
40	18
41	505
42	21
43	40
50	4
51	21
52	4
53	100
54	5
55	147
56	24
57	92
58	2
59	2
65	42
66	19
67	181
68	55
69	999
70	64
71	72
72	6
77	143
78	24
79	235
80	32
81	148
82	92
84	5
91	108
92	106
93	530
94	63
96	4
97	8
98	5
106	28
107	110
108	24
109	112
110	7
111	16
113	14
114	2
120	125
121	36
122	10
133	292
134	66
135	30
136	23
139	2
147	39
148	27
149	23
157	2
161	158
162	26
163	8
175	5
176	4
189	19
190	3
204	40
205	6
