Mass Spectrum: Copper, bis(4-methyl-1-phenyl-1,3-pentanedionato)-
Formula: C24H26CuO4
CAS: 15443-07-9
Molecular weight: 441
m/z	intensity
22	0
24	0
26	1
27	23
28	0
29	3
31	0
33	0
37	0
38	0
39	7
41	35
42	2
43	145
44	4
49	0
50	2
51	16
52	1
53	1
55	9
56	0
57	0
59	0
62	0
63	43
64	1
65	17
66	0
67	1
68	0
69	44
70	2
71	26
72	1
73	0
74	0
75	1
76	4
77	248
78	16
79	2
80	0
81	0
82	0
83	17
84	1
85	0
86	0
87	0
88	0
89	14
90	4
91	17
92	1
95	0
96	0
97	1
98	0
100	0
101	0
102	3
103	4
104	5
105	999
106	69
107	13
108	0
109	5
111	1
112	0
113	0
114	0
115	3
116	1
117	3
118	0
119	2
120	0
121	0
125	0
126	0
127	2
128	3
129	5
130	1
131	3
132	0
133	1
134	0
135	0
136	0
137	0
138	0
139	4
140	20
141	6
142	8
143	3
144	1
145	3
146	0
147	41
148	3
149	1
150	0
151	0
152	1
153	12
154	3
155	5
156	1
157	1
158	0
159	1
160	0
161	1
162	0
163	0
164	1
165	31
166	4
167	15
168	1
169	1
170	0
171	2
172	1
173	3
174	1
175	3
176	0
177	1
178	0
179	0
180	1
181	2
182	13
183	5
184	6
185	2
186	0
187	2
188	1
189	106
190	20
191	2
192	0
193	0
194	0
195	2
196	0
197	1
198	0
199	0
202	0
203	0
204	0
205	0
206	0
207	1
208	1
209	376
210	38
211	170
212	17
213	2
215	0
216	0
218	0
219	0
220	0
221	2
222	1
223	14
224	6
225	5
226	3
227	0
229	0
231	0
232	0
234	0
235	1
236	1
237	4
238	1
239	2
240	0
241	1
242	0
243	0
244	0
245	1
246	0
247	0
248	2
249	1
250	1
251	83
252	23
253	111
254	19
255	35
256	4
257	0
258	0
259	0
265	0
267	0
269	0
271	0
273	0
275	0
277	0
279	0
281	0
283	1
284	0
285	1
286	1
287	1
288	0
289	0
293	0
295	3
296	0
297	1
298	0
299	1
300	0
301	0
302	0
311	0
312	0
313	0
319	0
321	1
322	0
323	0
327	0
328	3
329	2
330	1
331	0
332	0
335	0
336	0
337	0
341	0
343	0
344	0
345	0
352	0
353	1
354	0
355	381
356	70
357	171
358	31
359	5
360	0
361	0
363	0
364	0
366	0
367	0
369	1
370	3
371	3
372	2
373	0
374	0
378	0
379	0
380	0
382	0
383	0
384	0
385	0
391	1
392	0
393	0
394	4
395	1
396	0
397	2
398	351
399	81
400	159
401	34
402	4
403	1
404	0
405	0
406	0
407	0
409	0
411	0
412	0
413	2
414	0
415	0
423	0
425	0
426	0
427	0
428	0
429	0
430	0
431	0
432	1
433	0
434	4
435	1
436	0
437	2
438	0
439	0
440	0
441	324
442	81
443	156
444	38
445	5
446	0
