Mass Spectrum: Urea, N'-(3-chlorophenyl)-N,N-diethyl-
Formula: C11H15ClN2O
CAS: 15441-95-9
Molecular weight: 226
m/z	intensity
28	51
29	299
30	105
38	14
39	26
41	20
42	62
43	11
44	166
50	15
51	12
56	33
57	35
58	150
62	13
63	40
64	23
65	16
70	14
72	591
73	28
75	27
86	26
90	44
91	19
99	27
100	999
101	17
111	30
113	11
119	16
125	33
126	16
127	35
128	11
129	11
153	137
154	22
155	46
226	220
227	32
228	75
