Mass Spectrum: Urea, 3-(m-chlorophenyl)-1,1-dipropyl-
Formula: C13H19ClN2O
CAS: 15441-99-3
Molecular weight: 254
m/z	intensity
28	124
29	30
30	422
32	18
36	26
37	24
38	32
39	78
40	13
41	200
42	89
43	999
44	59
50	27
51	17
52	12
54	10
56	26
58	62
61	14
62	28
63	73
64	33
65	15
70	44
72	689
73	36
74	12
75	32
76	11
86	260
87	14
89	24
90	110
91	20
98	13
99	24
100	29
101	34
111	46
113	12
115	16
125	94
126	26
127	71
128	489
129	43
153	389
154	48
155	124
156	16
225	29
227	9
254	186
255	32
256	63
257	10
