Mass Spectrum: 1-Oxaspiro[2.2]pentane, 5-isopropylidene-2,2,4,4-tetramethyl-
Formula: C11H18O
CAS: 15448-69-8
Molecular weight: 166
m/z	intensity
41	869
42	93
43	171
50	37
51	149
52	65
53	295
54	46
55	411
56	112
57	56
58	15
59	22
62	9
63	71
64	28
65	168
66	28
67	299
68	28
69	999
70	74
71	28
74	15
75	15
77	243
78	52
79	224
80	71
81	364
82	71
83	799
84	766
85	52
89	13
91	448
92	74
93	224
94	28
95	485
96	89
97	9
103	37
105	429
106	65
107	93
108	52
109	28
115	74
116	33
117	93
118	74
119	78
120	28
121	15
123	448
124	52
128	9
129	9
131	52
132	13
133	710
134	93
135	15
138	46
147	18
148	327
149	52
151	149
152	13
166	355
167	46
