Mass Spectrum: Urea, 3-(2,5-dichlorophenyl)-1,1-dipropyl-
Formula: C13H18Cl2N2O
CAS: 15442-00-9
Molecular weight: 288
m/z	intensity
28	55
29	19
30	254
36	29
37	13
38	15
39	36
41	169
42	77
43	999
44	55
50	12
56	29
58	45
61	11
62	17
63	22
70	36
72	506
73	26
74	12
75	13
86	281
87	16
88	15
90	10
98	12
100	10
101	21
102	23
124	95
125	14
126	34
128	598
129	50
133	23
135	15
159	19
160	16
161	39
162	12
163	20
181	10
187	206
188	25
189	133
190	17
191	23
253	186
254	31
255	63
256	10
259	14
288	55
289	11
290	36
