Mass Spectrum: Urea, N,N-dibutyl-N'-(3,4-dichlorophenyl)-
Formula: C15H22Cl2N2O
CAS: 15442-05-4
Molecular weight: 316
m/z	intensity
28	270
29	375
30	520
35	20
36	160
37	16
38	48
39	71
40	15
41	307
42	97
43	86
44	375
45	21
50	16
53	15
55	83
56	65
57	999
58	57
61	16
62	22
63	21
64	14
69	17
70	27
72	27
73	21
84	56
86	999
87	66
88	21
90	14
97	17
99	15
100	152
124	95
125	22
126	37
127	15
128	29
129	112
153	15
156	490
157	56
159	47
160	8
161	78
162	17
163	37
187	220
188	25
189	151
190	16
191	27
273	17
316	101
317	21
318	68
