Mass Spectrum: Urea, 3-(5-chloro-o-tolyl)-1,1-dimethyl-
Formula: C10H13ClN2O
CAS: 15441-93-7
Molecular weight: 212
m/z	intensity
28	41
36	10
39	12
42	28
43	17
44	111
45	66
46	31
50	11
51	21
52	10
72	999
73	41
77	32
78	10
132	43
138	26
139	13
140	26
141	10
142	9
166	15
167	78
168	17
169	26
212	187
213	23
214	62
