Mass Spectrum: 1H-Phosphole, 2,5-dihydro-1,3-dimethyl-
Formula: C6H11P
CAS: 15450-84-7
Molecular weight: 114
m/z	intensity
25	1
26	23
27	260
28	6
29	33
30	1
31	8
33	2
34	1
36	1
37	11
38	23
39	298
40	54
41	385
42	257
43	35
44	18
45	134
46	34
47	9
48	11
49	4
50	26
51	42
52	15
53	74
54	11
55	67
56	22
57	117
58	25
59	28
60	5
61	12
62	14
63	9
64	1
65	36
66	29
67	58
68	19
69	35
70	17
71	319
72	51
73	27
74	55
75	6
77	4
78	2
79	24
80	8
81	8
82	2
83	115
84	9
85	45
86	9
87	3
88	3
90	0
92	2
93	1
94	0
95	26
96	9
97	158
98	19
99	999
100	35
101	1
111	9
112	4
113	174
114	783
115	33
116	1
