Mass Spectrum: Azetidine, 1,3,3-trimethyl-2-phenyl-
Formula: C12H17N
CAS: 15451-12-4
Molecular weight: 175
m/z	intensity
39	60
41	90
42	230
43	20
51	60
65	50
77	100
78	80
91	150
92	20
117	160
118	999
119	290
120	80
132	110
133	10
175	200
176	20
