Mass Spectrum: 9-Oxabicyclo[3.3.1]nonane-2,6-diol, diacetate
Formula: C12H18O5
CAS: 15458-65-8
Molecular weight: 242
m/z	intensity
26	4
27	42
28	8
29	32
30	1
31	11
37	0
38	1
39	30
40	11
41	74
42	20
43	999
44	30
45	7
50	1
51	3
52	2
53	16
54	14
55	56
56	12
57	29
58	9
59	1
60	2
61	8
62	0
63	0
65	6
66	12
67	97
68	106
69	43
70	27
71	71
72	5
73	2
74	0
77	10
78	23
79	67
80	72
81	64
82	9
83	46
84	101
85	14
86	11
87	4
91	9
92	6
93	48
94	110
95	66
96	81
97	64
98	8
99	7
100	2
101	3
102	1
103	12
104	17
105	6
106	0
107	4
108	0
109	3
110	3
111	17
112	17
113	12
114	2
115	0
116	0
121	18
122	132
123	16
124	1
125	2
126	5
127	1
128	1
129	0
131	0
136	0
137	0
138	2
139	71
140	44
141	7
142	0
143	16
144	2
153	3
154	2
155	1
156	0
157	2
158	0
159	0
182	26
183	4
184	0
199	11
200	2
213	0
242	2
