Mass Spectrum: 9-Oxabicyclo[3.3.1]nonane-2,6-diol
Formula: C8H14O3
CAS: 15458-61-4
Molecular weight: 158
m/z	intensity
25	56
27	343
28	150
29	522
30	70
31	299
33	4
34	3
35	4
36	10
37	18
38	46
39	348
40	112
41	848
42	396
43	623
44	478
45	246
46	14
47	86
48	10
49	12
50	41
51	84
52	42
53	287
54	218
55	670
56	264
57	999
58	413
59	87
60	145
61	35
62	15
63	45
64	15
65	75
66	108
67	620
68	595
69	676
70	397
71	308
72	79
73	175
74	27
75	12
76	7
77	109
78	132
79	482
80	339
81	354
82	89
83	272
84	584
85	183
86	107
87	77
88	12
89	16
90	10
91	57
92	34
93	123
94	253
95	194
96	388
97	637
98	153
99	52
100	61
101	602
102	202
103	23
104	106
105	21
106	6
107	24
108	13
109	32
110	24
111	97
112	336
113	57
114	125
115	76
116	12
117	6
118	4
119	8
120	7
121	40
122	88
123	28
124	20
125	26
126	10
127	13
128	9
129	35
130	56
131	10
132	4
133	7
134	6
135	10
136	14
137	18
138	12
139	26
140	420
141	49
142	8
143	10
157	9
158	372
159	62
160	9
