Mass Spectrum: 2,5-Diisopropylpiperazine
Formula: C10H22N2
CAS: 154559-11-2
Molecular weight: 170
m/z	intensity
51	3
52	2
53	8
54	17
55	152
56	246
57	45
58	26
67	3
68	14
69	27
70	87
71	31
72	292
73	13
81	6
82	20
83	46
84	79
85	21
86	999
87	56
95	2
96	32
97	2
98	75
99	5
126	48
127	617
128	51
155	2
156	7
170	28
171	1
