Mass Spectrum: 4-(Dimethylaminomethyl)-2-methyl-6-(.alpha.-methylbenzyl)phenol
Formula: C18H23NO
CAS: 15465-19-7
Molecular weight: 269
m/z	intensity
34	6
36	3
37	4
39	214
40	93
41	209
42	496
44	809
45	134
46	105
47	3
49	2
50	44
51	159
52	49
53	74
55	49
58	999
60	4
62	11
63	64
65	125
66	23
67	23
69	30
70	10
71	10
72	10
74	24
75	19
77	294
78	118
79	113
80	17
81	14
82	28
83	12
84	7
85	6
86	5
87	8
88	8
89	60
91	355
92	33
93	24
94	20
95	33
96	20
97	14
98	8
99	4
100	10
102	21
103	106
104	76
105	151
106	13
107	10
108	9
109	5
110	9
112	9
113	9
115	122
116	25
117	52
118	21
119	58
121	357
122	33
123	4
124	2
125	25
127	76
128	42
129	27
130	9
131	24
132	21
133	17
134	24
135	9
136	9
137	3
139	18
141	30
142	8
143	5
144	15
145	20
147	990
148	129
149	14
150	6
151	14
152	53
153	28
154	8
155	8
156	3
158	2
159	2
160	4
161	5
162	10
164	176
165	117
166	45
167	25
168	7
169	3
170	1
171	3
174	5
176	15
177	12
178	40
179	25
180	11
181	41
182	10
183	3
184	1
188	3
189	13
190	26
191	23
192	13
193	9
194	20
195	39
196	25
197	7
198	1
202	2
203	3
204	2
205	5
206	5
207	12
208	21
209	85
210	21
211	43
212	8
220	2
221	3
222	10
223	37
224	96
225	628
226	196
227	21
228	2
236	6
237	1
238	3
240	2
250	1
252	18
253	5
254	16
255	3
265	3
266	14
268	207
269	517
270	93
271	9
