Mass Spectrum: 1,3,5-Triazine-2,4-diamine, 6-chloro-N,N'-di-2-propenyl-
Formula: C9H12ClN5
CAS: 15468-86-7
Molecular weight: 225
m/z	intensity
33	15
34	3
35	6
36	22
37	12
39	455
41	999
43	132
44	31
45	2
46	0
47	0
49	3
50	1
51	7
52	25
53	86
54	145
55	187
56	372
57	26
58	3
59	0
62	69
63	4
64	22
65	4
66	16
67	63
68	225
69	22
70	9
71	2
72	0
73	1
74	4
75	11
76	4
77	8
78	11
79	28
80	51
81	148
82	67
83	82
84	6
86	5
87	43
88	11
89	14
90	5
91	47
93	63
94	25
95	18
96	12
97	7
99	6
100	2
101	9
102	24
103	8
104	56
106	50
107	33
108	105
109	23
110	5
111	1
112	1
113	0
114	2
115	3
116	5
117	16
118	5
119	11
120	17
121	24
122	18
123	24
124	2
125	0
126	0
127	3
128	8
129	24
130	8
131	12
132	6
133	10
134	16
135	23
136	3
137	0
138	0
140	1
141	8
142	7
143	10
144	26
145	7
146	22
147	15
148	41
149	40
150	8
151	0
153	1
154	4
155	23
156	6
157	10
158	5
159	3
160	5
161	4
162	2
163	4
164	0
166	0
167	2
168	4
169	26
170	34
171	20
172	13
173	7
174	30
175	3
176	0
180	1
181	3
182	11
183	33
184	28
185	13
186	9
187	1
188	8
189	8
190	24
191	3
192	1
193	7
194	1
195	6
196	8
197	17
198	30
199	8
200	8
201	0
208	41
210	350
211	42
212	97
213	10
214	0
220	0
224	133
225	161
226	48
227	50
228	5
