Mass Spectrum: (+)-9-Norartemisinin, 9-n-butyl-
Formula: C18H28O5
CAS: 154698-10-9
Molecular weight: 324
m/z	intensity
41	353
43	999
44	8
45	38
47	5
49	18
51	13
53	86
55	512
56	51
57	74
58	41
59	14
60	1
61	3
63	1
65	25
67	165
69	235
71	129
72	6
73	10
74	1
77	41
79	89
81	180
82	0
83	90
84	23
85	23
86	10
87	3
88	1
89	0
91	52
93	88
95	168
97	108
98	18
99	26
100	2
101	2
103	4
105	50
107	86
109	116
110	25
111	47
112	19
113	7
114	2
115	4
116	5
117	8
119	68
121	62
122	7
123	66
124	49
125	42
126	2
127	6
128	0
129	3
131	15
133	52
135	67
136	1
137	126
138	20
139	22
140	3
141	3
143	4
145	18
147	29
149	40
150	69
151	43
152	8
153	5
154	1
155	1
157	3
158	28
159	96
160	6
161	14
163	40
164	16
165	25
166	7
167	8
168	1
169	1
171	2
173	10
175	45
177	87
178	17
179	16
180	15
181	24
182	13
183	2
185	1
187	4
188	1
189	9
191	32
193	186
194	110
195	35
196	4
199	1
201	3
203	7
205	10
206	23
207	14
208	6
209	3
210	1
213	2
215	5
217	7
219	14
220	0
221	30
222	20
223	3
225	0
228	0
229	1
231	5
232	1
233	7
234	367
235	91
237	34
238	3
239	0
243	1
246	44
247	8
249	20
250	0
251	22
252	5
253	0
259	2
261	3
262	0
263	0
264	1
265	1
268	6
274	57
275	8
277	4
278	2
279	2
289	1
292	75
293	12
294	1
307	1
324	3
325	0
