Mass Spectrum: 2,2,3-Trifluoro-3-heptafluoropropoxybicyclo[2.2.1]-hept-5-ene
Formula: C10H6F10O
CAS: 154717-36-9
Molecular weight: 332
m/z	intensity
31	610
32	280
33	25
39	350
40	134
45	214
46	80
50	65
51	240
52	20
57	54
59	47
62	13
63	54
64	27
65	174
66	999
67	148
68	13
69	537
70	41
71	20
75	60
76	7
77	228
78	47
81	20
83	34
89	27
93	20
95	128
96	67
97	175
98	13
100	60
101	34
102	67
114	27
115	450
116	47
119	54
127	174
128	20
135	67
143	27
144	7
145	20
146	13
147	40
163	20
165	7
169	67
195	1
217	2
263	1
281	2
293	3
313	1
332	31
333	3
