Mass Spectrum: 2-Heptyl-10H-acridin-9-one
Formula: C20H23NO
CAS: 154711-53-2
Molecular weight: 293
m/z	intensity
32	29
36	4
38	2
39	27
40	5
41	91
42	15
43	92
44	51
45	10
46	1
48	0
50	2
51	10
52	6
53	11
54	7
55	44
56	16
57	98
58	6
59	20
60	12
61	2
62	0
63	5
64	3
65	14
66	7
67	10
68	5
69	36
70	8
71	17
72	8
73	12
74	1
75	3
76	4
77	57
78	21
79	29
80	8
81	8
82	6
83	14
84	5
85	10
86	2
87	3
88	1
89	7
90	5
91	16
92	13
93	14
94	5
95	7
96	5
97	10
98	4
99	3
100	1
101	7
102	4
103	6
104	11
105	9
106	999
107	85
108	4
109	4
110	2
111	7
112	3
113	7
114	6
115	7
116	3
117	6
118	9
119	18
120	12
121	3
122	1
123	3
124	1
125	4
126	3
127	6
128	7
129	5
130	4
131	2
132	9
133	3
134	9
135	2
136	1
137	1
138	1
139	8
140	7
141	3
142	1
143	2
144	1
145	1
146	1
147	2
148	2
149	3
150	2
151	11
152	21
153	10
154	6
155	3
156	2
157	2
158	15
159	1
160	0
161	0
162	0
163	1
164	2
165	4
166	8
167	12
168	4
169	2
170	0
171	1
174	0
176	2
177	5
178	25
179	71
180	41
181	5
182	3
183	1
185	3
188	0
189	2
190	5
191	123
192	22
193	5
194	8
195	15
196	18
197	3
199	0
202	0
203	1
204	6
205	2
206	9
207	27
208	706
209	184
210	23
211	2
212	0
213	1
214	1
215	0
216	0
217	2
218	1
219	3
220	11
221	19
222	200
223	50
224	6
225	0
226	5
227	1
232	1
233	4
234	11
235	4
236	33
237	8
238	1
239	0
246	1
248	2
249	3
250	29
251	11
252	1
254	0
256	0
262	1
263	0
264	12
265	4
278	6
279	1
291	2
292	16
293	221
294	50
295	5
