Mass Spectrum: Propane, 1,3-dimethoxy-2-(methoxymethyl)-2-methyl-
Formula: C8H18O3
CAS: 15476-20-7
Molecular weight: 162
m/z	intensity
31	20
33	10
39	54
41	136
42	20
43	41
44	24
45	943
46	24
47	22
51	2
52	1
53	26
54	21
55	230
56	31
57	19
58	19
59	22
60	1
65	2
66	1
67	23
68	7
69	21
70	7
71	417
72	85
73	7
74	1
75	999
76	35
77	10
81	1
82	1
83	37
84	8
85	469
86	124
87	24
88	2
89	1
97	4
98	33
99	23
100	2
101	30
102	1
115	6
116	1
117	1
130	2
131	1
132	1
