Mass Spectrum: N-Chloroacetylglycylglycine
Formula: C6H9ClN2O4
CAS: 15474-96-1
Molecular weight: 208
m/z	intensity
12	1
13	2
14	16
15	25
16	2
17	3
18	10
26	4
27	13
28	149
29	53
30	999
31	30
32	4
35	24
36	144
37	8
38	48
39	2
40	6
41	10
42	103
43	74
44	32
45	23
46	3
47	2
48	6
49	78
50	4
51	26
52	3
53	2
54	20
55	7
56	114
57	12
58	34
59	6
60	10
61	2
62	1
64	1
68	1
69	6
70	4
71	24
72	406
73	24
74	45
75	6
76	16
77	59
78	6
79	18
80	1
83	1
84	4
85	26
86	4
87	2
88	12
89	1
94	3
96	1
97	1
98	2
99	3
100	2
102	2
105	2
106	170
107	509
108	73
109	162
110	7
111	1
113	30
114	4
115	1
116	2
127	8
128	1
131	1
133	2
134	25
135	2
136	8
141	8
142	2
159	6
163	3
164	6
165	2
166	2
173	9
174	1
190	3
192	1
208	3
210	1
