Mass Spectrum: N-Propionyl-D-glucosamine
Formula: C9H17NO6
CAS: 15475-14-6
Molecular weight: 235
m/z	intensity
12	3
13	7
14	31
15	170
16	5
17	6
18	25
24	2
25	9
26	70
27	284
28	244
29	912
30	702
31	402
32	119
33	5
36	2
37	9
38	15
39	54
40	20
41	66
42	164
43	362
44	161
45	54
46	6
47	27
49	3
50	6
51	10
52	24
53	24
54	60
55	182
56	201
57	999
58	113
59	139
60	243
61	185
62	7
63	2
64	3
65	5
66	11
67	12
68	36
69	29
70	34
71	59
72	206
73	88
74	82
75	5
76	2
77	3
78	7
79	10
80	19
81	16
82	37
83	162
84	52
85	28
86	328
87	319
88	28
89	6
90	3
91	24
92	3
93	3
94	9
95	18
96	90
97	50
98	40
99	18
100	113
101	61
102	12
103	12
104	2
105	2
106	3
107	3
108	8
109	19
110	25
111	21
112	32
113	21
114	32
115	35
116	10
117	3
118	4
119	2
120	2
121	2
122	5
123	8
124	8
125	46
126	22
127	10
128	57
129	15
130	5
131	1
132	11
133	2
134	2
135	2
136	3
137	8
138	13
139	53
140	13
141	5
142	3
143	9
144	12
145	3
146	1
147	1
149	2
150	6
151	5
152	15
153	9
154	5
155	8
156	42
157	31
158	5
159	1
160	2
161	1
162	5
163	4
164	2
165	7
166	2
167	3
168	22
169	11
170	7
171	3
174	6
179	2
181	21
182	3
183	2
185	1
186	3
188	7
189	1
194	4
195	1
199	7
204	1
