Mass Spectrum: 4,4a,8a,9-Tetrahydro-1,3,4,9-tetrathiaindano[5,6-b][1,4]dioxane-2-thione
Formula: C7H6O2S5
CAS: 154823-47-9
Molecular weight: 282
m/z	intensity
33	15
34	19
35	5
36	5
38	4
39	5
40	14
41	20
42	38
43	38
44	135
45	189
46	19
47	8
55	8
56	22
57	108
58	298
59	18
60	11
61	14
64	105
66	8
69	16
70	6
71	12
73	18
74	3
76	582
77	45
78	48
86	999
87	52
88	234
89	16
90	22
100	7
102	3
108	4
120	76
121	4
122	9
196	4
282	30
283	3
284	6
