Mass Spectrum: p-Acetonylbenzoic acid
Formula: C10H10O3
CAS: 15482-54-9
Molecular weight: 178
m/z	intensity
14	4
15	20
16	1
26	1
27	9
28	7
29	1
31	1
37	1
38	5
39	33
40	4
41	6
42	10
43	787
44	35
45	10
50	9
51	22
52	5
53	8
55	5
56	1
57	3
58	1
59	7
61	2
62	10
63	36
64	11
65	30
66	2
67	1
69	1
71	2
73	2
74	3
75	4
76	3
77	48
78	8
79	9
80	1
81	2
83	1
85	1
86	2
87	3
88	2
89	65
90	173
91	274
92	87
93	6
97	1
101	1
102	1
103	6
104	2
105	13
106	2
107	61
108	5
109	1
114	1
115	17
116	9
117	5
118	999
119	134
120	11
121	2
122	1
128	1
129	1
131	3
132	1
133	2
134	11
135	86
136	268
137	23
138	2
143	1
144	1
145	1
148	1
149	5
150	1
160	5
161	17
162	5
163	1
178	43
179	6
180	1
