Mass Spectrum: 2-Piperidinoethyl p-chlorobenzoate
Formula: C14H18ClNO2
CAS: 15483-41-7
Molecular weight: 267
m/z	intensity
27	3
28	10
29	4
30	9
39	3
41	30
42	32
43	5
44	23
45	1
50	2
51	1
53	1
54	3
55	41
56	9
57	4
67	2
68	3
69	18
70	25
71	1
74	1
75	8
76	2
77	1
81	1
82	4
83	7
84	5
85	1
96	33
97	4
98	999
99	71
100	2
104	1
109	2
110	6
111	110
112	10
113	6
139	29
140	2
141	9
156	2
183	8
185	3
266	1
267	3
268	1
269	1
