Mass Spectrum: Ditrifluoromethyl(fluorocarbonyloxy)amine
Formula: C3F7NO2
CAS: 15496-00-1
Molecular weight: 215
m/z	intensity
31	123
32	2
47	275
48	3
50	132
51	2
63	3
69	999
70	11
99	3
108	72
109	2
114	16
133	7
149	6
152	1
168	2
196	5
215	4
