Mass Spectrum: Ditrifluoromethyl(trifluorocarbonyloxy)amine
Formula: C4F9NO2
CAS: 15496-02-3
Molecular weight: 265
m/z	intensity
31	192
32	2
44	78
45	1
50	125
51	2
69	999
70	11
78	5
97	61
98	2
108	4
114	24
115	1
130	16
133	9
149	13
152	9
158	3
196	25
197	1
246	5
