Mass Spectrum: Ditrifluoromethyl(chlorocarbonyloxy)amine
Formula: C3ClF6NO2
CAS: 15496-01-2
Molecular weight: 231
m/z	intensity
31	111
32	1
50	93
51	1
63	156
64	2
65	45
69	999
70	11
108	18
114	54
115	1
152	2
196	22
197	1
212	1
