Mass Spectrum: 4-(1,3-Dioxolan-2-yl)-2(1H)-quinolinone
Formula: C12H11NO3
CAS: 15495-17-7
Molecular weight: 217
m/z	intensity
15	4
17	6
18	29
19	5
26	1
27	9
28	13
29	9
30	1
31	4
37	1
38	4
39	17
40	2
41	2
42	1
43	8
44	2
45	159
46	4
50	9
51	31
52	9
53	2
54	1
55	1
57	2
58	6
61	2
62	12
63	28
64	12
65	11
66	2
70	1
72	3
73	999
74	49
75	24
76	13
77	15
78	5
79	3
86	4
87	5
88	9
89	62
90	39
91	7
92	1
93	2
98	1
99	1
100	1
101	13
102	20
103	14
104	4
105	1
108	7
113	1
114	6
115	13
116	70
117	72
118	9
119	2
127	6
128	25
129	19
130	68
131	16
132	4
133	1
140	1
141	2
142	1
143	8
144	56
145	204
146	32
147	2
156	2
158	16
159	75
160	9
161	3
170	2
171	2
172	42
173	18
174	40
175	9
176	1
186	2
187	2
188	2
189	7
190	1
216	65
217	894
218	124
219	13
220	1
