Mass Spectrum: 4-n-Butylchlorobenzene
Formula: C10H13Cl
CAS: 15499-27-1
Molecular weight: 168
m/z	intensity
14	1
15	8
26	8
27	73
28	6
29	31
36	1
37	2
38	11
39	65
40	4
41	39
42	2
43	22
44	1
49	2
50	30
51	51
52	7
53	6
55	4
56	3
58	5
61	4
62	17
63	61
64	13
65	24
66	1
72	1
73	15
74	15
75	44
76	11
77	79
78	13
79	2
84	1
85	4
86	4
87	7
89	125
90	42
91	172
92	14
93	1
97	2
99	41
100	2
101	26
102	18
103	64
104	11
105	7
111	5
112	24
113	5
114	9
115	19
116	7
117	5
123	2
125	999
126	184
127	340
128	62
129	5
131	1
133	58
134	5
136	1
137	1
138	10
139	14
140	4
141	4
151	1
153	2
168	208
169	25
170	72
171	8
