Mass Spectrum: Trifluperazine sulfoxide
Formula: C21H24F3N3OS
CAS: 1549-88-8
Molecular weight: 423
m/z	intensity
56	74
58	66
69	78
70	536
71	172
84	79
85	94
97	80
98	105
99	76
111	88
113	999
114	83
127	171
141	347
196	67
247	58
248	255
249	56
266	233
267	65
280	154
281	66
292	54
293	66
294	90
306	194
307	120
350	75
407	0
