Mass Spectrum: Iron, hexacarbonyl[.mu.-[1,1,2,2-tetrafluoro-1,2-ethanedithiolato(2-)-S,S':S,S']]di-, (Fe-Fe)
Formula: C8F4Fe2O6S2
CAS: 15492-09-8
Molecular weight: 444
m/z	intensity
56	194
75	61
76	270
88	999
90	129
94	68
100	64
107	53
112	68
119	57
144	137
163	99
176	217
182	194
210	72
238	68
266	263
276	381
304	57
332	41
341	19
360	83
388	72
416	122
444	179
