Mass Spectrum: Bis(ditrifluoromethylamino)carbonate
Formula: C5F12N2O3
CAS: 15495-99-5
Molecular weight: 364
m/z	intensity
31	135
32	2
44	98
45	1
50	145
51	2
69	999
70	11
108	35
109	1
152	11
168	7
196	85
197	3
364	8
365	1
