Mass Spectrum: 3-Methylpentan-2-yl trifluoroacetate
Formula: C8H13F3O2
CAS: 155090-02-1
Molecular weight: 198
m/z	intensity
15	5
26	6
27	71
28	24
29	185
30	4
37	1
38	3
39	74
40	15
41	408
42	28
43	202
44	7
47	38
48	1
50	12
52	3
53	27
54	12
55	138
56	200
57	999
58	46
59	5
61	1
63	1
65	3
67	12
69	465
70	14
71	1
73	1
77	1
78	6
79	1
83	16
84	177
85	277
86	19
93	1
97	18
99	7
100	1
113	46
115	4
125	4
140	7
141	72
142	53
143	5
169	1
