Mass Spectrum: 1,12-Bis(2-nitrophenoxy)dodecane
Formula: C24H32N2O6
CAS: 155056-69-2
Molecular weight: 444
m/z	intensity
26	7
27	54
28	24
29	136
30	32
38	11
39	100
40	15
41	501
42	58
43	343
44	13
50	14
51	49
52	27
53	45
54	45
55	999
56	81
57	247
58	12
63	30
64	39
65	69
66	23
67	176
68	50
69	757
70	59
71	105
77	33
78	79
79	68
80	43
81	198
82	46
83	511
84	42
85	90
91	27
92	40
93	47
94	64
95	159
96	25
97	449
98	38
106	50
107	25
108	47
109	391
110	52
111	246
112	25
119	18
120	66
121	21
122	123
123	206
124	38
125	50
132	7
133	23
134	9
135	14
139	57
140	43
146	14
148	15
149	11
161	27
162	10
163	8
165	18
167	22
174	5
175	8
181	10
183	6
188	6
202	6
216	9
218	4
230	11
244	12
258	4
270	9
271	3
272	5
275	4
276	5
288	5
306	38
307	8
322	14
323	2
384	4
410	2
414	43
415	12
444	6
