Mass Spectrum: 1,3-Dimethylbutyl trifluoroacetate
Formula: C8H13F3O2
CAS: 155090-05-4
Molecular weight: 198
m/z	intensity
15	7
27	62
28	10
29	55
30	1
31	2
33	1
37	1
38	6
39	89
40	20
41	321
42	187
43	454
44	20
45	8
47	45
48	1
50	10
51	7
53	20
54	5
55	65
56	74
57	102
58	6
59	2
61	2
63	1
65	4
66	2
67	21
69	999
70	47
71	2
77	1
78	5
83	29
84	297
85	284
86	19
94	1
95	1
97	23
98	1
99	6
113	82
114	3
115	3
140	12
141	177
142	10
143	1
155	18
156	3
157	6
167	1
183	7
