Mass Spectrum: 1-Triazene, 3,3-diethyl-1-(4-ethynylphenyl)-
Formula: C12H15N3
CAS: 155064-31-6
Molecular weight: 201
m/z	intensity
38	14
39	26
40	109
41	25
42	74
43	18
44	112
45	3
47	5
48	2
49	29
50	28
51	98
52	9
53	1
54	3
55	5
56	31
57	5
58	42
59	1
61	4
62	19
63	21
64	5
65	5
66	1
70	3
71	5
72	63
73	9
74	38
75	173
76	20
77	5
78	1
79	1
84	16
85	1
86	13
87	5
88	12
89	22
90	3
91	3
95	1
98	5
99	2
101	999
102	105
103	6
105	1
107	9
114	4
115	8
116	4
117	1
118	1
121	6
128	1
129	175
130	20
131	1
135	15
136	1
143	1
149	6
163	1
172	1
200	1
201	90
202	10
203	1
