Mass Spectrum: 2,2-Difluoroethyl acetate
Formula: C4H6F2O2
CAS: 1550-44-3
Molecular weight: 124
m/z	intensity
14	5
15	29
25	1
26	5
27	3
28	1
29	24
30	5
31	16
32	4
33	9
41	4
42	52
43	999
44	32
45	37
46	12
47	1
50	2
51	55
52	1
61	4
62	3
63	3
64	49
65	119
66	3
73	117
74	4
75	1
104	2
