Mass Spectrum: 1,1,4a,6-Tetramethyl-5-(phenylthio)methyl-1,2,3,4,4a,5,8,8a-octahydronaphthalene
Formula: C21H30S
CAS: 155191-62-1
Molecular weight: 314
m/z	intensity
35	1
36	6
37	5
38	19
39	257
40	24
41	615
42	48
43	392
44	19
45	173
46	6
47	13
48	1
49	3
50	36
51	119
52	16
53	121
54	20
55	442
56	75
57	289
58	21
59	54
60	13
61	4
62	11
63	31
64	11
65	319
66	66
67	161
68	27
69	396
70	62
71	153
72	35
73	27
74	14
75	14
76	10
77	238
78	47
79	233
80	65
81	719
82	87
83	132
84	40
85	96
86	10
87	4
88	2
89	8
90	4
91	206
92	40
93	201
94	42
95	316
96	44
97	117
98	22
99	31
100	4
101	4
102	4
103	25
104	13
105	201
106	47
107	214
108	122
109	999
110	256
111	79
112	25
113	25
114	6
115	28
116	12
117	28
118	9
119	159
120	73
121	220
122	55
123	274
124	67
125	33
126	13
127	21
128	17
129	17
130	8
131	16
132	7
133	80
134	41
135	182
136	38
137	29
138	6
139	9
140	41
141	35
142	9
143	9
144	4
145	12
146	5
147	68
148	40
149	74
150	12
151	8
152	10
153	14
154	98
155	24
156	5
157	9
158	4
159	18
160	5
161	87
162	31
163	32
164	8
165	16
166	37
167	7
168	5
169	8
170	2
171	3
172	2
173	3
174	2
175	32
176	25
177	20
178	8
179	4
180	3
181	3
182	2
183	4
184	23
185	62
186	15
187	8
188	2
189	71
190	97
191	232
192	38
193	25
194	12
195	3
196	2
197	6
198	2
199	1
200	1
201	1
202	2
203	18
204	241
205	99
206	15
207	4
208	2
209	1
210	1
211	2
212	3
213	1
214	0
215	1
216	1
217	6
218	318
219	48
220	66
221	16
222	6
223	2
224	2
225	5
226	3
227	2
228	1
229	1
230	0
231	1
232	1
233	1
234	1
235	1
236	1
237	4
238	1
239	1
240	3
241	1
242	1
243	1
244	0
245	1
246	0
247	0
248	0
249	0
250	0
252	1
253	0
256	1
258	0
259	0
262	0
264	0
266	0
268	0
271	1
281	1
285	1
299	12
300	3
301	1
302	1
312	0
313	1
314	154
315	36
316	10
317	1
