Mass Spectrum: Octanoic acid, cyclohexyl ester
Formula: C14H26O2
CAS: 1551-42-4
Molecular weight: 226
m/z	intensity
26	29
27	147
28	24
29	201
31	6
38	9
39	148
40	36
41	488
42	128
43	388
44	89
45	27
50	11
51	21
52	5
53	51
54	168
55	605
56	81
57	749
58	58
59	31
60	259
61	62
63	9
65	15
66	17
67	523
68	42
69	91
70	29
71	29
73	148
74	17
75	9
77	19
78	19
79	27
80	15
81	91
82	999
83	465
84	208
85	94
86	11
87	58
89	48
91	35
92	9
93	7
95	11
96	9
97	32
98	39
99	74
100	11
101	81
103	28
105	9
109	39
110	8
111	11
113	5
114	8
115	29
124	11
125	17
127	373
128	45
142	31
143	12
144	194
145	946
146	81
147	4
183	9
