Mass Spectrum: Bicyclo[3.3.1]non-3-ene-2,6-dione
Formula: C9H10O2
CAS: 155137-46-5
Molecular weight: 150
m/z	intensity
32	4
33	1
35	1
36	4
37	13
38	61
39	457
40	100
41	139
42	54
43	19
44	3
45	7
46	6
47	2
49	2
50	39
51	100
52	61
53	167
54	31
55	227
56	22
57	22
58	1
59	1
60	4
61	5
62	14
63	42
64	15
65	92
66	239
67	102
68	48
69	14
70	6
71	4
72	10
73	9
74	4
75	8
76	7
77	402
78	66
79	195
80	37
81	57
82	17
83	7
84	1
85	1
86	1
87	1
88	1
89	5
90	3
91	52
92	13
93	33
94	309
95	999
96	68
97	8
98	1
99	12
101	3
102	1
103	8
104	8
105	13
106	4
107	52
108	15
109	6
110	4
111	4
112	2
113	1
114	1
115	1
116	1
117	1
118	1
119	5
120	6
121	29
122	368
123	35
124	3
130	1
131	12
132	3
133	5
134	2
135	1
136	1
147	5
148	4
149	4
150	138
151	14
152	1
