Mass Spectrum: Diazene, (4-methoxyphenyl)phenyl-, (Z)-
Formula: C13H12N2O
CAS: 15516-72-0
Molecular weight: 212
m/z	intensity
77	999
92	333
105	71
107	683
115	388
135	344
139	60
141	60
149	125
151	92
152	16
153	76
168	21
169	5
197	98
212	431
