Mass Spectrum: Decanoic acid, cyclohexyl ester
Formula: C16H30O2
CAS: 1551-40-2
Molecular weight: 254
m/z	intensity
25	3
26	27
27	359
28	126
29	578
30	14
31	16
34	1
37	3
39	267
40	60
41	999
42	241
43	740
44	60
45	24
46	1
48	1
49	1
50	7
51	15
52	10
53	84
54	215
55	952
56	127
57	377
58	28
59	23
60	185
61	54
62	4
63	3
64	2
65	17
67	560
68	71
69	143
70	52
71	270
72	21
73	129
74	17
75	5
77	13
78	4
79	36
80	15
81	148
82	648
83	372
84	65
85	110
86	10
87	51
88	4
89	42
90	3
91	2
93	8
94	3
95	63
96	11
97	32
98	30
99	55
100	6
101	20
102	3
103	31
104	2
107	5
109	5
110	10
111	11
112	34
113	9
114	6
115	29
116	3
117	10
118	1
123	2
124	7
125	5
127	6
129	83
130	7
131	3
135	5
136	3
137	6
138	1
139	2
142	7
143	18
144	2
152	2
153	5
155	99
156	12
157	2
170	4
172	99
173	459
174	50
175	5
183	1
211	3
