Mass Spectrum: 3-Chloro-11-[2-[diethylamino]ethyl]-5,11-dihydro-6H-indolo[3,2-c]quinolin-6-one
Formula: C21H22ClN3O
CAS: 155249-84-6
Molecular weight: 367
m/z	intensity
42	27
43	8
44	8
45	1
47	0
49	3
50	0
51	3
52	0
53	0
54	2
55	3
56	29
57	11
58	67
59	2
60	0
62	1
63	1
64	0
65	0
67	0
68	1
69	2
70	7
71	6
72	2
73	1
74	1
75	2
76	2
77	5
78	3
79	0
81	1
82	1
84	13
86	999
87	22
88	1
89	5
90	1
91	0
93	0
95	1
96	0
97	1
98	2
99	3
100	1
101	1
102	4
103	0
106	2
107	0
109	1
110	0
111	1
112	1
113	1
114	1
115	1
116	1
120	0
121	1
123	1
124	2
125	1
126	1
127	1
128	4
129	2
133	0
135	0
136	1
137	1
138	1
139	1
140	2
141	0
147	0
148	0
149	2
150	2
151	2
152	1
153	1
154	0
161	0
162	1
163	4
164	3
165	1
166	0
167	0
174	0
175	1
176	4
177	3
178	1
184	0
188	2
189	2
190	9
191	3
192	0
199	1
200	0
201	2
202	1
203	4
204	2
205	1
214	0
215	1
216	4
217	5
218	6
219	2
224	0
226	0
227	0
228	3
229	2
230	0
231	0
236	2
238	0
239	4
241	3
242	1
245	2
246	5
252	3
253	1
254	1
258	3
259	2
260	4
261	0
263	6
264	0
265	3
266	0
268	0
277	0
279	1
280	1
281	12
282	3
283	4
284	1
293	0
294	1
295	1
366	2
367	12
368	2
369	5
370	0
