Mass Spectrum: 3-Chloro-8-[1,1-dimethylethyl]-N,N-diethyl-11H-indolo[3,2-c]quinoline
Formula: C25H30ClN3
CAS: 155249-78-8
Molecular weight: 407
m/z	intensity
41	15
42	20
43	5
44	7
46	1
47	2
48	0
49	13
51	5
54	1
55	2
56	24
57	19
58	57
59	1
68	0
69	0
70	7
71	4
72	1
74	2
77	1
78	0
84	21
86	999
87	78
88	2
89	1
91	0
98	1
99	3
100	6
101	1
107	1
113	0
114	1
115	1
121	1
122	1
126	0
127	2
128	3
129	1
134	2
139	3
140	1
141	0
145	0
146	1
147	0
149	1
150	0
151	1
152	1
153	1
154	1
161	1
163	1
164	1
165	0
168	1
175	3
176	2
177	1
178	0
182	1
187	1
189	10
190	2
191	0
196	3
199	0
200	2
201	4
202	4
203	4
204	1
212	0
213	1
214	3
215	4
216	3
217	1
218	1
224	0
225	1
226	1
227	5
228	7
229	9
230	4
231	1
236	0
237	1
238	1
239	1
240	3
241	6
242	10
243	6
244	2
245	0
250	1
251	1
252	4
253	5
254	4
255	10
256	6
257	2
258	0
262	0
263	5
264	8
265	15
266	7
267	7
268	4
269	5
270	2
271	2
272	0
275	0
276	5
277	9
278	6
279	11
280	3
281	3
282	1
283	2
284	1
285	5
286	1
287	0
289	14
290	5
291	65
292	16
293	27
294	6
295	2
300	1
301	1
302	1
303	4
304	1
305	42
306	11
307	18
308	6
309	1
310	0
317	0
319	15
320	5
321	48
322	25
323	17
324	7
325	1
334	5
335	2
336	2
337	0
348	1
350	0
362	1
372	1
373	0
377	0
379	0
390	0
392	2
405	1
406	3
407	60
408	19
409	21
410	5
411	0
