Mass Spectrum: N-Methylpiperidin-2-yliden-3-morpholino-2-(4-chlorphenyl)-thioacrylamide
Formula: C19H24ClN3OS
CAS: 155243-50-8
Molecular weight: 377
m/z	intensity
12	5
13	4
14	14
15	126
16	12
17	40
18	143
19	8
25	2
26	39
27	210
28	443
29	360
30	172
31	43
32	31
33	4
34	4
35	7
36	19
37	5
38	17
39	115
40	29
41	260
42	598
43	146
44	303
45	188
46	11
47	17
48	3
49	5
50	31
51	64
52	35
53	58
54	160
55	371
56	248
57	313
58	77
59	55
60	38
61	17
62	19
63	49
64	20
65	33
66	31
67	97
68	999
69	215
70	477
71	66
72	64
73	52
74	47
75	88
76	25
77	50
78	27
79	21
80	34
81	53
82	97
83	43
84	141
85	64
86	115
87	97
88	28
89	71
90	16
91	18
92	17
93	22
94	66
95	91
96	178
97	156
98	958
99	185
100	236
101	136
102	97
103	44
104	14
105	14
106	17
107	21
108	16
109	17
110	29
111	110
112	164
113	199
114	118
115	93
116	54
117	19
118	13
119	21
120	24
121	24
122	34
123	139
124	32
125	108
126	56
127	139
128	190
129	83
130	243
131	42
132	26
133	25
134	33
135	26
136	78
137	69
138	83
139	94
140	52
141	48
142	51
143	26
144	19
145	26
146	20
147	22
148	17
149	92
150	36
151	54
152	35
153	66
154	143
155	587
156	77
157	45
158	24
159	25
160	17
161	17
162	47
163	24
164	69
165	31
166	32
167	80
168	48
169	52
170	22
171	32
172	24
173	20
174	17
175	14
176	18
177	24
178	22
179	30
180	24
181	58
182	23
183	22
184	12
185	12
186	15
187	13
189	37
190	30
191	18
192	28
193	22
194	26
195	17
196	31
197	26
198	16
199	19
200	18
201	11
202	12
203	18
204	26
205	25
206	24
207	18
208	28
209	14
210	12
211	10
212	9
213	7
214	7
215	5
216	7
217	14
218	10
219	15
220	20
221	16
222	31
223	75
224	29
225	37
226	11
227	8
228	8
229	28
230	14
231	18
232	88
233	33
234	56
235	39
236	24
237	19
238	8
239	7
240	5
241	27
242	10
243	9
244	7
245	16
246	16
247	27
248	66
249	55
250	31
251	19
252	6
253	8
254	17
255	16
256	8
257	31
258	51
259	72
260	29
261	48
262	12
263	31
264	31
265	32
266	32
267	11
268	10
269	7
270	4
271	10
272	7
273	11
274	17
275	25
276	11
277	18
278	10
279	12
280	11
281	6
282	21
283	9
284	12
285	7
286	61
287	73
288	35
289	121
290	98
291	199
292	145
293	85
294	46
295	10
296	2
297	1
298	4
299	2
300	5
301	4
302	2
303	6
304	23
305	11
306	15
307	6
308	4
309	1
310	1
311	0
312	1
313	11
314	6
315	5
316	4
317	3
318	8
319	26
320	10
321	13
322	10
323	4
324	4
325	1
326	1
327	0
328	0
329	0
330	1
331	1
332	22
333	6
334	10
335	2
336	1
337	0
338	1
339	1
340	0
341	0
342	7
344	517
345	110
346	179
347	39
348	25
349	5
350	8
351	1
352	0
354	1
355	0
358	2
359	0
360	1
361	1
362	2
363	1
364	0
375	8
377	227
378	53
379	88
380	19
381	6
382	1
