Mass Spectrum: 8-Methoxy-11-[phenylmethyl]-11H-indolo[3,2-c]quinoline
Formula: C23H18N2O
CAS: 155249-62-0
Molecular weight: 338
m/z	intensity
41	19
43	18
44	5
45	2
47	3
48	5
49	13
51	34
52	6
53	2
55	6
57	5
60	1
62	8
63	24
65	136
66	5
67	0
69	5
70	0
71	3
74	7
75	17
76	11
77	9
78	4
80	2
81	2
82	2
84	14
86	12
87	5
88	7
89	19
91	999
92	32
93	1
95	2
97	3
98	0
99	10
100	3
101	5
102	4
103	2
105	1
106	7
107	0
109	1
110	1
111	3
112	3
113	3
114	2
115	4
116	1
118	2
119	4
120	2
121	1
122	0
123	5
124	2
125	15
126	6
127	6
128	1
129	1
131	4
133	11
136	0
137	3
138	4
139	5
140	4
146	16
149	5
150	11
151	21
152	9
153	5
154	0
161	2
162	2
163	10
164	6
165	3
166	1
167	1
169	4
174	1
175	4
176	13
177	29
178	18
179	2
187	0
188	10
189	6
190	9
191	3
192	1
200	0
201	1
202	2
203	36
204	162
205	23
206	1
213	1
214	0
215	5
216	6
217	5
218	16
219	4
220	0
221	0
224	0
227	0
229	2
230	1
232	125
233	19
234	2
237	0
238	1
239	1
240	1
241	1
244	2
245	2
247	338
248	53
249	4
250	0
258	0
259	1
260	0
261	28
262	5
263	2
264	3
265	2
266	2
267	1
277	5
278	1
279	1
290	2
291	3
292	8
293	9
294	5
295	2
303	2
305	4
306	2
307	3
308	0
309	0
320	1
321	4
322	1
323	107
324	23
325	3
334	15
335	6
337	2
338	776
339	188
340	25
341	0
