Mass Spectrum: N-(3-p-Chlorophenyl-5-p-nitrophenylthien-2-yl)-1-methylpiperidin-2-imine
Formula: C22H20ClN3O2S
CAS: 155243-57-5
Molecular weight: 425
m/z	intensity
12	4
15	48
16	8
17	19
18	81
26	9
27	77
28	110
29	125
30	366
31	9
32	8
35	4
36	12
38	8
39	80
40	12
41	157
42	361
43	85
44	148
45	61
46	8
47	6
50	19
51	25
52	8
53	44
54	125
55	282
56	222
57	98
58	86
59	6
62	8
63	26
64	6
65	15
66	13
67	75
68	999
69	227
70	75
71	20
72	11
73	8
74	10
75	30
76	14
77	15
78	8
79	8
80	15
81	34
82	114
83	32
84	437
85	36
86	10
87	15
88	15
89	25
90	4
91	6
92	5
93	19
94	40
95	40
96	52
97	54
98	13
99	96
100	15
101	21
102	9
103	5
104	6
105	6
106	8
107	8
108	17
109	12
110	20
111	16
112	8
113	18
114	17
115	12
116	16
117	10
118	6
119	9
120	40
121	23
122	20
123	43
125	14
126	9
127	20
128	14
129	9
130	10
131	7
132	11
133	8
134	14
135	12
136	17
137	16
138	13
139	13
140	10
141	5
142	7
143	6
144	6
145	10
146	4
147	17
148	30
149	25
150	21
151	21
152	13
153	12
154	43
155	36
157	10
158	7
159	5
160	7
161	7
162	12
163	15
164	13
165	10
166	15
167	9
168	7
169	6
170	11
171	18
172	12
173	10
174	12
175	12
176	25
177	12
179	39
180	14
181	7
182	6
183	6
184	6
185	4
186	6
187	29
188	22
189	54
190	26
191	10
192	6
193	5
194	8
195	12
196	10
197	8
198	6
199	7
200	11
201	19
202	32
203	24
204	10
205	6
206	6
207	11
208	10
209	6
210	7
211	5
213	91
214	42
215	18
216	9
217	9
218	6
219	12
220	14
221	25
222	10
223	18
224	8
225	10
226	12
227	17
228	19
229	12
230	8
231	10
232	24
233	19
234	27
235	27
236	41
237	11
238	9
239	8
240	25
241	10
242	7
243	7
244	10
245	51
246	111
247	59
248	25
249	12
250	8
251	6
252	8
253	6
254	13
255	18
256	10
257	44
259	184
260	48
261	65
262	19
263	9
264	9
265	6
266	5
267	8
268	16
269	17
270	32
271	85
272	42
273	46
274	19
275	12
276	9
277	11
278	6
279	8
280	12
282	158
283	40
284	19
285	22
286	36
287	15
289	93
290	23
291	40
292	65
293	28
294	18
295	16
296	17
297	42
298	15
299	20
300	27
301	8
302	6
303	6
304	5
305	10
306	10
307	14
308	10
309	10
310	10
311	8
312	4
313	6
314	13
315	8
316	7
317	7
318	9
319	8
320	8
321	10
322	8
323	6
324	5
325	6
326	8
327	8
328	12
329	6
330	6
331	5
332	7
333	10
334	8
335	6
336	3
337	3
338	2
339	4
340	6
341	14
343	83
344	22
345	55
346	56
347	22
348	18
349	8
350	10
351	4
352	4
353	3
354	6
355	3
356	9
357	9
358	3
361	6
362	8
363	6
364	7
365	2
366	4
367	7
368	15
369	7
370	6
377	2
378	7
379	20
380	10
381	10
382	5
383	3
390	10
392	283
393	83
394	106
395	70
396	55
397	27
398	19
399	5
409	8
410	4
411	4
425	989
426	303
427	417
428	104
429	31
430	5
