Mass Spectrum: N,N-Diethyl-8-methoxy-11H-indolo[3,2-c]quinoline-11-ethanamine
Formula: C22H25N3O
CAS: 155249-64-2
Molecular weight: 347
m/z	intensity
42	17
43	5
44	3
47	0
49	3
51	2
54	1
55	0
56	18
57	5
58	34
63	1
70	5
71	5
72	0
75	1
76	0
77	1
81	0
82	0
84	13
86	999
87	11
88	1
89	1
90	1
98	1
99	3
100	1
101	0
102	1
105	0
113	0
114	0
115	3
116	1
123	0
125	2
126	0
127	0
130	0
132	0
137	1
138	0
139	0
140	0
141	0
150	2
151	4
152	2
163	4
164	5
165	1
166	2
175	1
176	3
177	4
178	2
179	0
188	2
189	0
190	10
191	4
192	1
201	1
203	7
204	11
205	4
206	0
215	1
216	4
217	12
218	46
219	7
229	5
230	3
231	5
232	8
233	4
234	0
242	0
243	1
245	2
246	3
247	7
248	5
249	0
258	0
259	2
260	4
261	34
262	9
263	1
273	3
274	2
275	3
276	0
298	1
317	1
318	4
319	1
330	1
332	0
334	0
345	2
346	4
347	134
348	33
349	4
