Mass Spectrum: 3-Chloro-N,N-diethyl-11H-pyrido[3',2'-4,5]pyrrolo[3,2-c]quinoline-11-ethanamine
Formula: C20H21ClN4
CAS: 155249-80-2
Molecular weight: 352
m/z	intensity
42	17
43	5
44	3
45	0
47	3
48	1
49	13
50	1
51	6
52	0
53	0
54	2
55	3
56	22
57	8
58	45
59	1
62	0
63	2
64	0
67	1
68	1
69	2
70	10
71	14
72	3
73	1
74	0
75	4
76	2
77	3
78	7
79	2
82	0
83	1
84	1
85	35
86	999
87	58
88	3
89	1
91	1
95	1
96	1
97	3
98	5
99	123
100	12
101	0
102	5
103	1
104	0
106	3
108	1
109	1
110	1
111	1
112	0
113	0
114	0
115	1
116	0
121	1
122	6
123	0
124	3
125	1
126	1
127	1
129	5
136	0
137	1
138	1
139	0
140	2
141	0
148	1
149	6
150	5
151	3
152	1
153	0
161	0
162	2
163	3
164	4
165	1
169	1
174	1
175	3
176	6
177	9
178	2
185	1
187	0
188	0
189	3
190	3
191	4
192	1
198	1
199	0
200	0
201	0
202	3
203	7
204	6
205	1
211	0
212	0
213	0
215	0
216	2
217	7
218	6
219	3
220	0
225	1
226	0
227	0
228	0
229	0
230	14
231	8
232	2
237	0
238	0
239	3
240	0
241	1
242	0
243	6
244	8
245	2
246	0
251	0
252	2
253	20
254	114
255	22
256	37
257	6
264	2
265	3
266	24
267	7
268	8
269	2
278	4
279	2
280	13
281	15
282	6
283	5
337	0
