Mass Spectrum: 3-Piperidino-2-phenyl-thioacrylamide
Formula: C14H18N2S
CAS: 155243-68-8
Molecular weight: 246
m/z	intensity
12	4
13	2
14	5
15	47
16	12
17	67
18	227
26	28
27	274
28	362
29	212
30	110
31	5
32	15
33	10
34	9
35	2
36	2
37	5
38	22
39	280
40	54
41	589
42	194
43	73
44	55
45	87
46	7
47	8
49	3
50	57
51	148
52	83
53	63
54	113
55	179
56	139
57	38
58	13
59	19
60	236
61	18
62	41
63	94
64	30
65	70
66	19
67	42
68	33
69	80
70	24
71	16
72	12
73	10
74	28
75	52
76	81
77	260
78	77
79	27
80	26
81	24
82	67
83	96
84	999
85	73
86	19
87	16
88	27
89	184
90	95
91	231
92	31
93	22
94	29
95	38
96	21
97	14
98	19
99	9
100	9
101	43
102	157
103	204
104	89
105	28
106	35
107	8
108	14
109	12
110	8
111	5
112	7
113	8
114	24
115	131
116	136
117	203
118	69
119	12
120	13
121	85
122	33
123	55
124	6
125	4
126	5
127	26
128	87
129	57
130	157
131	30
132	22
133	30
134	76
135	89
136	21
137	9
138	1
139	2
140	11
141	26
142	29
143	54
144	37
145	37
146	13
147	42
148	21
149	42
150	71
151	13
152	7
153	8
154	17
155	41
156	42
157	28
158	26
159	48
160	42
162	377
163	158
164	37
165	9
166	4
167	15
168	21
169	18
170	18
171	41
172	21
173	8
174	11
175	13
176	10
177	17
178	5
179	7
180	5
181	9
182	4
183	10
184	41
185	35
186	32
187	8
188	5
189	22
190	5
191	1
192	1
193	1
194	9
196	163
197	41
198	19
199	4
200	4
201	2
202	1
203	4
204	1
205	1
209	1
211	14
212	31
213	761
214	112
215	9
216	1
217	1
218	19
219	3
220	1
226	1
228	7
229	1
230	2
231	0
244	0
246	256
247	46
248	15
249	2
