Mass Spectrum: 3-Chloro-9-[[diethylamino]methyl]-N,N-diethyl-8-methoxy-11H-indolo[3,2-c]quinoline
Formula: C27H35ClN4O
CAS: 155249-67-5
Molecular weight: 466
m/z	intensity
41	2
42	15
43	7
44	9
45	4
46	10
56	16
57	7
58	35
70	5
72	4
74	28
78	6
84	32
86	999
87	52
88	5
89	11
91	4
100	7
124	2
128	4
190	2
203	4
229	7
230	2
242	4
243	7
264	8
265	15
266	7
267	4
277	7
278	8
279	16
280	4
281	5
291	7
293	6
294	1
295	8
307	12
308	9
309	10
310	1
321	21
322	8
323	10
324	4
335	1
351	4
353	1
380	6
381	1
393	59
394	21
395	23
396	8
466	7
467	2
468	2
