Mass Spectrum: Pyrazolo[4,5-b]oxin-6(1H)-one, 1-(4-bromophenyl)-3,4-dimethyl-
Formula: C14H11BrN2O2
CAS: 155297-20-4
Molecular weight: 318
m/z	intensity
33	13
36	0
39	630
40	58
42	92
43	60
44	11
46	5
50	477
51	373
52	325
53	226
55	7
56	3
57	2
58	3
59	4
61	26
63	366
64	99
65	61
66	41
67	67
69	10
71	13
75	462
77	999
78	158
79	198
80	36
81	14
82	3
84	2
85	7
86	6
87	6
88	22
90	201
91	168
93	42
94	6
95	9
97	0
98	3
99	5
100	5
102	22
103	5
105	79
107	291
108	31
109	11
112	0
113	3
114	12
115	28
117	19
119	135
121	4
122	2
123	0
126	3
127	5
128	15
129	12
130	9
131	7
132	4
135	309
136	23
137	2
139	10
140	20
141	19
142	15
143	6
144	2
145	3
148	2
149	0
150	0
152	6
153	7
155	377
157	375
158	15
159	11
160	8
166	4
168	22
169	55
170	26
171	48
172	6
180	5
183	162
185	106
186	8
193	3
196	177
198	176
199	11
206	14
208	19
209	5
211	67
212	7
220	88
222	103
223	16
224	21
225	1
236	2
237	1
239	59
240	7
247	1
249	11
250	2
251	5
252	1
261	11
263	24
264	7
265	9
275	10
276	13
277	36
278	18
279	16
280	1
289	29
290	64
291	35
292	65
293	7
294	3
303	4
305	3
315	13
318	867
320	928
321	106
322	8
