Mass Spectrum: 3-Chloro-N,N-diethyl-11H-pyrido[3,2-4,5]pyrrolo[3,2-c]quinoline-11-ethanamine
Formula: C20H21ClN4O
CAS: 155249-82-4
Molecular weight: 368
m/z	intensity
42	49
43	8
44	13
45	0
47	1
49	4
50	1
51	5
52	1
54	7
55	4
56	46
57	10
58	87
59	2
62	1
63	3
64	2
65	1
67	0
68	1
69	1
70	13
71	12
72	4
73	1
74	2
75	5
76	4
77	3
78	14
79	3
80	0
82	1
84	32
86	999
87	79
88	3
89	2
90	1
91	2
92	0
93	0
95	1
96	2
97	3
98	8
99	57
100	52
102	12
103	3
104	3
105	1
106	0
109	2
110	0
111	1
112	1
113	1
114	2
115	1
116	2
117	0
118	0
120	0
121	1
122	2
123	2
124	2
125	1
126	2
127	2
129	5
130	2
133	0
135	2
136	2
137	2
138	4
139	2
140	2
141	1
142	0
147	0
148	3
149	4
150	5
151	5
152	3
153	1
154	0
155	0
159	0
160	0
161	1
162	3
163	5
164	9
165	4
166	1
167	0
168	0
169	0
171	0
172	0
173	0
174	2
175	5
176	9
177	12
178	6
179	4
183	0
185	2
186	1
187	2
188	3
189	6
190	6
191	7
192	6
193	1
198	2
199	0
200	2
201	2
202	6
203	12
204	9
205	3
206	7
207	1
210	0
211	2
212	1
213	2
214	1
215	2
216	3
217	10
218	8
219	6
220	3
221	0
224	0
225	2
226	2
227	1
228	2
229	2
230	40
231	13
232	3
233	1
234	2
235	0
236	0
237	1
238	4
239	6
240	9
241	4
242	4
243	9
244	7
245	3
246	2
247	0
251	1
252	3
253	22
254	74
255	18
256	22
257	4
258	0
259	0
260	1
261	1
264	9
265	17
266	38
267	19
268	17
269	128
270	23
271	41
272	8
277	1
278	9
279	5
280	13
281	12
282	27
283	8
284	8
285	2
294	1
295	3
296	4
297	1
298	0
333	0
337	0
340	0
350	1
351	1
352	0
353	2
366	0
367	1
368	77
369	22
370	27
371	6
372	0
