Mass Spectrum: Bicyclo[3.1.0]hexan-2-ol, 2-methyl-5-(1-methylethyl)-, (1.alpha.,2.beta.,5.alpha.)-
Formula: C10H18O
CAS: 15537-55-0
Molecular weight: 154
m/z	intensity
23	6
26	10
27	286
28	67
29	109
30	2
31	23
36	3
37	2
38	14
39	258
40	38
41	573
42	37
43	999
44	18
45	36
50	19
51	73
52	30
53	147
54	43
55	354
56	38
57	41
58	149
59	29
60	3
62	12
63	21
64	8
65	73
66	25
67	156
68	87
69	378
70	35
71	798
72	38
73	5
74	8
75	4
77	333
78	48
79	379
80	89
81	467
82	49
83	115
84	131
85	24
86	62
87	2
89	11
90	4
91	242
92	155
93	940
94	172
95	90
96	86
97	84
98	14
99	2
103	10
104	3
105	50
106	13
107	90
108	21
109	11
110	17
111	369
112	22
115	7
117	3
119	37
120	4
121	375
122	24
123	7
125	25
126	12
134	5
135	8
136	214
137	25
139	171
140	14
147	4
154	40
155	2
