Mass Spectrum: Propane, 1-(di-t-butylphosphino)3-[2-(2-pyridinyl)ethyl)(phenyl)phosphino]-
Formula: C24H37NP2
CAS: 155340-54-8
Molecular weight: 401
m/z	intensity
25	0
26	3
27	15
29	139
30	2
31	0
36	0
37	0
38	1
39	20
40	105
41	165
42	12
43	12
44	1
45	10
46	1
47	2
48	2
49	2
50	3
51	14
52	8
53	7
54	2
55	15
56	7
57	292
58	12
59	7
60	1
61	17
62	5
63	2
64	0
65	23
66	5
67	2
68	0
69	2
70	0
71	8
72	2
73	30
74	6
75	19
76	2
77	21
78	60
79	46
80	7
81	1
82	1
83	15
84	0
85	3
86	0
87	4
88	1
89	7
90	1
91	27
92	8
93	30
94	3
95	1
96	0
97	1
99	0
100	0
101	1
102	0
103	6
104	12
105	27
106	999
107	82
108	11
109	128
110	14
111	1
112	0
113	0
114	0
115	5
116	2
117	6
118	2
119	2
120	2
121	11
122	4
123	17
124	4
125	1
127	0
128	0
129	5
130	2
131	3
132	1
133	7
134	1
135	26
136	65
137	28
138	14
139	18
140	21
141	12
142	1
144	0
145	0
146	0
147	6
148	2
149	11
150	3
151	1
152	5
153	1
154	9
155	1
156	0
157	0
159	0
160	0
161	0
162	0
163	1
164	2
165	0
166	0
167	4
168	2
169	1
170	0
171	0
176	0
177	0
178	1
179	0
180	2
181	12
182	126
183	88
184	8
185	2
186	1
187	2
188	0
194	0
195	2
196	1
197	1
198	2
199	3
200	0
207	0
209	1
210	1
211	1
212	4
213	2
214	72
215	12
216	1
223	0
224	0
225	0
226	0
228	2
229	0
230	1
231	0
236	0
237	0
238	0
239	30
240	4
241	0
242	0
245	0
253	0
254	0
255	3
256	2
257	0
258	0
259	0
262	0
266	0
268	0
269	1
270	0
271	0
286	2
287	6
288	42
289	7
290	0
295	31
296	6
297	0
302	0
304	1
305	0
311	0
315	1
316	0
324	0
328	0
329	0
330	0
331	0
344	825
345	179
346	20
347	2
348	0
349	0
358	1
359	0
386	2
387	0
400	1
401	0
402	0
