Mass Spectrum: 9-(1-Benzoylbutyl)acridine
Formula: C24H21NO
CAS: 15539-55-6
Molecular weight: 339
m/z	intensity
27	2
28	3
29	1
39	2
41	1
43	1
50	1
51	9
52	1
55	3
57	1
63	2
65	1
74	1
75	3
76	4
77	163
78	11
83	1
87	1
88	2
89	3
91	1
95	2
97	1
100	1
101	2
102	4
104	1
105	999
106	82
107	5
108	2
113	2
114	1
115	2
117	1
119	3
120	1
122	8
123	1
125	2
126	2
127	1
128	1
132	1
133	1
138	1
139	5
140	4
148	1
149	1
150	4
151	8
152	6
153	2
163	4
164	6
165	13
166	5
167	2
175	2
176	6
177	8
178	9
179	16
180	13
181	2
188	1
189	3
190	15
191	35
192	175
193	41
194	4
195	12
196	1
201	2
202	5
203	9
204	66
205	28
206	17
207	4
208	1
214	1
215	1
216	8
217	14
218	15
219	6
220	3
221	1
227	1
228	1
230	1
231	1
232	2
233	6
234	56
235	134
236	24
237	2
239	1
249	2
250	1
251	1
252	1
253	1
254	1
264	1
265	1
266	5
267	5
268	2
278	1
280	2
281	1
282	1
292	1
295	2
296	3
297	1
310	207
311	52
312	6
338	4
339	453
340	120
341	15
342	1
