Mass Spectrum: 2-Acetyl-N-cyclohexyl-2-butenamide
Formula: C12H19NO2
CAS: 15539-69-2
Molecular weight: 209
m/z	intensity
15	4
26	1
27	12
28	22
29	15
30	15
38	1
39	30
40	9
41	99
42	12
43	231
44	14
45	1
51	2
52	2
53	15
54	24
55	68
56	253
57	13
58	2
60	1
65	4
66	5
67	50
68	27
69	471
70	53
71	6
77	3
78	1
79	9
80	4
81	33
82	74
83	24
84	55
85	10
86	7
93	1
94	2
95	3
96	9
97	137
98	561
99	61
100	4
101	1
102	9
108	3
109	8
110	77
111	999
112	79
113	16
114	5
121	1
122	1
123	2
124	9
125	7
126	42
127	24
128	467
129	33
130	5
134	2
135	1
136	1
137	1
138	9
139	5
140	8
141	1
147	1
148	2
149	2
150	1
151	2
152	78
153	10
154	2
164	2
165	1
166	161
167	21
168	8
169	1
176	1
180	4
181	3
183	8
184	3
191	2
192	2
194	224
195	27
196	3
208	4
209	294
210	66
211	9
212	1
