Mass Spectrum: N-Acetyl-D-penicillamine
Formula: C7H13NO3S
CAS: 15537-71-0
Molecular weight: 191
m/z	intensity
26	2
27	18
28	56
29	24
30	34
31	4
32	5
33	6
34	15
35	2
36	16
37	0
38	5
39	18
40	4
41	212
42	29
43	376
44	20
45	11
46	8
47	47
48	1
49	2
50	0
51	0
52	0
53	14
54	9
55	21
56	57
57	141
58	5
59	48
60	12
61	5
62	1
63	0
65	0
66	0
67	1
68	11
69	14
70	159
71	81
72	56
73	5
74	87
75	999
76	44
77	44
78	1
79	0
80	0
81	1
82	3
83	4
84	2
85	4
86	2
87	38
88	10
89	3
90	2
91	1
92	0
93	0
94	0
95	1
96	1
97	3
98	12
99	309
100	18
101	3
102	6
103	2
104	39
105	2
106	2
107	0
109	0
111	1
112	17
113	12
114	26
115	4
116	24
117	462
118	32
119	4
120	0
124	0
128	1
129	0
130	1
131	1
132	1
133	0
134	0
139	2
140	19
141	1
142	0
144	0
145	0
146	7
147	0
148	1
157	0
158	5
159	0
173	1
174	0
191	0
192	1
