Mass Spectrum: 1,3-Dicyclohexyl-1-[5-phenyl-2,4-pentadienoyl]urea
Formula: C24H32N2O2
CAS: 15542-62-8
Molecular weight: 380
m/z	intensity
41	711
42	85
43	224
44	64
51	71
53	83
54	119
55	999
56	595
57	35
61	95
63	9
65	32
67	99
68	40
69	59
70	73
77	119
78	49
79	61
81	123
82	91
83	361
84	30
87	17
91	260
92	17
95	40
96	481
97	75
98	463
99	115
100	26
101	24
102	56
103	40
104	93
105	6
106	15
115	185
116	33
117	757
118	77
125	140
126	34
127	368
128	948
129	696
130	294
131	46
132	36
138	34
141	24
143	45
144	71
145	57
154	16
155	20
156	80
157	914
158	128
164	136
169	14
172	131
173	86
174	35
178	44
181	101
199	14
207	6
215	41
216	189
217	29
227	14
255	114
256	30
263	116
298	173
299	37
380	181
381	58
