Mass Spectrum: 5-[p-Benzyloxyphenyl]-2,4-pentadienoic acid ethyl ester
Formula: C20H20O3
CAS: 15542-29-7
Molecular weight: 308
m/z	intensity
41	10
42	1
43	2
45	3
49	0
50	4
51	16
52	4
53	2
55	5
57	0
58	1
59	0
62	3
63	19
64	6
65	83
66	4
69	3
74	0
75	2
76	2
77	10
78	2
79	2
84	0
88	0
89	20
90	10
91	999
92	82
93	2
101	0
102	2
103	2
105	4
107	3
114	1
115	50
116	17
117	8
118	1
119	0
120	2
121	0
127	6
128	3
129	0
131	2
133	4
143	4
144	3
145	5
146	0
152	0
161	0
171	2
172	3
177	2
178	4
181	0
189	3
217	2
234	1
263	12
264	2
293	2
308	76
309	16
310	2
