Mass Spectrum: Urea, 3-(3-chloro-o-tolyl)-1,1-diethyl-
Formula: C12H17ClN2O
CAS: 15545-55-8
Molecular weight: 240
m/z	intensity
28	76
29	455
30	131
39	30
41	16
42	79
43	11
44	431
50	23
51	63
52	27
56	43
58	145
63	27
65	10
70	20
72	672
73	28
75	17
76	21
77	97
78	8
79	10
89	37
90	13
99	13
100	999
101	65
102	17
103	12
104	36
105	9
106	18
112	14
113	9
125	28
127	11
132	28
138	23
139	19
140	41
141	22
142	12
166	8
167	29
168	18
169	11
225	14
240	138
241	24
242	47
243	8
