Mass Spectrum: Urea, 3-(5-chloro-o-tolyl)-1,1-diethyl-
Formula: C12H17ClN2O
CAS: 15545-54-7
Molecular weight: 240
m/z	intensity
28	114
29	99
30	161
39	27
41	19
42	53
44	122
50	30
51	55
52	26
56	33
58	244
63	26
72	449
73	62
75	24
76	26
77	89
78	24
89	33
100	999
101	69
102	28
103	16
104	41
106	14
112	33
119	21
125	27
132	157
133	19
138	94
139	61
140	57
141	33
166	46
167	224
168	41
169	76
192	20
240	241
241	37
242	81
