Mass Spectrum: Urea, 3-(2,5-dichlorophenyl)-1,1-diethyl-
Formula: C11H14Cl2N2O
CAS: 15545-51-4
Molecular weight: 260
m/z	intensity
28	76
29	274
30	189
36	45
37	19
38	8
39	17
41	27
42	72
43	58
44	161
49	13
50	16
51	11
56	42
57	10
58	235
61	19
62	28
63	33
65	16
70	19
72	600
73	56
74	18
75	18
86	14
88	23
90	12
97	21
98	14
99	14
100	999
101	66
124	154
125	20
126	54
128	26
133	28
135	19
159	33
160	15
161	41
163	16
181	10
187	347
188	36
189	225
190	23
191	38
225	253
226	35
227	86
228	11
260	52
262	34
