Mass Spectrum: Phosphonic acid, (.alpha.-hydroxybenzyl)-, (ethyl)(hexyl) ester
Formula: C15H25O4P
CAS: 155505-76-3
Molecular weight: 300
m/z	intensity
25	0
26	7
27	73
28	5
29	105
30	2
31	23
36	0
37	6
38	8
39	41
41	122
42	52
43	127
44	4
45	32
46	2
47	12
48	1
49	4
50	46
51	105
52	22
53	9
54	8
55	95
56	82
57	15
58	1
59	0
60	0
61	2
62	4
63	6
64	0
65	79
66	22
67	7
68	1
69	23
70	2
71	0
72	0
73	4
74	14
75	8
76	10
77	290
78	34
79	8
80	3
81	6
82	24
83	999
84	6
85	9
86	0
87	0
88	0
89	1
90	0
91	2
92	12
93	13
94	3
95	8
96	7
97	30
98	0
99	3
100	0
101	0
103	0
104	0
105	349
106	419
107	36
108	2
109	33
110	42
111	889
112	17
113	3
117	0
118	0
119	0
120	0
121	0
122	0
123	13
124	1
125	0
127	4
128	0
135	0
136	0
137	7
138	3
139	0
141	0
148	0
149	1
151	6
152	1
153	0
155	2
156	0
165	8
166	0
167	4
168	0
173	0
179	0
182	0
187	0
188	0
193	1
194	1
195	2
196	0
199	0
200	0
206	0
207	0
211	1
215	0
216	2
217	0
221	0
243	0
244	0
279	0
300	4
301	0
