Mass Spectrum: N,N'-Di[2-[2-pyridyl]ethyl]imidazole-4,5-dicarboxamide
Formula: C19H20N6O2
CAS: 155559-88-9
Molecular weight: 364
m/z	intensity
41	59
42	39
43	28
44	21
45	10
47	49
48	26
49	2
50	16
51	1
52	58
53	52
54	27
55	16
56	10
57	11
58	2
59	9
60	4
61	3
62	3
63	15
64	14
65	140
66	99
67	135
68	116
69	16
70	14
71	6
73	5
75	1
76	4
77	53
78	215
79	94
80	31
81	7
82	6
84	1
86	0
88	15
89	0
90	0
91	10
92	85
93	999
94	285
95	101
96	16
97	5
101	0
104	50
105	165
106	998
107	81
108	5
109	3
110	3
111	11
112	6
117	3
118	6
119	58
120	52
121	675
122	53
123	98
124	22
125	3
129	3
131	5
133	2
135	16
136	13
137	7
138	15
139	7
140	1
142	1
143	2
145	3
147	11
148	2
149	11
150	44
151	6
152	35
153	343
154	24
155	4
157	0
158	0
159	12
163	6
164	4
167	18
168	2
169	1
170	39
171	9
172	15
173	5
181	0
182	43
183	4
185	28
186	10
187	4
196	3
197	5
198	4
199	23
200	4
201	0
202	3
213	4
215	40
216	20
217	20
218	3
223	4
225	6
226	2
227	1
228	3
229	4
230	7
231	6
235	5
236	11
237	1
241	13
242	12
243	88
244	15
245	2
255	0
258	8
259	4
264	0
272	74
274	171
275	24
276	2
286	2
307	14
308	1
321	15
322	1
364	160
365	36
366	4
