Mass Spectrum: 1,3-Dioxane-4,6-dione, 2,2-dimethyl-4-phenylaminomethylidene-
Formula: C13H13NO4
CAS: 15568-92-0
Molecular weight: 247
m/z	intensity
12	4
13	4
14	16
15	133
16	12
17	63
18	247
25	3
26	23
27	89
28	89
29	49
30	4
31	24
32	4
36	3
37	14
38	40
39	180
40	36
41	49
42	38
43	445
44	43
45	18
46	2
49	2
50	61
51	273
52	49
53	158
54	11
55	9
56	3
57	10
58	14
59	20
60	4
61	5
62	18
63	78
64	45
65	71
66	37
67	13
68	7
69	26
70	5
71	4
72	1
73	3
74	12
75	13
76	23
77	386
78	41
79	4
81	2
82	3
83	3
84	2
85	2
86	3
87	6
88	11
89	209
90	299
91	49
92	17
93	201
94	20
95	2
97	2
98	3
99	1
100	1
101	2
102	21
103	6
104	73
105	30
106	3
109	1
111	2
112	2
113	2
114	8
115	14
116	107
117	999
118	92
119	10
120	9
121	1
126	3
127	3
128	6
129	2
130	5
131	1
132	3
133	3
134	1
135	4
141	1
142	1
144	757
145	181
146	21
147	2
149	1
158	1
159	2
160	1
161	54
162	7
170	1
171	2
172	60
173	7
174	1
184	1
188	10
189	427
190	109
191	12
192	1
202	1
232	5
233	1
247	76
248	12
249	1
