Mass Spectrum: 5-Iodo-6-hydroxybicyclo[2.2.1]heptane-2,3-dicarboxylic acid, 2,6-lactone
Formula: C9H9IO4
CAS: 15573-45-2
Molecular weight: 308
m/z	intensity
26	29
27	143
29	30
31	35
36	52
37	43
38	101
39	538
40	384
41	112
42	11
43	29
44	186
45	40
47	43
49	4
50	36
51	99
52	47
53	73
54	15
55	61
56	11
57	17
60	19
61	37
62	62
63	139
64	34
65	600
66	999
67	96
68	19
69	17
70	9
71	19
73	19
75	3
77	180
78	70
79	654
80	70
81	60
82	20
83	28
84	14
85	7
89	17
90	22
91	367
92	95
93	23
94	7
95	19
96	10
97	37
98	9
99	21
105	92
106	26
107	174
108	33
109	14
110	18
111	13
118	19
119	27
123	212
124	44
125	141
126	13
127	38
128	74
134	10
135	256
136	52
137	9
141	3
153	52
154	8
163	39
164	4
167	51
168	3
181	552
182	56
183	4
308	33
