Mass Spectrum: 4-Methyloxazolidine
Formula: C4H9NO
CAS: 155799-98-7
Molecular weight: 87
m/z	intensity
15	42
26	18
27	90
28	200
29	178
30	141
31	80
39	37
41	144
42	149
43	93
44	101
45	16
54	21
55	16
56	999
57	685
58	98
72	114
86	74
87	29
