Mass Spectrum: 1,3-Dioxane, 5-chloro-2-methyl-, trans-
Formula: C5H9ClO2
CAS: 15579-94-9
Molecular weight: 136
m/z	intensity
15	38
18	29
26	29
27	170
28	52
29	145
31	75
39	27
41	18
42	22
43	999
44	62
45	114
57	68
62	212
63	45
64	118
65	18
75	118
76	34
77	38
93	34
95	11
106	141
108	47
121	545
122	25
123	166
135	161
136	13
137	52
