Mass Spectrum: cis,cis-1,4-Dicyano-1,3-butadiene
Formula: C6H4N2
CAS: 1557-59-1
Molecular weight: 104
m/z	intensity
12	1
24	1
25	5
26	53
27	15
28	2
36	7
37	61
38	43
39	34
40	9
41	2
48	7
49	28
50	150
51	136
52	142
53	119
54	4
57	1
60	4
61	8
62	11
63	19
64	174
65	9
74	12
75	73
76	135
77	999
78	102
79	4
86	1
87	1
88	1
89	2
100	8
101	6
102	1
103	33
104	538
105	39
106	1
