Mass Spectrum: Cyclohexadecadiene-1,6-dione, 3,4-diethyl-, cis-
Formula: C20H36O2
CAS: 15583-49-0
Molecular weight: 308
m/z	intensity
26	7
27	93
28	1
29	263
30	5
31	4
39	68
40	28
41	861
42	176
43	614
44	17
45	14
53	75
54	66
55	999
56	174
57	163
58	104
59	23
65	13
66	7
67	264
68	65
69	389
70	107
71	174
72	22
73	7
77	20
78	6
79	104
80	24
81	269
82	110
83	570
84	102
85	108
86	12
87	13
91	27
92	13
93	98
94	38
95	289
96	66
97	242
98	267
99	77
100	21
101	23
105	19
106	6
107	69
108	34
109	201
110	35
111	174
112	123
113	38
114	12
115	3
119	14
120	4
121	62
122	39
123	110
124	66
125	373
126	55
127	19
128	6
131	5
133	21
134	17
135	189
136	41
137	34
138	13
139	58
140	105
141	37
142	6
147	13
148	9
149	39
150	13
151	22
152	21
153	179
154	21
155	5
156	2
161	6
163	12
164	6
165	62
166	11
167	36
168	12
169	14
170	3
175	64
176	13
177	10
179	6
181	9
182	6
183	13
184	7
189	3
190	7
191	10
192	7
193	23
194	3
195	22
196	6
197	4
205	5
207	5
208	8
209	64
210	11
211	860
212	106
213	11
221	10
223	10
224	7
225	6
226	33
227	6
233	6
237	5
240	7
247	6
250	11
251	69
252	13
253	6
261	20
262	9
263	4
265	48
266	17
272	6
279	171
280	36
281	4
290	51
291	13
293	29
294	5
307	4
308	269
309	67
310	7
