Mass Spectrum: Silane, dichloro(dichloromethyl)methyl-
Formula: C2H4Cl4Si
CAS: 1558-31-2
Molecular weight: 196
m/z	intensity
15	4
26	1
27	5
28	1
35	13
36	2
37	4
40	2
41	13
42	11
43	9
47	33
48	36
49	16
50	13
52	3
53	14
54	1
60	1
61	4
62	3
63	420
64	29
65	165
66	10
67	5
75	10
76	28
77	29
78	21
79	11
80	4
82	4
83	51
84	3
85	32
87	7
88	3
89	2
90	1
93	3
97	1
98	123
99	44
100	87
101	29
102	16
103	5
110	7
111	23
112	26
113	999
114	77
115	657
116	41
117	124
118	6
119	3
123	2
125	9
126	7
127	5
128	4
133	174
134	8
135	167
136	8
137	60
138	2
139	7
145	2
146	19
147	4
148	20
149	1
150	6
181	41
182	4
183	51
184	3
185	25
187	5
196	12
198	17
200	8
202	1
