Mass Spectrum: Butane, 2-isocyanato-
Formula: C5H9NO
CAS: 15585-98-5
Molecular weight: 99
m/z	intensity
26	26
27	110
28	91
29	86
39	41
40	24
41	130
42	173
43	12
44	62
55	24
56	149
57	313
58	9
69	48
70	999
71	43
84	103
85	7
99	48
