Mass Spectrum: N-Allyl-N-ethylformamide
Formula: C6H11NO
CAS: 155809-48-6
Molecular weight: 113
m/z	intensity
15	70
26	128
27	256
28	558
29	221
30	512
31	10
37	12
38	32
39	302
40	53
41	999
42	256
43	116
44	163
45	9
46	11
51	10
52	16
53	12
54	57
55	34
56	442
57	63
58	163
59	13
67	18
68	85
69	22
70	337
71	47
72	69
80	10
82	14
84	186
85	47
86	65
96	91
97	9
98	593
99	35
112	49
113	302
114	24
