Mass Spectrum: 1-(2,2-Dimethyl-1,3-dioxan-4,6-dion-5-yliden)-2-(1,3,3-trimethylindol-2-yliden)-ethan
Formula: C19H21NO4
CAS: 155953-30-3
Molecular weight: 327
m/z	intensity
12	8
13	6
14	19
15	179
16	19
17	40
18	159
26	20
27	112
28	76
29	102
30	13
31	42
32	6
37	7
38	21
39	158
40	19
41	169
42	114
43	999
44	102
45	25
47	6
50	21
51	74
52	27
53	56
54	35
55	140
56	74
57	156
58	37
59	47
60	23
61	14
62	12
63	58
64	23
65	47
66	19
67	38
68	19
69	89
70	35
71	82
72	9
73	20
74	19
75	35
76	47
77	140
78	31
79	21
80	8
81	41
82	29
83	68
85	51
86	13
87	15
88	14
89	50
90	45
91	69
92	11
93	11
94	6
95	25
96	20
97	44
98	21
99	30
100	9
101	29
102	36
103	31
104	11
105	11
106	6
107	8
108	6
109	15
110	19
111	23
112	17
113	31
114	17
115	121
116	48
117	29
118	10
119	6
121	7
122	4
123	11
124	8
125	18
126	23
127	59
128	73
129	33
130	36
131	13
132	6
133	4
134	3
135	6
136	4
137	11
138	11
139	75
140	74
141	29
142	25
143	38
144	47
145	30
146	7
147	4
149	7
150	8
151	27
152	88
153	31
154	47
155	21
156	22
157	39
158	174
159	181
160	29
161	6
162	2
163	4
164	9
165	18
166	90
167	393
168	97
169	31
170	23
171	46
172	44
173	9
175	2
177	5
178	24
179	20
180	215
181	193
182	397
183	66
184	41
185	10
186	85
187	11
188	7
189	2
191	6
192	5
193	6
194	37
195	41
196	460
197	126
198	37
199	5
200	2
201	2
207	2
208	21
209	26
210	275
211	54
212	10
213	169
214	27
215	2
216	2
217	2
222	4
223	6
224	334
225	100
226	79
227	13
228	3
229	2
236	4
237	4
238	2
239	2
240	13
241	193
242	35
243	4
250	2
251	4
252	3
253	4
254	22
255	10
256	3
257	1
267	2
268	17
269	194
270	97
271	16
272	2
282	4
283	1
284	1
286	1
312	13
313	2
327	420
328	99
329	13
330	1
