Mass Spectrum: 1-(1,4-Dihydro-1--methylquinolin-4-ylidene) )-2-(2,2-dimethyl-1,3-dioxan-4,6-dion-5-ylidene)ethane
Formula: C18H17NO4
CAS: 155953-34-7
Molecular weight: 311
m/z	intensity
12	15
13	6
14	28
15	291
16	42
17	74
18	185
25	9
26	32
27	120
28	88
29	72
31	33
32	12
36	7
37	13
38	24
39	122
40	15
41	65
42	100
43	999
44	146
45	18
50	32
51	60
52	18
53	26
54	20
55	22
56	9
57	23
58	69
59	35
60	10
61	7
62	37
63	115
64	20
65	27
66	10
69	21
70	11
71	11
73	8
74	34
75	58
76	52
77	88
78	14
83	38
84	15
85	13
86	22
87	43
88	35
89	99
90	74
99	37
100	11
101	37
102	22
103	12
104	11
110	7
111	13
112	16
113	71
114	25
115	69
116	34
117	8
120	13
125	19
126	56
127	78
128	37
129	12
130	11
137	45
138	95
139	324
140	187
141	32
142	24
143	32
144	11
150	28
151	61
152	157
153	61
154	32
155	7
156	7
157	28
164	82
165	172
166	684
167	131
168	85
169	25
170	6
172	139
173	16
177	9
178	34
179	43
180	712
181	756
182	140
183	16
184	12
185	58
186	10
193	7
194	21
195	11
196	35
197	14
208	947
209	154
210	62
211	11
222	7
223	7
225	443
226	74
227	9
236	5
252	19
253	111
254	134
255	23
266	6
270	5
296	22
297	4
311	560
312	112
313	15
