Mass Spectrum: 2,4,5,7-Tetrathiaoctane 2-oxide
Formula: C4H10OS4
CAS: 155994-66-4
Molecular weight: 202
m/z	intensity
27	17
29	9
30	1
31	2
32	5
33	3
34	3
35	45
36	1
37	3
44	12
45	346
46	171
47	105
48	32
49	25
50	2
51	1
57	3
58	10
59	20
60	8
61	999
62	49
63	120
64	79
65	16
66	6
73	1
74	2
75	2
76	15
77	26
78	70
79	27
80	9
81	3
88	1
89	2
90	1
91	14
92	38
93	700
94	54
95	71
96	5
97	2
106	2
107	5
108	6
109	6
110	56
111	219
112	13
113	21
114	1
115	1
116	3
123	3
124	2
126	3
138	22
139	707
140	45
141	94
142	5
143	5
144	6
145	5
153	1
154	1
156	10
158	1
186	16
187	1
188	3
202	17
203	2
204	3
