Mass Spectrum: Halethazole
Formula: C19H21ClN2OS
CAS: 15599-36-7
Molecular weight: 360
m/z	intensity
15	1
18	2
26	1
27	7
28	16
29	20
30	35
31	1
32	1
36	1
38	1
39	2
40	1
41	5
42	33
43	5
44	26
45	3
47	1
50	2
51	2
52	1
53	1
54	4
55	3
56	43
57	17
58	45
59	2
61	1
62	3
63	12
64	2
65	1
68	2
69	8
70	14
71	9
72	7
73	2
74	1
75	3
76	2
77	1
79	1
81	2
82	4
83	1
84	17
86	999
87	59
88	2
90	1
91	1
92	1
93	1
94	1
95	1
96	1
97	2
98	3
99	8
100	15
101	1
102	2
103	1
104	1
105	1
106	2
107	9
108	5
109	1
113	1
114	1
116	1
117	1
119	1
120	1
122	1
123	1
126	1
127	1
133	1
137	1
138	1
139	1
142	6
143	2
144	3
145	1
146	1
150	1
151	1
152	1
153	2
154	1
155	1
158	1
162	1
163	1
164	6
165	2
169	1
170	2
171	1
172	2
173	1
174	1
175	1
176	1
177	2
179	1
180	1
181	1
182	3
183	2
184	1
188	1
190	1
193	1
195	1
196	6
197	8
198	2
199	1
200	1
205	1
206	1
207	1
208	4
209	15
210	3
211	1
218	1
231	2
232	7
233	2
234	3
243	1
244	13
245	4
246	7
247	2
248	1
258	1
260	4
261	3
262	2
263	1
272	1
273	1
274	3
275	1
276	1
286	1
287	1
288	1
289	1
345	3
346	1
347	1
359	1
360	3
361	1
362	1
