Mass Spectrum: Ethanol, 2-[(2-ethylhexyl)oxy]-
Formula: C10H22O2
CAS: 1559-35-9
Molecular weight: 174
m/z	intensity
41	554
42	118
43	686
44	34
45	999
46	20
47	4
50	0
51	2
52	0
53	32
54	16
55	349
56	371
57	971
58	43
59	56
60	0
61	1
63	130
64	0
65	1
67	13
69	166
70	252
71	504
72	38
73	4
75	306
76	9
77	55
78	0
79	0
81	1
82	29
83	151
84	77
85	5
87	0
97	8
98	35
99	1
101	0
103	0
111	21
112	140
113	60
114	1
129	1
143	0
145	0
