Mass Spectrum: 2,4-Diaminopyrimidine
Formula: C4H6N4
CAS: 156-81-0
Molecular weight: 110
m/z	intensity
41	143
42	98
43	207
44	17
51	7
52	22
53	19
54	5
55	44
56	17
66	43
67	104
68	97
69	138
70	3
82	13
83	150
84	4
93	3
94	26
95	1
110	999
111	58
112	2
