Mass Spectrum: Benzeneacetic acid, 4-hydroxy-
Formula: C8H8O3
CAS: 156-38-7
Molecular weight: 152
m/z	intensity
17	1
18	3
26	6
27	24
28	7
29	7
31	1
37	4
38	8
39	34
40	3
41	4
42	2
43	6
44	4
45	12
49	3
50	21
51	48
52	24
53	29
54	2
55	14
61	3
62	6
63	13
64	3
65	5
66	2
67	2
68	1
74	4
75	2
76	2
77	134
78	37
79	22
80	2
81	7
86	1
89	3
90	2
91	1
95	2
105	8
106	9
107	999
108	81
109	10
110	1
121	1
123	2
134	2
152	286
153	25
154	2
