Mass Spectrum: Hypoglycin
Formula: C7H11NO2
CAS: 156-56-9
Molecular weight: 141
m/z	intensity
41	161
42	76
43	68
44	70
45	40
46	163
47	6
48	0
49	4
50	22
51	40
52	24
53	65
54	40
55	27
56	80
57	66
58	3
59	1
60	0
61	2
62	5
63	9
64	2
65	37
66	13
67	70
68	59
69	126
70	19
71	7
72	9
74	999
75	102
76	1
77	63
78	12
79	75
80	45
81	35
82	23
83	4
84	7
85	2
86	58
87	21
88	3
89	3
91	2
92	2
93	6
94	125
95	33
96	462
97	35
98	4
100	27
101	1
102	0
104	0
105	1
106	2
107	0
108	2
109	0
110	0
111	1
112	2
113	2
114	8
115	0
116	0
118	1
119	0
122	1
123	4
124	4
125	0
126	7
127	0
139	6
140	0
141	14
142	1
143	0
