Mass Spectrum: 1-(3,5-Dihydroxyphenyl)heptan-2-one
Formula: C13H18O3
CAS: 15601-09-9
Molecular weight: 222
m/z	intensity
26	2
27	33
28	9
29	58
30	2
38	5
39	65
40	18
41	174
42	42
43	999
44	33
47	5
50	10
51	38
52	15
53	43
54	10
55	178
56	14
57	11
63	11
64	5
65	63
66	45
67	76
68	7
69	105
70	10
71	799
72	43
73	4
74	3
75	4
76	5
77	64
78	11
79	13
81	22
83	5
85	3
89	2
91	7
93	7
94	32
95	26
97	6
99	982
100	61
101	5
103	3
105	9
106	7
107	9
110	4
111	3
121	8
122	4
123	413
124	214
125	20
137	6
147	2
149	2
150	5
151	6
166	12
193	2
222	192
223	30
224	3
