Mass Spectrum: 5(4H)-Oxazolone, 4-(2-furanylmethylene)-2-phenyl-
Formula: C14H9NO3
CAS: 15601-47-5
Molecular weight: 239
m/z	intensity
34	5
35	4
37	23
38	42
39	74
40	45
41	9
42	6
43	8
44	24
50	205
51	328
52	43
53	9
54	3
55	6
56	3
57	4
61	14
62	23
63	39
64	15
66	3
67	3
69	2
70	2
71	2
72	2
74	38
75	42
77	647
78	46
79	5
81	4
86	2
87	2
88	2
89	2
91	2
92	5
100	2
105	999
106	84
120	7
127	2
236	3
239	110
240	12
