Mass Spectrum: 2-Methyltriacontane
Formula: C31H64
CAS: 1560-72-1
Molecular weight: 436
m/z	intensity
27	5
29	20
39	10
41	125
42	58
43	463
44	18
53	8
54	18
55	198
56	180
57	999
58	44
67	25
68	33
69	196
71	814
72	38
82	49
83	163
84	71
85	580
86	42
98	48
99	261
100	22
111	78
112	43
113	199
114	16
124	16
125	55
126	34
127	140
128	14
138	9
139	24
140	31
141	102
142	9
152	6
153	13
154	27
155	78
156	7
167	7
168	22
169	62
170	7
182	18
183	50
184	7
195	5
196	14
197	50
198	8
210	15
211	41
212	6
224	11
225	36
226	9
238	11
239	31
240	6
252	9
253	25
266	8
267	25
268	4
281	20
294	6
295	19
296	4
308	7
309	16
310	3
323	13
324	3
336	3
337	14
350	5
351	12
352	3
365	8
378	11
379	14
380	5
393	116
394	36
395	6
421	32
422	12
434	1
436	6
437	2
