Mass Spectrum: Heptadecane, 2-methyl-
Formula: C18H38
CAS: 1560-89-0
Molecular weight: 254
m/z	intensity
26	1
27	34
29	26
30	1
33	1
34	0
37	0
38	0
39	28
40	6
41	263
42	107
43	745
44	24
45	0
51	1
52	1
53	10
54	13
55	177
56	200
57	999
58	41
59	1
65	1
66	1
67	14
68	19
69	116
70	74
71	648
72	30
73	1
77	1
78	0
79	2
80	0
81	4
82	13
83	61
84	36
85	464
86	28
87	0
95	0
96	4
97	44
98	21
99	234
100	16
101	0
105	0
107	0
110	4
111	33
112	18
113	159
114	13
115	0
122	0
123	0
124	2
125	11
126	9
127	131
128	12
129	0
138	1
139	5
140	7
141	101
142	11
143	0
151	0
152	1
153	2
154	15
155	74
156	9
166	2
167	4
168	6
169	44
170	5
171	0
180	0
181	1
182	15
183	21
184	2
195	10
196	4
197	11
198	1
210	60
211	165
212	25
213	2
222	0
223	1
224	0
225	0
238	3
239	32
240	6
241	0
252	0
253	0
254	10
255	1
