Mass Spectrum: Disulfide, dihexadecyl
Formula: C32H66S2
CAS: 1561-75-7
Molecular weight: 514
m/z	intensity
41	338
43	999
44	37
45	12
47	34
49	21
51	9
53	20
55	494
57	733
58	29
59	12
60	20
61	30
62	2
63	2
64	2
65	3
67	64
69	301
71	487
72	27
73	8
74	5
75	4
77	2
79	24
81	66
83	134
85	234
87	225
88	15
89	16
90	0
91	2
93	7
95	37
97	84
99	69
101	77
102	5
103	5
105	2
107	3
109	16
111	17
113	26
115	33
116	1
117	3
119	0
121	2
123	5
124	2
125	5
127	12
129	14
130	1
131	1
135	1
137	0
138	1
139	1
141	6
143	11
144	1
145	1
149	0
151	0
153	0
155	3
157	8
158	0
159	1
167	0
169	2
171	10
172	0
173	1
183	0
185	8
186	0
187	2
196	0
199	7
201	2
213	7
214	0
215	2
219	1
224	2
227	4
233	0
241	1
255	29
257	85
258	14
259	5
260	0
271	0
287	1
289	0
290	35
291	5
292	3
294	0
303	0
414	0
428	1
443	0
457	1
458	1
471	0
481	1
482	1
485	0
499	1
512	1
514	534
515	182
516	92
517	24
518	6
