Mass Spectrum: 2-Methylheptacosane
Formula: C28H58
CAS: 1561-00-8
Molecular weight: 394
m/z	intensity
27	7
29	24
39	14
40	3
41	153
42	62
43	520
44	16
53	8
54	17
55	230
56	169
57	999
58	47
65	2
66	2
67	37
68	37
69	229
70	107
71	846
72	47
77	2
79	4
81	21
82	44
83	171
84	73
85	575
86	39
87	2
95	11
96	26
97	156
98	52
99	264
100	20
109	6
110	17
111	103
112	46
113	189
114	16
123	5
124	11
125	55
126	32
127	145
128	15
137	3
138	8
139	25
140	26
141	106
142	12
152	6
153	14
154	20
155	85
156	10
166	5
167	9
168	18
169	67
170	8
180	5
181	8
182	17
183	56
184	8
194	3
195	5
196	14
197	49
198	7
209	4
210	11
211	44
212	6
222	3
223	3
224	11
225	38
226	7
236	2
237	2
238	10
239	32
240	6
250	2
252	9
253	29
254	6
264	1
266	7
267	25
268	4
278	2
280	6
281	23
282	4
292	1
293	1
294	6
295	18
296	4
307	1
308	5
309	14
310	3
313	1
322	5
323	12
324	2
336	4
337	9
338	2
350	51
351	178
352	43
353	6
378	3
379	41
380	13
381	2
394	10
395	3
