Mass Spectrum: anti-1,2-Di-(2-carbmethoxyethenyl)-3,6-dicarbmethoxytricyclo[3.1.0.0(2,4)]hexane
Formula: C18H20O8
CAS: 156298-35-0
Molecular weight: 364
m/z	intensity
30	13
31	18
32	29
39	60
41	191
42	49
43	274
44	47
45	38
50	17
51	65
52	5
53	19
54	1
55	248
56	92
57	401
59	999
60	13
63	49
64	20
65	15
67	17
68	11
69	151
70	163
71	260
72	2
74	6
75	53
76	17
77	72
78	13
79	18
81	18
82	15
83	109
84	84
85	29
87	2
89	15
91	27
92	3
95	9
97	44
98	30
99	3
101	29
102	39
103	17
105	13
107	8
111	29
112	113
113	58
114	12
115	209
116	35
117	6
119	1
123	6
125	20
126	39
127	241
128	378
129	133
130	9
131	6
141	122
142	195
143	122
144	23
145	15
149	15
152	27
153	9
154	7
155	226
156	35
157	44
158	9
159	9
169	89
170	27
171	320
172	25
173	21
183	27
185	37
186	72
187	35
189	5
197	10
199	18
201	51
213	205
214	29
215	13
219	5
229	76
230	5
241	99
242	8
244	27
245	101
246	6
261	4
272	5
273	99
274	5
283	6
305	5
