Mass Spectrum: 1-[1,2,4]Triazol-1-ylethanone
Formula: C4H5N3O
CAS: 15625-88-4
Molecular weight: 111
m/z	intensity
25	2
26	4
27	17
28	124
29	17
38	6
39	9
40	30
41	33
42	320
43	999
44	23
45	16
51	1
52	1
53	4
54	1
55	6
56	8
57	3
60	16
65	1
66	1
67	1
68	1
69	170
70	235
71	8
76	1
77	1
81	1
82	10
83	219
84	7
85	1
94	1
96	2
111	200
112	13
