Mass Spectrum: Acetamide, N,N-dicyclohexyl-
Formula: C14H25NO
CAS: 1563-91-3
Molecular weight: 223
m/z	intensity
15	288
16	197
17	217
19	5
20	3
25	9
26	67
27	356
28	699
29	298
30	171
31	11
37	12
38	28
39	317
40	42
41	997
42	222
43	999
44	441
45	14
50	21
51	41
52	28
53	150
54	231
55	810
56	893
57	133
58	32
59	8
60	773
61	19
62	2
63	7
64	5
65	30
66	28
67	213
68	94
69	116
70	111
71	47
72	43
73	24
74	4
75	14
77	49
78	33
79	78
80	56
81	183
82	229
83	212
84	236
85	78
86	86
87	11
91	24
92	5
93	18
94	53
95	23
96	67
97	55
98	735
99	196
100	101
101	99
105	14
106	7
107	5
108	15
109	11
110	42
111	11
112	80
113	18
119	4
120	5
121	6
122	13
123	7
124	47
125	23
126	127
127	14
133	4
134	6
136	17
137	8
138	654
139	88
140	919
141	233
142	603
143	52
152	25
153	5
166	560
167	77
168	9
178	19
179	4
180	177
181	60
182	6
194	28
207	4
208	21
222	14
223	469
224	72
