Mass Spectrum: 4-(4-Nitrophenyliminomethyl)phenyl benzoate
Formula: C20H14N2O4
CAS: 156384-02-0
Molecular weight: 346
m/z	intensity
37	2
38	8
39	28
40	14
41	4
42	1
43	3
44	6
50	37
51	89
52	7
53	3
55	2
57	2
61	1
62	4
63	18
64	12
65	59
66	4
69	1
71	1
73	1
74	6
75	12
76	39
77	330
78	24
79	3
80	2
88	1
89	3
90	3
91	3
92	7
93	11
94	1
102	1
103	5
105	999
106	93
107	6
108	4
113	1
114	2
115	3
119	1
122	2
127	1
128	1
131	0
132	0
133	0
135	0
137	0
138	9
139	10
140	5
141	2
142	0
143	0
149	2
150	0
151	0
152	0
153	0
154	1
155	0
156	0
157	0
164	0
165	1
166	8
167	10
168	1
169	0
170	0
171	0
177	0
178	0
179	0
181	0
182	0
183	0
189	0
193	0
194	0
195	3
196	1
197	0
208	0
210	0
211	0
212	0
213	0
223	0
224	0
225	0
226	0
227	0
241	1
242	1
243	0
251	0
255	0
316	0
317	0
330	0
346	12
347	2
348	0
