Mass Spectrum: 1-[3-(3-Nitrophenyl)-1-oxa-2,4-diazaspiro[4.6]undec-2-en-4-yl]-3-phenylurea
Formula: C21H23N5O4
CAS: 156360-49-5
Molecular weight: 409
m/z	intensity
20	0
25	1
26	9
27	101
28	101
29	166
30	53
31	30
32	167
33	4
36	1
37	12
38	37
39	233
40	75
41	587
42	110
43	237
44	32
45	51
46	8
48	1
49	1
50	53
51	105
52	36
53	129
54	174
55	999
56	151
57	133
58	49
59	20
60	5
61	11
62	19
63	67
64	66
65	322
66	109
67	306
68	140
69	190
70	36
71	24
72	29
73	13
74	90
75	50
76	116
77	560
78	60
79	49
80	42
81	117
82	33
83	104
84	34
85	110
86	21
87	10
88	33
89	17
90	68
91	186
92	478
93	513
94	78
95	332
96	40
97	43
98	39
99	17
100	24
101	5
102	86
103	178
104	42
105	19
106	16
107	15
108	17
109	11
110	36
111	75
112	26
113	641
114	68
115	16
116	11
117	19
118	52
119	179
120	375
121	58
122	22
123	3
124	9
125	27
126	22
127	16
128	6
129	9
130	5
131	7
132	22
133	30
134	10
135	63
136	56
137	15
138	6
139	2
140	3
141	5
142	113
143	16
144	6
145	4
146	5
147	6
148	23
149	274
150	30
151	19
152	13
153	28
154	4
155	2
156	2
157	6
158	5
159	5
160	7
161	3
162	13
163	14
164	13
165	8
166	3
167	3
168	6
169	8
170	2
171	3
172	2
173	2
174	5
175	16
176	13
177	9
178	197
179	29
180	8
181	8
182	2
184	2
185	2
186	4
187	5
188	10
189	4
190	6
191	8
192	11
193	19
194	16
195	5
196	1
197	2
198	3
199	2
200	1
201	2
202	4
203	6
204	9
205	21
206	6
207	8
208	4
209	5
210	4
211	1
212	3
213	3
214	2
215	5
216	8
217	2
218	18
219	10
220	39
221	9
222	2
223	5
224	0
225	8
226	1
227	4
228	1
229	5
230	1
231	2
232	10
233	94
234	17
235	3
236	3
237	2
238	2
239	20
240	23
241	5
243	10
244	20
245	9
246	4
247	12
248	2
249	3
250	10
251	7
252	8
253	1
254	0
255	1
256	2
257	9
258	5
259	20
260	4
261	29
262	4
263	1
264	1
266	7
267	3
268	2
270	0
271	1
272	0
273	6
274	2
275	4
276	2
277	0
278	1
279	1
280	6
281	5
282	6
283	3
284	0
285	0
287	1
288	1
289	7
290	18
291	4
292	0
294	1
295	4
296	4
297	69
298	89
299	15
300	2
301	1
302	1
305	1
306	0
308	0
310	1
311	1
312	1
313	1
316	2
317	113
318	19
319	3
320	0
322	1
326	0
328	0
329	0
330	0
331	1
332	0
333	0
334	0
336	5
337	0
339	7
340	2
350	1
352	441
353	91
354	14
355	3
363	1
364	0
365	1
366	86
367	21
368	2
370	0
372	1
373	0
377	1
379	2
380	5
381	1
382	1
385	8
386	2
387	1
388	1
391	3
392	2
393	2
394	2
407	0
408	0
409	395
410	94
411	16
412	2
413	0
