Mass Spectrum: Tetrahydrofuro[2,3-d]dioxolane, 5-(.alpha.-allyloxyacetamide)-6-carbamoyloxy-2-ethyl-
Formula: C13H20N2O7
CAS: 156325-51-8
Molecular weight: 316
m/z	intensity
37	5
38	10
39	206
40	26
41	788
42	90
43	548
44	343
45	54
46	9
47	5
49	1
50	1
51	3
52	3
53	16
54	16
55	210
56	31
57	117
58	52
59	594
60	66
61	36
62	20
63	1
64	2
65	4
66	5
67	69
68	32
69	91
70	30
71	375
72	62
73	333
74	554
75	28
76	4
77	4
78	2
79	21
80	6
81	31
82	19
83	203
84	89
85	709
86	177
87	85
88	308
89	25
90	3
91	2
92	1
93	2
94	3
95	54
96	44
97	84
98	32
99	70
100	999
101	177
102	28
103	6
104	4
105	2
106	1
107	12
108	18
109	10
110	7
111	45
112	74
113	361
114	87
115	406
116	37
117	8
118	2
119	3
121	2
122	3
123	33
124	23
125	102
126	20
127	26
128	76
129	281
130	42
131	29
132	3
133	1
134	2
135	10
136	5
137	8
138	4
139	18
140	335
141	200
142	37
143	13
144	296
145	33
146	11
147	2
148	1
149	1
150	1
151	11
152	12
153	99
154	38
155	15
156	61
157	66
158	25
159	205
160	22
161	3
162	1
163	4
164	3
165	6
166	2
167	2
168	15
169	87
170	26
171	87
172	14
173	26
174	12
175	2
176	1
177	1
178	1
179	3
180	12
181	10
182	634
183	74
184	15
185	5
186	20
187	5
188	3
189	1
192	1
193	4
194	1
195	1
196	4
197	19
198	22
199	21
200	10
201	5
202	168
203	20
204	3
205	0
206	0
208	7
209	2
210	2
211	80
212	19
213	4
214	51
215	23
216	15
217	14
218	2
220	0
221	0
222	0
223	0
224	1
225	1
226	183
227	24
228	4
229	57
230	8
231	2
237	2
238	1
239	0
240	21
241	25
242	4
243	1
245	1
254	1
255	2
256	5
257	2
258	73
259	15
260	6
261	0
267	0
272	138
273	23
274	10
275	1
276	0
281	0
298	0
301	41
302	7
303	1
316	1
317	1
