Mass Spectrum: 1-[3-(4-Nitrophenyl)-1-oxa-2,4-diazaspiro[4.6]undec-2-en-4-yl]-3-phenylurea
Formula: C21H23N5O4
CAS: 156360-50-8
Molecular weight: 409
m/z	intensity
24	0
25	0
26	5
27	59
28	76
29	121
30	52
31	23
32	190
33	4
36	1
37	5
38	16
39	143
40	47
41	440
42	91
43	185
44	25
45	34
46	5
47	0
49	2
50	25
51	63
52	23
53	85
54	150
55	999
56	124
57	117
58	37
59	23
60	2
61	6
62	12
63	34
64	44
65	215
66	97
67	231
68	122
69	158
70	26
71	22
72	26
73	9
74	94
75	31
76	64
77	439
78	45
79	35
80	35
81	94
82	36
83	83
84	38
85	102
86	18
87	7
88	22
89	9
90	40
91	88
92	328
93	541
94	82
95	295
96	39
97	26
98	36
99	26
100	28
101	4
102	60
103	133
104	29
105	17
106	18
107	8
108	16
109	7
110	36
111	81
112	22
113	697
114	66
115	11
116	7
117	8
118	35
119	166
120	337
121	50
122	20
123	2
124	5
125	30
126	23
127	15
128	4
129	4
130	5
131	8
132	26
133	22
134	16
135	68
136	64
137	11
138	4
139	3
140	2
141	6
142	151
143	14
144	5
145	4
146	5
147	6
148	19
149	268
150	38
151	18
152	9
153	18
154	3
155	2
156	2
157	1
158	3
159	3
160	6
161	3
162	8
163	11
164	10
165	4
166	3
167	3
168	3
169	7
170	2
171	1
172	1
173	1
174	4
175	19
176	12
177	15
178	260
179	26
180	7
181	1
182	1
183	1
184	1
185	0
186	2
187	9
188	13
189	4
190	7
191	9
192	2
193	3
194	4
195	1
196	1
197	2
198	1
199	1
200	1
201	2
202	4
203	5
204	8
205	28
206	5
207	6
208	6
209	3
210	1
211	0
212	3
213	1
214	1
215	5
216	7
217	4
218	20
219	9
220	51
221	7
222	1
223	2
224	2
225	2
226	0
227	1
228	1
229	2
230	2
231	2
232	11
233	100
234	15
235	3
236	1
237	0
238	1
239	5
240	10
241	4
242	1
243	6
244	25
245	12
246	4
247	10
248	3
249	0
250	3
251	5
252	5
253	1
254	1
255	1
256	1
257	1
258	5
259	24
260	6
261	37
262	5
263	1
264	0
265	1
266	3
267	9
268	1
269	0
270	1
271	0
272	1
273	6
274	3
275	7
276	1
279	0
280	13
281	51
282	11
283	3
284	1
285	2
286	2
287	4
288	2
289	9
290	16
291	3
294	0
295	2
296	10
297	124
298	101
299	19
300	3
301	1
302	0
306	4
307	1
309	0
310	2
311	0
316	2
317	143
318	24
319	3
320	1
326	1
327	0
329	0
330	0
336	3
337	0
339	10
340	2
341	1
342	0
343	0
350	0
351	0
352	544
353	114
354	14
355	1
363	0
364	0
365	0
366	102
367	23
368	2
369	1
377	0
378	0
379	1
380	5
381	1
392	3
393	1
394	2
395	0
398	1
399	0
408	1
409	499
410	123
411	20
412	2
417	0
