Mass Spectrum: 5-Nitrothiophene-2-carboxaldehyde picolinoylhydrazone
Formula: C11H8N4O3S
CAS: 156305-89-4
Molecular weight: 276
m/z	intensity
41	7
42	7
43	6
45	124
47	7
51	251
52	214
53	17
55	1
57	11
58	2
62	4
63	5
64	11
67	6
69	41
70	14
71	5
76	7
78	580
79	999
80	44
82	16
83	3
84	3
93	9
95	88
96	6
97	10
105	73
106	108
107	8
108	1
109	3
121	1
122	308
123	17
124	4
141	6
153	4
276	43
277	15
278	3
