Mass Spectrum: 2-(4-Chlorophenyl-3-morpholino-thioacrylic acid-N-ethoxycarbonylpiperazide
Formula: C20H26ClN3O3S
CAS: 156483-17-9
Molecular weight: 423
m/z	intensity
12	2
14	4
15	57
16	7
17	19
18	74
19	7
26	23
27	195
28	340
29	999
30	104
31	20
32	5
33	2
34	3
35	4
36	9
38	5
39	19
40	7
41	122
42	308
43	111
44	120
45	164
46	7
47	12
50	5
51	12
52	6
53	11
54	102
55	92
56	312
57	85
58	46
59	30
60	16
61	23
62	7
63	14
64	4
65	12
66	8
67	18
68	57
69	84
70	378
71	49
72	47
73	20
74	16
75	28
76	11
77	20
78	9
79	6
80	12
81	14
82	15
83	49
84	33
85	40
86	69
87	26
88	145
89	50
90	12
91	7
92	15
93	12
94	10
95	9
96	12
97	12
98	29
99	19
100	87
101	64
102	79
103	23
104	7
105	3
106	4
107	4
108	6
109	5
110	5
111	21
112	15
113	17
114	225
115	97
116	216
117	19
118	5
119	4
120	5
121	11
122	8
123	21
124	11
125	52
126	20
127	63
128	86
129	54
130	49
131	10
132	12
133	16
134	19
135	5
136	41
137	50
138	31
139	26
140	29
141	33
142	311
143	45
144	11
145	21
146	19
147	34
148	13
149	91
150	22
151	43
152	13
153	12
154	23
155	53
156	24
157	29
158	12
159	12
160	16
161	6
162	17
163	11
164	24
165	14
166	12
167	26
168	45
169	66
170	15
171	11
172	20
173	30
174	24
176	40
177	31
178	14
179	21
180	10
181	46
182	57
183	25
184	28
185	9
186	15
187	16
188	9
189	9
190	24
191	10
192	15
193	9
194	12
195	13
196	12
197	9
198	9
199	13
200	12
201	17
202	13
203	20
204	25
205	19
206	13
207	15
208	14
209	13
210	11
211	5
212	6
213	10
214	5
215	5
216	5
217	4
218	4
219	7
220	12
221	12
222	39
223	12
224	15
225	5
226	3
227	3
228	4
229	12
230	8
231	25
232	42
233	30
234	46
235	39
236	24
237	15
238	7
239	2
240	5
241	2
242	1
243	1
244	1
245	2
246	5
247	7
248	54
249	16
250	26
251	12
252	5
253	3
254	1
255	2
256	21
257	5
258	3
259	4
260	3
261	5
262	3
263	14
264	7
265	9
266	34
267	7
268	11
269	2
270	1
273	5
274	3
275	37
276	9
277	13
278	3
279	1
280	0
281	0
283	0
287	1
288	0
289	1
291	78
292	16
293	33
294	7
295	4
296	0
297	0
301	2
302	14
303	16
304	7
305	8
307	15
308	5
309	9
310	2
311	2
312	0
316	44
317	14
318	19
319	7
320	2
321	1
322	0
336	23
337	175
338	48
339	71
340	16
341	4
342	0
344	1
346	0
347	0
350	1
351	0
352	1
355	0
361	12
362	6
363	5
364	2
365	0
378	8
379	1
380	2
381	0
388	0
390	250
391	61
392	93
393	20
394	3
395	0
396	0
407	2
408	0
409	0
421	0
423	140
424	35
425	56
426	13
427	4
428	0
