Mass Spectrum: Thioacetamide, (4-chlorophenyl)-N-(2-dimethylaminoethyl)-N-methyl-
Formula: C13H19ClN2S
CAS: 156483-23-7
Molecular weight: 270
m/z	intensity
15	37
16	1
17	2
18	20
26	2
27	13
28	27
29	21
30	67
31	1
32	2
35	0
36	1
37	0
38	2
39	11
40	2
41	10
42	113
43	52
44	53
45	12
46	1
47	2
49	1
50	5
51	7
52	1
53	1
54	5
55	7
56	66
58	999
59	41
60	2
61	2
62	4
63	16
64	3
65	3
66	1
67	1
68	2
69	4
70	22
71	505
72	44
73	9
74	12
75	9
76	2
77	4
78	1
79	1
81	1
82	2
83	2
84	1
85	2
86	2
87	3
88	3
89	41
90	13
91	3
93	1
95	1
96	1
97	2
98	1
99	11
100	3
101	6
102	3
103	2
104	1
108	1
110	1
111	2
112	5
113	1
114	2
115	2
116	2
117	2
121	2
122	1
123	3
125	68
126	6
127	22
128	2
130	1
131	1
132	1
133	12
134	30
135	4
136	3
137	1
138	1
143	1
144	1
145	1
147	1
150	2
151	1
152	1
155	1
157	1
162	0
163	0
165	1
166	1
168	4
169	3
170	1
171	1
176	1
177	0
180	0
200	0
223	1
224	1
225	2
226	2
227	1
228	1
270	7
271	1
272	2
273	0
