Mass Spectrum: 2-(4-Chlorophenyl)-3-morpholino-N-(2-dimethylethyl)-N-methyl-thioacrylamide
Formula: C18H26ClN3OS
CAS: 156483-18-0
Molecular weight: 367
m/z	intensity
12	1
13	1
15	68
16	1
18	20
19	2
26	7
27	39
28	100
29	64
30	133
31	7
32	3
33	0
34	0
35	1
36	2
37	0
38	2
39	8
40	4
41	34
42	217
43	74
44	53
45	53
46	3
47	4
49	0
50	3
51	6
52	2
53	2
54	20
55	17
56	75
58	999
59	45
60	4
61	7
62	2
63	6
64	1
65	3
66	2
67	5
68	5
69	14
70	29
71	138
72	73
73	8
74	8
75	11
76	3
77	6
78	2
79	1
80	2
81	1
82	4
83	4
84	6
85	7
86	11
87	5
88	5
89	17
90	3
91	2
92	7
93	3
94	2
95	2
96	2
97	3
98	9
99	7
100	19
101	22
102	23
103	7
104	1
105	0
106	1
107	0
108	1
109	0
110	1
111	3
112	3
113	5
114	8
115	25
116	11
117	3
118	1
119	1
120	1
121	1
122	2
123	10
124	3
125	23
126	5
127	15
128	17
129	7
130	9
131	3
132	7
133	5
134	7
135	2
136	14
137	14
138	10
139	8
140	5
141	9
142	8
143	9
144	3
145	8
146	6
147	6
148	3
149	21
150	6
151	11
152	4
153	3
154	6
155	14
156	6
157	7
158	3
159	3
160	4
161	2
162	4
163	4
164	8
165	9
166	5
167	9
168	16
169	44
170	8
171	3
172	4
173	5
174	3
175	3
176	7
177	9
178	8
179	6
180	3
181	9
182	3
183	4
184	2
185	1
186	2
187	2
188	2
189	2
190	5
191	5
192	5
193	3
194	2
195	2
196	2
197	1
198	1
199	1
200	2
201	2
202	2
203	6
204	18
205	6
206	9
207	3
208	3
209	1
210	3
211	9
212	2
213	3
214	0
217	0
218	0
219	1
220	1
221	2
222	3
223	4
224	2
225	1
226	0
228	1
229	1
230	0
231	0
232	7
233	6
234	4
235	3
236	5
237	1
238	2
239	0
247	0
248	0
249	0
250	0
253	0
254	0
261	1
263	107
264	19
265	37
266	16
267	2
268	4
269	0
270	0
276	0
277	0
280	0
281	0
289	0
291	0
296	21
297	7
298	8
299	2
300	0
309	0
319	0
321	0
322	0
323	1
324	0
325	0
334	1
335	0
336	0
367	5
368	1
369	2
370	0
