Mass Spectrum: Acrylothiamide, 2-(4-chlorophenyl)-3-morpholino-N-benzyl-
Formula: C20H21ClN2OS
CAS: 156483-14-6
Molecular weight: 372
m/z	intensity
12	6
15	24
16	8
17	41
18	86
19	5
26	11
27	51
28	192
29	92
30	32
31	23
32	10
36	8
37	5
38	10
39	57
40	13
41	97
42	75
43	66
44	59
45	146
46	6
47	11
50	15
51	58
52	25
53	11
54	53
55	52
56	68
57	71
58	15
59	14
60	24
61	10
62	12
63	37
64	14
65	183
66	16
67	10
68	13
69	37
70	29
71	23
72	24
73	17
74	14
75	45
76	20
77	56
78	23
79	27
80	9
81	8
82	7
83	13
84	28
85	33
86	93
87	33
88	22
89	87
90	26
91	999
92	86
93	13
94	8
95	7
96	6
97	10
98	25
99	19
100	55
101	65
102	61
103	28
104	30
105	10
106	68
107	14
108	8
109	8
110	5
111	19
112	14
113	17
114	19
115	78
116	46
117	29
118	13
119	5
120	11
121	20
122	10
123	51
124	14
125	63
126	20
127	43
128	64
129	29
130	46
131	13
132	22
133	24
134	35
135	10
136	59
137	66
138	39
139	33
140	23
141	21
142	19
143	28
144	11
145	14
146	14
147	43
148	28
149	75
150	29
151	39
152	19
153	13
154	16
155	73
156	27
157	20
158	13
159	14
160	15
161	13
162	21
163	19
164	35
165	17
166	19
167	20
168	44
169	50
170	16
171	16
172	11
173	20
174	32
175	14
176	17
177	42
178	22
179	23
180	10
181	37
182	364
183	58
184	142
185	20
186	19
187	14
188	9
189	17
190	18
191	23
192	23
193	13
194	15
195	10
196	25
197	6
198	10
199	11
200	6
201	10
202	7
203	14
204	19
205	14
206	10
207	10
208	16
209	8
210	11
211	7
212	6
213	6
214	3
215	3
216	6
217	29
218	22
219	21
220	14
221	11
222	13
223	12
224	7
225	5
226	2
227	6
228	4
229	4
230	3
231	3
232	25
233	8
234	36
235	12
236	13
237	4
238	4
239	2
240	4
241	2
242	2
243	2
244	1
245	3
246	3
247	21
248	59
249	24
250	50
251	13
252	13
253	221
254	63
255	77
256	20
257	4
258	1
259	1
261	3
262	1
263	1
264	3
265	1
266	5
267	2
268	3
269	1
270	1
271	1
272	1
275	1
277	1
279	2
281	20
282	4
283	8
284	7
285	27
286	80
287	133
288	46
289	43
290	9
291	3
297	3
298	1
299	2
302	1
303	1
304	1
305	1
309	1
311	0
313	1
314	0
315	1
329	1
337	1
339	349
340	78
341	126
342	26
343	3
356	1
372	143
373	34
374	56
375	11
376	3
