Mass Spectrum: 1,5-Bis(trifluoromethyl)pentasulfide
Formula: C2F6S5
CAS: 156412-87-2
Molecular weight: 298
m/z	intensity
47	6
50	20
51	11
64	999
66	114
67	2
69	665
70	6
82	50
83	27
96	66
98	6
100	4
101	40
133	109
135	4
165	144
167	17
197	56
199	4
298	39
300	9
