Mass Spectrum: Piperazine, N-(2-furoyl)-N'-[2-(4-chlorophenyl)-3-morpholinopropenothioyl]-
Formula: C22H24ClN3O3S
CAS: 156483-16-8
Molecular weight: 445
m/z	intensity
12	1
14	3
15	33
16	4
17	19
18	49
19	4
26	9
27	52
28	180
29	78
30	34
31	8
32	4
34	2
35	2
36	6
37	6
38	29
39	189
40	17
41	79
42	127
43	48
44	38
45	98
46	5
47	9
50	4
51	20
52	6
53	16
54	64
55	49
56	93
57	33
58	11
59	11
60	9
61	11
62	2
63	7
64	2
65	8
66	11
67	51
68	22
69	34
70	29
71	11
72	15
73	8
74	5
75	14
76	4
77	10
78	4
79	5
80	9
81	24
82	9
83	17
84	19
85	17
86	31
87	12
88	15
89	22
90	3
91	4
92	9
93	9
95	999
96	65
97	12
98	13
99	10
100	41
101	36
102	35
103	12
104	2
105	2
106	3
107	8
108	7
109	5
110	7
111	17
112	14
113	12
114	14
115	56
116	22
117	7
118	2
119	3
120	6
121	6
122	8
123	21
124	11
125	39
126	15
127	37
128	42
129	19
130	27
131	7
132	8
133	11
134	15
135	7
136	42
137	49
138	584
139	73
140	23
141	20
142	15
143	14
144	7
145	18
146	15
147	26
148	13
149	74
150	26
151	35
152	43
153	14
154	16
155	32
156	18
157	15
158	8
159	8
160	11
161	6
162	20
164	341
165	43
166	16
167	23
168	42
169	51
170	13
171	8
172	16
173	21
174	19
175	10
176	13
177	43
178	17
179	23
180	12
181	44
182	44
183	19
184	20
185	7
186	13
187	16
188	9
189	7
190	21
191	10
192	15
193	8
194	10
195	10
196	11
197	5
198	6
199	8
200	9
201	11
202	9
203	22
204	23
205	18
206	13
207	11
208	13
209	9
210	7
211	4
212	4
213	10
214	5
215	5
216	6
217	6
218	4
219	7
220	12
221	9
222	66
223	22
224	27
225	7
226	3
227	1
228	3
229	5
230	9
231	32
232	31
233	28
234	33
235	23
236	17
237	7
238	4
239	2
240	5
241	1
242	1
243	1
244	1
245	1
246	4
247	15
248	64
249	22
250	28
251	11
252	5
253	2
254	1
255	0
256	1
257	1
258	1
259	2
260	3
261	5
262	4
263	10
264	5
265	6
266	19
267	5
268	8
269	1
270	0
271	0
272	0
273	2
274	2
275	14
276	3
277	5
278	1
279	1
280	0
281	1
282	0
283	0
284	0
285	0
286	1
287	2
288	1
289	1
290	1
291	5
292	1
293	2
294	4
295	1
296	2
297	1
298	1
299	0
301	1
302	1
303	1
304	0
305	0
306	0
307	2
308	1
309	1
310	0
313	0
314	0
315	1
316	14
317	43
318	13
319	15
320	2
321	0
322	1
323	0
324	3
325	6
326	2
327	5
328	1
329	1
330	1
331	0
332	0
333	0
334	0
341	0
342	1
343	1
344	0
345	0
346	0
348	0
349	0
350	0
352	0
353	0
357	0
358	9
359	59
360	22
361	25
362	7
363	1
364	0
369	2
370	0
371	0
372	0
373	0
374	0
378	0
384	0
386	0
387	0
388	0
389	0
390	0
391	0
393	0
398	0
399	0
400	0
401	0
402	0
410	0
412	119
413	32
414	48
415	11
416	1
417	0
429	3
430	1
431	1
432	0
443	0
445	71
446	20
447	29
448	6
449	2
450	0
