Mass Spectrum: Zinc, dicyclohexyl-
Formula: C12H22Zn
CAS: 15658-08-9
Molecular weight: 230
m/z	intensity
25	4
26	41
27	275
28	29
29	184
30	3
31	0
32	2
33	1
34	1
36	0
37	8
38	25
39	391
40	56
41	803
42	161
43	65
44	1
45	0
46	0
47	1
48	0
49	4
50	37
51	63
52	38
53	151
54	579
55	999
56	245
57	11
58	0
61	1
62	3
63	8
64	99
65	33
66	55
67	769
68	50
69	56
70	3
73	1
74	4
75	2
76	2
77	53
78	19
79	82
80	18
81	267
82	486
83	815
84	203
85	10
89	0
91	2
92	2
93	3
94	1
95	2
96	1
97	0
104	0
105	1
106	8
107	2
108	4
109	1
110	3
111	0
112	0
114	0
118	0
119	1
120	0
121	1
122	0
123	0
127	0
133	0
143	0
144	0
145	1
146	68
147	395
148	166
149	236
150	129
151	160
152	50
153	8
154	1
155	0
161	0
162	0
171	0
173	0
184	0
189	0
191	0
193	0
199	0
210	0
226	0
228	1
229	1
230	90
231	12
232	49
233	13
234	34
235	5
236	1
