Mass Spectrum: .alpha.-Ethyl-.alpha.-methylbenzyl alcohol
Formula: C10H14O
CAS: 1565-75-9
Molecular weight: 150
m/z	intensity
25	0
26	5
27	49
28	11
29	69
30	1
31	5
36	0
37	0
38	3
39	29
40	2
41	7
42	2
43	999
44	20
45	5
46	0
47	0
49	0
50	20
51	63
52	13
53	7
54	1
55	12
56	0
57	97
58	4
59	0
60	1
61	0
62	3
63	12
64	3
65	18
66	3
67	0
68	0
69	0
71	1
72	0
73	6
74	6
75	5
76	7
77	91
78	41
79	14
80	0
81	0
86	0
87	0
88	0
89	5
90	1
91	38
92	3
93	2
94	1
95	0
98	0
101	0
102	5
103	11
104	2
105	38
106	6
107	2
115	17
116	4
117	25
118	3
119	0
120	2
121	475
122	40
123	2
126	0
127	1
128	1
129	1
130	0
131	4
132	9
133	3
134	0
135	19
136	1
137	0
150	11
151	1
