Mass Spectrum: (Z)-7-Bromo-1,3-heptadiene
Formula: C7H11Br
CAS: 156541-53-6
Molecular weight: 174
m/z	intensity
27	107
28	32
29	29
30	23
31	17
39	212
40	46
41	383
42	341
43	22
52	50
53	126
54	301
55	101
63	16
65	118
66	92
67	999
68	79
69	28
77	91
78	25
79	248
80	31
81	315
82	24
89	15
91	38
93	37
94	14
95	643
96	50
107	23
109	22
119	12
130	52
132	20
174	227
175	19
176	220
177	19
