Mass Spectrum: 4-Methoxyphenylurea
Formula: C8H10N2O2
CAS: 1566-42-3
Molecular weight: 166
m/z	intensity
29	31
30	12
36	2
37	17
38	49
39	116
40	19
41	106
42	25
43	65
44	159
45	6
46	2
47	2
49	3
50	35
51	80
52	197
53	208
54	37
55	12
56	1
57	1
61	12
62	24
63	60
64	44
65	81
66	15
67	13
68	4
69	2
74	5
75	5
76	5
77	15
78	28
79	34
80	256
81	29
82	2
90	6
91	7
92	16
93	4
94	5
95	59
96	6
105	2
106	19
108	999
109	71
110	5
121	3
122	57
123	444
124	41
125	2
134	25
135	2
149	34
150	6
165	2
166	304
167	30
168	2
