Mass Spectrum: 2-Acetoxy-3-butenenitrile
Formula: C6H7NO2
CAS: 15667-63-7
Molecular weight: 125
m/z	intensity
13	1
14	7
15	57
25	1
26	14
27	45
28	54
29	9
37	25
38	46
39	144
40	41
41	7
42	36
43	999
44	45
45	7
50	1
51	3
52	4
53	3
54	41
55	135
56	26
57	12
61	17
62	1
63	7
64	36
65	50
66	215
67	11
68	1
70	2
71	2
82	13
83	493
84	24
85	2
98	3
99	2
110	4
126	1
