Mass Spectrum: 3-Methylthio-6-phenyl-5-oxo-4,5-dihydro-1,2,4-triazine
Formula: C10H9N3OS
CAS: 1566-37-6
Molecular weight: 219
m/z	intensity
43	188
45	121
46	99
47	128
48	382
50	120
51	129
63	208
69	999
74	248
76	199
77	251
89	270
90	110
91	70
103	331
104	949
116	201
118	128
172	129
219	351
