Mass Spectrum: Benzyl alcohol, 5-methoxy-.alpha.-methyl-2-nitro-
Formula: C9H11NO4
CAS: 156785-62-5
Molecular weight: 197
m/z	intensity
26	24
27	118
29	62
30	130
31	20
37	11
38	61
39	225
41	57
42	14
43	999
44	27
45	132
46	1
50	100
51	168
52	112
53	85
54	22
55	46
56	7
57	11
59	36
60	1
61	31
62	74
63	344
64	159
65	225
66	52
67	27
68	17
69	19
70	0
73	1
74	52
75	77
76	65
77	422
78	162
79	115
80	112
81	34
82	19
87	5
88	4
89	52
90	54
91	266
92	279
93	118
94	42
95	57
96	14
97	15
101	5
102	15
103	37
104	35
105	37
106	310
107	223
108	229
109	88
110	58
111	8
117	8
118	28
119	39
120	188
121	273
122	103
123	158
124	57
125	2
128	2
132	11
133	46
134	702
135	338
136	295
137	95
138	35
142	10
146	10
147	12
148	53
149	34
150	65
151	46
152	21
153	5
154	5
162	115
163	26
164	355
165	35
166	12
178	10
179	413
180	94
181	17
182	251
183	21
195	1
196	1
197	395
198	43
199	1
