Mass Spectrum: 2-Dodecylcyclohexanone
Formula: C18H34O
CAS: 15674-95-0
Molecular weight: 266
m/z	intensity
29	174
39	58
41	352
42	69
43	138
44	23
54	69
55	544
56	69
57	186
67	211
68	82
69	235
70	162
71	95
79	57
81	140
82	234
83	316
84	58
85	34
95	117
96	129
97	212
98	999
99	197
109	34
110	35
111	198
121	23
123	22
124	23
125	23
137	23
138	23
266	57
267	23
