Mass Spectrum: Thiazole, 2-ethoxy-
Formula: C5H7NOS
CAS: 15679-19-3
Molecular weight: 129
m/z	intensity
26	125
27	494
28	62
29	679
30	16
31	2
32	3
33	7
34	1
35	0
36	0
37	0
38	14
39	22
40	36
41	20
42	13
43	6
44	28
45	272
46	345
47	18
48	15
49	0
50	2
51	6
52	6
53	3
54	2
55	5
56	217
57	77
58	191
59	65
60	17
61	6
62	0
64	0
65	0
66	0
67	2
68	3
69	2
70	19
71	38
72	9
73	922
74	40
75	42
76	1
77	0
78	1
79	1
80	0
81	1
82	4
83	10
84	3
85	17
86	70
87	6
88	3
89	0
91	0
92	0
93	0
94	1
95	1
96	1
97	0
98	0
100	45
101	999
102	58
103	45
104	2
105	0
106	0
107	0
108	0
109	0
110	0
111	0
112	0
113	4
114	24
115	8
116	0
117	0
119	0
121	0
122	0
128	2
129	390
130	27
131	20
132	1
