Mass Spectrum: Cyclopentanone, 2-(5-oxohexyl)-
Formula: C11H18O2
CAS: 15674-93-8
Molecular weight: 182
m/z	intensity
26	5
27	72
28	35
29	72
30	4
31	6
35	0
36	7
37	1
38	4
39	83
40	22
41	165
42	49
43	492
44	27
45	13
46	2
47	1
48	1
49	1
50	3
51	10
52	7
53	45
54	56
55	210
56	52
57	35
58	134
59	21
60	8
61	4
62	1
63	4
64	3
65	15
66	14
67	111
68	88
69	100
70	22
71	116
72	18
73	6
74	2
75	2
76	2
77	18
78	9
79	72
80	96
81	132
82	45
83	183
84	999
85	110
86	12
87	4
88	2
89	1
90	1
91	19
92	7
93	40
94	21
95	58
96	51
97	297
98	86
99	64
100	5
101	2
102	9
103	6
104	8
105	20
106	32
107	36
108	28
109	25
110	29
111	77
112	19
113	5
114	1
115	6
116	2
117	6
118	11
119	7
120	9
121	122
122	33
123	15
124	118
125	132
126	17
127	4
128	2
129	4
130	1
131	8
132	1
133	3
134	3
135	19
136	19
137	4
138	3
139	15
140	10
141	2
142	0
143	1
144	0
145	2
146	4
147	4
148	7
149	40
150	17
151	3
152	2
153	8
154	7
155	1
156	0
157	0
158	0
159	0
160	1
161	2
162	3
163	6
164	118
165	27
166	3
167	4
168	2
169	1
170	0
171	0
177	0
178	0
179	0
180	0
181	1
182	122
183	24
184	2
185	1
