Mass Spectrum: Bis(trifluoromethylthio)chlorofluoromethane
Formula: C3ClF7S2
CAS: 156777-67-2
Molecular weight: 268
m/z	intensity
42	14
44	20
50	15
63	633
64	39
65	33
69	999
70	15
76	98
79	162
81	67
82	66
85	11
95	52
98	75
100	27
101	59
117	10
130	13
145	48
164	15
167	592
168	17
169	202
170	2
171	8
233	50
234	1
