Mass Spectrum: 3-Dimethylaminocyclohexanol (trans)
Formula: C8H17NO
CAS: 15676-73-0
Molecular weight: 143
m/z	intensity
41	84
42	206
44	149
45	60
46	11
53	5
55	36
56	119
57	31
58	213
68	11
70	156
71	541
72	154
79	11
81	9
82	23
83	5
84	584
85	66
96	5
98	47
100	999
101	47
124	14
126	25
128	11
142	9
143	540
144	40
