Mass Spectrum: Acetamide, 2-chloro-N-t-butyl-
Formula: C6H12ClNO
CAS: 15678-99-6
Molecular weight: 149
m/z	intensity
41	169
42	105
43	17
44	13
45	2
47	2
48	3
49	74
51	30
52	2
53	4
54	5
55	32
56	133
57	365
58	999
59	40
69	2
70	3
71	5
72	8
76	3
77	18
79	6
83	2
84	19
85	1
86	10
93	2
94	110
95	2
96	34
98	5
100	13
114	11
133	2
134	114
135	9
136	38
137	3
148	19
149	107
150	12
151	38
152	4
