Mass Spectrum: (+)-Morphinan-3-ol
Formula: C16H21NO
CAS: 15676-23-0
Molecular weight: 243
m/z	intensity
44	108
45	999
55	33
56	36
68	32
77	23
79	23
91	37
107	37
109	26
115	37
128	42
133	44
134	60
136	233
145	50
146	74
147	66
157	177
158	79
159	30
170	38
171	42
172	38
185	19
186	26
198	144
199	85
200	147
214	84
215	18
228	15
242	106
243	323
244	52
