Mass Spectrum: Propanamide, N-[1-methyl-2-(1-piperidinyl)ethyl]-N-2-pyridinyl-
Formula: C16H25N3O
CAS: 15686-91-6
Molecular weight: 275
m/z	intensity
42	34
50	1
51	13
52	11
53	6
54	7
55	57
56	15
57	45
58	3
59	1
63	1
64	1
65	4
66	3
67	13
68	17
69	29
70	42
71	1
74	1
76	1
77	1
78	75
79	32
80	7
81	1
82	6
83	9
84	6
85	1
91	1
92	3
93	4
94	16
95	11
96	32
97	16
98	999
99	67
100	1
104	2
105	2
106	2
107	2
108	1
110	44
111	3
112	1
113	1
116	1
117	1
118	2
119	25
120	3
121	74
122	6
123	4
124	10
125	241
126	27
127	1
131	1
132	1
133	16
135	20
136	1
191	7
192	1
216	1
274	1
275	1
