Mass Spectrum: 11-Methylpentacosane
Formula: C26H54
CAS: 15689-71-1
Molecular weight: 366
m/z	intensity
27	8
29	30
39	13
40	4
41	163
42	46
43	460
44	14
53	8
54	15
55	221
56	133
57	999
58	41
67	33
68	27
69	187
70	118
71	911
72	49
79	9
81	16
82	43
83	142
84	74
85	611
86	42
96	36
97	146
98	52
99	250
100	18
110	26
111	122
112	42
113	180
114	16
124	14
125	72
126	27
127	114
128	11
138	9
139	28
141	73
142	7
153	9
154	10
155	42
156	7
166	4
168	235
169	116
170	14
181	4
182	10
183	16
184	3
195	3
196	107
197	55
198	7
210	7
211	8
224	137
225	100
226	16
238	5
239	7
266	3
267	5
280	5
281	7
294	5
295	7
308	4
309	7
322	4
323	8
324	3
336	5
337	13
338	3
350	3
351	19
352	5
366	1
