Mass Spectrum: 1-Benzoylamino-3-(4-methylphenyl)-1-phenylpropane
Formula: C23H24N2O
CAS: 156950-87-7
Molecular weight: 344
m/z	intensity
39	12
41	12
42	6
43	14
44	10
50	16
51	58
52	14
53	9
54	5
55	11
56	5
57	8
62	3
63	15
64	7
65	69
66	7
67	9
69	8
71	4
74	10
75	11
76	27
77	580
78	96
79	93
80	13
81	5
83	5
84	4
87	4
89	31
90	28
91	300
92	65
93	28
94	5
95	3
97	4
98	3
101	4
102	11
103	51
104	250
105	999
106	250
107	140
108	15
109	3
115	51
116	27
117	140
118	190
119	200
120	660
121	130
122	38
123	4
128	4
129	5
130	25
131	19
132	75
133	49
134	180
135	23
136	5
144	18
145	5
146	18
147	3
152	5
160	5
178	4
179	3
180	6
181	9
182	4
183	3
192	3
193	6
194	13
195	10
196	11
206	20
207	10
208	26
209	16
210	83
211	200
212	31
213	3
219	3
220	25
221	12
222	73
223	63
224	29
225	16
236	7
237	13
238	16
239	7
311	9
312	3
325	6
326	9
344	340
345	89
346	11
347	1
