Mass Spectrum: Manganese, pentacarbonylethyl-, (oc-6-21)-
Formula: C7H5MnO5
CAS: 15694-83-4
Molecular weight: 224
m/z	intensity
13	4
14	15
15	4
16	11
25	12
27	88
28	999
29	27
30	4
37	3
38	5
39	22
40	9
41	20
42	9
43	3
50	2
51	3
52	1
53	5
54	6
55	187
56	110
57	3
58	2
65	2
66	1
67	10
68	6
69	6
70	3
77	3
78	1
79	5
80	5
81	2
82	3
83	31
84	79
85	2
91	4
93	2
95	1
105	2
107	1
111	15
112	15
139	14
140	9
167	17
195	22
224	2
