Mass Spectrum: Silane, cyclohexyldiethyl-
Formula: C10H22Si
CAS: 156994-96-6
Molecular weight: 170
m/z	intensity
25	3
26	19
27	145
28	10
29	261
30	22
31	417
33	18
34	2
36	2
37	2
38	5
39	125
40	13
41	213
42	43
43	220
44	39
45	139
46	11
47	49
48	3
49	4
50	3
51	11
52	7
53	83
54	114
55	174
56	44
57	168
58	179
59	950
60	92
61	35
62	3
63	2
65	12
66	18
67	482
68	28
69	17
70	12
71	64
72	18
73	112
74	14
75	49
76	8
77	24
78	6
79	64
80	79
81	576
82	999
83	131
84	14
85	245
86	356
87	495
88	56
89	21
90	3
91	1
92	4
93	2
94	0
95	6
96	0
97	10
98	2
99	68
100	9
101	9
103	5
106	3
107	1
108	3
109	3
110	6
111	29
112	14
113	451
114	52
115	78
116	11
117	5
118	1
119	3
120	2
121	2
123	2
125	2
127	3
128	3
129	1
130	2
131	2
132	2
134	2
136	2
137	1
139	8
140	13
141	193
142	32
143	87
144	12
145	5
146	2
147	2
148	1
151	1
155	1
157	9
158	0
162	2
165	1
168	9
169	11
170	157
171	28
172	8
