Mass Spectrum: Arachidonic amide, N-n-propyl-
Formula: C23H39NO
CAS: 156910-27-9
Molecular weight: 345
m/z	intensity
41	999
42	148
43	981
44	239
45	33
46	10
51	20
52	18
53	116
54	114
55	518
56	76
57	134
58	157
59	49
60	610
61	23
65	113
66	113
67	536
68	76
69	141
70	28
71	33
72	191
73	246
74	17
77	256
78	129
79	621
80	289
81	200
82	49
83	53
84	37
86	528
87	40
88	22
89	7
91	417
92	94
93	279
94	75
95	94
96	38
97	25
98	21
99	11
101	11
102	124
103	29
104	27
105	164
106	58
107	103
108	28
109	34
110	12
111	9
112	12
114	394
115	82
116	17
117	78
118	21
119	90
120	39
121	67
122	25
123	16
124	11
126	13
127	14
128	68
129	44
130	11
131	57
132	22
133	93
134	31
135	49
136	28
137	10
138	11
140	29
141	20
142	42
143	33
144	7
145	32
146	28
147	51
148	18
149	47
150	72
151	12
152	7
154	41
155	17
156	56
157	20
159	25
160	13
161	28
162	15
163	21
164	12
166	8
167	11
168	66
169	20
170	30
171	13
173	20
174	8
175	50
176	23
177	29
178	11
180	13
181	8
182	25
183	10
184	12
185	3
187	18
188	8
189	27
190	17
191	10
192	15
193	7
194	31
195	12
196	66
197	11
201	13
202	7
203	35
204	11
205	3
206	23
207	27
208	37
209	9
210	15
215	8
217	24
218	13
220	97
221	21
222	14
230	3
231	8
232	14
234	51
235	11
236	3
244	29
245	17
246	22
247	13
248	24
254	3
259	7
260	43
261	10
262	14
263	3
265	11
274	46
275	10
277	7
286	7
288	22
302	12
316	21
344	20
345	109
346	36
347	3
