Mass Spectrum: Benzenamine, N-methyl-,N-(2,4-dihydroxybenzylidenamino)-
Formula: C14H14N2O2
CAS: 156958-12-2
Molecular weight: 242
m/z	intensity
36	14
37	68
38	323
39	429
40	79
41	107
42	112
43	55
44	10
45	7
49	94
50	429
51	624
52	351
53	282
54	79
55	72
56	6
62	194
63	244
64	217
65	357
66	267
67	45
68	117
69	150
70	12
71	6
73	19
74	42
76	658
77	999
78	348
79	304
80	199
81	169
82	24
87	7
88	8
90	83
91	86
92	55
93	73
94	55
95	14
96	9
102	7
103	99
104	184
105	446
106	893
107	625
108	128
109	41
110	11
112	7
114	7
115	13
116	6
117	9
118	20
119	36
120	33
121	34
122	10
123	7
127	9
128	13
129	9
130	19
131	14
133	117
135	143
137	161
138	24
141	7
142	9
143	8
144	13
150	17
152	10
153	6
154	20
155	7
157	33
168	7
169	12
170	7
171	13
172	8
181	11
182	9
183	6
184	6
196	7
197	10
199	11
200	6
211	7
225	6
226	8
227	20
241	93
242	770
243	108
244	9
