Mass Spectrum: 1-Benzoylamino-3-(3-chlorophenylamino)-1-phenylpropane
Formula: C22H21ClN2O
CAS: 156950-89-9
Molecular weight: 364
m/z	intensity
39	14
40	6
41	18
42	11
43	25
44	16
45	6
49	2
50	24
51	66
52	14
53	6
54	5
55	25
56	11
57	28
58	6
59	3
60	25
61	7
62	4
63	15
64	8
65	19
66	5
67	8
68	5
69	19
70	9
71	19
72	2
73	30
74	14
75	32
76	32
77	440
78	84
79	30
80	4
81	8
82	8
83	17
84	10
85	18
86	4
87	8
88	2
89	11
90	14
91	67
92	19
93	21
94	5
95	9
96	7
97	13
98	10
99	32
100	6
101	15
102	13
103	52
104	330
105	999
106	230
107	27
108	4
109	6
110	6
111	55
112	23
113	24
114	8
115	43
116	32
117	190
118	49
119	44
120	210
121	67
122	60
123	8
124	4
125	9
126	9
127	53
128	11
129	26
130	21
131	33
132	42
133	13
134	35
135	6
136	2
137	5
138	45
139	61
140	160
141	67
142	51
143	17
144	5
145	3
146	4
147	4
148	3
149	7
150	2
151	9
152	21
153	25
154	52
155	15
156	16
157	4
158	5
159	4
160	11
161	3
163	2
164	6
165	8
166	13
167	6
168	5
169	3
175	2
176	13
177	3
178	4
179	3
180	7
181	9
182	17
183	10
184	2
192	4
193	6
194	6
195	4
196	3
205	2
206	13
207	9
208	25
210	180
211	460
212	72
213	8
214	4
215	4
216	6
217	2
219	2
220	4
221	4
222	23
223	12
224	43
225	35
226	12
227	3
235	2
236	14
237	34
238	17
239	4
240	15
241	10
242	44
243	63
244	20
245	20
246	3
255	2
256	4
257	5
259	11
260	2
261	3
280	4
345	2
346	7
347	2
348	2
362	2
364	310
365	78
366	110
367	26
368	3
