Mass Spectrum: 3-Benzoylamino-1-phenylamino-3-phenylpropane
Formula: C22H22N2O
CAS: 156950-86-6
Molecular weight: 330
m/z	intensity
39	19
40	11
41	22
42	11
43	25
44	20
45	6
49	2
50	23
51	70
52	24
53	14
54	7
55	25
56	11
57	23
58	4
59	2
60	28
61	6
62	5
63	16
64	16
65	39
66	15
67	18
68	6
69	20
70	9
71	14
73	29
74	13
75	13
76	29
77	480
78	110
79	51
80	21
81	12
82	8
83	14
84	10
85	12
86	3
87	7
88	2
89	9
90	8
91	66
92	53
93	66
94	15
95	25
96	8
97	11
98	11
99	8
100	3
101	7
102	9
103	52
104	330
105	999
106	340
107	73
108	78
109	20
110	6
111	9
112	5
113	5
114	2
115	48
116	30
117	140
118	43
119	54
120	310
121	120
122	93
123	150
124	16
125	5
126	3
127	7
128	5
129	11
130	19
131	20
132	51
133	18
134	89
135	16
136	5
141	7
142	3
149	5
150	12
151	2
152	7
153	4
157	2
158	4
159	3
160	12
161	4
162	14
163	4
164	2
165	9
166	4
176	6
177	2
178	4
179	3
180	13
181	9
182	10
183	3
191	2
192	15
193	11
194	10
195	10
196	7
197	10
198	2
205	2
206	17
207	11
208	39
209	66
210	130
211	300
212	50
213	6
219	3
220	7
221	7
222	36
223	18
224	34
225	26
226	6
227	4
228	2
235	3
236	44
237	40
238	80
239	46
240	9
241	3
242	6
243	4
252	3
253	3
297	4
311	2
312	4
329	10
330	200
331	50
332	6
