Mass Spectrum: 3,4-Dimethyl-5-hexen-3-ol
Formula: C8H16O
CAS: 1569-45-5
Molecular weight: 128
m/z	intensity
14	11
15	20
27	138
28	90
29	142
31	41
32	14
39	102
40	19
41	91
43	603
44	25
45	107
50	14
51	21
53	56
55	479
56	62
57	151
67	35
69	46
71	14
73	999
74	42
77	12
79	15
81	14
95	31
99	53
