Mass Spectrum: Bicyclo[1.1.0]butane
Formula: C4H6
CAS: 157-33-5
Molecular weight: 54
m/z	intensity
13	5
14	7
15	7
24	2
25	23
26	218
27	739
28	306
31	0
35	0
36	8
37	61
38	85
39	999
40	27
41	6
42	2
43	0
48	9
49	72
50	250
51	290
52	131
53	756
54	938
55	43
56	2
