Mass Spectrum: l-Argininic acid
Formula: C6H13N3O3
CAS: 157-07-3
Molecular weight: 175
m/z	intensity
41	896
42	724
43	858
44	999
45	114
46	45
47	4
48	4
52	18
53	46
54	37
55	81
56	66
57	116
58	81
59	356
60	47
64	4
67	23
68	267
69	589
70	583
71	88
72	45
83	66
84	49
85	27
86	161
87	214
88	36
96	10
97	79
98	18
110	18
111	341
112	30
114	5
115	128
116	79
138	4
139	269
140	81
175	8
