Mass Spectrum: 24-Nor-5.beta.,14.beta.-chol-20(22)-ene-19,23-dioic acid, 1.beta.,3.beta.,5,11.alpha.,14,21-hexahydroxy-, di-.gamma.-lactone
Formula: C23H30O8
CAS: 15718-20-4
Molecular weight: 434
m/z	intensity
26	135
27	542
28	999
29	596
30	81
31	430
39	447
40	101
41	711
42	227
43	830
44	962
45	345
46	81
50	67
51	169
52	91
53	305
54	108
55	396
56	169
57	372
58	67
60	101
63	111
64	57
65	264
66	118
67	400
68	142
69	474
70	169
71	237
77	501
78	193
79	467
80	128
81	379
82	142
83	244
84	142
85	169
89	84
91	908
92	169
93	257
94	101
95	281
96	128
97	244
98	189
99	61
101	54
102	61
103	169
104	193
105	393
106	169
107	261
108	118
109	145
110	101
111	298
112	67
113	54
115	349
116	135
117	271
118	94
119	189
120	108
121	176
122	88
123	118
124	91
125	118
126	91
127	135
128	352
129	474
130	271
131	338
132	101
133	145
134	84
135	101
136	61
137	67
138	67
141	288
142	237
143	193
144	84
145	128
146	67
147	142
148	67
149	145
150	57
151	84
152	135
153	122
154	152
155	179
156	220
157	271
158	84
159	118
160	67
161	67
163	74
164	54
165	176
166	67
167	94
168	61
169	142
170	67
171	67
172	74
173	74
174	57
175	94
176	57
177	74
178	135
179	189
180	101
181	125
182	67
183	474
184	115
185	78
189	67
190	57
191	101
192	91
193	210
194	88
195	91
197	54
201	81
202	67
203	57
205	91
206	67
207	91
208	91
209	61
211	135
215	61
219	47
226	50
316	33
318	118
319	33
326	67
334	27
336	128
337	40
344	40
352	27
354	145
355	44
372	152
373	23
380	67
381	23
398	166
399	355
400	94
416	237
417	50
434	430
435	94
