Mass Spectrum: p-Menth-8(10)-en-9-ol, cis-
Formula: C10H18O
CAS: 15714-13-3
Molecular weight: 154
m/z	intensity
26	10
27	171
28	31
29	200
30	8
31	81
38	7
39	250
40	40
41	485
42	58
43	170
44	11
45	11
50	9
51	39
52	31
53	145
54	116
55	999
56	88
57	122
58	207
59	16
63	10
65	49
66	39
67	375
68	250
69	189
70	40
71	39
72	5
77	95
78	28
79	264
80	100
81	765
82	121
83	71
84	72
91	63
92	29
93	192
94	142
95	472
96	193
97	388
98	68
99	7
105	21
106	7
107	139
108	70
109	29
110	85
111	18
113	142
114	10
119	10
121	131
122	24
123	145
124	20
125	16
126	7
135	5
136	124
137	20
139	5
152	9
154	35
