Mass Spectrum: Cyclohexaneethanol, 4-methyl-.beta.-methylene-, trans-
Formula: C10H18O
CAS: 15714-12-2
Molecular weight: 154
m/z	intensity
26	11
27	160
29	190
30	7
31	73
38	8
39	210
40	41
41	447
42	53
43	167
44	14
50	8
51	36
52	25
53	147
54	110
55	999
56	90
57	127
58	170
59	11
63	9
65	50
66	37
67	344
68	244
69	184
70	32
71	39
77	90
78	25
79	234
80	100
81	700
82	100
83	63
84	57
85	12
91	67
92	73
93	270
94	204
95	416
96	147
97	410
98	47
105	16
106	7
107	170
108	83
109	21
110	70
111	17
113	83
114	5
119	6
121	174
122	24
123	120
124	14
125	16
126	6
135	9
136	150
137	18
152	6
154	15
