Mass Spectrum: Propanoic acid, 2-methyl-, 2-propenyl ester
Formula: C7H12O2
CAS: 15727-77-2
Molecular weight: 128
m/z	intensity
24	0
25	1
26	27
27	232
28	28
29	22
30	5
31	15
36	0
37	6
38	14
39	176
40	43
41	539
42	45
43	999
44	29
45	6
46	0
50	0
51	0
53	1
54	0
55	13
56	5
57	61
58	23
59	4
60	0
61	0
67	1
68	1
69	1
70	12
71	445
72	18
73	4
74	2
75	0
82	0
83	0
85	5
86	0
87	2
88	0
89	7
90	0
95	0
99	0
100	1
101	0
113	0
128	5
129	0
