Mass Spectrum: Ethyl 2-cyanopropionate
Formula: C6H9NO2
CAS: 1572-99-2
Molecular weight: 127
m/z	intensity
30	38
31	27
37	3
38	11
39	21
40	21
41	17
42	13
43	63
44	19
45	80
46	3
50	2
51	26
52	87
53	28
54	953
55	999
56	74
57	7
60	2
64	1
67	25
68	92
70	2
71	4
72	1
73	18
74	12
75	2
77	2
78	2
81	6
82	819
83	44
84	2
85	3
86	22
87	1
91	1
100	34
101	1
105	5
106	5
112	13
113	1
116	1
126	2
127	4
128	1
