Mass Spectrum: 3-Methylpenta-1,3-diene-5-ol, (E)-
Formula: C6H10O
CAS: 1572-08-3
Molecular weight: 98
m/z	intensity
31	25
39	520
40	40
41	999
42	75
43	465
44	35
53	160
54	95
55	670
56	105
57	80
67	105
68	20
69	880
70	260
71	100
77	105
78	25
79	220
80	120
81	110
82	20
83	550
84	35
97	105
98	240
99	16
