Mass Spectrum: 3-(Bromomethyl)-2,4,10-trioxaadamantane
Formula: C8H11BrO3
CAS: 157371-80-7
Molecular weight: 234
m/z	intensity
37	0
38	1
39	25
40	8
41	49
42	28
43	23
44	3
45	3
49	0
50	2
51	2
52	2
53	12
54	7
55	11
56	1
57	5
58	1
59	1
63	0
64	1
65	9
67	160
68	182
69	39
70	83
71	11
72	1
73	5
77	7
78	3
79	12
80	4
81	28
82	5
83	14
84	0
85	2
86	2
87	3
90	1
91	2
93	48
95	103
96	999
97	66
98	4
99	0
103	1
104	1
105	1
109	7
110	0
111	16
112	2
113	4
114	8
115	2
121	502
123	524
124	11
125	1
126	1
127	1
131	0
132	1
135	1
137	8
139	20
141	16
145	0
146	6
147	2
148	6
149	1
150	0
154	7
155	10
156	1
162	7
163	2
164	9
165	19
166	3
167	19
168	1
169	3
173	2
174	1
175	3
177	2
188	31
190	119
191	13
192	91
193	73
195	66
196	3
197	1
201	3
206	4
207	0
208	3
216	1
218	1
234	221
235	30
236	204
237	21
238	2
