Mass Spectrum: Hexadecanoic acid, (3-bromoprop-2-ynyl) ester
Formula: C19H33BrO2
CAS: 157336-02-2
Molecular weight: 372
m/z	intensity
34	0
37	10
38	72
39	74
41	582
42	144
43	999
44	48
51	4
52	9
53	32
54	53
55	634
56	130
57	767
58	54
60	39
61	10
62	0
63	1
64	0
65	12
67	165
68	54
69	565
70	100
71	387
72	24
73	57
74	5
75	0
77	11
78	4
79	49
80	27
81	208
82	58
83	343
84	118
85	217
86	16
87	19
88	3
89	0
91	19
92	4
93	54
94	17
95	226
96	43
97	296
98	150
99	46
100	7
101	20
102	2
103	1
104	1
105	16
106	5
107	45
108	12
109	132
110	26
111	235
112	54
113	20
114	4
115	19
116	29
117	175
118	33
119	169
120	10
121	57
122	10
123	68
124	14
125	62
126	16
127	11
128	2
129	16
130	2
131	4
132	2
133	16
134	5
135	57
136	10
137	38
138	10
139	42
140	11
141	7
142	1
143	6
145	3
146	3
147	7
148	26
149	29
150	24
151	17
152	6
153	34
154	9
155	5
156	0
157	6
159	6
160	2
161	7
162	3
163	14
164	3
165	11
166	2
167	15
168	4
169	3
170	0
171	6
172	1
173	3
175	13
176	134
177	30
178	130
179	20
180	3
181	7
182	2
183	1
185	4
186	1
187	1
189	50
191	56
192	4
193	3
194	2
195	6
196	2
197	1
199	2
201	0
202	0
203	2
204	0
205	3
207	1
208	0
209	3
210	0
211	0
213	4
214	0
215	0
217	3
218	1
219	12
220	3
221	3
222	0
223	3
224	1
225	1
227	0
228	0
231	2
232	0
233	4
234	1
235	3
236	2
237	22
238	45
239	139
240	26
241	2
242	0
244	0
245	2
246	0
247	5
248	0
249	1
251	4
252	1
254	0
256	9
257	1
259	0
260	0
261	0
263	0
265	0
273	0
275	2
276	0
279	1
284	0
289	0
290	0
291	0
292	0
293	22
294	4
295	0
303	0
315	0
317	0
329	0
331	0
332	0
372	0
373	0
374	0
375	0
