Mass Spectrum: 3,4-Dimethyl-isoxazol-5(4H)-one
Formula: C5H7NO2
CAS: 15731-93-8
Molecular weight: 113
m/z	intensity
37	20
38	39
39	199
40	59
41	210
42	289
43	90
44	81
50	19
51	30
52	30
53	89
54	49
55	999
56	169
58	29
68	69
69	70
70	49
84	20
85	450
86	29
112	9
113	348
114	30
