Mass Spectrum: 3,4,4-Trimethyl-isoxazol-5(4H)-one
Formula: C6H9NO2
CAS: 15731-98-3
Molecular weight: 127
m/z	intensity
37	19
38	39
39	198
40	70
41	999
42	328
43	39
44	40
50	9
51	19
52	20
53	50
54	19
55	10
57	9
58	9
67	29
68	30
69	529
70	110
82	29
99	378
100	29
127	150
128	9
