Mass Spectrum: Ethene, 1-(diethylboryl)-1-(trimethylsilyl)-
Formula: C9H21BSi
CAS: 157489-80-0
Molecular weight: 168
m/z	intensity
25	0
26	21
27	70
28	0
29	23
30	1
31	34
33	0
36	5
37	28
38	14
39	48
40	52
41	156
42	5
43	105
44	26
45	213
46	13
47	5
48	0
49	11
50	8
51	17
52	8
53	25
54	16
55	59
56	5
57	20
58	35
59	330
60	22
61	11
62	5
63	4
64	6
65	12
66	7
67	21
68	10
69	35
70	6
71	14
72	19
73	999
74	78
75	34
76	1
77	3
78	3
79	10
80	7
81	12
82	9
83	79
84	13
85	51
86	34
87	768
88	65
89	23
90	1
91	4
92	1
93	5
94	10
95	23
96	21
97	159
98	28
99	46
100	47
101	116
102	12
103	4
105	1
106	0
107	4
108	6
109	22
110	36
111	175
112	117
113	49
114	7
115	1
120	0
121	4
122	5
123	12
124	22
125	103
126	218
127	35
128	9
129	3
135	1
136	1
137	3
138	126
139	536
140	80
141	21
142	2
143	0
147	0
149	1
150	4
151	1
152	23
153	95
154	14
155	5
167	9
168	36
169	6
170	1
