Mass Spectrum: Borane, bis-(1-trimethylsilylvinyl)ethyl-
Formula: C12H27BSi2
CAS: 157489-81-1
Molecular weight: 238
m/z	intensity
26	11
27	44
28	5
29	18
31	26
36	3
37	12
38	7
39	30
40	35
41	102
42	3
43	80
44	25
45	179
46	13
47	7
49	4
50	4
51	14
52	5
53	17
54	9
55	31
56	4
57	15
58	24
59	219
60	13
61	7
63	4
64	4
65	8
66	3
67	14
68	9
69	26
70	3
71	9
72	10
73	999
74	69
75	30
77	2
79	5
80	3
81	11
82	6
83	47
84	8
85	42
86	11
87	205
88	18
89	6
90	2
91	4
93	3
94	8
95	14
96	11
97	49
98	15
99	38
100	13
101	27
102	3
105	3
106	4
107	17
108	6
109	19
110	11
111	40
112	26
113	33
114	6
115	5
117	2
120	9
121	36
122	28
123	17
124	10
125	31
126	31
127	29
128	3
129	36
130	5
131	10
133	3
134	5
135	26
136	18
137	10
138	22
139	89
140	25
141	9
143	3
149	17
150	51
151	11
152	9
153	31
154	10
155	11
164	6
165	4
166	4
167	15
168	10
169	23
170	4
171	2
181	4
182	3
183	3
194	3
195	13
196	5
208	18
209	78
210	15
211	6
222	5
223	19
224	4
237	3
238	9
