Mass Spectrum: N-(2,6-Dichlorophenyl)-3-methylbenzamide
Formula: C14H11Cl2NO
CAS: 157491-15-1
Molecular weight: 279
m/z	intensity
15	1
26	3
27	8
35	1
36	3
37	11
38	24
39	126
40	11
41	37
42	1
43	1
45	4
47	3
49	10
50	34
51	59
52	24
53	8
54	1
59	2
60	2
61	16
62	58
63	157
64	49
65	409
66	25
67	1
71	1
72	8
73	41
74	24
75	32
76	16
77	14
78	3
79	2
83	6
84	4
85	7
86	9
87	11
88	15
89	125
90	98
91	802
92	81
93	3
95	1
96	2
97	17
98	11
99	18
100	6
101	5
102	2
103	3
104	2
105	1
107	7
108	1
109	10
110	2
111	4
112	1
113	1
114	1
115	1
116	6
117	4
119	999
120	169
121	14
124	28
125	23
126	14
127	10
128	3
129	1
133	73
134	6
135	47
136	4
137	8
138	2
139	2
140	2
141	1
145	1
147	1
149	1
150	2
151	5
152	7
153	4
154	2
160	21
161	13
162	15
163	9
164	6
165	4
166	3
167	1
172	1
173	1
174	1
175	1
176	1
177	2
178	4
179	3
180	11
181	4
182	1
187	1
188	1
189	1
190	2
191	1
200	1
201	2
202	1
203	1
206	1
207	1
208	4
209	3
210	1
214	8
215	8
216	4
217	3
218	1
226	1
228	1
229	1
241	1
242	5
244	579
245	104
246	208
247	33
248	4
250	1
278	1
279	2
280	1
281	1
