Mass Spectrum: 3-Pentanone, 2,4-dimethyl-, O-methyloxime
Formula: C8H17NO
CAS: 15754-23-1
Molecular weight: 143
m/z	intensity
15	56
26	7
27	261
28	205
29	94
30	43
31	30
32	12
33	51
40	43
41	543
42	492
43	999
44	51
45	30
51	15
52	20
53	30
54	174
55	133
56	46
57	30
58	128
59	87
60	12
67	25
68	179
69	256
70	502
71	46
72	15
74	15
81	15
82	25
83	25
84	17
85	46
86	33
87	146
88	15
95	5
96	30
97	20
98	12
100	325
101	61
112	153
113	12
115	230
116	15
128	323
129	30
142	17
143	425
144	51
