Mass Spectrum: cis-1,2-Cyclohexanedimethanol
Formula: C8H16O2
CAS: 15753-50-1
Molecular weight: 144
m/z	intensity
14	1
15	12
16	2
26	10
27	188
28	44
29	145
30	25
31	167
32	4
33	6
37	4
38	13
39	234
40	44
41	523
42	50
43	67
44	24
45	51
46	3
47	3
48	1
49	2
50	15
51	35
52	20
53	162
54	362
55	597
56	45
57	157
58	40
59	7
60	1
61	3
62	6
63	9
64	3
65	46
66	95
67	999
68	443
69	200
70	96
71	45
72	7
73	2
74	2
75	2
76	1
77	75
78	30
79	227
80	143
81	978
82	295
83	115
84	55
85	9
86	1
87	1
88	1
89	2
90	1
91	64
92	10
93	247
94	50
95	857
96	858
97	137
98	57
99	6
100	1
103	3
104	2
105	8
106	5
107	17
108	120
109	21
110	5
111	75
112	9
113	2
114	3
115	1
119	2
120	1
121	1
122	2
123	2
124	13
125	24
126	104
127	12
144	3
145	1
