Mass Spectrum: Benzhydrazide, N2-(4-quinolinyl 1-oxide)-
Formula: C16H13N3O2
CAS: 157563-24-1
Molecular weight: 279
m/z	intensity
36	0
38	1
39	14
44	5
50	39
51	113
52	10
53	2
62	2
63	10
64	2
65	0
74	3
75	35
76	24
77	273
78	44
87	3
88	28
89	54
90	15
91	3
92	0
93	0
98	0
99	0
100	3
101	90
102	41
103	29
104	32
105	999
106	93
107	0
113	1
114	14
115	4
116	20
117	9
118	0
119	1
121	3
122	30
123	0
127	1
128	42
129	26
130	4
131	8
132	5
143	1
144	12
145	4
157	7
158	71
159	20
160	32
165	0
174	0
207	0
233	4
247	0
249	19
250	0
263	89
264	13
279	69
280	8
