Mass Spectrum: 2-Butanone, 1-(acetyloxy)-
Formula: C6H10O3
CAS: 1575-57-1
Molecular weight: 130
m/z	intensity
26	25
27	115
28	80
29	537
30	15
31	30
39	27
40	10
41	55
42	100
43	999
44	31
45	20
46	12
52	5
53	9
55	20
56	71
57	674
58	29
60	10
69	9
70	10
71	10
72	11
73	66
74	10
75	7
79	0
88	20
89	2
100	14
101	81
102	4
130	25
131	2
