Mass Spectrum: Dithiocarbonic acid, o-ethyl-S-pentaphenylcyclopentadien-5-yl ester
Formula: C38H30OS2
CAS: 157590-00-6
Molecular weight: 566
m/z	intensity
15	24
17	40
18	150
26	38
27	238
28	63
29	999
30	27
31	46
32	83
33	18
34	14
35	37
38	13
39	27
41	35
42	14
43	37
44	53
45	51
46	16
47	14
51	55
55	20
57	24
59	11
60	61
61	131
62	24
63	20
64	31
65	40
66	40
69	13
71	11
75	11
76	127
77	103
78	75
79	14
89	94
91	122
92	13
93	144
94	40
95	20
103	14
115	33
121	100
122	53
126	13
139	18
145	37
150	22
151	25
152	85
153	20
162	14
163	37
164	18
165	222
166	59
167	264
168	50
170	20
174	13
175	57
176	87
178	63
179	35
181	22
182	44
183	35
187	24
188	18
189	44
190	13
191	38
193	13
194	31
199	20
200	29
201	16
202	18
206	33
212	13
213	18
215	14
221	11
226	9
237	9
239	27
240	7
250	13
252	96
253	27
254	7
261	7
263	44
264	14
265	187
266	61
267	125
268	29
269	13
274	5
276	37
277	20
278	18
279	11
287	22
289	314
290	101
291	79
292	18
300	7
302	9
303	5
311	7
313	16
314	5
315	9
321	20
322	9
323	5
324	11
325	5
326	44
327	20
328	9
335	5
337	22
338	13
339	66
340	25
341	14
342	3
348	7
349	3
350	48
351	59
352	96
353	77
354	70
355	29
356	5
359	3
361	18
362	9
363	90
364	57
365	129
366	70
367	292
368	98
369	22
370	3
372	3
374	5
375	3
376	7
377	3
385	5
387	11
388	5
389	5
390	3
391	3
397	3
398	5
399	9
400	11
401	9
402	7
403	11
404	13
405	3
411	3
413	7
414	3
415	5
416	3
417	3
424	3
425	3
426	5
427	5
428	3
429	7
430	5
431	3
435	3
437	5
439	3
443	7
445	988
446	794
447	227
448	37
449	5
458	3
474	3
477	53
478	22
479	7
506	3
566	68
567	29
568	13
569	3
