Mass Spectrum: 2-Methyl-4-pentenoic acid
Formula: C6H10O2
CAS: 1575-74-2
Molecular weight: 114
m/z	intensity
14	1
15	9
17	1
18	2
25	1
26	16
27	112
28	55
29	57
30	6
31	9
32	1
37	7
38	18
39	219
40	41
41	804
42	107
43	100
44	30
45	68
46	3
47	3
49	1
50	9
51	13
52	6
53	77
54	15
55	101
56	130
57	82
58	24
59	7
60	19
61	3
62	3
63	5
65	10
66	6
67	80
68	109
69	999
70	94
71	58
72	22
73	62
74	50
75	2
77	1
79	1
81	35
82	2
83	1
85	9
86	19
87	10
95	10
96	31
97	15
98	1
99	191
100	10
101	1
113	8
114	162
115	13
116	1
