Mass Spectrum: 1,2-Pyrrolidinedicarboxylic acid, 1-(1,1-dimethylethyl) ester, (S)-
Formula: C10H17NO4
CAS: 15761-39-4
Molecular weight: 215
m/z	intensity
12	2
14	3
15	25
16	7
17	4
18	2
25	1
26	11
27	78
28	127
29	157
30	14
31	9
32	1
36	1
37	8
38	14
39	143
40	38
41	526
42	71
43	76
44	181
45	26
46	1
49	3
50	9
51	9
52	4
53	19
54	9
55	51
56	120
57	943
58	43
59	29
60	2
66	2
67	6
68	63
69	44
70	999
71	52
72	2
73	2
74	3
77	3
78	1
81	1
82	3
86	1
87	31
88	2
91	1
96	6
97	5
98	1
105	2
110	1
113	14
114	713
115	145
116	23
117	2
126	5
141	1
142	31
143	2
156	8
157	1
159	1
160	8
170	66
171	13
172	1
