Mass Spectrum: 2H-1,2-Oxazine, tetrahydro-2-methyl-6-p-tolyl-
Formula: C12H17NO
CAS: 15769-90-1
Molecular weight: 191
m/z	intensity
42	100
43	20
51	20
60	999
61	25
77	25
78	10
91	80
105	30
115	20
116	10
117	45
118	14
119	20
127	6
128	10
131	20
132	105
133	10
191	85
192	11
193	0
