Mass Spectrum: L-Alanine, N-[(1,1-dimethylethoxy)carbonyl]-
Formula: C8H15NO4
CAS: 15761-38-3
Molecular weight: 189
m/z	intensity
18	0
26	5
27	51
28	37
29	152
30	3
31	37
37	0
38	2
39	39
40	9
41	267
42	40
43	46
44	444
45	25
46	1
48	0
50	0
51	1
52	0
53	3
54	1
55	26
56	44
57	999
58	39
59	531
60	17
61	0
62	0
64	0
65	0
69	0
70	19
71	2
72	1
73	6
74	28
75	0
76	0
78	0
84	1
86	0
87	5
88	204
89	36
90	23
91	2
97	0
100	1
101	0
104	0
110	0
115	2
116	45
117	2
118	0
119	0
130	1
133	1
134	17
135	0
136	0
144	308
145	25
146	2
147	0
158	0
174	5
175	0
184	0
186	1
187	1
188	0
189	3
190	0
191	0
