Mass Spectrum: Phenol, 2,2'-oxybis-
Formula: C12H10O3
CAS: 15764-52-0
Molecular weight: 202
m/z	intensity
39	170
40	20
51	60
52	80
53	50
63	80
64	80
65	120
66	60
80	80
81	130
82	10
92	40
94	999
95	70
109	230
110	60
202	620
203	80
