Mass Spectrum: Benzenesulfonic acid, 4-methyl-, hydrazide
Formula: C7H10N2O2S
CAS: 1576-35-8
Molecular weight: 186
m/z	intensity
14	1
15	1
16	2
17	7
18	41
26	4
27	18
28	40
29	59
30	54
31	562
32	7
33	1
34	2
37	5
38	14
39	144
40	11
41	46
42	2
43	2
44	9
45	24
46	1
47	1
48	10
49	2
50	30
51	58
52	19
53	14
54	1
55	2
57	1
58	2
59	1
60	2
61	7
62	20
63	78
64	22
65	366
66	23
67	13
68	1
69	8
70	2
71	4
73	1
74	6
75	6
76	5
77	102
78	28
79	73
80	32
81	2
82	2
84	2
85	3
86	4
87	4
88	1
89	66
90	40
91	999
92	843
93	168
94	10
95	9
96	1
97	3
104	5
105	3
106	28
107	90
108	75
109	7
110	1
111	14
112	1
113	1
121	7
122	5
123	24
124	31
125	3
126	2
132	1
137	1
138	1
139	203
140	34
141	10
142	2
154	2
155	41
156	250
157	485
158	56
159	25
160	2
171	1
182	1
184	2
186	164
187	15
188	9
