Mass Spectrum: 7-Octen-1-ol, 2,6-dimethyl-
Formula: C10H20O
CAS: 157615-34-4
Molecular weight: 156
m/z	intensity
26	34
27	255
28	48
29	292
30	8
31	301
33	1
37	3
38	5
39	167
40	40
41	953
42	124
43	147
44	10
45	116
46	1
47	0
49	0
50	13
51	13
52	13
53	72
54	94
55	999
56	259
57	124
58	80
59	65
60	2
61	0
62	1
63	2
64	1
65	11
66	15
67	300
68	384
69	352
70	185
71	176
72	14
73	11
74	0
76	0
77	9
78	2
79	32
80	23
81	305
82	371
83	192
84	27
85	56
86	9
87	5
88	0
91	6
92	1
93	4
94	4
95	127
96	117
97	28
98	5
99	16
100	5
101	20
102	0
105	1
107	1
109	272
110	29
111	1
112	0
113	1
114	0
119	0
121	1
123	36
124	3
125	8
126	1
127	12
128	2
129	0
136	0
137	0
138	7
139	0
141	0
156	5
157	0
