Mass Spectrum: 2H-1,2-Oxazine, 6-(4-chlorophenyl)tetrahydro-2-methyl-
Formula: C11H14ClNO
CAS: 15769-91-2
Molecular weight: 211
m/z	intensity
43	30
50	20
51	20
60	999
61	25
75	30
76	10
77	30
89	10
103	20
115	22
116	6
117	10
138	6
139	10
151	10
152	6
153	4
211	30
213	10
