Mass Spectrum: N-Benzyl-p-toluenesulfonamide
Formula: C14H15NO2S
CAS: 1576-37-0
Molecular weight: 261
m/z	intensity
27	4
28	3
29	1
30	1
32	2
38	1
39	21
40	2
41	8
43	1
44	2
45	2
50	8
51	28
52	8
53	5
55	1
57	1
62	3
63	12
64	4
65	85
66	5
67	3
69	1
71	1
74	2
75	2
76	5
77	66
78	23
79	139
80	11
81	1
83	1
89	16
90	8
91	284
92	78
93	16
94	1
95	1
97	1
103	4
104	55
105	27
106	999
107	105
108	13
109	1
111	2
118	2
119	1
120	2
121	1
122	1
123	1
124	3
138	1
139	42
140	6
141	2
149	1
152	2
153	1
154	1
155	36
156	6
157	34
158	3
159	1
165	4
166	2
167	2
168	1
178	2
179	2
180	2
181	1
182	1
184	1
194	1
195	1
196	8
197	2
259	2
260	3
261	5
262	1
