Mass Spectrum: 2H-1,2-Oxazine, tetrahydro-2-methyl-6-(3-pyridinyl)-, (-)-
Formula: C10H14N2O
CAS: 15769-88-7
Molecular weight: 178
m/z	intensity
60	883
63	27
65	50
70	36
77	41
78	104
79	36
84	126
91	41
92	54
93	27
104	45
105	41
106	45
117	90
118	576
119	999
120	99
130	36
132	36
133	41
146	18
158	18
159	14
161	18
178	135
179	28
