Mass Spectrum: 2H-1,2-Oxazine, tetrahydro-2-methyl-6-phenyl-
Formula: C11H15NO
CAS: 15769-89-8
Molecular weight: 177
m/z	intensity
39	20
41	10
42	90
43	30
51	40
60	999
61	25
77	45
78	15
91	45
103	10
104	11
105	10
115	15
116	10
117	30
118	20
129	6
130	2
131	5
158	10
159	7
160	5
177	50
