Mass Spectrum: 2-Octenoic acid, cis-
Formula: C8H14O2
CAS: 1577-96-4
Molecular weight: 142
m/z	intensity
41	999
42	191
43	629
44	34
45	294
46	6
47	4
49	4
50	33
51	72
52	43
53	218
54	282
55	730
56	343
57	256
58	81
59	19
60	107
61	17
62	6
63	14
64	4
65	47
66	29
67	376
68	93
69	94
70	57
71	194
72	19
73	83
74	19
77	22
78	5
79	28
80	17
81	106
82	447
83	176
84	17
85	20
86	21
87	91
88	7
91	5
93	5
95	49
96	205
97	42
98	5
99	56
100	87
101	15
106	9
109	13
113	32
114	6
124	196
125	20
127	5
142	20
