Mass Spectrum: Carbamate, N-(2,2-diethoxyethyl)-, methyl ester
Formula: C8H17NO4
CAS: 157733-23-8
Molecular weight: 191
m/z	intensity
26	31
27	239
28	147
29	414
30	188
31	97
33	34
39	6
40	9
41	23
42	143
43	111
44	327
45	92
46	6
47	833
48	12
49	4
51	2
54	3
55	5
56	46
57	13
58	133
59	246
60	29
61	19
62	2
67	2
68	2
69	4
70	8
71	13
72	30
73	9
74	126
75	557
76	22
77	5
84	2
85	9
86	294
87	15
88	256
89	56
90	4
91	5
100	136
101	15
102	21
103	999
104	61
105	7
113	2
114	111
115	8
116	15
117	8
118	53
119	4
132	4
141	3
142	1
145	8
146	290
147	23
148	3
149	5
160	15
161	1
