Mass Spectrum: 3-Octenoic acid
Formula: C8H14O2
CAS: 1577-19-1
Molecular weight: 142
m/z	intensity
10	4
11	21
12	15
13	3
14	20
15	65
16	4
18	42
19	4
25	4
26	74
27	659
28	133
29	439
30	7
31	75
36	12
37	9
38	73
39	657
40	144
41	999
42	216
43	596
44	51
45	378
46	3
50	43
51	100
52	52
53	260
54	352
55	853
56	427
57	315
58	104
59	33
60	176
61	25
63	10
65	70
66	35
67	495
68	115
69	137
70	77
71	248
72	38
73	20
77	29
79	52
80	30
81	149
82	580
83	242
84	19
85	25
86	20
87	145
95	85
96	299
97	68
99	77
100	132
101	13
109	30
113	55
124	355
125	40
142	4
