Mass Spectrum: 2-Adamantanecarboxylic acid, 4,8-dioxo-, isopropyl ester
Formula: C14H18O4
CAS: 15782-81-7
Molecular weight: 250
m/z	intensity
40	68
41	497
42	54
43	999
51	54
53	116
55	265
57	95
65	102
66	95
67	109
68	88
77	184
78	88
79	646
80	82
81	54
82	61
86	741
91	238
92	82
94	129
95	537
96	286
105	109
106	61
107	524
108	143
117	102
118	129
121	68
123	82
128	224
133	61
134	259
135	306
136	95
138	75
139	61
145	61
146	82
162	354
163	612
164	143
180	177
190	388
191	204
208	558
209	95
222	156
250	878
251	143
