Mass Spectrum: Bicyclo[2.2.1]heptane-2-carboxaldehyde, 3-methyl-, (2-endo,3-exo)-
Formula: C9H14O
CAS: 15780-36-6
Molecular weight: 138
m/z	intensity
41	266
42	18
43	60
51	30
52	6
53	84
54	21
55	175
56	12
57	21
65	42
66	60
67	787
68	81
69	48
70	78
71	218
72	12
77	54
78	18
79	115
80	39
81	175
82	18
83	15
84	12
85	9
91	39
92	9
93	30
94	115
95	69
97	24
105	21
107	21
109	999
110	145
120	24
123	24
138	45
