Mass Spectrum: Butanethioic acid, 3-oxo-, S-butyl ester
Formula: C8H14O2S
CAS: 15780-63-9
Molecular weight: 174
m/z	intensity
27	80
28	20
29	80
39	40
41	130
43	650
55	50
56	200
57	80
61	40
69	70
84	100
85	999
86	50
90	100
118	20
174	130
175	12
176	6
