Mass Spectrum: 2-Butenoic acid, 2-bromo-3-methyl-
Formula: C5H7BrO2
CAS: 1578-14-9
Molecular weight: 178
m/z	intensity
25	6
26	54
27	433
28	70
29	191
30	6
31	35
36	7
37	64
38	117
39	413
40	40
41	139
42	61
43	243
44	18
45	104
46	4
48	6
49	34
50	108
51	162
52	70
53	999
54	85
55	131
56	13
57	20
58	10
59	394
60	29
63	2
65	4
66	48
67	122
68	9
69	39
70	21
71	52
72	5
77	5
79	15
80	12
81	57
82	13
83	24
84	29
85	67
86	4
91	7
92	3
93	16
94	4
95	11
97	15
98	6
99	86
100	7
104	4
105	16
106	6
107	33
108	4
109	20
110	5
116	5
117	16
118	8
119	22
120	272
121	15
122	267
123	8
130	5
131	8
132	87
133	52
134	101
135	60
136	14
137	16
138	4
140	6
160	406
161	86
162	407
163	86
164	12
178	579
179	80
180	555
181	80
182	6
