Mass Spectrum: Acetoacetic acid, 1-ethylcyclohexyl ester
Formula: C12H20O3
CAS: 15780-56-0
Molecular weight: 212
m/z	intensity
27	176
28	21
29	260
30	21
39	113
40	21
41	245
42	47
43	926
44	152
45	13
53	76
54	47
55	184
56	41
57	291
58	43
59	17
67	141
68	21
69	358
70	17
71	50
72	184
73	15
77	69
78	10
79	130
80	13
81	826
82	123
83	15
84	282
85	908
86	100
98	43
99	999
100	141
110	158
111	132
112	17
128	82
142	43
