Mass Spectrum: Acetoacetic acid, 1-thio-, S-sec-butyl ester
Formula: C8H14O2S
CAS: 15780-64-0
Molecular weight: 174
m/z	intensity
27	60
28	90
29	110
39	40
41	130
43	659
56	80
57	200
58	70
61	100
69	70
84	90
85	999
86	50
89	50
90	100
118	80
119	50
146	40
174	180
