Mass Spectrum: Butanethioic acid, 3-oxo-, S-(1-methylethyl) ester
Formula: C7H12O2S
CAS: 15780-62-8
Molecular weight: 160
m/z	intensity
27	57
28	102
39	42
40	10
41	85
42	25
43	863
44	32
45	14
57	46
58	19
61	38
69	70
70	8
74	17
75	32
76	138
77	19
84	44
85	999
86	66
118	44
119	4
132	85
133	6
134	2
160	341
161	53
162	19
