Mass Spectrum: 1-Azabicyclo[2.2.2]octane, 2,5-dimethyl-
Formula: C9H17N
CAS: 15787-33-4
Molecular weight: 139
m/z	intensity
41	220
42	339
43	51
55	136
56	999
57	68
68	68
69	102
70	85
71	68
82	102
83	34
84	51
85	8
96	254
97	102
98	68
110	152
111	34
124	373
138	34
139	254
