Mass Spectrum: Acetoacetic acid, 1-thio-, S-allyl ester
Formula: C7H10O2S
CAS: 15780-65-1
Molecular weight: 158
m/z	intensity
26	280
27	390
28	110
29	100
37	200
38	300
39	799
40	150
41	639
42	200
43	999
45	559
46	40
54	90
56	90
58	90
59	110
69	260
73	130
74	70
85	140
125	30
158	20
