Mass Spectrum: Butanethioic acid, 3-oxo-, S-propyl ester
Formula: C7H12O2S
CAS: 15780-61-7
Molecular weight: 160
m/z	intensity
27	80
28	150
39	50
41	120
42	110
43	970
69	80
76	110
84	100
85	999
86	50
118	120
160	240
