Mass Spectrum: 2-Propenoic acid, 3-(4-bromophenyl)-, ethyl ester
Formula: C11H11BrO2
CAS: 15795-20-7
Molecular weight: 254
m/z	intensity
12	8
13	14
14	64
15	282
16	23
17	16
18	35
19	17
24	3
26	190
27	760
28	229
29	999
30	117
31	35
37	24
38	64
39	107
40	9
41	18
42	66
43	179
44	26
45	110
50	346
51	413
52	77
53	27
54	5
55	9
57	3
60	21
61	32
62	73
63	164
64	22
65	35
66	3
69	44
70	8
71	6
73	28
74	205
75	445
76	370
77	116
78	15
79	17
80	8
81	14
82	6
85	5
86	9
87	43
88	20
89	29
90	28
91	88
93	2
97	7
98	35
99	23
100	17
101	194
102	941
103	166
104	23
105	25
107	3
114	2
115	11
116	16
117	7
118	18
119	16
120	2
128	11
129	105
130	123
131	95
132	11
133	3
146	5
147	44
148	5
155	12
156	3
157	32
158	6
159	2
165	3
169	5
171	4
175	7
176	2
179	1
180	18
181	73
182	72
183	83
184	50
185	17
186	2
187	4
193	1
195	2
196	1
197	2
198	3
199	2
200	4
201	1
202	2
209	166
210	26
211	172
212	18
213	3
215	1
225	14
226	42
227	17
228	37
229	4
236	1
238	1
239	2
241	2
254	58
255	10
256	52
257	8
258	1
