Mass Spectrum: 2-Butenal, (Z)-
Formula: C4H6O
CAS: 15798-64-8
Molecular weight: 70
m/z	intensity
14	18
15	62
17	18
18	23
25	23
26	98
27	205
29	194
31	208
32	10
36	10
37	105
38	155
39	873
40	145
41	118
42	176
43	36
44	52
45	18
46	13
49	16
50	42
52	16
53	10
68	26
69	459
70	999
71	67
