Mass Spectrum: 2,2-Dimethyl-5-(4-methoxyphenyl)methylene-1,3-dioxan-4,6-dione
Formula: C14H14O5
CAS: 15795-54-7
Molecular weight: 262
m/z	intensity
12	7
13	4
14	29
15	332
16	19
17	62
18	235
25	2
26	25
27	105
28	72
29	80
30	5
31	23
32	4
37	13
38	35
39	285
40	18
41	51
42	64
43	999
44	62
45	21
49	5
50	82
51	165
52	26
53	89
54	8
55	18
56	4
57	18
58	23
59	27
60	8
61	27
62	169
63	470
64	55
65	38
66	10
67	4
68	2
69	21
70	4
71	5
73	7
74	71
75	125
76	42
77	106
78	41
79	25
80	4
81	4
82	2
83	4
84	3
85	5
86	17
87	36
88	72
89	741
90	108
91	60
92	26
93	11
94	9
95	3
97	3
98	12
99	9
100	6
101	61
102	91
103	46
104	21
105	38
106	9
107	8
108	26
109	17
110	2
112	2
115	6
116	40
117	699
118	84
119	33
120	86
121	18
122	3
128	2
129	8
130	52
131	45
132	130
133	77
134	11
135	16
136	31
137	44
138	4
143	2
144	22
145	688
146	69
147	8
148	345
149	41
150	5
152	2
155	7
156	1
157	1
159	49
160	865
161	131
162	12
163	2
171	1
172	1
173	20
174	4
175	3
176	321
177	40
178	7
179	1
187	2
189	7
193	1
203	19
204	368
205	173
206	23
207	3
221	3
247	9
248	1
262	122
263	19
264	3
265	0
