Mass Spectrum: p-Phenylenediamine, N,N'-bis(N-anilinomethylene)-
Formula: C20H18N4
CAS: 157982-83-7
Molecular weight: 314
m/z	intensity
34	0
35	0
36	2
37	4
38	13
39	69
40	13
41	22
42	7
43	10
44	6
45	4
46	1
47	1
49	1
50	33
51	154
52	34
53	21
54	14
55	10
56	3
57	8
58	1
59	2
60	3
61	2
62	6
63	29
64	33
65	131
66	129
67	19
68	2
69	5
70	1
71	3
72	3
73	4
74	7
75	14
76	33
77	451
78	47
79	10
80	58
81	24
82	3
83	3
84	2
85	2
86	1
87	1
88	2
89	3
90	17
91	40
92	114
93	999
94	85
95	4
96	1
97	3
98	4
99	1
100	1
101	1
102	22
103	11
104	140
105	25
106	7
107	86
108	498
109	36
110	1
111	1
113	1
114	0
115	4
116	2
117	5
118	64
119	92
120	8
121	2
122	5
123	0
125	0
126	0
127	2
128	2
129	6
130	2
131	0
132	2
133	2
134	1
135	0
136	3
139	3
140	2
141	2
142	0
143	1
144	0
147	0
148	0
151	1
152	0
153	1
154	3
155	1
156	1
157	4
164	1
165	0
166	7
167	9
168	4
169	2
178	1
179	0
181	1
182	2
183	1
184	2
185	0
192	2
193	8
194	5
195	22
196	35
197	4
208	1
209	3
210	25
211	77
212	11
213	1
220	12
221	8
222	12
223	1
239	1
267	0
312	0
313	12
314	197
315	46
316	5
