Mass Spectrum: 2-Pentenoic acid, 4-methyl-, ethyl ester, (Z)-
Formula: C8H14O2
CAS: 15790-85-9
Molecular weight: 142
m/z	intensity
43	620
56	350
59	730
67	340
69	870
71	170
73	140
81	220
97	999
99	390
114	640
127	20
142	400
