Mass Spectrum: 1H-1,2,4-Triazol-5-amine, 1-methyl-
Formula: C3H6N4
CAS: 15795-39-8
Molecular weight: 98
m/z	intensity
26	10
27	100
28	430
29	40
30	15
41	20
42	40
43	509
44	20
53	20
54	25
55	65
56	305
57	15
70	25
71	10
97	80
98	999
99	55
