Mass Spectrum: 2-Pentenoic acid, methyl ester, (E)-
Formula: C6H10O2
CAS: 15790-88-2
Molecular weight: 114
m/z	intensity
24	0
25	0
26	120
27	547
28	36
29	580
30	19
31	72
33	3
35	0
36	2
37	26
38	55
39	380
40	59
41	118
42	43
43	149
44	9
45	32
46	0
47	0
48	1
49	13
50	53
51	65
52	29
53	194
54	162
55	966
56	51
57	28
58	8
59	319
60	9
61	2
63	1
65	2
66	4
67	4
68	23
69	16
70	2
71	62
72	55
73	6
74	17
75	1
77	1
79	1
80	2
81	57
82	176
83	999
84	58
85	64
86	5
87	16
88	1
91	0
95	0
97	14
98	1
99	42
100	3
101	0
105	0
111	0
112	1
113	50
114	555
115	38
116	4
