Mass Spectrum: Maloic acid, [p-(dimethylamino)benzilidene]-, cyclic isopropylidene ester
Formula: C15H17NO4
CAS: 15795-57-0
Molecular weight: 275
m/z	intensity
34	0
35	3
37	4
38	19
39	108
40	21
41	71
42	136
43	999
44	33
45	18
47	1
49	1
50	13
51	26
52	7
53	44
54	4
55	7
56	1
57	6
58	22
59	70
60	2
61	2
62	11
63	25
64	7
65	8
66	6
67	1
68	4
69	5
70	0
71	1
72	8
73	1
74	17
75	41
76	18
77	28
78	9
79	4
80	1
81	1
82	1
86	2
87	9
88	10
89	21
90	9
91	12
92	4
93	2
95	1
97	0
98	4
99	2
100	5
101	72
102	44
103	19
104	6
105	3
106	1
107	0
108	2
112	0
114	6
115	23
116	12
117	11
118	13
119	5
120	4
121	3
122	1
127	5
128	78
129	86
130	26
131	5
132	9
133	2
134	2
136	0
140	0
141	1
142	6
143	20
144	285
145	58
146	8
148	3
149	2
152	0
156	9
157	13
158	13
159	4
160	3
161	4
162	0
170	1
172	328
173	268
174	33
175	4
187	0
188	4
189	26
190	3
191	0
192	0
216	1
217	2
218	29
219	2
230	1
234	2
235	0
237	0
260	2
269	0
273	0
274	1
275	95
276	17
277	1
