Mass Spectrum: 1H-Inden-1-one, 2-(acetyloxy)-2,3-dihydro-
Formula: C11H10O3
CAS: 1579-15-3
Molecular weight: 190
m/z	intensity
25	1
26	8
27	33
28	50
29	31
30	0
31	2
33	0
34	0
37	9
38	23
39	96
40	11
41	17
42	27
43	893
44	26
45	77
46	0
47	0
49	7
50	93
51	167
52	32
53	10
54	0
55	4
57	0
58	0
59	0
60	52
61	12
62	35
63	95
64	28
65	115
66	9
70	1
71	0
73	6
74	46
75	49
76	86
77	160
78	77
79	7
80	0
81	0
82	0
84	0
85	2
86	6
87	8
88	4
89	86
90	78
91	535
92	46
93	2
96	2
97	2
98	6
99	2
100	0
101	16
102	119
103	152
104	192
105	46
106	3
113	0
114	0
115	14
116	12
117	3
118	25
119	818
120	102
121	7
128	1
129	10
130	999
131	163
132	190
133	22
134	1
145	1
146	3
147	116
148	103
149	11
150	0
174	0
