Mass Spectrum: O,O-Diisopropyl S-(2-acetamidoethylmercapto)phosphorodithioate
Formula: C10H22NO3PS3
CAS: 15790-98-4
Molecular weight: 331
m/z	intensity
41	122
42	160
43	999
44	597
45	296
46	34
47	39
48	14
49	3
51	1
54	3
55	6
56	9
57	10
58	20
59	99
60	263
61	21
62	3
63	9
64	112
65	18
66	11
69	2
70	3
71	2
72	149
73	4
74	60
75	35
76	172
77	26
78	33
79	10
80	5
81	58
82	6
83	2
84	8
85	2
86	481
87	50
88	22
89	3
90	3
91	12
92	8
93	5
95	1
96	21
97	15
98	10
99	239
101	5
102	4
103	3
104	2
105	3
106	7
107	9
108	30
109	43
110	5
111	5
113	3
114	48
115	50
116	11
117	21
118	505
119	74
120	37
121	5
122	2
123	3
124	2
125	86
126	2
128	19
129	1
130	6
131	3
139	5
140	1
141	14
148	3
150	13
151	49
152	5
153	5
155	0
156	5
157	5
160	15
162	4
165	2
177	2
180	3
183	7
192	7
194	3
195	5
198	3
224	2
227	0
236	3
237	7
243	0
256	6
258	2
269	6
299	1
