Mass Spectrum: 1-(2,6-Dimethyl-phenyl)-3-piperidin-1-yl-propan-1-one
Formula: C16H23NO
CAS: 158176-58-0
Molecular weight: 245
m/z	intensity
26	1
27	19
28	11
29	19
30	15
38	7
39	18
40	2
41	72
42	60
43	24
44	28
45	4
50	3
51	9
52	4
53	10
54	11
55	75
56	31
57	24
58	2
59	2
60	4
61	1
62	1
63	7
64	2
65	11
66	2
67	6
68	8
69	38
70	18
71	10
72	1
73	3
74	1
75	2
76	4
77	43
78	15
79	34
80	4
81	6
82	8
83	17
84	74
85	74
86	21
87	2
89	4
90	2
91	19
92	2
93	3
94	2
95	6
96	35
97	150
98	999
99	84
100	3
101	2
102	5
103	26
104	16
105	90
106	9
107	2
108	1
109	3
110	10
111	16
112	146
113	14
114	1
115	8
116	4
117	5
118	3
119	13
120	2
121	2
122	1
123	3
124	1
125	2
126	1
127	2
128	4
129	4
130	1
131	5
132	8
133	87
134	10
135	2
137	2
138	2
139	1
140	4
141	2
142	1
143	2
144	1
145	17
146	4
147	2
159	5
160	16
161	6
167	1
176	1
177	1
210	1
211	1
216	0
228	4
229	1
230	9
231	2
244	19
245	122
246	24
247	3
