Mass Spectrum: 1-Propanone, 2,2-dimethyl-1-phenyl-3-(1-piperidyl)-
Formula: C16H23NO
CAS: 158176-59-1
Molecular weight: 245
m/z	intensity
26	1
27	10
28	6
29	15
30	13
31	0
39	13
40	2
41	71
42	59
43	11
44	21
45	0
50	4
51	18
52	2
53	4
54	5
55	55
56	14
57	4
58	0
60	0
62	0
63	0
64	0
65	1
66	0
67	3
68	5
69	19
70	14
71	1
72	1
73	0
74	0
75	0
76	2
77	59
78	5
79	1
80	0
81	1
82	4
83	6
84	12
85	1
89	0
91	5
92	0
93	0
94	0
95	0
96	8
97	5
98	999
99	70
100	1
102	0
103	0
104	0
105	40
106	3
107	0
108	0
110	5
111	0
112	0
115	1
116	0
117	0
118	0
119	0
124	3
125	1
127	0
128	0
129	0
130	0
131	1
132	0
133	0
138	2
139	1
140	9
141	1
145	0
146	0
147	0
148	1
149	0
160	0
161	0
188	3
189	1
190	0
230	0
244	1
245	0
246	0
