Mass Spectrum: 2-Methyl-1-propanone, 1-(2,6-dimethyl-4-propoxyphenyl)-3-(1-piperidyl)-
Formula: C20H31NO2
CAS: 158176-72-8
Molecular weight: 317
m/z	intensity
26	7
27	45
28	25
29	43
30	33
31	3
39	39
40	9
41	140
42	62
43	85
44	46
45	5
50	6
51	14
52	9
53	18
54	11
55	97
56	59
57	92
58	8
59	3
60	8
61	3
62	2
63	7
64	4
65	19
66	5
67	23
68	15
69	63
70	47
71	43
72	4
73	10
74	3
75	4
76	6
77	58
78	13
79	13
80	6
81	22
82	18
83	40
84	116
85	75
86	18
87	4
88	2
89	5
90	3
91	51
92	9
93	14
94	6
95	19
96	34
97	60
98	999
99	94
100	4
101	3
102	4
103	18
104	9
105	20
106	5
107	8
108	4
109	13
110	15
111	20
112	7
113	8
115	12
116	5
117	6
118	3
119	11
120	10
121	77
122	14
123	10
124	10
125	23
126	39
127	10
128	7
129	9
130	4
131	7
132	6
133	9
134	6
135	12
136	4
137	7
138	8
139	6
140	4
141	22
142	12
143	5
144	3
145	6
146	5
147	12
148	8
149	302
150	36
151	7
152	4
153	5
154	3
155	8
156	3
157	5
158	3
159	3
160	5
161	17
162	8
163	5
164	3
165	5
166	3
167	7
168	4
169	5
170	3
171	3
172	3
173	7
174	4
175	70
176	10
177	6
178	3
179	3
180	2
181	4
182	3
183	3
184	2
185	3
186	2
187	3
188	2
189	15
190	13
191	202
192	30
193	6
194	2
195	3
196	3
197	3
198	2
202	2
203	5
204	3
205	2
206	2
210	3
211	2
213	2
215	3
217	41
218	9
219	3
220	2
221	3
222	2
223	4
229	2
231	5
232	120
233	22
234	4
302	4
316	2
317	11
318	3
