Mass Spectrum: 1-Propanone, 2,2-dimethyl-1-(4-methylphenyl)-3-(1-piperidyl)-
Formula: C17H25NO
CAS: 158176-64-8
Molecular weight: 259
m/z	intensity
26	0
27	5
28	5
29	8
30	9
31	0
39	9
40	1
41	60
42	40
43	7
44	19
45	0
50	0
51	1
52	0
53	2
54	2
55	49
56	8
57	4
58	0
59	0
60	0
61	0
62	0
63	2
64	0
65	13
66	1
67	2
68	3
69	16
70	12
71	2
72	0
73	0
74	0
75	0
76	0
77	1
78	0
79	0
80	0
81	1
82	3
83	5
84	8
85	1
86	0
87	0
88	0
89	2
90	1
91	37
92	2
93	1
94	0
95	0
96	7
97	5
98	999
99	70
100	1
101	0
102	0
103	0
104	0
105	2
106	0
107	0
108	0
109	0
110	3
111	0
112	0
113	0
114	0
115	1
116	0
117	0
118	0
119	32
120	2
121	0
122	0
123	0
124	2
125	1
126	0
127	0
128	0
129	0
130	0
131	0
132	0
133	0
134	0
135	0
136	0
137	0
138	1
139	1
140	6
141	0
142	0
143	0
144	0
145	1
146	0
160	0
161	0
162	1
163	0
165	0
167	0
173	0
175	0
176	0
200	0
202	2
203	0
204	0
242	0
244	0
256	0
257	0
258	0
259	0
260	0
