Mass Spectrum: 1,4-Pentadiyn-3-ol, 1,5-diphenyl-
Formula: C17H12O
CAS: 15814-32-1
Molecular weight: 232
m/z	intensity
27	41
28	18
29	25
37	11
38	26
39	115
40	10
49	9
50	108
51	182
52	72
53	27
61	17
62	72
63	153
64	18
65	19
73	14
74	114
75	173
76	134
77	183
78	32
81	11
85	16
86	50
87	66
88	61
89	82
94	15
98	41
99	30
100	30
101	139
102	999
103	109
104	8
105	44
106	16
107	15
108	8
109	9
110	29
111	29
112	12
113	27
114	20
115	19
122	23
123	10
125	13
126	112
127	51
128	14
129	328
130	67
131	9
134	19
135	9
137	22
138	25
139	23
149	8
150	47
151	21
152	17
153	11
155	73
156	8
161	14
162	20
163	45
164	10
165	21
174	25
175	13
176	40
177	14
178	34
179	13
185	8
186	9
187	40
188	20
189	52
190	10
199	11
200	70
201	97
202	571
203	606
204	303
205	44
211	22
212	17
213	116
214	37
215	256
216	53
230	23
231	390
232	345
233	65
