Mass Spectrum: .alpha.-D-Mannopyranoside, methyl 3,6-anhydro-
Formula: C7H12O5
CAS: 15814-56-9
Molecular weight: 176
m/z	intensity
27	607
28	595
29	738
30	178
31	607
32	202
33	59
36	220
39	404
40	202
41	654
42	547
43	999
44	821
45	416
55	547
56	238
57	714
60	404
61	238
69	476
73	238
74	226
85	68
97	282
102	68
115	119
145	39
