Mass Spectrum: Benzenepropanoic acid, 2-propenyl ester
Formula: C12H14O2
CAS: 15814-45-6
Molecular weight: 190
m/z	intensity
26	2
27	4
29	2
35	2
36	18
38	6
39	15
40	3
41	15
42	2
43	7
44	2
45	2
50	10
51	28
52	10
53	4
55	4
57	3
62	3
63	11
64	3
65	34
66	3
73	1
74	6
75	7
76	8
77	102
78	54
79	122
80	9
82	1
89	13
90	6
91	361
92	61
93	6
101	1
102	12
103	100
104	183
105	300
106	32
107	999
108	88
109	6
111	2
115	5
116	2
117	5
118	1
122	1
128	6
129	4
130	43
131	40
132	11
133	72
134	19
135	2
139	9
141	3
144	8
145	2
146	1
147	5
148	4
149	560
150	96
151	9
172	3
190	122
191	18
192	2
