Mass Spectrum: .alpha.-D-Xylofuranoside, methyl 2,3-di-O-methyl-
Formula: C8H16O5
CAS: 15821-56-4
Molecular weight: 192
m/z	intensity
45	564
55	45
57	51
59	65
61	34
69	91
71	100
73	103
75	326
85	31
87	103
88	94
99	45
101	999
102	60
111	5
115	5
117	8
129	22
132	14
161	94
