Mass Spectrum: 4-Fluorobenzoylfluoride
Formula: C7H4F2O
CAS: 1583-56-8
Molecular weight: 142
m/z	intensity
44	4
45	5
47	50
50	86
51	33
52	8
56	18
57	60
58	6
61	34
62	33
63	105
64	14
68	67
69	68
70	14
73	30
74	124
75	238
76	18
77	5
81	23
82	6
88	72
89	3
92	28
93	33
94	135
95	391
96	26
112	5
113	46
114	999
115	63
122	18
123	392
124	24
125	7
141	53
142	792
143	56
144	4
