Mass Spectrum: 2-(2-Aminophenyl)propan-2-ol
Formula: C9H13NO
CAS: 15833-00-8
Molecular weight: 151
m/z	intensity
37	26
38	91
39	349
40	89
41	119
43	579
44	31
46	50
50	81
51	145
52	134
53	64
54	44
55	15
56	3
57	6
59	60
61	74
62	49
63	144
64	114
65	474
66	163
67	29
68	62
74	25
75	39
76	51
77	143
78	46
79	36
80	20
89	70
90	77
91	429
92	291
93	185
94	174
95	9
101	4
102	10
103	16
104	17
105	23
106	80
107	16
108	56
115	40
117	289
118	999
119	264
120	166
121	12
130	43
131	5
132	677
133	779
134	99
135	5
136	299
137	28
151	620
152	62
153	3
