Mass Spectrum: Pyrimidine, 4,6-dimethoxy-5-nitro-
Formula: C6H7N3O4
CAS: 15846-14-7
Molecular weight: 185
m/z	intensity
34	64
40	999
41	219
42	435
43	268
44	443
52	41
54	242
55	94
56	56
57	49
59	34
67	155
68	53
69	45
70	257
77	90
81	56
82	397
83	98
84	68
97	34
98	102
104	109
116	37
127	72
138	200
141	34
147	30
155	484
156	37
171	41
185	121
