Mass Spectrum: 3,5-Diketo-1,6-heptadiene
Formula: C7H8O2
CAS: 15849-12-4
Molecular weight: 124
m/z	intensity
27	577
29	50
39	224
41	186
42	78
43	104
51	73
52	77
53	113
55	999
56	39
66	29
67	23
68	45
69	280
77	21
78	18
81	43
82	19
94	13
95	47
96	47
97	851
98	49
107	16
122	15
123	753
124	731
125	63
