Mass Spectrum: Benzene, 1-ethoxy-4-ethyl-
Formula: C10H14O
CAS: 1585-06-4
Molecular weight: 150
m/z	intensity
26	10
27	73
28	28
29	45
30	1
31	1
32	2
37	1
38	8
39	71
40	9
41	23
42	1
43	8
44	0
45	1
50	15
51	46
52	19
53	23
54	2
55	13
56	1
57	0
58	0
59	1
60	3
61	1
62	8
63	24
64	8
65	42
66	7
67	7
68	1
69	0
71	0
73	0
74	3
75	4
76	4
77	137
78	40
79	30
80	2
81	4
82	0
84	0
85	2
86	1
87	0
88	0
89	12
90	7
91	54
92	8
93	18
94	13
95	2
96	0
97	0
98	0
99	1
100	1
101	1
102	3
103	22
104	5
105	15
106	6
107	999
108	78
109	4
110	0
115	0
118	1
119	5
120	11
121	43
122	94
123	7
124	0
129	0
132	0
133	2
134	4
135	281
136	29
137	2
147	0
148	1
149	10
150	361
151	40
152	3
