Mass Spectrum: Talopyranoside, methyl 4-acetamido-4,6-dideoxy-, .alpha.-D-
Formula: C9H17NO5
CAS: 15856-46-9
Molecular weight: 219
m/z	intensity
41	142
42	171
43	999
44	107
45	196
55	71
56	278
57	507
58	257
59	792
60	792
61	107
70	100
71	100
72	71
73	142
74	599
75	107
82	100
83	42
84	107
85	42
86	214
87	214
88	71
98	89
99	457
100	178
101	457
102	599
105	7
114	71
115	160
125	10
128	107
135	17
142	53
146	678
155	7
159	35
165	10
170	35
175	10
185	7
188	135
