Mass Spectrum: Bis(succinimido)methanone
Formula: C9H8N2O5
CAS: 158627-30-6
Molecular weight: 224
m/z	intensity
32	218
39	31
41	84
42	46
43	81
44	42
55	999
56	578
57	68
67	32
69	64
70	528
81	40
83	82
95	31
98	79
99	45
100	64
125	51
126	798
127	47
169	199
224	234
