Mass Spectrum: Rimonabant - from sample
Formula: C22H21Cl3N4O
CAS: 158681-13-1
Molecular weight: 462
m/z	intensity
40	24
41	147
42	118
43	50
44	54
45	44
50	19
51	25
52	19
53	21
54	68
55	465
56	81
57	61
58	1
63	8
67	10
68	12
69	6
70	19
71	5
73	3
74	19
75	60
76	16
77	18
80	11
81	2
82	76
83	228
84	999
85	95
86	2
87	3
88	4
89	2
97	2
98	7
99	228
100	28
101	41
102	33
103	5
109	80
110	19
111	105
112	13
113	38
114	24
115	23
123	1
124	12
125	22
126	18
127	20
128	44
129	12
130	2
132	2
133	5
136	10
137	56
138	31
139	21
140	41
141	7
145	84
146	11
147	59
148	2
149	24
150	16
151	10
152	1
160	9
161	2
162	8
163	20
164	51
165	7
166	16
171	8
172	6
173	1
174	15
175	4
176	10
177	8
180	2
186	2
189	9
191	2
198	1
202	1
207	2
211	3
229	14
230	2
238	4
239	3
248	2
263	18
264	8
265	25
266	5
267	5
274	1
281	1
282	81
283	8
284	71
285	9
286	27
291	11
292	3
299	60
300	37
301	50
302	25
303	6
326	6
327	23
328	11
329	14
330	2
333	1
334	33
335	54
336	36
337	54
338	13
339	13
361	13
362	79
363	156
364	103
365	140
366	46
367	44
368	4
379	37
380	27
381	43
382	23
383	15
384	3
418	1
