Mass Spectrum: 4,5-Dihydro-N-(p-methoxyphenyl)-3-furamide
Formula: C12H13NO3
CAS: 158725-14-5
Molecular weight: 219
m/z	intensity
15	2
26	1
27	3
28	5
29	6
37	1
38	4
39	42
40	6
41	105
42	5
43	3
50	3
51	9
52	18
53	14
54	2
55	3
57	1
62	2
63	8
64	9
65	8
66	2
67	5
68	4
69	95
70	4
71	1
75	1
76	2
77	8
78	8
79	8
80	12
81	3
90	2
91	3
92	7
93	2
95	35
96	3
97	999
98	55
99	6
103	1
104	1
106	5
107	5
108	31
109	4
117	1
118	1
119	1
120	1
121	1
122	28
123	27
124	8
125	1
130	1
132	1
133	1
134	10
135	2
136	6
146	1
147	1
149	7
150	1
160	2
161	1
162	2
174	2
175	1
176	1
189	1
190	2
191	1
217	4
218	5
219	426
220	59
221	7
