Mass Spectrum: 1,4-Dioxane-2,3-diol, diacetate
Formula: C8H12O6
CAS: 15874-26-7
Molecular weight: 204
m/z	intensity
26	5
27	23
28	7
29	69
30	17
31	19
33	1
37	0
39	0
41	3
42	32
43	999
44	25
45	73
46	1
47	2
55	0
56	0
57	2
58	5
59	1
60	3
61	6
63	0
70	0
71	3
72	1
73	77
74	4
75	0
84	0
85	0
86	8
87	23
88	1
89	0
101	2
102	9
103	70
104	3
105	0
117	0
120	0
144	0
145	45
146	2
147	0
161	29
162	1
