Mass Spectrum: Benzene, 1-chloro-2-(2-propenyl)-
Formula: C9H9Cl
CAS: 1587-07-1
Molecular weight: 152
m/z	intensity
27	36
29	0
31	0
35	1
36	2
37	14
38	26
39	139
40	8
41	14
42	0
43	4
44	2
45	2
47	1
48	1
49	9
50	63
51	76
52	12
53	3
54	0
55	3
56	4
57	49
58	60
59	0
60	3
61	20
62	49
63	138
64	21
65	50
66	1
67	0
68	0
69	0
70	1
71	2
72	3
73	29
74	36
75	65
76	17
77	31
78	7
79	0
81	0
83	0
84	5
85	13
86	19
87	25
88	13
89	161
90	33
91	141
92	11
93	0
95	0
96	1
97	5
98	3
99	33
100	4
101	18
102	19
103	2
104	0
105	0
108	0
109	1
110	2
111	3
112	11
113	19
114	25
115	571
116	167
117	999
118	101
119	3
121	0
123	3
124	1
125	108
126	8
127	34
128	2
136	3
137	8
138	2
139	3
149	7
150	1
151	17
152	367
153	42
154	117
155	11
156	0
