Mass Spectrum: Chloralose
Formula: C8H11Cl3O6
CAS: 15879-93-3
Molecular weight: 308
m/z	intensity
15	11
18	12
19	31
25	4
26	12
27	89
28	32
29	355
30	35
31	343
32	6
35	20
36	25
37	14
38	20
39	79
40	24
41	150
42	109
43	403
44	149
45	193
46	10
47	72
48	46
49	52
50	21
51	18
52	2
53	38
54	50
55	151
56	63
57	242
58	45
59	99
60	289
61	392
62	17
63	21
65	17
66	2
67	20
68	38
69	159
70	29
71	999
72	217
73	870
74	81
75	30
76	34
77	30
78	15
79	20
80	5
81	54
82	98
83	237
84	137
85	515
86	59
87	39
88	12
89	37
90	4
91	282
92	14
93	19
94	3
95	51
96	31
97	107
98	34
99	78
100	23
101	147
102	47
103	47
104	7
105	7
107	7
108	1
109	52
110	30
111	94
112	100
113	518
114	91
115	52
116	17
117	81
118	30
119	114
120	149
121	37
122	6
123	13
124	5
125	54
126	12
127	414
128	38
129	60
130	31
131	119
132	34
133	16
134	9
135	8
137	10
139	8
141	26
142	4
143	20
144	4
145	69
146	10
147	15
148	4
149	12
150	2
151	5
152	34
153	63
154	34
155	82
156	16
157	26
158	4
159	18
160	1
161	12
163	10
165	3
167	8
169	12
171	7
173	65
174	6
175	8
177	1
181	1
183	20
184	28
185	28
187	21
188	165
189	49
190	163
191	158
192	63
193	17
194	9
195	15
197	10
201	61
202	2
203	57
204	1
205	19
211	2
213	11
215	6
216	5
217	55
218	15
219	53
220	10
221	20
223	1
229	26
230	75
231	36
232	70
233	20
234	25
235	4
236	3
245	1
247	127
248	7
249	121
250	6
251	41
253	2
256	1
259	11
260	3
261	10
262	3
263	2
273	2
275	3
277	15
279	13
281	2
290	2
292	3
309	3
311	2
