Mass Spectrum: Malic acid, dipropyl ester
Formula: C10H18O5
CAS: 1587-17-3
Molecular weight: 218
m/z	intensity
41	120
43	442
71	310
89	999
91	129
117	98
131	571
132	109
159	198
218	10
