Mass Spectrum: 4-(2-Methoxycarbonylethyl)-4-butanolide
Formula: C8H12O4
CAS: 15889-98-2
Molecular weight: 172
m/z	intensity
36	3
38	11
39	92
40	20
41	83
42	70
43	220
44	15
51	34
53	34
54	92
56	17
57	133
60	8
67	28
68	39
69	15
70	11
71	112
72	28
74	209
75	39
81	49
85	999
86	36
88	18
89	48
95	33
96	37
98	67
99	203
100	37
101	17
102	39
103	56
108	43
109	39
112	300
113	170
114	93
117	20
122	77
123	27
126	30
129	59
130	68
136	89
140	59
141	228
142	12
144	65
