Mass Spectrum: 1,3-Propanediol, dimethanesulfonate
Formula: C5H12O6S2
CAS: 15886-84-7
Molecular weight: 232
m/z	intensity
26	16
27	74
29	158
30	11
31	85
33	16
39	37
40	9
41	179
42	20
43	33
44	9
45	71
46	4
47	7
48	20
55	18
56	11
57	999
58	308
59	96
63	45
64	18
65	76
69	9
71	9
73	7
79	962
80	120
81	58
87	16
97	334
98	7
99	18
107	11
108	9
109	111
111	161
113	9
123	42
124	18
135	7
136	9
137	27
149	7
175	308
176	13
177	31
202	34
203	3
204	4
