Mass Spectrum: 2(3H)-Furanone, 3,3-dichlorodihydro-
Formula: C4H4Cl2O2
CAS: 1588-60-9
Molecular weight: 154
m/z	intensity
12	2
13	2
14	3
15	4
18	3
24	3
25	17
26	71
27	85
28	24
29	58
30	6
31	2
35	12
36	14
37	30
38	27
39	154
40	21
41	144
42	8
43	4
44	10
45	2
47	23
48	8
49	44
50	4
51	12
52	2
53	21
54	9
55	26
56	1
59	2
60	25
61	204
62	33
63	102
64	9
65	12
71	2
72	4
73	20
74	19
75	999
76	100
77	327
78	31
79	1
82	16
83	25
84	11
85	16
86	2
87	5
88	3
89	61
90	7
91	22
92	2
95	6
96	42
97	28
98	28
99	17
100	5
101	3
107	1
109	194
110	87
111	128
112	57
113	22
114	9
117	18
118	4
119	23
120	3
121	6
123	17
124	1
125	22
126	1
127	9
128	8
129	2
130	5
131	1
132	2
152	4
154	16
155	1
156	9
157	3
158	3
160	1
