Mass Spectrum: Hydrazinecarboxamide, 2-cyclohexylidene-
Formula: C7H13N3O
CAS: 1589-61-3
Molecular weight: 155
m/z	intensity
14	1
15	9
16	23
17	25
18	32
21	1
26	18
27	140
28	97
29	101
30	57
31	13
32	53
33	11
37	5
38	12
39	178
40	45
41	470
42	317
43	270
44	185
45	36
46	3
49	1
50	12
51	28
52	30
53	111
54	549
55	710
56	148
57	41
58	100
59	7
60	7
61	157
62	5
63	7
64	6
65	37
66	50
67	439
68	126
69	294
70	36
71	60
72	7
73	4
74	13
75	7
76	8
77	41
78	19
79	80
80	93
81	210
82	74
83	237
84	315
85	30
86	4
87	155
88	30
89	1
90	1
91	4
92	11
93	62
94	159
95	209
96	268
97	96
98	10
99	57
100	8
101	7
102	87
103	5
104	1
105	2
106	2
107	1
108	4
109	32
110	29
111	331
112	999
113	177
114	14
115	1
117	1
118	6
119	2
120	1
121	1
122	1
123	3
124	1
125	1
126	22
127	17
128	1
132	1
133	9
134	6
135	3
136	6
137	50
138	129
139	29
140	9
141	1
153	1
154	38
155	799
156	103
157	7
