Mass Spectrum: N-Acetyl-2-aminovaleric acid
Formula: C7H13NO3
CAS: 15891-50-6
Molecular weight: 159
m/z	intensity
14	11
15	76
26	16
27	104
28	210
29	50
30	239
31	8
32	2
38	8
39	55
40	24
41	104
42	87
43	585
44	137
45	26
46	12
50	2
51	4
52	4
53	10
54	16
55	68
56	72
57	68
58	7
59	12
60	104
61	4
66	1
67	3
68	37
69	9
70	62
71	34
72	999
73	63
74	226
75	27
76	1
81	3
82	15
83	13
84	17
85	61
86	47
87	6
88	31
89	1
94	1
95	1
96	2
97	6
98	12
99	146
100	22
101	14
102	6
112	23
113	20
114	338
115	68
116	30
117	142
118	10
119	1
130	6
131	1
140	6
141	3
143	2
159	66
160	22
