Mass Spectrum: 1,8-Nonadien-3-ol
Formula: C9H16O
CAS: 159010-02-3
Molecular weight: 140
m/z	intensity
41	284
42	77
43	119
44	81
45	22
47	55
48	27
49	245
50	20
51	95
52	13
53	84
54	105
55	286
56	119
57	999
58	66
59	7
60	1
61	0
62	3
63	6
64	2
65	21
66	19
67	152
68	137
69	80
70	66
71	27
72	58
73	31
74	3
75	1
76	0
77	24
78	13
79	125
80	132
81	115
82	30
83	149
84	256
85	56
86	146
87	3
88	25
89	2
90	0
91	16
92	4
93	108
94	73
95	24
96	23
97	46
98	35
99	6
100	1
101	1
102	1
103	1
104	0
105	5
106	0
107	54
108	5
109	9
110	1
111	45
112	9
113	2
114	1
115	3
116	0
117	3
118	2
119	1
120	0
121	5
122	7
123	1
124	1
125	6
126	1
127	0
128	1
129	0
130	1
131	1
132	0
133	1
134	1
135	0
136	1
137	0
138	0
139	2
140	1
141	2
142	0
143	0
