Mass Spectrum: 1(2H)-Naphthalenone, 3,4-dihydro-2-methyl-
Formula: C11H12O
CAS: 1590-08-5
Molecular weight: 160
m/z	intensity
25	1
26	19
27	112
28	20
29	43
30	2
31	2
37	7
38	29
39	176
40	28
41	69
42	35
43	17
44	11
45	6
46	2
47	0
48	2
49	4
50	87
51	158
52	32
53	35
54	5
55	22
56	4
57	9
58	10
59	3
60	1
61	10
62	54
63	173
64	72
65	78
66	10
67	3
68	3
69	5
70	3
71	4
72	2
73	6
74	41
75	49
76	49
77	139
78	42
79	12
80	2
81	4
82	2
83	2
84	2
85	5
86	11
87	21
88	24
89	275
90	614
91	165
92	12
93	2
94	1
95	2
96	1
97	2
98	6
99	3
100	1
101	11
102	42
103	77
104	31
105	14
106	3
107	2
108	2
109	1
110	1
111	2
112	2
113	5
114	8
115	129
116	58
117	82
118	999
119	107
120	9
121	1
122	2
123	1
124	1
125	2
126	7
127	33
128	52
129	37
130	22
131	252
132	102
133	13
134	3
135	1
136	1
137	1
138	1
139	2
140	2
141	11
142	26
143	12
144	8
145	229
146	45
147	5
156	0
157	2
158	3
159	34
160	534
161	70
162	6
