Mass Spectrum: 6-Nonadecyltetrahydro-2H-pyran-2-one
Formula: C24H46O2
CAS: 159190-68-8
Molecular weight: 366
m/z	intensity
27	17
29	69
39	29
41	363
42	235
43	622
44	36
53	23
54	101
55	714
56	240
57	582
58	33
67	180
68	197
69	570
70	507
71	597
72	31
73	93
80	26
82	202
83	502
84	248
85	173
86	40
87	29
96	201
97	513
98	201
99	999
100	93
101	43
110	126
111	296
112	97
113	59
114	343
124	83
125	152
126	52
127	67
134	40
137	56
138	56
139	48
140	26
151	49
152	39
153	32
154	24
165	32
166	17
167	17
168	17
179	28
180	15
181	17
193	17
194	23
221	17
222	20
235	26
236	21
249	20
250	28
252	12
263	22
264	32
265	14
277	26
278	12
291	20
292	15
295	11
304	96
305	50
306	31
307	11
319	12
320	8
323	14
330	27
331	6
348	195
349	51
350	8
366	49
367	7
