Mass Spectrum: 4-Nonene, 5-methyl-
Formula: C10H20
CAS: 15918-07-7
Molecular weight: 140
m/z	intensity
24	2
26	8
27	191
28	36
29	212
31	0
32	2
33	0
34	0
38	4
39	129
40	11
41	422
42	58
43	199
44	2
49	0
50	4
51	14
52	6
53	60
54	19
55	999
56	552
57	182
58	6
63	1
65	12
66	4
67	59
68	28
69	596
70	239
71	18
77	10
78	1
79	13
80	1
81	23
82	12
83	212
84	59
85	5
91	2
93	1
95	5
96	1
97	16
98	21
99	1
109	0
110	1
111	31
112	3
140	77
141	7
