Mass Spectrum: Piperazine, 1-[2-(4-chlorophenyl)-1-thioxoethyl]-4-methyl-
Formula: C13H17ClN2S
CAS: 159298-83-6
Molecular weight: 268
m/z	intensity
12	1
14	1
15	49
16	5
17	13
18	46
26	7
27	45
28	124
29	45
30	42
31	1
32	3
34	1
35	2
36	5
37	2
38	6
39	32
40	7
41	43
42	458
43	177
44	78
45	31
46	4
47	4
49	2
50	16
51	20
52	6
53	4
54	36
55	33
56	168
57	71
58	181
59	24
60	26
61	7
62	11
63	39
64	7
65	8
67	7
68	12
69	17
70	999
71	86
72	21
73	14
74	11
75	23
76	6
77	12
78	3
79	2
80	2
81	6
82	45
83	327
84	45
85	16
86	34
87	6
88	9
89	81
90	27
91	10
92	1
93	3
94	1
95	7
96	3
97	15
98	15
99	57
100	20
101	19
102	11
103	5
104	1
105	2
106	1
107	1
108	4
109	4
110	26
111	7
112	5
113	2
114	6
115	7
117	15
118	2
119	1
120	1
121	3
122	1
123	6
124	3
125	145
126	18
127	49
128	10
129	2
130	5
131	2
132	3
133	18
134	45
135	7
136	5
137	3
138	6
139	3
140	2
141	1
142	2
143	67
144	7
145	4
146	1
147	3
148	1
149	2
150	4
151	4
152	3
153	1
154	1
155	4
156	4
157	4
158	1
159	1
160	1
161	1
162	5
163	1
164	2
165	1
166	1
167	1
168	16
169	5
170	6
171	2
172	1
173	0
174	0
175	1
176	1
177	0
178	21
179	2
180	8
181	2
182	1
183	1
184	0
185	2
186	0
188	1
189	0
190	0
191	0
192	1
193	0
194	0
195	0
196	1
197	1
198	1
199	1
200	1
201	0
205	0
207	2
208	0
209	1
210	2
211	5
212	2
213	2
214	0
219	0
220	0
221	2
222	10
223	2
224	7
225	1
226	1
227	0
232	0
233	1
235	105
236	15
237	35
238	5
239	0
252	0
253	0
254	0
255	1
256	0
257	0
266	0
267	1
268	52
269	9
270	20
271	2
272	1
