Mass Spectrum: 2-(4-Bromophenyl)-1,3-di-morpholin-4-yl-prop-2-en-1-thione
Formula: C17H21BrN2O2S
CAS: 159298-76-7
Molecular weight: 396
m/z	intensity
12	14
13	6
14	25
15	210
16	38
17	219
18	816
19	43
26	50
27	369
28	999
29	462
30	184
31	127
32	25
34	8
35	12
36	8
38	13
39	79
40	26
41	299
42	368
43	349
44	156
45	577
46	30
47	35
48	12
49	8
50	46
51	77
52	33
53	25
54	215
55	206
56	219
57	156
58	67
59	87
60	115
61	31
62	29
63	63
64	25
65	31
66	21
67	29
68	30
69	110
70	79
71	105
72	82
73	46
74	41
75	113
76	62
77	83
78	29
79	27
80	49
81	25
82	47
83	42
84	58
85	79
86	339
87	122
88	75
89	119
90	41
91	34
92	19
93	53
94	47
95	22
96	18
97	22
98	61
99	34
100	211
101	218
102	254
103	67
104	29
105	22
106	16
107	53
109	12
110	14
111	14
112	30
113	53
114	135
115	244
116	135
117	43
118	22
119	17
120	62
121	21
122	39
123	16
124	39
125	14
126	43
127	119
128	248
129	129
130	142
131	30
132	50
133	59
134	77
135	19
136	12
138	9
139	27
140	59
141	87
142	70
143	66
144	46
145	75
146	127
147	150
148	34
149	17
152	9
153	27
154	93
155	109
156	73
157	46
159	224
160	77
161	31
162	16
166	9
167	69
168	148
169	285
170	62
171	77
172	94
173	129
174	162
175	41
176	14
180	49
181	62
182	81
183	57
184	39
185	35
186	86
187	55
188	23
189	13
193	86
194	27
195	93
196	33
197	25
198	39
199	70
200	53
201	87
202	25
203	10
206	13
207	22
208	33
209	27
210	26
211	18
212	19
213	19
214	23
215	9
219	9
220	18
221	39
222	23
223	47
224	14
225	45
226	79
227	41
228	81
229	19
230	29
231	38
232	37
233	17
234	25
235	17
236	31
237	19
238	22
239	14
240	14
241	12
242	8
246	14
247	43
248	59
249	67
250	45
251	33
252	26
253	34
254	27
255	35
256	13
257	6
260	6
261	6
262	8
263	8
264	14
265	14
266	29
267	16
268	19
269	6
275	5
276	106
277	375
278	228
279	420
280	143
281	61
282	31
283	10
284	21
285	5
289	4
290	6
291	12
292	14
293	14
294	12
295	9
296	4
302	4
304	4
305	10
306	5
307	10
308	12
309	87
310	741
311	235
312	723
313	154
314	50
315	8
317	4
319	8
320	5
321	4
333	4
335	4
337	5
339	4
363	917
364	170
365	922
366	160
367	19
396	321
397	73
398	351
399	73
400	25
401	4
