Mass Spectrum: 3-Benzylamino-2-(4-chlorophenyl)-1-morpholin-4-yl-prop-2-en-1-thione
Formula: C20H21ClN2OS
CAS: 159298-71-2
Molecular weight: 372
m/z	intensity
12	1
13	0
14	2
15	25
16	2
17	5
18	24
19	5
24	0
25	0
26	9
27	61
28	171
29	67
30	56
31	13
32	2
33	1
34	2
35	3
36	5
37	1
38	6
39	59
40	8
41	52
42	40
43	66
44	25
45	89
46	4
47	6
48	0
49	1
50	15
51	35
52	11
53	4
54	17
55	17
56	34
57	22
58	20
59	25
60	42
61	9
62	10
63	33
64	11
65	197
66	13
67	2
68	3
69	16
70	20
71	25
72	15
73	10
74	11
75	30
76	11
77	27
78	8
79	6
80	2
81	3
82	4
83	2
84	8
85	9
86	172
87	17
88	29
89	81
91	999
92	78
93	7
94	5
95	2
96	1
97	3
98	4
99	7
100	8
101	22
102	21
103	12
104	15
105	5
106	40
107	6
108	5
109	2
110	2
111	22
112	8
113	14
114	16
115	24
116	17
117	19
118	8
119	2
120	13
121	17
122	5
123	17
124	6
125	30
126	10
127	17
128	20
129	7
130	80
131	11
132	15
133	32
134	46
135	8
136	21
137	14
138	13
139	30
140	12
141	13
142	9
143	8
144	10
145	6
146	7
147	13
148	9
149	18
150	12
151	15
152	9
153	6
154	5
155	31
156	9
157	14
158	6
159	10
160	15
161	11
162	12
163	8
164	11
165	5
166	5
167	9
168	29
169	13
170	11
171	4
172	6
173	12
174	14
175	7
176	7
177	10
178	9
179	7
180	4
181	15
182	23
183	11
184	13
185	4
186	7
187	15
188	6
189	7
190	7
191	10
192	6
193	5
194	19
195	9
196	68
197	11
198	25
199	6
200	6
201	7
202	5
203	10
204	8
205	7
206	6
207	4
208	7
209	21
210	9
211	12
212	4
213	2
214	1
215	1
216	2
217	6
218	5
219	14
220	8
221	7
222	11
223	6
224	6
225	4
226	1
227	1
228	1
229	1
230	5
231	3
232	13
233	67
234	26
235	41
236	17
237	12
238	6
239	3
240	3
241	1
242	3
243	2
244	3
245	2
246	1
247	3
248	2
249	5
250	9
251	3
252	11
253	17
254	32
255	12
256	10
257	3
258	5
259	1
260	1
261	1
264	3
265	23
266	129
267	58
268	59
269	34
270	11
271	9
272	2
273	1
274	1
278	1
279	3
280	3
281	17
282	4
283	8
284	5
285	9
286	22
287	7
288	7
289	2
290	0
293	1
294	0
295	6
296	1
297	2
298	0
299	1
300	0
301	3
302	0
303	1
304	0
309	0
311	0
313	0
314	0
327	1
328	0
329	0
337	1
339	173
340	39
341	60
342	13
343	2
344	0
370	1
372	75
373	20
374	28
375	7
376	2
