Mass Spectrum: Propanedinitrile, 2-(1-cyclohepten-1-yl)-2-(cyclopenten-3-on-1-yl)-
Formula: C15H16N2O
CAS: 159380-86-6
Molecular weight: 240
m/z	intensity
26	5
27	166
28	6
29	55
30	2
37	1
38	5
39	114
40	19
41	182
42	23
43	7
44	0
50	12
51	40
52	30
53	200
54	95
55	164
56	9
57	0
61	0
62	5
63	21
64	12
65	38
66	18
67	215
68	23
69	12
70	1
74	1
75	5
76	9
77	54
78	17
79	61
80	21
81	48
82	7
83	15
84	1
85	0
87	1
88	4
89	15
90	13
91	34
92	6
93	50
94	27
95	999
96	71
97	3
98	0
100	0
101	4
102	9
103	15
104	11
105	8
106	3
107	4
108	1
109	4
110	1
113	0
114	3
115	18
116	24
117	15
118	11
119	6
120	3
121	4
122	2
123	0
126	0
127	5
128	11
129	18
130	32
131	16
132	8
133	6
134	4
135	10
136	1
140	4
141	6
142	26
143	18
144	18
145	10
146	16
147	20
148	2
149	1
152	0
153	1
154	4
155	13
156	30
157	16
158	18
159	7
160	4
161	5
162	0
166	0
167	2
168	4
169	15
170	24
171	22
172	27
173	6
174	0
175	1
180	2
181	3
182	4
183	17
184	14
185	13
186	13
187	3
193	0
194	1
195	1
196	3
197	20
198	167
199	29
200	6
201	0
207	0
209	0
211	15
212	15
213	5
214	1
215	0
221	0
223	0
224	0
225	5
226	0
239	7
240	450
241	74
242	6
