Mass Spectrum: 2-Methyl-2-butyl methylphosphonofluoridate
Formula: C6H14FO2P
CAS: 159395-77-4
Molecular weight: 168
m/z	intensity
41	90
43	172
44	6
45	2
47	30
48	2
50	10
51	10
53	22
55	135
56	8
57	3
58	1
59	2
61	1
63	4
65	4
67	14
70	137
71	113
72	6
79	20
81	67
82	4
83	13
84	1
99	999
100	12
101	4
123	1
125	1
139	160
140	7
141	1
153	39
154	2
