Mass Spectrum: Alanine, N-acetyl-3-[4-methylphenyldithio]-
Formula: C12H15NO3S2
CAS: 159357-95-6
Molecular weight: 285
m/z	intensity
42	138
43	743
44	142
45	181
46	30
47	34
48	12
49	40
50	16
51	47
52	13
53	24
54	1
55	16
56	36
57	15
58	17
59	32
60	38
61	6
62	10
63	39
64	14
65	73
66	4
67	3
68	7
69	50
70	35
71	23
72	3
73	10
74	136
75	20
76	42
77	144
78	47
79	114
80	11
81	1
82	14
83	3
84	350
85	18
86	56
87	3
88	127
89	37
91	395
92	54
93	3
95	14
96	10
97	25
98	2
99	6
100	3
101	1
102	95
103	36
104	7
105	87
106	9
107	2
108	40
109	14
110	4
111	8
112	10
114	1
116	27
117	3
118	8
119	11
120	128
121	82
122	42
123	401
124	545
125	54
126	26
127	1
128	11
130	999
131	48
132	11
133	11
134	1
135	4
136	15
137	3
139	2
140	5
144	45
145	1
146	5
148	1
149	6
150	1
152	8
153	13
154	8
155	48
156	13
157	4
158	1
161	12
162	247
163	17
164	13
167	10
168	1
169	12
170	1
171	1
181	8
182	1
198	2
284	1
285	167
286	33
287	18
288	2
