Mass Spectrum: 2-Imidazoline, 2-methyl-1-(4-nitrophenylsulfonyl)-
Formula: C10H11N3O4S
CAS: 159350-46-6
Molecular weight: 269
m/z	intensity
33	0
34	0
37	2
38	11
39	17
40	28
41	31
42	213
43	11
44	4
45	6
46	10
48	6
50	139
51	25
52	16
53	13
54	133
55	999
56	385
57	12
58	2
60	4
61	2
62	8
63	38
64	34
65	10
66	2
67	1
68	2
69	8
70	9
71	1
72	0
73	4
74	42
75	114
76	168
77	24
78	5
79	4
80	2
81	8
83	280
84	14
86	2
87	0
88	1
89	5
90	15
91	8
92	41
93	4
95	7
96	5
97	1
98	0
102	0
103	2
104	2
105	1
106	22
107	2
108	2
109	1
110	0
111	0
112	2
113	0
115	0
116	1
117	5
118	1
120	2
122	103
123	9
124	5
125	0
126	2
127	0
128	0
129	0
130	0
131	1
132	0
134	2
135	0
136	3
137	0
139	2
140	5
141	1
142	0
147	1
148	2
149	3
150	0
151	0
152	0
154	0
155	0
156	1
157	0
158	0
163	0
164	0
165	0
167	0
170	21
171	2
172	1
176	0
181	0
182	0
184	0
186	23
187	2
188	1
189	0
198	0
199	0
204	0
215	0
222	0
223	0
227	6
228	1
229	0
239	0
243	8
244	0
245	0
253	0
267	0
268	5
269	173
270	22
271	10
272	1
