Mass Spectrum: Propanedinitrile, 2-(1-cyclohexen-1-yl)-2-(1-cyclohexen-3-on-1-yl)-
Formula: C15H16N2O
CAS: 159380-85-5
Molecular weight: 240
m/z	intensity
26	9
27	163
28	34
29	40
30	2
32	0
37	2
38	15
39	371
40	44
41	406
42	20
43	5
50	17
51	67
52	42
53	127
54	15
55	294
56	11
57	0
61	1
62	9
63	35
64	22
65	119
66	50
67	331
68	24
69	4
70	0
71	0
74	2
75	11
76	32
77	87
78	34
79	109
80	33
81	324
82	22
83	1
84	0
86	0
87	2
88	7
89	27
90	20
91	35
92	7
93	7
94	3
95	999
96	73
97	33
98	3
100	1
101	7
102	19
103	29
104	16
105	10
106	4
107	2
108	0
112	0
113	2
114	7
115	29
116	38
117	19
118	12
119	5
120	1
121	5
122	0
126	0
127	8
128	16
129	24
130	15
131	9
132	6
133	2
134	0
135	1
136	0
139	0
140	8
141	9
142	27
143	15
144	11
145	8
146	3
147	3
152	1
153	2
154	5
155	13
156	21
157	15
158	78
159	9
160	3
161	2
165	0
166	2
167	3
168	6
169	22
170	14
171	9
172	5
173	0
175	8
179	1
180	1
181	2
182	3
183	15
184	28
185	35
186	9
187	1
193	0
194	3
195	4
196	4
197	9
198	3
199	2
200	2
211	15
212	16
213	22
214	7
215	1
222	0
223	2
225	2
239	6
240	139
241	25
242	2
