Mass Spectrum: Propanedinitrile, 2-(1-cyclopenten-3-on-1-yl)-2-[4-(t-butyldimethylsilyloxy)cyclohexa-1,3-dien-1-yl]-
Formula: C20H26N2O2Si
CAS: 159380-87-7
Molecular weight: 354
m/z	intensity
27	30
29	24
31	11
39	12
40	10
41	23
43	37
44	6
45	63
46	3
47	14
51	9
52	8
53	38
54	2
55	8
56	0
57	21
58	27
59	117
60	9
61	9
63	4
65	6
66	14
67	2
69	2
70	1
72	3
73	999
74	78
75	196
76	15
77	19
78	17
79	4
81	6
82	0
83	6
84	15
85	12
86	3
89	3
90	1
91	10
94	8
95	9
97	5
98	3
99	10
100	3
101	6
102	4
103	3
105	3
107	0
109	4
111	7
113	2
114	3
115	61
116	10
117	4
121	5
123	10
125	1
126	0
127	5
128	6
129	6
130	2
135	7
136	0
137	55
138	7
139	11
140	13
141	10
142	6
143	5
149	2
151	119
152	48
153	29
154	13
155	5
156	9
157	9
158	0
166	3
167	3
168	13
169	6
170	3
171	3
172	0
175	3
176	12
177	2
178	3
179	0
180	1
181	2
184	1
185	7
186	2
187	1
194	0
195	3
196	14
197	4
198	3
199	3
200	2
201	5
202	2
203	57
204	9
205	5
209	1
210	3
212	4
213	4
214	9
215	7
216	2
217	7
223	5
224	1
226	6
227	7
228	10
229	4
230	2
231	14
232	6
233	3
238	2
239	1
240	7
241	11
242	16
243	10
244	3
252	2
253	5
254	4
255	14
256	7
257	3
267	1
268	3
269	59
270	50
271	13
272	4
273	15
274	3
279	9
280	3
281	5
282	7
283	2
286	3
289	10
290	3
295	4
297	166
298	92
299	27
300	6
312	10
313	1
326	6
327	0
328	5
339	7
340	1
354	528
355	136
356	35
357	5
