Mass Spectrum: 2,2-Bis(trifluoromethyl)aziridine
Formula: C4H3F6N
CAS: 15944-82-8
Molecular weight: 179
m/z	intensity
46	195
47	9
51	203
52	9
60	156
61	11
64	543
69	999
70	221
71	19
90	793
91	25
96	182
97	11
109	999
110	32
111	9
140	967
141	91
142	11
158	733
159	629
160	176
170	18
178	83
179	741
180	36
181	1
