Mass Spectrum: (1S,5S)-2-Methyl-5-((R)-6-methylhept-5-en-2-yl)bicyclo[3.1.0]hex-2-ene
Formula: C15H24
CAS: 159407-35-9
Molecular weight: 204
m/z	intensity
27	20
29	27
38	4
39	81
40	16
41	318
42	25
43	39
51	29
52	10
53	77
54	11
55	158
56	135
57	38
62	3
63	11
64	7
65	61
67	63
68	22
69	380
70	72
77	300
78	58
79	117
80	24
81	34
82	23
83	19
84	13
89	4
91	352
92	153
93	869
94	82
95	39
96	3
97	10
102	4
103	30
104	10
105	179
106	25
107	50
108	18
109	36
110	5
111	2
112	4
115	12
117	25
118	15
119	999
120	201
121	101
122	24
123	4
128	6
133	38
136	6
146	2
147	23
148	13
161	55
162	7
189	11
204	12
