Mass Spectrum: Benzene, 1-methyl-4-butyl
Formula: C11H16
CAS: 1595-05-7
Molecular weight: 148
m/z	intensity
15	1
26	2
27	23
28	3
29	10
38	2
39	30
40	4
41	19
42	2
43	4
50	8
51	25
52	8
53	12
54	1
55	3
57	1
58	1
61	1
62	4
63	16
64	6
65	28
66	3
74	3
75	3
76	6
77	81
78	25
79	52
80	4
86	1
87	1
88	1
89	11
90	7
91	96
92	25
93	5
101	1
102	9
103	56
104	33
105	999
106	181
107	11
117	28
118	9
119	23
120	3
132	1
133	9
134	1
146	1
147	11
148	210
149	26
150	1
