Mass Spectrum: Silane, (dichloromethylene)bis[trimethyl-
Formula: C7H18Cl2Si2
CAS: 15951-41-4
Molecular weight: 228
m/z	intensity
26	8
28	15
29	8
31	16
32	1
35	2
36	14
37	1
38	4
39	5
40	3
41	11
42	16
43	62
44	17
45	119
46	7
47	3
51	1
53	2
55	12
56	4
57	11
58	32
59	252
60	21
61	8
63	15
64	2
65	44
66	3
67	16
68	2
69	14
70	5
71	12
72	19
73	999
74	103
75	42
76	3
78	27
79	66
80	17
81	20
82	2
83	43
84	12
85	430
86	44
87	15
88	1
89	0
91	3
92	11
93	458
94	31
95	130
96	12
97	6
99	7
100	2
101	2
102	2
103	5
105	205
106	20
107	87
108	9
109	3
113	11
114	1
115	5
116	1
117	1
119	11
120	8
121	7
122	2
125	5
127	7
129	2
131	5
133	2
135	5
137	3
139	1
140	1
141	2
143	2
145	8
146	1
147	4
148	1
149	2
151	1
155	6
156	1
157	1
158	1
159	3
160	1
163	12
164	1
165	3
171	2
173	1
175	1
177	9
178	4
179	4
180	1
185	1
190	1
191	0
228	17
229	3
230	12
231	2
232	2
