Mass Spectrum: 2-Penten-4-yne, 2-methyl-
Formula: C6H8
CAS: 1595-53-5
Molecular weight: 80
m/z	intensity
37	203
38	320
39	999
40	134
41	287
42	9
43	1
50	308
51	318
52	301
53	146
54	48
55	2
61	94
62	141
63	236
65	327
66	11
67	1
73	17
74	39
75	11
77	464
79	677
80	716
81	43
