Mass Spectrum: Cyclohexane, (2-chloroethenyl)-
Formula: C8H13Cl
CAS: 15963-69-6
Molecular weight: 144
m/z	intensity
14	4
15	35
16	2
25	3
26	45
27	291
28	29
29	94
30	3
31	3
35	4
36	8
37	11
38	31
39	352
40	48
41	408
42	30
43	36
44	6
45	7
46	3
47	3
48	3
49	28
50	39
51	117
52	49
53	203
54	291
55	162
56	18
57	9
58	3
60	4
61	14
62	19
63	25
64	10
65	155
66	53
67	999
68	100
69	99
70	7
71	2
72	2
73	30
74	12
75	117
76	9
77	123
78	29
79	137
80	43
81	214
82	785
83	77
84	4
85	4
86	5
87	11
88	252
89	26
90	82
91	40
92	26
93	37
94	6
95	61
96	8
97	3
98	2
99	6
100	1
101	30
102	24
103	16
104	10
105	12
106	2
107	16
108	21
109	408
110	37
111	3
112	1
113	2
114	1
115	5
116	7
117	5
118	3
119	2
121	1
122	1
123	1
124	1
125	2
127	2
128	1
129	3
130	1
131	2
132	1
133	3
134	1
135	1
136	1
138	1
140	1
141	3
142	1
143	3
144	145
145	13
146	47
147	4
