Mass Spectrum: 14,14,14-Trifluoro-Z-11-tetradecen-1-ol acetate
Formula: C16H27F3O2
CAS: 159600-12-1
Molecular weight: 308
m/z	intensity
41	389
42	117
43	999
44	29
45	10
46	1
47	7
49	0
50	2
51	13
52	4
53	52
54	179
55	471
56	113
57	96
58	14
59	134
61	292
62	6
63	2
64	3
65	16
66	23
67	287
68	132
69	272
70	61
71	35
72	12
73	79
74	4
75	2
77	43
78	4
79	30
80	20
81	203
82	297
83	148
84	32
85	21
86	3
87	8
88	1
89	4
90	7
91	10
92	2
93	12
94	11
95	128
96	183
97	61
98	17
99	6
100	2
101	7
102	2
103	23
104	5
105	4
106	2
107	6
108	5
109	61
110	64
111	21
112	7
113	3
114	2
115	6
116	50
117	11
118	2
119	6
120	3
121	11
122	6
123	49
124	50
125	13
126	4
127	4
128	1
129	5
130	3
131	7
132	3
133	4
134	2
135	9
136	389
137	53
138	101
139	14
140	3
141	5
142	1
143	3
144	3
145	6
146	3
147	3
148	3
149	50
150	99
151	22
152	4
153	3
154	1
155	1
157	4
158	2
159	4
160	2
161	1
162	4
163	38
164	55
165	15
166	4
167	2
168	1
169	1
171	2
172	1
173	2
175	0
176	2
177	32
178	41
179	11
180	2
181	1
183	0
185	2
186	1
187	1
188	1
189	1
190	1
191	24
192	23
193	6
194	1
195	0
196	1
197	0
199	1
200	0
205	13
206	9
207	3
208	2
209	1
213	0
219	7
220	11
221	2
222	1
223	1
224	1
226	2
227	0
228	4
229	1
233	1
234	2
247	1
248	106
249	18
250	4
251	0
252	0
254	1
264	0
267	0
268	6
269	1
276	1
281	0
288	2
308	4
309	0
