Mass Spectrum: Pyridine-3-carboxylic acid, 1,2,5,6-tetrahydro-4-amino-1-benzyl-, methyl ester
Formula: C14H18N2O2
CAS: 159660-85-2
Molecular weight: 246
m/z	intensity
33	4
34	0
36	0
37	2
38	9
39	79
40	37
41	98
42	132
43	33
44	26
45	19
46	1
50	15
51	43
52	61
53	40
54	73
55	51
56	15
57	5
58	7
59	15
60	2
61	2
62	5
63	25
65	182
66	25
67	38
68	101
69	95
70	20
71	2
72	2
73	1
74	2
75	3
76	5
77	17
78	18
79	11
80	27
81	14
82	24
83	8
84	12
85	5
86	2
87	4
89	35
91	999
92	90
93	13
94	16
95	62
96	47
97	7
98	4
99	13
100	2
101	1
102	1
103	5
104	8
105	6
106	11
107	7
108	18
109	5
110	5
111	1
112	7
113	1
114	1
115	4
116	2
117	8
118	24
119	7
120	50
121	14
122	12
123	64
124	8
125	2
127	32
128	12
129	3
130	4
131	3
132	5
133	2
134	0
135	1
136	3
137	1
138	5
139	3
140	13
141	3
142	0
143	2
144	7
145	1
146	2
147	0
149	0
151	1
153	8
154	8
155	18
156	4
157	2
158	3
159	1
160	1
161	0
166	0
167	1
168	4
169	2
170	4
171	4
172	2
181	0
182	0
183	1
184	2
185	11
186	32
187	161
188	25
189	2
198	1
199	0
204	0
210	2
213	306
214	51
215	33
216	5
217	0
227	0
228	6
229	5
231	204
232	29
233	2
243	5
245	249
246	105
247	16
248	1
