Mass Spectrum: Azastreptonigrin, isopropylidene-
Formula: C28H27N5O7
CAS: 15964-31-5
Molecular weight: 545
m/z	intensity
41	404
42	246
43	440
44	999
45	75
50	73
51	189
53	317
54	95
55	510
56	206
57	389
65	77
67	176
68	157
69	454
70	181
71	234
73	72
77	386
78	584
79	172
81	334
82	233
83	570
84	245
85	252
89	77
91	215
93	152
95	357
96	157
97	440
99	196
103	75
105	82
106	215
107	84
109	209
111	308
112	70
115	191
116	154
117	92
119	70
121	88
122	78
123	80
124	214
125	92
127	73
128	92
129	170
131	93
135	185
136	87
137	77
141	164
142	99
143	128
144	82
149	204
150	72
151	70
154	73
155	116
156	96
157	108
162	80
163	106
164	209
165	100
167	82
169	118
170	128
171	105
176	98
177	296
178	98
179	87
182	84
183	228
184	269
185	106
186	70
189	70
190	124
191	352
192	103
196	87
197	117
198	168
199	100
203	91
204	244
205	218
206	287
207	75
211	106
212	264
213	224
217	87
218	136
219	430
220	105
221	99
225	78
226	103
227	136
228	103
233	103
234	96
235	512
236	125
240	75
242	91
243	72
253	69
257	87
356	78
438	157
439	72
440	240
441	75
452	78
453	73
454	340
455	91
456	196
468	304
469	221
470	433
471	186
482	170
484	259
485	100
486	360
487	84
501	277
502	69
545	317
546	72
