Mass Spectrum: Zinc, bis(2-methyl-2-propenyl)-
Formula: C8H14Zn
CAS: 15961-33-8
Molecular weight: 174
m/z	intensity
26	30
27	271
28	83
29	324
30	6
31	0
32	0
36	1
37	16
38	33
39	311
40	99
41	236
42	9
43	4
44	0
48	2
49	8
50	37
51	46
52	17
53	107
54	69
55	999
56	138
57	6
58	1
60	0
63	1
64	34
65	4
66	19
67	26
68	148
69	21
70	2
77	37
78	3
79	4
80	2
81	40
82	14
83	3
84	0
85	0
87	0
88	0
91	1
92	0
93	5
94	1
95	159
96	12
97	0
98	0
99	0
102	0
103	0
105	13
106	1
108	0
109	4
110	28
111	2
112	0
113	0
114	0
115	0
118	0
119	15
120	2
121	8
122	1
123	5
124	0
134	0
145	0
159	0
168	1
174	45
175	4
176	26
177	6
178	16
179	1
