Mass Spectrum: Butanoic acid, 3-methyl-3-[(phenylmethyl)seleno]-
Formula: C12H16O2Se
CAS: 1599-29-7
Molecular weight: 272
m/z	intensity
26	3
27	28
28	7
29	50
30	0
31	8
37	2
38	7
39	86
40	10
41	67
42	5
43	61
44	4
45	15
50	7
51	23
52	7
53	14
54	4
55	67
56	7
57	4
58	1
59	302
60	14
61	3
62	6
63	29
64	9
65	114
66	6
67	0
69	1
71	3
74	1
75	1
76	1
77	7
78	5
79	2
80	3
81	2
82	3
83	14
85	2
86	1
87	2
88	1
89	29
90	12
91	999
92	80
93	36
94	3
95	7
98	2
99	3
100	69
101	4
102	2
104	1
105	1
106	4
115	2
117	3
118	1
119	1
120	1
121	1
129	1
131	4
132	0
133	4
135	6
137	0
139	1
165	1
166	4
167	6
168	15
169	22
170	34
171	15
172	61
173	6
174	11
268	10
269	9
270	28
271	4
272	56
273	7
274	11
275	1
