Mass Spectrum: 1,3-Dioxolane, 4-methyl-2-pentyl-
Formula: C9H18O2
CAS: 1599-49-1
Molecular weight: 158
m/z	intensity
36	3
39	38
40	8
41	170
42	27
43	83
44	0
45	29
51	7
53	3
55	42
56	18
57	37
58	26
59	276
60	18
67	7
69	1
71	61
72	8
73	4
82	21
83	6
84	0
85	19
87	999
88	57
89	1
99	11
100	3
133	0
157	28
163	2
