Mass Spectrum: Henicos-1-ene
Formula: C21H42
CAS: 1599-68-4
Molecular weight: 294
m/z	intensity
26	2
27	37
29	98
30	3
37	1
39	67
40	16
41	553
42	90
43	591
44	21
53	53
54	177
55	999
56	416
57	696
58	27
65	19
66	19
67	256
68	160
69	867
70	529
71	475
72	33
77	18
79	38
80	15
81	163
82	230
83	853
84	309
85	265
86	20
95	79
96	154
97	796
98	180
99	58
109	37
110	81
111	506
112	148
113	39
114	4
123	19
124	45
125	235
126	91
127	26
136	10
137	19
138	33
139	74
140	45
141	10
152	16
153	30
154	34
155	7
166	15
167	15
168	23
180	8
181	11
182	17
183	5
184	1
194	6
195	6
196	13
201	3
208	7
209	6
210	6
222	4
223	4
224	7
236	2
238	4
250	2
251	2
252	2
266	11
267	4
294	178
295	46
296	7
