Mass Spectrum: Pregnane-3a,12a-diol-20-one diacetate
Formula: C25H38O5
CAS: 15991-93-2
Molecular weight: 418
m/z	intensity
43	999
44	15
51	1
53	21
54	15
55	93
56	12
57	10
61	36
64	1
65	20
66	4
67	121
68	17
69	39
71	47
77	55
78	18
79	186
80	19
81	148
82	11
83	32
84	20
85	43
91	171
92	25
93	139
94	35
95	100
97	6
103	16
104	10
105	173
106	35
107	115
108	30
109	65
110	11
111	18
115	18
116	11
117	65
118	26
119	100
120	36
121	84
122	20
123	20
124	4
127	5
128	14
129	44
130	25
131	135
132	39
133	77
134	19
135	68
136	37
137	29
141	19
142	8
143	62
144	42
145	143
146	35
147	120
148	31
149	58
150	17
151	23
153	4
155	17
156	5
157	60
158	22
159	85
160	19
161	68
162	13
163	13
164	4
165	4
169	19
170	12
171	52
172	17
173	63
174	30
175	17
176	7
177	4
182	1
183	24
184	14
185	30
186	15
187	33
188	39
189	37
190	26
191	11
192	3
194	2
195	5
197	24
198	14
199	48
200	13
201	17
202	12
203	21
204	2
205	16
206	4
207	6
209	18
210	1
211	12
212	7
213	55
214	32
215	25
216	14
223	13
225	25
226	11
227	34
228	31
229	9
230	5
231	58
232	16
233	5
239	11
240	27
241	25
242	15
243	19
244	26
245	8
246	4
250	1
251	2
253	14
254	10
255	368
256	101
258	3
265	19
266	7
269	7
273	7
274	3
280	30
281	10
283	132
284	26
285	6
288	3
291	8
292	3
297	25
298	368
299	101
300	12
301	6
315	64
317	7
333	1
358	89
359	31
375	20
377	2
