Mass Spectrum: Butyric acid, 3,3'-diselenobis[3-methyl-
Formula: C10H18O4Se2
CAS: 1599-27-5
Molecular weight: 362
m/z	intensity
26	10
27	200
28	51
29	437
30	12
31	9
37	7
38	15
39	321
40	39
41	476
42	46
43	681
44	28
45	143
46	1
50	9
51	21
52	9
54	121
83	4
91	3
93	9
94	1
95	6
97	9
99	6
100	10
101	999
102	59
103	9
104	4
105	10
106	3
107	21
108	4
109	7
111	3
113	1
115	31
116	1
117	4
118	3
119	7
120	7
121	12
122	4
123	3
129	3
131	7
132	4
133	15
134	1
135	26
136	3
137	7
139	3
154	3
155	1
156	12
157	6
158	21
159	7
160	25
161	4
162	10
163	4
164	3
182	4
212	3
214	4
216	6
236	3
237	1
238	7
239	4
240	18
241	12
242	32
243	9
244	35
245	7
246	12
247	1
254	7
255	3
256	15
257	9
258	29
259	15
260	40
261	6
262	40
263	4
264	10
340	3
341	3
342	3
344	6
346	7
356	4
357	3
358	15
359	9
360	28
361	4
362	28
363	1
364	10
