Mass Spectrum: Imidazole, 2-acetamino-5-methyl-
Formula: C6H9N3O
CAS: 160041-61-2
Molecular weight: 139
m/z	intensity
42	185
43	273
44	23
45	3
51	5
52	12
53	16
54	41
55	23
56	57
57	4
59	5
60	1
62	0
66	4
67	10
68	11
69	61
70	20
71	1
78	1
79	2
80	1
81	6
82	3
83	2
95	10
96	697
97	999
98	52
99	1
102	2
106	1
110	4
122	7
123	6
124	15
125	4
126	0
136	0
137	5
138	3
139	505
140	40
141	4
