Mass Spectrum: Di(tert-butyl) trisulfide, perfluoro-
Formula: C8F18S3
CAS: 16005-64-4
Molecular weight: 534
m/z	intensity
64	999
66	102
69	446
83	22
93	9
94	14
96	114
98	14
113	182
131	10
144	7
163	16
283	13
315	28
316	2
317	4
534	5
535	1
536	1
