Mass Spectrum: (2R,6R)-2-Methyl-6-nonylpiperidin-4-one
Formula: C15H29NO
CAS: 160095-43-2
Molecular weight: 239
m/z	intensity
55	35
56	22
57	17
58	15
68	20
69	33
70	311
71	22
82	19
83	33
84	34
96	19
97	10
98	15
110	13
112	999
113	77
126	101
127	12
140	22
154	10
182	35
196	27
224	13
238	14
