Mass Spectrum: Furfuryl alcohol, tetrahydro-5-methyl-, cis-
Formula: C6H12O2
CAS: 16015-08-0
Molecular weight: 116
m/z	intensity
41	330
42	40
43	360
44	130
45	130
53	10
54	10
55	110
56	140
57	300
58	10
59	10
61	20
67	170
68	10
74	10
85	999
86	50
98	10
101	10
