Mass Spectrum: 2-(2-(2-(2-(2-Methoxyethoxy)ethoxy)ethoxy)ethoxy)acetic acid
Formula: C11H22O7
CAS: 16024-66-1
Molecular weight: 266
m/z	intensity
15	10
16	1
19	3
26	3
27	20
28	54
29	111
30	11
31	130
32	2
33	4
39	1
40	1
41	16
42	29
43	135
44	59
45	807
46	20
47	3
49	1
50	1
51	2
55	1
56	3
57	60
58	336
59	999
60	41
61	25
62	1
67	1
69	4
70	20
71	14
72	28
73	52
74	5
75	53
76	3
77	9
78	1
83	1
84	1
85	2
86	8
87	121
88	27
89	132
90	7
91	2
97	1
99	6
100	7
101	34
102	183
103	689
104	36
105	11
106	1
113	1
114	2
115	6
116	3
117	11
118	1
119	35
120	2
121	4
122	3
129	1
130	1
131	12
132	2
133	49
134	4
135	1
145	4
146	26
147	40
148	3
161	2
163	13
164	1
165	3
175	1
177	6
178	1
190	1
191	2
221	6
222	1
