Mass Spectrum: Acetic acid, [2-(2-methoxyethoxy)ethoxy]-
Formula: C7H14O5
CAS: 16024-58-1
Molecular weight: 178
m/z	intensity
14	4
15	55
16	2
17	1
19	5
25	1
26	12
27	53
28	122
29	269
30	26
31	267
32	4
33	10
39	2
40	1
41	14
42	36
43	121
44	40
45	999
46	26
47	6
49	1
51	1
55	1
57	51
58	398
59	718
60	37
61	28
62	1
69	1
70	6
71	3
72	4
73	8
74	3
75	49
76	8
77	8
84	1
86	1
87	24
88	3
89	226
90	13
91	2
101	1
102	110
103	398
104	20
105	4
116	1
119	2
120	1
121	1
133	28
134	2
146	2
160	1
