Mass Spectrum: N-2,4-Dnp-L-arginine
Formula: C12H16N6O6
CAS: 1602-42-2
Molecular weight: 340
m/z	intensity
26	9
27	31
28	76
29	30
30	36
31	7
32	2
33	3
34	5
36	4
37	6
38	10
39	31
40	13
41	101
42	69
43	98
44	999
45	11
46	4
47	4
48	2
49	2
50	8
51	15
52	34
53	37
54	29
55	78
56	39
57	70
58	5
59	30
60	42
61	20
62	9
63	33
64	9
65	9
66	9
67	36
68	36
69	102
70	33
71	41
72	12
73	49
74	8
75	5
76	8
77	15
78	19
79	28
80	56
81	49
82	26
83	52
84	34
85	26
86	25
87	12
88	5
89	8
90	37
91	16
92	9
93	16
94	22
95	42
96	22
97	32
98	31
99	10
100	5
101	9
102	5
103	6
104	8
105	23
106	15
107	76
108	12
109	14
110	14
111	20
112	10
113	7
114	7
115	10
116	8
117	14
118	9
119	12
120	6
121	15
122	8
123	18
124	9
125	15
126	10
127	7
128	6
129	22
130	9
131	25
132	9
133	12
134	5
135	9
136	9
137	14
138	7
139	6
140	4
141	5
142	6
143	16
144	24
145	10
146	9
147	10
148	4
149	8
150	18
151	15
152	12
153	114
154	12
155	5
156	8
157	10
158	9
159	10
160	13
161	7
162	2
163	9
164	3
165	4
166	4
167	4
168	5
169	7
170	3
171	9
172	9
173	6
174	6
175	3
176	9
177	62
178	9
179	9
180	4
181	2
182	3
183	9
184	7
185	12
186	5
187	3
188	4
189	15
190	35
191	14
192	5
193	17
194	5
195	2
196	2
197	2
198	9
199	8
200	3
201	2
202	4
203	4
204	3
205	3
206	8
207	3
208	3
209	5
210	23
211	5
212	2
213	9
214	2
215	4
216	5
217	3
218	10
219	5
220	4
221	5
222	3
223	1
224	2
225	5
226	58
227	10
228	3
229	4
230	2
231	1
234	1
235	2
236	6
237	2
238	1
239	2
240	3
241	3
242	4
243	2
245	3
246	2
247	2
248	1
249	1
250	1
252	1
253	1
254	1
255	3
256	86
257	15
258	2
259	1
260	1
261	1
262	1
264	4
265	1
269	1
270	2
271	1
273	1
275	2
278	2
279	1
280	1
283	1
284	3
286	1
296	1
340	1
341	2
