Mass Spectrum: Acetic acid, (2-methoxyethoxy)-
Formula: C5H10O4
CAS: 16024-56-9
Molecular weight: 134
m/z	intensity
14	7
15	68
16	2
17	2
18	1
19	2
25	1
26	15
27	46
28	100
29	243
30	21
31	260
32	5
33	20
39	1
41	8
42	45
43	99
44	34
45	999
46	25
47	3
49	1
55	1
56	1
57	19
58	311
59	205
60	60
61	130
62	3
63	1
72	1
73	3
74	6
75	6
76	3
77	4
84	1
87	4
88	4
89	69
90	10
91	1
102	37
103	2
104	2
116	22
117	1
