Mass Spectrum: 2-(2-(2-(2-Methoxyethoxy)ethoxy)ethoxy)acetic acid
Formula: C9H18O6
CAS: 16024-60-5
Molecular weight: 222
m/z	intensity
14	2
15	38
16	2
17	1
19	6
25	1
26	10
27	46
28	110
29	227
30	23
31	241
32	4
33	7
39	3
40	1
41	18
42	41
43	160
44	69
45	999
46	26
47	4
49	1
51	2
55	1
57	67
58	386
59	990
60	47
61	30
62	1
69	2
70	19
71	10
72	9
73	38
75	70
76	4
77	3
84	2
85	2
87	93
88	23
89	174
90	15
91	2
99	3
100	5
101	30
102	228
103	732
104	37
105	6
114	1
115	4
116	1
117	3
119	48
120	3
121	9
122	1
129	1
131	4
133	53
134	4
135	1
145	4
146	28
147	30
148	2
163	2
177	11
178	1
