Mass Spectrum: Acetic acid, 2-(3,5-dimethyl-1-pyrazolyl)-
Formula: C7H10N2O2
CAS: 16034-49-4
Molecular weight: 154
m/z	intensity
33	2
34	1
35	0
36	2
37	15
38	41
39	238
40	88
41	238
42	315
43	25
44	23
45	47
47	8
49	1
50	11
51	21
52	34
53	69
54	57
55	43
56	22
57	6
59	2
60	3
61	2
62	6
63	13
64	10
65	34
66	41
67	32
68	142
69	20
70	5
71	2
72	1
73	2
74	0
75	0
76	1
77	4
79	44
80	38
81	17
82	73
83	12
84	1
85	1
86	0
87	0
89	0
92	10
93	7
94	8
95	31
96	5
97	2
98	0
99	0
100	0
101	0
104	0
105	1
106	1
107	16
109	999
110	188
111	12
112	0
113	0
114	0
115	0
119	0
121	0
122	0
123	0
124	0
125	0
126	0
129	0
133	0
134	0
136	5
137	0
138	0
139	0
148	0
149	0
151	0
152	3
154	152
155	13
156	1
157	0
159	0
160	0
