Mass Spectrum: Benzene, (2-cyclohexylethyl)-
Formula: C14H20
CAS: 1603-61-8
Molecular weight: 188
m/z	intensity
26	4
27	54
28	15
29	38
30	0
31	0
36	0
37	1
38	3
39	70
40	9
41	125
42	8
43	17
44	0
45	0
49	0
50	7
51	28
52	8
53	21
54	16
55	261
56	13
57	2
58	0
61	0
62	2
63	13
64	4
65	54
66	6
67	27
68	10
69	16
70	1
71	0
73	0
74	1
75	5
76	6
77	60
78	36
79	35
80	5
81	34
82	10
83	44
84	3
85	0
86	1
87	1
88	1
89	15
90	11
91	421
92	999
93	81
94	6
95	11
96	32
97	97
98	8
99	0
100	0
101	1
102	7
103	25
104	50
105	64
106	10
107	1
108	0
109	1
110	4
111	0
114	0
115	17
116	5
117	16
118	3
119	1
120	1
121	0
127	3
128	9
129	7
130	2
131	4
132	1
133	0
134	3
135	0
143	1
144	0
145	2
146	0
159	1
160	0
161	0
182	0
183	0
184	0
185	0
186	2
187	1
188	167
189	25
190	1
