Mass Spectrum: N-Trifluoroacetyl-histidine, methyl ester
Formula: C9H10F3N3O3
CAS: 1604-44-0
Molecular weight: 265
m/z	intensity
41	30
42	25
43	16
44	94
45	46
46	2
47	29
48	3
49	19
50	220
51	473
52	36
53	28
54	152
55	52
56	19
57	7
59	27
60	7
61	2
64	3
65	5
66	24
67	23
69	999
70	37
71	2
73	0
74	4
75	0
77	3
78	31
79	5
80	20
81	810
82	501
83	47
84	16
86	30
87	1
88	20
89	1
92	5
93	51
94	36
95	112
96	17
97	54
98	3
99	1
106	3
107	10
108	24
109	110
110	104
111	15
112	3
114	34
115	10
118	7
119	1
120	24
121	78
122	10
124	3
125	4
126	1
129	4
131	5
135	2
136	68
137	7
138	5
139	3
140	2
141	1
148	0
149	7
150	3
151	3
152	158
153	51
154	5
156	1
158	3
161	8
162	3
166	1
167	3
168	48
169	18
170	8
177	3
178	3
179	14
180	18
181	1
184	4
188	23
189	3
196	32
197	3
204	6
205	8
206	621
207	58
208	6
209	0
218	2
233	10
234	31
235	3
246	1
249	3
250	14
251	3
265	261
266	29
267	1
