Mass Spectrum: Dimethylolpropionic acid, 3TMS derivative
Formula: C14H34O4Si3
CAS: 160432-70-2
Molecular weight: 350
m/z	intensity
16	1
18	6
27	3
28	4
29	14
30	1
31	3
32	1
38	1
39	8
40	3
41	103
42	6
43	27
44	22
45	100
46	7
47	16
49	1
52	1
53	7
54	1
55	55
56	3
57	9
58	18
59	45
60	4
61	14
62	1
66	13
68	1
69	129
70	10
71	5
72	28
73	999
74	84
75	118
76	8
77	6
81	2
82	1
83	3
84	1
85	8
86	1
87	4
88	2
89	5
94	1
97	2
98	2
99	8
101	4
103	278
104	29
105	14
111	1
112	1
113	12
114	1
115	17
116	3
117	12
118	2
119	9
120	2
121	1
125	1
127	26
128	4
129	15
130	3
131	27
132	3
133	93
134	14
135	13
136	2
141	2
142	6
143	134
144	25
145	11
147	382
148	61
149	82
150	13
151	8
155	2
157	64
158	7
159	6
160	1
161	2
163	4
165	1
170	143
171	25
172	7
173	1
175	1
177	78
178	13
179	8
187	1
189	15
190	6
191	38
192	9
193	1
203	3
204	1
205	2
207	4
208	1
217	41
218	6
219	3
220	1
221	7
222	1
223	1
231	22
232	11
233	4
244	14
245	6
246	2
247	25
248	5
249	3
260	59
261	14
262	7
263	1
265	1
277	1
305	32
306	8
307	6
308	1
319	4
320	8
321	3
322	1
335	46
336	16
337	9
338	2
339	1
