Mass Spectrum: Ethanol, 2-(trimethylsilyl)-, acetate
Formula: C7H16O2Si
CAS: 16046-10-9
Molecular weight: 160
m/z	intensity
27	23
29	51
31	14
42	46
43	159
44	66
45	181
46	12
47	59
53	18
55	40
56	7
57	33
58	24
59	107
60	18
61	62
69	14
70	19
71	21
72	116
73	809
74	92
75	999
76	74
77	39
87	9
99	42
101	105
102	11
103	764
104	68
105	27
115	309
116	106
117	338
118	33
119	16
145	136
146	13
