Mass Spectrum: Imidazole-2-carboxamide, 1-benzyl-
Formula: C11H11N3O
CAS: 16042-27-6
Molecular weight: 201
m/z	intensity
27	100
28	200
39	60
51	50
65	100
77	50
89	50
91	999
92	90
95	50
106	180
129	50
130	50
155	50
156	170
157	120
183	70
184	290
201	999
202	130
203	9
