Mass Spectrum: 1,3-Oxathiolane, 2-methyl-2-isopropyl-
Formula: C7H14OS
CAS: 16047-98-6
Molecular weight: 146
m/z	intensity
15	15
18	14
26	11
27	72
29	18
35	11
39	36
41	90
42	22
43	913
44	31
45	81
55	21
58	23
59	138
60	481
61	158
62	25
69	39
71	102
76	13
86	66
87	63
101	13
102	73
103	999
104	67
105	54
131	23
146	82
