Mass Spectrum: 4(1H)-Pteridinone, 6-methyl-
Formula: C7H6N4O
CAS: 16041-24-0
Molecular weight: 162
m/z	intensity
40	80
41	40
42	999
43	40
51	80
52	170
53	270
54	90
55	30
64	60
65	60
66	100
67	350
68	40
69	80
76	50
78	140
80	200
92	40
95	30
106	70
107	100
108	60
134	50
135	870
136	70
162	870
163	110
