Mass Spectrum: Pyridine, 2,3,4,5-tetrahydro-6-propyl-
Formula: C8H15N
CAS: 1604-01-9
Molecular weight: 125
m/z	intensity
41	80
44	59
54	60
55	78
69	60
70	110
82	99
96	407
97	999
98	90
110	288
111	20
124	228
126	19
