Mass Spectrum: 5,7-Dimethylpyrimido[4,5-E]-1,2,4-triazine-6,8(5H,7H)-dione
Formula: C7H7N5O2
CAS: 16044-79-4
Molecular weight: 193
m/z	intensity
40	16
41	16
42	12
43	24
51	39
52	128
53	145
54	44
55	12
56	56
57	10
66	15
67	35
68	2
78	11
79	11
80	258
81	999
82	48
83	13
108	11
109	2
137	21
138	3
165	14
166	122
167	6
193	239
194	26
195	1
