Mass Spectrum: 1,1-Dimethyl-1-silacyclo-3-pentene
Formula: C6H12Si
CAS: 16054-12-9
Molecular weight: 112
m/z	intensity
26	8
27	37
28	3
29	62
30	4
31	39
33	1
37	1
38	3
39	24
40	2
41	5
42	39
43	277
44	27
45	38
46	2
47	1
49	0
50	4
51	7
52	3
53	62
54	18
55	69
56	8
57	17
58	231
59	105
60	14
61	3
62	0
63	1
64	0
65	6
66	15
67	25
68	10
69	70
70	20
71	91
72	17
73	5
74	1
75	0
76	0
77	4
78	0
79	3
80	2
81	18
82	3
83	21
84	19
85	36
86	6
87	2
88	0
89	0
90	0
91	2
92	1
93	11
94	2
95	182
96	33
97	999
98	97
99	32
100	2
107	0
109	6
110	2
111	13
112	348
113	39
114	12
115	1
