Mass Spectrum: Carbamic acid, N-methyl, t-butyl ester
Formula: C6H13NO2
CAS: 16066-84-5
Molecular weight: 131
m/z	intensity
29	6
30	6
31	12
33	3
34	0
35	0
36	1
37	2
38	3
39	45
40	8
41	296
42	19
43	43
44	24
45	14
47	1
48	0
49	2
50	7
51	4
52	1
53	9
54	5
55	49
56	107
57	999
58	148
59	751
60	36
61	3
68	0
69	0
70	1
71	2
72	27
73	8
74	3
75	6
76	605
77	24
78	4
79	1
81	0
82	0
83	0
85	0
86	1
92	0
93	0
107	0
109	1
112	0
116	25
117	1
119	0
131	0
132	0
