Mass Spectrum: 2-Butyne-1,4-diol, bis(.beta.-hydroxyethyl) ether
Formula: C8H14O4
CAS: 1606-85-5
Molecular weight: 174
m/z	intensity
12	1
13	3
14	13
15	73
16	5
17	4
18	14
19	1
25	4
26	43
27	222
28	137
29	242
30	26
31	485
32	25
33	50
36	2
37	14
38	35
39	341
40	72
41	854
42	51
43	218
44	129
45	917
46	22
47	3
49	4
50	54
51	124
52	833
53	147
54	43
55	176
56	74
57	89
58	23
59	11
60	8
61	36
62	8
63	10
65	12
66	15
67	16
68	250
69	999
70	180
71	250
72	11
73	36
74	2
75	54
76	8
77	4
78	2
79	2
80	1
81	29
82	25
83	27
84	19
85	15
86	18
87	15
88	10
89	19
90	2
91	2
93	2
94	4
95	8
96	4
97	5
98	2
99	70
100	8
101	4
103	5
105	2
107	5
108	1
109	1
110	1
111	7
112	226
113	39
114	10
115	4
117	2
119	4
125	5
126	5
127	2
128	2
129	3
130	2
131	1
139	1
144	3
156	1
173	1
174	2
