Mass Spectrum: 6-Nitro-2-phenyl-benzo[d][1,3]oxazin-4-one
Formula: C14H8N2O4
CAS: 16062-68-3
Molecular weight: 268
m/z	intensity
50	32
51	83
52	15
53	12
55	19
56	6
57	10
62	23
63	26
64	12
65	7
67	11
69	24
70	4
74	45
75	97
76	37
77	454
78	42
79	10
80	2
89	16
91	72
92	7
105	999
106	81
107	6
139	6
145	29
146	3
161	9
166	14
178	56
179	12
191	19
192	3
194	16
195	5
224	67
225	11
238	115
239	22
252	11
253	3
268	523
269	81
270	11
