Mass Spectrum: 2,3-Butanediimine, N,N'-difluoro-
Formula: C4H6F2N2
CAS: 16063-51-7
Molecular weight: 120
m/z	intensity
12	48
13	48
14	190
15	999
25	48
26	48
27	95
28	171
29	286
31	19
32	19
33	238
37	19
38	95
39	190
40	781
41	667
42	476
46	48
51	19
52	95
53	48
54	400
55	48
59	381
60	333
66	48
67	48
74	48
79	476
80	48
81	286
82	76
86	48
101	286
102	76
120	95
