Mass Spectrum: 2-Octanone, 1-nitro-
Formula: C8H15NO3
CAS: 16067-01-9
Molecular weight: 173
m/z	intensity
27	528
28	178
29	434
30	129
31	50
32	3
37	7
38	19
39	267
40	48
41	568
42	339
43	999
44	90
45	50
46	34
50	10
51	18
52	10
53	49
54	29
55	345
56	65
57	217
58	45
59	36
60	34
61	22
62	10
63	4
65	8
66	4
67	70
68	107
69	234
70	256
71	87
72	20
73	37
74	7
77	6
79	12
80	3
81	23
82	12
83	115
84	44
85	90
86	11
87	30
88	19
91	3
93	6
94	4
95	15
96	7
97	38
98	16
99	6
100	5
101	5
103	19
104	4
108	4
109	43
110	7
111	30
112	11
113	234
114	28
126	20
127	8
140	10
