Mass Spectrum: 1-Cyclohexene-1-carboxylic acid, 4-(1,5-dimethyl-3-oxo-4-hexenyl)-, methyl ester, [R-(R*,R*)]-
Formula: C16H24O3
CAS: 16060-78-9
Molecular weight: 264
m/z	intensity
27	67
28	23
29	130
39	90
40	20
41	88
42	10
43	60
45	13
51	20
52	13
53	85
54	27
55	280
56	20
57	14
59	50
65	20
66	10
67	35
68	12
69	30
77	70
78	20
79	140
80	24
81	30
82	26
83	999
84	57
85	15
91	57
92	10
93	37
95	18
97	10
98	182
99	94
105	57
106	23
107	118
108	17
109	13
111	18
121	20
123	13
125	176
126	46
131	36
133	24
134	270
135	110
136	18
137	70
138	20
139	66
140	14
147	14
148	10
149	55
150	18
151	100
152	19
161	18
163	20
164	28
165	25
166	190
167	35
175	8
177	12
179	9
180	5
204	46
205	37
209	10
232	120
233	30
234	8
246	50
247	8
249	27
264	67
265	25
