Mass Spectrum: 4(3H)-Quinazolinone, 3-methyl-6-nitro-
Formula: C9H7N3O3
CAS: 16064-13-4
Molecular weight: 205
m/z	intensity
37	6
38	29
39	37
40	12
41	43
42	999
43	25
44	40
45	2
46	25
47	0
48	0
49	1
50	42
51	48
52	35
53	22
54	3
55	5
56	5
57	1
58	2
60	0
61	10
62	59
63	162
64	27
65	12
66	14
67	5
68	0
69	0
70	0
71	0
72	0
73	2
74	60
75	140
76	52
77	54
78	20
79	13
80	7
81	1
82	0
83	0
84	0
85	0
86	0
87	2
88	12
89	16
90	84
91	11
92	8
93	1
94	0
95	0
97	0
99	0
100	1
101	7
102	10
103	12
104	33
105	6
106	14
107	1
108	0
114	0
115	4
116	13
117	9
118	48
119	48
120	24
121	2
122	0
125	0
127	0
128	3
129	11
130	17
131	150
132	30
133	2
134	5
135	0
136	0
137	0
139	0
141	0
142	0
143	5
144	3
145	1
146	1
147	67
148	8
149	2
150	3
151	0
157	0
158	16
159	115
160	13
161	1
162	0
164	5
165	0
166	0
173	0
174	3
175	138
176	16
177	15
178	2
179	0
180	0
187	0
188	0
189	8
190	0
191	1
192	0
195	0
204	4
205	452
206	57
207	5
208	0
