Mass Spectrum: Thiazole, 2-nitro-
Formula: C3H2N2O2S
CAS: 1606-76-4
Molecular weight: 130
m/z	intensity
26	220
27	290
29	120
30	400
42	140
43	570
44	440
45	360
56	290
57	980
58	490
76	110
83	180
84	200
100	480
102	30
114	60
130	999
131	60
132	60
