Mass Spectrum: trans-O-Nitro-.alpha.-[p-bromophenyl]cinnamic acid
Formula: C15H10BrNO4
CAS: 160693-62-9
Molecular weight: 347
m/z	intensity
41	41
43	6
44	9
45	60
49	13
50	111
51	173
52	48
53	20
55	11
57	7
61	11
62	70
63	177
64	188
65	98
66	8
70	74
74	82
75	212
76	209
77	169
78	47
79	16
82	167
83	91
84	22
85	7
86	33
87	75
88	161
89	118
90	39
91	260
92	952
93	84
94	7
96	16
97	33
98	35
99	33
100	14
101	43
102	31
103	13
104	121
105	38
106	8
110	41
111	25
113	23
114	15
115	31
116	6
119	999
120	87
121	18
122	12
123	10
125	17
126	38
127	19
128	10
130	11
133	3
134	80
135	10
137	20
138	17
139	47
140	15
143	4
144	3
146	31
149	21
150	77
151	74
152	50
153	13
155	102
156	9
157	93
158	7
162	7
163	63
164	65
165	170
166	47
167	53
168	11
169	7
174	27
175	34
176	160
177	65
178	47
179	40
180	15
181	8
183	308
184	27
185	291
186	21
190	6
191	3
194	21
195	61
196	11
207	9
222	8
257	15
258	7
259	14
274	35
275	7
276	32
286	20
288	14
301	3
302	19
303	8
304	19
347	15
349	13
