Mass Spectrum: 1-Propanone, 1-(3-cyclohexen-1-yl)-2,2-dimethyl-
Formula: C11H18O
CAS: 16076-65-6
Molecular weight: 166
m/z	intensity
25	1
26	11
29	215
30	5
31	3
32	2
36	1
37	2
38	10
39	177
40	33
41	429
42	41
43	38
44	3
45	3
50	17
51	48
52	30
53	132
54	35
55	64
56	29
57	888
58	46
59	3
60	1
61	1
62	2
63	8
64	1
65	36
66	34
67	59
68	7
69	22
70	8
71	33
72	2
73	2
74	2
75	3
76	3
77	92
78	25
79	231
80	96
81	999
82	116
83	11
84	1
85	338
86	44
87	5
89	2
91	25
92	12
93	7
94	3
95	11
96	3
97	6
98	1
99	2
102	1
103	2
104	1
105	6
106	1
107	5
108	14
109	165
110	24
111	4
112	3
113	4
115	4
116	1
117	2
118	0
119	5
120	1
121	1
122	2
123	9
124	0
125	1
126	0
127	0
128	1
129	1
130	0
131	0
132	1
133	2
134	2
135	2
136	1
137	2
138	0
139	1
141	3
142	0
143	0
147	0
148	1
165	1
166	14
167	6
168	1
169	0
