Mass Spectrum: 9-Methoxymethyl-1-phenyl-3,6-diazahomoadamantan-9-ol
Formula: C17H24N2O2
CAS: 160777-82-2
Molecular weight: 288
m/z	intensity
37	3
38	4
39	38
40	11
41	67
42	139
43	21
44	27
45	33
49	3
50	12
51	20
52	7
53	8
54	7
55	23
56	36
57	26
58	59
59	8
62	4
63	16
64	3
65	15
66	3
67	5
68	17
69	10
70	26
71	11
72	999
73	45
74	7
75	6
76	7
77	48
78	12
79	6
80	6
81	7
82	20
83	37
84	12
85	26
86	2
87	5
88	6
89	13
90	6
91	71
92	7
93	3
94	7
95	3
96	7
97	8
98	10
99	3
100	2
101	8
102	22
103	59
104	14
105	10
106	3
107	1
108	3
109	4
110	3
111	10
112	3
113	5
114	4
115	129
116	32
117	61
118	20
119	8
120	2
121	3
122	3
123	3
124	2
125	3
126	5
127	19
128	60
129	42
130	37
131	18
132	10
133	3
134	2
135	2
136	2
137	1
138	2
139	10
140	7
141	29
142	22
143	32
144	45
145	14
146	13
149	10
150	2
151	4
152	14
153	19
154	27
155	19
156	38
157	18
158	47
159	24
160	16
161	2
165	5
166	14
167	33
168	31
169	18
170	188
171	80
172	57
173	7
178	3
180	7
181	6
182	24
183	11
184	31
185	20
186	49
187	17
188	5
192	9
193	4
194	6
195	4
196	14
197	5
198	20
199	10
200	25
201	6
209	2
210	2
211	4
212	6
213	8
214	19
215	11
225	10
226	7
227	4
228	5
229	2
230	3
241	12
242	16
243	336
244	61
245	6
255	3
257	11
258	2
269	1
270	3
271	3
272	1
273	2
287	13
288	392
289	76
290	7
