Mass Spectrum: 2-Methyl-4-pentafluoroethyl-5,5-di(trifluoromethyl)-1-pyrrolin-4-ol
Formula: C9H6F11NO
CAS: 160733-19-7
Molecular weight: 353
m/z	intensity
33	27
37	41
39	652
41	832
42	431
43	181
45	171
46	57
47	45
50	129
51	120
52	55
53	50
54	42
55	46
57	93
58	101
59	54
61	23
63	27
64	25
65	27
67	155
69	999
70	21
73	24
75	67
76	43
77	24
81	28
91	20
93	88
96	103
100	129
101	19
102	26
117	22
119	98
121	18
122	59
140	20
141	25
150	94
172	161
191	315
192	29
234	72
