Mass Spectrum: 2-Propen-1-one, 3-(3-fluorophenyl)-1-phenyl-
Formula: C15H11FO
CAS: 1608-52-2
Molecular weight: 226
m/z	intensity
50	322
51	566
63	81
75	338
76	109
77	999
95	109
101	292
102	60
105	453
121	200
130	39
149	363
173	109
178	30
179	19
196	109
197	300
198	130
207	59
225	733
226	921
