Mass Spectrum: 2-Propen-1-one, 3-(4-fluorophenyl)-1-phenyl-
Formula: C15H11FO
CAS: 1608-51-1
Molecular weight: 226
m/z	intensity
50	511
51	908
63	138
75	429
76	128
77	999
89	20
95	250
101	501
102	100
105	348
121	188
130	49
149	200
178	29
179	10
183	69
196	60
197	129
198	99
207	19
225	150
226	298
