Mass Spectrum: 1H-Azepine-2(3H)-one, 4,5,6,7-tetrahydro-1-(1-pentafluoroethyl-2-trifluoromethyl-3,3,3-trifluoropropenyl)-
Formula: C12H10F11NO
CAS: 160892-46-6
Molecular weight: 393
m/z	intensity
34	32
38	15
40	111
41	979
42	267
43	114
44	16
45	5
47	32
48	19
51	58
52	13
53	72
55	771
56	68
57	39
59	23
65	16
67	256
68	862
69	999
70	59
71	7
74	1
75	6
77	9
78	23
79	8
81	17
82	4
83	19
84	7
91	12
92	12
93	17
95	14
96	35
97	89
98	5
100	2
102	21
105	15
106	2
112	1
114	4
119	18
120	10
124	7
135	1
138	36
143	27
145	30
146	5
148	4
150	2
158	28
159	7
171	34
177	7
178	22
184	3
190	62
193	9
198	4
204	28
240	8
242	6
254	8
268	2
280	3
282	8
290	24
296	16
310	4
316	1
324	389
325	45
336	9
