Mass Spectrum: 1-Dimethyl(prop-2-enyl)silyloxyoctane
Formula: C13H28OSi
CAS: 160882-62-2
Molecular weight: 228
m/z	intensity
39	75
41	158
42	37
43	43
44	19
45	83
47	43
51	74
52	29
53	14
54	16
55	153
56	30
57	43
58	23
59	132
60	17
61	94
62	19
63	37
65	22
67	23
68	19
69	286
70	38
71	36
72	17
73	26
74	40
75	999
76	126
77	69
78	21
81	17
83	35
85	26
86	13
87	33
88	17
89	153
93	17
95	22
97	19
99	69
100	20
101	129
102	115
103	40
111	18
113	17
114	29
115	13
127	16
128	83
129	418
130	43
186	20
187	498
188	86
189	27
213	20
