Mass Spectrum: 1-Benzoyloxy-2-(1,3-dioxo-2-isoindolinyl)-3-phenylpropane, (S)-
Formula: C24H19NO4
CAS: 160857-13-6
Molecular weight: 385
m/z	intensity
27	3
28	13
29	1
38	1
39	9
41	4
43	3
44	3
50	16
51	35
52	3
53	1
55	2
57	2
63	4
64	2
65	17
66	1
69	1
71	1
74	4
75	9
76	49
77	231
78	19
79	2
83	1
89	8
90	7
91	52
92	5
97	1
101	1
102	14
103	57
104	39
105	999
106	80
107	4
115	25
116	208
117	39
118	5
119	1
122	2
128	1
129	3
130	25
131	3
132	3
133	36
134	4
144	2
145	3
146	2
147	2
148	115
149	11
150	1
152	1
160	4
161	1
165	3
172	11
173	9
174	2
176	1
177	2
178	2
179	1
190	2
191	1
193	1
194	1
195	2
196	1
203	1
204	5
205	5
206	1
207	1
209	5
210	1
218	1
220	2
223	3
232	42
233	8
234	2
235	1
238	264
239	45
240	5
245	4
246	1
248	2
249	4
250	48
251	9
252	1
262	2
263	39
264	8
265	1
294	51
295	9
296	1
385	2
