Mass Spectrum: 5-Ethoxy-2-phenyl-4,5-dihydrooxazol
Formula: C11H13NO2
CAS: 160890-81-3
Molecular weight: 191
m/z	intensity
12	1
13	2
14	9
15	58
16	9
17	55
18	199
19	6
20	1
25	2
26	17
27	92
28	52
29	149
30	42
31	60
32	1
36	1
37	5
38	13
39	34
40	7
41	18
42	28
43	45
44	25
45	22
46	7
47	45
48	1
49	4
50	71
51	199
52	22
53	5
54	2
55	10
56	15
57	12
58	16
59	3
60	2
61	3
62	7
63	18
64	8
65	13
66	6
67	3
68	1
69	6
70	4
71	6
72	2
73	4
74	18
75	42
76	37
77	364
78	46
79	6
80	1
81	2
82	2
83	4
84	2
85	3
86	4
87	2
88	3
89	37
90	55
91	86
92	8
93	5
94	13
95	2
96	1
97	3
98	1
99	2
100	1
101	1
103	55
104	28
105	320
106	28
107	3
108	1
109	1
110	1
111	2
112	1
113	1
114	1
117	999
118	137
119	11
120	2
121	23
122	4
123	1
125	1
126	1
127	2
128	3
132	2
133	6
134	65
135	49
136	5
145	5
146	73
147	18
148	2
149	8
150	1
160	1
161	1
162	1
163	1
164	1
171	1
191	36
192	9
193	1
