Mass Spectrum: R(+)-Methcathinone
Formula: C10H13NO
CAS: 160977-88-8
Molecular weight: 163
m/z	intensity
15	8
26	2
27	13
28	37
29	18
30	88
31	2
32	2
37	1
38	2
39	8
40	2
41	13
42	49
43	30
44	3
49	1
50	27
51	76
52	7
53	2
54	4
55	7
56	72
57	18
58	999
59	38
61	1
62	2
63	4
64	1
65	2
73	1
74	8
75	6
76	8
77	108
78	13
79	3
86	1
89	2
90	1
91	6
92	1
102	1
103	3
104	2
105	36
106	4
107	1
115	2
116	1
117	1
118	1
119	1
120	2
130	1
131	1
132	3
133	5
134	2
146	1
147	1
148	4
149	1
162	1
163	1
