Mass Spectrum: Trifluoro acetyl acetone cobalt (II)
Formula: C10H8CoF6O4
CAS: 16092-38-9
Molecular weight: 365
m/z	intensity
12	2
13	2
14	8
15	26
16	2
19	1
20	9
24	1
25	2
26	10
27	38
28	200
29	11
30	1
31	6
32	5
33	1
36	2
37	7
38	13
39	43
40	18
41	13
42	28
43	999
44	37
45	4
47	2
49	1
50	5
51	5
52	1
53	11
54	4
55	81
56	7
57	6
58	2
59	68
60	5
63	5
66	7
67	31
68	7
69	183
70	6
71	6
72	16
73	9
74	11
75	7
76	5
77	2
78	13
79	1
81	2
82	2
83	7
84	36
85	61
86	5
87	18
89	2
90	1
91	23
92	1
95	2
96	1
97	3
98	4
99	2
100	37
101	6
102	1
103	1
104	1
105	3
106	2
108	1
109	4
111	1
113	18
114	3
115	14
116	2
117	1
118	3
119	10
120	3
121	1
122	4
124	2
125	1
127	2
128	3
129	1
131	1
134	9
135	3
138	2
139	11
140	21
141	3
142	29
143	6
144	2
146	1
148	8
149	5
150	1
151	1
152	1
154	17
155	2
156	11
157	1
158	2
159	5
160	1
161	2
162	564
163	24
164	3
167	6
168	1
173	1
175	4
177	1
182	1
183	2
184	16
185	1
188	1
193	4
196	1
197	1
203	1
209	1
210	3
211	4
212	581
213	35
214	4
216	5
218	1
226	40
227	4
228	1
230	1
231	1
238	3
239	1
241	1
244	1
246	13
247	1
248	3
250	2
253	1
254	42
255	3
261	1
268	1
276	1
278	1
280	1
283	1
284	2
293	2
294	1
295	3
296	543
297	55
298	7
312	1
318	10
319	1
322	1
323	2
336	2
346	4
347	1
350	66
351	8
352	1
364	1
365	285
366	31
367	4
