Mass Spectrum: 1,6-Naphthyridin-4(1H)-one, 1-benzyl-5-trifluoromethyl-
Formula: C16H11F3N2O
CAS: 161014-24-0
Molecular weight: 304
m/z	intensity
33	0
34	0
36	0
37	1
38	6
39	35
40	12
41	13
42	3
43	3
44	5
45	1
49	0
50	10
51	25
52	9
53	5
54	3
55	2
56	1
57	3
58	2
60	0
61	1
62	7
63	22
64	10
65	107
66	6
67	1
69	9
70	1
71	2
72	0
73	0
74	3
75	7
76	8
77	13
78	5
79	2
80	1
81	2
82	1
83	1
84	1
85	0
86	1
87	2
89	27
91	999
92	68
93	3
94	1
95	0
96	2
97	1
98	1
99	5
100	2
101	4
102	4
103	5
104	9
105	6
106	2
107	2
108	2
109	0
111	1
112	2
113	2
114	1
115	3
116	3
117	2
118	5
119	1
120	1
121	1
122	0
123	0
124	0
125	2
126	5
127	5
128	10
129	2
130	1
131	3
132	1
133	0
134	1
135	6
136	0
137	0
138	4
139	2
140	1
141	2
142	4
143	1
144	1
145	1
146	3
147	1
148	0
149	0
150	0
151	2
152	4
153	3
154	1
155	1
156	1
157	1
158	1
159	0
160	0
161	0
162	0
163	2
164	3
165	5
166	1
167	0
168	0
169	0
170	0
171	3
172	1
173	0
175	0
176	0
177	1
178	1
179	2
180	1
181	1
182	1
183	1
184	1
185	2
186	0
188	0
189	0
190	0
191	0
193	0
194	1
195	0
196	0
197	0
198	0
199	1
200	0
201	2
202	1
203	1
204	0
205	2
206	0
207	1
208	1
209	10
210	2
211	0
214	0
215	0
217	0
218	0
220	0
222	0
223	0
225	1
226	3
227	1
228	0
229	0
233	0
234	1
235	1
236	0
237	1
238	0
239	0
240	0
241	0
245	0
246	0
247	1
248	1
249	1
250	1
251	0
252	0
253	1
254	1
255	0
256	0
257	0
258	0
260	0
267	0
273	1
274	0
275	0
276	1
277	1
282	1
283	1
284	0
285	1
286	1
287	0
288	0
290	0
291	1
292	0
293	0
294	1
295	1
296	0
301	0
302	0
304	173
305	30
306	3
307	0
