Mass Spectrum: 7,10-Hexadecadienoic acid, methyl ester
Formula: C17H30O2
CAS: 16106-03-9
Molecular weight: 266
m/z	intensity
38	10
39	240
40	40
41	830
42	110
43	240
44	10
45	30
50	10
51	30
52	30
53	180
54	470
55	710
56	70
57	80
58	10
59	250
60	10
63	10
65	90
66	80
67	999
68	360
69	270
70	30
71	50
72	10
73	60
74	170
75	20
77	180
78	60
79	410
80	230
81	740
82	300
83	130
84	40
85	50
86	10
87	100
88	10
91	140
92	40
93	200
94	230
95	450
96	240
97	80
98	30
99	30
100	10
101	20
103	10
104	10
105	40
106	30
107	90
108	110
109	170
110	140
111	40
112	10
113	20
114	10
115	30
117	10
118	10
119	30
120	20
121	100
122	70
123	110
124	70
125	30
126	10
127	20
128	10
129	10
131	10
132	10
133	20
134	10
135	100
136	90
137	60
138	30
139	10
140	10
141	30
143	10
145	10
147	10
149	50
150	100
151	40
152	10
153	10
154	10
155	10
159	10
161	10
163	40
164	30
165	10
167	10
168	10
173	10
177	20
178	20
179	10
181	10
182	10
190	10
191	10
192	40
193	10
195	10
205	10
206	20
207	10
217	10
234	40
235	60
236	20
237	10
266	160
267	30
268	10
