Mass Spectrum: 2-Propenamide, 2-methyl-N-phenyl-
Formula: C10H11NO
CAS: 1611-83-2
Molecular weight: 161
m/z	intensity
23	0
25	1
26	5
27	11
28	12
29	1
30	1
37	9
38	24
39	190
40	32
41	999
42	41
43	1
44	1
46	0
49	1
50	16
51	56
52	15
53	5
54	5
55	1
57	0
59	0
61	2
62	6
63	22
64	25
65	87
66	46
67	5
68	4
69	878
70	39
71	3
73	1
74	3
75	3
76	4
77	74
78	10
79	3
80	0
87	0
88	0
89	1
90	3
91	18
92	42
93	57
94	12
95	0
102	0
103	1
104	2
105	6
106	42
107	3
108	0
115	2
116	2
117	7
118	36
119	10
120	10
121	0
128	3
129	0
130	4
131	1
132	47
133	72
134	8
135	0
142	2
143	1
144	2
145	0
146	144
147	15
148	1
149	0
158	0
159	0
160	22
161	270
162	32
163	2
