Mass Spectrum: Carbonodithioic acid, S,S-bis(1-methylethyl) ester
Formula: C7H14OS2
CAS: 16118-33-5
Molecular weight: 178
m/z	intensity
41	269
42	95
43	999
44	44
45	33
47	39
60	39
61	178
74	33
75	59
76	252
77	50
78	16
103	120
108	8
117	9
118	29
135	2
136	1
138	5
150	35
178	219
179	21
180	19
