Mass Spectrum: Propanamide, N-ethyl-2-[[(phenylamino)carbonyl]oxy]-
Formula: C12H16N2O3
CAS: 16118-45-9
Molecular weight: 236
m/z	intensity
41	58
42	27
44	49
45	223
46	187
47	54
51	31
52	96
54	16
55	64
56	28
57	22
58	54
60	12
61	10
62	14
63	48
64	115
65	103
66	43
71	12
72	188
73	109
74	80
77	126
78	13
91	176
92	91
93	339
94	28
100	38
102	24
105	10
106	29
117	15
119	999
120	246
121	44
137	11
150	11
165	28
236	143
237	21
