Mass Spectrum: 4-Dodecylcyclohexanone
Formula: C18H34O
CAS: 161194-40-7
Molecular weight: 266
m/z	intensity
27	67
29	244
39	67
41	489
42	81
43	442
44	22
53	44
54	58
55	684
56	115
57	277
67	172
68	104
69	290
70	429
71	185
79	67
81	139
82	104
83	420
84	91
85	69
95	68
96	80
97	999
98	104
109	57
111	81
112	68
125	45
126	417
127	34
139	313
140	33
195	46
237	116
238	34
266	80
267	22
