Mass Spectrum: Pyrazolo[4,3-c]pyrazole, 1,4-dihydro-3,6-dinitro-
Formula: C4H2N6O4
CAS: 161155-37-9
Molecular weight: 198
m/z	intensity
33	9
34	2
35	1
36	13
37	19
38	91
39	46
40	27
41	17
42	14
43	66
44	35
46	999
48	9
49	7
50	19
51	26
53	701
54	122
55	11
56	5
57	6
58	3
59	7
60	4
61	6
62	8
63	6
64	16
65	38
66	78
67	14
68	6
69	9
70	2
71	3
72	1
73	4
74	1
75	1
76	9
77	15
78	27
79	11
80	8
81	8
82	6
83	1
84	1
85	7
86	1
87	2
88	3
89	7
90	2
91	3
92	2
93	13
94	82
95	7
96	1
97	0
98	0
101	0
102	0
103	2
104	3
105	7
106	4
107	15
108	4
109	0
110	0
111	0
112	1
113	0
117	0
119	1
120	0
121	1
122	0
123	2
124	1
125	1
126	0
127	1
128	2
133	0
135	1
136	3
138	6
140	29
141	3
143	0
149	0
150	2
152	69
153	43
154	7
155	4
156	1
157	1
161	0
162	0
165	2
166	1
167	1
168	3
169	1
170	0
171	5
172	0
173	0
175	0
179	0
180	2
181	27
182	5
183	1
187	0
189	0
194	1
195	10
198	768
199	66
200	10
201	1
