Mass Spectrum: 1,2,4-Oxadiazole, 5-(4-methylphenyl)-3-phenyl-
Formula: C15H12N2O
CAS: 16112-24-6
Molecular weight: 236
m/z	intensity
18	10
27	20
28	20
38	10
39	70
40	10
41	20
50	30
51	60
52	20
53	10
62	15
63	70
64	100
65	80
66	10
74	10
75	20
76	40
77	70
78	10
87	10
88	10
89	90
90	60
91	240
92	20
102	20
103	110
104	10
116	40
117	80
118	50
119	999
120	90
121	10
236	610
237	110
238	10
