Mass Spectrum: 1-Undecanol, 11-bromo-
Formula: C11H23BrO
CAS: 1611-56-9
Molecular weight: 250
m/z	intensity
25	0
26	5
27	165
28	31
29	242
30	6
31	219
33	1
36	0
37	0
38	1
39	103
40	23
41	701
42	179
43	344
44	20
45	19
46	1
47	0
48	0
49	0
50	1
51	3
52	2
53	45
54	92
55	999
56	238
57	171
58	9
59	5
62	0
63	0
64	0
65	7
66	6
67	133
68	322
69	822
70	162
71	58
72	3
73	19
74	0
76	0
77	3
78	0
79	9
80	2
81	83
82	229
83	658
84	90
85	16
86	1
87	2
88	1
91	1
92	0
93	4
94	0
95	60
96	55
97	384
98	49
99	3
100	0
101	0
102	0
105	0
106	1
107	23
108	1
109	32
110	21
111	108
112	10
113	0
119	2
120	4
121	13
122	5
123	25
124	18
125	52
126	6
127	0
128	0
132	0
133	3
134	23
135	106
136	26
137	99
138	4
139	0
140	0
146	0
147	3
148	260
149	63
150	261
151	59
152	8
153	8
154	0
160	0
161	5
162	195
163	37
164	201
165	31
166	1
170	1
171	0
174	1
175	9
176	23
177	11
178	21
179	2
180	0
188	1
189	6
190	17
191	6
192	15
193	2
194	0
198	0
199	0
202	0
203	9
204	64
205	15
206	62
207	6
208	0
209	0
217	0
230	0
231	0
232	40
233	4
234	37
235	5
236	0
249	0
250	0
251	0
252	0
