Mass Spectrum: Hydrazine, 1-[(4-aminopyrazolo[5,1-c]-as-triazin-3-yl)carbonyl]-2-formyl-
Formula: C7H7N7O2
CAS: 16111-79-8
Molecular weight: 221
m/z	intensity
52	280
53	220
54	100
55	50
66	70
67	290
68	300
69	20
83	150
84	10
95	999
96	80
108	50
135	140
136	10
162	520
163	70
178	70
193	999
194	110
221	360
222	30
