Mass Spectrum: 1-Oxacyclododecan-2,8-dione
Formula: C11H18O3
CAS: 16121-14-5
Molecular weight: 198
m/z	intensity
26	18
27	144
28	113
29	163
30	8
31	34
34	4
35	3
36	3
37	4
38	9
39	122
40	48
41	388
42	388
43	347
44	62
45	36
47	2
48	40
49	35
50	5
51	7
52	4
53	48
54	63
55	805
56	145
57	71
58	34
59	43
60	61
61	5
63	10
65	7
66	6
67	35
68	73
69	888
70	226
71	73
72	10
73	68
74	7
77	9
78	4
79	28
80	90
81	59
82	33
83	333
84	55
85	22
86	28
87	8
88	4
91	9
92	4
93	20
94	13
95	27
96	40
97	149
98	999
99	166
100	43
101	486
102	36
103	5
104	2
105	5
106	2
107	9
108	9
109	16
110	13
111	77
112	52
113	14
114	44
115	54
116	17
117	3
119	4
120	6
121	10
122	4
123	15
124	29
125	89
126	12
127	15
128	5
129	4
133	4
134	7
135	18
136	4
137	8
138	13
139	45
140	27
141	11
142	12
143	65
144	5
145	2
149	18
150	3
151	7
152	64
153	11
154	2
155	5
156	5
162	3
163	2
164	4
165	4
167	3
170	18
171	3
178	2
179	2
180	51
181	8
198	143
199	18
200	2
