Mass Spectrum: 5-Acetyl-2-methyl-6-phenyl-4-(p-toluidino)salicylic acid
Formula: C24H27NO3
CAS: 161265-86-7
Molecular weight: 377
m/z	intensity
33	8
34	7
36	5
38	6
39	51
40	72
41	64
43	999
50	9
51	35
52	12
53	14
55	41
56	9
57	40
62	5
63	17
65	69
66	7
67	9
68	4
69	18
70	11
71	17
74	4
75	4
77	71
78	14
79	28
80	5
81	7
82	6
83	10
84	8
85	11
89	28
91	127
93	7
95	4
97	6
101	6
102	10
103	19
105	28
106	115
107	72
108	19
112	8
113	5
115	46
116	9
117	13
118	11
119	5
120	4
126	5
127	19
128	33
129	22
130	16
131	22
132	60
134	7
139	9
140	6
141	15
142	12
143	13
144	14
145	8
146	7
147	9
149	11
151	15
152	11
153	9
154	8
155	9
156	8
157	9
158	12
165	12
166	7
167	10
168	6
169	5
170	6
171	16
172	9
173	5
174	15
178	6
179	4
180	7
181	7
182	9
183	8
184	9
185	20
186	9
188	7
189	5
193	4
194	4
195	4
196	7
197	6
198	13
199	4
200	9
202	6
204	5
209	6
210	6
211	6
213	8
214	7
215	4
216	8
217	9
218	9
219	8
220	9
222	9
224	10
227	65
228	9
230	11
231	6
232	9
233	8
234	47
235	9
240	8
242	5
243	6
244	5
248	6
253	4
256	4
257	7
258	20
259	15
260	7
262	9
271	5
272	15
273	32
274	236
275	53
276	75
277	18
282	5
283	6
292	8
298	23
299	7
300	8
301	4
316	114
317	24
318	5
334	341
335	77
336	9
374	5
376	6
377	105
378	25
379	4
