Mass Spectrum: 2,5-Dimethoxy-4-ethoxyamphetamine
Formula: C13H21NO3
CAS: 16128-88-4
Molecular weight: 239
m/z	intensity
42	16
44	999
45	15
53	12
65	11
66	11
69	23
77	20
79	10
91	23
94	8
107	10
122	25
125	4
137	90
138	3
139	20
153	198
154	5
165	4
167	139
168	65
181	52
196	789
197	77
210	0
220	1
239	27
240	0
