Mass Spectrum: 4'-Hydroxy-3'-phenylspiro(indoline-3,5'-(2)pyrazolin)-2-one
Formula: C16H13N3O2
CAS: 16120-59-5
Molecular weight: 279
m/z	intensity
26	5
27	15
28	54
29	8
30	2
31	1
36	1
37	13
38	25
39	61
40	9
41	19
42	3
43	6
44	3
45	8
46	1
49	6
50	81
51	182
52	60
53	9
54	4
55	4
56	2
57	5
58	5
59	22
60	3
61	10
62	30
63	89
64	75
65	77
66	20
67	6
68	3
69	4
70	2
71	3
72	1
73	8
74	29
75	64
76	172
77	576
78	83
79	29
80	3
81	9
82	9
83	4
84	2
85	3
86	6
87	12
88	49
89	99
90	122
91	266
92	101
93	191
94	26
95	13
96	6
97	3
98	4
99	7
100	5
101	16
102	116
103	250
104	999
105	196
106	52
107	7
108	5
109	7
110	4
111	4
112	2
113	4
114	7
115	11
116	45
117	70
118	663
119	274
120	274
121	25
122	3
123	1
124	1
125	4
126	5
127	6
128	19
129	33
130	63
131	38
132	41
133	114
134	596
135	186
136	15
137	3
138	2
139	6
140	4
141	4
142	5
143	3
144	59
145	48
146	646
147	895
148	132
149	12
150	9
151	15
152	14
153	4
154	1
155	1
156	3
157	3
158	24
159	42
160	69
161	49
162	15
163	8
164	6
165	18
166	6
167	7
168	2
169	1
170	1
171	1
172	3
173	1
174	9
175	9
176	51
177	29
178	37
179	14
180	8
181	2
184	1
185	1
186	2
187	4
188	5
189	12
190	13
191	10
192	7
193	14
194	39
195	9
196	1
201	4
202	9
203	28
204	169
205	60
206	43
207	12
208	3
209	1
214	11
215	28
216	9
217	8
218	9
219	9
220	17
221	12
222	146
223	31
224	3
230	1
231	4
232	79
233	162
234	40
235	73
236	15
237	2
242	3
243	1
244	4
245	8
246	3
247	2
248	3
249	6
250	32
251	83
252	14
253	1
259	2
260	114
261	825
262	177
263	26
264	4
277	11
278	10
279	635
280	124
281	13
282	1
