Mass Spectrum: 4-(1-Trichlorosilyl-3,3-dimethylbutyl)cyclopentene
Formula: C11H19Cl3Si
CAS: 161371-69-3
Molecular weight: 284
m/z	intensity
12	0
13	0
14	2
15	24
16	0
17	0
18	2
27	97
28	19
29	190
30	4
35	2
36	9
37	2
38	10
39	127
40	24
41	302
42	17
43	121
44	4
45	0
50	6
51	25
52	14
53	35
54	7
55	50
57	999
58	46
59	1
61	0
63	26
64	4
65	39
66	19
67	160
68	11
69	31
70	9
71	25
72	1
73	1
74	0
75	1
77	62
78	17
79	108
80	12
81	47
82	4
83	7
84	1
85	1
87	0
88	0
89	3
91	59
92	9
93	59
94	20
95	126
96	11
97	2
98	5
99	7
100	3
101	5
102	1
103	3
104	1
105	9
106	1
107	8
108	2
109	9
110	1
111	0
112	1
113	3
114	1
115	6
116	1
117	3
118	1
119	3
120	0
121	3
123	4
124	1
125	8
126	1
127	4
128	1
129	2
130	1
131	2
133	62
135	57
136	5
137	23
138	2
139	5
140	0
141	2
142	0
143	1
145	1
147	1
148	0
149	3
150	1
151	4
152	1
153	2
155	2
157	1
159	2
160	0
161	1
162	0
163	4
164	2
165	4
166	1
167	1
168	0
169	0
171	0
173	0
175	1
177	6
178	1
179	4
180	0
181	1
183	0
185	0
187	0
188	0
189	1
191	4
192	0
193	3
194	0
195	1
199	3
200	0
201	3
202	0
203	1
204	0
205	0
207	0
209	0
211	0
213	6
214	1
215	6
216	0
217	2
218	0
219	0
225	0
227	15
228	23
229	17
230	22
231	7
232	7
233	1
234	1
235	0
241	0
243	0
249	0
251	0
269	1
270	0
271	1
272	0
273	0
283	1
284	4
285	1
286	4
287	1
288	1
289	0
290	0
