Mass Spectrum: Diphenylgermanium dichloride
Formula: C12H10Cl2Ge
CAS: 1613-66-7
Molecular weight: 298
m/z	intensity
14	1
26	3
27	34
28	8
29	2
35	2
36	19
37	2
38	9
39	31
40	3
41	1
44	2
49	2
50	144
51	643
52	40
53	2
58	2
61	1
62	6
63	10
64	7
65	3
69	1
70	5
72	6
73	4
74	37
75	41
76	77
77	999
78	79
79	3
80	1
82	1
85	1
86	2
87	3
88	1
89	4
91	3
95	22
96	1
97	30
98	10
99	41
100	2
101	9
102	8
103	1
105	179
107	298
108	68
109	395
110	23
111	170
112	10
113	21
114	4
115	8
119	7
120	2
121	19
122	6
123	26
124	9
125	22
126	10
127	12
128	7
129	1
131	1
133	1
139	3
142	1
143	1
144	2
145	5
146	3
147	71
148	8
149	95
150	36
151	136
152	106
153	83
154	795
155	103
156	6
157	2
168	1
171	1
173	1
175	1
181	1
182	85
183	8
184	140
185	44
186	191
187	24
188	81
189	6
190	10
197	1
199	2
201	2
217	86
218	7
219	171
220	46
221	241
222	49
223	150
224	31
225	51
226	30
227	16
228	8
229	3
230	1
257	2
258	6
259	324
260	52
261	540
262	203
263	729
264	138
265	318
266	42
267	45
268	5
269	2
294	142
295	18
296	284
297	91
298	397
299	87
300	242
301	36
302	62
303	12
304	7
305	3
