Mass Spectrum: 20.beta.-Progerol, TMS derivative
Formula: C24H40O2Si
CAS: 16134-51-3
Molecular weight: 388
m/z	intensity
72	14
73	379
74	43
75	178
76	15
77	38
78	10
79	50
80	10
81	13
85	10
87	13
89	10
91	52
92	13
93	41
94	10
95	39
96	9
97	10
100	13
101	10
103	21
104	14
105	25
107	10
117	999
118	91
119	59
121	23
122	11
124	31
142	13
143	26
145	14
147	14
159	13
161	11
171	8
173	11
175	8
183	11
196	10
256	10
272	10
283	9
329	30
344	39
345	11
373	11
