Mass Spectrum: Benzene, (1,2-diiodoethenyl)-
Formula: C8H6I2
CAS: 16141-16-5
Molecular weight: 356
m/z	intensity
27	12
28	6
29	0
33	0
36	2
37	17
38	18
39	44
40	2
41	0
42	0
43	1
44	0
48	1
49	14
50	128
51	82
52	68
53	3
55	0
57	1
60	2
61	21
62	37
63	69
64	5
65	0
67	0
69	0
71	0
72	0
73	14
74	84
75	82
76	147
77	12
78	0
80	0
84	0
85	2
86	3
87	10
88	0
89	0
90	0
91	0
96	0
97	3
98	13
99	4
100	2
101	21
102	999
103	84
104	3
105	0
127	46
128	12
139	0
140	0
147	1
148	0
149	0
151	0
152	1
154	0
164	0
176	2
178	2
188	0
189	0
200	0
221	0
227	0
228	2
229	438
230	36
231	1
254	6
356	116
357	10
358	0
