Mass Spectrum: 3-Methyl-2-oxo-1-oxaspiro(4.5)decane-4-carboxylic acid
Formula: C11H16O4
CAS: 16149-79-4
Molecular weight: 212
m/z	intensity
15	6
16	3
17	2
18	7
26	11
27	126
28	74
29	93
30	3
31	7
37	2
38	9
39	206
40	51
41	430
42	164
43	133
44	158
45	40
46	4
47	1
48	2
49	1
50	13
51	48
52	26
53	100
54	118
55	912
56	83
57	51
58	10
59	8
60	8
61	4
62	6
63	20
64	16
65	54
66	38
67	295
68	99
69	896
70	122
71	44
72	10
73	9
74	45
75	7
76	6
77	98
78	40
79	226
80	110
81	495
82	213
83	60
84	24
85	24
86	220
87	343
88	20
89	11
90	6
91	107
92	28
93	115
94	72
95	405
96	107
97	161
98	500
99	999
100	87
101	12
102	8
103	10
104	8
105	30
106	10
107	89
108	171
109	50
110	75
111	62
112	29
113	55
114	200
115	82
116	17
117	51
118	15
119	18
120	20
121	91
122	133
123	242
124	50
125	68
126	21
127	19
128	66
129	54
130	66
131	31
132	28
133	12
134	7
135	83
136	10
137	15
138	155
139	269
140	48
141	288
142	30
143	23
144	6
145	4
146	10
147	8
148	76
149	51
150	126
151	52
152	36
153	74
154	8
155	9
156	425
157	105
158	16
159	3
160	2
161	2
162	1
163	1
164	2
165	10
166	177
167	63
168	274
169	945
170	181
171	19
172	2
174	1
175	1
176	12
177	2
178	1
179	7
180	1
182	1
183	60
184	163
185	19
186	2
192	1
193	4
194	501
195	75
196	8
197	2
212	164
213	36
214	4
