Mass Spectrum: 2-(2-(2-(2-(2-(2-Methoxyethoxy)ethoxy)ethoxy)ethoxy)ethoxy)acetic acid
Formula: C13H26O8
CAS: 16142-03-3
Molecular weight: 310
m/z	intensity
15	9
19	3
26	3
27	17
28	54
29	100
30	12
31	117
32	2
33	3
39	1
40	1
41	16
42	32
43	146
44	69
45	812
46	20
47	3
49	1
50	1
51	2
55	2
56	5
57	59
58	312
59	999
60	40
61	22
62	1
63	1
68	1
70	25
71	18
72	45
73	76
74	6
75	55
76	3
77	11
80	1
83	1
84	2
85	2
86	12
87	158
88	34
89	139
90	8
91	3
99	9
100	10
101	41
102	176
103	760
104	38
105	13
106	1
113	1
114	3
115	9
116	5
117	22
118	3
119	29
120	2
121	8
122	2
127	3
128	7
129	1
130	1
131	27
132	4
133	58
134	4
135	2
141	1
143	1
144	1
145	5
146	30
147	59
148	5
149	1
155	7
159	2
161	3
163	15
164	2
165	2
174	1
175	4
176	1
177	6
178	1
189	1
190	1
191	5
192	1
198	1
207	3
208	1
209	1
221	4
235	1
265	1
