Mass Spectrum: Cyclohept-4-enecarboxylic acid
Formula: C8H12O2
CAS: 1614-73-9
Molecular weight: 140
m/z	intensity
26	11
27	202
28	53
29	74
30	3
31	8
37	6
38	22
39	286
40	56
41	265
42	40
43	51
44	8
45	55
46	2
47	6
50	17
51	45
52	26
53	129
54	118
55	232
56	18
57	35
58	5
60	4
61	4
62	8
63	23
64	5
65	61
66	76
67	307
68	734
69	61
70	17
71	15
72	2
73	999
74	35
75	7
76	2
77	99
78	29
79	293
80	142
81	65
82	9
83	17
84	21
85	17
86	69
87	5
91	60
92	31
93	61
94	320
95	395
96	38
97	58
98	16
99	42
100	3
104	9
105	4
107	8
109	3
110	2
111	24
112	16
113	3
115	2
121	4
122	211
123	21
124	2
125	20
126	2
139	3
140	228
141	23
142	2
