Mass Spectrum: O-Ethyl S-(2-diisopropylaminoethyl) methylphosphonodithioate
Formula: C11H26NOPS2
CAS: 161488-46-6
Molecular weight: 283
m/z	intensity
30	462
41	169
42	170
43	234
44	138
56	94
58	34
63	69
70	155
72	350
84	67
85	32
86	30
95	148
98	16
112	27
114	999
115	85
123	52
127	83
128	11
155	51
183	4
