Mass Spectrum: 2,1,3-Benzothiadiazole, 1,3-dihydro-, 2,2-dioxide
Formula: C6H6N2O2S
CAS: 1615-06-1
Molecular weight: 170
m/z	intensity
39	50
50	100
51	250
52	599
53	150
78	210
79	869
80	100
85	50
105	499
106	999
107	50
169	50
170	849
171	80
