Mass Spectrum: Oxazolidine, 2-butyl-2-ethyl-
Formula: C9H19NO
CAS: 161500-44-3
Molecular weight: 157
m/z	intensity
15	15
26	14
27	127
29	221
30	111
31	12
39	55
40	12
41	199
42	114
43	72
44	544
45	237
53	23
54	61
55	142
56	533
57	353
58	34
60	26
67	26
68	21
69	35
70	242
71	162
72	333
73	18
82	25
83	10
84	586
85	165
86	117
96	14
97	11
98	115
99	26
100	999
101	62
112	21
114	12
115	414
116	29
126	103
127	15
128	814
129	71
142	29
143	3
156	24
157	13
158	1
