Mass Spectrum: 1H-Imidazole-1-ethanol
Formula: C5H8N2O
CAS: 1615-14-1
Molecular weight: 112
m/z	intensity
27	106
29	82
31	429
33	101
39	85
40	285
41	524
43	70
45	243
52	16
54	37
59	102
62	22
67	119
68	999
69	73
72	63
73	33
81	103
82	22
94	11
95	7
112	113
113	8
