Mass Spectrum: Cyclohexanol, 2-mercapto-
Formula: C6H12OS
CAS: 16166-53-3
Molecular weight: 132
m/z	intensity
28	19
29	211
30	5
31	121
33	7
34	12
35	24
37	3
38	9
39	241
40	35
41	495
42	184
43	111
44	80
45	188
46	33
47	142
48	11
49	5
50	12
51	33
52	13
53	104
54	141
55	269
56	24
57	355
58	31
59	81
60	245
61	57
62	12
63	11
64	1
65	39
66	25
67	220
68	43
69	97
70	234
71	60
72	51
73	315
74	25
75	22
76	22
77	42
78	7
79	228
80	682
81	999
82	82
83	56
84	6
85	118
86	137
87	81
88	52
89	24
90	4
91	2
94	1
95	3
96	2
97	31
98	52
99	69
100	9
101	44
102	3
103	5
104	2
105	2
110	2
111	1
112	1
113	16
114	451
115	38
116	24
117	2
119	1
124	1
128	1
131	2
132	231
133	19
134	13
