Mass Spectrum: 3,5-Pyridinedicarbonitrile, 2-amino-4-(2-furanyl)-6-[(2-oxo-2-phenylethyl)thio]-
Formula: C19H12N4O2S
CAS: 161689-53-8
Molecular weight: 360
m/z	intensity
36	0
37	3
38	16
39	57
40	9
41	5
42	6
44	4
45	29
46	12
48	0
50	30
51	128
52	16
53	7
54	1
58	0
59	0
60	0
61	1
62	9
63	20
64	12
65	32
66	9
67	3
68	2
70	2
72	0
74	7
75	15
76	24
77	447
78	41
79	3
80	1
81	0
82	0
84	0
86	4
87	4
88	21
89	18
90	10
91	25
92	6
93	1
94	6
95	0
96	0
99	2
100	14
101	10
102	7
103	6
104	20
105	999
106	85
107	5
108	0
109	0
110	0
111	0
112	0
113	1
114	3
115	5
116	2
117	2
118	6
119	0
121	3
122	0
123	0
124	0
125	1
126	3
127	15
128	6
129	2
130	1
132	1
133	0
134	0
135	0
139	1
140	1
141	5
142	2
143	3
144	2
145	1
146	2
147	1
148	3
150	0
153	3
154	21
155	11
156	4
158	0
159	2
160	0
164	0
165	0
166	0
167	0
168	0
169	0
170	1
171	1
172	0
173	3
174	3
175	0
180	0
181	4
182	0
183	4
184	0
185	1
186	1
187	0
192	0
193	0
194	5
195	1
197	4
198	0
199	1
200	3
201	0
209	0
210	2
211	0
213	0
214	0
215	0
220	2
221	0
225	0
226	0
227	5
228	0
229	0
230	0
241	0
253	0
254	3
255	7
256	1
257	0
265	0
283	0
284	0
287	0
300	0
301	0
327	8
328	1
329	0
331	10
332	3
359	96
360	480
361	111
362	39
363	1
