Mass Spectrum: n-Pentanamide, 5-chloro-N-[5-nitro-2-thiazolyl]-
Formula: C8H10ClN3O3S
CAS: 16172-47-7
Molecular weight: 263
m/z	intensity
41	144
42	102
43	56
44	40
45	76
46	10
47	2
49	43
51	34
53	115
55	999
56	46
57	60
58	9
59	13
60	11
61	6
62	2
63	82
65	20
66	2
67	6
69	27
71	165
72	24
73	10
74	2
75	6
77	7
78	2
79	2
80	4
81	10
82	19
83	29
84	8
85	5
86	5
87	1
88	1
89	7
91	392
93	132
94	4
95	2
97	24
98	104
99	41
100	9
101	2
102	0
103	0
104	0
105	1
106	0
107	1
109	5
111	10
112	5
113	6
114	1
115	3
119	709
121	308
124	14
125	10
126	8
129	53
130	11
131	3
132	1
133	0
134	1
135	2
136	2
137	4
138	1
140	2
141	1
142	0
144	2
145	48
146	22
147	3
148	1
149	0
150	1
151	2
152	6
153	14
154	2
155	1
156	0
158	35
159	2
160	2
168	1
170	13
171	27
172	5
173	1
174	0
176	0
180	0
181	3
182	0
184	1
186	1
189	0
190	6
191	4
192	0
196	0
198	2
199	20
200	2
201	1
211	1
214	1
224	0
226	1
227	39
228	12
229	2
230	0
247	1
249	0
260	1
262	1
263	47
264	13
265	16
266	7
267	1
