Mass Spectrum: .psi.,.psi.-Carotene, 3,3',4,4'-tetradehydro-1',2'-dihydro-1-hydroxy-1'-methoxy-
Formula: C41H58O2
CAS: 16176-79-7
Molecular weight: 582
m/z	intensity
13	1
14	2
15	8
16	1
17	4
18	21
25	1
26	6
27	17
28	8
29	16
30	20
31	2
32	13
33	1
36	1
37	3
38	7
39	46
40	7
41	41
42	7
43	46
44	4
45	5
46	1
49	3
50	21
51	50
52	26
53	24
54	3
55	42
56	5
57	8
58	7
59	125
60	5
61	5
62	13
63	32
64	8
65	48
66	7
67	20
68	3
69	34
70	3
71	3
72	3
73	999
74	65
75	10
76	7
77	125
78	49
79	77
80	13
81	41
82	4
83	7
84	1
85	5
86	4
87	4
88	2
89	21
90	8
91	875
92	118
93	58
94	8
95	34
96	4
97	4
98	3
99	5
100	1
101	4
102	15
103	61
104	29
105	353
106	574
107	78
108	8
109	22
110	3
111	3
112	1
113	1
114	1
115	26
116	14
117	33
118	12
119	92
120	18
121	26
122	5
123	8
124	1
125	3
126	2
127	9
128	33
129	47
130	23
131	59
132	20
133	53
134	13
135	22
136	3
137	3
138	1
139	9
140	3
141	31
142	36
143	75
144	35
145	132
146	23
147	35
148	9
149	7
150	2
151	4
152	10
153	1
154	1
155	38
156	40
157	98
158	30
159	60
160	15
161	22
162	5
163	4
164	2
165	26
166	16
167	26
168	16
169	56
170	26
171	59
172	20
173	44
174	12
175	18
176	4
177	4
178	14
179	29
180	19
181	38
182	24
183	65
184	24
185	44
186	15
187	22
188	8
189	9
190	5
191	10
192	15
193	30
194	24
195	53
196	29
197	65
198	24
199	35
200	13
201	20
202	8
203	9
204	6
205	14
206	15
207	38
208	24
209	78
210	28
211	44
212	15
213	20
214	7
215	7
216	6
217	9
218	8
219	15
220	15
221	33
222	20
223	41
224	17
225	27
226	9
227	11
228	5
229	7
230	5
231	10
232	7
233	19
234	12
235	30
236	13
237	28
238	16
239	28
240	11
241	11
242	5
243	7
244	5
245	10
246	7
247	18
248	11
249	19
250	9
251	19
252	13
253	17
254	6
255	6
256	4
257	7
258	5
259	13
260	7
261	18
262	8
263	20
264	10
265	20
266	8
267	9
268	5
269	5
270	5
271	8
272	5
273	11
274	6
275	17
276	8
277	15
278	9
279	17
280	8
281	5
282	3
283	5
284	4
285	7
286	5
287	9
288	6
289	13
290	5
291	11
292	5
293	10
294	5
295	3
296	3
297	10
298	6
299	6
300	3
301	7
302	4
303	6
304	5
305	5
306	3
307	3
308	2
309	3
310	3
311	10
312	6
313	4
314	3
315	6
316	3
317	6
318	4
319	4
320	8
321	4
322	2
323	3
324	2
325	4
326	3
327	4
328	3
329	7
330	5
331	7
332	4
333	4
334	5
335	3
336	2
337	2
338	6
339	4
340	2
341	4
342	3
343	5
344	6
345	9
346	4
347	3
348	2
349	2
350	2
351	3
352	19
353	6
354	3
355	4
356	6
357	5
358	3
359	3
360	2
361	1
362	2
363	2
364	2
365	2
366	8
367	4
368	2
369	3
370	46
371	16
372	4
373	2
374	2
375	2
376	2
377	1
378	1
379	1
380	1
381	1
382	1
383	3
384	2
385	1
386	9
387	4
388	5
389	2
390	1
391	1
392	2
393	1
394	1
395	2
396	2
397	4
398	3
399	3
400	2
401	2
402	4
403	29
404	13
405	3
406	3
407	1
408	1
409	2
410	2
411	3
412	1
413	1
414	1
415	2
416	2
417	4
418	13
419	4
420	2
421	1
422	1
423	2
424	7
425	3
426	22
427	8
428	6
429	4
430	2
431	1
432	1
433	1
434	1
435	1
436	1
437	1
438	1
439	1
440	1
441	1
442	2
443	2
444	26
445	11
446	5
447	2
448	1
449	1
450	1
451	1
452	1
453	1
454	1
455	1
456	4
457	2
458	54
459	20
460	11
461	5
462	15
463	6
464	2
465	1
470	1
472	2
473	1
474	8
475	4
476	199
477	71
478	21
479	5
480	2
481	1
486	1
488	1
489	1
490	6
491	4
492	4
493	2
494	3
495	2
496	1
502	1
503	1
504	1
506	1
507	1
508	2
509	3
510	2
511	1
512	1
517	1
519	1
520	1
521	1
522	1
523	1
524	3
525	1
526	1
528	1
530	3
531	1
532	11
533	5
534	5
535	3
536	2
537	1
538	1
548	2
549	1
550	11
551	5
552	4
553	1
554	1
563	4
564	19
565	9
566	7
567	3
568	5
569	2
570	1
578	1
580	6
581	3
582	45
