Mass Spectrum: Lup-20(29)-en-3-ol, acetate, (3.beta.)-
Formula: C32H52O2
CAS: 1617-68-1
Molecular weight: 468
m/z	intensity
25	3
26	14
27	53
29	152
30	14
31	14
38	8
39	49
40	24
41	464
42	50
43	999
44	82
45	49
46	30
47	6
48	6
49	21
50	13
51	22
52	8
53	74
54	22
55	548
56	66
57	234
58	23
59	23
60	32
61	11
62	6
63	18
64	8
65	37
66	15
67	342
68	171
69	703
70	96
71	196
72	28
73	43
74	13
75	11
76	27
77	105
78	22
79	339
80	93
81	654
82	140
83	203
84	61
85	75
86	19
87	17
88	8
89	9
90	13
91	213
92	68
93	559
94	259
95	745
96	127
97	132
98	34
99	25
100	13
101	19
102	12
103	17
104	17
105	335
106	125
107	579
108	456
109	713
110	153
111	107
112	33
113	23
114	12
115	21
116	13
117	45
118	30
119	370
120	179
121	610
122	339
123	371
124	64
125	42
126	14
127	35
128	16
129	33
130	13
131	71
132	67
133	277
134	216
135	497
136	386
137	178
138	26
139	51
140	10
141	32
142	12
143	26
144	16
145	124
146	81
147	346
148	197
149	283
150	81
151	45
152	74
153	68
154	10
155	21
156	17
157	26
158	18
159	124
160	66
161	276
162	124
163	154
164	33
165	27
166	9
167	17
168	8
169	22
170	6
171	26
172	17
173	111
174	49
175	256
176	88
177	110
178	37
179	26
180	8
185	53
186	25
187	192
188	105
189	745
190	355
191	339
192	68
193	34
194	13
195	8
196	17
197	9
198	4
199	24
200	10
201	154
202	94
203	339
204	365
205	260
206	100
207	27
208	10
209	9
210	3
211	6
212	5
213	28
214	9
215	72
216	180
217	114
218	396
219	114
220	21
221	22
222	6
223	8
224	2
225	5
226	2
227	21
228	14
229	122
230	43
231	31
232	14
233	15
234	8
235	6
236	4
237	4
238	4
239	7
240	3
241	15
242	5
243	33
244	8
245	15
246	9
247	11
248	21
249	136
250	45
251	12
252	3
253	6
254	6
255	23
256	16
257	68
258	19
259	16
260	6
261	17
262	51
263	23
264	19
265	4
266	2
267	6
268	3
269	10
270	15
271	24
272	29
273	15
274	6
275	7
276	99
277	22
278	5
279	3
280	2
281	5
282	6
283	14
284	11
285	14
286	11
287	5
288	5
289	27
290	14
291	4
292	1
294	1
295	9
296	7
297	52
298	56
299	46
300	10
301	6
302	1
303	1
304	2
305	1
306	2
307	1
308	1
309	4
310	2
311	2
312	3
313	3
314	3
315	12
316	4
317	3
318	4
319	1
320	1
321	0
322	0
323	6
324	6
325	15
326	6
327	7
328	3
329	5
330	5
331	1
332	0
333	0
334	1
335	1
336	0
337	4
338	4
339	15
340	6
341	4
342	16
343	7
344	3
345	1
348	3
350	1
351	4
352	5
353	6
354	3
355	26
356	24
357	59
358	48
359	17
360	4
361	1
363	3
364	1
365	26
366	15
367	3
368	1
369	3
370	1
371	3
372	0
373	1
374	0
375	0
376	1
377	1
378	1
379	2
380	3
381	2
382	1
383	4
384	11
385	6
386	9
387	2
388	1
389	1
390	1
392	1
393	41
394	20
395	4
396	1
397	2
398	2
399	8
400	3
401	0
406	2
407	3
408	47
409	24
410	6
411	4
412	27
413	8
414	2
415	0
418	0
421	2
422	0
423	0
424	2
425	16
426	7
427	2
428	0
436	0
437	0
438	1
439	0
440	0
453	65
454	18
455	4
467	1
468	150
469	58
470	14
471	1
