Mass Spectrum: 2-(1-Pyrazolyl)-6,8-dioxabicyclo[3.2.1]octan-4-one
Formula: C9H10N2O3
CAS: 161721-00-2
Molecular weight: 194
m/z	intensity
33	2
34	5
39	965
41	910
42	365
43	412
44	231
47	9
51	341
53	405
54	148
55	72
57	58
58	4
60	8
61	2
62	2
63	7
64	9
65	23
68	999
69	365
70	47
71	44
72	9
73	3
74	1
75	1
77	15
80	343
81	524
82	33
83	8
84	3
85	7
86	1
87	1
90	2
94	808
95	126
96	34
97	32
98	20
99	15
100	1
103	1
107	383
108	33
109	19
110	6
111	2
112	1
115	1
119	116
121	457
122	99
123	38
124	2
125	1
126	1
127	1
133	1
135	26
137	45
138	8
139	2
140	2
144	1
145	1
149	721
150	53
151	3
152	1
153	1
163	1
166	98
167	73
168	6
169	1
193	1
194	11
195	1
