Mass Spectrum: Azuleno[4,5-b]furan-2,8(3H,4H)-dione, 3a,5,6,6a,7,9b-hexahydro-6-hydroxy-3,6,9-trimethyl-, [3S-(3.alpha.,3a.alpha.,6.alpha.,6a.alpha.,9b.beta.)]-
Formula: C15H20O4
CAS: 1618-98-0
Molecular weight: 264
m/z	intensity
39	190
41	340
43	999
53	100
55	230
57	100
65	100
67	115
69	120
77	120
79	100
81	100
91	180
95	130
96	100
97	100
105	135
107	100
123	115
124	150
126	125
133	140
147	100
149	120
169	130
193	190
264	310
