Mass Spectrum: 1,4-Dicyano-2-cyclopropylmethylbenzene
Formula: C12H10N2
CAS: 161894-18-4
Molecular weight: 182
m/z	intensity
40	15
41	999
42	40
43	22
44	45
45	9
46	7
47	11
49	7
50	82
51	64
52	30
53	19
54	6
55	27
56	6
57	22
61	14
62	35
63	81
64	78
65	11
69	8
70	6
71	11
74	31
75	94
76	74
77	52
78	10
81	9
83	66
85	48
86	9
87	35
88	59
89	26
90	30
91	5
95	5
97	6
98	5
99	41
100	59
101	125
102	41
103	15
112	6
113	25
114	208
115	86
116	17
118	18
125	18
126	61
127	193
128	418
129	48
130	7
138	15
139	15
140	126
141	341
142	66
146	18
149	16
151	6
152	28
153	132
154	763
155	232
156	258
157	26
165	35
166	22
167	60
168	9
179	15
181	670
182	675
183	109
