Mass Spectrum: 4-Cyano-4-hydroxy-1,3-dimethyl-2,6-diphenylpiperidine
Formula: C20H22N2O
CAS: 161894-31-1
Molecular weight: 306
m/z	intensity
37	3
38	6
39	31
40	22
41	48
42	450
43	50
44	32
45	8
49	9
50	19
51	40
52	15
53	9
54	11
55	56
56	48
57	41
58	27
59	22
60	2
62	4
63	14
64	4
65	31
66	6
67	5
68	20
69	23
70	44
71	11
72	8
73	3
74	5
75	7
76	17
77	160
78	140
79	23
80	3
81	7
82	14
83	88
84	58
85	62
86	7
87	11
88	1
89	21
90	17
91	230
92	23
93	4
94	3
95	3
96	5
97	6
98	23
99	4
100	2
101	3
102	22
103	150
104	900
105	110
106	14
107	12
108	3
109	3
110	2
111	5
112	2
113	2
114	1
115	62
116	44
117	240
118	999
119	180
120	790
121	69
122	5
123	3
124	4
125	12
126	3
127	5
128	15
129	9
130	13
131	95
132	57
133	18
134	3
135	4
139	9
140	5
141	6
142	3
143	6
144	14
145	26
146	290
147	49
148	6
149	3
151	2
152	9
153	4
154	4
155	3
156	2
157	3
158	11
159	7
160	60
161	8
165	7
166	4
167	8
168	2
169	4
170	11
171	2
172	3
173	2
174	9
175	2
178	3
179	2
180	4
181	2
186	2
187	1
188	3
192	1
193	3
194	17
195	4
196	2
200	2
201	3
202	90
203	14
204	2
206	2
207	9
208	40
209	18
210	2
220	3
221	1
222	38
223	10
224	1
229	16
230	3
234	3
236	5
237	1
248	1
250	5
251	1
262	4
264	2
265	3
276	1
277	4
278	14
279	510
280	110
281	12
289	23
290	5
305	2
306	30
307	7
308	1
