Mass Spectrum: 4-Amino-4-cyano-3,5-dimethyl-2-phenylpiperidine
Formula: C14H19N3
CAS: 161894-35-5
Molecular weight: 229
m/z	intensity
37	3
38	8
39	82
40	38
41	190
42	110
43	32
44	67
45	4
50	26
51	70
52	37
53	41
54	93
55	83
56	120
57	33
58	25
59	6
62	4
63	22
64	9
65	64
66	15
67	39
68	79
69	39
70	82
71	28
72	2
73	4
74	6
75	9
76	25
77	180
78	130
79	84
80	23
81	39
82	94
83	29
84	230
85	24
86	16
87	5
88	2
89	47
90	49
91	730
92	64
93	11
94	12
95	13
96	79
97	120
98	43
99	36
100	4
101	6
102	16
103	67
104	580
105	320
106	200
107	20
108	13
109	16
110	9
111	4
114	2
115	110
116	51
117	280
118	999
119	610
120	80
121	6
122	2
123	11
124	6
125	97
126	14
127	8
128	18
129	18
130	32
131	21
132	110
133	72
134	15
135	3
139	3
140	4
141	12
142	10
143	23
144	40
145	44
146	550
147	210
148	21
149	1
152	5
153	4
154	5
155	5
156	10
157	18
158	27
159	19
160	14
161	2
167	4
168	6
169	8
170	35
171	13
172	43
173	34
174	10
181	2
182	4
183	4
184	32
185	23
186	15
187	150
188	28
189	2
194	5
195	2
196	3
197	45
198	12
199	8
200	9
201	40
202	140
203	220
204	30
205	3
211	4
212	170
213	140
214	21
229	16
230	3
