Mass Spectrum: Benzenesulfonic acid, 2,4,6-trimethyl-, hydrazide
Formula: C9H14N2O2S
CAS: 16182-15-3
Molecular weight: 214
m/z	intensity
15	1
16	1
17	9
18	52
26	1
27	25
28	52
29	69
30	63
31	77
32	8
34	1
38	3
39	50
40	7
41	100
42	15
43	5
44	8
45	27
46	1
47	1
48	40
50	11
51	39
52	14
53	30
54	2
55	5
56	1
57	8
58	10
59	21
60	3
61	2
62	5
63	20
64	156
65	56
66	9
67	7
68	1
69	3
70	5
71	20
72	2
73	2
74	5
75	9
76	8
77	159
78	53
79	113
80	9
81	1
82	1
83	1
84	1
85	2
86	1
87	1
89	11
90	4
91	360
92	36
93	43
94	4
95	3
97	7
98	1
99	1
101	2
102	16
103	132
104	77
105	475
106	50
107	22
108	6
109	2
110	1
111	2
112	1
115	84
116	19
117	142
118	46
119	999
120	914
121	151
122	12
123	3
124	3
125	1
131	1
132	6
133	10
134	50
135	156
136	66
137	16
138	2
139	53
140	5
141	3
147	4
148	1
149	19
150	22
151	80
152	94
153	13
154	5
161	10
162	2
163	1
164	1
165	43
166	67
167	97
168	43
169	8
170	2
175	2
179	1
181	1
182	4
183	35
184	440
185	406
186	61
187	21
188	2
190	5
191	3
199	6
200	1
214	191
215	23
216	9
217	1
