Mass Spectrum: 4-Cyano-4-hydroxy-6-phenyl-1,2,2-trimethylpiperidine
Formula: C15H20N2O
CAS: 161894-30-0
Molecular weight: 244
m/z	intensity
37	2
38	4
39	52
40	37
41	81
42	220
43	41
44	21
50	15
51	57
52	18
53	15
54	22
55	110
56	999
57	43
58	21
59	2
62	3
63	14
64	4
65	26
66	4
67	4
68	10
69	29
70	67
71	47
72	250
73	13
74	6
75	8
76	17
77	150
78	81
79	28
80	12
81	3
82	16
83	78
84	30
85	21
86	3
87	6
89	15
90	10
91	79
92	10
93	3
94	3
95	3
96	7
97	4
98	180
99	11
100	1
101	14
102	27
103	150
104	240
105	27
106	2
107	2
108	1
109	3
110	1
112	4
115	13
116	10
117	23
118	200
119	36
120	56
121	5
124	8
125	7
126	1
127	3
128	6
129	5
130	7
131	610
132	71
133	7
134	4
139	2
140	48
141	6
142	1
143	3
144	7
145	19
146	36
147	4
156	2
157	2
158	12
159	3
160	9
169	2
170	1
171	2
172	6
173	3
174	60
175	9
176	2
186	5
187	1
200	4
201	5
202	780
203	110
204	10
209	1
211	2
215	2
216	4
217	160
218	25
219	2
229	46
230	8
244	3
245	1
