Mass Spectrum: N-(8-Methyl-8-azabicyclo[3.2.1]oct-2-en-3-yl)-N-phenylbutanamide
Formula: C18H24N2O
CAS: 161807-99-4
Molecular weight: 284
m/z	intensity
33	3
34	3
35	25
36	117
38	51
39	44
40	16
41	122
42	173
43	174
44	21
45	1
46	0
47	0
48	1
50	7
51	44
52	10
53	19
54	18
55	23
56	12
57	9
58	2
59	1
60	0
61	0
63	5
64	5
65	18
66	14
67	24
68	20
69	7
70	9
71	23
72	1
73	0
74	1
75	2
77	103
78	15
79	15
80	20
81	34
82	54
83	9
84	3
85	0
89	3
90	4
91	20
92	22
93	155
94	999
95	86
96	112
97	8
98	0
99	0
101	0
102	1
103	5
104	10
105	3
106	8
107	6
108	9
109	15
110	29
111	2
112	0
113	0
114	0
115	5
116	4
117	12
118	25
119	9
120	15
121	13
122	22
123	2
124	0
127	2
128	7
129	4
130	11
131	2
132	4
133	3
134	4
135	3
136	0
137	0
138	0
139	1
140	0
141	1
142	2
143	7
144	10
146	71
147	6
148	0
149	0
150	0
151	0
152	0
153	0
154	2
155	2
156	12
157	11
158	6
159	4
160	1
162	0
165	4
166	1
167	3
168	4
169	7
170	12
171	4
172	5
173	1
179	4
180	1
181	2
182	8
183	11
184	23
185	100
186	16
187	1
196	0
197	1
198	1
199	2
200	0
202	0
211	1
213	31
214	5
215	0
225	0
227	4
228	2
229	0
241	1
242	0
252	0
255	46
256	7
257	0
269	0
281	0
282	1
284	68
285	11
286	1
