Mass Spectrum: 4-Cyclopropylmethylbenzonitrile
Formula: C11H11N
CAS: 161894-17-3
Molecular weight: 157
m/z	intensity
40	5
41	48
43	7
50	32
51	50
52	18
53	12
54	9
55	21
58	5
62	16
63	58
64	31
65	14
74	11
75	33
76	42
77	47
78	23
87	8
88	14
89	160
90	40
91	8
100	9
101	28
102	64
103	56
104	19
113	9
114	14
115	63
116	999
117	98
126	5
127	28
128	80
129	704
130	77
131	5
140	37
141	11
142	94
143	9
154	10
156	24
157	314
158	44
