Mass Spectrum: 6,8,10-Trimethyl-7-phenyl-1,3,8-triazaspiro[4.5]decan-2,4-dione
Formula: C16H21N3O2
CAS: 161894-38-8
Molecular weight: 287
m/z	intensity
38	7
39	85
40	19
41	150
42	530
43	130
44	200
45	30
46	7
49	1
50	15
51	49
52	23
53	29
54	78
55	92
56	59
57	38
58	20
59	3
60	13
61	4
62	5
63	21
64	9
65	51
66	13
67	21
68	45
69	30
70	62
71	55
72	23
73	11
74	5
75	7
76	14
77	100
78	73
79	31
80	12
81	19
82	27
83	22
84	350
85	27
86	6
87	4
88	3
89	25
90	21
91	250
92	24
93	6
94	12
95	9
96	18
97	13
98	10
99	8
100	6
101	5
102	15
103	39
104	50
105	19
106	12
107	7
108	11
109	7
110	8
111	5
112	4
113	7
114	4
115	90
116	40
117	290
118	999
119	780
120	130
121	14
122	8
123	7
124	8
125	26
126	18
127	18
128	20
129	19
130	22
131	24
132	180
133	46
134	7
135	3
136	3
137	6
138	4
139	36
140	25
141	12
142	11
143	13
144	31
145	12
146	44
147	10
148	4
149	6
150	1
151	5
152	3
153	5
154	120
155	15
156	8
157	15
158	24
159	51
160	930
161	340
162	36
163	4
165	3
166	3
167	7
168	140
169	400
170	45
171	9
172	27
173	30
174	6
175	1
180	4
181	2
182	4
183	5
184	9
185	7
186	7
187	4
188	6
189	1
194	3
195	1
196	2
197	3
198	4
199	5
200	8
201	8
202	6
209	3
210	170
211	21
212	3
213	8
214	5
215	8
216	16
217	43
218	7
225	1
226	2
227	5
228	4
229	3
230	14
231	3
241	2
242	4
243	3
244	6
245	15
246	2
255	1
256	4
257	1
258	8
259	2
270	7
271	2
272	85
273	15
284	1
285	14
286	25
287	210
288	39
289	4
