Mass Spectrum: Phosphine, bis[2-(piperidin-1-yl)ethyl]-
Formula: C14H29N2P
CAS: 161944-96-3
Molecular weight: 256
m/z	intensity
27	10
28	12
29	14
30	23
31	0
39	5
41	61
42	50
43	9
44	33
45	3
46	1
47	0
48	0
51	0
52	0
53	2
54	8
55	58
56	21
57	6
58	2
59	8
60	4
61	2
62	0
65	0
66	0
67	3
68	5
69	21
70	21
71	1
72	1
73	3
74	2
75	3
76	0
77	0
78	0
79	0
80	1
81	1
82	8
83	20
84	53
85	48
86	6
87	4
88	3
89	0
90	0
91	0
93	0
94	0
95	0
96	17
97	6
98	999
99	69
100	2
101	1
102	1
108	0
109	0
110	11
111	17
112	202
113	18
114	1
115	7
116	15
117	1
125	0
127	0
128	1
130	1
138	0
139	0
140	1
141	2
142	9
143	9
144	26
145	252
146	19
147	0
156	0
158	23
159	2
160	0
170	5
171	9
172	3
173	0
256	0
257	0
