Mass Spectrum: Lanostan-1-one
Formula: C30H52O
CAS: 16196-36-4
Molecular weight: 428
m/z	intensity
55	999
57	919
67	353
68	90
69	707
70	121
71	363
77	30
79	171
80	10
81	484
82	40
84	80
85	161
91	141
93	232
94	90
95	595
96	191
97	292
98	40
99	60
105	181
106	10
107	262
108	40
109	353
110	90
111	161
112	10
113	191
119	131
120	40
121	191
122	80
123	151
124	40
125	80
131	10
132	10
133	111
134	40
135	171
136	101
137	171
138	60
139	363
145	60
147	90
148	40
149	212
150	80
151	90
152	383
153	60
159	40
161	111
162	10
163	111
165	141
173	60
175	454
176	80
177	80
189	70
190	60
191	80
203	60
204	70
205	333
206	161
207	50
217	80
218	252
219	90
227	40
231	90
232	60
248	10
250	363
251	40
255	40
259	191
260	60
261	50
270	121
271	70
273	272
274	242
275	111
288	505
289	121
290	10
314	40
385	40
410	60
411	20
412	5
413	90
426	30
428	474
429	161
430	20
