Mass Spectrum: 3,3-Bis(trifluoromethyl)diaziridine
Formula: C3H2F6N2
CAS: 1619-94-9
Molecular weight: 180
m/z	intensity
42	90
43	4
47	80
48	4
50	50
51	40
69	999
70	13
82	80
83	8
93	740
94	60
95	5
112	800
113	140
114	8
131	120
132	13
141	70
142	11
159	350
160	60
161	4
180	540
181	50
182	5
