Mass Spectrum: 2-(N-Morpholinyl)ethylphosphine
Formula: C6H14NOP
CAS: 161944-94-1
Molecular weight: 147
m/z	intensity
26	6
27	36
28	84
29	47
30	45
31	7
33	3
34	2
39	3
40	7
41	28
42	88
43	64
44	23
45	20
46	9
47	3
48	0
52	1
53	1
54	22
55	33
56	168
57	65
58	36
59	37
60	28
61	52
62	4
63	0
67	0
68	3
69	3
70	47
71	19
72	20
73	5
74	9
75	3
82	3
83	4
84	14
85	7
86	28
87	8
88	10
89	2
90	5
91	1
98	6
99	0
100	999
101	66
102	27
103	1
112	5
113	4
114	7
115	1
116	5
117	0
118	3
119	0
146	4
147	43
148	9
149	0
