Mass Spectrum: Phosphine, 2-(N-piperidinyl)ethyl-
Formula: C7H16NP
CAS: 161944-93-0
Molecular weight: 145
m/z	intensity
27	68
28	67
29	46
30	84
31	1
33	2
34	2
35	0
37	0
38	1
39	34
40	36
41	153
42	160
43	32
44	111
45	13
46	5
47	2
48	1
49	0
50	0
51	2
52	2
53	9
54	28
55	159
56	59
57	25
58	9
59	29
60	11
61	19
62	7
63	0
64	0
65	2
66	1
67	11
68	12
69	48
70	82
71	5
72	1
73	2
74	4
75	1
76	0
77	1
78	0
79	1
80	4
81	3
82	15
83	18
84	67
85	6
86	2
87	2
88	3
89	0
90	1
91	2
92	0
93	0
94	1
95	0
96	33
97	5
98	999
99	70
100	2
101	0
102	2
106	0
108	1
109	1
110	17
111	17
112	7
113	2
114	0
115	1
116	5
117	0
130	0
135	0
136	0
138	0
139	0
140	3
141	2
142	2
143	0
144	6
145	41
146	3
147	0
