Mass Spectrum: 2-[2-(1-Methylpyrrolidinyl)]ethylphosphine
Formula: C7H16NP
CAS: 161944-95-2
Molecular weight: 145
m/z	intensity
26	2
27	24
28	13
29	13
30	14
31	1
33	2
34	0
38	1
39	24
40	16
41	44
42	228
43	13
44	35
45	12
46	1
47	3
48	0
50	0
51	2
52	1
53	8
54	12
55	29
56	15
57	24
58	7
59	8
60	2
61	2
62	1
63	0
65	2
66	1
67	11
68	12
69	14
70	19
71	10
72	1
73	4
74	1
75	0
76	1
77	1
78	0
79	2
80	4
81	7
82	85
83	16
84	999
85	109
86	3
87	2
88	0
89	4
90	0
93	0
94	2
95	1
96	13
97	7
98	4
99	1
100	1
101	1
102	1
107	0
108	2
109	0
110	37
111	21
112	7
113	1
114	0
115	1
116	2
119	0
126	0
130	1
131	0
142	0
144	23
145	94
146	33
147	2
