Mass Spectrum: 1,4,2-Dioxazole, 3,5-diphenyl-
Formula: C14H11NO2
CAS: 16192-53-3
Molecular weight: 225
m/z	intensity
38	20
39	60
40	10
41	30
42	10
43	20
50	60
51	170
52	40
62	20
63	70
64	150
65	30
74	20
75	10
76	40
77	370
78	50
79	10
89	40
90	20
91	250
92	20
103	30
104	10
105	670
106	80
107	10
119	999
120	130
121	10
225	430
226	70
227	10
