Mass Spectrum: .alpha.-(4-Pyridyl)benzhydrol
Formula: C18H15NO
CAS: 1620-30-0
Molecular weight: 261
m/z	intensity
15	1
18	2
26	6
27	20
28	18
29	3
31	3
32	1
35	2
36	9
37	1
38	6
39	36
40	4
41	5
42	1
43	6
44	1
45	9
49	2
50	55
51	270
52	49
53	15
54	7
55	4
56	1
57	1
59	4
60	1
61	3
62	13
63	35
64	8
65	10
66	3
67	1
68	1
69	2
70	1
71	1
73	2
74	19
75	25
76	36
77	630
78	357
79	363
80	48
81	6
82	4
83	1
84	1
85	2
86	8
87	16
88	11
89	16
90	4
91	18
92	3
93	6
94	14
95	5
96	1
97	1
98	5
99	5
100	7
101	15
102	14
103	8
104	9
105	999
106	448
107	51
108	6
109	3
110	2
111	3
112	2
113	10
114	7
115	22
116	5
117	2
118	1
119	1
120	7
121	9
122	5
123	2
124	1
125	4
126	15
127	33
128	26
129	9
130	6
131	2
133	1
134	1
135	1
137	4
138	5
139	35
140	14
141	4
142	2
143	1
149	2
150	6
151	10
152	32
153	17
154	37
155	87
156	151
157	20
158	1
161	1
162	3
163	12
164	10
165	56
166	32
167	48
168	13
169	6
170	1
174	2
175	2
176	8
177	4
178	4
179	2
180	2
181	17
182	40
183	940
184	359
185	47
186	5
187	8
188	7
189	16
190	6
191	5
192	2
193	1
194	1
196	1
199	1
200	4
201	4
202	13
203	7
204	4
205	2
206	1
207	1
208	1
210	1
211	4
212	3
213	16
214	9
215	23
216	9
217	7
218	3
219	1
226	2
227	3
228	5
229	3
230	6
231	3
232	8
233	3
234	1
238	2
239	2
240	9
241	21
242	27
243	48
244	36
245	9
246	2
257	1
258	9
259	17
260	52
261	588
262	125
263	16
264	2
