Mass Spectrum: 2-Norbornanone, 6-chloro-3,3-dimethyl-, exo-
Formula: C9H13ClO
CAS: 16205-79-1
Molecular weight: 172
m/z	intensity
25	130
26	60
27	160
28	154
29	73
36	93
39	197
40	66
41	374
42	86
43	224
44	90
50	46
51	66
52	36
53	97
54	43
55	103
56	63
57	73
65	73
66	240
67	267
68	63
69	999
70	117
71	46
72	46
77	97
78	43
79	90
80	33
81	76
82	36
83	50
84	36
85	36
90	36
91	93
92	36
93	140
94	36
95	73
96	36
97	43
101	50
103	36
105	56
106	36
107	60
108	240
109	598
110	86
137	76
172	204
173	33
174	73
175	20
