Mass Spectrum: 1,2,4,5-Tetroxane, 3,3,6,6-tetraphenyl-
Formula: C26H20O4
CAS: 16204-36-7
Molecular weight: 396
m/z	intensity
32	45
50	87
51	303
75	66
77	834
78	87
105	999
107	90
150	42
151	30
152	24
181	57
182	456
183	66
