Mass Spectrum: Ethanone, 1-phenyl-2-(4-pyridinyl)-
Formula: C13H11NO
CAS: 1620-55-9
Molecular weight: 197
m/z	intensity
33	0
34	1
36	0
37	3
38	12
39	60
40	17
41	4
42	2
43	1
44	5
45	0
46	0
49	1
50	33
51	117
52	12
53	2
54	0
55	1
56	0
57	2
58	0
60	0
61	1
62	5
63	17
64	9
65	28
66	3
67	1
68	0
69	1
71	1
72	0
74	5
75	10
77	460
78	27
79	1
80	0
81	0
82	1
84	0
85	1
86	1
87	1
88	0
89	2
90	0
91	3
92	12
93	2
94	0
95	0
96	0
98	1
99	1
100	0
102	0
103	1
105	999
106	65
107	5
108	0
111	0
112	0
113	0
114	0
115	4
116	0
117	0
118	0
119	1
120	0
122	1
123	0
125	0
126	0
127	0
128	0
129	0
138	0
139	2
140	1
141	1
145	0
146	0
147	0
149	0
151	0
152	0
153	0
166	1
167	4
168	1
171	0
174	0
175	1
176	0
178	0
179	0
193	0
195	1
196	2
197	154
198	23
199	1
200	0
