Mass Spectrum: 2-Propynoic acid, 3-(trimethylsilyl)-, ethyl ester
Formula: C8H14O2Si
CAS: 16205-84-8
Molecular weight: 170
m/z	intensity
25	15
27	84
28	22
29	51
30	5
31	12
38	3
39	15
40	0
41	6
42	22
43	226
44	35
45	159
46	10
47	41
48	4
51	3
52	13
53	121
54	27
55	139
56	13
57	14
58	13
59	101
60	13
61	40
62	3
63	2
64	0
65	27
66	75
67	182
68	27
69	37
70	21
71	9
72	4
73	276
74	28
75	529
76	41
77	33
78	1
79	5
80	19
81	28
82	93
83	782
84	79
85	47
86	3
87	7
89	4
95	3
96	14
97	248
98	142
99	60
100	9
101	112
102	13
103	999
104	98
105	46
106	3
109	6
110	49
111	45
112	8
113	3
125	524
126	71
127	358
128	42
129	15
142	3
143	27
144	3
154	34
155	447
156	57
157	20
169	4
