Mass Spectrum: 1-O-p-Phenylazobenzoyl-2,3,5-tri-O-benzyl-.beta.-d-ribofuranose
Formula: C39H36N2O6
CAS: 16205-52-0
Molecular weight: 628
m/z	intensity
41	61
43	18
44	6
45	5
50	11
51	24
52	1
53	2
54	0
55	8
56	1
57	8
60	3
62	0
63	8
65	44
67	5
69	13
71	6
73	4
74	1
76	33
77	113
78	3
79	16
81	4
82	5
83	2
84	1
85	4
89	8
91	999
92	61
93	3
95	1
97	4
99	3
101	1
103	1
104	49
105	89
106	20
108	2
111	0
115	7
117	6
119	6
121	12
122	19
123	1
124	0
127	1
129	1
130	1
131	6
133	10
136	0
143	13
145	5
146	1
147	1
149	7
150	4
152	13
153	2
154	0
157	2
159	7
160	1
163	14
165	4
167	5
173	1
175	21
176	1
179	3
181	62
182	9
187	0
188	2
189	2
191	1
193	1
195	0
197	9
198	1
203	10
205	33
206	2
209	273
210	29
211	4
219	7
221	7
226	333
227	14
228	2
233	5
235	3
253	5
265	0
271	1
294	4
295	1
296	2
309	1
311	24
312	3
316	6
317	3
329	0
371	2
401	2
402	3
431	6
432	1
537	0
