Mass Spectrum: N-Methyl-3-nitro-N-phenylbenzenesulfonamide
Formula: C13H12N2O4S
CAS: 162155-18-2
Molecular weight: 292
m/z	intensity
15	1
27	3
28	10
30	12
38	3
39	17
40	1
41	1
42	4
44	1
50	18
51	33
52	6
53	3
54	1
55	1
62	1
63	11
64	9
65	14
66	4
67	1
70	1
74	4
75	11
76	20
77	242
78	54
79	139
80	9
81	1
90	4
91	6
92	5
93	2
104	48
105	30
106	999
107	96
108	4
115	1
120	11
121	1
122	6
123	1
139	1
140	1
141	3
152	1
153	1
154	1
166	1
167	4
168	1
170	5
180	2
181	14
182	9
183	2
186	2
187	33
188	4
194	1
195	1
197	1
198	1
211	9
212	1
213	1
227	13
228	108
229	15
230	1
262	2
276	1
292	446
293	71
294	28
295	3
