Mass Spectrum: 2H,5H-[1,3]-Dithiolo[4,5-b][1,4]-dithiepin-6(7H)-one, 5,5,7-trimethyl-2-thioxo-
Formula: C9H10OS5
CAS: 162190-34-3
Molecular weight: 294
m/z	intensity
33	77
34	69
35	8
36	13
37	21
38	79
39	643
40	449
41	965
42	499
43	233
44	333
45	270
46	31
47	26
48	5
50	34
51	50
52	26
53	95
54	55
55	608
56	149
57	76
58	93
59	456
60	94
61	48
62	15
63	29
64	153
65	58
66	47
67	220
68	41
69	308
70	380
71	136
72	97
73	54
74	112
76	977
77	161
78	101
79	50
80	27
81	73
82	337
83	200
84	69
85	106
86	117
88	999
90	167
91	40
92	20
93	29
94	9
95	36
96	32
97	183
98	362
99	59
100	28
101	31
102	13
103	17
104	14
105	33
106	15
107	10
108	19
109	12
110	9
111	15
112	11
113	20
114	25
115	52
116	93
117	25
118	15
120	159
121	49
122	30
123	13
124	10
125	17
126	9
127	13
129	240
130	88
131	41
133	23
134	7
135	5
138	1
139	3
140	1
141	8
142	34
143	8
144	7
145	1
147	5
148	31
149	15
150	6
151	5
152	7
153	9
154	3
156	7
157	15
158	6
160	10
161	13
162	17
163	3
164	7
165	7
166	9
167	6
168	1
169	2
171	10
172	2
173	1
175	17
176	4
177	2
178	3
179	7
180	7
181	4
184	2
185	6
186	13
187	1
189	4
190	8
191	11
192	12
193	5
194	10
195	11
196	51
197	18
198	31
199	5
200	3
201	1
203	7
204	1
205	13
206	5
207	19
208	6
209	39
210	4
211	8
215	3
218	66
219	10
220	11
221	6
223	78
224	32
225	19
226	6
227	1
228	2
229	1
230	3
232	0
238	78
239	10
240	24
241	16
242	11
257	1
264	1
267	1
268	3
286	11
290	8
291	13
292	13
294	465
295	62
296	97
297	14
298	8
