Mass Spectrum: Semicarbazide, 4,4',4''-phosphinylidynetris(1-phenyl-
Formula: C21H24N9O4P
CAS: 16221-22-0
Molecular weight: 497
m/z	intensity
41	23
42	30
43	100
44	46
45	9
46	1
47	35
49	14
50	82
51	191
52	71
53	34
54	34
55	3
56	2
57	2
59	1
60	5
61	14
62	25
63	82
64	108
65	428
66	51
67	6
70	8
73	9
74	26
75	13
76	18
77	388
78	195
79	115
80	49
81	20
82	2
83	0
84	6
86	4
87	5
88	3
89	15
90	12
91	212
92	424
93	137
94	11
98	2
104	1
105	35
106	37
107	93
108	999
109	76
110	3
115	3
118	3
119	3
120	0
131	116
132	3
133	9
134	13
135	1
136	0
147	2
148	5
151	86
152	11
153	1
154	1
166	2
167	4
168	4
169	4
173	36
174	6
175	0
176	6
177	9
182	0
183	2
184	5
227	1
238	4
281	0
