Mass Spectrum: Phosphoric triamide, N,N',N''-tris(dimethylaniinocarbamyl)-
Formula: C9H24N9O4P
CAS: 16221-25-3
Molecular weight: 353
m/z	intensity
41	29
42	327
43	342
44	859
45	332
46	20
47	2
49	12
51	4
53	2
55	6
56	16
57	25
58	27
59	999
60	620
61	428
62	6
69	4
70	4
71	5
72	16
73	5
74	22
75	2
83	3
84	10
85	22
86	18
87	13
88	13
89	4
97	1
98	10
99	57
100	7
101	0
102	7
103	96
104	81
105	4
112	1
113	3
114	2
115	3
116	0
118	0
125	0
139	3
147	2
