Mass Spectrum: 2-Cyclopentylthiacyclohexane
Formula: C10H18S
CAS: 1622-07-7
Molecular weight: 170
m/z	intensity
39	118
40	18
41	229
42	19
43	10
45	107
46	16
47	62
51	13
52	14
53	61
54	22
55	80
58	15
59	93
60	26
61	22
65	31
66	16
67	207
68	34
69	27
71	19
73	32
77	31
79	56
80	15
81	55
82	12
85	40
86	21
87	438
88	45
89	29
91	20
93	28
95	33
99	22
100	67
101	999
102	87
103	53
113	11
114	19
127	77
128	23
170	175
171	22
