Mass Spectrum: ((3S,3aR,6R,8aS)-7,7-Dimethyl-8-methyleneoctahydro-1H-3a,6-methanoazulen-3-yl)methanol
Formula: C15H24O
CAS: 16223-63-5
Molecular weight: 220
m/z	intensity
26	1
27	24
28	3
29	33
30	2
31	58
38	2
39	95
40	19
41	268
42	16
44	3
50	7
51	42
52	20
53	125
54	17
55	198
56	12
57	48
59	1
62	2
63	18
64	11
65	116
66	46
67	267
68	22
69	167
70	16
71	38
72	7
73	2
74	1
75	3
76	5
77	279
78	76
79	388
80	49
81	226
82	20
83	39
86	1
87	1
88	1
89	10
90	3
91	708
92	129
93	231
94	42
95	181
96	92
97	25
98	2
101	2
102	9
103	55
104	56
105	445
106	91
107	209
108	86
109	121
110	15
114	1
115	102
116	50
117	259
118	76
119	999
120	135
121	106
122	22
123	21
124	3
127	18
128	63
129	82
130	53
131	532
132	161
133	633
134	85
138	2
139	1
141	16
142	15
143	39
144	40
145	199
146	114
147	130
148	30
149	50
150	797
151	161
152	15
155	1
156	2
157	16
158	18
159	387
160	63
161	42
162	5
164	4
166	1
172	3
173	60
174	29
175	5
176	1
177	21
178	3
179	1
185	3
187	250
188	43
189	599
190	93
191	9
192	4
201	2
202	53
203	10
205	42
206	7
207	1
220	30
221	5
