Mass Spectrum: N,N',N''-Tris(3-methylthioureidocarbamyl)phosphoric triamide
Formula: C9H21N12O4PS3
CAS: 16221-26-4
Molecular weight: 488
m/z	intensity
41	32
42	244
43	244
44	180
45	184
46	58
47	290
48	56
49	60
51	17
53	11
55	75
56	27
57	131
58	57
59	147
60	239
61	28
62	47
63	10
64	149
66	12
69	9
70	71
71	45
72	164
73	368
74	801
75	121
76	60
77	4
81	29
83	8
84	42
85	8
86	35
87	21
88	30
89	86
90	16
96	21
98	21
100	4
101	18
105	999
106	60
107	43
114	21
115	39
116	3
117	12
128	18
129	9
130	36
131	857
132	25
133	12
144	7
145	9
147	23
148	44
160	21
173	276
174	19
192	13
224	5
256	12
