Mass Spectrum: Pentanoic acid, 5-cyclopropylidene-, methyl ester
Formula: C9H14O2
CAS: 162378-01-0
Molecular weight: 154
m/z	intensity
25	0
26	14
27	177
28	79
29	76
30	5
31	19
33	3
37	3
38	18
39	340
40	81
41	390
42	54
43	200
44	16
45	42
46	4
47	4
48	2
49	0
50	22
51	65
52	56
53	177
54	96
55	284
56	20
57	16
58	8
59	194
60	6
61	5
62	5
63	18
64	5
65	93
66	66
67	278
68	84
69	29
70	2
71	30
72	11
73	13
74	106
75	14
76	1
77	137
78	36
79	711
80	314
81	246
82	29
83	21
84	12
85	8
86	1
87	15
88	1
89	2
91	41
92	6
93	110
94	381
95	999
96	83
97	44
98	34
99	15
100	3
101	1
102	0
103	3
104	2
105	6
106	0
107	19
108	2
109	4
110	1
111	62
112	91
113	12
114	1
115	2
116	0
117	2
118	0
119	5
120	0
121	13
122	79
123	203
124	19
125	19
126	7
127	1
128	0
129	0
137	1
139	32
140	3
141	0
152	1
153	1
154	29
155	3
156	0
