Mass Spectrum: 2H-1,3-Thiazine-6-carboxylic acid, tetrahydro-4-oxo-2-(phenylimino)-, methyl ester
Formula: C12H12N2O3S
CAS: 16238-45-2
Molecular weight: 264
m/z	intensity
43	457
59	999
60	23
77	628
78	42
85	85
86	85
87	428
88	19
113	571
114	800
115	45
118	457
119	485
120	41
135	85
204	228
205	228
206	27
233	114
234	14
264	657
265	93
266	10
