Mass Spectrum: Propane, 1,1,1,2,2,3,3-heptafluoro-3-[(trifluoroethenyl)oxy]-
Formula: C5F10O
CAS: 1623-05-8
Molecular weight: 266
m/z	intensity
29	16
40	90
44	51
47	68
50	61
69	999
78	63
81	94
97	47
100	57
119	169
131	44
147	41
169	321
266	71
