Mass Spectrum: Cyclohexene, 4-methyl-1-(1-methylethyl)-2-(2-phenylethyl)-
Formula: C18H26
CAS: 162377-40-4
Molecular weight: 242
m/z	intensity
39	34
40	11
41	125
42	8
43	86
44	2
51	12
52	6
53	35
54	4
55	104
56	6
57	34
63	7
64	3
65	61
66	8
67	109
68	9
69	126
70	7
71	12
76	2
77	16
78	14
79	63
80	10
81	316
82	30
83	31
84	3
89	8
90	3
91	352
92	39
93	61
94	13
95	999
96	78
97	7
102	3
103	11
104	15
105	38
106	7
107	46
108	16
109	292
110	25
115	20
116	5
117	26
118	3
119	6
120	2
121	29
122	7
123	24
124	2
127	5
128	16
129	18
130	3
131	9
135	14
136	8
137	47
138	70
139	7
141	11
142	5
143	13
144	2
145	4
149	2
150	71
151	507
152	60
153	5
154	3
155	9
156	3
157	9
165	4
167	3
168	2
169	9
170	7
171	4
172	2
183	28
184	6
185	4
197	2
199	13
200	2
225	28
226	6
227	4
240	17
241	4
242	303
243	58
244	5
