Mass Spectrum: 1-Pentanol, 5-cyclopropylidene-
Formula: C8H14O
CAS: 162377-97-1
Molecular weight: 126
m/z	intensity
25	54
27	381
29	230
30	12
31	618
33	5
36	4
37	10
38	50
39	850
40	235
41	910
42	149
43	302
44	51
45	49
47	8
49	3
50	67
51	132
52	108
53	407
54	169
55	409
56	151
57	164
58	29
59	10
61	21
62	16
63	43
64	9
65	246
66	161
67	732
68	265
69	115
70	172
71	999
72	58
73	6
74	9
75	61
76	9
77	467
78	77
79	967
80	417
81	263
82	117
83	44
84	15
85	88
86	7
87	4
88	4
89	3
91	375
92	40
93	499
94	59
95	149
96	15
97	25
98	6
99	6
100	2
101	3
103	4
104	4
105	26
106	4
107	44
108	13
109	9
110	4
111	30
112	4
113	4
115	6
117	2
119	2
122	2
123	4
124	2
125	8
126	4
