Mass Spectrum: 2H-1,3-Thiazine-6-carboxylic acid, 3-benzyl-2-(benzylimino)tetrahydro-4-oxo-, methyl ester
Formula: C20H20N2O3S
CAS: 16238-44-1
Molecular weight: 368
m/z	intensity
59	125
85	312
86	31
87	93
91	999
92	77
107	81
114	125
132	156
149	156
221	62
264	31
308	31
309	31
337	6
368	62
