Mass Spectrum: Acetamide, N,N-dipentyl-
Formula: C12H25NO
CAS: 16238-16-7
Molecular weight: 199
m/z	intensity
15	20
27	50
28	30
29	80
30	250
31	6
41	150
42	60
43	470
44	320
45	20
55	50
56	50
57	30
58	110
59	6
60	40
71	50
72	50
73	50
74	10
85	10
86	250
87	70
88	5
99	6
100	999
101	70
114	650
115	50
116	3
127	3
128	350
129	30
141	4
142	360
143	40
155	3
156	270
157	30
170	120
171	10
184	40
185	7
198	4
199	60
