Mass Spectrum: 2H-1,3-Thiazine-6-carboxylic acid, 3,4-dihydro-4-oxo-3-(phenylmethyl)-2-[(phenylmethyl)imino]-, methyl ester
Formula: C20H18N2O3S
CAS: 16238-37-2
Molecular weight: 366
m/z	intensity
57	10
59	30
85	40
86	30
91	999
92	77
116	10
117	50
131	280
132	42
144	10
221	40
275	930
276	140
277	15
307	10
335	20
366	300
367	68
