Mass Spectrum: Triallyl phosphate
Formula: C9H15O4P
CAS: 1623-19-4
Molecular weight: 218
m/z	intensity
26	12
27	42
28	21
29	29
30	2
31	11
37	10
38	20
39	248
40	42
41	999
42	67
43	16
44	3
47	8
50	5
51	9
52	20
53	11
54	39
55	104
56	19
57	235
58	16
64	2
65	14
66	9
67	38
68	5
69	19
70	3
71	6
77	31
78	26
79	377
80	143
81	73
82	6
83	8
84	1
91	7
92	6
93	3
95	4
96	2
97	19
98	2
99	181
103	4
104	2
105	12
111	1
119	3
120	2
121	39
122	2
123	16
125	5
134	32
136	3
137	264
138	16
139	40
161	2
165	3
176	2
177	152
178	11
179	13
181	8
201	0
217	0
219	5
220	0
