Mass Spectrum: 2H-1,3-Thiazine-6-carboxylic acid, tetrahydro-3-isopropyl-2-(isopropylimino)-4-oxo-, methyl ester
Formula: C12H20N2O3S
CAS: 16238-43-0
Molecular weight: 272
m/z	intensity
43	890
58	999
59	400
69	530
70	25
85	150
86	100
87	170
101	60
113	60
114	70
115	80
117	70
118	50
119	80
126	160
169	20
213	20
241	200
272	980
