Mass Spectrum: 2-Trichloroacetylpyrrole
Formula: C7H10N2O3S
CAS: 16238-41-8
Molecular weight: 202
m/z	intensity
41	151
56	257
59	999
60	23
73	45
85	45
86	166
87	227
98	45
113	227
114	106
115	75
117	30
118	181
119	30
142	924
143	469
144	30
171	636
172	47
202	863
203	74
