Mass Spectrum: Phosphoric acid, monoethyl ester
Formula: C2H7O4P
CAS: 1623-14-9
Molecular weight: 126
m/z	intensity
25	70
26	89
27	244
28	109
29	120
30	15
31	290
42	28
43	135
44	17
45	169
47	100
63	111
64	33
65	66
80	32
81	743
82	284
83	39
98	56
99	999
111	249
125	32
127	107
