Mass Spectrum: Phosphoric acid, dimethyl 2-propenyl ester
Formula: C5H11O4P
CAS: 1623-11-6
Molecular weight: 166
m/z	intensity
25	2
26	31
27	103
28	34
29	117
30	22
31	102
33	45
36	3
37	15
38	42
39	359
40	48
41	376
42	26
43	11
44	4
45	51
46	1
47	111
48	15
49	13
50	3
51	3
52	2
53	6
54	306
55	48
56	11
57	132
58	16
62	4
63	11
64	6
65	63
66	21
67	3
68	3
69	3
70	2
71	32
72	4
77	13
78	11
79	312
80	235
81	29
82	7
91	3
92	2
93	46
94	3
95	417
96	73
97	12
99	10
103	2
104	2
105	6
106	1
107	3
108	2
109	687
110	999
111	58
112	11
113	232
114	3
115	3
119	4
121	2
123	1
125	50
126	9
127	761
128	20
129	7
134	1
135	5
136	5
137	24
138	10
139	10
140	13
141	4
142	2
151	24
152	1
165	17
166	124
167	26
168	2
