Mass Spectrum: 2-Hydroxyethylphosphine
Formula: C2H7OP
CAS: 16247-01-1
Molecular weight: 78
m/z	intensity
31	366
43	181
44	80
45	378
46	148
47	180
48	69
49	69
50	100
57	90
58	248
59	129
60	999
61	19
78	19
