Mass Spectrum: Oxazolidine, 2-ethyl-
Formula: C5H11NO
CAS: 16250-71-8
Molecular weight: 101
m/z	intensity
15	40
19	25
26	29
27	137
29	85
30	116
31	35
38	11
39	81
40	26
41	297
42	293
43	86
44	271
45	348
46	11
52	13
54	55
55	34
56	139
57	45
58	21
68	30
69	12
70	999
71	141
72	651
73	21
83	44
100	32
101	29
102	2
