Mass Spectrum: 2-(Diethylamino)butyronitrile
Formula: C8H16N2
CAS: 16250-35-4
Molecular weight: 140
m/z	intensity
12	2
13	1
14	3
15	28
25	2
26	39
27	281
28	371
29	258
30	129
31	3
36	2
37	4
38	9
39	73
40	23
41	208
42	265
43	46
44	69
45	2
46	1
47	1
48	1
49	2
50	2
51	5
52	16
53	13
54	71
55	98
56	638
57	48
58	85
59	4
62	2
63	2
64	3
65	3
66	11
67	35
68	71
69	28
70	308
71	32
72	20
73	3
75	1
76	1
77	2
78	2
79	5
80	7
81	13
82	35
83	183
84	134
85	40
86	10
87	2
91	1
92	1
93	2
94	4
95	8
96	27
97	69
98	546
99	43
100	7
101	6
102	1
107	2
108	4
109	9
110	7
111	999
112	110
113	330
114	62
115	5
121	1
122	4
123	4
124	4
125	348
126	35
127	2
137	2
138	2
139	20
140	111
141	11
142	2
