Mass Spectrum: 4,7,10,13,16-Pentaoxa-1-azacycloctadecane-1-carboxylic acid, tert-butyl ester
Formula: C17H33NO7
CAS: 162545-98-4
Molecular weight: 363
m/z	intensity
38	3
39	11
41	55
42	29
43	31
44	20
45	35
46	0
49	0
50	1
51	2
52	4
53	12
55	136
56	391
57	228
58	82
60	6
61	3
62	2
63	0
65	3
70	446
71	149
72	206
73	173
74	95
75	16
76	5
77	3
79	3
80	2
81	10
82	22
83	31
84	76
86	707
87	502
88	396
89	216
91	10
92	1
94	2
95	2
96	10
98	183
100	890
101	250
102	171
103	103
104	39
105	21
106	8
107	6
108	1
112	226
114	999
115	182
116	164
118	426
119	52
120	13
121	3
123	0
124	0
125	3
126	7
128	178
130	403
131	210
132	259
133	146
134	14
135	3
136	0
138	1
139	3
142	65
144	277
145	134
146	67
147	33
148	27
149	26
150	13
151	8
152	0
154	2
156	66
158	354
160	127
162	240
163	17
164	5
165	1
168	2
170	17
172	76
174	149
176	449
177	59
178	18
180	1
182	0
184	3
186	66
188	240
190	96
192	29
193	14
194	14
195	6
196	0
197	0
200	26
202	205
203	53
204	46
206	408
208	4
209	0
211	0
213	7
214	9
215	8
216	47
218	132
220	233
222	4
227	0
228	1
230	23
232	167
233	33
234	31
235	8
236	5
237	0
238	3
241	0
244	23
245	14
246	24
248	23
249	9
250	5
251	3
252	2
253	0
256	0
257	1
258	3
259	5
262	340
263	73
264	104
266	0
270	1
271	0
273	1
274	22
276	33
277	36
278	15
279	10
288	2
289	6
290	28
291	5
292	2
293	0
301	0
302	1
304	28
306	30
307	19
308	6
309	0
317	0
318	2
319	2
320	6
321	20
322	2
332	0
333	1
335	0
361	0
363	24
364	4
365	0
