Mass Spectrum: Pyrrolidin-2,5-dione-1-yl 6-oxo-3-thiaoctate
Formula: C10H15NO5S
CAS: 162514-02-5
Molecular weight: 261
m/z	intensity
41	62
42	46
43	85
44	25
45	549
46	11
47	69
48	5
49	57
50	1
51	13
52	0
53	7
54	9
55	71
56	44
57	7
58	4
59	12
60	17
61	12
62	3
63	2
64	1
65	6
66	1
67	18
68	7
69	9
70	36
71	15
72	30
73	529
74	999
75	11
76	1
77	12
78	2
79	5
80	2
81	34
82	32
83	56
84	250
85	4
86	158
87	11
88	27
89	5
90	5
91	5
92	3
93	0
94	1
95	7
96	8
97	3
98	26
99	6
100	9
101	38
102	3
103	5
104	3
105	20
106	3
107	1
108	0
109	4
110	1
112	1
114	1
115	6
116	35
117	5
118	13
119	14
120	1
121	7
122	0
123	5
124	16
125	14
126	2
128	0
129	0
130	0
133	0
135	0
136	0
137	0
138	0
139	0
140	8
141	2
142	0
143	1
144	0
145	0
147	17
148	2
149	4
150	2
151	4
152	2
163	22
164	12
165	5
166	2
171	1
172	6
173	8
174	1
175	3
177	14
178	4
179	0
185	2
189	0
191	5
192	0
197	2
198	1
199	4
200	0
205	19
206	11
207	3
216	3
219	1
220	5
221	0
224	1
225	0
233	1
234	1
261	2
262	0
