Mass Spectrum: Methyl 2-formyl-4-methyl-5-[(phenylmethoxy)carbonyl]-1H-pyrrole-3-propanoate
Formula: C18H19NO5
CAS: 16258-78-9
Molecular weight: 329
m/z	intensity
27	8
29	10
31	2
39	29
40	8
41	13
42	1
43	7
44	19
45	2
50	2
51	16
52	8
53	9
55	5
59	5
63	9
64	4
65	95
66	10
67	2
77	27
78	7
79	25
80	3
89	14
90	8
91	999
92	86
93	5
94	4
104	5
105	4
106	11
107	8
108	3
119	1
120	5
121	3
122	2
132	2
133	4
134	13
135	9
138	2
148	36
149	3
150	9
160	30
161	7
162	28
163	8
164	1
166	6
167	19
168	1
178	31
179	2
180	2
182	4
184	2
188	19
190	11
191	2
192	9
193	2
194	29
195	7
196	3
206	21
207	1
208	2
210	31
211	2
222	8
223	1
224	4
226	6
228	36
229	4
238	13
240	6
241	7
242	6
246	1
252	1
254	5
255	0
256	25
257	3
258	14
259	1
268	7
269	46
270	14
278	1
297	13
298	28
299	5
300	83
301	103
302	17
314	2
315	4
329	125
330	25
331	1
