Mass Spectrum: Oxazolidine, 2-methyl-
Formula: C4H9NO
CAS: 16250-70-7
Molecular weight: 87
m/z	intensity
15	51
26	36
27	107
29	109
30	94
31	33
40	27
41	69
42	122
43	81
44	208
45	113
54	35
55	25
56	999
57	161
58	26
72	253
73	14
86	30
87	51
