Mass Spectrum: 2,7-Octanedione
Formula: C8H14O2
CAS: 1626-09-1
Molecular weight: 142
m/z	intensity
41	50
42	40
43	999
44	40
53	10
55	30
57	20
58	220
59	20
69	50
71	120
72	30
73	20
81	50
84	230
85	60
86	10
99	17
109	9
114	9
115	1
124	2
127	1
142	12
143	1
