Mass Spectrum: 1,4-Ethanonaphthalene-6,9(4H)-dione, 1,4a,5,8a-tetrahydro-4,5,7,10-tetramethyl-5,10-bis[(methylthio)methyl]-
Formula: C20H28O2S2
CAS: 16265-89-7
Molecular weight: 364
m/z	intensity
39	80
40	50
41	250
42	50
43	90
44	160
45	60
46	20
47	40
48	20
49	10
50	10
51	30
52	30
53	70
54	30
55	70
56	30
57	80
58	10
59	40
60	20
61	999
62	100
63	150
64	20
65	90
66	30
67	70
68	30
69	90
70	30
71	60
72	20
73	40
74	20
75	30
76	20
77	120
78	60
79	100
80	40
81	70
82	40
83	60
84	30
85	50
86	20
87	30
88	20
89	40
90	20
91	220
92	70
93	60
94	30
95	50
96	30
97	70
98	20
99	45
100	10
101	30
102	20
103	40
104	40
105	120
106	50
107	80
108	40
109	60
110	60
111	50
112	20
113	20
114	10
115	70
116	50
117	50
118	20
119	70
120	30
121	70
122	30
123	20
124	30
125	10
126	10
127	40
128	70
129	70
130	25
131	60
132	30
133	30
134	60
135	285
136	50
137	30
138	20
139	30
140	20
141	70
142	70
143	50
144	30
145	50
146	20
147	40
148	20
149	100
150	30
151	40
152	20
153	45
154	20
155	50
156	40
157	70
158	30
159	65
160	30
161	20
162	20
163	20
164	10
165	35
166	25
167	60
168	20
169	45
170	20
171	35
172	70
173	30
174	10
175	20
176	20
177	20
178	10
179	30
180	10
181	70
182	120
183	30
184	20
185	70
186	70
187	240
188	65
189	20
190	10
191	20
192	10
193	20
194	10
195	90
196	30
197	30
198	10
199	60
200	40
201	80
202	35
203	10
204	10
205	20
206	10
207	10
208	10
209	20
210	10
211	25
212	20
213	30
214	10
215	20
216	10
217	10
219	10
220	10
221	20
222	10
223	30
224	20
225	30
226	20
227	60
228	30
229	20
230	10
231	10
232	10
233	10
234	10
235	10
236	10
237	10
238	10
239	10
240	30
241	60
242	30
243	30
244	20
245	20
247	10
248	10
249	10
250	10
251	10
253	10
254	10
255	85
256	40
257	20
259	10
261	10
263	10
265	10
266	10
267	10
268	10
269	20
270	10
271	10
274	10
275	10
276	10
278	10
279	10
280	10
281	10
285	5
288	20
289	300
290	90
291	45
292	10
296	10
297	20
298	20
299	20
300	10
301	10
302	10
303	70
304	40
305	10
306	10
307	10
308	10
309	10
310	10
312	10
313	10
314	10
316	20
317	40
318	20
319	10
321	30
323	10
330	10
334	10
335	10
336	10
347	10
348	10
349	110
350	40
351	30
352	20
361	10
364	265
365	130
366	80
367	20
368	10
