Mass Spectrum: 2-Fluoroamphetamine
Formula: C9H12FN
CAS: 1626-69-3
Molecular weight: 153
m/z	intensity
40	5
41	14
42	67
44	999
45	29
46	1
50	15
51	19
52	4
53	2
54	3
55	1
56	6
57	38
59	12
60	1
61	4
62	13
63	36
64	6
65	9
66	1
69	14
70	7
71	1
73	1
74	8
75	16
76	4
77	7
78	3
79	1
80	2
81	14
83	103
84	7
85	2
86	4
87	4
88	2
89	23
90	6
91	19
92	2
93	1
94	3
95	4
96	7
97	2
98	1
99	1
100	1
101	12
102	4
103	2
104	2
105	2
107	31
109	170
110	23
111	3
112	1
113	1
114	1
115	10
116	3
117	16
118	18
119	2
120	2
121	5
122	6
123	1
124	1
128	1
130	3
131	1
132	1
133	11
134	3
135	11
136	7
137	6
138	38
139	4
148	1
150	1
151	1
152	11
153	1
154	1
