Mass Spectrum: Tetradecanoic acid, octyl ester
Formula: C22H44O2
CAS: 16260-26-7
Molecular weight: 340
m/z	intensity
27	36
29	116
39	47
40	12
41	466
42	164
43	809
44	29
45	14
53	25
54	44
55	637
56	414
57	999
58	57
59	16
60	180
61	511
62	15
67	83
68	153
69	461
70	557
71	675
72	37
73	287
74	30
81	58
82	174
83	595
84	482
85	136
86	12
87	70
88	6
89	13
95	44
97	188
98	89
99	36
100	8
101	45
102	11
103	14
111	75
112	880
113	116
114	9
115	60
116	40
124	12
125	34
126	8
127	10
129	164
130	17
139	27
143	30
144	5
154	8
157	48
158	7
166	12
167	11
168	6
171	28
172	9
173	26
185	87
186	11
199	16
209	6
211	163
212	22
213	5
227	5
228	108
229	605
230	100
231	9
241	8
242	2
269	8
270	1
284	2
285	3
297	3
298	1
338	1
340	43
341	8
