Mass Spectrum: 1,4-Eicosanediol
Formula: C20H42O2
CAS: 16274-31-0
Molecular weight: 314
m/z	intensity
66	45
67	573
68	550
69	982
70	364
71	989
72	432
81	455
82	568
83	989
84	216
85	455
86	125
87	164
89	999
90	295
95	398
96	386
97	920
98	114
99	125
100	16
110	227
111	177
112	414
113	68
114	73
115	18
116	18
118	11
119	11
120	11
121	16
122	18
123	136
124	80
126	330
127	45
128	41
129	11
130	11
136	11
137	11
138	68
139	57
140	109
141	27
142	23
150	11
152	23
153	27
154	68
155	23
156	23
166	11
167	23
168	34
169	23
170	23
180	11
181	23
182	23
183	11
184	5
193	5
194	18
195	11
196	11
197	5
208	5
209	41
210	18
211	23
212	11
213	5
214	2
221	11
222	16
223	5
224	5
225	5
236	9
237	55
238	14
239	7
240	5
249	5
250	36
251	14
252	5
253	50
254	16
255	182
256	41
268	23
269	55
270	14
276	2
277	2
278	50
279	11
293	2
294	2
295	14
296	32
297	9
298	7
299	2
311	2
312	2
313	5
314	2
