Mass Spectrum: Ethanamine, N-chloro-N,1,1-trifluoro-
Formula: C2H3ClF3N
CAS: 16276-45-2
Molecular weight: 133
m/z	intensity
12	57
13	47
14	112
15	719
24	8
25	18
26	48
27	32
31	177
33	547
34	8
35	31
36	270
37	8
38	38
39	33
40	67
41	82
44	47
45	323
46	313
49	45
50	27
51	330
58	19
59	10
60	32
63	98
64	65
65	999
66	25
69	105
78	22
79	413
83	12
85	20
87	7
95	42
97	12
99	12
101	4
118	12
120	4
