Mass Spectrum: 4-[4-Chlorophenylacetyl]pyridine
Formula: C13H10ClNO
CAS: 16273-84-0
Molecular weight: 231
m/z	intensity
41	13
42	2
43	7
44	4
45	1
47	15
48	7
49	80
50	144
51	481
52	35
53	9
54	2
55	4
56	3
57	2
60	2
61	10
62	43
63	129
64	17
65	11
69	4
70	4
71	1
72	3
73	26
74	10
75	24
76	11
77	4
78	451
79	25
80	0
81	0
82	1
83	2
84	45
85	7
86	40
87	13
88	8
89	211
90	57
91	10
92	1
96	0
97	6
98	1
99	66
101	20
102	2
103	3
104	1
105	5
106	999
107	62
108	4
110	0
111	3
113	3
114	2
115	3
118	4
121	2
123	4
125	411
126	10
127	136
128	7
131	2
132	1
133	6
134	1
137	0
138	0
139	14
140	4
141	3
148	1
149	2
151	0
152	2
156	2
161	42
162	4
166	5
167	9
168	6
169	1
201	0
202	0
203	146
204	19
205	50
206	6
231	123
232	19
233	38
234	6
