Mass Spectrum: 3,8-Dibenzoyl-1-nitro-3,6,8-triazabicyclo[4.3.1]decane
Formula: C21H22N4O4
CAS: 162710-50-1
Molecular weight: 394
m/z	intensity
35	3
36	8
38	7
39	17
40	43
41	49
42	93
43	27
44	15
45	8
46	2
50	27
51	89
52	11
53	10
54	15
55	22
56	20
57	7
58	12
63	3
65	9
67	12
68	18
69	11
70	4
71	3
74	2
75	7
76	32
77	426
78	45
80	17
81	11
82	21
83	9
84	3
91	36
94	7
95	10
96	5
103	1
105	999
106	85
107	6
108	1
109	15
110	2
111	6
112	2
118	1
121	4
122	6
123	10
132	1
134	3
148	12
149	2
152	3
158	5
172	1
173	2
174	2
177	1
187	3
189	1
198	2
199	1
200	2
201	6
202	2
214	5
215	11
226	3
227	6
242	7
254	1
274	1
307	1
334	2
347	9
348	33
349	9
394	4
