Mass Spectrum: 4-[3-Diethylaminopropylamino]-1,7-naphthyridine
Formula: C15H22N4
CAS: 16287-95-9
Molecular weight: 258
m/z	intensity
41	43
42	84
43	39
44	62
45	4
46	1
50	9
51	13
52	13
53	5
54	9
55	6
56	72
57	30
58	206
59	11
62	4
63	18
64	10
65	9
66	4
67	3
68	4
69	3
70	34
71	20
72	318
73	21
74	17
75	42
76	15
77	11
78	9
79	6
84	28
85	30
86	999
87	59
88	3
89	4
90	15
91	5
92	2
98	33
99	10
100	48
101	6
102	36
103	19
104	29
105	4
108	5
112	4
113	18
114	4
115	1
116	4
117	16
118	9
119	1
122	29
128	1
129	20
130	20
131	83
132	9
135	3
142	1
143	4
144	10
145	20
146	13
147	0
155	3
156	13
157	28
158	69
159	35
160	4
167	1
168	20
169	12
170	32
171	6
172	60
173	10
174	2
182	3
183	3
184	45
185	21
186	31
187	10
188	1
198	1
200	1
212	0
213	3
215	2
229	24
230	19
231	7
232	0
241	3
243	11
244	2
256	1
257	46
258	326
259	68
260	17
261	1
