Mass Spectrum: N-Isovaleroylglycine
Formula: C7H13NO3
CAS: 16284-60-9
Molecular weight: 159
m/z	intensity
14	6
15	23
16	1
17	7
18	26
26	12
27	144
28	106
29	308
30	740
31	33
32	3
36	1
37	3
38	9
39	124
40	20
41	433
42	57
43	152
44	332
45	29
46	3
48	12
49	1
50	5
51	7
52	4
53	13
54	21
55	72
56	215
57	999
58	58
59	12
60	18
61	1
66	1
67	3
68	7
69	194
70	12
71	74
72	59
73	49
74	243
75	57
76	416
77	14
78	3
81	1
82	3
83	29
84	32
85	351
86	46
87	10
89	150
90	6
91	1
96	1
97	2
98	18
99	111
100	49
101	4
102	29
103	10
104	2
105	4
112	4
113	29
114	51
115	29
116	4
117	895
118	45
119	6
122	2
126	8
130	4
131	346
132	21
133	2
141	21
142	2
144	25
145	2
158	1
159	35
160	4
