Mass Spectrum: 2,2'-Bi-2H-pyran, octahydro-
Formula: C10H18O2
CAS: 16282-29-4
Molecular weight: 170
m/z	intensity
24	0
25	0
26	5
27	61
28	19
29	152
30	3
31	19
32	0
35	0
37	1
39	48
40	9
41	192
42	15
43	208
44	5
45	6
50	1
51	3
52	0
53	23
54	12
55	126
56	27
57	181
58	15
59	2
62	0
63	1
64	0
65	4
66	2
67	165
68	14
69	19
70	5
71	11
72	1
73	12
75	0
76	0
77	2
78	1
79	4
80	2
81	8
82	3
83	14
84	494
85	999
86	51
87	7
88	0
91	1
92	0
93	1
94	0
95	5
96	1
97	4
98	7
99	1
101	1
105	1
106	0
109	1
110	0
111	6
112	1
113	4
114	7
115	0
126	0
128	0
129	1
134	0
169	1
170	0
