Mass Spectrum: 1,3-Dioxane-4,6-dione, 2,2-dimethyl-5-[(3-nitrophenyl)methylene]-
Formula: C13H11NO6
CAS: 16286-25-2
Molecular weight: 277
m/z	intensity
27	19
28	36
29	21
30	19
31	12
32	0
36	0
37	0
38	1
39	20
40	0
42	10
43	999
44	83
46	1
48	0
50	30
51	106
52	9
53	35
54	1
58	55
59	401
60	15
61	0
62	1
63	44
64	9
65	8
66	1
73	0
74	17
75	233
76	29
77	44
78	7
79	6
87	2
88	16
89	214
90	22
91	4
92	5
93	4
100	18
101	601
102	76
103	9
104	6
105	25
106	4
107	1
108	1
109	0
110	1
114	1
115	6
116	15
117	51
118	20
119	4
120	0
121	2
122	0
123	0
128	27
129	474
130	51
131	7
132	2
133	5
134	1
135	15
136	2
143	2
144	23
145	35
146	11
147	27
148	6
150	16
151	32
152	10
156	0
157	0
158	5
159	26
160	7
161	4
162	2
163	21
164	2
165	0
170	0
171	1
172	182
173	123
174	73
175	360
176	72
177	9
178	3
180	1
183	0
184	0
185	1
187	2
188	1
189	7
190	7
191	150
192	19
193	5
194	2
196	0
197	0
198	1
199	0
200	0
201	1
202	971
203	118
204	16
205	2
206	4
207	1
209	0
212	0
214	0
215	1
216	1
217	2
218	15
219	858
220	220
221	25
222	2
229	0
230	0
231	0
232	1
233	2
234	7
235	5
236	1
237	0
243	0
244	0
245	0
246	3
247	1
248	1
249	0
250	0
252	0
253	0
255	0
257	0
259	1
260	0
261	4
262	38
263	6
264	1
265	0
266	0
269	0
272	1
276	0
277	14
