Mass Spectrum: Methyl 3-amino-2-pyrazinecarboxylate
Formula: C6H7N3O2
CAS: 16298-03-6
Molecular weight: 153
m/z	intensity
14	2
15	44
16	1
17	1
18	2
26	10
27	9
28	58
29	9
30	4
31	6
32	3
33	2
38	14
39	34
40	140
41	40
42	54
43	51
44	4
45	4
50	1
51	9
52	34
53	28
54	11
55	6
56	2
57	1
58	2
59	34
64	1
65	9
66	74
67	262
68	195
69	12
70	5
77	2
78	2
79	2
80	1
81	6
82	4
83	1
92	2
93	192
94	393
95	999
96	57
97	2
99	1
108	1
109	3
110	1
120	3
121	48
122	53
123	262
124	17
125	2
153	691
154	69
155	5
