Mass Spectrum: Methanamine, (diethylphosphonato)(4-pyridyl)-
Formula: C10H17N2O3P
CAS: 162900-51-8
Molecular weight: 244
m/z	intensity
37	11
38	36
39	82
40	45
41	187
42	154
43	47
44	14
45	11
47	9
50	11
51	57
52	17
53	11
54	9
55	22
56	32
58	999
59	18
60	2
62	2
63	9
64	5
65	44
66	4
67	1
69	3
70	1
71	2
73	6
74	5
75	3
77	207
78	45
79	151
81	69
82	149
83	83
84	1
85	2
87	1
89	6
91	26
92	6
93	11
94	8
95	5
99	0
105	68
106	28
107	92
109	46
110	75
111	246
112	4
113	2
114	14
115	1
118	12
121	8
122	7
123	16
125	1
127	4
129	0
130	0
138	240
139	21
140	1
149	0
153	3
155	6
169	1
173	14
185	3
186	4
187	5
188	2
199	6
212	3
214	1
215	7
216	4
224	0
226	1
232	4
244	77
245	9
