Mass Spectrum: N-Benzoyl derivative of m-fluoroaniline
Formula: C13H10FNO
CAS: 1629-15-8
Molecular weight: 215
m/z	intensity
37	12
38	22
39	40
50	91
51	270
52	30
53	12
56	12
57	81
61	12
62	22
63	30
64	12
65	12
69	12
74	30
75	40
76	40
77	650
78	50
81	22
82	22
83	131
84	12
89	12
95	12
105	999
106	81
107	12
109	12
110	30
111	12
185	12
215	258
216	40
