Mass Spectrum: Oxazolidine, 3-methyl-2-phenyl-
Formula: C10H13NO
CAS: 163-62-2
Molecular weight: 163
m/z	intensity
15	26
27	19
29	17
30	37
39	22
41	13
42	88
43	17
50	17
51	50
52	11
56	53
57	19
58	104
59	9
63	19
65	22
66	8
76	8
77	100
78	22
79	7
86	999
87	50
89	28
90	32
91	99
92	17
105	141
106	16
117	12
118	19
119	23
132	131
133	17
162	314
163	120
164	12
