Mass Spectrum: Acetylfilicinic acid
Formula: C10H12O4
CAS: 16302-39-9
Molecular weight: 196
m/z	intensity
38	28
39	206
40	53
41	307
42	367
43	999
44	36
53	42
55	87
61	14
65	14
66	22
67	175
68	163
69	203
70	901
71	84
82	14
83	62
84	163
85	152
86	25
97	62
98	338
99	14
111	155
112	305
113	14
125	22
126	192
127	19
129	194
139	50
153	59
154	93
168	8
179	19
181	31
196	728
197	70
