Mass Spectrum: Oxazolidine, 3-ethyl-
Formula: C5H11NO
CAS: 1630-73-5
Molecular weight: 101
m/z	intensity
14	23
15	197
26	70
27	276
29	301
30	94
31	21
36	50
38	19
39	27
40	46
41	194
42	952
43	990
44	679
45	44
54	46
55	32
56	977
57	101
58	35
68	16
69	10
70	166
71	329
72	22
73	13
86	895
87	47
100	999
101	712
102	40
103	0
