Mass Spectrum: (4-Methyl-1,2,3-thiadiazol-5-yl)methanol
Formula: C4H6N2OS
CAS: 163008-86-4
Molecular weight: 130
m/z	intensity
30	15
31	158
33	155
34	95
35	11
36	147
37	140
38	162
39	309
40	32
41	275
42	247
43	273
45	336
46	32
47	93
48	16
49	135
50	235
51	231
52	98
53	217
54	9
55	114
56	34
57	174
58	386
59	432
60	68
61	70
62	26
63	11
64	14
65	12
66	28
67	18
68	79
69	252
70	30
71	999
72	282
73	191
74	275
75	34
76	48
77	14
78	4
79	12
80	4
81	45
82	41
83	83
84	198
85	381
86	24
87	405
88	8
89	20
90	1
92	2
94	3
95	17
96	12
97	40
98	13
99	30
100	1
101	309
102	538
103	91
104	51
105	14
106	2
107	3
108	3
109	14
110	11
111	30
112	9
113	50
114	18
115	9
116	4
129	18
130	304
131	24
132	14
