Mass Spectrum: Oxazolidine, 3-methyl-2-propyl-
Formula: C7H15NO
CAS: 1630-76-8
Molecular weight: 129
m/z	intensity
15	12
27	35
29	27
30	60
39	17
40	8
41	34
42	80
43	46
44	24
54	10
55	15
56	40
57	21
58	267
59	11
70	34
71	18
84	45
86	999
87	52
98	31
99	10
129	37
130	10
