Mass Spectrum: Oxazolidine, 2-ethyl-3-methyl-
Formula: C6H13NO
CAS: 1630-75-7
Molecular weight: 115
m/z	intensity
15	17
27	37
29	54
30	95
39	19
41	41
42	125
43	42
44	28
55	13
56	54
57	42
58	369
59	16
70	62
71	12
84	59
85	34
86	999
87	51
115	46
116	4
