Mass Spectrum: 2H-Pyran, 2-(ethylthio)tetrahydro-
Formula: C7H14OS
CAS: 16315-51-8
Molecular weight: 146
m/z	intensity
41	360
42	30
43	200
44	20
45	130
46	50
47	380
48	10
49	20
50	30
51	30
52	10
53	100
54	210
55	999
56	240
57	240
58	40
59	40
60	20
61	70
62	520
63	20
64	20
67	110
69	60
73	10
75	10
83	230
84	490
85	520
86	10
146	20
