Mass Spectrum: 4-Methylurazole
Formula: C3H5N3O2
CAS: 16312-79-1
Molecular weight: 115
m/z	intensity
14	1
15	48
16	5
18	2
26	1
27	13
28	99
29	58
30	131
31	27
32	1
40	1
41	2
42	7
43	23
44	22
45	1
53	2
54	1
55	6
56	31
57	11
58	677
59	15
60	1
70	21
71	1
72	1
73	2
85	2
86	5
87	1
114	2
115	999
116	69
117	6
