Mass Spectrum: Quinoxaline, 2-(methylsulfonyl)-
Formula: C9H8N2O2S
CAS: 16310-37-5
Molecular weight: 208
m/z	intensity
15	20
26	2
27	12
28	13
29	2
32	2
34	1
37	5
38	8
39	14
40	1
44	1
45	5
46	1
47	1
48	4
49	3
50	45
51	88
52	23
53	1
57	2
61	2
62	8
63	17
64	14
65	4
73	3
74	19
75	151
76	99
77	11
78	2
79	7
80	1
87	1
88	3
89	3
90	40
91	4
99	6
100	7
101	20
102	548
103	49
104	2
107	1
116	2
117	19
118	81
119	7
128	5
129	999
130	103
131	5
134	2
135	1
137	1
143	2
144	10
145	111
146	539
147	52
148	3
149	1
176	1
208	552
209	64
210	29
211	3
