Mass Spectrum: 2-Thiazolidinecarboxylic acid
Formula: C4H7NO2S
CAS: 16310-13-7
Molecular weight: 133
m/z	intensity
14	1
15	8
17	2
18	7
26	7
27	35
28	96
29	7
30	7
31	7
32	2
33	3
34	4
35	18
39	1
40	4
41	84
42	32
43	9
44	87
45	69
46	11
47	6
52	1
54	8
55	3
56	1
57	5
58	20
59	67
60	45
61	132
62	6
63	6
69	68
70	3
74	5
76	1
86	20
87	45
88	999
89	46
90	44
91	1
114	4
132	1
133	46
134	3
135	3
