Mass Spectrum: 2H-Pyran, 2-(butylthio)tetrahydro-
Formula: C9H18OS
CAS: 16315-52-9
Molecular weight: 174
m/z	intensity
41	388
42	34
43	261
44	11
45	84
46	23
47	84
48	15
51	11
53	38
54	38
55	219
56	161
57	269
58	30
59	26
61	42
67	192
68	19
69	11
83	30
84	61
85	999
86	65
90	38
174	38
