Mass Spectrum: 2-Phenacyl-quinoxaline
Formula: C16H12N2O
CAS: 16310-38-6
Molecular weight: 248
m/z	intensity
27	3
28	6
37	1
38	4
39	12
40	1
41	1
42	1
50	21
51	49
52	6
53	1
57	1
62	3
63	12
64	5
65	7
66	1
68	1
71	2
74	5
75	14
76	32
77	359
78	28
79	1
82	1
83	2
84	1
85	4
87	1
88	4
89	24
90	9
91	8
92	2
95	6
96	2
97	8
101	2
102	61
103	9
104	3
105	999
106	81
107	5
108	1
109	41
110	49
111	1
114	3
115	10
116	12
117	4
118	2
119	1
123	1
124	3
127	1
128	2
129	2
130	1
131	1
141	1
142	8
143	103
144	15
145	1
151	1
152	1
164	1
165	4
166	1
170	9
171	163
172	18
173	1
177	1
178	1
179	1
190	3
191	4
192	3
193	2
194	1
202	1
203	3
204	2
205	2
206	1
207	1
216	1
217	2
218	13
219	110
220	280
221	47
222	4
229	2
230	9
231	34
232	6
233	11
234	2
245	2
247	366
248	636
249	111
250	10
