Mass Spectrum: 4,7-Methano-1H-inden-1-ol, 3a,4,7,7a-tetrahydro-, acetate
Formula: C12H14O2
CAS: 16327-40-5
Molecular weight: 190
m/z	intensity
25	3
26	9
27	56
28	77
29	26
30	2
31	9
36	2
37	9
38	25
39	179
40	33
41	57
42	27
43	478
44	48
45	146
46	3
49	4
50	56
51	140
52	43
53	48
54	18
55	23
56	10
57	23
58	4
59	1
60	118
61	14
62	33
63	103
64	89
65	159
66	393
67	42
68	7
69	12
70	13
71	12
72	2
73	5
74	32
75	34
76	38
77	131
78	69
79	39
80	14
81	38
82	596
83	63
84	6
85	7
86	8
87	11
88	6
89	46
90	9
91	115
92	21
93	6
94	7
95	6
96	4
97	8
98	8
99	4
100	2
101	14
102	60
103	47
104	26
105	15
106	4
107	7
108	3
109	3
110	2
111	4
112	2
113	4
114	7
115	575
116	81
117	68
118	10
119	14
120	5
121	4
122	2
123	2
124	68
125	15
126	25
127	181
128	399
129	799
130	999
131	129
132	10
189	1
190	3
191	2
