Mass Spectrum: 1,3-Cyclopentanediol, trans-
Formula: C5H10O2
CAS: 16326-98-0
Molecular weight: 102
m/z	intensity
39	251
40	121
41	529
42	194
43	562
44	159
45	290
46	17
47	219
48	10
49	13
50	27
51	33
52	17
53	89
54	73
55	999
56	802
57	896
58	501
59	47
60	40
61	14
62	12
63	13
65	34
66	75
67	67
68	16
69	193
70	13
71	18
73	181
74	23
81	20
82	102
83	409
84	640
85	51
86	9
99	10
100	22
101	12
