Mass Spectrum: Benzofurazan, 4-nitro-
Formula: C6H3N3O3
CAS: 16322-19-3
Molecular weight: 165
m/z	intensity
30	999
32	60
37	160
38	320
39	80
40	130
41	60
49	50
50	130
51	110
52	100
53	50
61	150
62	490
63	270
64	320
65	70
74	130
75	680
76	150
77	270
78	100
87	70
88	180
89	260
91	60
92	50
103	50
105	580
106	60
107	50
119	150
135	80
149	50
165	910
166	90
