Mass Spectrum: Acetic acid, (2-ethoxy)ethoxy-, methyl ester
Formula: C7H14O4
CAS: 16326-34-4
Molecular weight: 162
m/z	intensity
31	912
33	24
37	1
38	2
39	9
40	5
41	60
42	82
43	279
44	172
45	999
46	24
47	7
51	1
55	3
56	1
57	37
58	29
59	670
60	23
61	6
62	2
63	5
71	1
72	304
73	158
74	95
75	126
76	4
85	1
87	2
88	28
89	24
90	38
91	31
101	1
102	20
103	89
104	5
116	38
117	25
118	42
119	2
130	10
