Mass Spectrum: 4-Phosphorinanone, 1-methyl-
Formula: C6H11OP
CAS: 16327-48-3
Molecular weight: 130
m/z	intensity
41	100
45	110
46	60
48	50
55	100
57	100
58	60
59	50
60	50
63	50
68	20
71	20
72	40
73	50
74	400
75	60
76	40
77	20
78	11
87	2
90	2
97	2
102	110
115	50
129	499
130	999
