Mass Spectrum: Androstan-17-ol, 2,3-epoxy-3-methyl-, acetate, (2.beta.,3.beta.,5.alpha.,17.beta.)-
Formula: C22H34O3
CAS: 16321-28-1
Molecular weight: 346
m/z	intensity
41	300
42	20
43	999
44	30
45	20
50	20
51	20
52	10
53	90
54	20
55	280
56	10
57	20
58	10
60	20
63	10
65	30
66	10
67	200
68	50
69	100
70	10
71	50
72	10
73	10
77	110
78	20
79	220
80	50
81	280
82	40
83	20
84	50
85	130
86	10
91	200
92	40
93	300
94	210
95	250
96	30
97	90
98	100
99	10
115	10
116	10
117	30
118	30
119	130
120	100
121	160
122	50
123	80
124	60
125	50
126	10
128	10
129	20
130	10
131	100
132	30
133	140
134	60
135	90
136	40
137	110
138	50
139	10
141	10
142	10
143	20
144	20
145	90
146	70
147	170
148	90
149	180
150	40
151	20
152	10
157	20
158	10
159	80
160	40
161	130
162	30
163	30
164	10
165	10
171	20
172	10
173	90
174	30
175	50
176	10
177	40
178	10
179	10
183	10
185	20
186	10
187	160
188	30
189	20
190	10
191	10
197	10
199	30
200	40
201	60
202	160
203	40
213	30
214	30
215	40
216	10
217	10
219	10
227	20
228	10
229	20
231	10
233	10
253	30
255	10
257	50
258	20
259	10
260	40
261	10
262	60
268	10
270	10
271	30
272	10
273	20
274	10
286	10
287	130
288	30
289	10
290	20
310	20
311	90
312	50
313	20
314	10
318	10
319	10
328	30
329	10
331	70
332	10
346	270
347	60
348	10
