Mass Spectrum: 5-Dodecen-7-yne, (Z)-
Formula: C12H20
CAS: 16336-83-7
Molecular weight: 164
m/z	intensity
22	0
23	1
24	1
25	4
26	13
27	280
28	15
29	218
30	5
31	2
33	3
34	2
35	3
36	0
37	9
38	13
39	265
40	37
41	474
42	45
43	280
44	20
45	72
46	3
47	2
48	1
49	2
50	26
51	101
52	73
53	99
54	40
55	310
56	56
57	60
58	10
59	2
60	1
61	2
62	8
63	43
64	19
65	192
66	191
67	307
68	68
69	74
70	28
71	10
72	3
73	1
74	5
75	32
76	12
77	423
78	130
79	999
80	225
81	141
82	76
83	25
84	10
85	3
86	1
87	3
89	23
90	8
91	269
92	42
93	807
94	127
95	45
96	11
97	7
98	3
99	0
101	0
102	2
103	14
104	4
105	47
106	14
107	179
108	68
109	18
110	2
111	4
112	4
113	0
115	6
116	2
117	5
118	0
119	9
120	3
121	82
122	24
123	5
127	0
128	1
129	0
131	1
133	2
134	0
135	49
136	7
137	1
140	1
141	0
149	9
150	2
151	0
152	1
153	0
162	2
164	138
165	18
166	0
