Mass Spectrum: Propane, 1-(ethenylthio)-
Formula: C5H10S
CAS: 16330-21-5
Molecular weight: 102
m/z	intensity
25	2
26	54
27	326
29	14
30	1
31	2
32	5
33	8
34	7
35	10
36	1
37	9
38	12
39	142
41	293
42	35
43	369
44	4
45	478
46	34
47	63
48	4
49	4
53	7
55	5
56	3
57	31
58	120
59	230
60	999
61	116
62	48
63	3
67	11
68	4
69	13
70	16
71	10
72	1
73	264
74	25
75	19
76	3
85	5
87	34
88	14
102	457
103	27
104	19
