Mass Spectrum: 1,2-Oxathiane, 2,2-dioxide
Formula: C4H8O3S
CAS: 1633-83-6
Molecular weight: 136
m/z	intensity
15	9
16	2
26	28
27	142
29	98
30	15
31	32
37	7
38	18
39	150
40	77
41	455
42	999
43	143
44	30
45	12
46	2
47	2
48	36
50	14
51	3
52	2
53	13
54	475
55	73
56	5
57	16
58	5
64	21
65	30
66	5
71	291
72	17
76	6
78	42
80	6
95	3
106	35
107	28
108	3
121	17
