Mass Spectrum: Disilane, hexaethyl-
Formula: C12H30Si2
CAS: 1633-09-6
Molecular weight: 230
m/z	intensity
26	5
27	12
29	36
30	5
31	96
39	2
40	4
41	3
42	1
43	59
44	13
45	61
46	3
47	2
53	3
54	2
55	34
56	19
57	152
58	94
59	497
60	46
61	29
65	2
66	16
67	3
68	3
69	10
70	3
71	16
72	6
73	21
74	5
75	5
79	1
81	4
82	1
83	17
84	7
85	74
86	70
87	999
88	124
89	149
90	17
91	6
97	2
99	7
101	15
102	2
103	4
111	3
112	2
113	43
114	124
115	863
116	108
117	152
118	28
119	4
122	7
129	3
131	3
143	7
144	9
145	204
146	35
147	14
150	0
159	3
171	5
173	198
174	40
175	18
176	6
201	200
202	45
203	20
204	2
230	159
231	36
232	14
233	2
