Mass Spectrum: Methanamine, N-methoxy-N-nitroso-
Formula: C2H6N2O2
CAS: 16339-12-1
Molecular weight: 90
m/z	intensity
30	999
31	153
32	31
33	157
41	16
42	24
43	32
44	61
45	327
49	11
58	11
59	124
60	589
61	23
