Mass Spectrum: (1R,2R,4S)-2-(6-Chloropyridin-3-yl)-7-azabicyclo[2.2.1]heptane
Formula: C11H13ClN2
CAS: 163365-18-2
Molecular weight: 208
m/z	intensity
51	25
52	10
53	7
54	6
55	4
56	5
58	11
61	3
62	7
63	21
64	8
65	9
66	4
68	425
69	999
70	49
72	13
73	10
74	4
75	15
76	11
77	32
78	16
79	3
80	7
81	3
82	12
85	6
86	4
87	4
88	3
89	18
90	17
91	10
92	4
93	2
94	1
96	2
97	2
98	2
99	9
100	2
101	6
102	18
103	10
104	28
105	3
111	1
112	4
113	4
114	5
115	10
116	18
117	22
118	8
123	2
125	3
126	11
127	5
128	15
129	6
130	9
131	6
137	3
138	6
140	115
141	38
142	44
143	17
144	7
145	3
150	2
151	10
152	12
153	8
154	6
155	3
164	7
165	9
166	6
167	4
168	2
171	1
173	2
179	43
180	15
181	16
182	4
190	1
191	1
193	3
208	92
209	13
210	30
211	4
