Mass Spectrum: Piperazine, 1-methyl-4-nitroso-
Formula: C5H11N3O
CAS: 16339-07-4
Molecular weight: 129
m/z	intensity
30	49
31	21
32	28
36	585
37	192
40	21
41	78
42	264
43	128
44	35
45	7
52	7
53	14
54	28
55	271
56	92
57	999
58	49
59	21
60	14
66	7
67	14
68	21
70	64
71	49
72	28
73	28
80	14
81	14
82	14
83	14
84	21
85	49
86	14
95	7
96	14
97	14
98	35
99	571
100	792
101	57
114	14
115	7
129	28
