Mass Spectrum: 2,5-Dibromo-p-benzoquinone
Formula: C6H2Br2O2
CAS: 1633-14-3
Molecular weight: 264
m/z	intensity
12	25
13	13
14	3
15	2
16	7
17	16
18	58
24	42
25	223
26	27
27	11
28	31
29	33
30	3
31	10
36	52
37	98
38	19
39	6
40	7
41	25
42	4
43	12
44	3
45	5
48	33
49	172
50	246
51	24
52	66
53	999
54	37
55	10
56	3
57	10
60	37
61	68
62	29
63	4
65	3
66	4
67	3
68	2
69	12
70	7
71	6
72	2
73	3
76	3
77	17
78	9
79	86
80	17
81	72
82	13
83	4
84	3
85	2
86	3
88	3
91	18
92	3
93	19
94	3
97	3
103	17
104	241
105	34
106	232
107	21
109	13
111	3
112	4
113	6
115	5
116	4
117	5
118	3
119	2
127	2
128	10
129	66
130	16
131	79
132	191
133	30
134	183
135	8
139	2
141	3
157	268
158	22
159	255
160	67
161	4
162	44
163	2
173	2
175	2
185	50
186	6
187	50
188	6
208	7
210	14
211	2
212	7
213	3
236	46
238	90
239	6
240	44
241	3
264	149
266	294
267	20
268	145
269	9
270	0
