Mass Spectrum: 1-Pentanol, 5-mercapto-
Formula: C5H12OS
CAS: 1633-79-0
Molecular weight: 120
m/z	intensity
23	0
24	0
25	2
26	54
27	628
28	80
29	460
30	29
31	836
33	37
34	71
35	88
36	3
37	8
38	23
39	294
40	75
41	999
42	130
43	195
44	202
45	209
46	140
47	542
48	34
49	28
50	10
51	17
52	7
53	138
54	61
55	586
56	261
57	361
58	63
59	100
60	483
61	278
62	30
63	19
64	2
65	12
66	8
67	461
68	723
69	363
70	16
71	13
72	6
73	104
74	140
75	17
76	8
77	5
78	0
79	1
80	1
81	2
82	3
83	3
84	1
85	11
86	8
87	678
88	40
89	41
90	3
91	2
92	2
93	1
94	1
95	1
96	1
97	4
98	0
99	1
100	1
101	19
102	305
103	28
104	15
105	3
106	1
107	1
108	1
109	0
110	1
111	0
113	0
114	0
117	0
118	0
119	0
120	2
121	1
122	0
123	0
124	0
