Mass Spectrum: N-(2-Methoxyethyl)carbamic acid methyl ester
Formula: C5H11NO3
CAS: 16339-52-9
Molecular weight: 133
m/z	intensity
15	62
27	83
28	297
29	202
30	118
31	203
32	25
33	43
41	62
42	303
43	182
44	843
45	695
46	71
55	52
56	143
57	25
58	258
59	654
60	54
70	161
71	79
72	37
73	62
86	39
88	999
89	82
100	42
101	699
102	263
103	57
104	6
118	43
133	18
134	5
