Mass Spectrum: 1-Allyl-4-dichloromethyl-2-(p-tolyl)-6(1H)-thioxo-1,3,5-triazine
Formula: C14H13Cl2N3S
CAS: 163433-85-0
Molecular weight: 325
m/z	intensity
35	89
36	258
37	40
39	999
40	144
41	637
45	85
46	9
47	18
50	23
51	64
54	19
57	9
58	28
59	45
60	44
62	26
63	53
64	39
65	51
70	16
71	36
72	99
73	39
74	47
76	15
78	11
83	25
84	10
85	21
87	15
88	31
89	63
90	53
91	51
98	45
99	77
115	32
116	100
117	68
118	192
119	16
143	14
172	13
173	38
310	26
312	16
