Mass Spectrum: Benzene, 1,4-bis(3,3-dimethylthioureido)-
Formula: C12H18N4S2
CAS: 16349-56-7
Molecular weight: 282
m/z	intensity
36	8
38	13
39	32
40	7
41	14
42	76
44	103
45	131
46	11
47	13
50	33
51	23
52	26
53	8
54	11
56	25
57	20
58	13
59	17
60	17
62	32
63	53
64	50
65	45
66	10
67	3
69	24
70	39
71	161
72	45
73	88
74	27
75	52
76	32
77	18
78	17
80	35
81	12
82	5
83	15
84	3
86	2
88	999
90	214
91	32
92	16
93	10
94	10
95	16
96	28
97	6
99	1
102	33
103	9
104	0
105	23
106	26
107	88
108	160
109	23
110	10
111	2
116	8
118	68
120	14
121	16
122	92
123	18
124	9
125	34
126	2
127	1
128	4
129	1
131	1
132	2
133	24
134	125
135	50
136	24
137	8
138	3
139	1
141	6
142	49
143	1
144	4
147	30
148	57
149	79
150	307
151	30
152	19
153	3
154	1
155	1
156	4
157	3
158	2
159	2
160	64
161	36
162	24
163	50
164	12
165	11
167	421
168	41
169	32
170	3
171	1
172	3
174	26
175	12
176	9
177	25
178	35
179	27
180	9
181	5
182	4
189	135
190	25
192	560
193	95
194	67
195	43
196	5
197	3
204	187
205	32
206	12
207	1
209	2
211	2
212	65
213	5
214	2
220	10
221	13
222	10
224	5
234	0
237	902
238	120
239	88
240	10
241	3
242	0
258	3
266	12
267	2
282	227
283	31
284	17
285	1
