Mass Spectrum: 2-Butyndiol dimethyl ether
Formula: C6H10O2
CAS: 16356-02-8
Molecular weight: 114
m/z	intensity
25	9
26	93
27	387
28	41
29	482
30	28
31	64
33	16
36	2
37	38
38	90
39	648
40	146
41	520
42	60
43	165
44	13
45	999
46	17
47	3
48	3
49	13
50	146
51	216
52	427
53	623
54	91
55	188
56	71
57	22
58	162
59	51
60	1
61	5
62	1
63	1
65	15
66	21
67	16
68	155
69	564
70	63
71	654
72	28
73	5
74	0
75	4
76	0
77	1
78	0
79	2
81	30
82	56
83	113
84	95
85	10
86	0
87	0
88	1
89	1
91	7
92	2
93	1
94	0
95	0
96	0
97	6
98	70
99	589
100	33
101	3
102	0
103	0
105	1
107	0
109	0
113	8
114	16
115	2
116	1
