Mass Spectrum: 2,4(1H,3H)-Pyrimidinedione, dihydro-5-hydroxy-
Formula: C4H6N2O3
CAS: 1635-26-3
Molecular weight: 130
m/z	intensity
27	44
28	291
29	164
30	999
31	36
34	0
36	0
37	0
38	5
39	6
40	21
41	18
42	42
43	362
44	439
45	13
46	4
47	0
50	0
51	1
52	2
53	3
54	4
55	8
56	15
57	6
58	69
59	5
60	1
67	0
68	2
69	3
70	22
71	1
72	2
73	10
74	4
84	0
85	0
86	2
87	1
100	0
101	7
102	2
112	1
130	62
131	3
132	0
