Mass Spectrum: Piperidine-.alpha.-toluenesulfonic acid amide
Formula: C12H17NO2S
CAS: 16358-39-7
Molecular weight: 239
m/z	intensity
41	60
42	89
43	15
44	6
45	2
47	2
48	2
49	15
50	4
51	19
52	4
53	6
54	9
55	60
56	24
57	13
58	1
62	3
63	19
64	7
65	112
66	6
67	5
68	6
69	16
70	5
71	5
76	4
77	3
78	2
79	2
80	1
81	4
82	13
83	29
84	384
85	25
86	7
89	25
90	12
91	999
92	112
93	6
95	4
96	3
97	10
98	185
99	12
104	3
105	2
106	1
109	2
110	0
111	2
117	2
118	5
119	3
120	1
123	2
125	2
132	20
133	16
134	7
135	2
137	1
146	9
147	1
148	39
149	3
150	2
152	1
159	0
160	8
161	2
174	226
175	75
176	8
177	0
239	17
240	3
