Mass Spectrum: Octane, 4,5-diethyl-
Formula: C12H26
CAS: 1636-41-5
Molecular weight: 170
m/z	intensity
24	15
25	12
27	199
28	16
29	201
30	5
31	0
37	1
38	2
39	86
40	10
41	338
42	103
43	999
44	29
45	2
46	0
49	0
50	1
51	10
52	4
53	29
54	18
55	197
56	199
57	293
58	15
59	1
62	0
63	2
64	0
65	9
66	4
67	23
68	6
69	167
70	22
71	187
72	10
73	0
74	0
77	8
78	2
79	9
80	2
81	9
82	5
83	30
84	637
85	451
86	30
87	1
89	0
90	0
91	3
92	1
93	2
94	1
95	3
96	1
97	16
98	12
99	28
100	1
101	0
103	0
105	1
106	0
107	1
108	1
109	2
110	1
111	4
112	3
113	1
115	0
119	0
120	0
123	0
124	1
125	1
126	17
127	30
128	3
133	0
137	0
139	1
140	10
141	65
142	5
143	0
151	0
169	0
170	5
171	1
