Mass Spectrum: 2,2'-Bi-1,3,2-dioxaphosphorinane, 5,5,5',5'-tetramethyl-, 2,2'-disulfide
Formula: C10H20O4P2S2
CAS: 16368-08-4
Molecular weight: 330
m/z	intensity
41	480
42	31
43	78
44	20
47	31
53	30
55	93
56	52
57	45
60	31
63	36
67	31
68	30
69	999
70	760
71	22
73	23
133	660
134	430
149	36
165	29
330	130
331	20
332	15
