Mass Spectrum: di-n-Propylmalonic acid
Formula: C9H16O4
CAS: 1636-27-7
Molecular weight: 188
m/z	intensity
15	8
16	16
17	22
18	80
26	11
27	165
28	39
29	137
30	3
31	9
32	2
37	2
38	7
39	107
40	25
41	503
42	54
43	160
44	410
45	44
46	2
47	1
50	6
51	10
52	5
53	34
54	11
55	155
56	32
57	219
58	9
59	20
60	9
61	1
62	2
63	3
65	5
66	2
67	24
68	6
69	309
70	21
71	6
72	15
73	999
74	42
75	5
77	2
79	2
81	5
82	3
83	17
84	15
85	4
86	3
87	10
88	3
95	7
96	1
97	166
98	11
99	17
100	7
101	95
102	582
103	32
104	3
109	1
110	9
113	10
114	2
115	104
116	8
117	17
126	92
127	9
128	10
129	2
141	1
142	5
143	3
144	7
146	9
