Mass Spectrum: 1-Pentanol, 2-amino-4-methyl-, (.+/-.)-
Formula: C6H15NO
CAS: 16369-17-8
Molecular weight: 117
m/z	intensity
27	56
28	77
29	32
30	356
35	35
39	42
41	95
42	107
43	203
44	565
55	12
56	24
57	22
59	10
60	290
61	8
69	16
70	14
72	4
81	3
84	6
85	4
86	999
87	63
88	3
