Mass Spectrum: 2,2'-Bi-1,3,2-dioxaphosphorinane, 5,5,5',5'-tetramethyl-, 2,2'-dioxide
Formula: C10H20O6P2
CAS: 16368-06-2
Molecular weight: 298
m/z	intensity
40	29
41	552
42	45
43	38
47	53
53	45
55	232
56	231
57	29
65	33
67	50
68	240
69	999
70	77
71	22
83	31
99	190
132	46
133	415
134	27
145	290
149	34
150	29
151	29
163	43
167	224
213	290
214	27
215	27
230	38
231	34
283	43
298	52
