Mass Spectrum: Threitol, 2-O-heptyl-
Formula: C11H24O4
CAS: 163776-13-4
Molecular weight: 220
m/z	intensity
24	5
25	7
27	67
28	27
29	151
30	5
31	65
32	4
33	1
34	0
36	0
37	0
38	1
39	35
40	6
41	265
42	61
43	249
44	41
45	38
46	1
47	1
48	0
49	1
50	2
51	3
52	5
53	9
54	7
55	103
56	55
57	999
58	41
59	6
60	33
61	168
62	4
63	6
64	0
65	1
66	1
67	8
68	10
69	37
70	41
71	15
72	3
73	26
74	29
75	5
76	0
77	1
78	1
79	7
80	0
81	9
82	3
83	11
84	1
85	8
86	2
87	11
88	0
89	0
90	0
91	159
92	6
93	2
94	0
95	1
96	28
97	24
98	24
99	66
100	6
101	0
102	0
103	0
104	6
105	6
106	0
107	0
109	1
110	0
111	0
112	0
113	2
114	0
115	2
116	2
117	2
118	0
123	13
124	1
125	0
127	14
128	1
129	1
133	0
135	0
141	4
142	25
143	3
144	0
145	0
149	1
155	0
157	0
158	2
159	42
160	5
161	0
167	0
171	2
172	2
173	0
177	2
178	0
189	16
190	1
221	1
