Mass Spectrum: l-Threitol, 2-O-nonyl-
Formula: C13H28O4
CAS: 163776-15-6
Molecular weight: 248
m/z	intensity
27	113
28	18
29	258
30	8
31	154
33	2
34	0
36	0
37	1
38	2
39	73
40	6
41	409
42	103
43	999
44	46
45	50
46	1
47	2
49	3
50	2
51	4
52	2
53	17
54	15
55	248
56	100
57	653
58	31
59	11
60	49
61	160
62	5
63	6
65	2
66	4
67	18
68	23
69	103
70	60
71	899
72	43
73	39
74	43
75	9
76	0
77	3
78	1
79	3
80	1
81	14
82	45
83	53
84	27
85	400
86	29
87	20
88	2
89	1
90	2
91	252
92	10
93	3
94	1
95	16
96	11
97	29
98	16
99	4
100	2
101	1
102	0
103	1
104	11
105	12
106	0
107	0
108	0
109	4
110	2
111	3
112	1
113	3
114	1
115	2
116	0
117	0
118	0
120	0
121	0
122	0
123	6
124	44
125	15
126	28
127	106
128	15
129	1
131	0
133	1
135	0
136	0
137	2
138	0
139	0
140	0
141	4
142	1
143	3
144	3
145	2
146	0
148	0
149	0
150	0
151	5
152	1
153	0
154	0
155	17
156	2
157	1
158	0
159	0
162	0
163	0
165	0
166	0
167	0
169	4
170	22
171	3
172	0
173	1
174	0
179	0
181	0
182	0
183	0
185	0
186	6
187	70
188	10
189	1
197	0
199	3
200	3
201	0
203	0
205	5
206	0
207	0
209	0
215	0
217	27
218	4
219	0
