Mass Spectrum: 4-(3-[2-(2-Octadecyloxybenzoyl)acetamido]phenylsulfonylamino)benzoic acid
Formula: C40H54N2O7S
CAS: 16371-02-1
Molecular weight: 706
m/z	intensity
33	114
34	26
36	67
37	31
38	96
39	270
40	339
41	345
43	681
44	183
45	39
48	14
50	37
51	51
52	68
53	53
55	303
57	399
59	7
60	13
63	221
64	206
65	465
66	52
67	45
69	153
70	35
71	154
72	8
73	7
74	11
75	16
76	18
77	35
78	23
79	28
80	43
81	67
82	26
83	71
84	18
85	69
87	6
88	5
89	24
90	105
91	224
92	999
94	17
95	22
96	9
97	43
98	8
99	7
100	2
101	5
102	7
103	5
104	9
105	25
106	14
108	223
109	24
110	11
111	19
112	16
113	8
115	5
118	86
119	161
120	333
121	301
122	33
123	23
124	6
125	7
127	8
128	3
129	3
131	18
132	6
133	18
134	22
136	160
137	100
139	14
140	23
141	7
143	5
144	5
145	17
147	93
148	10
149	42
150	12
151	10
152	3
154	14
156	92
157	13
158	8
159	9
160	9
162	100
163	231
164	122
165	97
166	26
167	15
168	3
169	3
170	3
171	16
172	3
173	8
175	16
176	34
177	14
178	9
179	4
180	4
181	18
182	44
183	69
184	13
185	4
186	9
187	5
188	3
189	27
191	6
195	2
196	1
198	1
199	3
201	1
203	3
204	5
205	3
207	3
209	18
210	7
211	10
217	2
226	3
227	15
228	9
229	2
230	2
231	4
248	1
253	2
254	3
255	14
256	6
273	7
274	17
275	56
276	10
277	4
283	1
287	2
292	6
301	18
302	3
306	9
307	6
308	1
316	2
317	7
318	7
320	178
321	31
322	12
346	25
347	3
372	5
373	29
374	7
388	2
396	1
559	9
560	4
