Mass Spectrum: Cyclopentanethiol, 2-methyl-, cis-
Formula: C6H12S
CAS: 1638-94-4
Molecular weight: 116
m/z	intensity
12	1
13	2
14	9
15	82
16	2
25	2
26	55
27	470
28	90
29	229
30	5
31	1
32	11
33	43
34	22
35	20
36	1
37	15
38	43
39	474
40	61
41	861
42	54
43	58
44	4
45	329
46	34
47	134
48	6
49	12
50	34
51	57
52	24
53	153
54	134
55	999
56	81
57	23
58	57
59	151
60	882
61	118
62	48
63	15
64	2
65	33
66	20
67	790
68	47
69	45
70	8
71	38
72	24
73	193
74	135
75	21
76	7
77	20
78	4
79	33
80	6
81	104
82	140
83	989
84	63
85	14
86	4
87	124
88	27
89	6
90	1
93	1
95	1
96	1
97	4
98	1
99	4
101	21
102	1
103	1
111	1
113	1
114	1
115	4
116	576
117	39
118	26
119	1
