Mass Spectrum: 3,5-Difluorobenzaldehyde carbamoylhydrazone
Formula: C8H7F2N3O
CAS: 163893-49-0
Molecular weight: 199
m/z	intensity
27	8
28	27
29	12
31	24
37	5
38	10
39	14
41	8
42	35
43	150
44	291
45	10
46	2
48	4
49	2
50	32
51	26
52	5
53	4
54	2
55	7
56	9
57	57
58	3
59	3
60	999
61	69
62	34
63	102
64	9
65	2
68	16
69	12
70	5
71	5
73	4
74	18
75	57
76	20
77	16
78	6
79	2
80	11
81	43
82	21
83	12
84	2
85	6
86	7
87	9
88	13
89	6
90	2
91	3
92	4
93	15
94	10
95	4
96	2
97	3
98	2
99	14
100	22
101	97
102	43
103	4
104	2
105	15
106	10
107	52
108	88
109	45
110	13
111	3
112	18
113	150
114	46
115	6
117	2
119	3
120	7
123	2
124	3
125	115
126	77
127	81
128	108
129	334
130	22
135	51
136	36
137	97
138	8
139	87
140	44
141	8
154	19
155	542
156	265
157	20
182	3
199	111
200	12
