Mass Spectrum: (+)-3-Carene, 10-(acetylmethyl)-
Formula: C13H20O
CAS: 163886-28-0
Molecular weight: 192
m/z	intensity
27	253
28	14
29	108
30	5
31	5
37	6
38	16
39	270
40	54
41	425
42	43
43	822
44	23
45	18
50	19
51	89
52	49
53	129
54	18
55	92
56	13
57	22
58	13
59	9
62	6
63	34
64	11
65	103
66	35
67	88
68	12
69	77
70	7
71	21
72	18
74	6
75	7
76	6
77	194
78	114
79	236
80	32
81	49
82	13
83	6
85	4
89	13
90	5
91	999
92	391
93	249
94	22
95	27
96	3
97	4
102	5
103	39
104	21
105	161
106	47
107	93
108	14
109	11
110	2
115	25
116	8
117	59
118	17
119	444
120	47
121	48
122	9
123	4
128	7
129	6
130	4
131	98
132	26
133	39
134	266
135	81
136	10
145	4
146	2
147	5
148	6
149	33
150	4
158	5
159	115
160	16
173	3
174	109
175	19
177	26
178	4
192	26
193	3
