Mass Spectrum: 1,3-Benzoxazepine-2-carbonitrile
Formula: C10H6N2O
CAS: 16393-03-6
Molecular weight: 170
m/z	intensity
50	80
51	114
52	11
53	11
61	46
62	137
63	275
64	114
74	23
75	11
86	23
87	23
90	344
115	160
116	11
118	999
119	91
141	114
142	11
170	724
171	80
