Mass Spectrum: Naphthalene-1,3,3-tricarbonitrile, 3,4,4a,5,6,7-hexahdro-2-amino-4-(4-methylphenyl)-
Formula: C20H18N4
CAS: 163978-39-0
Molecular weight: 314
m/z	intensity
33	8
34	1
37	2
39	92
40	27
41	53
42	10
43	8
44	3
45	2
50	16
51	44
52	25
53	26
54	8
55	7
56	2
57	2
61	2
62	10
63	36
64	22
65	68
66	22
67	20
68	3
69	2
70	3
71	1
73	1
74	5
75	15
76	29
77	85
78	36
79	54
80	6
81	4
82	5
83	3
84	2
85	0
86	2
87	8
88	17
89	39
90	26
91	108
92	28
93	8
94	5
95	7
96	6
97	2
98	1
99	4
100	8
101	16
102	30
103	56
105	999
106	77
107	8
108	9
109	10
110	4
111	3
112	3
113	11
114	24
115	92
116	56
117	32
118	24
119	9
120	7
121	7
122	12
123	6
124	2
125	3
126	10
127	29
128	57
129	57
130	36
131	68
132	9
133	3
134	3
135	15
137	4
138	5
139	13
140	29
141	29
142	26
143	26
144	13
145	6
146	6
148	5
149	9
150	6
151	8
152	15
153	14
154	10
155	21
156	17
157	17
158	4
159	2
162	1
163	4
164	8
165	18
166	10
167	13
168	16
169	19
170	8
171	5
172	2
175	4
176	5
177	8
178	10
179	9
180	13
181	10
182	21
183	10
184	7
185	2
187	1
188	2
189	5
190	10
191	6
192	8
193	9
194	13
195	18
196	11
197	4
198	2
201	4
202	5
203	6
204	7
205	9
206	8
207	9
208	21
209	89
210	16
211	1
214	4
215	5
216	5
217	5
218	6
219	20
220	8
221	19
222	41
223	14
224	2
226	1
227	3
228	3
229	5
230	7
231	7
232	5
233	4
234	2
235	1
239	1
240	1
241	2
242	3
243	5
244	8
245	5
246	9
247	5
248	4
249	5
250	1
253	1
254	2
255	3
256	4
257	4
258	6
259	7
260	13
261	3
267	1
268	1
269	4
270	4
271	6
272	7
273	3
274	3
280	1
281	1
282	2
283	2
284	2
285	7
286	10
287	9
288	4
289	2
295	0
296	3
297	4
298	7
299	16
300	2
310	1
311	2
313	40
314	84
315	18
316	1
