Mass Spectrum: Hexanoic acid, 2-ethylhexyl ester
Formula: C14H28O2
CAS: 16397-75-4
Molecular weight: 228
m/z	intensity
25	3
26	51
27	355
28	67
29	478
30	17
31	25
36	3
37	8
38	19
39	221
40	51
41	691
42	265
43	892
44	73
45	39
49	3
50	9
51	25
52	11
53	59
54	41
55	513
56	291
57	497
58	29
59	17
60	171
61	51
63	11
65	8
66	6
67	39
68	39
69	168
70	953
71	566
72	44
73	92
74	44
75	7
77	3
78	3
79	9
80	4
81	17
82	38
83	216
84	119
85	15
86	18
87	77
88	9
89	7
91	3
94	7
96	3
97	26
98	38
99	999
100	72
101	29
110	4
111	19
112	379
113	69
114	3
115	9
116	49
117	172
118	16
119	3
127	12
128	7
129	14
130	9
143	38
144	4
157	13
