Mass Spectrum: Morphinan-14-ol, 3-methoxy-17-methyl-
Formula: C18H25NO2
CAS: 1639-74-3
Molecular weight: 287
m/z	intensity
41	210
42	710
43	180
44	999
45	110
46	40
51	90
52	40
53	80
54	30
55	170
56	80
57	210
58	130
59	140
60	20
63	60
64	10
65	90
66	10
67	70
68	40
70	160
71	40
72	30
77	140
78	60
79	60
80	10
81	40
82	60
83	40
84	40
89	50
91	130
92	20
94	80
95	10
96	50
102	60
103	70
104	10
105	40
115	230
116	90
117	60
121	90
122	10
127	90
128	170
129	110
130	50
131	70
132	10
139	40
141	50
142	50
143	60
144	90
145	90
146	90
147	40
148	60
152	50
153	50
154	40
155	40
157	50
158	90
159	120
160	70
161	50
162	40
165	50
166	60
167	40
168	30
169	40
170	40
171	110
172	90
173	60
174	60
181	30
182	30
183	30
184	60
185	60
186	50
187	90
188	50
198	40
199	30
200	40
201	40
202	50
211	40
212	160
213	110
214	60
215	30
226	70
227	10
230	120
231	20
269	40
270	90
271	10
286	70
287	150
288	30
