Mass Spectrum: Trichloroacetic acid, 2-ethylhexyl ester
Formula: C10H17Cl3O2
CAS: 16397-79-8
Molecular weight: 274
m/z	intensity
25	1
26	9
27	46
28	9
29	79
30	2
31	3
35	9
36	63
37	3
38	21
39	52
40	11
41	242
42	56
43	243
44	9
45	1
47	7
48	3
49	5
50	6
51	11
52	11
53	23
54	17
55	310
56	166
57	999
58	43
59	1
63	3
65	10
66	4
67	22
68	17
69	131
70	635
71	293
72	24
73	2
75	2
76	6
77	10
78	8
79	20
80	3
81	10
82	36
83	293
84	106
85	10
86	4
87	2
89	3
90	1
91	38
92	5
93	4
95	4
96	2
97	22
98	14
99	21
100	2
102	1
103	8
104	111
105	20
106	2
110	44
111	8
112	101
113	12
114	5
117	106
118	2
119	101
120	2
121	33
123	4
127	3
128	1
129	2
142	1
145	2
147	2
149	1
157	3
163	1
176	2
178	2
191	1
217	1
219	1
