Mass Spectrum: 4-Chlorobenzoic acid, 2-ethylhexyl ester
Formula: C15H21ClO2
CAS: 16397-67-4
Molecular weight: 268
m/z	intensity
26	10
27	47
28	15
29	76
30	3
36	10
37	4
38	7
39	52
40	12
41	241
42	76
43	122
44	13
49	3
50	41
51	26
52	5
53	22
54	24
55	354
56	260
57	249
58	10
59	5
61	4
63	3
65	10
67	25
68	29
69	150
70	999
71	178
72	9
73	5
74	22
75	147
76	53
77	34
78	5
79	6
81	12
82	48
83	393
84	198
85	13
87	4
91	9
95	6
97	27
98	6
103	3
104	24
105	12
110	10
111	365
112	679
113	105
114	11
135	11
139	798
140	59
141	292
142	19
156	48
157	62
158	19
159	20
169	10
171	4
