Mass Spectrum: 2-Pyrrolidinecarboxamide, 5-oxo-, (S)-
Formula: C5H8N2O2
CAS: 16395-57-6
Molecular weight: 128
m/z	intensity
41	999
42	310
43	160
44	560
45	300
46	20
51	30
52	90
53	70
54	460
55	620
56	120
57	20
66	180
67	30
68	20
69	30
72	110
73	80
82	40
83	180
84	999
85	520
86	50
100	30
110	20
128	210
129	14
