Mass Spectrum: Cyclohexanecarboxylic acid, 2-ethylhexyl ester
Formula: C15H28O2
CAS: 16397-74-3
Molecular weight: 240
m/z	intensity
26	10
27	84
28	13
29	131
30	6
31	6
36	6
38	2
39	109
40	26
41	415
42	93
43	254
44	91
45	10
47	2
50	5
51	21
52	5
53	59
54	71
55	588
56	195
57	325
58	16
59	5
60	26
61	11
63	11
65	11
66	6
67	109
68	66
69	119
70	782
71	241
72	15
73	81
74	5
77	17
79	25
80	8
81	74
82	72
83	999
84	208
85	22
86	7
87	18
91	9
93	11
95	9
97	17
98	11
99	27
101	6
109	8
110	59
111	397
112	452
113	71
127	11
128	105
129	191
130	19
157	11
158	2
