Mass Spectrum: Menthyl isovalerate
Formula: C15H28O2
CAS: 16409-46-4
Molecular weight: 240
m/z	intensity
36	2
38	2
39	46
40	8
41	276
42	33
43	165
44	5
45	4
49	0
51	2
52	0
53	24
54	22
55	242
56	37
57	705
58	36
59	8
60	12
61	2
65	5
66	2
67	115
68	52
69	173
70	18
71	38
72	2
73	0
77	9
78	1
79	27
80	87
81	633
82	305
83	351
84	36
85	806
86	43
87	6
91	5
92	0
93	13
94	127
95	999
96	274
97	66
98	6
99	4
100	7
101	2
102	5
103	38
104	2
105	0
107	2
108	1
109	89
110	56
111	11
112	6
113	3
121	5
122	1
123	336
124	31
125	2
127	12
128	5
136	1
137	30
138	947
139	183
140	13
141	6
142	13
143	0
154	1
155	9
156	3
165	0
183	0
197	4
225	0
