Mass Spectrum: 2,6-Octadien-1-ol, 3,7-dimethyl-, acetate
Formula: C12H20O2
CAS: 16409-44-2
Molecular weight: 196
m/z	intensity
26	5
27	135
28	21
29	106
30	3
31	13
38	6
39	213
40	60
41	766
42	78
43	840
44	46
45	14
50	8
51	32
52	20
53	187
54	23
55	99
56	21
57	32
58	7
59	31
60	7
61	8
63	6
64	41
65	26
67	281
68	693
69	999
70	132
71	50
72	11
73	4
77	46
78	10
79	80
80	230
81	157
82	34
83	32
84	82
85	142
86	29
87	4
91	43
92	85
93	410
94	89
95	46
96	10
97	16
98	12
99	5
101	11
103	5
105	19
106	6
107	74
108	26
109	36
110	8
111	11
112	4
119	12
120	4
121	230
122	25
123	49
124	6
125	2
126	10
127	40
128	4
134	5
135	9
136	317
137	60
138	10
139	7
150	3
152	5
153	7
154	31
155	4
196	4
