Mass Spectrum: 2-Anilinoethanol, TMS derivative
Formula: C11H19NOSi
CAS: 16403-21-7
Molecular weight: 209
m/z	intensity
43	20
45	30
47	10
51	30
58	10
59	20
65	20
73	70
75	90
76	10
77	90
78	10
79	10
91	10
97	20
104	10
105	10
106	999
107	90
118	20
120	10
147	30
150	30
194	60
209	120
210	20
