Mass Spectrum: 2H-Pyran, tetrahydro-2-(2,2,2-trifluoroethoxy)-
Formula: C7H11F3O2
CAS: 16408-83-6
Molecular weight: 184
m/z	intensity
41	970
42	100
43	160
44	70
45	40
49	90
50	280
51	390
52	40
53	200
54	170
55	999
56	730
57	250
58	10
60	20
61	450
62	10
63	20
64	40
65	10
67	40
69	330
80	20
81	90
83	180
84	220
85	230
99	20
116	60
129	10
185	10
