Mass Spectrum: Phosphine, benzylmenthylphenyl-
Formula: C23H31P
CAS: 164074-31-1
Molecular weight: 338
m/z	intensity
27	43
28	1
29	67
30	1
31	1
37	0
38	2
39	31
40	37
41	247
42	30
43	171
44	5
45	4
47	0
49	0
50	2
51	12
52	3
53	29
54	5
55	308
56	16
57	74
58	3
59	2
60	0
61	1
62	0
63	6
64	1
65	68
66	6
67	63
68	8
69	186
70	10
71	7
72	3
73	2
74	0
75	1
76	1
77	56
78	31
79	42
80	5
81	104
82	10
83	118
84	7
85	3
86	0
87	1
89	6
90	3
91	999
92	77
93	17
94	3
95	94
96	8
97	20
98	1
99	3
100	0
101	1
102	1
103	2
104	1
105	9
106	1
107	25
108	42
109	106
110	10
111	5
113	2
115	14
116	4
117	7
118	1
119	2
120	5
121	201
122	84
123	59
124	9
125	4
126	1
127	1
128	4
129	7
130	2
131	2
132	0
133	22
134	2
135	15
136	2
137	16
138	8
139	4
140	1
141	2
142	1
143	2
144	1
145	4
146	1
147	5
148	1
149	8
150	3
151	5
152	10
153	3
154	2
155	1
157	1
158	0
159	1
161	2
162	0
163	9
164	4
165	32
166	13
167	29
168	3
169	1
170	2
171	2
175	1
176	1
177	14
178	8
179	1
180	1
181	1
182	0
183	13
184	2
185	3
186	3
187	2
188	1
189	1
190	0
191	20
192	8
193	1
194	3
195	4
196	4
197	13
198	3
199	83
200	372
201	150
202	16
203	3
204	1
205	7
206	12
207	2
208	0
212	1
213	197
214	188
215	31
216	2
219	6
220	20
221	3
222	0
225	1
226	8
227	230
228	47
229	4
231	1
232	0
233	1
234	2
235	0
239	7
240	7
241	6
242	3
243	0
245	0
246	0
247	54
248	9
249	0
253	10
254	33
255	18
256	25
257	4
261	0
267	34
268	63
269	153
270	35
271	3
277	0
278	1
279	0
280	2
281	97
282	97
283	44
284	7
285	0
294	1
295	165
296	44
297	5
309	7
310	2
323	56
324	16
325	1
337	38
338	310
339	73
340	9
341	0
