Mass Spectrum: 2H-Pyran-2-one, 5,6-dihydro-6-propyl-
Formula: C8H12O2
CAS: 16400-69-4
Molecular weight: 140
m/z	intensity
26	3
27	30
29	19
37	3
38	13
39	156
40	92
41	162
42	60
43	35
44	9
50	8
51	11
52	5
53	21
54	6
55	30
57	8
62	3
63	5
65	8
66	6
67	13
68	999
69	249
70	17
71	22
78	11
79	7
80	21
84	7
86	5
94	5
95	10
96	44
97	934
98	53
99	7
112	20
113	2
122	17
140	5
