Mass Spectrum: AM630
Formula: C23H25IN2O3
CAS: 164178-33-0
Molecular weight: 504
m/z	intensity
41	5
42	15
43	2
44	3
45	4
54	5
55	11
56	50
57	4
63	5
64	5
65	3
70	31
71	4
72	14
73	3
75	4
76	6
77	34
78	7
79	4
82	4
89	4
92	22
96	4
98	23
100	999
101	64
102	9
103	2
107	12
108	3
112	3
113	5
114	5
115	9
116	3
117	3
121	8
125	2
127	15
128	21
129	3
135	125
136	10
140	3
141	2
142	4
150	3
152	3
154	5
156	2
164	2
165	2
183	3
188	2
190	3
191	8
192	3
193	2
194	3
203	2
204	4
205	3
206	2
208	3
231	2
234	2
249	3
255	3
269	2
276	4
281	2
290	2
291	4
327	3
341	3
377	2
404	6
405	3
474	3
504	4
