Mass Spectrum: Formamide, N,N'-1,3-propanediylbis-
Formula: C5H10N2O2
CAS: 16419-41-3
Molecular weight: 130
m/z	intensity
25	32
26	115
27	458
29	146
30	999
31	19
32	10
37	3
38	7
39	52
40	25
41	123
42	128
43	103
44	503
45	74
46	154
47	2
50	2
51	5
52	10
53	7
54	28
55	28
56	388
57	84
58	568
59	661
60	24
61	2
65	2
67	83
68	18
69	16
70	22
71	15
72	728
73	233
74	11
75	2
77	3
78	2
79	3
81	6
82	4
83	19
84	37
85	384
86	56
87	7
100	3
101	35
102	53
103	10
104	1
111	2
112	13
113	6
129	3
130	5
131	38
132	3
133	2
