Mass Spectrum: 5-Chloro-1-phenyl-1-pentene
Formula: C11H13Cl
CAS: 16424-50-3
Molecular weight: 180
m/z	intensity
25	1
26	11
27	78
28	58
29	11
32	17
35	4
36	20
37	2
38	19
39	113
40	10
41	47
42	4
43	13
44	1
47	2
49	10
50	25
51	82
52	23
53	19
54	4
55	18
56	7
57	9
58	5
61	6
62	13
63	51
64	16
65	68
66	11
67	19
68	3
69	8
70	8
71	49
72	4
73	2
74	9
75	15
76	21
77	70
78	44
79	14
80	3
81	4
82	1
83	4
84	1
85	3
86	3
87	14
88	4
89	35
90	8
91	301
92	58
93	7
94	2
95	4
96	1
97	3
98	1
99	2
101	3
102	36
103	28
104	61
105	43
106	8
107	5
108	1
109	2
110	1
111	1
112	1
113	19
114	9
115	265
116	90
117	999
118	126
119	8
120	1
121	1
122	6
123	1
124	4
125	3
126	3
127	18
128	53
129	59
130	11
131	48
132	6
133	2
134	1
135	1
136	1
137	1
138	1
139	3
140	1
141	7
142	3
143	12
144	21
145	19
146	3
149	1
151	1
152	1
153	1
160	1
161	13
162	17
163	2
165	1
179	1
180	214
181	26
182	76
183	15
184	3
185	7
187	2
