Mass Spectrum: 2-Cyclohexenylacetic acid, methyl ester
Formula: C9H14O2
CAS: 16423-29-3
Molecular weight: 154
m/z	intensity
37	34
38	65
39	280
40	39
41	183
42	65
43	109
44	20
45	27
50	34
51	72
52	34
53	212
54	30
56	30
57	30
59	83
61	24
62	39
65	117
66	103
67	126
68	57
69	32
74	50
77	34
79	72
81	999
82	90
83	36
84	34
94	701
95	187
97	97
108	24
111	28
124	81
139	26
154	222
155	26
