Mass Spectrum: 4'-(4-Chlorophenyl)-2,3,4,5-tetrahydro-1'H-[1,3']bipyrrolyl-2'-carboxylic acid, ethyl ester
Formula: C17H19ClN2O2
CAS: 164221-44-7
Molecular weight: 318
m/z	intensity
12	4
13	2
14	11
15	65
16	6
17	3
18	9
19	20
24	1
26	55
27	488
28	292
29	999
30	36
31	26
35	3
36	6
37	4
38	12
39	122
40	42
41	203
42	67
43	56
44	7
45	32
46	1
47	1
49	3
50	23
51	45
52	25
53	48
54	35
55	38
56	11
57	3
59	1
61	5
62	15
63	40
64	11
65	11
66	9
67	9
68	13
70	29
72	1
73	10
74	23
75	59
76	20
77	29
78	17
79	11
80	11
81	4
82	5
84	11
85	6
86	11
87	17
88	22
89	20
90	18
91	14
92	4
93	7
94	9
95	3
97	12
98	10
99	26
100	30
101	60
102	29
103	18
104	29
105	12
106	5
107	2
108	3
109	4
110	7
111	17
112	14
113	58
114	50
115	36
116	12
117	12
118	29
119	8
120	1
121	5
122	5
123	10
124	6
125	18
126	54
127	75
128	44
129	17
130	6
131	6
132	3
133	4
134	3
136	53
137	20
138	30
139	36
140	102
141	49
142	13
143	6
144	3
147	10
148	9
149	41
150	12
151	23
152	29
153	63
154	70
155	32
156	12
157	2
158	1
159	3
161	17
162	28
163	16
164	17
165	20
166	25
167	38
168	67
169	17
170	3
174	52
175	13
176	33
177	16
178	10
179	23
180	31
181	56
182	35
183	7
184	2
185	1
187	4
188	16
189	16
190	21
191	10
192	12
193	14
194	10
195	11
196	3
197	1
199	1
200	2
201	15
202	15
203	27
204	14
205	16
206	20
207	40
208	71
209	49
210	7
211	1
213	1
214	3
215	23
216	31
217	18
218	18
219	9
220	5
221	3
226	2
227	5
228	6
229	33
230	8
231	16
232	4
233	4
235	67
236	68
237	29
238	6
239	1
240	2
241	9
243	82
244	25
245	35
246	10
247	3
248	1
253	6
254	8
255	6
256	2
257	3
258	1
261	2
262	1
263	1
269	7
271	172
272	102
273	82
274	39
275	15
276	3
277	2
283	2
289	245
290	54
291	89
292	17
293	2
318	228
319	60
320	70
321	20
322	2
