Mass Spectrum: 4-Heptanone, 2,2,3,3,5,5,6,6-octamethyl-
Formula: C15H30O
CAS: 16424-66-1
Molecular weight: 226
m/z	intensity
39	30
41	190
42	20
43	200
55	60
56	20
57	999
58	40
67	10
69	50
71	10
83	30
84	20
95	50
96	20
99	580
100	40
112	40
113	190
114	120
127	110
137	0
149	1
155	1
167	0
170	2
171	0
226	0
