Mass Spectrum: Valeric acid, 4-phenyl-
Formula: C11H14O2
CAS: 16433-43-5
Molecular weight: 178
m/z	intensity
26	10
27	80
29	60
39	90
40	10
41	130
42	20
43	100
44	30
45	10
50	40
51	110
52	20
53	20
54	10
55	110
56	30
57	140
63	30
65	40
66	20
67	50
68	10
69	90
70	20
71	70
76	20
77	220
78	90
79	210
80	10
81	50
82	20
83	60
84	10
85	50
91	160
92	40
93	30
94	10
95	60
96	20
97	50
99	10
102	10
103	120
104	50
105	999
106	190
107	30
108	10
109	30
110	10
111	30
115	70
116	20
117	120
118	290
119	140
120	25
136	50
145	20
158	10
159	10
160	70
161	20
165	20
178	100
179	25
