Mass Spectrum: Trifluoromethyl phenyl disulfide
Formula: C7H5F3S2
CAS: 1643-70-5
Molecular weight: 210
m/z	intensity
50	86
51	174
61	51
65	349
69	452
77	498
78	92
82	93
83	41
93	33
97	32
108	114
109	999
110	65
141	865
143	42
210	528
212	55
