Mass Spectrum: Benzene, 1-nitro-3-(1,1,2,2-tetrafluoroethoxy)-
Formula: C8H5F4NO3
CAS: 1644-21-9
Molecular weight: 239
m/z	intensity
26	11
27	9
28	10
29	6
30	184
31	19
32	6
36	2
37	25
38	99
39	38
40	1
44	1
46	8
47	1
49	6
50	146
51	231
52	32
53	22
54	4
55	6
57	6
60	0
61	21
62	69
63	322
64	458
65	41
66	13
67	3
68	3
69	11
73	9
74	69
75	249
76	197
77	24
78	7
79	16
80	50
81	65
82	17
83	62
84	3
88	1
89	1
91	4
92	666
93	58
94	25
95	999
96	67
97	1
100	5
101	169
102	5
106	7
107	3
108	52
109	13
110	1
111	114
112	7
113	4
114	53
115	23
122	328
123	23
124	1
125	12
126	4
127	1
133	5
139	4
142	19
143	49
144	3
145	48
146	3
150	3
170	8
171	1
173	8
174	6
181	17
188	97
189	7
191	1
193	346
194	26
209	4
220	10
223	24
238	1
239	729
240	62
241	7
