Mass Spectrum: Propane, 1-[1-[difluoro[(trifluoroethenyl)oxy]methyl]-1,2,2,2-tetrafluoroethoxy]-1,1,2,2,3,3,3-heptafluoro-
Formula: C8F16O2
CAS: 1644-11-7
Molecular weight: 432
m/z	intensity
31	45
47	31
50	21
51	3
62	5
66	1
69	999
70	12
78	21
81	64
82	1
85	1
93	3
97	469
98	9
99	1
100	89
101	9
109	1
112	1
119	167
120	3
128	1
131	79
132	2
147	65
148	2
150	29
151	1
167	1
169	768
170	23
181	3
197	3
275	2
297	1
313	1
335	98
336	6
432	16
433	1
