Mass Spectrum: Benzaldehyde,-4-cyclopropylmethoxy
Formula: C11H12O2
CAS: 164520-99-4
Molecular weight: 176
m/z	intensity
37	9
38	40
39	293
40	17
41	32
43	5
50	40
51	75
52	9
53	76
54	39
55	999
56	42
62	15
63	48
64	26
65	113
66	16
74	9
75	8
76	14
77	47
78	5
79	13
91	16
92	15
93	35
94	9
105	15
119	11
121	120
122	42
135	12
147	17
148	114
149	11
176	59
177	7
