Mass Spectrum: 1,1,1,3,3,3-Hexafluoropropan-2-one, oxime
Formula: C3HF6NO
CAS: 1645-76-7
Molecular weight: 181
m/z	intensity
20	81
27	42
28	295
29	21
30	564
31	22
32	25
50	83
51	23
67	523
68	25
69	999
70	11
71	22
76	112
92	85
93	12
95	34
96	41
97	54
112	678
113	65
114	6
161	74
162	5
181	223
182	23
183	5
