Mass Spectrum: Ethane, 1,1-difluoro-1-isocyanato-
Formula: C3H3F2NO
CAS: 1645-88-1
Molecular weight: 107
m/z	intensity
12	30
14	79
15	107
18	91
26	55
28	458
29	60
31	58
32	33
33	49
38	115
39	214
40	525
41	940
42	83
43	544
44	118
45	181
47	234
50	33
51	33
54	50
57	36
58	30
64	198
65	999
66	38
72	72
88	74
92	594
93	22
107	110
108	8
