Mass Spectrum: Tetrahydrofuran, 2-ethyl-5-butyl-
Formula: C10H20O
CAS: 164584-36-5
Molecular weight: 156
m/z	intensity
37	11
38	41
39	406
40	23
41	519
42	192
43	307
45	29
50	25
51	37
52	21
53	83
54	99
55	593
56	115
57	260
58	28
59	94
62	4
65	27
66	12
67	421
68	64
69	167
70	158
71	58
77	21
79	56
80	29
81	999
82	100
83	142
84	14
85	67
91	12
95	24
96	8
97	44
98	176
99	844
100	97
101	64
102	5
105	6
107	15
109	595
110	75
111	13
112	8
117	4
124	8
125	15
126	57
127	363
128	40
155	9
