Mass Spectrum: 1,3,5,7-Cyclooctatetraene-1,2,4,7-tetramethanol, .alpha.,.alpha.,.alpha.',.alpha.',.alpha.'',.alpha.'',.alpha.''',.alpha.'''-octamethyl-
Formula: C20H32O4
CAS: 16469-52-6
Molecular weight: 336
m/z	intensity
26	0
27	14
28	6
29	34
31	173
39	19
40	44
41	115
42	3
43	999
44	21
45	11
50	0
51	8
53	13
55	27
57	14
58	10
59	676
60	23
61	0
63	0
64	0
65	13
67	20
69	33
70	0
71	6
75	0
76	1
77	26
78	7
79	20
80	0
81	12
82	0
83	15
84	0
85	2
89	6
90	0
91	49
92	11
93	16
95	8
96	0
97	6
101	0
102	10
103	12
104	11
105	47
106	7
107	19
108	4
109	8
111	13
112	0
113	8
115	35
116	11
117	29
118	5
119	46
120	10
121	21
122	0
123	10
125	0
126	1
127	16
128	59
129	72
130	17
131	38
132	7
133	22
134	0
135	13
136	7
137	12
138	0
139	9
141	33
142	31
143	71
144	93
145	112
146	21
147	53
148	13
149	12
152	10
153	19
154	21
155	28
156	20
157	53
158	24
159	211
160	45
161	37
162	9
163	7
164	1
165	11
166	6
167	13
168	11
169	89
170	34
171	64
172	19
173	37
174	11
175	18
176	3
177	14
178	4
179	14
180	4
181	11
182	6
183	33
184	361
185	147
186	35
187	191
188	33
189	12
191	0
193	6
194	7
195	9
196	4
197	12
198	14
199	179
200	51
201	66
202	149
203	37
204	7
205	2
207	0
208	0
209	24
210	8
211	14
212	8
213	31
214	37
215	15
216	0
217	64
218	10
219	41
220	7
221	0
223	7
224	29
225	34
226	11
227	137
228	24
229	8
230	0
231	7
235	0
237	10
238	0
239	13
240	3
241	31
242	158
243	45
244	8
245	155
246	26
247	0
248	5
249	8
251	0
252	0
253	2
254	0
257	18
258	8
259	19
260	96
261	18
262	0
264	0
267	21
268	0
269	0
282	23
283	5
285	20
286	0
300	41
301	9
303	15
304	0
318	16
319	0
