Mass Spectrum: 1H-Pyrazole-3,4-diamine
Formula: C3H6N4
CAS: 16461-98-6
Molecular weight: 98
m/z	intensity
37	7
38	38
39	46
40	155
41	238
42	358
43	639
44	285
45	6
49	8
51	15
52	79
53	124
54	81
55	94
56	483
57	19
66	6
67	13
68	11
69	27
70	11
71	190
72	6
82	8
96	4
97	24
98	999
99	53
