Mass Spectrum: 3a,6-Methano-3aH-inden-4-ol, octahydro-, (3a.alpha.,4.alpha.,6.alpha.,7a.beta.)-
Formula: C10H16O
CAS: 16489-24-0
Molecular weight: 152
m/z	intensity
26	6
27	139
28	28
29	105
30	2
31	24
37	1
38	8
39	219
40	37
41	304
42	36
43	92
44	28
45	7
50	15
51	61
52	35
53	124
54	41
55	140
56	15
57	35
58	26
62	4
63	17
64	6
65	75
66	104
67	329
68	34
69	40
70	95
71	26
72	3
74	2
75	7
76	4
77	199
78	105
79	893
80	387
81	168
82	51
83	45
84	16
85	2
89	7
90	4
91	327
92	107
93	256
94	45
95	78
96	23
97	28
98	4
99	2
101	3
102	2
103	15
104	10
105	262
106	517
107	999
108	242
109	50
110	32
111	19
112	2
113	2
115	7
116	2
117	12
118	6
119	257
121	296
122	30
123	57
124	50
125	4
128	1
129	2
131	4
132	4
133	29
134	267
135	35
136	1
137	11
148	1
151	6
152	371
153	36
154	2
