Mass Spectrum: 3a,6-Methano-3aH-inden-5(4H)-one, hexahydro-
Formula: C10H14O
CAS: 16489-26-2
Molecular weight: 150
m/z	intensity
26	16
27	226
28	41
29	67
38	18
39	352
40	71
41	307
42	23
43	27
50	44
51	99
52	66
53	207
54	79
55	150
63	31
65	105
66	151
67	366
68	98
69	18
77	303
78	151
79	999
80	725
81	547
82	63
83	12
84	34
91	259
92	57
93	478
94	329
95	141
96	61
103	14
104	24
105	64
106	844
107	514
108	245
109	55
117	31
119	22
120	14
121	411
122	161
123	15
132	30
135	61
149	28
150	703
151	83
