Mass Spectrum: 3a,6-Methano-3ah-inden-5-ol, octahydro-, (3a.alpha.,5.alpha.,6.alpha.,7a.beta.)-
Formula: C10H16O
CAS: 16489-23-9
Molecular weight: 152
m/z	intensity
26	4
27	144
28	25
29	132
30	3
31	35
38	8
39	226
40	43
41	348
42	31
43	91
44	22
45	18
50	14
51	69
52	44
53	166
54	64
55	204
56	26
57	129
58	16
63	27
64	10
65	96
66	150
67	421
68	79
69	69
70	123
71	47
72	6
75	8
76	8
77	224
78	137
79	999
80	576
81	292
82	123
83	114
84	162
85	14
89	11
90	10
91	443
92	235
93	407
94	253
95	343
96	89
97	148
98	31
103	19
104	12
105	418
106	463
107	828
108	388
109	124
110	213
111	53
115	13
116	9
117	39
118	8
119	680
120	80
121	108
122	13
123	144
125	5
133	63
134	803
135	104
136	5
137	21
150	1
151	10
152	78
153	9
