Mass Spectrum: N-Tert.-butyl-N-(2-propenyl)amine
Formula: C7H15N
CAS: 16486-68-3
Molecular weight: 113
m/z	intensity
28	51
29	62
30	113
31	7
39	53
40	7
41	483
42	113
43	33
55	38
56	174
57	123
58	305
59	21
70	33
81	15
82	22
83	16
98	999
99	93
100	17
113	73
114	13
