Mass Spectrum: Cyclohexanecarboxylic acid, 2-propenyl ester
Formula: C10H16O2
CAS: 16491-63-7
Molecular weight: 168
m/z	intensity
26	13
27	93
28	19
29	89
30	2
31	3
38	9
39	183
40	38
41	477
42	45
43	99
44	45
45	21
50	7
51	29
52	9
53	49
54	62
55	778
56	88
57	39
58	17
59	5
60	45
61	17
65	13
66	11
67	101
68	79
69	53
70	10
71	10
73	138
74	9
77	21
78	7
79	39
80	13
81	347
82	71
83	999
84	79
85	28
86	15
87	17
91	11
93	6
95	17
96	6
97	9
98	7
99	36
100	24
101	5
108	9
109	88
110	41
111	241
112	21
113	59
114	6
126	6
127	35
128	61
129	26
168	26
169	5
