Mass Spectrum: 4-Bromotricyclo[6.2.1.0(2,7)]undeca-2,4,6-triene
Formula: C11H11Br
CAS: 16499-72-2
Molecular weight: 222
m/z	intensity
26	6
27	23
28	19
29	6
37	1
38	8
39	50
40	5
41	9
43	1
50	29
51	44
52	11
53	4
55	1
56	1
57	6
58	5
61	5
62	32
63	86
64	21
65	38
66	4
67	3
68	6
69	9
70	12
71	13
73	2
74	28
75	37
76	21
77	26
78	8
79	2
85	3
86	15
87	30
88	31
89	74
90	10
91	13
92	3
93	2
98	6
99	5
100	3
101	13
102	26
103	8
104	2
110	6
111	6
112	2
113	41
114	94
115	999
116	119
117	8
119	2
125	1
126	14
127	43
128	214
129	23
130	2
131	1
137	1
138	2
139	31
140	12
141	69
142	38
143	210
144	25
145	2
149	5
150	3
167	1
168	1
169	1
171	1
178	1
180	1
193	27
194	359
195	58
196	355
197	57
198	1
206	2
207	34
208	7
209	34
210	5
221	2
222	275
223	35
224	270
225	34
226	3
