Mass Spectrum: 2,1-Benzisoxazole-6-carboxamide, N-(2'-benzoylphenyl)-5-chloro-3-phenyl-
Formula: C27H17ClN2O3
CAS: 164936-94-1
Molecular weight: 452
m/z	intensity
27	4
29	0
36	1
38	1
39	10
40	5
41	2
42	0
43	1
44	1
50	5
51	60
52	5
53	8
54	0
56	0
57	1
61	1
62	4
63	12
64	12
65	15
66	2
73	4
74	1
75	7
76	10
77	509
78	32
79	1
86	1
87	3
88	19
89	9
90	54
91	11
92	24
93	4
96	0
97	29
98	2
99	13
100	2
101	3
102	4
103	1
104	3
105	999
106	72
107	4
109	0
111	1
112	1
113	3
114	6
115	7
116	1
117	1
118	4
119	5
120	8
121	2
122	2
123	3
124	1
125	7
126	7
127	5
128	5
129	1
130	1
132	0
134	0
135	1
137	5
138	18
139	17
140	15
141	5
142	0
143	1
144	1
145	0
146	46
147	5
148	0
149	5
150	3
151	9
152	29
153	10
154	4
155	3
156	1
160	0
161	1
162	2
163	5
164	114
165	107
166	26
167	35
168	7
169	1
170	1
172	0
173	68
174	19
175	24
176	7
177	3
178	3
179	7
180	12
181	3
182	2
183	0
185	1
186	0
187	2
188	4
189	1
190	1
191	1
192	21
193	160
194	25
195	10
196	52
197	11
198	2
199	5
200	193
201	53
202	58
203	15
204	2
205	0
206	0
207	2
208	2
209	2
210	0
211	0
212	0
213	1
214	1
216	1
217	1
219	0
220	1
221	1
222	2
223	1
224	3
225	1
226	8
227	27
228	117
229	33
230	42
231	10
232	0
234	0
237	0
238	0
239	0
240	2
241	2
242	1
244	1
252	1
253	1
254	5
255	71
256	841
257	139
258	289
259	40
260	5
261	0
262	0
266	1
267	0
268	1
269	1
270	0
271	2
272	1
273	0
274	0
275	0
282	1
283	6
284	6
285	1
286	0
287	0
291	1
294	2
295	0
301	1
304	0
305	0
310	0
311	5
312	15
313	4
314	1
316	0
318	2
319	2
320	1
321	1
328	0
329	0
330	0
331	1
332	1
333	0
337	0
339	5
340	1
341	0
343	0
344	0
345	1
346	4
347	293
348	59
349	91
350	17
351	2
352	1
355	0
357	0
359	0
360	1
361	0
374	0
375	15
376	4
377	4
378	1
386	0
387	6
388	4
389	6
390	1
395	0
409	0
415	2
416	9
417	46
418	12
419	3
423	2
424	1
425	1
436	0
437	0
438	0
451	2
452	398
453	90
454	150
455	37
456	6
