Mass Spectrum: Tetracyclo[3.3.1.0.1(3,9)]decan-10-one
Formula: C10H12O
CAS: 16492-06-1
Molecular weight: 148
m/z	intensity
25	1
26	15
27	126
28	39
29	25
30	1
31	8
36	0
37	6
38	23
39	220
40	33
41	138
42	10
43	34
44	13
45	14
46	4
49	3
50	43
51	125
52	52
53	73
54	11
55	43
56	12
57	33
58	31
59	8
60	2
61	7
62	15
63	50
64	14
65	123
66	46
67	34
68	9
69	16
70	11
71	19
72	1
73	3
74	9
75	7
76	9
77	209
78	154
79	256
80	32
81	16
82	8
83	13
84	5
85	12
86	2
87	3
88	2
89	19
90	9
91	999
92	592
93	73
94	15
95	8
96	4
97	12
98	4
99	4
101	1
102	6
103	42
104	24
105	310
106	141
107	65
108	8
109	4
110	2
111	7
112	2
113	2
114	1
115	36
116	8
117	42
118	9
119	152
120	385
121	95
122	8
123	3
124	1
125	4
126	1
127	2
128	7
129	12
130	6
131	9
132	4
133	35
134	4
135	3
146	1
147	92
148	446
149	63
150	5
151	1
