Mass Spectrum: 2-Butenoic acid, cyclohexyl ester
Formula: C10H16O2
CAS: 16491-62-6
Molecular weight: 168
m/z	intensity
15	6
18	1
26	3
27	36
28	13
29	33
30	1
31	3
32	1
37	2
38	6
39	109
40	20
41	251
42	21
43	18
44	5
45	5
50	2
51	4
52	3
53	17
54	78
55	109
56	7
57	9
58	1
65	3
66	4
67	195
68	31
69	999
70	48
71	7
74	1
77	5
78	1
79	13
80	18
81	57
82	168
83	50
84	45
85	7
86	21
87	736
88	34
89	4
91	1
93	1
94	2
95	11
96	3
97	5
98	5
99	54
100	6
101	1
107	1
108	14
109	3
110	1
111	2
112	3
121	1
122	2
123	6
124	2
125	5
126	3
135	3
139	1
150	1
153	9
154	1
168	4
169	1
