Mass Spectrum: 3-Butoxypropylamine
Formula: C7H17NO
CAS: 16499-88-0
Molecular weight: 131
m/z	intensity
26	12
27	131
28	25
29	165
30	999
31	131
33	5
38	4
39	69
40	14
41	174
42	83
43	114
44	139
45	72
46	8
51	3
53	8
54	12
55	86
56	344
57	558
58	291
59	90
60	31
67	3
68	3
69	7
70	7
71	10
72	15
73	16
74	191
75	38
76	5
81	2
83	4
84	4
85	20
86	3
87	4
88	9
99	3
101	2
114	144
115	21
116	3
130	3
131	28
132	4
