Mass Spectrum: Pentanoic acid, 2-(methoxymethyl)-4-oxo-
Formula: C7H12O4
CAS: 16503-06-3
Molecular weight: 160
m/z	intensity
30	250
31	270
39	320
40	200
41	420
42	340
43	920
44	340
45	999
46	210
53	240
55	430
56	220
57	270
58	370
59	250
61	180
68	190
69	260
70	230
71	340
72	290
73	300
75	210
84	220
85	670
86	220
87	190
97	180
98	200
99	200
100	190
103	720
104	190
110	150
111	170
113	230
114	150
115	120
116	8
117	120
118	7
127	140
128	8
129	50
142	110
143	100
144	8
145	50
146	3
160	30
161	2
