Mass Spectrum: 1,2,4-Oxadiazole, 3-(5-amino-1,3,4-oxadiazol-2-yl)-5-diethylaminomethyl-
Formula: C9H14N6O2
CAS: 165066-57-9
Molecular weight: 238
m/z	intensity
33	1
36	34
38	17
39	10
42	172
43	66
44	98
46	0
47	0
48	0
49	1
50	2
52	23
55	330
58	877
60	1
61	0
62	1
63	2
64	6
66	19
67	11
70	234
72	999
75	1
76	1
77	3
78	3
79	4
81	7
82	14
84	155
86	434
88	1
90	0
91	1
92	5
93	11
94	3
96	17
97	22
98	29
99	3
100	2
101	0
102	0
103	0
104	0
105	0
106	0
107	1
108	2
110	15
112	78
113	19
114	2
115	2
116	0
117	0
118	0
119	0
120	0
121	1
124	23
125	7
126	7
127	4
128	2
129	0
131	0
132	0
134	2
136	5
138	128
139	6
140	2
141	0
142	0
146	0
147	0
148	0
149	0
150	1
151	3
152	2
153	3
154	5
155	0
156	0
157	0
158	0
160	0
161	0
162	0
163	0
165	7
167	55
169	0
171	0
175	0
176	0
177	0
178	0
179	1
180	1
181	1
182	0
184	0
190	0
191	0
192	0
193	0
194	1
195	3
196	0
203	1
204	0
205	0
207	0
208	0
209	0
217	0
219	1
220	1
221	7
223	111
235	0
236	0
237	1
238	1
239	1
240	0
242	0
