Mass Spectrum: Pentanoic acid, 4-methyl-4-nitro-, methyl ester
Formula: C7H13NO4
CAS: 16507-02-1
Molecular weight: 175
m/z	intensity
26	30
27	190
28	80
29	170
30	100
31	20
36	50
37	10
38	40
39	240
40	60
41	700
42	110
43	130
44	70
45	40
50	20
51	30
52	10
53	90
54	10
55	280
56	50
57	30
59	130
60	10
63	10
65	20
66	10
67	80
68	90
69	999
70	70
71	20
72	10
73	10
74	10
77	10
79	10
80	10
81	20
82	10
83	10
85	20
86	10
87	80
91	20
92	10
93	10
95	20
96	60
97	380
98	40
99	10
113	10
114	50
128	20
129	180
130	10
