Mass Spectrum: 6-Hydroxy-4,4,6-trimethyltetrahydro-1,3-thiazin-2-thione
Formula: C7H13NOS2
CAS: 16504-29-3
Molecular weight: 191
m/z	intensity
37	4
38	27
39	150
40	31
41	270
42	160
43	999
44	140
45	40
46	6
47	4
48	3
50	4
51	7
52	6
53	22
54	10
55	86
56	61
57	60
58	150
59	25
60	29
61	3
62	2
63	2
64	10
65	5
66	3
67	7
68	6
69	8
70	8
71	6
72	30
73	7
74	5
75	2
76	240
77	7
78	20
79	8
80	2
81	9
82	4
83	38
84	7
85	4
86	5
87	2
89	1
90	10
91	3
92	4
93	5
94	3
95	3
96	2
97	3
98	28
99	210
100	81
101	12
102	6
103	1
105	2
107	1
108	2
109	1
110	1
111	2
112	2
113	9
114	2
115	1
116	1
117	1
122	1
123	1
132	1
133	3
134	1
135	1
157	17
158	4
159	2
191	9
192	1
193	1
