Mass Spectrum: 1-Cyclobutene-1,2-dicarboxylic acid
Formula: C6H6O4
CAS: 16508-05-7
Molecular weight: 142
m/z	intensity
41	175
42	102
43	113
44	234
45	159
50	126
51	218
52	229
53	288
55	109
57	59
68	50
69	192
70	50
79	83
80	120
84	39
97	120
98	999
99	83
124	21
125	21
142	17
