Mass Spectrum: 1-(5,5,5-Trichloropentyl)-1H-1,2,4-triazole
Formula: C7H10Cl3N3
CAS: 165186-61-8
Molecular weight: 241
m/z	intensity
33	7
34	6
35	12
36	57
38	44
39	195
40	200
41	250
42	72
43	41
44	23
46	101
47	9
49	38
51	61
52	10
53	51
55	646
56	80
57	6
58	1
59	5
61	48
62	12
63	38
65	129
66	12
67	19
68	13
70	323
71	12
73	20
75	51
76	15
77	20
78	7
79	3
80	4
82	177
83	233
84	14
85	16
87	25
88	4
89	12
90	5
91	15
92	6
93	1
96	109
98	64
99	11
100	13
101	73
102	6
103	24
104	2
105	2
106	2
107	3
109	121
110	58
111	67
113	14
114	0
117	18
119	19
120	4
121	8
122	5
124	999
125	68
126	3
130	7
131	0
132	2
133	0
134	1
135	5
136	20
137	16
138	12
139	8
140	1
141	1
144	0
145	3
146	0
147	1
165	0
170	8
171	1
172	3
204	0
206	169
207	18
208	106
209	8
210	16
211	1
241	6
242	0
243	5
244	0
245	1
