Mass Spectrum: Cyclohexanone, 2,2-diethyl-
Formula: C10H18O
CAS: 16519-67-8
Molecular weight: 154
m/z	intensity
41	392
42	81
43	135
51	16
53	57
54	27
55	999
56	122
57	41
62	22
64	65
65	41
66	297
67	81
68	14
77	19
79	22
81	135
82	27
83	54
84	108
85	16
95	54
96	11
97	311
98	38
107	22
110	284
111	41
125	81
126	351
127	27
