Mass Spectrum: Cyclohexanone, 2,6-diethyl-
Formula: C10H18O
CAS: 16519-68-9
Molecular weight: 154
m/z	intensity
26	13
27	281
28	42
29	317
30	8
38	9
39	321
40	63
41	775
42	549
43	282
44	30
50	7
51	26
52	12
53	104
54	75
55	999
56	411
57	185
58	15
63	7
65	21
66	13
67	281
68	98
69	321
70	317
71	70
72	144
73	7
77	20
79	34
80	9
81	48
82	456
83	561
84	311
85	52
86	11
91	10
93	17
94	9
95	26
96	40
97	407
98	382
99	31
107	34
108	10
111	76
112	288
113	25
121	9
123	9
125	287
126	534
127	49
139	57
154	387
155	59
