Mass Spectrum: Selenourea, N,N'-diphenyl-
Formula: C13H12N2Se
CAS: 16519-43-0
Molecular weight: 276
m/z	intensity
39	90
50	90
51	350
52	40
63	60
64	70
65	220
66	280
76	80
77	770
78	100
80	40
91	160
92	420
93	999
94	70
103	130
104	110
118	50
119	140
155	30
157	50
179	30
180	30
181	80
183	140
184	50
185	30
193	50
194	460
195	880
196	200
272	70
273	80
274	160
275	70
276	330
277	60
278	70
