Mass Spectrum: Valeraldehyde, 2,2-dimethyl-, semicarbazone
Formula: C8H17N3O
CAS: 16519-71-4
Molecular weight: 171
m/z	intensity
26	240
27	140
28	280
29	80
30	30
31	10
39	180
40	30
41	660
42	140
43	600
44	360
45	30
51	10
53	70
54	40
55	370
56	150
57	220
58	220
59	20
60	160
61	270
62	10
65	10
67	60
68	130
69	280
70	180
71	200
72	50
73	10
77	10
79	20
80	10
81	60
82	60
83	130
84	40
85	590
86	590
87	30
94	10
95	40
96	50
97	70
98	30
99	50
100	30
101	10
109	20
110	10
111	60
112	200
113	60
114	10
115	999
116	50
123	10
125	60
126	20
128	90
129	990
130	60
139	10
156	10
171	90
