Mass Spectrum: Heptane, 1-(2-propenyloxy)-
Formula: C10H20O
CAS: 16519-24-7
Molecular weight: 156
m/z	intensity
39	120
40	20
41	930
42	180
43	570
44	20
45	10
53	10
54	20
55	260
56	160
57	999
58	530
59	40
67	10
68	20
69	120
70	150
71	160
83	20
96	10
97	20
98	80
99	10
127	40
156	1
