Mass Spectrum: Ether, 1-butylvinyl methyl
Formula: C7H14O
CAS: 16519-66-7
Molecular weight: 114
m/z	intensity
39	120
40	50
41	240
42	555
43	171
45	30
53	30
54	10
55	150
56	20
57	30
67	20
69	5
70	8
71	20
72	999
73	50
81	10
85	110
86	10
99	10
114	51
