Mass Spectrum: Bicyclo[3.2.0]hepta-2,6-diene, 5-methoxy-
Formula: C8H10O
CAS: 16510-64-8
Molecular weight: 122
m/z	intensity
24	2
26	40
27	228
29	36
30	4
31	4
33	0
36	0
37	19
38	72
39	361
40	46
41	44
42	19
43	22
44	2
45	8
46	1
48	1
49	6
50	110
51	260
52	135
53	316
54	23
55	23
56	2
57	10
58	0
60	1
61	16
62	55
63	145
64	35
65	207
66	50
67	16
68	5
69	1
70	0
71	0
73	2
74	12
75	9
76	9
77	959
78	225
79	450
80	37
81	84
82	6
83	1
84	0
85	4
86	8
87	6
88	1
89	95
90	110
91	999
92	314
93	52
94	5
95	14
96	165
97	12
98	1
102	1
103	4
104	2
105	13
106	11
107	913
108	71
109	5
115	0
119	1
120	0
121	713
122	464
123	41
124	2
