Mass Spectrum: Methylphosphonofluoridic acid anhydride
Formula: C2H6F2O3P2
CAS: 1652-35-3
Molecular weight: 178
m/z	intensity
31	70
47	80
48	20
50	20
52	40
63	29
67	81
78	170
79	40
80	378
81	99
82	41
83	536
97	40
98	999
99	139
100	51
112	70
159	20
163	40
177	41
178	70
