Mass Spectrum: 3-Butenenitrile, 2-methyl-
Formula: C5H7N
CAS: 16529-56-9
Molecular weight: 81
m/z	intensity
14	3
15	9
25	6
26	76
27	194
28	143
29	34
36	5
37	68
38	91
39	426
40	57
41	670
42	52
48	6
49	36
50	138
51	204
52	282
53	451
54	999
55	134
56	5
60	2
61	5
62	12
63	33
64	84
65	29
66	340
67	16
74	3
75	21
76	16
77	2
78	13
79	8
80	225
81	752
82	47
