Mass Spectrum: Adenosine, 2-methyl-
Formula: C11H15N5O4
CAS: 16526-56-0
Molecular weight: 281
m/z	intensity
30	43
31	999
32	40
33	13
34	13
39	9
40	59
41	75
42	65
43	140
44	54
45	477
46	113
47	6
50	9
52	6
53	6
54	18
55	18
56	11
57	38
58	36
59	297
60	25
61	15
65	9
66	11
67	15
68	15
69	15
70	4
71	18
72	11
73	52
74	238
75	15
76	11
77	11
79	11
80	11
81	25
82	9
83	9
84	9
85	18
86	13
87	11
88	11
91	9
92	9
93	11
94	11
95	11
97	11
98	11
99	9
101	9
102	9
104	9
105	11
107	6
108	36
109	27
110	6
111	6
112	9
115	9
119	9
120	9
121	9
122	9
123	6
127	6
128	6
129	4
132	6
133	18
134	6
135	6
137	6
147	11
148	9
149	150
150	104
151	18
152	9
162	6
163	9
164	9
165	9
166	9
167	9
175	4
178	111
179	15
180	6
181	6
182	6
183	6
191	4
192	47
193	4
194	4
196	6
197	6
199	6
200	4
202	6
203	4
206	6
208	6
211	6
213	6
216	6
231	4
232	4
233	4
234	4
239	6
246	6
250	6
251	15
252	4
253	4
256	4
264	6
281	18
282	4
