Mass Spectrum: Hexanedinitrile, 2-methyl-
Formula: C7H10N2
CAS: 16525-39-6
Molecular weight: 122
m/z	intensity
12	1
13	1
14	6
15	36
16	1
25	1
26	4
27	212
28	149
29	161
30	6
31	1
32	1
36	1
37	14
38	15
39	26
40	70
41	697
42	52
43	2
44	3
49	1
50	10
51	39
52	52
53	91
54	161
55	909
56	39
57	1
61	1
62	1
63	5
64	17
65	10
66	29
67	33
68	139
69	17
70	1
74	1
75	2
76	3
77	2
78	3
79	2
80	21
81	6
82	999
83	47
84	1
87	1
88	1
89	1
90	1
91	1
92	1
93	2
94	7
95	1
96	1
104	1
105	1
106	1
107	7
108	1
112	1
113	1
119	1
120	1
121	3
122	1
