Mass Spectrum: Cyclohexene, 1-ethyl-4,5-divinyl-
Formula: C12H18
CAS: 16539-12-1
Molecular weight: 162
m/z	intensity
24	28
25	28
27	264
28	14
29	106
30	4
37	4
38	14
39	262
40	14
41	262
42	16
43	37
44	3
49	3
50	32
51	106
52	59
53	139
54	38
55	108
56	10
57	3
58	4
61	4
62	10
63	38
64	12
65	128
66	37
67	178
68	14
69	10
70	3
71	4
74	7
75	8
76	8
77	272
78	108
79	999
80	834
81	68
82	17
83	4
84	10
86	3
87	4
89	13
90	4
91	421
92	119
93	207
94	63
95	36
96	9
101	3
102	9
103	38
104	47
105	420
106	107
107	103
108	144
109	11
115	38
116	12
117	39
118	11
119	98
120	77
121	39
122	4
126	3
127	4
128	11
129	11
130	4
131	10
132	4
133	263
134	46
135	4
147	39
148	5
161	3
162	64
163	9
