Mass Spectrum: 2-Dodecanol, 2-methyl-
Formula: C13H28O
CAS: 1653-37-8
Molecular weight: 200
m/z	intensity
26	2
27	36
28	3
29	68
30	2
31	43
37	0
38	0
39	25
41	135
42	24
43	91
44	3
45	21
46	0
50	0
51	1
52	0
53	9
54	5
55	83
56	34
57	56
58	38
59	999
60	37
61	2
62	0
63	0
65	0
66	0
67	9
68	5
69	56
70	11
71	35
72	2
73	1
77	1
78	0
79	1
80	0
81	3
82	4
83	29
84	6
85	9
86	0
87	0
91	0
93	0
95	3
96	2
97	24
98	3
99	1
100	0
101	0
105	0
109	1
110	0
111	12
112	2
113	1
115	0
123	0
124	1
125	2
126	1
127	0
137	0
138	0
139	0
140	1
141	0
154	1
167	0
180	0
182	1
183	1
185	52
186	6
187	0
