Mass Spectrum: 1,4-Methanobenzocyclodecene, tetradecahydro-
Formula: C15H26
CAS: 16539-04-1
Molecular weight: 206
m/z	intensity
27	91
28	100
29	127
32	19
39	130
40	32
41	414
42	42
43	72
51	19
52	16
53	98
54	120
55	292
56	35
57	31
65	50
66	96
67	413
68	142
69	112
70	15
71	12
77	84
78	47
79	250
80	999
81	333
82	114
83	78
84	12
91	58
92	26
93	246
94	277
95	197
96	79
97	31
103	10
104	8
105	16
106	12
107	89
108	67
109	68
110	34
111	14
119	10
120	12
121	126
122	56
123	27
124	21
125	9
134	9
135	82
136	36
137	24
138	14
139	8
149	34
150	17
151	9
163	21
164	14
165	11
177	18
178	16
179	9
191	10
192	7
206	110
207	28
208	8
