Mass Spectrum: Cyclooctane, (1-methylpropyl)-
Formula: C12H24
CAS: 16538-89-9
Molecular weight: 168
m/z	intensity
25	1
26	7
27	101
28	10
29	165
30	4
31	1
37	0
38	1
39	84
40	12
41	379
42	43
43	104
44	3
45	2
49	0
50	1
51	6
52	3
53	28
54	43
55	395
56	107
57	106
58	4
59	0
63	1
64	0
65	7
66	7
67	66
68	27
69	999
70	69
71	23
72	1
74	0
77	7
78	2
79	8
80	4
81	42
82	73
83	70
84	20
85	9
86	0
91	2
92	0
93	1
94	0
95	19
96	4
97	28
98	3
99	1
103	0
105	0
107	0
108	0
109	4
110	39
111	352
112	27
113	1
123	0
125	1
126	0
137	1
138	0
139	1
140	1
141	0
166	0
167	0
168	0
