Mass Spectrum: Silane, (bromomethyl)chlorodimethyl-
Formula: C3H8BrClSi
CAS: 16532-02-8
Molecular weight: 186
m/z	intensity
14	9
15	24
26	6
27	20
28	2
29	30
30	3
31	2
39	2
40	2
41	19
42	40
43	66
44	12
45	8
49	3
52	3
53	29
54	7
55	14
56	2
57	5
58	6
59	46
60	3
61	2
63	168
64	25
65	155
66	16
67	37
68	1
72	2
75	1
76	6
77	20
78	19
79	35
80	11
81	17
82	3
88	1
89	135
90	15
91	18
92	46
93	999
94	99
95	366
96	30
97	12
107	58
108	7
109	63
110	6
111	9
120	2
121	11
122	19
123	86
124	21
125	78
126	6
127	2
137	10
139	35
140	2
141	29
142	22
143	184
144	35
145	242
146	23
147	67
148	3
151	30
152	4
153	31
154	2
155	3
156	4
157	21
158	7
159	26
160	3
161	7
167	6
169	6
171	57
172	6
173	76
174	6
175	22
186	53
187	6
188	71
189	6
190	19
