Mass Spectrum: Cyclooctane, phenyl-
Formula: C14H20
CAS: 16538-85-5
Molecular weight: 188
m/z	intensity
25	0
26	7
27	65
29	46
30	1
37	0
38	2
39	67
40	11
41	112
42	13
43	15
44	0
49	0
50	12
51	41
52	12
53	19
54	15
55	107
56	11
57	4
58	1
61	0
62	3
63	17
64	5
65	42
66	6
67	29
68	11
69	32
70	2
71	1
74	4
75	5
76	7
77	69
78	70
79	31
80	4
81	18
82	11
83	4
84	0
86	0
87	1
88	0
89	14
90	4
91	543
92	171
93	15
94	1
95	8
96	7
97	19
98	1
101	1
102	14
103	65
104	999
105	160
106	12
107	1
108	0
109	1
110	6
111	8
112	0
113	0
114	0
115	74
116	30
117	409
118	93
119	12
120	2
121	0
122	0
126	0
127	7
128	20
129	19
130	11
131	65
132	19
133	4
134	1
139	0
141	2
142	0
143	2
144	1
145	13
146	4
147	1
152	0
159	5
160	2
173	1
187	0
188	164
189	30
190	1
