Mass Spectrum: 8-Pentadecanol
Formula: C15H32O
CAS: 1653-35-6
Molecular weight: 228
m/z	intensity
26	1
27	36
29	86
30	2
31	12
39	16
40	8
41	164
42	39
43	215
44	21
45	12
51	1
53	8
54	18
55	294
56	70
57	201
58	31
59	14
65	1
66	15
67	43
68	35
69	999
70	95
71	142
72	17
73	4
77	2
79	4
80	3
81	35
82	48
83	111
84	50
85	44
86	10
87	3
88	1
91	4
92	1
93	2
94	1
95	20
96	21
97	69
98	26
99	19
100	11
101	3
105	3
107	1
109	11
110	57
111	451
112	51
113	16
114	3
115	4
123	4
124	16
125	32
126	16
127	43
128	36
129	390
130	40
131	2
137	1
138	8
139	15
140	11
141	8
142	14
143	8
149	1
151	1
152	5
153	12
154	8
155	9
156	2
157	1
165	1
166	3
167	10
168	6
169	9
170	1
171	2
179	1
181	4
182	12
183	4
184	1
195	1
197	1
199	7
208	1
209	1
210	156
211	28
212	13
213	2
224	1
226	4
227	7
228	1
