Mass Spectrum: Cyclodecane, octyl-
Formula: C18H36
CAS: 16539-09-6
Molecular weight: 252
m/z	intensity
24	1
25	0
27	167
28	11
29	382
30	10
31	1
36	0
37	1
38	1
39	106
40	3
41	738
42	142
43	635
44	16
45	0
50	2
51	6
52	5
53	60
54	104
55	999
56	406
57	639
58	29
59	1
61	0
63	1
64	1
65	14
66	19
67	233
68	175
69	596
70	259
71	244
72	16
73	1
75	1
76	1
77	14
78	4
79	33
80	13
81	173
82	261
83	929
84	173
85	130
86	7
91	10
92	3
93	6
94	4
95	88
96	118
97	480
98	111
99	37
100	1
102	0
104	2
105	3
106	1
107	3
108	2
109	21
110	65
111	180
112	59
113	18
114	2
115	1
116	0
117	1
119	1
120	1
121	2
122	1
123	8
124	27
125	105
126	43
127	8
128	1
134	1
135	1
136	6
137	172
138	96
139	257
140	42
141	9
142	1
149	1
150	1
151	1
152	15
153	27
154	14
155	4
165	1
166	8
167	16
168	12
169	5
170	1
177	1
178	1
179	1
180	6
181	9
182	9
183	3
193	1
194	5
195	8
196	8
197	1
199	1
208	3
209	5
210	4
211	1
216	1
222	1
223	1
224	11
225	3
250	2
251	1
252	68
253	15
254	4
