Mass Spectrum: N-Nitrosonornicotine
Formula: C9H11N3O
CAS: 16543-55-8
Molecular weight: 177
m/z	intensity
15	3
26	14
27	47
28	40
29	5
30	76
37	10
38	39
39	165
40	33
41	172
42	59
43	19
44	23
45	3
49	6
50	96
51	237
52	123
53	35
54	15
55	5
56	2
59	11
61	9
62	34
63	132
64	86
65	211
66	34
67	16
68	35
69	23
70	42
71	2
73	2
74	11
75	19
76	36
77	116
78	436
79	95
80	58
81	4
85	1
86	2
87	3
88	3
89	29
90	33
91	205
92	359
93	69
94	11
95	3
99	20
100	1
101	2
102	11
103	52
104	295
105	999
106	141
107	39
108	8
115	2
116	12
117	182
118	538
119	214
120	128
121	13
122	1
128	15
129	4
130	134
131	108
132	144
133	23
134	2
135	2
142	1
143	4
144	8
145	207
146	71
147	548
148	68
149	4
158	1
159	4
160	121
161	13
177	746
178	83
179	5
