Mass Spectrum: Diethyl-phenylsilane
Formula: C10H16Si
CAS: 16545-43-0
Molecular weight: 164
m/z	intensity
39	39
40	9
41	31
42	18
43	109
44	51
45	44
46	2
50	25
51	51
52	23
53	172
54	38
55	96
56	51
57	67
58	124
59	42
60	9
61	4
63	5
64	2
65	23
66	18
67	34
68	6
69	18
70	4
71	6
72	2
73	9
74	6
75	9
76	6
77	48
78	44
79	77
80	20
81	119
82	13
83	13
84	4
85	16
86	319
87	39
88	11
91	25
92	5
93	16
94	16
95	12
97	3
101	5
102	7
103	27
104	18
105	315
106	141
107	999
108	191
109	55
110	7
119	14
120	11
121	14
130	2
131	6
132	2
133	27
134	25
135	629
136	91
137	25
163	12
164	243
165	39
166	11
167	1
