Mass Spectrum: Bicyclo[4.1.0]hept-3-ene, 7,7-dichloro-
Formula: C7H8Cl2
CAS: 16554-84-0
Molecular weight: 162
m/z	intensity
25	1
26	18
27	69
28	13
29	5
31	0
35	2
36	3
37	23
38	40
39	163
40	22
41	29
42	1
43	8
44	8
45	18
46	4
47	8
48	2
49	23
50	52
51	91
52	23
53	33
54	8
55	4
57	7
60	7
61	26
62	43
63	92
64	17
65	163
66	359
67	28
68	4
69	2
72	5
73	48
74	12
75	38
76	5
77	99
78	30
79	337
80	27
81	3
82	6
83	10
84	7
85	27
86	11
87	30
88	4
89	62
90	15
91	999
92	102
93	5
95	0
96	3
97	6
98	2
99	65
100	37
101	23
102	12
103	3
105	1
107	4
109	12
110	1
111	65
112	30
113	53
114	12
115	11
119	1
120	5
121	5
122	13
123	8
124	6
125	84
126	44
127	420
128	46
129	126
130	9
133	5
134	4
135	6
136	3
137	2
138	1
146	1
147	65
148	5
149	48
150	4
151	6
152	1
161	6
162	74
163	10
164	47
165	4
166	7
167	1
