Mass Spectrum: Dnp-L-serine
Formula: C9H9N3O7
CAS: 1655-64-7
Molecular weight: 271
m/z	intensity
12	17
13	9
14	22
15	85
16	46
17	10
18	42
24	2
25	7
26	33
27	72
28	265
29	308
30	324
31	41
32	8
36	5
37	53
38	102
39	145
40	48
41	77
42	59
43	488
44	999
45	71
46	27
47	2
48	4
49	13
50	84
51	147
52	293
53	65
54	20
55	11
56	6
57	3
58	6
59	3
60	9
61	52
62	158
63	375
64	211
65	79
66	87
67	24
68	13
69	7
70	4
71	2
72	6
73	8
74	51
75	120
76	91
77	113
78	197
79	100
80	58
81	7
82	3
83	2
84	1
85	2
86	6
87	14
88	43
89	87
90	396
91	352
92	71
93	54
94	21
95	14
96	3
97	2
98	1
99	2
100	4
101	7
102	38
103	56
104	58
105	201
106	61
107	100
108	13
109	2
110	1
111	2
112	1
113	1
114	2
115	8
116	77
117	317
118	56
119	60
120	35
121	37
122	9
123	6
124	1
125	1
127	1
128	3
129	34
130	13
131	27
132	12
133	247
134	66
135	11
136	4
137	94
138	13
139	2
142	1
143	3
144	4
145	31
146	12
147	51
148	12
149	65
150	19
151	8
152	4
153	154
154	21
155	3
156	1
157	1
158	1
159	6
160	2
161	30
162	9
163	437
164	63
165	22
166	60
167	142
168	18
169	3
173	3
174	2
175	44
176	8
177	45
178	17
179	335
180	45
181	9
182	2
183	410
184	53
185	6
186	1
187	1
189	3
190	3
191	197
192	29
193	74
194	44
195	12
196	30
197	3
203	2
205	4
206	2
207	7
208	11
209	22
210	4
211	2
217	1
218	1
219	7
221	2
223	2
224	1
225	6
226	26
227	4
235	1
240	15
241	3
253	1
254	2
271	8
272	1
