Mass Spectrum: Trilauryl trithiophosphite
Formula: C36H75PS3
CAS: 1656-63-9
Molecular weight: 634
m/z	intensity
15	5
26	9
27	173
28	38
29	351
30	9
31	1
32	3
33	2
34	4
35	9
37	2
38	4
39	140
40	24
41	725
42	137
43	999
44	35
45	38
46	11
47	83
48	4
49	5
50	3
51	8
52	6
53	56
54	69
55	616
56	217
57	923
58	41
59	19
60	55
61	58
62	6
63	43
64	3
65	10
66	8
67	104
68	80
69	373
70	162
71	444
72	26
73	23
74	9
75	9
76	2
77	9
78	2
79	14
80	4
81	57
82	78
83	224
84	99
85	252
86	18
87	126
88	21
89	48
90	4
91	6
92	2
93	5
94	2
95	32
96	43
97	149
98	64
99	67
100	6
101	67
102	9
103	10
104	3
105	12
106	3
107	3
108	1
109	14
110	16
111	68
112	35
113	43
114	4
115	27
116	4
117	7
118	2
119	9
120	4
121	2
122	2
123	6
124	7
125	28
126	17
127	21
128	2
129	20
130	4
131	7
132	3
133	6
134	5
135	2
136	1
137	3
138	5
139	12
140	28
141	6
142	1
143	15
144	3
145	15
146	4
147	6
148	3
149	2
150	1
151	3
152	4
153	2
154	2
155	2
156	1
157	11
158	2
159	10
160	3
161	6
162	2
163	2
164	1
165	3
166	8
167	6
168	54
169	15
170	6
171	8
172	2
173	16
174	4
175	7
176	2
177	2
178	1
179	4
180	4
181	2
182	1
183	1
185	2
187	11
188	2
189	5
190	1
191	2
193	6
194	3
195	2
196	3
197	7
198	3
199	46
200	72
201	622
202	145
203	46
204	9
205	2
207	6
208	3
209	4
210	1
211	1
213	1
215	6
216	1
217	1
219	2
221	5
222	2
223	2
224	1
225	1
227	2
228	2
229	32
230	9
231	54
232	16
233	12
234	13
235	5
236	3
237	2
238	1
241	1
243	2
245	1
247	3
248	2
249	5
250	1
257	3
258	1
259	2
261	2
262	1
263	9
264	35
265	80
266	18
267	13
268	3
269	2
271	2
279	1
280	1
281	6
282	2
283	6
284	1
285	3
293	1
295	1
296	2
297	14
298	16
299	11
300	4
301	2
313	2
314	2
315	7
316	1
317	1
327	1
331	1
341	1
342	1
343	1
346	1
349	1
368	1
369	5
370	8
371	2
372	1
374	1
375	1
377	6
378	2
379	1
389	1
391	1
400	1
401	4
402	35
403	11
404	6
405	6
406	2
407	1
430	2
431	3
432	14
433	166
434	54
435	23
436	7
437	2
438	1
449	2
450	3
451	2
461	3
462	1
464	1
465	9
466	20
467	12
468	5
469	2
481	1
482	1
483	1
577	2
578	2
579	1
591	1
606	1
633	1
634	38
635	17
636	9
637	3
638	1
