Mass Spectrum: Thiophene-3-carbonitrile, tetrahydro-4-oxo-
Formula: C5H5NOS
CAS: 16563-14-7
Molecular weight: 127
m/z	intensity
12	1
13	2
14	12
15	7
25	3
26	30
27	45
28	30
29	37
30	1
31	7
32	7
33	3
34	5
36	2
37	8
38	9
39	12
40	5
41	16
42	72
43	38
44	22
45	183
46	999
47	54
48	51
49	3
50	5
51	18
52	52
53	27
54	323
55	23
56	3
57	18
58	24
59	65
60	22
61	2
62	1
63	2
64	3
65	1
66	1
67	2
68	2
69	4
70	6
71	9
72	9
73	6
74	272
75	9
76	14
80	9
81	2
82	5
83	8
84	5
85	9
86	1
94	1
95	2
96	1
97	2
98	6
99	153
100	15
101	8
102	1
110	2
125	10
126	11
127	655
128	50
129	31
130	2
