Mass Spectrum: 5-N-Butyldihydro-1,3,5-dioxazine
Formula: C7H15NO2
CAS: 16574-21-3
Molecular weight: 145
m/z	intensity
30	540
31	40
39	70
40	80
41	210
42	999
43	360
44	200
55	60
56	80
57	140
58	100
70	40
71	20
72	160
84	390
85	30
86	20
91	60
92	40
98	20
99	20
102	270
114	20
144	110
145	40
