Mass Spectrum: 1-Isoquinolinecarbonitrile, 2-benzoyl-1,2-dihydro-1-methyl-
Formula: C18H14N2O
CAS: 16576-32-2
Molecular weight: 274
m/z	intensity
39	20
43	20
50	80
51	100
63	20
75	20
76	30
77	40
78	30
101	20
105	999
106	80
115	40
128	20
129	20
143	100
154	20
169	20
259	30
274	70
275	10
