Mass Spectrum: 5-Allyldihydro-1,3,5-dioxazine
Formula: C6H11NO2
CAS: 16574-19-9
Molecular weight: 129
m/z	intensity
30	999
31	230
33	20
38	20
39	150
40	20
41	550
42	470
43	50
44	50
45	60
58	30
68	210
69	110
70	170
71	40
72	30
82	40
83	40
84	50
85	20
89	30
91	20
98	130
99	60
100	20
102	30
128	560
129	150
