Mass Spectrum: Methanone, (4-fluorophenyl)[4-(trifluoromethyl)phenyl]-
Formula: C14H8F4O
CAS: 16574-52-0
Molecular weight: 268
m/z	intensity
45	3
49	4
50	35
51	22
53	2
57	11
61	1
62	5
63	5
68	8
69	23
70	3
72	0
73	2
74	20
75	111
76	15
77	4
81	4
82	1
84	2
85	7
86	3
87	2
92	2
93	5
94	27
95	352
96	22
97	0
98	2
99	7
100	4
101	1
104	0
105	4
107	3
109	2
110	2
119	5
120	23
123	999
124	72
125	28
126	12
127	0
143	4
144	9
145	196
146	14
149	0
150	1
151	2
168	3
169	5
170	18
171	7
173	232
174	19
175	2
188	2
198	2
199	27
200	4
201	3
219	10
220	1
221	10
237	2
238	2
239	0
240	4
249	41
250	8
251	1
266	3
267	8
268	529
269	78
270	7
