Mass Spectrum: Cyclohexane, 1-isopropyl-1-methyl-
Formula: C10H20
CAS: 16580-26-0
Molecular weight: 140
m/z	intensity
25	0
26	2
27	82
28	4
29	86
30	1
37	0
38	1
39	73
40	10
41	229
42	19
43	98
44	2
45	0
46	0
50	1
51	6
52	4
53	36
54	23
55	999
56	59
57	40
58	1
63	1
64	0
65	7
66	5
67	56
68	34
69	199
70	23
71	4
73	0
75	0
77	8
78	1
79	11
80	2
81	196
82	19
83	47
84	9
85	1
91	2
92	0
93	1
94	0
95	7
96	379
97	857
98	63
99	1
105	0
109	0
110	0
111	2
112	1
115	0
119	0
123	0
124	0
125	12
126	1
139	0
140	2
141	0
