Mass Spectrum: .alpha.-Piperidinomethyl-2-phenyl-6-benzothiazole methanol
Formula: C20H22N2OS
CAS: 16581-50-3
Molecular weight: 338
m/z	intensity
41	67
42	59
43	15
44	33
45	5
49	1
50	1
51	6
52	0
53	2
54	2
55	49
56	10
57	4
58	3
62	0
63	12
64	1
65	19
66	0
67	2
68	4
69	29
70	27
71	2
75	1
76	1
77	9
78	1
79	1
81	1
82	4
83	4
84	8
85	2
86	6
89	3
90	1
91	1
94	1
96	9
98	999
99	65
100	4
104	3
105	0
106	0
107	4
108	7
109	34
110	3
111	2
119	0
121	3
133	1
134	2
135	1
139	0
148	0
184	0
192	0
209	1
210	3
211	1
212	8
213	0
224	2
225	0
236	1
237	5
238	4
239	2
240	2
338	0
