Mass Spectrum: Allyl o-nitrophenyl sulfoxide
Formula: C9H9NO3S
CAS: 1659-00-3
Molecular weight: 211
m/z	intensity
41	999
91	99
117	69
118	120
130	79
146	39
211	29
