Mass Spectrum: 1,7-Diphenyl-1,8a-dihydro-[1,2,4]triazolo[4,3-a]pyrimidin-3-carboxylic acid, ethyl ester
Formula: C20H18N4O2
CAS: 165947-21-7
Molecular weight: 346
m/z	intensity
12	2
13	1
14	4
15	18
16	2
17	2
18	8
19	0
20	0
24	0
26	30
27	171
28	60
29	527
30	15
31	2
36	0
37	4
38	14
39	59
40	13
41	33
42	4
43	9
44	3
45	6
46	0
50	35
51	163
52	41
53	37
54	7
55	2
56	1
57	1
59	0
60	0
61	2
62	9
63	49
64	129
65	78
66	8
67	4
68	2
69	1
70	0
71	0
72	0
73	1
74	10
75	19
76	45
77	297
78	28
79	12
80	1
81	0
82	0
83	0
84	0
85	0
86	1
87	4
89	59
91	999
92	77
93	4
94	2
95	1
96	0
97	0
98	0
99	1
100	2
101	11
102	60
103	91
104	97
105	11
106	1
107	0
109	0
110	0
111	0
112	0
113	7
114	12
115	32
116	15
117	23
118	113
119	15
120	1
121	0
122	2
123	1
127	4
128	26
129	52
130	10
131	3
132	0
133	2
134	0
135	0
137	1
138	0
140	16
141	5
142	7
143	7
144	15
145	15
146	2
147	0
150	0
151	0
152	0
153	1
155	41
156	18
157	26
158	4
159	1
160	1
161	0
162	1
163	0
164	0
165	1
166	0
167	1
168	3
169	2
170	4
171	2
172	22
173	6
176	0
177	0
178	0
179	0
180	1
182	17
183	2
184	0
185	2
186	0
187	0
188	0
189	3
190	35
191	5
192	1
193	0
194	1
195	2
196	1
197	2
198	1
199	0
202	0
203	0
204	0
205	1
206	0
207	0
212	0
213	1
214	20
215	3
216	1
217	3
218	2
219	1
220	0
229	0
230	0
231	1
232	1
233	0
240	5
241	5
242	1
243	1
244	3
245	2
246	7
247	2
248	0
268	0
269	5
270	1
271	3
273	43
274	9
275	1
289	0
301	0
317	8
318	2
319	0
331	0
332	0
333	0
334	0
345	130
346	85
347	19
348	2
349	0
