Mass Spectrum: N,N'-Di-o-tolyl-formamidine
Formula: C15H16N2
CAS: 16596-01-3
Molecular weight: 224
m/z	intensity
39	50
65	110
77	80
79	50
91	270
106	320
107	999
108	100
111	90
117	50
118	220
223	50
224	240
225	50
