Mass Spectrum: Trimethylamine, 1-cyclohexyl-
Formula: C9H19N
CAS: 16607-80-0
Molecular weight: 141
m/z	intensity
26	0
27	14
28	5
29	17
30	19
31	1
38	1
39	17
40	2
41	31
42	41
43	15
44	27
45	5
46	3
51	3
52	1
53	7
54	4
55	24
56	8
57	18
58	999
59	49
65	3
66	1
67	10
68	4
69	3
70	4
71	3
72	4
77	3
78	0
79	2
80	1
81	3
82	4
83	2
84	5
85	2
91	2
92	1
93	1
94	2
95	6
96	3
97	1
98	1
99	1
105	3
110	2
124	1
138	2
139	1
140	4
141	92
142	9
143	2
