Mass Spectrum: S,S'-Dibenzyl 1,2-ethanebis(thiosulfonate)
Formula: C16H18O4S4
CAS: 16601-06-2
Molecular weight: 402
m/z	intensity
24	1
25	2
26	21
27	29
28	53
29	1
32	4
33	1
34	1
37	1
38	3
39	29
40	2
41	9
43	1
44	4
45	111
46	3
47	6
48	43
49	1
50	8
51	26
52	6
53	2
57	1
58	1
59	2
60	5
61	5
62	8
63	19
64	195
65	111
66	9
69	4
70	1
71	1
74	2
75	2
76	7
77	43
78	16
79	14
80	1
82	1
84	1
85	1
86	1
87	1
89	22
90	9
91	999
92	105
93	4
95	1
97	1
104	1
105	2
106	1
108	1
109	1
121	72
122	163
123	85
124	88
125	9
126	4
149	9
150	2
151	1
153	3
154	1
155	1
156	1
165	1
166	1
167	3
168	1
178	1
179	2
180	3
181	60
182	10
183	1
211	1
213	8
214	12
215	2
216	1
245	45
246	122
247	24
248	11
249	2
278	2
