Mass Spectrum: (-)-Methyl-3,3-dimethylcyclopropane-1,trans-2-dicarboxylate
Formula: C9H14O4
CAS: 16601-23-3
Molecular weight: 186
m/z	intensity
14	1
15	8
16	4
26	12
27	66
28	110
29	28
30	3
31	20
32	12
33	2
37	7
38	18
39	135
40	54
41	194
42	45
43	131
44	158
45	43
46	3
47	5
49	4
50	20
51	33
52	19
53	97
54	16
55	63
56	14
57	15
58	5
59	105
60	6
61	3
62	6
63	9
64	4
65	49
66	49
67	318
68	62
69	61
70	8
71	39
72	16
73	14
74	3
76	2
77	13
78	34
79	12
80	5
81	68
82	25
83	16
84	16
85	21
86	3
91	3
92	1
93	3
94	81
95	347
96	173
97	61
98	6
99	55
100	101
101	5
105	2
106	3
107	2
108	3
110	2
111	48
112	130
113	999
114	80
115	9
117	11
118	1
122	41
123	5
125	3
126	5
127	48
128	6
129	3
131	1
135	2
140	56
141	31
142	5
143	5
144	1
146	1
152	2
154	2
