Mass Spectrum: S-Benzyl benzenesulfonothioate  #
Formula: C13H12O2S2
CAS: 16601-01-7
Molecular weight: 264
m/z	intensity
45	999
50	138
51	550
63	89
65	279
77	712
78	139
79	90
91	980
92	79
97	29
121	129
122	621
123	579
124	79
125	50
264	4
