Mass Spectrum: S-Benzyl phenylmethanethiosulfonate
Formula: C14H14O2S2
CAS: 16601-40-4
Molecular weight: 278
m/z	intensity
45	179
65	141
91	999
92	120
122	170
123	150
278	2
