Mass Spectrum: 4-Pregnene-17.alpha.,20.beta.,21-triol-3-one 20,21-diacetate
Formula: C25H36O6
CAS: 1661-99-0
Molecular weight: 432
m/z	intensity
41	76
43	999
44	7
45	10
47	2
49	18
51	9
53	32
55	142
56	6
57	15
61	8
65	12
67	76
68	12
69	31
70	4
71	22
73	8
74	1
77	48
78	7
79	106
80	12
81	80
82	12
83	31
84	15
85	2
86	64
87	6
88	1
91	90
92	12
93	66
94	16
95	72
96	13
97	58
98	4
99	38
100	11
101	2
103	23
104	7
105	85
106	21
107	88
108	29
109	70
110	5
111	14
113	5
115	15
116	7
117	29
118	6
119	61
120	22
121	74
122	52
123	88
124	101
125	13
127	1
128	24
129	16
130	8
131	37
132	12
133	55
134	29
135	32
136	19
137	20
138	6
139	1
141	77
142	17
143	25
144	10
145	38
146	12
147	36
148	29
149	35
150	9
151	4
153	4
155	9
156	5
157	19
158	7
159	31
160	13
161	29
162	13
163	14
164	2
165	5
167	1
168	1
169	14
170	13
171	28
172	9
173	22
174	15
175	17
176	7
177	7
179	1
181	4
183	8
184	6
185	15
186	7
187	27
188	13
189	26
190	5
191	4
195	5
196	1
197	8
198	11
199	12
200	20
201	17
202	13
203	6
204	5
207	5
209	8
210	1
211	17
212	7
213	18
214	8
215	13
216	4
217	19
218	2
223	5
224	9
225	11
226	10
227	19
228	8
229	63
230	19
231	33
232	26
233	4
237	4
239	6
240	6
241	7
242	99
243	39
244	13
245	58
246	11
249	1
250	3
251	9
252	5
253	1
255	7
256	3
257	1
259	3
260	27
261	7
266	3
267	5
268	3
269	43
270	12
271	4
272	3
275	1
276	5
277	1
279	9
283	4
284	11
285	6
286	10
287	73
288	13
293	4
294	33
295	31
296	6
297	9
299	14
300	3
311	5
312	132
313	54
314	8
315	1
329	8
330	37
331	9
341	2
347	16
348	5
354	11
355	5
372	20
373	7
390	29
391	7
414	12
415	2
432	85
433	28
434	5
