Mass Spectrum: 1-Methylenespiro[2.4]heptan-4-one
Formula: C8H10O
CAS: 166193-08-4
Molecular weight: 122
m/z	intensity
25	3
26	63
27	258
28	71
29	32
31	5
32	7
33	5
37	17
38	62
39	476
40	234
41	118
42	43
43	35
44	3
45	19
46	12
49	7
50	78
51	149
52	157
53	127
54	101
55	169
56	9
57	10
58	1
61	8
62	22
63	53
64	22
65	173
66	325
67	53
68	18
69	5
70	1
71	2
72	2
73	3
74	6
75	15
76	4
77	294
78	70
79	999
80	280
81	36
82	9
83	15
84	1
85	1
86	1
87	1
89	4
90	1
91	81
92	10
93	80
94	123
95	23
96	4
101	1
103	4
104	1
105	2
107	32
108	2
109	1
119	1
120	28
121	264
122	576
123	49
124	3
