Mass Spectrum: Cycloheptanemethanol, .alpha.,.alpha.-dimethyl-
Formula: C10H20O
CAS: 16624-02-5
Molecular weight: 156
m/z	intensity
33	38
39	24
41	62
43	20
56	32
59	999
60	26
67	20
81	20
97	20
123	20
141	72
