Mass Spectrum: Cyclooctanemethanol, .alpha.,.alpha.-dimethyl-
Formula: C11H22O
CAS: 16624-06-9
Molecular weight: 170
m/z	intensity
34	23
39	39
41	129
43	119
53	17
54	19
55	105
57	19
58	61
59	999
60	29
67	71
68	19
69	75
71	19
81	61
82	37
83	39
97	39
109	39
110	21
111	19
137	29
152	19
155	19
