Mass Spectrum: Octanoic acid, 6-hydroxy-8-phenyl-, phenyl ester
Formula: C20H24O3
CAS: 166273-42-3
Molecular weight: 312
m/z	intensity
26	1
27	27
28	5
29	39
30	1
31	7
37	2
38	6
39	54
40	14
41	66
42	6
43	33
44	8
45	7
47	5
49	0
50	6
51	22
52	4
53	10
54	2
55	79
56	10
57	30
58	4
59	2
60	1
61	0
62	3
63	10
64	5
65	85
66	35
67	59
68	15
69	15
70	3
71	6
73	3
74	1
75	1
76	2
77	58
78	26
79	30
80	8
81	46
82	5
83	10
84	5
85	31
86	3
87	2
89	5
90	4
91	999
92	127
93	14
94	422
95	63
96	7
97	11
98	2
99	3
101	3
102	3
103	16
104	202
105	89
106	10
107	3
108	0
109	11
110	0
111	2
112	0
113	34
114	5
115	19
116	7
117	216
118	24
119	3
121	1
122	0
123	13
124	1
126	3
127	28
128	6
129	17
130	14
131	34
132	5
133	7
134	6
135	3
140	1
141	30
142	4
143	7
144	3
145	9
146	0
147	0
149	6
154	0
155	3
156	7
157	20
158	17
159	7
160	0
161	2
165	0
167	0
168	0
169	0
171	5
172	5
173	2
174	0
177	0
181	0
182	0
183	416
184	60
185	4
200	14
201	103
202	17
203	1
204	0
207	1
217	2
218	25
219	204
220	27
221	2
294	1
