Mass Spectrum: Pyrido[1,2-d][1,4]diazepin-2(3H)-one, octahydro-
Formula: C9H16N2O
CAS: 16620-84-1
Molecular weight: 168
m/z	intensity
26	35
27	164
28	114
29	83
30	151
39	109
40	35
41	287
42	309
43	174
44	154
53	51
54	132
55	435
56	196
57	80
67	64
68	109
69	196
70	96
71	29
73	25
80	32
81	41
82	206
83	806
84	903
96	999
109	106
110	445
111	280
112	38
125	154
126	25
138	41
168	677
169	77
