Mass Spectrum: 3-Methylene-1,6-heptadiene
Formula: C8H12
CAS: 16626-48-5
Molecular weight: 108
m/z	intensity
25	0
26	18
27	213
37	11
38	26
39	453
40	57
41	746
42	30
43	3
45	0
46	0
48	0
49	5
50	52
51	106
52	62
53	161
54	178
55	46
56	4
61	4
62	10
63	21
64	3
65	276
66	87
67	357
68	38
69	3
73	1
74	6
75	2
76	1
77	469
78	183
79	999
80	278
81	51
82	2
84	0
86	0
87	0
89	1
90	0
91	422
92	44
93	854
94	74
95	3
98	0
102	0
103	5
104	0
105	22
106	2
107	65
108	108
109	9
110	0
