Mass Spectrum: E,Z-3-Ethylidenecyclohexene
Formula: C8H12
CAS: 16631-62-2
Molecular weight: 108
m/z	intensity
25	2
26	20
27	127
28	22
29	28
30	3
31	5
36	2
37	7
38	22
39	226
40	31
41	121
42	6
43	3
44	2
45	5
49	3
50	52
51	129
52	58
53	83
54	51
55	17
56	3
57	2
59	3
61	6
62	13
63	42
64	7
65	97
66	56
67	61
68	8
69	2
73	2
74	13
75	7
77	476
78	196
79	999
80	122
81	32
82	0
83	0
85	1
86	1
87	4
89	10
91	471
92	57
93	645
94	44
95	1
96	1
97	2
98	2
99	3
102	4
103	18
104	5
105	31
106	20
107	39
108	426
109	39
110	2
