Mass Spectrum: 3-Methylthiobutyraldehyde
Formula: C5H10OS
CAS: 16630-52-7
Molecular weight: 118
m/z	intensity
13	2
14	4
15	38
16	1
24	1
25	3
26	30
27	220
29	163
30	2
31	7
32	8
33	11
34	4
35	10
36	4
37	34
38	66
39	492
40	75
41	994
42	337
43	231
44	33
45	318
46	104
47	548
48	999
49	509
50	70
51	33
52	4
53	28
54	3
55	21
56	2
57	23
58	58
59	146
60	27
61	90
62	4
63	4
67	1
68	5
69	99
70	167
71	70
72	9
73	17
74	20
75	354
76	17
77	24
78	1
85	3
87	4
88	1
89	24
90	341
91	18
92	15
101	1
103	21
104	1
105	1
118	591
119	36
120	29
121	1
