Mass Spectrum: E,Z-4-Ethylidenecyclohexene
Formula: C8H12
CAS: 16631-66-6
Molecular weight: 108
m/z	intensity
26	35
27	271
28	57
29	60
30	1
31	0
36	0
37	9
38	31
39	355
40	49
41	168
42	10
43	3
44	0
45	5
48	0
49	4
50	72
51	169
52	77
53	119
54	80
55	19
56	1
57	0
58	0
59	0
60	0
61	5
62	15
63	39
64	7
65	116
66	68
67	62
68	6
69	0
70	0
71	0
73	2
74	11
75	7
77	505
78	175
79	999
80	138
81	16
82	1
84	0
85	0
86	1
87	1
89	8
91	422
92	50
93	493
94	39
95	0
97	0
98	1
101	0
102	4
103	13
104	4
105	27
106	7
107	37
108	542
109	52
110	2
