Mass Spectrum: 2,4(1H,3H)-Pyrimidinedione, 6-methyl-5-nitro-
Formula: C5H5N3O4
CAS: 16632-21-6
Molecular weight: 171
m/z	intensity
12	1
13	2
14	4
15	23
16	5
24	2
25	6
26	52
27	136
28	141
29	26
30	83
31	9
32	2
36	2
37	13
38	38
39	55
40	48
41	94
42	999
43	97
44	100
45	6
46	10
47	1
50	3
51	22
52	68
53	92
54	186
55	25
56	13
57	8
58	8
64	2
65	3
66	11
67	57
68	69
69	35
70	110
71	46
72	3
73	1
78	1
79	1
80	4
81	17
82	63
83	87
84	12
85	15
86	2
87	2
93	1
94	13
95	9
96	5
97	3
98	16
99	21
100	2
108	1
109	1
110	123
111	77
112	21
113	4
114	2
124	4
125	1
126	8
127	8
128	4
137	3
139	3
140	1
141	28
142	9
153	3
154	41
155	18
156	1
170	11
171	333
172	25
173	4
