Mass Spectrum: (6-Oxo-2,3-diphenyl-1-piperazinyl)acetic acid
Formula: C18H18N2O3
CAS: 16635-98-6
Molecular weight: 310
m/z	intensity
15	1
16	1
18	2
27	4
28	20
29	2
30	11
31	3
39	17
40	3
41	23
42	15
43	5
44	13
45	2
50	7
51	29
52	8
53	2
54	1
55	1
56	2
57	1
58	3
59	3
60	3
62	3
63	20
64	9
65	44
66	3
67	1
69	1
70	1
71	1
74	4
75	5
76	20
77	57
78	15
79	16
80	2
82	2
83	1
85	1
86	2
87	2
88	7
89	72
90	51
91	410
92	35
93	2
99	1
101	2
102	10
103	15
104	100
105	35
106	135
107	13
113	1
114	1
115	5
116	11
117	132
118	999
119	252
120	52
121	5
122	1
126	2
127	2
128	4
129	1
130	9
131	14
132	25
133	5
134	2
139	3
141	1
144	3
145	10
146	29
147	6
148	2
149	1
150	1
151	5
152	13
153	3
159	4
160	9
161	9
162	13
163	9
164	644
165	94
166	24
167	9
168	1
173	13
174	2
175	9
176	60
177	28
178	76
179	35
180	24
181	4
190	3
191	3
192	2
193	16
194	40
195	38
196	7
203	2
204	26
205	16
206	10
207	8
208	14
209	9
210	1
218	2
219	42
220	6
221	1
222	1
223	1
232	1
233	4
234	2
235	2
237	6
238	1
250	1
251	99
252	19
253	2
262	2
263	1
264	3
265	8
266	45
267	9
268	1
292	1
293	3
308	1
310	446
311	91
312	11
313	1
