Mass Spectrum: Heptanal, 2-methyl-
Formula: C8H16O
CAS: 16630-91-4
Molecular weight: 128
m/z	intensity
26	14
27	196
28	40
29	278
30	13
31	11
36	1
37	2
38	9
39	162
40	27
41	438
42	84
43	331
44	11
45	6
50	4
51	13
52	3
53	29
54	8
55	111
56	33
57	537
58	999
59	31
60	2
62	1
63	2
64	0
65	4
66	2
67	16
68	22
69	23
70	32
71	60
72	8
73	0
74	0
77	2
78	1
79	2
80	1
81	9
82	2
83	6
84	1
85	16
86	38
87	3
91	0
92	1
93	1
94	1
95	11
96	1
97	4
98	2
99	3
100	0
103	0
108	1
109	2
110	2
128	2
