Mass Spectrum: 4H-1-Benzopyran-4-one, 5-hydroxy-2-methyl-7-(2-propenyloxy)-
Formula: C13H12O4
CAS: 16639-46-6
Molecular weight: 232
m/z	intensity
39	448
40	91
41	999
42	45
43	515
44	91
50	88
51	185
52	52
53	115
54	45
55	109
56	15
57	30
60	9
61	12
62	76
63	91
64	30
65	64
66	85
67	133
68	30
69	409
70	15
71	15
74	21
75	27
76	18
77	91
78	106
79	176
80	21
81	30
82	15
83	18
85	209
86	12
87	18
89	24
90	30
91	91
92	33
93	61
94	18
95	67
96	21
97	15
102	21
103	18
105	70
106	182
107	106
108	45
109	15
110	12
111	18
115	24
117	12
118	24
119	33
120	30
121	36
122	212
123	448
124	88
130	12
131	12
132	12
133	45
134	21
135	42
136	39
137	21
145	15
146	15
147	48
148	115
149	52
150	64
151	36
152	24
161	182
162	61
163	467
164	121
165	21
173	12
174	15
175	145
176	136
177	455
178	54
185	15
186	18
187	21
188	15
189	258
190	94
191	85
192	324
193	33
203	239
204	521
205	179
206	85
214	15
215	91
216	21
217	800
218	97
219	15
231	182
232	788
233	91
234	12
