Mass Spectrum: 3-Pentenoic acid, 2,2-dimethyl-
Formula: C7H12O2
CAS: 16642-52-7
Molecular weight: 128
m/z	intensity
39	78
41	216
43	65
53	29
55	438
59	25
67	70
69	60
83	999
95	27
113	69
114	40
128	350
