Mass Spectrum: 1-Cyclohexene-1-acetic acid, .alpha.,.alpha.-dimethyl-
Formula: C10H16O2
CAS: 16642-55-0
Molecular weight: 168
m/z	intensity
27	161
28	168
29	142
39	240
41	413
43	173
44	187
51	93
53	187
55	213
57	93
65	80
67	413
69	133
77	173
79	346
81	999
88	387
91	153
93	93
95	133
107	167
109	98
123	963
135	37
153	122
168	160
