Mass Spectrum: Cyclohexene, 1-chloro-2-methyl-
Formula: C7H11Cl
CAS: 16642-49-2
Molecular weight: 130
m/z	intensity
12	2
13	3
14	11
15	122
16	3
17	8
18	27
25	3
26	56
27	309
28	50
29	47
31	2
32	2
35	3
36	6
37	28
38	62
39	417
40	75
41	217
42	16
43	16
44	5
45	22
46	19
47	5
48	2
49	28
50	68
51	164
52	55
53	223
54	45
55	140
56	8
60	4
61	27
62	32
63	67
64	18
65	113
66	84
67	476
68	162
69	10
72	3
73	20
74	11
75	33
76	9
77	164
78	35
79	331
80	37
81	31
82	7
84	2
85	4
86	4
87	10
88	38
89	90
90	20
91	89
92	11
93	72
94	143
95	999
96	77
97	3
99	3
100	2
101	17
102	113
103	11
104	36
105	2
110	3
111	2
112	3
113	4
114	2
115	31
116	3
117	10
118	1
125	1
127	1
128	1
129	5
130	278
131	23
132	88
133	7
