Mass Spectrum: Methane-D2-, dichloro-
Formula: CCl2D2
CAS: 1665-00-5
Molecular weight: 86
m/z	intensity
12	2
14	6
16	8
35	44
37	20
39	4
47	101
48	2
49	74
50	7
51	999
52	11
53	312
54	4
70	3
72	1
82	3
84	12
86	767
87	9
88	498
89	6
90	83
91	1
