Mass Spectrum: Dodecanoic acid, 9-decen-1-yl ester
Formula: C22H42O2
CAS: 166520-98-5
Molecular weight: 338
m/z	intensity
25	0
26	6
27	141
28	61
29	372
30	10
31	10
33	0
37	0
38	2
39	127
40	29
41	786
42	204
43	751
44	38
45	18
46	0
47	0
50	1
51	5
52	3
53	60
54	330
55	999
56	183
57	447
58	25
59	13
60	72
61	28
62	1
63	1
64	0
65	12
66	75
67	477
68	724
69	441
70	92
71	169
72	13
73	103
74	9
75	1
77	8
78	2
79	41
80	35
81	420
82	765
83	459
84	86
85	88
86	10
87	31
88	4
89	12
90	0
91	5
92	1
93	16
94	28
95	349
96	718
97	262
98	73
99	21
100	9
101	28
102	5
103	10
104	0
105	1
106	0
107	10
108	14
109	281
110	248
111	52
112	19
113	9
114	7
115	23
116	7
117	5
118	1
119	1
120	1
121	8
122	2
123	34
124	7
125	12
126	4
127	5
128	2
129	37
130	6
131	2
132	0
133	1
134	1
135	3
136	11
137	2
138	461
139	66
140	14
141	4
142	1
143	8
144	1
145	1
147	0
148	0
149	1
150	0
151	2
152	2
153	2
154	2
155	4
156	2
157	20
158	2
159	0
160	0
161	1
162	5
163	9
164	2
165	2
166	0
167	1
168	0
169	0
170	0
171	7
172	1
173	0
178	0
179	1
180	5
181	7
183	96
184	13
185	2
186	0
189	0
197	0
198	5
199	7
200	22
201	142
202	19
203	1
211	0
212	0
213	0
223	0
225	0
227	0
239	0
241	0
251	0
252	0
256	0
265	0
267	0
282	0
338	0
340	0
