Mass Spectrum: Diethylene glycol, 2TMS derivative
Formula: C10H26O3Si2
CAS: 16654-74-3
Molecular weight: 250
m/z	intensity
15	2
26	1
27	3
28	6
29	9
30	1
31	5
39	1
41	3
42	4
43	39
44	18
45	89
46	6
47	20
48	1
49	1
51	2
52	6
53	2
55	4
56	1
57	6
58	29
59	76
60	9
61	24
62	1
63	1
66	95
70	4
71	6
72	31
73	999
74	99
75	130
76	8
77	9
80	1
85	2
86	1
87	24
88	44
89	17
90	2
91	1
99	2
101	99
102	14
103	167
104	16
105	8
106	1
110	1
113	1
115	10
116	305
117	603
118	76
119	38
120	3
121	1
131	10
132	2
133	46
134	6
135	4
145	29
146	4
147	167
148	23
149	12
150	1
160	1
163	1
175	1
191	22
192	4
193	2
207	4
208	1
235	6
236	1
237	1
