Mass Spectrum: Glyoxylic acid, phenyl-, 2'-cyanophenyl ester
Formula: C15H9NO3
CAS: 166538-14-3
Molecular weight: 251
m/z	intensity
25	1
27	10
28	1
37	5
38	8
39	28
40	1
41	0
44	0
49	0
50	33
51	125
52	7
53	1
55	0
61	1
62	6
63	22
64	16
65	1
66	0
73	0
74	8
75	12
76	18
77	325
78	23
79	0
86	0
87	0
88	2
89	2
90	26
91	5
92	1
99	0
101	0
102	7
103	0
104	2
105	999
106	74
107	5
108	0
114	0
115	0
118	7
119	2
120	0
125	4
126	0
127	1
139	1
140	1
141	0
166	1
167	1
168	0
178	0
194	0
222	0
223	60
224	9
225	0
243	0
