Mass Spectrum: 2-Phenoxyethylamine, TMS derivative
Formula: C11H19NOSi
CAS: 16654-69-6
Molecular weight: 209
m/z	intensity
41	9
42	39
43	128
44	227
45	148
46	9
47	9
50	19
51	89
52	9
53	9
55	9
56	19
57	19
58	39
59	99
60	9
61	9
62	9
63	19
64	9
65	69
66	29
70	9
71	19
72	29
73	613
74	59
75	59
76	19
77	99
78	19
79	9
86	29
87	9
91	29
92	9
93	9
94	19
95	19
97	29
100	49
101	9
102	999
103	108
104	39
105	9
107	9
108	9
115	29
116	59
117	9
121	9
131	9
135	19
137	39
138	9
146	19
147	118
148	29
149	9
151	247
152	29
153	9
166	19
194	29
195	9
209	19
210	9
