Mass Spectrum: 5.alpha.-Cholan-24-oic acid, 3,7-dioxo-, methyl ester
Formula: C25H38O4
CAS: 16656-68-1
Molecular weight: 402
m/z	intensity
30	138
31	111
32	58
35	4
36	90
37	34
38	69
39	437
40	136
41	999
42	344
43	715
44	444
45	66
46	41
47	11
48	38
49	48
50	94
51	72
52	55
53	194
54	166
55	861
56	361
57	548
58	41
59	97
60	34
61	41
62	13
63	15
64	30
65	80
66	94
67	409
68	194
69	455
70	243
71	254
72	56
73	84
74	111
75	13
76	69
77	138
78	58
79	270
80	97
81	437
82	229
83	347
84	138
85	190
86	25
87	55
88	25
89	36
91	191
92	62
93	245
94	113
95	316
96	163
97	219
98	111
99	62
100	25
101	23
103	34
104	62
105	159
106	58
107	191
108	111
109	280
110	86
111	152
112	62
113	69
115	101
116	40
117	76
118	48
119	100
120	44
121	191
122	86
123	111
124	97
125	83
126	48
127	62
128	69
129	69
131	76
132	58
133	125
134	48
135	131
136	86
137	111
138	34
139	52
140	34
141	76
142	44
143	62
144	41
145	86
146	44
147	100
148	58
149	177
150	163
151	73
152	48
153	38
154	48
155	48
156	34
157	51
158	25
159	97
160	27
161	59
162	38
163	76
164	34
165	48
166	36
167	45
168	34
169	38
170	25
171	58
172	13
173	41
174	25
175	34
176	18
177	76
178	34
179	52
180	34
181	25
182	13
183	38
185	25
187	2
189	34
190	25
191	34
192	881
193	113
194	27
195	30
196	13
197	48
199	25
201	25
203	25
205	162
206	52
207	51
208	44
209	37
210	37
211	76
212	25
213	25
214	13
215	34
216	16
217	66
218	16
219	38
220	16
221	25
222	16
223	16
224	36
225	25
227	43
228	25
229	27
230	16
231	25
232	34
233	37
235	16
236	15
237	25
238	20
241	25
242	36
243	25
244	16
245	191
246	268
247	173
248	38
251	16
252	15
253	25
255	80
256	27
257	30
259	58
260	97
261	41
262	25
263	20
264	16
267	34
268	25
269	280
270	58
271	38
272	41
273	25
274	27
281	38
282	23
283	20
284	18
285	34
286	25
287	188
288	37
292	50
293	16
294	22
295	25
297	25
311	25
312	48
313	27
314	45
315	37
316	25
317	25
327	25
328	30
329	375
330	108
331	27
337	34
340	16
341	20
342	25
352	20
353	111
354	41
355	44
369	44
370	201
371	59
384	94
385	38
387	25
402	555
403	173
404	31
