Mass Spectrum: 5a,6-Anhydrotetracycline
Formula: C22H22N2O7
CAS: 1665-56-1
Molecular weight: 426
m/z	intensity
40	41
41	14
42	131
43	40
44	182
45	20
46	139
55	29
56	11
57	69
58	999
59	32
69	25
70	17
71	50
72	26
82	15
84	199
85	73
86	17
98	185
99	23
100	10
115	38
126	30
127	29
128	22
139	27
140	16
141	11
148	11
151	24
152	38
153	32
154	131
155	18
157	23
162	23
165	20
168	21
169	17
170	254
171	121
178	13
181	16
182	15
185	15
186	51
194	34
195	10
196	10
197	17
210	24
211	35
212	13
213	35
214	65
215	22
221	13
223	11
225	17
226	19
227	26
228	14
238	10
239	38
240	56
241	58
242	27
250	12
252	11
255	35
256	132
257	47
266	39
267	23
268	51
269	19
284	12
292	23
296	18
313	202
314	38
320	32
336	45
337	15
364	68
365	23
366	36
381	12
383	14
391	69
392	37
393	10
408	17
409	115
410	29
426	565
427	140
428	22
