Mass Spectrum: 2,2,2-Trimethoxy-4,5-dimethyl-1,3-dioxaphospholene
Formula: C7H15O5P
CAS: 1665-79-8
Molecular weight: 210
m/z	intensity
41	32
42	21
43	981
45	116
47	206
48	26
49	33
50	6
51	24
52	5
53	40
54	12
55	120
56	11
57	26
58	8
59	21
60	1
61	13
63	50
64	6
65	267
66	268
67	23
68	11
69	28
70	12
71	36
72	16
73	7
74	0
75	5
77	23
78	93
79	135
80	73
81	297
82	48
83	29
84	16
85	39
86	7
87	61
88	33
89	18
91	7
93	21
95	488
96	999
97	52
99	142
100	7
101	6
103	13
104	0
105	2
107	5
109	110
110	212
111	51
112	39
113	174
114	67
115	108
116	7
117	2
118	0
119	1
121	6
122	17
123	278
125	164
126	61
127	528
128	33
129	18
131	28
132	0
133	2
134	0
135	3
136	2
137	8
139	127
140	188
141	121
142	13
143	4
144	0
145	1
147	2
148	0
149	3
150	0
151	6
152	1
153	7
154	8
155	15
157	13
158	0
159	3
161	1
162	0
163	3
165	10
166	4
167	6
169	10
171	10
172	1
173	1
175	1
177	3
178	0
179	2
180	0
181	7
182	31
183	15
191	2
192	2
193	2
194	0
195	4
196	0
209	0
210	2
211	1
