Mass Spectrum: Carbitol, TMS derivative
Formula: C9H22O3Si
CAS: 16654-46-9
Molecular weight: 206
m/z	intensity
14	1
15	9
16	1
19	6
26	4
27	36
28	21
29	98
30	5
31	79
32	1
39	1
41	7
42	6
43	69
44	39
45	614
46	18
47	25
48	1
49	1
51	2
53	1
54	1
55	7
56	2
57	8
58	33
59	146
60	13
61	37
62	2
63	3
70	3
71	6
72	154
73	999
74	82
75	227
76	16
77	19
78	1
79	1
85	2
86	1
87	38
88	15
89	20
90	2
91	1
99	2
101	98
102	16
103	291
104	27
105	12
106	1
115	7
116	249
117	249
118	34
119	41
120	4
121	1
131	1
132	1
133	3
145	26
146	3
147	45
148	5
149	2
160	1
161	2
162	1
163	6
164	1
191	37
192	5
193	2
