Mass Spectrum: WIN 54461
Formula: C23H25BrN2O3
CAS: 166599-63-9
Molecular weight: 456
m/z	intensity
41	4
42	15
43	3
44	5
54	4
55	9
56	52
57	4
63	3
64	5
65	2
70	23
71	3
72	10
75	2
76	5
77	27
78	3
79	2
82	2
89	2
92	18
93	2
98	11
100	999
101	64
102	7
104	2
107	16
108	2
112	2
113	4
114	7
115	12
116	3
121	5
127	4
128	6
129	2
133	2
135	160
136	14
137	2
140	3
141	6
142	4
143	2
150	3
151	4
152	2
154	4
155	2
163	3
164	2
165	3
176	3
177	2
178	2
189	2
190	4
191	6
192	4
193	2
195	2
203	3
204	6
205	4
206	3
207	2
208	2
209	2
216	2
217	2
218	2
219	3
220	5
221	3
222	3
232	2
233	3
234	4
235	2
246	2
247	2
248	3
249	2
260	2
262	3
263	2
276	3
277	2
290	2
314	2
326	2
356	5
357	2
358	5
425	2
426	2
427	2
428	2
440	2
456	9
457	3
458	10
459	2
