Mass Spectrum: Methoxycarbonylmethyldisulfanyl-acetic acid methyl ester
Formula: C6H10O4S2
CAS: 1665-64-1
Molecular weight: 210
m/z	intensity
34	3
35	10
37	1
40	1
42	164
43	78
45	999
46	261
47	85
48	15
49	6
50	1
55	2
56	1
57	9
59	251
60	11
61	32
62	3
63	4
64	43
65	5
66	5
67	1
68	1
72	3
73	17
74	127
75	21
76	9
77	71
78	66
79	23
80	7
81	2
82	1
85	1
86	1
87	1
88	1
89	7
90	1
91	9
92	3
93	17
95	95
96	3
97	9
101	10
102	1
104	64
105	91
106	100
107	44
108	7
109	4
110	1
111	1
113	1
114	1
117	1
119	112
120	7
121	12
123	40
124	2
125	4
132	1
133	5
134	1
135	1
136	8
137	8
138	2
139	1
145	1
146	2
147	1
149	1
151	156
152	11
153	14
154	1
155	1
163	1
164	1
178	205
179	28
180	20
181	3
182	1
210	108
211	10
212	11
213	1
214	1
