Mass Spectrum: 2-(Phenylthio)ethanol, TMS derivative
Formula: C11H18OSSi
CAS: 16654-71-0
Molecular weight: 226
m/z	intensity
41	10
42	20
43	120
44	40
45	350
46	30
47	80
50	30
51	100
52	10
53	10
55	10
57	20
58	60
59	130
60	30
61	40
62	10
63	20
65	120
66	20
69	40
70	10
71	20
72	30
73	999
74	100
75	180
76	20
77	70
78	20
79	10
82	10
83	10
84	10
87	20
88	20
89	10
91	50
92	10
93	10
101	40
102	20
103	390
104	50
105	30
106	10
108	20
109	230
110	130
111	20
112	10
116	20
117	50
118	10
119	20
121	20
123	90
124	10
133	10
134	10
135	60
136	20
137	360
138	40
139	20
147	10
151	20
152	10
153	10
165	20
167	90
168	10
169	10
181	10
196	10
211	470
212	90
213	40
214	10
226	350
227	70
228	30
