Mass Spectrum: Pyrazole, 1,3,4-triphenyl-
Formula: C21H16N2
CAS: 1666-85-9
Molecular weight: 296
m/z	intensity
33	7
34	11
35	0
36	4
37	11
38	37
39	207
40	110
41	74
42	18
43	60
44	31
45	6
46	0
47	3
48	2
49	4
50	158
51	680
52	78
53	13
54	3
55	16
56	10
57	18
58	2
59	2
60	2
62	50
63	156
64	125
65	89
66	14
67	5
69	149
70	13
71	11
73	6
74	56
75	67
76	108
77	999
78	89
79	10
80	5
82	20
83	9
84	5
85	5
86	14
87	26
88	25
89	148
90	70
91	123
92	14
93	5
94	11
95	8
96	5
97	6
98	17
99	10
100	8
101	16
102	58
103	32
104	40
105	123
106	11
107	6
108	8
110	7
111	10
112	7
113	18
114	15
115	31
116	51
117	11
118	10
119	12
121	12
122	5
123	2
124	5
125	6
126	19
127	29
128	15
129	5
130	1
131	4
132	13
134	53
135	21
136	4
137	8
138	8
139	31
140	34
141	6
143	4
144	0
145	2
147	94
148	72
149	39
150	12
151	25
152	45
153	13
154	5
155	1
157	0
160	0
161	3
162	7
163	34
164	37
165	181
166	41
167	11
168	1
170	0
171	4
173	0
174	1
175	3
176	10
177	22
178	38
179	13
180	62
181	9
182	0
185	0
187	17
188	20
189	83
190	77
191	82
192	122
193	34
194	7
195	1
196	2
205	3
206	0
219	33
220	6
221	1
295	478
296	863
297	200
298	22
299	1
