Mass Spectrum: Bicyclo[3.1.0]hexane-6,6-dicarbonitrile
Formula: C8H8N2
CAS: 16668-39-6
Molecular weight: 132
m/z	intensity
24	0
25	2
26	26
27	98
28	49
29	6
30	1
31	0
33	9
34	0
35	1
36	1
37	22
38	33
39	172
40	28
41	999
42	39
43	0
46	2
48	0
49	3
50	27
51	38
52	34
53	24
54	32
55	2
57	9
58	0
59	0
60	0
61	2
62	6
63	16
64	20
65	28
66	22
67	117
68	9
73	0
74	2
75	10
76	20
77	61
78	42
79	12
80	9
81	2
82	0
84	0
87	0
88	1
89	2
90	8
91	6
92	17
93	1
99	0
100	0
101	0
102	3
103	6
104	79
105	50
106	25
107	1
115	1
116	0
117	2
129	0
130	4
131	64
132	33
133	0
