Mass Spectrum: Carbophenothion sulfone
Formula: C11H16ClO4PS3
CAS: 16662-85-4
Molecular weight: 374
m/z	intensity
12	4
13	2
14	12
15	51
16	9
17	30
18	109
19	8
25	3
26	41
27	337
28	112
29	758
30	24
31	19
32	16
33	6
34	9
35	7
36	11
37	5
38	13
39	26
40	2
41	11
42	6
43	54
44	33
45	337
46	193
47	200
48	34
49	15
50	121
51	75
52	5
53	2
54	1
55	3
56	1
57	7
58	8
59	14
60	20
61	31
62	18
63	91
64	34
65	468
66	4
67	3
69	22
70	5
71	5
72	3
73	27
74	49
75	343
76	71
77	57
78	28
79	34
80	53
81	78
82	14
83	6
84	7
85	30
86	4
87	17
88	2
89	22
90	8
91	26
93	173
94	9
95	33
97	999
98	16
99	90
100	6
101	9
102	2
103	1
105	3
106	2
107	10
108	56
109	147
111	343
112	91
113	115
114	29
115	18
117	3
119	1
121	237
122	16
123	15
125	892
126	44
127	90
129	153
131	64
132	3
133	16
134	1
135	1
137	30
139	42
141	79
143	191
144	26
145	24
146	6
147	1
149	1
151	3
153	982
154	86
155	85
157	112
159	368
160	42
161	108
162	12
163	4
168	1
169	3
171	182
172	13
173	23
175	81
176	12
177	37
178	4
179	5
183	49
185	66
186	10
187	21
188	3
189	12
190	2
191	5
192	1
193	1
199	520
200	33
201	43
202	3
203	2
205	2
207	1
208	1
213	1
215	31
216	2
217	3
219	7
220	1
221	3
222	1
224	1
229	6
231	2
245	2
251	1
252	3
254	1
275	1
280	5
282	1
310	2
312	1
329	1
342	2
344	5
346	2
374	4
375	1
376	1
