Mass Spectrum: 2,3-Dimethyl-5-(2,6,10-trimethylundecyl) furan
Formula: C20H36O
CAS: 166773-56-4
Molecular weight: 292
m/z	intensity
53	8
55	40
56	12
57	27
65	8
67	8
69	8
71	8
76	8
78	8
81	8
94	4
95	4
96	4
97	4
107	4
109	999
110	127
111	8
121	8
123	8
135	8
136	38
137	57
292	12
293	8
