Mass Spectrum: 1H-1,2,3-Triazole-4-carboxaldehyde
Formula: C3H3N3O
CAS: 16681-68-8
Molecular weight: 97
m/z	intensity
29	120
40	250
41	120
42	250
68	100
69	270
96	999
97	900
98	60
