Mass Spectrum: 2-(3-Chloropropyl)-1,3-dioxolane
Formula: C6H11ClO2
CAS: 16686-11-6
Molecular weight: 150
m/z	intensity
26	15
27	113
28	136
29	88
30	11
31	28
35	2
36	15
37	3
38	11
39	57
40	14
41	96
42	31
43	68
44	49
45	291
46	9
47	1
48	1
49	18
50	4
51	11
52	2
53	14
54	6
55	36
56	7
57	21
58	21
59	1
60	5
61	3
62	8
63	5
64	3
65	3
67	3
68	2
69	9
70	5
71	23
72	2
73	999
74	32
75	7
77	14
78	2
79	6
81	3
82	2
83	5
84	3
85	36
86	5
87	2
88	4
89	1
91	7
92	3
93	1
95	2
96	1
97	3
98	1
99	3
104	1
105	14
106	1
107	5
115	1
119	1
120	4
121	1
122	1
123	1
149	21
150	2
151	7
152	0
