Mass Spectrum: 4H-1,2,4-Triazol-3-amine, 4-methyl-
Formula: C3H6N4
CAS: 16681-76-8
Molecular weight: 98
m/z	intensity
28	550
41	60
42	820
43	290
53	60
55	60
57	80
69	50
97	100
98	999
99	60
