Mass Spectrum: 1,3,5-Triazin-2-amine, 4-methoxy-6-methyl-
Formula: C5H8N4O
CAS: 1668-54-8
Molecular weight: 140
m/z	intensity
45	8
49	11
51	7
53	38
54	30
55	46
56	97
57	46
58	207
67	54
68	144
69	999
70	41
83	50
84	43
110	416
111	51
139	113
140	305
141	16
