Mass Spectrum: 3H-1,2,4-Triazole-3-thione, 5-amino-1,2-dihydro-
Formula: C2H4N4S
CAS: 16691-43-3
Molecular weight: 116
m/z	intensity
14	3
27	19
28	46
29	29
30	10
31	5
32	46
33	13
34	6
36	7
38	5
39	6
40	3
41	20
42	56
43	197
44	24
45	46
46	22
47	28
52	5
53	28
54	8
55	11
56	5
57	311
58	181
59	89
60	144
61	29
62	10
63	5
64	5
68	8
69	8
70	14
71	5
73	5
74	128
75	6
76	8
84	12
85	91
86	41
87	15
97	6
98	5
99	5
115	5
116	999
117	52
118	24
