Mass Spectrum: Carbonochloridodithioic acid, methyl ester
Formula: C2H3ClS2
CAS: 16696-91-6
Molecular weight: 126
m/z	intensity
32	150
38	40
44	220
45	170
46	50
47	80
48	10
58	20
59	50
60	20
64	10
76	999
77	20
78	80
79	160
81	50
91	420
92	10
93	30
126	270
127	10
128	100
