Mass Spectrum: 7-Dodecenol
Formula: C12H24O
CAS: 16695-40-2
Molecular weight: 184
m/z	intensity
39	221
40	6
41	874
42	182
43	211
44	6
52	11
53	115
54	576
55	999
56	240
57	201
58	8
65	8
66	86
67	759
68	528
69	365
70	86
71	67
72	3
80	54
81	548
82	567
83	163
84	96
85	11
95	34
96	298
97	105
98	8
108	16
109	163
110	134
111	15
122	12
123	56
124	57
125	28
126	3
135	3
136	38
137	39
138	19
139	19
140	2
165	76
166	19
167	2
182	1
183	19
184	2
