Mass Spectrum: Carbamic acid, acetylthio-, O-methyl ester
Formula: C4H7NO2S
CAS: 16696-87-0
Molecular weight: 133
m/z	intensity
42	81
43	999
44	54
45	27
46	13
47	49
48	21
58	190
59	65
60	144
61	376
62	21
63	19
75	54
90	21
91	446
92	27
93	21
118	21
133	490
134	35
135	27
