Mass Spectrum: Thiophene-2-ol, benzoate
Formula: C11H8O2S
CAS: 16693-98-4
Molecular weight: 204
m/z	intensity
27	140
38	60
39	140
45	310
50	210
51	500
53	50
55	210
56	50
69	50
71	100
76	80
77	730
78	140
99	60
105	999
106	350
204	100
