Mass Spectrum: 4-Nonene, 1-bromo-, (E)-
Formula: C9H17Br
CAS: 16695-35-5
Molecular weight: 204
m/z	intensity
41	780
55	999
69	610
81	400
95	140
107	30
109	30
124	20
135	70
148	180
150	180
162	90
164	90
204	100
206	100
