Mass Spectrum: 3-Thiophenecarboxylic acid, 2-amino-4-hydroxy-, ethyl ester
Formula: C7H9NO3S
CAS: 16694-23-8
Molecular weight: 187
m/z	intensity
26	137
27	400
28	171
29	585
30	76
31	202
32	76
39	36
40	242
41	195
42	169
43	250
44	175
45	434
46	222
47	68
60	121
67	56
68	478
69	171
70	44
73	101
74	94
85	262
86	181
87	165
112	40
113	44
114	24
115	999
116	80
117	20
141	56
142	505
143	626
144	50
145	24
187	359
188	54
189	20
