Mass Spectrum: 2H-Pyran, 2-(7-dodecynyloxy)tetrahydro-
Formula: C17H30O2
CAS: 16695-32-2
Molecular weight: 266
m/z	intensity
41	208
42	26
43	118
44	11
45	6
47	1
50	2
51	10
52	19
53	54
54	82
55	205
56	62
57	83
58	11
59	5
60	1
63	2
64	1
65	27
66	22
67	234
68	58
69	81
70	14
71	42
72	5
73	3
74	1
77	34
78	18
79	126
80	40
81	184
82	51
83	58
84	89
85	999
86	60
87	5
88	0
89	1
91	47
92	8
93	83
94	30
95	140
96	85
97	38
98	24
99	11
100	11
101	159
102	9
103	3
104	1
105	18
106	4
107	45
108	14
109	101
110	54
111	25
112	10
113	5
114	1
115	8
116	1
117	3
118	1
119	11
120	3
121	26
122	16
123	29
124	16
125	14
126	5
127	3
128	2
129	2
131	2
132	0
133	11
134	4
135	16
136	8
137	29
138	12
139	10
140	5
141	2
142	1
143	1
145	2
146	0
147	10
148	3
149	8
150	3
151	12
152	6
153	10
154	6
155	5
156	3
157	2
159	1
161	7
162	3
163	7
164	4
165	17
166	10
167	24
168	6
169	13
170	2
171	1
173	2
175	6
176	1
177	3
178	1
179	22
180	10
181	9
182	4
183	5
184	1
185	4
187	1
189	8
190	1
191	4
192	1
193	16
194	7
195	11
196	3
197	6
198	1
199	1
201	1
203	6
204	1
205	4
206	1
207	3
208	1
209	33
210	6
211	2
213	0
215	0
217	4
218	1
219	2
220	0
221	2
222	5
223	12
224	3
225	1
231	1
233	1
235	1
237	3
238	1
239	0
248	0
249	1
251	0
263	0
265	3
266	7
267	2
