Mass Spectrum: 2-(2-Formylethyl)-2,3-dihydro-6-hydroxy-3-oxopyridazine
Formula: C7H8N2O3
CAS: 16705-14-9
Molecular weight: 168
m/z	intensity
13	1
14	2
15	3
17	4
18	23
24	3
25	13
26	106
27	172
28	110
29	84
30	20
31	9
32	2
36	3
37	9
38	15
39	15
40	17
41	38
42	27
43	20
44	16
45	5
50	2
51	17
52	19
53	41
54	227
55	255
56	222
57	67
58	20
59	2
66	3
67	7
68	19
69	29
70	13
71	6
72	1
76	1
77	6
78	23
79	2
80	64
81	5
82	940
83	46
84	43
85	4
86	2
87	16
94	10
95	5
96	4
97	8
98	79
99	5
106	1
109	1
110	5
111	2
112	999
113	77
114	6
121	6
122	6
123	16
124	2
125	56
126	3
133	1
137	1
139	17
140	259
141	19
142	2
149	6
150	15
151	20
152	3
167	1
168	382
169	39
170	4
