Mass Spectrum: Penicillamine, 3TMS derivative
Formula: C14H35NO2SSi3
CAS: 167029-28-9
Molecular weight: 365
m/z	intensity
45	177
59	64
73	999
74	84
75	94
101	58
147	204
218	145
219	63
291	64
