Mass Spectrum: Hexane, 1,1-dichloro-3-methyl-
Formula: C7H14Cl2
CAS: 16703-32-5
Molecular weight: 168
m/z	intensity
14	4
15	39
25	3
26	39
27	407
28	78
29	374
30	9
36	64
38	20
39	250
41	700
42	169
43	999
45	8
49	22
53	120
54	10
55	117
56	58
57	225
59	8
61	24
62	31
63	80
64	10
65	38
66	5
67	201
68	18
69	51
70	527
71	570
72	24
73	5
74	5
75	112
76	19
77	123
78	9
79	27
81	37
83	36
84	4
85	40
87	6
88	6
89	67
90	26
91	29
92	7
95	2
96	13
97	200
98	12
99	2
102	4
103	145
104	14
105	33
106	4
109	1
111	1
117	4
119	2
125	1
132	18
139	11
140	3
141	7
168	5
