Mass Spectrum: Carbonocyanidothioic amide, dimethyl-
Formula: C4H6N2S
CAS: 16703-47-2
Molecular weight: 114
m/z	intensity
41	70
42	430
43	120
44	150
45	90
46	30
47	150
48	10
49	10
51	10
52	20
53	20
55	10
56	20
57	10
58	20
59	10
61	10
66	40
67	240
68	20
69	10
70	730
71	50
72	150
73	70
74	610
75	20
76	30
82	10
87	10
88	90
89	10
90	10
99	90
100	10
101	10
113	10
114	999
115	110
116	50
117	10
