Mass Spectrum: Acetic acid, (dimethylamino)thioxo-, ethyl ester
Formula: C6H11NO2S
CAS: 16703-48-3
Molecular weight: 161
m/z	intensity
41	158
42	29
43	99
44	79
45	9
46	49
55	39
56	19
57	9
58	9
60	19
69	9
70	9
71	118
72	188
73	89
74	9
75	9
87	118
88	999
89	168
90	59
91	9
114	79
115	9
116	39
117	9
132	89
133	9
161	435
162	59
163	19
