Mass Spectrum: 3,3-Tetramethyleneglutaric acid
Formula: C9H14O4
CAS: 16713-66-9
Molecular weight: 186
m/z	intensity
15	5
18	6
26	10
27	100
29	67
30	2
31	20
32	4
36	4
37	5
38	18
39	264
40	57
41	312
42	129
43	137
44	14
45	119
46	8
47	6
49	4
50	30
51	63
52	38
53	178
54	111
55	177
56	43
57	47
58	11
59	11
60	133
61	34
62	10
63	22
64	5
65	61
66	115
67	999
68	97
69	55
70	21
71	34
72	8
73	12
74	12
75	10
76	2
77	81
78	24
79	182
80	173
81	454
82	193
83	108
84	62
85	98
86	12
87	5
89	6
91	26
92	8
93	30
94	38
95	95
96	90
97	70
98	115
99	43
100	7
101	17
102	3
103	6
104	3
105	5
106	16
107	20
108	166
109	587
110	50
111	47
112	41
113	8
114	3
115	4
117	3
118	3
119	12
120	15
121	28
122	62
123	17
124	63
125	28
126	365
127	372
128	58
129	6
130	2
131	6
133	4
135	11
136	3
137	6
138	6
139	34
140	149
141	17
142	3
143	37
144	3
145	2
150	18
151	3
152	4
153	5
154	6
155	9
156	3
157	4
159	3
165	83
166	10
168	70
169	16
170	4
183	3
184	2
185	3
186	8
187	7
188	4
189	3
190	2
