Mass Spectrum: 1,7-Octadiene, 2,7-dimethyl-3,6-bis(methylene)-
Formula: C12H18
CAS: 16714-60-6
Molecular weight: 162
m/z	intensity
26	10
27	266
28	14
29	150
30	1
31	6
32	6
33	2
34	1
35	0
36	3
37	6
38	19
39	421
40	88
41	713
42	32
43	39
44	2
45	0
46	1
49	0
50	24
51	84
52	64
53	313
54	30
55	221
56	10
57	4
58	8
59	3
60	4
63	22
64	10
65	97
66	61
67	159
68	70
69	50
70	7
71	1
72	3
73	1
74	3
75	8
76	9
77	203
78	47
79	999
80	87
81	113
82	15
83	7
84	2
87	2
88	3
89	14
90	6
91	374
92	76
93	263
94	97
95	26
96	8
97	3
98	2
101	2
102	1
103	21
104	13
105	322
106	173
107	217
108	28
109	38
110	4
115	18
116	13
117	34
118	11
119	304
120	185
121	78
122	11
127	2
128	11
129	7
130	14
131	23
132	14
133	105
134	103
135	12
141	4
143	6
145	16
146	6
147	275
148	32
151	2
158	2
160	1
161	2
162	37
163	5
