Mass Spectrum: Propanal, (1-methylethyl)hydrazone
Formula: C6H14N2
CAS: 16713-38-5
Molecular weight: 114
m/z	intensity
27	158
28	117
29	156
30	54
31	16
39	80
40	21
41	176
42	109
43	189
44	711
45	26
54	31
55	20
56	101
57	73
58	61
69	8
71	40
72	10
99	999
100	66
113	16
114	333
115	71
