Mass Spectrum: 3,6-Di-2-pyridyl-1,2-dihydro-1,2,4,5-tetrazine
Formula: C12H10N6
CAS: 1671-86-9
Molecular weight: 238
m/z	intensity
50	40
51	180
52	70
76	30
77	50
78	470
79	180
104	70
105	999
106	130
238	940
239	160
