Mass Spectrum: 2-Dimethylaminomethyl-4-chloro-1-naphthol
Formula: C13H14ClNO
CAS: 167163-22-6
Molecular weight: 235
m/z	intensity
42	127
44	999
45	501
49	9
50	30
51	15
52	2
53	4
55	10
56	0
57	1
58	47
61	0
62	0
63	45
65	2
68	1
69	1
70	1
71	2
73	3
74	11
75	40
76	1
77	32
81	1
82	0
84	13
85	5
86	7
87	7
89	2
91	2
92	1
94	0
96	1
97	0
98	3
99	4
100	3
101	24
102	0
110	3
111	1
113	8
114	6
115	12
118	4
123	1
125	7
126	26
127	98
128	4
129	4
132	1
136	1
137	0
139	1
140	2
141	1
143	0
148	0
149	3
151	3
152	1
155	24
157	3
162	56
163	1
164	24
168	1
175	0
176	0
178	4
180	0
183	0
184	1
186	0
190	45
191	0
192	33
193	3
194	1
198	0
203	1
205	1
217	0
219	1
222	0
232	0
235	53
237	23
238	1
