Mass Spectrum: 4H-1,2,4-Triazol-4-amine, 3,5-di-2-pyridinyl-
Formula: C12H10N6
CAS: 1671-88-1
Molecular weight: 238
m/z	intensity
37	18
38	27
39	51
40	8
41	8
42	2
43	1
48	1
49	8
50	88
51	305
52	147
53	52
54	4
55	0
56	1
57	1
60	0
61	11
62	21
63	41
64	50
65	13
66	4
67	3
68	0
73	0
74	3
75	20
76	50
77	72
78	725
79	381
80	23
81	0
84	0
86	1
87	3
88	7
89	5
90	12
91	5
92	7
93	1
94	0
97	1
98	0
99	0
100	1
101	1
102	1
103	9
105	999
106	98
107	4
113	1
114	1
115	1
116	1
117	2
118	1
119	0
120	1
128	0
129	0
132	4
133	7
134	2
139	1
140	2
141	1
142	1
154	1
155	3
156	1
165	1
166	3
167	3
168	2
169	3
170	0
172	1
181	2
182	7
183	3
184	1
192	1
193	10
194	19
195	5
196	1
197	1
207	0
208	1
209	10
210	2
211	0
221	0
223	7
224	2
238	862
239	136
240	9
241	0
