Mass Spectrum: Acetonitrile, 2,2'-[(phenylmethyl)imino]bis-
Formula: C11H11N3
CAS: 16728-92-0
Molecular weight: 185
m/z	intensity
62	70
64	240
66	130
76	40
88	70
89	40
90	999
91	450
92	30
102	20
103	20
106	20
107	140
108	10
115	20
116	20
117	20
142	20
144	30
156	10
158	20
184	60
185	440
186	55
