Mass Spectrum: 1,2,5-Oxadiazole, 3-amino-4-(1H-tetrazol-5-yl)-
Formula: C3H3N7O
CAS: 167281-96-1
Molecular weight: 153
m/z	intensity
33	3
34	1
36	5
37	5
38	112
39	127
40	170
41	114
42	173
43	86
44	313
45	4
46	0
50	14
51	29
52	43
53	634
54	167
55	25
56	2
58	258
59	6
60	1
61	0
63	2
64	9
65	27
66	78
67	41
68	162
69	98
70	14
71	4
72	0
73	0
75	0
76	0
77	0
78	9
79	3
80	9
81	37
82	209
83	49
84	29
85	3
86	0
87	0
90	0
91	0
92	0
93	1
96	999
97	36
98	1
99	0
101	0
102	0
105	0
106	0
109	70
110	30
111	7
112	2
113	0
115	0
118	0
120	0
121	0
122	0
123	1
125	177
126	8
128	5
129	0
135	0
137	0
138	0
139	0
148	0
149	2
150	0
153	357
154	23
155	1
156	0
157	0
