Mass Spectrum: 2(5H)-Furanone, 4-benzyl-
Formula: C11H10O2
CAS: 16720-76-6
Molecular weight: 174
m/z	intensity
26	13
27	67
29	30
30	2
31	2
37	13
38	40
39	236
40	28
41	28
42	2
43	4
44	6
48	4
49	5
50	61
51	154
52	23
53	20
54	2
55	23
56	3
57	21
58	33
61	12
62	38
63	104
64	33
65	167
66	13
67	59
68	243
69	13
72	4
73	5
74	26
75	22
76	14
77	42
78	65
79	9
83	10
85	5
86	9
87	14
88	7
89	66
90	13
91	417
92	38
94	2
95	2
96	999
97	64
98	7
101	2
102	17
103	16
104	8
105	13
111	2
113	12
114	13
115	234
116	102
117	110
118	14
119	1
126	2
127	72
128	50
129	69
130	23
131	35
132	14
144	10
145	83
146	11
155	2
156	3
157	4
158	3
173	3
174	90
175	8
