Mass Spectrum: 1-Propanamine, 3-propoxy-
Formula: C6H15NO
CAS: 16728-59-9
Molecular weight: 117
m/z	intensity
14	2
15	17
16	1
17	3
18	5
26	11
27	131
28	152
29	91
30	999
31	175
32	13
33	1
37	1
38	4
39	63
40	12
41	280
42	111
43	453
44	205
45	71
46	9
47	5
51	1
52	1
53	1
54	9
55	13
56	545
57	652
58	537
59	203
60	58
61	4
67	1
68	3
69	4
70	6
71	7
72	20
73	14
74	281
75	25
76	1
84	1
85	1
86	2
87	3
88	6
89	2
100	259
101	17
102	4
115	1
116	2
117	7
118	3
