Mass Spectrum: 4H-1-Benzothiopyran-4-one, 2,3-dihydro-3-methyl-, 1,1-dioxide
Formula: C10H10O3S
CAS: 16723-50-5
Molecular weight: 210
m/z	intensity
50	250
51	70
70	20
71	20
75	30
76	30
77	270
78	40
96	10
97	20
104	999
105	80
116	20
131	20
146	20
152	30
169	370
170	40
210	30
