Mass Spectrum: Quinoline, decahydro-1-methyl-, cis-
Formula: C10H19N
CAS: 16726-25-3
Molecular weight: 153
m/z	intensity
39	30
41	40
42	70
53	30
54	20
55	30
67	30
68	20
70	20
79	20
81	20
82	40
96	90
97	70
110	999
111	80
124	20
152	30
153	100
154	20
