Mass Spectrum: 1,3-Dioxolane, 2,2-dimethyl-4-[(octadecyloxy)methyl]-
Formula: C24H48O3
CAS: 16725-43-2
Molecular weight: 384
m/z	intensity
18	10
27	14
28	42
29	42
30	2
31	4
32	14
39	16
40	2
41	105
42	35
43	252
44	16
45	6
54	6
55	105
56	31
57	210
58	23
59	42
61	14
67	16
68	10
69	67
70	21
71	86
72	33
73	42
75	10
81	12
82	14
83	63
84	16
85	67
86	18
87	46
95	6
96	4
97	35
98	4
99	35
100	16
101	999
102	58
103	2
111	16
113	10
115	4
116	4
117	6
127	10
250	8
251	4
281	12
308	10
325	21
326	6
353	10
369	644
370	105
371	12
