Mass Spectrum: Pentanenitrile, 5-phenoxy-
Formula: C11H13NO
CAS: 16728-56-6
Molecular weight: 175
m/z	intensity
37	3
38	13
39	94
40	21
41	43
42	5
43	1
44	0
45	0
50	16
51	61
52	10
53	16
54	20
55	78
56	3
57	0
58	0
59	2
60	0
61	1
62	6
63	23
64	14
65	108
66	125
67	8
68	2
69	0
70	7
71	0
72	0
73	0
74	5
75	4
77	134
78	15
79	21
80	4
82	58
83	3
84	0
86	0
88	4
89	0
91	14
92	6
94	999
95	116
96	9
97	4
102	0
103	2
104	3
105	11
106	31
107	42
108	3
109	0
115	1
116	0
117	2
118	14
119	100
120	11
121	2
122	0
123	0
127	0
128	0
129	0
130	3
131	2
132	8
133	14
134	4
135	8
136	0
141	0
142	0
143	0
144	0
146	17
147	4
148	0
175	639
176	110
177	9
178	0
