Mass Spectrum: Retinol, TMS derivative
Formula: C23H38OSi
CAS: 16729-17-2
Molecular weight: 358
m/z	intensity
41	258
42	20
43	134
44	134
45	96
46	8
47	23
50	23
51	21
52	10
53	61
54	8
55	250
56	19
57	50
58	35
59	32
60	15
61	11
63	10
64	4
65	34
66	9
67	71
68	13
69	306
70	25
71	21
72	11
73	999
74	97
75	239
76	35
77	102
78	23
79	97
80	20
81	157
82	16
83	73
84	13
85	21
86	3
87	2
88	2
89	15
90	2
91	166
92	32
93	141
94	23
95	122
96	13
97	23
98	3
99	3
101	9
102	2
103	120
104	21
105	211
106	38
107	122
108	21
109	38
110	9
111	39
112	3
113	3
115	39
116	21
117	60
118	21
119	226
120	56
121	82
122	15
123	47
124	3
125	3
127	11
128	35
129	67
130	740
131	95
132	73
133	88
134	21
135	21
136	4
137	21
139	6
141	34
142	32
143	108
144	38
145	128
146	23
147	39
148	8
149	17
151	4
152	7
153	16
154	9
155	35
156	32
157	94
158	23
159	78
160	11
161	47
162	8
163	9
165	22
166	10
167	23
168	384
169	106
170	38
171	71
172	15
173	58
174	11
175	46
176	11
177	11
178	10
179	9
180	9
181	50
182	15
183	54
184	15
185	70
186	20
187	20
188	3
189	9
193	23
194	11
195	11
196	3
197	46
198	15
199	47
200	9
201	3
202	3
207	21
208	14
209	13
210	3
211	14
212	9
213	11
219	10
220	9
221	83
222	23
223	9
225	11
227	3
233	9
234	9
235	2
239	4
247	4
253	47
254	15
255	226
256	47
257	3
263	6
265	3
267	23
268	57
269	21
285	3
343	13
344	4
358	136
359	45
360	11
