Mass Spectrum: 1,3-Dioxolane, 4-[[(2-methoxy-4-octadecenyl)oxy]methyl]-2,2-dimethyl-
Formula: C25H48O4
CAS: 16725-41-0
Molecular weight: 412
m/z	intensity
14	11
15	11
16	11
17	11
18	144
26	11
27	104
28	121
29	231
30	17
31	75
32	11
33	28
34	28
38	46
39	115
40	17
41	462
42	127
43	919
44	127
45	300
48	17
50	17
51	23
53	63
54	115
55	468
56	121
57	578
58	225
59	341
60	17
61	57
64	17
65	17
66	17
67	300
68	75
69	341
70	92
71	999
72	167
73	658
74	57
75	167
77	17
78	52
79	115
80	98
81	387
82	115
83	352
84	109
85	185
86	80
87	190
88	23
89	17
91	57
92	34
93	86
94	57
95	352
96	109
97	393
98	86
99	393
100	161
101	814
102	57
103	75
105	28
107	57
108	17
109	225
110	57
111	167
112	46
113	109
114	52
115	138
116	5
117	109
118	17
119	11
120	69
121	17
122	144
123	52
124	57
125	17
126	57
127	17
128	46
