Mass Spectrum: Furazan-3-carboximide acid hydrazide, 4-amino-
Formula: C3H6N6O
CAS: 167281-92-7
Molecular weight: 142
m/z	intensity
33	24
38	57
39	79
40	226
41	214
42	430
43	558
44	180
45	17
48	0
50	3
51	14
53	456
54	181
55	340
56	114
57	144
58	346
59	40
60	2
64	4
65	11
66	43
68	429
69	75
70	48
71	42
72	1
77	2
79	0
80	4
81	7
82	10
83	42
85	999
86	32
95	8
96	0
97	3
98	10
99	0
100	0
105	1
110	5
111	11
112	5
142	630
143	28
