Mass Spectrum: Retroretinol, TMS derivative
Formula: C23H38OSi
CAS: 16729-20-7
Molecular weight: 358
m/z	intensity
41	190
42	17
43	150
45	67
47	17
50	19
51	19
52	10
53	51
54	10
55	173
56	24
57	51
58	32
59	64
60	15
61	17
63	12
64	3
65	32
66	10
67	65
68	12
69	122
70	13
71	20
72	15
73	999
74	91
75	190
76	34
77	112
78	20
79	86
80	20
81	169
82	17
83	43
84	12
85	17
87	3
88	3
89	20
90	3
91	183
92	34
93	138
94	20
95	391
96	32
97	20
98	3
99	3
101	20
102	3
103	294
104	41
105	192
106	32
107	138
108	19
109	100
110	12
111	13
113	3
115	51
116	20
117	51
118	36
119	195
120	48
121	224
122	53
123	67
124	3
125	13
127	20
128	36
129	58
130	29
131	74
132	29
133	256
134	50
135	53
136	12
137	10
139	5
141	34
142	34
143	83
144	34
145	138
146	34
147	86
148	22
149	20
150	3
151	3
152	15
153	17
154	13
155	34
156	25
157	121
158	27
159	121
160	20
161	38
162	13
163	12
164	3
165	17
166	3
167	17
168	20
169	224
170	53
171	65
172	20
173	58
174	17
175	15
179	13
181	17
182	13
183	34
184	22
185	65
186	20
187	50
188	10
189	17
193	10
194	17
195	17
196	12
197	38
198	12
199	105
200	20
201	13
207	13
209	12
210	3
211	20
212	15
213	27
214	5
221	5
223	5
225	17
227	3
235	12
239	3
240	5
253	17
254	5
255	55
256	12
290	12
343	20
344	3
358	558
359	169
360	51
361	5
