Mass Spectrum: Butanenitrile, 4-(cyanomethylimino)-
Formula: C6H7N3
CAS: 167320-01-6
Molecular weight: 121
m/z	intensity
25	6
26	59
27	147
28	133
29	43
30	22
37	21
38	43
39	92
40	421
41	176
42	25
43	11
50	5
51	29
52	76
53	60
54	278
55	422
56	82
57	11
63	8
64	16
65	8
66	55
67	999
68	63
69	23
71	5
72	4
76	6
78	14
80	37
81	291
82	19
91	4
92	7
93	100
94	144
95	27
119	7
120	36
121	20
122	9
