Mass Spectrum: 1,1-Cyclopropanedicarbonitrile, 2-butyl-2-methyl-
Formula: C10H14N2
CAS: 16738-89-9
Molecular weight: 162
m/z	intensity
26	30
27	420
28	120
29	320
30	10
31	1
32	9
36	2
37	10
38	30
39	340
40	60
41	740
42	630
43	600
44	20
45	9
46	3
49	2
50	20
51	60
52	60
53	100
54	80
55	999
56	750
57	80
58	5
61	2
62	8
63	20
64	30
65	60
66	60
67	100
68	40
69	550
70	80
71	3
74	2
75	9
76	20
77	50
78	40
79	220
80	80
81	60
82	30
83	60
84	360
85	20
86	1
87	1
88	3
89	5
90	9
91	30
92	50
93	90
94	80
95	20
96	9
97	7
98	1
99	1
101	1
102	3
103	8
104	20
105	120
106	70
107	60
108	340
109	40
110	3
115	2
116	6
117	6
118	20
119	110
120	90
121	40
122	40
123	2
128	1
129	2
130	7
131	8
132	10
133	40
134	20
135	8
136	3
143	1
144	3
145	5
146	4
147	40
148	3
159	1
161	10
162	5
163	6
