Mass Spectrum: 1,1-Cyclopropanedicarbonitrile, 2-methyl-2-propyl-
Formula: C9H12N2
CAS: 16738-88-8
Molecular weight: 148
m/z	intensity
26	20
27	230
28	90
29	200
30	9
32	1
37	10
38	20
39	240
40	50
41	360
42	600
43	130
44	30
49	4
50	20
51	50
52	60
53	80
54	50
55	999
56	90
57	20
58	1
61	3
62	8
63	20
64	30
65	40
66	40
67	60
68	40
69	110
71	60
72	1
74	1
75	8
76	20
77	40
78	40
79	200
80	50
81	30
82	10
83	5
84	2
87	1
88	2
89	4
90	7
91	20
92	40
93	40
94	40
95	20
96	3
102	2
103	4
104	20
105	80
106	60
107	40
108	80
109	6
116	3
117	2
118	9
119	40
120	30
121	20
122	3
123	1
130	3
131	4
132	5
133	40
134	4
145	1
147	10
148	5
149	8
