Mass Spectrum: 1,1-Cyclopropanedicarbonitrile, 2-methyl-2-pentyl-
Formula: C11H16N2
CAS: 16738-90-2
Molecular weight: 176
m/z	intensity
26	30
27	370
28	120
29	620
30	20
31	2
37	7
38	20
39	310
40	60
41	960
42	290
43	480
44	20
45	2
49	1
50	20
51	50
52	60
53	100
54	120
55	790
56	999
57	430
58	20
61	1
62	5
63	20
64	30
65	80
66	60
67	90
68	70
69	820
70	420
71	40
74	1
75	6
76	20
77	50
78	40
79	220
80	80
81	110
82	30
83	80
84	20
85	2
88	2
89	4
90	10
91	30
92	60
93	100
94	130
95	60
96	20
97	40
98	120
99	10
102	3
103	7
104	20
105	130
106	80
107	80
108	440
109	40
110	6
111	2
115	1
116	6
117	9
118	20
119	160
120	80
121	40
122	330
123	30
124	3
129	1
130	7
131	10
132	10
133	90
134	80
135	20
136	20
137	2
143	2
144	9
145	10
146	9
147	60
148	20
149	6
150	3
157	1
158	3
159	4
160	4
161	60
162	2
163	1
173	1
174	1
175	30
176	7
177	9
