Mass Spectrum: 1,3-Dioxane, 4,6-bis(1-methylethyl)-, trans-
Formula: C10H20O2
CAS: 16731-94-5
Molecular weight: 172
m/z	intensity
41	40
42	80
43	600
53	90
55	300
56	50
57	200
60	30
68	140
69	370
70	150
71	20
72	110
75	20
81	750
82	60
85	40
88	90
99	999
100	90
128	140
129	760
130	70
170	30
172	20
