Mass Spectrum: Cyclopropane, 2-methylene-1-pentyl-1-trimethylsilyl-
Formula: C12H24Si
CAS: 167300-47-2
Molecular weight: 196
m/z	intensity
26	1
27	10
29	2
30	1
31	8
33	0
39	10
40	1
41	20
42	2
43	31
44	13
45	71
46	4
47	2
51	3
52	1
53	5
54	1
55	11
56	1
57	6
58	11
59	95
60	8
61	3
65	3
66	1
67	5
68	2
69	8
70	2
71	8
72	15
73	999
74	96
75	44
76	2
77	5
78	1
79	10
80	2
81	4
82	1
83	14
84	3
85	15
86	3
87	6
91	3
92	1
93	16
94	3
95	8
96	5
97	14
98	8
99	19
100	2
101	1
105	0
107	3
108	1
109	7
110	1
111	13
112	6
113	6
114	5
115	1
121	3
122	21
123	6
124	1
125	14
126	2
127	4
128	3
137	2
139	36
140	8
141	2
142	1
153	14
154	8
155	6
156	1
167	5
181	6
182	1
196	6
197	0
