Mass Spectrum: m-Dioxane, 4,6-di-sec-butyl-
Formula: C12H24O2
CAS: 16731-97-8
Molecular weight: 200
m/z	intensity
41	570
42	60
43	380
44	70
45	60
55	270
56	90
57	500
67	50
68	840
70	80
80	30
81	170
83	50
84	270
85	100
87	40
92	20
95	360
96	60
110	20
113	999
114	70
142	140
143	790
144	70
