Mass Spectrum: Benzenemethanol, .alpha.-(chloromethyl)-
Formula: C8H9ClO
CAS: 1674-30-2
Molecular weight: 156
m/z	intensity
14	1
15	5
16	1
17	1
18	3
26	2
27	15
28	4
29	13
30	1
31	1
32	1
35	1
36	1
37	3
38	8
39	32
40	3
41	4
42	2
43	20
44	2
45	2
46	1
47	1
48	1
49	18
50	39
51	101
52	22
53	12
54	1
55	2
56	1
57	1
59	1
60	1
61	3
62	8
63	18
64	3
65	19
66	2
67	1
68	1
69	1
70	1
72	1
73	3
74	13
75	11
76	10
77	248
78	49
79	420
80	28
81	2
82	1
83	1
84	1
85	1
86	1
87	2
88	1
89	8
90	2
91	38
92	5
93	1
94	1
95	1
96	1
97	1
98	1
99	1
100	1
101	3
102	7
103	35
104	13
105	38
106	7
107	999
108	78
109	5
110	1
111	1
112	1
113	1
114	1
115	1
117	1
118	1
119	1
120	7
121	4
122	1
123	1
124	1
125	11
126	2
127	4
128	1
129	1
130	1
133	1
135	1
136	1
137	1
155	1
156	58
157	5
158	19
159	1
164	1
