Mass Spectrum: Hexadecanoic acid, 2-hydroxy-, methyl ester
Formula: C17H34O3
CAS: 16742-51-1
Molecular weight: 286
m/z	intensity
25	1
26	5
27	116
29	415
30	23
31	64
33	100
34	4
36	3
37	0
38	2
39	82
41	761
42	145
43	999
44	147
45	53
46	1
47	3
48	1
49	2
50	3
51	4
53	44
54	96
55	828
56	170
57	875
58	62
59	86
60	9
61	36
62	2
63	1
65	10
66	21
67	220
68	133
69	828
70	114
71	390
72	33
73	10
74	67
75	11
76	28
77	16
78	1
79	36
80	13
81	181
82	154
83	772
84	89
85	201
86	18
87	113
88	16
89	46
90	517
91	22
92	4
93	13
94	8
95	162
96	91
97	670
98	90
99	38
100	12
101	22
103	177
104	13
105	5
106	2
107	2
108	3
109	70
110	31
111	305
112	37
113	110
114	35
115	11
116	1
117	2
118	1
119	1
120	0
121	2
122	3
123	26
124	23
125	124
126	24
127	128
128	20
137	19
138	22
139	42
140	14
141	27
142	9
143	9
145	81
146	10
147	2
148	1
149	2
150	0
151	9
152	13
153	13
154	2
155	3
156	18
157	7
159	18
202	1
204	1
207	3
208	16
209	4
210	2
211	2
212	2
213	3
214	0
216	0
218	0
219	1
220	0
221	0
222	1
223	1
225	14
227	244
228	38
229	3
241	11
242	1
254	9
255	3
266	1
267	1
286	34
287	9
