Mass Spectrum: 1-Di(t-butyl)silyloxypropane
Formula: C11H26OSi
CAS: 167567-66-0
Molecular weight: 202
m/z	intensity
25	7
26	32
27	306
28	44
29	439
30	15
31	39
36	15
37	17
38	28
39	251
40	39
41	504
42	45
43	128
44	49
45	685
46	71
47	149
48	6
49	7
50	55
51	105
52	69
53	39
55	55
56	92
57	329
58	108
59	288
60	65
61	735
62	55
63	45
64	7
65	12
69	12
70	6
71	29
73	149
74	19
75	769
76	59
77	132
78	29
79	223
80	22
85	35
86	12
87	207
88	45
89	49
90	15
91	39
92	8
95	13
96	6
99	7
101	8
103	361
104	39
105	12
106	6
107	99
108	115
109	8
115	6
116	15
117	999
118	105
119	49
144	79
145	381
146	69
147	19
202	27
203	5
204	3
