Mass Spectrum: Silane, ethenyldimethoxymethyl-
Formula: C5H12O2Si
CAS: 16753-62-1
Molecular weight: 132
m/z	intensity
31	29
45	103
59	142
60	22
61	68
71	39
74	31
75	340
76	29
77	24
85	19
86	17
87	305
88	40
89	7
91	102
92	9
101	48
105	273
106	17
107	8
117	999
118	123
119	47
120	7
132	13
