Mass Spectrum: Orthoformic acid, tri-sec-butyl ester
Formula: C13H28O3
CAS: 16754-48-6
Molecular weight: 232
m/z	intensity
40	10
41	240
42	20
43	60
44	20
45	410
46	10
47	30
50	10
51	10
53	10
54	10
55	40
56	90
57	999
58	50
59	80
63	10
71	10
73	40
74	10
75	10
103	580
104	30
119	12
159	80
160	6
175	2
231	4
