Mass Spectrum: 4H-1,2,4-Triazole, 3,4,5-trimethyl-
Formula: C5H9N3
CAS: 16759-45-8
Molecular weight: 111
m/z	intensity
55	265
56	15
57	635
58	33
59	9
60	3
61	4
63	6
64	11
66	36
67	27
68	44
69	261
70	16
73	10
75	5
77	3
80	7
86	6
91	30
96	19
97	17
109	81
110	999
111	257
