Mass Spectrum: Orthoformic acid, triisobutyl ester
Formula: C13H28O3
CAS: 16754-49-7
Molecular weight: 232
m/z	intensity
41	190
42	20
43	40
55	20
56	40
57	999
58	50
103	130
159	90
