Mass Spectrum: Benzene, (2,2,2-triethoxyethyl)-
Formula: C14H22O3
CAS: 16754-56-6
Molecular weight: 238
m/z	intensity
41	50
42	10
43	35
44	10
45	30
50	25
51	55
52	20
62	20
63	55
64	20
65	135
66	5
75	5
77	30
78	10
79	10
89	40
90	35
91	999
92	115
103	5
105	35
107	5
117	5
118	20
119	70
120	5
126	10
127	5
164	5
165	145
166	15
