Mass Spectrum: N-Benzyloxycarbonyl-l-serine, methyl ester
Formula: C12H15NO5
CAS: 1676-81-9
Molecular weight: 253
m/z	intensity
12	2
13	4
14	19
15	210
16	6
17	1
18	4
19	1
24	0
26	9
27	33
28	185
29	79
30	68
31	158
32	11
33	45
34	1
37	3
38	12
39	82
40	12
41	36
42	51
43	21
44	13
45	15
47	0
50	23
51	56
52	17
53	6
54	2
55	11
56	6
57	4
58	22
59	49
60	32
61	4
62	11
63	42
65	176
66	11
67	0
68	1
69	4
70	4
71	5
72	2
73	2
74	9
75	4
77	68
78	14
79	71
80	6
81	0
83	2
85	4
86	36
87	5
88	27
89	51
91	999
92	94
93	4
100	3
101	3
102	1
103	4
104	4
105	16
107	56
108	197
109	15
110	1
112	0
114	2
115	1
116	1
117	1
118	8
119	1
120	3
121	1
130	1
131	3
132	10
133	1
134	0
144	0
145	1
146	5
147	0
150	22
151	2
152	0
161	2
162	24
163	3
164	4
165	0
176	0
178	0
180	0
181	1
194	6
195	0
210	2
211	0
223	1
224	0
253	2
254	0
