Mass Spectrum: 8-(2-Nitrophenoxy)octan-1-ol
Formula: C14H21NO4
CAS: 167685-26-9
Molecular weight: 267
m/z	intensity
27	38
28	27
29	117
30	13
31	97
36	4
38	6
39	68
40	12
41	483
42	81
43	239
44	42
45	36
50	7
51	28
52	15
53	41
54	61
55	797
56	89
57	179
58	13
59	18
60	10
61	4
63	22
64	29
65	58
66	43
67	232
68	225
69	999
70	157
71	118
72	11
73	39
74	4
75	45
76	15
77	30
78	49
79	66
80	33
81	263
82	191
83	133
84	39
85	52
86	7
87	5
91	18
92	34
93	40
94	48
95	104
96	31
97	39
98	18
99	18
100	11
101	7
103	4
104	4
105	11
106	63
107	40
108	20
109	234
110	101
111	289
112	31
113	17
115	6
117	4
119	8
120	44
121	12
122	68
123	270
124	44
125	31
126	8
127	56
128	10
129	187
130	16
131	11
132	4
133	9
134	5
135	8
137	7
138	16
139	331
140	47
141	9
143	9
145	14
146	5
147	5
148	12
155	18
156	4
162	7
164	3
173	26
174	5
190	7
219	20
220	22
221	3
237	33
238	5
267	21
268	4
