Mass Spectrum: N-Cbz-O-t-butyl-L-serine
Formula: C15H21NO5
CAS: 1676-75-1
Molecular weight: 295
m/z	intensity
15	10
17	1
18	5
26	4
27	30
28	41
29	80
30	6
31	12
37	4
38	9
39	69
40	14
41	228
42	50
43	33
44	33
45	3
46	1
49	2
50	23
51	49
52	13
53	26
54	8
55	36
56	78
57	821
58	42
59	177
60	12
61	2
62	6
63	13
64	4
65	50
66	4
69	5
70	13
71	3
72	6
73	6
74	22
75	6
76	4
77	127
78	31
79	279
80	24
81	2
83	9
84	3
85	2
86	43
87	85
88	7
89	28
90	35
91	999
92	116
93	6
97	1
100	13
101	21
102	1
103	1
104	9
105	20
106	9
107	331
108	390
109	30
110	2
111	1
113	1
114	7
116	4
118	6
119	1
120	2
128	1
130	6
131	2
132	20
133	4
140	2
147	5
148	219
149	22
150	11
151	2
152	3
156	1
157	14
158	1
160	2
163	1
164	8
165	4
167	1
172	58
173	5
176	1
177	6
178	2
179	1
188	1
194	6
196	1
209	220
210	24
211	3
222	12
223	1
238	17
239	78
240	14
241	2
250	1
265	19
266	3
295	1
296	1
