Mass Spectrum: N(6)-(5-(1,2-Dithiolan-3-yl)valeryl)-l-lysine
Formula: C14H26N2O3S2
CAS: 1676-89-7
Molecular weight: 334
m/z	intensity
13	1
14	5
15	9
16	26
17	5
18	14
24	2
25	8
26	72
27	145
28	194
29	82
30	400
31	12
32	99
33	100
34	290
35	8
36	17
37	11
38	23
39	166
40	57
41	381
42	80
43	118
44	558
45	104
46	38
47	38
48	6
49	7
50	23
51	44
52	66
53	123
54	114
55	326
56	178
57	55
58	40
59	96
60	39
61	28
62	9
63	14
64	102
65	65
66	72
67	232
68	108
69	101
70	64
71	33
72	244
73	97
74	38
75	12
76	9
77	47
78	37
79	136
80	82
81	153
82	170
83	351
84	999
85	113
86	320
87	100
88	10
89	11
90	7
91	47
92	21
93	75
94	36
95	131
96	47
97	65
98	48
99	53
100	208
101	95
102	17
103	61
104	16
105	91
106	17
107	16
108	13
109	16
110	33
111	32
112	60
113	63
114	60
115	133
116	30
117	14
118	14
119	14
120	15
121	22
122	23
123	69
124	28
125	81
126	33
127	100
128	117
129	55
130	92
131	13
132	8
133	6
134	9
135	7
136	19
137	17
138	48
139	15
140	44
141	17
142	28
143	9
144	136
145	15
146	11
147	66
148	10
149	8
150	7
151	7
152	17
153	11
154	22
155	169
156	29
157	111
158	21
159	9
160	14
161	60
162	10
163	7
164	7
165	7
166	10
167	6
168	18
169	11
170	10
171	26
172	17
173	9
174	9
175	4
176	9
177	3
178	6
179	6
180	9
181	7
182	16
183	12
184	6
185	14
186	7
187	13
188	48
189	142
190	17
191	13
192	7
193	5
194	8
195	7
196	18
197	27
198	9
199	4
200	7
201	29
202	8
203	3
204	3
205	7
206	29
207	18
208	29
209	9
210	12
211	22
212	11
213	4
214	8
215	7
216	3
217	1
218	1
219	2
220	3
221	3
222	3
223	13
224	9
225	128
226	94
227	16
228	28
229	11
230	5
231	8
232	3
233	2
234	1
235	1
236	1
237	3
238	26
239	8
240	19
241	7
242	4
243	14
244	9
245	5
246	8
247	2
248	1
249	1
250	1
251	1
252	3
253	2
254	2
255	23
256	7
257	271
258	46
259	19
260	9
261	6
262	3
263	1
265	1
266	1
267	2
268	2
269	31
270	59
271	69
272	35
273	13
274	5
275	2
276	1
277	1
278	1
283	5
284	2
285	1
286	1
287	3
288	5
289	27
290	106
291	24
292	11
293	2
294	1
298	2
299	1
300	1
301	48
302	9
303	7
304	1
316	9
317	2
318	1
334	72
335	13
336	8
337	2
