Mass Spectrum: 2,6-Diethoxy-5-methyl-3(2H)-pyridazinone
Formula: C9H14N2O3
CAS: 1677-64-1
Molecular weight: 198
m/z	intensity
14	1
15	10
17	3
18	1
26	9
27	73
28	24
29	186
30	102
31	9
37	3
38	9
39	129
40	129
41	85
42	12
43	48
44	15
45	8
46	1
50	3
51	7
52	9
53	7
54	7
55	10
56	3
57	6
58	2
64	3
65	2
66	39
67	47
68	175
69	238
70	22
71	2
72	1
79	2
80	1
81	1
82	8
83	7
84	3
85	48
86	2
93	2
94	689
95	57
96	74
97	74
98	8
99	1
109	1
110	9
111	48
112	999
113	179
114	12
115	1
124	11
125	3
126	55
127	4
138	2
139	24
140	456
141	71
142	6
152	3
153	2
154	11
155	1
168	23
169	57
170	6
198	345
199	50
200	5
