Mass Spectrum: 2-Propenylcyclopropanecarboxylic acid, ethyl ester
Formula: C9H14O2
CAS: 16783-15-6
Molecular weight: 154
m/z	intensity
26	9
27	116
28	15
29	240
30	5
31	2
37	1
38	6
39	92
40	15
41	135
42	9
43	26
44	1
45	6
50	11
51	25
52	16
53	116
54	16
55	43
56	5
57	8
58	1
60	2
61	1
62	1
63	5
64	1
65	25
66	23
67	41
68	20
69	15
70	3
71	39
72	2
73	6
74	1
75	1
76	1
77	38
78	8
79	179
80	105
81	999
82	48
83	14
84	16
85	3
86	1
91	3
92	0
93	4
94	2
95	7
96	1
97	97
98	8
99	38
100	2
101	0
104	0
105	6
106	0
107	9
108	20
109	92
110	9
111	32
112	13
113	1
115	1
119	2
121	1
123	1
124	0
125	54
126	25
127	4
128	1
131	2
135	0
137	1
139	10
140	1
141	2
152	1
153	0
154	139
155	15
156	1
