Mass Spectrum: 1H-Inden-1-one, octahydro-, trans-
Formula: C9H14O
CAS: 16783-22-5
Molecular weight: 138
m/z	intensity
27	462
28	65
29	162
30	8
31	8
33	0
34	0
36	0
37	5
38	27
39	486
40	91
41	587
42	56
43	180
44	33
45	24
46	3
47	1
48	0
49	2
50	31
51	82
52	55
53	210
54	464
55	244
56	63
57	23
58	1
59	2
60	1
61	21
62	7
63	18
64	4
65	61
66	99
67	999
68	275
69	137
70	31
71	17
72	2
73	6
74	3
75	3
76	2
77	78
78	31
79	260
80	120
81	697
82	234
83	347
84	28
85	2
86	1
87	0
88	7
89	1
90	0
91	55
92	44
93	28
94	443
95	147
96	540
97	64
98	5
99	0
103	1
104	0
105	13
106	1
107	10
108	2
109	276
110	96
111	6
112	0
115	1
117	1
118	0
119	6
120	41
121	7
122	0
123	13
124	1
128	0
133	0
134	0
135	0
136	2
137	29
138	440
139	41
140	3
