Mass Spectrum: Pyridine, 3-bromo-4-nitro-, 1-oxide
Formula: C5H3BrN2O3
CAS: 1678-49-5
Molecular weight: 218
m/z	intensity
34	6
36	24
37	167
38	255
39	55
40	117
41	79
42	23
43	74
44	65
46	49
48	21
49	120
50	538
51	114
52	82
53	444
54	128
55	72
56	39
57	33
59	264
61	186
62	400
63	999
64	103
65	86
66	71
67	33
68	28
69	35
70	10
72	135
73	16
74	7
75	53
76	80
77	12
79	45
80	17
81	42
82	21
83	18
84	31
85	7
86	15
91	11
92	15
93	65
95	16
96	11
97	11
98	15
100	9
104	19
105	86
106	20
107	97
109	56
110	5
111	5
112	16
113	6
114	14
116	42
117	416
118	69
119	399
120	24
121	9
122	5
126	15
128	33
129	97
130	23
131	95
132	11
133	8
134	13
135	6
140	11
141	20
142	15
143	15
144	13
145	5
146	8
147	5
154	7
155	9
156	54
157	3
158	53
159	2
160	19
162	18
172	61
173	3
174	59
175	3
186	6
188	520
189	28
190	506
191	28
202	54
203	3
204	53
205	3
216	8
218	810
219	45
220	789
221	43
