Mass Spectrum: Benzene, 1-(2-bromoethyl)-3-methyl-
Formula: C9H11Br
CAS: 16799-08-9
Molecular weight: 198
m/z	intensity
39	170
51	110
65	120
77	150
91	230
92	10
105	999
106	70
117	140
118	10
119	460
120	30
198	270
199	30
200	260
201	30
