Mass Spectrum: Diethyl benzamidomalonate
Formula: C14H17NO5
CAS: 16798-45-1
Molecular weight: 279
m/z	intensity
27	18
28	8
29	50
30	5
31	3
39	5
41	11
42	4
43	21
44	10
45	5
50	12
51	57
52	5
55	16
56	9
57	27
60	4
67	7
68	4
69	15
70	6
71	14
73	4
74	7
75	6
76	18
77	232
78	26
79	4
81	8
82	6
83	13
84	6
85	11
91	4
95	9
96	5
97	13
98	4
99	4
102	7
103	4
104	11
105	999
106	104
107	10
109	6
110	4
111	9
112	4
113	4
121	5
123	5
125	6
126	3
129	3
132	5
133	21
134	81
135	13
137	3
139	4
141	3
149	10
161	98
162	33
163	5
187	6
189	32
190	7
192	3
193	5
206	105
207	150
208	24
209	4
233	6
234	53
235	16
279	35
280	6
