Mass Spectrum: Quinoline-3-carboxamide, 1,2-dihydro-4-hydroxy-2-oxo-N-phenyl-
Formula: C16H12N2O3
CAS: 16798-54-2
Molecular weight: 280
m/z	intensity
33	10
34	1
37	4
38	13
39	46
40	33
41	9
42	3
43	4
44	17
45	0
46	0
50	16
51	38
52	14
53	5
54	4
55	2
56	0
57	1
58	0
61	3
62	9
63	29
64	30
65	81
66	43
67	5
68	4
69	20
70	1
71	1
73	4
74	3
75	8
76	26
77	88
78	12
79	2
80	0
83	0
86	0
87	2
88	6
89	15
90	21
91	22
93	999
94	47
95	1
97	0
99	0
101	1
102	8
103	10
104	20
105	9
106	1
112	0
114	13
115	4
116	7
117	2
119	37
120	62
121	4
126	0
128	0
129	1
130	2
131	1
132	6
133	2
140	15
141	1
142	1
144	7
145	1
146	12
147	1
148	0
157	0
158	0
159	1
160	7
161	2
163	0
167	0
169	2
170	9
171	1
185	0
186	3
187	20
188	74
189	7
190	1
199	1
202	1
205	1
206	0
207	0
223	1
233	0
235	1
275	0
277	0
278	1
280	135
281	23
282	2
