Mass Spectrum: Acetazolamide methyl derivative
Formula: C5H8N4O3S2
CAS: 16790-52-6
Molecular weight: 236
m/z	intensity
46	28
47	9
48	15
49	2
52	2
53	12
54	6
55	18
56	22
57	13
58	19
59	25
60	5
61	8
62	2
63	2
64	12
65	6
66	2
67	4
69	346
70	999
71	133
72	31
73	32
74	4
75	3
76	8
81	2
84	4
85	21
86	5
87	31
88	102
89	6
90	5
92	17
100	73
101	13
102	18
103	2
104	2
106	3
108	79
109	3
110	5
114	26
129	184
130	26
131	11
132	2
133	2
143	39
144	3
145	4
157	7
172	3
176	7
192	7
193	2
194	2
221	5
236	101
237	10
238	11
