Mass Spectrum: 4-Acetoxyquinolin-2-one
Formula: C11H9NO3
CAS: 16798-50-8
Molecular weight: 203
m/z	intensity
39	50
40	30
41	350
43	700
46	170
48	30
50	20
51	30
52	20
54	10
55	60
56	60
57	70
58	10
59	20
60	250
61	20
63	30
64	120
65	60
66	30
67	50
68	30
69	70
70	40
71	40
73	30
74	15
76	10
77	100
78	40
79	30
80	20
81	60
82	40
83	50
84	30
85	30
91	150
92	310
93	90
94	30
95	40
96	80
97	30
98	30
104	130
105	400
106	50
111	30
112	20
115	30
116	20
117	50
118	20
119	999
120	430
121	110
128	10
129	30
130	10
132	100
133	510
134	60
135	30
141	20
142	10
143	30
144	20
145	50
146	20
148	10
149	20
150	20
151	10
152	20
164	20
165	10
168	15
169	25
187	20
188	105
189	25
203	510
204	64
205	4
