Mass Spectrum: 4H-1-Benzothiopyran-4-one, 2,3-dihydro-2-methyl-, 1,1-dioxide
Formula: C10H10O3S
CAS: 16808-50-7
Molecular weight: 210
m/z	intensity
50	240
51	60
69	20
74	30
75	40
76	240
77	30
95	10
96	20
104	999
105	70
115	20
131	10
146	10
152	30
168	90
169	350
170	40
210	20
