Mass Spectrum: Diethyl 1-amino-1-phenylmethanephosphonate
Formula: C11H18NO3P
CAS: 16814-08-7
Molecular weight: 243
m/z	intensity
27	25
28	15
29	34
51	26
65	22
77	74
79	112
83	20
104	52
105	25
106	999
107	80
243	3
