Mass Spectrum: 1H-Pyrrole-1-carboxylic acid, 2-bromo-4-hexyl-, tert-butyl ester
Formula: C15H24BrNO2
CAS: 168106-33-0
Molecular weight: 329
m/z	intensity
15	7
27	80
28	25
29	170
30	5
38	7
39	94
41	324
42	24
43	69
44	20
50	7
51	52
52	25
53	32
54	7
55	41
57	999
58	46
63	5
64	6
65	25
66	9
67	20
77	15
78	56
79	32
80	47
81	28
91	13
92	13
93	48
94	8
106	17
107	15
120	15
123	20
131	13
133	15
148	12
150	16
157	25
158	175
159	393
160	212
161	362
162	24
172	60
173	27
174	58
175	21
186	26
187	34
188	23
189	35
200	15
202	15
203	48
204	4
205	43
206	3
229	47
231	47
273	27
274	2
275	25
276	2
329	12
330	2
331	14
332	1
