Mass Spectrum: 4-Pyridinamine, 3-nitro-
Formula: C5H5N3O2
CAS: 1681-37-4
Molecular weight: 139
m/z	intensity
50	100
51	130
52	370
53	140
54	180
63	30
64	90
65	330
66	999
67	110
78	80
79	150
80	60
81	110
92	20
93	480
94	40
109	60
122	40
123	2
139	940
140	65
141	2
