Mass Spectrum: 3-(Bromomethyl)cyclohexanone
Formula: C7H11BrO
CAS: 168278-83-9
Molecular weight: 190
m/z	intensity
26	22
27	197
28	61
29	108
37	8
38	29
39	377
40	87
41	619
42	266
43	93
44	28
45	7
50	18
51	35
52	20
53	109
54	90
55	999
56	76
57	19
58	8
59	7
62	6
63	11
64	5
65	27
66	20
67	162
68	101
69	231
70	37
71	11
76	6
77	24
78	9
79	36
80	9
81	53
82	91
83	155
84	16
85	6
86	26
91	12
92	11
93	74
94	12
95	33
96	8
97	514
98	48
99	79
100	6
102	6
103	7
104	8
105	8
106	5
107	7
108	5
109	12
110	110
111	580
112	63
113	17
119	25
120	10
121	32
122	10
123	11
124	5
125	20
136	7
137	6
138	5
146	49
147	183
148	67
149	187
150	23
162	9
164	9
172	18
174	16
190	192
191	31
192	189
193	28
