Mass Spectrum: 3,4-Flavandiol, 7-(benzyloxy)-3',4'-dimethoxy-, trans-2,3,cis-3,4-
Formula: C24H24O6
CAS: 16821-22-0
Molecular weight: 408
m/z	intensity
91	999
92	110
105	80
107	50
135	60
149	100
151	270
165	100
178	90
180	649
181	80
228	100
271	310
272	70
362	110
390	100
408	30
