Mass Spectrum: Noratropine
Formula: C16H21NO3
CAS: 16839-98-8
Molecular weight: 275
m/z	intensity
15	2
18	3
26	1
27	11
28	32
29	13
30	26
31	14
37	1
38	3
39	26
40	4
41	58
42	18
43	24
44	11
45	1
50	4
51	14
52	4
53	13
54	18
55	25
56	22
57	3
59	1
61	1
62	4
63	11
64	4
65	22
66	4
67	99
68	130
69	36
70	6
71	1
72	1
74	1
75	2
76	2
77	46
78	14
79	19
80	157
81	67
82	73
83	17
84	6
85	1
86	1
87	1
89	27
90	30
91	61
92	6
93	16
94	13
95	3
96	2
97	1
98	3
99	3
101	1
102	5
103	65
104	18
105	3
106	3
107	4
108	25
109	35
110	999
111	84
112	4
115	1
117	1
118	21
119	3
120	5
121	20
122	2
126	13
127	5
128	3
129	1
131	1
135	1
136	2
148	1
257	3
258	1
275	11
276	2
