Mass Spectrum: Methoxyacetic acid, phenyl ester
Formula: C9H10O3
CAS: 16839-92-2
Molecular weight: 166
m/z	intensity
25	2
26	12
27	13
28	15
29	115
30	9
39	184
40	24
41	21
42	32
43	10
44	1
45	999
46	58
47	7
55	7
56	2
60	3
61	6
62	19
63	40
64	23
65	177
66	24
69	2
73	3
74	5
75	5
76	3
77	69
78	43
81	3
91	6
92	3
93	31
94	46
95	6
101	2
105	3
107	9
108	116
109	9
110	2
119	2
121	2
137	6
138	307
139	29
140	2
166	29
167	3
