Mass Spectrum: 1,3,2-Dioxaphosphorinane-2-oxide, 4,4,6-trimethyl-
Formula: C6H13O3P
CAS: 16832-97-6
Molecular weight: 164
m/z	intensity
50	10
51	58
52	17
53	113
54	38
55	179
56	12
57	33
58	2
62	2
63	24
64	33
65	104
66	23
67	558
68	47
69	122
70	7
77	131
78	22
79	123
80	11
81	123
82	999
83	200
84	5
85	10
89	6
90	2
91	264
92	57
93	172
94	42
95	63
96	35
103	11
104	2
105	138
106	32
107	417
108	123
109	80
110	3
115	9
116	1
117	6
119	42
120	32
121	545
122	116
123	96
124	9
133	8
134	2
135	46
136	13
137	2
138	3
139	2
147	3
148	8
149	191
150	15
151	2
164	217
165	23
167	1
