Mass Spectrum: Acetic acid, mercapto-, propyl ester
Formula: C5H10O2S
CAS: 16849-94-8
Molecular weight: 134
m/z	intensity
26	27
27	565
28	75
29	95
39	154
40	17
41	554
42	171
43	999
44	34
45	171
46	212
47	678
48	68
49	34
57	37
58	17
59	51
60	17
61	34
64	34
74	239
75	335
76	34
77	27
92	301
93	102
94	17
105	17
115	6
119	3
134	137
135	27
136	6
