Mass Spectrum: Acetic acid, mercapto-, 3-methylbutyl ester
Formula: C7H14O2S
CAS: 16849-97-1
Molecular weight: 162
m/z	intensity
27	240
29	360
39	150
41	340
42	140
43	999
45	90
46	110
47	380
55	230
57	60
70	370
71	300
74	80
75	100
92	110
103	60
115	70
162	40
