Mass Spectrum: Acetic acid, mercapto-, sec-butyl ester
Formula: C6H12O2S
CAS: 16849-96-0
Molecular weight: 148
m/z	intensity
27	340
28	100
29	950
39	150
41	830
42	180
43	230
45	220
46	130
47	860
55	100
56	840
57	999
59	110
74	100
75	350
89	170
92	200
93	200
119	130
148	30
