Mass Spectrum: Propanoic acid, 2-mercapto-, 1-methylethyl ester
Formula: C6H12O2S
CAS: 16849-77-7
Molecular weight: 148
m/z	intensity
27	430
28	140
35	90
39	130
41	400
43	999
45	90
59	120
60	200
61	920
62	90
75	150
88	110
89	90
106	410
148	200
