Mass Spectrum: Acetic acid, mercapto-, cyclohexyl ester
Formula: C8H14O2S
CAS: 16849-98-2
Molecular weight: 174
m/z	intensity
27	240
29	200
39	240
41	600
47	260
54	120
55	999
67	260
75	60
81	80
82	590
83	700
92	130
93	120
115	120
174	30
