Mass Spectrum: Cyclohexaneoctanoic acid, 2-butyl-, methyl ester
Formula: C19H36O2
CAS: 16847-05-5
Molecular weight: 296
m/z	intensity
41	609
42	975
43	975
55	975
57	390
59	360
67	390
69	926
74	702
82	512
83	999
87	351
95	146
96	243
97	458
109	195
110	117
111	97
139	390
143	68
157	273
189	146
207	146
239	341
265	136
296	487
297	102
