Mass Spectrum: Sydnone, 3-(phenylmethyl)-
Formula: C9H8N2O2
CAS: 16844-42-1
Molecular weight: 176
m/z	intensity
28	80
38	60
39	330
41	70
50	90
51	110
62	60
63	160
64	60
65	410
77	300
89	60
91	999
92	90
176	30
