Mass Spectrum: (E)-3-Acetamido-2-butenamide
Formula: C6H10N2O2
CAS: 16858-41-6
Molecular weight: 142
m/z	intensity
14	2
15	31
16	2
17	9
18	87
26	4
27	15
28	70
29	12
30	21
31	3
32	1
37	1
38	5
39	29
40	24
41	62
42	237
43	419
44	85
45	4
51	1
52	6
53	5
54	30
55	80
56	19
57	8
58	6
59	7
60	6
65	1
66	8
67	17
68	69
69	9
70	11
71	4
72	5
73	1
80	1
81	1
82	26
83	999
84	828
85	63
86	5
93	2
94	2
95	2
96	7
97	68
98	334
99	29
100	302
101	17
102	1
109	4
110	105
111	6
121	2
122	1
124	14
125	643
126	63
127	27
128	1
142	426
143	36
144	3
