Mass Spectrum: 1H-Indole-2-carboxylic acid, 2,3-dihydro-, (.+/-.)-
Formula: C9H9NO2
CAS: 16851-56-2
Molecular weight: 163
m/z	intensity
17	4
18	23
27	3
28	7
37	2
38	6
39	20
40	3
41	4
43	1
44	14
45	3
50	7
51	13
52	6
53	1
57	4
58	45
59	19
61	3
62	10
63	30
64	11
65	29
66	2
71	1
74	2
75	3
76	2
77	5
78	2
85	1
86	2
87	3
88	4
89	71
90	83
91	193
92	16
114	3
115	13
116	15
117	196
118	999
119	92
120	4
143	14
144	3
146	1
161	9
162	1
163	286
164	31
165	2
