Mass Spectrum: Cyclopentanone, 2-(2-methylpropylidene)-
Formula: C9H14O
CAS: 16856-72-7
Molecular weight: 138
m/z	intensity
25	2
26	45
27	470
28	29
29	125
30	2
31	3
33	1
36	1
37	18
38	66
39	662
40	148
41	775
42	92
43	162
44	6
45	13
46	6
47	2
48	1
49	6
50	63
51	122
52	79
53	225
54	118
55	225
56	57
57	14
59	7
60	1
61	8
62	23
63	56
64	15
65	134
66	99
67	999
68	138
69	54
70	39
71	4
72	1
73	1
74	9
75	9
76	3
77	104
78	31
79	163
80	46
81	481
82	740
83	187
84	47
85	2
86	1
89	2
90	2
91	44
92	21
93	44
94	20
95	425
96	185
97	87
98	7
103	3
105	54
106	5
107	12
108	5
109	89
110	57
111	8
117	1
119	9
120	5
121	10
122	3
123	333
124	28
125	1
136	3
137	52
138	744
139	60
140	5
