Mass Spectrum: Propionic acid, 2-mercapto-, benzyl ester, acetate
Formula: C12H14O3S
CAS: 16850-03-6
Molecular weight: 238
m/z	intensity
15	80
39	80
43	999
61	80
65	150
77	70
91	960
92	120
103	70
107	80
123	120
162	120
195	120
238	20
