Mass Spectrum: 2,4-Pentanedione, 3-[(3,5-dimethyl-4-isoxazolyl)methyl]-
Formula: C11H15NO3
CAS: 16858-07-4
Molecular weight: 209
m/z	intensity
43	999
44	40
68	450
69	30
82	110
83	100
84	10
97	40
110	410
111	40
124	290
125	30
166	730
167	90
168	10
209	30
