Mass Spectrum: 2-Thiophenepropanoic acid, methyl ester
Formula: C8H10O2S
CAS: 16862-05-8
Molecular weight: 170
m/z	intensity
27	29
28	161
29	12
31	2
34	2
38	5
39	66
40	6
41	9
42	5
43	3
44	2
45	105
47	5
50	7
51	22
52	4
53	41
55	6
57	6
58	23
59	15
63	8
65	24
66	23
67	22
69	15
70	4
71	12
77	28
78	10
82	3
84	21
85	14
95	3
97	999
98	39
99	26
100	3
109	21
110	616
111	136
112	19
113	28
123	2
127	2
129	2
130	2
137	7
139	33
142	2
170	197
171	14
172	7
