Mass Spectrum: 1,7-Octadiene, 2-methyl-6-methylene-
Formula: C10H16
CAS: 1686-30-2
Molecular weight: 136
m/z	intensity
26	14
27	339
28	12
29	119
30	3
37	5
38	25
39	428
40	35
41	769
42	59
43	21
50	30
51	74
52	61
53	391
54	50
55	55
56	24
62	8
63	17
64	5
65	71
66	52
67	607
68	999
69	111
70	6
77	129
78	25
79	943
80	336
81	234
82	40
91	87
92	41
93	383
94	218
95	108
96	9
103	5
104	2
105	20
106	10
107	230
108	126
109	6
115	2
119	5
121	201
122	19
135	2
136	15
137	3
