Mass Spectrum: Vanadium, oxotripropoxy-, (T-4)-
Formula: C9H21O4V
CAS: 1686-23-3
Molecular weight: 244
m/z	intensity
12	4
13	6
14	19
15	61
16	4
17	10
18	32
19	14
24	2
25	9
26	75
27	308
28	123
29	298
30	29
31	999
32	21
33	10
36	3
37	20
38	30
39	133
40	32
41	219
42	159
43	89
44	14
45	60
46	1
50	1
51	5
52	3
53	4
54	2
55	11
56	8
57	27
58	16
59	89
60	48
61	2
64	1
67	110
68	30
69	2
70	1
72	1
73	1
77	1
78	1
80	1
81	2
82	8
83	15
84	60
85	33
86	1
92	1
93	0
94	8
95	4
96	20
97	51
98	81
99	8
100	2
101	32
102	16
103	1
106	5
107	12
108	5
109	2
110	10
111	14
112	7
113	21
114	18
115	3
116	3
119	4
122	3
123	29
124	54
125	118
126	27
127	19
128	12
129	1
130	3
131	53
133	1
136	1
137	2
138	17
139	7
140	5
141	26
142	12
143	11
144	4
145	22
152	3
153	3
154	8
155	47
156	38
157	6
158	1
159	22
160	1
161	3
165	15
166	2
167	1
168	2
169	6
170	6
171	2
173	128
174	6
175	1
181	1
182	3
183	125
184	16
185	7
186	4
187	17
197	8
198	0
199	2
201	6
203	1
215	339
216	27
217	4
228	3
229	71
230	6
243	14
244	5
245	5
