Mass Spectrum: 3-Oxatricyclo[4.1.1.0(2,4)]octane, 2,7,7-trimethyl-
Formula: C10H16O
CAS: 1686-14-2
Molecular weight: 152
m/z	intensity
26	10
27	232
28	47
29	115
30	2
31	5
37	4
38	16
39	375
40	53
41	596
42	53
43	509
44	20
45	19
50	18
51	62
52	29
53	188
54	125
55	353
56	38
57	19
58	3
59	11
60	3
61	3
62	5
63	21
64	5
65	72
66	34
67	999
68	81
69	313
70	42
71	28
72	4
74	2
75	4
76	1
77	121
78	24
79	160
80	32
81	294
82	421
83	512
84	92
85	9
86	2
89	4
90	2
91	133
92	31
93	266
94	154
95	277
96	91
97	45
98	32
99	4
103	7
104	4
105	21
106	8
107	53
108	200
109	621
110	91
111	48
112	4
115	2
117	5
118	2
119	84
120	8
121	15
122	6
123	39
124	12
125	3
133	1
134	17
135	4
136	3
137	375
138	37
139	2
151	4
152	20
153	2
