Mass Spectrum: 1,3-Oxazetidin-2-one, 3-phenyl-
Formula: C8H7NO2
CAS: 16877-22-8
Molecular weight: 149
m/z	intensity
18	14
28	34
39	13
44	775
50	22
51	43
52	16
63	6
74	6
77	999
91	5
104	77
105	97
119	8
120	0
149	1
