Mass Spectrum: Thiazolidine-2,5-dione
Formula: C3H3NO2S
CAS: 16874-97-8
Molecular weight: 117
m/z	intensity
33	31
34	6
36	6
38	6
40	89
41	25
42	94
43	71
44	69
45	220
46	999
47	34
48	48
50	2
52	0
55	1
57	2
58	0
60	18
61	3
64	0
70	22
72	3
74	497
76	38
77	3
78	3
89	18
91	3
92	0
103	5
104	1
105	1
117	652
118	25
119	32
121	1
