Mass Spectrum: 1-Aza-8-oxabicyclo[4.3.0]non-3-en-2-one, 5-(benzoyloxy)-9,9-dimethyl-
Formula: C16H17NO4
CAS: 168772-36-9
Molecular weight: 287
m/z	intensity
26	4
27	39
28	7
29	4
30	2
31	3
37	0
38	3
39	32
40	2
41	26
42	28
43	40
44	2
47	0
48	0
49	0
50	12
51	53
52	16
53	27
54	8
55	19
56	39
58	1
59	1
60	0
62	0
63	1
64	1
65	4
66	5
67	4
68	5
69	2
70	2
71	0
72	4
74	1
75	1
76	11
77	243
78	23
79	7
80	26
81	14
82	4
83	13
84	37
85	2
86	0
91	1
92	2
93	2
94	2
95	1
96	10
97	1
98	0
99	1
100	1
101	0
102	0
103	0
104	7
105	999
106	97
107	6
108	28
109	6
110	1
111	0
112	0
114	0
115	0
117	0
118	0
120	0
121	1
122	43
123	13
124	4
125	0
126	0
129	0
130	0
131	0
132	0
133	0
134	1
135	0
136	12
137	0
138	0
139	0
141	0
143	0
145	0
146	0
147	0
148	11
149	1
150	20
151	8
152	2
153	0
159	0
164	0
165	148
166	21
167	1
173	0
182	1
185	0
188	22
189	3
190	0
192	0
200	0
204	1
205	0
206	0
216	0
220	0
222	0
227	0
228	0
229	4
230	1
231	0
256	1
269	0
271	0
272	314
273	53
274	6
275	1
284	0
287	2
288	1
289	0
