Mass Spectrum: Acetamide, 2-(4-tolyloxy)-N-(4-pyridyl)-
Formula: C14H14N2O2
CAS: 168703-34-2
Molecular weight: 242
m/z	intensity
33	1
37	34
38	28
39	378
40	54
41	153
42	122
43	142
44	373
45	50
46	9
47	2
48	4
49	12
50	92
51	284
52	121
53	96
54	32
55	56
56	23
57	36
58	9
59	5
60	13
62	36
63	75
64	50
65	312
66	81
67	54
68	14
69	20
70	18
71	17
73	15
74	12
75	19
76	26
77	241
78	239
79	117
80	54
81	15
82	10
83	15
84	15
85	15
86	6
87	6
88	6
89	72
90	81
91	649
92	101
93	161
94	111
95	18
96	7
97	10
98	8
99	7
100	2
101	5
102	6
103	10
104	11
105	43
106	71
107	999
108	298
109	29
110	5
111	7
112	13
113	3
114	0
115	7
116	5
117	6
118	12
119	37
120	74
121	402
122	90
123	13
124	4
125	4
126	3
127	4
128	5
129	5
130	5
131	5
132	6
133	11
134	26
135	264
136	162
137	17
138	3
139	4
140	3
141	6
142	2
143	1
144	5
145	3
146	12
147	6
148	5
149	15
150	3
151	7
152	5
153	3
154	3
155	2
156	3
157	1
158	1
159	2
160	1
161	2
162	3
163	4
164	4
165	2
166	7
167	7
168	8
169	1
170	2
171	6
172	1
173	1
175	1
176	10
177	2
178	1
179	1
180	1
181	2
183	6
184	1
185	2
187	1
189	1
191	1
193	1
194	5
195	4
196	4
197	3
199	1
203	0
205	1
207	1
208	2
209	1
210	0
211	1
212	1
214	0
215	0
216	0
221	2
222	4
224	45
225	8
226	1
227	0
228	2
242	478
243	64
244	7
