Mass Spectrum: D-Arabino-Hexose, 2-deoxy-, diethyl mercaptal, tetraacetate
Formula: C18H30O8S2
CAS: 16885-34-0
Molecular weight: 438
m/z	intensity
41	95
42	127
43	999
44	156
45	336
46	52
47	85
48	5
49	5
50	7
51	10
52	5
53	26
54	6
55	49
56	7
57	26
58	35
59	123
60	130
61	207
62	25
63	26
64	7
65	23
66	8
67	48
68	20
69	92
70	10
71	28
72	7
73	103
74	8
75	72
76	6
77	14
78	9
79	14
80	3
81	26
82	8
83	20
84	8
85	48
86	17
87	24
88	28
89	92
90	7
91	15
92	3
93	17
94	12
95	45
96	5
97	25
98	6
99	23
100	5
101	65
102	13
103	37
104	3
105	16
106	2
107	14
109	8
110	3
111	53
112	7
113	17
114	5
115	30
116	4
117	38
118	2
119	2
120	2
121	2
123	2
125	14
126	6
127	43
128	5
129	38
130	8
131	21
132	2
133	6
135	22
136	3
137	3
138	4
139	4
141	20
142	13
143	15
144	3
145	8
147	2
153	21
154	7
155	383
156	38
157	22
158	2
159	26
160	2
161	7
169	2
171	7
172	2
173	29
174	4
175	3
185	2
187	9
197	48
198	7
199	4
201	4
215	40
216	6
217	3
229	14
230	2
231	3
257	4
317	12
438	6
439	3
