Mass Spectrum: N-Benzyloxycarbonyl-L-proline tert-butyl ester
Formula: C17H23NO4
CAS: 16881-39-3
Molecular weight: 305
m/z	intensity
25	0
26	2
27	14
28	16
29	25
30	1
31	1
36	1
37	2
38	4
39	43
40	8
41	87
43	19
44	17
45	8
46	2
49	1
50	7
51	14
52	5
53	5
54	2
55	19
56	26
57	74
58	4
59	3
60	2
61	1
62	2
63	11
64	4
65	69
66	5
67	2
68	13
69	17
70	32
71	5
72	0
73	2
74	2
75	2
76	3
77	14
78	3
79	8
80	1
81	2
82	2
83	3
84	2
85	2
86	1
87	2
88	1
89	18
90	14
91	999
92	82
93	5
94	1
95	1
96	2
97	3
98	3
99	1
100	1
101	1
102	5
103	1
104	2
105	5
106	1
107	8
108	6
109	1
110	1
111	2
112	1
113	1
114	30
115	4
116	1
117	1
118	0
119	1
120	0
121	1
122	1
123	1
124	0
125	2
126	2
127	7
128	7
129	2
130	2
131	1
132	1
133	1
134	0
135	1
136	0
137	0
138	0
139	0
140	1
141	1
142	1
143	3
144	1
153	1
154	1
155	4
156	1
157	1
158	2
159	2
160	289
161	44
162	3
163	0
164	1
165	0
166	0
170	5
171	1
172	6
173	3
174	0
175	0
176	0
177	0
178	0
179	0
180	0
181	1
182	0
183	0
184	0
185	1
186	1
187	0
195	0
196	1
197	0
198	0
199	0
201	0
202	0
203	1
204	236
205	40
206	4
207	0
208	0
209	0
210	0
216	0
217	0
218	0
219	0
220	0
221	0
222	0
232	4
233	1
234	0
235	0
236	0
246	0
247	0
249	11
250	2
251	0
256	0
257	0
258	0
261	0
262	1
263	3
305	2
306	0
