Mass Spectrum: Propionic acid, 2-mercapto-, allyl ester
Formula: C6H10O2S
CAS: 16883-50-4
Molecular weight: 146
m/z	intensity
26	75
27	393
28	171
29	68
33	17
34	17
35	171
37	17
38	34
39	267
40	27
41	650
42	34
43	27
44	27
45	85
46	17
55	75
56	130
57	51
58	34
59	137
60	119
61	999
62	51
63	61
73	667
74	85
75	27
85	34
87	6
88	34
89	17
101	68
128	27
146	51
