Mass Spectrum: 1,2,4-4H-Triazol-3-amine, 5-(2,4-dichlorophenyl)-
Formula: C8H6Cl2N4
CAS: 168893-49-0
Molecular weight: 228
m/z	intensity
33	10
34	1
35	11
36	34
37	37
38	36
39	14
40	16
41	18
42	31
43	74
44	5
47	7
48	5
50	152
52	57
53	17
54	5
56	26
57	999
58	12
60	5
61	22
62	46
63	47
64	7
65	4
67	2
68	4
69	2
71	5
72	38
74	124
75	194
76	30
77	6
78	1
79	0
81	0
82	4
84	33
85	36
86	41
87	41
88	19
89	2
91	0
96	8
97	13
98	11
100	209
101	42
102	58
103	4
105	1
106	1
107	1
108	9
109	54
110	33
111	41
112	11
113	2
114	7
115	9
116	5
119	1
120	2
121	4
122	9
123	27
124	35
125	10
126	12
129	2
130	1
131	1
133	1
134	2
135	13
136	188
137	40
138	64
139	11
140	6
141	0
143	0
144	1
145	11
146	4
147	8
148	1
149	1
150	2
151	11
152	0
153	3
157	3
158	9
159	9
160	4
161	4
162	0
164	0
165	39
167	18
168	2
170	5
171	77
172	306
173	81
174	219
176	31
177	3
178	0
186	35
188	15
189	2
190	5
192	1
193	5
199	12
200	3
201	6
202	2
203	1
225	1
226	9
228	554
230	387
231	40
232	53
233	5
