Mass Spectrum: Morpholinothioacetamide
Formula: C6H12N2OS
CAS: 16888-43-0
Molecular weight: 160
m/z	intensity
12	1
14	25
15	254
16	7
17	16
18	79
19	5
26	39
27	151
28	497
29	218
30	315
31	29
32	16
33	11
34	3
35	2
37	1
38	3
39	15
40	34
41	165
42	308
43	115
44	78
45	49
46	19
47	17
48	5
49	1
50	1
51	3
52	7
53	5
54	42
56	370
57	51
58	66
59	25
60	104
61	11
62	7
63	1
64	1
65	13
66	2
67	4
68	9
70	151
71	18
72	67
74	46
75	40
76	6
77	2
79	1
80	1
81	1
82	4
83	2
84	4
86	559
87	29
88	7
89	1
91	1
92	1
95	0
96	1
98	14
100	999
102	6
109	1
112	1
113	1
114	2
115	1
116	1
119	1
126	1
142	1
160	45
161	9
162	2
