Mass Spectrum: Pyrrolidine-2,5-dione, 1-ethyl-3,3'-spiro(1-azabicyclo[2.2.2]octane)-
Formula: C12H18N2O2
CAS: 168818-34-6
Molecular weight: 222
m/z	intensity
39	144
40	119
41	294
42	999
43	765
44	379
45	115
47	0
48	40
49	0
51	2
52	3
53	71
54	99
55	211
56	142
57	112
58	53
59	0
60	0
61	99
62	137
63	9
65	16
66	54
67	98
68	98
69	51
70	54
71	20
76	23
77	22
78	14
79	13
80	19
81	9
82	188
83	223
84	97
85	5
92	0
93	1
94	93
95	151
96	301
97	142
98	4
108	17
109	4
121	62
122	89
123	148
124	47
125	3
136	0
137	0
139	12
140	29
141	14
149	26
150	8
151	7
152	1
164	0
165	38
166	41
167	1
178	0
179	27
180	2
193	22
194	1
207	61
208	7
221	2
222	388
223	162
224	2
