Mass Spectrum: [2-(Diisopropylamino)ethyl]-(2-mercaptoethyl) sulfide
Formula: C10H23NS2
CAS: 168885-96-9
Molecular weight: 221
m/z	intensity
41	273
42	170
43	359
44	147
45	71
47	133
56	115
58	50
59	65
60	27
61	286
68	14
70	129
71	23
72	327
73	22
84	36
85	15
86	27
87	17
93	21
98	16
100	6
102	16
105	5
112	11
114	999
115	85
116	9
119	7
121	30
123	7
127	6
128	18
130	5
135	3
144	14
160	7
162	3
188	9
206	5
221	5
222	8
223	2
