Mass Spectrum: Methyl 3-O-benzyl-alpha-d-glucofuranoside 5,6-carbonate
Formula: C15H18O7
CAS: 16895-87-7
Molecular weight: 310
m/z	intensity
15	19
18	6
19	5
26	1
27	11
28	9
29	24
30	3
31	20
32	1
33	8
38	1
39	17
40	3
41	21
42	9
43	48
44	12
45	37
47	1
50	2
51	9
52	3
53	4
54	6
55	8
56	3
57	20
58	3
59	8
60	9
61	20
62	1
63	6
64	2
65	49
66	3
68	3
69	30
70	11
71	12
72	2
73	28
74	24
75	70
76	3
77	17
78	4
79	18
80	2
81	10
82	10
83	4
84	3
85	10
86	2
87	22
88	2
89	11
90	9
91	999
92	205
93	12
94	9
97	28
98	9
99	4
100	1
101	2
102	2
103	12
104	3
105	40
106	4
107	33
108	38
109	3
110	1
111	6
115	6
116	6
117	16
118	3
119	2
120	8
121	3
122	5
123	1
128	1
129	3
130	1
131	3
132	2
133	15
134	2
135	7
136	1
141	1
142	3
143	6
144	4
145	6
146	4
147	4
149	1
150	1
151	20
152	3
155	1
157	11
158	2
159	6
160	3
161	3
163	18
164	2
170	1
171	1
173	11
174	2
175	1
177	1
178	6
187	5
188	5
189	3
191	7
192	1
199	1
202	4
203	3
216	2
219	3
221	1
238	1
248	5
249	1
261	1
278	7
279	1
310	4
