Mass Spectrum: Ethanedithioamide, methyl-
Formula: C3H6N2S2
CAS: 16890-71-4
Molecular weight: 134
m/z	intensity
41	80
42	160
43	10
44	370
45	720
46	180
47	110
49	10
51	10
52	10
53	30
54	10
55	20
56	10
57	20
58	70
59	40
60	110
61	40
62	10
63	10
67	10
70	120
71	60
72	560
73	999
74	190
75	70
76	20
77	10
88	10
100	40
101	10
105	10
117	10
134	340
135	20
136	30
