Mass Spectrum: 3-O-Benzyl-1,2-O-isopropylidene-alpha-d-glucofuranoside 5,6-carbonate
Formula: C17H20O7
CAS: 16895-86-6
Molecular weight: 336
m/z	intensity
15	9
17	8
18	1
26	1
27	8
28	6
29	9
30	1
31	8
38	2
39	15
40	3
41	15
42	5
43	131
44	32
45	2
50	4
51	10
52	6
53	6
54	1
55	30
56	2
57	9
58	21
59	20
60	2
61	3
62	1
63	5
64	2
65	39
66	3
67	2
68	4
69	11
70	1
71	8
73	16
74	1
75	1
76	1
77	23
78	6
79	29
80	3
81	6
82	5
83	7
84	4
85	46
86	3
87	9
89	10
90	9
91	999
92	90
93	3
94	3
95	3
96	1
97	4
98	1
99	1
100	13
101	9
102	1
103	1
104	10
105	34
106	6
107	33
108	31
109	12
110	6
111	4
112	1
113	36
114	3
115	3
116	1
117	3
118	1
119	1
120	2
124	1
126	3
127	5
128	4
129	181
130	12
131	6
132	9
133	21
134	3
139	1
141	1
142	8
143	4
144	1
145	5
146	2
147	1
149	9
150	1
153	1
154	1
155	5
157	7
158	15
159	6
160	2
161	2
169	1
170	9
171	38
172	5
173	3
174	1
175	1
181	1
187	11
188	16
189	2
191	4
194	2
198	14
199	8
200	1
213	18
214	2
215	3
216	12
217	3
220	4
231	3
233	1
236	1
241	3
249	8
250	1
259	2
260	2
261	5
262	1
273	4
274	75
275	13
276	2
278	2
279	1
321	77
322	13
323	2
336	10
337	2
