Mass Spectrum: Methyl 2,3-di-O-benzyl-beta-d-glucofuranoside
Formula: C21H26O6
CAS: 16895-91-3
Molecular weight: 374
m/z	intensity
15	3
17	7
18	35
27	3
28	7
29	9
30	2
31	15
32	9
33	1
38	1
39	10
40	1
41	6
42	1
43	8
44	1
45	8
50	3
51	9
52	3
53	3
54	1
55	3
56	1
57	3
59	1
61	8
62	1
63	5
64	1
65	39
66	2
68	2
69	11
70	1
71	9
72	1
73	3
74	1
75	1
77	19
78	4
79	25
80	2
81	2
82	3
83	1
84	1
85	5
86	1
87	5
89	9
90	8
91	999
92	95
93	4
95	1
97	9
98	1
99	5
100	15
101	1
103	2
104	4
105	9
106	4
107	24
108	24
109	2
110	1
111	1
115	28
116	3
117	6
118	1
119	1
120	1
121	2
122	1
127	2
128	4
129	3
130	1
131	4
132	2
133	4
134	1
135	6
143	8
144	1
145	8
146	7
147	1
151	8
152	1
156	2
157	2
159	1
160	1
161	4
163	11
164	2
165	1
167	2
169	2
171	2
173	2
174	2
175	5
176	3
177	3
179	1
181	17
182	6
187	2
188	1
191	3
193	2
197	2
205	3
206	5
207	1
223	1
253	99
254	18
255	2
