Mass Spectrum: 1,3,5-Trimethyl-3,7-diazabicyclo[3.3.1]nonan-9-ol
Formula: C10H20N2O
CAS: 169177-17-7
Molecular weight: 184
m/z	intensity
36	51
39	224
40	313
41	517
42	962
43	539
44	999
45	98
46	14
50	13
51	34
53	98
54	13
55	176
56	420
57	290
58	953
59	84
60	56
63	13
67	69
68	114
69	133
70	272
71	241
72	102
73	67
74	171
77	72
79	62
80	21
82	402
83	100
84	530
85	149
86	117
87	6
91	17
92	15
93	36
94	216
95	151
96	262
97	124
98	168
99	36
100	134
101	30
105	47
106	26
107	86
108	670
109	299
110	384
111	277
112	166
113	82
114	22
121	27
122	414
123	152
124	236
125	103
126	268
127	15
136	73
138	153
139	44
140	152
141	76
142	10
143	9
150	23
151	29
154	34
166	10
167	67
168	8
169	10
171	10
182	36
183	72
184	731
185	107
