Mass Spectrum: 3,7-Dibenzyl-1,5-dimethyl-3,7-diazabicyclo[3.3.1]nonan-9-one oxime
Formula: C23H29N3O
CAS: 169177-23-5
Molecular weight: 363
m/z	intensity
33	1
35	10
36	111
37	8
38	38
39	33
40	15
41	53
42	81
43	23
44	15
50	4
51	14
52	6
53	10
55	35
56	5
57	7
58	7
62	3
63	11
65	93
66	7
67	9
68	15
69	5
70	8
71	2
74	2
77	17
78	8
79	12
80	6
81	7
82	8
83	2
84	9
89	19
91	999
92	77
93	13
94	5
95	8
96	5
97	2
98	2
103	2
104	9
105	11
106	17
107	7
108	18
109	8
110	11
117	5
118	14
119	9
120	29
121	16
122	27
123	9
124	4
126	2
129	1
130	2
132	8
134	220
135	36
136	16
137	9
138	4
139	3
146	3
148	9
149	7
152	1
153	8
157	2
160	11
161	1
164	3
174	4
175	1
182	1
184	3
188	1
198	4
210	1
211	4
212	9
213	16
214	4
215	1
225	9
227	69
229	47
230	7
239	2
241	7
243	4
244	5
245	5
254	4
256	3
272	6
346	16
347	6
348	1
363	6
