Mass Spectrum: Ethene, 1,2-difluoro-
Formula: C2H2F2
CAS: 1691-13-0
Molecular weight: 64
m/z	intensity
14	12
31	258
33	212
43	15
44	255
45	492
46	40
47	10
48	1
49	1
50	1
62	18
63	99
64	999
