Mass Spectrum: N-Phenyl-N'-(4-bromobenzylidene)hydrazine
Formula: C13H11BrN2
CAS: 16917-42-3
Molecular weight: 274
m/z	intensity
26	5
27	23
28	53
29	9
32	3
36	5
37	12
38	50
39	221
40	28
41	43
42	9
43	30
44	8
49	9
50	163
51	152
52	43
53	6
54	8
55	29
56	10
57	43
61	10
62	51
63	142
64	93
65	645
66	230
67	20
69	17
70	20
71	26
73	9
74	56
75	157
76	164
77	133
78	16
79	4
80	4
81	5
82	10
83	28
84	23
85	9
86	5
87	7
89	139
90	40
91	200
92	999
93	372
94	20
97	18
98	9
102	37
103	24
104	7
105	3
111	3
112	10
113	5
115	5
117	5
118	36
119	39
129	6
137	22
138	25
139	9
140	4
141	3
152	5
155	87
156	8
157	75
158	4
165	12
166	16
167	47
168	25
169	7
171	37
181	18
182	30
183	26
184	29
185	7
192	2
193	20
194	57
195	40
196	5
247	2
273	117
274	631
275	207
276	601
277	86
