Mass Spectrum: 3,7-Dibenzyl-1,5-dimethyl-3,7-diazabicyclo[3.3.1]nonan-9-ol
Formula: C23H30N2O
CAS: 169177-15-5
Molecular weight: 350
m/z	intensity
33	4
36	3
39	73
41	122
42	104
43	59
45	152
46	5
48	1
50	9
51	20
53	74
54	26
55	64
57	16
58	7
60	2
61	2
63	22
65	145
67	18
68	10
69	18
70	25
71	31
72	11
74	4
75	2
76	4
77	14
78	8
79	9
81	23
82	21
84	26
86	8
88	24
89	38
91	999
93	8
94	8
95	9
96	9
98	51
99	15
104	13
105	8
106	15
107	11
108	28
109	9
110	12
111	3
112	1
113	1
116	17
118	40
119	22
120	26
122	82
123	11
124	15
125	4
126	2
127	1
128	2
129	2
130	2
131	4
132	12
134	115
135	8
136	2
138	9
139	2
140	4
141	2
142	1
143	2
144	3
145	3
146	3
147	2
148	5
150	52
151	4
152	3
154	6
155	1
157	4
158	11
159	8
160	8
161	3
162	1
166	1
167	1
168	2
169	1
170	1
172	7
173	5
174	12
175	4
176	4
177	1
181	1
182	1
184	2
185	1
186	1
187	2
188	1
189	1
190	1
191	1
192	2
194	1
195	2
198	57
199	9
200	5
201	1
202	1
209	1
211	3
212	4
214	49
215	6
216	7
218	1
226	1
227	1
228	2
229	2
230	7
231	3
232	8
233	1
238	1
239	1
240	3
241	13
242	3
243	2
244	4
245	5
246	1
253	1
254	1
255	2
256	6
259	73
260	9
317	1
333	1
334	1
344	1
345	1
346	2
347	4
348	8
350	39
351	4
352	1
