Mass Spectrum: 1-(4-Hydroxyphenylmethyl)-3,6-diazahomoadamantan-9-one hydrazone
Formula: C16H22N4O
CAS: 169271-58-3
Molecular weight: 286
m/z	intensity
38	5
39	33
40	26
41	98
42	220
43	72
44	94
45	13
50	6
51	15
52	15
53	28
54	43
55	44
56	81
57	44
58	460
59	20
60	2
62	2
63	6
64	4
65	25
66	17
67	23
68	43
69	32
70	43
71	20
72	999
73	53
74	2
75	2
76	2
77	57
78	23
79	30
80	33
81	26
82	32
83	26
84	36
85	44
86	4
87	6
89	5
90	4
91	22
92	16
93	27
94	42
95	31
96	16
97	10
98	10
99	9
100	1
101	2
102	4
103	15
104	8
105	16
106	25
107	210
108	43
109	21
110	8
111	10
112	2
113	7
114	3
115	19
116	8
117	10
118	10
119	20
120	27
121	35
122	23
123	12
124	4
125	5
126	3
127	13
128	13
129	8
130	9
131	41
132	19
133	25
134	21
135	21
136	19
137	6
138	3
139	2
140	2
141	6
142	4
143	12
144	13
145	21
146	13
147	16
148	11
149	9
150	9
151	5
152	4
153	4
154	4
155	4
156	9
157	16
158	16
159	11
160	10
161	4
162	8
163	8
164	14
165	4
166	2
167	4
168	6
169	10
170	11
171	11
172	14
173	8
174	9
175	3
176	2
177	2
178	3
179	8
180	2
181	7
182	6
183	13
184	21
185	20
186	29
187	16
188	8
195	3
196	7
197	28
198	30
199	29
200	39
201	25
202	6
210	6
211	12
212	17
213	28
214	22
215	13
216	5
217	3
224	3
225	15
226	11
227	52
228	35
229	15
230	3
239	4
240	6
241	18
242	17
243	17
244	7
253	3
254	6
255	9
256	18
257	13
258	6
268	14
269	14
270	190
271	75
272	17
273	3
283	3
284	3
285	11
286	360
287	69
288	6
