Mass Spectrum: 1-(4-Hydroxyphenylmethyl)-3,6-diazahomoadamantan-9-one
Formula: C16H20N2O2
CAS: 169271-54-9
Molecular weight: 272
m/z	intensity
26	12
27	68
28	170
29	34
30	240
31	33
32	18
38	10
39	51
40	21
41	130
42	260
43	260
44	100
45	37
50	6
51	23
52	14
53	29
54	28
55	150
56	54
57	110
58	999
59	50
60	30
61	3
62	2
63	9
64	4
65	16
66	9
67	17
68	47
69	35
70	47
71	25
72	390
73	170
74	9
75	3
76	3
77	58
78	18
79	17
80	13
81	14
82	57
83	31
84	91
85	220
86	15
87	19
88	1
89	6
91	15
92	3
93	6
94	24
95	12
96	17
97	12
98	14
99	5
100	3
101	4
102	5
103	11
104	5
105	13
106	7
107	130
108	23
109	9
110	12
111	11
112	2
114	1
115	14
116	5
117	6
118	4
119	9
120	8
121	7
122	25
123	10
124	13
125	7
126	2
127	7
128	5
129	5
130	2
131	31
132	14
133	17
134	9
135	5
136	26
137	14
138	3
139	3
141	3
144	6
145	19
146	10
147	13
148	4
149	2
151	1
157	3
158	3
159	6
160	8
161	7
162	2
163	2
164	2
165	21
166	3
169	3
171	3
172	5
173	3
174	8
175	3
176	2
179	2
181	2
184	2
185	2
186	7
187	7
188	9
189	2
190	3
196	5
198	2
199	3
200	16
201	29
202	9
203	2
212	7
213	3
214	5
215	4
216	10
217	4
227	2
228	24
229	22
230	10
231	2
243	2
244	6
250	4
257	6
271	11
272	240
273	44
274	4
