Mass Spectrum: Parapropamol
Formula: C9H11NO2
CAS: 1693-37-4
Molecular weight: 165
m/z	intensity
26	40
27	170
29	660
30	10
39	40
40	10
44	10
50	10
51	40
52	90
53	50
54	10
55	30
56	10
57	630
58	20
63	20
64	10
65	20
78	20
79	20
80	60
81	60
106	20
107	20
108	80
109	999
110	70
134	30
135	20
165	130
166	10
