Mass Spectrum: 1-Chlorosulfonyl-3-methyl-1-azaspiro[3.5]nonan-2-one
Formula: C9H14ClNO3S
CAS: 16933-89-4
Molecular weight: 251
m/z	intensity
41	236
42	20
43	106
44	10
45	41
46	3
49	4
50	15
51	47
52	27
53	109
54	30
55	171
56	25
57	31
58	25
59	13
60	0
61	1
62	4
63	12
64	3
65	49
66	24
67	305
68	29
69	34
70	13
71	7
72	3
73	19
74	125
75	30
76	2
77	78
78	22
79	212
80	164
81	999
82	71
83	15
84	6
85	5
86	4
87	6
88	54
89	10
91	43
92	6
93	58
94	14
95	18
96	10
97	21
98	10
99	20
100	4
101	3
103	3
105	7
106	3
107	17
108	74
109	251
110	27
111	27
112	4
114	0
115	3
116	1
117	5
118	2
119	1
121	10
122	6
123	5
124	6
125	6
126	4
128	0
129	1
133	2
135	7
136	19
137	5
138	12
139	9
149	1
150	3
152	4
153	11
154	88
155	10
168	15
169	2
