Mass Spectrum: 4-Triethylsilylbut-1-en-3-yne
Formula: C10H18Si
CAS: 1693-70-5
Molecular weight: 166
m/z	intensity
26	26
27	74
29	61
39	20
41	53
43	104
53	183
54	55
55	184
56	19
57	55
66	14
67	49
69	137
77	30
79	202
80	66
81	797
82	79
83	56
93	24
95	24
107	44
108	19
109	999
110	115
111	38
137	749
138	78
139	28
166	80
167	8
168	3
