Mass Spectrum: Hexyl tiglate
Formula: C11H20O2
CAS: 16930-96-4
Molecular weight: 184
m/z	intensity
26	4
27	65
28	18
29	109
30	3
31	4
37	1
38	4
39	105
40	15
41	152
42	81
43	231
44	10
45	22
46	1
50	6
51	13
52	9
53	69
54	59
55	640
56	246
57	68
58	4
59	5
60	1
61	2
65	2
66	1
67	12
68	4
69	113
70	8
71	6
72	4
73	19
74	3
79	1
81	6
82	65
83	724
84	123
85	68
86	4
87	11
88	1
89	2
95	4
96	2
97	3
98	4
99	15
100	139
101	999
102	57
103	7
109	2
110	7
111	32
112	4
113	10
114	12
115	2
123	4
124	1
125	1
127	7
128	2
129	2
137	1
138	1
139	1
141	4
142	3
143	1
151	1
155	2
156	1
166	1
167	1
169	15
170	2
184	9
185	1
