Mass Spectrum: 1,1,1,5,5,5-Hexafluoro-2,4-pentanedione
Formula: C5H2F6O2
CAS: 1694-30-0
Molecular weight: 208
m/z	intensity
40	29
41	29
42	29
43	29
69	999
70	11
89	19
91	118
92	1
119	88
120	44
121	2
139	858
140	49
141	4
149	44
150	2
208	176
209	10
210	1
