Mass Spectrum: Ethane, 1-[(N,N-diethylamino)ethyl]-2-[(2-mercaptoethyl)thio]-
Formula: C8H19NS2
CAS: 169493-12-3
Molecular weight: 193
m/z	intensity
45	8
56	53
57	24
58	78
59	10
61	9
70	13
71	11
72	23
73	19
84	10
86	999
87	67
89	15
99	9
100	33
101	16
116	2
130	3
132	3
133	30
134	1
160	3
192	6
193	39
194	3
195	1
