Mass Spectrum: Carbonochloridic acid, 2,4,5-trichlorophenyl ester
Formula: C7H2Cl4O2
CAS: 16947-69-6
Molecular weight: 258
m/z	intensity
35	24
36	3
37	28
38	5
47	11
48	9
49	16
50	16
53	13
54	1
60	21
61	105
62	161
63	999
65	320
66	10
67	3
71	16
72	75
73	48
74	86
75	5
82	2
83	51
84	34
85	40
86	9
87	7
89	2
90	5
91	3
94	1
95	6
96	58
97	254
98	31
99	84
100	4
106	3
107	127
108	45
109	114
110	18
111	27
117	6
119	10
121	2
131	25
132	15
133	10
134	15
135	1
141	2
143	58
144	23
145	23
146	13
147	3
162	4
167	301
169	287
170	12
171	92
172	1
173	6
179	152
180	3
181	147
182	9
183	46
195	270
197	255
198	6
199	83
201	7
223	25
225	26
227	7
230	6
232	8
234	1
258	158
259	2
260	207
261	6
262	97
263	3
264	18
