Mass Spectrum: Diazene, 2-naphthalenylphenyl-, 2-oxide
Formula: C16H12N2O
CAS: 16954-76-0
Molecular weight: 248
m/z	intensity
38	21
39	70
41	14
50	79
51	209
52	35
61	42
62	93
63	70
64	47
74	26
75	70
76	44
77	999
78	77
79	14
86	21
87	28
88	53
89	56
90	23
91	277
92	26
101	44
102	7
105	140
114	93
115	228
116	402
117	42
126	88
127	205
128	30
131	19
139	19
140	186
141	137
142	14
143	42
144	23
165	23
189	19
190	7
191	79
192	30
202	28
217	9
218	16
219	107
220	72
232	16
247	26
248	279
249	51
250	21
