Mass Spectrum: Benzoic acid, 2-[(benzoylamino)carbonyl]hydrazide
Formula: C15H13N3O3
CAS: 16956-44-8
Molecular weight: 283
m/z	intensity
91	40
103	32
104	20
105	999
106	120
107	20
118	112
119	8
121	120
122	20
136	120
137	8
147	192
148	8
162	140
163	20
