Mass Spectrum: 7,8-Diazabicyclo[4.2.0]octane, 1-methyl-, 7,8-dioxide
Formula: C7H12N2O2
CAS: 169522-32-1
Molecular weight: 156
m/z	intensity
33	2
34	2
36	0
37	17
39	581
40	160
41	402
42	87
43	29
44	18
45	5
46	3
47	0
49	2
50	43
51	82
53	316
54	245
55	356
56	24
57	9
58	9
59	0
60	1
61	2
62	7
63	18
65	62
67	533
68	421
69	33
70	3
71	1
72	0
73	1
74	1
75	1
77	67
79	123
81	999
82	72
83	7
84	2
85	0
86	0
87	0
89	0
91	18
92	3
93	15
95	215
96	444
97	32
98	1
99	0
100	0
103	0
104	0
105	0
106	0
107	0
108	2
109	2
110	4
111	1
112	0
113	0
119	0
121	0
122	0
123	0
126	124
127	10
128	0
156	7
157	0
