Mass Spectrum: N,N'-Bis[1-(ethoxycarbonyl)prop-1-en-2-yl]ethylenediamine
Formula: C14H24N2O4
CAS: 1695-79-0
Molecular weight: 284
m/z	intensity
40	50
41	100
42	120
55	80
68	80
70	50
71	190
82	160
84	50
96	999
97	150
109	50
130	80
142	580
143	200
155	370
239	100
284	80
