Mass Spectrum: Benzil-bis-phenylhydrazon
Formula: C26H22N4
CAS: 1695-80-3
Molecular weight: 390
m/z	intensity
13	6
14	7
16	6
17	11
18	13
26	9
27	22
28	42
29	9
32	9
35	4
37	15
38	32
39	192
40	28
41	57
42	7
43	7
44	9
47	16
48	10
49	12
50	45
51	157
52	57
53	9
54	6
61	6
62	12
63	86
64	199
65	712
66	100
67	10
74	11
75	14
76	46
77	319
78	85
79	6
80	4
83	53
85	37
87	10
88	6
89	95
90	28
91	999
92	827
93	313
94	23
102	9
103	38
104	185
105	26
106	4
107	32
115	11
116	6
117	8
126	7
127	4
128	6
139	9
140	6
141	4
149	7
150	4
151	11
152	22
153	5
163	5
164	7
165	53
166	18
167	35
168	18
169	4
176	12
177	11
178	48
179	14
180	26
181	6
182	51
183	9
190	9
191	5
192	122
193	91
194	137
195	77
196	10
205	6
206	3
207	4
208	2
220	10
221	2
239	1
252	1
253	1
254	0
267	3
268	2
269	3
270	1
271	0
281	1
282	2
283	12
284	6
285	50
286	12
287	1
296	27
297	241
298	557
299	125
300	14
301	0
388	0
389	11
390	319
391	97
392	14
393	1
