Mass Spectrum: 2-Azacyclopropa[cd]pentalene, octahydro-2-methyl-
Formula: C8H13N
CAS: 16967-61-6
Molecular weight: 123
m/z	intensity
26	20
27	130
28	70
29	20
30	20
37	10
38	20
39	190
40	30
41	150
42	370
43	20
44	110
50	30
51	70
52	50
53	120
54	30
55	50
56	10
57	30
62	10
63	20
64	10
65	40
66	30
67	80
68	40
69	10
70	10
77	80
78	40
79	190
80	110
81	70
82	180
83	10
91	240
92	10
93	350
94	999
95	280
96	40
104	10
106	10
107	20
108	50
120	10
122	100
123	170
124	20
