Mass Spectrum: S-Butyl n-hexyl disulfide
Formula: C10H22S2
CAS: 169611-28-3
Molecular weight: 206
m/z	intensity
47	62
48	2
49	4
50	2
51	6
52	4
53	38
54	21
55	232
56	101
57	999
58	59
59	60
60	38
61	49
62	3
63	3
64	15
65	7
66	9
67	8
68	1
69	16
70	0
72	1
73	15
74	1
75	2
76	0
77	0
78	4
79	37
80	2
81	12
82	2
83	23
84	40
85	470
86	36
87	25
88	11
89	5
90	1
91	0
92	1
93	5
94	0
95	0
101	1
105	0
106	0
107	1
114	0
115	7
116	5
117	150
118	12
119	6
120	1
121	5
122	7
123	0
124	0
135	0
148	0
149	9
150	211
151	20
152	17
153	1
177	0
204	0
205	7
206	131
207	19
208	12
209	1
