Mass Spectrum: 1,2,4-Trioxolane, 3,5-dipropyl-
Formula: C8H16O3
CAS: 1696-03-3
Molecular weight: 160
m/z	intensity
15	75
26	95
27	714
28	804
29	662
31	79
38	62
39	291
40	58
41	652
42	220
43	999
44	802
45	108
46	41
55	166
56	41
57	156
58	20
60	366
61	20
70	20
71	104
72	250
73	125
85	16
87	14
88	37
89	14
117	45
160	16
