Mass Spectrum: Boroxin, tris(2,3-dimethylbut-2-yl)-
Formula: C18H39B3O3
CAS: 169695-37-8
Molecular weight: 336
m/z	intensity
25	10
26	49
27	221
28	3
29	83
30	5
31	7
36	7
37	17
38	24
39	201
40	153
41	999
42	137
43	374
44	41
45	62
46	1
47	5
48	1
49	7
50	21
51	45
52	61
53	230
54	103
55	287
56	72
57	83
58	10
59	12
60	10
61	27
62	7
63	16
64	10
65	30
66	50
67	202
68	98
69	771
70	80
71	95
72	23
73	39
74	6
75	9
76	5
77	19
78	9
79	21
80	35
81	148
82	54
83	176
84	435
85	108
86	20
87	26
88	12
89	18
90	12
91	28
92	10
93	17
94	60
95	257
96	144
97	114
98	18
99	17
100	21
101	15
102	11
103	18
104	8
105	13
106	4
107	8
108	13
109	28
110	34
111	79
112	24
113	33
114	32
115	87
116	9
117	8
118	4
119	12
120	6
121	10
122	14
123	27
124	21
125	33
126	11
127	19
128	9
129	8
130	13
131	27
132	6
133	13
134	4
135	15
136	75
137	182
138	71
139	49
140	10
141	12
142	9
143	10
144	3
145	5
146	3
147	4
148	3
149	6
150	9
151	14
152	12
153	10
154	6
155	15
156	46
157	75
158	11
159	4
160	2
161	4
162	5
163	10
164	19
165	26
166	25
167	24
168	5
169	7
170	4
171	6
172	11
173	18
174	9
175	18
176	4
177	5
178	7
179	20
180	64
181	115
182	19
183	7
184	7
185	7
186	2
187	1
188	4
189	11
190	4
191	7
192	7
193	12
194	11
195	12
196	5
197	3
198	1
199	2
200	2
201	1
202	1
203	2
204	4
205	11
206	26
207	59
208	76
209	96
210	13
211	6
212	5
213	7
214	2
215	2
216	2
217	4
218	1
219	3
220	3
221	7
222	8
223	10
224	3
225	4
226	6
227	9
228	1
231	2
232	1
233	2
234	5
235	8
236	7
237	6
238	2
239	2
240	0
241	0
242	0
243	0
244	0
245	1
246	3
247	11
248	28
249	44
250	56
251	58
252	11
253	4
254	5
255	8
256	2
257	1
258	1
259	1
260	0
261	0
262	1
263	2
264	3
265	3
266	2
267	2
268	0
269	1
270	0
271	0
273	0
274	0
275	1
276	2
277	4
278	5
279	5
280	6
281	2
282	1
283	2
284	2
285	1
289	3
290	16
291	71
292	158
293	156
294	29
295	4
296	0
300	0
301	0
305	0
306	0
307	1
318	1
319	6
320	16
321	19
322	4
323	0
