Mass Spectrum: 1H-Thieno[3,4-d]imidazole-4-propanoic acid, hexahydro-2-oxo-, [3aS-(3a.alpha.,4.beta.,6a.alpha.)]-
Formula: C8H12N2O3S
CAS: 16968-98-2
Molecular weight: 216
m/z	intensity
80	161
81	112
82	306
83	40
84	911
85	983
86	443
87	975
88	177
89	121
90	16
93	64
94	16
95	40
96	129
97	999
98	806
99	161
100	612
101	145
102	24
103	16
108	48
109	48
110	233
111	370
112	64
113	177
114	403
115	56
116	24
117	16
123	153
124	193
125	16
126	16
127	8
128	8
129	153
132	274
133	16
138	16
144	145
150	40
151	129
152	129
153	16
154	8
155	64
156	951
157	298
158	112
160	24
161	64
162	48
169	64
171	48
172	145
198	951
199	161
200	64
201	32
216	887
217	72
