Mass Spectrum: Ethane, 1-[(2-diethylamino)ethylthio]-2-[(2-diethylamino)ethyldithio]-
Formula: C14H32N2S3
CAS: 169739-57-5
Molecular weight: 324
m/z	intensity
45	15
56	70
57	24
58	90
59	14
61	14
70	17
71	17
72	45
84	16
86	999
87	87
89	117
99	7
100	69
116	4
130	4
131	8
132	24
133	16
160	88
161	3
162	2
165	5
191	4
192	30
193	9
194	2
225	5
