Mass Spectrum: 3-Phenyl-1,4-dioxa-2-aza-spiro[4.5]deca-2,6-diene
Formula: C13H13NO2
CAS: 169773-29-9
Molecular weight: 215
m/z	intensity
12	3
14	6
15	23
16	3
17	8
18	22
25	3
26	50
27	267
28	74
29	38
30	29
31	4
37	26
38	84
39	531
40	276
41	245
42	127
43	24
44	4
45	3
50	142
51	317
52	87
53	74
54	22
55	111
56	8
57	6
61	8
62	29
63	123
64	213
65	92
66	25
67	71
68	999
69	52
70	7
71	3
73	4
74	22
75	25
76	67
77	438
78	39
79	66
80	14
81	10
83	4
86	4
87	6
88	12
89	24
91	394
92	35
93	16
94	4
95	25
96	47
97	13
98	3
102	5
103	44
105	623
106	51
107	6
115	6
117	4
119	931
120	83
121	10
128	4
129	3
136	4
174	3
187	178
188	22
215	139
216	25
217	6
