Mass Spectrum: 1H-1,2,3-Triazole-4-carboxylic acid, 5-amino-1-(phenylmethyl)-, hydrazide
Formula: C10H12N6O
CAS: 16975-91-0
Molecular weight: 232
m/z	intensity
33	1
39	86
40	15
41	50
42	28
43	37
44	26
45	6
46	1
47	1
50	25
51	55
52	18
53	26
54	20
55	58
56	20
57	9
58	9
59	17
60	2
63	39
65	186
66	11
68	51
69	15
70	8
75	7
76	9
77	39
78	13
79	11
80	5
85	7
86	16
87	5
89	43
91	999
92	80
93	7
94	2
103	54
104	19
105	7
106	30
107	8
108	9
109	8
111	16
113	31
114	2
116	8
117	17
118	15
119	5
120	2
128	73
129	11
130	9
131	5
133	8
134	1
144	5
145	22
146	7
147	1
156	8
157	2
158	7
159	1
171	6
172	2
175	76
176	8
183	8
184	5
201	49
202	5
203	0
215	4
216	3
217	4
218	0
232	289
233	35
234	2
