Mass Spectrum: 1H-Imidazole, 1-methyl-2-vinyl-
Formula: C6H8N2
CAS: 16975-71-6
Molecular weight: 108
m/z	intensity
27	329
37	79
38	120
39	282
40	270
41	162
42	277
51	70
52	166
53	143
54	348
55	105
56	28
65	28
66	127
67	56
68	42
69	11
78	7
79	25
80	92
81	112
82	93
83	5
92	13
93	33
95	8
96	9
106	38
107	999
108	871
109	61
