Mass Spectrum: 3-Penten-2-one, semicarbazone
Formula: C6H11N3O
CAS: 16983-59-8
Molecular weight: 141
m/z	intensity
39	268
40	100
41	382
42	307
43	168
44	189
47	27
48	20
49	20
50	23
51	36
52	27
53	120
54	57
55	68
56	180
57	100
65	39
66	45
67	159
68	95
69	34
70	86
80	70
81	73
82	139
83	999
84	59
95	43
96	39
97	159
98	73
141	245
142	25
