Mass Spectrum: 3-Buten-2-one, 4-(m-methoxyphenyl)-, semicarbazone
Formula: C12H15N3O2
CAS: 16983-77-0
Molecular weight: 233
m/z	intensity
39	90
41	50
42	80
43	60
44	170
51	80
57	60
63	80
65	60
77	110
78	60
83	999
84	60
89	80
91	100
95	60
102	80
108	70
115	170
116	80
117	60
127	50
128	70
130	60
131	70
143	50
144	110
145	90
146	90
158	70
159	130
172	160
173	829
174	470
175	100
189	699
190	180
215	60
232	100
233	450
234	60
