Mass Spectrum: 3-Penten-2-one, 3,4-dimethyl-, semicarbazone
Formula: C8H15N3O
CAS: 16983-60-1
Molecular weight: 169
m/z	intensity
39	220
40	60
41	739
42	180
43	50
44	180
53	220
67	280
68	160
69	60
81	90
94	90
95	160
108	110
109	150
110	290
111	999
112	80
125	110
126	70
154	60
169	90
