Mass Spectrum: Illudol
Formula: C15H26O
CAS: 16981-75-2
Molecular weight: 222
m/z	intensity
26	11
27	278
28	38
29	501
30	10
31	34
36	7
38	6
39	255
40	50
41	999
42	55
43	538
44	27
45	70
50	8
51	41
52	21
53	214
54	34
55	683
56	84
57	170
58	12
59	15
60	2
61	8
62	2
63	10
64	6
65	85
66	29
67	316
68	56
69	433
70	37
71	128
72	14
73	6
74	3
75	3
76	2
77	153
78	31
79	229
80	135
81	541
82	83
83	204
84	592
85	84
86	7
87	3
89	3
91	191
92	39
93	271
94	128
95	500
96	94
97	149
98	106
99	21
103	12
104	5
105	130
106	66
107	330
108	221
109	587
110	70
111	139
112	18
113	9
115	9
116	5
117	11
118	4
119	103
120	37
121	152
122	170
123	280
124	56
125	43
126	68
127	7
128	4
129	4
130	3
131	8
132	3
133	72
134	24
135	532
136	99
137	69
138	37
139	23
140	3
141	2
145	6
146	2
147	44
148	174
149	69
150	21
151	35
152	13
153	5
154	4
159	3
160	3
161	82
162	35
163	65
164	20
165	12
166	2
175	37
176	19
177	13
178	3
179	45
180	19
181	2
189	344
190	64
191	100
192	17
193	6
204	130
205	31
206	4
207	50
208	9
220	4
221	3
222	236
223	39
224	4
