Mass Spectrum: Pyridazin-3(2H)-one, 6-chloro-2-phenyl-
Formula: C10H7ClN2O
CAS: 1698-57-3
Molecular weight: 206
m/z	intensity
34	2
35	23
36	24
37	115
38	227
39	210
40	73
41	51
42	6
43	15
44	24
45	3
46	1
47	43
48	2
49	25
50	168
51	638
52	330
53	43
54	9
55	8
56	4
57	11
58	1
60	5
61	26
62	50
63	168
64	227
65	105
66	7
67	2
69	5
70	3
71	6
72	30
73	451
74	66
75	164
76	32
77	999
78	70
79	3
80	80
81	6
82	2
83	2
86	3
87	7
88	9
89	45
90	25
91	647
92	43
93	10
94	1
98	1
102	2
103	12
104	6
105	32
106	2
112	2
113	1
114	6
115	50
116	33
117	6
119	8
129	1
142	12
143	60
144	8
146	1
149	2
151	4
152	5
171	17
172	1
178	124
179	11
180	39
181	4
205	271
206	416
207	130
208	128
209	16
