Mass Spectrum: Benzene, 4-(chloromethyl)-1,2-bis(phenylmethoxy)-
Formula: C21H19ClO2
CAS: 1699-59-8
Molecular weight: 338
m/z	intensity
41	7
50	0
51	18
52	1
63	13
64	4
65	117
66	3
77	11
78	0
89	14
90	9
91	999
92	69
93	5
100	1
105	4
106	0
125	0
128	1
165	0
181	47
182	5
211	2
212	1
247	10
249	1
303	1
338	26
339	3
340	7
