Mass Spectrum: 3,4-Benzyloxyphenylacetic acid
Formula: C22H20O4
CAS: 1699-61-2
Molecular weight: 348
m/z	intensity
41	19
42	3
43	13
44	78
45	25
47	1
49	8
50	26
51	47
52	14
53	9
54	1
55	15
56	3
57	7
60	6
61	5
62	14
63	36
65	130
66	13
67	5
68	2
69	7
70	2
71	4
73	5
74	5
75	4
76	7
77	32
78	26
79	11
80	1
81	4
82	6
83	6
84	6
85	4
86	4
87	3
89	24
91	999
92	152
93	5
94	11
95	3
96	2
97	4
98	2
99	1
101	2
102	2
103	4
104	3
105	12
106	7
107	10
108	7
109	1
110	10
111	1
112	1
113	2
115	13
116	2
117	1
118	0
119	2
120	7
121	4
122	10
123	7
124	5
125	1
126	3
127	4
128	6
129	5
130	0
131	2
132	0
133	1
134	2
135	3
136	12
137	3
138	2
139	4
141	8
142	1
143	0
145	0
147	0
149	1
150	2
151	3
152	13
153	9
154	3
155	5
156	0
157	0
163	2
164	2
165	28
166	8
167	16
168	11
169	3
170	0
171	1
176	2
177	2
178	9
179	15
180	15
181	61
182	18
183	20
184	13
185	2
186	0
189	1
190	0
191	1
193	4
194	3
195	10
196	3
197	11
198	19
199	7
200	6
201	2
202	1
203	0
207	3
208	2
209	3
210	3
211	17
212	7
213	7
214	12
215	3
216	0
221	0
223	2
224	3
225	10
226	4
227	2
228	2
229	1
230	1
239	4
240	1
241	2
242	1
243	0
252	2
253	2
255	4
256	8
257	30
258	14
259	2
261	0
265	1
268	0
269	1
270	2
271	1
272	0
273	1
274	6
275	1
276	0
281	0
282	0
283	3
284	3
285	2
286	2
287	2
288	5
289	4
290	6
291	1
296	0
297	1
298	1
299	1
300	1
301	5
302	3
303	6
304	15
305	3
313	1
315	0
316	1
330	0
331	2
346	0
347	1
348	101
349	22
350	3
