Mass Spectrum: 3-Benzyloxybenzyl alcohol
Formula: C14H14O2
CAS: 1700-30-7
Molecular weight: 214
m/z	intensity
26	1
27	6
29	5
31	6
37	1
38	9
39	69
40	8
41	36
42	1
43	1
50	15
51	43
52	12
53	6
55	9
61	1
62	9
63	41
64	17
65	173
66	24
67	15
68	1
74	3
75	3
76	4
77	42
78	14
79	3
83	1
86	1
87	1
89	33
91	999
92	115
93	5
94	5
95	6
97	1
98	2
105	4
106	1
107	3
108	2
115	2
122	1
123	5
124	1
127	1
128	2
129	1
141	1
152	4
153	3
154	1
155	2
165	4
167	1
181	1
183	14
184	3
195	1
196	1
197	1
214	82
215	12
216	1
