Mass Spectrum: 11-Methyl-6,7,10,11,12,13,15,16-octahydro-9H-5,8,14,17-tetraoxa-11-aza-benzocyclopentadecene-2-carbaldehyde
Formula: C16H23NO5
CAS: 170026-24-1
Molecular weight: 309
m/z	intensity
50	5
54	9
55	25
56	89
57	951
58	201
59	154
60	10
61	3
66	6
67	9
68	7
69	20
70	155
71	131
72	80
81	20
82	15
83	36
84	118
85	112
86	112
87	136
88	14
89	3
99	9
100	53
101	37
102	48
103	5
110	3
111	2
112	6
113	17
114	999
115	87
116	9
119	9
120	3
121	11
122	3
123	2
127	2
128	14
129	3
130	6
134	2
135	7
136	6
137	14
138	3
139	2
140	2
141	1
148	4
149	62
150	7
151	3
152	1
160	1
161	1
162	5
163	43
164	95
165	15
166	2
176	2
177	2
178	2
179	1
180	1
189	2
191	2
192	1
204	1
205	2
206	2
207	1
208	2
221	3
222	14
223	2
224	2
248	2
249	2
250	8
251	52
252	323
253	44
254	6
263	2
264	15
265	4
266	5
267	1
277	2
278	20
279	4
280	1
281	1
291	1
292	6
306	1
307	2
308	13
309	100
310	18
311	2
