Mass Spectrum: 1H-Indole, 3,3'-[dithiobis(methylene)]bis-
Formula: C18H16N2S2
CAS: 17004-43-2
Molecular weight: 324
m/z	intensity
26	6
27	12
28	18
29	4
31	18
32	12
33	9
34	12
37	4
38	10
39	24
40	3
49	3
50	46
51	65
52	27
53	4
61	7
62	18
63	45
64	41
65	14
66	6
67	3
69	9
73	4
74	41
75	58
76	69
77	97
78	15
80	7
81	3
82	4
87	7
88	4
89	45
90	15
91	20
93	4
98	9
99	4
100	1
101	24
102	165
103	97
104	10
115	3
116	12
117	41
118	65
119	6
127	4
128	65
129	272
130	999
131	124
132	9
133	15
134	9
135	3
159	3
160	91
161	71
162	38
163	66
164	9
165	3
195	3
245	4
258	10
259	4
292	6
324	3
