Mass Spectrum: Trichocarpin, pentaacetate
Formula: C30H32O14
CAS: 17019-77-1
Molecular weight: 616
m/z	intensity
43	852
91	727
109	999
127	322
169	722
211	33
229	27
244	133
271	75
286	27
331	388
345	27
382	27
509	47
616	22
