Mass Spectrum: 1-Butanone, 1-(3-pyridinyl)-
Formula: C9H11NO
CAS: 1701-70-8
Molecular weight: 149
m/z	intensity
41	30
42	10
43	40
50	40
51	170
52	30
53	10
55	10
63	10
64	10
65	10
71	10
75	10
76	20
77	30
78	520
79	60
80	10
91	10
93	10
103	10
104	30
105	10
106	999
107	80
108	10
117	10
118	90
119	10
121	260
122	20
131	40
132	10
134	30
135	10
145	20
146	20
147	10
148	40
149	220
150	30
