Mass Spectrum: 2-Pentanone, 5-(trimethylsilyl)-
Formula: C8H18OSi
CAS: 17012-93-0
Molecular weight: 158
m/z	intensity
67	17
69	11
70	17
71	28
72	179
73	815
74	78
75	151
76	16
77	22
85	28
99	28
115	999
116	95
117	28
143	145
144	11
145	5
