Mass Spectrum: Benzyl alcohol, 2,5-dihydroxy-, 2,5-diacetate benzoate
Formula: C18H16O6
CAS: 17019-78-2
Molecular weight: 328
m/z	intensity
43	999
50	232
51	600
52	84
53	84
54	84
55	116
65	232
66	155
67	116
76	110
77	394
78	155
94	503
95	78
105	148
106	271
122	258
123	840
124	122
138	232
164	316
165	122
226	32
244	999
245	174
286	700
287	129
328	32
