Mass Spectrum: 2-Pyrazoline-1-carboxamide, 3-methyl-
Formula: C5H9N3O
CAS: 17014-30-1
Molecular weight: 127
m/z	intensity
42	360
43	320
54	110
55	120
56	240
83	999
84	980
85	50
127	260
128	10
