Mass Spectrum: 3-Buten-2-one, 4-(o-bromophenyl)-, semicarbazone
Formula: C11H12BrN3O
CAS: 17014-27-6
Molecular weight: 281
m/z	intensity
39	60
42	70
44	200
50	60
51	120
63	80
75	100
76	50
77	100
83	999
84	60
89	60
101	110
102	140
115	120
116	50
117	60
127	130
128	310
129	140
130	50
142	130
143	120
144	90
158	110
159	140
185	140
202	80
221	150
222	80
223	150
224	80
237	130
238	50
239	130
240	50
281	50
283	50
