Mass Spectrum: Populin, tetraacetate
Formula: C28H30O12
CAS: 17019-76-0
Molecular weight: 558
m/z	intensity
43	450
44	14
51	12
77	88
78	39
81	29
97	27
105	999
106	148
107	490
109	91
115	8
127	39
139	8
169	57
177	12
231	205
232	32
333	2
393	135
394	27
498	2
558	0
