Mass Spectrum: 1-Butanone, 1-(4-pyridinyl)-
Formula: C9H11NO
CAS: 1701-71-9
Molecular weight: 149
m/z	intensity
36	4
37	1
38	7
39	35
40	6
41	48
42	9
43	111
44	5
49	3
50	43
51	209
52	35
53	10
54	0
55	10
62	1
63	3
64	1
65	8
66	1
67	5
69	2
71	37
72	1
74	1
75	2
76	4
77	8
78	594
79	122
80	8
91	1
92	2
93	15
94	0
104	1
106	999
107	73
108	4
116	5
117	3
120	4
121	290
122	24
123	0
130	2
131	9
132	71
133	10
134	27
135	2
148	63
149	336
150	35
151	2
