Mass Spectrum: 3-Buten-2-one, 4-phenyl-, 4-phenylsemicarbazone
Formula: C17H17N3O
CAS: 17014-34-5
Molecular weight: 279
m/z	intensity
39	130
42	100
50	50
51	160
63	70
64	60
65	140
66	70
77	360
78	60
83	999
84	60
91	150
92	110
93	290
102	70
103	90
115	180
127	50
128	120
129	130
143	70
144	480
145	80
159	669
160	150
279	70
