Mass Spectrum: SAU
Formula: C4H5N3O4S
CAS: 17017-91-3
Molecular weight: 191
m/z	intensity
41	277
42	527
43	93
44	62
45	5
48	265
50	24
51	6
52	15
53	26
54	9
55	9
56	18
64	188
65	18
66	3
67	20
68	163
69	516
70	47
71	1
80	427
81	14
82	30
84	10
96	7
97	2
98	8
105	8
112	999
113	82
114	6
175	3
191	9
192	1
