Mass Spectrum: Cyclohexanone, 2-benzylidene-, semicarbazone
Formula: C14H17N3O
CAS: 17026-13-0
Molecular weight: 243
m/z	intensity
39	160
41	150
43	60
44	240
51	120
53	50
55	70
63	70
65	90
77	190
78	60
79	50
81	90
89	60
91	240
102	100
103	70
104	70
115	230
116	80
117	60
123	999
124	80
127	110
128	240
129	130
130	80
141	180
142	90
154	50
155	70
156	50
157	130
167	50
168	70
182	340
183	799
184	430
199	669
200	330
225	70
242	110
243	100
