Mass Spectrum: Tribromomethyl phenyl sulfone
Formula: C7H5Br3O2S
CAS: 17025-47-7
Molecular weight: 390
m/z	intensity
26	2
27	17
28	1
32	1
36	2
37	6
38	12
39	45
40	1
41	2
44	6
45	14
47	1
48	5
49	6
50	113
51	391
52	17
53	22
54	1
57	2
58	1
60	1
61	6
62	15
63	33
64	5
65	14
66	1
69	11
70	3
71	2
73	6
74	32
75	24
76	30
77	999
78	65
79	8
80	9
81	13
82	9
83	1
85	1
86	2
87	3
88	5
89	63
90	6
91	18
92	1
93	18
94	1
95	2
96	2
97	91
98	6
99	4
105	1
107	2
108	3
109	9
110	3
111	1
113	1
117	1
119	1
121	1
123	2
125	882
126	65
127	42
128	3
129	1
141	629
142	47
143	31
144	2
155	1
156	18
157	2
158	18
159	1
167	2
168	9
169	3
170	26
171	3
172	41
173	4
174	20
175	2
186	1
247	15
248	1
249	182
250	4
251	473
252	5
253	443
254	5
255	144
256	1
