Mass Spectrum: 1,4-Di-(2-chloroacetyl)-piperazine
Formula: C8H12Cl2N2O2
CAS: 1703-23-7
Molecular weight: 238
m/z	intensity
51	60
54	77
55	273
56	999
57	113
58	59
68	11
69	172
70	84
71	17
76	2
77	199
79	50
81	2
82	2
83	48
84	135
85	905
86	41
91	1
97	4
98	100
99	33
106	4
110	8
113	248
114	5
119	70
120	112
121	16
122	29
125	11
126	9
127	5
132	70
133	15
134	19
135	1
145	39
146	13
147	11
149	3
160	8
161	218
162	12
163	59
175	5
189	548
190	36
191	169
192	4
202	96
203	119
204	29
205	29
223	1
235	1
238	97
239	2
240	53
242	1
