Mass Spectrum: 7-Azabicyclo[2.2.1]heptane-2,3-dicarboxylic acid, 7-(p-tolylsulfonyl)-, dimethyl ester, trans-
Formula: C17H21NO6S
CAS: 17037-57-9
Molecular weight: 367
m/z	intensity
60	11
62	24
63	97
64	34
65	326
66	74
67	132
68	512
69	66
75	13
77	45
78	26
79	34
80	45
81	34
82	21
83	15
85	47
89	106
90	76
91	999
92	169
93	61
94	103
95	24
98	26
107	11
108	21
111	14
113	63
114	24
120	26
121	12
122	47
126	17
138	21
139	29
146	53
152	142
153	29
154	12
155	185
156	26
157	16
158	21
159	63
180	68
181	12
184	45
212	215
213	29
216	14
221	24
222	106
223	320
224	47
225	18
280	34
308	106
309	21
336	74
337	14
367	61
368	14
