Mass Spectrum: Isobenzofuran-4,7-imin-1(3H)-one, hexahydro-3,3-dimethyl-8-(p-tolylsulfonyl)-
Formula: C17H21NO4S
CAS: 17037-50-2
Molecular weight: 335
m/z	intensity
63	23
65	130
66	29
67	120
68	999
69	72
77	30
78	10
79	32
80	28
81	19
89	28
90	21
91	439
92	75
93	60
94	54
95	23
96	67
97	14
106	13
107	14
108	42
109	14
113	70
114	90
119	10
120	26
122	30
124	226
134	11
135	10
136	100
137	13
139	26
155	134
156	19
157	14
158	16
159	82
160	10
180	420
181	48
221	38
222	201
223	230
224	37
225	12
335	23
