Mass Spectrum: Isobenzofuran-4,7-imine-1,3-dione, hexahydro-8-[(4-methylphenyl)sulfonyl]-, (3a.alpha.,4.alpha.,7.alpha.,7a.alpha.)-
Formula: C15H15NO5S
CAS: 17037-46-6
Molecular weight: 321
m/z	intensity
60	12
62	15
63	60
64	20
65	272
66	72
67	160
68	815
69	53
77	45
78	19
79	40
80	21
81	27
89	70
90	45
91	999
92	143
93	45
94	123
95	35
105	12
106	12
107	13
108	11
118	11
121	19
122	520
123	48
124	57
138	12
139	77
155	386
156	45
157	37
158	35
159	224
160	27
166	272
167	27
221	14
222	120
223	475
224	69
225	27
256	10
257	14
321	64
322	13
