Mass Spectrum: 7-Azabicyclo[2.2.1]heptane-2,3,7-tricarboxylic acid, 7-benzyl dimethyl ester, trans-
Formula: C18H21NO6
CAS: 17037-56-8
Molecular weight: 347
m/z	intensity
63	17
65	76
66	14
67	21
68	54
69	47
77	31
78	11
79	17
89	18
90	17
91	999
92	99
93	21
94	18
113	28
114	11
120	10
122	24
130	15
131	34
137	10
141	13
146	118
152	15
158	104
159	180
160	25
180	14
203	12
208	31
213	33
216	12
240	23
244	34
347	64
348	13
