Mass Spectrum: 7-Azabicyclo[2.2.1]heptane-2-carboxylic acid, 3-acetyl-7-(p-tolylsulfonyl)-, methyl ester, endo-2,endo-3-
Formula: C17H21NO5S
CAS: 17037-47-7
Molecular weight: 351
m/z	intensity
61	11
62	34
63	115
64	41
65	332
66	73
67	178
68	630
69	126
71	15
74	14
75	14
77	73
79	32
80	68
81	30
82	42
83	13
85	15
87	67
89	94
90	65
91	999
92	178
93	56
94	136
95	58
96	16
97	57
104	11
105	17
106	23
107	22
108	19
109	10
111	42
113	31
115	13
117	10
118	15
119	10
120	40
121	23
122	105
123	25
124	25
126	63
128	10
129	15
130	263
133	15
136	73
137	27
138	95
139	65
140	17
146	14
152	28
153	29
154	44
155	300
156	47
157	26
158	23
159	79
160	11
164	73
165	11
168	40
178	40
180	26
196	231
197	34
212	10
221	48
222	189
223	142
224	30
225	11
236	18
248	13
250	11
280	32
292	13
308	136
309	27
310	11
319	11
320	30
351	29
