Mass Spectrum: 1,2,3,4-Butanetetracarboxylic acid
Formula: C8H10O8
CAS: 1703-58-8
Molecular weight: 234
m/z	intensity
12	2
13	3
14	18
15	28
16	9
17	9
18	53
19	2
25	9
26	122
27	626
28	224
29	346
30	11
31	35
32	1
34	4
35	2
36	2
37	19
38	50
39	483
40	57
41	246
42	333
43	530
44	124
45	364
46	14
47	6
48	2
49	15
50	62
51	98
52	75
53	349
54	999
55	921
56	148
57	482
58	125
59	6
60	93
61	9
62	2
63	5
65	2
66	8
67	19
68	23
69	111
70	134
71	70
72	63
73	75
74	5
77	2
79	11
80	106
81	196
82	119
83	37
84	255
85	480
86	26
87	6
88	1
89	6
92	1
94	2
95	20
96	10
97	107
98	511
99	186
100	281
101	27
102	13
103	1
107	2
108	759
109	60
110	19
111	12
112	486
113	152
114	10
115	2
116	42
117	26
118	4
123	1
124	14
125	69
126	875
127	91
128	12
129	3
130	3
131	1
136	3
138	10
139	31
140	2
141	1
142	3
143	1
144	249
145	16
146	3
151	2
152	107
153	65
154	209
155	17
156	12
157	6
170	89
171	12
172	9
180	4
181	37
182	3
198	14
199	81
200	7
201	1
217	27
218	2
