Mass Spectrum: Butyl isocyanatoacetate
Formula: C7H11NO3
CAS: 17046-22-9
Molecular weight: 157
m/z	intensity
14	2
15	8
26	12
27	132
28	136
29	664
30	27
31	13
37	1
38	4
39	71
40	12
41	601
42	50
43	57
44	9
45	3
50	2
51	3
52	1
53	7
54	5
55	82
56	604
57	999
58	45
59	2
70	2
71	11
72	2
73	4
74	19
76	2
77	1
83	5
84	13
86	51
87	2
91	7
101	2
102	11
103	1
105	3
106	4
112	1
114	4
128	2
130	2
