Mass Spectrum: 10-Ethyl-3-chloro-7-acetylamino-8-nitro-phenothiazine-5-oxide
Formula: C16H14ClN3O4S
CAS: 170465-22-2
Molecular weight: 379
m/z	intensity
43	999
45	151
55	151
57	227
69	124
71	103
149	117
169	137
170	68
211	137
246	220
247	137
248	117
249	46
288	262
289	68
290	124
291	48
292	158
304	124
305	34
306	55
318	158
319	48
320	68
332	82
333	82
334	137
335	89
336	68
349	20
362	468
363	241
364	227
365	103
366	34
378	4
379	87
380	20
381	34
382	6
