Mass Spectrum: S,S'-Bis(2-dimethylaminoethyl) methylphosphonotrithioate
Formula: C9H23N2PS3
CAS: 170425-22-6
Molecular weight: 286
m/z	intensity
30	117
42	261
43	71
44	119
45	13
46	3
56	82
57	8
58	999
59	37
61	10
63	11
70	35
71	115
72	116
73	20
102	19
104	5
105	15
182	4
183	83
184	3
185	5
215	22
217	2
