Mass Spectrum: 3-Buten-2-one, 4-hydroxy-4-phenyl-
Formula: C10H10O2
CAS: 1704-14-9
Molecular weight: 162
m/z	intensity
31	17
32	17
35	17
38	17
39	91
40	10
41	49
42	17
43	443
44	17
48	3
50	102
51	334
52	38
53	10
55	28
59	10
62	17
63	42
64	14
65	49
66	17
67	24
69	806
70	21
74	38
75	31
76	45
77	704
78	161
79	24
84	10
85	183
86	10
89	28
90	10
91	66
92	14
102	17
103	42
104	7
105	999
106	84
115	28
120	77
121	7
145	14
147	521
148	49
149	7
160	14
161	387
162	573
163	56
