Mass Spectrum: Bicyclo[2.1.0]pentane, 1,4-dimethyl-
Formula: C7H12
CAS: 17065-18-8
Molecular weight: 96
m/z	intensity
37	2
38	13
39	212
40	35
41	237
42	16
43	30
45	2
46	1
50	15
51	38
52	17
53	216
54	28
55	107
56	23
57	8
62	2
63	8
65	46
66	26
67	96
68	10
69	7
70	2
71	4
77	73
78	9
79	282
80	33
81	999
82	64
83	1
85	1
91	10
92	0
93	10
94	4
95	28
96	9
97	2
