Mass Spectrum: N-(2-Nitro)benzyliene-4-bromoaniline
Formula: C13H9BrN2O2
CAS: 17064-89-0
Molecular weight: 304
m/z	intensity
65	110
75	398
76	999
77	380
89	118
90	140
91	119
92	118
102	100
104	276
105	120
134	139
137	121
139	119
151	330
152	756
153	128
154	118
155	478
156	128
157	477
167	99
170	169
172	170
177	168
178	416
179	170
180	608
181	138
183	148
185	149
195	100
257	357
259	347
287	597
288	148
289	598
290	119
304	309
306	310
