Mass Spectrum: N-(2-Nitro)benzylidene-2-bromo-aniline
Formula: C13H9BrN2O2
CAS: 17064-87-8
Molecular weight: 304
m/z	intensity
76	999
77	443
89	99
90	101
91	121
104	239
134	160
151	270
152	571
155	429
157	429
170	100
172	138
177	161
178	482
179	130
180	732
181	121
195	130
208	100
257	298
259	299
287	570
289	570
304	229
306	231
