Mass Spectrum: Propane, 3-cyclohexyl-1-phenyl-
Formula: C15H22
CAS: 170661-44-6
Molecular weight: 202
m/z	intensity
26	2
27	55
28	0
29	59
30	1
32	2
35	0
36	0
37	1
38	4
39	97
40	9
41	196
42	17
43	24
44	0
45	0
46	0
47	1
50	6
51	29
52	9
53	28
54	29
55	132
56	10
57	10
58	1
59	0
60	0
61	0
62	3
63	15
64	4
65	102
66	10
67	32
68	19
69	122
70	7
73	0
74	2
75	3
76	2
77	51
78	42
79	39
80	4
81	21
82	12
83	8
84	1
85	0
87	1
88	0
89	12
90	10
91	999
92	428
93	34
94	1
95	7
96	2
97	1
98	0
100	0
101	1
102	4
103	25
104	786
105	156
106	16
107	2
108	1
109	3
110	5
111	7
113	1
114	1
115	13
116	7
117	205
118	59
119	12
120	3
121	0
122	0
124	1
127	1
128	2
129	2
130	3
131	62
132	19
133	10
134	2
141	1
144	1
145	13
146	6
147	1
148	1
157	1
159	6
160	9
161	1
162	0
167	1
173	4
174	3
187	1
200	0
201	1
202	195
203	30
204	2
