Mass Spectrum: 3-Oxanon-(5E)-enoic acid, 7-[(t-butoxycarbonyl)amino]-8-methyl-, t-butyl ester
Formula: C18H33NO5
CAS: 170700-83-1
Molecular weight: 343
m/z	intensity
25	0
26	1
27	29
28	23
29	145
30	16
31	11
37	0
38	0
39	38
40	5
41	270
42	17
43	47
44	6
45	2
46	0
50	0
51	1
52	1
53	13
54	7
55	33
56	39
57	999
58	41
59	33
60	1
61	1
62	3
64	0
65	2
66	2
67	19
68	371
69	63
70	33
71	8
72	45
73	5
74	4
75	0
76	0
77	6
78	1
79	13
80	4
81	45
82	7
83	4
84	0
85	1
86	0
87	1
88	3
89	0
91	1
92	0
93	6
94	11
95	96
96	50
97	8
98	10
99	1
100	9
101	1
102	0
104	0
105	0
107	0
108	1
109	0
110	17
111	26
112	178
113	48
114	23
115	13
116	77
117	5
118	1
122	0
123	0
124	2
125	0
126	6
127	1
128	4
129	1
130	1
131	0
133	2
134	0
136	0
137	0
138	5
139	1
140	7
141	1
142	9
143	1
144	165
145	10
146	18
147	1
148	1
151	0
152	0
153	0
154	8
155	50
156	163
157	27
158	3
159	0
162	0
166	0
167	0
168	2
169	2
170	31
171	11
172	17
173	2
174	0
184	0
186	3
187	3
188	329
189	27
190	8
191	0
194	0
195	0
198	0
199	0
200	29
201	2
202	6
203	0
211	4
212	4
213	1
214	31
215	3
216	4
217	0
218	0
226	5
227	1
228	0
229	0
230	1
231	43
232	6
233	0
234	0
242	0
243	0
244	41
245	5
246	2
247	0
256	0
270	2
271	0
272	1
286	0
287	10
288	2
289	0
300	52
301	9
302	4
303	0
343	0
344	0
