Mass Spectrum: .beta.-D-Talopyranose, 1,6-anhydro-3,4-O-(1-methylethylidene)-
Formula: C9H14O5
CAS: 17073-95-9
Molecular weight: 202
m/z	intensity
43	999
59	749
69	345
70	154
71	217
73	146
81	254
83	14
85	260
97	176
99	117
100	34
101	87
109	24
113	11
115	28
126	14
127	98
139	20
141	4
143	79
145	98
156	6
159	2
173	6
185	10
187	586
202	3
203	97
