Mass Spectrum: Ether, butyl isopentyl
Formula: C9H20O
CAS: 17071-52-2
Molecular weight: 144
m/z	intensity
23	0
24	0
25	1
26	14
27	113
28	51
29	246
30	9
31	26
32	0
33	1
36	0
38	2
39	67
40	11
41	314
42	86
43	631
44	27
45	82
46	1
47	2
49	0
50	1
51	3
52	1
53	13
54	6
55	169
56	132
57	999
58	45
59	8
60	0
65	0
67	2
68	1
69	279
70	610
71	350
72	21
73	18
74	1
75	0
78	0
85	2
86	0
87	129
88	6
89	1
91	0
101	71
102	3
115	0
143	0
