Mass Spectrum: 1H-1,2,3-Triazol-1-amine, 4-(4-bromophenyl)-N-(phenylmethylene)-
Formula: C15H11BrN4
CAS: 17076-53-8
Molecular weight: 326
m/z	intensity
75	220
77	60
89	240
90	999
101	260
103	60
104	20
115	20
116	20
118	260
180	260
182	260
191	20
192	10
194	9
195	9
196	9
197	9
271	26
273	26
298	13
300	13
326	7
328	7
