Mass Spectrum: Silane, chloro(3-isocyanatopropyl)dimethyl-
Formula: C6H12ClNOSi
CAS: 17070-70-1
Molecular weight: 177
m/z	intensity
15	17
26	9
27	40
28	117
29	27
39	32
40	11
41	41
42	93
43	86
44	11
45	15
47	1
53	19
54	14
55	23
56	211
57	13
58	23
59	19
63	185
64	22
65	207
66	17
67	58
68	2
69	21
70	41
71	2
72	17
73	3
76	2
77	109
78	90
79	72
80	33
81	21
86	18
91	10
92	27
93	999
94	88
95	364
96	26
97	13
99	10
100	186
101	16
102	9
104	31
105	13
106	31
107	2
108	8
119	11
120	767
121	120
122	283
123	39
124	10
133	14
136	3
140	12
141	12
142	9
148	2
149	10
160	10
162	291
163	31
164	100
165	8
177	134
178	14
179	46
