Mass Spectrum: 2-Propylidene-malonic acid, diethyl ester
Formula: C10H16O4
CAS: 17085-88-0
Molecular weight: 200
m/z	intensity
26	17
27	164
28	19
29	475
30	11
31	24
38	5
39	75
40	6
41	60
42	12
43	150
44	12
45	44
46	3
50	7
51	14
52	17
53	106
54	71
55	91
56	22
57	86
58	22
59	9
60	2
65	4
66	2
67	13
68	4
69	20
70	8
71	41
72	3
73	13
77	3
79	8
80	105
81	73
82	126
83	30
84	4
85	6
86	3
95	3
96	2
97	21
98	27
99	294
100	150
101	21
108	999
109	265
110	21
111	10
113	2
115	8
125	20
126	58
127	370
128	57
129	7
133	2
141	7
142	3
143	3
144	9
149	2
154	281
155	382
156	30
157	4
160	2
171	5
172	4
199	0
200	13
201	1
