Mass Spectrum: 3-Penten-1-ol, 3-methyl-
Formula: C6H12O
CAS: 1708-99-2
Molecular weight: 100
m/z	intensity
31	100
32	20
39	210
40	25
41	999
42	160
43	130
44	12
53	125
54	130
55	340
56	30
67	570
68	45
69	430
70	145
71	65
82	325
83	25
100	260
101	17
