Mass Spectrum: Propane, 1,3-dimethoxy-
Formula: C5H12O2
CAS: 17081-21-9
Molecular weight: 104
m/z	intensity
24	0
25	1
26	20
27	86
29	241
30	12
31	59
33	25
37	2
38	6
39	49
40	9
41	123
42	144
43	49
44	10
45	999
46	23
47	8
53	1
54	0
55	4
56	3
57	157
58	22
59	11
61	0
69	0
70	2
71	146
72	458
73	31
74	8
75	26
76	1
85	0
89	1
103	0
105	0
