Mass Spectrum: Malonic acid, acetyl-, dimethyl ester
Formula: C7H10O5
CAS: 17094-36-9
Molecular weight: 174
m/z	intensity
29	518
30	28
31	271
32	14
39	142
40	10
41	196
42	516
43	999
44	23
45	131
46	10
55	335
56	27
57	342
58	27
59	838
60	36
69	340
70	23
71	77
72	8
74	258
75	19
85	290
86	23
101	129
102	9
111	52
112	6
114	193
115	64
116	129
117	15
125	45
126	6
128	26
129	3
142	322
143	309
144	24
174	26
175	1
