Mass Spectrum: Butanoic acid, 2-methyl-3-oxo-, methyl ester
Formula: C6H10O3
CAS: 17094-21-2
Molecular weight: 130
m/z	intensity
29	96
31	30
41	48
42	30
43	999
45	24
56	60
57	229
59	102
70	24
83	24
87	66
88	360
98	25
99	90
130	42
