Mass Spectrum: 2,4-Heptadien-6-yn-1-ol, (E,E)-
Formula: C7H8O
CAS: 17098-71-4
Molecular weight: 108
m/z	intensity
49	20
50	190
51	322
52	231
53	162
54	22
55	77
61	36
62	70
63	164
64	46
65	220
66	88
74	16
75	62
76	36
77	26
78	701
79	220
80	999
81	124
82	42
89	97
90	49
91	90
92	10
105	16
106	13
107	220
108	610
109	49
