Mass Spectrum: 4-Trimethylsilylmethylbenzamide
Formula: C11H17NOSi
CAS: 17095-22-6
Molecular weight: 207
m/z	intensity
14	3
15	10
16	11
17	26
18	39
26	4
27	11
28	22
29	29
30	5
31	14
32	4
38	6
39	28
40	8
41	18
42	13
43	107
44	66
45	168
46	9
47	10
50	8
51	25
52	8
53	29
54	8
55	32
56	8
57	25
58	18
59	25
60	9
61	10
62	8
63	46
64	13
65	24
66	10
67	14
68	5
69	17
70	10
71	13
72	10
73	570
74	87
75	92
76	12
77	60
78	13
79	21
80	5
81	9
82	6
83	13
84	7
85	10
86	4
87	5
88	12
89	92
90	315
91	60
92	8
93	13
94	3
95	8
96	5
97	8
98	4
99	5
101	4
102	8
103	31
104	13
105	39
106	29
107	38
108	4
109	3
111	5
112	5
113	3
115	8
116	6
117	25
118	999
119	120
120	14
121	28
122	4
123	7
125	3
127	4
128	4
129	8
130	8
131	35
132	8
133	22
134	10
135	16
136	5
137	4
143	5
144	2
145	13
146	7
147	26
148	138
149	39
150	10
151	4
152	3
157	2
159	3
161	3
162	2
163	3
164	6
165	13
166	3
167	3
171	9
172	2
173	3
174	8
175	8
176	4
177	4
178	4
179	4
180	2
185	3
187	2
189	2
190	2
191	12
192	142
193	69
194	16
195	3
205	2
207	175
208	70
209	14
210	4
