Mass Spectrum: 1-Ethenyl(dimethyl)silyloxynaphthalene
Formula: C14H16OSi
CAS: 170954-82-2
Molecular weight: 228
m/z	intensity
29	79
31	51
36	35
37	7
38	49
39	189
40	18
41	31
42	31
43	419
44	213
45	211
46	15
47	32
49	11
50	99
51	256
52	62
53	69
54	19
55	75
56	62
57	39
58	55
59	999
60	81
61	95
62	58
63	172
64	28
65	99
66	9
67	25
69	29
70	6
71	11
72	35
73	18
74	83
75	199
76	69
77	228
78	112
79	39
81	18
83	49
84	7
85	688
86	89
87	69
88	49
89	152
90	28
91	39
92	35
93	52
94	7
95	12
98	16
99	25
100	13
101	43
103	15
105	15
106	25
107	13
109	6
111	11
113	35
114	49
115	597
116	153
117	19
120	25
121	455
122	35
123	8
125	51
126	99
127	249
128	59
129	18
131	19
133	31
135	21
139	41
140	9
141	149
142	19
143	39
144	229
145	27
147	9
148	29
150	8
151	8
152	26
153	18
154	465
155	35
156	25
157	15
159	8
160	6
162	7
163	11
165	9
168	6
169	25
170	41
171	79
172	18
173	7
177	9
181	9
182	9
183	25
184	21
185	699
186	108
187	15
191	7
192	7
195	9
197	13
199	21
200	19
201	75
202	32
207	11
209	13
211	6
213	282
214	57
215	13
221	7
222	9
226	11
227	112
228	849
229	169
230	18
