Mass Spectrum: Pentanoic acid, 4,4-dimethyl-3-oxo-, ethyl ester
Formula: C9H16O3
CAS: 17094-34-7
Molecular weight: 172
m/z	intensity
14	3
15	14
18	1
26	8
27	69
28	27
29	315
30	9
31	52
32	1
37	1
38	3
39	57
40	10
41	329
42	52
43	109
44	14
45	53
46	9
47	2
50	2
51	3
52	1
53	8
54	2
55	28
56	56
57	999
58	45
59	9
60	96
61	76
62	2
65	2
67	6
68	2
69	97
70	76
71	19
72	1
73	7
75	2
79	1
81	3
82	2
83	12
84	2
85	110
86	7
87	171
88	290
89	19
90	2
97	1
98	2
99	1
100	5
101	3
109	1
111	31
112	2
115	165
116	9
117	31
118	2
124	1
126	3
127	20
128	1
129	6
130	1
144	63
145	6
155	1
157	2
172	16
173	6
