Mass Spectrum: Pyrazolo[1,5-c]pyrimidine-4-carboxylic acid, 5-amino-7-phenyl-, ethyl ester
Formula: C15H14N4O2
CAS: 170952-44-0
Molecular weight: 282
m/z	intensity
33	28
34	32
35	9
36	34
37	59
38	96
39	224
40	64
41	111
42	63
43	194
44	151
45	69
46	4
47	1
48	4
50	372
51	958
52	583
53	233
54	50
55	64
56	26
57	45
58	4
59	1
60	4
62	65
63	116
64	89
65	103
66	99
67	110
68	109
69	38
70	17
71	12
73	9
74	44
76	880
77	941
78	366
79	197
80	183
81	41
82	7
83	11
84	8
85	9
86	4
87	14
88	20
89	57
90	41
91	70
92	24
93	16
94	32
95	38
96	12
97	8
98	5
99	9
100	12
101	15
102	82
103	296
104	999
105	281
106	204
107	405
108	56
109	3
110	3
112	14
113	9
114	13
115	15
116	12
117	18
118	80
119	1
120	4
121	4
122	6
123	2
124	0
125	3
126	12
127	119
128	31
129	46
130	8
131	13
132	12
133	119
134	77
135	7
136	0
137	2
138	3
139	13
140	12
141	39
142	12
143	5
144	3
145	1
147	0
148	0
149	8
150	12
151	5
152	13
153	24
154	21
155	55
156	16
158	1
159	0
160	0
163	0
164	2
165	7
166	14
167	14
168	78
169	14
170	1
171	13
172	0
176	0
177	0
178	9
179	10
180	35
181	33
182	78
183	155
184	20
185	1
186	0
192	2
193	11
194	7
195	7
196	2
198	1
206	3
207	18
208	121
209	210
210	663
211	85
212	5
223	1
234	1
235	98
236	92
237	104
238	18
239	1
252	0
253	47
254	201
255	31
256	1
267	3
279	1
280	4
282	902
283	163
284	16
