Mass Spectrum: (2,2-Dichlorovinyl)methyl-bis(isopropylideneaminooxy)silane
Formula: C9H16Cl2N2O2Si
CAS: 170954-93-5
Molecular weight: 282
m/z	intensity
56	999
57	42
73	30
105	77
107	30
132	108
150	718
151	87
152	246
153	31
187	77
207	50
209	19
210	96
211	25
212	70
213	19
214	31
247	232
248	38
249	81
250	8
267	30
269	7
282	60
283	6
284	39
