Mass Spectrum: 5-Isothiazolemethanol
Formula: C4H5NOS
CAS: 1710-66-3
Molecular weight: 115
m/z	intensity
44	80
45	160
54	100
55	200
57	240
58	160
59	320
82	400
86	999
87	320
98	80
112	80
114	240
115	980
