Mass Spectrum: Pyridine, 2-bromo-4-ethoxy-
Formula: C7H8BrNO
CAS: 17117-13-4
Molecular weight: 201
m/z	intensity
33	1
34	1
35	9
36	9
37	32
38	66
39	207
40	82
41	30
42	21
43	43
44	67
45	9
47	21
48	12
49	18
50	82
51	76
52	42
53	70
55	34
56	9
57	12
58	2
59	5
60	11
61	2
63	5
64	25
65	25
66	42
67	73
68	32
69	8
70	8
71	7
72	4
73	7
74	3
75	13
76	43
77	14
78	15
79	8
80	7
81	7
86	1
89	2
90	1
91	12
92	8
94	999
95	55
96	7
97	4
98	3
102	1
104	2
105	4
106	6
107	3
108	3
109	1
111	3
112	4
113	3
114	3
117	13
118	12
119	28
120	14
121	6
122	206
123	17
124	2
128	3
129	47
130	6
131	31
132	1
133	5
135	6
144	9
145	5
146	5
147	4
149	2
156	19
157	24
158	18
159	15
160	1
169	3
170	2
171	6
173	92
175	92
176	5
186	2
188	2
198	1
199	3
201	308
202	33
203	292
204	23
