Mass Spectrum: Nitric acid, 1-methylethyl ester
Formula: C3H7NO3
CAS: 1712-64-7
Molecular weight: 105
m/z	intensity
13	2
14	17
15	119
16	6
18	1
25	2
26	18
27	128
28	40
29	110
30	119
31	31
32	2
33	2
37	4
38	8
39	43
40	9
41	191
42	44
43	985
44	60
45	20
46	999
47	5
48	4
57	1
58	11
59	1
90	142
91	3
104	1
