Mass Spectrum: Phosphoramidic acid, dipropyl ester
Formula: C6H16NO3P
CAS: 17123-09-0
Molecular weight: 181
m/z	intensity
40	30
41	200
42	90
43	220
45	20
47	10
59	20
64	20
80	260
81	70
82	20
98	999
110	40
111	20
112	20
122	180
123	10
124	60
138	20
139	20
140	260
141	20
149	10
152	30
166	10
180	2
181	1
