Mass Spectrum: 2-(Dimethylaminoethyl) iminoaminomethyl sulfide
Formula: C5H13N3S
CAS: 17124-82-2
Molecular weight: 147
m/z	intensity
27	55
29	16
30	65
41	29
42	209
43	152
44	86
45	19
55	18
56	72
57	26
58	999
59	39
61	22
70	27
71	285
72	48
105	96
