Mass Spectrum: 2,5-Dimethyl-1,5-hexadien-3-ol
Formula: C8H14O
CAS: 17123-63-6
Molecular weight: 126
m/z	intensity
26	16
27	136
28	23
29	117
31	27
37	18
38	48
39	396
40	97
41	632
42	90
43	701
44	41
45	24
50	32
51	63
52	23
53	115
54	22
55	151
56	486
57	97
58	11
63	14
65	29
67	41
68	19
69	108
70	140
71	999
72	50
77	87
78	17
79	34
81	12
82	22
83	35
84	32
91	100
93	126
94	13
95	23
97	22
98	12
105	10
107	11
108	65
111	166
112	14
