Mass Spectrum: Butanamide, 3-oxo, N-phenyl-2,2-dichloro
Formula: C10H9Cl2NO2
CAS: 171262-24-1
Molecular weight: 245
m/z	intensity
26	17
27	62
28	48
29	14
30	2
31	3
35	6
36	35
37	35
38	70
39	170
40	31
41	72
42	21
43	999
44	45
45	7
46	6
47	8
48	9
49	11
50	51
51	156
52	53
53	12
54	12
55	29
56	11
57	28
58	13
59	2
60	6
61	22
62	41
63	111
64	174
65	474
66	152
67	20
68	5
69	23
70	9
71	18
72	2
73	8
74	18
75	21
76	43
77	522
78	48
79	16
81	7
83	25
84	13
85	20
86	3
87	6
88	7
89	16
90	21
91	288
92	754
93	972
94	122
95	10
96	4
97	12
98	3
99	4
100	2
101	3
102	13
103	28
104	111
105	29
106	34
107	6
108	2
109	4
110	5
111	8
112	4
113	4
114	3
115	6
116	7
117	8
118	10
119	614
120	379
121	41
122	4
124	5
125	13
126	200
127	11
128	125
129	11
130	18
131	5
132	437
133	140
134	277
135	26
136	3
137	3
138	26
140	30
141	28
142	20
143	5
144	3
145	2
146	19
147	6
148	11
149	32
150	8
151	8
152	5
153	6
154	3
155	9
156	3
159	3
161	2
162	2
163	3
164	4
165	5
166	22
167	125
168	220
169	137
170	80
171	37
172	4
173	3
174	3
175	9
176	22
177	33
178	7
179	2
180	3
181	12
182	6
184	3
186	2
187	2
188	1
189	1
190	1
191	4
192	2
193	2
194	3
195	2
197	1
198	1
199	1
200	1
201	1
202	2
203	570
204	47
205	369
206	31
207	57
208	6
209	19
210	3
211	205
212	29
213	71
214	9
215	2
216	2
217	1
218	2
219	1
220	1
221	0
222	0
223	1
224	1
225	0
226	1
227	1
228	0
229	1
230	0
231	0
232	0
233	1
234	0
235	0
236	1
237	0
238	1
239	1
240	2
241	0
242	0
243	1
245	136
246	17
247	89
248	8
249	12
250	2
251	0
