Mass Spectrum: 7-Oxabicyclo[4.1.0]heptane, 1-methyl-
Formula: C7H12O
CAS: 1713-33-3
Molecular weight: 112
m/z	intensity
28	89
29	124
31	27
32	13
38	6
39	255
40	55
41	496
42	172
43	999
44	131
45	13
51	20
53	89
54	68
55	475
56	103
57	103
58	165
65	13
66	20
67	172
68	172
69	255
71	55
77	20
79	41
81	62
83	172
84	103
85	13
91	13
94	6
96	6
97	689
98	41
111	34
112	137
113	6
