Mass Spectrum: 3-Methyl-1,2-oxazole-4-carboxylic acid
Formula: C5H5NO3
CAS: 17153-20-7
Molecular weight: 127
m/z	intensity
35	5
36	59
37	43
38	85
39	146
40	109
41	170
42	156
43	21
44	114
45	281
46	2
48	2
49	19
50	64
51	92
52	133
53	84
54	453
55	191
56	8
57	5
62	1
66	3
67	38
68	13
69	10
70	1
77	3
78	2
79	1
80	6
82	999
83	52
84	25
85	1
110	8
118	1
127	416
128	24
129	4
