Mass Spectrum: .beta.-D-Galactofuranoside, methyl 2,3,5,6-tetra-O-methyl-
Formula: C11H22O6
CAS: 17152-57-7
Molecular weight: 250
m/z	intensity
29	140
31	64
39	40
41	130
45	570
55	50
59	100
69	60
71	165
75	480
85	90
88	168
89	180
101	999
114	44
117	68
119	1
127	34
129	43
145	89
155	18
161	66
177	3
187	6
193	3
205	4
