Mass Spectrum: Diphenyl(trimethylsilyl)phosphine
Formula: C15H19PSi
CAS: 17154-34-6
Molecular weight: 258
m/z	intensity
26	1
27	1
29	11
30	0
31	4
38	0
39	6
40	0
41	1
42	1
43	38
44	16
45	128
46	8
47	4
50	0
51	9
52	1
53	8
54	1
55	5
56	1
57	12
58	5
59	7
60	1
61	0
62	0
63	3
64	0
65	3
66	1
67	2
68	0
69	2
70	1
71	2
72	6
73	999
74	79
75	35
76	1
77	7
78	2
79	3
80	1
81	6
82	1
83	3
84	0
85	0
86	0
87	0
88	0
89	1
90	0
91	6
93	3
94	0
95	3
96	0
97	0
98	0
99	0
101	1
102	1
103	13
104	1
105	21
106	2
107	14
109	0
110	0
111	0
113	0
115	3
116	0
117	4
118	1
119	5
120	0
121	17
122	1
123	0
125	0
126	0
127	0
128	1
129	1
130	0
131	1
132	0
133	4
134	0
135	29
136	4
137	1
138	0
139	1
140	0
141	1
142	0
143	0
144	0
145	0
146	0
147	0
148	0
149	1
150	0
151	1
152	7
153	0
154	0
155	0
156	0
157	3
158	0
159	0
160	0
161	0
163	0
164	0
165	3
166	0
167	0
168	0
169	0
170	1
171	0
179	0
180	0
181	2
182	1
183	22
184	3
185	5
193	0
194	0
195	2
196	0
197	28
198	5
199	4
200	0
209	0
211	1
212	0
213	0
224	0
225	0
227	0
242	0
243	10
244	2
245	0
258	197
259	41
260	10
261	1
