Mass Spectrum: Veralkamine
Formula: C27H43NO2
CAS: 17155-31-6
Molecular weight: 413
m/z	intensity
28	25
29	20
30	45
39	13
41	55
42	18
43	42
44	12
53	14
55	70
56	79
57	31
67	26
68	15
69	24
70	46
77	15
79	31
81	31
82	19
91	46
93	21
97	24
98	999
99	82
105	40
106	8
107	20
109	9
110	12
112	16
117	12
119	18
120	9
124	17
125	69
126	30
127	16
129	15
131	23
132	7
133	12
141	7
143	15
145	24
157	10
159	8
370	6
381	2
393	3
394	4
395	8
396	4
411	3
412	4
413	13
414	4
