Mass Spectrum: Bicyclo[3.1.1]heptan-2-one
Formula: C7H10O
CAS: 17159-87-4
Molecular weight: 110
m/z	intensity
26	103
27	569
29	155
37	30
38	67
39	612
40	102
41	591
42	161
43	446
44	89
50	86
51	113
52	64
53	270
54	770
55	937
56	69
57	89
58	100
63	35
65	75
66	120
67	999
68	273
69	125
71	50
77	59
79	92
81	202
82	284
83	59
91	30
92	31
93	33
95	150
107	31
109	46
110	581
111	65
