Mass Spectrum: 3-Fluoroamphetamine
Formula: C9H12FN
CAS: 1716-59-2
Molecular weight: 153
m/z	intensity
38	2
39	16
40	3
41	8
42	48
43	15
44	999
45	27
50	8
51	11
52	3
53	1
54	1
56	4
57	25
59	7
61	1
62	7
63	18
64	2
65	4
69	8
70	4
74	4
75	10
76	1
77	3
78	1
80	1
81	8
82	2
83	56
84	3
85	1
86	1
87	2
88	1
89	9
90	2
91	9
92	1
94	2
95	5
96	5
97	1
101	8
102	1
103	1
104	1
105	1
107	17
108	6
109	104
110	12
111	3
115	6
116	1
117	4
118	6
120	1
121	3
122	3
133	9
134	2
135	8
136	8
137	3
138	18
139	2
152	5
