Mass Spectrum: 1,2-Benzenediamine, 2TBDMS derivative
Formula: C18H36N2Si2
CAS: 171742-62-4
Molecular weight: 336
m/z	intensity
18	10
26	1
27	3
29	10
30	1
31	3
32	6
39	3
40	2
41	18
42	2
43	7
44	4
45	33
46	3
47	2
53	2
55	1
56	5
57	25
58	5
59	48
60	5
61	3
63	1
67	2
68	1
69	1
70	2
71	2
72	6
73	999
74	89
75	36
78	2
79	1
80	4
81	2
83	1
84	2
85	6
86	1
88	1
90	1
94	1
95	1
97	2
98	1
99	6
100	6
101	1
102	1
103	2
106	4
113	1
114	1
115	33
116	5
117	3
119	1
120	3
121	1
130	2
131	3
133	4
134	54
135	15
136	5
145	1
146	2
147	7
148	7
149	387
150	54
151	19
152	1
156	1
161	5
162	3
163	7
164	33
165	62
166	11
167	3
173	1
174	1
175	3
176	1
177	2
178	1
188	2
189	4
190	6
191	16
192	3
193	3
203	1
204	2
205	6
206	3
207	29
208	7
210	1
217	1
219	10
220	4
221	31
222	11
223	11
224	1
225	1
263	1
278	2
279	32
280	10
281	3
321	8
322	1
334	2
336	199
337	66
338	21
339	4
