Mass Spectrum: Carbonic acid, p-bromophenyl phenyl ester
Formula: C13H9BrO3
CAS: 17175-13-2
Molecular weight: 292
m/z	intensity
41	10
44	30
49	20
50	210
51	280
52	20
53	20
55	10
61	30
62	70
63	280
64	140
65	270
66	40
73	10
74	50
75	120
76	140
77	999
78	70
79	10
80	10
82	10
91	10
92	40
93	40
94	90
115	100
116	10
117	40
119	40
121	30
139	20
140	10
141	540
142	60
143	100
145	110
155	120
157	120
168	60
169	90
170	10
171	40
172	60
173	40
174	60
220	30
222	30
248	280
249	40
250	270
251	30
292	300
293	40
294	300
295	40
