Mass Spectrum: Cyclopropane, 1,1-dichloro-3-(1,1-dimethylethyl)-2,2-dimethyl-
Formula: C9H16Cl2
CAS: 17171-92-5
Molecular weight: 194
m/z	intensity
36	240
38	150
39	630
40	100
41	680
42	70
43	130
50	80
51	220
52	60
53	720
54	40
55	200
56	40
57	999
58	60
63	100
65	200
66	40
67	150
69	60
70	150
71	10
75	60
77	220
78	60
79	250
80	60
81	300
82	20
84	20
89	60
91	340
92	60
93	110
94	20
95	40
101	20
102	20
103	50
104	20
105	80
107	460
108	40
109	50
111	30
115	30
116	20
117	50
119	20
123	360
124	30
137	20
143	310
144	30
158	80
160	30
194	4
