Mass Spectrum: 6-(Benzo[d][1,3]dioxol-5-yl)hexa-3,5-dien-2-one
Formula: C13H12O3
CAS: 17172-93-9
Molecular weight: 216
m/z	intensity
29	8
38	5
39	44
43	127
50	38
51	60
52	11
53	24
57	22
62	65
63	134
64	32
65	49
74	37
75	39
76	18
77	48
79	11
86	20
87	32
88	37
89	99
91	24
95	28
100	62
102	15
103	27
113	30
114	69
115	999
116	125
117	49
122	10
127	37
128	55
129	39
130	10
131	15
143	267
144	52
145	33
148	8
157	11
158	22
159	25
171	98
172	42
173	286
174	39
186	15
201	253
202	31
215	93
216	579
217	64
