Mass Spectrum: Carbonic acid, 4-nitrophenyl phenyl ester
Formula: C13H9NO5
CAS: 17175-11-0
Molecular weight: 259
m/z	intensity
39	270
40	610
41	150
42	70
43	340
44	700
45	90
47	10
49	20
50	110
51	290
52	30
53	40
54	10
55	150
56	60
57	160
58	40
59	30
60	10
62	20
63	100
64	80
65	290
66	60
67	40
68	30
69	80
70	40
71	70
73	10
74	30
75	80
76	90
77	999
78	170
79	40
80	30
81	80
82	40
83	60
84	20
85	30
86	100
87	10
91	60
92	70
93	130
94	380
95	70
96	10
97	30
98	20
99	30
105	30
106	20
107	30
108	110
109	100
110	10
111	20
115	110
116	10
119	10
121	280
122	80
123	30
127	10
128	20
129	60
135	10
139	40
140	20
141	350
142	190
143	20
149	30
157	10
162	10
167	30
168	40
169	170
170	200
171	20
185	70
214	470
215	230
216	20
229	50
259	700
260	100
261	10
