Mass Spectrum: Carbonic acid, phenyl ester, ester with p-hydroxybenzonitrile
Formula: C14H9NO3
CAS: 17175-15-4
Molecular weight: 239
m/z	intensity
41	10
43	10
44	50
50	70
51	230
52	20
53	10
55	10
61	10
62	30
63	90
64	80
65	170
66	30
74	20
75	50
76	40
77	999
78	70
90	50
91	10
93	20
94	90
95	10
102	100
103	10
118	10
119	30
121	70
139	10
140	20
141	10
166	70
167	180
168	30
169	10
194	50
195	140
196	10
239	200
240	40
