Mass Spectrum: Carbonic acid, p-fluorophenyl phenyl ester
Formula: C13H9FO3
CAS: 17175-14-3
Molecular weight: 232
m/z	intensity
41	19
43	9
44	39
45	9
49	9
50	99
51	287
52	19
53	9
55	9
56	19
57	168
58	9
61	9
62	29
63	79
64	39
65	188
66	29
68	19
69	29
74	29
75	118
76	29
77	999
78	69
81	19
82	19
83	168
84	19
93	29
94	79
95	217
96	19
111	59
112	69
115	9
116	9
121	29
133	39
134	9
139	19
140	19
141	19
159	326
160	247
161	29
168	9
169	9
187	69
188	297
189	39
232	376
233	59
234	19
