Mass Spectrum: Trioxide, bis(trifluoromethyl)
Formula: C2F6O3
CAS: 1718-18-9
Molecular weight: 186
m/z	intensity
31	22
32	27
44	23
47	145
50	33
66	73
69	999
70	10
82	3
85	11
101	1
151	2
