Mass Spectrum: 5.alpha.-Pregnane-3.beta.,20.beta.-diol, 3-acetate
Formula: C23H38O3
CAS: 17182-23-9
Molecular weight: 362
m/z	intensity
41	256
43	999
45	530
47	24
48	6
49	6
50	1
51	3
52	4
53	82
54	28
55	384
56	24
57	65
58	7
59	2
60	3
61	30
63	2
65	38
66	19
67	308
68	77
69	97
70	13
71	66
72	5
73	3
77	106
78	22
79	271
80	59
81	361
82	53
83	65
84	7
85	30
86	4
87	2
88	5
91	220
92	59
93	345
94	136
95	324
96	34
97	34
98	3
99	5
100	3
101	2
103	10
104	17
105	197
106	130
107	306
108	174
109	105
110	13
111	18
112	3
113	3
114	2
115	11
116	6
117	39
118	20
119	103
120	58
121	128
122	125
123	61
124	12
125	8
126	2
127	5
128	6
129	9
130	5
131	39
132	19
133	108
134	49
135	103
136	33
137	14
138	3
139	3
141	3
142	3
143	11
144	6
145	78
146	34
147	179
148	47
149	60
150	8
151	3
152	1
153	1
155	2
156	0
157	9
158	5
159	41
160	22
161	57
162	30
163	36
164	6
165	3
166	1
167	1
169	1
171	7
172	3
173	35
174	22
175	42
176	44
177	28
178	5
179	3
183	1
185	10
186	4
187	33
188	18
189	19
190	6
191	4
192	4
193	2
194	2
197	1
199	11
201	153
202	33
203	21
204	7
205	2
206	7
207	2
213	20
214	3
215	183
216	323
217	81
218	17
219	4
220	3
227	11
228	9
229	30
230	26
231	7
232	3
233	5
234	3
241	5
242	5
243	19
244	6
245	4
246	3
247	7
248	28
249	5
255	16
256	3
257	25
258	10
259	3
260	13
261	31
262	9
263	2
269	53
270	10
271	2
273	8
274	13
275	82
276	326
277	66
278	7
283	3
284	38
285	15
286	5
287	41
288	27
289	5
290	3
293	1
299	0
300	1
302	250
303	64
304	8
305	0
315	9
316	2
319	1
329	16
330	3
344	54
345	14
346	2
347	2
362	1
