Mass Spectrum: 1,3,3-Trichloro-4-methyl-2-pentanone
Formula: C6H9Cl3O
CAS: 171818-11-4
Molecular weight: 202
m/z	intensity
17	77
18	104
26	58
27	492
28	94
36	82
38	77
39	560
41	144
42	183
43	102
49	673
50	95
51	371
52	64
53	689
55	54
61	87
63	325
65	137
73	75
75	238
76	65
77	829
79	242
83	117
85	80
87	271
88	56
89	999
90	71
91	335
111	61
117	104
123	355
124	817
125	252
126	659
127	69
128	166
151	139
153	91
155	10
159	99
161	97
163	34
165	78
166	4
167	43
187	49
189	48
191	11
