Mass Spectrum: Benzenepropanenitrile, .beta.-hydroxy-
Formula: C9H9NO
CAS: 17190-29-3
Molecular weight: 147
m/z	intensity
25	0
26	6
27	34
28	1
29	30
30	0
36	0
37	4
38	13
39	51
40	15
41	11
42	2
43	2
44	0
49	3
50	64
51	168
52	42
53	22
54	1
60	0
61	3
62	10
63	28
64	5
65	9
66	0
68	10
73	2
74	18
75	13
76	17
77	375
78	67
79	634
80	41
81	0
86	0
87	2
88	1
89	8
90	2
91	13
92	1
98	0
99	0
100	0
101	4
102	7
103	13
104	6
105	43
107	999
108	75
109	4
115	0
116	0
117	1
118	1
119	0
120	2
121	0
127	0
128	4
129	3
130	5
131	0
132	0
143	0
145	0
146	0
147	86
148	10
149	1
