Mass Spectrum: 3,4-Dimethyldihydrothiophene-2,5-dione
Formula: C6H8O2S
CAS: 171917-62-7
Molecular weight: 144
m/z	intensity
25	2
26	17
27	59
28	56
29	31
32	12
33	4
37	8
38	15
39	130
40	28
41	415
42	21
45	39
49	7
50	19
51	19
52	8
53	36
54	14
55	124
56	999
57	60
58	8
59	14
60	32
61	10
68	4
69	31
71	13
74	14
81	4
84	27
113	3
123	2
144	83
145	5
146	7
