Mass Spectrum: Silane, chloroethenyldimethyl-
Formula: C4H9ClSi
CAS: 1719-58-0
Molecular weight: 120
m/z	intensity
23	0
25	2
26	12
27	21
28	5
29	9
30	0
31	3
35	0
36	0
37	0
38	1
39	7
40	4
41	3
42	10
43	32
44	3
45	1
48	0
49	0
50	0
51	0
52	1
53	17
54	3
55	9
56	0
57	1
58	6
59	36
60	3
61	1
63	78
64	7
65	55
66	7
67	12
68	0
69	3
70	2
71	0
73	0
74	0
75	0
76	2
77	11
78	29
79	253
80	24
81	94
82	5
83	3
84	4
85	96
86	8
87	4
88	1
89	2
90	9
91	4
92	50
93	141
94	26
95	46
96	3
97	1
98	0
99	0
101	0
102	0
105	999
106	81
107	350
108	25
109	12
110	0
112	0
120	111
121	10
122	44
123	3
124	1
