Mass Spectrum: 2-Methylhentriacontane
Formula: C32H66
CAS: 1720-12-3
Molecular weight: 450
m/z	intensity
29	22
39	18
41	123
42	56
43	486
44	17
53	8
54	21
55	189
56	186
57	999
58	44
67	35
68	35
69	204
71	827
72	42
81	17
82	47
83	190
84	79
85	624
86	38
97	118
98	53
99	281
100	18
109	15
111	100
112	37
113	202
114	18
124	12
125	52
126	34
127	155
128	15
138	9
139	28
140	36
141	111
142	13
152	7
153	14
154	28
155	81
156	11
167	8
168	24
169	80
170	9
182	19
183	47
184	6
196	19
197	52
210	15
211	38
212	7
224	15
225	31
226	6
238	13
239	33
240	6
252	9
253	29
266	9
267	20
280	10
281	19
294	7
295	19
296	6
308	6
309	18
310	4
322	6
323	17
324	6
337	14
338	4
350	4
351	12
364	4
365	12
366	3
379	8
392	6
393	14
394	5
406	20
407	95
408	31
435	31
436	11
437	2
450	5
451	1
