Mass Spectrum: D2PM
Formula: C17H19NO
CAS: 172152-19-1
Molecular weight: 253
m/z	intensity
40	3
41	31
42	10
43	37
44	2
50	11
51	44
52	5
53	5
54	1
55	2
56	2
62	2
63	6
64	2
65	4
66	1
67	1
68	40
70	999
71	51
72	1
73	1
74	5
75	6
76	15
77	179
78	24
79	4
83	2
84	1
86	2
87	2
88	2
89	8
90	3
91	10
92	2
98	1
99	1
100	1
101	3
102	6
103	7
105	171
106	15
107	1
113	2
114	2
115	15
116	5
117	5
118	2
119	1
125	1
126	5
127	6
128	10
129	5
130	13
131	5
132	1
137	1
139	7
140	1
141	2
143	2
144	1
146	1
147	1
150	3
151	9
152	32
153	15
154	7
155	3
156	5
157	1
158	9
159	1
160	1
162	1
163	7
164	9
165	56
166	13
167	17
168	4
175	1
176	11
177	4
178	13
179	7
180	5
181	38
182	60
183	22
184	3
189	3
190	3
191	4
192	3
193	4
194	1
202	3
203	3
204	6
205	3
206	21
207	4
208	1
217	1
218	1
219	1
220	3
230	1
232	3
233	6
234	45
235	34
236	5
237	1
253	1
