Mass Spectrum: Normethadol-.alpha.-acetate
Formula: C22H29NO2
CAS: 17211-28-8
Molecular weight: 339
m/z	intensity
56	115
58	999
72	52
74	89
77	47
86	174
91	137
100	441
101	718
102	56
112	39
114	32
115	62
128	21
129	71
130	71
152	16
165	61
166	13
167	15
178	45
179	45
180	35
191	22
192	8
193	48
207	61
208	66
209	12
219	11
220	5
222	7
236	7
248	6
250	3
262	0
280	4
281	59
282	12
294	0
297	0
298	0
311	0
312	0
314	0
321	0
