Mass Spectrum: 1-Propanol, (2S)-2-[N-(benzyloxycarbonyl-(R)-phenylalanyl)amino]-3-phenyl-
Formula: C26H28N2O4
CAS: 17224-88-3
Molecular weight: 432
m/z	intensity
26	0
27	1
28	8
29	1
30	4
31	6
37	0
38	0
39	8
40	1
41	3
42	5
43	1
44	1
45	0
46	0
50	1
51	5
52	1
53	1
54	0
55	1
56	0
57	0
58	1
59	1
60	32
61	1
62	0
63	3
64	1
65	38
66	1
69	0
70	0
72	0
73	1
74	0
75	0
76	0
77	16
78	8
79	10
80	1
81	0
85	3
86	0
87	0
89	6
90	7
91	999
92	87
93	6
94	0
97	0
98	0
100	0
101	0
102	1
103	15
104	5
105	15
106	2
107	5
108	6
109	0
115	3
116	1
117	9
118	8
119	7
120	97
121	8
122	0
128	5
129	1
130	1
131	21
132	6
133	3
134	26
135	2
136	0
143	0
144	0
145	0
146	10
147	3
148	4
149	0
150	29
151	3
152	2
153	0
158	0
159	0
160	1
161	0
162	1
163	3
164	24
165	3
166	0
167	0
172	0
175	0
178	2
179	1
180	0
181	1
182	0
188	0
189	0
190	33
191	14
192	1
193	1
194	0
205	0
206	0
207	1
208	0
209	1
210	65
211	9
212	0
233	0
234	0
236	0
238	0
240	0
249	0
250	4
251	2
252	1
253	0
254	12
255	17
256	2
262	0
267	0
279	1
280	1
281	7
282	52
283	9
284	1
297	9
298	1
299	64
300	11
301	1
311	0
323	2
324	1
325	1
341	71
342	14
343	2
357	0
401	2
402	3
403	1
414	0
415	0
432	4
433	1
