Mass Spectrum: Diaziridine, tetrafluoro-
Formula: CF4N2
CAS: 17224-09-8
Molecular weight: 116
m/z	intensity
19	30
31	340
33	110
45	60
50	999
52	30
64	170
69	270
83	180
