Mass Spectrum: 1,3-Dioxolane, 2,2,4,5-tetramethyl-, trans-
Formula: C7H14O2
CAS: 17226-66-3
Molecular weight: 130
m/z	intensity
27	45
28	113
29	49
30	1
31	33
32	21
38	0
39	33
40	11
41	87
42	172
43	999
44	41
45	170
46	3
47	0
51	0
53	4
54	2
55	176
56	12
57	31
58	431
59	160
60	5
61	21
62	0
67	0
68	0
69	0
70	0
71	18
72	13
73	187
74	7
75	1
81	0
82	0
83	0
84	0
85	1
86	160
87	9
88	0
95	0
96	0
97	7
98	0
99	0
101	1
110	0
111	0
112	0
113	1
114	1
115	383
116	24
117	2
124	0
125	0
126	0
127	0
129	0
131	1
