Mass Spectrum: 3-Diaziridinamine, N,N,1,2,3-pentafluoro-
Formula: CF5N3
CAS: 17224-08-7
Molecular weight: 149
m/z	intensity
19	60
31	999
32	11
33	262
34	5
45	202
46	4
50	214
51	3
52	132
53	3
64	912
65	9
69	252
70	3
83	455
84	7
97	112
98	8
