Mass Spectrum: Pyridazine, 3-chloro-6-(1-piperidinyl)-
Formula: C9H12ClN3
CAS: 1722-11-8
Molecular weight: 197
m/z	intensity
34	0
35	7
36	3
37	26
38	49
39	283
40	78
41	470
42	207
43	28
44	9
45	1
47	12
48	2
49	16
50	41
51	92
52	161
53	116
54	91
55	178
56	218
57	26
58	0
59	0
60	16
61	7
62	22
63	22
64	80
65	29
66	24
67	64
68	36
69	38
70	9
73	277
75	99
76	21
77	34
78	74
79	224
80	40
81	15
82	28
84	999
85	64
86	11
87	10
88	20
89	3
90	7
91	8
92	12
93	20
94	13
95	1
96	3
98	10
99	10
100	12
101	21
102	10
103	10
104	8
105	12
106	27
107	7
108	46
109	41
110	3
112	1
113	28
114	58
115	38
116	22
117	14
118	7
119	6
120	6
121	0
125	0
126	1
127	5
128	27
129	22
130	18
131	8
132	17
133	13
134	20
135	4
139	0
140	12
141	59
142	125
143	37
144	39
145	6
146	1
152	1
154	75
155	23
156	41
157	10
158	5
159	0
160	2
162	292
163	33
164	2
165	0
166	1
168	274
169	37
170	89
171	13
180	0
181	1
182	16
183	1
184	5
185	1
194	1
196	49
197	418
198	61
199	135
200	13
204	0
