Mass Spectrum: Trifluoroacetamide,-(4-bromobenzyl)
Formula: C9H7BrF3NO
CAS: 172218-35-8
Molecular weight: 281
m/z	intensity
26	17
28	912
29	55
30	27
31	30
33	14
36	17
37	42
38	146
39	260
40	35
41	13
43	158
44	75
45	95
46	8
50	595
51	470
52	129
53	16
54	6
55	8
56	47
57	8
58	1
59	1
61	36
62	141
63	424
64	102
65	21
66	5
68	2
69	935
70	9
71	1
73	35
74	178
75	264
76	260
77	636
78	326
79	999
80	73
81	10
82	9
83	1
85	33
86	55
87	25
88	24
89	843
90	616
91	52
96	257
97	45
98	1
101	23
102	24
103	52
104	184
105	132
106	98
107	656
108	48
109	7
116	1
117	10
119	11
124	3
125	12
126	50
127	32
128	1
129	2
131	4
132	160
133	148
134	23
143	6
145	9
154	8
155	36
156	6
157	67
158	7
159	25
167	1
169	543
170	43
171	487
172	35
182	33
183	14
184	48
185	47
186	4
187	21
202	749
203	72
204	1
210	4
211	3
212	16
213	4
214	7
280	7
281	181
283	195
284	13
