Mass Spectrum: Methyl 3-benzoxy-12-ketocholanate
Formula: C32H44O5
CAS: 17225-41-1
Molecular weight: 508
m/z	intensity
41	267
43	341
45	33
50	4
51	102
53	81
54	15
55	593
57	76
59	99
65	35
67	302
69	128
70	3
71	22
73	101
74	78
75	3
77	454
79	301
81	444
82	19
83	157
84	12
85	20
87	21
91	166
93	286
94	53
95	234
96	33
97	32
99	28
103	10
105	999
107	290
108	23
109	233
110	28
111	13
115	43
116	4
117	39
119	91
121	310
122	96
123	216
124	33
125	12
128	16
129	8
131	50
133	72
135	137
136	17
137	42
138	9
141	30
143	30
145	72
147	119
149	118
150	17
151	8
154	179
155	29
156	3
157	33
159	42
161	55
163	92
164	8
165	6
168	3
169	3
171	20
173	36
174	2
175	35
176	5
177	17
179	3
181	2
183	9
185	20
187	25
189	32
190	4
191	35
195	16
197	11
199	19
201	18
203	17
211	9
213	21
215	23
217	14
223	11
225	4
227	16
229	84
231	291
232	52
234	4
239	3
243	16
244	16
245	15
246	3
247	3
253	44
254	11
257	22
258	10
263	3
271	53
272	11
277	10
281	9
290	9
295	10
297	2
299	6
309	12
313	38
314	3
339	11
343	9
353	15
355	12
368	16
369	6
371	23
386	142
387	44
388	3
389	3
435	2
477	3
490	9
508	151
509	40
510	12
