Mass Spectrum: N,N'-(m-Phenylene)dibenzamide
Formula: C20H16N2O2
CAS: 17223-18-6
Molecular weight: 316
m/z	intensity
26	2
27	5
28	1
37	1
38	2
39	4
41	2
43	3
44	1
45	1
50	9
51	50
52	7
53	2
55	1
57	2
60	1
62	1
63	3
64	3
65	1
69	1
71	2
74	2
75	4
76	21
77	409
78	31
79	2
80	1
81	1
83	1
85	1
90	1
91	1
92	1
93	1
95	1
97	1
99	1
102	1
103	36
104	7
105	999
106	91
107	6
108	1
109	1
111	1
127	1
133	1
139	1
152	1
154	1
166	1
167	3
181	1
182	1
183	1
184	1
193	1
194	2
195	21
196	5
197	1
209	1
210	5
211	2
212	3
213	7
214	1
287	3
288	4
299	1
315	10
316	395
317	89
318	10
319	1
