Mass Spectrum: Propyl 2-ethylhexanoate
Formula: C11H22O2
CAS: 172354-89-1
Molecular weight: 186
m/z	intensity
14	15
26	15
27	221
28	93
29	208
30	12
31	26
32	14
39	150
41	584
42	152
43	486
44	22
45	34
53	41
55	331
56	123
57	999
58	49
59	48
60	10
67	19
68	12
69	98
70	110
71	35
73	478
74	26
83	26
85	19
87	208
88	688
89	339
90	15
97	31
98	30
99	168
100	22
101	146
102	13
103	23
115	191
116	61
117	40
127	314
128	27
129	50
130	331
131	27
143	29
145	465
146	43
157	18
158	73
