Mass Spectrum: Hexadecanamide, N,N-bis[4-(dimethylamino)butyl]-
Formula: C28H59N3O
CAS: 17232-85-8
Molecular weight: 453
m/z	intensity
41	382
42	306
43	595
44	191
45	246
46	34
50	8
51	8
52	8
53	34
54	34
55	340
56	119
57	357
58	999
59	246
60	8
65	8
66	8
67	51
68	42
69	119
70	178
71	306
72	110
73	102
74	8
77	8
79	8
80	8
81	34
82	68
83	93
84	604
85	127
86	85
87	17
91	8
93	8
94	8
95	21
96	34
97	170
98	417
99	42
100	999
101	85
108	8
109	8
110	34
111	34
112	93
113	34
114	34
115	17
116	8
121	8
122	8
123	8
124	85
125	17
126	76
127	21
129	34
138	8
140	8
141	8
142	8
143	63
144	8
154	8
155	8
156	8
157	8
168	8
169	42
170	8
171	42
172	21
183	8
185	21
186	59
187	8
196	8
197	8
198	8
199	191
200	34
211	8
212	8
213	34
214	93
215	21
225	8
227	59
228	21
239	8
241	25
242	34
255	42
256	25
257	8
259	8
269	34
270	63
271	8
283	8
284	8
297	25
298	8
309	8
310	8
311	25
312	25
324	8
325	25
326	25
338	8
339	8
340	8
350	8
352	8
353	25
354	25
355	8
366	8
367	34
368	25
381	102
382	110
383	42
393	8
394	8
395	459
396	153
397	25
407	8
408	8
409	170
410	76
411	25
423	8
424	8
436	25
437	8
438	638
439	204
440	42
451	8
452	85
453	382
454	119
455	25
