Mass Spectrum: Danazol
Formula: C22H27NO2
CAS: 17230-88-5
Molecular weight: 337
m/z	intensity
40	79
41	335
42	37
43	147
44	9
45	8
50	11
51	93
52	66
53	391
54	91
55	348
56	24
57	15
59	7
60	9
63	28
64	39
65	257
66	65
67	333
68	205
69	76
70	13
71	16
73	25
74	6
75	22
77	562
78	133
79	436
80	110
81	455
82	61
83	40
84	20
85	8
86	8
87	8
89	55
91	999
92	215
93	339
94	77
95	230
96	22
97	51
101	15
102	43
103	142
104	190
105	380
106	135
107	256
108	119
109	204
110	64
111	18
114	16
115	320
116	157
117	267
118	236
119	292
120	243
121	363
122	124
123	157
124	77
125	13
126	14
127	85
128	206
129	206
130	116
131	232
132	743
133	284
134	199
135	136
136	150
137	132
138	27
139	28
140	20
141	98
142	95
143	136
144	104
145	244
146	978
147	676
148	205
149	811
150	100
151	39
152	42
153	55
154	31
155	75
156	78
157	125
158	406
159	289
160	252
161	160
162	166
163	81
164	20
165	46
166	17
167	37
168	29
169	60
170	72
171	157
172	267
173	774
174	265
175	102
176	46
177	34
178	24
179	22
180	16
181	34
182	34
183	50
184	141
185	86
186	152
187	84
188	67
189	71
190	27
191	31
192	10
193	20
194	19
195	30
196	37
197	59
198	105
199	93
200	96
201	37
202	38
203	17
204	10
207	57
208	29
209	34
210	50
211	31
212	77
213	43
214	95
215	23
216	7
217	12
218	10
219	12
220	10
222	39
223	32
224	46
225	20
226	55
227	20
228	31
229	11
232	12
234	21
235	19
236	28
237	22
238	44
239	19
240	38
241	21
242	48
244	6
245	9
248	38
249	22
250	35
251	18
252	89
253	26
254	88
255	19
256	29
257	8
258	6
262	27
263	24
264	25
265	10
266	14
267	32
268	34
269	168
270	102
271	21
274	5
276	50
277	27
278	8
280	16
281	24
282	11
289	6
290	21
291	30
292	11
294	33
295	6
296	18
297	6
304	77
305	12
306	6
308	21
309	10
318	13
320	9
322	60
323	12
337	741
338	149
339	24
341	13
