Mass Spectrum: 1,4-Butanediamine, N'-[4-(dimethylamino)butyl]-N,N-dimethyl-
Formula: C12H29N3
CAS: 17232-87-0
Molecular weight: 215
m/z	intensity
41	25
42	108
43	50
44	83
45	150
46	25
53	8
54	8
55	41
56	41
57	25
58	999
59	50
67	8
68	25
69	8
70	75
71	141
72	41
73	41
81	8
82	33
83	8
84	312
85	66
86	41
87	8
96	8
97	25
98	116
99	16
100	208
101	33
110	25
113	16
115	41
116	50
117	8
124	41
125	16
126	25
129	75
130	16
141	16
142	8
143	25
155	16
157	16
168	33
169	33
170	25
171	16
215	83
216	25
