Mass Spectrum: 2,5-Dimethyl-N-(methylamino-phenyl-methylene)-benzenesulfonamide
Formula: C16H18N2O2S
CAS: 17240-80-1
Molecular weight: 302
m/z	intensity
33	3
34	2
37	3
38	13
39	98
40	18
41	18
42	11
43	7
44	19
45	18
46	2
47	1
48	5
50	79
51	237
52	59
53	63
54	5
55	12
56	7
57	49
58	5
59	3
60	5
62	20
63	73
64	40
65	94
66	15
67	5
68	0
69	4
70	1
71	2
72	0
73	2
74	16
75	39
76	139
77	927
78	283
79	331
80	22
81	1
82	2
83	2
84	1
85	1
86	3
87	4
88	3
89	38
90	25
91	168
92	39
93	14
94	5
95	1
96	1
97	4
98	2
99	1
101	9
102	64
103	463
104	999
105	544
106	102
107	14
108	3
109	4
110	5
111	9
112	5
113	0
116	19
118	715
119	80
120	147
121	21
122	8
123	6
124	0
125	4
126	1
127	0
128	2
130	18
131	16
132	23
133	189
134	71
135	112
136	12
137	3
138	3
139	2
141	5
142	1
143	0
144	0
145	4
146	2
147	6
148	1
150	5
151	13
152	12
153	6
154	2
155	0
160	0
161	21
162	2
163	0
164	3
165	15
166	9
167	19
168	6
169	16
170	12
171	3
172	0
173	1
176	0
177	0
178	3
179	7
180	6
181	27
182	16
183	2
191	5
192	12
193	20
194	10
195	2
196	2
197	8
198	0
199	0
204	2
206	70
207	156
208	125
209	25
210	3
211	1
220	2
221	6
222	13
223	120
224	19
225	3
226	0
227	0
228	1
229	0
235	2
237	199
238	35
239	3
259	1
272	116
273	18
274	5
275	0
300	0
302	314
303	55
304	18
305	1
