Mass Spectrum: Bis(trimethylsilyl)-5-fluorouracil
Formula: C10H19FN2O2Si2
CAS: 17242-85-2
Molecular weight: 274
m/z	intensity
15	3
16	1
26	1
27	4
28	13
29	13
31	7
39	2
42	8
43	76
44	40
45	252
46	19
47	42
48	3
49	38
51	3
52	4
53	10
54	7
55	19
56	11
57	21
58	31
59	45
60	5
61	8
62	6
63	41
64	5
65	6
66	5
67	5
68	5
69	4
70	41
71	9
72	50
73	999
74	89
75	89
76	14
77	219
78	18
79	11
80	8
81	4
82	1
83	5
84	33
85	12
86	39
87	11
88	8
89	6
90	3
91	8
92	1
94	2
95	1
96	3
97	4
98	5
99	16
100	108
101	17
102	9
103	10
104	29
105	5
106	4
107	8
108	6
109	5
110	5
111	107
112	15
113	11
114	7
115	9
116	9
117	28
118	6
119	6
120	2
121	8
122	99
124	2
125	13
126	5
127	21
128	7
129	7
130	7
131	62
132	10
133	36
134	5
135	24
136	5
137	7
138	2
139	7
140	8
141	3
142	2
143	1
144	12
145	2
146	2
147	690
148	112
149	51
150	6
151	44
152	9
153	4
154	12
155	3
156	10
157	2
158	6
159	53
160	11
161	5
162	4
163	1
164	1
165	1
167	99
168	13
169	6
170	1
171	5
172	2
173	2
174	4
176	3
178	4
180	2
181	4
182	6
183	3
184	31
185	17
186	6
187	6
188	3
189	3
190	2
192	3
193	1
194	1
195	1
200	15
201	9
202	3
203	1
205	1
210	1
211	1
212	3
213	1
214	1
215	1
216	3
217	1
225	1
226	1
227	1
229	4
230	1
231	2
232	1
239	9
240	3
241	1
243	5
245	1
253	1
254	20
255	132
256	32
257	22
258	22
259	747
260	145
261	67
262	9
263	3
271	1
273	65
274	156
275	40
276	15
277	3
