Mass Spectrum: Ethanone, 1-(3-methyloxiranyl)-
Formula: C5H8O2
CAS: 17257-79-3
Molecular weight: 100
m/z	intensity
26	40
27	110
28	85
29	170
30	10
31	15
38	5
39	40
40	10
41	40
42	30
43	999
44	15
45	25
55	25
57	55
58	30
69	25
85	220
