Mass Spectrum: Silane, [4-(bromomethyl)phenyl]trichloro-
Formula: C7H6BrCl3Si
CAS: 17256-29-0
Molecular weight: 302
m/z	intensity
25	2
26	4
27	13
28	8
29	4
35	13
37	4
38	30
39	74
40	10
41	21
42	5
43	7
44	6
49	3
50	26
51	32
52	10
53	10
54	3
55	4
56	3
57	5
60	3
61	9
62	34
63	125
64	32
65	94
66	9
67	3
68	9
69	9
70	30
71	4
72	2
73	6
74	9
75	10
76	9
77	9
78	2
79	6
80	11
81	6
82	9
83	2
84	2
85	5
86	10
87	13
88	12
89	191
90	106
91	999
92	98
93	6
94	9
95	5
96	2
97	3
98	10
99	7
100	6
101	4
102	2
103	2
104	4
105	5
106	3
107	1
108	1
109	2
110	3
112	2
113	3
114	2
115	3
116	2
117	5
118	2
119	5
120	2
121	2
122	1
123	15
124	2
125	144
126	14
127	50
128	6
129	2
130	3
131	2
132	1
133	77
134	9
135	75
136	8
137	27
138	4
139	6
140	3
141	3
142	5
143	2
144	4
145	2
146	1
147	7
148	3
152	19
153	9
154	8
155	4
156	2
157	2
158	1
159	2
160	5
161	8
162	5
163	5
164	2
165	2
166	1
167	4
168	2
169	6
170	2
171	8
172	2
173	5
174	2
175	3
176	1
177	3
178	1
179	3
180	1
181	2
182	1
183	2
184	1
185	2
186	5
187	67
188	40
189	79
190	31
191	33
192	8
193	5
194	2
195	2
196	2
197	3
198	2
199	2
200	1
201	1
202	1
203	3
204	1
207	3
208	1
209	2
210	2
211	1
213	1
215	1
220	3
221	2
222	3
223	678
224	211
225	691
226	198
227	274
228	79
229	42
230	11
231	3
232	1
233	19
234	5
235	13
236	3
237	4
238	2
239	3
240	2
241	2
257	1
258	3
259	1
260	4
261	1
262	4
263	1
267	16
268	5
269	21
270	7
271	11
272	4
302	16
303	7
304	31
305	8
306	21
307	4
308	7
309	2
