Mass Spectrum: 2-Butanone, 3,4-epoxy-3-ethyl-
Formula: C6H10O2
CAS: 17257-82-8
Molecular weight: 114
m/z	intensity
26	20
27	110
28	200
29	90
31	10
32	20
38	10
39	80
40	10
41	160
42	50
43	999
44	30
53	20
55	40
56	10
57	100
67	10
69	90
71	80
72	40
99	160
100	10
113	10
