Mass Spectrum: Benzamide, N-[5-(1-cyano-2-methyl-1-propenyl)-1,3,4-thiadiazol-2-yl]-
Formula: C14H12N4OS
CAS: 172535-11-4
Molecular weight: 284
m/z	intensity
33	0
34	0
36	0
37	1
38	3
39	22
40	7
41	14
42	2
43	9
44	3
45	8
46	1
47	0
49	0
50	19
51	84
52	7
53	7
54	1
55	2
56	0
57	2
58	6
59	3
60	1
61	0
62	1
63	5
64	5
65	3
66	3
67	0
69	5
70	2
71	2
72	0
73	0
74	3
75	5
77	416
78	25
79	2
80	2
81	0
82	1
83	4
84	4
85	0
86	1
88	0
89	2
90	2
91	3
92	0
93	1
94	0
95	0
96	3
97	4
98	0
99	0
100	0
101	0
102	0
103	5
105	999
106	68
107	4
108	1
109	2
110	0
111	3
112	1
113	0
118	1
119	0
121	16
122	2
123	1
124	6
125	0
129	0
132	0
134	0
135	0
136	1
138	17
139	2
140	1
141	0
147	6
148	0
149	0
150	0
160	1
171	1
172	0
174	0
178	0
179	0
194	0
201	0
204	1
207	0
219	0
242	0
244	0
245	0
256	0
283	5
284	72
285	13
286	4
287	0
