Mass Spectrum: Ethanone, 1-(3-butyloxiranyl)-
Formula: C8H14O2
CAS: 17257-80-6
Molecular weight: 142
m/z	intensity
31	10
32	40
38	10
39	100
40	10
41	200
42	60
43	999
44	70
45	20
53	10
55	260
56	30
57	270
58	20
67	20
68	10
69	30
70	10
71	40
72	10
73	10
74	10
81	30
82	30
83	10
85	540
86	20
95	10
97	20
99	20
100	50
111	30
113	10
140	10
141	10
142	10
