Mass Spectrum: Ethanone, 1-(3-ethyloxiranyl)-
Formula: C6H10O2
CAS: 17257-81-7
Molecular weight: 114
m/z	intensity
31	24
32	24
38	10
39	78
40	10
41	141
42	44
43	999
44	29
45	7
53	15
55	46
56	12
57	146
58	15
69	7
71	24
72	24
74	7
83	24
85	402
86	17
114	7
