Mass Spectrum: Benzenesulfonamide, 4-chloro-N-(2-chloro-2-cyanoethyl)-
Formula: C9H8Cl2N2O2S
CAS: 17260-63-8
Molecular weight: 278
m/z	intensity
33	2
34	2
35	10
36	24
37	19
38	43
39	50
40	58
41	30
42	14
43	12
44	14
45	16
46	12
47	17
48	36
49	30
50	245
51	117
52	25
53	13
54	4
55	7
56	4
57	11
58	2
59	1
60	7
61	28
62	20
63	45
64	57
65	30
66	11
67	25
68	4
69	16
70	10
71	6
72	6
73	50
74	172
75	549
76	123
77	43
78	9
79	16
80	33
81	15
82	24
83	7
84	20
85	60
86	9
87	24
88	6
89	6
90	6
91	9
92	8
93	5
94	2
95	7
96	5
97	4
98	4
99	31
100	7
101	10
102	4
103	2
104	4
105	7
106	6
107	8
108	14
109	10
111	999
112	86
113	299
114	25
115	4
116	4
117	4
118	1
119	4
120	1
121	3
122	2
123	3
124	3
125	4
126	10
127	88
128	88
129	34
130	27
131	17
132	2
133	6
134	1
135	1
136	1
138	5
139	7
140	10
141	4
142	4
143	3
144	2
145	1
146	1
147	1
148	1
149	2
150	9
151	10
152	4
153	1
154	0
155	0
156	0
157	1
158	2
159	19
160	4
161	7
162	1
163	0
164	0
165	0
166	0
167	0
168	0
169	2
170	1
171	4
175	816
176	69
177	283
178	22
179	14
180	5
181	5
182	0
184	0
185	0
186	0
187	0
189	1
191	131
193	55
194	3
195	2
196	0
197	0
199	0
202	9
204	482
205	47
206	164
207	14
208	7
209	0
211	0
212	0
218	0
219	0
221	0
222	2
223	0
238	0
240	0
242	1
243	1
244	2
245	0
246	0
276	0
278	22
279	3
280	15
281	1
282	2
283	1
