Mass Spectrum: Acetic acid, [(phenylmethyl)thio]-, methyl ester
Formula: C10H12O2S
CAS: 17277-59-7
Molecular weight: 196
m/z	intensity
45	130
65	140
73	80
89	50
91	999
92	90
93	40
122	60
123	820
124	90
125	40
137	80
196	250
197	30
198	10
