Mass Spectrum: 1-(4-Chlorophenyl)-4-phenyl-2,2,3,3-tetracyano-7,8-dithiabicyclo[3.2.1]octane
Formula: C22H13ClN4S2
CAS: 172789-47-8
Molecular weight: 432
m/z	intensity
44	1
45	1
57	1
59	2
61	1
69	1
71	1
76	13
77	2
78	1
81	1
83	1
84	1
85	1
91	11
95	1
97	2
102	2
103	5
109	4
111	10
115	38
116	27
117	999
118	89
119	4
123	14
127	4
128	19
129	3
134	5
135	3
139	3
147	7
148	6
151	7
154	9
155	239
156	22
157	86
158	8
159	5
165	3
168	3
179	3
181	2
186	11
187	7
188	113
189	14
190	47
191	8
192	15
196	5
197	2
211	3
213	48
214	17
215	22
216	8
217	5
218	7
219	10
224	3
231	2
234	2
236	3
238	1
244	2
246	2
249	1
251	2
252	1
264	2
266	2
270	5
271	70
272	15
273	26
274	5
275	2
278	2
279	1
289	31
290	5
291	12
292	2
293	1
304	270
305	50
306	111
307	20
308	11
309	8
314	4
315	1
316	1
323	2
324	1
333	2
334	6
335	2
336	2
337	1
339	1
345	1
346	2
347	1
348	1
358	3
359	1
368	1
371	1
372	1
373	1
380	2
381	1
382	1
383	1
385	2
386	1
400	1
405	1
432	1
433	1
