Mass Spectrum: 2-Cyclohexen-1-one dimethylketal
Formula: C8H14O2
CAS: 1728-18-3
Molecular weight: 142
m/z	intensity
13	4
14	14
15	99
16	1
17	1
18	4
25	1
26	20
27	133
28	41
29	186
30	26
31	375
32	260
33	5
36	1
37	15
38	43
39	287
40	92
41	358
42	26
43	34
44	3
45	65
46	1
49	7
50	57
51	101
52	56
53	58
54	18
55	73
56	5
57	4
58	5
59	4
60	1
61	7
62	11
63	29
64	10
65	157
66	90
67	526
68	205
69	24
70	1
71	7
72	1
73	3
74	11
75	6
76	5
77	254
78	121
79	343
80	71
81	33
82	5
83	9
84	10
85	2
88	2
91	9
92	4
93	11
94	153
95	414
96	80
97	9
98	1
99	7
101	11
102	1
105	5
106	1
107	8
108	51
109	593
110	999
111	146
112	13
113	5
114	29
115	2
120	2
127	1
141	3
142	5
143	1
