Mass Spectrum: 1-(Ethoxycarbonylmethyl)pyridinium bromide
Formula: C9H12BrNO2
CAS: 17282-40-5
Molecular weight: 245
m/z	intensity
29	894
30	85
31	49
39	98
41	22
44	999
50	57
51	136
52	362
79	243
80	37
94	53
108	78
110	177
138	22
166	32
167	13
