Mass Spectrum: 2-Fluoro-3-methylpyridine
Formula: C6H6FN
CAS: 17282-04-1
Molecular weight: 111
m/z	intensity
12	2
14	1
15	6
20	2
25	2
26	32
27	39
28	13
31	88
33	25
36	4
37	49
38	84
39	190
40	28
41	22
42	4
44	6
45	7
46	13
47	2
48	2
49	13
50	49
51	62
52	25
53	6
54	6
55	4
56	41
57	155
58	44
59	19
60	8
61	31
62	41
63	121
64	141
65	69
66	19
67	7
68	12
69	22
70	16
71	12
72	11
75	5
76	13
77	2
78	16
79	4
80	6
81	27
82	33
83	259
84	226
85	60
86	6
87	2
88	2
89	5
90	34
91	353
92	40
93	3
94	2
96	9
108	4
110	510
111	999
112	65
