Mass Spectrum: .beta.-D-Ribopyranoside, methyl
Formula: C6H12O5
CAS: 17289-61-1
Molecular weight: 164
m/z	intensity
26	24
27	105
28	117
29	214
30	33
31	284
32	16
33	108
34	1
35	0
36	1
37	1
38	3
39	32
40	17
41	59
42	93
43	232
44	92
45	172
46	10
47	14
48	0
49	1
50	1
51	2
52	0
53	4
54	6
55	32
56	19
57	190
58	69
59	69
60	999
61	299
62	10
63	1
65	0
66	0
67	1
68	13
69	30
70	7
71	114
72	12
73	411
74	287
75	38
76	4
77	3
78	0
79	0
80	0
81	0
82	1
83	2
84	0
85	33
86	49
87	70
88	5
89	6
90	0
91	11
92	2
93	0
94	0
95	0
96	0
97	2
98	1
99	1
100	17
101	3
102	2
103	15
104	5
105	8
106	0
107	0
110	0
111	0
112	0
114	10
115	12
116	7
117	3
118	0
119	0
120	1
121	0
123	0
124	0
125	0
127	0
128	0
129	0
130	0
131	0
132	3
133	41
134	4
135	0
139	0
142	0
145	1
146	5
147	1
