Mass Spectrum: Galactopyranose, 2-acetamido-2-deoxy-3,4-di-O-methyl-, 1,6-diacetate, .alpha.-D-
Formula: C14H23NO8
CAS: 17296-17-2
Molecular weight: 333
m/z	intensity
40	2
41	43
42	46
43	999
44	15
45	49
53	5
54	5
55	13
56	13
57	11
58	46
59	56
60	14
61	2
67	0
68	8
69	28
70	31
71	83
72	100
73	146
74	66
75	10
80	7
81	5
82	5
83	12
84	25
85	16
86	100
87	160
88	50
89	66
95	1
96	70
97	2
98	18
99	33
100	11
101	86
102	53
103	8
108	15
109	3
110	18
111	23
112	16
113	5
114	10
115	286
116	106
117	12
126	16
127	3
128	333
129	70
130	46
131	5
138	15
139	5
140	46
141	6
142	3
143	10
144	83
145	5
151	2
152	5
153	2
154	8
156	2
157	4
158	40
159	3
168	66
169	5
170	11
175	32
181	90
182	26
183	10
200	2
202	5
203	8
210	2
212	13
213	40
214	6
241	7
242	19
243	8
244	1
245	0
259	10
273	8
274	25
290	5
