Mass Spectrum: Carbofenothion sulfoxide
Formula: C11H16ClO3PS3
CAS: 17297-40-4
Molecular weight: 358
m/z	intensity
12	3
13	3
14	11
15	40
16	8
17	32
18	117
19	6
25	3
26	35
27	269
28	89
29	597
30	17
31	14
32	16
33	6
34	9
35	6
36	9
37	6
38	13
39	25
40	1
41	11
42	5
43	43
45	436
46	133
47	161
48	25
49	12
50	72
51	49
52	4
53	4
54	2
55	4
56	2
57	10
58	11
59	13
60	18
61	21
62	17
63	84
64	24
65	374
66	4
67	3
69	40
70	8
71	8
72	3
73	26
74	32
75	190
76	39
77	47
78	23
79	32
80	45
81	90
82	20
83	7
84	6
85	17
86	3
87	15
88	1
89	15
90	4
91	38
93	135
94	7
95	28
97	999
98	17
99	102
100	8
101	11
102	2
103	1
105	4
106	3
107	15
108	118
109	262
110	23
111	105
112	108
113	46
114	38
115	13
116	1
117	2
118	1
119	1
121	171
122	19
123	11
125	827
126	39
127	68
129	91
130	4
131	52
133	19
134	1
135	1
137	27
138	3
139	15
140	9
141	8
143	188
144	49
145	39
146	15
147	2
149	2
153	825
154	58
155	66
157	221
159	174
160	42
161	32
162	13
163	2
169	1
171	125
172	8
173	11
175	31
176	10
177	11
178	3
179	1
183	13
184	1
185	5
186	5
187	3
188	4
189	13
191	8
192	1
199	512
200	33
201	43
202	3
203	1
231	1
296	1
312	2
342	10
343	1
344	4
