Mass Spectrum: Pyridine-3-carbonitrile, 2-dibenzylamino-4-dimethylamino-
Formula: C22H22N4
CAS: 172984-75-7
Molecular weight: 342
m/z	intensity
33	34
39	122
40	32
41	63
42	111
43	30
44	68
45	8
46	4
48	0
50	25
51	77
52	36
53	21
54	16
55	21
56	8
57	4
58	1
60	0
61	2
63	66
65	419
66	46
67	23
68	16
69	6
70	6
71	7
73	3
74	4
76	49
77	119
78	64
79	50
80	23
81	14
82	5
83	3
84	1
85	1
86	2
87	2
89	64
91	999
92	93
93	23
94	13
95	6
97	3
98	1
99	1
100	1
101	4
103	67
104	121
105	103
106	41
107	9
108	2
109	0
110	1
111	2
112	2
113	1
114	2
115	6
116	10
117	25
118	29
119	49
120	20
121	28
122	5
123	1
124	1
125	6
126	5
127	9
128	7
129	9
130	58
131	30
132	85
133	39
134	8
135	1
136	0
137	0
138	0
139	2
140	4
141	2
142	2
143	4
144	6
146	146
147	34
148	20
149	3
150	0
151	2
152	12
153	8
154	7
155	4
156	2
157	4
158	3
159	8
160	3
161	2
162	7
163	3
164	2
165	5
166	4
167	6
168	3
169	2
170	1
171	3
172	1
173	12
174	4
175	7
176	1
177	1
178	3
179	15
180	8
181	10
182	5
183	2
184	0
185	0
187	0
189	0
190	0
191	1
192	3
193	5
194	15
195	8
196	5
197	1
198	0
203	0
204	1
205	7
206	16
207	14
208	20
209	10
210	11
211	2
212	0
218	1
219	2
220	6
221	4
222	13
223	36
224	12
225	1
226	1
227	0
231	0
232	0
233	4
234	5
235	48
236	16
237	6
238	4
239	1
247	1
248	1
249	14
251	997
252	194
253	17
254	0
263	0
265	9
266	1
285	0
295	0
296	0
297	0
298	0
299	0
312	0
314	0
324	0
326	1
327	8
328	2
338	0
341	4
342	83
343	21
344	2
