Mass Spectrum: Cyclohexanamine, 2-phenyl-
Formula: C12H17N
CAS: 17293-45-7
Molecular weight: 175
m/z	intensity
34	0
38	1
39	34
40	16
41	35
42	45
43	228
44	16
45	12
50	7
51	26
52	9
53	10
54	11
56	999
57	53
58	3
60	0
62	2
63	14
64	4
65	34
66	10
67	16
68	6
69	17
70	45
71	12
72	0
74	2
75	4
76	9
77	63
78	54
79	20
80	9
81	4
82	19
83	139
84	52
85	4
86	0
87	1
88	1
89	20
90	10
91	175
92	22
93	4
94	2
95	0
96	9
97	31
98	5
101	2
102	17
103	65
104	91
105	20
106	14
107	1
108	0
109	0
110	5
111	1
112	0
113	1
114	2
115	96
116	30
117	100
118	52
119	31
120	6
121	0
125	0
126	2
127	15
128	37
129	93
130	99
131	28
132	434
133	45
134	2
135	1
139	1
141	6
142	5
143	36
144	20
145	7
146	53
147	6
151	0
158	96
159	14
160	1
173	11
174	43
175	899
176	124
177	8
