Mass Spectrum: (3-Chloro-4,5-dihydro-isoxazol-5-yl)-acetonitrile
Formula: C5H5ClN2O
CAS: 172912-01-5
Molecular weight: 144
m/z	intensity
26	58
27	96
28	59
29	113
30	48
31	9
35	6
36	21
37	31
38	64
39	116
40	359
41	870
42	94
43	43
44	23
45	5
47	25
48	29
49	117
50	41
51	154
52	88
53	43
54	30
55	10
56	7
57	9
58	2
60	13
61	55
62	26
63	26
64	19
65	10
66	20
67	15
68	44
69	6
70	24
71	5
72	2
73	24
74	11
75	49
76	398
77	42
78	140
79	18
80	8
87	28
88	7
89	10
90	2
104	999
105	45
106	332
107	13
115	4
128	4
142	8
143	3
144	293
145	24
146	87
147	8
