Mass Spectrum: .alpha.-D-Galactopyranoside, methyl 2-(acetylamino)-2-deoxy-3,6-di-O-methyl-
Formula: C11H21NO6
CAS: 17296-04-7
Molecular weight: 263
m/z	intensity
43	574
45	458
57	208
58	88
59	47
60	32
71	63
72	86
73	999
74	222
75	243
84	117
87	84
88	31
97	34
98	86
101	48
102	38
112	59
114	35
115	470
128	87
129	15
139	35
144	14
153	91
158	23
171	43
172	10
185	60
186	91
187	10
188	17
199	14
200	15
231	38
232	35
