Mass Spectrum: Galactopyranose, 2-acetamido-2-deoxy-3,6-di-O-methyl-, 1,4-diacetate, .alpha.-D-
Formula: C14H23NO8
CAS: 17296-16-1
Molecular weight: 333
m/z	intensity
40	8
41	33
42	43
43	999
44	33
45	333
46	13
53	20
54	13
55	33
56	26
57	33
58	93
59	90
60	33
61	13
68	23
69	33
70	33
71	46
72	130
73	293
74	150
75	50
80	33
81	36
82	20
83	40
84	133
85	70
86	76
87	140
88	20
89	50
95	16
96	130
97	40
98	70
99	53
100	36
101	63
102	53
103	16
108	16
109	13
110	83
111	73
112	80
113	33
114	293
115	260
116	50
117	10
122	16
123	10
124	16
125	16
126	68
127	20
128	90
129	33
130	13
131	53
132	6
138	36
139	93
140	43
141	16
142	76
143	43
144	26
153	30
154	33
155	20
156	110
157	16
168	46
169	13
170	40
171	56
172	13
182	50
183	10
184	16
185	16
186	30
191	10
199	6
200	23
201	3
202	10
203	10
213	93
214	20
228	6
229	3
230	20
231	13
232	6
241	3
242	3
244	3
245	6
246	6
256	6
259	20
261	3
262	6
273	20
274	26
290	23
301	13
333	3
