Mass Spectrum: Galactopyranoside, methyl 2-acetamido-2-deoxy-4,6-di-O-methyl-, 3-acetate, .alpha.-D-
Formula: C13H23NO7
CAS: 17296-09-2
Molecular weight: 305
m/z	intensity
41	93
42	53
43	616
44	63
45	303
46	3
47	3
53	16
54	6
55	26
56	60
57	36
58	60
59	210
60	60
61	16
67	3
68	30
69	30
70	40
71	306
72	63
73	73
74	70
75	70
78	3
79	3
80	103
81	20
82	20
83	83
84	60
85	30
86	86
87	43
88	20
89	6
90	3
95	26
96	36
97	26
98	110
99	36
100	23
101	999
102	253
103	26
104	3
108	10
109	3
110	30
111	73
112	160
113	26
114	63
115	30
116	20
117	3
122	13
123	3
124	3
125	3
126	33
127	26
128	166
129	40
130	36
131	3
136	3
138	23
139	20
140	63
141	10
142	63
143	300
144	70
145	46
146	3
150	3
151	3
152	16
153	30
154	60
155	13
156	23
157	3
158	3
169	23
170	33
171	23
172	33
173	3
181	3
182	16
183	13
184	3
185	20
186	16
187	3
188	3
198	1
199	6
200	4
202	1
213	6
214	48
215	6
216	0
230	0
240	2
241	0
245	5
246	190
247	20
248	2
260	0
274	33
275	3
