Mass Spectrum: Spiro[benzo[h]quinazoline-5(3H),1'-cyclohexan]-4(6H)-one, 3-methyl-2-[(phenylmethyl)thio]-
Formula: C25H26N2OS
CAS: 172984-38-2
Molecular weight: 402
m/z	intensity
33	5
34	4
35	4
36	26
38	9
39	38
40	84
41	154
42	61
44	11
45	27
47	2
50	10
51	24
52	10
53	13
54	3
55	38
56	21
57	24
58	23
61	5
62	9
63	34
65	154
66	11
67	17
68	2
69	28
70	5
72	8
73	4
74	9
75	5
76	5
77	22
78	12
79	11
81	9
82	5
83	4
84	6
85	12
86	3
89	41
91	999
92	70
93	5
94	3
101	2
102	5
104	6
105	3
108	5
110	6
111	10
113	5
114	4
115	22
116	10
117	5
118	2
121	19
122	47
123	33
124	5
126	9
127	21
128	27
129	9
130	3
134	8
135	5
138	2
139	19
140	31
141	25
142	13
148	6
150	2
151	9
152	27
153	29
154	29
155	9
156	9
162	4
163	7
164	8
165	27
166	20
167	25
168	17
169	16
170	8
171	4
172	2
177	5
178	11
179	11
180	18
181	10
182	12
183	23
184	8
185	6
186	6
188	18
189	3
191	3
192	7
193	7
194	7
195	12
196	18
197	9
198	33
199	6
201	3
206	2
207	3
208	4
209	9
210	10
211	9
212	29
213	6
220	5
221	7
222	5
223	11
224	10
225	13
226	6
235	5
237	9
238	8
239	9
240	2
241	3
243	3
251	8
252	4
253	5
254	9
255	14
256	9
257	4
267	9
268	11
269	8
279	10
280	18
281	10
282	4
311	72
312	23
313	11
314	3
333	4
346	2
357	4
359	4
369	22
370	6
402	65
403	17
404	5
