Mass Spectrum: 2,4-Diethoxy-6-methyl-5-nitropyrimidine
Formula: C9H13N3O4
CAS: 172982-62-6
Molecular weight: 227
m/z	intensity
42	999
43	118
44	94
45	27
46	13
47	6
49	30
51	20
52	47
53	41
54	90
55	42
56	46
57	21
58	40
59	1
60	1
62	1
63	0
64	6
65	15
66	80
67	215
68	78
69	69
70	279
71	82
72	8
73	2
74	1
75	1
76	0
77	6
78	4
79	12
80	9
81	18
82	42
83	64
84	43
85	69
86	11
87	2
88	1
91	2
92	2
93	23
94	58
95	33
96	39
97	19
98	9
99	7
100	1
101	1
102	1
105	1
108	46
109	64
110	81
111	84
112	75
113	19
114	2
115	0
119	0
121	1
123	13
124	11
125	9
126	3
127	9
128	2
129	1
133	0
135	0
137	57
138	13
139	27
140	4
141	11
142	1
143	0
145	0
149	1
151	0
152	6
154	38
155	344
156	30
157	2
159	0
166	6
167	1
168	0
169	6
171	67
172	13
173	1
180	0
181	7
182	12
183	425
184	74
185	7
186	0
198	10
199	44
200	5
210	3
212	69
213	6
214	0
225	0
227	192
228	19
229	1
