Mass Spectrum: .alpha.-D-Galactopyranoside, methyl 2-(acetylamino)-2-deoxy-6-O-methyl-
Formula: C10H19NO6
CAS: 17296-07-0
Molecular weight: 249
m/z	intensity
41	66
42	133
43	803
44	100
45	519
46	16
54	13
55	56
56	93
57	160
58	193
59	999
60	360
61	66
68	33
69	36
70	100
71	73
72	166
73	316
74	133
75	63
80	16
81	6
82	20
83	30
84	146
85	70
86	60
87	106
88	110
89	13
96	33
97	96
98	70
99	33
100	43
101	426
102	156
103	50
110	6
111	56
112	63
113	26
114	220
115	166
116	43
124	10
125	10
126	70
127	6
128	30
129	13
130	36
138	13
139	226
140	43
141	10
142	60
143	13
144	70
158	16
162	16
171	73
172	103
173	6
188	10
189	6
199	16
200	18
217	55
218	59
