Mass Spectrum: 1-Cyclopropyl-1-methyl-ethylamine
Formula: C6H13N
CAS: 172947-13-6
Molecular weight: 99
m/z	intensity
25	15
27	101
28	125
29	50
30	150
31	3
37	9
38	24
39	191
40	33
41	277
42	470
43	105
44	59
50	8
51	14
52	11
53	24
54	28
55	70
56	168
57	53
58	853
59	40
63	4
65	23
66	10
67	88
68	27
69	17
70	151
71	85
72	11
77	4
79	4
80	5
81	7
82	19
83	15
84	999
85	74
86	2
98	8
99	3
