Mass Spectrum: 5-Heptenoic acid, 6-methyl-2-(1,1,1-trimethylsilyl)-, ethyl ester
Formula: C13H26O2Si
CAS: 172921-72-1
Molecular weight: 242
m/z	intensity
25	2
27	55
28	4
29	65
31	13
39	36
40	8
41	177
42	11
43	60
44	31
45	131
46	8
47	27
51	5
52	3
53	33
54	13
55	999
56	33
57	13
58	18
59	107
60	14
61	39
62	2
63	2
65	6
66	3
67	50
68	21
69	79
70	9
71	10
72	34
73	897
74	76
75	433
76	29
77	25
78	3
79	18
80	5
81	28
82	430
83	82
84	6
85	47
86	6
87	7
88	5
89	6
90	2
91	13
92	3
93	7
94	3
95	34
96	12
97	7
98	3
99	52
100	7
101	40
102	8
103	347
104	32
105	17
106	2
107	17
108	3
109	10
111	4
112	2
113	5
114	3
115	18
116	37
117	145
118	14
119	11
120	4
121	2
122	2
123	10
124	9
125	7
126	2
127	7
129	304
130	34
131	15
132	2
133	2
139	5
140	2
141	6
142	8
143	4
144	40
145	33
146	5
147	4
149	2
155	4
157	4
158	2
159	3
160	141
161	19
162	6
167	3
168	2
169	2
170	4
171	2
173	314
174	45
175	14
176	1
181	47
182	8
183	10
186	3
196	80
197	139
198	25
199	17
200	2
227	20
228	4
242	54
243	11
244	2
