Mass Spectrum: 6-Fluoro-5-(4-methylpiperazin-1-yl)benzo[1,2,5]oxadiazol-1-oxide
Formula: C11H13FN4O2
CAS: 173029-85-1
Molecular weight: 252
m/z	intensity
33	2
38	1
39	13
40	4
41	43
42	582
43	999
44	126
45	2
46	1
50	6
51	6
52	5
53	2
54	25
55	32
56	135
57	177
58	79
59	2
60	1
61	1
62	2
63	5
64	1
65	2
66	1
67	3
68	7
69	8
70	303
71	323
72	20
73	4
74	8
75	16
76	11
77	4
78	2
79	1
80	4
81	62
82	20
83	18
84	11
85	10
86	5
87	1
88	2
89	2
90	2
91	1
92	2
93	57
94	63
95	31
96	99
97	19
98	25
99	20
100	2
101	6
102	3
103	1
104	3
105	1
106	3
107	29
108	14
109	10
110	9
111	3
112	1
113	1
114	1
115	1
116	2
117	2
118	2
119	2
120	34
121	98
122	30
123	8
124	7
125	2
126	10
127	1
128	5
129	2
130	2
131	5
132	1
133	3
134	11
135	17
136	12
137	11
138	3
139	2
141	2
142	1
143	2
144	1
145	2
146	2
147	4
148	29
149	34
150	42
151	16
152	3
153	2
154	0
155	1
156	1
157	1
158	1
159	7
160	2
161	5
162	7
163	15
164	8
165	9
166	1
167	11
168	2
169	1
171	3
172	2
173	2
174	2
175	3
176	6
177	14
178	3
179	5
180	2
181	15
182	1
183	1
187	1
189	2
190	6
191	141
192	153
193	21
194	5
195	2
196	0
202	1
203	1
204	2
205	1
206	6
207	1
208	0
209	0
210	49
211	4
212	0
218	2
219	4
220	3
221	1
222	1
223	0
225	1
226	0
234	1
235	55
236	24
237	3
238	1
251	37
252	455
253	62
254	9
255	0
