Mass Spectrum: 9,15-Octadecadienoic acid, methyl ester, (Z,Z)-
Formula: C19H34O2
CAS: 17309-05-6
Molecular weight: 294
m/z	intensity
26	10
27	150
28	100
29	220
30	10
31	19
32	5
33	7
34	6
35	5
37	5
38	8
39	220
40	45
41	999
42	94
43	170
44	16
45	32
50	8
51	20
52	18
53	160
54	280
55	820
56	64
57	38
58	9
59	170
60	10
61	7
62	5
63	7
64	6
65	43
66	51
67	760
68	310
69	380
70	31
71	24
72	7
73	30
74	140
75	17
76	5
77	47
78	18
79	150
80	92
81	580
82	610
83	180
84	30
85	26
86	6
87	86
88	13
89	5
91	35
92	11
93	67
94	61
95	40
96	280
97	88
98	25
99	15
100	6
101	20
102	6
103	6
104	6
105	15
106	9
107	42
108	40
109	190
110	240
111	60
112	11
113	10
114	8
115	19
116	7
117	8
118	5
119	15
120	10
121	46
122	35
123	160
124	130
125	48
126	10
127	10
128	8
129	15
130	6
131	10
132	7
133	15
134	10
135	42
136	41
137	64
138	44
139	23
140	9
141	12
142	6
143	19
144	6
145	8
146	5
147	11
148	6
149	28
150	34
151	27
152	17
153	15
154	8
155	8
156	6
157	33
158	8
159	7
160	5
161	8
162	7
163	18
164	24
165	14
166	9
167	9
168	7
169	7
171	14
172	6
173	8
174	5
175	7
176	5
177	11
178	30
179	11
180	9
181	12
182	8
183	5
185	9
186	5
187	10
188	8
189	8
191	9
192	15
193	7
194	6
195	8
196	7
199	5
201	12
202	6
203	5
205	10
206	25
207	11
208	5
209	7
210	17
211	6
212	6
213	9
214	5
215	7
216	5
218	5
219	13
220	18
221	7
223	8
224	13
225	5
227	5
233	8
234	8
235	5
237	11
238	21
239	8
245	7
246	5
251	16
252	17
253	6
261	5
262	16
263	55
264	15
265	12
266	6
279	5
292	5
293	5
294	150
295	33
296	7
