Mass Spectrum: Pyrazol-5(4H)-one, 1-(2-benzothiazolyl)-3-methyl-
Formula: C11H9N3OS
CAS: 17304-62-0
Molecular weight: 231
m/z	intensity
33	3
34	8
37	70
38	283
39	999
40	67
41	111
42	189
44	27
45	129
46	6
47	6
48	2
50	159
51	104
52	142
53	78
54	125
55	39
57	38
58	46
59	12
60	10
61	24
62	51
63	159
64	68
65	33
67	152
68	236
69	235
70	63
71	23
72	8
74	63
75	58
76	53
77	49
78	60
79	9
80	11
81	43
82	124
83	22
84	22
85	4
86	2
88	17
90	54
91	139
92	11
93	31
94	32
95	68
96	61
97	8
98	3
99	2
101	0
102	10
103	12
104	13
105	67
106	19
108	516
109	89
110	19
111	3
115	9
116	9
117	2
118	2
120	14
121	21
122	81
123	29
124	3
129	1
130	5
131	1
133	32
134	128
135	673
136	104
137	37
138	2
142	1
145	5
146	8
148	76
149	128
150	40
151	16
152	2
160	40
161	29
162	37
163	24
164	18
165	7
166	0
170	10
171	3
173	35
174	142
175	41
176	18
177	17
185	4
186	17
187	15
188	13
189	13
190	71
191	6
192	2
197	1
198	16
199	29
200	2
202	50
203	35
204	3
205	1
214	4
216	45
217	5
231	707
232	72
233	32
234	3
