Mass Spectrum: Undecane, 6-methyl-
Formula: C12H26
CAS: 17302-33-9
Molecular weight: 170
m/z	intensity
25	0
26	2
27	57
28	7
29	106
30	1
36	0
37	0
38	0
39	44
40	11
41	232
42	55
43	288
44	8
46	0
50	1
51	1
52	1
53	16
54	9
55	92
56	129
57	999
58	42
59	0
64	0
65	1
66	0
67	6
68	7
69	51
70	92
71	92
72	4
75	0
77	2
78	0
79	3
80	1
81	0
82	0
83	14
84	9
85	37
86	1
88	1
91	0
92	0
93	0
96	0
97	7
98	233
99	76
100	4
102	0
105	0
108	0
111	1
112	9
113	5
114	0
116	0
119	0
121	0
123	0
125	0
126	9
127	2
135	0
136	0
138	0
139	0
140	6
141	3
142	1
143	0
154	3
155	4
159	0
162	0
163	0
164	0
167	0
168	0
169	0
170	13
171	2
172	0
