Mass Spectrum: Germacyclopent-3-ene,1,1-dimethyl-
Formula: C6H12Ge
CAS: 1731-10-8
Molecular weight: 158
m/z	intensity
39	123
50	47
51	31
52	22
53	56
54	41
70	62
71	56
72	71
73	94
74	99
75	75
76	19
77	15
85	554
87	784
89	999
91	203
95	37
97	92
100	551
102	605
104	771
106	171
109	12
111	22
112	15
113	22
114	11
115	20
117	42
119	44
121	15
123	14
127	11
139	219
141	295
143	424
145	91
154	203
156	294
158	417
160	91
