Mass Spectrum: Phosphoramidothioic acid, O,O-dimethyl ester
Formula: C2H8NO2PS
CAS: 17321-47-0
Molecular weight: 141
m/z	intensity
46	167
47	83
48	39
62	16
63	33
64	114
78	999
79	49
80	12
93	56
94	48
96	11
110	146
111	289
112	12
113	16
141	652
142	25
143	27
