Mass Spectrum: 3-Epimacronine
Formula: C18H19NO5
CAS: 17322-73-5
Molecular weight: 329
m/z	intensity
31	57
32	9
33	5
34	3
36	3
37	8
38	19
39	163
40	30
41	170
42	852
43	202
44	999
45	105
46	3
50	59
51	135
52	43
53	95
54	47
55	130
56	77
57	100
58	53
59	13
60	5
61	15
62	79
63	176
64	46
65	104
66	30
67	33
68	34
69	70
70	464
71	83
72	29
73	15
74	127
75	107
76	75
77	187
78	63
79	39
80	27
81	37
82	133
83	44
84	45
85	33
86	38
87	73
88	50
89	134
90	35
91	58
92	33
93	23
94	67
95	23
96	21
97	22
98	55
99	44
100	36
101	80
102	119
103	75
104	27
105	25
106	22
107	17
108	26
109	9
110	22
111	22
112	29
113	86
114	61
115	229
116	54
117	45
118	22
119	27
120	39
121	22
122	10
123	7
124	22
125	19
126	120
127	199
128	233
129	72
130	55
131	32
132	20
133	18
134	11
135	17
136	4
137	14
138	26
139	279
140	75
141	101
142	67
143	89
144	40
145	35
146	22
147	28
148	12
149	25
150	9
151	15
152	32
153	33
154	45
155	133
156	66
157	34
158	19
159	55
160	43
161	12
162	5
163	4
164	6
165	11
166	15
167	75
168	52
169	57
170	25
171	56
172	42
173	37
174	13
175	36
176	5
177	18
178	5
179	5
180	10
181	18
182	18
183	124
184	39
185	68
186	51
187	26
188	33
189	10
190	4
191	4
193	4
194	5
195	28
196	27
197	168
198	49
199	31
201	832
202	122
203	30
204	8
208	3
209	15
210	13
211	48
212	26
213	103
214	27
215	16
216	13
217	6
218	13
219	3
220	2
222	3
223	9
224	23
225	123
226	44
227	28
228	28
229	12
230	11
231	6
232	4
237	4
238	18
239	35
240	21
241	112
242	33
244	183
245	652
246	99
247	12
248	2
252	6
253	11
254	12
255	108
256	29
257	17
258	10
259	2
265	3
267	2
268	8
269	4
270	6
271	15
272	13
273	2
280	1
284	2
285	3
286	7
287	1
296	2
298	7
299	2
314	65
315	14
316	2
329	91
330	19
331	3
