Mass Spectrum: 1H-Imidazole-4-carboxylic acid, methyl ester
Formula: C5H6N2O2
CAS: 17325-26-7
Molecular weight: 126
m/z	intensity
25	4
26	5
27	17
28	44
29	22
30	6
31	12
33	3
34	3
38	21
39	54
40	223
41	36
42	22
43	7
44	52
45	5
49	3
50	12
51	4
52	10
53	17
54	12
55	6
56	3
57	6
58	2
59	14
60	3
64	3
65	4
66	21
67	228
68	139
69	9
70	4
71	6
77	2
78	3
79	3
80	2
81	13
82	20
83	3
84	2
85	2
92	2
93	3
94	106
95	999
96	95
97	9
98	3
99	5
100	2
107	2
108	6
109	31
110	6
111	3
120	3
121	2
122	4
123	3
124	3
125	9
126	609
127	43
128	6
129	3
