Mass Spectrum: 2-Butenamide,N-phenyl-
Formula: C10H11NO
CAS: 1733-40-0
Molecular weight: 161
m/z	intensity
24	0
26	3
27	9
28	5
29	1
30	0
36	0
37	7
38	18
39	136
40	60
41	217
42	8
43	0
44	2
49	1
50	9
51	28
52	10
53	3
54	3
55	1
57	0
61	1
62	5
63	21
64	18
65	73
66	49
67	7
68	9
69	590
70	24
71	2
73	1
74	3
75	9
76	4
77	44
78	6
79	1
80	0
81	0
83	0
87	0
88	0
89	1
90	3
91	14
92	25
93	999
94	65
95	2
97	0
101	0
102	0
103	12
104	4
105	4
106	1
115	4
116	2
117	18
118	8
119	4
120	8
121	0
128	1
129	0
130	5
131	1
132	10
133	6
134	0
142	2
143	1
144	3
145	1
146	7
147	0
149	0
158	0
159	0
160	11
161	346
162	42
163	2
