Mass Spectrum: 1H-Imidazole-2-methanol, 1-methyl-
Formula: C5H8N2O
CAS: 17334-08-6
Molecular weight: 112
m/z	intensity
40	150
41	150
42	400
43	520
44	180
52	90
54	340
55	180
56	160
81	380
82	490
83	150
95	250
96	130
110	999
111	500
112	610
113	50
