Mass Spectrum: 5-Hydroxy-2,2-dimethylhexan-3-one
Formula: C8H16O2
CAS: 173343-33-4
Molecular weight: 144
m/z	intensity
26	6
27	57
28	15
29	175
30	15
31	20
38	8
39	81
40	12
41	318
42	50
43	617
44	39
45	296
46	7
50	37
51	13
52	3
53	10
55	33
57	999
58	37
59	38
60	2
61	10
62	3
63	13
64	13
65	8
66	5
67	21
68	8
69	113
70	19
71	31
72	3
73	4
74	13
76	31
77	19
78	6
80	4
81	9
83	9
84	3
85	89
86	9
87	455
88	18
89	13
91	11
93	5
95	8
98	12
100	24
101	4
103	11
104	3
105	4
107	3
108	4
109	2
111	3
113	2
115	5
122	35
123	13
124	3
126	18
127	3
129	4
144	6
