Mass Spectrum: Glyoxylamide, 2-cyano-1-thio-, phenylhydrazone
Formula: C9H8N4S
CAS: 1733-04-6
Molecular weight: 204
m/z	intensity
33	18
34	7
35	1
36	1
37	22
38	78
39	224
40	59
41	21
42	4
43	8
44	17
45	57
46	9
47	3
48	1
49	10
50	80
51	243
52	55
53	43
54	9
55	19
56	3
57	4
58	6
59	27
60	255
61	19
62	32
63	68
64	73
65	227
66	56
67	24
68	2
69	3
70	20
71	16
72	72
73	10
74	20
75	12
77	999
78	106
79	11
80	2
81	1
82	5
83	3
84	3
85	1
86	2
87	1
88	2
89	15
90	12
91	42
92	60
93	30
94	1
95	0
96	1
97	3
98	5
99	8
100	1
101	0
102	8
103	2
104	6
105	130
106	9
107	3
108	1
109	4
110	38
111	3
112	2
113	0
114	0
115	3
116	13
117	7
118	9
119	8
120	1
121	3
122	1
123	15
124	23
125	25
126	3
127	14
128	1
129	3
130	0
132	0
133	1
134	3
135	2
136	1
137	0
141	0
142	3
143	47
144	11
145	1
146	0
147	0
148	1
149	2
150	2
151	8
152	1
153	0
156	18
157	5
159	8
160	3
161	1
162	0
163	0
169	0
170	8
171	29
172	3
173	0
174	0
175	7
176	2
177	2
178	0
186	0
187	7
188	1
189	0
199	0
200	1
201	2
203	76
204	458
205	59
206	22
207	3
