Mass Spectrum: Ethanone, 1,2,2-triphenyl-
Formula: C20H16O
CAS: 1733-63-7
Molecular weight: 272
m/z	intensity
27	1
28	1
39	5
50	3
51	14
52	1
62	1
63	5
65	3
74	1
75	1
76	3
77	109
78	9
87	1
89	4
91	1
102	1
105	999
106	81
107	5
113	2
115	9
116	1
126	2
127	1
128	7
129	1
139	7
140	1
141	3
150	1
151	6
152	64
153	9
163	7
164	9
165	132
166	47
167	304
168	42
169	2
178	1
239	1
272	22
273	4
