Mass Spectrum: dl-Alanine ethyl ester
Formula: C5H11NO2
CAS: 17344-99-9
Molecular weight: 117
m/z	intensity
14	1
15	11
26	4
27	26
28	41
29	35
30	3
31	2
40	2
41	7
42	40
43	17
44	999
45	33
46	5
47	2
55	3
56	5
57	2
70	1
73	2
74	31
88	4
102	7
116	1
117	9
118	3
