Mass Spectrum: 9-Cycloheptadecen-1-ol
Formula: C17H32O
CAS: 17344-59-1
Molecular weight: 252
m/z	intensity
19	4
26	4
27	90
29	254
30	4
32	88
39	128
40	28
41	914
42	149
43	325
44	80
45	32
50	4
51	10
52	5
53	138
54	449
55	999
56	187
57	390
58	37
59	22
60	4
61	10
63	6
64	4
65	29
66	66
67	788
68	430
69	470
70	140
71	118
72	13
73	4
75	10
77	26
78	35
79	254
80	838
81	739
82	709
83	364
84	82
85	51
86	9
87	4
88	4
89	4
91	29
92	26
93	235
94	507
95	577
96	505
97	235
98	66
99	13
100	4
101	4
102	4
103	4
105	12
106	10
107	150
108	159
109	210
110	147
111	88
112	27
113	7
114	4
119	4
120	9
121	199
122	77
123	92
124	51
125	29
126	10
134	7
135	160
136	61
137	44
138	29
139	7
140	4
141	4
142	4
148	6
149	63
150	17
151	18
152	22
153	7
154	1
155	4
163	29
164	13
165	10
166	16
167	7
168	6
177	15
178	10
179	7
180	13
181	2
182	4
189	4
190	4
191	11
192	7
193	4
194	7
195	6
196	4
197	3
203	4
205	7
206	17
208	11
218	5
227	4
231	4
232	4
233	4
234	368
235	81
236	40
237	10
238	4
239	4
249	4
250	20
251	4
252	8
253	5
