Mass Spectrum: 2,4-Dibromo-2,4-dimethylpentan-3-one
Formula: C7H12Br2O
CAS: 17346-16-6
Molecular weight: 270
m/z	intensity
14	1
15	33
16	1
18	2
25	1
26	19
27	109
28	8
29	19
31	3
36	1
37	11
38	37
39	372
40	79
41	889
42	263
43	101
44	3
45	2
50	7
51	13
52	4
53	28
54	5
55	89
56	8
57	3
59	3
62	2
63	4
64	1
65	6
66	2
67	9
69	110
70	999
71	53
72	5
74	1
77	9
78	1
79	11
80	4
81	9
82	8
83	100
84	17
85	1
91	3
93	7
94	1
95	8
96	1
97	8
105	3
106	1
107	3
108	1
111	23
112	8
119	2
120	22
121	380
122	32
123	344
124	12
133	1
135	3
137	1
149	147
150	46
151	141
152	44
153	2
163	6
165	8
191	14
192	2
193	13
194	1
270	22
272	49
273	3
274	24
275	1
