Mass Spectrum: (Z)-(Z)-icos-11-en-1-yl icos-11-enoate
Formula: C40H76O2
CAS: 173443-70-4
Molecular weight: 588
m/z	intensity
27	6
29	25
30	1
39	25
40	6
41	222
42	52
43	275
44	9
53	26
54	156
55	780
56	209
57	436
58	21
59	6
60	11
61	3
63	1
65	11
66	31
67	445
68	267
69	966
70	210
71	285
72	16
73	34
74	3
77	11
78	8
79	91
80	100
81	566
82	630
83	999
84	177
85	186
86	15
87	22
91	19
92	8
93	76
94	95
95	658
96	770
97	994
98	193
99	74
100	14
101	48
102	4
104	2
105	14
106	7
107	64
108	77
109	488
110	437
111	559
112	104
113	57
114	29
115	57
116	8
117	4
119	29
120	15
121	187
122	110
123	380
124	358
125	287
126	60
127	70
128	12
129	49
130	5
131	5
132	2
133	36
134	25
135	153
136	110
137	258
138	256
139	174
140	46
141	37
142	6
143	34
144	5
145	4
146	3
147	33
148	25
149	100
150	103
151	165
152	189
153	115
154	42
155	27
156	6
157	31
158	6
159	4
161	24
162	10
163	60
164	75
165	120
166	135
167	81
168	32
169	25
170	7
171	25
172	4
173	6
174	2
175	28
176	6
177	45
178	55
179	99
180	114
181	69
182	30
183	23
184	7
185	25
186	6
187	4
189	20
190	4
191	34
192	46
193	96
194	109
195	64
196	35
197	24
198	4
199	22
200	5
201	4
203	11
205	26
206	53
207	76
208	117
209	63
210	32
211	20
212	6
213	20
214	8
215	2
216	1
217	9
218	2
219	21
220	34
221	82
222	91
223	49
224	23
225	15
226	5
227	21
228	7
229	4
231	5
232	2
233	17
234	21
235	66
236	70
237	38
238	21
239	12
240	6
241	15
242	4
243	3
244	1
245	7
246	6
247	24
248	95
249	83
250	96
251	42
252	19
253	12
254	4
255	10
256	2
259	2
260	2
261	10
262	56
263	54
264	45
265	59
266	24
267	14
268	4
269	7
270	2
271	3
272	4
273	24
274	25
275	61
276	329
277	103
278	314
279	83
280	30
281	8
282	6
283	24
284	4
287	2
289	9
290	296
291	116
292	338
293	462
294	107
295	46
296	7
297	4
305	20
306	26
307	116
308	79
309	24
310	20
311	79
312	20
313	33
314	6
317	4
322	17
323	14
324	7
325	4
326	1
331	2
332	3
333	8
334	5
335	15
336	15
337	8
338	5
345	2
346	3
347	6
348	4
349	20
350	20
351	11
353	2
359	3
360	3
362	4
363	15
364	24
365	10
366	3
367	2
371	1
374	5
375	7
376	4
377	15
378	20
379	9
380	2
388	3
389	3
390	4
391	16
392	16
393	7
395	2
402	2
403	4
404	4
405	11
406	21
407	10
409	2
416	2
417	4
418	2
419	12
420	25
421	10
429	2
431	3
433	13
434	31
435	12
443	2
444	2
445	3
447	14
448	34
449	12
450	3
451	2
461	19
462	34
463	11
471	1
475	18
476	28
477	12
478	2
479	2
480	1
487	2
489	15
490	22
491	10
493	1
503	14
504	17
505	7
513	1
517	9
518	11
521	1
545	5
547	2
589	108
