Mass Spectrum: 3-Methoxybut-1-ene
Formula: C5H10O
CAS: 17351-24-5
Molecular weight: 86
m/z	intensity
26	44
27	248
28	12
29	253
30	9
31	110
32	0
33	4
36	1
37	14
38	25
39	260
40	16
41	662
42	42
43	272
44	9
45	45
46	1
49	9
50	45
51	44
52	19
53	120
54	66
55	447
56	104
57	16
58	10
59	282
60	13
69	4
70	4
71	999
72	63
73	3
84	2
85	95
86	364
87	17
88	1
