Mass Spectrum: 14-Pentadecenoic acid
Formula: C15H28O2
CAS: 17351-34-7
Molecular weight: 240
m/z	intensity
26	5
27	47
28	25
29	144
30	4
31	10
32	0
35	0
36	7
37	0
38	2
39	52
41	497
42	112
43	385
44	12
45	51
46	1
47	1
48	0
50	1
51	2
52	2
53	30
54	122
55	999
56	283
57	259
58	17
59	55
60	185
61	31
62	1
63	1
64	0
65	7
66	11
67	165
68	204
69	734
70	257
71	100
72	0
73	243
74	62
75	3
76	1
77	6
78	5
79	31
80	27
81	171
82	217
83	559
84	350
85	74
86	10
87	86
88	27
89	2
90	0
91	14
92	5
93	29
94	50
95	131
96	291
97	456
98	302
99	46
100	60
101	97
102	15
103	2
104	3
105	14
106	5
107	24
108	34
109	83
110	171
111	189
112	95
113	39
114	112
115	57
116	14
117	3
118	3
119	25
120	12
121	29
122	28
123	92
124	100
125	93
126	36
127	68
128	25
129	40
130	9
131	2
132	1
133	27
134	29
135	24
136	26
137	76
138	126
139	63
140	17
141	21
142	6
143	14
144	10
145	1
146	0
147	18
148	22
149	16
150	10
151	54
152	50
153	27
154	7
155	9
156	4
157	10
158	7
159	2
160	0
161	14
162	13
163	11
164	4
165	30
166	21
167	16
168	7
169	6
170	3
171	5
172	3
173	1
174	0
175	7
176	3
177	1
178	52
179	32
180	70
181	18
182	3
183	3
184	1
185	3
186	0
187	1
188	0
189	0
190	0
191	1
192	0
193	16
194	13
195	1
196	1
197	6
198	2
199	2
200	1
201	0
202	3
204	19
205	5
206	1
207	1
208	0
211	2
212	2
213	1
214	1
220	0
222	124
223	25
224	2
225	0
228	0
236	0
238	1
239	0
240	13
241	2
242	2
