Mass Spectrum: 2H-Azepin-2-one, hexahydro-1-(2-propenyl)-
Formula: C9H15NO
CAS: 17356-28-4
Molecular weight: 153
m/z	intensity
54	260
55	809
56	599
58	360
68	480
69	360
70	999
82	270
83	210
84	290
96	569
97	230
110	420
138	959
153	689
154	130
