Mass Spectrum: 2-Furancarboxylic acid, 2-chlorophenyl ester
Formula: C11H7ClO3
CAS: 17357-61-8
Molecular weight: 222
m/z	intensity
26	11
27	4
28	2
29	11
39	159
40	7
41	14
42	4
43	3
50	16
51	24
52	23
53	14
55	4
61	4
62	8
63	29
64	12
65	9
66	7
67	13
69	3
73	25
74	6
75	18
77	5
78	3
91	3
92	4
94	5
95	999
96	55
97	6
99	24
101	9
102	4
112	6
119	3
127	5
128	7
131	3
187	22
188	6
222	29
223	3
224	10
225	1
