Mass Spectrum: 9-Octadecene, 1-[2-(octadecyloxy)ethoxy]-, (Z)-
Formula: C38H76O2
CAS: 17367-12-3
Molecular weight: 564
m/z	intensity
26	20
27	70
28	140
29	160
30	10
31	10
32	20
39	70
40	20
41	410
42	110
43	710
44	70
45	100
50	10
51	10
52	10
53	40
54	160
55	770
56	240
57	999
58	70
59	30
60	20
63	200
64	10
65	20
66	40
67	320
68	270
69	680
70	180
71	660
72	40
73	30
75	40
77	30
78	20
79	60
80	60
81	330
82	600
83	670
84	130
85	430
86	40
87	10
91	60
92	30
93	70
94	40
95	330
96	510
97	510
98	110
99	130
100	20
101	30
103	10
104	10
105	50
106	20
107	30
108	30
109	210
110	210
111	220
112	50
113	80
114	10
115	10
117	10
119	20
120	10
121	30
122	30
123	140
124	140
125	100
126	30
127	50
128	10
129	10
131	10
133	10
134	10
135	20
136	20
137	90
138	80
139	40
140	20
141	50
142	10
149	20
150	10
151	50
152	60
153	30
154	20
155	40
156	10
157	10
163	10
165	30
166	40
167	20
168	20
169	30
179	20
180	20
181	10
182	10
183	20
193	20
194	30
195	10
197	20
207	20
208	30
209	10
211	10
221	10
222	40
223	10
224	10
248	20
249	20
250	610
251	150
252	30
253	70
254	20
263	10
266	40
267	160
268	30
269	20
281	60
282	10
283	10
294	10
297	10
311	10
312	10
313	280
314	60
315	130
316	30
317	10
325	40
326	10
352	10
353	10
495	10
564	10
565	60
566	30
567	10
