Mass Spectrum: 1-Propanol, 3-(octadecyloxy)-
Formula: C21H44O2
CAS: 17367-36-1
Molecular weight: 328
m/z	intensity
25	2
26	9
27	56
28	150
29	180
30	11
31	220
32	38
33	5
36	2
37	2
38	2
39	33
40	10
41	400
42	130
43	660
44	30
45	210
46	7
47	7
49	9
50	2
51	3
52	2
53	19
54	50
55	480
56	190
57	730
58	200
59	380
60	233
61	42
62	4
63	10
64	2
65	6
66	14
67	80
68	120
69	380
70	160
71	670
72	37
73	10
74	19
75	770
76	31
77	999
78	38
79	13
80	7
81	52
82	170
83	370
84	100
85	240
86	23
87	11
88	5
89	810
90	38
91	11
92	3
93	4
94	5
95	41
96	80
97	290
98	60
99	61
100	7
101	3
102	2
103	3
104	19
105	7
106	3
107	2
108	3
109	24
110	32
111	150
112	40
113	39
114	5
115	5
116	2
117	4
118	3
119	6
120	3
121	2
122	3
123	15
124	19
125	70
126	25
127	25
128	5
129	3
130	2
131	8
132	3
133	4
134	3
135	2
136	3
137	10
138	13
139	30
140	17
141	18
142	5
143	2
144	1
145	6
146	2
147	2
148	2
149	5
150	2
151	5
152	9
153	18
154	15
155	15
156	5
157	2
158	1
159	2
160	2
161	2
162	2
163	2
164	1
165	3
166	6
167	11
168	11
169	12
170	3
171	2
172	1
177	1
178	2
179	5
180	5
181	8
182	9
183	8
184	3
185	2
187	2
193	3
194	5
195	6
196	7
197	5
198	2
199	2
201	3
207	3
208	4
209	4
210	4
211	3
212	2
213	1
214	1
215	2
217	1
218	1
219	3
220	1
221	2
222	7
223	4
224	16
225	4
226	2
227	1
229	2
230	1
235	1
236	2
237	1
238	2
239	2
240	2
241	1
249	2
250	27
251	7
252	29
253	21
254	5
256	2
263	3
264	4
265	2
266	2
267	5
268	4
269	45
270	10
271	4
272	2
279	2
280	2
281	44
282	12
283	6
284	2
285	4
286	2
290	1
292	6
293	3
294	2
298	2
299	3
300	2
310	11
311	40
312	2
313	2
327	8
328	36
329	10
330	3
