Mass Spectrum: Stearic acid, 3-(octadecyloxy)propyl ester
Formula: C39H78O3
CAS: 17367-40-7
Molecular weight: 594
m/z	intensity
26	11
27	47
28	198
29	134
30	7
31	26
32	19
35	2
36	13
37	3
38	6
39	28
40	9
41	277
42	99
43	698
44	134
45	26
46	3
47	1
48	1
49	2
50	3
51	3
52	3
53	13
54	40
55	396
56	138
57	920
58	468
59	142
60	43
61	26
62	2
63	3
64	2
65	3
66	11
67	83
68	96
69	325
70	134
71	999
72	56
73	55
74	7
75	86
76	4
77	130
78	7
79	14
80	13
81	87
82	222
83	325
84	158
85	373
86	34
87	62
88	7
89	16
90	1
91	7
92	3
93	11
94	9
95	93
96	119
97	269
98	158
99	126
100	50
101	119
102	19
103	8
104	3
105	5
106	2
107	9
108	7
109	56
110	42
111	142
112	57
113	154
114	18
115	26
116	5
117	4
118	3
119	76
120	6
121	14
122	7
123	35
124	27
125	63
126	27
127	46
128	8
129	18
130	3
131	5
132	2
133	3
134	2
135	10
136	4
137	22
138	19
139	30
140	20
141	39
142	7
143	5
144	2
145	2
146	2
147	3
148	1
149	7
150	3
151	11
152	12
153	18
154	24
155	33
156	6
157	5
158	2
159	2
160	1
161	1
162	1
163	3
164	1
165	7
166	7
167	13
168	16
169	30
170	6
171	10
172	3
173	3
174	3
175	2
176	1
177	3
178	1
179	3
180	7
181	8
182	9
183	16
184	3
185	7
186	1
187	1
188	1
189	1
190	1
191	1
192	1
193	4
194	7
195	7
196	7
197	13
198	3
199	5
200	2
201	3
202	3
203	2
204	1
205	1
206	1
207	4
208	6
209	5
210	10
211	11
212	3
213	3
214	1
215	2
216	1
217	1
218	1
219	1
220	2
221	1
222	3
223	9
224	5
225	12
226	11
227	3
228	4
229	2
230	2
231	2
232	1
233	1
235	1
236	2
237	2
238	2
239	7
240	3
241	7
242	3
243	2
244	2
245	2
247	4
248	2
249	3
250	42
251	11
252	29
253	19
254	10
255	12
256	7
257	3
258	1
259	1
260	1
261	1
262	1
263	7
264	6
265	9
266	19
267	158
268	31
269	7
270	2
271	2
272	1
278	3
279	5
280	5
281	333
282	73
283	18
284	24
285	38
286	8
287	2
292	2
293	1
294	3
295	9
296	3
297	4
298	2
299	2
300	1
301	1
308	4
309	9
310	76
311	30
312	7
313	3
314	1
315	1
316	1
321	1
322	3
323	23
324	38
325	253
326	102
327	50
328	12
329	70
330	17
331	3
335	2
336	1
337	1
338	1
339	2
340	1
341	4
342	3
343	53
344	13
345	2
346	1
353	3
354	2
355	1
356	3
357	1
358	1
359	1
370	16
371	5
372	2
373	1
380	1
381	1
383	8
384	3
385	1
411	1
412	1
413	1
425	1
467	1
468	1
469	1
594	10
595	5
596	2
