Mass Spectrum: Hexadecane, 1,1'-[1,2-ethanediylbis(oxy)]bis-
Formula: C34H70O2
CAS: 17367-09-8
Molecular weight: 510
m/z	intensity
25	3
26	9
27	31
28	143
29	102
30	7
31	12
32	27
38	3
39	20
40	9
41	235
42	82
43	666
44	48
45	123
46	4
47	24
50	3
51	3
52	3
53	12
54	44
55	400
56	169
57	999
58	66
59	34
60	8
61	6
63	307
64	9
65	5
66	17
67	84
68	179
69	379
70	148
71	723
72	51
73	28
74	4
75	69
76	3
77	10
78	4
79	10
80	9
81	71
82	276
83	446
84	117
85	487
86	39
87	15
88	10
89	13
90	3
91	6
92	3
93	5
94	7
95	53
96	138
97	384
98	94
99	164
100	15
101	10
102	4
103	4
104	3
105	5
106	3
107	5
108	4
109	28
110	44
111	230
112	71
113	112
114	11
115	10
116	3
117	8
118	3
119	4
120	3
121	4
122	4
123	21
124	33
125	133
126	44
127	87
128	11
129	5
130	3
131	5
132	2
133	6
134	2
135	4
136	4
137	13
138	20
139	55
140	40
141	76
142	7
143	4
144	3
145	5
146	2
147	4
148	2
149	7
150	2
151	5
152	13
153	36
154	29
155	56
156	8
157	4
158	2
159	3
160	2
161	2
162	3
163	3
164	2
165	6
166	13
167	23
168	20
169	35
170	6
171	4
172	3
173	3
174	2
175	4
178	6
179	5
180	9
181	11
182	10
183	18
184	3
185	6
186	4
187	3
188	3
189	3
190	1
191	3
192	2
193	4
194	15
195	9
196	74
197	14
198	3
199	3
200	2
201	3
202	2
203	2
205	3
207	12
208	4
209	3
210	3
211	2
212	2
213	3
214	2
215	2
216	2
217	4
218	5
219	12
220	5
221	7
222	76
223	20
224	200
225	189
226	31
227	5
228	2
229	2
230	1
231	2
232	2
233	2
234	1
235	2
236	2
237	2
238	3
239	32
240	12
241	179
242	31
243	8
244	2
245	1
246	1
247	2
248	2
249	1
250	2
251	2
252	2
253	16
254	4
255	30
256	9
257	3
258	2
259	1
260	1
261	1
262	1
263	1
264	2
265	2
266	2
267	3
268	6
269	10
270	6
271	30
272	7
273	4
274	1
279	2
280	1
281	5
282	2
283	2
284	5
285	38
286	12
287	415
288	92
289	11
290	2
295	2
296	1
297	2
298	1
299	28
300	7
301	2
302	1
303	1
304	1
311	2
313	1
314	1
315	1
316	1
327	2
328	1
329	1
330	1
341	4
342	2
343	1
344	1
345	1
346	1
347	1
350	1
352	2
353	1
354	2
355	4
356	2
357	1
358	1
359	1
401	2
402	1
403	1
404	1
415	2
416	1
417	1
418	1
429	3
430	2
431	1
432	1
433	1
434	1
452	3
453	2
454	1
467	2
468	2
469	1
470	1
479	2
480	2
481	2
482	1
483	1
508	1
509	2
510	4
511	2
512	1
513	1
