Mass Spectrum: 9-Octadecene, 1-[3-(octadecyloxy)propoxy]-, (Z)-
Formula: C39H78O2
CAS: 17367-39-4
Molecular weight: 578
m/z	intensity
26	10
27	40
28	20
29	107
30	10
31	38
32	3
33	5
37	6
38	5
39	34
40	14
41	327
42	114
43	754
44	40
45	54
46	3
47	3
48	3
49	4
50	4
51	5
52	3
53	20
54	136
55	672
56	190
57	999
58	390
59	272
60	18
61	33
62	4
63	6
65	6
66	24
67	245
68	209
69	627
70	163
71	690
72	43
73	60
74	9
75	81
76	6
77	327
78	16
79	31
80	36
81	263
82	445
83	627
84	119
85	409
86	35
87	20
88	4
89	69
90	4
91	11
92	5
93	26
94	30
95	272
96	336
97	481
98	84
99	127
100	14
101	7
102	3
103	6
104	3
105	13
106	4
107	13
108	18
109	163
110	163
111	231
112	71
113	68
114	9
115	16
116	3
117	5
118	2
119	5
120	3
121	25
122	20
123	92
124	96
125	99
126	30
127	44
128	9
129	10
130	3
131	4
132	3
133	4
134	2
135	25
136	17
137	60
138	60
139	43
140	26
141	38
142	9
143	4
144	2
145	4
147	4
148	4
149	13
150	10
151	33
152	43
153	30
154	25
155	29
156	6
157	5
158	2
159	3
160	3
161	2
162	2
163	8
164	6
165	25
166	34
167	21
168	20
169	24
170	8
171	7
172	3
173	5
174	3
175	2
176	1
177	5
178	3
179	26
180	26
181	19
182	11
183	17
184	5
185	12
186	6
187	8
189	6
190	5
191	5
192	5
193	26
194	21
195	24
196	11
197	11
198	6
199	5
200	2
201	5
202	5
203	3
204	3
205	4
206	4
207	14
208	14
209	14
210	11
211	9
212	13
213	5
214	2
215	2
216	2
217	2
218	2
219	5
220	3
221	7
222	17
223	11
224	18
225	6
226	3
227	3
228	2
229	2
232	2
233	4
234	2
235	4
236	3
237	4
238	3
239	4
240	2
241	5
242	4
243	15
244	5
245	4
246	4
247	5
248	14
249	11
250	90
251	36
252	45
253	21
254	11
257	5
258	2
259	4
260	2
261	8
262	4
263	10
264	7
265	9
266	13
267	59
268	12
269	10
270	2
271	2
272	1
273	1
275	2
276	2
277	3
278	3
279	19
280	10
281	327
282	67
283	16
284	10
285	19
286	5
287	3
288	2
289	1
290	2
291	2
292	2
293	2
294	3
295	3
296	3
297	3
300	2
301	1
302	1
306	3
307	4
308	25
309	15
310	106
311	60
312	15
313	9
314	1
315	2
316	1
317	2
320	2
321	2
322	3
323	3
324	4
325	14
326	10
327	41
328	11
329	120
330	33
331	7
332	1
333	1
334	1
337	1
338	1
339	10
340	4
341	17
342	6
343	4
344	1
349	1
350	1
351	1
352	3
353	2
354	2
355	2
356	2
357	1
363	1
364	1
365	2
366	1
367	2
368	3
369	2
370	1
371	1
372	1
379	1
381	2
383	1
384	1
385	1
390	1
395	2
396	6
397	3
398	1
399	1
411	2
412	1
421	1
422	1
423	1
424	1
425	3
426	1
437	1
438	2
439	2
440	1
441	1
442	1
443	1
450	1
451	1
452	2
453	2
454	1
455	1
456	1
465	1
467	1
470	1
479	2
480	2
481	2
482	1
483	1
493	3
494	1
495	1
496	1
507	1
508	2
509	1
510	1
520	1
521	2
522	1
523	1
535	2
536	1
537	1
549	3
550	3
551	2
552	1
553	1
563	3
564	1
576	7
577	15
578	295
579	136
580	34
581	7
