Mass Spectrum: 9-Octadecene, 1,1'-[1,2-ethanediylbis(oxy)]bis-, (Z,Z)-
Formula: C38H74O2
CAS: 17367-13-4
Molecular weight: 562
m/z	intensity
26	23
27	142
28	77
29	230
30	19
31	13
36	7
37	11
38	14
39	138
40	30
41	539
42	158
43	722
44	51
45	77
46	4
47	4
50	15
51	26
52	12
53	63
54	214
55	999
56	285
57	769
58	53
59	25
60	29
61	11
62	8
63	79
64	8
65	24
66	49
67	460
68	309
69	873
70	21
71	396
72	28
73	27
74	11
75	27
76	7
77	53
78	25
79	88
80	81
81	436
82	634
83	793
84	142
85	246
86	19
87	11
88	9
89	8
90	5
91	79
92	43
93	150
94	65
95	420
96	515
97	650
98	126
99	70
100	13
101	21
102	8
103	11
104	8
105	119
106	23
107	30
108	38
109	253
110	230
111	317
112	60
113	46
114	11
115	17
116	7
117	14
118	7
119	49
120	35
121	69
122	61
123	174
124	158
125	158
126	40
127	33
128	14
129	11
130	9
131	15
132	7
133	14
134	20
135	62
136	50
137	115
138	115
139	60
140	26
141	30
142	14
143	9
144	15
145	9
146	5
147	7
148	11
149	31
150	24
151	46
152	80
153	43
154	20
155	23
156	11
157	9
158	3
159	6
160	3
161	6
162	6
163	15
164	11
165	30
166	54
167	34
168	17
169	24
170	7
171	6
172	4
173	7
174	5
175	5
176	3
177	11
178	9
179	20
180	28
181	20
182	11
183	14
184	5
185	6
186	3
187	4
188	3
189	6
190	4
191	8
192	7
193	25
194	31
195	16
196	7
197	8
198	7
199	5
200	6
201	6
202	7
203	5
204	5
205	6
206	7
207	18
208	26
209	12
210	6
211	6
212	4
213	4
214	4
215	4
216	3
217	6
218	5
219	11
220	10
221	11
222	30
223	9
224	5
225	4
226	5
227	4
228	3
229	5
230	4
231	4
232	4
233	5
234	4
235	7
236	8
237	6
238	4
239	4
240	4
241	4
242	4
243	4
244	5
245	4
246	7
247	11
248	222
249	68
250	396
251	111
252	18
253	15
254	6
255	5
256	3
257	3
258	3
259	3
260	3
261	7
262	6
263	9
264	7
265	10
266	8
267	27
268	8
269	5
271	3
273	3
274	4
275	5
276	3
277	5
278	5
279	15
280	7
281	29
282	9
283	5
284	3
285	3
286	3
287	3
288	3
289	3
290	3
291	4
292	7
293	6
294	6
295	6
296	5
297	4
298	3
302	3
303	3
304	3
305	3
306	3
307	3
308	3
309	7
310	6
311	14
312	24
313	57
314	17
315	17
316	5
317	3
318	3
319	3
320	3
321	3
322	3
323	7
324	5
325	16
326	5
327	3
351	5
352	7
353	4
354	4
360	3
361	3
362	2
375	2
376	3
377	2
385	2
386	2
387	3
388	3
389	2
390	1
391	1
401	2
402	3
403	3
404	3
405	2
406	3
407	3
408	2
409	2
420	3
421	2
422	2
435	2
436	2
450	2
451	2
452	2
463	2
464	2
465	2
466	2
560	3
562	58
563	27
564	7
565	1
