Mass Spectrum: 6,9,12,15-Docosatetraenoic acid, methyl ester
Formula: C23H38O2
CAS: 17364-34-0
Molecular weight: 346
m/z	intensity
38	10
39	260
40	50
41	999
42	260
43	930
44	140
45	100
46	10
50	20
51	50
52	30
53	200
54	170
55	870
56	210
57	430
58	40
59	250
60	40
61	40
63	20
64	10
65	110
66	130
67	910
68	250
69	230
70	110
71	220
72	30
73	70
74	440
75	70
76	10
77	310
78	180
79	900
80	620
81	730
82	220
83	260
84	140
85	160
86	30
87	290
88	60
89	20
90	10
91	550
92	190
93	810
94	350
95	540
96	220
97	180
98	70
99	40
100	10
101	60
102	20
103	30
104	40
105	370
106	160
107	470
108	180
109	270
110	130
111	90
112	30
113	50
114	10
115	70
116	30
117	90
118	50
119	290
120	170
121	360
122	310
123	150
124	60
125	40
126	30
127	30
128	30
129	60
130	30
131	80
132	30
133	190
134	90
135	320
136	100
137	70
138	30
139	30
140	30
141	60
142	20
143	50
144	20
145	60
146	30
147	140
148	60
149	360
150	100
151	50
152	40
153	30
154	20
155	30
156	10
157	20
158	10
159	50
160	20
161	110
162	70
163	90
164	190
165	50
166	20
167	30
168	20
169	20
170	10
171	30
172	10
173	30
174	10
175	70
176	30
177	100
178	80
179	30
180	20
181	20
182	10
183	20
184	10
185	30
187	20
188	20
189	60
190	40
191	80
192	30
193	20
194	100
195	30
196	70
197	30
198	10
199	20
201	20
202	10
203	50
204	30
205	30
206	10
207	30
208	30
209	70
210	20
211	10
213	10
215	30
216	10
217	60
218	20
219	20
220	10
221	70
222	70
223	30
224	10
227	10
229	10
231	30
232	10
233	20
234	40
235	90
236	20
237	10
238	10
239	10
245	10
247	20
248	10
249	10
261	20
262	10
263	10
264	60
265	20
266	30
267	10
270	20
275	10
278	10
292	10
344	10
346	60
347	20
348	10
