Mass Spectrum: Ethanol, 2-(9,12-octadecadienyloxy)-, (Z,Z)-
Formula: C20H38O2
CAS: 17367-08-7
Molecular weight: 310
m/z	intensity
26	16
27	90
28	60
29	170
30	12
31	42
32	4
36	6
37	5
38	9
39	85
40	22
41	490
42	86
43	290
44	46
45	360
46	11
50	7
51	14
52	13
53	86
54	370
55	690
56	90
57	210
58	16
59	10
60	27
61	7
62	8
63	42
64	11
65	47
66	85
67	999
68	400
69	430
70	67
71	94
72	9
73	54
74	8
75	46
76	6
77	96
78	60
79	430
80	390
81	790
82	620
83	300
84	41
85	49
86	8
87	7
88	8
89	11
90	5
91	110
92	32
93	270
94	170
95	600
96	490
97	200
98	37
99	29
100	5
101	56
102	12
103	8
104	9
105	35
106	16
107	140
108	100
109	270
110	250
111	82
112	19
113	11
114	8
115	15
116	12
117	13
118	7
119	19
120	11
121	220
122	100
123	120
124	140
125	32
126	9
127	20
128	10
129	9
130	13
131	11
132	5
133	14
134	10
135	180
136	80
137	70
138	70
139	17
140	6
141	22
142	13
143	7
144	14
145	9
146	5
147	9
148	7
149	89
150	50
151	35
152	69
153	18
154	6
155	29
156	8
157	8
158	5
159	5
160	4
161	5
162	5
163	45
164	24
165	21
166	43
167	15
168	5
169	10
170	4
171	5
172	3
173	4
174	4
175	4
176	4
177	28
178	13
179	13
180	14
181	6
182	4
183	5
184	3
185	4
186	3
187	4
188	3
189	4
190	3
191	21
192	11
193	7
194	6
195	5
196	3
197	5
198	3
199	5
200	4
201	4
202	3
203	4
204	3
205	13
206	7
207	9
208	4
209	4
210	4
211	4
212	3
213	3
214	19
215	6
216	3
217	5
218	5
219	17
220	9
221	5
222	5
223	3
224	3
225	3
226	3
227	3
228	9
229	3
230	2
231	2
232	2
233	4
234	3
235	4
236	3
237	3
238	3
239	4
240	3
241	3
242	3
243	3
244	4
245	3
246	4
247	4
248	74
249	17
250	7
251	4
252	3
253	4
254	3
255	3
256	3
257	3
258	3
259	3
260	3
261	6
262	4
263	3
264	5
265	4
266	8
267	7
268	3
269	3
270	3
271	3
272	3
273	3
274	3
275	3
276	3
277	3
278	3
279	16
280	6
281	5
282	3
283	3
284	3
290	3
291	2
292	3
293	2
294	2
308	6
309	4
310	21
311	7
312	3
