Mass Spectrum: Pentanoic acid, 2-bromo-4-fluorophenyl ester
Formula: C11H12BrFO2
CAS: 1736-38-5
Molecular weight: 274
m/z	intensity
26	31
27	170
28	43
29	399
30	11
39	129
40	23
41	428
42	64
43	51
50	39
51	33
52	39
53	25
54	7
55	261
56	81
57	999
58	59
59	3
60	13
61	13
62	17
63	38
64	8
65	4
66	2
67	2
68	9
69	14
70	7
71	2
73	10
74	12
75	7
77	5
78	8
80	10
81	67
82	100
83	54
84	43
85	967
86	92
87	8
91	5
92	3
93	9
97	9
98	15
99	3
101	2
107	2
110	25
111	21
112	11
113	11
115	3
117	2
119	5
128	13
130	2
134	3
135	9
137	10
138	3
139	3
151	3
153	12
154	2
161	48
163	47
164	3
165	2
173	17
174	2
175	13
187	4
189	24
190	199
191	26
192	198
193	12
205	2
217	4
219	4
274	27
275	3
276	31
277	3
