Mass Spectrum: Ethanol, 2-(9-octadecenyloxy)-, (E)-
Formula: C20H40O2
CAS: 17367-07-6
Molecular weight: 312
m/z	intensity
26	4
27	39
28	26
29	116
30	4
31	28
32	3
33	2
38	2
39	44
40	10
41	390
42	71
43	335
44	23
45	308
46	11
47	2
50	2
51	3
52	3
53	43
54	294
55	746
56	136
57	287
58	15
59	5
60	19
61	8
62	3
63	71
64	3
65	13
66	54
67	568
68	383
69	575
70	113
71	126
72	7
73	11
74	2
75	54
76	3
77	17
78	6
79	56
80	54
81	582
82	999
83	582
84	64
85	67
86	6
87	6
88	10
89	6
90	2
91	13
92	3
93	24
94	33
95	568
96	787
97	410
98	48
99	19
100	3
101	92
102	6
103	2
104	2
105	4
106	3
107	13
108	18
109	349
110	356
111	164
112	25
113	12
114	3
115	20
116	3
117	4
118	2
119	3
120	6
121	15
122	17
123	212
124	232
125	67
126	13
127	7
128	2
129	6
130	6
131	3
132	2
133	4
134	2
135	10
136	11
137	130
138	136
139	31
140	7
141	7
142	2
143	8
144	18
145	4
146	2
147	2
148	2
149	6
150	4
151	49
152	67
153	19
154	7
155	5
156	2
157	22
158	4
159	5
160	1
161	1
162	1
163	2
164	2
165	25
166	39
167	13
168	12
169	10
170	2
171	6
172	2
173	2
174	1
175	1
176	1
177	2
178	2
179	17
180	26
181	10
182	6
183	4
184	1
185	4
186	2
187	1
188	1
189	2
190	1
191	2
192	2
193	22
194	30
195	8
196	2
197	2
199	3
200	1
201	2
202	2
203	2
204	2
205	2
206	2
207	14
208	21
209	5
210	2
211	2
212	1
213	4
214	2
215	2
216	1
217	2
218	2
219	5
220	2
221	10
222	31
223	6
224	3
225	2
227	2
228	2
229	1
231	2
232	1
233	1
234	1
235	3
236	2
237	2
238	2
239	2
240	2
241	3
242	1
243	1
244	1
245	1
246	1
247	1
248	2
249	4
250	226
251	58
252	8
253	2
255	4
256	3
257	1
258	1
259	1
260	1
261	2
262	1
263	6
264	2
265	1
266	2
267	6
268	2
269	6
270	2
271	1
273	1
275	1
276	1
278	1
279	1
280	2
281	15
282	4
283	3
284	3
285	1
286	1
293	1
294	1
295	1
297	1
298	1
303	1
304	1
309	1
310	1
311	1
312	41
313	10
314	2
315	1
