Mass Spectrum: Octadecane, 1-[2-(hexadecyloxy)ethoxy]-
Formula: C36H74O2
CAS: 17367-10-1
Molecular weight: 538
m/z	intensity
26	13
27	58
28	34
29	161
30	10
31	10
35	2
36	10
37	3
38	6
39	45
40	15
41	344
42	116
43	811
44	111
45	105
46	5
47	15
48	2
49	2
50	6
51	7
52	5
53	22
54	60
55	477
56	205
57	999
58	58
59	26
60	11
61	5
63	227
64	7
65	7
66	15
67	100
68	183
69	411
70	166
71	683
72	43
73	16
74	13
75	57
76	6
77	12
78	6
79	15
80	12
81	77
82	233
83	436
84	111
85	466
86	34
87	12
88	5
89	5
90	2
91	11
92	5
93	8
94	9
95	60
96	100
97	344
98	94
99	127
100	12
101	8
102	2
103	2
104	3
105	6
106	3
107	8
108	6
109	30
110	38
111	183
112	51
113	77
114	7
115	6
116	2
117	5
118	2
119	3
120	2
121	3
122	3
123	17
124	23
125	88
126	33
127	52
128	8
129	6
130	2
131	3
132	2
133	3
134	1
135	3
136	3
137	11
138	15
139	34
140	25
141	41
142	6
143	3
144	1
145	2
146	2
147	2
148	1
149	5
150	2
151	5
152	11
153	21
154	20
155	32
156	5
157	2
158	1
159	1
160	1
161	1
162	1
163	1
164	1
165	4
166	8
167	15
168	15
169	24
170	4
171	2
172	1
173	1
174	1
175	2
178	3
179	3
180	6
181	10
182	10
183	17
184	3
185	3
186	2
187	2
188	1
189	1
190	1
191	2
192	1
193	2
194	9
195	7
196	31
197	12
198	2
199	2
206	1
207	4
208	3
209	3
210	3
211	4
212	2
213	2
214	1
215	1
216	1
217	1
218	2
219	3
220	2
221	3
222	28
223	8
224	83
225	54
226	9
227	2
228	1
229	1
230	1
231	1
234	1
235	1
236	2
237	1
238	2
239	15
240	5
241	61
242	12
243	3
244	1
245	1
246	1
247	1
248	2
249	2
250	25
251	7
252	41
253	48
254	9
255	16
256	3
257	2
258	1
259	1
262	1
263	1
264	1
265	1
266	1
267	10
268	5
269	57
270	12
271	10
272	2
273	1
278	1
279	1
280	1
281	6
282	2
283	12
284	4
285	15
286	5
287	111
288	22
289	3
290	1
296	2
297	3
298	1
299	15
300	4
301	2
302	1
309	1
312	1
313	11
314	4
315	88
316	18
317	2
318	1
327	8
328	2
329	1
341	1
342	1
343	1
369	1
380	1
469	1
470	1
491	1
507	1
537	1
538	1
539	1
