Mass Spectrum: 1-Nonanamine, N,N-dimethyl-
Formula: C11H25N
CAS: 17373-27-2
Molecular weight: 171
m/z	intensity
26	2
27	16
29	20
30	11
31	0
34	0
39	6
41	30
42	34
43	20
44	1
45	11
46	6
51	2
52	1
53	3
54	2
55	13
56	7
57	13
58	999
59	32
60	0
61	0
65	0
67	2
68	0
69	3
70	4
71	7
72	3
73	0
75	2
77	0
78	0
79	0
81	0
82	2
83	1
84	19
85	1
86	0
91	0
95	0
96	0
97	0
98	1
100	1
105	0
110	0
111	1
114	1
126	0
128	1
129	0
134	0
156	1
168	0
169	2
170	4
171	20
172	2
