Mass Spectrum: 4,4,6-Trimethyltetrahydro-1,3-oxazine-2-thione
Formula: C7H13NOS
CAS: 17374-19-5
Molecular weight: 159
m/z	intensity
12	3
13	1
14	11
15	74
16	29
17	67
18	301
19	1
26	2
27	118
28	146
29	128
30	34
31	12
32	31
33	6
34	7
38	9
39	187
40	44
41	494
42	999
43	255
44	57
45	99
46	9
47	5
48	2
50	3
51	7
52	6
53	27
54	25
55	348
56	189
57	487
58	125
59	29
60	44
61	25
62	4
64	4
65	9
66	4
67	95
68	14
69	53
70	18
71	18
72	14
73	11
74	7
75	3
77	6
78	11
79	6
81	15
82	116
83	197
84	206
85	19
86	4
87	5
88	9
89	4
96	3
97	3
98	9
99	4
100	18
101	5
102	4
109	2
110	2
112	14
113	2
114	3
115	4
116	8
117	10
118	20
119	2
126	3
127	1
144	17
159	697
160	61
161	39
162	4
