Mass Spectrum: Benzene, (2-iodoethyl)-
Formula: C8H9I
CAS: 17376-04-4
Molecular weight: 232
m/z	intensity
26	13
27	157
28	7
29	3
36	0
37	13
38	37
39	165
40	13
41	19
42	1
43	8
44	3
49	12
50	170
51	394
52	92
53	33
54	3
55	4
56	1
57	8
61	13
62	38
63	98
64	21
65	96
66	8
67	1
69	3
70	1
71	4
73	10
74	58
75	45
76	54
77	648
78	224
79	634
80	41
81	3
83	2
85	3
86	4
87	5
89	33
90	10
91	245
92	21
97	1
98	5
99	1
101	6
102	46
103	391
104	165
105	999
106	320
107	15
115	1
116	7
127	61
128	15
129	1
141	8
142	2
155	3
232	105
233	9
