Mass Spectrum: 1-Tridecanamine, N,N-dimethyl-
Formula: C15H33N
CAS: 17373-29-4
Molecular weight: 227
m/z	intensity
26	0
27	7
29	19
30	6
31	0
39	4
40	0
41	27
42	19
43	31
44	14
45	14
46	8
47	0
53	1
54	1
55	20
56	7
57	17
58	999
59	35
60	0
65	0
67	1
68	0
69	6
70	4
71	6
72	3
73	0
77	0
79	0
81	0
82	0
83	1
84	15
85	2
86	0
93	0
95	0
96	0
97	0
98	1
99	0
100	1
110	0
111	0
112	0
113	0
114	2
126	0
128	1
140	0
142	0
156	0
170	0
184	0
198	0
212	1
225	0
226	4
227	11
228	1
