Mass Spectrum: Tetrahydro-1,3-oxazine-2-thione
Formula: C4H7NOS
CAS: 17374-18-4
Molecular weight: 117
m/z	intensity
15	13
26	36
27	109
28	32
29	452
30	59
31	52
33	14
34	12
39	53
40	20
41	113
42	59
43	14
44	21
45	26
46	12
54	17
55	18
56	137
57	52
58	16
59	158
60	89
61	56
72	65
73	17
74	13
89	152
99	23
102	12
117	999
118	64
119	55
