Mass Spectrum: 1-(m-Bromophenyl)-3-phenyl-2-thiourea
Formula: C13H11BrN2S
CAS: 17371-67-4
Molecular weight: 306
m/z	intensity
15	1
25	1
26	6
27	13
28	9
29	1
32	9
33	4
34	16
36	3
37	26
38	44
39	100
40	25
41	29
42	9
43	3
44	14
45	53
46	49
47	4
48	1
49	9
50	114
51	133
52	37
53	9
54	23
55	1
56	1
57	3
58	4
59	2
60	4
61	17
62	29
63	86
64	68
65	263
66	296
67	82
68	6
69	9
70	10
71	1
72	1
73	9
74	50
75	130
76	109
77	346
78	32
79	2
80	4
81	4
82	7
83	9
84	8
85	21
86	20
87	5
88	6
89	4
90	103
91	80
92	310
93	999
94	82
95	4
96	2
97	2
98	1
99	2
100	2
101	1
102	26
103	12
104	3
105	2
106	39
107	41
108	30
109	17
110	18
111	3
112	1
113	13
114	5
117	4
118	12
119	29
120	2
123	1
124	2
125	1
127	2
128	1
129	4
130	2
131	3
133	15
134	412
135	638
136	94
137	32
138	3
143	6
144	1
145	6
146	1
149	1
150	1
155	123
156	9
157	122
158	8
166	2
167	2
168	1
169	8
170	4
171	433
172	32
173	418
174	28
175	1
181	9
182	1
183	9
184	1
186	1
187	1
188	2
189	1
190	1
192	3
193	6
194	24
195	8
196	2
197	23
198	3
199	23
200	2
213	890
214	81
215	908
216	82
217	41
218	3
225	5
226	2
227	9
228	45
229	7
230	2
272	31
273	9
274	32
275	9
276	1
305	8
306	47
307	15
308	49
309	8
310	2
