Mass Spectrum: Cinnoline, 3-methyl-
Formula: C9H8N2
CAS: 17372-78-0
Molecular weight: 144
m/z	intensity
39	68
40	59
44	8
50	59
51	68
57	34
58	34
63	85
64	34
65	42
74	34
75	42
76	25
88	17
89	102
90	17
102	8
113	8
114	25
115	999
116	119
117	8
130	17
144	847
145	85
146	8
