Mass Spectrum: Glycine benzyl ester
Formula: C9H11NO2
CAS: 1738-68-7
Molecular weight: 165
m/z	intensity
41	68
42	32
43	64
44	27
45	103
46	54
47	43
48	7
49	24
50	86
51	207
52	57
53	20
54	4
55	21
56	13
57	30
58	4
59	6
60	16
61	19
62	37
63	110
64	41
65	344
66	20
67	6
68	3
69	10
70	5
71	9
72	4
73	11
74	22
75	15
76	19
77	216
78	92
79	54
80	4
81	5
82	5
83	8
84	4
85	8
86	7
87	8
88	3
89	105
90	44
91	999
92	108
93	5
94	3
95	6
96	3
97	6
98	3
99	4
100	2
101	3
102	1
103	6
104	7
105	69
106	37
107	36
108	11
109	3
110	2
111	3
112	2
113	2
114	0
115	5
116	1
117	2
118	3
119	3
120	5
121	6
122	2
123	2
124	20
125	3
126	1
127	1
128	1
129	4
130	0
131	1
132	1
133	1
134	0
135	2
136	1
137	1
138	1
139	2
140	1
141	1
142	0
143	1
144	0
145	1
146	0
147	1
148	3
149	4
150	2
151	2
152	2
153	1
154	0
155	1
156	0
157	1
158	0
159	0
160	0
161	0
162	1
163	1
164	3
165	134
166	59
167	13
168	2
169	0
