Mass Spectrum: 1,1'-Bicyclohexyl-2,2'-diol
Formula: C12H22O2
CAS: 17385-36-3
Molecular weight: 198
m/z	intensity
41	350
43	150
53	100
54	100
55	260
57	200
67	400
68	100
69	100
70	150
80	150
81	250
83	150
93	100
94	100
95	150
97	100
98	999
99	50
162	100
180	50
198	10
