Mass Spectrum: Methane, phenyl(2,2,3-trimethylcyclopentylidene)-
Formula: C15H20
CAS: 17386-71-9
Molecular weight: 200
m/z	intensity
41	291
42	13
43	68
44	16
50	9
51	96
52	9
53	66
55	104
57	9
62	63
64	18
65	135
66	9
67	57
68	76
70	9
71	11
74	7
75	11
76	22
77	154
78	55
79	65
81	37
82	11
83	9
89	35
90	13
91	999
92	68
93	42
95	39
96	37
101	13
102	31
103	37
104	11
105	137
107	65
108	9
109	130
110	13
115	302
116	74
117	55
118	20
127	89
128	332
129	472
130	76
131	736
132	70
139	11
141	111
142	74
143	507
144	198
145	35
152	22
153	26
154	7
155	42
156	18
157	187
158	78
159	13
165	9
168	7
169	7
170	5
171	18
183	9
185	723
186	79
200	345
201	35
