Mass Spectrum: 3,21-Bis(heptafluorobutyriloxy)-17.beta.-methyl-18-norpregna-3,5,10,13-tetraen-20-one
Formula: C29H24F14O5
CAS: 173932-13-3
Molecular weight: 718
m/z	intensity
50	9
51	19
53	77
55	281
57	29
65	58
66	9
67	71
69	999
70	9
71	19
76	9
77	158
78	38
79	397
80	32
81	119
82	19
83	71
84	9
85	51
89	38
90	22
91	585
92	61
93	148
94	9
95	61
96	38
97	51
98	9
99	22
100	109
101	9
102	22
103	116
104	48
105	145
106	19
107	501
108	48
109	61
110	9
111	9
115	223
116	109
117	284
118	145
119	439
120	38
121	38
125	9
127	51
128	184
129	284
130	103
131	853
132	109
133	74
134	9
135	158
136	51
139	12
141	187
142	129
143	329
144	265
145	575
146	74
147	12
150	22
151	12
152	80
153	103
154	51
155	142
156	54
158	161
159	42
160	12
165	200
166	84
167	129
168	61
169	746
170	51
171	139
172	32
173	80
174	12
177	12
178	129
179	171
180	61
181	129
182	42
183	80
184	42
185	51
186	71
187	22
190	35
191	119
192	80
193	148
194	54
195	103
196	42
197	93
199	12
202	35
203	54
204	35
205	84
206	51
207	177
208	71
209	103
210	35
211	16
215	25
216	12
217	45
218	35
219	67
220	35
221	106
222	42
223	54
224	16
225	16
227	16
229	16
231	45
232	45
233	87
234	45
235	45
236	16
237	16
245	16
247	74
248	45
249	219
250	54
251	84
252	16
262	6
263	29
264	16
265	71
266	58
268	6
273	9
275	29
277	19
279	74
290	42
291	32
292	6
293	211
294	23
304	13
307	23
317	65
318	13
331	23
332	135
333	23
355	8
367	23
369	42
393	6
405	243
406	46
407	36
419	16
420	36
421	16
433	26
435	105
436	16
443	6
445	46
446	16
447	187
448	65
449	6
459	16
461	316
462	108
463	853
464	267
465	36
471	59
472	16
487	9
489	204
490	49
491	26
504	112
505	26
521	6
549	29
685	68
699	68
700	78
701	29
703	29
718	87
