Mass Spectrum: 5,8-Methano-3H-2-benzopyran-1-carboxylic acid, 4,4a,5,6,7,8-hexahydro-3-oxo-4-phenyl-, methyl ester, (4.alpha.,4a.alpha.,5.beta.,8.beta.)-
Formula: C18H18O4
CAS: 173974-06-6
Molecular weight: 298
m/z	intensity
39	93
40	17
41	131
42	6
43	23
44	34
45	31
48	33
50	24
51	56
52	12
53	60
55	93
59	102
63	30
64	58
65	251
66	110
67	262
68	23
69	424
71	14
75	5
76	17
77	197
78	54
79	165
80	26
81	90
82	14
83	7
87	17
89	68
90	207
91	450
92	49
93	117
94	15
95	37
97	33
102	25
103	65
104	59
105	111
106	11
107	35
109	22
115	212
116	40
117	119
118	999
119	101
120	9
121	136
122	11
125	73
126	11
127	45
128	118
129	210
130	96
131	76
132	9
133	22
135	5
139	25
141	194
142	49
143	44
144	14
145	13
147	7
149	16
150	85
151	16
152	31
153	55
154	28
155	101
156	17
157	53
158	7
159	7
161	6
162	11
163	11
165	39
166	19
167	29
168	11
169	35
170	47
171	97
172	17
173	16
178	7
179	6
181	39
182	29
183	319
184	50
185	13
186	16
189	8
193	9
195	11
197	7
198	23
199	175
200	44
201	6
209	5
210	64
211	145
212	23
214	35
215	10
221	12
227	67
228	13
229	32
230	43
231	10
238	13
239	18
242	12
243	234
244	42
252	7
253	14
257	34
258	23
270	49
271	102
272	17
283	6
284	1
298	104
299	19
