Mass Spectrum: Borane, chloro(dimethylamino)ethyl-
Formula: C4H11BClN
CAS: 1739-26-0
Molecular weight: 119
m/z	intensity
10	7
11	27
12	9
13	26
14	27
15	170
16	3
18	5
24	2
25	14
26	83
27	307
28	132
29	132
30	31
31	3
35	6
36	21
37	45
38	29
39	113
40	92
41	270
42	160
43	190
44	79
45	8
46	40
47	151
48	15
49	66
50	12
51	19
52	9
53	24
54	54
55	62
56	408
57	37
58	4
59	12
60	59
61	148
62	34
63	65
64	9
65	9
66	7
67	4
68	11
69	2
70	9
71	22
72	33
73	49
74	76
75	53
76	50
77	14
78	10
79	2
80	5
81	8
82	33
83	47
84	97
85	6
86	2
87	5
88	15
89	243
90	999
91	139
92	330
93	21
94	4
99	2
100	5
101	3
102	4
103	19
104	72
105	10
106	29
107	2
108	3
110	2
113	2
114	2
115	3
116	12
117	17
118	119
119	230
120	49
121	72
122	4
