Mass Spectrum: Cyclohexanone, 3-ethenyl-
Formula: C8H12O
CAS: 1740-63-2
Molecular weight: 124
m/z	intensity
26	43
27	391
28	122
29	114
30	12
31	5
37	6
38	27
39	495
40	105
41	467
42	235
43	46
44	11
50	31
51	67
52	54
53	374
54	536
55	453
56	27
57	17
62	6
63	14
64	2
65	48
66	57
67	751
68	317
69	85
70	52
71	45
77	32
78	15
79	119
80	60
81	999
82	173
83	66
84	13
85	2
86	3
89	3
91	31
92	4
93	22
94	13
95	137
96	374
97	42
98	8
106	17
107	5
108	4
109	86
110	12
111	3
123	25
124	983
125	91
126	9
