Mass Spectrum: Cyclohexanone, 4-ethenyl-
Formula: C8H12O
CAS: 1740-64-3
Molecular weight: 124
m/z	intensity
29	47
39	358
40	96
41	362
42	181
51	48
52	43
53	343
54	611
55	999
56	58
65	81
66	79
67	794
68	474
69	195
77	51
79	137
80	66
81	828
82	200
83	180
91	33
93	21
95	185
96	460
97	39
106	26
109	106
119	29
123	17
124	724
125	69
