Mass Spectrum: 1-Butene, 1-(methylthio)-, (E)-
Formula: C5H10S
CAS: 17414-27-6
Molecular weight: 102
m/z	intensity
26	24
27	192
29	72
30	1
33	0
34	2
35	11
37	9
38	28
39	201
40	14
41	122
42	1
44	5
45	708
46	65
47	191
48	30
49	26
50	40
51	37
52	9
53	240
54	314
55	417
56	47
57	20
58	61
59	119
60	15
61	80
62	4
63	3
65	3
67	11
68	2
69	25
71	66
72	49
73	11
74	11
75	3
81	3
82	2
83	2
84	7
85	88
86	28
87	999
88	54
89	42
101	30
102	859
103	59
104	41
