Mass Spectrum: Dicarbine
Formula: C13H18N2
CAS: 17411-19-7
Molecular weight: 202
m/z	intensity
40	173
42	238
43	477
44	83
45	1
50	7
51	14
52	7
53	6
54	4
55	10
56	25
58	999
59	17
63	9
64	5
65	12
71	309
72	9
75	1
77	44
78	12
79	1
82	5
83	2
89	6
91	20
92	1
94	1
96	1
101	13
102	6
103	12
105	8
107	3
115	19
116	8
117	7
127	2
128	10
129	16
130	90
131	62
132	21
133	38
134	1
142	11
143	36
144	47
145	6
146	1
156	10
157	25
158	46
159	9
171	7
187	2
202	256
203	32
