Mass Spectrum: 10-Methylenetricyclo[4.2.1.1(2,5)]decan-9-one
Formula: C11H14O
CAS: 174226-43-8
Molecular weight: 162
m/z	intensity
26	15
27	192
28	33
29	46
37	2
38	3
39	18
41	228
42	47
43	187
44	14
45	23
46	2
50	37
51	117
52	78
53	129
54	33
55	207
56	17
57	13
58	12
59	3
61	3
62	10
63	41
64	22
65	138
66	64
67	93
68	23
69	14
70	20
71	11
74	7
75	9
76	9
77	328
78	188
79	538
80	608
81	700
82	999
83	519
84	65
85	6
86	1
87	2
89	13
90	6
91	728
92	327
93	318
94	71
95	29
96	16
97	5
102	7
103	47
104	38
105	404
106	268
107	150
108	26
109	4
115	28
116	18
117	67
118	61
119	447
120	89
121	33
122	3
127	4
128	11
129	78
130	11
131	53
132	12
133	143
134	67
135	10
141	3
143	12
144	21
145	20
146	4
147	197
148	19
162	680
163	96
164	8
