Mass Spectrum: 3-Amino-2,5-dihydro-2-methyl-6-(2-(5-nitro-2-furyl)vinyl)-5-oxo-1,2,4-triazine
Formula: C10H9N5O4
CAS: 17427-28-0
Molecular weight: 263
m/z	intensity
12	2
13	2
14	6
15	52
16	4
17	30
18	3
24	1
25	7
26	64
27	256
28	681
29	19
30	371
31	10
32	3
37	9
38	27
39	54
40	13
41	24
42	50
43	352
44	75
45	5
46	2
47	1
48	1
49	4
50	49
51	46
52	46
53	32
54	15
55	37
56	89
57	460
58	17
59	1
60	1
61	4
62	17
63	86
64	53
65	23
66	9
67	6
68	13
69	77
70	26
71	52
72	5
73	8
74	12
75	17
76	62
77	24
78	20
79	20
80	60
81	6
82	37
83	120
84	6
85	1
86	1
87	2
88	8
89	10
90	131
91	29
92	19
93	8
94	5
95	7
96	7
97	2
98	385
99	999
100	67
101	6
102	4
103	8
104	33
105	17
106	16
107	8
108	2
109	7
110	1
111	1
112	1
115	3
116	4
117	12
118	24
119	39
120	12
121	7
122	4
123	2
125	1
126	2
127	1
128	1
129	1
130	2
131	3
132	28
133	12
134	27
135	8
136	2
137	1
142	3
143	9
144	4
145	4
146	20
147	46
148	65
149	12
150	7
151	60
152	6
153	2
154	1
157	1
158	2
159	3
160	3
161	9
162	4
163	7
164	13
165	29
166	6
167	1
170	8
171	3
172	1
173	5
174	9
175	21
176	4
177	3
178	4
179	13
180	2
185	2
186	4
187	4
188	9
189	41
190	6
191	2
192	6
193	66
194	9
195	1
198	5
199	1
200	1
201	9
202	7
203	2
204	8
205	2
213	8
214	2
215	3
216	15
217	944
218	122
219	10
220	12
221	16
222	2
229	1
230	4
231	12
232	4
233	4
234	2
235	5
243	1
246	3
247	4
248	1
263	427
264	73
265	8
266	1
