Mass Spectrum: 2-Cyclohexen-1-one, 4-ethyl-4-methyl-
Formula: C9H14O
CAS: 17429-32-2
Molecular weight: 138
m/z	intensity
40	130
41	760
42	70
43	70
45	10
50	80
51	180
52	120
53	410
54	90
55	250
56	20
62	10
63	50
64	10
65	110
66	70
67	330
68	150
69	50
77	90
78	30
79	190
80	80
81	999
82	110
83	20
91	20
93	10
94	10
95	520
96	620
97	60
108	10
109	280
110	460
111	30
123	40
138	230
139	80
