Mass Spectrum: 1,3-Benzenediamine, N,N'-bis(sulfinyl)-
Formula: C6H4N2O2S2
CAS: 17420-01-8
Molecular weight: 200
m/z	intensity
37	250
38	340
39	470
45	220
48	999
50	260
51	260
52	260
64	260
65	150
75	150
76	290
77	520
78	200
90	60
91	160
92	140
96	80
97	260
98	180
104	200
110	60
123	80
124	550
125	80
126	80
138	210
152	320
167	30
172	30
200	200
