Mass Spectrum: Sorbic acid, 3-chloro-5-hydroxy-, d-lactone
Formula: C6H5ClO2
CAS: 17422-72-9
Molecular weight: 144
m/z	intensity
43	999
47	88
49	44
50	93
51	55
53	183
59	22
61	124
62	87
65	195
73	565
75	157
81	63
84	25
86	49
88	198
90	55
116	711
118	213
129	301
131	136
144	315
146	107
