Mass Spectrum: Hydrazine, phenylsulfinyl-
Formula: C6H6N2OS
CAS: 17420-03-0
Molecular weight: 154
m/z	intensity
38	60
39	120
48	100
49	90
50	220
51	470
52	100
63	50
65	80
74	80
76	60
77	999
78	160
105	160
154	50
