Mass Spectrum: 2-Pentanone, 5-methoxy-
Formula: C6H12O2
CAS: 17429-04-8
Molecular weight: 116
m/z	intensity
41	218
42	185
43	999
44	27
45	710
46	27
47	8
53	19
55	51
56	8
57	27
58	540
59	801
60	46
61	11
67	11
69	121
70	8
71	54
72	24
73	27
74	8
75	27
83	24
84	30
85	110
86	27
87	19
99	13
101	24
115	13
116	22
117	3
