Mass Spectrum: 2,5-Dihydro-2-methyl-3-methylthio-6-(2-(5-nitro-2-furyl)vinyl)-5-oxo-1,2,4-triazine
Formula: C11H10N4O4S
CAS: 17427-32-6
Molecular weight: 294
m/z	intensity
15	17
17	4
26	6
27	27
28	39
29	4
30	14
32	1
34	1
37	2
38	7
39	12
40	3
41	4
42	7
43	52
44	20
45	12
46	8
47	15
48	9
49	2
50	15
51	12
52	11
53	8
54	6
55	8
56	32
57	16
58	6
59	1
60	1
61	5
62	5
63	21
64	13
65	5
66	2
67	1
68	2
69	3
70	1
71	1
72	5
73	9
74	7
75	8
76	16
77	7
78	5
79	5
80	19
81	1
82	3
83	999
84	46
85	5
86	9
87	2
88	13
89	3
90	33
91	6
92	4
93	1
94	1
95	1
96	2
97	10
101	1
102	2
103	2
104	9
105	6
106	4
107	1
109	1
110	3
115	1
117	3
118	5
119	8
120	2
121	1
124	1
129	1
130	31
131	4
132	7
133	2
134	8
135	1
145	1
146	3
147	7
148	14
149	2
150	1
153	1
154	1
159	1
160	1
162	1
164	4
165	5
166	1
173	1
175	2
179	1
182	37
183	3
184	2
190	1
192	2
193	6
204	1
205	1
215	2
218	3
219	2
220	19
221	3
222	1
232	3
233	1
234	2
247	6
248	534
249	75
250	30
251	4
262	8
263	1
264	2
276	3
278	1
293	1
294	80
295	13
296	5
