Mass Spectrum: 3-Hexanone, 6-methoxy-2-methyl-
Formula: C8H16O2
CAS: 17429-05-9
Molecular weight: 144
m/z	intensity
41	532
42	152
43	603
44	33
45	562
46	16
53	23
55	76
56	33
57	33
58	67
59	644
60	25
67	16
68	20
69	999
70	64
71	474
72	30
73	42
85	16
86	186
87	25
97	33
101	771
102	42
112	186
113	33
144	37
