Mass Spectrum: 2H-Benzocyclohepten-2-one, 1,4a,5,6,7,8,9,9a-octahydro-4a-methyl-, trans-
Formula: C12H18O
CAS: 17429-26-4
Molecular weight: 178
m/z	intensity
40	140
41	999
42	110
43	90
50	50
51	180
52	120
53	390
54	110
55	380
56	40
57	30
62	10
63	50
64	20
65	180
66	80
67	570
68	200
69	580
70	40
77	250
78	70
79	410
80	190
81	300
82	210
83	40
91	160
92	30
93	240
94	190
95	440
96	80
97	20
103	20
105	30
106	10
107	190
108	170
109	100
110	40
119	10
121	190
122	70
123	60
124	50
135	130
136	410
137	50
150	40
163	20
178	100
179	10
180	10
