Mass Spectrum: 2-Cyclohexen-1-one, 4,4,5-trimethyl-
Formula: C9H14O
CAS: 17429-29-7
Molecular weight: 138
m/z	intensity
41	291
42	42
43	63
50	22
51	55
52	33
53	153
54	44
55	112
56	18
63	13
65	33
66	22
67	225
68	195
69	394
70	44
71	20
77	44
78	15
79	46
80	18
81	414
82	90
83	33
91	26
93	24
95	284
96	999
97	77
109	24
110	42
123	72
138	221
139	24
