Mass Spectrum: Cyclohexanone, 4-hydroxy-4-methyl-
Formula: C7H12O2
CAS: 17429-02-6
Molecular weight: 128
m/z	intensity
41	330
42	70
43	456
44	131
45	43
50	27
51	27
52	24
53	102
54	54
55	375
56	67
57	300
58	319
59	67
60	110
61	8
63	16
65	27
66	24
67	249
68	217
69	346
70	330
71	999
72	99
73	142
74	16
77	19
79	27
81	32
82	86
83	121
84	13
85	408
86	32
95	123
96	19
99	72
100	24
107	16
108	19
109	27
110	265
111	46
112	13
113	255
114	27
128	536
129	54
