Mass Spectrum: Cyclohexanone, 4-hydroxy-3,3,5,5-tetramethyl-
Formula: C10H18O2
CAS: 17429-06-0
Molecular weight: 170
m/z	intensity
41	660
42	160
43	600
44	70
45	80
51	40
52	20
53	120
54	50
55	220
56	200
57	500
58	180
59	80
67	80
68	50
69	300
70	100
71	340
72	999
73	70
77	20
79	20
81	60
82	60
83	260
84	30
85	320
86	40
87	20
95	60
96	30
97	30
98	100
99	180
100	40
109	80
113	60
124	20
127	120
128	20
137	30
141	60
142	60
155	330
156	80
170	140
