Mass Spectrum: 1(2H)-Naphthalenone, 2-furfurylidene-3,4,4a,5,6,7,8,8a.beta.-octahydro-
Formula: C15H18O2
CAS: 17429-47-9
Molecular weight: 230
m/z	intensity
40	60
41	380
42	50
43	90
44	80
45	20
50	60
51	200
52	130
53	200
54	50
55	190
56	20
57	20
62	20
63	80
64	50
65	140
66	50
67	130
68	40
69	30
74	20
75	10
76	20
77	230
78	240
79	280
80	50
81	280
82	30
83	20
87	20
89	30
90	20
91	250
92	80
93	70
94	80
95	140
96	20
97	20
101	20
102	20
103	30
104	20
105	80
106	130
107	999
108	160
109	30
110	20
115	70
116	30
117	50
118	30
119	50
120	30
121	170
122	30
127	20
128	40
129	40
130	20
131	50
132	20
133	60
134	40
135	40
136	20
141	30
142	20
143	20
144	20
145	60
146	30
147	30
148	30
149	30
157	30
158	20
159	50
160	20
161	20
162	20
171	30
172	20
173	40
174	40
175	30
176	20
183	30
185	30
187	60
188	30
199	30
200	40
201	60
202	170
203	40
226	30
228	60
229	30
230	340
231	70
