Mass Spectrum: Galactopyranose, 2-acetamido-2-deoxy-3-O-methyl-, 1,4,6-triacetate, .alpha.-D-
Formula: C15H23NO9
CAS: 17429-94-6
Molecular weight: 361
m/z	intensity
40	1
41	18
42	30
43	999
44	35
45	33
46	3
52	7
53	5
54	18
55	16
56	15
57	60
58	50
59	28
60	12
67	4
68	15
69	5
70	22
71	24
72	69
73	139
74	11
75	11
80	15
81	12
82	11
83	13
84	65
85	43
86	26
87	37
88	5
89	2
95	2
96	88
97	22
98	43
99	26
100	24
101	60
102	39
103	15
108	28
109	13
110	171
111	71
112	22
113	10
114	187
115	9
116	9
117	12
121	2
122	8
123	2
124	6
125	5
126	52
127	16
128	28
129	9
130	2
131	2
132	2
138	41
139	63
140	31
141	11
142	11
143	13
144	20
145	6
150	37
151	7
152	24
153	3
154	4
155	2
156	93
157	13
158	15
159	5
160	1
166	2
167	3
168	5
169	9
170	16
171	9
172	3
173	2
174	2
180	3
181	56
182	15
183	4
184	4
185	1
186	9
198	24
199	39
200	7
201	2
210	18
211	2
212	12
213	3
214	1
216	6
217	5
241	105
242	18
243	2
247	8
258	3
259	5
276	8
287	24
290	7
301	13
302	4
318	24
329	5
360	4
361	3
