Mass Spectrum: Galactopyranose, 2-acetamido-2-deoxy-6-O-methyl-, 1,3,4-triacetate, .alpha.-D-
Formula: C15H23NO9
CAS: 17429-95-7
Molecular weight: 361
m/z	intensity
40	2
41	20
42	26
43	999
44	31
45	209
52	1
53	9
54	4
55	14
56	13
57	13
58	24
59	84
60	59
61	7
67	6
68	22
69	20
70	25
71	31
72	103
73	11
74	6
75	7
80	34
81	19
82	13
83	11
84	75
85	37
86	13
87	32
88	19
89	1
94	4
95	3
96	118
97	32
98	27
99	22
100	22
101	59
102	25
103	4
108	15
109	8
110	10
111	18
112	56
113	19
114	312
115	22
116	3
121	1
122	18
123	2
124	7
125	6
126	46
127	5
128	9
129	35
130	13
131	1
138	34
139	100
140	39
141	11
142	13
143	7
144	8
145	1
150	6
151	0
152	2
153	30
154	39
155	9
156	10
157	14
158	13
159	4
160	3
166	2
167	3
168	7
169	2
170	40
171	50
172	9
173	1
174	6
181	4
182	37
183	4
184	5
185	1
198	46
199	6
200	20
201	2
212	14
213	81
214	14
216	15
241	3
242	4
243	0
244	1
256	10
258	13
259	15
273	0
274	1
276	0
288	0
290	0
301	15
302	20
303	5
318	11
319	3
