Mass Spectrum: Diphenyl 1-benzyloxycarbonylamino-3-methylthio-propylphosphonate
Formula: C24H26NO5PS
CAS: 174298-10-3
Molecular weight: 471
m/z	intensity
41	20
42	6
43	9
44	16
45	13
46	0
47	34
48	8
49	20
50	13
51	42
52	7
53	2
54	10
55	2
56	93
57	9
58	3
59	5
61	122
62	8
63	21
65	106
66	13
67	0
68	1
69	3
70	2
71	1
73	1
74	17
75	37
77	109
78	17
79	12
80	0
82	8
83	6
84	13
85	7
86	13
87	8
88	12
89	18
91	999
92	71
94	114
95	40
96	4
100	10
102	74
103	9
104	35
105	8
106	7
107	8
108	1
112	2
114	0
115	3
117	1
119	3
120	6
121	1
122	14
123	0
128	4
129	5
130	3
131	4
132	13
133	2
137	2
139	12
140	27
141	27
142	3
146	147
147	10
148	8
149	1
150	3
151	1
152	6
153	5
154	3
155	0
163	10
164	1
165	4
166	0
167	4
168	4
169	3
170	0
176	18
177	0
178	3
181	2
183	2
184	9
185	0
190	5
192	1
194	18
195	3
196	2
197	4
199	1
213	3
215	5
217	16
218	0
222	4
226	4
233	3
235	22
236	3
238	5
240	10
241	2
245	70
246	9
247	0
262	31
263	4
270	3
271	4
288	37
289	5
304	7
316	1
319	4
330	3
332	1
336	16
337	6
349	2
366	2
378	107
379	20
380	8
397	9
398	1
410	5
471	15
472	4
473	0
