Mass Spectrum: 9,10-Dimethyltricyclo[4.2.1.1(2,5)]decane-9,10-diol
Formula: C12H20O2
CAS: 174226-40-5
Molecular weight: 196
m/z	intensity
26	5
27	131
28	24
29	80
30	2
31	28
37	1
38	5
39	155
40	29
41	281
42	25
43	999
44	32
45	69
46	2
50	7
51	37
52	22
53	122
54	44
55	145
56	14
57	23
58	37
59	8
60	1
61	6
62	2
63	11
64	6
65	59
66	30
67	130
68	48
69	157
70	19
71	489
72	31
73	3
74	2
75	4
76	4
77	111
78	32
79	197
80	80
81	200
82	66
83	69
84	88
85	39
86	8
87	4
88	20
89	5
90	3
91	133
92	48
93	218
94	65
95	110
96	16
97	133
98	27
99	5
100	1
101	1
102	2
103	11
104	6
105	79
106	31
107	150
108	88
109	86
110	51
111	105
112	11
113	2
114	1
115	11
116	5
117	21
118	19
119	52
120	79
121	69
122	34
123	42
124	112
125	19
126	6
127	2
128	4
129	5
130	4
131	22
132	9
133	28
134	19
135	405
136	83
137	207
138	24
139	5
140	1
141	3
142	1
143	1
144	1
145	54
146	7
147	8
148	2
149	28
150	57
151	12
152	26
153	46
154	6
155	5
159	3
160	8
161	5
162	2
163	184
164	24
165	2
167	1
168	4
169	1
177	5
178	89
179	12
180	1
181	15
182	2
196	3
197	0
