Mass Spectrum: 2-(2-Hydroxyethylamino)pyrimidine
Formula: C6H9N3O
CAS: 1742-25-2
Molecular weight: 139
m/z	intensity
41	16
42	104
43	39
44	7
45	8
51	14
52	72
53	153
54	59
55	49
56	8
57	1
59	1
60	3
65	2
66	29
67	27
68	56
69	10
70	1
77	3
79	206
80	69
81	181
82	9
85	1
93	2
94	7
95	89
96	70
97	4
106	6
108	999
109	274
110	14
111	1
120	1
121	7
122	10
123	0
138	5
139	156
140	16
141	4
