Mass Spectrum: 1H-Inden-1-one, octahydro-7a-methyl-, trans-
Formula: C10H16O
CAS: 17428-83-0
Molecular weight: 152
m/z	intensity
41	633
42	138
43	59
45	9
46	9
47	9
50	29
51	89
52	49
53	247
54	198
55	376
56	39
57	9
62	9
63	19
65	59
66	49
67	495
68	386
69	79
70	9
77	79
78	19
79	138
80	49
81	999
82	178
83	29
84	9
91	49
92	39
93	128
94	29
95	306
96	564
97	188
98	9
105	19
106	19
107	9
108	267
109	138
110	168
111	9
119	69
120	9
123	29
124	39
134	138
135	19
137	59
151	49
152	346
153	59
