Mass Spectrum: 1(2H)-Naphthalenone, octahydro-8a.beta.-methyl-2-(p-methylbenzylidene)-
Formula: C19H24O
CAS: 17429-46-8
Molecular weight: 268
m/z	intensity
40	90
41	600
42	180
43	360
44	480
45	120
48	80
50	70
51	240
52	90
53	400
54	120
55	600
56	80
57	60
62	40
63	140
64	90
65	250
66	60
67	630
68	110
69	100
70	30
71	50
74	30
75	40
76	50
77	350
78	130
79	270
80	50
81	270
82	50
83	60
84	50
85	50
87	30
88	10
89	100
90	40
91	480
92	100
93	180
94	70
95	130
96	30
97	30
98	50
99	50
101	20
102	70
103	90
104	40
105	750
106	90
107	100
108	110
109	999
110	100
111	20
112	10
113	40
114	20
115	780
116	250
117	100
118	40
119	110
120	30
121	80
122	80
123	10
124	10
125	10
126	10
127	160
128	460
129	670
130	460
131	670
132	120
133	70
134	90
135	220
136	30
137	10
139	20
141	120
142	90
143	220
144	110
145	999
146	150
147	40
148	30
149	20
150	10
151	10
152	50
153	30
154	20
155	80
156	50
157	100
158	50
159	170
160	40
161	20
162	10
163	180
164	20
165	50
166	20
167	30
168	30
169	60
170	20
171	60
172	30
173	10
178	40
179	20
180	10
181	40
182	20
183	100
184	40
185	40
186	50
187	10
197	230
198	120
199	130
200	20
211	50
212	30
213	120
214	20
223	20
224	10
225	420
226	110
227	20
238	20
239	20
240	840
241	170
242	10
253	140
254	30
266	20
267	50
268	250
269	40
