Mass Spectrum: Indan-1,3-dione, 2-hydroxy-2-(2-pyridylamino)-
Formula: C14H10N2O3
CAS: 17438-19-6
Molecular weight: 254
m/z	intensity
33	11
34	3
37	419
38	245
39	343
40	60
41	288
42	44
43	36
44	14
45	2
47	33
50	911
51	146
52	121
53	57
54	24
55	6
56	5
57	4
58	0
60	18
61	49
62	31
63	21
64	29
65	48
67	776
68	32
69	2
70	2
71	2
73	73
74	206
76	999
77	102
78	28
79	7
80	2
81	0
82	0
83	1
84	6
85	9
86	8
87	4
88	2
89	1
90	2
91	2
94	606
95	31
97	2
98	0
99	0
100	0
101	2
104	726
105	62
106	5
107	0
108	0
109	0
110	0
111	0
112	0
113	0
114	0
115	0
116	0
117	0
118	0
119	0
121	10
122	0
123	0
125	0
126	0
127	0
128	0
132	191
133	15
134	2
135	0
139	0
143	0
146	0
147	0
148	0
149	0
152	0
154	2
155	0
156	0
157	0
159	0
160	49
161	4
162	3
163	0
168	0
169	0
171	2
172	0
179	0
180	1
181	1
182	0
193	4
194	0
197	2
198	0
209	0
210	1
211	0
225	0
226	0
236	0
237	0
238	2
239	0
254	3
255	0
