Mass Spectrum: (Triphenyl-phosphanylidene)urea
Formula: C19H17N2OP
CAS: 17437-49-9
Molecular weight: 320
m/z	intensity
38	9
39	77
40	14
41	17
42	16
43	68
44	247
45	11
46	115
47	55
50	111
51	672
52	62
53	9
54	3
55	8
56	16
57	53
58	3
60	5
62	8
63	47
64	19
65	61
66	11
67	3
68	7
69	32
70	8
71	12
72	5
73	40
74	33
75	39
76	56
77	999
78	236
79	24
80	14
81	41
82	15
83	25
87	10
88	5
89	25
90	6
91	31
92	16
93	18
94	58
95	66
96	14
97	3
98	10
99	13
100	8
101	11
102	30
103	10
104	15
105	233
106	23
107	279
108	172
109	31
110	3
113	9
114	7
115	92
116	15
117	4
119	20
120	12
121	15
122	180
123	28
124	28
125	16
126	24
127	25
128	50
129	36
130	57
132	4
133	51
134	6
139	39
140	9
141	23
142	4
144	8
145	7
146	4
147	3
149	8
150	379
151	71
152	236
153	106
154	253
155	41
156	4
157	65
158	15
159	6
160	7
165	6
166	4
167	13
168	5
169	6
170	42
171	19
172	5
173	7
181	15
182	6
183	513
184	92
185	75
186	9
197	5
198	37
199	42
200	10
201	32
202	18
226	17
227	11
228	6
276	10
277	38
278	9
304	188
305	34
319	44
320	22
