Mass Spectrum: Cyclobutane, 1,2-dichloro-
Formula: C4H6Cl2
CAS: 17437-39-7
Molecular weight: 124
m/z	intensity
39	35
41	30
53	110
62	999
63	175
64	345
65	60
75	80
77	30
88	70
89	350
90	25
91	115
96	40
98	25
100	10
124	31
126	20
128	3
