Mass Spectrum: 1,3,5-Dithiazin-4(5H)-one, 2,6-dihydro-6-trifluoromethyl-6-phenyl-2-spirocyclopentane-
Formula: C14H14F3NOS2
CAS: 174361-22-9
Molecular weight: 333
m/z	intensity
48	3
49	4
50	28
51	69
52	10
53	12
54	6
55	15
56	6
57	16
58	70
59	22
60	19
62	10
63	17
64	8
65	51
66	80
67	404
68	32
69	63
70	0
71	227
72	39
73	19
74	14
75	20
76	27
77	229
78	19
79	9
80	4
81	14
82	13
83	9
84	1
85	114
86	12
87	12
88	5
89	6
90	1
91	5
92	4
93	19
94	10
95	24
96	11
97	25
98	7
99	88
100	999
101	209
102	63
103	28
104	190
105	29
106	4
107	9
108	5
109	8
110	5
111	10
112	3
113	11
114	1
115	2
116	0
117	5
118	1
119	9
121	583
122	53
123	31
124	5
125	6
126	6
127	23
128	3
129	1
130	3
131	4
132	26
133	44
134	7
135	7
136	3
137	6
138	5
139	14
140	3
141	1
143	1
145	4
146	0
147	0
149	7
150	19
151	3
152	3
153	2
154	1
157	1
158	2
159	4
160	8
161	0
162	1
164	3
165	1
167	2
170	1
171	5
172	2
173	21
174	66
175	7
181	0
184	3
185	0
190	207
191	23
192	13
193	1
200	81
201	10
202	1
204	4
205	0
206	1
207	0
214	3
215	1
216	1
221	1
223	1
230	1
233	24
234	4
235	1
237	0
264	2
333	22
334	14
335	3
336	1
