Mass Spectrum: (1H)Benzimidazole, 5-fluoro-2-phenyl-6-(4-methylpiperazin-1-yl)-
Formula: C18H19FN4
CAS: 174468-70-3
Molecular weight: 310
m/z	intensity
31	1
32	5
33	2
36	1
38	1
39	10
40	2
41	22
42	286
43	999
44	58
45	2
46	1
50	3
51	12
52	10
53	2
54	9
55	17
56	96
57	62
58	40
59	3
61	1
62	3
63	10
64	5
65	5
66	3
67	3
68	2
69	7
70	372
71	596
72	29
73	2
75	6
76	8
77	43
78	10
79	1
80	2
81	58
82	27
83	12
84	5
85	43
86	1
88	8
89	14
90	11
91	4
92	1
93	2
94	3
95	16
96	6
97	10
98	11
99	10
100	1
101	1
102	3
103	12
104	55
105	9
106	3
107	8
108	86
109	20
110	5
111	1
112	1
115	7
116	3
117	2
119	14
120	2
121	5
122	8
123	2
126	1
127	1
128	1
129	1
131	1
133	2
134	4
135	21
136	5
137	1
139	1
147	2
149	5
154	3
155	48
156	1
157	2
158	2
159	2
160	1
161	1
162	1
163	4
164	2
166	1
172	1
182	2
183	2
184	35
185	6
186	2
187	2
191	10
192	3
193	3
194	3
198	3
199	1
200	1
205	1
207	2
208	1
209	6
210	27
211	80
212	30
213	8
218	4
219	2
220	2
221	3
222	1
223	4
224	15
225	174
226	54
227	7
228	1
229	1
230	1
231	1
232	1
233	2
234	4
235	3
236	3
237	20
238	101
239	406
240	211
241	31
242	1
246	5
247	18
248	14
249	4
250	1
251	1
252	7
253	25
254	27
255	3
260	2
261	7
262	9
263	2
264	2
265	1
266	51
267	25
268	9
269	1
275	1
279	2
280	4
281	6
282	11
283	2
289	5
290	12
291	2
292	3
293	2
294	2
295	46
296	9
308	10
309	46
310	759
311	163
312	14
