Mass Spectrum: 2,4,6,8,9-Pentathiaadamantane, 1,3,5,7,10-pentamethyl-
Formula: C10H16S5
CAS: 17443-93-5
Molecular weight: 296
m/z	intensity
15	44
26	9
27	7
28	12
29	49
31	31
32	15
33	8
34	13
39	79
40	10
41	71
43	19
44	13
45	86
46	13
47	32
50	7
51	18
52	9
53	80
54	12
55	47
57	19
58	125
59	999
60	79
61	103
64	9
65	23
66	9
67	21
69	9
71	30
72	6
73	9
76	35
77	20
79	36
80	9
81	32
83	7
85	17
87	23
89	16
91	29
93	10
97	30
98	21
99	32
111	18
112	15
113	245
114	21
115	91
116	8
117	11
118	15
121	6
125	26
126	9
127	7
130	11
131	120
132	9
133	11
139	30
140	62
141	120
142	14
143	9
145	342
146	30
147	66
148	5
149	8
150	19
157	7
171	19
172	11
173	50
174	6
175	9
205	217
206	22
207	30
232	39
233	5
234	5
237	7
296	44
297	7
298	11
