Mass Spectrum: (1H)Benzimidazole, 2-(4-bromophenyl)-5-fluoro-6-(4-methylpiperazin-1-yl)-
Formula: C18H18BrFN4
CAS: 174468-76-9
Molecular weight: 388
m/z	intensity
30	13
31	0
32	3
33	1
36	1
38	1
39	9
40	2
41	21
42	288
43	999
44	73
45	2
50	4
51	8
52	8
53	2
54	8
55	13
56	84
57	74
58	36
59	2
60	1
61	0
62	4
63	10
64	4
65	8
66	1
67	3
68	2
69	7
70	369
71	531
72	25
73	2
74	0
75	8
76	11
77	13
78	2
79	1
80	3
81	51
82	22
83	10
84	4
85	44
86	3
87	1
88	9
89	11
90	5
91	3
92	1
93	2
94	4
95	14
96	6
97	8
98	11
99	11
100	2
101	2
102	12
103	11
104	4
105	9
106	3
107	9
108	86
109	18
110	4
111	1
112	1
113	0
114	1
115	5
116	3
117	2
118	2
119	3
120	1
121	8
122	6
123	3
124	0
125	2
126	3
127	5
128	3
129	3
130	1
131	2
132	3
133	6
134	7
135	36
136	7
137	2
138	0
139	1
140	0
143	0
144	0
145	1
147	2
148	1
149	6
150	1
151	0
152	0
153	0
154	1
155	5
156	3
157	6
158	8
159	7
160	1
161	1
162	2
163	11
164	8
165	4
166	3
167	2
169	1
170	1
171	2
172	1
173	0
176	0
177	0
178	0
179	0
181	3
182	21
183	10
184	15
185	2
186	1
187	1
188	0
189	1
190	1
191	2
192	2
193	3
194	24
195	21
196	0
197	1
198	0
205	0
206	0
207	0
208	2
209	13
210	53
211	15
212	3
217	2
218	1
219	1
220	0
222	0
223	9
224	17
225	4
226	0
231	0
232	0
234	2
235	3
236	10
237	17
238	34
239	14
240	3
244	0
245	1
246	2
247	1
248	0
251	1
252	1
253	2
259	2
260	1
261	1
262	10
263	1
264	11
265	3
266	2
267	0
269	2
270	1
271	3
272	1
273	5
274	2
275	2
276	1
277	0
278	0
279	1
281	1
282	1
283	1
285	0
286	0
287	1
288	3
289	22
290	11
291	22
292	7
293	2
294	2
295	0
296	1
298	1
299	2
300	3
301	3
302	5
303	60
304	25
305	59
306	18
307	4
308	2
309	12
310	3
311	1
312	1
313	2
314	1
315	8
316	35
317	147
318	105
319	148
320	70
321	12
322	0
324	2
325	7
326	7
327	7
328	6
329	2
330	2
331	10
332	13
333	11
334	12
335	1
338	0
339	2
340	5
341	3
342	4
343	1
344	28
345	14
346	25
347	10
348	4
349	0
355	0
357	1
358	2
359	4
360	7
361	3
362	4
363	0
364	0
367	1
368	4
369	3
370	7
371	3
372	4
373	22
374	5
375	19
376	4
386	5
387	18
388	312
389	83
390	311
391	63
392	5
