Mass Spectrum: (1H)Benzimidazole, 2-(3-bromophenyl)-5-fluoro-6-(4-methylpiperazin-1-yl)-
Formula: C18H18BrFN4
CAS: 174468-75-8
Molecular weight: 388
m/z	intensity
30	15
31	19
32	3
33	2
36	1
38	2
39	13
40	2
41	25
42	297
43	999
44	61
45	9
46	0
50	7
51	13
52	8
53	1
54	10
55	18
56	91
57	77
58	40
59	8
60	0
62	5
63	13
64	11
65	13
66	2
67	3
68	3
69	7
70	434
71	602
72	28
73	2
74	4
75	10
76	16
77	39
78	4
79	2
80	3
81	57
82	23
83	11
84	3
85	44
86	2
87	1
88	8
89	10
90	6
91	5
92	12
93	3
94	4
95	15
96	5
97	8
98	11
99	12
100	1
101	2
102	10
103	6
104	4
105	9
106	2
107	16
108	78
109	16
110	4
111	1
112	0
114	0
115	5
116	2
117	1
118	3
119	5
120	1
121	10
122	7
123	6
124	0
125	0
127	1
128	1
129	1
130	0
131	0
132	2
133	2
134	4
135	145
136	14
137	2
139	0
144	0
145	0
147	2
148	0
149	5
150	10
151	1
152	0
153	0
154	1
155	5
156	2
157	5
158	5
159	4
160	1
161	0
162	1
163	6
164	3
165	1
166	0
167	0
169	0
170	0
172	0
176	0
177	1
178	0
179	0
180	0
181	2
182	17
183	8
184	12
185	2
186	1
187	0
189	1
190	0
191	2
192	1
193	2
194	22
195	20
196	0
197	1
198	0
204	0
205	1
207	0
208	2
209	14
210	55
211	19
212	4
217	2
218	1
219	0
222	5
223	12
224	15
225	9
226	0
234	1
235	2
236	7
237	13
238	30
239	22
240	7
241	0
245	0
246	0
247	0
251	0
252	2
253	2
254	1
259	1
260	0
261	1
262	8
263	2
264	8
265	4
266	3
267	1
268	0
269	0
271	2
272	1
273	3
274	1
275	1
276	1
277	0
278	1
279	0
280	0
281	1
282	1
283	1
284	1
285	0
286	0
287	1
288	3
289	21
290	9
291	21
292	7
293	1
294	1
295	1
296	1
298	2
299	1
300	1
301	1
302	5
303	62
304	24
305	64
306	20
307	4
308	3
309	15
310	22
311	4
312	2
313	2
314	1
315	8
316	39
317	159
318	117
319	156
320	76
321	10
322	0
324	3
325	8
326	8
327	8
328	7
329	2
330	3
331	11
332	14
333	11
334	9
335	1
338	1
339	3
340	5
341	2
342	4
343	1
344	25
345	13
346	27
347	14
348	5
349	0
357	1
358	2
359	4
360	8
361	4
362	5
363	0
367	1
368	4
369	3
370	5
371	2
372	2
373	24
374	5
375	21
376	3
386	5
387	20
388	344
389	92
390	347
391	67
392	5
