Mass Spectrum: (1H)Benzimidazole, 5-fluoro-2-(4-methylphenyl)-6-(4-methylpiperazin-1-yl)-
Formula: C19H21FN4
CAS: 174468-78-1
Molecular weight: 324
m/z	intensity
30	14
31	9
32	3
33	1
36	1
38	1
39	12
40	2
41	21
42	272
43	999
44	55
45	5
46	1
50	2
51	8
52	7
53	2
54	9
55	15
56	92
57	60
58	49
59	2
62	2
63	10
64	4
65	18
66	1
67	3
68	3
69	7
70	377
71	615
72	34
73	1
75	3
76	7
77	11
78	5
79	2
80	2
81	47
82	19
83	11
84	4
85	37
86	2
87	1
88	5
89	14
90	16
91	42
92	9
93	1
94	3
95	13
96	6
97	10
98	15
99	12
100	1
101	1
102	5
103	7
104	3
105	2
106	1
107	7
108	80
109	18
110	8
111	1
112	5
113	4
115	7
116	14
117	11
118	41
119	13
120	4
121	6
122	8
123	3
125	3
126	7
127	2
128	1
129	1
131	1
132	1
133	2
134	4
135	20
136	7
137	2
140	1
141	1
142	1
146	1
147	3
148	1
149	8
150	1
151	1
153	1
161	8
162	53
163	6
164	1
165	1
169	1
170	2
171	1
175	1
176	4
177	6
178	3
180	1
186	1
187	1
195	1
196	2
197	4
198	26
199	6
200	2
201	2
202	1
203	1
204	1
205	7
206	2
207	1
208	1
209	3
210	9
211	3
212	3
213	1
217	1
218	1
219	1
220	1
221	2
222	4
223	21
224	24
225	76
226	29
227	9
228	2
232	3
233	1
234	2
235	2
236	3
237	10
238	22
239	180
240	56
241	9
242	2
243	2
244	2
245	1
246	1
247	4
248	11
249	5
250	5
251	20
252	90
253	418
254	238
255	36
256	2
259	1
260	6
261	24
262	14
263	3
264	1
265	1
266	7
267	23
268	24
269	4
274	2
275	7
276	9
277	1
278	2
279	2
280	47
281	22
282	9
283	1
289	1
293	2
294	5
295	6
296	11
297	1
303	5
304	13
305	2
307	2
308	2
309	48
310	11
322	13
323	56
324	803
325	170
326	17
