Mass Spectrum: 2,4,6,8,9-Pentathiaadamantane, 1,3,5,7-tetramethyl-
Formula: C9H14S5
CAS: 17443-92-4
Molecular weight: 282
m/z	intensity
15	25
17	12
18	61
26	15
27	27
28	21
29	8
32	14
33	10
34	27
38	5
39	69
40	13
41	75
42	8
43	7
44	52
45	75
46	10
47	18
50	5
51	8
53	21
54	5
55	16
57	104
58	104
59	999
60	54
61	111
64	8
65	39
66	10
67	36
69	10
71	13
73	15
74	5
75	13
76	33
77	5
79	6
81	7
83	5
84	9
85	34
86	5
87	5
91	27
92	7
93	10
97	29
98	35
99	315
100	30
101	76
102	6
107	9
111	28
112	7
113	11
116	5
117	97
118	42
119	12
125	151
126	424
127	290
128	41
129	15
130	8
131	666
132	52
133	303
134	22
135	25
143	11
145	148
146	13
147	15
149	7
150	47
152	6
157	30
158	194
159	399
160	58
161	39
163	6
189	7
191	351
192	36
193	50
194	46
217	34
218	653
219	82
220	93
221	11
222	5
282	411
283	56
284	97
285	13
286	10
