Mass Spectrum: 2,4,6,8,9-Pentathiaadamantane, 1,3,5-trimethyl-
Formula: C8H12S5
CAS: 17443-91-3
Molecular weight: 268
m/z	intensity
15	43
26	12
27	55
28	7
29	5
32	21
33	11
34	16
38	7
39	75
40	8
41	51
43	6
44	20
45	235
46	22
47	33
50	9
51	17
52	7
53	52
54	8
57	40
58	225
59	999
60	95
61	110
64	16
65	5
67	8
69	21
71	48
72	6
73	17
74	5
75	8
76	63
77	18
78	9
79	8
83	9
84	33
85	90
86	20
87	31
91	30
93	8
97	23
99	21
103	80
105	9
110	6
111	115
112	225
113	195
114	24
115	10
116	8
117	900
118	80
119	235
120	16
121	17
129	9
131	69
132	6
133	10
136	19
143	33
144	130
145	305
146	38
147	29
149	6
150	25
151	6
156	7
171	39
175	6
176	6
177	135
178	13
179	19
203	95
204	260
205	40
206	35
209	13
268	390
269	52
270	100
271	12
272	10
