Mass Spectrum: 1,2-Benzenediamine, N1-benzylidene-5-fluoro-4-(4-methylpiperazin-1-yl)-
Formula: C18H21FN4
CAS: 174468-59-8
Molecular weight: 312
m/z	intensity
29	47
30	36
31	1
32	19
33	1
36	1
37	0
38	3
39	27
40	5
41	33
42	394
43	999
44	66
45	1
46	1
50	6
51	22
52	16
53	6
54	12
55	15
56	85
57	55
58	37
59	3
60	0
62	3
63	23
64	7
65	11
66	3
67	5
68	3
69	6
70	200
71	296
72	19
73	2
74	1
75	3
76	9
77	34
78	12
79	4
80	1
81	18
82	22
83	41
84	8
85	13
86	1
87	1
88	1
89	25
90	21
91	23
92	3
93	2
94	5
95	8
96	12
97	11
98	15
99	8
100	1
101	1
102	3
103	7
104	17
105	4
106	3
107	2
108	17
109	41
110	32
111	7
112	2
113	3
115	3
116	3
117	27
118	5
119	2
120	4
121	5
122	6
123	7
124	8
125	2
126	1
127	1
128	1
129	1
130	1
131	4
132	2
133	2
134	5
135	15
136	92
137	43
138	5
139	2
140	1
141	0
142	0
143	0
144	1
145	5
146	8
147	2
148	1
149	12
150	14
151	7
152	3
153	1
154	1
155	7
156	20
157	3
158	6
159	2
160	4
161	2
162	9
163	12
164	306
165	32
166	4
167	2
168	0
170	1
171	0
172	23
173	4
174	2
175	0
176	2
177	7
178	16
179	3
180	2
184	3
185	6
186	3
187	4
188	2
189	2
190	1
191	1
192	8
193	3
194	1
195	0
196	1
197	1
198	1
199	1
200	0
201	0
205	0
206	0
207	6
208	2
209	3
210	4
211	9
212	34
213	9
214	4
215	15
216	2
217	3
218	0
219	0
220	0
221	1
222	3
223	4
224	5
225	6
226	7
227	102
228	18
229	1
231	0
233	1
234	1
235	205
236	32
237	2
238	3
239	8
240	90
241	30
242	53
243	8
246	0
247	1
248	9
249	9
250	4
251	0
254	6
255	2
256	7
257	0
261	1
262	1
263	8
264	3
267	0
268	11
269	3
270	0
274	0
277	2
282	1
283	1
284	2
291	9
292	20
293	4
294	7
295	3
296	1
297	13
298	1
309	0
310	31
311	85
312	746
313	152
314	15
315	0
