Mass Spectrum: (1H)Benzimidazole, 5-fluoro-2-(3-fluorophenyl)-6-(4-methylpiperazin-1-yl)-
Formula: C18H18F2N4
CAS: 174468-71-4
Molecular weight: 328
m/z	intensity
30	16
31	5
32	6
33	1
38	1
39	8
40	3
41	27
42	281
43	999
44	64
45	3
50	1
51	5
52	8
53	2
54	12
55	17
56	90
57	80
58	40
59	6
62	3
63	7
64	4
65	4
66	1
67	6
68	3
69	10
70	395
71	576
72	28
73	2
75	8
76	8
77	7
78	1
79	1
80	3
81	66
82	26
83	18
84	6
85	43
86	3
88	6
89	7
90	3
91	5
93	1
94	5
95	38
96	14
97	10
98	13
99	11
101	3
102	4
103	2
104	1
105	2
106	3
107	13
108	93
109	23
110	6
111	2
114	2
115	8
116	4
117	1
118	2
119	1
120	2
121	15
122	43
123	6
125	1
127	1
128	11
129	2
133	2
134	5
135	23
136	6
137	1
146	2
147	1
149	7
151	1
162	1
163	7
164	45
165	1
175	1
176	1
178	2
181	1
182	3
193	1
200	1
201	1
202	31
203	5
204	1
205	1
209	9
210	4
211	2
215	1
216	2
217	1
218	1
223	1
224	1
225	3
226	1
227	4
228	18
229	70
230	27
231	7
232	1
234	1
235	1
236	5
237	2
238	2
239	5
240	1
241	3
242	13
243	156
244	51
245	7
246	1
247	1
248	1
251	3
252	5
253	12
254	6
255	21
256	107
257	368
258	182
259	24
260	1
264	4
265	15
266	15
267	3
268	1
269	2
270	5
271	21
272	23
273	3
278	2
279	8
280	9
281	2
282	1
283	1
284	50
285	26
286	12
297	2
298	4
299	5
300	8
307	3
308	10
309	4
310	1
311	2
312	1
313	39
314	8
324	15
325	4
326	11
327	46
328	701
329	147
330	14
