Mass Spectrum: 2,4,6,8,9-Pentathiaadamantane, 1,5,10,10-tetramethyl-
Formula: C9H14S5
CAS: 17443-96-8
Molecular weight: 282
m/z	intensity
15	2
17	4
18	33
27	40
28	2
29	6
39	26
41	26
43	2
45	88
46	2
47	13
53	20
55	26
57	2
58	40
59	999
60	33
61	55
65	8
67	11
69	1
71	17
73	11
75	2
76	11
77	2
79	2
84	2
85	26
86	4
87	15
88	11
89	2
91	11
93	2
97	4
98	6
99	62
100	4
101	195
102	11
103	11
111	13
112	2
113	20
117	88
118	22
119	11
123	60
125	11
126	33
127	100
128	4
129	2
131	488
132	55
133	4
134	6
135	8
136	88
137	4
138	13
143	2
144	6
145	11
147	35
149	6
150	8
157	11
158	66
159	160
160	22
161	11
163	6
165	40
167	2
185	4
191	220
192	20
193	26
217	40
218	311
219	40
220	44
221	11
223	222
224	15
225	33
282	533
283	88
284	211
285	17
286	17
