Mass Spectrum: 1H-Imidazole, 1-(1-oxooctyl)-
Formula: C11H18N2O
CAS: 17450-31-6
Molecular weight: 194
m/z	intensity
27	111
28	54
29	155
39	77
40	85
41	351
42	91
43	376
44	13
53	22
54	16
55	232
56	36
57	999
58	46
59	8
60	13
67	53
68	162
69	714
70	46
71	17
73	9
81	17
82	38
83	36
84	33
85	6
95	47
96	12
97	14
98	48
105	8
109	55
110	48
111	14
123	42
124	9
127	391
128	35
137	8
138	5
151	6
152	5
165	15
166	23
167	6
194	72
195	15
