Mass Spectrum: 1H-Imidazole, 1-(1-oxooctadecyl)-
Formula: C21H38N2O
CAS: 17450-32-7
Molecular weight: 334
m/z	intensity
26	2
27	20
28	5
29	53
30	1
31	1
38	1
39	11
40	14
41	118
42	29
43	206
44	10
45	8
50	0
51	1
53	7
54	13
55	127
56	35
57	261
58	18
59	3
60	6
61	6
65	2
66	1
67	36
68	81
69	999
70	59
71	170
72	12
73	7
74	0
77	2
78	1
79	6
80	3
81	42
82	17
83	59
84	30
85	104
86	8
87	1
88	6
91	2
92	0
93	5
94	3
95	54
96	14
97	45
98	62
99	28
100	2
101	0
105	1
106	0
107	3
108	2
109	36
110	32
111	31
112	16
113	15
114	1
115	1
119	1
121	4
122	1
123	35
124	7
125	11
126	3
127	8
128	1
129	2
133	0
134	0
135	3
136	1
137	13
138	5
139	4
140	1
141	4
142	0
143	0
149	5
150	1
151	8
152	2
153	2
154	1
155	3
157	0
161	0
163	1
164	0
165	5
166	3
167	2
168	1
169	2
171	0
177	1
178	0
179	4
180	2
181	1
182	0
183	1
185	0
191	0
193	3
194	1
195	0
196	0
197	1
205	0
207	2
208	1
209	0
210	0
211	0
221	2
222	1
235	1
236	1
237	0
238	0
239	4
240	0
249	4
250	1
251	0
253	0
256	0
263	2
264	1
265	0
266	2
267	95
268	23
269	2
277	2
278	1
284	1
291	1
292	1
305	3
306	9
307	3
319	0
333	3
334	32
335	8
336	1
