Mass Spectrum: 3-Phorbinepropanoic acid, 9-acetyl-14-ethyl-13,14-dihydro-21-(methoxycarbonyl)-4,8,13,18-tetramethyl-20-oxo-, 3,7,11,15-tetramethyl-2-hexadecenyl ester, [3s-[3.
Formula: C55H76N4O6
CAS: 17453-58-6
Molecular weight: 888
m/z	intensity
24	12
26	19
27	115
29	224
31	100
38	11
39	144
40	28
41	526
42	113
43	775
44	113
50	12
51	21
52	9
53	65
54	52
55	697
56	244
57	999
58	33
59	8
63	8
65	28
66	16
67	280
68	145
69	692
70	194
71	609
72	26
73	441
74	14
76	15
77	52
78	17
79	117
80	54
81	492
82	192
83	515
84	107
85	411
86	22
88	15
91	130
92	30
93	126
94	72
95	459
96	135
97	475
98	71
99	103
103	11
104	16
105	137
106	54
107	111
108	53
109	295
110	78
111	277
112	52
113	68
115	28
116	13
117	37
118	19
119	163
120	50
121	103
122	44
123	235
124	68
125	143
126	41
127	54
128	27
129	44
130	22
131	73
132	25
133	122
134	40
135	94
136	35
137	119
138	34
139	66
140	28
141	57
142	20
143	51
144	24
145	103
146	25
147	76
148	26
149	215
150	28
151	72
152	26
153	43
154	19
155	48
156	21
157	53
158	21
159	76
160	20
161	65
162	21
163	55
164	17
165	61
166	20
167	35
168	17
169	50
170	16
171	43
172	18
173	51
174	16
175	71
176	20
177	41
178	18
179	49
180	18
181	36
182	20
183	49
184	14
185	34
186	10
187	38
188	13
189	55
190	17
191	51
192	18
193	43
194	19
195	37
196	31
197	127
198	22
199	30
200	9
201	32
202	12
203	41
204	17
205	35
206	15
207	38
208	20
209	38
210	17
211	41
212	13
213	28
214	8
215	28
216	11
217	41
218	17
219	27
220	12
221	34
222	16
223	27
224	15
225	38
226	14
227	23
228	9
229	23
230	9
231	29
232	14
233	24
234	11
235	40
236	16
237	31
238	15
239	35
240	10
241	19
243	19
244	8
245	24
246	12
247	21
248	10
249	26
250	13
251	23
252	14
253	28
254	9
255	20
256	11
257	21
258	8
259	22
260	11
261	21
262	12
263	27
264	16
265	20
266	10
267	25
268	9
269	21
270	8
271	18
272	8
273	18
274	9
275	17
276	10
277	21
278	31
279	31
280	13
281	19
283	14
284	8
285	15
286	7
287	15
288	8
289	15
290	8
291	17
292	9
293	12
294	7
295	15
297	13
299	15
300	8
301	14
302	7
303	13
305	14
306	8
307	16
308	8
309	13
311	12
313	14
314	7
315	12
317	12
319	15
320	9
321	10
323	13
325	9
327	11
329	11
330	7
331	12
332	7
333	13
334	8
335	8
337	12
339	14
341	12
343	11
345	12
347	13
348	7
349	9
351	11
353	8
355	9
357	10
358	8
359	10
361	12
362	8
363	11
365	15
367	9
369	11
370	8
371	11
372	8
373	11
375	13
376	8
377	10
378	8
379	17
380	8
381	8
383	9
384	7
385	10
386	10
387	12
388	10
389	14
390	9
391	12
392	9
393	18
394	8
395	8
397	10
398	8
399	11
400	11
401	11
402	8
403	11
404	9
405	12
406	10
407	24
408	10
409	10
410	10
411	9
412	8
413	9
414	9
415	10
417	10
418	9
419	11
420	14
421	18
422	10
423	11
426	7
428	7
429	9
431	10
432	7
433	12
434	10
435	23
436	15
437	25
438	11
439	8
443	8
445	9
447	11
448	11
449	18
450	9
451	13
452	8
453	8
457	8
459	7
460	8
461	13
462	26
463	24
464	20
465	18
466	7
467	10
475	9
476	13
477	30
478	40
479	78
480	32
481	26
482	13
483	12
484	7
488	7
489	10
490	18
491	15
492	10
493	16
494	10
495	13
504	18
505	28
506	14
507	25
508	17
509	15
510	23
511	19
512	10
513	7
519	8
521	11
522	9
523	26
524	15
525	13
526	7
530	14
531	8
532	11
533	14
534	119
535	53
536	34
537	26
538	15
539	8
548	21
549	18
550	19
551	51
552	95
553	90
554	46
555	27
556	11
562	10
563	10
564	9
565	10
566	15
567	10
568	16
569	10
580	7
581	8
582	7
590	8
591	7
592	43
593	21
594	13
595	7
606	8
607	7
609	9
610	22
611	14
620	10
621	7
676	7
678	8
680	8
684	7
686	7
688	7
690	9
692	9
694	8
696	7
698	8
700	8
702	8
704	10
706	10
707	7
708	10
709	7
710	9
712	9
714	10
716	10
718	10
720	11
721	8
722	11
723	7
724	10
726	10
728	12
729	7
730	11
732	11
733	7
734	12
735	9
736	13
737	8
738	11
739	7
740	11
742	12
743	7
744	13
745	8
746	13
747	9
748	15
749	10
750	14
751	9
752	12
753	7
754	12
755	8
756	14
757	9
758	14
759	9
760	15
761	11
762	16
763	11
764	17
765	10
766	14
767	8
768	14
769	8
770	16
771	10
772	14
773	10
774	17
775	11
776	19
777	11
778	18
779	11
780	15
781	9
782	16
783	9
784	17
785	11
786	20
787	13
788	24
789	18
790	26
791	16
792	21
793	12
794	16
795	11
796	23
797	14
798	19
799	12
800	19
801	14
802	21
803	25
804	28
805	17
806	22
807	14
808	17
809	11
810	18
811	11
812	20
813	13
814	24
815	18
816	34
817	23
818	29
819	16
820	25
821	15
822	19
823	11
824	31
825	19
826	35
827	21
828	73
829	51
830	982
831	573
832	382
833	154
834	90
835	40
836	30
837	15
838	20
839	12
840	20
841	13
842	24
843	15
844	28
845	17
846	32
847	20
848	27
849	16
850	21
851	13
852	19
853	12
854	22
855	14
856	30
857	17
858	26
859	17
860	27
861	17
862	32
863	21
864	175
865	109
866	59
867	23
868	25
869	14
870	23
871	15
872	25
873	16
874	27
875	17
876	25
877	15
878	20
879	12
880	20
881	13
882	24
883	16
884	25
885	18
886	31
888	213
889	131
890	63
891	27
892	2
