Mass Spectrum: Benzene, 3-pentenyl-
Formula: C11H14
CAS: 1745-16-0
Molecular weight: 146
m/z	intensity
15	3
18	2
26	8
27	67
28	15
29	55
37	2
38	16
39	127
40	12
41	35
42	2
50	27
51	61
52	19
53	22
54	13
55	114
56	5
57	1
61	2
62	13
63	42
64	19
65	159
66	10
67	7
68	5
74	6
75	6
76	8
77	35
78	20
79	7
86	2
87	2
89	25
91	999
92	106
93	4
102	6
103	16
104	46
105	9
115	32
116	8
117	36
118	12
119	1
126	1
127	5
128	12
129	10
130	7
131	53
132	6
144	1
146	81
147	10
