Mass Spectrum: (2-Ethyl-butanoyl)thiourea
Formula: C7H14N2OS
CAS: 17464-80-1
Molecular weight: 174
m/z	intensity
59	45
60	359
71	999
75	15
76	138
98	310
99	76
103	15
115	14
146	31
174	875
