Mass Spectrum: 2-Nonenoic acid, ethyl ester
Formula: C11H20O2
CAS: 17463-01-3
Molecular weight: 184
m/z	intensity
26	35
27	483
28	49
29	885
30	27
31	31
37	5
38	16
39	345
40	129
41	763
42	311
43	847
44	39
45	114
46	6
47	6
49	4
50	11
51	35
52	25
53	213
54	181
55	999
56	291
57	158
58	24
59	20
60	84
61	97
62	5
63	8
64	4
65	31
66	34
67	220
68	333
69	603
70	192
71	143
72	17
73	694
74	40
75	10
77	26
78	9
79	49
80	27
81	283
82	103
83	109
84	178
85	80
86	378
87	116
88	439
89	47
90	5
91	14
92	8
93	27
94	94
95	203
96	581
97	187
98	29
99	513
100	73
101	770
102	77
103	11
105	8
107	9
108	6
109	125
110	110
111	34
112	8
113	78
114	145
115	237
116	42
117	7
119	6
120	20
121	11
122	4
123	38
124	11
125	19
126	5
127	281
128	90
129	54
130	16
131	4
137	22
138	397
139	838
140	96
141	75
142	53
143	21
154	3
155	62
156	26
157	10
169	9
170	2
171	3
181	2
182	3
183	3
184	85
185	16
186	3
