Mass Spectrum: Ethyl orotate
Formula: C7H8N2O4
CAS: 1747-53-1
Molecular weight: 184
m/z	intensity
41	48
42	14
43	40
44	34
45	38
47	2
51	1
52	4
53	22
54	8
55	7
56	6
67	79
68	999
69	119
70	22
72	2
74	8
75	4
81	2
82	1
84	13
85	19
86	2
95	7
97	44
98	6
101	2
102	7
103	5
104	1
110	4
111	7
112	66
113	60
114	12
119	2
123	1
125	2
126	6
128	1
137	2
139	57
140	29
141	16
142	9
146	2
147	3
153	2
156	201
157	27
169	4
182	1
183	7
184	666
185	73
186	4
