Mass Spectrum: Ergosta-5,22-dien-3-ol, (3.beta.,22E,24S)-
Formula: C28H46O
CAS: 17472-78-5
Molecular weight: 398
m/z	intensity
41	350
42	10
43	330
53	60
54	10
55	810
56	40
57	220
65	20
67	310
68	60
69	999
70	80
71	70
77	90
78	20
79	250
80	30
81	490
82	130
83	370
84	30
91	240
92	50
93	270
94	70
95	330
96	110
97	60
105	250
106	40
107	310
108	70
109	300
110	30
111	20
117	60
118	30
119	180
120	80
121	170
122	40
123	80
124	30
125	220
126	20
128	10
129	30
130	20
131	110
132	30
133	300
134	60
135	120
136	20
137	40
143	60
144	30
145	270
146	50
147	210
148	30
149	70
150	10
151	70
152	30
155	10
157	60
158	50
159	280
160	60
161	130
162	30
163	80
164	20
169	10
171	30
172	10
173	80
174	20
175	60
176	20
177	30
178	10
183	10
185	40
186	20
187	40
188	10
189	30
197	20
199	60
200	10
201	10
203	20
211	20
213	120
214	20
215	60
216	10
217	30
225	10
227	30
228	20
229	50
230	20
231	40
232	10
239	20
240	10
241	30
243	10
245	10
246	10
253	40
254	10
255	410
256	80
257	20
258	40
259	10
267	40
270	20
271	240
272	130
273	90
274	20
281	20
282	30
283	40
284	10
285	50
286	20
287	20
295	10
299	30
300	200
301	70
313	30
314	40
315	20
337	100
338	30
355	50
356	20
363	20
365	50
366	20
380	40
381	20
383	50
384	30
398	360
399	130
