Mass Spectrum: Aspidospermidine, 1-(1-oxopropyl)-
Formula: C22H30N2O
CAS: 17472-57-0
Molecular weight: 338
m/z	intensity
41	210
42	100
43	90
44	50
45	20
51	10
53	30
54	30
55	160
56	70
57	310
58	50
59	10
65	20
67	70
68	30
69	120
70	60
71	30
77	50
78	10
79	30
80	30
81	40
82	30
83	10
84	20
85	20
88	20
90	30
92	10
93	30
94	60
95	40
96	10
97	10
101	10
102	10
103	30
108	30
109	40
110	30
115	50
116	30
117	40
118	10
122	10
123	30
124	999
125	310
126	30
127	10
128	30
129	20
130	100
131	20
132	10
138	30
141	10
142	20
143	70
144	100
145	10
150	10
152	160
153	30
154	20
155	10
156	60
157	30
158	10
160	10
167	30
168	40
169	40
170	30
171	10
180	30
181	20
182	40
183	20
184	10
190	20
194	30
195	20
196	20
197	20
198	10
199	10
208	10
209	10
210	10
211	10
223	20
224	10
237	10
251	20
252	10
253	10
281	30
282	20
309	50
310	170
311	30
337	90
338	220
339	50
