Mass Spectrum: Benzoic acid, 4-(3-chloro-2-ethylsulfonyl-2-methylpropionylamino)-, methyl ester
Formula: C14H18ClNO5S
CAS: 174812-40-9
Molecular weight: 347
m/z	intensity
35	0
36	4
37	0
38	7
39	192
40	33
41	999
42	59
43	24
44	7
45	7
46	13
47	0
48	3
49	18
50	9
51	15
52	8
53	8
54	1
55	7
56	0
57	4
58	2
59	193
60	21
61	8
62	5
63	56
64	80
65	63
66	53
67	30
68	13
69	882
70	60
71	3
73	2
74	33
75	158
76	37
77	502
78	28
79	46
80	14
81	1
82	0
83	0
85	7
87	0
88	0
89	21
90	95
91	138
92	86
93	104
94	28
95	159
96	5
97	6
101	0
102	10
103	686
104	69
105	164
106	34
107	38
108	13
109	6
110	2
111	0
112	1
113	0
115	9
116	7
117	28
118	68
119	106
120	232
121	96
122	86
123	10
125	3
127	0
128	8
129	7
130	67
131	65
132	93
133	14
134	12
135	326
136	24
137	12
140	0
141	3
142	26
143	2
144	10
145	7
146	328
147	28
148	4
149	1
150	143
151	53
152	16
153	1
154	2
156	24
157	2
158	38
159	34
160	79
161	54
162	14
163	8
164	19
165	0
166	2
167	5
168	0
169	4
170	1
171	0
172	2
173	5
174	38
175	5
176	61
177	66
178	665
179	88
180	9
181	0
182	1
186	16
187	7
188	175
189	20
190	14
191	3
192	5
193	0
194	68
195	18
196	28
197	28
198	6
199	8
200	0
201	0
202	38
203	3
204	12
205	2
210	10
211	0
212	4
213	0
216	1
217	11
218	55
219	9
220	77
221	10
222	70
223	12
224	20
225	11
226	613
227	82
228	296
229	31
230	2
234	2
236	7
237	0
238	3
243	1
246	0
248	3
252	2
253	8
254	335
255	55
256	105
257	13
258	4
259	0
260	7
261	0
280	6
281	0
282	0
284	0
289	7
290	4
291	1
292	0
294	1
296	0
311	21
312	11
313	1
314	0
315	0
316	97
317	20
318	54
319	7
320	2
322	0
330	4
332	0
345	0
346	8
347	576
348	268
349	253
350	96
351	23
