Mass Spectrum: Silane, 2-butenyltrimethyl-, (E)-
Formula: C7H16Si
CAS: 17486-12-3
Molecular weight: 128
m/z	intensity
25	0
26	3
27	30
28	19
29	23
30	2
31	23
32	5
33	0
37	0
38	1
39	16
40	0
41	5
42	11
43	92
44	26
45	130
46	8
47	5
49	0
50	2
51	3
52	1
53	15
54	4
55	23
56	4
57	14
58	21
59	139
60	10
61	5
62	0
64	0
65	1
66	3
67	5
68	1
69	7
70	4
71	13
72	10
73	999
74	82
75	35
76	1
77	1
79	0
81	2
82	0
83	6
84	1
85	72
86	7
87	4
93	0
95	3
96	0
97	7
98	1
99	0
109	0
111	3
112	2
113	47
114	5
115	1
128	72
129	9
130	3
