Mass Spectrum: 3-Buten-2-ol, 4-phenyl-
Formula: C10H12O
CAS: 17488-65-2
Molecular weight: 148
m/z	intensity
25	0
26	14
27	102
29	31
30	1
31	14
37	10
38	25
39	119
40	11
41	35
42	11
43	751
44	20
45	50
46	2
47	0
49	6
50	101
51	247
52	63
53	38
54	4
55	246
56	9
57	7
58	8
59	2
60	2
61	14
62	36
63	103
64	72
65	78
66	59
67	6
68	0
69	9
70	4
71	21
72	4
73	10
74	51
75	45
76	44
77	324
78	197
79	126
80	8
81	1
82	1
84	1
85	5
86	8
87	14
88	4
89	44
90	11
91	558
92	66
93	3
94	2
95	2
96	0
97	1
98	8
99	3
100	0
101	14
102	77
103	235
104	137
105	999
106	108
107	9
108	0
109	0
113	3
114	3
115	394
116	63
117	49
118	9
119	8
120	6
121	4
122	1
125	0
126	8
127	71
128	176
129	327
130	242
131	161
132	38
133	364
134	39
135	1
144	0
145	30
146	34
147	73
148	674
149	71
150	4
