Mass Spectrum: Propanamide, 3-chloro-N-(4-chlorophenyl)-2-ethylsulfonyl-2-methyl-
Formula: C12H15Cl2NO3S
CAS: 174812-39-6
Molecular weight: 323
m/z	intensity
35	7
36	41
37	11
38	75
39	178
40	176
41	999
42	369
43	188
44	176
45	76
49	65
50	46
51	9
52	59
53	20
54	18
55	87
56	47
57	85
58	59
59	5
60	12
61	39
62	30
63	95
64	35
65	112
66	147
67	54
68	49
69	541
70	148
72	8
73	105
74	41
75	160
76	110
77	372
78	112
79	98
80	37
82	6
83	23
84	15
85	130
86	25
87	80
88	10
89	55
90	75
91	95
92	55
93	125
94	79
95	70
96	11
97	35
99	90
100	208
101	198
102	19
103	75
104	20
105	62
106	48
108	3
109	46
110	5
111	125
112	70
113	36
115	30
116	10
117	31
118	4
119	7
120	10
121	9
122	5
125	67
126	176
127	307
128	157
129	104
130	36
131	38
132	17
133	77
136	0
138	2
139	4
140	110
141	14
144	3
146	15
147	32
149	36
150	4
152	60
153	395
154	289
155	107
156	117
157	14
159	7
160	28
161	214
162	52
166	6
167	29
168	0
169	196
170	132
171	83
173	4
180	17
181	5
186	1
193	8
194	8
195	6
196	94
197	136
198	25
199	59
200	0
202	43
203	20
204	45
206	19
214	0
228	3
230	4
231	2
232	6
234	0
239	0
240	7
241	2
249	7
260	1
284	4
288	12
290	1
322	0
323	188
324	47
325	176
326	7
327	52
328	12
