Mass Spectrum: 2',3',5'-Tribenzoyluridine
Formula: C30H24N2O9
CAS: 1748-04-5
Molecular weight: 556
m/z	intensity
41	6
42	3
43	5
44	2
49	6
51	42
52	1
53	6
54	3
55	4
57	0
67	0
68	8
69	7
70	2
74	1
77	197
78	10
81	10
84	4
85	0
86	4
96	0
97	11
105	999
106	53
107	2
112	2
122	11
148	12
165	5
188	0
191	23
192	0
201	143
202	14
207	10
269	7
312	22
313	5
323	3
329	4
341	5
434	16
435	4
445	60
446	18
447	3
