Mass Spectrum: Benzenesulfonamide, N-(isopropylamino-phenyl-methylene)-
Formula: C16H18N2O2S
CAS: 174842-73-0
Molecular weight: 302
m/z	intensity
33	0
34	1
36	0
37	7
38	15
39	72
40	24
41	133
42	115
43	142
44	64
45	5
46	2
48	8
50	105
51	315
52	30
53	10
54	4
55	10
56	19
58	999
59	29
60	2
62	8
63	18
64	19
65	28
66	10
67	2
69	9
70	3
71	3
73	4
74	20
75	31
77	915
78	80
79	5
80	1
81	2
82	1
83	2
84	2
85	0
86	0
87	0
89	8
90	6
91	36
92	34
93	150
94	13
95	1
97	10
98	0
99	0
100	0
102	15
104	379
105	30
106	2
108	1
109	4
110	3
111	0
112	0
115	1
116	1
117	6
118	15
119	67
120	11
121	6
122	1
124	0
125	7
126	2
127	0
128	0
129	0
130	1
131	0
132	0
133	1
134	0
139	3
141	99
142	8
143	5
144	2
145	5
146	3
147	8
148	0
150	0
151	2
152	4
153	2
154	2
155	1
156	0
157	2
158	3
159	20
161	284
162	26
163	1
164	0
165	3
166	1
167	3
171	0
177	0
178	3
179	1
180	6
181	2
182	2
184	8
185	0
193	1
195	38
196	4
197	1
199	0
207	0
209	1
222	3
223	0
225	0
237	2
238	2
239	4
240	0
241	4
244	1
273	0
301	20
302	6
303	1
