Mass Spectrum: 2-Oxa-4,6,8,9-tetrathiaadamantane, 1,3,5,7-tetramethyl-, (.+/-.)-
Formula: C9H14OS4
CAS: 17497-22-2
Molecular weight: 266
m/z	intensity
15	64
18	2
27	21
28	19
29	2
32	10
33	2
34	4
39	96
40	4
41	86
42	4
43	877
44	23
45	107
46	4
47	19
53	10
55	2
57	19
58	154
59	999
60	86
61	129
64	2
65	23
66	1
67	25
69	4
71	10
73	15
74	4
75	17
76	21
77	1
83	1
84	1
85	32
91	32
93	2
97	25
98	23
99	161
100	23
101	43
107	36
111	17
115	4
117	258
118	15
119	15
125	64
126	447
127	258
128	25
129	4
131	924
132	96
133	376
134	17
135	21
150	146
152	10
156	8
157	8
158	21
159	193
160	8
161	8
165	8
175	2
190	60
191	301
192	25
193	34
201	38
202	86
203	2
223	12
266	167
267	12
268	21
