Mass Spectrum: Benzenamine, N-(1-phenylethylidene)-
Formula: C14H13N
CAS: 1749-19-5
Molecular weight: 195
m/z	intensity
12	0
14	2
15	19
16	2
17	12
18	39
26	11
27	72
28	10
29	2
37	12
38	40
39	128
40	10
41	10
42	12
43	1
50	151
51	627
52	65
53	7
54	1
55	0
57	1
59	1
60	0
61	6
62	22
63	62
64	30
65	32
66	4
67	0
70	1
73	3
74	32
75	37
76	95
77	999
78	86
79	3
82	1
84	4
85	0
86	3
87	5
88	4
89	20
90	10
91	16
92	6
93	2
95	3
96	4
98	15
99	2
100	2
101	4
102	18
103	74
104	26
105	3
111	0
112	0
113	2
114	1
115	5
116	7
118	155
119	14
120	1
125	1
126	4
127	6
128	4
129	0
130	0
138	0
139	2
140	3
141	0
149	0
150	2
151	10
152	27
153	11
154	3
155	0
163	0
164	1
165	5
166	1
167	3
168	1
176	1
177	2
178	5
180	695
181	106
182	7
183	0
190	1
191	1
192	2
193	4
194	17
195	289
196	48
197	3
