Mass Spectrum: Bis(methylsulfonyl)methane
Formula: C3H8O4S2
CAS: 1750-62-5
Molecular weight: 172
m/z	intensity
29	66
33	9
34	8
35	6
45	100
46	96
47	30
48	75
49	20
61	92
62	28
63	789
64	55
65	85
77	42
78	396
79	512
80	42
93	50
94	999
95	23
96	44
98	19
172	130
173	8
174	12
