Mass Spectrum: 4-Isopropylidene-cyclohexanol
Formula: C9H16O
CAS: 175020-74-3
Molecular weight: 140
m/z	intensity
27	110
29	122
31	25
39	161
40	56
41	296
42	40
43	166
44	76
51	44
52	24
53	138
54	54
55	235
56	64
57	81
65	54
66	62
67	216
68	86
69	86
70	110
71	31
77	112
78	197
79	926
80	155
81	419
82	64
83	73
84	36
91	213
92	43
93	252
94	97
95	61
96	50
97	73
98	21
103	31
105	90
106	25
107	999
108	142
109	21
111	27
121	69
122	759
123	94
125	30
140	571
141	66
