Mass Spectrum: 2,4,6,8-Tetrathiatricyclo[3.3.1.1(3,7)]decane, 1,1'-dithiobis[3,5,7,10,10-pentamethyl-
Formula: C22H34S10
CAS: 17525-43-8
Molecular weight: 618
m/z	intensity
12	0
13	0
14	0
15	3
16	3
17	39
18	181
19	0
20	0
22	0
24	0
25	0
26	2
27	18
28	12
29	15
30	0
31	0
32	8
33	5
34	15
35	1
36	0
37	1
38	2
39	36
40	5
41	152
42	6
43	7
44	27
45	54
46	3
47	18
48	0
49	1
50	2
51	5
52	2
53	28
54	2
55	24
56	1
57	11
58	24
59	999
60	31
61	48
62	1
63	1
64	11
65	8
66	2
67	46
68	4
69	90
70	5
71	10
72	2
73	75
74	10
75	16
76	10
77	16
78	3
79	14
80	3
81	7
82	1
83	17
84	5
85	61
86	5
87	11
88	1
89	1
90	0
91	18
92	3
93	16
94	3
95	15
96	1
97	10
98	3
99	10
100	2
101	81
102	23
103	11
104	1
105	6
106	1
107	3
108	0
109	3
110	3
111	36
112	31
113	31
114	3
115	7
116	7
117	161
118	9
119	16
120	1
121	2
122	1
123	6
124	3
125	10
126	5
127	80
128	10
129	19
130	4
131	14
132	2
133	9
134	2
135	3
136	1
137	3
138	2
139	14
140	4
141	8
142	6
143	35
144	54
145	219
146	21
147	19
148	16
149	219
150	20
151	41
152	35
153	11
154	4
155	9
156	1
157	3
158	1
159	23
160	5
161	47
162	4
163	6
164	1
165	5
166	1
167	2
168	1
169	3
170	2
171	6
172	1
173	3
174	1
175	79
176	10
177	43
178	4
179	6
180	2
181	35
182	3
183	7
184	4
185	381
186	42
187	38
188	3
189	1
190	0
191	0
192	0
193	7
194	1
195	2
196	0
197	3
198	1
199	0
200	0
201	0
202	0
203	11
204	1
205	3
206	0
207	5
208	2
209	16
210	2
211	4
212	27
213	30
214	5
215	2
216	1
217	77
218	14
219	78
220	8
221	9
222	1
223	0
224	0
225	0
226	0
227	0
228	0
229	0
230	0
231	0
233	0
235	2
236	0
237	1
238	0
239	0
240	0
241	0
242	1
243	2
244	4
245	21
246	4
247	3
248	0
249	1
250	0
251	30
252	3
253	5
254	0
255	0
259	0
261	0
262	0
263	2
264	0
265	0
274	0
275	1
276	2
277	161
278	27
279	28
280	4
281	2
282	0
283	0
307	1
308	1
309	14
310	75
311	15
312	17
313	2
314	1
315	0
340	2
341	0
342	1
343	0
372	0
378	0
398	0
399	0
404	0
409	0
418	1
419	0
420	0
424	1
425	0
426	0
452	3
453	3
454	1
455	1
456	0
457	0
459	0
471	0
479	0
485	9
486	2
487	3
488	0
489	0
517	4
518	1
519	1
520	0
521	0
525	0
527	1
528	0
529	0
554	1
555	0
556	0
585	0
586	1
587	0
588	0
618	130
619	21
620	47
621	5
622	7
623	2
624	1
