Mass Spectrum: Thiophene-3-acetic acid hydrazide
Formula: C6H8N2OS
CAS: 175276-94-5
Molecular weight: 156
m/z	intensity
42	11
43	9
45	206
46	1
47	20
49	12
50	26
51	34
52	16
53	86
54	4
55	2
56	1
57	14
58	18
59	4
60	1
61	4
62	7
63	15
64	2
65	3
66	0
67	1
68	4
69	56
70	31
71	26
72	2
73	1
77	1
78	0
81	7
82	8
83	3
84	8
85	4
86	2
92	1
93	6
95	24
96	83
97	999
98	80
99	49
100	3
110	8
111	8
112	4
113	3
122	1
124	511
125	86
126	29
127	4
138	0
139	2
140	1
155	0
156	633
157	69
158	32
159	3
