Mass Spectrum: Benzenesulfonic acid, 4-methyl-, cyclopentylidenehydrazide
Formula: C12H16N2O2S
CAS: 17529-98-5
Molecular weight: 252
m/z	intensity
26	4
27	45
28	14
29	74
30	36
31	9
36	0
37	1
38	6
39	131
40	57
41	365
42	31
43	18
44	22
45	5
48	0
50	8
51	21
52	8
53	130
54	35
55	29
56	19
57	1
60	0
61	0
62	4
63	22
64	5
65	141
66	17
67	556
68	168
69	47
70	5
71	0
74	0
75	0
76	0
77	23
78	8
79	14
80	312
81	21
82	5
83	0
84	0
85	0
86	0
87	0
89	21
90	8
91	193
92	61
93	21
94	1
95	8
96	416
97	999
98	54
99	0
104	0
105	1
106	14
107	8
108	4
109	0
111	1
115	0
117	0
119	0
120	0
121	1
122	0
123	4
124	10
125	0
139	62
140	83
141	9
142	3
155	6
156	4
157	57
158	4
159	1
186	0
187	1
188	9
189	0
223	1
252	71
253	17
254	4
255	0
