Mass Spectrum: 2-(Cyanomethoxy)tetrahydropyran
Formula: C7H11NO2
CAS: 17521-49-2
Molecular weight: 141
m/z	intensity
29	377
31	136
39	230
40	174
41	866
42	109
43	138
51	19
53	46
54	367
55	377
56	999
57	141
67	64
68	14
69	20
70	18
71	13
82	10
83	157
84	34
85	251
86	145
95	12
96	50
97	32
98	14
101	92
102	6
112	15
113	29
137	2
138	2
139	1
140	35
141	5
142	1
