Mass Spectrum: 2-Azabicyclo[2.2.1]heptane, 2-benzyl-7-bromo-6-methoxy-
Formula: C14H18BrNO
CAS: 175204-97-4
Molecular weight: 295
m/z	intensity
33	8
34	1
39	80
40	35
41	58
42	21
43	23
44	16
45	43
46	1
49	0
50	9
51	22
52	10
53	27
54	9
55	12
56	3
57	5
58	34
59	3
60	0
61	1
62	4
63	18
65	131
66	19
67	22
68	13
69	4
70	1
71	4
72	1
74	0
75	1
76	2
77	13
78	8
79	12
80	40
81	19
82	17
83	2
84	3
85	1
86	0
87	0
88	2
89	27
91	999
92	85
93	17
94	34
95	7
96	9
97	9
98	1
102	0
103	3
104	4
105	3
106	2
107	1
108	5
109	7
110	10
111	1
115	3
116	2
117	4
118	4
119	4
120	7
121	4
122	1
123	3
124	17
125	2
127	1
128	3
129	3
130	4
131	2
132	1
133	1
134	0
135	0
141	1
143	1
144	1
145	1
146	0
149	1
151	0
154	2
155	3
156	22
158	652
159	76
160	5
162	0
168	0
169	0
170	12
171	2
172	7
173	2
174	0
182	1
183	4
184	19
185	3
186	0
197	0
198	0
200	66
201	9
202	1
214	23
215	46
216	20
217	2
238	0
264	1
266	1
280	80
281	14
282	71
283	10
295	36
296	8
297	33
298	5
