Mass Spectrum: Hydrazinecarbothioamide, 2-(1-methylpropylidene)-
Formula: C5H11N3S
CAS: 1752-40-5
Molecular weight: 145
m/z	intensity
41	230
42	999
43	130
44	30
47	20
48	20
51	20
52	20
53	30
54	80
55	50
56	100
57	120
59	20
60	80
62	20
67	50
68	30
69	60
70	150
71	20
74	20
75	50
76	30
82	20
84	20
85	20
91	10
95	20
96	20
103	50
111	40
116	190
117	10
118	10
128	10
130	40
145	250
146	20
147	10
