Mass Spectrum: 3-Butyl-5-(phenoxymethyl)-2-oxazolidinone
Formula: C14H19NO3
CAS: 17539-83-2
Molecular weight: 249
m/z	intensity
37	6
38	33
39	281
43	999
44	49
45	5
50	35
51	116
52	13
53	17
54	35
55	90
56	153
57	241
58	15
59	0
61	1
62	7
63	30
64	16
65	141
66	38
67	7
68	58
69	19
70	48
71	6
72	8
74	7
75	4
76	9
77	228
78	27
79	55
80	5
81	7
82	9
83	6
84	68
85	8
86	67
87	1
88	0
89	0
90	0
91	14
92	5
93	21
94	100
95	14
96	4
97	0
98	4
99	24
100	28
101	0
102	0
103	4
104	1
105	27
106	3
107	86
108	10
109	0
110	2
112	68
113	15
114	11
115	1
116	0
117	0
118	0
119	3
120	1
121	12
122	0
126	0
127	0
128	1
130	0
131	1
133	51
134	8
135	7
136	1
138	1
140	0
141	3
142	15
143	0
154	0
155	8
156	29
157	2
162	0
192	0
193	0
206	21
207	3
208	0
220	1
234	0
249	25
250	3
251	0
