Mass Spectrum: di-t-Butylacetylene
Formula: C10H18
CAS: 17530-24-4
Molecular weight: 138
m/z	intensity
23	0
25	1
26	7
27	107
28	4
29	65
30	2
31	1
36	0
37	3
38	10
39	161
40	18
41	247
42	17
43	160
44	4
45	2
46	0
48	0
49	1
50	20
51	58
52	18
53	93
54	9
55	153
56	28
57	172
58	7
59	2
60	0
61	2
62	7
63	29
64	6
65	67
66	13
67	203
68	17
69	105
70	11
71	2
72	0
73	1
74	5
75	5
76	3
77	101
78	17
79	146
80	17
81	999
82	68
83	21
84	3
85	2
86	2
87	1
88	0
89	4
90	1
91	149
92	27
93	155
94	21
95	234
96	17
97	9
98	1
99	0
102	0
103	4
104	1
105	27
106	5
107	39
108	62
109	21
121	24
122	3
123	617
124	60
137	1
138	67
139	7
140	0
