Mass Spectrum: (E)-3(10)-Caren-4-ol
Formula: C10H16O
CAS: 1753-35-1
Molecular weight: 152
m/z	intensity
25	4
26	28
27	494
28	19
29	217
30	7
31	60
36	6
37	5
38	28
39	608
40	137
41	999
42	284
43	246
44	14
45	11
48	1
49	3
50	37
51	131
52	73
53	294
54	66
55	611
56	66
57	32
58	4
59	15
60	5
61	6
62	15
63	49
64	16
65	149
66	66
67	311
68	59
69	222
70	175
71	44
72	3
74	4
75	7
76	6
77	215
78	57
79	247
80	41
81	366
82	117
83	350
84	29
85	65
86	4
88	1
89	12
90	11
91	550
92	537
93	166
94	44
95	257
96	88
97	21
98	9
102	4
103	23
104	14
105	92
106	36
107	50
108	37
109	307
110	42
111	11
115	15
116	4
117	26
118	8
119	246
120	24
121	13
122	7
123	36
124	11
125	1
134	273
135	29
136	1
137	121
138	9
152	70
153	5
