Mass Spectrum: Diisopropylketone p-tosylhydrazone
Formula: C14H22N2O2S
CAS: 17530-00-6
Molecular weight: 282
m/z	intensity
26	4
27	189
28	11
29	150
30	338
31	9
34	0
36	0
37	1
38	6
39	158
40	33
41	575
42	68
43	883
44	47
45	6
46	0
47	0
48	3
49	0
50	12
51	30
52	13
53	43
54	12
55	952
56	126
57	261
58	115
59	6
60	0
61	0
62	5
63	33
64	10
65	180
66	14
67	33
68	92
69	173
70	60
71	15
72	2
73	0
74	2
75	2
76	2
77	35
78	9
79	27
80	5
81	10
82	4
83	999
84	69
85	238
86	14
87	1
88	0
89	28
90	15
91	267
92	53
93	15
94	3
95	5
96	6
97	504
98	107
99	7
100	0
103	0
104	1
105	2
106	14
107	13
108	6
109	1
110	3
111	11
112	2
113	2
114	0
115	0
116	0
117	0
118	0
119	0
120	0
121	1
122	1
123	2
124	3
125	3
126	103
127	546
128	49
129	1
130	0
131	1
132	0
133	5
134	1
139	71
140	15
141	3
142	0
143	0
146	0
150	0
155	15
156	5
157	94
158	8
159	5
160	0
171	0
172	2
175	0
183	0
186	0
216	1
217	1
226	0
239	0
240	0
253	0
254	0
267	0
268	0
281	1
282	122
283	24
284	6
285	0
