Mass Spectrum: Piperazine, 1-(2-chlorobenzyl)-
Formula: C11H15ClN2
CAS: 17532-19-3
Molecular weight: 210
m/z	intensity
33	25
39	73
40	78
41	94
42	223
43	70
44	90
45	14
46	0
50	34
51	34
52	9
54	63
56	506
57	72
58	67
60	3
63	122
64	16
65	31
66	1
67	3
68	6
69	7
70	20
71	19
72	22
73	21
75	36
76	10
77	20
78	5
79	3
81	8
82	5
83	33
85	193
86	14
87	11
89	199
90	54
91	64
95	0
97	7
99	73
101	22
102	8
103	10
104	5
105	12
106	5
111	2
112	2
113	0
114	1
115	4
116	6
117	14
118	20
119	6
120	11
121	1
125	999
127	386
130	13
131	6
132	18
133	1
134	3
138	18
139	6
140	10
141	8
142	2
143	4
144	7
146	56
147	5
149	0
152	37
153	41
154	98
155	24
156	30
157	4
160	0
165	14
166	38
168	693
169	86
170	189
171	19
173	8
175	220
176	20
177	1
178	1
180	25
181	9
182	15
183	3
184	1
194	1
195	2
207	2
209	106
210	143
211	43
212	46
213	5
