Mass Spectrum: Bicyclo[3.1.0]hexan-3-one
Formula: C6H8O
CAS: 1755-04-0
Molecular weight: 96
m/z	intensity
26	47
27	164
39	553
40	231
41	261
42	181
50	70
51	80
53	573
54	254
55	50
63	28
65	78
66	70
67	962
68	999
69	62
81	62
94	11
96	509
97	37
