Mass Spectrum: Furan, 2,3,3-trichlorotetrahydro-
Formula: C4H5Cl3O
CAS: 17557-41-4
Molecular weight: 174
m/z	intensity
35	32
36	39
37	72
38	127
39	588
40	55
41	66
42	9
43	6
44	7
45	0
47	34
48	26
49	131
50	20
51	40
52	8
53	6
55	4
56	0
57	1
58	0
59	1
60	13
61	22
62	6
63	52
65	17
66	0
67	3
68	4
69	17
70	2
71	1
72	9
73	57
75	999
77	342
78	15
80	0
82	12
83	59
84	8
85	42
87	9
89	0
90	0
94	0
95	3
96	1
97	3
98	1
102	6
103	13
104	24
105	5
106	6
107	1
109	69
110	344
111	128
112	216
113	60
114	37
115	9
117	0
119	0
130	3
132	3
134	0
139	285
140	16
141	177
143	36
144	1
174	0
