Mass Spectrum: 11-Hydroxyandrosterone (3.alpha.,5.alpha.,11.beta.)-, TMS derivative
Formula: C22H38O3Si
CAS: 17562-91-3
Molecular weight: 378
m/z	intensity
41	849
42	100
43	709
44	100
45	260
46	20
47	189
48	9
49	9
50	9
51	20
52	20
53	200
54	49
55	889
56	100
57	249
58	49
59	200
60	49
61	289
62	20
63	9
65	100
66	49
67	749
68	149
69	400
70	109
71	149
72	80
73	999
74	200
75	999
76	189
77	389
78	100
79	700
80	149
81	809
82	120
83	209
84	149
85	100
86	9
87	20
88	9
89	100
90	9
91	720
92	200
93	769
94	289
95	629
96	129
97	489
98	100
99	80
100	9
101	149
102	20
103	100
104	60
105	649
106	609
107	949
108	449
109	589
110	149
111	109
112	29
113	49
114	9
115	120
116	100
117	209
118	149
119	449
120	269
121	400
122	200
123	200
124	109
125	49
126	20
127	89
128	49
129	600
130	300
131	380
132	160
133	389
134	220
135	229
136	100
137	109
138	29
139	49
140	9
141	69
142	189
143	209
144	200
145	380
146	129
147	669
148	249
149	349
150	120
151	80
152	80
153	20
154	9
155	389
156	120
157	169
158	109
159	280
160	120
161	200
162	120
163	200
164	49
165	100
166	20
167	89
168	20
169	100
170	29
171	149
172	109
173	209
174	200
175	249
176	100
177	120
178	120
179	49
180	49
181	80
182	100
183	100
184	29
185	120
186	49
187	120
188	100
189	100
190	40
191	109
192	20
193	9
195	49
196	80
197	100
198	20
199	220
200	49
201	89
202	29
203	89
204	9
205	49
206	9
207	49
209	29
211	100
212	49
213	300
214	149
215	100
216	60
217	49
218	9
219	49
221	20
223	9
225	20
226	49
227	120
228	120
229	200
230	100
231	149
232	80
233	49
234	20
237	80
238	9
241	100
242	149
243	49
244	80
245	100
246	20
247	209
248	49
249	49
251	49
252	80
253	100
254	9
255	509
256	109
257	9
259	20
260	20
269	380
270	999
271	300
272	49
273	189
274	49
287	49
288	700
289	169
290	9
304	9
305	20
345	120
346	49
360	200
361	80
362	9
363	369
364	100
365	29
378	600
379	200
380	49
