Mass Spectrum: Germanium, dichlorobis(2,4-pentanedionato)-
Formula: C10H14Cl2GeO4
CAS: 17569-18-5
Molecular weight: 342
m/z	intensity
33	5
35	3
36	19
37	2
38	12
39	25
40	17
41	14
43	999
44	19
45	1
49	0
50	1
51	2
53	9
54	3
55	21
56	2
57	1
58	0
62	0
63	0
64	0
65	0
66	1
67	5
68	2
69	20
70	2
71	2
72	1
73	0
74	1
75	0
77	0
81	1
82	1
83	10
84	5
85	17
87	18
89	22
90	7
91	24
92	0
93	5
95	1
97	4
98	3
99	6
100	7
101	1
102	0
103	0
105	38
107	65
108	16
109	78
110	6
111	36
113	7
115	4
117	0
118	0
120	0
121	0
123	0
124	0
125	0
126	0
127	1
129	6
130	1
131	6
132	1
133	6
134	1
135	2
136	1
137	1
138	0
139	2
140	3
141	2
142	4
143	4
144	10
145	12
146	16
147	6
148	2
149	1
150	1
151	2
152	9
154	8
155	13
156	8
157	8
158	2
159	4
160	1
161	7
163	12
164	2
165	10
166	2
167	8
168	5
169	92
170	13
171	116
172	48
173	148
175	44
176	2
177	5
178	1
179	13
180	2
181	20
182	4
183	25
184	4
185	18
186	2
187	8
189	13
190	2
191	17
192	5
193	20
194	2
195	9
196	1
197	5
198	1
199	16
200	4
201	29
202	7
203	34
204	10
205	25
206	13
207	16
208	14
209	7
210	5
211	2
212	0
218	0
219	1
221	25
222	4
223	40
224	12
225	49
226	6
227	21
228	1
229	4
230	0
231	0
234	0
236	1
239	168
241	334
242	91
243	410
244	68
245	245
246	22
247	68
248	7
249	17
250	1
251	5
252	0
253	0
261	6
263	12
264	3
265	14
266	2
267	7
268	0
269	2
271	1
272	0
287	0
289	0
291	0
299	0
300	1
303	112
304	19
305	172
306	63
307	218
308	40
309	93
310	11
311	12
312	0
