Mass Spectrum: 1-Hepten-1-ol, acetate, (Z)-
Formula: C9H16O2
CAS: 17574-86-6
Molecular weight: 156
m/z	intensity
30	17
31	274
39	52
41	100
42	35
43	999
45	122
46	62
53	17
54	25
55	52
56	20
57	348
58	30
66	7
67	37
68	132
69	20
70	47
71	50
72	35
81	97
82	15
83	7
84	5
85	22
86	27
95	15
96	182
97	22
99	17
100	10
113	7
114	107
115	7
156	47
157	7
