Mass Spectrum: N-(4-Methylphenyl)-2-furancarbothioamide
Formula: C12H11NOS
CAS: 17572-11-1
Molecular weight: 217
m/z	intensity
39	491
41	39
45	78
50	29
52	31
55	29
57	69
63	49
65	158
69	30
71	38
77	99
83	81
91	358
94	198
100	9
107	170
111	999
124	610
173	29
184	540
188	49
216	430
217	920
