Mass Spectrum: 1,4-Pentalenediol, octahydro-, diacetate, (1.alpha.,3a.alpha.,4.alpha.,6a.alpha.)-
Formula: C12H18O4
CAS: 17572-85-9
Molecular weight: 226
m/z	intensity
25	2
26	4
27	55
28	16
29	61
30	4
31	13
35	2
36	9
38	5
39	72
40	20
41	158
42	36
43	999
44	78
45	18
47	3
49	3
50	6
51	17
52	12
53	51
54	36
55	101
56	20
57	55
58	15
59	4
60	8
61	31
62	2
63	7
64	4
65	34
66	110
67	328
68	98
69	26
70	25
71	20
72	5
73	6
74	4
75	5
76	4
77	68
78	171
79	264
80	340
81	195
82	167
83	170
84	28
85	12
86	10
87	2
88	2
89	3
90	4
91	124
92	16
93	46
94	26
95	303
96	169
97	39
98	8
99	17
100	9
101	3
102	4
103	31
104	20
105	90
106	874
107	249
108	27
109	34
110	14
111	5
112	6
113	5
114	4
115	7
116	1
117	3
118	1
119	3
120	5
121	8
122	72
123	181
124	335
125	174
126	17
127	8
128	13
129	4
130	1
131	2
132	1
133	3
134	2
135	2
136	2
137	7
138	15
139	5
140	6
141	20
142	5
143	2
144	2
145	2
146	1
147	2
148	6
151	9
165	4
166	106
167	21
183	7
184	6
