Mass Spectrum: 2-Pentenoic acid, 5-[decahydro-5-(hydroxymethyl)-5,8a-dimethyl-2-methylene-1-naphthalenyl]-3-methyl-, methyl ester, [1S-[1.alpha.(E),4a.beta.,5.alpha.,8a.alpha.]]-
Formula: C21H34O3
CAS: 1757-87-5
Molecular weight: 334
m/z	intensity
15	20
16	4
17	30
18	134
27	36
28	12
29	93
30	4
31	40
39	73
40	16
41	306
42	28
43	228
44	34
45	36
51	12
52	10
53	140
54	44
55	393
56	36
57	132
58	10
59	93
65	57
66	22
67	330
68	55
69	236
70	32
71	97
72	8
73	16
74	26
75	6
77	155
78	36
79	330
80	65
81	665
82	330
83	306
84	46
85	77
86	4
87	28
91	312
92	61
93	567
94	130
95	669
96	93
97	171
98	30
99	46
100	20
101	28
102	8
103	32
104	14
105	310
106	114
107	648
108	175
109	579
110	91
111	136
112	36
113	24
114	999
115	104
116	44
117	65
118	32
119	291
120	193
121	591
122	377
123	571
124	79
125	83
126	24
127	73
128	32
129	36
130	18
131	85
132	36
133	244
134	122
135	469
136	120
137	83
138	36
139	112
140	44
141	40
142	16
143	30
144	24
145	104
146	44
147	342
148	89
149	224
150	59
151	53
152	49
153	375
154	51
155	44
156	12
157	30
158	14
159	110
160	34
161	230
162	81
163	228
164	49
165	65
166	46
167	53
168	10
169	44
170	6
171	26
172	16
173	126
174	40
175	200
176	51
177	110
178	28
179	36
180	67
181	53
182	12
183	24
184	4
185	24
186	12
187	85
188	28
189	289
190	79
191	59
192	26
193	169
194	108
195	134
196	24
197	26
198	20
199	32
200	12
201	61
202	71
203	285
204	53
205	26
206	16
207	73
208	30
209	12
210	4
211	12
213	22
214	10
215	40
216	14
217	32
218	14
219	32
220	69
221	289
222	53
223	12
225	16
226	4
227	40
228	16
229	91
230	42
231	36
232	12
233	55
234	20
235	12
236	4
237	4
238	4
239	16
240	4
241	44
242	36
243	212
244	57
245	57
246	22
247	28
248	24
249	10
251	10
253	30
254	10
255	30
256	26
257	65
258	22
259	57
260	126
261	46
262	10
267	14
269	24
271	159
272	75
273	36
274	57
275	44
276	12
284	20
285	57
286	16
287	51
288	18
289	159
290	34
291	75
292	14
300	53
301	114
302	806
303	540
304	122
305	24
316	73
317	20
318	4
319	195
320	49
334	175
335	40
