Mass Spectrum: Pentalene, octahydro-1,4-divinyl-
Formula: C12H18
CAS: 17572-84-8
Molecular weight: 162
m/z	intensity
15	10
17	20
18	110
26	20
27	190
28	50
29	110
38	10
39	310
40	60
41	590
42	60
43	40
44	10
50	20
51	60
52	40
53	170
54	560
55	220
56	80
57	10
63	20
65	90
66	100
67	999
68	250
69	130
70	30
77	200
78	80
79	520
80	330
81	350
82	380
83	50
84	20
88	20
91	280
92	180
93	510
94	160
95	230
96	30
103	10
105	150
106	220
107	120
108	100
109	20
110	220
111	20
112	20
115	10
117	10
119	220
120	130
121	90
133	240
134	130
135	20
147	90
148	10
162	68
163	9
