Mass Spectrum: 2,6-Nonadienal, (E,E)-
Formula: C9H14O
CAS: 17587-33-6
Molecular weight: 138
m/z	intensity
25	8
26	11
27	160
28	200
29	59
30	8
34	9
35	6
36	7
38	9
39	238
40	33
41	999
42	43
43	12
45	6
46	11
48	5
51	24
52	24
53	74
54	9
55	57
60	14
61	4
63	13
64	6
65	10
66	9
67	60
68	48
69	444
70	369
71	17
77	24
78	8
79	29
80	10
81	31
82	12
83	5
85	4
87	7
91	18
93	1
94	6
95	20
96	5
101	6
106	8
107	1
108	11
109	17
110	2
111	5
