Mass Spectrum: 4-[(1,4-Dioxo-1,4-dihydronaphthalen-2-yl)amino]phenyl acetate
Formula: C18H13NO4
CAS: 175886-03-0
Molecular weight: 307
m/z	intensity
34	1
37	3
38	24
39	106
40	19
41	23
42	66
43	999
44	48
45	6
50	94
51	123
52	55
53	77
54	8
55	20
56	3
57	10
59	7
60	1
61	2
62	21
63	104
64	46
65	96
66	15
67	3
68	14
69	9
70	3
71	4
73	2
74	30
75	105
76	227
77	170
78	33
79	6
80	6
81	9
82	3
83	1
84	9
86	1
87	4
88	7
89	57
90	16
91	5
92	3
93	11
94	5
96	2
98	1
99	1
101	65
102	42
103	10
104	65
105	104
106	7
107	1
114	2
115	6
116	3
118	2
119	1
120	10
121	1
126	2
127	5
128	4
129	9
130	5
131	1
132	9
133	3
146	1
151	2
152	8
153	2
160	2
176	2
180	1
181	1
201	4
220	13
236	44
237	11
264	31
265	693
266	70
307	195
308	21
