Mass Spectrum: Benzamide, N-cyclohexyl-
Formula: C13H17NO
CAS: 1759-68-8
Molecular weight: 203
m/z	intensity
15	1
26	1
27	18
28	22
29	12
30	5
31	1
37	1
38	2
39	24
40	3
41	42
42	8
43	12
44	25
45	1
49	1
50	23
51	95
52	9
53	9
54	30
55	19
56	11
57	2
62	1
63	2
64	1
65	5
66	2
67	56
68	5
69	8
70	3
71	1
73	1
74	5
75	8
76	27
77	488
78	39
79	101
80	8
81	9
82	39
83	6
84	1
91	2
92	3
96	4
97	13
98	24
99	2
102	1
103	21
104	16
105	999
106	85
107	6
117	1
118	1
119	1
120	2
121	2
122	895
123	77
124	4
126	1
130	1
132	1
133	1
134	7
135	4
139	1
146	11
147	4
148	5
149	1
156	1
160	53
161	9
162	3
174	9
175	1
186	1
188	2
202	22
203	376
204	59
205	5
