Mass Spectrum: Silane, methylenebis-
Formula: CH8Si2
CAS: 1759-88-2
Molecular weight: 76
m/z	intensity
29	90
31	50
41	40
43	420
44	430
45	550
46	50
47	20
56	30
57	50
58	30
59	20
60	20
68	80
69	570
70	260
71	300
72	810
73	440
74	760
75	999
76	170
77	70
78	10
