Mass Spectrum: 2,2-Dichlorocyclopropyl isocyanate
Formula: C4H3Cl2NO
CAS: 176041-73-9
Molecular weight: 151
m/z	intensity
35	72
36	46
37	81
38	82
39	60
40	57
41	40
42	38
44	15
47	69
49	52
51	108
52	184
53	28
55	106
56	64
58	11
61	465
63	322
65	64
68	5
69	3
73	36
74	6
75	7
76	1
78	0
80	23
82	48
83	23
84	24
85	17
86	20
88	70
90	97
92	25
96	109
98	64
100	10
101	0
109	48
111	30
113	9
116	999
118	383
119	12
120	0
122	3
123	1
124	1
125	0
126	0
137	0
150	10
151	7
152	5
153	3
154	0
155	0
