Mass Spectrum: Ergosta-7,22-dien-3-ol, (3.beta.,22E)-
Formula: C28H46O
CAS: 17608-76-3
Molecular weight: 398
m/z	intensity
41	475
43	999
44	25
45	89
49	8
51	5
53	86
55	789
57	183
59	123
65	41
67	293
68	36
69	528
70	28
71	130
77	113
78	17
79	332
81	518
82	122
83	156
84	38
85	16
86	22
91	349
92	49
93	216
94	92
95	229
96	40
97	57
98	51
99	64
105	283
106	29
107	353
108	35
109	209
111	22
115	46
117	144
118	19
119	180
120	39
121	108
123	74
124	47
125	88
128	21
129	46
131	119
132	39
133	155
134	45
135	133
137	17
143	86
144	16
145	176
146	21
147	161
149	50
151	16
155	17
157	47
159	107
161	174
171	57
173	71
175	59
177	36
185	46
187	54
189	17
199	39
201	19
211	16
213	96
215	34
229	88
231	69
243	16
246	94
247	20
253	19
255	133
257	56
259	22
269	22
271	391
272	89
273	121
274	16
299	25
300	65
383	51
398	152
399	42
