Mass Spectrum: 6-Heptenoic acid, 3-oxo-, ethyl ester
Formula: C9H14O3
CAS: 17605-06-0
Molecular weight: 170
m/z	intensity
41	460
42	390
43	829
53	210
54	619
55	999
60	100
68	130
69	589
79	60
81	110
82	559
83	430
87	390
96	160
101	40
115	190
124	140
125	60
130	10
142	20
152	10
156	10
170	110
