Mass Spectrum: 1-Methylcholest-1,3,5(10)-trien-3-ol
Formula: C27H42O
CAS: 17605-79-7
Molecular weight: 382
m/z	intensity
41	397
42	77
43	999
44	29
51	2
53	39
54	8
55	188
56	28
57	149
58	7
65	7
67	55
68	7
69	89
70	12
71	80
72	3
77	24
78	4
79	52
80	5
81	60
82	6
83	16
85	8
91	41
92	2
93	17
94	4
95	43
96	4
97	12
103	6
104	1
105	23
106	5
107	21
108	3
109	18
111	3
113	1
115	25
116	10
117	15
118	1
119	11
120	1
121	34
122	7
123	7
127	9
128	11
129	13
130	8
131	25
132	15
133	14
134	11
135	13
137	1
141	16
142	7
143	11
144	15
145	49
146	14
147	118
148	16
149	4
151	3
152	4
153	5
155	7
157	17
158	34
159	69
160	66
161	27
162	1
163	1
165	5
167	1
169	6
170	4
171	37
172	25
173	81
174	58
175	11
179	4
181	4
183	2
184	3
185	21
186	49
187	19
188	1
193	1
195	2
196	1
197	7
198	3
199	15
200	9
201	1
211	5
212	3
213	23
214	10
215	2
225	7
226	1
227	90
228	25
229	7
241	6
242	23
243	3
247	1
269	1
367	7
380	3
381	6
382	329
383	92
384	18
