Mass Spectrum: 2-Nonacosanone
Formula: C29H58O
CAS: 17600-99-6
Molecular weight: 422
m/z	intensity
53	32
54	39
55	315
56	106
57	443
58	803
59	999
60	28
67	91
68	44
69	227
70	38
71	615
72	42
74	33
79	28
81	92
82	174
83	185
84	58
85	249
86	22
87	12
94	11
95	120
96	274
97	178
98	26
99	59
100	53
105	10
109	58
110	70
111	70
112	8
113	43
114	34
115	9
123	53
124	10
125	47
127	59
135	9
137	12
139	8
147	11
151	10
152	10
177	10
180	10
193	27
207	30
208	17
209	43
221	12
222	10
226	8
237	8
249	10
251	13
267	33
278	11
283	20
292	9
295	10
306	22
320	26
325	11
327	12
334	8
342	13
343	33
355	7
362	76
363	27
364	36
365	17
376	9
379	9
393	10
394	8
404	130
405	36
407	102
408	27
415	19
422	452
423	152
424	29
