Mass Spectrum: 3-Heptene, 2-methyl-
Formula: C8H16
CAS: 17618-76-7
Molecular weight: 112
m/z	intensity
27	374
29	212
38	27
39	318
40	55
41	720
42	83
43	145
44	5
50	22
51	44
52	16
53	106
54	22
55	927
56	553
57	106
58	5
65	22
67	72
68	72
69	999
70	178
71	11
77	16
79	11
81	22
82	5
83	61
84	33
95	5
97	83
98	5
112	229
113	16
