Mass Spectrum: Oxirane, 2,2-dimethyl-3-propyl-
Formula: C7H14O
CAS: 17612-35-0
Molecular weight: 114
m/z	intensity
41	850
42	337
43	999
44	119
45	50
50	4
51	18
52	4
53	41
54	18
55	372
56	195
57	310
58	275
59	983
60	46
67	6
69	16
71	137
72	172
80	2
81	11
83	13
84	9
85	839
86	64
87	6
97	6
99	80
114	18
115	11
