Mass Spectrum: 1,3,2-Oxazaphosphorinane-2-thione, 3-(1-phenylethyl)-2-phenylthio-
Formula: C17H20NOPS2
CAS: 176102-69-5
Molecular weight: 349
m/z	intensity
33	3
34	5
35	0
36	0
37	2
38	8
39	76
40	11
41	66
42	24
43	4
44	7
45	20
46	8
47	25
48	1
49	3
50	22
51	69
52	12
53	10
54	8
56	125
57	29
58	8
59	7
60	4
61	2
63	76
64	11
65	88
66	19
67	2
69	31
70	4
71	4
72	9
73	5
74	9
75	11
76	32
77	200
78	50
79	156
80	13
81	5
82	9
83	5
84	25
85	2
86	8
87	1
88	2
89	10
90	8
91	79
92	7
93	3
94	1
95	3
96	3
97	6
98	1
99	0
100	0
102	21
103	98
104	167
105	999
106	84
108	81
109	81
110	37
111	6
112	1
113	0
115	2
116	2
117	6
118	11
119	2
120	4
121	6
122	1
123	2
124	1
125	2
126	3
127	1
128	1
129	0
130	5
131	2
132	8
133	3
134	9
136	581
137	34
138	26
139	3
140	2
141	14
142	2
143	2
144	2
146	5
147	1
148	2
149	2
150	2
151	1
152	3
153	0
154	0
155	2
156	0
157	1
158	1
159	1
160	15
161	2
162	2
163	0
164	3
165	2
166	1
167	0
168	0
170	0
171	3
172	0
173	0
175	2
176	2
177	0
178	1
179	0
180	2
181	1
182	1
183	4
184	1
185	0
187	5
188	0
189	0
190	0
192	1
193	0
197	0
198	3
199	1
200	0
201	0
204	0
206	8
207	1
208	19
209	2
210	3
211	0
212	5
213	5
214	1
215	0
216	0
218	0
224	0
225	0
226	0
230	0
236	0
238	12
240	589
241	71
242	26
243	3
244	0
245	0
256	1
257	0
258	0
272	0
300	0
314	0
316	7
317	1
318	0
334	0
347	0
349	14
350	2
351	1
352	0
