Mass Spectrum: 3-Pyridinemethanethiol
Formula: C6H7NS
CAS: 17617-05-9
Molecular weight: 125
m/z	intensity
40	39
41	25
42	4
44	25
45	181
46	26
47	41
48	4
49	17
50	57
51	105
52	50
53	39
54	5
56	3
57	7
58	13
59	3
60	4
61	9
62	72
63	143
64	74
65	598
66	42
67	19
68	5
69	35
70	11
71	13
75	3
76	4
78	47
79	15
80	47
81	4
82	4
83	3
84	3
90	3
91	6
92	999
93	80
94	4
95	8
96	3
97	17
123	3
124	10
125	489
126	43
127	23
