Mass Spectrum: Cyclobutane(1,6)spiro(2,3-diazabicyclo[3.1.0]hex-2-ene)-4-spirocyclopropane
Formula: C9H12N2
CAS: 176172-15-9
Molecular weight: 148
m/z	intensity
38	136
39	658
40	131
41	211
42	20
43	4
50	77
51	181
52	173
53	244
54	66
55	21
56	3
57	4
58	4
61	30
63	129
65	279
66	330
67	68
69	55
74	7
75	11
77	236
79	385
80	51
81	33
82	3
85	3
89	19
91	999
92	235
93	56
94	12
103	56
105	204
106	15
107	3
108	3
115	9
117	15
119	75
120	430
121	27
133	7
140	4
147	9
148	6
