Mass Spectrum: Picrotoxinin
Formula: C15H16O6
CAS: 17617-45-7
Molecular weight: 292
m/z	intensity
41	621
42	20
43	999
44	42
45	37
47	20
48	8
49	86
50	34
51	164
52	70
53	285
54	75
55	696
56	83
57	75
58	3
59	938
60	11
61	9
62	9
63	44
64	20
65	204
66	92
67	517
68	117
69	352
70	37
71	114
72	9
73	9
74	5
75	10
76	8
77	236
78	64
79	204
80	92
81	180
82	138
83	220
84	120
85	148
86	42
87	13
88	7
89	19
90	16
91	272
92	43
93	85
94	66
95	599
96	481
97	460
98	93
99	28
100	6
101	6
102	11
103	43
104	49
105	162
106	50
107	196
108	171
109	454
110	203
111	163
112	41
113	103
114	40
115	70
116	28
117	90
118	31
119	74
120	70
121	216
122	70
123	129
124	124
125	136
126	104
127	44
128	24
129	29
130	14
131	65
132	30
133	121
134	128
135	347
136	105
137	104
138	137
139	191
140	100
141	25
142	11
143	18
144	12
145	169
146	40
147	89
148	165
149	511
150	88
151	122
152	128
153	60
154	8
155	83
156	47
157	15
158	12
159	42
160	21
161	124
162	41
163	84
164	44
165	131
166	23
167	14
168	59
169	62
170	27
171	13
172	7
173	29
174	15
175	63
176	52
177	42
178	22
179	32
180	23
181	113
182	12
183	5
184	3
185	13
186	6
187	31
188	14
189	53
190	24
191	39
192	115
193	203
194	27
195	10
196	7
197	15
198	2
199	4
200	4
201	10
202	9
203	19
204	9
205	34
206	22
207	31
208	12
209	8
210	42
211	28
212	3
213	12
214	2
215	19
216	7
217	14
218	4
219	11
220	27
221	8
222	3
223	3
224	7
225	1
227	2
228	2
229	12
230	4
231	18
232	4
233	88
234	34
235	9
236	2
237	2
238	4
239	0
241	7
242	1
243	0
244	0
245	4
246	7
247	14
248	7
249	12
250	2
251	70
252	259
253	38
254	6
255	0
256	0
257	0
259	60
260	8
261	2
262	1
263	1
264	7
265	4
266	1
267	0
274	31
275	7
276	1
277	71
278	12
279	3
292	150
293	42
294	15
