Mass Spectrum: 2,5-Dimethyl-4-benzyl-pyridine
Formula: C14H15N
CAS: 17618-53-0
Molecular weight: 197
m/z	intensity
25	10
26	50
27	183
29	164
30	63
31	67
34	17
36	27
37	11
38	31
39	423
40	210
41	219
42	170
43	134
45	55
46	17
50	71
51	237
52	115
53	127
54	42
55	83
56	41
57	42
58	12
60	25
62	29
63	147
64	62
65	365
66	49
67	51
68	41
69	40
70	29
71	26
73	13
74	26
75	43
76	84
77	408
78	186
79	110
80	43
81	34
82	71
83	35
84	27
85	20
86	14
87	27
88	19
89	120
90	71
91	846
92	91
93	69
94	28
95	24
96	17
97	33
98	29
99	29
100	40
101	60
102	66
103	43
104	68
105	29
106	136
107	23
109	12
110	10
111	13
112	10
113	28
114	22
115	339
116	62
117	41
118	215
119	999
120	643
121	24
126	34
127	11
128	203
129	87
130	33
131	27
132	12
138	10
139	91
140	50
141	190
142	40
143	80
144	21
150	17
151	54
152	196
153	176
154	85
155	91
156	75
157	15
163	13
164	18
165	89
166	69
167	277
168	72
169	30
170	17
177	12
178	33
179	43
180	198
181	365
182	441
183	96
191	10
192	16
193	43
194	83
195	111
196	475
197	999
198	438
