Mass Spectrum: 2-Methoxy-7-chloro-5-[3-dimethylaminopropyl]-5H-dibenz[b,f]azepine
Formula: C20H23ClN2O
CAS: 17620-31-4
Molecular weight: 342
m/z	intensity
41	20
42	97
43	33
44	62
45	4
46	1
47	2
48	1
49	12
50	2
51	9
52	2
53	1
54	1
55	5
56	17
58	999
59	44
60	0
62	2
63	8
64	1
65	2
67	1
68	2
70	74
71	20
72	25
73	2
74	2
75	6
76	3
77	4
78	0
79	0
80	1
81	0
82	6
84	100
85	255
86	44
87	2
88	4
89	4
90	0
91	1
94	1
95	2
96	1
97	0
98	21
99	4
100	2
101	3
102	2
103	1
108	0
109	1
110	2
111	2
112	1
113	2
114	2
115	3
116	1
117	2
121	1
123	2
125	5
126	6
127	4
128	1
129	2
130	1
131	1
132	2
133	0
134	2
135	4
136	1
137	1
138	2
139	3
140	3
141	0
145	1
146	4
147	13
148	4
149	4
150	9
151	13
152	12
153	3
154	2
155	1
158	12
159	2
160	2
161	1
162	4
163	12
164	11
165	10
166	3
167	1
169	0
171	9
172	3
173	0
174	2
175	3
176	8
177	16
178	69
179	11
180	1
186	3
187	2
188	4
189	4
190	12
191	18
192	13
193	5
194	0
197	0
199	23
200	4
201	10
202	5
203	6
204	21
205	5
206	8
207	1
208	2
211	1
212	10
213	42
214	13
215	15
216	5
217	3
218	4
219	5
220	13
221	3
222	2
223	1
224	0
225	4
226	9
227	10
228	7
229	4
230	5
231	4
232	3
233	2
234	19
235	8
236	4
237	0
238	12
239	7
240	11
241	6
242	16
243	36
244	13
245	13
246	7
247	42
248	10
249	6
250	1
251	6
252	4
253	6
254	11
255	8
256	87
257	216
258	60
259	64
260	13
261	9
262	15
263	3
264	2
265	5
266	9
267	8
268	12
269	61
270	66
271	87
272	29
273	21
274	3
280	1
281	6
282	85
283	21
284	49
285	9
286	5
287	1
294	0
295	1
296	110
297	125
298	64
299	44
300	7
301	1
327	2
329	1
330	0
333	1
335	1
339	1
340	0
341	2
342	171
343	42
344	57
345	13
346	1
