Mass Spectrum: 7-Acetyl-9-(2-chloroethyl)-7,8-diazatetracyclo[4.3.0.0(2,4).0(3,5)]non-8-ene
Formula: C11H13ClN2O
CAS: 176214-78-1
Molecular weight: 224
m/z	intensity
33	1
35	3
36	7
37	22
38	73
39	296
40	46
41	83
43	895
44	16
45	2
47	2
49	41
50	109
51	234
52	999
53	87
54	32
55	25
56	3
57	1
58	1
61	12
62	39
63	88
64	36
65	116
66	41
67	16
68	12
69	8
73	6
74	10
75	21
76	20
77	95
78	106
79	25
80	12
81	51
82	6
85	2
86	3
87	4
88	3
89	27
90	25
91	76
92	45
93	41
94	24
95	30
96	2
99	1
101	3
102	12
103	48
104	76
105	16
106	26
107	9
108	1
111	12
112	1
113	1
115	34
116	10
117	26
118	27
119	79
120	13
121	4
125	1
128	2
129	4
130	9
131	20
132	35
133	39
134	4
135	2
136	3
137	1
143	7
145	59
147	386
148	33
149	2
153	5
154	2
155	3
156	1
161	3
175	9
176	1
181	117
182	42
183	38
184	12
185	1
188	1
189	7
190	1
195	2
209	4
211	1
224	76
225	10
226	22
227	3
