Mass Spectrum: Thiazolidin-4-one, 5-ethyl-2-imino-
Formula: C5H8N2OS
CAS: 1762-69-2
Molecular weight: 144
m/z	intensity
33	79
34	31
35	5
37	114
38	242
39	827
40	12
41	949
42	844
43	399
45	999
46	207
47	191
48	13
49	15
50	32
51	42
52	18
53	40
54	26
55	111
56	18
57	44
58	167
59	284
60	169
61	28
62	13
63	10
64	7
65	10
67	8
68	23
69	187
70	125
71	103
72	43
73	110
74	630
75	43
76	40
77	46
78	4
82	2
83	4
86	23
87	41
88	3
91	5
93	2
98	2
102	59
103	7
105	25
107	2
111	13
112	3
115	25
116	269
117	14
118	13
129	15
130	3
144	38
145	3
