Mass Spectrum: Indan, 1-benzylidenehexahydro-7a-methyl-, cis-
Formula: C17H22
CAS: 17622-49-0
Molecular weight: 226
m/z	intensity
41	324
42	25
43	58
50	32
51	120
52	40
53	120
54	21
55	144
56	19
57	23
60	17
62	19
63	68
64	30
65	141
66	25
67	126
68	23
69	32
71	17
75	17
76	43
77	187
78	68
79	150
80	25
81	109
82	23
83	25
89	58
90	19
91	999
92	116
93	137
94	47
95	94
96	23
102	38
103	45
104	25
105	94
106	21
107	70
108	30
109	27
115	197
116	64
117	103
118	43
119	58
120	8
121	38
122	49
127	53
128	141
129	225
130	58
131	526
132	70
133	36
134	38
135	212
136	32
139	19
141	129
142	73
143	79
144	45
145	17
149	19
151	21
152	47
153	47
154	34
155	101
156	25
157	17
165	49
166	19
167	43
168	30
169	116
170	51
171	17
178	17
179	17
181	19
182	21
183	178
184	193
185	32
197	45
211	365
212	73
224	21
225	23
226	344
227	68
