Mass Spectrum: Guanidino-l-hydroxyproline
Formula: C6H11N3O3
CAS: 176370-06-2
Molecular weight: 173
m/z	intensity
41	16
42	470
43	227
44	39
45	43
46	4
47	3
52	3
53	6
54	12
55	31
56	98
57	14
58	12
59	2
60	4
61	4
62	2
63	8
65	1
66	4
67	14
68	191
69	154
70	26
71	21
72	30
73	15
74	5
75	1
76	2
77	8
78	21
79	5
81	16
83	225
84	84
85	94
86	233
87	22
88	1
91	10
93	10
94	10
95	17
96	1
97	1
98	6
99	30
100	4
101	3
102	2
104	5
105	6
106	13
107	6
108	5
110	56
111	999
112	77
113	12
114	4
115	4
116	2
117	3
119	1
121	1
122	1
123	1
124	6
126	14
127	27
128	1
133	1
136	3
137	14
138	14
139	2
140	1
144	1
147	3
148	1
149	4
150	1
151	2
152	7
153	2
155	225
156	125
157	9
158	1
172	1
173	8
174	1
