Mass Spectrum: 1,5-Hexadiene, 3,3,4,4-tetrafluoro-
Formula: C6H6F4
CAS: 1763-21-9
Molecular weight: 154
m/z	intensity
27	39
31	13
33	3
39	16
51	216
57	29
69	5
75	27
77	999
78	33
95	11
115	32
134	8
135	3
139	1
153	4
154	3
