Mass Spectrum: Acetic acid, (1-methylethoxy)-, 1-methylethyl ester
Formula: C8H16O3
CAS: 17639-74-6
Molecular weight: 160
m/z	intensity
14	2
15	18
16	1
17	1
18	3
19	2
26	6
27	106
28	46
29	66
30	4
31	158
32	10
33	2
36	0
37	1
38	2
39	33
40	8
41	164
42	60
43	999
44	34
45	209
46	4
47	2
49	7
51	11
55	16
56	2
57	6
58	7
59	310
60	201
61	31
62	1
65	5
69	2
70	2
71	2
72	2
73	319
74	13
75	52
76	2
77	16
78	0
79	5
83	0
85	0
86	1
87	8
88	20
89	7
90	0
95	1
100	0
101	2
102	118
103	84
104	4
105	1
117	16
118	2
121	6
122	0
123	2
129	0
131	2
145	0
157	0
160	0
