Mass Spectrum: N-(3-Methoxybenzylidene)aniline
Formula: C14H13NO
CAS: 17637-72-8
Molecular weight: 211
m/z	intensity
12	4
13	7
15	628
17	2
18	7
25	2
26	19
27	68
28	28
29	53
30	7
31	9
37	21
38	75
39	193
40	12
41	10
42	3
43	4
45	1
50	162
51	502
52	58
53	16
54	2
55	4
57	4
61	13
62	52
63	185
64	127
65	99
66	16
67	2
70	5
74	47
75	54
76	111
77	999
78	151
79	25
80	3
82	2
83	13
85	2
86	6
87	9
88	10
89	34
90	31
91	33
92	63
93	31
94	3
98	4
99	3
100	3
101	5
102	16
103	29
104	179
105	19
107	32
108	31
109	4
113	8
114	10
115	36
116	8
117	3
118	4
119	6
121	3
125	2
126	5
127	7
128	7
129	2
132	2
133	7
134	7
135	12
136	12
137	2
139	30
140	19
141	16
142	3
150	4
151	20
152	19
153	11
154	7
155	2
164	1
165	4
166	25
167	107
168	52
169	8
177	4
178	9
180	44
181	83
182	38
183	5
184	2
194	5
195	21
196	27
197	4
208	2
210	348
211	376
212	75
213	8
214	2
215	1
