Mass Spectrum: Propanoic acid, 2-methoxy-, methyl ester
Formula: C5H10O3
CAS: 17639-76-8
Molecular weight: 118
m/z	intensity
30	14
31	199
33	9
38	0
39	2
40	0
41	12
42	11
43	104
44	8
45	11
47	9
53	2
54	1
55	26
56	16
57	11
58	9
59	999
60	32
61	2
75	19
76	0
85	1
87	2
88	33
89	2
