Mass Spectrum: 2-Benzyl-2-methyl-1,3-oxathiolane
Formula: C11H14OS
CAS: 17642-77-2
Molecular weight: 194
m/z	intensity
27	22
39	38
43	811
45	70
51	25
58	24
59	116
60	126
61	66
63	25
65	87
77	22
89	22
91	347
92	130
103	999
104	58
105	69
131	3
132	2
134	138
135	17
136	2
147	4
148	3
149	4
165	5
179	2
192	4
194	4
