Mass Spectrum: 9,11-Dehydroprogesterone
Formula: C21H28O2
CAS: 17652-16-3
Molecular weight: 312
m/z	intensity
41	124
43	999
45	40
47	9
52	4
53	68
55	108
57	5
58	26
65	39
66	4
67	48
69	28
71	47
77	90
78	18
79	98
81	85
83	10
84	29
85	41
86	17
91	134
92	5
93	45
95	30
97	9
103	20
104	4
105	85
106	8
107	33
109	20
115	66
116	15
117	62
118	4
119	39
121	20
123	24
124	15
127	18
128	39
129	46
130	5
131	57
132	9
133	31
135	14
136	5
137	4
141	38
142	23
143	41
144	10
145	51
146	4
147	28
149	8
152	9
153	19
154	4
155	26
156	4
157	27
159	28
160	4
161	12
165	13
167	13
169	27
171	29
173	16
174	8
175	15
176	4
181	14
183	18
184	4
185	27
186	4
187	15
189	10
195	8
197	16
198	4
199	25
209	24
211	19
212	8
213	20
223	23
224	8
225	36
226	8
227	84
228	19
239	17
242	14
251	9
255	8
269	25
270	18
279	14
294	18
297	93
298	16
312	135
313	32
