Mass Spectrum: l-Leucyl-d-leucine
Formula: C12H24N2O3
CAS: 17665-02-0
Molecular weight: 244
m/z	intensity
14	1
15	7
16	1
17	7
18	4
26	4
27	52
28	57
29	33
30	134
31	3
32	1
36	1
37	1
38	4
39	36
40	8
41	97
42	40
43	176
44	168
45	6
46	2
50	2
51	4
52	4
53	11
54	12
55	54
56	16
57	26
58	4
59	2
60	1
63	1
64	1
65	3
66	3
67	8
68	10
69	21
70	39
71	15
72	6
73	9
74	5
75	1
77	2
78	1
79	1
80	3
81	5
82	9
83	6
84	21
85	22
86	999
87	60
88	3
91	1
92	1
93	1
94	3
95	6
96	7
97	9
98	12
99	5
100	2
101	1
105	2
106	1
107	1
108	1
109	1
110	2
111	3
112	18
113	38
114	25
115	2
116	2
120	1
121	1
122	2
123	5
124	4
125	6
126	4
127	3
128	2
129	1
130	2
132	5
137	3
138	5
139	2
140	59
141	52
142	7
143	1
144	2
145	1
148	1
149	1
151	1
152	1
153	2
154	3
155	9
156	1
157	1
165	3
166	6
167	3
168	1
169	8
170	198
171	20
172	2
179	1
180	1
181	1
182	2
183	21
184	4
185	1
186	1
187	5
188	3
193	1
197	1
199	2
200	1
201	1
208	2
209	1
211	6
212	2
224	1
225	1
226	1
229	3
243	2
