Mass Spectrum: 3-Hexen-1-yne, (Z)-
Formula: C6H8
CAS: 17669-38-4
Molecular weight: 80
m/z	intensity
26	43
27	156
29	16
30	1
32	5
37	12
38	54
39	429
40	39
41	78
42	8
43	2
44	13
49	7
50	110
51	189
52	329
53	84
54	32
55	5
57	0
61	7
62	37
63	85
64	16
65	308
66	23
67	2
74	9
75	17
76	6
77	314
78	78
79	999
80	607
81	35
