Mass Spectrum: N-Cbz-L-leucyl-L-alanine benzyl ester
Formula: C24H30N2O5
CAS: 17664-94-7
Molecular weight: 426
m/z	intensity
15	7
16	1
17	2
18	7
26	3
27	32
28	33
29	31
30	42
31	4
32	2
37	2
38	5
39	42
40	5
41	54
42	32
43	91
44	211
45	5
49	1
50	14
51	35
52	10
53	9
54	4
55	15
56	9
57	22
58	8
61	2
62	5
63	16
64	5
65	69
66	5
67	2
68	4
69	23
70	47
71	6
72	2
73	1
74	13
75	3
76	2
77	64
78	14
79	111
80	11
81	2
82	3
83	10
84	10
85	2
86	96
87	6
88	7
89	19
90	20
91	999
92	87
93	4
95	2
96	3
97	3
98	11
99	12
100	42
101	3
104	1
105	9
106	5
107	83
108	99
109	8
110	2
111	1
112	21
113	7
114	2
115	1
116	4
117	1
118	2
120	1
123	1
125	1
126	18
127	4
128	14
129	1
130	44
131	3
132	2
133	2
134	8
135	1
139	3
140	3
141	6
142	117
143	12
153	1
154	2
155	89
156	10
157	3
158	1
160	2
161	1
165	2
167	4
168	2
169	1
171	1
172	12
173	1
174	1
175	3
176	171
177	22
178	2
179	2
180	4
181	3
182	3
183	148
184	72
185	9
186	1
211	18
212	2
219	2
220	69
221	11
222	1
229	6
230	1
235	1
248	5
249	1
262	4
291	1
318	7
319	1
370	3
