Mass Spectrum: Bicyclo[2.2.2]oct-7-ene-2,5-dione
Formula: C8H8O2
CAS: 17660-74-1
Molecular weight: 136
m/z	intensity
25	4
26	44
27	147
28	9
29	5
30	0
31	2
36	1
37	21
38	50
39	244
40	8
41	31
42	35
43	15
44	1
48	0
49	7
50	53
51	81
52	55
53	40
54	13
55	18
56	0
57	0
60	1
61	7
62	12
63	34
64	9
65	123
66	999
67	61
68	8
69	1
71	0
73	1
74	6
75	2
76	2
77	93
78	31
79	240
80	61
81	6
82	3
83	0
85	0
86	0
89	2
90	8
91	59
92	89
93	7
94	281
95	48
96	4
97	0
105	1
106	0
107	21
108	278
109	23
110	2
111	0
118	11
119	2
120	0
121	1
124	0
134	0
135	3
136	260
137	22
138	2
