Mass Spectrum: Propanoic acid, 2,2-dimethyl-, heptyl ester
Formula: C12H24O2
CAS: 17660-61-6
Molecular weight: 200
m/z	intensity
24	0
26	4
27	76
28	22
29	194
30	4
31	9
38	3
39	82
40	21
41	412
42	85
43	126
44	7
45	5
50	1
51	2
52	1
53	14
54	13
55	111
56	190
57	999
58	43
59	39
60	1
61	0
65	1
67	4
68	14
69	57
70	116
71	21
72	2
73	1
77	1
81	2
82	1
83	14
85	128
86	7
87	19
88	1
93	1
94	1
96	1
97	13
98	76
99	11
100	1
101	1
103	272
104	13
105	1
113	1
114	0
115	4
116	0
143	4
144	0
157	2
158	0
