Mass Spectrum: .alpha.,.beta.-Methyl-2-deoxy-D-ribopyranoside
Formula: C6H12O4
CAS: 17676-20-9
Molecular weight: 148
m/z	intensity
43	250
44	270
45	700
57	450
58	430
59	590
60	350
61	300
69	240
71	800
73	600
88	590
99	999
117	180
