Mass Spectrum: Phorbol
Formula: C20H28O6
CAS: 17673-25-5
Molecular weight: 364
m/z	intensity
25	4
26	32
27	259
28	182
29	364
30	25
31	162
36	7
37	10
38	21
39	324
40	67
41	732
42	78
43	680
44	169
45	87
46	16
47	12
48	1
49	4
50	22
51	87
52	50
53	368
54	89
55	374
56	53
57	295
58	58
59	55
60	31
61	15
62	7
63	33
64	18
65	158
66	61
67	212
68	49
69	272
70	61
71	73
72	22
73	24
74	11
75	13
76	15
77	248
78	73
79	228
80	52
81	154
82	89
83	999
84	60
85	62
86	12
87	24
88	11
89	18
90	11
91	268
92	48
93	122
94	53
95	160
96	70
97	46
98	20
99	20
100	12
101	53
102	16
103	42
104	23
105	137
106	35
107	132
108	59
109	198
110	53
111	78
112	70
113	31
114	93
115	85
116	35
117	66
118	21
119	76
120	32
121	110
122	52
123	87
124	42
125	56
126	16
127	32
128	64
129	70
130	27
131	73
132	27
133	67
134	33
135	71
136	33
137	54
138	42
139	54
140	19
141	65
142	42
143	59
144	30
145	89
146	35
147	78
148	38
149	75
150	31
151	61
152	36
153	36
154	20
155	43
156	24
157	69
158	46
159	132
160	47
161	80
162	37
163	57
164	29
165	50
166	33
167	47
168	40
169	46
170	35
171	92
172	48
173	96
174	41
175	87
176	37
177	50
178	29
179	46
180	28
181	37
182	21
183	38
184	25
185	106
186	53
187	139
188	62
189	83
190	33
191	43
192	24
193	30
194	17
195	31
196	30
197	67
198	66
199	129
200	77
201	84
202	43
203	61
204	31
205	54
206	26
207	29
208	24
209	34
210	28
211	51
212	31
213	70
214	48
215	313
216	291
217	141
218	56
219	33
220	16
221	25
222	20
223	33
224	19
225	28
226	15
227	36
228	35
229	39
230	16
231	26
232	15
233	65
234	18
235	15
236	15
237	17
238	9
239	27
240	18
241	36
242	26
243	29
244	17
245	42
246	39
247	23
248	9
249	18
250	7
251	13
252	9
253	17
254	14
255	19
256	9
257	21
258	13
259	30
260	21
261	13
262	9
263	18
264	11
265	11
266	5
267	23
268	9
269	18
270	13
271	17
272	18
273	10
274	5
275	10
276	5
277	15
278	7
279	10
280	9
281	9
282	22
283	10
284	5
285	12
286	8
287	10
288	13
289	10
290	8
291	4
292	5
293	7
294	4
295	8
296	3
297	14
298	9
299	7
300	14
301	6
302	3
303	5
304	2
305	4
306	2
307	3
308	11
309	3
310	22
311	7
312	6
313	10
314	4
315	7
316	16
317	6
318	16
319	4
320	1
321	1
326	3
327	1
328	49
329	11
330	3
331	2
332	1
333	1
334	1
335	3
336	4
337	1
344	4
345	1
346	23
347	6
348	1
364	5
365	1
