Mass Spectrum: Ethanone, 1-(2-methyl-2-cyclopenten-1-yl)-
Formula: C8H12O
CAS: 1767-84-6
Molecular weight: 124
m/z	intensity
41	160
42	20
43	410
50	20
51	50
52	10
53	210
54	10
55	30
63	10
65	30
66	20
67	20
77	80
78	10
79	290
80	130
81	999
82	50
109	50
124	140
