Mass Spectrum: Nonanoic acid, 9-(o-propylphenyl)-, methyl ester
Formula: C19H30O2
CAS: 17670-86-9
Molecular weight: 290
m/z	intensity
15	71
16	17
25	11
26	14
27	68
28	17
29	85
30	20
31	20
32	20
33	11
37	8
38	5
39	62
40	17
41	314
42	51
43	171
44	28
45	20
50	17
51	22
52	11
53	37
54	17
55	217
56	28
57	28
58	14
59	114
60	11
61	11
62	11
63	17
64	11
65	48
66	14
67	57
68	17
69	77
70	17
71	22
72	11
73	28
74	128
75	28
76	11
77	85
78	57
79	85
80	20
81	42
82	20
83	51
84	28
85	22
86	14
87	100
88	14
89	22
90	11
91	759
92	228
93	62
94	17
95	57
96	17
97	45
98	85
99	20
100	8
101	22
102	20
103	77
104	171
105	999
106	257
107	22
108	14
109	22
110	14
111	20
112	34
113	20
114	11
115	114
116	57
117	291
118	94
119	422
120	171
121	37
122	17
123	22
124	17
125	34
126	14
127	22
128	34
129	85
130	28
131	274
132	77
133	637
134	285
135	40
136	14
137	28
138	17
139	22
140	14
141	28
142	20
143	51
144	20
145	80
146	57
147	105
148	57
149	20
150	17
151	11
152	11
153	11
154	14
155	34
156	14
157	28
158	17
159	65
160	28
161	51
162	28
163	14
165	14
167	14
168	11
169	28
170	17
171	28
172	20
173	57
174	17
175	34
176	22
177	17
180	17
181	17
182	17
183	65
184	28
185	22
186	17
187	48
188	22
189	17
190	11
191	11
192	14
193	14
197	228
198	48
199	22
200	11
201	48
202	20
203	17
204	14
205	11
206	11
207	11
208	11
209	11
210	11
211	91
212	22
213	17
214	11
215	162
216	62
217	20
218	17
219	11
220	14
223	11
224	11
225	17
226	11
227	14
228	17
229	68
230	68
231	22
232	11
233	14
234	11
235	11
239	11
240	20
241	28
243	17
244	8
245	8
247	40
248	22
249	17
250	17
255	11
256	11
257	11
258	194
259	142
260	28
261	62
262	17
263	11
271	8
272	14
274	11
275	8
288	17
289	11
290	519
291	114
292	20
293	14
