Mass Spectrum: 9-Octadecenoic acid (Z)-, octadecyl ester
Formula: C36H70O2
CAS: 17673-49-3
Molecular weight: 534
m/z	intensity
26	8
27	32
28	60
29	100
30	4
31	4
32	13
34	2
36	4
37	4
38	5
39	41
40	13
41	360
42	96
43	760
44	34
45	9
46	2
49	3
50	5
51	6
52	4
53	28
54	140
55	840
56	270
57	999
58	48
59	9
60	25
61	22
62	3
63	4
64	30
65	9
66	19
67	230
68	190
69	810
70	280
71	630
72	38
73	69
74	10
75	4
76	4
77	11
78	7
79	42
80	36
81	230
82	240
83	770
84	410
85	440
86	33
87	40
88	9
89	4
90	2
91	19
92	7
93	34
94	41
95	210
96	320
97	670
98	410
99	130
100	36
101	72
102	11
103	5
104	6
105	14
106	6
107	30
108	34
109	130
110	190
111	370
112	160
113	85
114	89
115	63
116	21
117	8
118	5
119	22
120	10
121	40
122	25
123	130
124	100
125	200
126	88
127	120
128	31
129	52
130	11
131	8
132	5
133	28
134	26
135	40
136	19
137	95
138	85
139	110
140	60
141	52
142	16
143	31
144	7
145	6
146	3
147	27
148	22
149	35
150	18
151	85
152	83
153	70
154	45
155	41
156	13
157	25
158	6
159	4
160	2
161	20
162	10
163	22
164	19
165	78
166	76
167	57
168	32
169	48
170	11
171	21
172	7
173	3
174	2
175	14
176	7
177	12
178	10
179	57
180	160
181	64
182	28
183	37
184	11
185	26
186	18
187	6
188	3
189	9
190	4
191	7
192	6
193	36
194	32
195	26
196	16
197	17
198	9
199	23
200	12
201	11
202	3
203	6
204	3
205	5
206	5
207	32
208	28
209	19
210	16
211	14
212	7
213	13
214	8
215	4
216	2
217	4
218	4
219	8
220	89
221	57
222	170
223	42
224	19
225	13
226	6
227	8
228	6
229	9
230	6
231	4
232	2
233	3
234	3
235	25
236	26
237	9
238	5
239	12
240	6
241	6
242	2
243	2
244	2
245	26
246	51
247	39
248	17
249	9
250	14
251	6
252	31
253	17
254	8
255	3
256	3
257	6
258	2
259	2
260	2
261	3
262	10
263	71
264	860
265	310
266	48
267	11
268	3
269	4
270	2
271	2
272	1
273	1
274	1
275	1
276	1
277	2
278	4
279	8
280	38
281	21
282	50
283	120
284	25
285	14
286	3
287	1
288	1
289	1
290	1
291	2
292	2
293	2
294	6
295	3
296	4
297	18
298	5
299	1
300	1
305	1
306	1
307	2
308	2
309	3
310	2
311	1
312	2
313	3
314	1
315	1
316	1
317	1
318	1
319	2
320	2
321	2
322	2
323	4
324	3
325	6
326	3
327	1
333	2
334	1
335	2
336	2
337	2
338	3
339	2
340	1
347	1
348	1
349	3
350	3
351	3
352	2
353	2
354	1
355	1
361	1
362	1
363	1
364	2
365	3
366	2
367	2
368	1
375	1
376	1
377	1
378	2
379	10
380	4
381	3
382	1
390	1
391	1
392	1
393	2
394	1
395	2
396	1
403	1
404	1
405	1
406	1
407	2
408	1
409	2
410	1
417	1
418	1
419	1
420	1
421	2
422	1
423	2
424	2
425	1
431	1
432	1
433	1
434	1
435	1
436	1
437	1
438	2
439	1
449	1
450	1
451	2
452	3
453	2
463	2
465	1
466	2
467	1
477	1
479	1
489	1
490	1
491	2
492	1
505	1
506	1
508	1
516	2
519	1
520	1
532	3
533	3
534	26
535	12
536	5
537	2
