Mass Spectrum: 1-Pentadecanamine, N,N-dimethyl-
Formula: C17H37N
CAS: 17678-60-3
Molecular weight: 255
m/z	intensity
26	0
27	6
28	2
29	18
30	6
31	0
39	3
40	0
41	29
42	16
43	35
44	14
45	16
46	9
47	0
53	1
54	1
55	20
56	6
57	17
58	999
59	35
60	0
67	1
68	0
69	7
70	3
71	7
72	3
73	0
77	0
79	0
81	0
82	0
83	2
84	14
85	2
86	0
87	0
89	0
91	0
95	0
96	0
97	1
98	1
99	0
100	1
103	0
110	0
111	0
112	0
113	0
114	2
123	0
126	0
128	1
140	0
142	0
154	0
156	0
170	0
184	0
198	0
212	0
226	0
240	0
252	0
253	0
254	4
255	9
256	1
