Mass Spectrum: Cyanic acid, propyl ester
Formula: C4H7NO
CAS: 1768-36-1
Molecular weight: 85
m/z	intensity
26	102
27	714
28	337
29	400
30	285
31	114
38	45
39	234
40	62
41	759
42	457
43	719
56	999
57	240
70	74
84	325
85	137
