Mass Spectrum: .beta.-d-Glucofuranosiduronic acid, methyl, .gamma.-lactone
Formula: C7H10O6
CAS: 17681-02-6
Molecular weight: 190
m/z	intensity
26	18
27	146
28	46
29	286
30	91
31	330
32	11
33	217
34	2
35	0
37	0
38	6
39	78
40	35
41	83
42	65
43	222
44	61
45	632
46	14
47	17
50	1
51	2
52	1
53	4
54	23
55	163
56	76
57	943
58	219
59	190
60	125
61	440
62	11
63	2
66	0
67	4
68	33
69	28
70	6
71	295
72	42
73	603
74	320
75	118
76	11
77	2
78	0
81	1
82	1
83	252
84	80
85	157
86	999
87	246
88	15
89	3
90	7
91	1
95	3
96	2
97	3
98	2
99	47
100	7
101	54
102	21
103	20
104	1
105	47
106	2
111	2
112	11
113	17
114	3
115	427
116	64
117	6
118	7
123	2
125	0
126	0
127	0
128	0
129	4
130	12
131	27
132	3
133	67
134	4
135	1
141	3
144	1
156	0
158	1
159	12
160	1
162	0
172	6
189	1
190	55
191	5
192	0
