Mass Spectrum: Cyanic acid, 1-methylethyl ester
Formula: C4H7NO
CAS: 1768-37-2
Molecular weight: 85
m/z	intensity
26	28
27	123
28	91
29	34
38	28
39	129
40	66
41	232
42	396
43	344
44	34
45	143
56	34
70	999
71	34
84	17
85	178
86	11
