Mass Spectrum: 4-Pyrimidinecarboxylic acid, 1,2,3,6-tetrahydro-5-nitro-2,6-dioxo-
Formula: C5H3N3O6
CAS: 17687-24-0
Molecular weight: 201
m/z	intensity
30	63
35	6
36	20
37	8
38	57
39	142
40	338
41	92
42	76
43	211
44	999
45	35
46	79
48	21
50	12
51	29
52	20
53	99
54	49
55	65
56	97
57	14
59	25
60	5
64	19
67	282
68	22
69	50
70	125
71	117
72	5
73	14
76	10
77	29
82	8
84	5
88	11
89	10
97	6
98	20
99	33
103	26
104	9
111	7
115	7
116	17
127	415
128	406
139	5
140	23
141	8
142	5
157	282
158	9
159	19
201	211
202	19
203	5
