Mass Spectrum: N-Benzyliminodiethyl di-m-tolylcarbamate
Formula: C27H31N3O4
CAS: 17683-81-7
Molecular weight: 461
m/z	intensity
41	22
42	94
43	15
44	19
45	18
49	11
50	3
51	13
52	6
53	4
54	9
55	11
56	87
57	11
58	3
63	5
65	50
66	4
68	21
69	23
70	13
72	9
73	5
74	103
75	4
77	26
78	11
79	21
80	1
84	7
85	2
86	13
88	4
89	7
90	7
91	999
92	77
93	4
100	4
104	19
105	16
106	43
107	25
116	5
117	13
118	11
119	14
120	11
130	13
131	24
132	46
133	59
134	64
135	6
144	7
146	85
147	10
150	4
151	5
158	31
159	270
160	37
161	1
162	3
164	10
176	9
177	10
178	210
179	22
196	1
210	4
268	8
283	49
284	8
297	256
298	49
299	5
309	4
310	175
311	42
312	5
461	7
462	2
