Mass Spectrum: Trimethyl(1-propenyl)silane
Formula: C6H14Si
CAS: 17680-01-2
Molecular weight: 114
m/z	intensity
41	7
43	90
45	116
46	29
58	61
59	648
60	59
61	37
73	636
74	68
75	39
83	37
86	8
99	999
100	101
101	57
114	158
115	17
