Mass Spectrum: Cyanic acid, butyl ester
Formula: C5H9NO
CAS: 1768-24-7
Molecular weight: 99
m/z	intensity
26	54
27	445
28	331
29	233
30	266
31	54
39	163
40	54
41	999
42	228
43	934
44	59
55	135
56	836
57	125
58	81
70	168
71	97
82	43
84	27
98	173
99	54
