Mass Spectrum: 1-Triazene, 1-(4-methylphenyl)-3-(phenylmethyl)-
Formula: C14H15N3
CAS: 17683-09-9
Molecular weight: 225
m/z	intensity
26	3
27	14
28	93
29	1
30	4
37	4
38	10
39	64
40	6
41	19
42	3
43	2
45	4
49	2
50	19
51	43
52	25
53	16
54	5
61	4
62	10
63	35
64	11
65	177
66	11
67	1
74	3
75	4
76	8
77	71
78	31
79	45
80	9
81	1
83	2
85	1
86	2
87	2
88	1
89	34
90	27
91	999
92	96
93	6
96	2
97	2
98	3
102	2
103	8
104	23
105	24
106	302
107	169
108	11
115	3
116	2
117	2
118	17
119	109
120	71
121	6
127	1
128	2
129	1
130	1
131	2
133	4
139	1
141	1
151	1
152	4
153	3
154	2
155	1
165	16
166	5
167	7
168	3
178	6
179	8
180	18
181	15
182	38
183	5
192	1
193	3
194	20
195	19
196	70
197	233
198	34
199	2
208	3
209	1
210	4
211	1
225	15
226	2
