Mass Spectrum: Cyanic acid, 2-methylpropyl ester
Formula: C5H9NO
CAS: 1768-25-8
Molecular weight: 99
m/z	intensity
26	50
27	218
28	239
29	277
30	21
31	16
37	29
38	46
39	357
40	79
41	999
42	142
43	563
44	42
50	42
51	42
52	12
53	46
54	37
55	205
56	546
57	197
58	21
70	54
71	16
84	214
85	16
98	12
99	25
