Mass Spectrum: 1,4-Diphenyl-3-thiosemicarbazide
Formula: C13H13N3S
CAS: 1768-59-8
Molecular weight: 243
m/z	intensity
12	1
14	2
15	2
25	1
26	9
27	28
28	66
29	13
30	3
31	2
32	19
33	9
34	23
36	2
37	25
38	52
39	178
40	31
41	29
42	7
43	6
44	4
45	9
46	10
47	3
48	2
49	8
50	79
51	223
52	58
53	19
54	20
55	3
56	1
57	2
58	5
59	16
60	14
61	15
62	27
63	71
64	74
65	314
66	173
67	26
68	2
69	9
70	5
71	3
72	1
73	6
74	24
75	20
76	30
77	525
78	110
79	47
80	26
81	11
82	4
83	3
84	4
85	2
86	1
87	3
88	4
89	3
90	21
91	237
92	290
93	596
94	69
95	4
96	12
97	11
98	3
99	2
100	1
101	1
102	2
103	8
104	22
105	18
106	21
107	84
108	999
109	97
110	22
111	7
112	2
113	1
115	1
116	1
117	10
118	293
119	53
120	4
121	6
122	5
123	15
124	15
125	29
126	4
127	3
128	2
129	1
130	1
132	4
133	3
134	9
135	185
136	262
137	32
138	17
139	4
140	3
141	1
143	1
149	6
150	63
151	22
152	25
153	5
154	3
155	1
156	2
157	1
161	2
164	1
165	1
166	4
167	8
168	4
169	5
178	1
179	2
180	7
181	6
182	4
183	4
184	4
191	1
192	2
194	3
195	2
196	1
206	1
207	5
208	57
209	99
210	20
211	3
212	6
213	1
225	4
226	4
227	1
241	7
242	3
243	605
244	102
245	36
246	6
