Mass Spectrum: Diethyl 3-phenyl-1,1-cyclobutanedicarboxylate
Formula: C16H20O4
CAS: 1769-72-8
Molecular weight: 276
m/z	intensity
25	0
26	5
27	47
28	9
29	118
30	4
31	5
34	0
36	1
37	0
38	1
39	15
40	4
41	9
42	2
43	12
44	13
45	7
46	0
47	0
50	5
51	23
52	8
53	10
54	4
55	10
56	2
57	3
58	2
59	1
60	1
61	0
62	2
63	9
64	10
65	17
66	1
67	1
68	3
69	6
70	1
71	2
72	2
73	1
74	2
75	4
76	6
77	52
78	68
79	15
80	1
81	2
82	2
83	2
84	1
85	1
86	0
87	1
88	1
89	10
90	3
91	65
92	8
93	1
94	0
95	1
96	1
97	3
98	1
99	15
100	1
101	3
102	18
103	77
104	999
105	101
106	6
107	9
108	2
109	1
110	1
111	1
112	0
113	1
114	1
115	43
116	11
117	11
118	5
119	2
120	1
121	3
122	2
123	1
124	1
125	2
126	3
127	57
128	96
129	292
130	59
131	18
132	3
133	3
134	1
135	3
136	0
137	0
138	0
139	0
140	0
141	3
142	1
143	4
144	1
145	7
146	2
147	8
148	5
149	9
150	2
151	2
152	1
153	1
154	1
155	12
156	17
157	91
158	21
159	3
160	0
161	0
162	0
163	0
164	0
165	0
166	0
167	0
168	0
169	0
170	0
171	1
172	2
173	66
174	15
175	35
176	5
177	1
178	1
179	1
183	2
184	103
185	16
186	4
187	0
188	0
189	0
191	0
192	1
193	1
195	0
197	0
198	0
199	0
200	4
201	6
202	131
203	103
204	16
205	2
217	1
218	1
219	0
220	0
222	0
228	0
229	1
230	46
231	76
232	13
233	1
242	0
243	0
245	0
246	0
247	0
248	0
250	0
251	0
273	0
274	0
276	59
277	11
278	1
279	0
