Mass Spectrum: Fomocaine
Formula: C20H25NO2
CAS: 17692-39-6
Molecular weight: 311
m/z	intensity
15	1
26	1
27	4
28	16
29	9
30	5
31	1
38	2
39	18
40	2
41	10
42	38
43	25
44	8
45	3
50	3
51	9
52	2
53	7
54	7
55	22
56	50
57	7
58	2
59	1
62	1
63	7
64	4
65	32
66	4
67	1
68	7
69	5
70	22
71	8
72	7
73	1
74	1
75	1
76	2
77	23
78	20
79	8
80	1
82	4
83	3
84	8
85	5
86	8
87	2
88	1
89	6
90	3
91	85
92	8
93	6
94	12
95	1
96	2
97	8
98	21
100	999
101	59
102	8
103	28
104	49
105	12
106	1
107	3
108	3
109	2
111	1
112	11
113	12
114	4
115	41
116	36
117	81
118	36
119	4
126	4
127	11
128	11
129	18
130	7
131	310
132	35
133	3
141	1
143	1
144	1
145	1
152	2
153	1
154	1
155	1
158	1
159	1
160	3
165	2
166	1
167	2
173	1
178	1
179	1
181	1
182	1
188	1
195	1
197	1
216	2
217	2
218	95
219	15
220	1
266	1
309	2
310	2
311	53
312	12
313	1
