Mass Spectrum: Benzeneseleninic anhydride
Formula: C12H10O3Se2
CAS: 17697-12-0
Molecular weight: 362
m/z	intensity
41	24
42	3
43	30
44	46
45	4
47	31
48	17
49	197
50	394
51	958
52	53
53	71
55	23
56	3
57	10
59	1
60	4
61	20
62	31
63	102
64	36
65	348
66	59
67	6
68	5
69	8
70	3
71	9
72	3
73	35
74	119
75	92
76	95
77	999
78	272
80	58
81	36
82	10
83	9
84	113
86	79
87	3
88	15
89	21
90	18
91	48
92	24
93	244
94	861
95	71
96	24
97	13
98	6
99	6
101	7
102	10
103	22
104	12
105	42
106	19
107	20
108	9
109	23
110	5
111	8
112	35
113	30
114	30
115	72
117	147
118	16
119	31
120	3
121	4
123	3
125	10
126	13
127	19
128	16
129	29
130	26
131	22
132	7
133	9
134	5
135	2
137	3
138	1
139	17
141	125
142	97
143	252
145	468
147	94
148	4
149	2
150	4
151	24
152	35
153	197
154	218
155	332
157	790
159	204
160	12
161	4
163	2
165	1
167	9
168	7
169	84
170	175
171	175
172	84
173	214
174	150
175	57
176	32
177	3
180	2
181	2
183	5
185	6
186	7
187	11
188	18
189	35
190	38
191	12
192	72
194	41
195	3
196	4
200	1
202	5
204	10
205	5
206	2
207	3
208	4
210	3
219	3
220	2
221	2
222	6
228	5
229	6
230	22
231	23
232	51
233	28
234	86
235	20
236	22
237	12
238	9
239	4
240	1
244	6
246	47
247	43
248	127
250	290
251	34
252	50
253	6
254	1
262	2
266	3
272	1
273	1
306	7
307	3
308	26
309	17
310	65
311	42
312	119
314	157
315	17
316	36
317	6
318	1
326	2
327	5
330	5
331	1
341	2
342	2
343	1
344	3
345	7
347	3
360	1
