Mass Spectrum: 5.alpha.-Cholestan-6-one, cyclic ethylene mercaptole
Formula: C29H50S2
CAS: 17690-27-6
Molecular weight: 462
m/z	intensity
41	287
42	55
43	999
44	27
45	37
53	18
55	361
56	55
57	638
58	37
59	18
60	27
61	83
67	148
68	27
69	250
70	27
71	324
72	18
73	18
77	27
79	55
81	92
83	64
85	120
87	9
91	129
92	64
93	222
94	37
95	333
96	27
97	166
98	18
99	27
105	287
106	37
107	185
108	18
109	157
110	18
111	55
113	27
115	18
117	46
118	55
119	129
120	27
121	120
122	18
123	64
124	9
125	27
127	9
129	37
130	18
131	287
132	27
133	175
134	27
135	129
136	18
137	37
139	37
141	18
142	9
143	37
144	18
145	166
146	27
147	166
148	18
149	111
150	9
151	37
153	27
155	18
157	111
158	18
159	194
160	27
161	120
162	18
163	37
165	18
167	9
169	18
171	64
173	74
174	18
175	46
177	27
179	27
183	18
184	18
185	83
186	18
187	64
189	27
191	18
193	37
197	18
198	9
199	166
200	37
201	92
202	9
203	27
205	18
207	27
210	9
211	18
212	9
213	74
214	18
215	111
216	18
217	18
219	18
223	27
224	9
225	27
226	18
227	64
228	18
229	83
230	9
231	27
237	18
239	46
240	18
241	92
242	18
243	74
244	9
245	27
246	9
247	83
248	27
249	9
251	27
252	9
253	166
254	64
255	435
256	111
257	111
258	27
259	64
260	9
261	46
262	9
263	18
264	9
265	9
267	27
269	55
271	18
273	55
274	18
275	27
279	18
281	37
282	18
283	111
284	27
285	37
286	18
287	213
288	55
289	37
293	46
294	101
295	240
296	148
297	111
298	27
299	37
300	18
301	157
302	37
303	27
305	55
306	18
307	46
308	18
309	46
310	18
311	46
312	18
313	27
314	18
315	18
317	18
319	18
320	18
321	55
322	37
323	851
324	203
325	157
326	37
327	37
328	18
329	18
331	18
333	27
334	27
335	27
336	27
337	111
338	120
339	74
340	37
341	27
342	37
343	27
344	18
345	18
346	18
347	46
348	120
349	231
350	166
351	129
352	64
353	213
354	74
355	55
356	27
357	27
367	3
368	3
369	78
370	23
371	2
387	3
388	0
401	13
402	14
403	4
404	0
433	6
434	1
435	0
447	5
448	1
449	0
461	1
462	92
463	32
464	13
465	2
