Mass Spectrum: 7,14,21-Trithiatrispiro[5.1.5.1.5.1]heneicosane
Formula: C18H30S3
CAS: 177-58-2
Molecular weight: 342
m/z	intensity
26	1
27	13
28	2
29	11
32	1
33	1
34	3
38	1
39	20
40	2
41	37
42	3
43	1
44	2
45	24
46	2
47	9
50	2
51	7
52	4
53	34
54	12
55	39
56	3
57	2
58	24
59	13
60	20
61	3
62	1
63	1
65	10
66	5
67	22
68	2
69	4
70	1
71	100
72	9
73	19
74	3
75	1
76	1
77	19
78	4
79	87
80	76
81	444
82	30
83	6
84	3
85	28
86	36
87	4
88	1
91	3
93	2
95	4
97	4
98	2
99	21
100	1
101	1
105	1
107	1
111	5
112	6
113	35
114	999
115	243
116	59
117	10
121	1
145	2
146	73
147	8
148	6
151	7
152	1
153	1
159	1
161	2
162	1
163	64
164	9
165	5
166	1
178	2
185	1
192	1
193	7
194	8
195	25
196	109
197	57
198	10
199	3
227	4
228	366
229	55
230	35
231	4
232	1
342	115
343	25
344	17
345	3
346	1
