Mass Spectrum: 6,12,18-Trithiatrispiro[4.1.4.1.4.1]octadecane
Formula: C15H24S3
CAS: 177-61-7
Molecular weight: 300
m/z	intensity
39	34
41	106
44	7
45	27
47	10
53	9
55	10
58	32
59	13
65	34
66	35
67	278
68	18
71	126
72	19
73	10
85	37
91	8
93	7
97	18
98	19
99	56
100	999
101	196
102	51
103	9
127	10
132	21
135	83
136	9
167	38
168	69
169	50
170	8
200	148
201	19
202	13
300	121
301	22
302	17
