Mass Spectrum: 4-Benzyloxy-N-methylamphetamine
Formula: C17H21NO
CAS: 177079-66-2
Molecular weight: 255
m/z	intensity
39	4
42	18
43	7
56	24
58	999
59	33
65	24
77	3
78	4
89	3
91	148
92	9
106	1
107	3
120	1
148	1
149	1
163	1
197	0
198	10
199	1
221	0
240	1
254	0
