Mass Spectrum: Bicyclo[2.2.1]hept-5-ene-2,3-dicarboxylic acid, 1,4,5,6,7,7-hexachloro-, dibutyl ester
Formula: C17H20Cl6O4
CAS: 1770-80-5
Molecular weight: 498
m/z	intensity
15	2
26	7
27	84
28	25
29	475
30	12
31	6
35	1
36	4
37	1
38	3
39	71
40	10
41	696
42	32
43	47
44	8
45	10
47	1
49	1
50	2
51	2
52	1
53	20
54	21
55	144
56	370
57	999
58	45
59	3
60	2
61	3
62	2
63	37
64	1
65	13
66	1
69	3
71	15
72	5
73	9
74	4
75	13
76	1
77	1
78	1
81	5
82	11
83	11
84	5
85	10
86	8
87	4
89	11
91	4
94	1
95	4
96	5
97	8
98	1
99	402
100	22
101	6
102	1
103	1
106	2
107	19
108	6
109	15
110	2
111	4
112	1
113	2
114	1
115	1
117	25
118	3
119	17
120	7
121	18
122	4
123	6
124	1
125	2
126	1
127	1
128	1
129	1
130	6
131	10
132	5
133	8
134	1
135	2
136	1
137	1
141	17
142	1
143	29
144	5
145	11
146	3
147	4
148	1
149	1
151	1
153	1
154	2
155	13
156	4
157	10
158	3
159	4
160	1
161	1
163	1
165	9
166	1
167	13
168	1
169	8
170	2
171	3
172	1
173	4
174	1
175	1
177	2
178	2
179	10
180	9
181	10
182	8
183	5
184	3
185	1
186	1
188	1
189	1
190	2
191	57
192	7
193	54
194	7
195	19
196	2
197	3
198	1
199	3
200	1
201	12
202	2
203	13
204	2
205	6
206	1
207	43
208	5
209	40
210	4
211	13
212	2
213	4
214	13
215	13
216	17
217	15
218	9
219	9
220	4
221	4
222	2
223	1
224	1
225	10
226	21
227	32
228	28
229	33
230	16
231	15
232	4
233	4
234	1
235	90
236	10
237	137
238	14
239	84
240	8
241	34
242	4
243	42
244	5
245	41
246	4
247	20
248	3
249	7
250	2
251	6
252	3
253	5
254	11
255	3
256	12
257	2
258	6
259	14
260	5
261	80
262	9
263	111
264	12
265	68
266	7
267	21
268	2
269	10
270	51
271	27
272	97
273	29
274	78
275	15
276	33
277	7
278	9
279	16
280	3
281	14
282	2
283	6
284	1
285	1
286	2
287	5
288	3
289	9
290	3
291	8
292	2
293	4
294	16
295	4
296	26
297	6
298	21
299	6
300	8
301	3
302	2
303	1
304	1
305	19
306	13
307	53
308	20
309	54
310	15
311	29
312	8
313	9
314	7
315	94
316	14
317	117
318	14
319	57
320	6
321	13
322	29
323	5
324	44
325	6
326	29
327	5
328	10
329	3
330	2
331	1
332	2
333	23
334	5
335	36
336	6
337	26
338	4
339	9
340	7
341	6
342	12
343	8
344	11
345	7
346	6
347	3
348	2
349	1
350	7
351	31
352	15
353	47
354	13
355	32
356	6
357	11
358	2
359	2
361	3
362	1
363	6
364	1
365	5
366	1
367	3
368	4
369	83
370	15
371	165
372	22
373	138
374	16
375	61
376	7
377	15
378	2
379	2
380	1
386	128
387	23
388	242
389	45
390	193
391	37
392	83
393	16
394	22
395	4
396	3
397	1
