Mass Spectrum: Diethylamine, N-isothiocyanato-1,1'-dimethyl-
Formula: C7H14N2S
CAS: 17709-98-7
Molecular weight: 158
m/z	intensity
27	370
28	130
39	240
41	550
42	700
43	999
44	110
58	100
60	80
69	980
70	180
74	70
84	180
101	720
111	80
126	150
143	350
158	280
