Mass Spectrum: 3-Methyl-4-(N,2-dimethylphenylhydrazono)isoxazol-5-one
Formula: C12H13N3O2
CAS: 17703-22-9
Molecular weight: 231
m/z	intensity
63	110
65	470
77	300
78	240
89	60
91	999
92	150
104	150
105	160
106	110
117	80
118	960
119	670
120	770
121	130
131	90
145	60
146	50
173	80
231	260
