Mass Spectrum: 1-Buten-3-yne, 2-chloro-
Formula: C4H3Cl
CAS: 17712-36-6
Molecular weight: 86
m/z	intensity
49	215
50	525
51	945
52	40
60	30
62	10
84	15
85	15
86	999
87	50
88	335
89	10
