Mass Spectrum: Benzenebutanoic acid, .alpha.-methyl-.gamma.-oxo-
Formula: C11H12O3
CAS: 1771-65-9
Molecular weight: 192
m/z	intensity
17	9
18	2
27	8
28	8
29	1
38	2
39	14
40	4
41	17
42	5
43	8
44	2
45	8
50	16
51	66
52	6
53	2
55	4
57	1
58	2
59	1
62	2
63	5
64	4
65	4
66	2
68	7
69	21
70	5
72	1
73	3
74	5
75	5
76	11
77	295
78	28
79	2
87	9
89	2
91	6
92	1
96	6
97	1
102	2
103	4
104	3
105	999
106	80
107	5
115	9
116	3
117	16
118	2
120	56
121	5
122	3
123	5
127	3
128	5
129	8
130	1
131	15
132	2
133	2
144	1
145	32
146	24
147	6
148	2
149	1
159	15
160	1
172	4
173	2
174	102
175	15
176	1
192	129
193	16
194	2
