Mass Spectrum: Histidine, 1-ethyl-N-ethoxycarbonyl-, methyl(ester)
Formula: C12H19N3O4
CAS: 177268-62-1
Molecular weight: 269
m/z	intensity
41	20
42	22
43	14
44	9
45	23
52	9
53	19
54	68
55	19
56	42
57	1
58	2
59	58
60	7
65	1
66	15
67	22
68	15
69	11
79	3
80	20
81	325
82	68
83	30
84	4
86	24
88	16
92	1
93	20
94	16
95	16
96	5
97	1
101	8
106	7
107	14
109	999
110	519
111	49
118	1
119	1
120	5
121	72
122	98
123	37
124	9
134	1
135	14
136	64
137	54
138	114
139	23
147	1
149	141
150	21
151	1
153	1
160	1
162	2
163	8
164	248
165	25
166	7
167	2
180	985
181	152
182	42
183	2
194	87
195	14
196	22
197	2
208	7
210	846
211	97
212	7
219	2
223	15
224	127
225	14
237	1
238	31
239	4
269	292
270	67
271	8
