Mass Spectrum: Propanoic acid, 3-(trimethylsilyl)-, ethyl ester
Formula: C8H18O2Si
CAS: 17728-88-0
Molecular weight: 174
m/z	intensity
25	5
27	39
28	12
29	28
30	2
31	19
33	0
39	3
40	0
41	3
42	13
43	106
44	40
45	120
46	9
47	30
48	1
49	1
50	0
51	11
53	7
54	2
55	35
56	109
57	61
58	76
59	55
60	12
61	35
62	2
63	1
65	0
66	1
67	2
68	0
69	2
70	3
71	8
72	27
73	999
74	91
75	625
76	44
77	26
78	1
83	1
84	0
85	7
86	19
87	8
88	2
89	2
91	7
92	0
97	0
99	3
100	0
101	223
102	38
103	116
104	12
105	4
108	2
111	0
113	2
115	9
116	1
117	110
118	12
119	27
120	3
121	1
129	23
130	42
131	269
132	30
133	12
134	0
146	0
147	1
159	87
160	12
161	4
173	0
174	0
