Mass Spectrum: Benzenehexanamine
Formula: C12H19N
CAS: 17734-20-2
Molecular weight: 177
m/z	intensity
30	999
86	20
91	110
92	40
104	30
160	20
177	140
