Mass Spectrum: 2-Chlorobenzyl mercaptan
Formula: C7H7ClS
CAS: 17733-22-1
Molecular weight: 158
m/z	intensity
17	2
18	3
26	11
27	17
28	9
32	15
33	30
34	4
35	5
36	7
37	24
38	41
39	95
40	6
41	2
43	8
45	190
46	10
47	20
48	2
49	13
50	62
51	70
52	9
53	3
57	2
58	4
59	5
60	35
61	57
62	68
63	158
64	24
65	15
68	2
69	28
70	4
71	5
72	6
73	38
74	27
75	48
76	9
77	69
78	13
79	11
80	2
81	4
82	4
83	1
84	6
85	14
86	17
87	14
89	266
90	48
91	6
92	2
93	11
94	6
95	10
96	3
97	6
99	72
100	4
101	21
105	1
108	3
111	5
112	7
113	4
114	2
119	2
120	7
121	38
122	10
123	13
125	999
126	77
127	332
128	25
142	1
155	11
156	3
158	363
159	36
160	134
161	11
162	5
