Mass Spectrum: 4-(3,6-Dihydro-4,5-dimethoxy-2H-1,2-oxazin-2-yl)benzoic acid, methyl ester
Formula: C14H17NO5
CAS: 177420-37-0
Molecular weight: 279
m/z	intensity
26	11
27	53
29	52
30	11
31	30
33	7
37	2
38	12
39	63
40	2
41	116
42	41
43	734
44	14
45	109
47	11
50	56
51	46
52	19
53	25
54	58
55	34
56	24
57	105
58	27
59	101
60	6
62	15
63	39
64	23
68	11
69	52
70	6
71	166
72	13
73	10
74	12
75	57
76	81
77	110
78	33
79	9
82	4
83	109
84	461
85	36
86	10
87	7
88	5
89	31
90	37
91	25
92	29
93	5
99	51
100	4
101	19
102	21
103	82
104	83
105	23
106	5
107	15
113	8
114	999
115	106
116	32
117	20
118	26
119	27
120	71
121	11
124	5
128	19
129	34
130	32
131	26
132	92
133	20
134	37
135	118
136	13
137	5
142	5
143	6
144	24
145	15
146	44
147	10
148	6
149	10
150	3
151	22
156	2
158	11
159	32
160	18
161	6
162	68
163	21
164	36
165	60
166	6
172	21
173	3
174	8
175	18
176	31
177	15
178	8
186	9
187	17
188	16
189	2
190	18
192	8
202	14
203	34
204	10
216	9
218	25
219	7
220	6
230	22
231	7
232	10
234	7
235	3
246	170
247	60
248	68
249	30
250	5
261	245
262	51
263	13
277	5
279	200
280	30
281	5
