Mass Spectrum: Acetamide, N-[2-(4-chlorophenyl)-1,1-dimethylethyl]-
Formula: C12H16ClNO
CAS: 17743-62-3
Molecular weight: 225
m/z	intensity
46	2
58	999
59	37
63	35
75	13
77	12
89	94
90	28
91	41
100	808
101	64
105	8
115	51
116	28
125	181
126	22
127	60
131	75
151	42
153	12
166	175
167	28
168	107
170	16
