Mass Spectrum: Methanesulfenyl fluoride, trifluoro-
Formula: CF4S
CAS: 17742-04-0
Molecular weight: 120
m/z	intensity
31	48
32	48
50	48
51	172
60	24
63	83
69	999
82	292
84	12
101	238
103	10
120	905
122	40
