Mass Spectrum: 2,4,6,8-Tetrathiaadamantane, 1,3,5,7,9,9,10,10-octamethyl-
Formula: C14H24S4
CAS: 17749-62-1
Molecular weight: 320
m/z	intensity
15	6
18	23
27	24
28	27
29	26
39	34
40	7
41	189
42	9
43	15
44	10
45	30
47	22
51	6
53	45
55	34
57	40
58	16
59	999
60	34
61	51
65	14
67	65
68	7
69	57
70	5
71	11
74	6
75	7
77	19
79	21
80	7
81	14
85	17
87	10
91	11
92	19
93	22
95	65
96	6
97	17
99	10
100	7
101	98
102	16
103	23
111	24
112	21
113	47
121	6
122	15
125	12
126	9
127	387
128	46
129	75
130	9
131	12
133	5
134	13
139	22
140	15
141	32
144	17
145	361
146	30
147	34
150	15
153	8
155	611
156	65
157	34
159	32
160	16
161	241
162	22
163	23
170	38
171	40
172	9
173	5
185	8
187	90
188	10
189	9
192	6
197	5
205	8
219	413
220	48
221	56
222	6
229	22
304	6
306	10
320	611
321	110
322	117
323	18
324	9
