Mass Spectrum: 4,6-Dimethyl-2-phenyl-4,5-dehydro-1,2-oxazine
Formula: C12H15NO
CAS: 177420-38-1
Molecular weight: 189
m/z	intensity
26	12
27	121
29	36
30	6
37	8
38	31
39	244
40	55
41	240
42	37
43	130
44	22
50	68
51	351
52	61
53	121
54	60
55	38
56	8
62	10
63	46
64	36
65	108
66	57
67	735
68	61
69	12
71	3
74	13
75	16
76	35
77	999
78	132
79	51
80	9
81	141
82	868
83	77
84	2
89	12
90	25
91	60
92	40
93	137
94	35
95	20
96	46
97	45
102	8
103	24
104	181
105	63
106	69
107	630
108	52
109	8
115	65
116	14
117	28
118	31
119	9
122	37
127	19
128	49
129	79
130	108
131	31
132	11
141	7
142	6
143	15
144	52
145	8
146	33
154	46
155	25
156	88
157	16
158	11
160	6
167	11
168	25
169	15
170	513
171	509
172	84
173	15
174	103
175	14
185	5
187	9
189	559
190	74
191	6
