Mass Spectrum: 4(3H)-Pyrimidinone, 2,3-dimethyl-
Formula: C6H8N2O
CAS: 17758-38-2
Molecular weight: 124
m/z	intensity
26	104
27	67
28	190
29	40
39	40
40	99
41	49
42	70
52	38
53	40
54	90
55	99
56	999
57	31
66	9
67	27
68	11
81	22
82	31
83	9
95	54
96	81
109	43
124	457
125	38
