Mass Spectrum: Propane, 2-bromo-1,2-dichloro-
Formula: C3H5BrCl2
CAS: 17759-88-5
Molecular weight: 190
m/z	intensity
15	6
25	4
26	18
27	27
35	7
36	8
37	85
38	41
39	262
40	19
41	60
47	9
48	6
49	149
50	4
51	47
60	10
61	62
62	14
63	24
64	4
73	13
74	3
75	459
76	30
77	151
78	10
79	15
80	4
81	15
82	4
83	46
84	1
85	30
86	1
87	5
93	12
94	2
95	18
96	19
97	11
98	8
99	5
105	49
106	4
107	48
111	999
112	35
113	644
114	23
115	104
116	5
119	13
120	2
121	12
127	8
129	10
131	2
140	6
141	123
142	10
143	150
144	5
145	36
155	43
157	54
159	18
175	8
177	12
179	6
190	1
192	2
194	1
