Mass Spectrum: Pyrimidine, 5-methyl-, 1-oxide
Formula: C5H6N2O
CAS: 17758-50-8
Molecular weight: 110
m/z	intensity
27	250
28	100
29	520
30	250
51	110
52	250
53	110
54	999
55	820
56	100
81	960
82	380
110	880
