Mass Spectrum: 1H-Inden-1-one, 2-diazo-2,3-dihydro-
Formula: C9H6N2O
CAS: 1775-23-1
Molecular weight: 158
m/z	intensity
49	40
50	230
51	200
52	80
53	20
61	30
62	50
63	100
64	20
74	130
75	160
76	340
77	30
86	20
87	20
88	30
89	20
98	30
101	70
102	999
103	80
104	30
129	30
130	200
131	20
132	30
158	420
159	50
