Mass Spectrum: 1,3-Cyclohexadiene-1,3-diol, 5,5-dimethyl-, diacetate
Formula: C12H16O4
CAS: 17760-94-0
Molecular weight: 224
m/z	intensity
26	3
27	47
28	12
29	32
30	1
31	3
37	1
38	5
39	63
40	16
41	79
42	27
43	999
44	28
45	6
50	3
51	8
52	4
53	19
54	5
55	49
56	27
57	35
58	3
59	1
60	3
61	0
62	1
63	2
65	4
66	3
67	31
68	5
69	148
70	9
71	5
72	1
73	3
74	1
77	8
78	1
79	10
80	9
81	9
82	6
83	30
84	827
85	51
86	10
87	1
91	2
93	2
94	3
95	11
96	17
97	16
98	15
99	3
101	1
109	3
110	2
111	6
112	51
113	5
114	1
116	4
121	1
122	6
123	7
124	5
125	99
126	19
127	2
135	1
136	1
137	3
138	13
139	17
140	241
141	72
142	7
153	1
154	53
155	6
156	2
165	3
167	17
168	2
178	3
179	1
180	12
181	4
182	141
183	18
184	2
224	2
