Mass Spectrum: Carbamic acid, N-aminocarbonylmethyl-, isobutyl(ester)
Formula: C7H14N2O3
CAS: 177657-34-0
Molecular weight: 174
m/z	intensity
41	999
42	141
43	341
44	852
45	49
47	20
49	121
51	23
55	83
56	231
57	941
58	98
59	47
73	153
74	117
75	345
76	47
84	73
86	25
87	16
101	194
114	14
130	727
131	566
132	20
174	15
