Mass Spectrum: Methanesulfonic acid, trifluoro-, phenyl ester
Formula: C7H5F3O3S
CAS: 17763-67-6
Molecular weight: 226
m/z	intensity
26	11
27	20
29	18
31	39
37	20
38	75
39	377
40	14
41	5
42	1
43	5
44	1
45	15
47	1
48	23
49	4
50	33
51	42
52	4
53	8
54	1
55	2
57	2
59	22
60	1
61	12
62	34
63	97
64	48
65	999
66	55
67	1
69	314
70	6
73	1
74	14
75	6
76	8
77	90
78	7
79	0
80	1
81	1
83	2
84	7
91	1
92	11
93	492
94	37
95	6
96	103
97	6
108	1
114	8
115	25
116	1
123	1
133	4
134	14
135	0
141	2
143	2
149	2
162	294
163	22
226	443
227	36
228	22
229	1
