Mass Spectrum: 4-Nitrophenyl trifluoromethanesulfonate
Formula: C7H4F3NO5S
CAS: 17763-80-3
Molecular weight: 271
m/z	intensity
38	148
50	702
51	49
52	48
62	79
63	447
64	338
69	999
75	149
83	60
92	219
95	637
99	49
122	50
149	139
161	109
177	279
271	240
