Mass Spectrum: Eutylone
Formula: C13H17NO3
CAS: 17764-18-0
Molecular weight: 235
m/z	intensity
41	65
42	15
43	13
44	13
45	1
46	1
49	1
50	4
51	8
52	2
53	9
54	5
55	6
56	51
58	102
59	4
60	1
61	3
62	18
63	54
64	10
65	75
66	6
67	2
68	3
69	3
70	21
71	5
72	1
73	1
74	4
75	2
76	2
77	6
78	2
79	4
80	1
81	1
82	1
84	20
86	999
87	63
88	2
89	2
91	20
92	4
93	3
95	1
101	1
102	1
103	3
104	1
105	2
106	1
107	1
115	1
116	1
117	1
118	1
119	5
120	5
121	47
122	6
123	1
130	1
131	1
132	1
133	1
135	8
136	1
143	1
144	1
145	1
146	1
147	2
149	65
150	7
151	1
158	1
159	1
160	1
161	1
162	1
163	1
164	1
172	1
173	1
174	1
175	1
176	6
177	3
178	3
179	1
187	1
188	1
189	1
190	2
191	1
192	2
193	1
202	4
203	1
204	1
205	1
206	8
207	1
216	1
217	2
218	1
219	1
231	1
233	1
234	1
236	1
