Mass Spectrum: Methyl 15-hydroxy-9,12-octadecadienoate
Formula: C19H34O3
CAS: 177746-99-5
Molecular weight: 310
m/z	intensity
51	10
52	10
53	90
54	249
55	999
56	50
57	119
58	20
59	119
60	10
65	50
66	70
67	699
68	549
69	239
70	20
71	129
72	20
73	219
74	139
75	20
77	139
78	70
79	559
80	399
81	769
82	419
83	179
84	50
85	50
86	10
87	159
88	20
91	189
92	60
93	379
94	329
95	519
96	299
97	149
98	50
99	50
100	10
101	50
102	10
103	10
104	10
105	80
106	50
107	229
108	239
109	319
110	169
111	80
112	30
113	20
114	10
115	50
116	10
117	50
118	20
119	70
120	50
121	269
122	269
123	199
124	70
125	60
126	10
127	20
128	10
129	50
130	10
131	50
132	20
133	90
134	40
135	249
136	209
137	109
138	30
139	50
140	30
141	20
142	10
143	30
144	10
145	30
146	20
147	50
148	30
149	179
150	239
151	70
152	20
153	20
154	20
155	10
157	20
158	10
159	30
160	10
161	30
162	30
163	109
164	209
165	50
166	10
167	20
168	30
169	10
171	30
172	10
173	20
174	10
175	30
176	10
177	70
178	40
179	10
180	10
181	20
182	20
183	10
185	30
187	10
188	10
189	40
190	10
191	20
192	20
193	10
194	10
195	20
196	10
199	20
203	20
204	10
205	10
206	189
207	50
208	30
209	20
210	10
217	20
218	10
221	10
222	10
223	10
224	10
231	10
235	30
236	20
237	10
238	209
239	40
249	20
250	10
260	10
261	10
263	10
264	10
277	10
278	10
279	40
280	10
292	149
293	40
294	10
