Mass Spectrum: 2-Iodomethyl-pyrrolidine-1-carboxylic acid, t-butyl ester
Formula: C10H18INO2
CAS: 177750-73-1
Molecular weight: 311
m/z	intensity
26	10
27	65
28	54
29	130
30	16
31	3
35	2
36	4
37	5
38	10
39	136
40	31
41	464
42	76
43	25
44	45
45	2
47	9
48	5
49	3
50	12
51	13
52	6
53	26
54	46
55	181
56	138
57	999
58	43
59	9
65	6
66	3
67	74
68	67
69	86
70	619
71	33
74	8
75	2
76	3
77	2
78	2
79	4
80	4
81	43
82	47
83	56
84	31
85	2
86	4
91	4
94	6
95	2
97	52
98	4
99	39
110	12
111	6
113	2
114	566
115	35
116	3
125	2
126	3
127	59
128	65
129	6
140	3
141	8
142	10
155	3
167	3
170	370
171	37
172	3
195	13
210	7
238	117
239	7
252	2
254	4
255	21
256	20
262	3
311	4
