Mass Spectrum: Androstan-16-one, cyclic 1,2-ethanediyl acetal, (5.alpha.)-
Formula: C21H34O2
CAS: 1778-87-6
Molecular weight: 318
m/z	intensity
40	130
41	390
42	100
43	220
44	60
45	90
46	10
50	10
51	20
52	10
53	100
54	40
55	380
56	30
57	20
65	40
66	30
67	340
68	90
69	110
70	10
71	10
73	110
74	10
77	100
78	20
79	200
80	40
81	260
82	40
83	40
84	10
85	10
86	210
87	140
88	10
89	10
91	130
92	20
93	150
94	30
95	170
96	20
97	20
99	999
100	60
101	10
104	10
105	70
106	10
107	90
108	30
109	120
110	20
111	10
112	10
113	140
114	780
115	50
116	10
117	20
119	30
120	10
121	80
122	50
123	20
124	10
125	40
126	90
127	50
128	60
129	10
130	10
131	20
132	10
133	30
134	20
135	40
136	20
137	10
138	10
139	790
140	80
141	20
142	10
143	10
145	20
146	10
147	30
148	10
149	50
150	10
151	10
153	20
159	20
161	20
162	20
163	10
173	10
175	10
176	10
177	10
187	10
189	30
208	10
209	110
210	10
215	20
216	10
217	40
230	30
231	10
232	50
233	10
241	30
242	10
246	10
247	130
248	20
249	10
256	20
257	10
259	10
261	10
274	30
275	20
288	10
303	50
304	10
318	260
319	60
320	10
