Mass Spectrum: Acetic acid, [4-(acetyl)(phenyl)amino-3,5-diisopropyl]phenyl ester
Formula: C22H27NO3
CAS: 17784-22-4
Molecular weight: 353
m/z	intensity
41	152
43	999
44	200
45	15
48	2
50	23
51	79
52	35
53	74
55	84
56	21
57	41
60	13
63	30
64	26
65	69
66	27
67	47
68	19
69	40
70	14
71	26
73	7
74	7
75	13
76	31
77	225
78	40
79	74
80	33
81	24
82	27
83	20
84	6
85	7
89	17
91	123
92	62
93	43
94	11
95	21
97	14
98	3
99	2
103	49
104	46
105	82
106	28
107	24
109	10
111	3
112	15
113	2
115	44
116	18
117	54
118	469
119	54
120	62
121	19
123	9
125	6
127	5
128	41
129	37
130	25
131	23
132	20
133	11
134	10
135	21
136	5
137	10
141	9
142	8
143	13
144	28
145	17
146	10
147	12
148	4
149	23
150	5
151	8
152	5
154	10
155	6
156	17
157	3
158	2
159	2
160	8
162	3
163	17
164	4
165	6
166	20
167	31
168	15
169	5
170	10
171	6
176	3
177	3
178	9
179	3
180	37
181	20
182	20
183	30
184	44
185	13
191	3
192	15
193	23
194	48
195	18
196	23
197	11
198	6
199	3
200	6
205	2
206	16
207	18
208	23
209	27
210	34
211	14
212	8
218	11
219	3
220	11
221	6
222	7
223	4
224	6
225	37
226	25
227	17
235	11
236	7
238	3
253	22
254	31
267	21
268	89
269	399
270	73
271	7
309	6
311	281
312	57
313	3
353	71
354	13
