Mass Spectrum: Clorgiline
Formula: C13H15Cl2NO
CAS: 17780-72-2
Molecular weight: 271
m/z	intensity
15	4
26	2
27	6
28	8
29	4
30	3
31	1
32	1
36	2
37	7
38	11
39	71
40	17
41	41
42	188
43	16
44	45
45	2
47	1
48	1
49	3
50	5
51	4
52	3
53	8
54	6
55	5
56	5
57	9
58	13
59	1
60	1
61	5
62	12
63	40
64	4
65	4
66	13
67	6
68	66
69	14
70	32
71	4
72	6
73	17
74	9
75	13
76	1
77	3
78	1
79	1
80	12
82	999
83	68
84	9
85	4
86	1
87	2
89	2
90	1
91	2
92	1
93	2
94	17
95	3
96	4
97	9
98	19
99	10
100	7
101	3
102	1
103	1
106	1
107	6
108	15
109	17
110	36
111	13
112	5
113	2
114	1
119	1
123	1
124	1
125	3
126	7
127	2
128	4
129	1
130	1
131	1
133	42
134	3
135	27
136	3
137	5
138	1
139	1
141	1
145	11
146	1
147	8
148	1
149	2
153	1
154	2
156	1
159	1
161	11
162	40
163	9
164	26
165	3
166	4
167	1
168	1
169	1
170	1
171	1
172	1
173	1
175	2
177	2
179	2
180	1
184	1
186	1
188	1
192	5
193	1
194	2
196	5
197	1
198	2
207	1
208	6
209	1
210	2
214	4
215	1
216	3
218	1
226	2
227	3
228	1
229	2
230	1
236	3
238	1
240	1
242	6
243	1
244	4
246	1
248	1
254	1
256	2
258	1
270	3
271	2
272	2
273	2
