Mass Spectrum: N,N'-Bis[1,5-dimethyl-3(2H)-oxo-2-phenyl-4-pyrazolyl]adipamide
Formula: C28H32N6O4
CAS: 177910-32-6
Molecular weight: 516
m/z	intensity
34	29
35	63
36	87
37	36
38	82
40	479
42	383
44	232
46	11
48	4
50	24
51	117
52	35
53	32
54	80
56	999
57	229
59	11
60	5
61	8
62	9
63	27
64	80
65	43
66	32
67	18
68	18
70	22
71	14
72	8
73	7
74	8
75	14
77	133
78	18
80	12
81	13
84	553
85	13
86	3
89	6
91	86
93	98
94	14
95	8
96	6
97	6
98	4
99	2
101	9
102	5
103	6
104	21
105	18
106	10
107	8
108	6
109	6
110	7
111	21
112	7
113	1
115	4
116	2
119	63
120	40
121	21
122	11
123	10
125	3
126	2
128	3
129	14
131	5
132	8
133	7
134	6
135	4
136	2
137	6
138	3
140	4
141	1
142	1
144	2
145	4
146	5
147	7
148	9
149	16
150	3
152	4
159	2
162	2
163	1
164	1
165	1
171	3
173	2
174	1
175	1
176	1
178	1
187	2
190	1
202	19
203	166
204	29
206	1
215	1
229	3
230	4
237	1
240	1
245	2
258	9
272	4
286	1
293	3
308	2
314	17
315	3
516	1
