Mass Spectrum: 4-Bromo-3-oxobutyric acid, methyl ester
Formula: C5H7BrO3
CAS: 17790-81-7
Molecular weight: 194
m/z	intensity
25	9
26	44
27	147
29	178
30	21
31	33
33	5
36	4
37	12
38	13
39	22
40	6
41	58
42	302
43	582
44	205
45	37
46	7
47	0
48	1
49	1
50	1
51	3
52	1
53	8
54	2
55	45
56	11
57	93
58	5
59	325
60	10
61	2
63	1
64	0
65	2
66	2
67	4
68	4
69	460
70	18
71	7
72	2
73	5
74	22
75	2
76	1
77	4
78	1
79	14
80	10
81	12
82	9
83	11
84	26
85	5
86	1
87	8
88	3
89	1
91	5
92	8
93	107
94	16
95	99
96	8
97	3
98	2
99	1
100	9
101	999
102	42
103	6
104	2
105	4
106	2
107	5
108	1
109	2
110	1
111	2
112	1
113	2
114	43
115	300
116	17
117	3
118	0
119	0
120	13
121	176
122	15
123	174
124	3
135	1
136	40
137	2
138	38
139	2
162	89
163	59
164	87
165	63
166	4
194	18
195	2
196	19
197	2
