Mass Spectrum: N-.alpha.-(tert-Butoxycarbonyl)-L-histidine
Formula: C11H17N3O4
CAS: 17791-52-5
Molecular weight: 255
m/z	intensity
12	1
14	1
15	9
16	4
17	3
18	11
25	1
26	19
27	63
28	144
29	60
30	9
31	103
32	1
37	8
38	16
39	101
40	32
41	297
42	25
43	34
44	278
45	8
46	2
49	2
50	10
51	13
52	23
53	36
54	116
55	87
56	136
57	143
58	8
59	389
60	12
61	1
62	1
63	1
64	2
65	4
66	13
67	7
68	8
69	7
70	1
71	2
73	1
74	8
75	1
77	2
78	1
79	2
80	18
81	999
82	426
83	39
84	2
85	1
91	2
92	4
93	19
94	35
95	9
96	1
97	1
101	1
105	1
106	2
107	10
108	9
109	105
110	121
111	9
118	7
119	3
120	30
121	6
122	1
133	1
134	1
135	23
136	40
137	55
138	126
139	12
140	1
153	2
154	54
155	35
156	6
163	3
164	2
179	1
181	83
182	53
183	5
194	4
195	2
199	52
200	7
201	1
210	5
211	4
235	2
255	9
256	2
