Mass Spectrum: 2-Thiazolamine, 4,5-dihydro-
Formula: C3H6N2S
CAS: 1779-81-3
Molecular weight: 102
m/z	intensity
13	2
14	4
15	7
16	2
17	1
25	4
26	23
27	62
28	173
29	22
30	18
32	29
33	13
34	8
35	1
38	8
39	12
40	44
41	33
42	83
43	261
44	18
45	242
46	66
47	46
48	10
49	3
50	2
51	4
52	4
53	17
54	7
55	198
56	467
57	47
58	103
59	390
60	617
61	43
62	28
66	2
67	1
69	7
70	7
71	3
72	3
73	9
74	49
75	12
76	3
83	1
84	2
100	10
101	636
102	999
103	81
104	47
105	3
