Mass Spectrum: 3-[2,4-Dichloro-6-ethyl-5-pyrimidinyl]-3-azabicyclo[3.2.2]nonane
Formula: C14H19Cl2N3
CAS: 177941-61-6
Molecular weight: 299
m/z	intensity
41	999
42	315
43	151
44	189
45	8
47	86
48	27
49	316
50	33
51	248
52	184
53	628
54	367
55	756
56	96
57	150
58	9
60	6
61	26
62	76
63	35
64	71
65	182
66	168
67	926
68	164
69	41
70	144
71	17
73	57
74	19
75	40
76	43
77	216
78	184
79	398
80	171
81	287
82	48
83	14
84	109
85	17
86	114
87	96
88	45
89	39
90	25
91	103
92	58
93	112
94	81
95	248
96	40
97	11
99	15
100	29
101	19
102	30
103	32
104	24
105	98
106	43
107	43
108	80
109	356
110	63
111	14
112	25
113	49
114	29
115	24
116	21
117	32
118	30
119	23
120	23
121	13
122	21
123	8
124	28
125	1
126	14
127	77
128	17
129	33
130	31
131	33
132	31
133	15
134	24
135	7
136	12
137	6
138	7
139	26
140	17
141	53
142	13
143	21
144	11
145	9
146	9
147	8
148	18
149	9
150	9
151	9
152	39
153	16
154	28
155	20
156	11
157	10
158	6
159	3
160	5
161	7
162	9
163	7
164	14
165	5
166	78
167	21
168	57
169	12
170	21
171	4
172	5
173	7
174	7
175	32
176	17
177	23
178	13
179	8
180	19
181	10
182	22
183	7
184	13
185	3
186	4
187	19
188	76
189	53
190	64
191	86
192	32
193	44
194	19
195	12
196	28
197	4
198	8
199	1
200	15
201	5
202	245
203	53
204	232
205	84
206	89
207	42
208	25
209	10
210	8
211	2
212	3
213	3
214	14
216	490
217	102
218	785
219	111
220	369
221	45
222	58
223	10
224	2
225	2
226	2
227	1
228	8
229	5
230	35
231	18
232	20
233	12
234	9
235	5
236	5
237	1
238	2
240	2
241	2
242	15
243	6
244	53
245	13
246	30
247	6
248	7
249	2
250	1
254	2
256	81
257	11
258	56
259	7
260	12
261	1
262	3
264	162
265	27
266	50
267	8
268	2
270	99
271	13
272	60
273	8
274	10
284	4
286	2
295	1
298	154
299	397
300	176
301	251
302	66
303	41
304	8
