Mass Spectrum: Pregnan-1-ol, 3-(dimethylamino)-, (1.alpha.,3.alpha.,5.alpha.)-
Formula: C23H41NO
CAS: 17808-81-0
Molecular weight: 347
m/z	intensity
51	19
53	77
54	38
55	23
56	85
57	19
67	42
68	11
69	34
70	27
71	174
72	96
73	11
76	34
78	38
79	15
80	58
81	27
82	11
83	112
84	19
85	19
90	31
92	38
93	15
94	38
95	11
96	38
97	23
100	999
101	77
102	15
105	34
106	7
107	34
108	11
109	31
110	344
111	42
114	15
115	19
118	7
120	3
121	3
122	27
123	7
132	7
134	7
136	7
147	15
161	3
233	19
250	23
275	15
277	42
278	11
302	15
304	356
305	85
315	11
332	19
333	38
334	15
346	19
347	271
348	73
349	15
