Mass Spectrum: Kessanyl acetate
Formula: C17H28O3
CAS: 17806-59-6
Molecular weight: 280
m/z	intensity
15	1
27	19
28	5
29	34
31	8
39	56
40	9
41	216
42	27
43	999
44	26
45	12
51	12
52	7
53	79
54	14
55	192
56	19
57	33
58	42
59	41
65	41
66	16
67	171
68	52
69	172
70	23
71	139
72	11
77	105
78	24
79	175
80	147
81	231
82	154
83	94
84	18
91	119
92	27
93	255
94	230
95	143
96	30
97	107
98	23
99	23
100	3
103	10
105	117
106	48
107	281
108	647
109	147
110	17
111	116
112	22
113	6
115	11
117	27
118	11
119	172
120	71
121	141
122	112
123	51
124	11
125	44
126	856
127	92
128	11
129	11
131	33
132	16
133	51
135	51
136	15
137	12
139	19
140	7
144	4
145	31
146	9
147	141
148	21
149	60
150	22
159	65
160	13
161	22
162	99
163	97
164	15
168	17
175	8
176	3
177	67
178	11
187	33
203	5
205	42
206	6
280	10
281	2
