Mass Spectrum: 1,4,7,10,13,16-Hexaoxahexadecane, 1,16-bis(2'-benzoylphenyl)-
Formula: C36H38O8
CAS: 178160-04-8
Molecular weight: 598
m/z	intensity
25	0
26	1
27	10
28	21
29	15
30	3
31	20
38	0
39	3
40	4
41	14
42	6
43	57
44	25
45	228
46	6
47	0
50	4
51	11
52	0
53	1
55	4
56	1
57	8
58	10
59	32
60	2
61	0
62	0
63	3
64	7
65	9
66	0
68	0
69	3
70	5
71	35
72	8
73	52
74	19
75	4
76	20
77	131
78	9
79	3
80	0
81	0
82	0
83	1
85	0
86	7
87	45
88	12
89	63
90	3
91	24
92	15
93	10
94	1
95	1
96	27
97	1
98	0
99	1
101	8
102	1
103	19
104	13
105	999
106	78
107	7
108	0
109	0
112	4
113	2
114	2
115	37
116	3
117	17
118	5
119	9
120	25
121	72
122	6
123	1
126	1
127	4
128	0
129	5
130	0
131	10
132	1
133	28
134	5
135	4
136	0
137	0
139	4
140	3
141	41
142	4
143	1
144	0
145	1
146	0
147	70
148	7
149	27
150	4
151	9
152	51
153	82
154	12
155	3
156	0
157	1
158	0
159	10
160	0
161	1
162	0
163	5
164	3
165	7
166	2
167	2
168	2
169	64
170	10
171	1
175	0
177	6
178	1
179	9
180	6
181	33
182	11
183	13
184	2
185	0
189	0
191	8
192	1
193	1
194	8
195	4
196	7
197	33
198	81
199	20
200	1
203	1
205	0
207	2
208	1
209	2
210	5
211	42
212	22
213	5
214	0
215	0
222	5
223	10
224	168
225	236
226	38
227	3
228	0
235	1
236	0
237	5
238	4
239	3
240	1
241	1
242	30
243	5
244	0
245	0
251	1
253	0
254	1
255	4
256	8
257	10
258	0
259	0
261	0
262	0
267	0
268	47
269	52
270	11
271	1
272	0
275	0
281	0
282	1
283	0
284	0
285	5
286	92
287	24
288	4
289	0
295	0
297	0
299	13
300	41
301	13
302	2
303	0
311	0
312	29
313	21
314	13
315	2
316	0
325	0
326	3
327	1
328	0
329	3
330	5
331	18
332	3
333	0
339	0
340	0
343	9
344	59
345	14
346	2
347	0
355	0
356	21
357	33
358	8
359	1
360	0
373	0
374	9
375	2
387	0
388	0
400	2
401	33
402	8
403	1
521	0
598	1
599	0
600	0
