Mass Spectrum: Cyclooctyne
Formula: C8H12
CAS: 1781-78-8
Molecular weight: 108
m/z	intensity
27	450
28	23
29	115
30	3
31	1
34	0
35	0
36	1
37	32
38	74
39	701
40	166
41	421
42	34
43	19
44	18
45	3
48	1
49	14
50	147
51	273
52	402
53	214
54	163
55	86
56	16
57	1
58	1
60	2
61	13
62	36
63	80
64	21
65	227
66	183
67	299
68	47
69	7
70	1
72	0
73	5
74	23
75	17
77	536
78	114
79	999
80	558
81	59
82	6
83	2
84	2
85	1
86	2
87	1
89	9
91	350
92	42
93	602
94	47
95	2
96	0
97	1
98	5
99	0
100	0
102	0
103	4
104	1
105	23
106	2
107	57
108	151
109	14
110	1
