Mass Spectrum: Spiro[5.5]undecan-1-one
Formula: C11H18O
CAS: 1781-83-5
Molecular weight: 166
m/z	intensity
27	180
29	140
39	220
40	60
41	480
42	50
43	40
44	30
53	140
54	170
55	320
67	560
68	200
69	90
70	60
79	120
80	90
81	540
82	160
84	70
93	80
94	60
95	260
96	130
97	70
98	430
107	80
108	110
109	160
110	70
111	999
112	100
122	270
123	90
124	240
125	140
137	70
148	80
151	40
166	490
167	60
