Mass Spectrum: N-m-Tolyloxyacetyl-benzenesulfonamide
Formula: C15H15NO4S
CAS: 17811-69-7
Molecular weight: 305
m/z	intensity
15	5
26	4
27	4
29	5
30	7
31	3
34	2
37	2
38	16
39	60
40	6
41	31
45	22
46	4
48	10
50	67
51	187
52	36
53	31
54	2
56	2
57	4
58	6
60	6
61	3
62	17
63	65
64	28
65	273
66	12
67	5
69	24
70	3
74	29
75	18
76	33
77	769
78	109
79	102
80	11
81	7
84	9
86	3
87	3
88	3
89	80
90	34
91	999
92	112
93	148
94	56
95	4
97	13
101	2
103	15
105	13
107	155
108	255
109	36
110	17
112	4
115	4
119	8
120	18
121	481
122	250
123	12
125	334
126	34
127	59
128	46
129	4
133	18
134	12
135	17
136	9
137	3
140	73
141	159
142	10
145	2
147	83
148	25
150	3
152	8
155	6
156	10
157	7
161	5
163	14
164	36
165	21
166	21
167	5
168	3
171	2
179	3
180	2
182	1
184	22
185	6
195	6
197	8
198	472
199	52
200	20
305	439
306	76
307	28
308	4
