Mass Spectrum: 1,2-Diphenyl-cyclopropene-3-carboxylic acid
Formula: C16H12O2
CAS: 17825-58-0
Molecular weight: 236
m/z	intensity
28	199
39	50
44	89
50	40
51	100
52	30
62	30
63	70
74	40
75	30
76	79
77	309
78	60
83	79
89	100
90	40
95	89
102	299
103	139
104	50
105	999
106	89
115	40
117	20
126	20
130	60
131	159
132	30
139	30
150	20
151	20
152	40
163	30
164	20
165	109
166	20
176	40
178	79
179	70
180	60
189	219
190	79
191	599
192	189
193	30
202	10
206	10
207	100
208	209
209	40
218	10
220	20
235	20
236	939
237	179
238	40
