Mass Spectrum: 2-Norbornanone, 1-(epithioethyl)-7,7-dimethyl-, S,S-dioxide
Formula: C11H16O3S
CAS: 1782-93-0
Molecular weight: 228
m/z	intensity
26	4
27	91
29	76
30	3
31	18
33	3
34	6
36	2
37	1
38	10
39	175
40	36
41	307
42	25
43	88
44	20
45	44
46	1
47	2
48	285
49	17
50	16
51	57
52	25
53	348
54	36
55	182
56	18
57	31
58	41
59	106
60	5
61	2
62	6
63	18
64	999
65	65
66	49
67	291
68	76
69	100
70	17
71	11
72	5
73	1
74	3
75	3
76	6
77	154
78	41
79	289
80	69
81	352
82	65
83	31
84	12
85	6
86	10
87	3
88	2
89	7
90	2
91	185
92	64
93	820
94	122
95	214
96	46
97	22
98	2
99	3
100	1
101	2
102	2
103	16
104	8
105	180
106	64
107	471
108	156
109	318
110	37
111	7
112	4
113	5
114	1
115	6
116	2
117	7
118	4
119	25
120	849
121	350
122	95
123	125
124	15
125	7
126	1
127	1
128	3
129	1
130	2
131	11
132	3
133	31
134	8
135	25
136	78
137	14
138	5
139	5
140	1
141	2
142	1
143	2
144	0
145	4
146	2
147	4
148	2
149	60
150	45
151	221
152	29
153	6
154	1
155	2
157	2
160	4
161	2
162	3
163	6
164	318
165	41
166	6
212	2
213	5
214	1
