Mass Spectrum: 2-Propenoic acid, oxybis(2,1-ethanediyloxy-2,1-ethanediyl) ester
Formula: C14H22O7
CAS: 17831-71-9
Molecular weight: 302
m/z	intensity
15	2
26	6
27	61
28	14
29	17
30	4
31	12
39	1
41	9
42	12
43	50
44	22
45	71
46	2
53	6
55	684
56	28
57	12
58	21
59	16
60	1
68	6
69	4
70	41
71	12
72	5
73	38
74	1
75	1
81	1
82	4
83	3
84	1
85	7
86	57
87	68
88	11
89	15
90	1
94	1
96	4
97	5
98	27
99	999
100	80
101	22
102	4
103	8
104	1
105	1
112	4
113	5
114	15
115	9
116	1
117	12
118	1
124	8
125	5
126	2
127	2
128	1
129	18
130	3
131	8
132	1
133	5
140	1
141	2
142	2
143	10
144	2
157	1
158	12
159	3
169	1
171	1
173	1
186	5
187	2
217	1
