Mass Spectrum: Benzeneacetic acid, .alpha.-formyl-, ethyl ester
Formula: C11H12O3
CAS: 17838-69-6
Molecular weight: 192
m/z	intensity
25	5
26	29
27	121
28	30
29	139
30	16
31	242
36	3
37	17
38	40
39	164
40	20
41	40
42	12
43	40
44	138
45	136
46	63
47	6
48	1
49	10
50	74
51	153
52	25
53	12
54	2
55	14
56	6
57	17
58	2
59	4
60	3
61	23
62	69
63	177
64	56
65	212
66	17
67	4
68	2
69	10
70	6
71	9
72	1
73	8
74	25
75	22
76	21
77	210
78	29
79	72
80	7
81	3
82	3
83	7
84	3
85	8
86	15
87	15
88	13
89	294
90	586
91	999
92	195
93	14
94	3
95	4
96	3
97	6
98	6
99	3
100	1
101	5
102	19
103	7
104	4
105	327
106	30
107	52
108	6
109	3
110	2
111	5
112	2
113	3
114	2
115	7
116	4
117	14
118	376
119	119
120	162
121	16
122	7
123	2
125	2
126	2
127	1
128	2
129	3
130	1
131	4
132	1
133	3
134	2
135	31
136	121
137	12
138	2
139	1
145	14
146	708
147	100
148	10
164	163
165	21
166	2
192	170
193	23
194	3
