Mass Spectrum: 1,3,5-Benzenetricarboxylic acid, tri-2-propenyl ester
Formula: C18H18O6
CAS: 17832-16-5
Molecular weight: 330
m/z	intensity
41	999
42	29
44	4
50	6
51	1
53	6
55	21
57	34
58	0
63	7
65	9
74	39
75	247
76	31
77	12
78	8
79	5
80	0
81	7
89	2
91	24
92	0
97	43
102	14
103	103
104	25
105	4
108	1
114	10
115	137
116	41
117	10
119	9
120	19
121	0
128	2
129	9
131	15
132	2
133	0
141	3
142	2
143	12
147	27
148	13
149	3
153	0
155	0
159	41
160	14
161	0
165	1
177	4
187	32
188	89
189	17
193	9
203	0
215	0
217	24
218	0
233	237
234	27
235	1
271	3
273	982
274	152
275	17
330	62
331	9
