Mass Spectrum: 2(3H)-Benzoxazolone, 3-(hydroxymethyl)-
Formula: C8H7NO3
CAS: 17832-99-4
Molecular weight: 165
m/z	intensity
35	1
36	42
37	259
38	509
39	507
40	206
41	140
42	49
43	137
44	111
45	46
49	72
50	378
51	621
52	999
53	146
54	31
61	60
62	108
63	254
64	176
65	87
67	4
74	195
75	58
76	87
77	91
78	183
79	759
80	49
91	151
92	2
106	71
135	699
136	44
141	2
148	1
165	49
