Mass Spectrum: Benzenamine, N-(4-phenyl-1-azabicyclo[2.1.0]pent-3-ylidene)-
Formula: C16H14N2
CAS: 17840-26-5
Molecular weight: 234
m/z	intensity
17	10
18	40
27	20
28	60
39	30
41	10
42	20
43	30
50	30
51	120
52	20
62	15
63	50
64	10
65	20
74	20
75	30
76	80
77	300
78	40
87	10
88	30
89	80
90	60
91	180
92	20
101	20
102	80
103	999
104	155
105	20
115	20
116	60
117	110
118	20
126	15
127	10
128	20
129	5
130	80
131	90
132	10
139	15
150	15
151	30
152	25
157	10
163	10
164	5
165	90
166	20
175	10
176	40
177	30
178	80
179	40
180	10
189	5
190	10
191	10
192	10
194	5
203	10
204	30
205	20
206	60
207	20
218	30
219	20
231	40
232	60
233	920
234	420
235	60
