Mass Spectrum: 5-Hexenal, 4-methylene-
Formula: C7H10O
CAS: 17844-21-2
Molecular weight: 110
m/z	intensity
26	3
27	84
29	27
37	5
38	17
39	195
40	65
41	211
42	40
50	69
51	117
52	54
53	336
54	101
55	64
62	11
63	28
65	124
66	63
67	999
68	770
69	49
74	13
75	4
77	105
79	176
80	15
81	120
82	269
83	21
87	3
91	34
92	13
94	3
95	78
96	3
109	10
110	66
111	5
