Mass Spectrum: Butyl isobutyl carbonate
Formula: C9H18O3
CAS: 178442-31-4
Molecular weight: 174
m/z	intensity
15	2
26	4
27	54
28	27
29	138
30	9
31	15
32	1
33	1
37	1
38	3
39	63
40	14
41	317
42	30
43	67
44	7
45	10
51	1
53	8
54	5
55	89
56	401
57	999
58	50
59	27
60	1
63	185
64	2
65	1
69	2
70	4
71	3
73	112
74	6
76	45
77	17
83	1
85	2
88	2
89	11
90	2
91	1
101	1
103	23
104	1
117	8
118	87
119	56
120	3
132	2
