Mass Spectrum: 4-Pentenal, 2-methylene-
Formula: C6H8O
CAS: 17854-46-5
Molecular weight: 96
m/z	intensity
24	1
25	18
26	100
27	301
28	79
29	161
30	4
31	36
32	5
36	4
37	61
38	133
39	884
40	328
41	999
42	107
43	221
44	18
45	1
47	16
48	5
49	13
50	47
51	66
52	43
53	231
54	63
55	89
56	33
57	21
58	64
59	2
60	3
61	19
62	32
63	55
64	10
65	200
66	224
67	753
68	183
69	35
70	4
73	1
74	3
75	2
76	1
77	53
78	54
79	35
80	2
81	139
82	8
84	1
94	42
95	557
96	181
97	12
