Mass Spectrum: 1,4-Naphthalenedione, 2-(acetyloxy)-
Formula: C12H8O4
CAS: 1785-65-5
Molecular weight: 216
m/z	intensity
14	7
15	31
25	1
26	2
27	3
28	9
29	4
37	5
38	8
39	32
40	3
41	18
42	33
43	999
44	23
45	5
49	6
50	105
51	51
52	5
53	15
54	1
55	1
59	1
60	2
61	10
62	35
63	80
64	7
65	2
66	2
69	98
70	4
71	1
73	9
74	59
75	62
76	147
77	96
78	8
79	1
84	1
85	4
86	9
87	10
88	15
89	395
90	44
91	6
92	1
97	1
98	5
99	2
100	1
101	43
102	14
103	4
104	42
105	350
106	25
107	2
116	1
117	9
118	25
119	2
120	1
129	10
130	4
131	3
132	2
133	1
144	1
145	16
146	467
147	54
148	5
157	5
158	2
159	1
160	22
161	2
170	1
171	1
173	141
174	319
175	43
176	26
177	2
187	13
188	137
189	16
190	2
215	4
216	63
217	8
218	3
