Mass Spectrum: Camphor-10-sulfonamide
Formula: C10H17NO3S
CAS: 17854-63-6
Molecular weight: 231
m/z	intensity
26	9
27	158
29	76
30	16
31	1
33	0
34	0
37	2
38	5
39	246
41	420
42	50
43	119
45	2
46	5
47	2
48	16
49	1
50	16
51	55
52	36
53	176
54	47
55	179
56	16
57	44
58	4
59	5
60	1
61	1
62	4
63	16
64	32
65	77
66	34
67	435
68	54
69	106
70	10
71	2
72	0
73	0
74	1
75	2
76	2
77	157
78	31
79	284
80	48
81	684
82	164
83	29
84	8
85	1
87	0
89	3
90	2
91	180
92	35
93	615
94	104
95	132
96	14
97	13
98	10
99	0
102	1
103	7
104	5
105	48
106	94
107	302
108	691
109	999
110	79
111	4
112	0
113	0
115	3
116	2
117	19
118	6
119	7
120	26
121	46
122	18
123	280
124	32
125	2
126	0
129	0
130	0
131	4
132	10
133	75
134	169
135	38
136	3
137	1
138	0
139	1
146	1
147	0
148	32
149	22
150	50
151	391
152	45
153	46
154	4
155	0
157	0
162	0
167	6
168	43
169	4
170	1
171	1
174	3
185	0
187	1
188	0
198	0
213	3
214	13
215	3
216	1
231	6
232	0
