Mass Spectrum: Silane, cyclohexyldimethoxymethyl-
Formula: C9H20O2Si
CAS: 17865-32-6
Molecular weight: 188
m/z	intensity
26	1
27	20
29	19
30	0
31	1
33	0
38	0
39	16
40	5
41	39
42	7
43	10
44	0
45	54
46	3
47	4
50	0
51	1
52	0
53	5
54	13
55	19
56	1
57	1
58	2
59	69
60	9
61	31
62	2
63	1
65	1
66	0
67	18
68	1
69	2
70	0
71	1
72	0
73	0
74	15
75	240
76	19
77	11
78	1
79	4
80	4
81	8
82	9
83	2
84	1
85	0
86	1
87	1
88	0
89	0
90	2
91	94
92	8
93	3
95	0
96	0
97	1
99	1
100	0
101	1
103	0
104	4
105	999
106	64
107	85
108	5
109	2
112	1
113	2
114	0
115	1
116	0
117	1
119	0
121	6
122	0
123	0
124	0
125	0
126	0
127	0
129	0
131	2
135	0
141	1
143	0
145	2
155	0
156	0
157	0
161	0
162	0
165	0
166	0
171	0
173	18
174	2
175	1
188	34
189	4
190	1
191	0
