Mass Spectrum: Silane, ethenylmethylphenyl-
Formula: C9H12Si
CAS: 17878-39-6
Molecular weight: 148
m/z	intensity
15	6
18	1
26	20
27	61
28	48
29	58
30	7
31	11
32	8
36	1
37	16
38	34
39	127
40	39
41	12
42	41
43	393
44	56
45	106
46	9
47	16
49	8
50	82
51	153
52	33
53	396
54	65
55	269
56	23
57	11
60	3
61	9
62	21
63	42
64	12
65	130
66	163
67	99
68	23
69	79
70	498
71	75
72	22
73	16
74	25
75	15
76	17
77	146
78	78
79	177
80	30
81	66
82	7
83	3
89	12
90	10
91	66
92	13
93	95
94	314
95	88
96	9
97	1
101	11
102	12
103	109
104	48
105	999
106	152
107	552
108	66
109	22
115	9
117	23
118	6
119	85
120	989
121	588
122	102
123	24
129	12
130	21
131	189
132	40
133	478
134	68
135	21
143	7
145	53
146	30
147	620
148	332
149	63
150	14
