Mass Spectrum: Dihydroxyacetone, 2TMS derivative
Formula: C9H22O3Si2
CAS: 17877-42-8
Molecular weight: 234
m/z	intensity
26	1
27	5
29	18
30	0
31	8
39	6
41	97
42	6
43	83
44	29
45	150
46	4
47	12
50	0
51	1
52	3
53	2
54	0
55	6
56	1
57	7
58	66
59	83
60	4
61	9
63	0
66	79
67	4
68	0
70	2
71	42
72	12
73	999
74	98
75	104
76	3
77	2
79	1
80	0
81	1
83	0
85	4
86	0
87	52
88	9
89	4
91	0
93	0
99	3
100	0
101	13
102	7
103	441
104	33
105	9
113	0
115	9
116	2
117	9
119	1
129	50
130	2
131	10
132	1
133	9
134	0
135	1
143	3
145	1
147	87
148	5
149	4
161	1
162	0
163	0
173	0
189	98
190	8
191	4
217	0
218	1
219	40
220	4
221	1
