Mass Spectrum: Propionic acid, 2,2-bis(hydroxymethyl)-, methyl ester
Formula: C6H12O4
CAS: 17872-55-8
Molecular weight: 148
m/z	intensity
27	135
29	427
30	230
31	235
39	418
40	165
41	922
43	90
44	96
45	108
55	74
56	32
57	62
58	42
59	167
68	35
69	999
70	61
71	84
73	22
81	31
82	24
84	183
85	235
87	16
88	52
98	31
99	183
100	715
101	147
102	14
117	47
118	142
130	13
