Mass Spectrum: 2,5-Heptadien-4-ol, 3,5-dimethyl-4-[2-(pyrrolidin-1-yl)ethyl]-
Formula: C15H27NO
CAS: 178763-04-7
Molecular weight: 237
m/z	intensity
26	1
27	26
28	8
29	45
30	25
31	0
38	0
39	17
41	38
42	94
43	30
44	5
45	2
50	0
51	2
52	1
53	12
54	8
55	90
56	32
57	6
58	2
59	0
63	0
65	3
66	0
67	9
68	6
69	30
70	54
71	69
72	8
73	0
77	7
78	1
79	7
80	2
81	5
82	14
83	85
84	999
85	61
86	1
91	6
92	0
93	4
94	1
95	6
96	31
97	164
98	65
99	12
100	13
101	0
103	0
104	0
105	4
106	0
107	3
108	1
109	4
110	5
111	12
112	1
115	0
117	0
119	1
120	0
121	5
122	1
123	3
124	6
125	19
126	15
127	1
128	1
133	1
134	0
135	1
136	2
137	4
138	6
139	4
140	2
141	0
148	0
149	0
150	0
151	1
152	2
153	1
154	1
155	6
156	0
162	0
164	0
165	1
166	5
167	0
168	1
169	0
180	19
181	4
182	56
183	6
184	0
190	0
194	0
204	1
208	3
209	0
219	0
220	8
221	1
222	8
223	1
236	4
237	40
238	7
239	0
