Mass Spectrum: Silane, 1-cyclohexen-1-yltrimethyl-
Formula: C9H18Si
CAS: 17874-17-8
Molecular weight: 154
m/z	intensity
2	2
12	0
13	0
14	2
15	22
16	0
18	0
26	5
27	55
28	21
29	55
30	4
31	40
32	1
33	1
37	0
38	2
39	36
40	4
41	31
42	16
43	143
44	32
45	127
46	8
47	7
48	0
49	0
50	13
51	29
52	16
53	75
54	15
55	57
56	7
57	26
58	61
59	453
60	34
61	16
62	7
63	5
64	1
65	11
66	19
67	31
68	8
69	30
70	7
71	18
72	20
73	999
74	85
75	37
76	2
77	28
78	13
79	200
80	140
81	31
82	3
83	35
84	4
85	27
86	2
87	1
89	0
90	0
91	5
92	1
93	10
94	7
95	20
96	5
97	21
98	5
99	8
100	0
101	0
103	0
105	2
106	0
107	3
108	0
109	18
110	2
111	24
112	2
113	2
117	0
119	0
121	1
123	6
124	0
125	0
126	0
135	2
136	0
137	4
138	2
139	424
140	58
141	17
142	1
154	78
155	11
156	3
157	0
