Mass Spectrum: Acetamide, N-acetyl-N-(2-methylpropyl)-
Formula: C8H15NO2
CAS: 1787-52-6
Molecular weight: 157
m/z	intensity
15	210
27	140
28	80
29	140
30	870
39	100
41	200
42	100
43	999
55	80
56	90
57	60
58	100
60	160
72	820
73	150
84	380
100	110
102	360
103	30
114	90
115	50
142	30
157	20
