Mass Spectrum: Propionic acid, 3-bis(diethylphosphonatomethyl)amino-
Formula: C13H29NO8P2
CAS: 178762-71-5
Molecular weight: 389
m/z	intensity
33	13
34	15
35	3
36	16
37	9
38	19
39	56
40	47
41	240
42	999
43	355
44	171
45	98
47	67
48	10
49	7
50	9
51	16
52	20
53	24
54	46
55	174
56	148
57	51
58	66
59	14
60	11
61	7
62	7
63	9
65	253
66	19
67	17
68	63
69	22
70	124
71	24
72	20
73	30
74	11
75	3
76	5
77	17
78	30
79	51
80	56
81	106
82	93
83	100
84	237
85	19
86	13
87	4
88	2
89	2
90	4
91	28
92	25
93	70
94	16
95	51
96	64
97	137
98	32
99	20
100	48
102	76
104	10
105	5
106	33
107	14
108	45
109	45
110	26
111	62
112	9
114	228
115	36
116	41
117	4
118	4
119	3
120	11
121	63
122	53
123	20
124	153
125	126
126	8
127	11
128	17
129	4
130	6
131	2
132	4
133	2
134	5
136	61
137	11
138	23
139	44
140	4
141	5
142	29
143	6
144	3
145	3
146	3
147	1
148	5
149	4
150	37
152	175
153	28
154	3
155	2
156	2
157	1
158	5
159	3
160	4
161	2
162	3
163	4
164	35
165	8
166	25
167	3
168	2
169	1
170	2
171	9
172	2
173	1
174	2
175	1
176	5
177	4
178	36
180	184
181	13
182	2
183	0
184	8
185	3
186	1
187	1
188	1
189	1
190	1
191	2
192	24
193	11
194	82
195	8
196	16
197	1
198	0
199	1
200	1
201	0
202	0
203	0
204	4
205	3
206	28
207	5
208	28
209	3
210	4
211	0
212	0
213	0
214	0
215	0
216	0
217	0
218	1
219	2
220	38
221	5
222	17
224	63
225	5
226	0
228	1
231	0
232	0
233	1
234	8
235	2
236	6
237	8
238	108
239	10
240	1
241	0
248	4
250	45
252	784
253	70
254	9
255	1
256	1
266	8
267	0
272	0
278	2
280	45
281	4
282	0
289	0
290	0
294	0
302	3
308	2
309	0
316	1
317	3
330	5
331	0
343	0
344	1
345	0
387	0
388	0
389	8
390	1
