Mass Spectrum: 1,3-Cyclopentadiene, 1,2,3,4-tetramethyl-5-[2-(pyrrolidine-1-yl)ethyl]-
Formula: C15H25N
CAS: 178763-05-8
Molecular weight: 219
m/z	intensity
26	1
27	23
28	19
29	31
30	30
39	20
40	1
41	48
42	131
43	18
44	3
45	0
50	0
51	5
52	2
53	13
54	9
55	74
56	23
57	6
58	1
63	2
64	1
65	8
66	1
67	8
68	5
69	24
70	22
71	7
72	9
73	0
77	18
78	3
79	16
80	4
81	3
82	15
83	27
84	999
85	98
86	2
89	0
91	29
92	3
93	12
94	2
95	2
96	29
97	97
98	19
99	2
100	2
102	0
103	4
104	2
105	30
106	5
107	24
108	3
109	2
110	2
111	1
115	5
116	2
117	6
118	2
119	20
120	7
121	15
122	9
123	1
124	2
125	0
128	1
129	1
130	0
131	2
132	1
133	29
134	7
135	9
136	3
137	2
138	1
139	1
144	0
145	0
146	1
147	3
148	13
149	14
150	2
151	0
153	0
154	0
160	0
161	0
162	1
163	0
164	1
166	1
172	0
174	0
176	0
180	0
181	3
182	1
188	1
189	0
190	1
191	0
202	1
203	0
204	13
205	2
217	0
218	6
219	102
220	18
221	1
