Mass Spectrum: Cyclohexanecarbonitrile, 4-hydroximino-1-phenyl-
Formula: C13H14N2O
CAS: 178803-89-9
Molecular weight: 214
m/z	intensity
33	6
34	1
37	22
38	99
39	368
40	199
41	334
42	111
43	85
44	66
45	26
46	25
50	194
51	315
52	126
53	144
54	205
55	108
56	56
57	112
59	2
60	2
61	17
62	62
63	129
64	71
65	120
66	59
67	163
68	70
69	163
70	38
71	19
72	15
73	10
74	45
75	70
76	140
77	306
78	229
79	115
80	42
81	32
82	24
83	44
84	154
85	152
86	21
87	27
88	54
89	133
91	999
92	96
93	23
94	19
95	19
96	36
97	6
98	5
99	6
101	87
102	219
103	308
104	93
105	75
106	18
107	11
108	11
109	35
110	10
111	4
112	10
113	39
114	122
115	450
116	216
117	101
118	18
119	13
120	8
121	16
122	2
123	11
124	1
125	4
126	21
127	105
128	318
129	670
130	225
131	39
132	29
133	7
134	3
135	1
136	6
137	3
138	4
139	26
140	108
141	186
142	205
143	101
144	33
145	72
146	10
147	0
148	0
149	4
150	0
151	5
152	14
153	34
154	45
155	43
156	42
157	53
158	90
159	215
160	22
161	0
163	1
165	1
166	5
167	30
168	109
169	96
170	238
171	36
172	3
180	3
181	3
182	5
184	14
186	297
187	518
188	65
189	3
195	3
196	2
197	10
198	32
199	4
205	1
213	44
214	295
215	37
216	1
