Mass Spectrum: 5-Ethynyl-2-pyridinecarboxylic acid
Formula: C8H5NO2
CAS: 17880-57-8
Molecular weight: 147
m/z	intensity
39	48
41	21
43	34
45	116
49	18
50	511
51	256
52	132
62	41
63	70
64	38
73	37
74	207
75	284
76	562
77	81
101	28
102	189
103	999
104	101
147	50
