Mass Spectrum: 4-Bromoacetyl-6,8-dichloro-2-[4-fluorophenyl]quinoline
Formula: C17H9BrCl2FNO
CAS: 17887-88-6
Molecular weight: 411
m/z	intensity
41	174
42	155
43	999
44	362
45	37
47	47
48	14
49	30
50	48
51	12
55	62
56	118
57	107
58	262
59	262
61	21
63	37
68	53
69	65
70	171
71	58
72	73
73	33
74	115
75	112
80	22
81	43
82	63
83	57
84	29
85	81
86	19
87	62
88	15
91	17
93	31
94	54
95	108
96	82
97	73
98	203
99	208
100	47
101	10
102	11
103	36
104	11
107	10
108	38
109	73
110	185
111	74
112	68
113	87
114	131
115	36
117	80
120	21
121	41
122	21
123	38
124	37
125	39
126	51
127	211
128	273
129	11
133	211
134	101
135	94
136	39
140	62
142	42
145	66
146	25
147	10
148	9
149	44
154	40
159	81
160	56
166	55
168	74
169	99
171	107
173	26
182	10
183	69
185	45
192	22
193	36
195	45
196	23
197	67
200	20
207	14
208	9
219	269
220	94
221	21
224	10
232	36
234	42
235	31
254	43
255	322
256	111
257	114
258	31
269	23
290	496
291	170
292	323
293	100
294	60
297	14
298	64
300	23
304	25
305	338
306	78
307	210
308	40
309	41
318	353
319	44
320	244
321	41
322	44
332	52
333	606
334	150
335	380
336	80
337	70
356	10
367	45
369	58
411	97
413	160
414	22
415	72
417	10
