Mass Spectrum: Carbamic acid, N-(2-methylpropyl)-, 2-methylpropyl ester
Formula: C9H19NO2
CAS: 178918-28-0
Molecular weight: 173
m/z	intensity
26	3
27	37
29	395
30	23
31	7
33	15
38	1
39	44
40	31
41	257
42	65
43	68
44	121
45	15
46	3
51	1
53	6
54	2
55	29
56	111
57	999
58	668
59	27
61	5
67	0
68	1
69	2
70	35
71	29
72	331
73	34
74	16
81	0
83	1
84	5
85	1
86	13
88	9
90	25
91	2
93	0
94	2
98	4
100	490
101	32
102	533
103	22
104	3
114	15
115	12
116	396
117	164
118	791
119	54
120	6
128	1
130	3
131	0
158	360
159	46
160	4
171	7
172	4
173	125
174	13
