Mass Spectrum: trans-1-Trimethylsilyl-2-dimethylethylsilylethylene
Formula: C9H22Si2
CAS: 17891-64-4
Molecular weight: 186
m/z	intensity
31	48
45	37
59	146
60	19
73	999
74	87
75	60
87	262
88	26
89	8
112	111
113	60
141	18
143	42
157	637
158	128
159	60
171	111
172	17
173	9
186	113
187	29
188	21
