Mass Spectrum: 1,3-Bis(trimethylsilyl)propene
Formula: C9H22Si2
CAS: 17891-78-0
Molecular weight: 186
m/z	intensity
41	6
42	6
43	103
45	182
46	18
47	15
51	6
53	9
55	18
57	15
58	15
59	48
60	3
69	18
70	6
71	3
72	18
73	999
74	79
75	67
83	61
84	9
85	18
95	6
96	3
97	15
98	276
99	30
100	12
111	3
115	3
129	12
131	9
145	9
171	18
172	3
186	16
187	3
188	1
