Mass Spectrum: Bis(pentamethylcyclotrisiloxy)tetramethyldisiloxane
Formula: C14H42O9Si8
CAS: 17909-18-1
Molecular weight: 578
m/z	intensity
57	105
58	40
59	50
69	58
70	20
71	47
72	9
73	999
74	194
75	109
76	8
79	16
81	10
82	27
83	31
85	30
87	29
88	9
95	33
96	11
97	22
98	12
109	10
110	9
111	13
123	63
124	10
125	10
131	36
132	8
133	36
147	842
148	128
149	88
150	9
191	12
192	7
193	14
205	13
207	47
208	8
221	98
222	25
223	14
251	15
265	14
266	8
267	18
268	3
281	95
282	42
283	15
297	10
325	27
326	11
327	24
341	138
342	51
343	30
355	21
385	21
386	10
387	14
401	174
402	65
403	39
404	19
415	18
429	9
445	23
446	8
459	129
460	59
461	58
462	21
475	460
476	182
477	140
478	46
479	16
563	308
564	159
565	120
566	55
567	15
568	12
