Mass Spectrum: 1,3,5,7,9,11,13-Heptaethylcycloheptasiloxane
Formula: C14H42O7Si7
CAS: 17909-36-3
Molecular weight: 518
m/z	intensity
41	76
42	21
43	7
59	999
60	67
61	24
73	56
74	8
75	36
76	5
77	64
78	14
81	28
82	20
83	25
84	18
87	795
88	62
89	71
90	5
91	3
103	183
104	19
105	196
106	10
107	0
115	170
116	20
117	21
118	1
133	81
134	9
137	29
161	53
162	11
163	3
165	41
166	5
167	0
183	40
184	6
185	1
267	141
268	30
269	27
270	4
285	30
286	9
287	19
288	4
295	208
296	64
297	40
298	7
313	180
314	40
315	61
316	9
327	50
328	18
329	9
330	2
341	417
342	208
343	210
344	41
345	21
355	381
356	296
357	208
358	48
359	18
369	402
370	212
371	201
372	51
373	30
383	286
384	103
385	73
386	24
399	79
400	26
401	84
402	33
403	24
429	390
430	226
431	157
432	48
433	17
459	20
460	9
461	16
462	7
489	380
490	224
491	157
492	57
493	22
517	7
518	4
