Mass Spectrum: Vinyldibutoxychlorosilane
Formula: C10H21ClO2Si
CAS: 17906-44-4
Molecular weight: 236
m/z	intensity
35	74
36	19
37	37
57	999
58	219
59	17
60	2
89	13
90	4
97	50
98	2
99	18
107	693
108	100
109	231
137	23
138	4
139	17
153	770
154	129
155	293
156	28
163	39
164	9
165	24
193	385
194	61
195	123
196	14
201	4
202	2
209	39
210	12
211	19
