Mass Spectrum: 2,5,7,10-Tetraoxa-6-silaundecane, 6-(2-methoxyethoxy)-6-phenyl-
Formula: C15H26O6Si
CAS: 17903-05-8
Molecular weight: 330
m/z	intensity
15	96
17	3
26	6
27	28
29	241
30	11
31	51
33	5
39	8
41	5
42	7
43	76
45	999
46	29
47	12
50	8
51	31
52	5
53	4
58	42
59	149
60	11
61	12
62	3
63	25
65	10
66	3
71	10
75	4
76	14
77	104
78	68
79	31
87	13
89	9
90	2
91	281
92	34
93	25
94	16
95	6
101	5
102	5
103	17
104	64
105	56
106	9
107	169
108	17
109	8
117	19
118	6
119	21
121	180
122	45
123	154
124	19
125	6
131	13
132	12
133	15
134	8
135	43
136	47
137	286
138	41
139	39
140	4
147	12
148	5
149	13
150	10
151	18
152	2
153	71
154	9
161	5
163	45
164	8
165	82
166	2
167	936
168	131
169	44
170	1
177	8
178	6
179	31
180	8
181	19
194	3
195	30
196	4
197	16
209	60
210	13
211	96
212	16
213	5
253	757
254	124
255	640
256	118
257	36
258	2
312	1
313	1
339	4
340	2
