Mass Spectrum: 1,3-Dichloro-2,2,4,4-tetramethylbicyclo[1.1.0]butane
Formula: C8H12Cl2
CAS: 17913-65-4
Molecular weight: 178
m/z	intensity
41	180
51	160
53	160
65	230
67	110
77	260
79	390
91	999
92	170
93	190
101	120
105	150
107	800
108	160
127	250
128	100
129	110
143	830
145	260
163	140
165	100
178	440
180	290
182	50
