Mass Spectrum: 3,5-Difluorobenzophenone
Formula: C13H8F2O
CAS: 179113-89-4
Molecular weight: 218
m/z	intensity
14	2
15	1
18	3
19	1
26	10
27	49
28	21
29	4
31	20
32	4
33	1
37	12
38	24
39	35
40	2
44	1
45	2
50	191
51	422
52	21
53	12
56	5
57	23
61	18
62	48
63	270
64	16
65	1
68	26
69	15
70	2
72	2
73	13
74	73
75	48
76	1
77	673
78	45
79	2
80	5
81	20
82	5
83	1
84	1
85	30
86	9
87	16
88	4
92	12
93	33
94	29
95	8
98	6
99	13
100	2
101	2
105	999
106	72
107	5
109	3
110	4
111	5
112	2
113	286
114	23
117	2
118	2
120	1
122	2
123	4
125	3
138	5
139	1
141	171
142	15
143	5
144	2
149	3
150	2
151	4
162	5
163	1
164	2
167	2
168	7
169	7
170	6
171	2
186	2
187	4
188	23
189	12
190	7
198	4
199	3
201	2
218	275
219	36
220	3
