Mass Spectrum: 1,3-Dicyclohexyl-1-[N-nitroso-N-[4-[p-nitrophenylsulfonyl]phenyl]]glycylurea
Formula: C27H33N5O7S
CAS: 17929-50-9
Molecular weight: 571
m/z	intensity
41	634
42	270
43	231
44	84
46	40
50	49
51	54
52	37
53	121
54	518
55	598
56	611
58	17
61	22
63	49
64	23
65	150
67	872
69	506
70	108
74	10
75	39
76	59
77	62
79	63
80	84
82	999
83	477
84	55
85	9
92	128
93	11
96	289
97	835
98	159
99	75
104	65
105	143
108	169
110	56
115	61
120	66
122	13
124	88
125	197
126	40
136	11
139	11
140	40
143	11
152	42
156	90
167	14
168	35
170	24
181	98
197	108
199	26
224	27
225	20
245	101
263	202
264	12
275	24
278	267
279	37
289	46
290	99
291	535
292	134
293	52
306	143
307	23
415	38
416	24
417	142
418	34
542	10
