Mass Spectrum: 1,7-Nonadien-4-ol, 4,8-dimethyl-
Formula: C11H20O
CAS: 17920-92-2
Molecular weight: 168
m/z	intensity
25	1
26	13
27	182
28	34
29	124
30	4
31	17
33	1
34	1
36	2
37	4
38	12
39	203
40	43
41	605
42	60
43	999
44	27
45	18
46	1
47	1
48	2
50	3
51	13
52	7
53	50
54	9
55	80
56	20
57	20
58	26
59	11
60	1
62	2
63	5
64	1
65	10
66	6
67	90
68	24
69	385
70	24
71	46
72	4
73	2
74	1
75	2
76	2
77	10
78	1
79	20
80	5
81	18
82	13
83	9
84	5
85	10
86	2
88	1
89	1
91	7
92	3
93	10
94	9
95	8
96	2
97	2
98	1
103	2
104	1
105	2
106	1
107	9
109	140
110	15
111	4
115	1
118	1
119	1
121	2
122	1
125	1
127	3
128	1
133	1
135	2
136	1
150	3
153	1
