Mass Spectrum: Bicyclo[3.3.1]nonan-3-one, 7-methylene-
Formula: C10H14O
CAS: 17933-29-8
Molecular weight: 150
m/z	intensity
26	5
27	66
28	20
29	28
31	2
37	3
38	12
39	172
40	46
41	176
42	23
43	16
44	2
45	2
46	2
49	2
50	13
51	38
52	23
53	90
54	58
55	69
56	7
57	4
58	54
59	38
60	5
61	4
62	5
63	15
64	6
65	49
66	42
67	185
68	48
69	13
70	2
71	2
72	3
74	2
75	4
76	3
77	106
78	37
79	170
80	76
81	156
82	69
83	43
84	4
89	4
90	9
91	156
92	999
93	335
94	53
95	359
96	29
97	3
103	6
104	4
105	20
106	101
107	70
108	35
109	33
110	4
115	3
116	3
117	14
118	3
119	3
120	2
121	10
122	9
123	2
131	2
132	31
133	6
135	13
136	3
148	3
149	9
150	361
151	52
152	4
153	2
