Mass Spectrum: Acetic acid, [(1-thioxoethyl)thio]-
Formula: C4H6O2S2
CAS: 17930-82-4
Molecular weight: 150
m/z	intensity
27	11
28	14
29	13
31	18
32	12
42	22
43	16
44	25
45	99
46	42
47	36
57	46
58	135
59	999
60	42
61	51
64	8
74	7
76	28
77	11
88	4
89	4
90	5
91	36
92	12
93	5
105	5
117	12
133	5
150	290
151	19
152	28
