Mass Spectrum: D:A-Friedooleanan-2-one
Formula: C30H50O
CAS: 17947-04-5
Molecular weight: 426
m/z	intensity
41	742
42	150
43	999
44	227
45	91
53	91
54	80
55	867
56	264
57	856
58	77
59	47
60	397
61	84
67	448
68	286
69	885
70	301
71	588
72	44
73	367
77	73
79	158
80	66
81	624
82	375
83	595
84	183
85	378
87	66
91	114
93	257
94	106
95	680
96	514
97	522
98	150
99	128
101	55
104	44
105	147
106	44
107	264
108	139
109	621
110	264
111	378
112	121
113	114
115	84
119	136
120	66
121	305
122	121
123	555
124	433
125	525
126	88
127	80
129	150
133	143
134	58
135	231
136	136
137	349
138	169
139	99
140	55
141	51
143	40
145	58
147	191
148	51
149	308
150	117
151	139
152	121
153	66
155	44
157	55
159	44
161	80
162	58
163	250
164	121
165	91
166	55
167	77
171	55
175	66
177	136
178	77
179	257
180	77
185	51
189	66
190	44
191	235
192	121
193	147
194	69
200	47
203	55
204	261
205	433
206	154
207	84
213	47
215	55
217	80
218	158
219	121
220	132
221	58
228	66
229	55
231	264
232	227
233	202
234	80
245	51
246	161
247	136
248	154
249	44
256	220
257	91
259	51
261	51
273	316
274	279
275	161
276	44
287	55
302	514
303	275
304	66
411	139
412	47
426	724
427	238
428	51
