Mass Spectrum: Cyclopentanemethylamine, 2-isopropylidene-N,N,5-trimethyl-, (1S,5R)-(+)-
Formula: C12H23N
CAS: 17943-85-0
Molecular weight: 181
m/z	intensity
13	2
14	9
15	53
16	3
17	4
18	18
25	0
26	4
27	57
28	63
29	42
30	28
31	1
32	1
36	0
37	1
38	5
39	64
40	15
41	80
42	83
43	37
44	42
45	10
46	3
49	0
50	6
51	18
52	9
53	30
54	5
55	28
56	8
57	52
58	999
59	45
60	1
61	1
62	2
63	6
64	2
65	17
66	7
67	23
68	7
69	7
70	2
71	3
72	3
73	2
74	1
75	2
76	1
77	33
78	10
79	55
80	11
81	47
82	8
83	1
84	2
85	1
89	2
90	2
91	40
92	8
93	39
94	11
95	10
96	3
97	0
98	2
99	0
102	1
103	3
104	2
105	13
106	4
107	46
108	14
109	11
110	2
111	1
112	0
115	3
116	1
117	3
118	1
119	9
120	4
121	30
122	21
123	6
124	5
125	0
126	0
127	0
128	0
129	1
130	0
131	1
132	2
133	1
134	5
135	2
136	16
137	3
138	2
139	0
143	0
144	1
145	1
146	1
147	0
148	1
149	0
150	2
151	0
152	1
153	0
158	1
159	0
160	4
161	0
162	6
163	1
164	10
165	1
166	1
172	0
173	0
174	1
175	1
176	0
177	2
178	1
179	8
180	3
181	3
182	0
