Mass Spectrum: 2(1H)-Isoquinolinecarboxylic acid, 1-cyano-1-methyl-, ethyl ester
Formula: C14H14N2O2
CAS: 17954-28-8
Molecular weight: 242
m/z	intensity
29	999
50	70
51	120
63	90
64	30
65	30
74	30
75	80
76	80
77	100
89	60
101	100
102	60
103	30
114	40
115	220
116	90
127	130
128	360
129	40
140	60
141	30
142	70
143	750
144	110
153	30
154	130
155	999
156	130
168	20
169	110
170	20
183	100
197	10
227	90
228	10
242	130
243	20
