Mass Spectrum: Propane, 2-isocyanato-
Formula: C4H7NO
CAS: 1795-48-8
Molecular weight: 85
m/z	intensity
12	1
13	2
14	9
15	115
16	1
25	3
26	16
27	69
28	24
29	7
30	2
37	6
38	11
39	44
40	36
41	89
42	301
43	90
44	7
51	4
52	5
54	4
55	2
56	21
57	1
68	2
69	22
70	999
71	38
72	2
84	14
85	112
86	6
