Mass Spectrum: 2-(Phenylacetamido)propionic acid, (dl)-
Formula: C11H13NO3
CAS: 17966-65-3
Molecular weight: 207
m/z	intensity
15	5
17	1
18	1
26	2
27	15
28	23
29	24
30	1
31	1
37	1
38	6
39	53
40	6
41	18
42	22
43	16
44	405
45	29
46	2
50	9
51	28
52	8
53	3
55	10
56	1
57	1
59	4
61	1
62	9
63	39
64	13
65	156
66	9
67	1
70	113
71	6
72	11
73	9
74	6
75	2
76	2
77	9
78	4
79	3
81	26
86	2
87	2
88	206
89	59
90	50
91	708
92	999
93	79
94	3
103	1
104	18
105	24
106	6
107	2
115	1
116	22
117	5
118	52
119	11
120	4
132	5
133	2
134	1
146	3
148	4
160	2
161	2
162	55
163	283
164	31
165	2
189	3
207	101
208	14
209	1
