Mass Spectrum: Pyridine, 4-ethoxy-3-nitro-
Formula: C7H8N2O3
CAS: 1796-84-5
Molecular weight: 168
m/z	intensity
33	0
34	0
35	8
36	6
37	61
38	242
39	400
40	86
41	43
42	20
43	48
44	28
45	53
46	13
47	18
48	7
49	18
50	81
51	86
52	90
53	142
54	83
55	87
56	7
57	5
60	2
62	1
63	6
64	27
65	36
66	160
67	157
68	44
69	18
70	30
71	16
72	0
73	2
74	0
76	29
77	13
78	51
80	70
81	26
82	70
83	74
85	42
86	0
87	6
91	1
92	9
94	999
95	61
96	53
97	3
105	1
106	9
107	109
108	13
109	6
110	15
111	2
112	1
117	1
119	0
120	3
122	6
123	26
124	285
125	39
126	4
128	0
135	0
136	0
137	0
138	7
140	683
141	39
142	5
149	1
151	0
167	3
168	99
169	8
171	1
172	0
