Mass Spectrum: Bis(2-phenylethyl)silane
Formula: C16H20Si
CAS: 17964-32-8
Molecular weight: 240
m/z	intensity
27	25
31	19
39	27
41	9
43	32
44	4
45	13
50	11
51	38
52	13
53	25
55	16
57	9
58	11
63	13
65	62
67	12
77	64
78	53
79	34
81	27
91	179
92	27
93	14
103	60
104	78
105	140
106	119
107	999
108	150
109	50
119	21
120	9
121	18
131	70
132	74
133	366
134	251
135	812
136	138
137	35
160	18
161	25
162	306
163	45
164	13
183	10
212	13
240	93
241	23
