Mass Spectrum: N-p-Tolyl-4H-5,7a-epoxyisoindoline
Formula: C15H17NO
CAS: 17960-76-8
Molecular weight: 227
m/z	intensity
39	80
41	70
51	40
52	30
53	160
65	120
77	70
78	30
79	50
81	999
82	60
89	30
90	30
91	270
92	30
105	60
118	190
119	80
120	30
130	50
131	40
144	40
145	30
146	50
158	110
170	50
171	30
227	510
228	90
