Mass Spectrum: 3a,6-Epoxy-3aH-isoindole, 1,2,3,6,7,7a-hexahydro-2-phenyl-
Formula: C14H15NO
CAS: 17960-73-5
Molecular weight: 213
m/z	intensity
51	50
65	40
77	230
78	30
79	40
81	999
82	70
91	80
104	140
105	70
106	40
115	30
117	30
119	30
130	40
131	30
132	40
144	90
156	30
170	30
172	30
184	30
213	480
214	90
