Mass Spectrum: 1,3-Bis{2,2,2-trichloro-1-[(trimethylsilyl)oxy]ethyl}urea
Formula: C11H22Cl6N2O3Si2
CAS: 17963-33-6
Molecular weight: 496
m/z	intensity
15	2
26	1
27	2
28	13
29	8
30	1
31	2
35	6
36	19
37	2
38	7
39	1
40	1
41	1
42	4
43	28
44	23
45	102
46	10
47	41
48	5
49	4
50	1
52	1
53	2
54	3
55	7
56	4
57	9
58	9
59	19
60	8
61	13
62	6
63	15
64	16
65	26
66	7
67	8
68	1
69	2
70	9
71	6
72	39
73	999
74	111
75	255
76	24
77	12
78	5
79	17
80	2
81	6
82	13
83	23
84	11
85	15
86	4
87	4
88	1
89	4
90	17
91	3
92	25
93	298
94	27
95	112
96	8
97	7
98	2
99	8
100	47
101	8
102	50
103	7
104	4
105	2
106	1
107	5
108	2
109	6
110	15
111	56
112	11
113	52
114	5
115	18
116	7
117	31
118	586
119	68
120	47
121	7
122	11
123	2
124	2
125	2
126	4
127	3
128	3
129	5
130	4
131	8
132	4
133	8
134	2
135	4
136	5
137	22
138	10
139	13
140	4
141	3
142	1
143	1
144	48
145	10
146	32
147	43
148	31
149	5
150	10
151	1
152	2
153	2
154	1
155	1
156	4
157	24
158	5
159	15
160	2
161	3
162	1
163	7
164	6
165	5
166	3
167	5
168	1
169	9
170	1
171	6
172	3
173	5
174	4
175	1
176	1
177	1
179	1
181	1
183	3
184	22
185	6
186	13
187	3
188	4
189	19
190	11
191	4
192	2
193	2
194	1
199	17
200	10
201	12
202	8
203	3
204	3
205	1
206	2
207	1
208	1
209	1
210	1
211	3
212	3
213	3
214	2
215	2
216	1
217	2
218	4
219	42
220	22
221	41
222	18
223	15
224	6
225	4
226	1
227	4
228	1
229	2
230	1
231	1
237	1
239	1
241	1
245	22
246	4
247	24
248	3
249	8
250	2
251	1
255	1
257	1
259	1
263	7
264	1
265	7
266	1
267	2
273	1
275	1
289	6
290	1
291	6
292	1
293	3
294	1
295	1
299	1
301	1
303	1
309	1
311	2
313	1
317	1
319	1
321	1
323	1
325	1
335	16
336	3
337	17
338	3
339	6
340	1
341	1
345	1
357	4
358	1
359	5
360	1
361	3
362	1
363	1
365	1
371	1
372	1
373	2
374	1
375	2
377	1
379	24
380	5
381	23
382	5
383	8
384	2
385	2
391	42
392	5
393	80
394	10
395	62
396	9
397	28
398	3
399	8
400	1
401	1
447	1
449	1
451	1
462	1
464	1
481	12
482	3
483	25
484	5
485	21
486	4
487	10
488	2
489	3
