Mass Spectrum: Silacycloundec-6-yne, 1,1-dimethyl-
Formula: C12H22Si
CAS: 17973-78-3
Molecular weight: 194
m/z	intensity
41	100
42	30
43	430
44	120
45	220
46	10
51	40
52	20
53	60
54	10
55	100
56	20
57	60
58	130
59	999
60	70
61	40
65	30
66	30
67	90
68	10
69	60
70	10
71	110
72	110
73	90
77	50
78	10
79	100
80	30
81	40
82	10
83	110
84	10
85	230
86	30
87	30
91	50
92	10
93	90
94	50
95	90
96	20
97	170
98	50
99	150
100	10
105	20
106	10
107	20
109	140
110	20
111	280
112	40
113	40
119	10
121	20
123	100
124	10
125	100
126	60
127	10
134	40
135	40
136	10
137	50
138	40
139	20
149	20
151	160
152	20
153	60
179	230
180	30
181	10
