Mass Spectrum: 1,4-Dimethoxy-2,3-diacetamidobenzene
Formula: C12H16N2O4
CAS: 1797-84-8
Molecular weight: 252
m/z	intensity
41	15
42	21
43	999
44	20
45	3
50	3
51	8
52	24
53	35
54	90
55	23
56	4
63	5
64	14
65	17
66	21
67	19
68	12
69	38
70	1
76	5
77	5
78	9
79	8
80	30
81	38
82	27
83	5
90	2
91	2
92	16
93	12
94	26
95	13
96	8
97	2
98	0
104	3
105	6
106	6
107	11
108	24
109	41
110	64
111	3
117	3
119	2
120	7
121	10
122	12
123	10
124	29
125	58
126	3
131	2
132	2
133	3
134	4
135	7
136	12
137	8
138	28
139	5
140	3
147	0
148	0
149	15
150	10
151	35
152	7
153	309
154	22
155	0
161	1
162	7
163	62
164	13
165	10
167	115
168	152
169	18
175	3
177	70
178	24
179	36
180	8
181	4
191	58
192	149
193	128
194	6
195	130
196	11
203	10
209	6
210	98
211	71
212	7
221	59
222	6
223	0
234	3
250	0
252	220
253	26
254	4
