Mass Spectrum: Phosphinous acid, diphenyl-, 2-(dimethylamino)ethyl ester
Formula: C16H20NOP
CAS: 17986-71-9
Molecular weight: 273
m/z	intensity
26	1
27	10
28	10
29	20
30	35
31	0
34	0
38	0
39	6
40	9
41	6
42	66
43	93
44	58
45	1
47	45
48	0
49	0
50	7
51	42
52	4
53	0
54	1
55	3
56	61
57	22
58	470
59	15
62	0
63	3
64	0
65	3
66	0
67	0
68	1
69	2
70	43
71	999
72	417
73	19
74	1
75	1
76	2
77	68
78	15
79	2
80	1
81	4
82	1
83	3
84	0
85	0
86	1
87	0
88	0
89	1
91	4
92	0
93	0
94	0
95	5
96	3
97	0
99	0
101	0
102	1
103	0
104	13
105	4
106	0
107	19
108	12
109	4
110	0
115	5
116	1
117	0
118	0
120	1
121	1
123	3
124	9
125	17
126	3
127	1
128	5
129	2
130	0
131	0
132	0
133	6
134	0
137	8
139	2
140	0
141	2
142	0
143	0
144	0
145	0
146	0
147	1
149	0
150	0
151	2
152	14
153	7
154	8
155	13
156	1
157	4
158	0
159	1
160	0
161	0
166	1
168	0
169	0
170	4
171	3
172	0
173	4
174	0
175	0
181	1
182	1
183	56
184	8
185	14
186	6
187	1
196	1
197	0
199	2
200	0
201	134
202	34
203	41
204	4
205	0
207	0
214	1
215	0
216	0
217	1
218	0
219	0
227	0
228	0
229	1
230	41
231	8
232	1
242	0
246	4
247	0
256	0
257	1
258	0
272	1
273	2
274	0
