Mass Spectrum: 3,4-Dihydro-2-methyl-2-phenyl-2H-pyrrole, 1-oxide
Formula: C11H13NO
CAS: 179807-10-4
Molecular weight: 175
m/z	intensity
41	374
42	97
43	97
44	367
45	23
46	28
49	29
50	406
51	999
52	269
53	212
54	129
55	172
62	95
63	306
64	113
65	322
66	52
67	39
68	99
69	23
70	32
74	96
75	109
76	179
77	857
78	588
79	142
80	54
88	18
89	121
90	63
91	771
92	73
101	27
102	158
103	499
104	518
105	489
106	53
107	10
110	66
111	66
112	121
113	75
114	167
115	821
116	291
117	954
118	466
119	79
120	18
126	24
127	119
128	293
129	371
130	613
131	473
132	104
133	39
140	33
141	74
142	70
143	892
144	411
145	69
146	264
147	181
148	22
153	19
154	66
155	96
156	281
157	122
158	199
159	222
160	23
173	11
174	25
175	770
176	115
