Mass Spectrum: Silane, chloro(1-indenyl)dimethyl-
Formula: C11H13ClSi
CAS: 17998-70-8
Molecular weight: 208
m/z	intensity
27	2
29	5
38	3
39	29
40	4
41	2
42	1
43	19
44	1
45	2
47	3
50	6
51	11
52	2
53	11
54	1
55	2
57	2
58	3
59	5
61	1
62	13
63	50
64	6
65	83
66	5
67	28
74	6
75	48
76	6
77	11
78	7
79	15
80	2
81	4
86	3
87	9
88	9
89	54
90	4
91	2
92	6
93	999
94	88
95	448
96	25
97	11
101	1
102	5
103	2
105	5
113	12
114	12
115	178
116	20
117	4
119	1
126	2
127	13
128	40
129	25
130	5
131	4
132	1
141	3
142	3
143	10
144	1
145	8
146	2
147	1
153	1
155	2
157	2
158	2
159	1
165	22
166	3
167	9
168	2
171	3
172	9
173	9
174	3
175	2
177	2
179	2
190	5
192	3
193	24
194	5
195	8
196	1
208	312
209	48
210	107
211	18
212	3
