Mass Spectrum: 1,5-Dithiaspiro(5.5)undecane
Formula: C9H16S2
CAS: 180-96-1
Molecular weight: 188
m/z	intensity
46	170
53	130
58	140
67	80
71	210
73	140
77	70
79	270
81	110
85	90
99	110
106	190
107	80
114	999
115	80
116	40
141	40
145	730
146	90
147	60
155	260
188	950
189	110
190	90
191	9
192	2
