Mass Spectrum: 1,7-Dioxa-4,10-dithiaspiro[5.5]undecane
Formula: C7H12O2S2
CAS: 180-86-9
Molecular weight: 192
m/z	intensity
43	90
45	180
46	540
59	100
60	150
61	150
73	120
74	250
75	550
88	40
115	90
116	80
118	300
119	999
164	190
192	230
193	21
194	19
