Mass Spectrum: Benzaldehyde, 4,5-dibenzyloxy-2-nitro-
Formula: C21H17NO5
CAS: 18002-41-0
Molecular weight: 363
m/z	intensity
41	19
42	4
43	12
44	4
45	3
49	2
50	10
51	24
52	6
53	5
54	2
55	8
56	3
57	5
58	0
59	0
60	2
61	1
62	5
63	19
64	7
65	112
66	6
67	2
68	3
69	6
70	2
71	3
72	0
73	2
74	1
75	1
76	1
77	9
78	6
79	5
80	4
81	4
82	4
83	3
84	14
85	2
86	1
87	1
88	0
89	22
90	11
91	999
92	116
93	5
94	3
95	3
96	2
97	3
98	3
99	1
100	1
101	0
102	0
103	1
104	0
105	3
106	2
107	2
108	1
109	0
110	3
111	1
112	0
113	0
114	0
115	3
116	0
119	1
120	1
121	1
122	2
123	2
124	5
125	1
126	0
127	0
128	1
129	1
131	1
135	1
136	1
138	5
139	2
140	1
141	2
149	1
150	0
151	1
152	2
153	4
154	0
165	1
166	1
167	2
168	0
169	0
174	1
178	0
179	1
180	1
181	69
182	11
183	1
197	2
198	1
211	0
219	1
227	1
228	0
242	2
243	0
244	3
245	0
256	3
257	0
258	0
264	0
272	67
273	10
274	1
310	0
318	0
333	1
335	1
363	5
364	1
