Mass Spectrum: Acetic acid, 2-[(2-methoxybenzyl)oxy]-
Formula: C10H12O4
CAS: 180044-49-9
Molecular weight: 196
m/z	intensity
41	17
42	28
43	120
44	9
45	118
46	3
47	36
48	21
52	30
53	19
54	2
55	14
56	3
57	10
58	1
59	7
60	40
61	14
62	17
63	69
64	27
65	148
66	22
67	6
68	3
69	8
70	3
71	3
73	24
74	18
75	8
76	19
77	117
78	99
79	29
80	2
81	4
82	12
83	14
87	3
88	17
89	31
90	26
91	999
92	143
93	140
94	122
95	18
96	2
97	7
98	1
103	2
104	13
105	33
106	10
107	145
108	16
109	56
110	3
111	1
113	1
115	1
118	15
119	45
120	26
121	705
122	89
123	35
124	7
133	4
135	34
136	17
137	700
138	67
139	5
151	2
152	5
153	2
164	10
165	6
166	15
178	2
179	82
180	20
181	1
194	3
195	28
196	299
197	37
198	3
