Mass Spectrum: Cholestane, 2,2-dimethoxy-, (5.alpha.)-
Formula: C29H52O2
CAS: 18003-84-4
Molecular weight: 432
m/z	intensity
41	460
42	70
43	560
44	10
45	30
53	60
54	20
55	490
56	130
57	530
58	80
59	40
65	40
67	290
68	110
69	390
70	100
71	320
72	30
73	20
77	100
78	10
79	210
80	40
81	370
82	100
83	250
84	60
85	180
88	80
89	20
91	170
92	30
93	240
94	60
95	350
96	80
97	170
98	40
99	30
101	999
102	160
105	200
106	80
107	200
108	80
109	270
110	80
111	130
112	40
113	30
115	180
116	70
117	80
118	40
119	130
120	60
121	200
122	60
123	230
124	100
125	50
127	10
128	10
129	30
130	20
131	80
132	10
133	90
134	30
135	100
136	30
137	200
138	40
139	10
141	60
143	20
145	90
146	10
147	80
148	10
149	160
151	20
155	30
156	70
157	20
159	80
160	30
161	90
162	10
163	50
164	10
165	10
169	40
170	40
171	30
172	20
173	90
174	50
175	70
176	30
177	40
178	20
179	30
181	10
182	10
183	30
184	50
185	30
187	30
188	30
189	30
190	20
191	30
192	10
193	20
194	10
195	10
197	10
199	30
200	20
201	30
202	10
203	40
204	20
205	10
206	10
207	10
208	10
213	50
214	20
215	50
216	30
217	100
218	30
219	10
227	20
228	20
229	50
230	20
231	250
232	220
233	80
239	10
244	60
245	40
246	60
247	30
255	80
256	20
257	10
260	20
261	30
262	20
263	20
264	10
270	40
272	20
273	50
279	40
287	20
288	200
289	50
301	20
314	20
315	30
316	40
328	30
329	30
340	90
341	20
344	20
353	30
361	20
368	110
369	50
370	30
371	110
372	260
373	70
385	290
386	560
387	190
388	40
399	770
401	460
402	110
403	20
416	40
417	20
418	50
432	750
433	230
434	40
