Mass Spectrum: Silane, 1,4-butanediylbis[trimethyl-
Formula: C10H26Si2
CAS: 18001-81-5
Molecular weight: 202
m/z	intensity
21	0
22	0
24	0
25	1
26	1
27	1
28	1
29	6
30	0
31	8
33	0
35	0
36	0
37	0
38	0
39	2
41	1
42	1
43	32
44	14
45	77
46	6
47	3
48	0
49	0
51	0
52	0
53	2
54	1
55	4
56	1
57	5
58	29
59	58
60	5
61	2
65	0
66	0
67	1
68	0
69	2
70	2
71	12
72	13
73	999
74	80
75	40
76	1
81	0
83	1
84	0
85	12
86	102
87	10
88	3
93	0
95	3
96	0
97	11
98	3
99	163
100	20
101	56
102	6
103	2
111	1
112	1
113	6
114	17
115	2
116	0
117	1
129	0
130	0
131	0
143	0
146	0
158	0
159	1
171	0
173	0
174	2
175	0
187	25
188	5
189	2
202	1
