Mass Spectrum: Trisiloxane, 1,3-dichloro-1,1,3,5,5,5-hexamethyl-
Formula: C6H18Cl2O2Si3
CAS: 180140-66-3
Molecular weight: 276
m/z	intensity
26	0
27	3
28	3
29	1
31	0
36	2
39	3
40	0
41	1
42	0
43	12
44	6
45	38
46	2
47	4
50	4
51	10
52	2
55	1
57	3
58	2
59	39
60	3
61	6
63	11
65	19
67	5
69	0
71	5
72	3
73	999
74	78
75	43
76	3
77	27
78	4
79	15
80	2
81	7
83	3
85	5
87	13
88	3
89	4
90	2
91	2
92	4
93	101
94	9
95	40
96	4
97	10
98	6
99	2
101	1
103	9
104	2
105	52
106	6
107	9
108	5
109	5
110	0
111	1
113	23
114	9
115	21
116	6
117	7
119	8
120	10
121	3
123	56
124	38
125	14
127	2
131	5
133	82
134	14
135	9
136	3
137	18
138	4
139	10
140	0
141	1
143	1
151	15
152	2
153	25
154	3
155	8
157	10
159	9
161	3
165	4
167	27
168	4
169	10
171	8
173	7
175	5
179	2
181	3
187	28
188	4
189	30
190	4
191	6
195	3
197	2
201	2
207	2
209	40
210	9
211	24
212	4
213	4
215	3
217	2
225	16
226	3
227	7
229	5
231	9
233	6
241	81
242	19
243	35
244	8
245	24
246	4
247	16
248	3
249	4
261	597
262	119
263	451
264	86
265	103
266	20
267	9
