Mass Spectrum: 2-Undecylthiacyclohexane
Formula: C16H32S
CAS: 1801-98-5
Molecular weight: 256
m/z	intensity
39	39
41	206
42	29
43	191
45	45
47	35
53	22
54	26
55	149
56	28
57	45
59	42
60	18
61	20
67	105
68	35
69	66
70	16
71	39
73	20
79	14
81	41
82	28
83	35
84	12
85	85
87	114
88	37
89	12
95	23
96	15
97	23
99	12
100	20
101	999
102	78
103	43
115	33
143	36
171	17
185	23
242	14
256	39
