Mass Spectrum: Perfluoro(1,2-dipropylcyclohexene)
Formula: C12F22
CAS: 180133-94-2
Molecular weight: 562
m/z	intensity
57	6
69	999
70	9
93	11
100	39
117	11
119	785
120	13
124	10
131	43
143	6
155	30
167	11
169	86
181	40
186	18
205	48
217	27
231	6
236	33
243	19
255	59
267	44
286	15
293	31
305	104
306	10
317	18
343	29
355	97
356	11
367	16
393	43
405	78
406	5
424	5
443	522
444	59
455	63
456	8
505	10
543	100
544	12
