Mass Spectrum: Tripropyl(ethoxy)silane
Formula: C11H26OSi
CAS: 18023-47-7
Molecular weight: 202
m/z	intensity
26	26
27	141
28	6
29	75
31	9
37	4
38	9
39	73
40	18
41	141
42	48
43	79
44	41
45	372
46	29
47	241
48	11
49	9
51	4
52	4
53	7
55	22
56	7
57	25
58	25
59	49
60	39
61	215
62	15
63	9
67	9
68	18
69	11
70	9
71	44
72	25
73	196
74	47
75	373
76	38
77	17
79	7
83	4
84	4
85	7
86	19
87	47
88	23
89	315
90	32
91	16
101	19
102	17
103	11
105	3
111	3
115	21
116	35
117	999
118	103
119	48
131	199
132	29
133	9
158	6
159	815
160	115
161	45
162	4
202	2
