Mass Spectrum: Cyclopropene-3-carboxylic acid,-2-trimethylsilyl,-3-ethenyl, methyl ester
Formula: C10H16O2Si
CAS: 180261-20-5
Molecular weight: 196
m/z	intensity
37	3
38	19
39	42
40	2
41	10
43	208
45	329
46	17
47	14
48	1
50	9
51	18
52	12
53	73
54	15
55	62
56	7
57	21
59	329
60	19
61	30
62	13
63	58
64	327
65	37
66	19
67	40
69	46
70	8
71	13
73	798
74	65
75	53
76	4
77	24
78	9
79	22
80	4
81	17
83	58
84	6
85	22
86	1
87	1
89	173
90	15
92	999
93	70
94	6
95	28
97	28
98	2
99	5
100	1
101	1
103	1
105	7
106	1
107	9
109	38
110	5
111	8
112	1
113	4
115	1
119	1
121	9
122	8
123	9
124	1
125	5
135	3
137	109
138	13
139	4
151	2
153	18
154	2
155	1
165	4
166	1
181	14
182	1
196	49
197	7
198	2
