Mass Spectrum: Cyclopropenoic acid,-2(2-propenyl),-3-trimethylsilyl, methyl ester
Formula: C11H18O2Si
CAS: 180261-21-6
Molecular weight: 210
m/z	intensity
39	73
41	32
43	385
44	39
45	195
46	9
47	12
50	17
51	53
53	228
54	42
55	136
56	9
57	30
59	676
60	45
61	69
62	7
63	27
65	44
66	35
67	129
68	29
69	111
70	12
71	16
73	461
75	417
76	34
77	121
78	182
79	100
81	85
82	108
83	167
84	15
85	44
89	999
90	137
91	253
92	21
93	57
95	79
96	20
97	123
98	12
99	31
101	9
103	18
105	229
106	826
107	130
109	217
110	56
111	28
113	58
115	9
119	25
120	9
121	52
123	29
125	16
133	14
135	125
136	47
137	115
138	16
139	48
145	16
147	15
148	10
149	55
150	12
151	26
152	16
155	8
159	21
161	13
163	192
164	31
165	90
166	11
167	59
168	9
179	69
180	79
181	11
195	520
196	71
197	19
210	40
