Mass Spectrum: (1,2-Dichlorovinyl)trichlorosilane
Formula: C2HCl5Si
CAS: 18038-41-0
Molecular weight: 228
m/z	intensity
60	999
61	18
62	330
63	107
65	36
98	40
100	29
123	96
125	70
127	8
133	110
135	111
137	42
153	31
155	30
157	6
193	30
195	37
197	18
228	82
230	136
231	6
232	98
234	29
