Mass Spectrum: (2,2-Dichlorovinyl)trichlorosilane
Formula: C2HCl5Si
CAS: 18038-37-4
Molecular weight: 228
m/z	intensity
60	999
61	17
62	338
63	150
64	20
65	47
98	59
100	40
123	71
125	49
133	311
134	8
135	307
136	6
137	98
157	46
159	39
161	8
193	61
195	80
197	39
228	52
230	70
232	50
234	18
