Mass Spectrum: N-Acetoacetylleucine, (l)-
Formula: C10H17NO4
CAS: 1803-64-1
Molecular weight: 215
m/z	intensity
14	1
15	15
26	2
27	33
28	49
29	31
30	310
31	9
38	1
39	22
40	5
41	81
42	42
43	478
44	267
45	13
46	4
50	1
51	2
52	1
53	7
54	5
55	24
56	22
57	56
58	40
59	29
60	6
65	1
66	1
67	7
68	9
69	45
70	81
71	10
72	6
73	13
74	115
75	52
76	4
77	1
78	5
79	1
81	3
82	2
83	8
84	46
85	257
86	999
87	64
88	52
89	4
94	1
95	3
96	10
97	8
98	6
99	163
100	9
101	10
102	121
103	7
109	1
110	4
111	2
112	29
113	9
114	74
115	25
116	27
117	6
123	1
125	1
126	5
127	10
128	98
129	8
130	18
131	6
132	5
140	3
141	150
142	11
143	4
149	1
152	3
153	2
154	45
155	6
156	2
158	13
159	324
160	23
161	3
168	1
169	4
170	556
171	91
172	37
173	6
181	1
182	2
197	7
198	3
200	6
215	26
216	21
217	2
