Mass Spectrum: 2,4,6-Triazidopyridine-3,5-dicarbonitrile
Formula: C7N12
CAS: 180476-05-5
Molecular weight: 252
m/z	intensity
38	88
48	10
50	48
52	63
53	7
62	21
64	311
65	20
66	12
73	6
76	14
77	12
78	999
79	48
87	12
88	25
89	6
90	48
91	18
92	22
102	196
103	18
116	60
118	12
226	23
252	340
253	42
254	1
