Mass Spectrum: 2,4(1H,3H)-Pyrimidinedione, 6-methyl-3-phenyl-
Formula: C11H10N2O2
CAS: 1804-04-2
Molecular weight: 202
m/z	intensity
15	50
26	20
27	30
38	30
39	70
42	530
43	10
50	10
51	40
52	30
53	20
54	40
63	30
64	70
65	30
68	180
69	10
77	60
83	520
84	40
91	120
92	10
93	50
101	30
110	50
119	999
120	80
201	80
202	660
203	70
