Mass Spectrum: E-1-Methoxy-3-pentene
Formula: C6H12O
CAS: 18059-22-8
Molecular weight: 100
m/z	intensity
39	120
40	20
41	100
42	20
43	20
45	999
46	30
53	40
54	40
55	80
58	20
59	10
67	40
68	240
69	30
71	20
85	6
100	70
101	6
