Mass Spectrum: Trimethylsilyl N-(phenylcarbonyl)-.beta.-alaninate
Formula: C13H19NO3Si
CAS: 18053-06-0
Molecular weight: 265
m/z	intensity
15	1
26	1
27	4
28	4
29	2
30	1
31	1
38	1
39	3
40	1
41	1
42	6
43	13
44	7
45	33
46	3
47	19
48	1
49	1
50	16
51	63
52	6
53	2
54	1
55	34
56	5
57	3
58	9
59	13
60	5
61	19
62	2
63	3
64	1
65	2
66	1
70	6
71	2
72	23
73	211
74	30
75	164
76	33
77	370
78	30
79	3
84	1
85	5
86	3
87	2
88	9
89	8
90	2
91	6
92	1
93	1
98	4
99	3
100	10
101	22
102	5
103	12
104	42
105	999
106	79
107	5
114	1
115	2
116	114
117	53
118	13
119	9
120	1
121	6
122	3
125	1
128	3
129	226
130	38
131	13
132	5
133	21
134	21
135	13
136	2
137	2
142	1
143	7
144	5
145	5
146	33
147	82
148	37
149	5
150	1
151	1
153	1
160	367
161	45
162	17
163	2
164	1
174	2
175	12
176	6
177	3
178	95
179	17
180	6
181	1
190	1
192	5
193	2
194	1
202	1
203	1
204	3
205	1
206	1
207	1
208	1
220	11
221	2
222	1
235	1
247	1
248	8
249	2
250	106
251	20
252	6
253	1
264	2
265	44
266	9
267	3
