Mass Spectrum: 1H-1,3-Diborole, 1,3,4,5-tetraethyl-2,3-dihydro-2-methyl-
Formula: C12H24B2
CAS: 18067-54-4
Molecular weight: 190
m/z	intensity
26	56
27	232
29	28
36	33
37	110
38	39
39	153
40	324
41	999
42	27
43	4
44	2
45	14
48	14
49	39
50	141
51	308
52	99
53	318
54	263
55	987
56	36
57	12
59	10
60	20
61	35
62	39
63	93
64	134
65	293
66	89
67	260
68	164
69	360
70	16
71	3
73	17
74	30
75	61
76	49
77	101
78	80
79	184
80	88
81	180
82	24
83	8
84	3
85	3
86	10
87	20
88	36
89	62
90	80
91	180
92	85
93	162
94	36
95	41
96	10
97	12
98	3
99	3
100	10
101	21
102	37
103	88
104	88
105	213
106	54
107	61
108	30
109	9
110	3
111	3
113	3
114	3
115	15
116	23
117	55
118	104
119	289
120	124
121	103
122	26
123	16
124	5
125	3
129	3
130	30
131	67
132	52
133	103
134	31
135	11
136	22
137	10
144	14
145	30
146	9
147	20
148	38
149	3
159	47
160	280
161	584
162	71
174	3
175	21
188	19
189	119
190	242
191	32
