Mass Spectrum: Ketone, 3.alpha.-(difluoromethoxy)-16.alpha.,17.alpha.-epoxy-2a,2a,6a,6a-tetrafluoro-1,2.alpha.,2a,3,6,6a,7.beta.,8.beta.,9.alpha.,10,11,12,13,14.alpha.,16,17-hexadecahydro-6.beta.,10.beta.,13.beta.,16-tetramethyl-15H-dicyclopropa[2,3:6,7]cyclopen
Formula: C26H30F6O3
CAS: 18069-08-4
Molecular weight: 504
m/z	intensity
91	999
92	77
95	246
96	19
105	246
106	19
109	297
110	26
119	170
120	17
121	173
122	115
123	257
124	23
133	170
134	17
135	159
136	16
185	159
186	21
189	159
190	22
393	86
404	115
405	36
443	94
444	43
454	181
455	61
461	94
462	31
489	94
490	31
504	362
505	137
506	28
