Mass Spectrum: Pentanamide, 2-(dimethylamino)-3-methyl-N-[7-(2-methylpropyl)-5,8-dioxo-3-phenyl-2-oxa-6,9-diazabicyclo[10.2.2]hexadeca-10,12,14,15-tetraen-4-yl]-, [3R-[3R*,4S*(2S*,3R*),7S*]]-
Formula: C31H42N4O4
CAS: 18067-39-5
Molecular weight: 534
m/z	intensity
40	2
41	22
42	28
43	25
44	20
45	2
46	6
47	0
48	0
49	0
50	1
51	0
52	2
53	2
54	1
55	8
56	5
57	10
58	14
59	0
60	0
62	0
63	1
64	0
65	2
66	0
67	2
68	2
69	15
70	9
71	6
72	3
73	0
74	0
75	0
76	0
77	8
78	4
79	2
80	1
81	1
82	2
83	3
84	17
85	24
86	15
87	1
89	2
90	4
91	12
92	2
93	0
94	1
95	0
96	2
97	0
98	13
99	4
100	2
101	3
102	2
103	13
104	4
105	4
106	2
107	4
108	1
109	0
110	0
111	1
112	10
113	6
114	999
115	8
116	3
117	6
118	5
119	6
120	5
121	1
125	0
126	4
127	4
128	1
129	0
130	2
131	29
132	5
133	2
134	6
135	24
136	4
137	0
138	0
139	0
140	4
141	1
142	4
143	5
144	1
145	2
146	2
147	2
148	2
149	4
150	0
151	0
152	0
153	0
154	0
155	2
156	0
157	0
158	0
159	0
160	2
161	3
162	1
163	0
164	0
165	0
166	0
167	0
168	0
169	0
170	0
171	0
172	0
173	1
174	1
175	3
176	0
177	0
178	0
179	0
180	0
181	0
182	0
183	0
184	0
185	0
186	0
187	0
188	1
189	0
190	0
191	0
192	0
193	0
194	0
195	0
196	0
197	0
198	0
199	0
200	0
201	2
202	0
203	1
204	0
205	0
206	0
207	0
208	0
209	0
210	0
211	0
212	0
213	0
214	0
215	0
216	1
217	0
218	0
219	0
220	0
221	0
222	0
223	0
224	3
225	1
226	0
227	0
228	0
229	2
230	0
231	0
232	0
233	0
234	0
235	0
236	0
237	0
238	0
239	0
240	0
241	0
242	0
243	0
244	1
245	0
246	0
247	0
248	0
249	0
250	0
251	0
252	0
253	0
254	0
255	0
256	0
257	0
258	0
259	0
260	0
261	0
262	0
263	0
264	0
265	0
266	0
269	0
270	0
271	0
272	0
273	0
274	1
275	0
276	0
277	0
278	0
279	0
282	0
283	0
284	0
285	0
286	0
287	0
288	0
289	0
290	0
291	0
292	0
293	0
294	0
297	0
298	0
299	0
300	0
301	0
302	0
303	0
304	0
305	0
306	0
307	0
308	0
313	0
314	0
315	0
316	0
317	0
319	0
320	0
321	0
322	0
323	0
327	0
328	0
329	0
331	0
332	0
333	0
335	0
336	0
337	1
338	0
339	0
344	0
349	0
350	0
355	0
356	0
357	0
358	0
359	0
360	0
362	0
363	0
375	0
376	0
377	2
378	0
379	0
391	0
392	0
393	0
404	0
405	0
419	0
420	0
421	0
422	0
432	0
434	0
435	0
448	0
449	0
462	0
463	0
464	0
475	0
476	0
477	5
478	1
479	0
480	0
489	0
491	0
492	0
505	0
506	0
511	0
518	0
519	1
520	0
521	0
532	0
533	0
534	0
535	0
536	0
