Mass Spectrum: Bicyclo[4.1.0]hept-2-en-6-ol, endo-5-(diethylamino)-exo-5,exo-7-dimethyl-endo-7-phenyl-
Formula: C19H27NO
CAS: 180699-14-3
Molecular weight: 285
m/z	intensity
26	17
27	217
28	37
29	292
30	239
31	8
37	0
38	7
39	141
40	15
41	204
42	999
43	138
44	245
45	10
46	35
50	28
51	109
52	36
53	84
54	32
55	80
56	139
57	29
58	506
59	19
62	10
63	44
64	19
65	103
66	47
67	48
68	41
69	49
70	465
71	100
72	342
73	139
74	257
75	18
76	51
77	285
78	105
79	197
80	100
81	59
82	42
83	32
84	200
85	256
86	45
87	6
88	3
89	38
90	13
91	387
92	56
93	33
94	70
95	28
96	63
97	11
98	192
99	56
100	81
101	12
102	37
103	188
104	186
105	983
106	109
107	67
108	105
109	149
110	116
111	50
112	183
113	610
114	65
115	188
116	43
117	63
118	41
119	31
120	25
121	40
122	98
123	40
124	237
125	34
126	93
127	77
128	247
129	280
130	52
131	49
132	608
133	69
134	42
135	30
136	68
137	128
138	167
139	87
140	20
141	186
142	115
143	191
144	44
145	29
146	6
147	1
148	13
149	3
150	51
151	49
152	903
153	182
154	163
155	106
156	38
157	93
158	20
159	10
160	2
162	7
163	5
164	39
165	77
166	76
167	58
168	39
169	409
170	81
171	64
172	19
173	2
174	11
175	0
176	13
177	8
178	40
179	64
180	173
181	216
182	167
183	78
184	223
185	90
186	22
187	0
188	1
189	4
191	5
192	1
193	10
194	12
195	27
196	16
197	300
198	79
199	18
200	18
201	4
202	7
204	8
208	6
209	10
210	9
211	28
212	128
213	42
214	33
215	7
216	5
224	5
226	25
227	15
228	709
229	169
230	19
238	18
239	2
240	27
241	17
242	107
243	26
244	1
252	2
254	14
255	16
256	142
257	417
258	82
259	8
268	108
269	32
270	124
271	27
272	0
283	19
284	16
285	311
286	69
287	9
