Mass Spectrum: 4-Methyl-2-(1-phenylethyl)phenyl benzoate
Formula: C22H20O2
CAS: 18062-71-0
Molecular weight: 316
m/z	intensity
51	40
77	260
78	30
91	20
103	50
105	999
106	80
115	20
152	20
165	20
195	30
211	210
212	50
316	140
317	30
