Mass Spectrum: 14.alpha.-Morphinan-6.alpha.-ol, 3-methoxy-17-methyl-
Formula: C18H25NO2
CAS: 18067-41-9
Molecular weight: 287
m/z	intensity
41	180
42	570
43	150
44	300
45	30
51	100
52	20
53	80
54	10
55	90
56	10
57	110
58	120
59	999
60	80
61	10
63	60
65	80
66	10
70	90
71	10
77	150
78	60
79	50
82	100
83	20
91	130
92	20
94	60
102	60
103	70
108	60
115	270
116	70
121	80
122	90
123	10
127	100
128	230
129	140
130	20
131	60
141	130
142	60
143	60
144	70
145	60
146	70
147	10
148	80
149	10
152	70
153	80
154	10
158	90
159	80
160	10
161	50
162	90
163	10
165	70
166	340
167	80
168	10
171	160
172	100
173	60
174	90
175	50
179	50
184	70
185	80
186	10
203	50
211	80
212	90
213	10
228	100
229	70
230	10
274	40
286	180
287	390
288	80
289	10
