Mass Spectrum: 2-Chloro-4'-fluorobenzophenone
Formula: C13H8ClFO
CAS: 1806-23-1
Molecular weight: 234
m/z	intensity
27	1
28	1
31	1
37	2
38	2
39	5
45	1
49	2
50	34
51	22
52	1
53	2
57	4
61	4
62	5
63	5
68	6
69	13
70	2
72	2
73	4
74	23
75	144
76	19
77	5
81	3
84	3
85	26
86	4
87	4
90	1
92	2
93	6
94	18
95	262
96	17
98	4
99	5
100	1
102	1
103	24
104	9
105	2
109	1
110	4
111	102
112	8
113	33
114	2
117	3
118	1
120	2
122	4
123	999
124	78
125	7
126	1
129	1
131	1
139	311
140	24
141	107
142	8
143	1
144	5
145	2
149	2
150	4
151	4
152	1
168	6
169	10
170	29
171	9
180	1
181	2
196	3
197	1
198	5
199	23
200	4
204	1
206	4
208	1
233	4
234	359
235	53
236	122
237	17
238	2
