Mass Spectrum: 3-Methylthio-1,2,4-triazin-5-ol
Formula: C4H5N3OS
CAS: 18060-72-5
Molecular weight: 143
m/z	intensity
41	180
42	243
43	319
45	255
46	113
48	459
50	28
52	2
54	31
55	9
56	22
57	8
58	48
59	29
60	13
61	9
69	999
70	44
72	42
74	274
75	9
76	10
78	1
83	28
84	1
86	32
88	50
89	3
90	0
94	3
96	6
97	3
98	5
99	1
116	289
117	7
118	7
128	10
142	14
143	486
144	87
145	15
146	3
