Mass Spectrum: Silane, dichloroethenyl-
Formula: C2H4Cl2Si
CAS: 18076-99-8
Molecular weight: 126
m/z	intensity
26	18
27	89
28	22
29	30
41	20
43	10
53	40
54	18
55	31
56	40
57	39
63	286
64	70
65	162
66	28
67	25
90	110
91	123
92	57
93	39
98	999
99	421
100	686
101	290
102	170
103	56
125	311
126	238
127	209
128	162
129	51
130	30
