Mass Spectrum: 3-(6-Methoxy-2,2-dimethyltetrahydrofuro[3,4-d][1,3]dioxol-4-yl)propionic acid
Formula: C11H18O6
CAS: 180776-25-4
Molecular weight: 246
m/z	intensity
25	10
27	106
28	7
29	151
30	9
31	73
34	34
35	3
36	6
37	2
38	7
39	82
40	24
41	169
42	50
43	755
44	60
45	181
46	7
47	9
48	4
49	2
50	5
51	11
52	5
53	46
54	68
55	179
56	41
57	147
58	150
59	999
60	61
61	98
62	5
63	4
64	7
65	13
66	14
67	24
68	145
69	89
70	16
71	69
72	11
73	69
74	25
75	13
76	2
77	17
78	5
79	7
80	3
81	53
82	138
83	162
84	26
85	361
86	109
87	129
88	12
89	6
90	1
91	2
92	2
93	15
94	7
95	20
96	8
97	52
98	13
99	92
100	253
102	5
103	67
104	5
105	7
106	15
107	9
108	3
109	9
110	121
111	124
112	12
113	37
114	9
115	79
116	12
117	6
118	2
119	37
120	2
121	8
122	4
123	4
124	7
125	28
126	17
127	16
128	552
129	69
130	8
131	4
137	2
138	2
139	56
140	12
141	12
142	15
143	13
144	7
145	2
153	8
154	1
155	8
156	15
157	377
158	34
159	8
160	2
161	12
162	1
163	1
165	2
167	5
168	3
169	7
170	4
171	140
172	14
173	38
174	4
175	1
177	3
178	4
179	3
181	4
183	1
184	2
185	8
186	58
187	8
188	4
189	7
191	1
192	2
197	2
198	1
199	216
200	23
201	4
211	2
213	5
214	1
215	30
216	4
229	4
230	1
231	101
232	11
233	2
245	3
