Mass Spectrum: Octatriacontanoic acid, 34,36-dimethyl-, methyl ester
Formula: C41H82O2
CAS: 18082-12-7
Molecular weight: 606
m/z	intensity
41	200
42	50
43	510
44	10
53	10
54	30
55	350
56	160
57	999
58	50
59	20
61	30
67	60
68	40
69	310
70	140
71	380
72	20
73	10
74	450
75	350
76	10
79	10
81	60
82	40
83	240
84	50
85	200
86	10
87	370
88	50
89	20
93	10
95	60
96	30
97	220
98	70
99	80
101	50
107	10
109	30
110	10
111	80
112	20
113	30
115	10
121	10
123	20
125	40
127	10
129	30
130	10
135	10
137	10
139	30
141	10
143	100
144	10
153	20
155	10
157	10
163	20
167	20
171	10
181	10
185	10
199	30
241	10
255	10
465	10
503	30
504	10
507	10
508	10
509	10
517	10
535	20
536	20
537	10
545	10
549	10
577	10
606	400
607	180
608	40
