Mass Spectrum: (2,2-Dichlorovinyl)methyldichlorosilane
Formula: C3H4Cl4Si
CAS: 18083-51-7
Molecular weight: 208
m/z	intensity
28	89
32	22
60	496
61	24
62	175
63	844
64	63
65	300
98	145
100	98
102	27
112	123
113	999
114	160
115	698
116	62
117	145
118	7
123	258
124	23
125	186
126	21
127	39
157	244
158	37
159	246
160	27
161	88
173	77
175	87
177	38
193	745
194	63
195	999
196	59
197	515
198	33
199	103
208	250
209	24
210	326
211	37
212	197
213	22
214	77
