Mass Spectrum: N-Tert.-butyl-2-carbomethoxyazetidine
Formula: C9H17NO2
CAS: 18085-35-3
Molecular weight: 171
m/z	intensity
27	7
28	95
29	70
30	13
39	7
41	121
42	57
43	11
54	15
55	64
56	999
57	227
58	15
59	15
70	185
71	12
84	29
96	62
97	9
112	521
113	24
128	33
156	649
157	68
158	7
171	84
172	9
173	1
