Mass Spectrum: Methyl xylopyranoside, 3TMS derivative
Formula: C15H36O5Si3
CAS: 18082-35-4
Molecular weight: 380
m/z	intensity
41	10
43	20
44	20
45	100
59	90
61	10
69	40
71	40
72	20
73	999
74	90
75	100
89	70
101	80
103	70
105	10
115	10
116	90
117	40
119	10
120	10
129	120
130	20
131	70
132	10
133	350
134	40
135	20
143	20
146	100
147	400
148	70
149	50
157	10
159	30
163	20
169	10
175	10
189	40
191	30
201	50
203	40
204	999
205	190
206	90
207	40
215	20
217	650
218	130
219	80
220	10
221	10
229	3
230	6
231	17
232	5
233	19
234	6
235	3
243	11
244	3
245	2
247	19
248	4
249	5
259	28
260	7
261	5
265	1
275	16
276	4
277	2
290	7
291	6
292	2
293	2
305	27
306	8
307	4
308	1
309	1
317	1
320	1
333	10
334	3
335	5
336	1
349	9
350	3
351	1
365	2
