Mass Spectrum: 5,8,11,14-Eicosatetraenoic acid, ethyl ester, (all-Z)-
Formula: C22H36O2
CAS: 1808-26-0
Molecular weight: 332
m/z	intensity
14	9
15	5
16	6
17	11
18	43
26	9
27	82
28	199
29	244
30	8
31	5
32	47
38	5
39	104
40	22
41	484
42	55
43	196
44	14
45	33
50	8
51	25
52	20
53	111
54	110
55	429
56	48
57	120
58	8
59	14
60	91
61	45
63	10
65	110
66	137
67	741
68	110
69	199
70	60
71	90
72	6
73	36
74	19
75	10
76	5
77	329
78	230
79	999
80	689
81	484
82	113
83	105
84	35
85	74
87	20
88	129
89	19
90	8
91	741
92	223
93	638
94	261
95	268
96	124
97	83
98	17
99	20
101	95
102	29
103	42
104	68
105	395
106	367
107	268
108	79
109	115
110	49
111	29
112	10
113	20
115	55
116	28
117	161
118	55
119	298
120	178
121	206
122	61
123	64
124	32
125	21
126	6
127	18
128	22
129	57
130	41
131	137
132	54
133	233
134	81
135	134
136	67
137	45
138	14
139	8
140	5
141	23
142	11
143	26
144	22
145	68
146	50
147	148
148	65
149	90
150	288
151	53
152	14
153	7
154	16
155	27
156	7
157	37
158	10
159	48
160	34
161	95
162	48
163	55
164	98
165	25
166	13
167	9
168	16
169	23
170	8
171	20
172	6
173	44
174	22
175	131
176	53
177	106
178	30
179	13
180	12
181	14
182	8
183	31
184	6
185	15
186	5
187	43
188	23
189	52
190	44
191	29
192	13
193	12
194	101
195	30
196	7
197	14
199	8
201	42
202	13
203	144
204	34
205	36
206	21
207	22
208	32
209	10
210	6
211	8
213	6
215	25
216	8
217	55
218	17
219	21
220	14
221	54
222	20
223	6
229	10
230	6
231	17
232	8
233	17
234	58
235	29
236	10
241	5
243	6
244	15
245	11
246	7
247	26
248	20
249	20
250	10
251	5
252	20
253	6
258	6
259	5
261	30
262	17
263	14
264	25
265	7
269	23
270	6
271	7
275	16
276	7
277	6
278	17
279	5
286	20
287	13
288	5
289	11
290	8
291	9
292	6
303	6
304	5
330	6
332	100
333	29
334	25
335	10
336	12
