Mass Spectrum: N,N'-Diphenethylthiourea
Formula: C17H20N2S
CAS: 18085-24-0
Molecular weight: 284
m/z	intensity
16	2
17	5
18	12
27	9
28	4
30	80
31	1
32	15
33	13
34	45
35	1
36	3
38	4
39	22
40	2
41	6
44	7
45	5
47	1
50	9
51	30
52	6
53	3
58	1
59	1
60	1
61	1
62	3
63	11
64	4
65	71
66	4
71	1
72	28
73	1
74	4
75	4
76	81
77	64
78	21
79	41
80	3
85	1
89	16
90	6
91	999
92	82
93	5
101	2
102	7
103	43
104	58
105	208
106	18
116	2
117	2
118	1
119	1
120	6
121	8
122	1
128	7
129	1
130	2
131	3
134	3
135	9
136	1
147	2
159	7
160	1
162	3
163	603
164	68
165	29
166	3
180	5
181	1
193	2
284	26
285	5
286	1
