Mass Spectrum: Phenmetrazine carbamate
Formula: C13H17NO3
CAS: 180839-98-9
Molecular weight: 235
m/z	intensity
42	790
43	76
44	56
45	6
50	32
51	95
52	30
53	10
54	48
55	38
56	236
57	32
58	26
59	220
60	4
61	5
62	9
63	29
64	10
65	40
66	6
67	3
68	12
70	999
71	73
72	9
73	122
74	10
75	12
76	12
77	199
78	58
79	31
80	7
81	10
84	4
86	23
88	29
89	48
90	47
91	193
92	23
93	7
95	10
101	98
102	242
103	57
105	227
106	48
107	4
108	4
109	3
110	4
111	4
114	550
115	153
116	52
117	132
118	53
119	23
120	3
121	7
127	3
129	697
130	79
131	13
132	7
133	7
134	13
135	22
142	5
143	6
144	20
145	6
147	5
157	4
158	5
159	6
160	14
161	12
177	12
178	4
192	18
193	11
204	45
205	13
206	102
207	13
220	33
221	9
235	244
236	43
