Mass Spectrum: 3-Methyl-3-nitrobut-1-ene
Formula: C5H9NO2
CAS: 1809-67-2
Molecular weight: 115
m/z	intensity
26	24
27	154
28	100
29	86
30	96
31	8
37	5
38	24
39	219
40	50
41	999
42	80
43	121
44	12
46	3
50	36
51	54
52	17
53	107
54	31
55	87
56	8
57	24
59	10
62	3
63	12
65	5
67	86
68	24
69	634
70	49
85	31
