Mass Spectrum: 3,6-Bis(trimethylsilyl)-1,4-cyclohexadiene
Formula: C12H24Si2
CAS: 18090-43-2
Molecular weight: 224
m/z	intensity
26	0
27	2
28	4
29	26
30	1
31	7
32	0
35	0
38	0
39	4
40	0
41	1
42	9
43	86
44	26
45	151
46	10
47	5
50	2
51	5
52	4
53	11
54	2
55	12
56	2
57	10
58	47
59	11
60	2
61	0
63	1
65	1
66	1
67	3
68	0
69	2
70	2
71	3
72	14
73	999
74	84
75	35
76	1
77	4
78	18
79	3
80	0
81	1
83	1
85	0
89	0
91	2
92	0
93	2
95	1
96	0
102	0
103	0
105	6
106	0
107	3
108	0
109	1
115	0
117	0
119	1
120	0
121	11
122	1
123	0
131	3
132	0
133	0
134	0
135	43
136	8
137	2
146	4
147	0
148	0
150	1
151	30
152	4
153	1
207	1
208	0
224	18
225	4
226	1
227	0
