Mass Spectrum: l-Norleucenine ethyl ester
Formula: C10H14N2O4
CAS: 180995-53-3
Molecular weight: 226
m/z	intensity
42	145
43	49
44	13
45	3
46	84
47	40
48	12
52	5
53	17
54	19
55	52
56	57
57	34
58	2
60	1
62	0
63	1
65	13
66	4
67	91
68	27
69	24
70	4
71	4
72	0
74	471
75	11
76	2
77	2
78	1
79	1
80	8
81	7
82	45
83	8
84	820
85	111
88	12
91	4
92	0
93	0
95	3
96	0
97	7
98	1
99	1
102	999
103	56
104	6
105	3
106	0
107	0
108	0
109	1
110	1
111	3
112	1
113	0
114	0
115	0
119	0
120	4
121	0
122	1
123	1
124	1
125	2
127	2
128	1
129	0
133	0
139	0
140	0
141	0
149	2
150	0
151	0
153	0
155	0
157	29
158	16
159	1
160	0
165	0
169	0
173	0
179	0
183	0
191	0
197	0
205	0
207	0
209	0
211	1
212	0
224	0
225	0
226	2
