Mass Spectrum: 7,12-Dioxaspiro[5.6]dodecane
Formula: C10H18O2
CAS: 181-28-2
Molecular weight: 170
m/z	intensity
18	69
26	21
27	164
29	82
31	29
39	166
41	383
42	624
43	175
44	24
53	32
54	57
55	999
56	105
57	22
68	29
69	193
70	149
71	167
72	128
73	91
80	44
81	38
83	58
84	39
85	25
97	103
98	318
99	59
114	30
127	717
128	78
141	88
142	10
170	157
171	22
