Mass Spectrum: Sparteine, 14.alpha.-hydroxy-17-oxo-
Formula: C15H24N2O2
CAS: 18108-62-8
Molecular weight: 264
m/z	intensity
41	305
42	146
43	90
44	52
53	60
54	80
55	301
56	86
57	60
67	82
68	90
69	140
70	60
79	30
80	48
81	60
82	126
83	50
84	128
93	30
94	50
95	40
96	240
97	891
98	999
99	242
100	88
108	44
109	42
110	140
111	220
112	20
113	22
122	46
123	160
124	46
125	20
126	347
127	54
134	60
135	40
136	321
137	180
138	122
139	80
140	60
148	28
149	24
150	24
151	24
152	24
153	30
164	60
165	32
166	128
167	20
177	22
207	32
208	36
219	22
235	80
236	281
237	30
263	140
264	686
265	116
