Mass Spectrum: Germacycloundecane-6,7-dione, 1,1-diethyl-
Formula: C14H26GeO2
CAS: 18100-65-7
Molecular weight: 300
m/z	intensity
36	40
38	20
39	290
40	50
41	470
42	80
43	170
44	640
45	10
50	20
51	60
52	20
53	160
54	40
55	440
56	70
57	80
58	10
59	60
63	30
65	110
66	20
67	190
68	30
69	80
70	50
71	120
72	70
73	220
74	140
75	280
76	40
77	260
78	90
79	250
80	50
81	140
82	20
83	70
84	20
85	80
86	20
87	200
88	30
89	290
90	40
91	410
92	70
93	150
94	40
95	100
96	10
97	80
98	40
99	530
100	100
101	860
102	220
103	999
104	170
105	650
106	50
107	170
108	30
109	40
111	60
112	20
113	80
114	30
115	150
116	70
117	140
118	60
119	110
120	30
121	90
123	10
125	50
126	10
127	260
128	110
129	480
130	180
131	650
132	150
133	430
134	30
135	140
136	10
137	40
139	50
141	80
142	20
143	90
144	60
145	120
146	50
147	70
148	20
149	120
151	50
152	10
153	120
155	380
156	60
157	460
158	130
159	550
160	30
161	110
162	10
163	40
165	90
166	10
167	140
168	30
169	140
170	40
171	110
172	20
173	60
174	10
175	40
177	60
178	10
179	80
180	20
181	110
182	20
183	140
184	40
185	150
186	40
187	120
188	20
189	60
190	10
191	60
192	20
193	100
194	20
195	120
196	30
197	130
198	80
199	140
200	120
201	90
202	160
203	40
204	40
205	50
206	10
207	80
208	10
209	80
210	10
211	100
212	10
213	100
214	40
215	100
216	10
217	60
219	70
220	20
221	110
222	30
223	120
224	30
225	110
226	30
227	60
228	30
229	60
230	10
231	10
232	20
233	20
234	10
235	70
236	20
237	90
238	40
239	210
240	50
241	120
242	80
243	240
244	40
245	70
247	80
248	30
249	240
250	70
251	310
252	100
253	200
254	60
255	140
256	20
257	60
259	20
263	20
264	10
265	40
266	30
267	300
268	70
269	380
270	160
271	480
272	70
273	100
274	20
276	20
277	10
278	60
279	30
280	80
281	20
282	40
283	10
284	10
292	10
294	20
295	10
296	20
298	10
