Mass Spectrum: N-[3-Trimethylsilylmethyl]aminoethanethiosulfuric acid
Formula: C6H17NO3S2Si
CAS: 18107-06-7
Molecular weight: 243
m/z	intensity
41	34
42	213
43	303
44	366
45	467
46	46
47	68
48	259
49	1
50	16
51	7
52	19
53	12
54	12
55	34
56	102
57	96
58	89
59	449
60	107
61	168
62	9
64	410
65	15
66	124
68	3
69	3
70	17
71	15
72	55
73	999
74	133
75	179
76	15
77	22
78	2
79	2
80	7
81	2
82	2
84	3
85	9
86	48
87	28
88	131
89	29
90	66
91	42
92	12
93	14
94	1
95	3
98	5
100	197
101	49
102	184
103	69
104	19
105	16
106	6
107	2
108	1
113	0
114	25
116	618
117	71
118	34
119	11
120	5
121	2
122	1
123	4
128	12
129	7
130	86
131	30
132	36
133	42
134	8
135	5
137	1
139	4
144	10
145	1
147	448
148	90
149	40
150	6
155	3
157	1
158	1
160	30
161	3
162	59
163	18
164	40
165	7
166	3
168	5
174	4
175	8
176	6
177	0
180	0
195	45
196	8
197	5
207	0
211	3
213	1
227	55
228	9
229	13
230	1
243	1
