Mass Spectrum: Benzene, 1-benzyloxy-3,5-diformyl-4-hydroxy-
Formula: C15H12O4
CAS: 181022-80-0
Molecular weight: 256
m/z	intensity
37	0
38	3
39	29
40	2
41	8
42	0
43	1
44	0
50	6
51	15
52	9
53	31
54	4
55	17
56	0
57	0
61	0
62	6
63	21
64	6
65	91
66	6
67	0
69	1
70	0
71	0
73	0
74	1
75	3
76	1
77	4
78	1
79	5
80	2
81	9
82	1
83	6
84	0
87	0
88	0
89	17
91	999
92	89
93	3
94	0
95	0
97	0
101	0
103	0
105	1
107	0
108	1
109	5
110	1
111	0
112	0
113	0
115	2
116	0
117	0
119	0
120	1
121	0
122	0
125	0
127	0
128	1
129	1
131	0
135	0
136	2
137	6
138	1
139	0
141	0
143	0
144	0
147	0
149	0
150	0
151	0
152	3
153	2
154	0
155	0
157	0
164	2
165	11
166	1
167	0
171	1
180	0
181	2
182	0
197	0
199	0
209	0
210	0
221	0
224	0
225	0
227	0
228	6
229	1
254	0
256	177
257	28
258	3
259	0
