Mass Spectrum: N-[3-Trimethylsilylpropyl]aminoethanethiosulfuric acid
Formula: C8H21NO3S2Si
CAS: 18107-05-6
Molecular weight: 271
m/z	intensity
41	68
42	77
43	226
44	130
45	250
46	23
47	34
48	238
49	1
50	16
51	1
52	2
53	8
54	11
55	27
56	80
57	49
58	68
59	222
60	45
61	236
62	8
63	10
64	390
65	20
66	28
67	5
68	9
69	6
70	91
71	19
72	33
73	999
74	187
75	81
76	10
77	28
78	5
79	2
80	11
81	3
82	5
83	3
84	9
85	10
86	44
87	14
88	58
89	2
90	351
91	24
92	17
93	5
95	0
96	2
97	3
98	11
99	6
100	27
101	7
102	71
103	7
104	4
105	4
106	0
112	3
113	1
114	32
115	10
116	55
117	7
118	7
119	6
120	3
121	1
122	1
126	2
128	193
129	22
130	12
131	4
132	4
133	14
134	4
135	2
139	0
140	1
141	0
142	16
144	381
145	46
146	17
147	39
148	8
149	4
150	1
153	0
154	0
155	0
156	3
157	1
158	14
159	1
160	3
170	1
172	1
174	5
176	17
177	1
178	2
182	3
188	2
189	0
190	8
191	8
192	27
193	4
194	2
196	2
202	9
203	2
204	3
215	2
221	1
222	1
223	10
224	3
225	1
227	4
228	1
229	0
230	0
270	0
271	0
272	0
