Mass Spectrum: Phosphonic acid, (1-amino-2-methylpropyl)-
Formula: C4H12NO3P
CAS: 18108-24-2
Molecular weight: 153
m/z	intensity
37	41
38	118
39	826
41	999
42	328
43	461
44	90
45	20
47	88
50	33
51	60
52	61
53	134
54	103
55	838
56	446
57	162
58	22
63	26
64	29
65	77
67	39
68	81
69	42
70	109
71	60
72	132
73	40
77	20
80	50
81	87
82	639
83	80
84	211
86	25
91	24
93	27
94	18
95	22
96	26
108	20
110	96
111	20
123	35
124	35
125	259
126	109
127	22
