Mass Spectrum: Pyridine, 2-ethyl-5-methyl-
Formula: C8H11N
CAS: 18113-81-0
Molecular weight: 121
m/z	intensity
26	6
27	74
28	17
29	24
37	3
38	12
39	100
40	9
41	25
42	14
44	1
50	35
51	85
52	51
53	56
54	1
61	1
62	1
63	30
64	8
65	58
66	11
67	1
74	1
75	1
76	1
77	182
78	66
79	127
80	16
89	1
91	46
92	12
93	42
94	1
104	3
105	1
106	999
107	84
117	1
118	1
119	4
120	150
121	583
122	46
