Mass Spectrum: Benzaldehyde, 4-acetoxy-, thiosemicarbazone
Formula: C10H11N3O2S
CAS: 181149-43-9
Molecular weight: 237
m/z	intensity
33	12
34	2
37	1
38	10
39	47
40	21
41	11
43	999
45	36
46	2
47	7
48	15
50	58
51	41
52	16
53	9
54	4
55	4
56	2
57	7
59	114
60	260
62	41
63	65
64	21
65	84
66	9
67	2
68	2
69	4
70	2
71	1
72	2
74	35
75	70
76	942
77	107
78	50
79	13
80	10
81	2
82	1
83	3
84	2
85	2
86	4
87	5
89	77
90	36
91	50
92	90
93	15
94	1
95	1
97	0
100	0
102	138
103	58
104	59
105	42
106	16
107	4
108	2
109	6
110	2
111	4
112	2
113	0
115	0
116	3
117	22
118	58
119	61
120	41
121	15
122	3
129	0
130	64
131	17
132	27
133	28
134	11
135	31
136	16
137	7
138	0
144	1
145	26
147	224
148	28
149	14
150	3
151	4
160	3
162	403
163	61
164	33
165	20
166	1
171	2
172	3
177	48
178	41
179	4
180	2
181	0
189	12
190	1
193	29
194	8
195	0
204	5
205	0
206	31
207	4
208	1
220	22
221	2
222	1
235	21
236	22
237	533
238	72
239	30
240	3
