Mass Spectrum: 2,4-Pentanedione, ion(1-), lithium
Formula: C5H7LiO2
CAS: 18115-70-3
Molecular weight: 106
m/z	intensity
6	87
7	985
12	1
13	2
14	13
15	62
16	1
17	1
18	3
22	1
23	1
24	1
25	4
26	19
27	42
28	23
29	17
30	17
31	28
32	2
34	1
35	8
36	1
37	8
38	10
39	25
40	5
41	21
42	43
43	381
44	10
45	2
46	1
48	4
49	3
50	6
51	6
52	1
53	7
54	5
55	22
56	3
57	3
58	9
61	2
62	1
63	1
64	2
67	3
68	1
69	26
70	5
71	6
72	12
73	2
76	1
77	12
78	2
81	1
82	2
83	2
84	6
85	111
86	6
87	1
89	1
90	51
91	602
92	28
93	4
95	1
97	2
98	2
99	1
105	82
106	999
107	68
108	7
