Mass Spectrum: Methyl-bis(bornyloxy)silane
Formula: C21H38O2Si
CAS: 18125-57-0
Molecular weight: 350
m/z	intensity
27	67
28	45
29	61
39	61
40	7
41	305
42	15
43	171
44	15
45	39
47	2
50	6
51	15
52	8
53	58
54	8
55	208
56	17
57	47
59	8
61	162
62	6
63	18
64	2
65	22
66	8
67	165
68	25
69	143
70	11
71	22
73	8
75	18
76	6
77	174
78	6
79	64
80	11
81	295
82	35
83	27
84	7
85	11
86	4
87	27
88	4
89	6
91	69
92	26
93	198
94	39
95	999
96	89
97	11
99	11
101	6
102	9
103	41
104	4
105	53
106	6
107	55
108	305
109	182
110	115
111	28
112	10
113	21
114	19
115	19
116	6
117	8
118	2
119	12
120	4
121	228
122	18
123	6
125	9
126	7
127	11
128	2
129	11
130	3
131	12
132	6
133	10
134	10
135	53
136	229
137	485
138	55
139	10
141	3
142	3
143	10
145	3
147	3
148	2
149	39
150	2
153	2
155	2
157	6
158	6
159	6
167	6
168	3
169	6
181	36
182	4
183	3
195	5
196	17
197	21
198	3
199	15
211	6
212	17
213	102
214	28
215	3
223	2
224	3
225	18
226	3
240	6
241	48
242	3
267	6
268	5
269	6
279	10
280	8
294	4
295	6
306	22
307	5
308	4
319	3
322	6
324	2
325	2
335	29
336	8
337	1
350	45
351	10
352	2
