Mass Spectrum: Cyclopentane-1,2-dione (2,4-dinitrophenylhydrazone)
Formula: C17H14N8O8
CAS: 18138-10-8
Molecular weight: 458
m/z	intensity
24	3
26	51
27	123
28	563
29	51
30	843
32	20
33	3
34	3
35	3
36	11
37	120
38	280
39	467
40	131
41	375
42	80
43	90
44	188
45	16
46	108
47	3
48	8
49	30
50	280
51	407
52	999
53	280
54	155
55	140
56	16
57	28
58	3
59	3
60	36
61	130
62	375
63	811
64	500
65	375
66	188
67	100
68	111
69	31
70	11
71	23
72	3
73	20
74	120
75	280
76	251
77	251
78	280
79	340
80	155
81	36
82	23
83	40
84	8
86	11
87	31
88	63
89	120
90	280
91	869
92	251
93	91
94	36
95	63
96	100
97	10
98	8
99	20
100	11
101	20
102	20
103	40
104	31
105	68
106	100
107	295
108	43
109	10
110	8
111	8
112	3
113	8
114	16
115	40
116	20
117	20
118	20
119	23
120	20
121	10
122	51
123	23
124	8
125	3
126	8
127	20
128	20
129	28
130	20
131	20
132	8
133	10
134	16
135	11
136	16
137	108
138	56
139	10
140	20
141	20
142	16
143	16
144	8
145	10
146	8
147	11
148	8
149	8
150	3
152	36
153	343
154	51
155	28
156	20
157	10
158	20
159	8
160	23
161	3
162	3
164	56
165	20
166	16
167	56
168	68
169	40
170	16
171	16
172	8
173	8
174	3
175	10
176	8
177	20
178	8
179	8
180	8
181	20
182	11
183	779
184	71
185	16
186	8
188	8
189	8
190	3
191	3
192	3
194	3
195	8
196	8
197	8
198	8
200	8
201	11
202	8
203	8
204	3
206	3
207	3
208	3
209	3
210	3
212	8
213	8
214	20
215	23
216	11
218	8
219	3
220	3
221	3
222	3
224	3
225	3
226	3
227	3
228	11
229	10
230	8
231	23
232	3
233	3
234	3
236	3
237	3
238	3
239	3
240	3
242	8
243	8
244	3
245	8
246	8
248	3
249	3
250	3
251	3
252	3
254	3
255	3
256	3
257	3
258	3
260	8
261	3
262	11
263	3
264	3
266	3
267	3
268	3
269	3
270	3
272	3
273	3
274	3
275	3
276	8
277	10
278	3
279	3
280	3
281	3
282	3
284	3
285	3
286	3
287	3
288	3
290	3
291	3
292	3
293	3
294	3
296	3
297	3
298	3
299	3
300	3
302	3
303	3
304	3
305	3
306	3
308	3
309	3
310	3
311	3
312	3
314	3
315	3
316	3
317	3
318	3
320	3
321	3
322	3
323	3
324	3
326	3
327	3
328	3
329	3
330	3
332	3
333	3
334	3
335	3
336	3
338	3
339	3
340	3
341	3
342	3
345	3
346	3
347	3
348	3
349	3
351	3
352	3
353	3
354	3
355	3
357	3
358	3
360	3
361	3
362	3
364	3
365	3
366	3
367	3
368	3
370	3
371	3
372	3
373	3
374	3
376	3
377	3
378	3
379	3
380	3
382	3
383	3
384	3
385	3
386	3
388	3
389	3
390	3
391	3
392	3
394	3
396	3
397	3
398	3
399	3
401	3
402	3
403	3
404	3
405	3
407	3
408	3
409	3
410	3
411	3
413	3
414	3
416	3
417	3
418	3
423	3
424	3
425	3
426	3
428	3
430	3
435	3
441	3
442	3
443	3
445	3
446	3
449	3
451	3
452	3
454	3
456	3
457	3
458	31
459	8
