Mass Spectrum: 3-Heptanol, TMS derivative
Formula: C10H24OSi
CAS: 18132-91-7
Molecular weight: 188
m/z	intensity
29	266
31	15
43	107
45	193
47	66
59	89
61	81
66	1
69	35
73	999
75	570
83	2
87	7
89	4
101	28
103	63
104	6
115	42
117	5
118	0
130	9
131	680
132	80
145	38
146	5
147	5
159	435
160	61
161	19
162	1
173	85
174	13
188	6
