Mass Spectrum: Bis(pentamethylcyclotrisiloxy)hexamethyltrisiloxane
Formula: C16H48O10Si9
CAS: 18142-95-5
Molecular weight: 652
m/z	intensity
43	39
73	999
74	129
75	60
147	641
148	90
149	11
207	212
208	18
209	6
221	97
222	21
223	68
224	16
265	70
266	15
267	398
268	88
281	470
282	111
283	130
284	19
327	190
328	61
341	111
342	50
355	96
356	11
399	40
400	19
415	365
416	108
417	50
459	58
460	26
461	210
462	78
463	29
475	155
476	92
477	68
478	20
517	25
518	16
519	38
520	17
533	70
534	49
535	53
549	63
550	35
563	34
564	15
579	15
580	6
637	174
638	75
639	50
640	18
