Mass Spectrum: Tributylsulfonium iodide
Formula: C12H27IS
CAS: 18146-62-8
Molecular weight: 330
m/z	intensity
15	7
25	1
26	25
27	155
28	60
29	473
30	16
32	1
34	3
35	10
37	5
38	11
39	99
40	22
41	565
42	39
43	35
44	2
45	40
46	31
47	84
48	20
49	22
50	12
51	14
52	5
53	32
54	23
55	230
56	884
57	999
58	55
59	17
60	38
61	843
62	38
63	43
64	1
67	1
69	6
70	3
71	2
73	8
74	2
75	54
76	4
77	3
83	1
84	1
85	3
87	5
88	33
89	135
90	350
91	185
92	28
93	10
101	1
103	177
104	22
105	10
117	74
118	8
119	5
127	34
128	16
129	1
131	5
135	1
140	1
141	11
142	2
145	9
146	660
147	66
148	36
149	4
153	1
154	4
155	48
156	2
184	628
185	31
