Mass Spectrum: Silane, butyldichloromethyl-
Formula: C5H12Cl2Si
CAS: 18147-23-4
Molecular weight: 170
m/z	intensity
15	8
26	7
27	39
28	2
29	24
38	3
39	21
40	3
41	2
42	7
43	4
44	2
45	2
50	3
51	4
53	7
54	6
55	16
56	101
63	114
64	10
65	33
66	5
75	1
78	17
79	24
80	8
81	10
91	6
92	18
97	6
98	29
99	37
100	21
101	28
102	6
103	7
105	13
106	43
107	6
108	16
109	64
110	7
111	28
112	35
113	999
114	90
115	685
116	46
117	138
118	8
119	16
125	12
126	8
127	28
128	7
129	15
131	3
134	31
135	3
136	21
137	4
138	4
141	339
142	36
143	227
144	23
145	46
146	3
151	7
153	1
155	34
156	3
157	23
158	1
159	5
170	25
171	3
172	17
174	2
