Mass Spectrum: Silane, dimethyl[(methylsilyl)methyl]-
Formula: C4H14Si2
CAS: 18148-13-5
Molecular weight: 118
m/z	intensity
29	40
31	50
42	30
43	300
44	40
45	110
55	30
57	30
58	60
59	290
60	20
69	80
70	30
71	40
72	50
73	370
74	40
75	20
81	30
83	20
84	10
85	70
86	20
87	60
88	10
89	10
99	50
100	50
101	180
102	150
103	999
104	140
105	70
115	20
116	80
117	270
118	50
119	20
