Mass Spectrum: 2-Furanhexanoic acid, tetrahydro-.beta.,.delta.-dihydroxy-5-methoxy-, methyl ester
Formula: C12H22O6
CAS: 18142-13-7
Molecular weight: 262
m/z	intensity
41	390
42	100
43	470
44	100
45	220
47	10
53	30
54	30
55	220
56	100
57	150
58	210
59	340
60	20
61	190
67	200
68	90
69	640
70	70
71	570
72	240
73	120
74	70
75	30
77	10
78	10
79	40
80	10
81	110
82	50
83	90
84	260
85	140
86	10
87	150
88	20
91	40
92	40
93	90
94	30
95	130
96	30
97	330
98	50
99	30
100	100
101	999
102	40
103	210
104	10
106	10
107	30
109	30
110	40
111	60
112	20
113	370
114	40
115	80
116	40
117	30
119	30
120	10
121	60
123	30
126	30
127	120
128	40
129	410
130	20
135	40
136	10
137	20
139	140
142	20
143	10
144	30
145	80
147	250
152	20
153	30
155	50
157	120
160	50
162	20
163	30
166	20
168	130
169	70
171	30
181	60
184	50
186	190
187	100
189	30
194	60
195	20
196	10
197	10
199	160
200	10
202	40
204	90
211	10
212	180
213	130
214	10
230	60
231	130
232	10
