Mass Spectrum: Silane, 2-butenyltrichloro-
Formula: C4H7Cl3Si
CAS: 18147-55-2
Molecular weight: 188
m/z	intensity
26	7
27	43
28	18
29	45
30	0
37	1
38	6
39	55
40	6
41	16
43	0
49	4
50	11
51	19
52	13
53	54
54	88
55	999
56	49
57	1
63	66
64	6
65	29
66	7
67	1
96	1
98	39
99	24
100	29
101	17
102	8
103	6
105	1
111	2
112	13
113	11
114	9
115	16
116	87
117	25
118	33
119	12
120	1
121	0
123	17
124	8
125	29
126	10
127	15
128	4
129	4
133	197
134	12
135	190
136	15
137	79
138	13
139	20
140	15
141	4
151	12
152	43
153	18
154	32
155	10
156	9
157	3
187	2
188	220
189	25
190	225
191	26
192	80
193	11
194	12
195	1
