Mass Spectrum: Dimethyl(chloromethyl)methoxysilane
Formula: C4H11ClOSi
CAS: 18143-33-4
Molecular weight: 138
m/z	intensity
26	8
27	26
29	73
30	13
31	71
36	9
39	11
40	7
41	27
42	42
43	108
44	32
45	51
47	7
49	19
50	9
51	12
53	16
55	28
56	8
57	15
58	42
59	548
60	42
61	28
63	41
64	8
65	42
66	6
67	15
70	12
71	7
73	7
74	5
75	34
77	13
78	23
79	61
80	9
81	27
88	9
89	999
90	83
91	42
93	38
94	12
95	195
96	19
97	68
98	8
123	48
124	8
125	17
126	2
