Mass Spectrum: 2-Furanhexanoic acid, tetrahydro-.beta.,.delta.-dihydroxy-5-methoxy-, methyl ester, diacetate
Formula: C16H26O8
CAS: 18142-14-8
Molecular weight: 346
m/z	intensity
41	200
42	60
43	999
44	60
45	140
54	20
55	90
56	20
57	60
58	30
59	180
60	10
61	40
66	10
67	90
68	40
69	290
70	30
71	140
72	220
73	40
74	60
75	10
77	10
79	40
81	60
82	20
83	30
84	30
85	40
87	50
88	10
91	40
92	50
93	60
94	30
95	100
96	10
97	50
98	10
99	10
100	40
101	780
102	40
103	20
105	10
106	30
107	30
108	10
109	20
110	20
111	20
113	20
117	30
119	10
120	10
121	30
122	10
126	50
127	60
129	30
133	10
134	10
135	70
136	10
137	10
139	20
141	10
142	10
149	10
151	30
152	20
153	20
155	20
163	40
165	10
166	30
168	100
169	20
177	10
181	10
183	10
184	20
186	10
194	90
195	40
211	10
215	10
226	40
227	10
228	30
254	80
255	30
286	20
288	30
314	10
315	180
316	30
