Mass Spectrum: N-(4-Carboxymethyl)-N'-phenyl-urea
Formula: C15H14N2O3
CAS: 181518-40-1
Molecular weight: 270
m/z	intensity
63	371
64	377
65	400
66	327
77	150
91	596
92	349
93	999
119	720
120	651
145	179
150	278
177	80
270	9
