Mass Spectrum: Chlorocyanopropyldimethylsilane
Formula: C6H12ClNSi
CAS: 18156-15-5
Molecular weight: 161
m/z	intensity
14	5
15	21
16	1
17	2
18	5
26	13
27	49
28	43
29	30
30	2
31	9
35	2
36	3
37	3
38	5
39	40
40	24
41	44
42	29
43	95
44	12
45	6
49	3
51	1
52	6
53	19
54	17
55	15
56	6
57	10
58	14
59	17
63	220
64	27
65	190
66	18
67	48
68	18
69	7
70	11
71	2
72	5
76	3
77	26
78	37
79	65
80	18
81	21
82	5
83	5
84	6
85	10
88	3
89	2
90	22
91	8
93	999
94	83
95	372
96	27
97	15
98	113
99	15
100	4
103	6
104	21
105	13
106	9
107	4
118	345
119	40
120	121
121	16
122	5
126	39
127	7
128	3
130	3
133	495
134	60
135	178
136	19
137	7
146	90
147	11
148	36
149	4
