Mass Spectrum: (2,2-Dichlorovinyl)trimethylsilane
Formula: C5H10Cl2Si
CAS: 18163-67-2
Molecular weight: 168
m/z	intensity
73	70
93	999
94	88
95	342
96	30
113	121
115	80
117	49
119	7
133	21
134	7
153	120
155	81
157	8
168	7
170	8
