Mass Spectrum: Propionic acid, 3-(dichloromethylsilyl)-, methyl ester
Formula: C5H10Cl2O2Si
CAS: 18163-34-3
Molecular weight: 200
m/z	intensity
15	12
26	8
27	26
28	23
29	27
30	4
31	5
39	9
41	11
42	10
43	27
44	2
45	18
53	18
54	6
55	264
56	727
57	123
58	6
59	73
60	3
61	2
63	292
64	20
65	115
66	9
67	7
69	7
71	1
74	2
76	5
77	30
78	75
79	97
80	34
81	36
82	3
83	1
87	30
88	4
89	1
90	4
91	4
93	2
94	11
95	27
96	5
97	16
98	88
99	73
100	59
101	47
102	13
103	12
105	10
106	13
107	5
108	9
109	147
110	13
111	61
112	45
113	999
114	93
115	698
116	47
117	136
118	8
119	10
121	11
122	2
123	8
125	19
126	15
127	14
128	11
129	167
130	12
131	105
132	6
133	22
134	11
135	4
136	3
139	6
140	2
141	84
142	12
143	61
144	8
145	16
149	2
153	4
155	3
157	22
159	14
161	2
163	3
165	43
166	4
167	16
169	277
170	89
171	194
172	59
173	40
174	10
185	11
187	7
199	4
200	21
201	5
202	14
203	1
