Mass Spectrum: Pyridine, 4-undecyl-
Formula: C16H27N
CAS: 1816-00-8
Molecular weight: 233
m/z	intensity
25	0
26	6
27	90
28	26
29	183
30	4
31	0
37	0
38	2
39	105
40	16
41	296
42	42
43	237
44	7
45	0
50	6
51	30
52	23
53	26
54	18
55	81
56	19
57	54
58	2
59	0
60	0
61	0
62	1
63	7
64	6
65	94
66	18
67	19
68	3
69	11
70	5
71	5
72	0
73	0
74	0
75	0
76	1
77	36
78	28
79	24
80	30
81	4
82	2
83	2
84	1
85	2
86	0
89	1
90	2
91	14
92	105
93	505
94	46
95	3
96	1
97	1
98	0
99	0
102	0
103	2
104	9
106	999
107	136
108	9
109	1
110	0
111	0
112	0
115	1
116	1
117	10
118	27
119	13
120	65
121	7
122	1
126	0
127	0
128	0
129	0
130	4
131	1
132	11
133	6
134	15
135	6
136	1
140	0
141	0
142	0
143	0
144	1
145	0
146	5
147	2
148	40
149	6
150	0
158	0
160	1
162	43
163	8
164	1
174	1
176	26
177	6
178	0
188	1
190	48
191	9
192	1
202	0
204	36
205	6
206	0
207	0
216	0
218	18
219	3
220	0
230	0
232	19
233	43
234	7
235	0
