Mass Spectrum: 2,4-Disilapentane, 2,4-dimethyl-
Formula: C5H16Si2
CAS: 18163-84-3
Molecular weight: 132
m/z	intensity
29	20
31	40
42	10
43	120
44	30
45	70
55	20
57	20
58	30
59	130
60	10
69	30
70	10
71	20
72	50
73	470
74	40
75	20
83	10
85	20
87	10
99	10
101	50
115	50
116	30
117	999
118	140
119	70
130	20
131	150
132	20
133	10
