Mass Spectrum: Silane, trichloro(2-methyl-2-butenyl)-
Formula: C5H9Cl3Si
CAS: 18163-57-0
Molecular weight: 202
m/z	intensity
27	93
39	133
41	529
42	51
53	65
55	82
63	64
67	63
68	56
69	999
70	62
133	83
135	82
202	68
204	67
