Mass Spectrum: Silane, (2-methoxyethyl)trimethyl-
Formula: C6H16OSi
CAS: 18173-63-2
Molecular weight: 132
m/z	intensity
2	1
12	0
13	0
14	4
15	58
16	1
17	1
18	3
19	0
25	0
26	3
27	12
28	11
29	57
30	5
31	28
32	1
33	1
37	0
38	0
39	2
40	0
41	2
42	16
43	91
44	26
45	88
46	5
47	5
48	0
49	0
50	0
52	0
53	7
54	2
55	33
56	4
57	19
58	52
59	377
60	29
61	18
62	0
63	0
64	0
65	1
66	2
67	2
68	0
69	2
70	2
71	6
72	18
73	234
74	21
75	23
76	1
77	0
83	0
84	0
85	1
86	0
87	0
88	4
89	999
90	82
91	36
92	1
99	0
100	0
101	3
102	0
103	2
104	2
105	0
106	0
115	0
117	1
118	0
119	0
131	0
132	0
