Mass Spectrum: tert-Butyldimethylsilanol
Formula: C6H16OSi
CAS: 18173-64-3
Molecular weight: 132
m/z	intensity
27	3
28	12
29	11
39	9
41	18
43	6
44	3
45	39
47	31
55	4
56	15
57	15
59	5
60	7
61	13
69	2
70	2
71	3
73	7
74	7
75	999
76	59
77	29
99	3
117	5
130	3
131	4
132	26
133	4
