Mass Spectrum: Benzenamine, 2-bromo-4,6-dinitro-
Formula: C6H4BrN3O4
CAS: 1817-73-8
Molecular weight: 261
m/z	intensity
25	1
26	4
27	4
28	2
29	4
30	144
36	4
37	41
38	49
39	97
40	12
41	15
42	2
43	2
44	43
45	2
46	44
47	1
48	5
49	23
50	82
51	112
52	292
53	56
54	7
55	5
60	19
61	215
62	485
63	628
64	98
65	110
66	24
67	9
68	16
69	13
70	1
72	1
73	15
74	47
75	59
76	127
77	69
78	450
79	44
80	20
81	13
82	4
84	1
86	15
87	41
88	116
89	357
90	999
91	106
92	48
93	16
94	54
95	8
96	1
100	2
101	17
102	10
103	11
104	21
105	19
106	61
107	11
108	12
109	7
110	1
115	2
116	9
117	28
118	38
119	115
120	29
121	17
122	17
123	2
124	7
125	1
128	2
129	13
130	17
131	16
132	22
133	6
134	9
135	6
136	7
139	2
140	9
141	40
142	161
143	51
144	162
145	17
146	14
147	2
148	1
149	2
150	2
151	2
152	1
153	1
154	8
155	8
156	22
157	57
158	29
159	50
160	14
161	1
162	1
163	1
165	1
166	7
167	7
168	52
169	468
170	107
171	454
172	58
173	43
174	4
175	38
176	2
180	1
181	7
182	2
183	11
184	13
185	199
186	27
187	191
188	16
189	1
197	3
198	3
199	8
200	7
201	11
202	3
203	7
204	1
214	1
215	72
216	8
217	69
218	3
219	1
231	394
232	31
233	380
234	29
235	2
243	1
244	6
245	24
246	7
247	23
248	1
261	929
262	79
263	907
264	73
265	10
266	1
