Mass Spectrum: 17.beta.-Propanoyloxy-5.beta.-androstan-3-one
Formula: C22H34O3
CAS: 18179-14-1
Molecular weight: 346
m/z	intensity
26	4
27	48
28	71
29	559
30	10
31	3
32	10
39	25
40	8
41	194
42	11
43	117
44	3
45	5
51	3
52	3
53	54
54	18
55	221
56	14
57	999
58	31
59	3
60	2
65	18
66	10
67	161
68	65
69	78
70	6
71	21
72	5
73	3
74	2
75	2
77	56
78	13
79	149
80	33
81	228
82	41
83	28
84	6
85	10
86	1
87	1
91	110
92	24
93	179
94	248
95	197
96	25
97	36
98	9
99	6
100	2
101	4
103	5
104	6
105	121
106	45
107	158
108	84
109	82
110	42
111	32
112	4
113	1
115	6
116	4
117	20
118	22
119	82
120	44
121	95
122	95
123	60
124	88
125	20
126	2
127	2
128	5
129	11
130	5
131	44
132	19
133	78
134	31
135	61
136	24
137	39
138	6
139	2
141	2
142	2
143	15
144	19
145	61
146	41
147	105
148	95
149	174
150	24
151	11
152	2
153	1
155	3
156	2
157	20
158	19
159	60
160	38
161	135
162	57
163	44
164	18
165	23
166	3
167	1
169	3
170	2
171	19
172	19
173	39
174	40
175	38
176	41
177	18
178	8
179	15
180	2
183	6
184	2
185	27
186	11
187	42
188	12
189	20
190	9
191	8
192	3
193	1
197	13
198	6
199	31
200	80
201	188
202	163
203	37
204	7
205	2
211	12
212	6
213	119
214	53
215	115
216	30
217	26
218	11
219	15
220	16
221	3
222	1
223	1
225	5
226	5
227	9
228	16
229	55
230	17
231	60
232	14
233	19
234	4
235	1
236	1
237	1
239	85
240	16
241	5
242	1
243	10
244	111
245	26
246	30
247	15
248	2
253	22
254	56
255	31
256	11
257	138
258	26
259	3
261	1
262	2
270	1
271	37
272	622
273	128
274	20
275	23
276	51
277	9
278	1
287	2
288	6
289	22
290	12
291	2
302	5
303	4
313	3
317	4
318	1
328	2
330	4
331	17
332	5
346	107
347	26
