Mass Spectrum: Chloromethyldimethylisopropoxysilane
Formula: C6H15ClOSi
CAS: 18171-11-4
Molecular weight: 166
m/z	intensity
14	0
15	3
29	16
31	4
36	0
37	0
38	2
39	22
40	3
41	33
42	16
43	93
44	17
45	129
46	8
47	43
48	2
49	9
50	1
51	12
52	0
53	4
54	1
55	6
56	2
57	9
58	13
59	35
60	8
61	26
62	2
63	37
64	4
65	19
66	2
67	3
68	0
69	1
70	1
71	4
72	5
73	15
74	13
75	873
76	58
77	32
78	17
79	183
80	23
81	166
82	10
83	37
84	2
85	0
87	4
88	0
89	1
91	1
92	3
93	11
94	3
95	68
96	5
97	24
98	1
99	2
100	0
101	12
102	2
103	1
105	1
107	246
108	22
109	139
110	11
111	21
112	1
113	1
114	0
115	6
117	999
118	99
119	35
120	2
121	1
122	0
123	0
124	0
125	0
131	1
135	0
136	2
137	0
138	1
139	0
151	96
152	10
153	34
154	3
155	1
165	7
166	1
167	3
168	0
