Mass Spectrum: Tetracontane-1,40-diol
Formula: C40H82O2
CAS: 181719-30-2
Molecular weight: 594
m/z	intensity
26	1
27	21
28	2
29	69
30	1
31	47
38	1
39	19
40	17
41	233
42	74
43	444
44	17
45	8
51	2
52	1
53	11
54	75
55	730
56	250
57	710
58	31
59	3
60	1
65	3
66	37
67	246
68	294
69	784
70	251
71	443
72	28
73	13
74	0
75	1
77	6
78	4
79	16
80	53
81	404
82	999
83	999
84	170
85	313
86	23
87	6
89	1
91	3
92	1
93	15
94	47
95	399
96	913
97	993
98	126
99	104
100	8
101	2
102	0
104	1
105	3
106	1
107	7
108	20
109	270
110	294
111	484
112	89
113	69
114	7
115	2
116	0
117	1
119	1
120	1
121	14
122	34
123	220
124	251
125	243
126	49
127	47
128	4
129	1
131	0
132	1
133	1
135	11
136	26
137	156
138	169
139	131
140	34
141	32
142	4
143	2
145	1
147	2
148	1
149	4
150	4
151	64
152	90
153	83
154	25
155	26
156	2
157	1
162	0
163	2
164	1
165	32
166	55
167	57
168	18
169	20
170	2
171	0
177	1
178	2
179	22
180	45
181	40
182	15
183	16
184	2
185	1
191	0
192	1
193	17
194	36
195	33
196	13
197	13
198	1
206	0
207	14
208	31
209	22
210	10
211	10
212	1
213	1
220	1
221	11
222	29
223	21
224	9
225	8
226	1
227	1
234	1
235	10
236	28
237	17
238	7
239	5
240	1
241	1
248	1
249	10
250	30
251	15
252	6
253	5
254	1
255	1
262	0
263	10
264	26
265	13
266	6
267	5
268	1
269	1
276	1
277	10
278	25
279	12
280	5
281	4
283	1
290	0
291	9
292	21
293	10
294	4
295	3
297	1
304	1
305	9
306	21
307	9
308	3
309	3
311	0
319	9
320	21
321	8
322	4
323	2
325	0
332	0
333	6
334	18
335	8
336	3
337	1
339	1
347	7
348	15
349	8
350	2
351	2
353	0
361	6
362	16
363	8
364	2
365	2
367	1
375	6
376	13
377	7
378	3
379	1
381	0
389	4
390	14
391	6
392	2
393	1
403	4
404	14
405	5
406	2
407	0
417	4
418	12
419	5
420	2
421	1
431	4
432	10
433	4
434	2
435	1
445	3
446	10
447	4
448	1
459	3
460	9
461	5
462	1
463	1
473	3
474	12
475	5
476	2
477	1
487	3
488	11
489	4
490	2
491	1
501	6
502	13
503	5
504	1
505	1
515	5
516	9
517	4
518	2
519	2
529	4
530	23
531	10
532	1
533	5
534	2
543	0
544	0
546	5
547	3
548	1
558	117
559	58
560	12
561	2
574	1
575	0
576	5
577	2
593	1
594	8
595	5
596	1
