Mass Spectrum: Ethyl(dimethyl)ethoxysilane
Formula: C6H16OSi
CAS: 18173-55-2
Molecular weight: 132
m/z	intensity
15	2
26	3
27	15
28	5
29	19
30	1
31	7
39	2
41	2
42	7
43	48
44	10
45	89
46	6
47	37
48	2
49	1
51	1
53	4
54	1
55	7
56	2
57	8
58	31
59	187
60	24
61	137
62	9
63	5
66	1
67	1
69	1
70	2
71	6
72	6
73	116
74	14
75	363
76	26
77	14
85	2
86	2
87	66
88	16
89	204
90	18
91	8
101	8
103	999
104	94
105	38
106	2
115	2
117	163
118	18
119	7
131	1
132	11
133	1
