Mass Spectrum: Silane, (3-chloropropyl)methoxydimethyl-
Formula: C6H15ClOSi
CAS: 18171-14-7
Molecular weight: 166
m/z	intensity
26	25
27	55
28	6
29	58
30	8
31	41
36	11
38	12
39	78
40	38
41	116
42	605
43	171
44	69
45	85
47	8
49	39
50	8
51	37
52	9
53	19
55	18
57	18
58	89
59	605
60	49
61	35
63	39
65	35
66	8
67	9
69	9
71	15
74	17
76	23
78	21
79	168
80	17
81	59
83	7
88	14
89	999
90	82
91	49
92	7
93	81
94	7
95	49
97	6
101	7
105	6
108	7
109	737
110	79
111	259
112	9
113	11
123	41
124	9
125	75
126	7
127	19
128	3
151	7
153	3
