Mass Spectrum: Benzoic acid, 2-amino-, 1-methylethyl ester
Formula: C10H13NO2
CAS: 18189-02-1
Molecular weight: 179
m/z	intensity
15	4
26	3
27	26
29	6
30	3
31	1
37	4
38	14
39	76
40	12
41	57
42	19
43	48
44	16
45	8
46	2
49	1
50	7
51	7
52	26
53	9
54	4
55	1
56	1
57	1
58	5
59	2
60	1
61	2
62	8
63	36
64	45
65	168
66	26
67	2
68	1
72	5
73	11
74	3
75	3
76	6
77	3
78	2
79	1
80	4
81	1
82	1
87	1
88	1
89	2
90	14
91	48
92	273
93	46
94	4
100	2
104	1
105	1
106	1
108	1
115	1
117	1
118	2
119	999
120	258
121	20
122	1
127	1
128	1
132	1
136	7
137	308
138	24
139	2
142	2
146	8
147	2
170	1
179	215
180	23
181	2
