Mass Spectrum: N-Methyl-4-oxo-4,N-diphenyl-butyramide
Formula: C17H17NO2
CAS: 181872-71-9
Molecular weight: 267
m/z	intensity
12	1
14	2
15	20
16	1
17	5
18	18
26	11
27	108
28	87
29	12
30	21
31	2
37	3
38	15
39	82
40	7
41	10
42	15
43	5
44	2
45	5
50	70
51	279
52	30
53	12
54	6
55	89
56	12
57	2
58	1
61	1
62	5
63	24
64	17
65	37
66	11
67	1
68	3
69	2
70	0
73	2
74	11
75	12
77	692
78	79
79	68
80	5
83	1
86	1
87	1
88	1
89	4
90	6
91	37
92	5
93	8
94	1
101	1
102	3
103	18
104	49
105	556
106	285
107	999
108	87
109	3
115	78
116	9
117	34
118	7
119	12
120	9
121	2
130	1
131	5
133	145
134	39
135	4
136	1
143	2
144	1
146	2
147	1
161	441
162	61
163	6
178	2
190	1
267	5
268	1
