Mass Spectrum: Cyclotrisilaselenane, hexamethyl-
Formula: C6H18Se3Si3
CAS: 18186-93-1
Molecular weight: 414
m/z	intensity
26	3
27	28
28	2
29	74
31	14
39	30
40	11
41	100
42	16
43	102
44	23
45	146
46	9
51	6
52	4
53	23
54	6
55	60
56	3
57	17
58	30
59	141
60	10
61	7
65	21
66	7
67	70
68	13
69	60
70	29
71	34
72	28
73	999
74	83
75	37
77	5
79	7
80	6
81	30
83	12
85	25
86	5
87	26
89	5
91	10
93	104
94	8
95	40
96	11
97	25
98	21
99	17
103	4
105	5
106	6
107	11
108	8
109	24
110	24
111	16
113	10
117	8
119	28
120	23
121	65
122	8
123	134
124	14
125	33
126	4
127	42
128	6
129	4
131	5
132	4
133	13
134	18
135	33
136	50
137	48
138	102
139	52
140	23
141	12
145	7
146	6
147	11
148	11
149	15
150	19
151	17
152	10
153	15
154	5
155	9
157	4
159	9
160	13
161	16
162	5
163	9
164	4
165	19
166	19
167	14
173	5
174	6
175	11
176	11
177	21
178	5
179	32
180	5
181	13
183	4
187	6
188	3
189	7
191	12
192	6
193	15
194	6
195	34
196	4
197	12
198	4
199	9
200	5
201	9
202	4
203	12
204	6
205	10
206	6
207	9
211	5
212	8
213	10
214	20
215	12
216	31
217	8
218	36
219	6
220	13
224	3
225	7
226	4
227	14
228	8
229	18
230	4
231	19
232	4
233	6
234	7
238	4
239	4
240	6
241	9
242	8
243	14
244	9
245	22
246	7
247	20
249	9
251	6
252	4
253	22
254	23
255	86
256	60
257	237
258	136
259	355
260	84
261	394
262	64
263	156
264	18
265	21
266	4
268	4
269	10
270	17
271	19
272	40
273	28
274	68
275	26
276	74
277	17
278	26
279	6
301	4
303	7
305	5
307	7
309	5
311	4
316	4
318	6
320	9
322	5
389	7
390	8
391	28
392	32
393	75
394	50
395	113
396	70
397	169
398	48
399	138
400	33
401	70
402	14
403	15
404	11
405	12
406	24
407	28
408	68
409	44
410	111
411	67
412	148
413	45
414	136
415	26
416	56
417	9
418	10
