Mass Spectrum: Ethyl(benzyl)(2-methylbut-3-yn-2-yl)amine
Formula: C14H19N
CAS: 181814-50-6
Molecular weight: 201
m/z	intensity
26	3
29	7
30	17
39	15
41	62
42	48
51	10
52	7
53	9
56	13
58	44
65	54
66	10
67	45
68	3
70	32
77	11
79	12
80	10
84	8
90	3
91	999
92	72
94	18
104	8
105	3
120	58
134	8
146	7
157	7
160	19
186	510
187	72
201	24
