Mass Spectrum: Benzoic acid, 2-amino-, hexyl ester
Formula: C13H19NO2
CAS: 18189-05-4
Molecular weight: 221
m/z	intensity
50	18
51	23
52	54
53	32
54	16
55	90
56	50
57	16
58	1
59	0
60	3
61	5
62	15
63	55
64	58
65	291
66	59
67	10
68	2
69	16
70	2
71	2
73	1
74	5
75	5
76	9
77	10
78	5
79	3
80	5
81	2
82	0
83	2
84	13
85	3
87	0
88	1
89	3
90	20
91	68
92	375
93	118
94	10
95	1
98	1
99	1
102	0
103	8
104	8
105	10
106	16
107	3
108	1
109	0
115	1
116	1
117	3
118	6
119	999
120	525
121	52
122	4
128	1
129	1
130	2
131	1
132	8
133	2
134	2
135	4
136	8
137	453
138	46
139	4
140	0
145	1
146	8
147	1
148	1
149	0
150	1
151	1
158	1
159	0
160	3
161	3
162	0
163	0
164	2
165	0
167	0
170	0
174	6
175	1
176	0
177	2
178	2
179	2
180	0
184	0
188	1
190	0
191	0
192	1
193	1
194	1
195	0
196	0
202	0
203	1
206	0
219	1
221	401
222	63
223	6
224	1
