Mass Spectrum: N-(2-(2-Chlorophenyl)ethenyl)-pyrrolidin-2,5-dione
Formula: C12H10ClNO2
CAS: 181827-94-1
Molecular weight: 235
m/z	intensity
57	160
86	170
88	79
89	78
91	348
99	151
102	60
111	159
112	88
113	50
114	230
115	999
116	110
117	179
120	241
128	229
143	100
151	657
153	189
179	577
181	180
