Mass Spectrum: N-(2-(4-Bromophenyl)ethenyl)-pyrrolidin-2,5-dione
Formula: C12H10BrNO2
CAS: 181827-93-0
Molecular weight: 279
m/z	intensity
51	211
56	256
82	180
88	68
89	198
103	281
104	40
113	19
115	622
116	999
117	30
127	40
143	238
144	189
146	229
170	119
172	121
200	370
223	760
225	759
