Mass Spectrum: 2,3-Di-O-methyl-D-xylopyranose
Formula: C7H14O5
CAS: 18186-26-0
Molecular weight: 178
m/z	intensity
53	3
54	4
55	23
56	13
57	69
58	29
59	64
60	11
61	44
68	6
69	47
71	47
72	11
73	124
74	139
75	32
83	10
84	3
85	66
86	14
87	999
88	299
89	32
99	8
100	5
101	229
102	12
103	4
114	23
115	101
116	11
117	5
119	5
128	7
129	4
130	47
146	8
147	12
148	1
161	1
176	2
