Mass Spectrum: N-(2-(3-Chlorophenyl)ethenyl)-pyrrolidin-2,5-dione
Formula: C12H10ClNO2
CAS: 181827-95-2
Molecular weight: 235
m/z	intensity
55	130
63	10
64	10
65	9
72	10
83	161
86	70
87	90
88	58
89	378
90	79
102	267
104	30
113	20
114	101
115	999
116	89
117	210
126	109
143	467
144	20
151	858
152	218
153	301
154	69
179	149
181	60
