Mass Spectrum: Diethyl(3-phenylbutyn-3-yl)amine
Formula: C14H19N
CAS: 181814-53-9
Molecular weight: 201
m/z	intensity
27	15
29	50
30	32
41	11
42	101
43	3
44	65
51	81
52	64
53	10
56	58
57	8
58	396
59	12
68	27
70	20
72	47
73	40
77	63
78	14
79	37
80	13
81	4
91	42
96	17
102	20
103	46
104	26
105	20
115	58
116	16
117	11
118	7
124	283
125	26
126	10
127	158
128	338
129	999
130	133
131	16
141	3
143	22
144	21
145	4
156	11
157	15
158	34
159	3
170	7
171	7
172	18
174	3
176	8
184	8
186	745
187	106
188	3
199	8
200	4
201	94
202	15
