Mass Spectrum: N-(2-(4-Methoxyphenyl)ethenyl)-pyrrolidin-2,5-dione
Formula: C13H13NO3
CAS: 181827-91-8
Molecular weight: 231
m/z	intensity
77	999
81	379
85	9
86	10
87	169
89	119
100	39
102	170
103	168
104	745
116	578
160	49
175	487
