Mass Spectrum: Benzeneacetamide, N-ethyl-.alpha.-(2-methyl-1-propenylidene)-N-(phenylmethyl)-
Formula: C21H23NO
CAS: 181814-67-5
Molecular weight: 305
m/z	intensity
27	26
29	33
30	5
39	69
41	84
42	39
43	156
44	16
45	11
50	15
51	63
52	15
53	10
55	22
56	28
57	31
58	8
61	24
65	97
67	26
68	4
69	16
70	15
71	17
72	28
75	12
76	13
77	143
78	28
79	21
81	10
82	17
89	23
90	11
91	999
92	94
93	5
97	12
98	11
100	26
101	10
102	28
103	60
104	38
105	47
106	85
107	55
115	75
116	21
117	124
118	38
119	31
120	14
121	16
126	5
127	66
128	218
129	175
130	28
131	30
132	24
133	11
134	23
141	39
142	25
143	327
144	79
145	81
146	8
148	11
149	15
156	14
157	21
158	263
159	39
162	17
170	3
171	15
172	161
173	56
174	8
186	27
187	13
188	42
189	4
191	4
200	21
210	21
214	42
215	13
219	7
229	5
233	3
234	47
235	12
262	15
276	37
277	9
290	32
291	4
304	10
305	215
306	46
