Mass Spectrum: N-Ethyl-N-(1-methylpent-3-yn-2-yl)benzylamine
Formula: C15H21N
CAS: 181814-56-2
Molecular weight: 215
m/z	intensity
27	40
29	43
30	19
38	8
39	73
40	13
41	135
42	149
43	24
44	26
49	3
50	6
51	25
52	11
53	79
54	12
55	38
56	21
57	21
58	48
63	13
65	113
66	30
67	20
68	13
69	13
70	159
71	18
77	43
78	12
79	70
80	24
81	145
82	15
83	8
84	33
85	4
86	12
89	15
90	13
91	999
92	79
93	3
94	8
95	6
103	3
104	15
105	11
106	10
108	31
109	3
115	9
117	3
118	7
120	68
121	7
128	6
129	8
130	3
134	18
136	24
146	13
170	8
174	9
175	5
198	4
200	675
201	110
202	8
215	14
