Mass Spectrum: Propanoyl chloride, 3-(trimethylsilyl)-
Formula: C6H13ClOSi
CAS: 18187-31-0
Molecular weight: 164
m/z	intensity
72	180
73	790
74	480
75	250
79	120
85	90
89	250
93	999
94	250
95	790
96	100
121	500
122	50
137	70
139	70
145	40
146	100
147	30
148	10
149	420
150	40
151	160
152	10
