Mass Spectrum: Formamide, N-formyl-N-methyl-
Formula: C3H5NO2
CAS: 18197-25-6
Molecular weight: 87
m/z	intensity
29	712
30	999
31	59
39	20
40	39
41	65
42	224
43	73
44	23
58	196
59	822
87	17
