Mass Spectrum: N-[2-Hydroxyethyl]succinimide
Formula: C6H9NO3
CAS: 18190-44-8
Molecular weight: 143
m/z	intensity
15	2
18	1
25	1
26	22
27	70
28	61
29	39
30	93
31	60
32	1
37	1
38	2
39	6
40	6
41	105
42	85
43	52
44	92
45	10
51	2
52	6
53	13
54	34
55	605
56	373
57	139
58	38
59	8
60	6
66	2
67	2
68	12
69	6
70	21
71	30
72	69
73	2
80	1
82	52
83	7
84	304
85	99
86	7
88	1
96	7
97	1
98	4
100	999
101	52
102	5
112	74
113	343
114	22
115	1
124	4
125	2
126	1
143	3
144	1
