Mass Spectrum: Spiro(benzofuran-2(3H),1'-cyclohexane)
Formula: C13H16O
CAS: 182-50-3
Molecular weight: 188
m/z	intensity
79	121
80	322
81	543
91	91
94	49
107	999
108	239
120	101
131	150
145	160
159	50
188	641
