Mass Spectrum: Benzenesulfonamide, N-ethyl-4-methyl-N-phenyl-
Formula: C15H17NO2S
CAS: 1821-40-5
Molecular weight: 275
m/z	intensity
12	3
14	3
15	40
16	4
17	14
18	79
26	12
27	123
28	62
29	74
30	8
32	4
36	2
37	9
38	39
39	327
40	33
41	87
42	130
43	15
44	93
45	20
47	2
48	6
49	5
50	63
51	328
52	67
53	27
54	11
55	6
56	3
57	3
58	4
59	2
61	5
62	29
63	147
64	86
65	521
66	41
67	20
68	3
69	7
70	4
71	6
72	2
73	2
74	12
75	15
76	21
77	722
78	105
79	81
80	23
81	5
82	2
83	1
84	4
85	3
86	7
87	4
88	3
89	89
90	51
91	999
92	164
93	95
94	42
95	7
97	1
101	2
102	6
103	149
104	341
105	129
106	77
107	13
108	3
109	3
110	2
111	6
112	2
115	9
116	3
117	12
118	168
119	156
120	779
121	87
122	7
123	2
124	2
127	3
128	5
129	3
132	5
134	2
138	2
139	38
140	8
141	8
142	6
151	3
152	7
153	5
155	439
156	115
157	36
158	3
165	5
166	4
167	18
168	8
169	3
180	7
181	5
182	18
183	3
184	1
185	2
194	3
196	85
197	13
198	1
210	36
211	88
212	14
213	1
246	2
247	0
260	52
261	8
262	3
275	63
276	11
277	4
278	0
