Mass Spectrum: 2-Oxo-n-valeric acid
Formula: C5H8O3
CAS: 1821-02-9
Molecular weight: 116
m/z	intensity
13	1
14	7
15	18
16	1
17	3
18	9
25	2
26	23
27	324
28	48
29	64
30	1
31	6
32	1
34	1
36	1
37	9
38	16
39	110
40	13
41	488
42	85
43	999
44	65
45	119
46	11
47	2
49	1
50	3
51	2
52	1
53	12
54	4
55	56
56	4
57	21
58	1
60	16
67	2
68	1
69	16
70	13
71	761
72	35
73	8
74	1
75	3
77	1
79	1
80	1
81	2
82	1
83	2
84	1
85	1
86	1
87	1
88	1
97	7
98	1
99	12
100	1
116	9
117	2
