Mass Spectrum: trans-2,2'-Bis(benzyloxy)stilbene
Formula: C28H24O2
CAS: 18221-49-3
Molecular weight: 392
m/z	intensity
28	1
39	7
41	2
50	2
51	5
52	2
55	1
62	1
63	5
64	2
65	34
66	2
74	1
75	1
76	3
77	7
78	12
79	1
89	6
90	3
91	999
92	85
93	3
101	1
102	2
104	1
105	3
107	26
108	2
115	3
118	1
119	1
121	2
126	1
127	3
128	2
131	1
133	1
139	2
151	3
152	11
153	8
154	1
155	2
163	1
164	1
165	9
166	2
167	5
168	1
178	2
179	2
180	4
181	31
182	6
183	13
184	2
194	12
195	20
196	5
197	2
198	1
207	9
208	3
209	4
210	31
211	10
212	1
223	28
224	5
273	2
274	1
284	1
285	5
286	3
299	1
300	3
301	21
302	6
392	32
393	9
394	1
