Mass Spectrum: 4-(1,5-Dihydro-2,4,3-benzodioxaborepin-3-yl)-benzaldehyde
Formula: C15H13BO3
CAS: 182281-10-3
Molecular weight: 252
m/z	intensity
11	1
12	4
13	1
14	2
15	6
16	4
17	10
18	28
19	1
24	0
25	1
26	14
27	76
28	27
29	205
30	5
31	4
36	2
37	13
38	45
39	263
40	29
41	49
42	9
43	9
44	11
45	9
46	0
47	0
48	4
50	180
51	293
52	80
53	90
54	6
55	6
56	1
57	2
58	1
59	1
60	2
61	15
62	56
63	196
64	62
65	400
66	34
67	13
68	1
69	1
70	1
71	2
72	2
73	7
74	52
75	52
76	107
77	300
78	172
79	21
80	1
81	2
82	2
83	3
84	2
85	5
86	10
87	14
89	256
90	256
91	999
92	197
93	22
94	2
96	7
97	3
98	4
99	1
100	4
101	14
102	104
103	253
104	148
105	61
106	5
107	5
111	23
113	2
114	1
115	7
116	38
117	146
118	65
119	426
120	136
121	13
122	1
123	0
125	91
127	2
128	4
129	6
130	21
131	81
132	25
133	56
134	4
135	1
136	0
137	2
138	1
139	2
140	1
141	3
142	1
143	0
144	3
145	24
146	90
147	112
148	11
149	1
150	1
151	4
152	12
153	4
154	1
155	1
157	0
158	0
159	0
161	1
162	1
163	5
164	3
165	30
166	11
167	11
168	1
169	0
170	0
171	1
172	3
173	13
174	8
175	5
176	7
177	12
178	77
179	102
180	19
181	4
182	0
183	0
187	1
189	0
190	1
191	6
192	11
193	36
194	9
195	3
196	1
202	0
203	1
204	1
205	2
206	1
207	4
208	6
209	2
220	5
221	20
222	12
223	19
224	3
225	0
233	0
234	0
235	0
236	3
237	13
238	2
239	0
247	0
248	0
250	51
251	251
252	268
253	47
254	5
255	0
