Mass Spectrum: 3-[p-Chlorophenyl]-5-[trichloromethyl]-1,2,4-oxadiazole
Formula: C9H4Cl4N2O
CAS: 1822-97-5
Molecular weight: 296
m/z	intensity
41	13
42	8
43	11
44	8
47	208
49	165
50	544
51	350
52	54
53	9
54	13
55	5
57	3
58	3
59	10
60	25
61	128
62	216
63	289
64	67
65	27
66	1
67	14
68	3
69	18
71	5
72	25
73	244
74	220
75	999
76	261
77	28
80	37
82	200
84	173
85	115
86	106
87	126
88	111
89	91
90	362
91	27
94	56
96	46
97	42
98	86
99	140
100	62
101	52
102	335
103	25
108	17
109	13
110	79
111	551
112	67
113	180
114	47
115	42
117	216
119	153
121	52
122	10
123	70
124	75
125	193
126	59
127	62
128	7
129	66
131	146
132	99
134	17
135	8
136	10
137	328
138	29
139	113
140	8
144	9
150	4
151	83
153	490
154	40
155	145
156	12
160	7
161	28
162	4
163	13
170	8
172	43
173	3
174	26
176	3
179	211
180	20
181	66
182	6
186	35
188	21
190	2
196	284
197	36
198	171
199	19
200	29
231	15
233	80
234	2
235	73
236	6
237	23
239	1
261	404
263	395
264	38
265	114
266	53
267	16
268	53
269	4
270	26
272	5
296	223
297	22
298	285
299	21
300	142
301	14
302	28
303	1
