Mass Spectrum: 1H-1,3-Diazepine, 4,5,6,7-tetrahydro-2-methyl-
Formula: C6H12N2
CAS: 18237-68-8
Molecular weight: 112
m/z	intensity
42	399
43	107
55	999
56	130
70	149
83	97
84	131
111	91
112	612
113	61
