Mass Spectrum: 1H-2,4-Benzodiazepine, 2,5-dihydro-3-methyl-
Formula: C10H12N2
CAS: 18233-71-1
Molecular weight: 160
m/z	intensity
42	105
51	67
65	80
77	81
89	80
90	78
91	284
92	296
117	181
118	765
119	999
159	67
160	321
161	130
