Mass Spectrum: 2-Furanmethanamine, N-(2-furanylmethyl)-
Formula: C10H11NO2
CAS: 18240-50-1
Molecular weight: 177
m/z	intensity
38	48
39	160
40	36
41	136
42	61
43	164
44	73
45	91
50	36
51	67
52	64
53	394
54	55
55	48
56	21
57	42
58	18
59	21
60	24
67	30
68	46
69	73
70	18
71	42
72	9
73	36
80	45
81	999
82	154
83	21
94	48
95	48
96	588
97	55
98	21
108	24
109	560
110	164
111	21
135	24
136	9
137	6
138	21
139	15
141	36
146	6
147	9
148	18
149	27
150	6
176	24
177	91
178	10
