Mass Spectrum: 3-Cyclohexene-1-ethanol
Formula: C8H14O
CAS: 18240-10-3
Molecular weight: 126
m/z	intensity
26	16
27	211
28	98
29	104
30	3
31	165
32	12
37	3
38	14
39	291
40	36
41	330
42	79
43	50
44	17
45	13
46	0
47	0
49	1
50	20
51	58
52	32
53	161
54	418
55	213
56	31
57	34
58	4
59	2
60	1
61	3
62	4
63	12
64	3
65	59
66	149
67	273
68	40
69	17
70	20
71	12
72	2
73	2
74	2
75	7
76	3
77	176
78	136
79	999
80	750
81	226
82	42
83	26
84	5
85	1
86	0
87	0
88	0
89	3
90	1
91	96
92	15
93	369
94	33
95	57
96	11
97	6
98	2
99	0
102	0
103	2
104	2
105	8
106	3
107	27
108	386
109	38
110	3
111	2
112	1
117	0
119	1
120	0
121	1
122	2
123	1
124	2
125	1
126	13
127	0
