Mass Spectrum: Silane, (butoxymethyl)trimethyl-
Formula: C8H20OSi
CAS: 18246-52-1
Molecular weight: 160
m/z	intensity
14	0
15	2
18	0
26	1
27	19
28	24
29	53
30	2
31	27
32	5
33	0
38	0
39	10
40	1
41	46
42	8
43	57
44	27
45	76
46	5
47	15
48	0
49	0
50	1
51	2
52	3
53	3
54	1
55	16
56	51
57	36
58	23
59	115
60	14
61	141
62	0
63	5
64	0
65	0
66	8
67	1
68	0
69	3
70	3
71	6
72	18
73	999
74	86
75	140
76	9
77	5
78	0
80	0
81	0
82	0
84	0
85	2
86	1
87	22
88	7
89	125
90	10
91	5
92	0
93	0
95	0
97	0
99	0
100	0
101	2
102	1
103	299
104	32
105	57
106	5
107	2
110	0
111	0
112	0
113	0
115	1
116	0
117	9
118	1
119	8
120	1
121	0
129	0
131	50
132	6
133	50
134	7
135	4
136	0
143	0
145	65
146	8
147	39
148	6
149	3
150	0
158	1
159	6
160	44
161	7
162	3
