Mass Spectrum: .alpha.-D-Xylofuranoside, methyl
Formula: C6H12O5
CAS: 1824-96-0
Molecular weight: 164
m/z	intensity
45	564
55	98
57	450
58	94
59	94
60	133
61	239
68	74
69	31
71	78
73	999
74	149
75	192
85	70
86	117
87	133
101	19
103	15
104	39
105	31
115	39
117	15
132	15
133	94
