Mass Spectrum: Benzeneethanethioic acid, S-phenyl ester
Formula: C14H12OS
CAS: 18245-74-4
Molecular weight: 228
m/z	intensity
26	1
27	4
28	0
29	0
37	1
38	9
39	84
40	6
41	17
42	1
43	1
45	12
49	0
50	16
51	45
52	7
53	1
55	1
56	0
57	2
58	3
59	2
61	3
62	10
63	47
64	12
65	210
66	18
67	1
69	28
70	2
71	2
73	1
74	4
75	5
76	3
77	23
78	3
79	1
81	3
82	7
83	4
84	3
85	1
86	1
87	2
88	1
89	44
90	66
91	999
92	124
93	5
94	0
95	0
97	0
98	0
99	0
102	0
103	0
104	0
105	2
106	0
107	1
108	12
109	133
110	34
111	8
112	1
113	0
114	0
115	1
116	0
117	0
118	564
119	301
120	21
121	5
122	1
123	1
124	1
125	0
126	0
127	0
128	0
129	0
131	0
132	0
133	0
134	1
135	0
136	0
137	2
138	0
139	1
140	0
141	0
151	0
152	2
153	0
154	1
155	0
163	0
164	0
165	7
166	2
167	1
171	0
181	0
183	0
184	2
185	2
186	0
187	0
197	3
198	0
199	1
200	2
201	0
210	4
211	0
218	11
219	1
220	1
228	113
229	18
230	7
231	0
