Mass Spectrum: 3-Hydroxypyridazine 1-oxide
Formula: C4H4N2O2
CAS: 18259-51-3
Molecular weight: 112
m/z	intensity
12	2
13	1
14	5
15	1
16	1
17	16
18	93
24	3
25	9
26	40
27	64
28	194
29	31
30	35
31	1
33	2
34	1
36	9
37	45
38	94
39	236
40	55
41	98
42	52
43	20
44	44
45	6
48	1
49	1
50	10
51	67
52	34
53	16
54	13
55	80
56	16
57	2
62	1
63	4
64	9
65	4
66	72
67	44
68	66
69	6
70	2
71	1
72	2
76	6
77	24
78	102
79	6
80	3
81	2
82	2
83	8
84	11
94	9
95	3
96	178
97	12
98	1
111	1
112	999
113	63
114	6
