Mass Spectrum: .beta.-l-Arabinopyranoside, methyl
Formula: C6H12O5
CAS: 1825-00-9
Molecular weight: 164
m/z	intensity
45	146
55	26
56	13
57	146
58	17
59	44
60	999
61	326
69	20
71	157
73	428
74	292
85	24
86	29
87	21
91	7
100	10
114	4
115	8
133	17
134	2
