Mass Spectrum: cis-.alpha.-Bergamotene
Formula: C15H24
CAS: 18252-46-5
Molecular weight: 204
m/z	intensity
27	22
29	28
39	75
40	14
41	311
42	21
43	50
50	5
51	25
52	13
53	83
54	9
55	186
56	73
57	29
63	11
64	3
65	59
66	15
67	95
68	21
69	376
70	47
77	229
78	44
79	232
80	81
81	75
82	24
83	11
84	10
89	4
90	2
91	309
92	128
93	828
94	108
95	50
96	6
97	9
98	7
103	22
104	9
105	237
106	49
107	307
108	44
109	96
110	8
111	8
115	18
116	6
117	25
118	17
119	999
120	160
121	121
122	30
123	23
124	3
126	4
129	4
131	7
132	4
133	61
134	33
135	41
136	25
145	4
147	21
148	19
149	23
150	3
161	50
162	12
163	7
175	5
176	2
189	27
190	5
191	2
