Mass Spectrum: Isopropyl alcohol, TMS derivative
Formula: C6H16OSi
CAS: 1825-64-5
Molecular weight: 132
m/z	intensity
26	4
27	36
29	37
30	3
31	12
33	0
36	0
37	1
38	2
39	28
40	2
41	31
42	15
43	128
44	40
45	179
46	12
47	85
48	5
49	3
50	4
51	9
52	3
53	5
54	1
55	11
56	3
57	18
58	24
59	43
60	13
61	72
62	4
63	2
66	0
67	0
68	0
69	1
70	3
71	6
72	17
73	677
74	61
75	999
76	81
77	36
78	0
85	1
86	0
87	3
88	0
89	0
99	0
100	0
101	9
102	1
103	0
115	3
117	641
118	60
119	23
120	0
121	0
131	7
132	0
133	0
