Mass Spectrum: 1-Propanol, TMS derivative
Formula: C6H16OSi
CAS: 1825-63-4
Molecular weight: 132
m/z	intensity
26	4
27	58
28	11
29	46
30	5
31	23
37	1
38	2
39	27
40	1
41	35
42	16
43	153
44	50
45	184
46	14
47	96
48	7
49	4
50	1
51	1
52	1
53	8
54	3
55	16
56	3
57	29
58	65
59	115
60	17
61	88
62	5
63	3
65	0
66	0
67	1
68	0
69	0
70	2
71	8
72	23
73	765
74	69
75	111
76	53
77	1
87	6
88	19
89	4
90	1
91	0
99	6
100	0
101	16
102	4
103	239
104	20
105	9
115	8
117	999
118	113
119	41
120	2
130	0
131	7
132	3
133	0
