Mass Spectrum: Allyl(ethoxy)dimethylsilane
Formula: C7H16OSi
CAS: 18269-47-1
Molecular weight: 144
m/z	intensity
30	17
31	61
32	3
36	4
38	19
39	235
40	23
41	212
42	35
43	219
44	23
45	348
46	19
47	168
48	4
49	6
50	2
51	2
52	4
53	31
54	7
55	31
56	6
57	19
58	88
59	445
60	55
61	139
62	11
63	5
65	2
66	7
67	9
69	9
70	2
71	18
72	6
73	78
74	17
75	951
76	65
77	31
78	2
79	4
81	2
83	6
85	51
86	6
87	18
88	25
89	85
90	7
91	2
95	4
97	6
99	45
100	6
101	77
102	8
103	999
104	93
105	38
115	3
127	2
129	97
130	8
131	6
133	4
144	2
