Mass Spectrum: 4-Methyl-a-ethylaminobutiophenone
Formula: C13H19NO
CAS: 18268-19-4
Molecular weight: 205
m/z	intensity
40	3
41	60
42	12
43	11
44	12
50	5
51	10
52	3
53	2
54	4
55	4
56	40
58	93
59	4
62	5
63	19
64	6
65	72
66	5
67	2
68	4
69	2
70	23
71	5
74	2
75	2
76	2
77	8
78	2
79	2
84	12
86	999
87	64
89	25
90	13
91	121
92	12
93	3
103	3
105	11
115	6
116	2
117	3
119	62
120	8
128	2
130	2
131	3
132	2
146	3
147	6
148	6
160	4
161	3
162	2
176	18
177	2
