Mass Spectrum: Hexadecanoic acid, 2-bromo-
Formula: C16H31BrO2
CAS: 18263-25-7
Molecular weight: 334
m/z	intensity
17	2
18	7
26	3
27	71
28	25
29	243
30	6
31	5
32	2
36	2
39	41
40	13
41	499
42	137
43	999
44	39
45	27
46	1
47	3
51	1
52	1
53	32
54	61
55	511
56	230
57	762
58	36
59	18
60	59
61	13
62	1
63	1
65	5
66	9
67	125
68	100
69	333
70	175
71	327
72	18
73	527
74	27
75	3
76	2
77	4
78	3
79	24
80	64
81	149
82	133
83	268
84	153
85	170
86	36
87	66
88	10
89	1
91	5
92	2
93	16
94	16
95	129
96	117
97	219
98	164
99	121
100	29
101	71
102	14
103	2
105	4
106	2
107	12
108	15
109	86
110	67
111	110
112	64
113	103
114	54
115	82
116	20
117	2
118	1
119	10
120	4
121	16
122	11
123	59
124	44
125	63
126	38
127	75
128	16
129	76
130	8
131	2
133	9
134	12
135	15
136	10
137	43
138	251
139	50
140	243
141	26
142	7
143	32
144	11
145	2
147	9
148	12
149	11
150	7
151	48
152	47
153	44
154	14
155	15
156	6
157	97
158	23
159	3
161	7
162	4
163	6
164	3
165	21
166	14
167	13
168	7
169	9
170	3
171	90
172	17
173	3
175	8
176	4
177	9
178	3
179	14
180	32
181	9
182	35
183	6
184	3
185	36
186	11
187	2
189	5
190	1
191	4
192	39
193	94
194	45
195	89
196	10
197	30
198	7
199	15
200	6
201	1
203	3
205	3
207	87
208	9
209	83
210	6
211	9
212	2
213	97
214	12
215	2
217	2
218	15
219	18
220	4
221	4
222	1
223	4
225	4
226	3
227	50
228	9
229	2
231	2
233	2
235	11
236	118
237	53
238	9
239	4
240	1
241	1
245	1
247	1
249	27
250	5
251	24
252	4
253	3
254	17
255	167
256	45
257	7
259	1
263	23
264	4
265	22
266	3
272	1
277	3
278	1
279	4
280	1
291	5
293	5
305	6
307	7
308	2
333	2
334	75
335	16
336	77
337	15
338	2
