Mass Spectrum: Thiazole, 2-phenyl-
Formula: C9H7NS
CAS: 1826-11-5
Molecular weight: 161
m/z	intensity
39	26
45	14
50	46
51	108
58	999
59	56
60	56
63	39
75	23
76	68
77	86
89	18
90	11
103	36
104	21
105	22
121	10
161	819
162	71
163	61
