Mass Spectrum: .beta.-D-Glucopyranoside, 2-[(benzoyloxy)methyl]-4-hydroxyphenyl, pentaacetate
Formula: C30H32O14
CAS: 18265-35-5
Molecular weight: 616
m/z	intensity
43	999
77	76
81	68
85	30
94	26
97	68
103	38
105	229
109	453
110	42
122	125
123	60
127	167
138	45
139	76
145	53
169	790
170	76
211	30
229	23
244	38
331	257
332	45
616	1
