Mass Spectrum: Ethyl 3-hydroxy-3-methylbutanoate
Formula: C7H14O3
CAS: 18267-36-2
Molecular weight: 146
m/z	intensity
25	0
26	16
27	147
28	19
29	261
30	7
31	135
33	0
37	1
38	7
39	82
40	14
41	124
42	120
43	989
44	25
45	61
46	2
47	4
49	0
50	4
51	8
52	4
53	22
54	8
55	88
56	59
57	34
58	58
59	999
60	228
61	118
62	3
63	1
64	0
65	2
66	1
67	8
68	3
69	11
70	57
71	9
72	10
73	9
74	3
75	1
76	1
77	5
78	4
79	6
80	1
81	7
82	18
83	94
84	7
85	594
86	26
87	40
88	209
89	54
90	3
91	3
92	0
93	2
94	1
95	12
96	4
97	5
98	10
99	25
100	9
101	141
102	13
103	136
104	7
105	5
106	0
107	2
108	7
109	1
113	2
128	13
129	6
130	0
131	452
132	30
133	2
145	1
