Mass Spectrum: 2,5-Furandione, 3-(1,1-dimethylethyl)-
Formula: C8H10O3
CAS: 18261-07-9
Molecular weight: 154
m/z	intensity
25	13
26	66
27	313
28	48
29	203
30	7
31	24
33	7
36	6
37	35
38	101
39	756
40	173
41	968
42	88
43	257
44	25
45	39
49	21
50	140
51	248
52	130
53	225
54	95
55	209
56	115
57	157
58	11
59	63
60	7
61	16
62	33
63	56
64	15
65	187
66	89
67	999
68	89
69	100
70	19
71	11
72	5
73	6
74	2
77	34
78	10
79	134
80	180
81	390
82	141
83	621
84	73
85	14
86	3
93	32
94	7
95	438
96	37
97	26
98	44
99	8
100	9
101	83
102	5
107	7
108	144
109	135
110	315
111	452
112	39
113	7
121	24
122	3
123	5
124	2
125	59
126	587
127	48
128	4
129	2
130	1
136	11
137	2
139	70
140	6
154	3
155	6
