Mass Spectrum: Benzamide, N-2-naphthalenyl-
Formula: C17H13NO
CAS: 18271-22-2
Molecular weight: 247
m/z	intensity
27	1
28	2
38	1
39	4
50	6
51	34
52	2
62	2
63	7
64	1
65	4
74	2
75	4
76	8
77	328
78	22
86	1
87	2
88	3
89	8
90	1
101	1
104	3
105	999
106	82
107	5
113	5
114	8
115	60
116	8
126	3
127	5
128	1
140	7
141	3
142	2
143	18
144	40
145	4
169	1
189	2
202	1
216	2
217	4
218	2
228	1
229	1
230	1
245	1
246	3
247	630
248	119
249	11
