Mass Spectrum: 3-Buten-2-one, 4-(1-aziridinyl)-
Formula: C6H9NO
CAS: 18277-57-1
Molecular weight: 111
m/z	intensity
39	118
40	110
41	788
42	720
43	999
44	67
52	8
53	194
54	152
55	194
61	50
62	21
63	29
67	55
68	389
69	84
80	42
81	105
82	745
83	190
84	16
96	923
97	50
98	29
111	966
112	33
