Mass Spectrum: Thiocyanic acid, ester with 4-neercaptoazobenzene
Formula: C13H9N3S
CAS: 18277-90-2
Molecular weight: 239
m/z	intensity
39	70
45	60
50	160
51	360
63	130
64	50
69	80
76	90
77	999
78	80
82	60
91	110
105	260
107	50
108	70
134	380
135	50
152	50
162	40
210	30
213	40
239	490
240	80
