Mass Spectrum: Azobenzene, 4,4''-methylenebis-
Formula: C25H20N4
CAS: 18277-98-0
Molecular weight: 376
m/z	intensity
39	70
50	40
51	200
64	50
65	50
75	60
76	40
77	999
78	100
89	110
90	100
105	270
106	40
121	60
139	40
152	60
165	560
166	440
167	90
194	170
228	30
239	30
241	30
271	500
272	110
299	50
376	400
377	130
