Mass Spectrum: Benzoic acid, 2-(phenylazo)-, ethyl ester
Formula: C15H14N2O2
CAS: 18277-91-3
Molecular weight: 254
m/z	intensity
39	50
50	90
51	200
64	50
65	130
76	110
77	999
78	80
91	70
93	90
105	280
106	60
121	360
122	50
131	30
141	30
151	30
152	130
153	80
177	70
181	70
198	60
209	60
225	20
254	250
255	50
