Mass Spectrum: Diethyldivinylsilane
Formula: C8H16Si
CAS: 18270-16-1
Molecular weight: 140
m/z	intensity
41	26
42	22
43	77
44	261
45	90
47	39
53	63
54	36
55	169
56	56
57	292
58	46
59	86
63	32
65	32
67	29
74	19
75	32
77	15
81	53
82	19
83	999
84	87
85	186
86	32
87	32
111	956
112	135
113	60
140	5
141	1
