Mass Spectrum: N-Benzyllinoleamide
Formula: C25H39NO
CAS: 18286-71-0
Molecular weight: 369
m/z	intensity
27	6
28	5
29	20
30	5
39	19
40	4
41	118
42	18
43	60
44	8
50	2
51	9
52	4
53	23
54	46
55	174
56	22
57	33
58	4
59	6
62	1
63	5
64	2
65	54
66	13
67	179
68	32
69	80
70	12
71	11
72	7
75	1
76	2
77	50
78	18
79	118
80	36
81	100
82	27
83	29
84	23
85	7
86	4
89	9
90	5
91	999
92	95
93	37
94	12
95	63
96	23
97	23
98	14
99	4
100	4
103	7
104	25
105	45
106	693
107	170
108	229
109	51
110	14
111	10
112	5
113	3
114	4
115	4
116	4
117	26
118	24
119	12
120	5
121	21
122	6
123	18
124	8
125	4
126	3
127	2
128	5
129	5
130	4
131	13
132	11
133	12
134	12
135	22
136	10
137	9
138	7
139	2
140	2
141	3
142	2
143	4
144	4
145	6
146	9
147	7
148	85
149	622
150	84
151	13
152	5
153	3
154	2
155	2
156	1
157	2
158	1
159	3
160	18
161	13
162	357
163	79
164	12
165	4
166	3
168	1
171	1
172	2
173	3
174	9
175	4
176	41
177	21
178	11
179	3
180	2
181	1
183	1
184	1
186	3
187	4
188	14
189	4
190	31
191	9
192	2
193	1
194	1
196	1
197	1
198	1
200	5
201	2
202	36
203	9
204	52
205	12
206	3
207	2
214	9
215	5
216	95
217	21
218	54
219	14
220	3
221	2
222	1
228	6
230	23
232	20
233	6
234	2
235	2
242	13
243	8
244	24
245	6
246	16
247	5
248	1
256	17
257	5
258	24
259	5
260	21
261	16
262	10
263	4
264	2
270	14
271	5
272	17
273	4
274	12
275	3
278	6
279	2
284	8
285	3
286	12
287	3
288	8
289	2
298	6
299	2
300	7
301	2
302	4
303	1
305	3
312	6
313	2
314	6
317	1
326	7
327	2
338	4
340	5
341	2
354	1
368	3
369	157
370	47
