Mass Spectrum: Pentanoic acid, 5,5'-diselenobis-
Formula: C10H18O4Se2
CAS: 18285-95-5
Molecular weight: 362
m/z	intensity
26	14
27	154
28	53
29	212
30	6
31	47
38	1
39	88
40	7
41	154
42	29
43	264
44	15
45	149
46	1
51	7
52	1
53	50
54	15
55	891
56	44
57	78
58	4
59	292
60	34
61	1
67	11
68	11
69	34
70	6
71	12
72	3
73	75
74	7
76	1
77	4
78	11
79	9
80	15
81	17
82	9
83	472
84	28
85	6
87	7
89	7
90	12
91	28
92	18
93	47
94	7
95	18
96	4
97	18
98	3
99	17
100	3
101	999
102	55
103	9
104	7
105	12
106	11
107	22
108	18
109	15
110	3
111	11
115	7
117	4
118	4
119	12
120	6
121	18
122	3
123	4
129	3
130	3
131	14
132	15
133	37
134	18
135	59
136	34
137	15
138	11
139	7
140	6
147	3
148	3
149	6
150	7
151	4
152	7
153	6
154	12
155	6
156	18
157	14
158	34
159	11
160	44
161	18
162	25
163	22
164	25
165	9
166	6
171	4
172	3
173	6
174	4
175	9
176	3
177	6
178	4
179	4
180	4
187	3
198	4
199	3
200	4
202	6
211	3
212	4
213	4
214	6
215	6
216	7
217	4
218	1
219	3
238	3
240	9
241	4
242	14
244	12
246	4
292	4
318	4
320	3
330	1
332	6
334	6
356	9
357	6
358	18
359	9
360	31
361	4
362	36
363	3
364	11
366	4
