Mass Spectrum: Morpholine-4-sulfonyl chloride
Formula: C4H8ClNO3S
CAS: 1828-66-6
Molecular weight: 185
m/z	intensity
33	2
35	10
36	12
37	2
38	2
39	4
40	38
41	90
42	257
43	33
44	44
45	7
46	3
48	54
49	7
52	5
54	74
55	89
56	999
57	98
58	9
59	4
60	6
63	12
64	29
65	12
73	1
83	4
84	28
86	400
87	20
92	4
99	26
101	6
109	1
142	11
144	4
150	65
151	6
185	95
186	9
187	35
188	3
