Mass Spectrum: Butyronitrile, 4-ethoxy-3-hydroxy-
Formula: C6H11NO2
CAS: 18282-78-5
Molecular weight: 129
m/z	intensity
12	8
13	14
14	53
15	188
16	8
17	7
18	23
19	52
24	2
25	14
26	151
27	627
28	256
29	999
30	42
31	690
32	10
33	12
36	2
37	22
38	34
39	98
40	44
41	54
42	44
43	236
44	115
45	168
46	12
47	27
49	1
50	4
51	18
52	47
53	37
54	551
55	541
56	41
57	98
58	55
59	533
60	58
61	625
62	16
63	6
64	12
65	5
66	26
67	4
68	6
69	2
70	8
71	3
72	10
73	26
74	4
75	20
79	4
80	3
81	4
82	50
83	85
84	9
85	39
86	139
87	12
88	21
89	151
90	7
96	7
97	1
98	2
101	6
102	17
103	9
107	2
111	165
112	13
129	4
130	4
