Mass Spectrum: 1,3-Phenanthroline, 5,6-dihydro-4-hydrazino-2-phenyl-spiro-5-cyclopentane-
Formula: C22H22N4
CAS: 182926-08-5
Molecular weight: 342
m/z	intensity
33	1
35	7
36	25
37	10
39	602
40	101
41	620
42	247
43	175
44	95
45	11
50	128
51	441
52	121
53	102
54	43
55	310
56	51
57	22
58	2
60	0
61	2
62	34
63	141
64	45
65	89
66	40
67	35
68	6
69	11
70	6
71	5
73	2
74	41
75	108
76	304
77	999
78	116
79	38
80	6
81	4
82	6
83	8
84	3
86	13
87	34
88	43
89	122
90	46
91	64
92	6
93	3
94	1
95	6
96	2
97	1
98	6
99	18
100	23
101	59
102	76
103	267
104	791
105	127
106	11
107	5
108	10
109	1
110	1
111	4
112	7
113	72
114	103
115	211
116	78
117	20
118	7
119	3
120	7
121	21
122	18
123	1
124	2
125	44
126	165
127	262
128	147
129	41
130	14
131	2
132	1
133	3
134	9
135	6
136	4
137	22
138	28
139	201
140	249
141	150
142	52
143	40
147	2
149	51
150	60
151	99
152	207
153	149
154	149
155	46
156	19
157	1
158	0
162	2
163	15
164	46
165	94
166	86
167	86
168	52
169	62
170	13
171	1
174	0
175	4
176	18
177	34
178	65
179	40
180	29
181	17
182	30
183	48
184	6
188	1
189	2
190	13
191	15
192	12
193	11
194	12
195	9
196	9
197	1
200	0
201	3
202	4
203	7
204	4
205	4
206	3
207	7
208	2
209	1
213	0
214	1
215	3
216	2
217	1
218	2
219	0
220	0
221	2
222	0
223	0
224	0
226	0
227	5
228	6
229	3
230	29
231	4
240	2
241	2
242	5
243	8
244	7
245	1
253	0
254	2
255	16
256	34
257	11
258	1
259	0
267	1
268	2
269	7
270	7
271	5
272	6
273	22
274	4
281	9
282	4
283	3
284	6
285	53
286	134
287	30
288	2
295	0
296	5
297	8
298	8
299	86
300	20
301	4
310	0
311	26
312	8
313	6
314	1
325	0
326	6
327	4
328	40
329	8
330	0
342	1
