Mass Spectrum: Didrovaltrate
Formula: C22H32O8
CAS: 18296-45-2
Molecular weight: 424
m/z	intensity
39	6
40	3
41	79
42	15
43	188
44	6
45	3
50	1
51	4
52	2
53	13
54	3
55	34
56	16
57	613
58	28
59	6
60	5
61	4
63	1
64	1
65	12
66	11
67	14
68	6
69	33
70	2
71	5
76	1
77	49
78	19
79	48
80	8
81	20
82	7
83	20
84	7
85	999
86	56
87	6
89	1
90	1
91	47
92	8
93	15
94	131
95	47
96	7
97	5
98	4
100	1
101	2
102	4
103	28
104	44
105	76
106	12
107	28
108	18
109	15
110	4
111	7
112	1
113	1
114	1
115	7
116	2
117	3
118	3
119	307
120	41
121	27
122	18
123	10
124	4
125	3
126	1
127	2
128	1
129	1
131	8
132	66
133	89
134	27
135	19
136	15
137	59
138	10
139	3
140	1
141	1
143	23
144	3
145	2
146	3
147	18
148	8
149	60
150	72
151	45
152	10
153	3
154	1
155	1
159	22
160	131
161	202
162	27
163	7
164	2
165	13
166	2
167	7
168	3
169	6
170	1
171	1
173	1
174	3
175	1
176	1
177	59
178	408
179	222
180	24
181	3
182	1
183	1
186	1
187	34
188	4
189	1
191	3
192	2
193	1
195	17
196	15
197	3
202	1
203	1
205	1
206	1
207	6
208	4
209	2
210	1
213	1
216	2
219	1
220	2
221	9
222	2
223	1
225	6
226	1
233	31
234	8
235	1
236	18
237	32
238	15
239	6
240	1
244	4
245	1
247	1
249	1
251	7
252	2
255	5
256	2
261	15
262	41
263	8
264	1
265	1
267	2
271	2
279	5
280	23
281	4
282	1
293	3
294	1
297	1
304	1
307	5
308	1
309	1
321	2
322	33
323	169
324	32
325	5
326	1
335	1
339	23
340	5
341	1
364	3
365	1
424	1
