Mass Spectrum: Butane, 2-iodo-3-methyl-
Formula: C5H11I
CAS: 18295-27-7
Molecular weight: 198
m/z	intensity
26	9
27	112
29	157
30	2
33	0
37	2
38	7
39	83
40	9
41	207
42	35
43	750
44	25
45	0
50	5
51	4
52	2
53	21
54	4
55	135
56	34
57	4
60	0
61	0
67	1
69	4
70	12
71	999
72	48
73	2
83	1
91	0
95	1
97	1
99	0
105	0
111	0
112	0
123	0
127	14
128	3
141	0
155	5
183	2
198	16
199	0
