Mass Spectrum: Undecanoic acid, 10-bromo-
Formula: C11H21BrO2
CAS: 18294-93-4
Molecular weight: 264
m/z	intensity
26	21
27	335
28	13
29	424
30	10
31	29
33	0
34	0
35	0
36	1
37	1
38	7
39	251
40	28
41	902
42	174
43	340
44	13
45	123
46	5
47	2
48	0
49	0
50	6
51	13
52	7
53	82
54	74
55	999
56	136
57	199
58	16
59	55
60	411
61	39
62	3
63	2
64	1
65	13
66	9
67	139
68	112
69	657
70	87
71	100
72	7
73	257
74	25
75	2
76	0
77	11
78	4
79	36
80	17
81	118
82	107
83	516
84	84
85	52
86	6
87	57
88	25
89	2
90	0
91	8
92	2
93	53
94	16
95	83
96	68
97	202
98	64
99	22
100	20
101	71
102	11
103	1
104	0
105	6
106	3
107	44
108	10
109	55
110	31
111	135
112	17
113	10
114	24
115	50
116	8
117	1
118	1
119	9
120	2
121	27
122	32
123	41
124	51
125	139
126	13
127	12
128	4
129	45
130	3
131	1
132	0
133	4
134	1
135	4
136	2
137	19
138	8
139	7
140	1
141	15
142	2
143	14
144	1
145	0
146	0
147	4
148	26
149	177
150	32
151	6
152	2
153	2
154	0
155	3
156	0
157	1
158	0
159	0
161	0
162	2
163	1
164	3
165	4
166	37
167	258
168	39
169	4
170	0
171	1
173	0
175	0
176	0
177	0
178	0
179	0
180	0
181	0
182	1
183	1
184	24
185	224
186	29
187	2
191	0
192	0
193	0
194	0
195	0
196	0
197	0
198	0
199	0
201	0
202	0
204	4
205	5
206	3
207	5
208	0
209	0
210	0
212	0
213	3
214	0
215	0
221	4
222	0
223	5
224	0
228	0
235	0
237	0
241	0
247	1
249	1
251	0
264	18
265	2
266	18
267	2
