Mass Spectrum: Trimethyl(2-methyl-1-propenyl)silane
Formula: C7H16Si
CAS: 18292-39-2
Molecular weight: 128
m/z	intensity
28	38
29	20
31	57
43	76
44	37
45	141
55	17
58	40
59	258
60	10
61	8
62	7
71	18
72	29
73	999
74	97
75	40
85	10
86	19
97	57
111	20
112	8
113	657
114	100
115	47
128	151
129	30
