Mass Spectrum: Valtrate
Formula: C22H30O8
CAS: 18296-44-1
Molecular weight: 422
m/z	intensity
41	370
42	70
43	999
44	40
45	40
51	20
53	40
54	20
55	240
56	90
57	970
58	50
60	100
61	40
63	20
65	30
66	20
67	80
68	40
69	390
70	70
71	420
72	40
77	50
78	20
79	40
81	110
82	70
83	160
84	60
85	650
86	40
87	20
89	30
91	90
92	40
93	50
94	40
95	110
96	60
97	150
98	50
99	80
103	30
104	30
105	50
106	20
107	50
108	20
109	80
110	40
111	90
112	40
113	50
115	30
117	20
118	20
119	90
120	100
121	50
123	50
124	30
125	60
126	30
127	50
128	20
129	20
131	50
132	30
133	40
134	30
135	40
136	30
137	40
138	20
139	40
140	30
141	50
142	20
144	20
145	30
146	20
147	80
148	370
149	100
150	40
151	40
152	30
153	40
154	30
155	50
156	20
159	40
160	20
161	20
163	30
164	130
165	60
169	40
170	30
175	50
176	260
177	80
181	30
183	30
190	30
193	30
194	30
206	50
218	30
219	50
232	30
236	30
248	40
249	30
260	30
261	60
262	20
278	20
279	10
290	15
291	10
320	10
321	10
363	3
364	2
366	2
422	22
