Mass Spectrum: 2-Phenylethylsilane
Formula: C8H12Si
CAS: 18292-22-3
Molecular weight: 136
m/z	intensity
27	78
31	43
39	99
41	55
42	58
43	91
44	8
45	11
50	38
51	138
52	37
53	95
54	19
55	42
56	17
57	22
58	297
59	25
63	43
65	137
66	16
67	25
69	11
74	13
75	13
76	13
77	192
78	121
79	104
80	12
81	40
82	16
89	27
91	999
92	88
93	26
95	11
102	23
103	104
104	88
105	566
106	332
107	659
108	855
109	120
110	30
119	27
121	23
130	13
131	58
132	38
133	118
134	59
135	87
136	586
137	79
138	22
