Mass Spectrum: Palmitaldehyde, dibutyl acetal
Formula: C24H50O2
CAS: 18302-68-6
Molecular weight: 370
m/z	intensity
26	16
27	160
28	100
29	350
30	11
31	220
32	8
33	19
38	9
39	85
40	21
41	500
42	140
43	400
44	41
45	28
50	5
51	6
53	23
54	42
55	230
56	340
57	999
58	53
59	6
65	5
66	24
67	120
68	170
69	120
70	60
71	130
72	17
73	11
74	5
75	12
77	8
79	15
80	16
81	110
82	370
83	150
84	29
85	54
86	6
91	9
93	14
94	13
95	120
96	180
97	100
98	20
99	25
100	11
105	9
108	6
109	63
110	42
111	33
112	10
113	310
114	25
119	6
123	30
124	23
125	14
126	9
127	15
137	17
138	13
139	6
140	8
141	11
151	6
152	8
154	6
155	14
165	7
166	8
169	28
179	5
180	5
183	6
194	11
222	26
223	7
239	5
240	6
255	11
269	55
297	13
