Mass Spectrum: Carbamic acid, (p-tolylsulfonyl)-, propyl ester
Formula: C11H15NO4S
CAS: 18303-01-0
Molecular weight: 257
m/z	intensity
41	189
43	540
44	169
55	223
56	108
57	284
65	230
83	108
91	999
92	121
97	108
107	95
108	440
155	764
193	284
197	298
242	108
