Mass Spectrum: Carbamic acid, (p-tolylsulfonyl)-, cyclohexyl ester
Formula: C14H19NO4S
CAS: 18303-08-7
Molecular weight: 297
m/z	intensity
41	224
42	115
43	236
44	423
54	236
55	236
56	208
57	979
58	115
65	236
67	445
71	187
81	107
82	749
83	150
91	999
107	75
108	268
151	85
155	668
171	123
197	241
