Mass Spectrum: Stannum tetrachloride-bis(pyridine 1-oxide)
Formula: C10H10Cl4N2O2Sn
CAS: 18308-08-2
Molecular weight: 450
m/z	intensity
16	1
17	5
18	18
25	4
26	25
27	16
28	37
29	15
30	16
31	3
32	1
35	41
36	49
37	35
38	76
39	406
40	128
41	67
42	33
43	2
44	1
47	27
48	4
49	16
50	63
51	114
52	103
53	15
54	1
55	1
56	1
59	1
60	3
61	15
62	31
63	67
64	12
65	23
66	58
67	11
68	109
69	6
70	1
74	1
75	7
76	6
77	7
78	79
79	86
80	5
94	9
95	999
96	61
97	3
112	2
114	1
116	26
117	13
118	45
119	15
120	61
122	9
124	10
147	1
149	1
151	20
152	10
153	41
154	15
155	57
156	4
157	21
159	9
161	2
186	5
187	2
188	9
189	4
190	15
191	2
192	9
194	4
196	1
217	7
219	12
220	2
221	119
222	61
223	298
224	124
225	469
226	83
227	342
228	22
229	164
230	2
231	62
233	14
235	1
252	1
254	2
256	14
257	7
258	40
259	16
260	66
261	13
262	56
263	5
264	31
265	1
266	13
268	4
270	1
