Mass Spectrum: Palmitaldehyde, diisopentyl acetal
Formula: C26H54O2
CAS: 18302-71-1
Molecular weight: 398
m/z	intensity
26	13
27	130
28	65
29	270
30	8
31	80
32	6
38	6
39	90
40	18
41	400
42	170
43	999
44	54
45	38
46	11
50	5
51	7
53	28
54	42
55	380
56	130
57	450
58	28
59	7
65	5
66	27
67	120
68	160
69	140
70	340
71	930
72	59
73	6
77	7
79	16
80	18
81	100
82	410
83	170
84	33
85	45
86	9
87	6
89	13
91	9
93	14
94	14
95	110
96	210
97	110
98	23
99	30
105	19
107	5
108	7
109	70
110	49
111	42
112	12
113	15
114	7
119	16
121	5
122	5
123	33
124	27
125	20
126	7
127	150
128	14
137	20
138	17
139	9
140	10
141	12
151	8
152	11
153	7
154	6
155	5
165	8
166	10
169	6
180	6
183	17
194	15
197	5
222	35
223	13
240	19
253	8
267	4
281	1
282	1
295	4
296	1
309	3
310	58
311	14
312	2
324	1
338	3
339	1
352	1
