Mass Spectrum: 3-Bromobutyric acid, TMS derivative
Formula: C7H15BrO2Si
CAS: 18301-67-2
Molecular weight: 238
m/z	intensity
41	196
42	80
43	101
44	41
45	180
46	14
47	81
55	21
57	46
58	96
59	41
60	15
61	40
69	133
70	11
71	10
72	62
73	999
74	97
75	287
76	20
77	13
99	33
107	10
109	13
115	10
117	87
121	10
123	18
125	11
129	13
136	11
137	685
138	63
139	700
140	50
141	29
143	33
159	132
160	18
179	17
181	112
182	10
183	100
223	106
224	13
225	108
226	13
238	7
239	1
240	8
241	1
