Mass Spectrum: L-Homoserine, O-propyl-
Formula: C7H15NO3
CAS: 18312-28-2
Molecular weight: 161
m/z	intensity
29	150
30	198
31	95
32	2
39	75
41	189
42	118
43	999
44	248
45	114
46	79
47	71
55	173
56	347
57	189
58	493
59	71
60	23
72	126
73	217
74	308
75	110
83	110
84	55
86	51
87	27
88	66
100	55
102	31
116	355
117	31
118	43
143	15
144	36
