Mass Spectrum: Cycloheptene, 1-bromo-
Formula: C7H11Br
CAS: 18317-64-1
Molecular weight: 174
m/z	intensity
12	1
13	1
14	4
15	52
25	2
26	41
27	222
28	38
29	45
30	1
31	1
36	1
37	15
38	45
39	292
40	47
41	254
42	19
43	10
44	3
45	13
46	13
49	4
50	65
51	108
52	55
53	305
54	154
55	171
56	7
60	2
61	14
62	26
63	50
64	11
65	101
66	65
67	265
68	19
69	1
73	1
74	4
75	4
76	2
77	82
78	23
79	98
80	32
81	21
82	8
83	4
85	2
86	3
87	2
89	3
90	1
91	36
92	6
93	41
94	14
95	999
96	76
97	2
104	1
105	3
106	2
107	5
108	1
109	1
117	3
119	7
120	2
121	4
122	2
132	24
133	4
134	23
135	3
136	1
145	2
146	13
147	2
148	12
159	1
161	1
174	122
175	9
176	119
177	9
