Mass Spectrum: Cedranoxide, 8,14-
Formula: C15H24O
CAS: 18319-31-8
Molecular weight: 220
m/z	intensity
26	56
27	198
28	263
29	210
31	17
37	14
38	23
39	222
40	23
41	443
42	65
43	999
44	16
45	5
50	5
51	42
52	13
53	153
54	14
55	303
56	20
57	96
58	168
59	18
63	15
64	4
65	73
66	19
67	176
68	78
69	288
70	58
71	47
75	16
77	82
78	50
79	191
80	38
81	269
82	339
83	87
84	12
85	20
91	166
92	26
93	271
94	68
95	142
96	62
97	52
98	9
103	19
104	20
105	104
106	26
107	338
108	188
109	130
110	22
111	30
112	40
113	15
115	15
116	9
117	32
118	30
119	58
120	57
121	115
122	35
123	53
124	40
125	16
128	5
129	11
131	31
132	16
133	101
134	55
135	224
136	57
137	21
138	23
139	4
145	33
146	17
147	48
148	28
149	139
150	81
151	43
152	6
159	42
160	17
161	38
162	47
163	80
164	38
165	10
173	9
174	6
175	9
176	12
177	69
178	21
187	50
188	7
189	26
190	5
191	84
192	27
202	75
203	11
205	84
206	18
220	129
221	26
