Mass Spectrum: 5-[(2,4-Dinitrophenyl)hydrazono]pentan-2-ol
Formula: C11H14N4O5
CAS: 1831-56-7
Molecular weight: 282
m/z	intensity
26	8
27	100
28	66
29	118
30	113
31	33
37	7
38	33
39	112
40	24
41	252
42	43
43	266
44	29
45	245
46	10
50	41
51	79
52	63
53	40
54	47
55	207
56	52
57	191
58	20
59	16
61	13
62	56
63	151
64	78
65	50
66	22
67	156
68	44
69	54
70	18
71	32
72	11
73	9
74	39
75	116
76	73
77	147
78	100
79	112
80	43
81	52
82	42
83	83
84	27
85	999
86	68
87	11
88	22
89	36
90	58
91	71
92	58
93	39
94	13
95	20
96	11
97	17
98	9
99	9
100	15
101	8
102	22
103	60
104	76
105	31
106	30
107	19
108	10
109	8
111	9
115	22
116	20
117	28
118	33
119	25
120	15
121	9
122	70
123	8
127	8
128	14
129	22
130	35
131	34
132	16
133	9
134	7
135	23
136	9
137	15
138	17
141	6
142	8
143	29
144	27
145	20
146	10
147	13
148	8
149	28
150	12
151	7
152	24
153	26
154	7
155	12
156	28
157	30
158	11
159	35
160	13
163	7
164	28
165	58
166	14
167	29
168	11
169	9
170	15
171	17
172	8
173	23
174	9
175	11
176	18
177	20
179	7
180	9
181	18
183	45
184	25
185	10
189	60
190	21
191	17
192	11
193	19
195	7
196	18
201	8
202	29
203	77
204	17
205	15
206	172
207	23
214	7
215	18
216	39
217	37
218	10
219	11
220	31
221	7
222	20
223	18
224	76
225	9
229	20
230	8
231	32
235	102
236	14
237	27
247	76
248	13
249	33
264	25
265	14
266	9
267	21
282	223
283	64
284	10
