Mass Spectrum: 1,2-Dithiane, 1,1-dioxide
Formula: C4H8O2S2
CAS: 18321-15-8
Molecular weight: 152
m/z	intensity
25	3
26	108
27	580
28	11
29	223
30	4
31	2
33	14
34	19
35	8
36	1
37	11
38	29
39	338
40	47
41	306
42	148
43	28
44	6
45	477
46	966
47	643
48	101
49	32
50	26
51	27
52	7
53	86
54	523
55	521
56	27
57	19
58	93
59	196
60	999
61	39
62	41
63	9
64	36
65	13
66	3
67	1
68	1
69	6
70	1
71	13
72	7
73	117
74	5
75	6
76	7
77	1
80	4
81	3
82	2
83	1
84	1
85	27
86	21
87	114
88	427
89	33
90	19
91	2
94	2
96	1
102	0
103	5
104	1
105	1
107	0
135	0
152	529
153	32
154	48
155	3
156	2
