Mass Spectrum: Phosphorodithioic acid, O,O-diethyl ester, S-ester with 1-mercaptoethyl acetate
Formula: C8H17O4PS2
CAS: 18327-68-9
Molecular weight: 272
m/z	intensity
43	999
44	40
45	90
47	60
58	20
59	60
60	60
61	20
63	30
65	200
80	20
81	20
87	30
93	70
95	30
97	220
99	20
109	60
112	40
113	30
114	40
121	50
125	100
129	110
130	20
131	30
142	130
153	140
157	20
158	70
170	50
185	50
186	310
213	30
228	190
