Mass Spectrum: Imidazole, 5-hydrazinocarbonyl-
Formula: C4H6N4O
CAS: 18329-78-7
Molecular weight: 126
m/z	intensity
41	468
42	133
43	71
44	30
51	23
52	65
53	118
54	27
55	20
56	12
66	41
67	479
68	618
69	42
70	15
95	999
96	62
126	315
127	22
