Mass Spectrum: Formamide, N-methyl-N-4-[1-(pyrrolidinyl)-2-butynyl]-
Formula: C10H16N2O
CAS: 18327-40-7
Molecular weight: 180
m/z	intensity
41	390
42	700
43	380
44	115
45	36
46	3
47	22
48	8
49	88
50	56
51	165
52	140
53	187
54	109
55	414
56	122
57	294
58	46
59	15
60	56
61	13
62	12
63	32
64	20
65	88
66	87
67	205
68	144
69	204
70	999
71	221
72	100
73	33
74	16
75	28
76	20
77	139
78	180
79	111
80	197
81	195
82	175
83	199
84	231
85	126
86	56
87	17
88	32
89	27
90	8
91	147
92	42
93	125
94	132
95	181
96	100
97	138
98	59
99	45
100	12
101	18
102	18
103	40
104	26
105	91
106	135
107	77
108	440
109	194
110	335
111	171
112	37
113	34
114	15
115	84
116	39
117	93
118	37
119	131
120	373
121	310
122	172
123	242
124	193
125	70
126	6
127	7
128	6
129	6
130	11
131	4
132	6
133	5
134	7
135	4
136	13
137	7
138	38
139	265
140	34
141	13
142	15
143	5
144	12
145	5
146	4
147	3
148	8
149	4
150	28
151	73
152	36
153	16
154	11
155	3
156	5
157	4
158	10
159	4
160	8
161	10
162	6
163	3
164	17
165	82
166	29
167	14
168	13
169	11
170	11
171	3
172	4
173	3
174	5
175	12
176	18
177	29
178	46
179	90
180	33
181	4
