Mass Spectrum: 4-Bromobutyric acid, TMS derivative
Formula: C7H15BrO2Si
CAS: 18340-00-6
Molecular weight: 238
m/z	intensity
15	20
25	1
26	7
27	47
28	0
29	27
30	3
31	11
37	2
38	7
39	73
40	12
41	280
42	145
43	112
44	40
45	206
46	15
47	102
48	6
49	5
50	3
51	5
52	0
53	7
54	3
55	34
56	8
57	59
58	128
59	39
60	24
61	74
62	6
63	3
64	4
65	1
66	2
67	2
68	6
69	180
70	14
71	15
72	106
73	999
74	112
75	781
76	59
77	30
78	2
80	8
81	4
82	8
83	1
84	2
85	2
86	4
87	6
88	13
89	5
90	4
91	0
93	13
94	1
95	12
97	1
98	1
99	44
100	3
101	13
102	2
103	0
104	6
105	3
106	2
107	7
108	2
109	11
110	1
111	4
112	1
113	1
114	1
115	1
116	18
117	224
118	20
119	6
120	1
121	15
122	3
123	17
124	3
125	7
127	2
128	1
129	16
130	3
132	368
133	40
134	16
135	0
136	11
137	849
138	74
139	877
140	66
141	35
142	2
143	3
145	29
146	2
147	5
148	6
149	14
150	6
151	13
152	14
153	4
154	10
155	3
156	1
159	34
160	5
161	0
165	2
167	1
179	3
181	69
182	8
183	71
184	7
185	3
188	2
194	2
196	1
202	1
223	354
224	45
225	379
226	43
227	16
228	2
238	7
239	1
240	7
241	1
