Mass Spectrum: Pyridine, 3-(2-propenyloxy)-
Formula: C8H9NO
CAS: 18343-04-9
Molecular weight: 135
m/z	intensity
39	490
41	999
51	100
66	90
78	60
95	240
106	200
134	570
135	310
