Mass Spectrum: 2-Pyridinamine, 3-methyl-N-nitro-
Formula: C6H7N3O2
CAS: 18344-53-1
Molecular weight: 153
m/z	intensity
30	90
38	60
39	210
40	50
50	60
51	110
52	150
53	510
54	70
65	30
66	70
68	60
79	50
80	620
81	60
92	80
93	80
107	999
108	130
109	80
153	50
