Mass Spectrum: Bicyclo[3.1.1]heptan-3-one, 2,6,6-trimethyl-
Formula: C10H16O
CAS: 18358-53-7
Molecular weight: 152
m/z	intensity
26	12
27	179
28	59
29	136
30	5
31	6
37	5
38	15
39	371
40	52
41	676
42	51
43	62
44	1
45	2
49	1
50	13
51	62
52	31
53	132
54	42
55	999
56	56
57	4
58	4
60	4
62	5
63	10
64	3
65	33
66	15
67	187
68	79
69	667
70	66
73	3
74	2
75	2
76	3
77	50
78	11
79	62
80	13
81	215
82	68
83	865
84	58
85	3
91	14
92	8
93	14
94	16
95	194
96	67
97	135
98	4
99	2
105	6
106	4
107	10
108	15
109	35
110	60
111	44
112	8
122	2
123	5
124	7
135	1
136	3
137	5
152	62
153	6
