Mass Spectrum: 1H-Benzotriazole, 1-acetoxy-4,5,6,7-tetrachloro-
Formula: C8H3Cl4N3O2
CAS: 18355-09-4
Molecular weight: 313
m/z	intensity
27	121
28	234
29	224
30	938
31	117
35	65
36	197
38	121
39	146
41	209
42	317
43	999
44	609
45	158
47	253
49	124
51	73
55	73
56	53
57	85
60	290
62	158
63	73
71	351
72	119
73	121
74	173
75	117
76	61
77	48
78	85
79	156
83	65
85	78
86	585
87	82
91	51
95	73
96	231
97	56
98	182
106	229
107	463
108	339
109	270
110	168
117	73
118	341
119	85
120	231
121	629
122	146
123	219
130	73
132	326
134	209
141	219
142	782
143	265
144	541
145	161
146	170
149	231
152	58
156	704
157	53
158	287
177	265
178	73
179	439
180	185
181	207
182	121
202	48
208	168
210	151
212	465
213	341
214	341
215	587
216	463
217	378
218	304
219	190
220	153
227	187
228	146
229	148
230	219
231	153
232	53
237	87
243	858
244	146
245	999
246	158
247	543
248	102
249	173
268	170
270	365
271	836
272	370
273	999
274	251
275	543
276	121
277	151
313	707
314	151
315	885
316	195
317	475
