Mass Spectrum: 2(1H)-Pyridinethione, 6-methyl-
Formula: C6H7NS
CAS: 18368-57-5
Molecular weight: 125
m/z	intensity
27	67
37	50
38	99
39	428
40	51
42	60
45	97
51	55
53	66
57	55
63	66
64	67
65	289
66	67
70	23
80	458
81	649
82	77
83	56
91	43
92	174
97	65
110	48
124	71
125	999
126	102
127	55
