Mass Spectrum: 2-Picoline, 6-nitro-
Formula: C6H6N2O2
CAS: 18368-61-1
Molecular weight: 138
m/z	intensity
37	69
38	69
39	347
40	17
41	26
46	17
50	43
51	43
52	43
62	17
63	69
64	86
65	695
66	86
80	26
91	17
92	999
93	69
108	26
138	17
