Mass Spectrum: .alpha.((1,1-Dimethylethyl)aminomethyl)benzenemethanol
Formula: C12H19NO
CAS: 18366-40-0
Molecular weight: 193
m/z	intensity
12	0
14	1
15	13
16	2
17	6
18	15
26	2
27	32
28	32
29	110
30	999
31	17
32	2
37	1
38	3
39	47
40	8
41	162
42	56
43	30
44	11
45	1
50	11
51	52
52	15
53	15
54	7
55	26
56	35
57	216
58	22
59	2
60	5
62	2
63	7
64	2
65	14
66	2
67	2
68	5
69	2
70	30
71	21
72	8
73	1
74	2
75	2
77	119
78	30
79	81
80	7
81	1
82	2
83	1
84	4
86	582
87	39
89	6
90	3
91	47
92	5
93	2
94	1
96	1
97	1
99	0
101	1
102	3
103	18
104	12
105	23
106	4
107	31
108	3
109	0
111	0
112	1
113	1
115	3
116	2
117	8
118	27
119	7
120	8
121	1
127	2
128	19
129	3
130	2
131	3
132	2
134	0
135	0
136	4
137	0
141	1
142	1
143	3
144	13
145	5
146	0
149	0
150	0
158	1
160	164
161	19
162	1
171	0
174	1
175	0
178	5
179	1
193	1
194	0
