Mass Spectrum: Pyridine, 4-methyl-2-nitro-
Formula: C6H6N2O2
CAS: 18368-71-3
Molecular weight: 138
m/z	intensity
37	28
38	76
39	400
40	19
41	28
50	57
51	47
52	76
53	19
62	19
63	76
64	66
65	647
66	114
80	171
92	999
93	76
108	19
138	19
