Mass Spectrum: 1-Pentyn-3-amine, 3-methyl-
Formula: C6H11N
CAS: 18369-96-5
Molecular weight: 97
m/z	intensity
35	0
36	4
37	7
38	17
39	62
40	29
41	84
42	194
43	10
44	4
45	0
48	6
49	4
50	29
51	49
52	84
53	48
54	19
55	25
56	9
57	3
58	1
65	20
66	14
68	999
69	46
70	4
77	10
78	2
79	12
80	22
81	14
82	158
83	8
84	0
