Mass Spectrum: 1,3,8-p-Menthatriene
Formula: C10H14
CAS: 18368-95-1
Molecular weight: 134
m/z	intensity
26	13
27	110
28	46
29	23
38	24
39	256
40	31
41	302
42	13
43	16
50	47
51	128
52	45
53	73
55	31
58	19
62	25
63	79
64	31
65	137
66	28
67	27
74	15
75	17
76	12
77	212
78	80
79	162
80	19
89	33
91	742
92	172
93	156
94	16
102	21
103	78
104	51
105	214
107	14
115	104
116	33
117	153
119	999
120	99
131	15
132	58
134	657
135	75
