Mass Spectrum: 2(1H)-Pyridinethione, 4-methyl-
Formula: C6H7NS
CAS: 18368-65-5
Molecular weight: 125
m/z	intensity
27	110
28	92
37	57
38	100
39	354
45	139
50	85
51	114
52	71
53	128
57	71
58	71
63	85
65	282
66	84
69	71
80	545
81	525
92	167
97	128
110	81
124	71
125	999
126	99
127	57
