Mass Spectrum: Estr-5(10)-en-3-one, 17-(acetyloxy)-, cyclic 1,2-ethanediyl acetal, (17.beta.)-
Formula: C22H32O4
CAS: 18367-54-9
Molecular weight: 360
m/z	intensity
77	78
79	131
81	109
86	522
87	804
88	56
91	201
93	130
94	37
95	68
99	999
100	99
105	126
117	47
119	78
199	64
214	126
238	127
239	74
240	32
298	180
299	67
300	31
301	15
331	10
332	45
333	27
360	450
361	115
362	15
