Mass Spectrum: 2(1H)-Pyridinethione, 3-methyl-
Formula: C6H7NS
CAS: 18368-66-6
Molecular weight: 125
m/z	intensity
38	41
39	163
45	41
51	16
52	24
53	41
63	41
64	82
65	147
78	57
79	98
80	327
81	229
91	147
92	98
93	8
97	82
99	8
124	327
125	999
126	82
127	41
