Mass Spectrum: 3-Picoline, 2-nitro-
Formula: C6H6N2O2
CAS: 18368-73-5
Molecular weight: 138
m/z	intensity
37	50
38	100
39	400
40	10
41	30
46	20
50	50
51	60
52	50
53	20
62	20
63	100
64	120
65	819
66	80
80	80
91	30
92	999
93	100
108	50
138	20
