Mass Spectrum: 5-endo-(Hydroxymethyl)-6-exo-methylbicyclo[2.2.1]hept-2-ene
Formula: C9H14O
CAS: 18377-05-4
Molecular weight: 138
m/z	intensity
15	9
26	8
27	72
28	22
29	39
31	31
38	13
39	113
40	42
41	68
43	22
50	13
51	29
52	11
53	27
55	61
57	30
63	13
65	63
66	999
67	76
71	98
72	10
77	43
78	20
79	57
80	10
91	46
92	19
105	35
107	9
120	9
138	13
