Mass Spectrum: 4-Benzofurazanamine, 7-nitro-N-phenyl-
Formula: C12H8N4O3
CAS: 18378-15-9
Molecular weight: 256
m/z	intensity
26	90
27	180
28	70
29	90
30	999
31	87
37	130
38	150
39	230
40	60
41	80
43	90
44	100
45	90
46	90
50	210
51	550
52	230
53	80
54	60
61	110
62	110
63	180
64	180
65	160
69	110
70	80
74	80
75	200
76	410
77	660
78	140
79	50
80	70
87	90
88	150
89	100
90	70
91	70
92	70
93	50
94	50
95	50
96	50
101	50
102	80
103	130
104	190
105	50
106	50
119	60
120	50
126	70
127	70
128	100
129	70
134	80
135	60
139	80
140	100
152	100
153	90
154	50
155	80
165	90
166	60
167	50
168	100
179	370
180	360
181	90
193	180
195	180
222	110
225	150
256	460
257	90
