Mass Spectrum: Cyclohexane, 1,2,3,4,5,6-hexabromo-
Formula: C6H6Br6
CAS: 1837-91-8
Molecular weight: 552
m/z	intensity
25	7
26	63
27	98
28	1
36	8
37	55
38	213
39	168
40	6
41	4
42	1
43	6
44	5
45	3
48	3
49	48
50	371
51	704
52	179
53	14
55	4
56	1
57	6
60	3
61	10
62	16
63	35
64	7
65	15
66	1
67	1
69	3
70	1
71	4
72	2
73	23
74	97
75	168
76	152
77	999
78	728
79	56
80	97
81	53
82	89
83	2
85	2
91	2
92	2
93	9
94	2
95	7
97	2
104	6
105	20
106	7
107	19
108	1
116	4
117	71
118	87
119	82
120	9
121	5
128	5
129	13
130	13
131	36
132	11
133	24
134	2
141	3
143	12
144	10
145	10
146	9
153	3
154	6
155	74
156	355
157	169
158	357
159	108
160	13
161	1
162	4
171	15
173	31
175	15
184	3
185	4
186	8
187	6
188	3
189	2
197	29
198	8
199	62
200	8
201	27
202	1
209	6
210	9
211	13
212	17
213	8
214	9
215	2
221	1
222	2
223	6
224	4
225	7
226	2
227	4
233	3
234	262
235	152
236	517
237	288
238	280
239	136
240	13
241	1
250	1
251	2
252	1
253	2
254	1
255	1
263	2
265	7
267	6
269	2
275	3
277	9
279	9
281	3
289	3
290	2
291	7
292	2
293	7
294	1
295	2
312	2
313	168
314	32
315	505
316	83
317	501
318	77
319	177
320	25
321	9
327	1
328	1
329	2
330	1
331	2
332	1
333	1
371	1
393	82
394	6
395	320
396	22
397	457
398	31
399	293
400	20
401	72
402	5
473	21
474	2
475	105
476	7
477	195
478	14
479	195
480	13
481	93
482	7
483	18
484	2
552	1
554	9
556	21
557	2
558	28
559	2
560	19
561	1
562	7
