Mass Spectrum: Silane, trichloro(cyclohexylmethyl)-
Formula: C7H13Cl3Si
CAS: 18388-16-4
Molecular weight: 230
m/z	intensity
26	7
27	109
28	7
29	82
38	9
39	249
40	45
41	383
42	105
43	53
49	6
50	10
51	33
52	19
53	97
54	92
55	704
56	190
57	18
63	93
64	7
65	64
66	14
67	105
68	59
69	389
70	50
77	27
79	25
81	47
82	35
83	999
84	72
91	12
95	21
96	7
97	305
98	63
99	39
100	27
101	24
102	4
103	1
112	17
113	9
114	12
115	16
116	7
117	14
123	3
125	23
127	14
129	13
133	395
134	22
135	387
136	23
137	146
138	37
139	36
140	23
141	5
151	30
152	3
153	29
155	3
161	27
163	29
165	18
167	3
174	253
175	52
176	254
177	53
178	92
179	23
180	12
187	66
188	59
189	76
190	59
191	34
192	19
201	23
202	45
203	28
204	44
205	12
206	14
215	4
217	2
230	46
231	6
232	45
233	2
234	17
