Mass Spectrum: Silane, trimethyl(3-methyl-1-butynyl)-
Formula: C8H16Si
CAS: 18388-07-3
Molecular weight: 140
m/z	intensity
73	100
83	190
95	50
97	70
109	60
125	999
126	110
140	180
141	30
