Mass Spectrum: Butanamide, 2-(dimethylamino)-N-[7-(1H-indol-3-ylmethyl)-5,8-dioxo-3-phenyl-2-oxa-6,9-diazabicyclo[10.2.2]hexadeca-10,12,14,15-tetraen-4-yl]-3-methyl-, [3R-[3R*,4S*(S*),7S*]]-
Formula: C35H39N5O4
CAS: 18397-13-2
Molecular weight: 593
m/z	intensity
40	2
41	20
42	37
43	19
44	30
45	4
46	2
49	0
50	3
51	6
52	2
53	2
54	2
55	19
56	10
57	21
58	10
59	1
60	2
61	1
62	1
63	2
64	1
65	3
66	1
67	2
68	3
69	7
70	12
71	6
72	1
73	2
74	2
75	2
76	2
77	13
78	5
79	2
80	1
81	2
82	3
83	7
84	25
85	33
86	14
87	1
88	0
89	4
90	5
91	13
92	2
93	1
94	1
95	1
96	2
97	2
98	16
99	15
100	999
101	73
102	6
103	16
104	4
105	4
106	3
107	6
108	2
109	0
110	0
111	1
112	1
113	1
114	13
115	4
116	3
117	10
118	6
119	6
120	5
121	2
122	0
123	0
124	2
125	1
126	0
127	0
128	3
129	9
130	108
131	34
132	7
133	3
134	6
135	22
136	4
137	0
138	0
139	0
140	1
141	4
142	2
143	6
144	4
145	3
146	4
147	3
148	3
149	1
151	0
152	5
153	0
154	0
155	1
156	2
157	3
158	5
159	7
160	3
161	2
162	1
163	1
165	0
166	0
167	1
168	1
169	2
170	21
171	4
172	1
173	1
174	1
175	4
176	0
177	0
178	0
179	1
180	0
181	1
182	0
183	0
184	1
185	6
186	4
187	1
188	1
189	1
190	0
191	0
192	0
193	0
194	1
195	0
196	0
197	1
198	0
199	1
200	1
201	4
202	1
203	2
204	1
205	0
206	0
207	0
208	0
209	0
210	0
211	0
212	0
213	0
214	1
215	0
216	0
217	0
218	1
219	0
220	1
221	0
222	0
223	0
224	6
225	2
226	0
227	1
228	0
229	8
230	2
231	1
232	0
233	0
234	0
235	0
236	0
237	0
238	0
239	0
240	0
241	0
242	0
243	0
244	0
245	0
246	0
247	2
248	1
249	0
250	0
251	0
252	0
253	0
254	0
255	0
256	0
257	0
258	0
259	0
260	0
261	0
262	0
263	0
264	0
265	0
266	0
267	0
269	0
270	0
271	0
272	0
273	0
274	0
275	0
276	0
277	0
278	0
279	0
280	0
281	0
282	0
283	0
284	0
285	0
286	0
287	0
288	0
289	0
290	0
291	0
292	0
293	0
294	0
295	0
296	0
297	0
299	0
300	0
301	0
302	0
303	0
304	2
305	0
306	0
307	0
308	0
309	0
310	0
312	0
313	0
314	0
315	0
316	0
317	0
318	0
319	0
320	0
321	0
322	0
323	0
324	0
325	0
329	0
330	0
331	0
332	0
333	0
334	0
335	0
336	0
337	0
338	0
339	0
340	0
341	0
342	0
343	0
344	0
345	0
347	0
348	0
349	0
350	0
359	0
360	0
363	0
364	0
365	0
368	0
370	0
372	0
373	0
374	0
375	0
376	0
379	0
381	0
385	0
387	0
388	0
389	0
392	0
393	0
394	0
395	0
396	0
403	0
405	0
406	0
407	0
408	0
410	0
411	0
413	0
414	0
415	0
416	0
417	0
419	0
420	0
421	0
422	0
429	0
430	0
432	0
433	0
434	0
449	0
450	0
451	0
452	0
462	0
463	0
464	0
465	0
466	0
476	0
478	0
479	0
483	0
484	0
490	0
492	0
493	0
494	0
508	0
517	0
534	0
535	0
545	0
548	1
549	0
550	3
551	1
552	0
577	0
578	0
589	0
591	1
592	1
593	5
594	2
595	0
