Mass Spectrum: 1,4-Dioxaspiro[4.14]nonadecane
Formula: C17H32O2
CAS: 184-41-8
Molecular weight: 268
m/z	intensity
39	20
40	10
41	180
42	30
43	100
44	20
45	20
53	20
54	20
55	190
56	30
57	40
58	20
59	20
67	30
68	10
69	60
70	10
71	30
72	10
73	10
81	30
82	20
83	40
84	10
85	20
86	160
87	20
93	10
94	10
95	20
96	10
97	20
98	10
99	999
100	80
101	10
109	10
110	10
111	10
113	70
114	10
115	10
125	10
127	40
128	10
141	80
142	20
155	200
156	40
169	60
170	10
183	60
184	10
197	60
198	10
211	70
212	10
225	180
226	40
227	10
239	50
240	10
267	20
268	190
269	20
