Mass Spectrum: 2-Benzyl-1-indanol, cis-
Formula: C16H16O
CAS: 18403-68-4
Molecular weight: 224
m/z	intensity
17	5
18	1
27	13
28	2
29	2
31	1
38	2
39	37
40	3
41	10
43	1
50	10
51	42
52	9
53	6
55	58
56	2
57	1
62	7
63	33
64	7
65	109
66	7
69	1
74	6
75	11
76	23
77	110
78	29
79	58
80	4
81	2
82	5
83	2
86	2
87	6
88	13
89	64
90	20
91	999
92	696
93	60
94	7
95	6
96	1
97	1
98	3
99	1
100	5
101	33
102	27
103	86
104	35
105	93
106	8
107	10
108	4
110	1
111	2
112	16
113	4
114	5
115	204
116	45
117	27
118	12
119	108
120	53
121	4
125	1
126	7
127	29
128	109
129	40
130	9
131	152
132	867
133	868
134	85
135	5
139	6
140	1
141	3
144	2
145	66
146	367
147	41
148	3
149	3
150	4
151	6
152	12
153	3
162	1
163	5
164	4
165	25
166	5
167	2
174	1
175	1
176	9
177	6
178	28
179	14
180	2
181	1
187	2
188	2
189	27
190	19
191	39
192	8
193	3
194	1
195	1
200	9
201	9
202	56
203	48
204	27
205	84
206	448
207	85
208	9
209	1
221	2
222	15
223	21
224	665
225	116
226	10
