Mass Spectrum: Pentanal, 2-hydroxy-4-oxo-2-phenyl-, dioxime
Formula: C11H14N2O3
CAS: 184021-19-0
Molecular weight: 222
m/z	intensity
30	69
31	111
32	119
33	31
34	1
36	0
37	3
38	26
39	186
40	60
41	208
42	205
43	87
44	191
45	10
46	44
47	1
48	0
50	98
51	308
52	64
53	26
54	90
55	65
56	54
57	27
58	41
59	8
60	2
62	17
63	45
64	15
65	63
66	13
67	8
68	18
69	11
70	7
72	548
73	521
74	47
75	28
77	972
78	161
79	32
80	2
81	4
83	20
84	20
85	104
86	9
87	8
89	23
90	33
91	100
92	17
93	7
94	5
95	1
96	7
97	12
98	19
99	3
100	7
101	5
102	23
103	30
105	999
106	74
107	8
108	3
109	2
110	0
111	1
112	7
114	64
115	22
116	11
117	25
118	74
120	37
121	66
122	41
123	2
125	0
126	0
127	7
128	13
129	8
130	28
131	15
132	166
133	42
134	9
135	2
136	0
138	0
139	0
140	1
141	1
142	8
143	7
144	11
145	5
146	10
147	7
148	6
149	17
150	469
151	39
152	2
154	0
155	2
156	4
157	5
158	4
159	35
160	57
161	12
162	3
163	1
168	0
169	3
170	8
171	3
172	3
173	3
174	28
175	2
176	1
177	2
178	31
179	2
186	1
187	15
188	9
189	1
190	0
192	0
204	1
205	88
206	12
207	0
210	0
222	2
223	0
