Mass Spectrum: Silane, triethyl-5-norbornen-2-yl-
Formula: C13H24Si
CAS: 18401-64-4
Molecular weight: 208
m/z	intensity
26	4
27	15
29	24
30	3
31	67
33	2
38	1
39	18
40	7
41	14
42	3
43	59
44	13
45	35
46	2
47	1
51	4
52	2
53	15
54	5
55	46
56	25
57	190
58	51
59	276
60	22
61	11
62	1
63	2
64	7
65	18
66	838
67	47
68	3
69	14
70	5
71	13
72	9
73	8
74	1
75	1
76	1
77	13
78	4
79	6
80	1
81	12
82	8
83	25
84	12
85	504
86	55
87	474
88	41
89	16
90	1
91	23
92	61
93	16
94	3
95	24
96	3
97	3
99	2
100	5
101	2
105	2
106	1
107	4
108	1
109	4
110	1
111	3
112	5
113	999
114	130
115	360
116	38
117	13
118	1
119	5
120	1
121	29
122	6
123	26
124	3
125	1
127	2
128	0
135	1
137	1
142	5
143	2
149	18
150	4
151	61
152	12
153	3
154	3
175	2
176	1
177	7
178	3
179	320
180	65
181	16
182	2
208	22
209	4
210	1
