Mass Spectrum: 4-Aminobenzoic acid, 2TMS derivative
Formula: C13H23NO2Si2
CAS: 18406-05-8
Molecular weight: 281
m/z	intensity
15	3
26	1
27	2
29	8
30	1
31	4
38	1
39	7
40	1
41	3
42	4
43	50
44	28
45	161
46	12
47	21
48	1
49	2
50	3
51	5
52	4
53	9
54	5
55	9
56	4
57	8
58	15
59	34
60	6
61	9
63	12
64	14
65	20
66	6
67	7
68	4
69	8
70	14
71	6
72	14
73	999
74	99
75	92
76	14
77	31
78	7
79	15
80	4
81	5
82	4
83	12
84	12
85	5
86	3
87	3
88	22
90	11
91	45
92	32
93	13
94	10
95	12
96	11
97	5
98	5
99	2
100	2
101	2
102	5
103	11
104	15
105	19
106	19
107	10
108	11
109	4
110	11
113	1
114	1
115	5
116	3
117	14
118	33
119	54
120	91
121	35
122	13
123	8
125	193
128	2
129	2
130	7
131	16
132	60
133	30
134	90
135	19
136	8
137	2
138	1
141	1
142	2
143	2
144	2
145	3
146	33
147	39
148	90
149	44
150	54
151	9
152	2
153	1
154	1
155	1
156	1
157	1
158	2
159	1
160	7
161	3
162	41
163	11
164	16
165	6
166	2
167	1
168	1
169	1
174	1
175	1
176	98
177	17
178	58
179	12
180	5
181	2
182	1
189	1
190	16
191	7
192	562
193	116
194	41
195	8
196	2
204	1
205	1
206	41
207	17
208	12
209	6
210	2
218	1
219	1
220	5
221	3
222	339
223	79
224	32
225	5
226	1
232	1
234	1
235	1
236	3
237	1
250	8
251	2
252	1
261	1
263	1
264	3
265	3
266	557
267	135
268	57
269	9
270	2
277	2
278	1
279	4
280	12
281	416
282	111
283	44
284	8
285	1
