Mass Spectrum: Methane, fluorotrinitro-
Formula: CFN3O6
CAS: 1840-42-2
Molecular weight: 169
m/z	intensity
13	10
17	10
20	30
28	160
30	410
31	90
42	40
46	999
60	30
61	10
