Mass Spectrum: Sebacic acid, 2TMS derivative
Formula: C16H34O4Si2
CAS: 18408-42-9
Molecular weight: 346
m/z	intensity
41	47
42	14
43	111
44	55
45	84
46	6
47	70
48	4
49	28
50	3
51	2
52	1
53	6
54	5
55	314
56	34
57	38
58	19
59	27
60	8
61	56
62	6
63	9
64	0
65	2
66	3
67	68
68	10
69	173
70	14
71	20
72	48
73	999
74	100
75	717
76	54
77	237
78	16
79	81
80	10
81	108
82	13
83	81
84	19
85	18
86	14
87	7
88	6
89	16
90	2
91	19
92	10
93	80
94	13
95	68
96	19
97	132
98	36
99	24
100	3
101	11
102	2
103	9
104	2
105	22
106	3
107	88
108	8
109	10
110	15
111	23
112	6
113	3
114	0
115	3
116	29
117	180
118	22
119	28
120	10
121	112
122	12
123	10
124	13
125	136
126	12
127	2
128	2
129	228
130	34
131	62
132	39
133	38
134	2
135	2
136	1
137	24
138	74
139	37
140	4
141	4
142	2
143	27
144	4
145	41
146	7
147	185
148	48
149	277
150	40
151	24
152	2
153	1
155	11
156	24
157	21
158	19
159	30
160	5
161	2
162	3
163	3
164	1
165	6
166	101
167	35
168	4
169	7
170	20
171	18
172	4
173	27
174	4
175	2
176	0
177	2
179	2
181	4
182	1
183	22
184	4
185	82
186	16
187	9
188	2
189	10
190	3
191	5
192	0
193	0
195	3
196	1
197	17
198	3
199	36
200	10
201	5
202	18
203	13
204	173
205	43
206	17
207	4
208	1
209	0
211	1
212	0
213	13
214	8
215	168
216	34
217	104
218	26
219	11
220	1
221	2
223	20
224	3
225	2
227	1
228	39
229	8
230	2
231	7
232	1
233	0
238	2
239	6
240	0
241	4
242	1
243	1
245	1
246	0
247	0
248	0
255	3
256	5
257	13
258	2
259	12
260	3
261	1
271	1
272	0
273	4
274	2
275	0
281	1
282	0
285	0
287	9
288	1
289	1
290	0
295	0
299	0
301	0
303	1
313	5
314	1
315	53
316	14
317	6
318	1
326	0
331	311
332	95
333	42
334	7
335	1
345	1
346	5
347	1
348	0
