Mass Spectrum: Palmitic acid, (2-phenyl-1,3-dioxolan-4-yl)methyl ester
Formula: C26H42O4
CAS: 18418-22-9
Molecular weight: 418
m/z	intensity
26	12
27	148
28	71
29	421
30	14
31	75
32	6
33	2
36	2
37	3
38	5
39	87
40	22
41	656
42	164
43	999
44	88
45	74
46	3
47	5
49	1
50	18
51	60
52	14
53	36
54	56
55	578
56	164
57	617
58	52
59	29
60	46
61	54
62	6
63	11
64	7
65	19
66	9
67	88
68	42
69	273
70	66
71	203
72	17
73	117
74	128
75	45
76	14
77	203
78	117
79	128
80	17
81	75
82	32
83	164
84	132
85	109
86	14
87	60
88	8
89	31
90	42
91	367
92	54
93	25
94	11
95	71
96	23
97	105
98	179
99	35
100	117
101	35
102	8
103	14
104	72
105	773
106	73
107	68
108	11
109	33
110	11
111	46
112	57
113	117
114	14
115	24
116	117
117	25
118	7
119	22
120	21
121	19
122	15
123	31
124	7
125	21
126	12
127	17
128	4
129	109
130	12
131	5
132	3
133	14
134	75
135	21
136	6
137	10
138	5
139	12
140	9
141	7
142	4
143	14
144	7
145	4
146	4
147	17
148	5
149	214
150	25
151	6
152	4
153	7
154	15
155	16
156	3
157	30
158	6
159	3
160	4
161	5
162	125
163	31
164	21
165	21
166	4
167	5
168	7
169	31
170	5
171	16
172	3
173	3
175	2
176	7
177	3
178	5
179	66
180	9
181	12
182	10
183	7
184	2
185	20
186	3
187	2
190	3
191	2
192	2
193	2
194	3
195	4
196	5
197	15
198	3
199	9
200	2
201	2
203	1
204	1
205	1
206	1
207	3
208	2
209	3
210	2
211	8
212	2
213	10
214	3
215	1
217	2
218	2
219	3
220	10
221	3
222	3
223	2
224	1
225	5
226	2
227	10
228	3
229	2
231	1
233	21
234	5
235	7
236	6
237	7
238	21
239	140
240	25
241	10
242	3
247	5
248	2
249	1
251	1
253	18
254	3
255	12
256	19
257	25
258	4
259	1
261	3
262	1
267	6
268	2
269	10
270	14
271	3
272	1
275	6
276	2
277	1
281	2
282	1
283	7
284	2
285	1
289	7
290	2
296	68
297	19
298	4
299	31
300	7
301	2
303	4
304	2
305	1
309	1
310	1
311	15
312	21
313	11
314	3
315	2
317	5
318	2
319	1
325	1
326	1
327	2
328	2
330	1
331	3
332	1
340	1
341	28
342	7
343	2
345	2
346	1
354	1
355	2
356	1
359	1
361	2
362	1
389	1
390	1
416	6
417	67
418	82
419	23
420	4
