Mass Spectrum: .beta.-D-Glucopyranose, 2-deoxy-2-[(tetrachloroethylidene)amino]-, 1,3,4,6-tetraacetate
Formula: C16H19Cl4NO9
CAS: 18422-35-0
Molecular weight: 509
m/z	intensity
12	1
13	1
14	8
15	31
16	2
17	17
18	81
19	1
26	4
27	6
28	54
29	10
30	3
31	3
32	1
35	6
36	68
37	2
38	23
39	3
40	1
41	5
42	19
43	999
44	40
45	14
46	1
47	1
49	1
50	1
51	1
52	1
53	2
54	1
55	7
56	3
57	5
60	14
61	9
62	1
68	8
69	10
70	3
71	5
72	1
73	19
74	2
75	1
81	15
82	2
83	2
84	3
85	16
86	9
87	1
88	1
89	1
96	2
97	34
98	5
99	4
100	1
101	6
102	6
103	29
104	5
106	1
109	17
110	3
111	1
112	1
113	3
114	2
115	36
116	8
117	6
119	5
121	1
122	3
124	2
125	2
126	3
127	9
128	2
129	1
130	1
131	14
132	1
138	1
139	27
140	5
142	5
143	2
144	5
145	23
146	2
147	1
148	1
149	1
150	2
151	4
152	3
153	3
154	1
155	5
156	4
157	7
158	6
159	1
160	3
161	2
162	1
163	1
164	5
165	1
166	3
168	5
169	10
170	2
172	1
176	1
177	1
178	1
179	1
180	1
182	1
184	1
185	1
186	2
187	10
188	4
189	8
190	5
191	3
192	3
193	1
194	1
195	1
196	1
197	17
198	7
199	5
200	10
201	5
202	7
203	2
204	2
205	11
206	4
207	8
208	4
209	1
210	2
211	13
212	4
213	1
214	6
215	2
216	7
217	4
218	6
219	2
220	3
221	2
222	1
223	12
224	47
225	12
226	45
227	7
228	19
229	7
230	5
231	3
232	5
233	10
234	31
235	8
236	36
237	4
238	14
239	1
240	7
241	7
242	12
243	10
244	10
245	6
246	5
247	1
248	5
249	1
250	4
251	1
252	7
253	1
254	6
255	1
256	3
257	2
258	3
259	4
260	4
261	3
262	2
263	2
264	2
265	2
266	54
267	6
268	53
269	19
270	29
271	16
272	7
273	4
274	3
276	17
277	2
278	23
279	2
280	12
281	1
282	2
283	4
284	24
285	6
286	24
287	10
288	10
289	8
290	4
291	3
292	1
301	2
302	1
303	1
304	1
305	1
306	1
312	3
313	1
314	3
316	1
326	5
328	5
329	21
330	18
331	23
332	18
333	8
334	7
335	1
336	1
347	2
348	1
349	3
350	1
351	1
352	0
353	0
372	63
373	7
374	63
375	7
376	21
377	3
378	2
390	8
391	1
392	8
393	1
394	2
407	23
408	3
409	31
410	4
411	16
412	2
413	3
431	5
432	5
433	6
434	5
435	2
436	2
438	0
450	0
452	0
454	0
474	12
475	1
476	12
477	1
478	4
479	0
480	0
