Mass Spectrum: Butanoic acid, 2-bromo-4-fluorophenyl ester
Formula: C10H10BrFO2
CAS: 1842-09-7
Molecular weight: 260
m/z	intensity
25	8
26	54
27	339
28	7
29	52
39	169
41	401
42	121
43	999
44	30
50	2
51	5
54	2
55	166
56	60
57	95
58	5
60	9
61	27
62	34
63	60
64	7
65	4
66	3
68	22
69	22
70	67
71	985
72	112
73	17
74	21
75	11
76	3
77	6
81	108
82	176
83	70
84	6
92	5
93	12
94	57
95	9
96	4
97	2
99	3
104	3
105	3
107	3
108	8
109	4
110	38
111	33
112	13
113	16
117	5
119	7
122	4
128	12
129	2
130	5
134	2
135	14
137	16
138	7
139	6
141	2
143	3
152	4
153	5
161	74
162	8
163	75
164	7
173	25
174	3
175	24
176	2
181	2
187	4
188	3
189	28
190	389
191	53
192	389
193	26
198	2
201	5
203	6
217	6
219	7
260	63
261	9
262	60
263	8
