Mass Spectrum: 1,2-Selenagermolane, 2,2-dibutyl-
Formula: C11H24GeSe
CAS: 18438-01-2
Molecular weight: 310
m/z	intensity
41	999
42	160
43	300
53	20
55	110
56	20
57	570
58	20
70	10
71	20
72	20
73	50
74	50
75	60
85	60
87	80
88	40
89	110
91	40
97	10
99	40
100	10
101	50
102	10
103	40
105	10
113	10
115	10
126	10
127	10
128	20
129	30
130	40
131	40
132	30
133	40
147	30
148	50
149	90
150	110
151	220
152	150
153	270
154	130
155	220
156	40
157	70
163	20
164	20
165	30
166	20
167	30
168	20
169	20
185	40
187	50
188	20
189	80
190	30
191	140
192	70
193	330
194	120
195	360
196	120
197	350
198	40
199	100
207	10
208	10
209	10
210	10
211	10
212	10
245	40
246	40
247	190
248	90
249	520
250	170
251	630
252	180
253	570
254	80
255	180
256	20
257	20
304	30
306	60
307	30
308	70
309	30
310	70
311	10
312	20
