Mass Spectrum: 1-(2,3-Dihydro-1,4-benzodioxin-5-yloxy)-3-(isopropylamino)-2-propanol
Formula: C14H21NO4
CAS: 1843-82-9
Molecular weight: 267
m/z	intensity
26	15
27	32
28	4
29	21
30	253
31	5
37	3
38	7
39	66
40	9
41	50
42	29
43	52
44	40
45	3
50	6
51	28
52	10
53	10
54	6
55	17
56	76
57	28
58	20
60	23
63	5
65	9
66	3
67	13
68	33
69	4
70	29
71	21
72	999
73	49
74	5
77	8
78	3
79	19
80	9
81	6
82	7
84	8
86	7
89	4
91	4
93	4
95	18
96	60
97	9
98	12
100	53
101	4
102	30
107	55
108	7
109	3
110	3
114	15
115	3
116	10
119	6
121	3
123	10
125	3
126	21
135	7
136	7
137	39
138	3
149	5
151	27
152	308
153	34
154	3
163	5
164	3
165	21
166	6
177	4
178	5
179	3
191	23
192	4
194	13
207	3
223	183
224	25
250	3
252	43
253	6
266	5
267	5
