Mass Spectrum: tert-Butyl N-(4-nitrophenyl)carbamate
Formula: C11H14N2O4
CAS: 18437-63-3
Molecular weight: 238
m/z	intensity
34	130
36	45
37	139
38	177
39	626
40	230
41	778
42	337
43	341
44	112
45	53
46	45
47	11
49	28
50	78
51	103
52	277
53	191
54	82
55	230
56	134
57	999
59	171
61	70
62	71
63	159
64	223
65	890
66	93
67	49
69	121
70	78
71	66
73	359
74	42
75	22
76	38
77	38
78	35
79	47
80	235
81	54
82	33
83	57
84	38
85	33
86	7
87	20
88	7
89	19
90	54
91	111
92	309
93	36
94	10
95	20
96	9
97	28
98	10
99	9
100	11
101	4
103	7
104	15
105	33
106	28
108	467
109	31
110	11
111	19
112	20
113	9
115	13
116	9
117	5
118	19
119	31
120	15
122	49
124	7
125	5
127	9
128	7
129	7
131	5
132	4
133	15
134	13
135	19
136	7
137	22
138	467
139	47
142	7
143	19
144	4
149	22
150	9
152	20
155	4
164	7
165	20
166	2
168	7
169	4
181	39
182	28
183	5
238	22
