Mass Spectrum: 3-n-Butylthiane
Formula: C9H18S
CAS: 18437-87-1
Molecular weight: 158
m/z	intensity
25	3
26	56
27	502
28	100
29	456
30	13
33	3
34	5
35	10
37	7
38	31
39	465
40	67
41	757
42	78
43	106
44	10
45	295
46	126
47	199
48	11
49	11
50	18
51	45
52	19
53	127
54	99
55	449
56	156
57	127
58	49
59	188
60	131
61	173
62	17
63	19
65	47
66	21
67	369
68	123
69	211
70	38
71	45
72	19
73	83
74	45
75	21
77	28
79	31
80	2
81	121
82	65
83	35
84	6
85	47
86	17
87	595
88	56
89	37
91	7
95	65
96	19
97	17
98	16
99	49
100	11
101	999
102	74
103	56
109	9
110	3
111	27
113	8
115	79
116	10
117	7
129	39
130	3
131	2
142	1
143	39
144	2
145	1
157	11
158	226
159	29
160	14
