Mass Spectrum: 1,3-Dioxolane, 4-methyl-2-(2-methylpropyl)-
Formula: C8H16O2
CAS: 18433-93-7
Molecular weight: 144
m/z	intensity
17	4
19	2
27	37
29	52
30	4
31	99
37	6
38	4
39	48
41	175
42	36
43	76
47	5
50	5
53	11
55	33
57	71
58	36
59	336
60	12
62	2
65	6
66	4
67	5
69	34
71	22
72	5
73	5
85	107
87	999
88	39
96	8
99	21
100	14
101	4
128	7
143	32
