Mass Spectrum: Tremuloidin, tetraacetate
Formula: C28H30O12
CAS: 18449-66-6
Molecular weight: 558
m/z	intensity
43	354
44	9
51	11
77	90
78	23
81	12
97	21
105	999
106	118
107	27
109	88
115	13
127	18
129	13
169	110
170	9
231	13
273	3
291	2
333	6
393	86
394	18
498	0
