Mass Spectrum: .beta.-D-Glucopyranose, 2,3,4,6-tetraacetate 1-[3-[4-(acetyloxy)phenyl]-2-propenoate]
Formula: C25H28O13
CAS: 18449-70-2
Molecular weight: 536
m/z	intensity
43	999
44	641
45	400
55	420
57	620
60	288
69	312
70	180
71	340
81	320
83	216
85	212
91	216
95	148
97	360
98	412
105	140
109	485
115	192
119	252
120	184
147	722
155	156
164	180
169	641
170	84
189	480
190	72
331	256
332	40
380	48
381	16
494	120
536	22
