Mass Spectrum: 4-Hydroxy-3-isobutyramido-2(1H)-quinolinone
Formula: C13H14N2O3
CAS: 184536-23-0
Molecular weight: 246
m/z	intensity
34	11
37	13
38	34
39	158
40	211
41	271
43	999
44	120
50	37
51	51
52	30
53	12
54	11
55	28
57	12
62	14
63	47
64	58
65	131
66	16
69	17
71	187
74	10
75	21
76	50
77	57
78	9
90	26
91	41
92	138
93	41
102	59
103	27
104	18
118	16
119	57
120	113
121	9
130	37
147	128
148	26
158	11
176	867
177	84
202	9
203	47
246	206
247	24
