Mass Spectrum: 1-Heptanol, 2,4-dimethyl-, (2S,4R)-(-)-
Formula: C9H20O
CAS: 18450-74-3
Molecular weight: 144
m/z	intensity
18	13
27	197
28	27
29	323
30	22
31	271
32	13
39	170
40	36
41	641
42	181
43	999
44	54
45	100
51	27
53	61
54	31
55	668
56	502
57	740
58	76
59	118
65	13
67	49
68	27
69	316
70	323
71	619
72	46
73	18
81	22
82	31
83	619
84	717
85	108
97	94
98	45
101	63
111	40
112	18
113	27
126	45
