Mass Spectrum: 1-Heptanol, 2,4-dimethyl-, (R,R)-(+)-
Formula: C9H20O
CAS: 18450-73-2
Molecular weight: 144
m/z	intensity
15	13
16	2
17	2
26	7
27	207
28	16
29	300
30	15
31	256
37	6
38	7
39	186
40	35
41	624
42	200
43	999
44	48
45	133
46	4
50	6
51	16
52	9
53	72
54	22
55	754
56	617
57	708
58	75
59	119
60	9
63	6
65	12
66	9
67	46
68	31
69	290
70	298
71	566
72	45
73	12
77	9
79	10
81	19
82	36
83	715
84	730
85	125
86	10
87	3
91	6
95	7
96	7
97	116
98	42
99	9
100	4
101	67
102	9
103	7
109	6
111	37
112	12
113	18
126	49
