Mass Spectrum: 1,3-Cyclohexanedione, 5-isopropyl-
Formula: C9H14O2
CAS: 18456-87-6
Molecular weight: 154
m/z	intensity
41	983
42	589
43	685
44	19
45	6
47	25
53	136
55	722
56	251
57	36
58	25
59	7
60	2
62	5
63	10
65	36
66	57
67	83
69	807
70	270
71	46
72	1
73	5
74	1
77	15
79	33
81	20
83	530
84	558
85	81
88	9
91	6
93	50
94	27
97	999
98	93
99	7
100	2
105	2
107	1
108	28
109	5
111	239
112	80
113	6
114	0
115	0
119	2
121	2
122	1
126	96
127	7
128	0
129	0
131	5
133	0
135	0
136	2
137	0
139	4
153	6
154	257
155	28
156	3
157	1
