Mass Spectrum: (S)-(-)-(4-Isopropenyl-1-cyclohexenyl)methanol
Formula: C10H16O
CAS: 18457-55-1
Molecular weight: 152
m/z	intensity
15	5
26	7
27	167
28	36
29	132
30	3
31	79
32	3
37	3
38	13
39	285
40	87
41	472
42	77
43	209
44	14
45	7
50	27
51	90
52	44
53	276
54	51
55	470
56	137
57	70
58	9
59	13
60	7
61	5
62	10
63	29
64	9
65	103
66	81
67	678
68	999
69	209
70	106
71	47
72	8
73	1
74	5
75	6
76	5
77	258
78	86
79	991
80	180
81	314
82	73
83	222
84	81
85	19
86	2
87	2
89	9
90	6
91	480
92	210
93	806
94	166
95	151
96	58
97	26
98	6
99	1
101	1
102	4
103	28
104	14
105	239
106	216
107	123
108	254
109	325
110	72
111	24
112	2
115	18
116	6
117	34
118	9
119	367
120	53
121	873
122	96
123	61
124	36
125	3
127	1
128	2
129	2
130	1
131	4
132	6
133	26
134	197
135	46
136	15
137	33
138	4
139	1
148	2
149	2
150	12
151	6
152	354
153	39
154	4
