Mass Spectrum: Pentanedioic acid, 3-thioxo-, diethyl ester
Formula: C9H14O4S
CAS: 18457-67-5
Molecular weight: 218
m/z	intensity
25	16
26	100
27	466
28	365
29	899
30	73
31	999
32	56
37	40
38	83
39	216
40	83
41	50
42	126
43	400
44	559
45	666
46	250
47	33
55	100
56	16
57	100
58	166
59	100
60	100
61	26
67	93
68	33
69	140
70	66
71	233
72	83
73	50
74	33
83	16
84	50
85	493
86	66
87	73
88	140
89	16
98	133
99	50
100	250
101	83
102	60
103	16
111	33
112	16
115	66
116	533
117	40
118	26
126	133
127	250
128	33
129	16
130	26
144	566
145	60
146	116
147	16
156	16
157	16
172	173
173	40
174	23
218	16
