Mass Spectrum: Acetoacetic acid, 3-thio-, butyl ester
Formula: C8H14O2S
CAS: 18457-88-0
Molecular weight: 174
m/z	intensity
26	40
27	300
28	173
29	440
30	33
31	383
32	133
33	40
34	16
37	50
38	83
39	416
40	133
41	666
42	183
43	300
44	183
45	333
46	40
47	83
55	116
56	533
57	250
58	83
59	316
60	33
61	33
67	73
68	33
69	60
71	216
72	283
73	116
74	133
77	33
85	100
86	10
100	999
101	406
102	100
103	40
104	33
105	50
117	16
118	150
119	36
120	16
156	33
174	283
175	40
176	6
