Mass Spectrum: Nonanoic acid, 2,4,6-trimethyl-, methyl ester, (2S,4R,6R)-(+)-
Formula: C13H26O2
CAS: 18450-80-1
Molecular weight: 214
m/z	intensity
15	55
26	5
27	98
28	21
29	148
30	2
31	8
33	5
37	3
38	3
39	69
40	12
41	318
42	100
43	396
44	18
45	28
47	3
51	6
52	4
53	36
54	11
55	264
56	71
57	236
58	14
59	147
60	8
61	8
63	3
65	8
66	5
67	31
68	13
69	310
70	83
71	181
72	16
73	82
74	21
75	5
77	7
78	3
79	8
80	3
81	15
82	12
83	120
84	14
85	70
86	8
87	78
88	999
89	76
90	8
91	5
93	4
94	3
95	18
96	5
97	61
98	9
99	18
100	5
101	794
102	79
103	11
107	5
109	19
110	6
111	96
112	20
113	12
114	3
115	6
121	6
123	5
124	14
125	10
126	5
127	45
128	8
129	108
130	17
131	3
139	31
140	20
141	5
143	36
144	5
145	5
149	5
153	5
155	5
165	15
166	3
167	12
168	3
171	67
172	8
181	5
183	37
184	6
199	6
214	24
