Mass Spectrum: 1,3-Cyclohexanedione, 2-butyl-
Formula: C10H16O2
CAS: 18456-90-1
Molecular weight: 168
m/z	intensity
40	232
41	59
42	347
43	400
44	200
45	21
46	21
47	4
48	11
50	4
51	21
52	17
53	63
54	32
55	999
56	74
57	32
58	11
63	11
65	21
66	11
67	42
68	32
69	147
70	221
71	53
77	42
78	21
79	67
80	21
81	32
82	21
83	274
84	726
85	63
86	11
91	21
93	11
94	21
95	25
96	17
97	568
98	232
99	21
107	11
108	4
109	4
110	21
111	53
112	547
113	526
114	53
115	4
121	4
122	4
123	4
125	463
126	400
127	42
137	11
139	295
140	74
141	4
151	38
152	11
153	42
154	11
167	21
168	389
169	63
170	11
