Mass Spectrum: 2-Azabutane, 1-[1-methylazacyclohex-2-yl]-2-methyl-4-[3,4-dichlorophenyl]-
Formula: C16H24Cl2N2
CAS: 184637-45-4
Molecular weight: 314
m/z	intensity
41	17
42	70
43	9
44	22
45	2
48	0
50	0
51	2
52	0
53	2
54	3
55	15
56	8
57	27
58	7
60	0
62	0
63	2
65	1
67	4
68	8
69	6
70	83
71	5
72	1
73	1
74	0
75	2
76	0
77	4
78	0
79	1
80	1
81	2
82	10
83	5
84	5
85	1
87	0
89	4
92	0
94	3
95	1
96	14
97	34
98	999
99	77
100	3
101	8
102	10
103	7
104	0
108	1
109	1
110	7
111	6
112	4
113	1
119	0
123	3
124	2
125	2
126	1
130	0
131	1
133	1
135	1
136	1
137	8
138	5
139	5
140	2
141	0
142	1
145	0
147	1
149	0
154	0
155	2
157	0
159	8
160	0
161	5
163	0
169	0
171	2
172	2
173	13
174	2
175	8
176	0
177	1
182	0
183	0
186	0
188	0
190	0
194	0
196	0
198	0
204	0
214	0
216	7
217	0
218	5
219	1
220	0
221	1
224	0
225	0
233	0
238	0
239	0
246	0
252	0
253	0
257	0
262	0
266	0
272	0
275	0
277	0
279	0
282	0
286	0
288	0
314	0
315	0
316	0
