Mass Spectrum: 9,12,15-Octadecatrienoic acid, 2,3-dihydroxypropyl ester, (Z,Z,Z)-
Formula: C21H36O4
CAS: 18465-99-1
Molecular weight: 352
m/z	intensity
26	40
27	300
28	200
29	580
30	30
31	190
32	10
36	30
37	10
38	20
39	230
40	50
41	890
42	180
43	670
44	180
45	210
46	40
47	10
50	10
51	30
52	20
53	150
54	150
55	100
56	170
57	560
58	70
59	80
60	70
61	100
62	10
63	10
64	10
65	70
66	80
67	790
68	230
69	410
70	100
71	130
72	30
73	90
74	120
75	70
76	10
77	160
78	90
79	999
80	370
81	580
82	200
83	340
84	160
85	100
86	40
87	60
88	10
89	10
91	270
92	80
93	440
94	240
95	580
96	150
97	190
98	210
99	60
100	40
101	80
102	10
103	20
104	20
105	140
106	60
107	240
108	260
109	290
110	80
111	130
112	50
113	30
114	10
115	30
116	40
117	60
118	20
119	110
120	60
121	200
122	120
123	120
124	40
125	60
126	40
127	60
128	10
129	70
130	10
131	60
132	20
133	90
134	70
135	160
136	90
137	70
138	30
139	30
140	10
141	20
142	10
143	20
144	10
145	40
146	10
147	80
148	20
149	90
150	50
151	40
152	30
153	20
154	10
155	200
156	30
157	20
158	10
159	20
160	10
161	40
162	20
163	50
164	40
165	30
166	20
167	20
168	10
169	20
170	10
171	30
172	10
173	50
174	10
175	30
176	20
177	30
178	20
179	20
180	10
181	20
182	10
183	10
184	10
185	30
186	10
187	20
188	10
189	30
190	10
191	40
192	20
193	20
194	10
195	10
196	10
197	10
199	10
200	10
201	10
203	30
204	20
205	20
206	20
207	10
208	10
209	20
210	10
211	10
213	10
215	10
217	20
218	10
219	10
220	10
221	10
222	10
223	10
224	10
225	10
227	10
229	10
231	10
232	20
233	10
235	10
236	10
237	10
239	10
241	10
243	10
245	10
247	10
249	10
255	10
259	10
260	30
261	40
262	10
263	10
264	10
265	10
266	10
267	10
277	10
278	10
279	10
280	10
281	10
291	10
296	10
297	10
309	10
321	10
322	10
323	10
335	10
352	20
353	10
