Mass Spectrum: 3,4-Dichlorophenylethanamine, N-[1-methylazacyclohex-3-yl]-N-methyl-
Formula: C15H22Cl2N2
CAS: 184637-44-3
Molecular weight: 300
m/z	intensity
41	80
42	328
43	142
44	112
45	164
46	20
49	7
51	15
52	8
53	83
54	57
55	97
56	51
57	80
58	999
59	50
63	24
66	9
68	38
69	50
70	287
71	106
72	54
76	10
77	36
78	30
80	7
81	47
82	80
83	36
84	152
85	8
87	8
88	63
89	21
91	15
93	7
94	27
96	106
97	62
98	746
99	122
101	34
102	43
103	32
105	15
106	8
107	10
108	7
111	14
113	7
116	78
118	16
121	7
122	9
123	8
124	27
125	24
127	29
128	7
131	8
132	10
134	7
135	9
136	8
137	30
138	29
139	38
140	6
141	866
142	93
144	7
146	7
148	8
150	11
154	7
159	30
161	30
164	8
166	9
167	18
168	12
171	23
172	16
173	75
174	9
175	58
177	9
178	7
179	10
181	8
186	17
191	14
194	10
200	21
204	10
207	7
208	96
209	8
210	34
214	13
216	45
218	25
219	27
221	7
227	10
233	8
235	25
239	12
242	656
243	99
244	428
245	63
246	82
248	21
254	8
261	17
267	9
269	8
272	9
274	8
275	7
277	10
280	8
289	9
298	8
299	20
300	34
301	7
302	28
303	8
