Mass Spectrum: 2-Azabutan-3-one, 1-(1-methylazacyclohex-2-yl)-2-methyl-4-(3,4-dichlorophenyl)-
Formula: C16H22Cl2N2O
CAS: 184637-52-3
Molecular weight: 328
m/z	intensity
41	18
42	59
43	27
44	33
45	7
46	2
51	0
53	4
54	4
55	17
56	9
57	10
58	7
60	3
62	1
63	5
67	4
68	10
69	7
70	70
71	5
72	2
73	3
75	0
76	2
77	2
78	2
79	3
80	6
81	5
82	13
83	8
84	9
85	1
86	1
87	1
88	0
89	12
91	1
94	3
95	0
96	15
98	999
99	74
100	3
106	1
110	9
111	25
112	4
115	0
116	0
120	0
122	0
123	10
124	7
125	6
126	2
127	0
128	5
131	0
133	3
135	0
136	1
137	0
138	0
140	1
152	2
158	0
159	30
160	3
161	19
162	2
163	4
169	0
174	1
176	0
184	1
186	1
188	0
192	1
193	1
200	1
205	2
206	0
214	0
218	0
219	2
220	1
227	1
228	0
233	1
240	1
242	0
246	2
259	1
264	0
268	0
271	0
272	2
281	1
284	0
285	1
299	1
300	1
301	0
313	2
322	1
328	2
330	1
