Mass Spectrum: 3-Octanol, 2,6-dimethyl-
Formula: C10H22O
CAS: 18479-55-5
Molecular weight: 158
m/z	intensity
26	25
27	211
28	18
29	30
30	7
31	54
33	0
37	1
38	2
39	77
40	17
41	448
42	39
43	333
44	65
45	62
46	1
49	0
50	4
51	5
52	3
53	18
55	999
56	89
57	134
58	34
59	26
60	1
62	0
63	0
64	0
65	3
66	2
67	13
68	5
69	378
70	82
71	83
72	26
73	526
74	24
75	1
76	0
77	2
78	1
79	3
80	0
81	10
82	5
83	34
84	15
85	16
86	9
87	5
88	0
91	2
92	0
93	0
94	0
95	9
96	13
97	768
98	68
99	2
101	2
104	0
105	0
107	0
109	0
110	1
111	11
112	3
113	3
114	58
115	255
116	20
117	1
119	0
121	0
123	0
125	3
126	0
135	0
140	28
141	5
142	0
143	0
156	0
157	1
