Mass Spectrum: 2-Octanol, 2-methyl-6-methylene-
Formula: C10H20O
CAS: 18479-59-9
Molecular weight: 156
m/z	intensity
41	163
43	305
45	93
46	1
49	4
50	1
51	7
52	3
53	38
54	1
55	253
56	95
57	107
58	4
59	999
60	3
61	4
63	2
65	7
67	128
68	67
69	227
70	145
71	71
72	6
73	2
77	15
79	16
80	12
81	127
82	154
83	186
84	38
85	48
86	4
87	4
89	1
91	2
93	8
94	14
95	125
96	65
97	144
98	38
99	7
100	0
101	9
103	0
105	0
106	0
107	2
108	1
109	34
110	24
111	18
112	66
113	7
114	1
119	1
121	4
122	0
123	107
124	10
125	2
126	0
127	3
134	0
135	1
136	3
137	9
138	11
139	18
141	10
142	0
154	0
155	0
156	5
157	0
