Mass Spectrum: n-Decylsuccinic anhydride
Formula: C14H24O3
CAS: 18470-76-3
Molecular weight: 240
m/z	intensity
14	1
15	9
16	1
26	15
27	296
28	70
29	501
30	10
31	2
32	1
37	2
38	6
39	259
40	53
41	999
42	243
43	780
44	25
45	10
47	1
50	5
51	12
52	9
53	91
54	153
55	682
56	357
57	322
58	15
59	7
60	15
61	5
62	1
63	3
64	1
65	14
66	13
67	172
68	124
69	384
70	227
71	106
72	25
73	85
74	47
75	2
77	11
78	6
79	41
80	26
81	154
82	124
83	601
84	162
85	56
86	26
87	56
88	11
89	1
91	14
92	8
93	41
94	25
95	116
96	124
97	805
98	205
99	45
100	141
101	19
102	24
103	2
104	6
105	12
106	7
107	23
108	15
109	85
110	78
111	166
112	77
113	62
114	22
115	11
116	9
117	3
118	2
119	22
120	9
121	18
122	12
123	49
124	74
125	50
126	61
127	20
128	277
129	29
130	9
131	3
132	2
133	23
134	9
135	13
136	24
137	67
138	197
139	38
140	25
141	63
142	575
143	49
144	15
145	2
146	1
147	14
148	5
149	7
150	13
151	67
152	119
153	19
154	9
155	59
156	550
157	53
158	9
159	1
160	2
161	9
162	26
163	12
164	3
165	39
166	62
167	14
168	103
169	20
170	60
171	7
172	1
175	6
176	8
177	9
178	8
179	20
180	41
181	9
182	1
183	6
184	14
185	2
189	1
193	10
194	29
195	28
196	5
197	5
198	18
199	3
204	5
205	1
207	2
211	3
212	9
213	1
221	3
222	44
223	7
224	1
239	3
240	29
241	5
242	1
