Mass Spectrum: Carbonic acid, m-fluorophenyl methyl ester
Formula: C8H7FO3
CAS: 1847-99-0
Molecular weight: 170
m/z	intensity
44	30
45	10
50	80
51	40
56	40
57	550
59	430
61	30
62	60
63	130
64	20
68	20
69	40
70	20
73	10
75	170
76	10
77	20
78	10
81	80
82	40
83	999
84	50
94	20
95	350
96	850
97	430
98	10
111	100
112	10
125	20
126	380
127	20
170	320
171	20
