Mass Spectrum: Carbonic acid, 4-fluorophenyl methyl ester
Formula: C8H7FO3
CAS: 1847-98-9
Molecular weight: 170
m/z	intensity
44	19
45	9
50	59
51	29
53	9
56	49
57	425
58	9
59	297
61	19
62	39
63	89
64	9
68	9
69	29
74	19
75	118
77	9
81	59
82	39
83	999
84	49
94	9
95	257
96	99
97	49
98	9
111	683
112	49
126	485
127	29
170	267
171	29
