Mass Spectrum: 2-Octanol, 2,6-dimethyl-
Formula: C10H22O
CAS: 18479-57-7
Molecular weight: 158
m/z	intensity
25	0
26	3
27	40
28	0
29	66
30	1
31	76
33	0
37	0
38	1
39	24
40	4
41	122
42	14
43	72
44	3
45	15
46	0
47	0
49	0
50	1
51	1
52	0
53	6
54	2
55	105
56	45
57	73
58	35
59	999
60	41
61	2
62	0
63	0
65	0
66	0
67	11
68	3
69	149
70	30
71	20
72	1
73	1
75	0
77	1
78	0
79	0
81	4
82	6
83	73
84	11
85	6
86	0
87	0
90	0
91	0
94	0
95	3
96	1
97	2
98	1
99	1
101	0
109	1
110	0
111	4
112	1
113	1
119	0
123	3
124	0
125	15
126	1
127	0
137	0
138	0
140	1
141	1
142	0
143	13
144	1
149	0
