Mass Spectrum: Isocitronellol
Formula: C10H20O
CAS: 18479-52-2
Molecular weight: 156
m/z	intensity
27	109
28	47
29	107
30	4
31	77
32	2
37	6
38	4
39	106
40	22
41	316
42	29
43	120
44	6
45	6
50	3
51	11
52	6
53	52
54	15
55	514
56	52
57	42
58	3
59	4
63	3
65	14
66	6
67	125
68	18
69	77
70	20
71	15
72	5
73	4
77	11
78	2
79	25
80	7
81	118
82	110
83	999
84	81
85	8
91	7
93	7
94	4
95	72
96	27
97	16
98	4
99	7
100	14
101	2
107	5
108	2
109	13
110	6
111	2
121	3
122	1
123	39
124	4
136	1
138	6
156	59
157	6
