Mass Spectrum: 7-Octen-3-ol, 2,6-dimethyl-
Formula: C10H20O
CAS: 18479-56-6
Molecular weight: 156
m/z	intensity
26	25
27	221
28	32
29	32
30	7
31	66
36	0
37	2
38	5
39	111
40	27
41	529
42	37
43	229
44	26
45	73
46	1
47	0
48	0
49	0
50	8
51	8
52	8
53	51
54	32
55	369
56	113
57	176
58	15
59	13
60	0
62	0
63	1
64	0
65	6
66	7
67	198
68	210
69	367
70	42
71	74
72	10
73	283
74	11
75	0
76	0
77	7
78	1
79	20
80	7
81	63
82	98
83	25
84	23
85	13
86	53
87	19
88	1
91	6
92	0
93	21
94	21
95	999
96	63
97	10
98	1
99	101
100	8
101	0
105	0
107	0
109	28
110	4
111	1
112	2
113	64
114	4
115	0
119	0
121	0
123	25
124	2
125	0
127	1
128	0
137	1
138	2
139	0
154	0
155	0
156	1
