Mass Spectrum: Carbonic acid, methyl m-tolyl ester
Formula: C9H10O3
CAS: 1848-02-8
Molecular weight: 166
m/z	intensity
41	19
44	99
50	79
51	178
52	99
53	148
59	316
62	19
63	79
64	29
65	148
66	9
75	29
77	683
78	158
79	693
80	39
89	19
90	49
91	999
92	396
93	108
107	425
108	49
121	19
122	712
123	49
166	831
167	79
