Mass Spectrum: Carbonic acid, methyl 4-methylphenyl ester
Formula: C9H10O3
CAS: 1848-01-7
Molecular weight: 166
m/z	intensity
41	30
44	140
50	110
51	280
52	160
53	180
59	350
60	10
61	10
62	20
63	80
64	20
65	170
74	10
75	50
76	20
77	999
78	220
79	850
80	50
89	30
90	50
91	720
92	180
93	30
107	980
108	80
109	10
121	880
122	920
123	80
166	930
167	80
168	10
