Mass Spectrum: Purine-2,6(1H,3H)-dione, 3-(2-methylphenyl)-1-(2-thienylmethyl)-
Formula: C17H14N4O2S
CAS: 184897-87-8
Molecular weight: 338
m/z	intensity
33	0
34	0
36	0
37	1
38	7
39	57
40	9
41	11
42	2
43	4
44	6
45	77
46	5
47	5
48	0
50	8
51	21
52	13
53	60
54	6
55	3
56	4
57	4
58	6
59	1
60	0
61	1
62	5
63	23
64	12
65	53
66	6
67	4
68	4
69	15
70	51
71	8
72	1
73	0
74	1
75	3
76	4
77	13
78	8
79	2
80	1
81	4
82	2
83	4
84	4
85	7
86	1
87	2
89	58
90	48
91	60
92	6
93	2
94	1
95	8
97	999
98	72
99	53
100	3
101	1
102	4
103	4
104	6
105	1
106	2
107	1
108	2
109	2
110	10
111	4
112	24
113	4
114	4
115	8
116	49
117	39
118	24
119	3
120	1
121	0
122	1
123	1
124	0
125	0
126	0
127	1
128	6
129	5
130	6
131	2
132	1
133	1
134	1
135	1
136	9
138	25
139	2
140	1
141	2
142	10
143	18
144	12
145	5
146	1
147	0
148	0
149	0
150	0
151	0
152	0
153	9
154	3
155	3
156	3
157	3
158	1
159	1
160	0
161	0
162	0
163	0
164	0
165	0
166	0
167	0
168	1
169	8
170	63
171	23
172	8
173	2
174	0
175	0
176	0
177	0
178	0
179	0
180	0
181	1
182	2
183	3
184	4
185	4
186	2
187	9
188	1
189	0
190	0
191	0
193	0
194	0
195	1
196	5
197	17
198	122
199	70
200	15
201	2
202	0
203	0
204	1
205	0
206	0
207	0
208	0
209	0
210	1
211	4
212	2
214	10
215	1
216	0
217	0
218	0
219	0
220	0
221	0
222	0
223	1
224	1
225	4
226	9
227	4
228	1
229	0
231	0
232	1
233	0
234	0
235	0
236	0
237	0
238	0
239	1
241	40
242	5
243	1
244	0
246	4
247	1
248	0
249	0
250	2
251	1
252	1
253	1
254	5
255	1
256	0
257	0
259	0
260	0
261	0
262	5
263	1
264	0
266	3
267	1
268	2
269	0
270	0
275	0
276	0
277	0
278	2
279	1
280	2
281	0
282	0
283	0
288	0
289	0
291	0
292	0
293	2
294	12
295	22
296	4
297	1
298	0
304	0
305	1
306	2
307	0
309	2
310	1
311	0
312	0
319	0
320	1
321	12
322	2
323	1
324	0
334	0
335	0
338	430
339	84
340	28
341	4
342	0
343	0
