Mass Spectrum: 2-Propenal, di-2-propenylhydrazone
Formula: C9H14N2
CAS: 18491-20-8
Molecular weight: 150
m/z	intensity
29	40
38	18
39	315
40	140
41	999
42	62
52	9
53	165
54	75
55	88
56	23
65	18
66	22
67	29
68	55
69	45
77	20
79	78
80	21
81	248
82	27
94	18
95	9
107	7
109	122
110	9
123	33
124	3
149	9
150	220
151	22
