Mass Spectrum: Benzothiophene-3-carboxylic acid, 4,5,6,7-tetrahydro-2-(2-thienoylamino)-, ethyl ester
Formula: C16H17NO3S2
CAS: 184906-67-0
Molecular weight: 335
m/z	intensity
33	5
34	3
36	2
37	3
38	9
39	177
41	38
42	13
44	16
45	48
47	7
50	4
51	13
52	8
53	15
55	12
57	20
58	11
59	7
60	3
61	1
62	2
63	8
65	20
66	18
67	13
69	13
70	7
71	14
72	2
73	3
74	1
76	5
77	25
78	12
79	19
81	12
82	12
83	76
84	10
85	9
86	2
87	1
89	6
90	7
91	31
92	7
93	4
95	9
96	6
97	8
98	2
99	1
100	1
101	1
102	1
103	2
104	4
105	3
106	6
107	5
111	999
112	42
113	3
116	14
117	10
118	8
119	6
121	12
122	10
123	14
124	6
125	5
126	2
127	1
128	1
129	0
130	0
132	1
133	2
134	5
135	4
136	3
137	2
138	2
139	1
140	1
141	1
142	0
143	1
144	5
145	4
146	3
147	2
149	12
150	12
151	20
152	6
153	4
155	1
156	2
157	0
158	0
159	0
160	1
161	2
162	2
163	1
164	1
165	1
166	1
167	3
168	2
169	0
171	1
172	0
173	1
175	2
176	3
178	50
179	22
180	14
181	1
182	0
184	0
185	0
188	0
189	0
191	0
192	0
193	0
194	0
196	3
197	0
199	0
200	1
201	0
202	0
204	1
205	3
206	2
207	1
208	0
210	0
212	0
213	0
216	0
217	0
218	0
219	0
220	1
221	1
224	57
225	9
226	3
227	1
228	3
229	0
230	0
231	0
233	9
235	1
238	0
242	0
243	0
244	2
245	1
246	0
248	0
254	0
256	8
257	1
259	1
260	8
261	16
262	4
263	1
264	0
267	0
271	0
272	2
273	0
274	0
282	0
283	1
284	2
288	73
289	132
290	30
291	16
292	2
293	0
306	0
307	1
308	0
320	0
321	0
323	0
335	179
336	28
337	14
338	2
339	0
