Mass Spectrum: cis-4-Hepten-1-al diethyl acetal
Formula: C11H22O2
CAS: 18492-65-4
Molecular weight: 186
m/z	intensity
26	19
27	182
28	58
29	284
30	11
31	127
32	1
39	144
40	31
41	471
42	65
43	156
44	121
45	128
46	17
47	674
48	4
50	4
51	21
52	8
53	92
54	32
55	277
56	47
57	185
58	29
59	44
60	7
61	8
65	22
66	20
67	160
68	264
69	530
70	76
71	18
72	147
73	84
74	12
75	593
76	22
77	40
78	4
79	68
80	7
81	63
82	8
83	337
84	49
85	48
86	18
87	9
89	4
91	12
93	22
94	171
95	505
96	70
97	53
98	12
99	7
101	41
103	999
104	66
105	4
111	314
112	44
113	40
116	13
125	14
129	111
130	7
140	166
141	194
142	25
143	5
