Mass Spectrum: 5-Deoxypyridoxal
Formula: C8H9NO2
CAS: 1849-49-6
Molecular weight: 151
m/z	intensity
41	436
42	857
43	243
44	16
45	16
47	44
48	26
49	267
50	390
51	766
52	568
53	999
54	362
55	223
56	12
57	6
60	12
61	47
62	85
63	168
64	50
65	85
66	101
67	209
68	64
69	54
70	18
71	6
72	1
73	5
74	16
75	18
76	22
77	91
78	124
79	125
80	135
81	272
82	325
84	56
86	46
87	3
88	10
89	1
90	2
91	5
92	11
93	55
94	359
95	53
96	12
97	2
98	0
99	1
104	27
105	47
106	39
108	148
109	11
110	2
111	0
119	1
120	8
122	636
123	97
124	11
125	1
132	3
133	5
134	18
135	1
136	14
137	0
148	1
149	3
150	2
151	874
152	100
