Mass Spectrum: N,N-Dimethylformamide diisopropyl acetal
Formula: C9H21NO2
CAS: 18503-89-4
Molecular weight: 175
m/z	intensity
12	2
13	5
14	24
15	158
16	4
17	2
18	7
19	3
25	4
26	27
27	219
28	90
29	108
30	98
31	72
32	9
33	1
36	4
37	26
38	42
39	171
40	63
41	285
42	299
43	486
44	464
45	999
46	61
47	45
50	1
52	1
53	1
54	2
55	3
56	11
57	10
58	71
59	54
60	6
61	58
62	1
67	1
69	3
70	2
71	2
72	146
73	418
74	928
75	38
76	4
77	1
84	2
85	1
86	2
87	8
88	77
89	226
90	15
91	2
98	1
100	4
103	28
104	3
105	2
106	1
107	3
109	2
113	1
115	1
116	128
117	9
131	155
132	11
133	1
135	1
137	1
147	3
175	3
