Mass Spectrum: Spiro[bicyclo[2.2.1]heptane-2,2'-[1,3]dioxolane]-3-one, 1,7,7-trimethyl-
Formula: C12H18O3
CAS: 18501-56-9
Molecular weight: 210
m/z	intensity
26	1
27	19
28	1
29	11
31	0
38	0
39	22
40	9
41	85
42	4
43	6
44	0
45	4
50	0
51	3
52	2
53	12
54	2
55	16
56	1
57	0
63	1
65	4
66	1
67	16
68	3
69	146
70	6
71	0
73	11
74	0
75	0
76	0
77	7
78	1
79	9
80	1
81	4
82	1
83	3
84	0
86	1
87	1
91	5
92	0
93	3
94	1
95	11
96	2
97	1
98	0
99	4
100	0
105	1
107	2
108	0
109	2
110	1
111	0
112	1
113	999
114	62
115	6
121	0
122	1
123	1
124	0
125	0
126	1
127	1
128	0
135	0
137	2
138	0
139	1
141	1
151	0
152	0
153	0
154	0
155	0
165	9
166	1
167	2
180	0
181	0
182	42
183	5
184	0
210	21
211	3
212	0
