Mass Spectrum: 2,4-Pentanedione, 3-(9-decenyl)-
Formula: C15H26O2
CAS: 185053-96-7
Molecular weight: 238
m/z	intensity
26	1
27	31
28	1
29	61
30	2
31	2
39	45
40	9
41	183
42	21
43	999
44	22
45	10
50	1
51	4
52	1
53	37
54	43
55	159
56	19
57	20
58	94
59	41
60	2
61	7
65	6
66	10
67	90
68	59
69	64
70	15
71	569
72	47
73	12
74	0
75	1
77	10
78	6
79	33
80	39
81	105
82	99
83	65
84	129
85	183
86	14
87	2
91	9
92	5
93	33
94	54
95	101
96	116
97	75
98	23
99	25
100	351
101	200
102	25
103	2
104	0
105	8
106	2
107	31
108	29
109	43
110	34
111	45
112	11
113	732
114	61
115	8
117	1
118	1
119	4
120	2
121	42
122	20
123	24
124	28
125	66
126	13
127	13
128	8
129	0
131	1
132	1
133	4
134	3
135	29
136	101
137	38
138	70
139	28
140	10
141	7
142	7
143	0
146	1
147	4
148	8
149	34
150	9
151	14
152	11
153	19
154	5
155	6
156	12
157	0
159	1
160	0
161	1
162	10
163	12
164	12
165	6
166	1
167	8
168	4
169	5
170	1
173	2
174	1
175	15
176	16
177	306
178	53
179	6
180	4
181	11
182	1
183	1
187	2
188	1
189	1
191	5
192	4
193	3
194	1
195	9
196	17
197	3
198	1
202	3
204	0
205	12
206	2
209	2
220	46
221	8
222	1
223	19
224	4
236	2
237	0
238	77
239	18
240	2
