Mass Spectrum: 5,7-Octadien-2-one, 3-acetyl-
Formula: C10H14O2
CAS: 185053-98-9
Molecular weight: 166
m/z	intensity
25	5
27	54
28	1
29	8
31	3
37	0
38	4
39	66
40	10
41	74
42	7
43	999
44	24
45	62
46	1
50	9
51	24
52	15
53	32
54	15
55	32
56	1
57	2
58	0
61	1
62	1
63	7
64	1
65	22
66	14
67	66
68	5
69	16
70	5
71	5
74	1
75	1
76	0
77	47
78	13
79	75
80	15
81	62
82	8
83	4
84	1
85	4
88	1
89	0
90	0
91	34
92	3
93	9
94	1
95	41
96	4
97	11
98	1
99	0
100	0
101	1
102	0
103	11
104	4
105	88
106	50
107	13
108	7
109	15
110	1
111	1
113	3
115	0
119	1
120	0
121	10
122	3
123	381
124	46
125	17
126	1
133	34
134	3
135	0
137	2
147	12
148	8
149	1
151	3
166	25
167	2
