Mass Spectrum: 2-Propanol, 1-hydrazino-
Formula: C3H10N2O
CAS: 18501-20-7
Molecular weight: 90
m/z	intensity
15	36
16	11
17	25
18	169
19	16
26	17
27	71
28	115
29	129
30	110
31	131
33	1
36	0
37	3
38	8
39	37
40	8
41	39
42	45
43	125
45	999
46	23
47	0
51	0
52	2
54	8
55	4
56	7
57	21
58	6
59	8
60	0
71	11
72	4
73	1
74	2
75	6
90	40
91	2
