Mass Spectrum: 4H-Imidazol-4-one, 3,5-dihydro-2-phenyl-5-(phenylmethylene)-
Formula: C16H12N2O
CAS: 18511-00-7
Molecular weight: 248
m/z	intensity
50	110
51	240
52	10
77	480
78	250
79	20
89	130
90	160
91	10
104	999
105	80
117	970
118	90
144	30
247	190
248	999
249	170
