Mass Spectrum: 2-Decanynoic acid
Formula: C10H16O2
CAS: 1851-90-7
Molecular weight: 168
m/z	intensity
41	671
42	44
43	738
44	11
45	95
46	1
47	21
48	6
49	71
50	47
51	161
52	123
53	382
54	141
55	999
56	59
57	543
58	5
59	31
60	132
61	26
62	10
63	24
64	8
65	82
66	192
67	394
68	109
69	144
70	56
71	43
72	5
73	91
74	12
75	3
76	3
77	88
78	24
79	291
80	101
81	243
82	48
83	106
84	224
85	74
86	247
87	29
88	9
89	2
90	0
91	37
92	6
93	94
94	22
95	45
96	13
97	123
98	28
99	33
100	13
101	16
102	1
103	2
104	1
105	7
106	3
107	34
108	38
109	14
110	6
111	70
112	17
113	10
114	3
115	7
116	1
117	1
118	0
119	1
121	35
122	7
123	19
124	2
125	54
126	17
127	6
128	1
129	2
130	0
131	2
133	1
135	9
136	1
137	1
139	36
140	7
141	1
143	0
144	1
145	1
149	9
150	1
151	14
152	2
153	2
154	0
155	0
156	0
157	0
158	0
165	0
167	1
168	11
169	1
