Mass Spectrum: Di-[1,2,5]oxadiazolo[3,4-c:3',4'-j]-1,8-dioxa-5,12-diazacyclotetradeca-3,10-diene, 4,12-dioxo-
Formula: C10H10N6O6
CAS: 185116-14-7
Molecular weight: 310
m/z	intensity
52	40
53	448
54	999
55	280
56	38
57	33
58	38
59	4
60	2
66	42
67	134
68	102
69	429
70	894
71	88
72	66
73	14
79	34
80	65
81	112
82	50
83	147
84	38
85	56
86	19
93	10
94	584
95	151
96	266
97	95
98	359
99	26
100	2
107	18
108	25
109	57
110	213
111	146
112	104
113	28
114	256
115	8
116	7
122	151
123	13
124	236
125	64
126	30
127	2
136	3
137	18
138	258
139	511
140	71
141	9
142	86
143	3
154	4
155	410
156	758
157	49
158	2
166	5
167	3
168	551
169	48
170	4
182	52
183	7
184	2
193	20
194	1
195	38
196	1
208	1
209	104
210	26
222	8
223	23
227	33
236	36
237	1
253	224
254	23
262	13
263	122
264	10
280	49
281	3
292	19
293	1
309	1
310	671
311	87
312	12
