Mass Spectrum: Di-[1,2,5]selenadiazolo[3,4-c:3',4'-j]-1,8-dioxa-5,12-diazacyclotetradeca-3,12-diene, 4,12-dioxo-
Formula: C10H10N6O4Se2
CAS: 185116-18-1
Molecular weight: 438
m/z	intensity
53	225
54	358
55	434
56	87
57	287
58	139
66	38
67	104
68	232
69	511
70	192
71	214
72	24
73	27
77	30
78	141
79	37
80	254
81	97
82	54
83	27
84	8
92	48
93	29
94	999
95	340
96	891
97	247
98	60
99	15
105	22
106	105
107	99
108	69
109	163
110	35
111	10
112	24
113	56
114	17
118	25
119	68
120	55
121	161
122	108
123	47
124	15
125	17
129	15
130	67
131	104
132	156
133	223
134	210
135	35
136	17
139	3
140	194
141	8
142	2
147	6
148	58
149	5
152	51
153	26
154	52
155	21
156	175
157	66
158	346
159	14
160	441
161	17
162	131
163	4
171	108
172	202
173	389
174	265
175	615
176	422
177	100
178	40
179	2
184	129
185	122
186	405
187	25
188	803
189	55
190	152
191	5
198	6
199	13
200	44
201	13
202	204
203	84
204	159
205	14
206	230
207	9
213	2
214	7
215	34
216	116
217	187
218	268
219	268
220	463
221	56
222	38
229	21
230	26
231	26
232	47
233	65
234	4
235	4
402	4
403	12
404	10
405	19
406	18
407	15
408	24
409	2
429	2
430	9
431	44
432	75
433	165
434	214
435	156
436	552
437	53
438	616
439	82
440	129
441	6
