Mass Spectrum: .alpha.-D-Galactopyranuronic acid, 1,2:3,4-bis-O-(1-methylethylidene)-, methyl ester
Formula: C13H20O7
CAS: 18524-41-9
Molecular weight: 288
m/z	intensity
27	60
29	83
31	73
39	55
41	123
43	999
45	32
55	58
57	40
58	70
59	386
60	27
69	34
71	261
73	69
83	104
84	88
85	292
86	27
95	64
97	33
99	49
100	268
101	87
111	20
113	288
114	40
115	38
127	283
128	25
129	34
141	242
142	25
143	87
144	10
145	11
155	112
156	18
171	88
172	19
173	41
197	42
199	13
215	150
216	13
229	54
230	10
273	890
274	140
288	6
