Mass Spectrum: Benzenesulfonamide, 3,4-dimethoxy-N-(2-cyanoethyl)-N-tetrahydrofurfuryl-
Formula: C16H22N2O5S
CAS: 185299-49-4
Molecular weight: 354
m/z	intensity
33	0
34	0
36	0
37	1
38	3
39	25
40	11
41	90
42	60
43	207
44	13
45	5
46	0
47	0
48	2
50	13
51	35
52	10
53	19
54	20
55	19
56	7
57	6
58	1
59	3
60	0
61	1
62	3
63	12
64	11
65	9
66	18
67	5
68	5
69	12
71	999
72	48
73	4
74	1
75	3
76	16
77	67
78	15
79	69
80	6
81	9
82	5
83	76
84	9
85	5
86	0
87	0
88	0
89	0
91	6
92	24
93	5
94	23
95	8
96	5
97	2
98	1
99	1
100	0
101	0
102	0
103	0
104	0
105	3
106	3
107	24
108	3
109	7
110	3
111	2
112	2
113	0
114	0
115	0
116	0
117	0
118	0
119	0
120	1
121	6
122	18
123	6
124	2
125	2
126	0
127	0
128	0
129	0
130	0
131	0
133	1
134	0
135	3
137	136
138	17
139	3
140	2
141	0
142	0
143	0
144	0
145	0
146	0
147	0
148	0
149	2
150	1
151	4
153	101
154	10
155	2
156	0
157	0
158	0
159	0
160	0
161	0
162	0
163	0
164	0
165	3
166	1
167	0
168	0
169	1
170	1
171	1
172	0
175	0
177	4
178	0
179	0
180	0
181	0
182	0
183	0
185	11
186	1
187	0
188	0
189	0
190	0
191	0
192	0
193	0
194	0
198	0
201	122
202	35
203	9
204	2
205	0
207	3
208	0
209	0
217	0
218	0
219	0
229	0
230	0
231	0
232	0
240	0
242	0
244	1
245	0
246	0
256	0
269	0
270	1
271	0
272	2
273	0
274	0
281	0
283	8
284	8
285	1
286	0
301	0
314	0
324	0
337	0
338	0
350	0
354	21
355	4
356	1
357	0
