Mass Spectrum: 4,4'-Azinodi(2,2,6,6-tetramethylpiperidine)
Formula: C18H34N4
CAS: 18528-42-2
Molecular weight: 306
m/z	intensity
15	3
18	2
26	1
27	11
28	12
29	25
30	23
37	1
39	35
40	12
41	127
42	227
43	23
44	7
50	1
51	3
52	3
53	35
54	25
55	108
56	65
57	62
58	308
59	12
62	1
63	1
65	11
66	10
67	33
68	15
69	14
70	63
71	40
72	8
73	2
77	11
78	3
79	35
80	26
81	59
82	89
83	32
84	24
85	3
91	6
92	3
93	10
94	44
95	39
96	203
97	113
98	999
99	104
100	5
103	1
104	1
105	3
106	6
107	14
108	24
109	16
110	24
111	36
112	21
113	17
114	1
117	1
118	2
119	6
120	11
121	21
122	54
123	71
124	16
125	9
126	2
130	2
131	1
132	1
133	2
134	9
135	13
136	159
137	73
138	267
139	57
140	8
141	1
144	1
146	3
147	2
148	2
149	4
151	57
153	824
154	168
155	14
156	1
158	1
159	1
160	2
161	5
162	4
163	3
164	1
165	2
166	1
167	1
168	4
169	9
170	1
174	1
175	2
176	3
177	41
178	15
179	7
180	1
191	11
192	6
193	14
194	40
195	8
196	1
201	1
202	1
204	1
206	1
207	1
208	17
209	3
210	1
217	2
218	8
219	1
232	1
234	40
235	7
236	10
237	2
248	1
249	11
250	3
274	1
275	1
291	20
292	4
306	46
307	10
308	1
