Mass Spectrum: Acetonitrile, 2-(2-furfuryl)(3,4-dimethoxyphenylsulfonyl)amino-
Formula: C15H16N2O5S
CAS: 185299-65-4
Molecular weight: 336
m/z	intensity
33	1
34	1
36	1
37	8
38	28
39	116
40	68
41	98
42	22
43	18
44	12
45	17
46	1
47	1
48	6
49	4
50	60
51	179
52	64
53	295
54	22
55	26
56	3
57	5
58	3
59	9
60	1
61	4
62	17
63	53
64	43
65	37
66	71
67	74
68	16
69	32
70	5
71	5
72	1
73	2
74	7
75	13
76	46
77	216
78	53
79	258
81	999
82	58
83	10
84	4
85	4
86	1
87	1
88	0
89	2
90	4
91	19
92	83
93	26
94	101
95	57
96	15
97	5
98	2
99	4
100	0
101	1
102	7
103	2
104	2
105	14
106	14
107	89
108	22
109	21
110	7
111	6
112	1
113	1
114	1
115	3
116	1
117	1
118	3
119	3
120	5
121	21
122	57
123	39
124	8
125	14
126	4
127	2
128	1
129	0
130	1
131	2
132	2
133	8
135	671
136	71
137	295
138	162
139	27
140	11
141	3
142	1
143	1
144	0
145	1
146	2
147	2
148	2
149	2
150	1
151	4
153	214
154	80
155	9
156	2
157	1
158	1
159	1
160	1
161	2
162	0
163	1
164	1
165	0
167	0
168	1
169	2
170	3
171	2
172	0
173	0
174	0
175	1
176	0
177	0
178	0
179	0
183	2
185	220
186	20
187	13
188	2
189	3
190	1
191	3
192	0
199	2
201	69
202	570
203	60
204	35
205	3
206	0
212	0
213	0
216	1
217	3
218	0
219	0
227	0
228	1
229	1
230	0
231	0
232	0
240	0
241	4
242	0
243	0
255	0
256	0
267	0
295	0
296	0
297	1
319	0
334	0
336	215
337	37
338	14
339	2
340	0
