Mass Spectrum: 5.alpha.-Androstan-3.alpha.-ol-17-one glucoronide
Formula: C25H38O8
CAS: 1852-43-3
Molecular weight: 466
m/z	intensity
41	814
43	999
44	331
45	205
47	136
49	54
51	22
53	263
55	979
57	373
58	74
60	313
61	135
65	104
67	694
68	87
69	280
71	291
73	769
76	43
77	256
79	655
81	729
83	443
84	24
85	10
86	244
88	51
89	46
91	509
93	552
95	584
97	415
98	32
99	43
101	156
103	64
105	417
107	775
108	483
109	388
110	111
111	47
112	27
114	34
115	73
117	110
119	295
120	31
121	315
122	134
123	150
124	143
125	32
129	33
131	174
133	268
134	68
135	229
136	59
137	125
143	62
145	265
147	322
148	65
149	175
151	139
153	12
157	45
159	192
161	228
163	175
164	45
165	102
171	34
173	163
175	108
176	69
177	68
178	12
185	29
187	75
189	71
190	74
191	84
199	69
201	200
202	15
203	43
205	13
213	163
215	205
216	118
217	57
218	52
219	39
228	66
229	53
230	28
231	86
233	52
234	12
239	107
244	62
246	127
247	13
249	50
254	48
255	383
257	256
258	14
272	370
273	377
274	49
275	92
290	302
291	55
340	13
404	25
448	57
