Mass Spectrum: 2-Hydroxymethyl-9-[.beta.-d-ribofuranosyl]hypoxanthine
Formula: C11H14N4O6
CAS: 185377-94-0
Molecular weight: 298
m/z	intensity
42	538
43	999
44	387
45	399
47	169
53	120
55	440
57	802
58	124
59	102
60	266
61	104
62	4
63	20
65	26
66	11
67	40
68	118
69	140
71	239
73	391
74	111
75	12
76	7
77	22
78	45
79	24
80	15
81	34
82	45
85	31
86	122
87	24
88	29
89	16
91	11
92	2
93	14
94	3
95	34
96	22
97	75
98	40
100	44
101	45
102	20
103	25
105	41
106	11
107	20
108	4
109	44
110	12
111	35
112	51
114	128
115	32
116	14
117	2
119	12
120	3
121	19
122	14
123	7
124	15
125	26
126	9
127	3
128	2
129	17
130	7
131	7
133	26
135	41
136	25
137	29
138	32
139	11
140	5
141	6
143	20
144	13
145	6
146	2
149	33
150	43
151	14
152	3
153	38
154	6
157	8
161	10
163	2
164	25
165	6
166	74
167	10
169	2
171	2
177	13
179	50
180	8
181	20
184	13
186	12
190	2
192	9
193	2
195	12
196	6
206	11
207	6
209	8
217	14
222	5
223	8
225	8
228	5
240	2
251	16
252	5
280	2
281	11
282	2
