Mass Spectrum: Benzenesulfonamide, 3-cyclopentyloxy-4-methoxy-N-(2-furfuryl)-
Formula: C17H21NO5S
CAS: 185300-57-6
Molecular weight: 351
m/z	intensity
37	2
38	8
39	71
40	26
41	221
42	16
43	9
44	10
45	3
48	2
50	11
51	34
52	27
53	78
54	6
55	18
56	2
57	3
62	2
63	12
64	8
65	34
66	11
67	51
68	20
69	68
70	5
71	5
73	1
74	1
75	3
76	13
77	20
78	11
79	56
80	28
81	259
82	16
83	4
84	1
85	2
89	1
90	1
91	9
92	4
93	9
94	30
96	999
97	62
98	4
99	1
100	1
103	2
104	1
105	4
106	3
107	4
108	21
109	16
110	4
111	6
112	2
115	2
118	3
119	1
120	1
121	4
122	26
123	57
124	76
125	10
126	1
128	1
131	2
133	1
135	1
137	6
138	4
139	49
140	37
141	5
143	1
145	1
146	3
147	2
149	3
150	2
151	3
155	2
156	5
157	1
158	1
159	1
161	3
171	54
172	6
173	3
174	1
175	3
185	2
186	5
187	20
188	147
189	18
190	13
191	4
202	1
203	4
207	1
214	1
215	20
216	5
217	2
218	2
255	1
256	1
283	4
351	55
352	10
353	3
