Mass Spectrum: Furfurylamine, N-(3,4-dimethoxyphenylsulfonyl)-
Formula: C13H15NO5S
CAS: 185300-37-2
Molecular weight: 297
m/z	intensity
33	2
34	1
35	0
36	2
37	10
38	30
39	140
40	41
41	112
42	26
43	25
44	28
45	17
46	2
47	2
48	6
50	53
51	142
52	45
53	201
54	16
55	35
56	5
57	11
58	4
59	7
60	4
61	4
62	17
63	45
64	36
65	34
66	54
67	22
68	26
69	67
70	8
71	9
72	2
73	5
74	8
75	12
76	38
77	175
78	43
79	209
80	41
81	438
82	32
83	13
84	6
85	6
86	2
87	3
89	3
90	3
91	17
92	67
93	22
94	108
95	118
96	999
97	69
98	7
99	5
100	1
101	1
102	6
103	3
104	2
105	9
106	8
107	75
108	17
109	19
110	14
111	11
112	2
113	2
114	1
115	5
116	2
117	2
118	3
119	2
120	3
121	18
122	50
123	61
124	10
125	32
126	8
127	3
128	1
129	1
130	2
131	3
132	1
133	2
134	1
135	7
137	196
138	171
139	44
140	12
141	4
142	2
143	2
144	1
145	1
146	2
147	1
149	11
150	2
151	6
152	11
153	257
154	96
155	11
156	2
157	2
158	2
159	1
160	1
161	2
162	1
163	0
164	1
165	0
166	0
167	0
168	0
169	3
170	3
171	4
172	1
173	1
174	2
175	2
176	0
177	0
178	0
180	0
183	2
185	336
186	36
187	21
188	4
189	4
190	1
191	0
192	0
199	0
200	4
202	540
203	52
204	34
205	4
206	1
207	0
208	0
216	2
217	4
218	1
219	0
220	0
223	0
230	0
232	2
233	1
280	0
281	0
295	2
297	193
298	29
299	12
300	1
301	0
