Mass Spectrum: Oxiranecarboxamide, 3-phenyl-
Formula: C9H9NO2
CAS: 18538-53-9
Molecular weight: 163
m/z	intensity
61	23
62	72
63	199
64	82
65	221
66	15
74	12
75	31
76	19
77	265
78	56
79	300
80	15
89	418
90	497
91	999
105	142
106	609
107	252
118	148
119	50
120	153
146	53
163	99
164	11
