Mass Spectrum: Salicyl alcohol, 2TMS derivative
Formula: C13H24O2Si2
CAS: 18544-92-8
Molecular weight: 268
m/z	intensity
26	12
27	10
29	36
31	8
34	2
36	5
38	5
39	35
42	28
43	38
45	142
47	38
49	7
51	4
53	22
54	8
56	0
58	15
59	26
61	12
63	7
65	23
67	19
68	6
69	2
70	12
71	12
72	3
73	999
74	107
75	112
76	23
77	16
78	15
79	45
80	10
83	6
85	16
87	5
89	44
90	15
91	113
92	7
93	17
94	7
95	7
96	1
97	20
98	2
99	21
100	8
101	10
102	19
103	34
104	26
105	88
106	69
107	22
109	1
110	12
111	0
113	3
115	27
116	2
117	24
119	37
120	8
121	18
124	4
126	14
127	13
129	3
131	32
132	12
133	128
134	46
135	61
136	6
137	38
138	3
139	15
141	1
142	4
143	4
145	2
147	332
148	49
149	94
150	30
151	40
152	1
153	13
154	2
155	3
161	65
162	1
163	94
164	19
165	53
166	20
167	18
177	49
178	15
179	328
180	74
181	33
182	4
184	1
185	1
189	1
191	18
193	36
194	1
195	13
197	2
205	0
206	4
207	49
208	21
209	213
210	52
211	20
219	5
221	57
222	20
223	44
224	11
225	46
226	7
227	1
235	46
236	6
237	163
238	30
239	7
250	0
251	7
253	397
254	85
255	40
265	1
266	12
267	149
268	319
269	69
270	22
