Mass Spectrum: Erythritol, 4TMS derivative
Formula: C16H42O4Si4
CAS: 18547-29-0
Molecular weight: 410
m/z	intensity
27	2
28	7
29	2
31	0
32	0
36	2
37	0
38	0
39	3
40	1
41	9
42	1
43	8
44	12
45	67
46	4
47	7
52	1
53	2
54	3
55	3
56	0
57	1
58	8
59	40
60	4
61	4
62	0
65	1
66	2
67	1
68	2
69	37
70	3
71	3
72	20
73	999
74	97
75	80
76	4
77	2
79	0
81	1
85	4
86	1
87	4
88	5
89	20
90	1
92	0
99	4
101	34
102	4
103	349
104	36
105	23
106	4
107	1
108	0
110	0
112	0
113	6
114	1
115	15
116	106
117	206
118	23
119	17
120	0
121	1
127	1
128	2
129	95
130	12
131	34
132	4
133	86
134	15
135	7
136	0
141	4
142	1
143	11
144	1
145	4
146	3
147	430
148	81
149	48
150	4
151	1
153	2
154	2
155	1
157	0
159	4
161	5
162	2
163	5
166	0
174	0
175	10
176	2
177	7
179	1
189	155
190	30
191	132
192	26
193	9
203	16
204	184
205	503
206	113
207	50
208	6
209	1
215	7
216	7
217	504
218	113
219	47
220	5
221	18
222	4
223	2
230	3
231	41
232	10
233	5
248	1
277	25
278	9
279	8
280	1
291	4
292	2
293	51
294	15
295	6
304	0
305	22
306	10
307	153
308	48
309	24
310	4
311	0
320	34
321	10
322	4
395	3
