Mass Spectrum: 1,10-Decanediol, 2TMS derivative
Formula: C16H38O2Si2
CAS: 18546-99-1
Molecular weight: 318
m/z	intensity
14	7
26	7
27	18
29	47
31	8
37	5
39	21
40	5
41	11
42	23
43	2
44	23
46	7
53	13
54	19
55	461
56	46
57	122
58	38
59	48
60	17
61	24
62	8
63	5
66	7
67	0
68	29
69	481
70	50
71	93
72	33
73	189
74	72
75	97
77	36
79	12
80	7
81	15
82	50
83	999
84	84
85	25
86	6
87	29
88	14
90	7
91	40
92	5
93	9
96	47
97	340
98	40
99	29
100	5
101	57
102	11
103	107
104	38
105	27
109	21
110	19
113	11
115	36
116	11
117	17
119	12
123	5
127	6
130	9
131	48
132	9
133	91
134	17
135	26
136	5
137	11
138	85
139	28
143	12
144	142
145	17
147	668
148	146
149	210
150	51
151	28
157	9
161	6
163	10
165	28
166	6
171	7
177	83
178	27
179	14
185	32
186	7
187	5
199	5
213	82
214	16
215	7
228	48
229	12
287	16
288	6
303	37
304	12
305	6
317	5
