Mass Spectrum: 3-Azaspiro[5.5]undecec-1-ene-1,5-dicarbonitrile, 4-oxo-3-propylthio-
Formula: C15H19N3OS
CAS: 185414-59-9
Molecular weight: 289
m/z	intensity
33	92
34	9
35	4
37	10
39	389
41	999
43	905
45	64
46	28
47	56
48	6
49	4
50	17
51	58
52	50
53	80
55	244
57	16
58	20
59	20
60	31
61	9
62	13
63	35
64	56
65	75
66	53
67	70
68	79
69	41
70	46
71	12
72	4
73	8
74	9
75	16
76	58
77	68
78	61
79	96
80	29
81	76
83	53
84	16
85	20
86	26
87	6
89	37
90	34
91	52
92	33
93	37
94	15
95	11
96	21
97	6
98	4
99	0
100	2
101	7
102	17
103	30
104	30
105	41
106	13
107	13
108	20
109	12
110	14
111	3
112	3
113	4
114	4
115	13
116	17
117	21
118	30
119	25
120	28
121	21
122	27
123	12
124	6
125	9
126	2
127	2
128	5
129	11
130	20
131	17
132	19
133	9
134	24
135	28
136	33
137	37
138	14
139	10
140	7
141	4
142	9
143	10
144	10
145	18
146	19
147	76
148	61
149	17
151	26
152	14
153	9
154	1
155	4
156	17
157	6
158	7
159	18
160	8
161	25
162	27
163	44
164	25
166	49
167	11
168	1
169	2
170	4
171	3
172	5
173	8
174	6
175	8
176	11
178	87
179	157
180	33
181	17
182	3
183	1
184	0
185	1
186	8
187	10
188	9
189	9
191	226
192	28
193	21
194	6
195	3
201	1
202	5
204	142
205	60
206	16
207	11
208	25
209	3
212	1
214	29
215	8
216	4
218	68
219	49
220	22
221	39
222	7
223	1
228	0
229	11
230	7
232	33
233	113
234	16
235	8
243	1
244	11
246	449
247	168
248	54
249	16
250	1
256	11
257	2
260	33
261	19
262	5
263	2
265	1
274	12
289	306
290	48
291	14
292	0
