Mass Spectrum: 7-Octadecynoic acid, methyl ester
Formula: C19H34O2
CAS: 18545-06-7
Molecular weight: 294
m/z	intensity
25	2
26	14
27	270
28	66
29	490
30	12
31	20
32	4
33	4
37	3
38	7
39	210
40	48
41	999
42	120
43	640
44	22
45	34
50	8
51	35
52	75
53	180
54	340
55	680
56	85
57	170
58	13
59	200
60	9
61	4
63	9
64	5
65	90
66	75
67	670
68	230
69	230
70	36
71	60
72	11
73	65
74	170
75	24
76	3
77	150
78	67
79	450
80	310
81	520
82	270
83	160
84	33
85	56
86	5
87	75
88	10
89	3
91	160
92	62
93	300
94	999
95	440
96	180
97	80
98	18
99	18
100	6
101	25
102	3
103	7
104	7
105	47
106	34
107	130
108	200
109	160
110	65
111	27
112	21
113	14
114	19
115	41
116	5
117	14
118	25
119	25
120	11
121	100
122	58
123	54
124	32
125	31
126	11
127	17
128	7
129	13
131	12
132	5
133	14
134	8
135	100
136	390
137	63
138	33
139	10
140	13
141	11
142	3
143	67
145	8
146	3
147	6
149	40
150	130
151	47
152	43
153	9
154	18
155	6
157	4
159	10
161	4
163	24
164	19
165	20
166	22
167	9
168	370
169	41
170	4
173	6
177	16
178	17
179	10
180	20
181	6
182	59
183	7
191	6
192	4
194	11
195	9
196	4
206	4
209	7
210	4
220	64
221	12
223	4
234	5
245	5
262	15
263	48
264	10
294	38
295	8
