Mass Spectrum: Ethanamine, 2-(methylthio)-
Formula: C3H9NS
CAS: 18542-42-2
Molecular weight: 91
m/z	intensity
30	999
40	20
41	20
42	70
43	140
44	200
45	60
46	80
47	10
61	100
62	200
91	360
