Mass Spectrum: 2-Octenoic acid, 7-hydroxy-, ethyl ester
Formula: C10H18O3
CAS: 18545-14-7
Molecular weight: 186
m/z	intensity
26	23
27	315
28	71
29	541
30	18
31	87
36	5
37	2
38	14
39	271
40	130
41	357
42	131
43	659
44	56
45	934
46	27
47	12
50	10
51	24
52	17
53	225
54	82
55	324
56	35
57	137
58	96
59	19
60	24
61	16
62	3
63	17
65	34
66	31
67	303
68	538
69	226
70	138
71	187
72	17
73	261
74	17
75	6
76	5
77	31
78	14
79	203
80	121
81	631
82	148
83	84
84	88
85	90
86	638
87	53
88	86
89	28
91	17
92	4
93	116
94	355
95	999
96	114
97	474
98	522
99	189
100	22
101	186
102	26
103	6
104	6
105	7
107	31
108	10
109	7
110	5
111	92
112	308
113	61
114	680
115	80
116	34
117	19
118	3
119	3
121	20
122	110
123	192
124	23
125	504
126	204
127	146
128	19
129	23
130	25
131	3
137	3
138	5
139	81
140	293
141	74
142	29
143	42
144	23
145	4
153	14
157	5
158	4
167	4
168	106
169	23
170	3
171	22
172	3
184	2
185	8
186	4
187	4
