Mass Spectrum: 8-Octadecynoic acid, methyl ester
Formula: C19H34O2
CAS: 18545-05-6
Molecular weight: 294
m/z	intensity
25	4
26	30
27	280
28	65
29	580
30	13
31	23
32	3
33	5
37	3
38	7
39	250
40	60
41	999
42	140
43	660
44	23
45	50
50	9
51	40
52	90
53	230
54	530
55	860
56	100
57	210
58	12
59	240
60	12
61	5
63	11
64	5
65	110
66	90
67	940
68	580
69	490
70	60
71	60
72	7
73	42
74	240
75	31
77	160
78	60
79	440
80	230
81	830
82	470
83	210
84	50
85	90
86	6
87	110
88	13
89	4
91	150
92	39
93	280
94	230
95	540
96	300
97	130
98	30
99	20
100	5
101	24
102	6
103	7
104	11
105	45
106	60
107	170
108	270
109	210
110	100
111	39
112	8
113	11
114	8
115	40
116	5
117	14
118	6
119	23
120	28
121	130
122	160
123	90
124	70
125	20
126	10
127	27
128	12
129	39
130	4
131	15
132	13
133	17
134	5
135	100
136	80
137	60
138	80
139	18
140	15
141	18
142	4
143	8
144	2
145	8
146	6
147	8
148	3
149	40
150	380
151	63
152	37
153	12
154	10
155	6
156	2
157	4
158	2
159	8
161	5
163	17
164	130
165	27
166	80
167	15
168	11
169	3
173	10
177	10
178	11
179	5
180	42
181	9
182	130
183	17
187	3
191	7
192	5
193	4
196	100
197	12
205	4
206	3
209	4
210	3
220	14
221	7
223	4
234	3
245	7
262	8
263	18
264	3
294	19
295	4
