Mass Spectrum: 2,2,5,5-Tetramethyl-3-(triethylsilyl)dihydrofuran
Formula: C14H28OSi
CAS: 18551-42-3
Molecular weight: 240
m/z	intensity
43	70
59	220
75	140
87	720
115	999
125	50
139	30
153	20
167	30
183	40
196	20
211	90
225	940
240	10
