Mass Spectrum: 1,2-Propanediol, 1-phenyl-
Formula: C9H12O2
CAS: 1855-09-0
Molecular weight: 152
m/z	intensity
18	1
19	2
26	3
27	20
29	23
30	5
31	4
32	2
37	2
38	5
39	35
40	5
41	3
43	32
44	3
45	104
46	3
47	1
49	2
50	44
51	124
52	43
53	29
54	2
55	6
57	11
60	2
61	2
62	14
63	41
64	11
65	28
67	2
72	2
73	2
74	19
75	13
76	12
77	489
78	104
79	897
80	69
81	3
84	3
85	1
86	1
87	3
89	43
90	57
91	60
92	9
102	2
103	9
104	2
105	109
106	15
107	820
108	999
109	73
111	4
114	1
115	15
116	3
117	13
118	7
119	13
134	1
135	3
137	5
