Mass Spectrum: Albuterol
Formula: C13H21NO3
CAS: 18559-94-9
Molecular weight: 239
m/z	intensity
27	20
28	40
29	50
30	999
31	20
39	30
41	90
42	20
43	10
51	20
53	10
55	10
56	20
57	190
58	20
65	20
70	20
71	20
72	20
77	80
78	20
79	40
86	760
87	40
91	20
103	10
107	30
119	10
135	60
188	20
206	40
