Mass Spectrum: 1-Naphthalenemethanol, decahydro-5-(5-hydroxy-3-methyl-3-pentenyl)-1,4a-dimethyl-6-methylene-, [1S-[1.alpha.,4a.alpha.,5.alpha.(E),8a.beta.]]-
Formula: C20H34O2
CAS: 1857-24-5
Molecular weight: 306
m/z	intensity
16	13
17	39
18	162
19	21
27	85
29	208
30	20
31	87
35	11
39	142
40	33
41	663
42	66
43	436
44	110
45	40
47	29
48	17
49	208
50	16
51	97
52	23
53	234
54	34
55	733
56	94
57	234
58	23
59	21
63	14
65	110
66	47
67	515
68	126
69	363
70	45
71	165
72	14
73	11
77	254
78	63
79	535
80	132
81	999
82	360
83	201
84	188
85	51
86	86
88	16
91	396
92	47
93	752
94	191
95	762
96	281
97	195
98	24
99	16
103	30
104	21
105	320
106	109
107	515
108	101
109	432
110	51
111	92
112	12
115	30
116	16
117	65
118	31
119	274
120	114
121	393
122	333
123	290
124	36
125	26
128	17
129	24
130	12
131	75
132	39
133	251
134	118
135	36
136	85
137	55
138	17
139	28
140	10
141	15
143	18
144	12
145	77
146	32
147	224
148	155
149	205
150	32
151	41
152	22
153	366
154	39
157	17
159	74
160	77
161	205
162	47
163	95
164	17
165	35
166	16
171	15
173	82
174	25
175	165
176	37
177	142
178	26
179	31
185	21
187	105
188	32
189	182
190	34
191	35
192	13
193	49
199	18
201	65
202	38
203	57
204	13
205	35
206	17
207	16
208	14
213	15
214	10
215	27
217	30
218	10
219	20
220	35
221	17
227	12
229	25
231	17
232	14
233	10
241	15
243	27
245	97
246	28
247	14
255	50
256	12
257	505
258	101
259	40
260	21
261	31
270	15
273	132
274	27
275	172
276	45
277	14
288	106
289	23
291	100
292	22
