Mass Spectrum: N-(2-Phenylethyl)[3(E),6(Z),8(E)]-decatrienamide
Formula: C18H23NO
CAS: 185815-42-3
Molecular weight: 269
m/z	intensity
40	20
41	270
42	24
43	81
44	23
45	8
50	12
51	63
52	26
53	92
54	26
55	273
56	35
57	55
58	12
59	44
60	51
62	6
63	27
64	6
65	107
66	40
67	105
68	57
69	60
70	16
71	17
72	181
73	30
74	21
75	5
77	270
78	99
79	423
80	106
81	138
82	33
83	27
84	53
85	15
86	31
87	4
89	20
90	9
91	384
92	67
93	297
94	42
95	40
96	43
97	26
98	25
100	9
102	16
103	111
104	517
105	999
106	190
107	163
108	26
109	11
110	23
111	8
112	10
115	33
116	10
117	26
118	15
119	46
120	84
121	112
122	112
123	22
124	13
125	4
128	18
129	23
130	11
131	19
132	10
133	13
135	9
136	20
137	11
141	6
143	7
144	11
145	12
147	8
148	74
149	59
150	22
151	4
156	9
158	5
159	16
160	5
161	15
162	4
163	133
164	29
165	4
167	6
176	9
177	9
178	46
179	8
187	212
188	76
189	17
200	24
201	16
202	121
203	24
204	7
214	8
215	5
216	5
240	18
254	31
255	10
268	25
269	668
270	134
271	18
