Mass Spectrum: Cholestan-3-one, cyclic 1,2-ethanediyl acetal, (5.alpha.)-
Formula: C29H50O2
CAS: 1858-14-6
Molecular weight: 430
m/z	intensity
40	150
41	280
42	60
43	320
44	70
45	20
51	20
53	40
54	30
55	310
56	90
57	280
58	20
60	40
63	20
65	20
67	110
68	50
69	200
70	70
71	140
72	20
73	90
74	20
75	20
76	30
77	60
78	20
79	80
80	30
81	160
82	60
83	140
84	50
85	90
86	60
87	30
91	80
92	30
93	80
94	40
95	150
96	60
97	120
98	30
99	999
100	140
101	30
104	20
105	80
106	20
107	70
108	30
109	100
110	40
111	80
112	120
113	30
115	30
117	30
118	20
120	20
121	50
122	30
123	60
124	20
125	450
126	60
127	20
128	30
129	40
131	30
132	20
133	50
134	20
135	80
136	20
137	40
138	20
139	30
141	30
142	20
143	20
145	30
147	40
148	20
149	80
150	20
151	30
152	30
153	30
154	20
155	40
156	20
157	30
159	30
161	30
163	40
165	30
166	20
167	20
169	40
170	20
173	20
177	30
178	20
179	20
180	20
181	20
183	40
184	20
185	20
187	20
189	20
191	20
192	20
193	20
195	20
197	20
198	20
199	20
205	20
207	30
213	20
217	20
231	30
253	20
281	20
327	20
343	20
373	20
386	20
405	20
415	20
430	190
431	60
