Mass Spectrum: Furo[3',2'-3,4]cyclopenta[1,2-d][1,3]-dioxin-6-one, perhydro-2-methyl-
Formula: C10H14O4
CAS: 185998-07-6
Molecular weight: 198
m/z	intensity
38	7
39	507
40	228
41	378
42	226
43	774
44	339
45	190
46	46
49	20
50	15
51	52
52	58
53	312
54	999
55	925
56	142
57	39
58	1
63	0
65	61
66	60
67	318
68	198
69	77
70	25
71	98
72	11
77	38
78	39
79	182
80	114
81	205
82	456
83	211
84	70
85	24
91	30
92	3
93	5
94	2
95	87
96	72
97	40
98	61
99	7
107	9
108	16
109	97
110	72
111	45
112	18
119	5
124	53
125	50
126	399
127	115
137	112
138	40
139	0
154	239
155	128
156	7
182	0
183	423
184	131
185	3
197	21
198	1
207	0
