Mass Spectrum: 1-Butene, 4-bromo-3,3,4,4-tetrafluoro-
Formula: C4H3BrF4
CAS: 18599-22-9
Molecular weight: 206
m/z	intensity
26	18
27	79
28	27
29	0
30	0
31	20
32	3
33	2
34	0
36	0
37	1
38	4
39	18
40	0
41	0
43	0
44	2
45	2
46	1
50	6
51	205
52	2
55	0
56	6
57	36
58	5
59	1
62	0
63	2
64	7
65	0
67	0
68	0
69	8
70	0
74	0
75	33
76	14
77	999
78	31
79	1
80	0
81	2
82	2
85	0
87	1
88	4
89	1
93	1
95	1
100	27
101	1
105	0
106	2
107	5
108	69
109	3
110	1
111	3
112	0
113	2
117	0
126	4
127	218
128	10
129	18
130	0
131	18
135	0
137	5
138	0
139	6
140	0
142	0
143	0
144	1
155	0
157	0
160	3
162	2
163	0
167	0
169	1
179	3
181	3
187	2
189	2
206	0
207	0
208	0
