Mass Spectrum: 6-(Chloromethyl)uracil
Formula: C5H5ClN2O2
CAS: 18592-13-7
Molecular weight: 160
m/z	intensity
12	1
13	3
14	5
15	4
16	3
24	1
25	7
26	39
27	62
28	71
29	8
30	2
32	4
34	2
35	6
36	13
37	13
38	29
39	53
40	59
41	87
42	42
43	23
44	22
45	1
47	4
48	6
49	25
50	4
51	18
52	53
53	20
54	22
55	75
56	6
57	2
60	3
61	23
62	4
63	9
64	1
65	2
66	4
67	23
68	999
69	43
70	22
71	1
72	2
73	5
74	3
75	9
76	36
77	4
78	11
79	1
80	1
81	2
82	7
83	7
84	1
85	1
86	1
87	1
88	11
89	5
90	6
91	2
93	1
95	1
97	47
98	3
103	1
104	2
106	1
109	1
110	2
111	2
116	2
117	440
118	29
119	142
120	9
123	1
125	20
126	2
131	2
132	1
133	1
160	479
161	33
162	152
163	10
164	1
