Mass Spectrum: Pyrido[2,3-d]thiazolo[3,2-b]pyridazin-4-ium, 3-methyl-, perchlorate
Formula: C10H8ClN3O4S
CAS: 18592-56-8
Molecular weight: 301
m/z	intensity
26	78
27	111
28	154
29	19
30	84
35	43
36	192
37	41
38	94
39	219
40	25
41	19
42	19
43	45
44	386
45	380
46	39
47	25
48	45
49	19
50	68
51	74
52	62
53	19
54	15
57	27
58	23
61	15
62	25
63	29
64	74
69	82
70	58
71	835
72	999
73	80
74	58
75	70
76	192
77	66
78	15
83	19
87	15
88	21
89	19
94	23
101	19
102	39
103	164
104	31
105	19
129	58
130	211
131	35
147	21
156	15
187	25
200	23
201	947
202	133
203	58
