Mass Spectrum: Cyclobutane, methoxy-
Formula: C5H10O
CAS: 18593-33-4
Molecular weight: 86
m/z	intensity
31	57
39	55
41	50
42	47
43	268
44	39
45	28
50	7
51	7
53	36
55	131
56	5
57	34
58	999
59	60
68	0
69	3
70	4
71	5
83	1
84	0
85	3
86	21
87	1
