Mass Spectrum: Aziridinone, 1-(1,1-dimethylethyl)-3-(3,5,7-trimethyltricyclo[3.3.1.1(3,7)]dec-1-yl)-
Formula: C19H31NO
CAS: 18606-19-4
Molecular weight: 289
m/z	intensity
40	50
41	600
42	270
43	110
52	50
53	30
54	50
55	130
56	180
57	999
58	60
65	20
66	30
67	80
68	50
69	210
70	30
78	40
79	70
80	50
81	40
82	30
83	30
84	50
91	100
92	70
93	70
94	20
95	50
96	30
103	20
104	10
105	80
106	70
107	80
108	30
109	20
110	10
115	10
117	10
118	10
119	80
120	10
121	320
122	80
130	20
131	30
132	50
133	40
134	20
141	30
145	3
146	2
147	3
150	2
152	2
156	2
157	12
158	2
159	3
160	3
161	14
162	5
163	15
165	2
174	2
175	6
176	4
177	54
178	12
188	6
189	17
190	3
204	2
205	10
206	22
207	3
208	2
232	13
233	2
246	50
247	8
261	46
274	2
289	2
