Mass Spectrum: Methylone
Formula: C11H13NO3
CAS: 186028-79-5
Molecular weight: 207
m/z	intensity
15	6
26	1
27	7
28	27
29	16
30	59
31	1
32	2
37	3
38	4
39	15
40	2
41	8
42	34
43	20
44	2
49	1
50	6
51	8
52	2
53	9
54	3
55	5
56	60
57	16
58	999
59	37
60	1
61	4
62	20
63	55
64	8
65	56
66	4
74	4
75	2
76	2
77	4
78	1
79	3
89	2
90	1
91	22
92	4
93	1
94	1
95	1
102	1
103	1
104	1
105	1
117	1
118	1
119	6
120	5
121	47
122	6
123	1
134	1
135	5
136	1
146	1
147	1
148	2
149	48
150	5
151	1
162	2
163	1
164	1
176	2
177	1
178	1
192	1
205	1
207	1
