Mass Spectrum: 2-Styryl-benzo[d][1,3]oxazin-4-one
Formula: C16H11NO2
CAS: 18600-57-2
Molecular weight: 249
m/z	intensity
37	16
38	115
39	278
40	12
41	4
42	1
44	2
45	2
46	0
50	457
51	456
52	107
53	50
54	2
55	0
58	1
59	0
61	32
62	132
63	426
64	241
65	54
67	1
68	1
69	0
70	1
72	0
73	17
74	168
75	186
76	324
77	999
78	72
79	6
80	0
81	0
82	3
83	20
85	3
87	32
88	34
90	767
91	109
92	58
93	3
95	8
97	9
98	8
99	7
100	11
102	468
103	679
104	65
105	7
106	0
109	0
110	26
111	1
113	6
115	19
116	14
117	18
119	307
120	19
121	0
124	24
126	1
127	5
128	29
129	25
131	278
132	22
133	0
139	3
140	4
141	0
144	5
146	160
147	11
150	1
151	6
152	5
153	0
154	0
163	3
165	24
166	5
167	2
172	0
174	0
175	2
176	5
177	8
178	6
179	4
180	1
190	5
191	11
192	20
193	51
194	4
201	1
202	6
204	105
205	32
206	4
207	0
216	0
218	4
220	159
221	31
222	3
248	440
249	305
250	46
251	4
