Mass Spectrum: Heneicosanoic acid, 4-methyl-2-methylene-, ethyl ester, D-
Formula: C25H48O2
CAS: 18607-50-6
Molecular weight: 380
m/z	intensity
17	10
26	10
27	36
28	10
29	96
30	2
31	4
39	30
40	4
41	220
42	50
43	350
44	20
45	14
50	2
51	2
52	2
53	20
54	24
55	224
56	100
57	320
58	24
59	16
65	2
66	2
67	84
68	50
69	200
70	54
71	164
72	10
73	16
74	10
75	2
77	4
78	2
79	16
80	2
81	76
82	24
83	116
84	24
85	104
86	200
87	40
88	20
89	2
91	10
93	14
94	2
95	76
96	24
97	80
98	24
99	30
101	24
102	196
103	14
105	2
107	10
108	2
109	50
110	20
111	40
112	20
113	40
114	999
115	440
116	40
117	4
119	2
121	4
122	2
123	24
124	20
125	20
126	10
127	16
128	10
129	4
135	2
136	2
137	10
138	2
139	10
140	2
141	24
142	10
143	16
151	2
152	2
153	4
154	2
155	14
156	20
157	4
161	2
163	2
165	2
167	2
168	20
169	2
170	2
171	2
181	2
183	10
184	2
185	2
197	4
199	2
207	2
211	2
221	2
239	2
249	2
266	10
267	2
268	2
278	2
279	20
280	4
281	4
284	4
285	2
291	2
292	2
305	2
306	2
307	2
309	4
311	10
312	2
334	20
335	30
336	4
337	2
339	2
380	90
381	20
382	10
