Mass Spectrum: Dithiocarbonic acid, o-ethyl-S-(4-bromobenzoylmethyl) ester
Formula: C11H11BrO2S2
CAS: 1861-48-9
Molecular weight: 318
m/z	intensity
12	6
13	2
14	15
15	37
16	19
17	142
18	556
19	4
20	1
25	2
26	37
27	283
28	64
29	999
30	25
31	20
32	34
33	8
34	6
35	9
36	1
37	7
38	19
39	32
40	4
41	17
42	23
43	37
44	26
45	96
46	48
47	50
48	4
49	8
50	192
51	47
52	5
53	5
54	1
55	8
56	3
57	10
58	6
59	6
60	30
61	50
62	20
63	44
64	20
65	17
66	2
67	3
68	1
69	16
70	3
71	5
72	1
73	10
74	83
75	213
76	231
77	55
78	12
79	10
80	7
81	8
82	10
83	4
84	2
85	4
86	4
87	5
88	4
89	115
90	106
91	19
93	62
94	3
95	9
96	1
97	3
98	2
99	1
100	1
101	4
102	12
103	7
104	39
105	16
106	3
107	33
108	7
109	6
110	1
111	2
112	1
113	1
115	1
116	1
117	5
118	4
119	5
120	3
121	28
122	27
123	8
124	2
125	1
128	2
129	10
130	3
131	10
132	2
133	5
134	6
135	49
136	6
137	7
143	4
145	4
149	6
150	177
151	33
152	13
153	3
155	271
156	33
157	272
158	28
159	2
163	3
166	3
167	3
169	59
170	6
171	59
172	5
178	2
179	4
180	2
181	15
183	893
184	76
185	887
186	74
187	6
188	1
189	1
197	6
198	54
199	22
200	56
201	19
202	2
203	5
209	1
211	6
212	5
213	10
214	6
215	4
216	2
217	1
225	2
227	2
229	25
230	54
231	30
232	54
233	9
234	3
235	1
243	1
246	3
247	1
248	3
257	18
258	120
259	32
260	123
261	15
262	6
273	3
274	1
275	3
276	1
285	70
286	11
287	70
288	10
289	4
290	0
291	0
318	12
319	2
320	13
321	2
322	1
