Mass Spectrum: 2,6-Diamino-8-azapurine
Formula: C4H5N7
CAS: 18620-97-8
Molecular weight: 151
m/z	intensity
41	2
42	80
43	999
44	38
53	267
54	337
68	66
69	59
81	381
82	25
95	13
96	197
97	13
122	23
123	13
151	974
152	68
