Mass Spectrum: Dibenzene, 1,1':4,4'-bis(1,2-ethanediyl)-2-[hydroxy(4-methylphenyl)methyl]-3-isopropoxy-
Formula: C27H30O2
CAS: 186269-31-8
Molecular weight: 386
m/z	intensity
33	1
36	0
37	3
39	100
41	395
43	999
45	6
49	1
50	6
51	16
52	8
53	4
55	9
56	3
57	5
59	8
60	0
62	0
63	6
64	7
65	31
66	3
67	1
68	2
69	2
70	0
71	1
72	0
74	2
75	2
77	44
78	73
79	8
81	1
82	0
83	0
84	0
86	0
87	0
89	19
91	71
92	11
93	4
94	1
97	0
99	1
103	86
104	168
105	25
106	1
107	0
108	0
112	0
113	0
115	13
116	3
117	7
118	3
119	14
120	6
121	2
123	0
126	0
127	2
128	5
129	2
130	0
131	0
132	0
133	1
134	0
135	0
139	2
140	0
141	3
142	0
144	0
145	0
146	0
147	10
148	2
149	1
150	0
151	1
152	7
153	3
154	0
155	1
157	0
159	1
160	0
161	1
162	0
163	1
164	2
165	13
166	4
167	1
168	0
173	0
176	3
177	2
178	23
179	18
181	4
185	0
187	0
189	4
190	2
191	5
192	3
193	8
194	5
195	3
196	1
202	1
204	1
205	2
206	2
207	9
208	3
209	2
210	1
211	0
215	1
217	0
218	0
219	1
220	2
221	20
222	8
223	5
224	2
225	1
230	0
233	1
234	1
235	1
236	0
237	2
238	1
239	10
240	2
241	0
242	0
249	0
251	0
252	0
263	0
265	1
266	0
267	0
269	0
275	0
279	0
281	0
293	0
310	0
311	1
315	0
324	0
325	0
326	2
327	0
342	0
343	1
344	0
369	0
386	0
387	0
