Mass Spectrum: D-Arabinose, 4TMS derivative
Formula: C17H42O5Si4
CAS: 18622-97-4
Molecular weight: 438
m/z	intensity
15	10
26	2
27	3
29	5
31	3
39	6
40	1
41	9
43	16
44	19
45	78
46	6
47	9
53	6
55	7
57	4
58	7
59	47
60	5
61	8
67	5
68	3
69	33
70	4
71	5
72	19
73	999
74	87
75	84
76	6
77	5
85	5
87	3
89	7
97	4
99	5
101	45
102	7
103	42
104	5
105	4
113	4
115	8
116	25
117	26
118	4
119	7
120	3
127	5
129	47
130	6
131	27
132	5
133	56
134	9
135	2
141	4
143	11
145	5
147	223
148	36
149	27
150	4
151	5
154	5
157	7
158	4
159	3
161	6
169	10
171	3
172	8
174	8
175	8
176	6
177	6
181	6
189	40
190	12
191	340
192	58
193	31
194	5
203	9
204	473
205	100
206	42
207	6
215	7
217	491
218	106
219	49
220	9
221	12
222	3
230	7
231	10
232	4
235	5
243	12
259	16
260	5
265	7
279	6
280	7
282	6
291	15
292	5
305	29
306	10
307	6
333	18
334	6
335	4
