Mass Spectrum: Benzenesulfonic acid, 4-nitro-, 2-aminophenyl ester
Formula: C12H10N2O5S
CAS: 18631-75-9
Molecular weight: 294
m/z	intensity
33	3
34	3
36	3
37	17
38	48
39	117
40	47
41	33
42	13
43	12
44	18
45	15
46	12
48	21
50	263
51	177
52	282
53	338
54	70
55	15
56	3
57	9
58	4
59	1
60	2
61	8
62	18
63	60
64	54
65	38
66	8
67	4
69	22
70	14
71	4
72	1
73	6
74	51
75	100
76	153
77	36
78	45
80	999
81	63
83	8
84	3
85	1
86	1
87	1
88	1
89	2
90	2
91	8
92	36
93	8
94	2
95	9
96	6
97	4
98	1
99	0
100	0
101	0
102	1
103	0
104	1
106	13
108	898
109	77
110	7
111	1
112	2
113	1
114	0
115	1
116	0
117	0
119	1
120	0
122	43
123	6
124	4
125	3
126	1
127	2
128	2
129	0
130	0
131	0
132	0
133	0
134	0
135	0
137	0
138	1
139	1
140	3
141	1
142	0
143	0
144	0
145	0
146	0
147	0
151	0
152	0
153	0
154	2
155	2
156	2
157	0
158	0
159	0
164	0
165	0
166	0
167	0
170	1
171	2
172	0
182	0
183	0
184	0
186	10
187	0
188	0
200	0
230	0
264	1
265	0
286	0
294	15
295	2
296	0
297	0
