Mass Spectrum: o-Toluamidine
Formula: C8H10N2
CAS: 18636-97-0
Molecular weight: 134
m/z	intensity
39	142
41	47
43	261
45	4
46	2
50	61
51	70
52	42
53	13
54	7
55	1
56	0
57	2
59	31
61	21
62	53
63	113
65	213
66	26
67	3
69	1
74	19
75	17
76	23
77	24
78	13
79	10
80	5
81	0
83	0
84	1
85	8
86	12
87	11
89	113
91	400
92	41
93	2
95	0
98	0
99	0
100	0
102	5
103	2
104	8
106	25
107	19
108	0
110	0
111	0
114	2
116	71
118	999
119	72
120	1
131	3
134	657
135	47
136	1
