Mass Spectrum: Ether, hexyl isopropyl
Formula: C9H20O
CAS: 18636-65-2
Molecular weight: 144
m/z	intensity
41	130
42	70
43	999
44	30
45	90
55	90
56	80
57	80
59	30
61	50
69	20
73	220
74	10
83	10
84	30
85	430
86	20
129	120
130	10
144	10
