Mass Spectrum: 2-Butenal, (1-methylethyl)hydrazone
Formula: C7H14N2
CAS: 18631-71-5
Molecular weight: 126
m/z	intensity
26	295
27	295
28	180
29	98
30	84
39	328
40	51
41	607
42	361
43	270
44	869
45	25
53	79
54	49
55	131
56	213
57	36
58	64
67	62
68	295
69	279
70	66
81	23
82	90
83	559
84	46
111	999
112	72
126	599
127	51
