Mass Spectrum: 2-Pyrazoline, 3-ethyl-1-isopropyl-
Formula: C8H16N2
CAS: 18631-72-6
Molecular weight: 140
m/z	intensity
26	7
27	64
29	33
30	13
39	38
41	81
42	121
43	33
52	4
53	10
54	43
55	18
56	310
57	11
67	4
68	17
69	36
70	27
81	6
82	11
83	40
84	4
95	6
96	4
97	76
98	8
110	5
111	6
123	6
124	6
125	999
126	80
139	12
140	133
141	13
