Mass Spectrum: Difluorophosphinothioyl fluorosulfate
Formula: F3O3PS2
CAS: 18643-33-9
Molecular weight: 200
m/z	intensity
32	244
47	74
48	46
50	84
64	284
67	95
69	999
80	85
82	31
83	785
98	95
101	379
117	74
200	173
