Mass Spectrum: Methylamine, N-(1-methylheptylidene)-
Formula: C9H19N
CAS: 18641-72-0
Molecular weight: 141
m/z	intensity
29	50
30	80
39	20
41	80
42	160
43	100
54	10
55	30
56	720
57	90
58	30
68	10
69	10
70	30
71	999
72	180
73	10
84	180
85	40
98	50
126	20
