Mass Spectrum: 4-Amino-1-(4-fluorophenyl)-6-oxo-1,4,5,6-tetrahydro[1,2,4]triazine-3-carboxylic acid, methyl ester
Formula: C11H11FN4O3
CAS: 186404-59-1
Molecular weight: 266
m/z	intensity
26	2
27	18
28	68
29	19
30	64
31	12
32	1
33	6
35	10
36	3
37	3
38	7
39	11
40	8
41	13
42	58
43	91
44	158
45	18
46	1
47	39
48	18
49	12
50	11
51	12
52	8
53	10
54	36
55	11
56	12
57	44
58	10
59	119
60	3
61	2
62	21
63	26
64	8
65	3
67	1
68	6
69	13
70	45
71	14
72	4
73	1
74	4
75	66
76	7
77	5
78	1
79	1
80	0
81	21
82	134
83	179
84	9
85	100
86	15
87	17
88	3
89	58
90	6
91	2
92	0
93	1
94	6
95	271
96	30
97	8
98	1
99	1
100	1
101	22
102	1
103	0
104	4
105	1
106	1
107	4
108	26
109	999
110	100
111	39
112	3
113	0
114	0
115	38
116	2
117	2
118	4
119	15
120	4
121	4
122	23
123	128
124	29
125	16
126	8
127	0
128	10
129	5
130	0
131	0
132	0
133	1
134	2
135	25
136	14
137	89
138	10
139	1
147	0
149	6
150	7
151	5
152	5
153	1
161	0
162	1
163	6
164	2
165	0
177	1
178	1
179	1
180	0
189	0
190	262
191	30
192	2
193	0
194	27
195	3
205	1
206	2
207	1
208	0
210	5
211	0
218	0
221	1
222	30
223	5
224	1
234	3
235	21
236	14
237	382
238	57
239	6
240	0
247	0
249	5
250	1
251	8
252	1
265	2
266	803
267	108
268	11
269	0
