Mass Spectrum: Methylamine, N-(1-ethylpentylidene)-
Formula: C8H17N
CAS: 18641-73-1
Molecular weight: 127
m/z	intensity
40	150
41	30
42	260
43	999
44	60
45	20
51	20
52	20
53	40
54	80
55	130
56	270
57	150
67	20
68	130
69	30
70	850
71	60
82	20
84	70
85	520
86	30
98	480
99	40
112	20
125	10
126	10
127	30
