Mass Spectrum: Methylamine, N-(1-ethylhexylidene)-
Formula: C9H19N
CAS: 18641-74-2
Molecular weight: 141
m/z	intensity
41	178
42	861
43	376
44	49
53	19
54	39
55	148
56	306
57	148
58	19
67	9
68	69
69	19
70	999
71	108
72	59
82	9
83	9
84	79
85	920
86	59
96	9
98	188
99	69
112	475
113	29
141	9
