Mass Spectrum: Methylamine, N-(1-butylhexylidene)-
Formula: C11H23N
CAS: 18641-76-4
Molecular weight: 169
m/z	intensity
29	90
30	30
39	20
41	101
42	515
43	111
54	10
55	70
56	40
57	30
68	20
70	20
71	999
72	121
84	151
85	50
98	303
99	30
112	222
113	60
126	70
127	40
140	80
141	10
