Mass Spectrum: 2,6,7-Trioxa-1-phosphabicyclo[2.2.2]octane, 4-propyl-
Formula: C7H13O3P
CAS: 18644-16-1
Molecular weight: 176
m/z	intensity
39	510
40	130
41	850
42	110
43	240
47	430
53	340
54	290
55	990
67	999
68	80
69	80
81	170
82	750
83	170
103	100
109	210
117	550
131	680
146	640
176	280
