Mass Spectrum: Methylamine, N-(1-isopropylhexylidene)-
Formula: C10H21N
CAS: 18641-77-5
Molecular weight: 155
m/z	intensity
41	240
42	999
43	390
44	60
54	30
55	40
56	200
57	80
58	40
59	30
68	80
69	30
70	60
71	150
82	40
84	390
85	60
99	360
100	70
101	80
112	920
113	80
