Mass Spectrum: Methylamine, N-(1-propylpentylidene)-
Formula: C9H19N
CAS: 18641-75-3
Molecular weight: 141
m/z	intensity
29	110
30	60
39	40
40	10
41	180
42	999
43	110
44	10
53	10
54	20
55	60
56	60
57	80
58	10
67	10
68	30
69	10
70	30
71	830
72	70
82	10
83	10
84	600
85	60
96	10
98	410
99	270
100	20
112	140
113	20
126	50
127	10
140	10
141	20
