Mass Spectrum: Methanetricarboxaldehyde
Formula: C4H4O3
CAS: 18655-47-5
Molecular weight: 100
m/z	intensity
40	36
41	130
42	261
43	239
44	43
45	22
52	22
53	341
54	326
55	94
68	25
69	87
70	43
71	362
72	999
73	79
99	14
100	413
101	29
