Mass Spectrum: N-(3,6-Dimethylocta-1,7-dien-3-yl)-1H-benzimidazole
Formula: C17H22N2
CAS: 186527-81-1
Molecular weight: 254
m/z	intensity
50	19
51	33
52	18
53	91
54	14
55	278
56	9
57	18
58	44
59	5
64	35
65	50
66	11
67	153
68	143
69	127
70	7
75	114
76	65
77	187
78	25
79	97
80	32
81	559
82	47
83	21
89	19
90	79
91	166
92	51
93	103
94	48
95	239
96	16
97	5
102	55
103	36
104	38
105	17
107	78
108	24
109	17
115	67
116	21
117	69
118	999
119	871
120	69
121	77
128	18
129	62
130	23
131	187
132	58
133	21
143	55
144	39
145	78
146	5
147	15
152	2
155	34
156	220
157	85
158	14
169	110
170	49
171	941
172	190
173	30
182	6
183	52
184	27
185	95
186	68
197	47
198	9
199	22
213	21
225	11
226	14
239	52
253	22
254	176
255	28
