Mass Spectrum: Methyl 2-phenyl-prop-2-enoate
Formula: C10H10O2
CAS: 1865-29-8
Molecular weight: 162
m/z	intensity
50	61
51	160
77	300
103	999
131	200
132	50
162	557
