Mass Spectrum: Ethyl(dimethyl)benzyloxysilane
Formula: C11H18OSi
CAS: 186669-85-2
Molecular weight: 194
m/z	intensity
26	11
27	23
29	23
31	18
39	49
40	9
41	22
42	11
43	45
44	19
45	68
46	9
47	22
50	25
51	47
52	18
53	18
55	9
57	13
58	21
59	126
60	23
61	28
62	11
63	35
64	11
65	136
66	15
67	11
68	11
73	19
74	17
75	38
76	25
77	55
78	22
79	67
80	12
81	9
83	28
87	38
89	37
90	22
91	999
92	84
93	21
95	12
103	9
104	9
105	28
106	18
107	36
108	39
109	9
111	18
119	9
121	43
122	8
123	6
131	5
133	15
134	8
135	372
136	53
137	22
145	8
147	12
148	9
149	112
150	24
151	22
161	9
163	13
164	13
165	772
166	115
167	39
168	8
179	93
180	22
181	9
193	11
194	9
195	1
