Mass Spectrum: 5-Hexen-1-ol, 2-(2-methyl-1-propenyl)-
Formula: C10H18O
CAS: 18675-19-9
Molecular weight: 154
m/z	intensity
26	11
27	219
28	42
29	183
30	4
31	82
32	4
36	0
37	3
38	9
39	249
40	34
41	706
42	39
43	233
44	9
45	6
46	0
47	0
49	0
50	11
51	36
52	17
53	145
54	42
55	300
56	32
57	107
58	8
59	26
60	1
61	0
62	2
63	9
64	3
65	43
66	30
67	588
68	51
69	999
70	70
71	19
72	6
73	1
74	1
75	2
76	1
77	56
78	17
79	136
80	81
81	554
82	101
83	32
84	10
85	17
86	2
87	0
89	1
90	1
91	39
92	13
93	80
94	32
95	82
96	37
97	21
98	22
99	15
100	9
101	0
102	0
103	2
104	1
105	12
106	3
107	28
108	33
109	10
110	9
111	21
112	8
113	3
115	0
116	0
117	1
118	0
119	6
120	2
121	50
122	13
123	535
124	56
125	4
126	8
127	0
133	1
134	1
135	2
136	28
137	5
138	2
139	15
140	1
148	0
152	2
