Mass Spectrum: Thiazolidine-2-thione, 5-trifluoromethyl-
Formula: C4H4F3NS2
CAS: 186791-21-9
Molecular weight: 187
m/z	intensity
33	150
34	42
35	7
36	7
37	23
38	46
39	117
40	177
41	235
42	117
43	131
44	249
45	727
46	153
47	92
48	12
49	3
50	75
51	224
52	37
53	33
55	117
56	75
57	148
58	409
59	999
60	102
61	69
62	17
63	112
64	322
65	44
66	40
67	30
69	589
70	95
71	57
72	539
73	128
74	61
75	178
76	240
77	196
78	37
79	27
80	5
81	11
82	44
83	27
84	33
85	9
86	11
87	20
88	35
89	20
90	95
91	75
92	18
93	12
94	23
95	65
96	25
97	4
98	15
102	16
103	10
106	4
107	45
108	53
109	97
110	15
111	25
112	23
113	18
114	14
115	6
116	52
117	12
118	50
119	3
122	8
124	11
126	13
127	32
128	126
129	46
130	4
134	11
136	4
138	23
139	15
142	5
149	2
152	4
154	3
185	5
187	493
188	41
189	51
