Mass Spectrum: Propanoic acid, 3-(ethylthio)-, methyl ester
Formula: C6H12O2S
CAS: 18673-13-7
Molecular weight: 148
m/z	intensity
27	110
29	80
41	60
45	220
47	210
55	140
57	140
58	120
59	430
60	400
61	460
62	60
73	60
75	700
77	160
86	460
88	999
89	490
116	70
117	250
119	190
148	999
149	90
150	60
