Mass Spectrum: 6-(3-Methyl-3-cyclohexenyl)-2-methyl-2,6-heptadienol
Formula: C15H24O
CAS: 18681-09-9
Molecular weight: 220
m/z	intensity
39	320
41	720
43	999
53	290
55	390
68	300
71	590
77	390
79	700
81	330
83	340
91	460
92	250
93	800
94	270
95	230
105	290
107	280
119	410
134	300
152	210
