Mass Spectrum: Propanetrione, 1-(2-furyl)-, 2-phenylhydrazone
Formula: C13H10N2O3
CAS: 186965-61-7
Molecular weight: 242
m/z	intensity
37	16
38	62
39	443
40	44
41	21
42	9
43	4
44	7
45	1
49	0
50	24
51	144
52	42
53	70
54	25
55	33
56	3
57	2
61	1
62	11
63	51
64	80
65	447
66	102
67	71
68	51
69	27
70	1
71	1
74	3
75	7
76	13
77	486
78	38
79	9
80	6
81	48
82	6
83	2
85	2
87	1
89	4
90	11
91	84
92	307
93	580
94	90
95	999
96	60
97	8
100	2
102	4
103	6
104	10
105	39
106	3
107	4
108	5
109	7
110	4
111	4
115	11
116	3
117	3
119	25
120	9
122	706
123	59
124	4
128	20
129	28
130	245
131	33
132	2
133	0
136	3
137	8
139	3
141	3
144	1
145	13
146	8
147	5
155	0
156	1
157	41
158	130
159	35
160	4
167	1
168	4
169	10
170	2
171	1
173	15
174	7
175	0
184	4
185	77
186	18
187	3
195	2
197	15
198	3
201	0
213	224
214	146
215	16
225	3
241	189
242	602
243	91
244	9
