Mass Spectrum: Propan-1-one, 3-(5-methyl-3-isoxazolylamino)-1-phenyl-
Formula: C13H14N2O2
CAS: 186956-50-3
Molecular weight: 230
m/z	intensity
33	1
34	1
38	4
39	32
40	22
41	32
42	93
43	163
44	14
45	1
50	20
51	87
52	14
53	10
54	24
55	63
56	30
57	23
58	3
63	5
64	2
65	10
66	11
67	18
68	48
69	8
70	33
71	3
72	1
74	4
75	5
77	369
78	51
79	9
80	7
81	10
82	29
83	48
84	43
85	8
88	3
89	3
90	1
91	19
92	5
93	2
94	12
95	3
96	1
97	4
98	39
99	9
100	3
102	2
103	18
105	999
106	65
107	7
108	1
109	19
111	365
112	20
113	2
115	5
116	1
117	1
118	2
119	4
120	26
121	3
122	1
125	348
126	20
127	3
128	1
129	1
130	4
131	4
132	5
133	20
134	3
143	1
144	1
145	1
146	15
147	3
148	21
149	2
153	6
159	6
160	2
169	1
170	2
171	2
172	1
174	1
185	1
186	2
187	187
188	24
189	2
198	1
199	2
201	2
213	11
214	3
215	4
229	5
230	24
231	3
