Mass Spectrum: Furane-2-carboxylic acid, 5-aminomethyl-, ethyl ester
Formula: C8H11NO3
CAS: 18707-63-6
Molecular weight: 169
m/z	intensity
33	3
39	77
41	146
42	29
43	29
44	10
45	12
48	1
50	11
51	45
52	37
53	16
54	10
55	7
56	3
57	3
61	3
63	0
64	4
65	12
66	26
67	48
68	148
69	32
70	4
78	127
79	39
80	10
81	6
82	1
83	1
84	3
91	1
92	0
94	25
96	999
97	53
107	0
108	5
109	4
110	1
111	0
112	4
113	6
119	0
120	1
122	31
123	14
124	81
125	56
126	3
135	0
136	0
138	5
140	144
141	8
142	0
149	4
150	3
151	1
153	19
154	2
164	3
165	17
166	2
168	28
169	94
170	6
