Mass Spectrum: 6-Methyl-.alpha.-2-pyridyl-2-trifluoromethyl quinoline-4-methanol
Formula: C17H13F3N2O
CAS: 18709-90-5
Molecular weight: 318
m/z	intensity
41	18
43	10
45	11
50	46
51	226
52	283
53	142
54	9
55	2
57	9
62	24
63	85
64	20
65	64
66	2
67	6
69	28
70	2
71	3
74	16
75	42
76	24
77	30
78	596
79	853
80	265
81	24
82	11
84	26
86	11
87	22
88	33
89	98
90	18
91	16
92	20
95	28
97	21
98	2
99	10
100	2
101	27
102	42
103	8
104	5
106	106
108	999
109	84
110	31
111	14
113	32
114	40
115	167
116	53
117	15
119	2
121	2
123	12
124	19
125	13
126	11
127	15
128	19
133	10
134	22
135	6
138	2
139	11
140	80
141	44
142	104
143	18
148	11
149	20
150	37
151	20
152	15
153	2
158	13
160	23
163	7
164	10
165	8
172	10
176	16
177	8
189	5
190	26
191	28
192	44
193	2
202	8
203	2
204	2
210	46
211	52
212	29
216	8
219	15
220	15
221	2
224	11
229	5
231	2
240	83
241	10
247	9
249	16
269	9
273	26
285	12
286	15
287	68
288	20
289	21
297	14
298	5
299	52
300	30
301	48
302	14
303	34
315	10
316	18
317	110
318	245
319	53
