Mass Spectrum: .alpha.-2-Pyridyl-4-[2-trifluoromethylquinoline]methanol
Formula: C16H11F3N2O
CAS: 18706-55-3
Molecular weight: 304
m/z	intensity
41	11
43	3
45	4
47	2
49	25
50	116
51	480
52	470
53	217
54	14
55	8
57	10
61	3
62	30
63	68
64	20
65	12
67	8
69	66
71	2
74	59
75	221
76	79
77	120
78	759
79	928
80	354
81	40
82	3
83	7
84	13
86	16
87	19
88	19
89	32
90	42
92	17
94	3
95	26
96	9
98	10
99	24
100	34
101	238
102	73
103	57
104	6
105	8
106	92
108	999
109	80
110	2
111	4
112	2
113	12
114	7
116	2
117	15
118	17
125	9
126	13
127	39
128	247
129	37
133	8
134	21
138	8
139	5
140	6
141	8
142	15
143	30
146	41
147	8
150	11
151	22
152	17
156	5
158	20
163	5
164	6
176	35
177	16
178	58
179	10
180	2
188	2
189	5
190	13
196	34
197	32
198	16
203	7
205	30
206	15
207	8
216	18
217	13
218	11
226	27
233	9
234	2
235	15
236	5
255	10
273	63
274	16
275	15
283	13
285	89
286	64
287	54
288	9
301	19
302	27
303	83
304	279
305	65
306	8
