Mass Spectrum: 2-Butenoic acid, methyl ester
Formula: C5H8O2
CAS: 18707-60-3
Molecular weight: 100
m/z	intensity
25	3
26	11
27	12
28	19
30	2
33	2
35	5
37	11
38	17
39	149
40	21
41	246
42	18
43	6
44	5
45	7
47	4
49	2
50	3
55	4
57	2
58	5
59	27
61	5
62	4
64	1
68	16
69	999
70	18
72	7
76	5
79	2
81	5
85	95
87	3
96	2
100	75
101	6
103	2
