Mass Spectrum: 6-Chloro-.alpha.-2-pyridyl-2-trifluoromethyl quinoline-4-methanol
Formula: C16H10ClF3N2O
CAS: 18709-96-1
Molecular weight: 338
m/z	intensity
41	11
43	11
44	7
45	8
49	8
50	61
51	254
52	269
53	114
54	8
55	10
56	6
57	9
61	7
62	16
63	26
64	9
65	6
67	10
68	6
69	51
73	11
74	52
75	84
76	33
77	24
78	609
79	959
80	226
81	24
82	8
83	7
84	7
85	13
86	13
87	17
88	13
89	52
92	18
93	7
94	10
95	9
96	11
97	7
98	20
99	146
100	43
101	62
102	32
103	23
105	5
106	94
108	999
109	79
110	11
111	17
112	10
113	11
114	6
116	11
117	17
119	12
120	24
121	3
123	10
124	9
125	15
126	57
127	53
128	29
129	6
131	2
133	16
134	15
135	75
136	16
137	27
138	10
139	3
141	11
142	11
143	7
144	5
145	12
146	23
147	6
149	9
150	26
151	31
152	10
158	12
159	15
160	53
161	35
162	100
163	22
164	37
165	8
168	7
169	4
175	7
176	52
177	19
178	11
179	3
180	47
181	8
182	16
188	12
189	11
190	12
192	9
194	10
195	7
196	28
197	6
201	1
202	5
203	21
204	12
205	15
206	8
207	1
210	28
211	8
212	47
213	10
214	18
215	15
216	25
217	8
224	11
226	7
230	70
231	37
232	34
233	19
234	13
237	2
238	7
239	56
240	19
241	26
242	8
244	7
251	7
252	15
253	9
254	12
255	3
257	2
258	19
259	6
260	49
261	7
262	16
263	2
265	3
267	13
268	7
269	22
270	9
271	13
273	154
274	29
275	8
283	8
284	8
285	27
286	37
287	10
288	9
289	15
290	6
291	1
301	50
302	19
303	58
304	14
307	206
308	55
309	99
310	26
311	12
317	30
319	144
320	97
321	50
322	33
323	25
335	68
336	89
337	424
338	657
339	139
340	220
341	36
