Mass Spectrum: Cyclooctanethiol, thiolacetate
Formula: C10H18OS
CAS: 187143-13-1
Molecular weight: 186
m/z	intensity
26	11
27	123
28	57
29	123
30	5
31	3
33	6
34	11
35	5
36	15
37	2
38	11
39	137
40	33
41	510
42	47
43	916
44	37
45	74
46	8
47	48
48	3
49	4
50	7
51	14
52	9
53	60
54	223
55	555
56	52
57	58
58	27
59	37
60	58
61	30
62	4
63	7
64	6
65	31
66	37
67	426
68	153
69	999
70	77
71	13
72	4
73	33
74	17
75	7
76	151
77	115
78	14
79	26
80	21
81	269
82	566
83	55
84	6
85	11
86	5
87	47
88	5
89	7
90	4
92	9
93	8
94	7
95	99
96	10
97	5
98	3
99	5
100	4
101	20
102	4
103	3
104	2
105	5
106	9
107	9
108	7
109	71
110	832
111	371
112	28
113	4
114	4
115	6
116	3
117	3
120	2
139	4
140	2
141	7
142	22
143	334
144	40
145	19
146	4
152	4
153	7
186	58
187	8
188	4
