Mass Spectrum: Trivinylchlorosilane
Formula: C6H9ClSi
CAS: 1871-21-2
Molecular weight: 144
m/z	intensity
26	6
27	30
28	37
29	19
39	20
43	8
53	47
54	29
55	90
56	20
57	16
63	351
64	37
65	329
66	21
67	80
78	6
79	104
80	51
81	62
82	19
83	32
88	6
89	52
90	308
91	653
92	141
93	210
94	17
103	61
104	19
105	31
106	25
107	39
108	203
109	60
110	8
115	60
116	999
117	492
118	381
119	157
120	29
129	119
130	10
131	53
143	31
145	9
