Mass Spectrum: a-2-Pyridyl-2-trifluoromethyl-4-quinolinemethanol
Formula: C17H13F3N2O2
CAS: 18710-02-6
Molecular weight: 334
m/z	intensity
41	9
43	8
49	12
50	56
51	251
52	328
53	170
54	12
55	9
57	10
62	55
63	84
64	21
65	15
66	5
69	38
70	5
71	3
74	32
75	60
76	34
77	68
78	730
79	907
80	284
81	32
82	9
83	12
84	19
86	13
87	28
88	67
89	73
90	21
92	26
93	10
95	6
96	12
97	8
98	12
99	18
100	20
101	55
102	29
103	24
104	3
105	3
106	140
108	999
109	70
110	6
111	17
112	13
113	14
114	31
115	31
116	62
117	15
118	11
119	10
121	17
124	31
125	12
126	12
127	28
128	44
129	8
130	8
131	9
132	19
133	21
134	30
135	15
137	13
138	12
139	11
140	11
141	19
142	7
143	15
144	19
145	17
146	11
149	16
150	9
151	15
152	12
153	2
156	2
157	21
158	85
159	3
163	12
164	26
165	69
166	19
167	13
176	25
177	11
178	14
179	9
183	21
184	39
185	18
188	2
192	15
193	17
194	8
196	10
197	10
203	13
204	5
205	14
206	5
207	2
208	47
209	2
211	5
213	11
216	6
221	8
223	5
226	19
227	51
228	29
233	5
236	18
240	31
241	11
242	5
254	8
256	30
265	8
271	2
273	23
274	13
285	8
286	9
289	2
291	11
301	77
302	25
303	26
305	5
315	80
316	20
317	25
319	117
320	18
333	106
334	291
335	65
336	9
