Mass Spectrum: Selenocyanic acid, 2,5-dimethyl-1H-pyrrol-3-yl ester
Formula: C7H8N2Se
CAS: 18713-25-2
Molecular weight: 200
m/z	intensity
14	6
15	68
17	2
18	13
26	29
27	108
28	54
29	2
30	1
36	2
37	13
38	20
39	190
40	38
41	115
42	503
43	20
44	2
49	13
50	88
51	187
52	115
53	68
54	13
55	2
60	27
61	6
62	10
63	20
64	13
65	74
66	61
67	115
68	13
74	4
75	6
76	16
77	24
78	40
79	13
80	54
81	16
82	13
84	4
85	4
86	4
87	6
89	6
90	9
91	27
92	54
93	176
94	731
95	102
96	6
99	2
100	6
101	4
102	13
103	16
104	20
105	95
106	47
107	16
108	13
109	2
113	6
114	8
115	16
116	6
117	40
118	61
119	999
120	959
121	74
122	2
125	2
126	6
127	13
128	20
129	38
130	29
131	54
132	38
133	16
134	6
141	4
142	2
143	6
144	4
145	9
154	2
155	2
156	9
157	2
158	13
159	2
160	9
167	2
168	20
169	54
170	122
171	149
172	206
173	231
174	278
175	68
176	47
177	6
181	4
182	2
183	6
185	13
187	4
194	10
195	6
196	119
197	122
198	312
199	61
200	623
201	54
202	108
203	9
