Mass Spectrum: Cyclohexanecarboxylic acid, 1-naphthyl ester
Formula: C17H18O2
CAS: 18731-61-8
Molecular weight: 254
m/z	intensity
29	102
30	4
36	14
37	16
38	14
39	163
40	21
41	354
42	29
43	35
44	32
50	32
51	41
52	14
53	66
54	48
55	529
56	33
61	2
62	27
63	59
64	6
65	39
66	7
67	49
68	16
69	10
74	9
75	17
76	3
77	19
78	7
79	9
81	56
82	11
83	999
84	69
85	4
86	7
87	9
88	11
89	59
90	7
95	4
110	18
111	78
113	13
114	32
115	311
116	105
117	4
121	6
125	2
126	6
127	38
128	2
143	32
144	965
145	108
146	4
253	1
254	43
255	9
256	1
