Mass Spectrum: Cyanic acid, sec-butyl ester
Formula: C5H9NO
CAS: 1873-13-8
Molecular weight: 99
m/z	intensity
26	56
27	205
28	213
29	161
39	161
40	40
41	576
42	241
43	229
44	20
45	153
55	121
56	375
57	322
58	12
69	44
70	999
71	36
84	108
85	8
99	40
