Mass Spectrum: Propiophenone, 3,3''-(hydroxyimino)bis[2'-hydroxy-3-phenyl-, dioxime
Formula: C30H29N3O5
CAS: 18732-52-0
Molecular weight: 511
m/z	intensity
16	10
27	70
29	10
30	20
31	10
33	30
37	20
38	70
39	290
40	40
41	70
42	100
43	50
44	50
50	180
51	390
52	140
53	60
54	20
55	40
56	20
62	60
63	230
64	160
65	270
66	70
67	40
68	10
74	50
75	90
76	210
77	999
78	360
79	240
80	30
81	30
87	20
88	20
89	140
90	120
91	390
92	130
93	80
94	60
95	30
102	190
103	420
104	550
105	650
106	600
107	120
108	10
118	60
119	70
120	210
121	270
122	240
123	100
131	50
132	30
133	170
134	150
135	150
136	20
145	10
146	170
147	40
148	20
149	10
150	10
151	80
152	30
160	10
161	20
162	170
163	20
176	10
177	10
178	40
179	15
180	10
191	10
192	15
193	15
194	40
195	15
196	10
205	10
206	10
207	30
208	10
220	140
221	140
222	240
223	110
224	40
236	60
237	90
238	190
239	180
240	40
254	15
324	5
325	2
326	5
327	2
338	2
339	5
340	15
341	2
