Mass Spectrum: 2-Propanone, 1-(1-methyl-2-piperidinyl)-, (.+/-.)-
Formula: C9H17NO
CAS: 18747-42-7
Molecular weight: 155
m/z	intensity
41	420
42	320
43	140
55	110
56	100
57	70
58	70
68	130
70	420
82	100
96	250
97	150
98	999
99	200
112	100
138	10
140	30
154	20
155	70
156	10
