Mass Spectrum: (1,3,5-Cycloheptatrien-7-yl)propanedinitrile
Formula: C10H8N2
CAS: 1875-61-2
Molecular weight: 156
m/z	intensity
26	4
27	11
28	8
37	6
38	21
39	89
40	7
41	13
43	2
44	1
45	9
46	1
49	3
50	31
51	61
52	21
53	4
61	8
62	22
63	58
64	21
65	187
66	43
67	2
73	1
74	8
75	18
76	21
77	50
78	35
79	3
85	2
86	4
87	5
88	4
89	51
90	31
91	999
92	102
93	4
98	1
99	3
100	6
101	20
102	39
103	29
104	5
105	1
114	3
116	4
126	2
127	10
128	34
129	124
130	14
141	6
153	2
154	12
155	16
156	6
