Mass Spectrum: 1H-Tetrazole, 5-vinyl-
Formula: C3H4N4
CAS: 18755-47-0
Molecular weight: 96
m/z	intensity
27	147
28	91
29	172
37	167
38	258
39	582
41	76
42	66
51	46
52	44
53	32
54	34
55	7
66	10
67	109
68	999
69	47
96	98
97	22
98	2
