Mass Spectrum: Pyrazole-3-carboxylic acid, 4-methoxycarbonylmethyl-, benzyl ester
Formula: C14H14N2O4
CAS: 187530-11-6
Molecular weight: 274
m/z	intensity
33	2
37	1
39	45
41	22
42	6
43	3
44	3
45	2
50	16
51	41
52	59
53	68
54	11
55	4
56	1
57	3
59	40
60	1
61	1
63	16
65	129
67	7
68	4
69	3
70	1
72	1
73	0
74	1
75	2
77	36
78	13
79	33
80	30
81	56
82	10
83	1
84	1
85	0
89	46
91	999
92	58
93	2
95	7
97	3
98	1
103	2
104	3
105	12
107	131
108	285
109	32
110	3
111	2
113	2
115	3
116	2
117	4
118	1
119	0
121	2
123	7
125	57
127	15
128	2
129	1
130	2
131	0
135	3
136	8
139	214
140	125
141	12
143	7
144	4
146	0
151	1
152	1
153	1
155	4
156	1
157	2
165	4
167	107
168	145
169	25
170	5
171	2
173	1
185	18
186	2
197	3
198	0
212	1
214	64
215	13
216	2
217	1
228	1
229	1
242	31
243	10
244	2
245	0
271	1
272	4
274	163
275	22
276	2
