Mass Spectrum: Isoxazole, 3-phenyl-5-(phenylmethyl)-
Formula: C16H13NO
CAS: 18753-56-5
Molecular weight: 235
m/z	intensity
77	180
78	10
89	60
91	250
92	20
102	30
103	60
105	34
106	2
116	30
117	20
119	999
120	100
130	20
144	40
158	70
165	20
220	30
234	90
235	910
236	140
