Mass Spectrum: 2-Cyclopenten-1-one, 3-(acetyloxy)-
Formula: C7H8O3
CAS: 18766-96-6
Molecular weight: 140
m/z	intensity
22	1
26	22
27	79
28	26
29	90
30	1
31	193
33	0
37	2
38	4
39	16
40	2
41	36
42	75
43	999
44	20
45	67
46	1
47	0
48	0
49	1
50	5
51	6
52	6
53	10
54	3
55	22
56	13
57	50
58	2
59	64
60	31
61	1
62	0
63	0
64	0
65	0
66	0
67	0
68	2
69	139
70	24
71	13
72	0
73	8
74	34
75	2
96	1
97	49
98	40
99	13
100	1
109	0
111	0
112	24
113	1
122	0
125	0
140	38
141	3
142	0
