Mass Spectrum: 5-Thiazoleacetaldehyde, 4-methyl-
Formula: C6H7NOS
CAS: 18764-34-6
Molecular weight: 141
m/z	intensity
41	120
42	60
43	123
44	96
45	404
46	23
47	18
50	48
51	72
52	53
53	63
54	26
55	41
57	26
58	74
59	108
60	18
67	18
68	48
69	74
71	108
85	398
86	48
87	28
112	999
113	156
114	60
126	45
141	284
142	23
