Mass Spectrum: Succinic acid, 2,2,3,3,4,4,5,5,6,6,7,7-dodecafluoroheptyl ethyl ester
Formula: C13H12F12O4
CAS: 18770-67-7
Molecular weight: 460
m/z	intensity
12	7
13	3
14	9
15	25
16	23
17	140
18	667
19	4
20	13
22	2
24	2
25	8
26	74
27	206
28	400
29	709
30	37
31	264
32	4
33	25
34	0
35	0
36	2
37	1
38	2
39	6
40	1
41	14
42	51
43	72
44	210
45	86
46	5
47	9
48	2
49	18
50	5
51	296
52	4
53	6
54	8
55	999
56	220
57	241
58	15
59	7
60	2
61	15
62	2
63	7
64	47
65	4
66	0
67	2
68	0
69	118
70	3
71	6
72	7
73	91
74	10
75	8
76	1
77	3
78	1
79	3
80	3
81	13
82	14
83	71
84	15
85	6
86	1
87	2
88	0
89	1
90	0
91	2
92	0
93	8
94	1
95	65
96	2
97	2
98	1
99	21
100	77
101	855
102	41
103	13
104	1
105	1
106	1
107	2
108	0
109	1
110	0
111	4
112	2
113	44
114	4
115	5
116	0
117	1
118	0
119	14
120	0
121	1
122	1
123	0
124	1
125	1
126	3
127	2
128	134
129	418
130	27
131	86
132	3
133	11
134	0
135	18
136	1
137	4
138	0
139	0
141	2
142	0
143	2
144	2
145	6
146	0
147	0
149	0
150	1
151	12
152	0
153	1
155	0
157	2
161	1
162	1
163	17
164	1
165	0
169	3
173	0
175	7
176	0
181	14
182	1
183	1
185	1
193	1
195	4
201	1
207	1
209	2
211	0
213	2
214	1
223	1
225	1
231	3
235	0
236	0
243	0
245	64
246	3
263	1
264	4
265	0
277	0
281	0
282	1
285	0
293	1
313	0
314	1
315	1
323	0
325	0
327	0
335	1
339	0
345	22
346	2
347	0
359	5
360	0
361	0
364	5
365	0
367	35
368	3
369	0
374	1
377	0
381	0
385	1
386	0
387	13
388	65
389	10
390	1
393	0
395	12
396	2
413	17
414	43
415	782
416	99
417	10
418	0
431	0
432	0
433	14
434	2
460	23
461	3
462	0
