Mass Spectrum: Cyclodecasiloxane, eicosamethyl-
Formula: C20H60O10Si10
CAS: 18772-36-6
Molecular weight: 740
m/z	intensity
25	1
26	3
27	3
28	45
29	3
30	0
31	1
33	1
36	11
37	2
38	30
39	5
40	1
41	6
42	2
43	2
45	16
46	1
47	0
49	0
51	8
52	2
53	0
55	4
56	0
57	1
58	0
59	26
60	1
61	1
62	0
63	1
64	1
65	3
66	2
69	0
72	0
73	999
74	71
75	36
77	7
78	10
79	5
80	0
81	0
82	4
83	0
85	8
87	8
88	2
89	9
90	1
91	30
93	1
94	0
95	3
96	21
97	3
101	0
102	3
103	12
104	56
105	19
106	2
107	31
108	2
109	0
110	0
113	0
114	0
115	11
116	4
117	14
118	5
119	8
121	2
122	0
123	0
124	0
125	0
126	7
127	7
128	2
129	3
131	32
132	7
133	57
134	6
135	5
137	0
138	0
141	0
142	1
143	2
145	15
146	4
147	677
148	101
149	56
150	3
153	1
154	1
155	6
156	4
157	0
158	2
159	0
160	0
161	3
162	2
163	13
164	3
165	13
166	4
167	4
168	1
169	0
170	1
171	0
172	2
174	0
175	1
176	2
177	13
178	16
179	22
180	0
185	1
186	5
187	1
188	0
189	8
190	2
191	54
192	14
193	55
194	24
195	6
197	2
198	1
199	1
200	1
201	3
202	0
203	3
204	3
205	37
206	8
207	487
208	61
209	54
211	0
212	2
213	0
214	1
215	2
216	0
217	0
218	1
219	6
220	0
221	538
222	130
223	72
224	10
225	3
227	1
228	0
229	1
230	2
231	1
233	0
235	4
236	1
237	5
238	1
239	1
240	2
241	0
242	0
243	0
246	0
247	1
248	1
249	18
250	4
251	29
252	8
253	15
254	3
255	2
256	0
257	0
258	1
259	2
260	1
261	0
262	0
263	2
264	0
265	48
266	12
267	144
268	39
269	21
270	3
271	0
272	0
273	0
275	1
276	0
277	0
278	0
279	25
280	6
281	784
282	218
283	134
284	22
285	7
286	0
287	1
289	0
290	0
291	0
292	0
293	0
294	0
295	98
296	27
297	21
298	4
299	2
300	0
301	2
303	0
305	0
309	2
310	2
311	11
312	3
313	9
314	1
315	1
316	0
318	0
321	0
322	0
323	13
324	4
325	91
326	30
327	148
328	39
329	26
330	5
331	2
332	0
337	1
338	0
339	23
340	8
341	296
342	89
343	62
344	12
345	4
346	1
347	1
352	0
353	4
354	1
355	519
356	172
357	108
358	24
359	8
360	1
361	0
369	26
370	9
371	9
372	2
373	4
374	0
375	1
381	0
383	14
384	4
385	44
386	13
387	42
388	13
389	9
390	1
391	0
397	4
398	1
399	72
400	27
401	142
402	46
403	31
404	7
405	3
406	0
413	15
414	6
415	192
416	69
417	47
418	13
419	5
420	0
427	1
429	498
430	205
431	143
432	36
433	12
434	2
435	0
441	1
443	5
444	1
445	12
446	4
447	8
448	2
449	1
457	8
458	2
459	70
460	29
461	163
462	59
463	45
464	12
465	4
466	0
471	1
473	11
474	5
475	93
476	40
477	27
478	7
479	3
480	0
487	19
488	8
489	44
490	17
491	12
492	3
493	1
501	2
502	1
503	580
504	286
505	199
506	65
507	24
508	5
509	1
515	1
517	16
518	7
519	19
520	7
521	5
522	1
523	0
531	4
532	1
533	73
534	36
535	27
536	9
537	4
538	0
547	7
548	4
549	19
550	9
551	5
552	1
553	1
561	0
563	17
564	8
565	6
566	2
567	0
591	0
605	0
606	0
607	1
621	2
622	0
623	0
637	5
638	2
639	2
709	2
710	1
711	1
725	10
726	6
727	5
728	0
729	0
