Mass Spectrum: Decanoic acid, 2,2,3,3,4,4,5,5,6,6,7,7-dodecafluoroheptyl ester
Formula: C17H22F12O2
CAS: 18770-61-1
Molecular weight: 486
m/z	intensity
19	0
20	18
24	0
25	1
26	11
27	104
28	190
29	250
30	14
31	190
32	2
33	13
34	1
35	0
36	1
37	1
38	2
39	58
40	16
41	352
42	146
43	999
44	48
45	20
46	3
47	6
48	2
49	13
50	5
51	149
52	3
53	19
54	34
55	487
56	83
57	339
58	14
59	4
60	5
61	10
62	2
63	2
64	12
65	4
66	2
67	39
68	50
69	268
70	47
71	250
72	15
73	9
74	1
75	3
76	0
77	5
78	3
79	10
80	6
81	52
82	29
83	135
84	61
85	51
86	4
87	1
88	0
89	1
90	0
91	4
92	0
93	8
94	4
95	54
96	8
97	45
98	44
99	4
100	12
101	19
102	0
103	0
104	0
105	1
106	0
107	3
108	2
109	8
110	61
111	27
112	56
113	37
114	3
115	0
116	0
117	0
118	0
119	6
120	0
121	2
122	0
123	7
124	2
125	7
126	4
127	1
128	0
129	0
130	0
131	36
132	1
133	4
134	0
135	6
136	7
137	6
138	0
139	4
140	0
141	1
142	0
143	0
144	0
145	2
146	0
147	0
148	0
149	0
150	0
151	4
152	1
153	5
154	1
155	284
156	30
157	4
158	0
159	0
160	0
161	0
162	0
163	4
164	0
165	0
166	0
167	0
168	0
169	1
170	0
171	0
172	0
173	0
174	0
175	2
176	0
177	0
179	0
181	3
182	0
183	0
185	0
186	0
187	0
189	0
191	0
192	0
193	0
194	0
195	1
197	0
199	0
200	0
201	0
203	0
204	0
205	0
207	0
208	0
209	0
211	0
212	0
213	0
216	0
217	0
220	0
223	0
224	0
225	0
226	0
229	0
230	0
231	0
235	8
236	1
237	0
241	0
243	0
245	6
246	0
249	0
258	0
263	0
264	0
273	0
274	0
277	0
282	1
283	0
285	0
292	0
293	0
296	0
309	0
312	0
313	0
317	0
323	0
324	0
325	0
335	0
336	0
337	1
338	0
339	0
341	1
342	0
345	1
346	0
349	0
351	0
353	0
354	0
355	0
356	0
358	0
359	25
360	2
361	0
367	4
368	0
369	0
371	2
372	1
373	10
374	386
375	80
376	7
377	0
381	0
383	0
384	0
385	2
386	0
387	373
388	48
389	4
390	0
392	0
393	0
395	0
397	1
398	0
399	0
400	1
401	46
402	6
403	1
411	0
412	0
413	0
414	0
415	15
416	1
417	0
425	0
426	0
427	0
428	0
429	32
430	5
431	0
435	0
441	0
443	134
444	21
445	2
446	0
448	0
457	18
458	3
459	0
467	13
468	2
469	0
471	0
484	0
485	0
486	127
487	24
488	2
489	0
