Mass Spectrum: Benzamide, N-[6-(2-furyl)-2-oxo-2H-pyran-3-yl]-
Formula: C16H11NO4
CAS: 187749-77-5
Molecular weight: 281
m/z	intensity
33	1
34	0
37	9
38	29
39	97
40	12
41	8
42	6
43	16
44	5
45	2
46	0
48	0
50	80
51	193
52	77
53	48
54	6
55	3
56	0
57	1
59	0
60	0
61	1
62	6
63	15
64	12
65	58
66	10
67	6
68	5
69	4
70	0
71	0
73	2
74	21
75	22
76	58
77	603
78	43
80	90
81	9
82	1
83	0
84	0
85	0
86	1
87	0
88	0
89	1
90	3
91	6
92	13
93	12
94	13
95	32
96	2
97	0
98	0
99	0
100	0
101	1
102	3
105	999
106	71
107	4
108	0
109	0
111	0
113	0
114	0
115	1
116	0
117	0
119	4
120	13
121	12
122	1
123	0
127	0
128	0
129	0
130	0
131	0
132	0
133	0
134	0
135	0
139	0
140	0
141	0
146	0
148	30
149	9
150	1
151	0
152	0
160	0
166	0
167	0
168	0
174	0
175	0
176	4
177	7
178	5
179	0
180	0
190	0
213	1
214	0
219	2
220	0
236	0
245	0
253	12
254	1
278	0
281	93
282	14
283	1
284	0
285	0
