Mass Spectrum: 1H-Benzotriazole, 1-acetyl-
Formula: C8H7N3O
CAS: 18773-93-8
Molecular weight: 161
m/z	intensity
43	999
44	30
63	270
64	430
65	100
78	100
90	240
91	400
92	100
104	100
105	130
106	10
119	190
120	20
133	340
134	30
161	360
162	30
