Mass Spectrum: Decanoic acid, 2,2,3,3-tetrafluoropropyl ester
Formula: C13H22F4O2
CAS: 18770-64-4
Molecular weight: 286
m/z	intensity
12	3
14	3
15	10
16	16
17	153
18	768
20	6
22	3
25	2
26	18
27	129
28	141
29	235
30	9
31	132
32	4
33	13
36	4
37	2
38	4
39	70
40	18
41	353
42	106
43	999
44	250
45	18
46	9
47	4
49	10
50	5
51	175
52	5
53	23
54	40
55	333
56	92
57	311
58	14
59	9
60	5
61	9
62	2
63	4
64	10
65	22
66	4
67	40
68	48
69	206
70	58
71	214
72	13
73	8
74	3
75	3
76	1
77	9
78	13
79	13
80	5
81	45
82	74
83	104
84	92
85	48
86	4
90	2
91	6
92	4
93	6
94	5
95	46
96	16
97	55
98	108
99	10
101	3
103	2
105	2
107	6
108	2
109	3
110	71
111	27
112	106
113	24
115	10
116	1
117	2
121	2
123	3
125	8
126	5
135	4
136	12
137	4
139	2
145	6
146	1
152	2
153	5
154	16
155	286
156	32
157	2
159	52
160	4
167	18
168	2
171	4
172	2
173	21
174	898
175	150
176	11
185	2
187	722
188	67
189	6
197	2
200	2
201	93
202	9
207	9
215	29
216	6
229	72
230	10
231	2
235	7
243	281
244	34
245	3
257	43
258	7
267	7
268	1
286	153
287	23
288	2
