Mass Spectrum: 2-Nitrophenoxyacetic acid
Formula: C8H7NO5
CAS: 1878-87-1
Molecular weight: 197
m/z	intensity
12	3
13	5
14	27
15	10
16	4
17	18
18	69
25	3
26	29
27	71
28	77
29	82
30	162
31	174
32	3
33	1
36	2
37	42
38	149
39	341
40	20
41	16
42	59
43	21
44	43
45	76
46	9
47	1
48	1
49	13
50	287
51	372
52	190
53	132
54	12
55	18
56	2
57	1
58	2
59	27
60	6
61	23
62	64
63	343
64	353
65	436
66	70
67	24
68	9
69	3
70	1
71	1
73	9
74	61
75	64
76	140
77	245
78	419
79	116
80	75
81	220
82	15
83	1
87	1
88	1
90	6
91	12
92	376
93	261
94	223
95	147
96	23
97	2
103	1
104	5
105	12
106	999
107	78
108	25
109	232
110	19
111	3
119	10
120	61
121	50
122	283
123	933
124	150
125	12
126	1
131	2
134	2
135	2
136	21
137	3
139	152
140	12
141	2
148	1
149	54
150	8
151	336
152	53
153	6
165	3
167	5
180	2
181	6
197	229
198	22
199	4
