Mass Spectrum: 1H-Carbazole, 4a-benzyl-2,3,4,4a-tetrahydro-
Formula: C19H19N
CAS: 18781-55-0
Molecular weight: 261
m/z	intensity
77	120
91	999
102	60
115	220
116	80
128	90
142	150
143	190
154	70
167	110
168	260
169	70
170	350
184	40
218	60
232	300
233	440
261	180
