Mass Spectrum: 3-Hexadecanone
Formula: C16H32O
CAS: 18787-64-9
Molecular weight: 240
m/z	intensity
27	57
29	262
30	7
31	4
36	3
37	3
38	3
39	35
40	11
41	228
42	58
43	361
44	12
45	5
49	4
50	7
51	3
52	4
53	14
54	20
55	200
56	62
57	696
58	33
59	9
65	4
66	4
67	48
68	22
69	104
70	34
71	233
72	999
73	466
74	24
77	3
78	3
79	8
81	52
82	24
83	64
84	25
85	292
86	28
91	3
93	4
94	3
95	87
96	46
97	58
98	22
99	63
100	9
107	3
109	56
111	39
112	10
113	21
114	34
115	5
121	3
123	17
124	14
125	12
126	5
127	17
128	21
129	3
137	18
139	4
140	4
141	20
142	5
151	6
152	6
155	8
156	4
166	33
167	5
168	15
169	9
170	3
180	3
183	8
184	5
185	5
193	8
194	3
197	9
198	5
211	443
212	69
213	6
222	9
239	4
240	45
241	10
