Mass Spectrum: Acetic acid, (4-hydroxyphenoxy)-
Formula: C8H8O4
CAS: 1878-84-8
Molecular weight: 168
m/z	intensity
14	2
15	6
17	4
18	11
26	13
27	30
29	23
30	3
31	21
36	1
37	5
38	16
39	73
40	6
41	18
42	46
43	142
44	9
45	29
48	1
50	14
51	20
52	18
53	78
54	26
55	34
56	6
57	11
58	44
59	22
60	39
61	9
62	18
63	35
64	21
65	120
66	18
67	18
68	4
69	16
70	4
71	7
73	17
74	7
75	5
76	2
77	13
78	3
79	8
80	8
81	238
82	32
83	10
84	5
85	5
87	3
91	2
92	7
93	147
94	19
95	37
96	6
97	8
98	6
99	2
101	12
104	1
105	2
107	1
109	999
110	214
111	21
112	3
115	3
121	5
122	9
123	101
124	9
125	2
129	5
137	2
149	3
168	622
169	53
170	7
171	1
