Mass Spectrum: 4-Pyridinemethanol, 3-methyl-, acetate (ester)
Formula: C9H11NO2
CAS: 18794-49-5
Molecular weight: 165
m/z	intensity
39	130
41	50
43	470
51	50
65	70
77	70
78	90
79	60
94	150
104	90
105	999
106	150
122	80
123	390
165	90
166	15
