Mass Spectrum: Pyridine, 2-[[(1,1-dimethylethyl)thio]methyl]-
Formula: C10H15NS
CAS: 18794-45-1
Molecular weight: 181
m/z	intensity
29	110
39	70
41	150
57	300
65	100
78	100
79	130
80	70
92	90
93	110
124	370
125	999
126	100
166	20
181	50
182	7
