Mass Spectrum: Thiophene, 2-heptyl-
Formula: C11H18S
CAS: 18794-78-0
Molecular weight: 182
m/z	intensity
26	5
27	29
28	30
29	26
32	1
33	5
38	2
39	28
40	4
41	41
42	3
43	30
45	44
47	2
51	4
53	24
54	2
55	10
56	4
57	3
58	5
59	2
60	2
65	2
66	5
67	6
68	2
69	7
70	3
71	5
73	2
77	7
78	3
79	5
81	2
84	23
85	19
86	3
87	2
88	1
91	2
95	2
96	3
97	999
98	170
99	34
100	10
101	2
102	2
104	2
106	2
109	2
110	8
111	31
112	7
113	1
114	2
117	2
119	2
121	2
123	2
125	2
131	3
139	9
144	2
147	2
153	4
180	2
182	67
183	7
184	3
