Mass Spectrum: Pyridine, 4-[(1,1-dimethylethyl)thio]-
Formula: C9H13NS
CAS: 18794-26-8
Molecular weight: 167
m/z	intensity
29	310
32	90
39	240
41	500
51	100
55	60
56	50
57	999
58	60
59	70
67	120
83	50
84	30
110	40
111	840
112	200
113	50
152	40
167	220
168	30
169	15
