Mass Spectrum: Pyridine, 1-acetyl-4-(1,1-dimethylethyl)-2,3,6-tris[(1,1-dimethylethyl)thio]-1,2,3,6-tetrahydro-
Formula: C23H43NOS3
CAS: 18794-25-7
Molecular weight: 445
m/z	intensity
41	633
42	38
43	598
44	17
45	24
47	26
49	12
51	2
52	6
53	22
55	66
56	25
57	999
58	49
59	76
60	21
61	19
62	26
65	14
67	18
68	15
69	12
70	39
72	3
73	5
74	19
75	13
77	18
78	7
79	37
80	22
81	3
84	3
85	10
86	2
89	21
91	18
92	24
93	20
94	21
95	10
96	21
97	6
100	5
101	29
104	95
105	13
106	164
107	20
108	14
109	15
110	21
111	12
112	35
113	2
117	3
118	18
119	10
120	113
121	221
122	29
124	9
125	33
126	11
127	18
128	3
129	2
134	39
136	806
137	75
138	27
141	9
144	10
150	6
151	19
152	85
153	41
154	12
155	3
157	3
160	18
166	16
168	760
169	84
170	35
173	3
178	149
179	18
184	9
185	70
186	10
187	14
194	37
200	25
202	15
208	3
210	440
211	54
212	23
224	88
225	14
226	3
228	15
236	11
241	13
242	6
244	57
258	3
266	44
267	5
270	6
284	6
300	12
314	2
326	266
327	47
328	17
356	671
357	134
358	71
359	9
