Mass Spectrum: 2-Picoline, 5-(tert-butylthio)-
Formula: C10H15NS
CAS: 18794-44-0
Molecular weight: 181
m/z	intensity
29	120
32	90
39	100
41	230
53	100
57	430
81	90
84	70
97	50
124	100
125	999
126	110
127	50
166	30
181	140
182	17
