Mass Spectrum: 1-Hydroxy-2,2,4,5,5-pentamethyl-3-imidazoline-3-oxide
Formula: C8H16N2O2
CAS: 18796-02-6
Molecular weight: 172
m/z	intensity
32	126
38	6
39	76
40	16
41	457
42	342
43	49
44	16
46	5
50	5
51	8
52	7
53	40
54	17
55	39
56	79
57	18
58	132
59	17
65	9
66	5
67	41
68	20
69	999
70	68
71	6
72	4
73	51
74	450
75	18
77	10
78	5
79	19
80	8
81	38
82	35
83	121
84	20
85	6
86	8
91	18
92	6
93	30
94	9
95	17
96	5
97	8
98	27
99	461
100	66
101	5
103	4
105	11
106	6
107	28
108	9
109	16
110	41
111	4
119	12
120	6
121	15
122	6
123	13
124	8
125	21
126	4
131	5
133	7
134	5
135	11
136	6
137	7
139	8
140	11
141	12
145	5
147	8
148	4
149	6
150	19
151	5
156	27
157	14
158	3
159	5
161	9
162	4
171	7
172	175
173	19
174	3
175	4
