Mass Spectrum: Spiro[4.5]decane-2,6-dione
Formula: C10H14O2
CAS: 187975-88-8
Molecular weight: 166
m/z	intensity
26	26
27	192
28	77
29	71
30	3
31	7
33	2
34	5
37	5
38	17
39	285
40	136
41	320
42	96
43	126
44	7
45	9
46	6
47	11
48	18
50	20
51	50
52	38
53	159
54	124
55	489
56	53
57	30
58	5
59	2
60	3
61	3
62	7
63	16
64	8
65	52
66	61
67	347
68	116
69	108
70	30
71	11
72	3
73	4
74	3
75	4
76	3
77	83
78	23
79	127
80	41
81	144
82	101
83	167
84	79
85	12
86	4
87	4
88	4
89	4
90	2
91	73
92	33
93	156
94	55
95	280
96	125
97	134
98	30
99	5
100	3
101	2
102	2
103	4
104	7
105	17
106	12
107	18
108	11
109	144
110	660
111	999
112	90
113	8
115	4
117	3
119	16
120	97
121	167
122	63
123	56
124	44
125	35
126	5
127	2
128	2
129	2
130	4
131	2
132	5
133	13
134	3
135	6
136	5
137	128
138	333
139	35
140	4
141	2
147	11
148	111
149	32
150	6
151	33
152	6
153	3
165	5
166	555
167	72
168	12
169	2
170	2
