Mass Spectrum: Pyridine, 2-[(1,1-dimethylethyl)thio]-
Formula: C9H13NS
CAS: 18794-29-1
Molecular weight: 167
m/z	intensity
29	160
39	184
41	200
50	80
56	216
67	424
78	112
83	32
111	999
112	96
113	56
152	32
167	64
168	16
