Mass Spectrum: Pyridine, 3-[(1,1-dimethylethyl)thio]-
Formula: C9H13NS
CAS: 18794-30-4
Molecular weight: 167
m/z	intensity
29	297
39	346
41	336
51	49
57	722
67	108
83	64
84	49
110	39
111	999
112	118
113	29
167	148
168	49
