Mass Spectrum: 2-Picoline, 6-(tert-butylthio)-
Formula: C10H15NS
CAS: 18794-43-9
Molecular weight: 181
m/z	intensity
29	80
39	140
41	110
57	120
65	70
80	80
81	440
92	60
125	999
126	120
127	50
166	10
181	70
182	10
