Mass Spectrum: 7-Octen-4-one, 2,6-dimethyl-
Formula: C10H18O
CAS: 1879-00-1
Molecular weight: 154
m/z	intensity
26	3
27	60
29	84
30	2
31	2
37	2
38	7
39	160
40	21
41	401
42	61
43	129
44	4
45	1
50	8
51	19
52	8
53	72
54	31
55	386
56	33
57	906
58	110
59	6
60	1
61	1
62	1
63	3
64	1
65	10
66	4
67	38
68	14
69	678
70	57
71	9
72	2
77	9
78	2
79	16
80	2
81	13
82	2
83	40
84	14
85	999
86	53
87	3
91	4
93	4
94	4
95	8
96	4
97	239
98	16
99	2
100	3
105	1
107	1
109	1
110	1
111	6
112	15
113	2
121	2
125	2
139	27
140	2
154	16
155	2
