Mass Spectrum: 4-Picoline, 3-(tert-butylthio)-
Formula: C10H15NS
CAS: 18794-37-1
Molecular weight: 181
m/z	intensity
29	200
39	170
41	240
45	90
51	50
53	180
57	590
65	40
79	60
80	60
97	70
124	90
125	999
126	120
127	50
181	160
182	20
