Mass Spectrum: 3-Picoline, 5-(tert-butylthio)-
Formula: C10H15NS
CAS: 18794-47-3
Molecular weight: 181
m/z	intensity
29	100
39	100
41	170
45	50
53	120
57	430
81	80
97	60
125	999
126	110
181	130
182	18
