Mass Spectrum: 4-Picoline, 2-(tert-butylthio)-
Formula: C10H15NS
CAS: 18794-36-0
Molecular weight: 181
m/z	intensity
29	70
39	110
41	110
53	50
57	120
65	70
80	80
81	200
92	60
125	999
126	140
127	50
181	90
182	10
