Mass Spectrum: Thiophene, 2-hexyl-
Formula: C10H16S
CAS: 18794-77-9
Molecular weight: 168
m/z	intensity
24	7
26	16
27	30
29	25
30	3
33	7
37	7
39	38
40	8
41	25
43	18
44	3
45	51
46	5
47	1
49	3
51	8
53	27
54	1
55	11
56	5
57	1
58	11
59	4
63	1
65	3
66	3
67	8
68	2
69	12
70	4
72	1
73	7
74	3
75	4
77	9
79	3
82	3
83	3
84	17
85	14
86	3
87	7
91	8
97	999
98	121
99	29
100	9
102	3
105	1
109	3
110	7
111	25
113	2
117	2
123	6
125	5
126	3
129	2
132	1
133	2
135	5
136	4
137	1
139	3
156	3
159	3
162	4
164	2
166	5
168	61
169	3
171	4
