Mass Spectrum: 3-Picoline, 6-(tert-butylthio)-
Formula: C10H15NS
CAS: 18794-46-2
Molecular weight: 181
m/z	intensity
29	60
39	90
41	90
53	60
57	110
65	60
80	70
81	300
92	50
97	50
125	999
126	110
127	50
181	80
182	10
