Mass Spectrum: N-[(-Phenylsulfonyl)ethyl]-N2-carbobenzyloxyglycineamide
Formula: C18H20N2O5S
CAS: 18807-55-1
Molecular weight: 376
m/z	intensity
41	20
42	50
43	75
44	86
45	12
46	0
49	3
50	26
51	99
52	14
53	9
54	2
55	2
56	43
57	25
58	8
59	2
62	4
63	20
64	7
65	120
66	7
69	3
70	47
71	5
72	8
73	2
74	71
75	6
76	7
77	264
78	43
79	77
80	6
81	0
82	1
83	2
84	3
85	8
86	8
89	26
91	999
92	141
93	15
94	5
97	9
98	2
99	16
100	1
101	2
104	80
105	16
106	8
107	53
108	119
109	11
113	0
117	3
118	6
119	0
120	22
121	1
125	17
126	7
127	33
128	3
132	3
133	1
134	11
135	1
141	132
142	9
143	9
150	2
163	3
164	2
165	9
167	1
169	13
181	1
184	1
186	43
187	3
188	1
196	6
198	0
212	65
213	7
214	3
227	16
228	0
235	2
241	7
242	4
268	14
269	142
270	18
271	8
276	0
333	8
334	0
376	35
377	9
378	1
380	0
