Mass Spectrum: 3,4-Dimethylthiophenol
Formula: C8H10S
CAS: 18800-53-8
Molecular weight: 138
m/z	intensity
26	2
27	26
28	8
29	2
32	3
33	1
34	1
37	3
38	9
39	65
40	5
41	14
44	7
45	123
46	3
47	7
49	2
50	23
51	64
52	17
53	38
54	5
55	3
57	4
58	9
59	28
60	5
61	9
62	13
63	37
64	7
65	43
66	8
67	25
68	21
69	45
70	9
71	16
72	1
73	3
74	10
75	9
76	8
77	156
78	59
79	137
80	10
81	5
82	9
83	8
84	9
85	6
86	3
87	3
89	13
90	5
91	103
92	14
93	40
94	9
95	9
96	4
97	41
98	14
99	3
101	2
102	13
103	92
104	45
105	999
106	92
107	9
108	4
109	10
110	6
111	7
112	3
113	1
119	2
120	1
121	50
122	24
123	163
124	14
125	7
133	1
134	13
135	26
136	8
137	202
138	967
139	102
140	46
141	4
