Mass Spectrum: 1,2,4-triazine, hexahydro-3,5-dione
Formula: C3H5N3O2
CAS: 18802-37-4
Molecular weight: 115
m/z	intensity
42	356
43	152
44	999
45	49
46	3
47	1
49	8
51	4
53	1
54	6
55	3
56	1
57	2
58	0
60	30
61	1
67	0
68	0
70	67
72	178
73	3
74	0
77	0
78	0
81	1
84	5
86	76
87	46
88	9
89	0
113	0
114	91
115	351
116	17
117	1
