Mass Spectrum: Benzene, 1-bromo-4-(2-bromoethoxy)-
Formula: C8H8Br2O
CAS: 18800-30-1
Molecular weight: 278
m/z	intensity
15	1
26	9
27	223
28	13
29	1
37	9
38	38
39	40
40	1
41	1
42	1
43	2
45	1
46	1
49	2
50	38
51	10
52	1
53	6
55	1
60	2
61	9
62	27
63	102
64	64
65	80
66	6
73	3
74	17
75	40
76	36
77	9
78	7
79	2
80	5
81	2
82	5
89	1
90	2
91	21
92	31
93	78
94	6
95	3
99	1
100	1
105	1
106	4
107	999
108	22
109	968
110	20
116	1
117	21
118	2
119	22
120	21
121	2
129	1
131	1
142	1
143	80
144	8
145	79
146	7
155	33
156	3
157	37
158	2
159	5
169	2
170	2
171	66
172	197
173	75
174	192
175	11
185	32
186	2
187	31
188	2
198	15
199	22
200	17
201	21
202	2
216	1
218	1
250	2
252	5
254	2
278	399
279	35
280	775
281	68
282	383
283	32
284	2
