Mass Spectrum: Carbonimidodithioic acid, methyl-, dimethyl ester
Formula: C4H9NS2
CAS: 18805-25-9
Molecular weight: 135
m/z	intensity
27	12
29	5
30	4
33	2
34	2
35	2
38	1
39	1
40	4
41	19
42	162
43	9
44	17
45	180
46	71
47	159
48	22
49	3
56	47
57	18
58	4
59	5
61	47
64	16
70	2
71	1
72	73
73	141
74	54
75	6
76	6
79	36
88	999
89	40
90	43
91	11
94	10
135	36
137	0
