Mass Spectrum: Methyl 1-acetylpyrrolidine-2-carboxylate
Formula: C8H13NO3
CAS: 18800-83-4
Molecular weight: 171
m/z	intensity
28	25
29	12
39	13
40	5
41	56
42	32
43	114
44	9
68	65
69	27
70	999
71	53
72	5
112	393
113	24
114	5
171	80
172	12
173	4
