Mass Spectrum: 5-Methyl-2-furylmethyl benzoate
Formula: C13H12O3
CAS: 18801-77-9
Molecular weight: 216
m/z	intensity
14	1
15	6
26	4
27	17
28	2
29	6
36	3
37	2
38	6
39	24
40	10
41	31
42	6
43	84
44	4
45	1
47	2
49	2
50	34
51	92
52	28
53	21
54	1
55	18
61	1
62	2
63	4
65	35
66	17
67	18
68	1
73	1
74	8
75	3
76	9
77	202
78	8
79	169
80	15
81	5
83	8
93	1
94	263
95	999
96	54
97	3
104	0
105	462
106	27
108	17
109	14
110	3
111	30
112	1
115	0
122	14
123	1
128	2
129	4
130	1
155	1
157	3
171	18
172	2
173	1
198	2
201	2
215	3
216	230
217	25
218	2
