Mass Spectrum: 1,3-Diaminopropane, N,N'-bis(carbobenzyloxy)--
Formula: C19H22N2O4
CAS: 18807-68-6
Molecular weight: 342
m/z	intensity
27	7
30	43
39	34
41	19
43	11
44	11
51	28
52	9
56	107
57	11
58	12
63	17
65	95
66	6
74	15
77	41
78	10
79	58
84	8
89	30
90	33
91	999
92	99
101	243
102	22
105	9
106	6
107	170
108	64
117	5
118	5
120	8
127	5
134	7
145	196
146	58
147	6
151	4
152	3
178	2
179	2
180	9
181	3
190	3
191	2
207	13
208	2
234	2
235	3
251	12
252	2
342	1
343	2
