Mass Spectrum: 3-Benzyloxy-4-methyl-2-nitro-N-(2-oxo-3-piperidyl)benzamide
Formula: C20H21N3O5
CAS: 18813-36-0
Molecular weight: 383
m/z	intensity
27	4
28	15
29	3
30	8
38	1
39	12
40	2
41	10
42	3
43	9
44	3
50	3
51	15
52	9
53	9
54	2
55	10
56	7
57	2
58	1
62	1
63	7
64	4
65	39
66	4
67	2
68	7
69	8
70	24
71	1
75	1
76	3
77	21
78	8
79	5
80	2
81	1
82	1
83	1
84	2
85	4
86	1
89	9
90	7
91	999
92	81
93	4
94	1
95	3
96	6
97	3
98	5
99	6
104	2
105	12
106	22
107	7
108	1
110	1
111	2
112	2
113	10
114	2
115	3
117	1
118	3
119	2
120	3
121	4
122	2
132	1
133	3
134	5
135	4
136	1
141	1
146	1
147	1
148	2
149	7
150	9
151	2
152	2
158	1
159	7
160	3
161	1
163	6
164	5
165	4
166	1
167	1
173	1
174	1
175	2
176	1
177	1
179	1
180	6
181	2
185	1
186	2
187	3
188	1
189	1
190	1
194	1
195	1
200	1
201	2
202	2
203	22
204	4
205	2
209	3
210	1
215	1
217	2
223	3
224	1
230	2
236	6
237	1
238	1
240	1
246	3
247	1
252	1
253	2
260	2
262	4
263	4
277	1
293	2
337	2
348	2
349	3
350	1
353	1
381	1
383	189
384	44
385	7
