Mass Spectrum: 1-[N-Carbobenzoxyglycyl]-2-p-toluenesulfonyl hydrazine 1-(N-car......)-2......
Formula: C17H19N3O5S
CAS: 18813-31-5
Molecular weight: 377
m/z	intensity
41	9
42	2
43	6
44	6
45	5
50	6
51	16
52	4
53	3
55	2
56	5
57	3
62	3
63	16
64	6
65	87
66	5
67	2
69	3
71	1
73	4
74	15
75	2
77	28
78	6
79	29
80	4
82	0
84	1
86	0
87	2
88	3
89	21
90	16
91	999
92	103
93	9
101	0
102	9
104	5
105	4
106	13
107	36
108	45
109	4
111	1
116	8
118	0
119	3
120	18
121	316
122	28
123	4
139	27
140	3
141	0
150	2
155	23
156	17
157	14
163	4
164	6
165	4
166	0
167	3
178	18
179	2
181	0
186	5
192	8
194	0
222	38
223	4
227	3
285	2
286	3
287	0
