Mass Spectrum: 1-[N-(Carbobenzoxy)glycyl]-2-p-chlorobenzenesulfonylhydrazine
Formula: C16H16ClN3O5S
CAS: 18813-32-6
Molecular weight: 397
m/z	intensity
41	31
42	8
43	11
44	19
45	7
46	0
47	0
48	2
49	7
50	30
51	49
52	11
53	7
54	1
55	3
56	9
57	3
58	4
59	4
60	1
61	3
62	7
63	25
64	8
65	91
66	4
69	3
70	1
71	0
72	0
73	8
74	28
75	35
76	8
77	66
78	13
79	76
80	6
81	0
82	2
83	0
84	4
85	4
86	3
87	3
88	2
89	30
90	29
91	999
92	87
93	6
99	6
100	2
101	3
102	2
104	13
105	9
106	27
107	79
108	134
109	12
111	44
112	32
113	15
114	10
115	1
116	3
118	1
119	1
120	29
121	80
122	26
123	1
124	0
127	4
128	7
129	2
130	2
131	4
132	1
133	1
134	3
135	0
139	1
143	4
144	4
145	1
146	1
148	3
149	0
150	4
151	9
152	0
155	0
159	11
160	0
161	4
162	1
163	5
164	7
165	3
175	8
176	8
177	5
178	11
179	2
181	0
184	1
191	1
192	6
193	2
206	1
208	2
222	14
223	1
224	0
244	0
268	0
280	1
397	1
399	0
