Mass Spectrum: 4,6,8,10,12-Tridecapentaen-3-one, 8-methyl-13-phenyl-, (all-E)-
Formula: C20H22O
CAS: 18810-05-4
Molecular weight: 278
m/z	intensity
18	20
29	205
30	4
39	58
40	7
41	58
43	22
50	11
51	58
52	14
53	55
55	58
57	588
58	20
59	1
63	29
64	8
65	73
66	11
67	17
69	5
75	11
76	14
77	117
78	44
79	45
80	8
81	14
82	7
83	14
85	4
88	5
89	61
90	17
91	999
92	88
93	22
95	14
96	11
97	2
101	22
102	36
103	60
104	33
105	316
106	29
107	14
108	11
109	58
110	11
114	8
115	250
116	47
117	208
118	30
119	22
121	14
122	4
123	4
124	4
125	30
126	8
127	60
128	208
129	247
130	73
131	36
132	4
133	13
136	11
139	44
141	110
142	44
143	176
144	22
145	44
146	7
147	5
148	8
150	5
151	7
152	44
153	32
154	14
155	23
156	8
157	44
158	14
159	19
160	1
161	229
162	29
163	2
164	2
165	117
166	55
167	73
168	14
169	11
170	2
171	14
172	4
173	16
174	8
175	14
176	8
177	7
178	73
179	88
180	29
181	47
182	26
183	11
185	11
186	11
187	44
188	4
190	14
191	58
192	41
193	41
194	44
195	4
198	30
199	45
200	11
201	5
202	26
203	29
204	27
205	45
206	60
207	39
208	10
215	11
216	11
217	8
218	47
219	23
220	20
221	235
222	44
223	8
231	13
233	2
234	2
249	36
250	11
263	44
264	16
278	617
279	132
280	14
