Mass Spectrum: 3'-Benzyloxy-4'-methyl-2'-nitro-N-(2-oxohexahydro-3-azepinyl)benzamide
Formula: C21H23N3O5
CAS: 18813-35-9
Molecular weight: 397
m/z	intensity
17	1
18	9
27	2
28	8
29	2
30	8
39	8
40	1
41	13
42	2
43	4
44	2
50	1
51	9
52	7
53	7
54	2
55	5
56	9
57	1
63	5
64	3
65	33
66	3
67	3
68	2
69	4
70	7
71	1
76	2
77	15
78	6
79	4
80	3
81	2
82	12
83	9
84	22
85	2
89	8
90	6
91	999
92	80
93	4
94	1
97	2
98	2
99	3
100	1
104	1
105	9
106	15
107	6
108	1
109	1
110	3
111	2
112	2
113	2
117	1
118	4
119	3
120	5
121	3
122	1
125	3
126	1
127	13
128	27
129	3
131	1
132	1
133	3
134	4
135	4
136	1
146	4
147	1
148	2
149	5
150	7
151	1
152	2
155	1
158	2
159	2
160	3
161	1
163	5
164	3
165	3
166	1
170	1
172	4
173	4
174	9
175	1
176	1
177	1
179	1
180	6
181	2
185	1
187	7
188	2
189	6
190	3
195	1
196	1
200	1
201	1
202	1
203	1
209	2
215	2
216	2
217	13
218	3
219	2
223	3
224	1
229	2
231	2
236	4
237	1
238	1
244	2
252	1
253	2
260	2
272	1
276	1
277	1
291	1
334	2
351	2
362	2
363	2
397	138
398	34
399	5
