Mass Spectrum: N-(Methoxy-methyl)piperidine
Formula: C7H15NO
CAS: 18811-61-5
Molecular weight: 129
m/z	intensity
41	397
42	465
43	202
44	218
45	966
54	30
55	400
56	110
57	79
58	59
59	10
60	30
67	20
68	131
69	168
70	120
72	60
81	20
82	70
83	30
84	158
85	39
94	19
96	189
97	149
98	999
99	230
128	398
129	280
