Mass Spectrum: 2-Propanamine, N,N'-[4-(chloromethyl)-4-methyl-2,3-oxetanediylidene]bis[2-methyl-
Formula: C13H23ClN2O
CAS: 18812-81-2
Molecular weight: 258
m/z	intensity
41	282
42	54
43	55
49	11
53	9
55	24
56	39
57	999
58	71
68	93
69	7
84	18
94	12
103	14
104	4
105	5
110	6
111	6
124	66
125	6
132	9
134	3
140	2
144	5
146	2
151	2
159	4
161	2
187	4
189	1
