Mass Spectrum: 1,3,5-Trisilahexane, 5-methyl-
Formula: C4H16Si3
CAS: 18827-17-3
Molecular weight: 148
m/z	intensity
28	60
29	60
31	150
43	220
44	60
45	130
55	30
57	40
58	290
59	999
60	70
61	30
69	40
71	150
72	70
73	230
85	110
86	849
87	240
88	80
89	60
99	30
101	100
102	90
103	470
104	70
105	30
115	50
116	100
117	80
131	220
132	40
133	220
134	30
144	30
145	70
146	90
147	90
