Mass Spectrum: N-(N-Benzyloxycarbonyl-dl-alanyl)-d-glucosamine
Formula: C17H24N2O8
CAS: 18831-80-6
Molecular weight: 384
m/z	intensity
14	2
15	16
17	11
18	12
26	5
27	20
28	44
29	41
30	53
31	55
32	15
37	2
38	5
39	27
40	7
41	16
42	65
43	78
44	93
45	12
46	2
47	8
49	1
50	11
51	32
52	11
53	12
54	9
55	32
56	73
57	15
58	12
59	4
60	71
61	50
62	6
63	13
64	4
65	70
66	6
67	3
68	6
69	9
70	60
71	19
72	29
73	15
74	19
75	3
76	3
77	81
78	19
79	158
80	17
81	5
82	6
83	31
84	9
85	20
86	22
87	4
88	37
89	29
90	22
91	999
92	104
93	6
94	3
95	4
96	8
97	9
98	4
99	15
100	11
101	1
102	2
103	4
104	37
105	16
106	8
107	125
108	195
109	25
110	7
111	4
112	6
113	5
114	9
115	15
116	2
117	1
118	2
119	1
120	7
121	1
122	3
123	2
124	3
125	6
126	3
127	22
128	42
129	5
130	1
132	3
133	1
134	162
135	17
136	2
137	4
138	2
139	2
140	2
141	9
142	3
143	3
144	1
145	7
146	1
148	1
149	1
150	1
151	2
152	2
153	4
154	2
155	1
156	4
157	20
158	3
162	3
163	1
165	1
166	3
167	2
168	1
169	11
170	6
171	1
172	2
173	5
174	1
177	2
178	185
179	23
180	14
181	4
182	2
185	1
187	6
193	5
194	2
196	2
197	2
198	2
199	1
202	3
205	3
206	15
207	2
208	1
209	4
210	2
211	1
213	1
215	2
221	1
222	3
223	1
235	3
236	10
237	1
246	2
264	12
265	4
277	2
278	4
279	1
288	5
289	1
