Mass Spectrum: (S)-2-Diphenylmethylpyrrolidine
Formula: C17H19N
CAS: 188398-87-0
Molecular weight: 237
m/z	intensity
40	2
41	22
42	7
43	29
44	2
50	4
51	11
52	3
53	3
54	1
55	1
56	1
58	1
62	2
63	11
64	2
65	9
66	1
68	39
70	999
71	53
72	1
74	2
75	4
76	6
77	19
78	7
79	1
80	1
82	3
86	1
87	3
88	2
89	15
90	4
91	25
92	2
95	1
96	1
98	1
99	1
100	1
101	2
102	10
103	8
104	4
105	2
106	1
111	1
113	3
115	36
116	8
117	7
118	2
125	1
126	4
127	7
128	16
129	5
130	12
131	2
132	1
137	1
138	2
139	19
140	3
141	5
142	1
143	1
144	1
145	1
146	1
147	1
149	1
150	3
151	12
152	73
153	12
154	2
155	1
156	2
157	1
158	3
159	1
160	1
162	2
163	15
164	24
165	222
166	81
167	88
168	14
169	1
175	1
176	6
177	4
178	24
179	12
180	4
181	1
188	1
189	3
190	2
191	4
192	2
193	4
194	1
200	1
201	1
202	2
203	2
204	2
205	1
206	5
207	1
208	3
209	1
215	1
218	1
219	1
220	1
232	1
233	1
234	4
235	5
236	4
237	1
238	1
