Mass Spectrum: Pentanoic acid, 3-acetyl-4-oxo-, ethyl ester
Formula: C9H14O4
CAS: 18835-02-4
Molecular weight: 186
m/z	intensity
26	15
27	107
28	13
29	140
30	4
31	12
37	1
38	3
39	24
40	5
41	26
42	39
43	999
44	39
45	22
46	2
47	2
49	1
50	3
51	6
52	4
53	29
54	8
55	185
56	17
57	8
58	3
59	1
60	2
61	6
67	4
68	2
69	23
70	71
71	428
72	23
73	34
74	9
75	2
79	1
80	1
81	4
82	2
83	6
84	7
85	12
86	2
87	4
88	2
89	2
94	1
95	18
96	2
97	85
98	567
99	329
100	25
101	56
102	9
111	6
112	22
113	230
114	17
115	42
116	5
117	2
125	39
126	34
127	4
128	2
129	9
139	3
140	89
141	96
142	8
143	20
144	448
145	37
146	4
156	1
157	3
158	1
159	3
167	11
168	1
169	1
170	2
186	57
187	14
188	2
