Mass Spectrum: 3-Picoline, 2-(tert-butylthio)-
Formula: C10H15NS
CAS: 18833-87-9
Molecular weight: 181
m/z	intensity
29	70
39	110
41	100
57	100
65	70
78	50
79	80
80	50
81	120
92	60
124	130
125	999
126	110
127	50
181	60
182	10
