Mass Spectrum: D-Mannotetradecane-1,2,3,4,5-pentaol
Formula: C14H30O5
CAS: 188436-16-0
Molecular weight: 278
m/z	intensity
26	3
27	44
28	3
29	89
30	2
31	39
38	0
39	17
40	20
41	120
42	16
43	93
44	37
45	37
46	1
47	3
49	0
50	0
51	0
52	0
53	8
54	7
55	109
56	37
57	84
58	11
59	2
60	48
61	84
62	3
63	0
65	2
66	4
67	31
68	14
69	63
70	11
71	17
72	3
73	999
74	139
75	11
76	0
77	2
78	0
79	7
80	2
81	31
82	23
83	68
84	6
85	14
86	34
87	7
88	2
89	2
91	22
92	1
93	4
94	2
95	31
96	15
97	26
98	4
99	3
100	0
101	1
102	1
103	32
104	41
105	3
106	0
107	3
108	0
109	10
110	6
111	3
112	1
113	1
115	2
116	0
117	0
119	0
121	3
122	0
123	3
124	2
125	0
126	0
127	0
128	0
129	0
130	0
133	7
134	0
135	1
137	1
138	1
139	1
141	0
147	0
149	0
151	2
152	3
153	0
155	2
156	0
157	22
158	2
163	1
164	1
165	0
167	0
169	4
170	3
171	0
175	0
181	1
182	0
187	6
188	0
199	3
200	0
211	0
217	0
229	20
230	3
243	0
