Mass Spectrum: 4H-Bis(1,2-dithiole[3,4-b:4,3-E])[1,4]-thiazine-3,5-dithione, 4-ethyl-
Formula: C8H5NS7
CAS: 188535-13-9
Molecular weight: 339
m/z	intensity
33	14
34	20
36	6
38	10
40	167
41	25
42	36
43	61
44	140
45	149
46	19
47	6
52	7
54	61
55	79
56	59
57	97
59	126
60	59
61	19
64	227
65	8
66	24
67	12
68	46
69	150
70	477
71	409
72	63
73	31
76	357
77	110
78	42
79	4
80	9
82	76
83	209
84	54
85	22
86	26
88	506
89	28
90	45
91	31
94	157
95	39
96	26
97	36
98	41
99	80
100	999
101	297
102	127
103	66
104	16
105	7
106	9
107	26
108	22
109	15
110	17
111	14
112	129
114	42
115	76
116	10
117	6
118	16
120	2
121	13
123	16
124	27
125	7
126	213
127	108
128	46
129	22
130	8
132	41
133	51
134	69
135	28
136	16
138	32
139	77
140	17
141	35
142	74
143	17
144	19
146	17
147	6
148	4
149	22
150	8
152	8
153	24
154	37
155	29
156	11
157	7
158	103
159	93
160	70
161	29
162	56
164	15
165	24
166	48
167	25
168	5
170	61
171	66
172	20
173	65
174	687
175	82
176	76
177	7
178	19
179	25
180	4
182	20
183	25
184	13
185	15
186	45
187	18
190	54
191	54
192	40
193	5
196	25
197	15
198	77
199	51
200	14
202	61
203	124
204	52
205	107
206	268
207	42
208	44
209	13
210	220
211	69
212	54
214	14
215	183
216	59
217	46
218	22
219	5
229	32
230	90
231	20
232	12
233	7
234	125
235	114
236	36
237	22
238	8
239	3
241	24
242	280
243	57
244	43
245	11
246	87
247	81
248	105
249	27
250	11
252	4
260	16
261	9
262	32
263	50
264	8
265	12
267	2
272	16
273	69
274	91
275	139
276	26
277	34
278	45
279	237
280	47
281	75
282	14
283	9
306	371
307	152
308	122
309	47
310	45
311	15
312	20
324	2
339	813
340	101
341	248
342	35
343	37
