Mass Spectrum: 2,4-Pentanedione, 3-[(dimethylamino)methylene]-
Formula: C8H13NO2
CAS: 18856-72-9
Molecular weight: 155
m/z	intensity
26	10
27	34
28	34
29	8
30	20
31	1
37	3
38	8
39	38
40	41
41	45
42	233
43	378
44	119
45	8
46	5
49	1
50	5
51	10
52	12
53	37
54	12
55	89
56	22
57	2
58	4
60	0
61	0
62	0
63	1
64	2
65	3
66	8
67	17
68	25
69	30
70	71
71	10
72	7
73	1
74	17
75	0
76	0
77	0
78	1
79	2
80	28
81	15
82	23
83	7
84	12
85	1
92	0
93	1
94	18
95	4
96	78
97	11
98	999
99	64
100	4
108	3
109	1
110	5
111	5
112	31
113	3
120	0
122	62
123	5
124	5
125	0
126	2
136	4
137	18
138	35
139	3
140	448
141	37
142	4
152	0
153	0
154	3
155	154
156	14
157	0
