Mass Spectrum: Malononitrile, bromo-
Formula: C3HBrN2
CAS: 1885-22-9
Molecular weight: 144
m/z	intensity
29	2
32	13
36	7
38	256
39	103
40	9
41	2
42	1
43	5
44	1
47	1
48	0
50	13
51	12
52	2
53	3
56	1
57	2
65	999
66	191
67	4
70	1
71	2
73	2
76	3
79	99
81	96
82	4
83	3
85	3
91	17
92	3
93	16
94	2
100	1
102	0
103	0
105	1
106	1
107	1
117	18
119	22
128	4
144	352
145	11
146	343
147	11
