Mass Spectrum: Difluoromethyl trifluoromethanesulfonate
Formula: C2HF5O3S
CAS: 1885-46-7
Molecular weight: 200
m/z	intensity
48	109
51	999
64	71
69	620
115	26
117	6
133	25
201	15
