Mass Spectrum: Pyrrole-3-propionic acid, 2,2'-[(3-acetyl-4-methylpyrrole-2,5-diyl)dimethylene]bis[5-(2,2-dicyanovinyl)-4-methyl-, dimethyl ester
Formula: C35H35N7O5
CAS: 18851-95-1
Molecular weight: 633
m/z	intensity
12	40
13	10
14	30
15	40
16	150
24	15
25	20
26	60
27	120
29	60
30	15
31	80
36	10
37	10
38	260
39	250
40	70
41	30
42	15
43	50
44	60
45	10
50	25
51	30
52	10
53	10
54	5
55	10
56	5
57	10
59	10
64	70
65	110
66	999
67	60
68	10
77	20
78	15
79	10
106	10
107	10
108	30
122	20
136	10
143	10
150	20
155	10
156	10
157	15
167	10
168	10
169	15
170	40
171	10
180	15
181	20
182	20
183	25
184	100
185	25
186	10
193	10
194	15
195	15
196	20
197	15
198	15
199	10
200	10
214	20
232	10
233	10
234	10
243	15
244	10
245	15
246	20
247	20
248	15
249	10
255	10
256	25
257	40
258	25
259	25
261	30
262	20
271	10
272	20
273	30
274	20
275	20
301	10
302	10
303	30
304	10
305	20
315	20
316	15
317	30
318	10
319	10
334	20
335	40
336	15
347	30
348	15
349	60
350	20
375	10
376	10
377	60
378	40
379	10
389	10
390	160
391	80
392	60
393	20
557	15
558	10
559	5
560	10
569	20
570	15
571	15
590	70
591	30
592	15
602	10
633	60
634	40
635	15
636	5
