Mass Spectrum: (4-Chlorophenoxy)acetone
Formula: C9H9ClO2
CAS: 18859-35-3
Molecular weight: 184
m/z	intensity
38	10
39	21
43	999
44	29
50	40
51	31
57	13
62	6
63	39
64	13
65	12
73	33
74	11
75	143
76	36
77	66
78	9
85	13
99	41
101	12
111	278
112	20
113	141
114	9
115	18
127	12
128	24
130	7
141	191
142	48
143	63
144	14
184	232
185	21
186	79
187	7
