Mass Spectrum: 2,2'-Dicyanoazoxybenzene
Formula: C14H8N4O
CAS: 1885-69-4
Molecular weight: 248
m/z	intensity
26	2
27	15
28	20
29	1
30	9
37	7
38	18
39	22
40	2
41	9
42	1
43	5
44	2
49	2
50	33
51	71
52	24
53	2
55	4
56	2
57	7
61	4
62	45
63	44
64	34
65	30
66	5
67	1
68	1
69	4
70	1
71	5
73	2
74	13
75	128
76	113
77	14
78	5
79	1
81	3
82	2
83	4
84	1
85	3
86	1
87	4
88	14
89	106
90	244
91	21
92	9
93	1
95	2
96	3
97	4
98	1
99	4
100	5
101	8
102	999
103	107
104	11
105	4
106	6
108	1
109	2
110	1
111	3
112	1
113	2
114	2
115	4
116	204
117	37
118	196
119	19
120	2
123	1
124	1
125	2
126	1
127	2
128	2
129	9
130	396
131	35
132	34
133	3
135	1
137	1
138	6
139	4
140	5
141	1
142	2
144	3
145	12
146	560
147	49
148	4
149	4
150	4
151	3
152	2
153	3
154	1
163	2
164	17
165	19
166	6
167	2
168	1
169	1
171	1
175	2
176	7
177	9
178	5
179	1
180	1
189	2
190	3
191	24
192	36
193	14
194	11
195	2
202	2
203	7
204	9
205	2
206	3
207	2
216	1
217	6
218	14
219	46
220	57
221	9
222	9
223	1
231	2
232	85
233	15
234	5
235	1
247	46
248	148
249	28
250	2
