Mass Spectrum: 6-Nitro-o-tolunitrile
Formula: C8H6N2O2
CAS: 1885-76-3
Molecular weight: 162
m/z	intensity
15	4
26	9
27	32
28	20
29	1
30	196
31	1
36	1
37	29
38	41
39	188
40	15
41	21
42	2
43	5
46	7
48	1
49	8
50	61
51	87
52	27
53	12
54	2
55	1
56	1
57	1
60	2
61	35
62	73
63	196
64	71
65	39
66	9
67	1
68	1
73	6
74	18
75	40
76	46
77	176
78	48
79	5
80	1
84	2
85	7
86	11
87	31
88	67
89	999
90	143
91	26
92	3
98	1
99	9
100	6
101	3
102	18
103	14
104	122
105	28
106	3
107	2
108	1
110	1
111	4
112	3
113	2
114	31
115	31
116	360
117	37
118	6
119	2
129	2
130	3
131	5
132	260
133	25
134	3
135	1
145	2
146	9
147	2
161	1
162	242
163	27
164	3
