Mass Spectrum: 2,3-Diaza-bicyclo[2.2.1]heptane-2,3-dicarboxylic acid, diethyl ester
Formula: C11H18N2O4
CAS: 18860-71-4
Molecular weight: 242
m/z	intensity
25	1
26	15
27	160
28	28
29	573
30	24
31	21
38	2
39	44
40	24
41	94
42	87
43	61
44	26
45	27
46	1
47	0
49	2
50	3
51	4
52	3
53	39
54	29
55	47
56	39
57	14
58	2
59	9
60	0
61	0
62	10
63	2
64	1
65	22
66	52
67	199
68	58
69	999
70	57
71	7
72	0
73	3
74	6
75	3
76	8
77	4
78	2
79	6
80	37
81	17
82	37
83	14
84	8
85	2
86	1
87	13
88	4
89	1
90	5
91	1
92	1
93	10
94	3
95	17
96	13
97	740
98	57
99	4
100	2
101	5
102	3
103	7
104	25
105	5
106	0
107	2
108	4
109	4
110	3
111	7
112	1
113	17
114	8
115	56
116	10
117	4
120	0
121	4
122	4
123	10
124	11
125	93
126	9
127	1
128	9
129	10
130	8
131	6
132	2
133	1
134	4
135	0
137	1
139	2
140	4
141	180
142	72
143	33
144	2
145	0
154	1
155	4
156	1
157	1
165	0
166	0
167	6
168	13
169	180
170	340
171	35
172	2
173	0
176	24
177	8
178	0
183	6
184	0
185	0
186	0
195	3
196	0
197	52
198	8
199	1
240	28
241	4
242	258
243	46
244	5
