Mass Spectrum: Ethyl 4,5,10,11-tetrakis(methylthio)undecanoate
Formula: C17H34O2S4
CAS: 188746-68-1
Molecular weight: 398
m/z	intensity
42	304
44	62
46	176
47	103
49	26
53	92
54	13
55	213
57	20
59	40
61	999
62	40
64	37
66	185
67	11
69	11
71	33
73	53
74	67
77	41
78	136
80	100
83	5
85	82
87	297
89	16
91	79
92	4
93	343
94	34
95	248
96	15
98	15
100	18
102	33
103	5
105	60
108	76
109	11
112	11
114	41
115	487
116	50
118	115
121	2
122	64
124	2
127	11
129	47
131	37
133	23
135	62
136	2
137	9
141	577
142	67
143	4
149	33
151	15
153	6
156	13
161	162
162	26
163	4
180	4
189	215
190	20
194	13
195	5
237	296
238	43
241	83
255	75
256	9
289	15
302	16
303	297
304	58
305	74
306	11
358	36
359	12
360	5
398	10
399	1
400	1
