Mass Spectrum: N-(3-Hydroxy-4-methylanthraniloyl)-l-proline lactam
Formula: C13H14N2O3
CAS: 18877-29-7
Molecular weight: 246
m/z	intensity
15	2
17	8
18	43
26	3
27	22
28	87
29	2
30	4
31	1
37	1
38	4
39	37
40	9
41	49
42	11
43	33
44	4
45	1
46	5
50	5
51	14
52	28
53	23
54	10
55	7
56	2
57	1
60	1
61	1
62	2
63	10
64	12
65	62
66	59
67	16
68	34
69	12
70	999
71	59
72	1
74	1
75	2
76	7
77	24
78	12
79	4
80	2
81	1
86	1
87	1
88	1
89	1
90	3
91	13
92	46
93	32
94	9
95	5
96	2
98	1
101	2
102	3
103	3
104	18
105	6
106	5
107	5
108	1
109	12
116	1
117	1
118	1
119	5
120	89
121	242
122	21
123	2
130	1
131	1
132	3
133	3
134	8
135	4
144	1
145	1
146	2
147	7
148	14
149	327
150	41
151	4
159	4
160	8
161	9
162	95
163	12
164	1
171	1
172	1
173	1
174	14
175	10
176	96
177	25
178	8
179	1
185	2
187	1
188	1
189	3
190	242
191	32
192	3
198	1
199	3
200	1
201	4
202	3
203	4
204	5
205	1
215	2
216	6
217	236
218	60
219	8
226	1
227	4
228	2
229	2
230	1
242	2
243	1
244	4
245	5
246	603
247	102
248	11
249	1
