Mass Spectrum: 1,3,2-Dioxarsolane, 2,4,5-trimethyl-
Formula: C5H11AsO2
CAS: 18882-65-0
Molecular weight: 178
m/z	intensity
26	24
27	63
28	44
29	64
30	1
31	3
32	1
38	1
39	18
40	2
41	22
42	12
43	999
44	33
45	400
46	10
47	1
50	2
51	3
52	1
53	5
54	1
55	93
56	7
57	57
58	2
59	8
61	8
69	7
70	0
71	16
72	1
75	13
76	5
77	2
87	1
88	28
89	104
90	338
91	134
92	20
93	9
100	0
101	6
102	2
103	19
104	1
105	7
106	6
107	22
109	72
115	2
116	2
117	47
118	4
119	7
120	2
121	18
127	8
129	1
131	1
132	1
133	7
134	902
135	63
136	2
145	99
146	3
147	4
148	1
149	6
150	3
161	9
162	1
163	174
164	9
165	1
177	2
178	92
179	6
