Mass Spectrum: Cyclohexane, (ethenylthio)-
Formula: C8H14S
CAS: 18888-48-7
Molecular weight: 142
m/z	intensity
26	19
27	182
29	69
31	1
33	3
34	0
35	2
37	2
38	7
39	184
40	24
41	512
42	26
43	36
45	118
46	6
47	26
50	13
51	30
52	13
53	91
54	150
55	999
56	48
57	11
58	75
59	103
60	229
61	122
62	14
63	8
65	29
66	14
67	462
68	32
69	4
71	13
73	16
74	4
75	2
77	23
78	11
79	49
80	130
81	204
82	546
83	545
84	40
85	27
86	4
87	3
91	2
93	3
97	3
99	21
108	33
109	17
113	2
115	1
117	2
127	7
142	419
143	41
144	19
