Mass Spectrum: N,N-Diallylformamide
Formula: C7H11NO
CAS: 18889-09-3
Molecular weight: 125
m/z	intensity
14	4
15	29
16	1
17	1
18	3
25	2
26	25
27	84
28	332
29	67
30	103
31	6
32	2
36	1
37	11
38	33
39	339
40	51
41	999
42	148
43	50
44	9
45	1
46	7
50	2
51	5
52	13
53	12
54	86
55	49
56	461
57	41
58	30
59	31
60	5
62	1
63	2
64	1
65	4
66	7
67	36
68	141
69	40
70	168
71	24
72	3
75	1
76	1
77	4
78	2
79	14
80	63
81	33
82	106
83	17
84	464
85	25
86	4
92	2
93	3
94	13
95	6
96	140
97	40
98	64
99	5
100	1
106	3
107	2
108	29
109	4
110	182
111	13
112	4
123	1
124	28
125	187
126	18
127	3
