Mass Spectrum: 3-Methylenecyclohexene
Formula: C7H10
CAS: 1888-90-0
Molecular weight: 94
m/z	intensity
25	0
26	12
27	91
28	11
29	12
30	0
31	1
36	0
37	13
38	37
39	255
40	63
41	70
42	8
43	11
44	3
45	23
46	20
47	0
48	0
49	5
50	49
51	95
52	50
53	123
54	69
55	23
56	1
57	1
60	2
61	12
62	28
63	60
64	15
65	121
66	154
67	47
68	9
69	2
70	1
71	1
72	0
73	2
74	6
75	11
76	4
77	467
78	84
79	999
80	98
81	20
82	2
83	0
84	1
85	3
86	5
87	3
88	1
89	16
90	6
91	291
92	63
93	206
94	541
95	49
96	6
97	1
