Mass Spectrum: Benzene, 1,1'-(1,1,2,2-tetramethyl-1,2-ethanediyl)bis-
Formula: C18H22
CAS: 1889-67-4
Molecular weight: 238
m/z	intensity
29	7
38	1
39	44
40	7
41	138
42	5
43	4
45	12
50	10
51	39
52	7
54	1
55	3
56	1
59	2
61	1
62	3
63	11
64	3
65	28
66	2
73	1
74	3
75	5
76	10
77	76
78	23
79	54
80	5
81	1
82	1
83	1
86	1
87	2
88	2
89	10
90	13
91	375
92	32
93	2
95	2
96	1
97	1
100	1
101	4
102	13
103	41
104	6
105	6
108	1
113	1
114	1
115	44
116	9
117	19
118	42
119	999
120	96
121	4
126	1
127	3
128	7
129	4
130	1
131	2
132	1
135	1
139	1
141	1
142	1
143	5
144	1
145	11
146	1
147	1
148	1
149	5
151	1
152	2
153	1
158	1
165	4
166	1
176	1
177	1
178	3
179	2
180	11
181	2
189	1
190	1
191	2
192	1
193	1
202	2
203	1
204	1
205	1
221	1
236	26
237	5
238	1
