Mass Spectrum: Hexanedioic acid, ethyl methyl ester
Formula: C9H16O4
CAS: 18891-13-9
Molecular weight: 188
m/z	intensity
27	33
28	43
29	107
31	8
39	18
40	3
41	70
42	51
43	132
44	7
45	45
53	8
54	33
55	274
56	72
57	26
58	10
59	166
60	94
61	60
68	23
69	43
70	41
71	20
72	30
73	247
74	106
75	4
81	5
82	52
83	195
84	42
85	12
86	8
87	187
88	241
89	11
97	30
99	27
100	60
101	325
102	29
109	2
110	41
111	999
112	92
113	16
114	443
115	572
116	63
117	2
127	5
128	342
129	77
130	3
142	140
143	806
144	68
145	5
156	78
157	418
158	36
159	2
189	2
