Mass Spectrum: O,O-Diethyl-S-phenyl-phosphorothioate
Formula: C10H15O3PS
CAS: 1889-58-3
Molecular weight: 246
m/z	intensity
45	116
47	40
50	29
51	91
63	35
65	346
66	127
69	99
77	80
78	27
81	477
82	29
83	27
84	38
91	180
93	26
94	319
95	23
97	27
104	144
105	214
108	63
109	999
110	791
111	79
112	35
123	40
125	18
137	56
169	11
172	25
173	42
190	130
191	13
203	10
218	121
219	14
246	363
247	45
248	17
