Mass Spectrum: Methyl 5-piperidino-4-ketocaproate
Formula: C11H19NO3
CAS: 18904-36-4
Molecular weight: 213
m/z	intensity
41	276
42	292
43	131
44	184
45	133
46	5
48	2
50	3
51	10
52	9
53	28
54	37
55	304
56	218
57	130
58	12
59	76
60	8
65	5
67	21
68	28
69	68
70	93
71	11
72	11
73	57
74	16
77	3
80	9
81	5
82	20
83	30
84	245
85	104
86	23
87	16
88	17
94	2
96	37
97	41
98	999
99	74
100	28
101	150
102	2
110	10
111	8
112	29
113	14
114	28
115	25
122	2
124	9
126	13
138	13
139	2
140	26
152	3
154	10
168	17
180	5
181	12
182	43
183	2
185	11
213	11
214	3
