Mass Spectrum: 2,5-Furandione, dihydro-3-(2-methyl-2-propenyl)-
Formula: C8H10O3
CAS: 18908-20-8
Molecular weight: 154
m/z	intensity
14	1
15	9
26	15
27	139
28	47
29	60
30	1
31	2
32	2
33	1
37	9
38	27
39	275
40	72
41	256
42	55
43	61
44	9
45	7
47	1
49	3
50	20
51	31
52	16
53	80
54	89
55	210
56	65
57	11
58	5
59	1
60	3
61	3
62	5
63	10
64	2
65	34
66	34
67	611
68	101
69	36
70	7
71	14
72	2
73	4
74	4
75	1
77	17
78	6
79	79
80	86
81	275
82	111
83	27
84	36
85	5
86	3
87	3
90	2
91	9
92	8
93	5
94	60
95	93
96	8
97	64
98	11
99	231
100	12
101	1
105	2
107	29
108	133
109	999
110	81
111	116
112	22
113	2
118	3
119	1
121	1
123	1
125	4
126	9
127	1
135	1
136	56
137	9
139	2
153	6
154	28
155	5
