Mass Spectrum: 1,4-Pentadien-3-one
Formula: C5H6O
CAS: 1890-28-4
Molecular weight: 82
m/z	intensity
26	205
27	856
28	37
29	11
31	5
36	4
37	18
38	20
39	54
40	4
41	7
42	1
49	9
50	22
51	13
52	7
53	62
54	326
55	999
56	35
57	2
60	2
61	6
62	5
63	4
69	1
81	111
82	232
83	9
