Mass Spectrum: 1,2,4-Cyclopentanetrione, 3,3-bis(3-methyl-2-butenyl)-5-(2-methyl-1-oxopropyl)-
Formula: C19H26O4
CAS: 1891-34-5
Molecular weight: 318
m/z	intensity
53	150
55	150
67	130
69	999
71	200
79	110
109	130
123	210
151	100
179	110
189	130
195	120
203	60
205	50
207	160
217	50
219	120
221	200
222	50
231	90
235	120
245	10
246	20
247	100
248	40
249	610
250	380
251	80
257	70
258	20
262	30
273	30
275	150
276	30
277	20
285	20
290	110
291	20
300	20
301	10
303	20
318	650
319	140
320	30
