Mass Spectrum: 1H-Benzocyclohepten-9-ol, 2,4a-.beta.,5,6,7,8,9,9a-.beta.-octahydro-3,5,5,9-.beta.-tetramethyl-
Formula: C15H26O
CAS: 1891-45-8
Molecular weight: 222
m/z	intensity
26	1
27	22
28	4
29	36
30	1
31	4
38	1
39	60
40	12
41	215
42	20
43	410
44	11
45	23
46	1
49	1
50	3
51	20
52	9
53	65
54	11
55	161
56	77
57	61
58	91
59	18
60	1
62	1
63	7
64	3
65	43
66	13
67	102
68	34
69	261
70	45
71	332
72	23
73	3
74	1
75	2
76	2
77	129
78	26
79	239
80	36
81	137
82	73
83	43
84	31
85	32
86	4
89	4
90	1
91	130
92	69
93	239
94	165
95	277
96	38
97	17
99	2
102	2
103	12
104	5
105	181
106	54
107	116
108	56
109	324
110	65
111	20
112	3
113	5
114	1
115	19
116	7
117	17
118	16
119	999
120	136
121	406
122	87
123	37
124	3
125	11
126	8
127	61
130	4
133	115
134	145
135	53
136	18
137	77
138	20
139	15
140	2
147	53
148	59
149	18
152	1
161	113
162	21
163	4
175	5
176	3
179	2
189	44
190	7
204	166
205	27
206	2
207	13
208	2
