Mass Spectrum: o-Methoxyphenyl 2,3,4-tri-O-acetyl-.beta.-L-rhamnopyranoside
Formula: C19H24O9
CAS: 18918-32-6
Molecular weight: 396
m/z	intensity
41	48
42	18
43	999
44	96
45	21
50	7
51	21
52	43
53	21
55	48
56	7
57	35
58	18
60	10
61	15
63	10
64	12
65	43
67	15
69	82
71	49
73	26
77	60
78	10
79	7
80	15
81	51
82	18
83	439
84	32
85	48
86	7
87	29
89	7
91	1
92	18
93	15
94	4
95	51
97	21
99	37
100	10
101	26
102	12
103	37
108	15
109	139
110	26
111	999
112	71
113	26
115	35
121	12
122	15
123	48
124	579
125	49
127	82
128	26
129	115
130	10
143	4
145	12
153	689
154	62
155	7
157	12
160	1
166	48
167	10
169	1
170	12
171	189
172	18
179	15
180	1
191	10
195	1
207	4
208	2
209	0
213	62
214	7
229	0
230	3
231	1
273	329
274	43
