Mass Spectrum: 1,2,4-Cyclopentanetrione, 3-isopentyl-5-isovaleryl-3-(3-methyl-2-butenyl)-
Formula: C20H30O4
CAS: 1891-39-0
Molecular weight: 334
m/z	intensity
15	12
17	28
18	97
27	163
28	24
29	228
31	14
39	155
40	34
41	999
42	59
43	342
44	20
45	16
51	32
52	14
53	132
54	24
55	224
56	49
57	414
58	20
59	20
60	14
63	4
65	44
66	16
67	106
68	34
69	914
70	67
71	77
72	2
73	18
74	2
77	75
78	16
79	93
80	20
81	93
82	26
83	163
84	44
85	204
86	12
87	8
91	91
92	14
93	61
94	20
95	93
96	32
97	53
98	16
99	12
103	10
105	40
106	8
107	63
108	16
109	118
110	32
111	49
112	10
113	14
115	14
117	14
119	42
120	16
121	81
122	24
123	57
124	53
125	36
126	14
127	32
128	10
129	14
131	14
133	18
134	4
135	40
136	40
137	57
138	14
139	40
140	10
141	10
143	6
145	28
146	6
147	34
148	10
149	59
150	24
151	38
152	24
153	42
154	8
155	10
159	14
161	32
162	12
163	49
164	24
165	24
166	10
167	38
168	14
169	6
171	16
173	18
174	4
175	24
176	14
177	30
178	12
179	36
180	20
181	30
182	10
183	12
184	8
185	6
187	14
188	2
189	40
190	24
191	93
192	57
193	57
194	20
195	36
196	12
197	140
198	28
199	6
201	8
203	16
204	6
205	34
206	16
207	30
208	14
209	191
210	79
211	75
212	8
213	4
215	14
217	18
219	18
220	4
221	14
222	6
223	24
229	36
230	16
231	20
232	16
233	53
234	8
235	32
236	12
237	12
245	16
246	10
247	285
248	106
249	49
250	14
251	12
259	14
260	16
261	12
262	57
263	44
264	234
265	77
266	14
273	81
274	14
278	2
279	4
287	4
289	12
290	2
291	26
292	2
301	14
304	6
305	6
306	4
316	40
317	12
319	2
332	36
333	4
334	134
335	30
