Mass Spectrum: 1H-Benzimidazole, 3-oxide
Formula: C7H6N2O
CAS: 18916-43-3
Molecular weight: 134
m/z	intensity
26	6
27	20
28	35
29	2
30	5
31	1
32	1
36	1
37	20
38	31
39	48
40	8
41	16
42	1
43	1
44	8
45	10
49	3
50	45
51	48
52	83
53	14
54	4
55	1
57	1
58	2
59	41
60	2
61	12
62	31
63	110
64	113
65	23
66	4
67	27
73	2
74	12
75	15
76	63
77	29
78	111
79	155
80	15
81	1
86	1
87	4
88	9
89	10
90	146
91	238
92	18
93	1
102	1
103	9
104	2
105	208
106	117
107	9
116	10
117	35
118	999
119	89
120	4
133	25
134	548
135	48
136	3
