Mass Spectrum: Purine-2,6(1H,3H)-dione, 8-benzoylmethylthio-7-ethyl-3-methyl-
Formula: C16H16N4O3S
CAS: 189149-72-2
Molecular weight: 344
m/z	intensity
33	5
34	1
38	16
39	45
40	8
41	59
42	55
43	37
44	49
45	10
46	1
50	33
51	67
52	14
53	15
54	19
55	25
56	15
57	17
58	3
59	1
60	2
61	1
62	3
63	10
64	8
65	27
66	17
67	57
68	19
69	25
70	42
71	9
72	16
73	2
74	5
75	7
76	42
77	224
78	29
79	5
80	5
81	13
82	6
83	6
84	4
85	4
86	3
88	0
89	3
90	7
91	40
92	5
93	8
94	12
95	19
96	10
97	23
98	115
99	107
100	5
101	3
105	999
106	59
107	5
108	3
109	1
110	4
111	4
112	7
113	8
117	1
118	6
119	8
120	20
121	9
122	2
123	13
124	3
125	10
126	1
127	1
128	1
129	0
134	1
135	1
136	0
138	4
139	1
140	2
152	0
153	1
154	11
155	1
158	0
166	1
167	1
168	3
171	3
179	0
180	0
181	0
182	5
188	3
194	0
211	18
212	0
223	1
224	9
225	35
226	4
227	0
238	6
239	77
240	7
241	2
343	18
344	136
345	21
346	6
