Mass Spectrum: Benzene, 1-nitro-2-(m-methylphenoxy)-4-hydroxy-
Formula: C13H11NO4
CAS: 189214-62-8
Molecular weight: 245
m/z	intensity
37	6
38	28
39	196
40	16
41	48
42	9
43	16
44	15
45	6
46	3
50	48
51	141
52	101
53	58
54	12
55	139
56	5
57	4
58	3
61	9
62	46
63	164
64	47
65	237
66	33
67	30
68	18
69	48
70	9
71	5
72	4
74	11
75	17
76	26
77	203
78	60
79	203
80	143
81	19
82	57
83	9
84	11
85	3
86	6
87	9
88	4
89	65
90	33
91	114
92	32
93	41
94	12
95	63
96	16
97	3
99	12
100	19
101	8
102	21
103	11
104	9
105	9
106	12
107	190
108	999
109	80
110	66
111	5
113	4
114	6
115	102
116	20
117	9
118	6
119	5
120	9
121	6
122	31
123	15
124	17
125	4
126	10
127	41
128	85
129	21
130	9
131	12
132	5
135	6
137	77
138	604
139	62
140	10
141	50
142	14
143	6
144	14
145	9
146	3
147	6
148	11
149	9
150	3
151	8
152	23
153	11
154	5
155	33
156	8
157	5
158	10
159	4
160	3
162	4
168	9
169	27
170	15
171	15
172	9
173	5
174	10
181	11
182	6
183	20
184	96
185	18
186	119
187	18
188	7
197	111
198	61
199	34
200	50
201	7
211	4
212	58
213	12
214	26
215	6
228	53
229	8
230	6
245	304
246	44
247	6
