Mass Spectrum: 3-Aminopiperidin-2-one
Formula: C5H10N2O
CAS: 1892-22-4
Molecular weight: 114
m/z	intensity
33	5
34	2
39	93
40	49
41	155
42	202
43	532
44	96
45	7
46	2
50	7
51	12
52	23
53	23
54	67
56	774
57	210
58	410
59	18
62	1
63	3
64	2
65	7
66	8
68	165
69	999
70	241
71	29
72	2
73	1
74	0
80	3
81	6
82	6
83	14
84	22
85	119
86	72
87	2
96	5
97	39
98	6
99	3
111	1
112	5
113	8
114	61
115	6
116	0
