Mass Spectrum: 3-Butene-1,2-diol, 1-(2-furanyl)-2-methyl-
Formula: C9H12O3
CAS: 18927-20-3
Molecular weight: 168
m/z	intensity
38	20
39	180
40	20
41	230
42	50
43	420
44	20
50	10
51	30
52	10
53	40
55	130
56	10
57	60
67	20
68	10
69	80
70	60
71	400
72	320
73	20
77	40
79	40
81	30
83	10
84	10
85	10
91	20
95	160
96	90
97	999
98	240
99	60
105	10
107	60
108	10
109	10
111	10
121	20
123	30
134	10
135	10
150	30
168	10
