Mass Spectrum: 3-Oxo-2-(heptafluoro-n-propyl)butanoic acid ethyl ester
Formula: C9H9F7O3
CAS: 189237-57-8
Molecular weight: 298
m/z	intensity
27	274
29	684
30	16
31	24
37	3
38	7
39	23
40	15
41	28
43	999
45	29
50	3
51	3
55	6
56	7
57	10
59	30
61	4
65	7
67	6
69	84
71	105
72	4
73	9
74	9
75	10
77	6
84	26
85	12
87	104
88	7
89	9
91	19
93	21
94	5
95	3
99	4
100	7
101	4
102	5
105	2
106	4
107	9
108	2
109	4
113	9
119	13
120	2
121	9
122	8
124	3
126	3
127	5
131	4
133	4
137	4
139	2
141	14
143	12
145	8
151	7
157	3
159	11
161	9
163	9
165	2
169	9
171	15
172	4
176	9
183	3
189	13
191	199
192	9
204	6
206	38
207	2
209	2
211	3
213	25
214	5
215	2
219	13
230	50
231	29
233	138
234	23
235	49
236	3
249	14
250	13
251	9
253	47
254	3
258	60
259	5
263	58
264	4
270	4
298	11
