Mass Spectrum: 1,2-Bis(trimethylsilyl)-2-(methyldichlorosilyl)ethylene
Formula: C9H22Cl2Si3
CAS: 18938-23-3
Molecular weight: 284
m/z	intensity
59	76
73	999
74	107
75	55
83	298
84	34
85	30
93	311
94	32
95	113
97	40
113	21
115	8
141	30
156	78
157	7
158	25
161	52
163	17
175	47
176	198
177	58
178	96
179	20
269	41
271	32
273	9
