Mass Spectrum: Isopropylcarbamothioic acid, O-ethyl ester
Formula: C6H13NOS
CAS: 18939-70-3
Molecular weight: 147
m/z	intensity
27	230
28	230
29	310
30	88
39	72
41	300
42	160
43	680
44	210
45	61
57	88
58	999
60	230
61	50
62	55
70	50
72	50
86	94
102	50
118	290
147	770
148	60
149	36
