Mass Spectrum: 1-Piperidinecarbothioamide, N-[a-(2-methoxy-2-oxo-ethylamino)benzylidene]-
Formula: C16H21N3O2S
CAS: 189452-30-0
Molecular weight: 319
m/z	intensity
12	2
13	1
14	8
15	165
16	3
17	3
18	13
26	11
27	81
28	127
29	99
30	90
31	16
32	7
33	15
34	2
37	1
38	5
39	72
40	16
41	285
42	118
43	109
44	23
45	123
46	9
47	10
48	3
49	1
50	17
51	51
52	12
53	18
54	23
55	98
56	111
57	19
58	10
59	37
60	26
61	7
62	7
63	14
64	5
65	13
66	4
67	29
68	35
69	158
70	17
72	225
73	28
74	98
75	13
76	47
77	148
78	14
79	3
80	4
81	6
82	14
84	999
85	80
86	22
87	7
88	8
89	25
90	20
91	173
92	19
93	5
94	4
95	4
96	7
97	3
98	12
99	6
100	5
102	9
103	70
104	189
105	58
106	5
107	1
109	7
110	2
111	11
112	2
113	2
114	3
115	4
116	33
117	40
118	84
119	8
120	4
121	17
122	4
123	6
124	1
125	1
126	8
127	32
128	111
129	31
131	4
132	4
133	2
134	22
135	5
136	3
137	1
141	2
142	6
143	30
144	7
145	3
146	8
147	6
148	81
149	12
150	2
151	1
156	1
157	1
158	2
159	3
160	5
161	2
162	22
163	89
164	9
165	5
167	1
170	2
171	5
172	2
173	2
174	2
175	18
176	90
177	21
178	5
179	1
182	2
183	1
184	1
187	1
189	1
190	7
191	2
193	1
198	1
199	4
200	1
202	2
203	16
204	4
208	1
209	1
210	2
216	2
217	2
218	2
226	2
227	3
228	1
229	1
230	3
231	8
232	2
233	1
235	18
236	10
237	2
243	1
244	1
246	3
247	1
252	1
253	1
254	2
258	2
259	1
260	6
261	1
270	1
286	74
287	14
288	3
319	61
320	15
321	5
322	0
