Mass Spectrum: Benzamidine, 4-methoxy-N-(2-t-butoxy-2-oxoethyl)-N'-morpholinothiocarbonyl-
Formula: C19H27N3O4S
CAS: 189452-45-7
Molecular weight: 393
m/z	intensity
12	4
14	7
15	62
16	9
17	25
18	84
19	4
26	15
27	108
28	160
29	232
30	66
31	35
32	6
33	2
34	4
37	6
38	9
39	76
40	19
41	279
42	91
43	110
44	59
45	73
46	9
47	9
50	14
51	23
52	10
53	14
54	25
55	63
56	80
57	483
58	70
59	119
60	156
61	13
62	14
63	25
64	26
65	18
66	5
67	8
68	10
69	36
70	25
71	13
72	143
73	35
74	21
75	15
76	27
77	101
78	27
79	13
80	4
81	7
82	6
83	10
84	19
85	47
86	999
87	63
88	40
89	16
90	65
91	62
92	27
93	5
94	8
95	9
96	7
97	10
98	8
99	9
100	9
101	11
102	38
103	70
104	38
105	19
106	6
107	19
108	10
109	7
110	4
111	6
112	6
113	39
114	11
115	13
116	20
117	20
118	25
119	56
120	15
121	235
122	27
123	6
124	6
125	12
127	10
128	22
129	32
130	636
131	55
132	102
133	172
134	516
135	485
136	58
137	9
138	5
139	55
140	8
141	6
142	10
143	5
144	9
145	38
146	35
147	71
148	50
149	14
150	15
151	45
152	11
153	7
157	4
158	6
159	14
160	9
161	9
162	14
163	25
164	59
165	24
166	9
167	10
168	8
169	3
170	3
171	8
172	3
173	44
174	15
175	33
176	12
177	16
178	13
179	9
180	5
181	5
186	6
187	9
188	6
189	9
190	12
191	40
192	316
193	201
194	154
195	24
196	4
200	3
201	11
202	8
203	10
204	6
205	86
206	34
207	63
208	20
209	6
210	2
216	3
217	3
218	6
219	94
220	21
221	23
222	3
224	7
225	5
226	6
227	3
228	3
229	2
230	2
231	2
232	11
233	9
234	17
235	6
236	4
237	2
242	2
246	6
247	3
248	4
249	3
251	564
252	134
253	44
254	8
258	7
259	5
260	96
261	17
262	10
263	21
264	5
265	4
266	2
274	2
275	2
276	15
277	6
278	13
279	10
280	3
285	2
286	10
287	3
290	17
291	6
292	49
293	13
294	7
295	1
304	256
305	51
306	15
307	34
308	15
309	5
320	106
321	20
322	13
323	2
336	165
337	43
338	15
339	3
360	32
361	8
362	1
378	1
393	351
394	84
395	29
396	4
397	1
