Mass Spectrum: 2-(4-Methoxyphenyl)-5-morpholin-4-yl-3H-imidazol-4-carboxylic acid, benzyl ester
Formula: C22H23N3O4
CAS: 189453-36-9
Molecular weight: 393
m/z	intensity
12	3
13	2
14	7
15	75
16	5
17	5
18	26
19	19
26	14
27	102
28	279
29	77
30	22
31	17
37	3
38	12
39	117
40	111
41	224
42	92
43	77
44	34
45	259
46	7
50	23
51	59
52	29
53	26
54	219
55	40
56	44
57	9
58	5
59	1
61	2
62	10
63	47
64	27
65	205
66	74
67	76
68	80
69	34
70	83
71	14
72	5
73	1
74	4
75	14
76	26
77	64
78	20
79	28
80	14
81	30
82	18
83	6
84	18
85	3
86	7
87	3
88	6
89	44
91	999
92	88
93	14
94	15
95	37
96	27
97	116
98	22
99	2
100	3
101	4
102	23
103	39
104	17
105	16
106	5
107	19
108	10
109	6
110	1
111	1
112	1
113	2
114	5
115	7
116	11
117	8
118	13
119	43
120	6
121	10
122	3
123	32
124	45
125	162
126	14
127	2
128	4
129	7
130	11
131	5
132	10
133	62
134	185
135	33
136	3
137	1
139	2
140	1
141	2
142	5
143	3
144	4
145	6
146	25
147	11
148	3
151	5
152	1
153	1
155	1
156	4
157	8
158	8
159	10
160	6
161	2
162	4
163	1
168	1
169	1
170	2
171	8
172	9
173	6
174	20
175	13
176	1
182	1
183	2
184	6
185	8
186	4
187	11
188	8
189	6
190	2
191	0
196	0
197	2
198	3
199	10
200	22
201	26
202	27
203	6
204	1
210	0
211	2
212	3
213	6
214	10
215	13
216	6
217	2
218	1
224	1
225	1
226	8
227	11
228	25
229	9
230	35
231	7
232	1
233	0
238	0
239	1
240	3
241	5
242	15
243	4
244	6
245	1
246	0
247	0
253	0
254	4
255	9
256	22
257	12
258	140
259	33
260	4
261	0
263	0
266	0
267	0
268	0
269	1
270	1
271	0
272	3
273	0
274	0
275	0
276	0
282	0
284	78
285	29
286	12
287	4
288	0
289	0
290	1
291	0
292	0
300	0
302	32
303	6
304	1
305	0
318	1
319	0
332	0
334	0
335	0
336	1
348	0
349	0
350	0
362	0
363	0
364	0
393	78
394	21
395	3
396	0
