Mass Spectrum: 2-(4-Chlorophenyl)-5-morpholin-4-yl-imidazol-4,4-dicarboxylic acid, diethyl ester
Formula: C19H22ClN3O5
CAS: 189453-79-0
Molecular weight: 407
m/z	intensity
12	5
13	3
14	11
15	86
16	21
17	129
18	486
19	20
25	3
26	44
27	381
28	471
29	999
30	89
31	79
32	6
35	3
36	10
37	4
38	12
39	62
40	87
41	302
42	210
43	279
44	146
45	308
46	14
47	5
48	3
49	3
50	31
51	36
52	23
53	33
54	228
55	110
56	156
57	81
58	38
59	96
60	67
61	16
62	13
63	18
64	9
65	13
66	192
67	91
68	94
69	76
70	96
71	49
72	122
73	41
74	18
75	81
76	44
77	47
78	17
79	11
80	36
81	48
82	28
83	28
84	42
85	67
86	452
87	46
88	33
89	27
90	8
91	10
92	5
93	32
94	39
95	77
96	53
97	87
98	32
99	20
100	26
101	19
102	153
103	64
104	26
105	13
106	6
107	30
108	18
109	18
110	26
111	181
112	37
113	109
114	120
115	38
116	22
117	20
118	6
119	5
120	6
121	16
122	24
123	223
124	156
125	112
126	20
127	28
128	29
129	24
130	112
131	29
132	18
133	11
134	6
135	9
136	18
137	261
138	783
139	423
140	289
141	156
142	26
143	35
144	14
145	14
146	6
147	7
148	28
149	99
150	99
151	78
152	51
153	23
154	12
155	29
156	18
157	22
158	6
159	4
160	3
161	3
162	10
163	41
164	31
165	31
166	151
167	71
168	87
169	41
170	27
171	15
172	11
173	5
174	5
175	34
176	16
177	33
178	53
179	20
180	29
181	18
182	48
183	34
184	20
185	13
186	5
187	3
188	2
189	18
190	11
191	28
192	18
193	23
194	35
195	17
196	28
197	21
198	17
199	9
200	17
201	9
202	7
203	32
204	56
205	81
206	51
207	37
208	18
209	14
210	14
211	9
212	9
213	6
214	5
215	4
216	7
217	33
218	33
219	49
220	26
221	136
222	31
223	47
224	17
225	51
226	32
227	23
228	14
229	10
230	50
231	74
232	140
233	59
234	66
235	25
236	19
237	16
238	6
239	12
240	9
241	6
242	12
243	12
244	21
245	52
246	50
247	31
248	40
249	13
250	14
251	14
252	5
253	143
254	23
255	54
256	10
257	5
258	24
259	127
260	167
261	86
262	94
263	25
264	22
265	15
266	7
267	57
268	35
269	26
270	24
271	10
272	12
273	5
274	16
275	7
276	14
277	16
278	35
279	31
280	15
281	9
282	5
283	3
284	5
285	2
286	4
288	357
289	122
290	140
291	77
292	39
293	21
294	12
295	5
296	1
297	1
298	3
299	6
300	5
301	6
302	4
304	47
305	35
306	204
307	52
308	66
309	14
310	19
311	4
312	7
313	2
314	1
316	4
317	5
318	7
319	3
320	41
321	12
322	27
323	6
324	5
325	1
328	1
330	1
332	3
334	781
335	748
336	377
337	265
338	50
339	83
340	18
341	31
342	6
343	2
349	2
350	1
351	1
352	2
353	22
354	5
355	10
356	2
357	1
359	1
362	5
363	2
364	2
365	1
366	1
372	2
373	1
378	0
407	79
408	19
409	28
410	5
411	1
