Mass Spectrum: Octane, 1-amino, trifluoroacetyl-
Formula: C10H18F3NO
CAS: 1894-03-7
Molecular weight: 225
m/z	intensity
40	40
41	999
42	348
43	792
44	84
45	20
46	24
47	8
50	12
51	20
53	52
54	48
55	676
56	488
57	440
58	220
66	8
67	68
68	60
69	596
70	328
71	172
72	76
78	128
79	16
81	12
82	36
83	168
84	108
86	8
94	24
96	8
97	52
98	8
100	20
106	16
110	12
111	16
112	28
113	8
114	232
126	712
127	948
128	92
136	8
139	12
140	212
141	48
152	12
154	96
155	8
156	820
157	68
168	168
169	20
182	96
196	16
