Mass Spectrum: 4-Methoxy-N-(4-methyl-piperazin-1-carbothioyl)benzamide
Formula: C14H19N3O2S
CAS: 189452-07-1
Molecular weight: 293
m/z	intensity
12	6
13	1
14	6
15	74
16	10
17	21
18	84
22	0
25	0
26	11
27	46
28	150
29	67
30	52
31	5
32	8
33	1
34	1
36	1
37	7
38	28
39	25
40	8
41	41
42	326
43	180
44	162
45	12
46	3
47	1
49	2
50	40
51	26
52	6
53	16
54	25
55	38
56	216
57	68
58	179
59	15
60	17
61	6
62	15
63	72
64	102
65	14
66	7
67	5
68	11
70	999
71	94
72	16
73	6
74	13
75	12
76	35
77	254
78	23
79	16
80	2
81	7
82	80
83	481
84	43
85	10
86	24
87	2
88	6
89	1
90	3
92	181
93	13
94	2
95	6
96	3
97	18
98	85
99	104
100	41
101	10
102	3
103	5
104	11
105	5
106	4
107	128
108	13
109	4
110	2
111	2
112	2
113	2
114	7
115	10
116	1
117	1
119	3
120	4
121	4
122	1
123	1
124	8
125	4
126	5
127	5
128	1
129	3
130	1
131	1
132	1
133	6
135	707
136	62
137	7
138	1
139	9
140	2
141	23
142	14
143	4
144	1
147	5
149	1
150	1
151	2
152	2
153	0
157	3
158	2
159	0
160	1
161	1
162	2
163	1
164	0
167	0
169	0
171	2
177	1
178	0
190	0
191	1
192	0
193	3
194	5
195	1
205	0
207	0
211	1
217	0
218	1
219	0
223	1
233	0
235	2
236	47
237	8
238	2
239	0
246	1
247	4
248	0
249	0
250	0
260	36
261	6
262	0
293	47
294	8
295	3
296	0
