Mass Spectrum: Benzamidine, 4-chloro-N-morpholinothiocarbonyl-N'-(2-ethoxy-2-oxoethyl)-
Formula: C16H20ClN3O3S
CAS: 189452-33-3
Molecular weight: 369
m/z	intensity
12	3
13	2
14	10
15	74
16	6
17	21
18	72
19	9
25	2
26	26
27	196
28	289
29	440
30	123
31	82
32	7
33	2
34	3
35	3
36	9
37	3
38	8
39	20
40	11
41	65
42	127
43	73
44	40
45	130
46	19
47	14
48	1
49	2
50	23
51	23
52	8
53	5
54	24
55	43
56	77
57	55
58	64
59	109
60	220
61	60
62	15
63	14
64	5
65	7
66	3
67	4
68	8
69	30
70	58
72	279
73	42
74	28
75	66
76	28
77	9
78	2
79	1
80	1
81	4
82	3
83	6
84	17
85	47
86	999
87	84
88	83
89	40
90	11
91	4
92	1
93	4
94	2
95	3
96	2
97	6
98	5
99	12
100	13
101	17
102	97
103	26
104	13
105	5
106	1
107	1
108	3
109	4
110	7
111	102
112	12
113	51
114	19
115	13
116	44
117	13
118	6
119	4
120	4
121	14
122	2
123	12
124	7
125	146
126	14
127	51
128	24
129	21
130	253
131	22
132	22
133	6
134	4
135	2
137	121
138	220
139	297
140	96
141	82
142	19
143	22
144	23
145	46
146	9
147	5
148	10
149	3
150	14
151	48
152	172
153	33
154	55
155	23
156	8
157	11
158	2
159	2
160	1
161	2
162	2
163	9
164	3
165	5
166	5
167	5
168	72
169	17
170	26
171	11
172	5
173	9
174	5
175	8
176	3
177	23
178	6
179	23
180	7
181	12
182	8
183	8
184	4
185	3
186	3
187	1
188	1
189	2
190	1
191	1
192	2
193	2
194	5
195	10
196	99
197	177
198	51
199	63
200	7
201	3
202	1
203	1
204	1
205	6
206	3
207	7
208	3
209	41
210	17
211	32
212	10
213	9
214	4
215	4
216	1
218	0
219	0
220	1
221	1
222	1
224	193
225	31
226	104
227	15
228	17
229	2
230	1
231	1
232	1
233	1
234	1
235	1
236	3
237	4
238	3
239	3
240	2
241	1
242	0
244	0
246	0
248	0
249	4
250	2
251	11
252	4
253	4
254	2
255	1
256	2
257	1
258	2
259	1
260	2
261	0
262	2
263	2
264	8
265	2
266	6
267	5
268	4
269	2
270	1
271	0
278	0
279	0
280	0
281	0
282	3
283	44
284	17
285	18
286	6
287	1
288	0
289	0
290	3
291	1
292	1
293	1
294	4
295	1
296	10
297	1
298	3
299	0
306	1
307	0
308	3
309	0
310	1
311	0
320	0
322	0
323	1
324	4
325	1
326	1
327	0
334	1
336	56
337	10
338	19
339	3
340	8
341	1
342	2
343	0
352	0
353	0
355	0
369	55
370	12
371	21
372	4
373	1
