Mass Spectrum: 4-Morpholinecarbothioamide,N-[a-[N-(2-methoxy-2-oxoethyl)methylamino]-4-chlorobenzylidene]-
Formula: C16H20ClN3O3S
CAS: 189452-78-6
Molecular weight: 369
m/z	intensity
12	2
13	2
14	7
15	198
16	7
17	25
18	88
19	6
20	1
25	1
26	13
27	113
28	206
29	103
30	60
31	34
32	7
33	3
34	2
35	2
36	9
37	2
38	5
39	16
40	10
41	60
42	231
43	88
44	84
45	197
46	18
47	9
48	1
49	2
50	17
51	17
52	6
53	5
54	30
55	40
56	55
57	29
58	56
59	98
60	142
61	13
62	12
63	12
64	5
65	4
66	5
67	8
68	8
69	20
70	23
71	15
72	158
73	49
74	28
75	62
76	25
77	12
78	3
79	3
81	4
82	7
83	9
84	21
85	43
86	999
87	68
88	32
89	34
90	11
91	6
92	1
93	2
94	14
95	7
96	6
97	5
98	7
99	41
100	22
101	20
102	110
103	22
104	9
105	3
106	2
108	11
109	5
110	7
111	118
112	16
113	48
114	20
115	13
116	25
117	23
118	8
119	7
120	6
121	4
122	4
123	11
124	5
125	80
126	12
127	36
128	36
129	22
130	266
131	31
132	17
133	6
134	5
135	2
137	188
138	96
139	155
140	41
141	38
142	7
143	25
144	6
145	15
146	13
147	5
148	17
149	6
150	15
151	23
152	534
153	61
154	190
155	65
156	21
157	35
158	7
159	6
160	2
161	2
162	3
163	34
164	13
165	33
166	11
167	9
168	5
169	11
170	5
171	8
172	3
173	29
174	5
175	4
176	3
177	5
178	6
179	4
180	33
181	12
182	75
183	24
184	34
185	10
186	10
187	3
188	11
189	8
190	3
191	9
192	5
193	6
194	6
195	5
196	12
197	4
198	6
199	2
200	2
201	4
202	2
203	1
204	1
205	3
206	8
207	9
208	8
209	11
210	155
211	138
212	113
213	53
214	24
215	5
216	3
217	2
218	1
219	4
220	3
221	3
222	4
223	78
224	26
225	81
226	85
227	28
228	26
229	4
230	1
232	1
233	2
234	2
235	2
236	4
237	14
238	6
239	14
240	4
241	5
242	3
243	1
244	2
246	2
247	2
248	5
249	22
250	5
251	82
252	14
253	30
254	4
255	1
256	20
257	4
258	13
259	2
260	3
262	1
263	1
264	6
265	4
266	36
267	66
268	27
269	30
270	5
271	3
274	1
276	2
277	8
278	5
279	4
280	3
281	9
283	581
284	101
285	230
286	37
287	13
288	2
290	1
292	5
293	1
294	3
295	1
296	7
297	2
298	3
299	1
300	0
301	1
302	1
304	2
305	1
306	2
307	1
308	12
309	3
310	31
311	6
312	10
313	2
314	0
320	1
322	1
324	3
325	0
326	1
334	9
336	299
337	60
338	120
339	23
340	10
341	2
342	1
352	3
353	1
354	2
355	1
369	314
370	66
371	123
372	24
373	7
374	1
