Mass Spectrum: 2-(4-Chlorophenyl)-5-morpholin-4-yl-3H-imidazole-4-carbonitrile
Formula: C14H13ClN4O
CAS: 189453-25-6
Molecular weight: 288
m/z	intensity
12	2
13	1
14	11
15	90
16	7
17	11
18	38
19	10
26	47
27	207
28	447
29	148
30	34
31	41
32	4
35	3
36	7
37	7
38	20
39	43
40	120
41	999
42	142
43	76
44	24
45	44
46	2
47	1
49	3
50	53
51	51
52	37
53	212
54	69
55	31
56	42
57	60
58	7
59	2
60	5
61	10
62	20
63	26
64	17
65	18
66	39
67	34
68	18
69	10
70	16
71	10
72	12
73	25
74	28
75	138
76	61
77	22
78	14
79	13
80	9
81	8
82	3
83	4
84	10
85	16
86	43
87	26
88	22
89	18
90	7
91	5
92	25
93	464
94	48
95	13
96	5
97	21
98	14
99	8
100	20
101	19
102	161
103	36
104	10
105	5
106	18
107	12
108	7
109	6
110	13
111	143
112	17
113	48
114	47
115	41
116	19
117	6
118	3
119	33
120	23
121	11
122	15
123	42
124	10
125	16
126	5
127	4
128	8
129	101
130	35
136	11
137	168
138	233
139	82
140	88
141	28
142	7
143	3
144	6
145	3
148	7
149	8
150	14
151	23
152	8
153	8
154	6
155	3
156	2
162	3
163	6
164	3
165	4
166	7
167	16
168	10
169	6
171	2
175	34
176	9
177	15
178	6
179	2
180	3
181	4
182	8
183	2
189	6
190	2
191	3
193	3
194	7
195	17
196	12
197	2
201	11
202	14
203	303
204	57
205	89
206	19
207	3
208	3
209	2
216	21
217	86
218	38
219	36
220	15
221	3
222	4
223	2
224	2
228	2
229	87
230	374
231	376
232	185
233	117
234	19
235	3
241	2
242	3
243	20
244	54
245	38
246	22
247	10
248	8
250	2
253	7
254	2
255	3
257	133
258	49
259	59
260	19
261	7
262	1
269	1
271	2
273	30
274	4
275	9
276	2
286	1
287	33
288	492
289	96
290	168
291	29
292	3
