Mass Spectrum: Pyrrolidin-2-one,1-(2-benzothiazolylthiomethyl)-
Formula: C12H12N2OS2
CAS: 189579-61-1
Molecular weight: 264
m/z	intensity
35	0
37	1
38	4
39	32
40	8
41	127
42	92
43	40
44	5
45	14
46	0
47	1
48	0
49	0
50	6
51	13
52	3
53	3
54	7
55	13
56	6
57	2
58	5
59	0
60	0
61	0
62	3
63	14
64	8
65	8
66	1
67	1
68	39
69	116
70	237
71	13
72	2
73	0
74	3
75	6
76	11
77	19
78	7
80	4
81	3
82	14
83	9
84	4
85	4
86	1
87	0
88	0
89	1
90	7
91	6
92	1
93	2
94	1
95	7
96	12
97	47
98	999
99	52
100	4
101	0
102	15
103	4
104	3
105	1
106	1
107	3
108	56
109	20
110	5
111	1
112	3
113	0
116	4
118	4
119	0
120	2
121	4
122	29
123	6
124	2
125	0
126	1
129	1
130	0
131	0
133	9
134	4
135	13
136	26
137	3
138	1
139	7
140	5
141	2
142	0
146	0
147	0
148	3
149	4
150	1
151	1
152	0
153	1
154	0
155	0
159	0
161	0
162	0
163	0
164	2
166	70
167	45
168	36
169	8
170	2
171	1
173	0
174	0
175	1
176	0
178	1
179	5
180	24
181	6
182	4
183	0
185	0
189	0
192	0
194	0
195	0
196	0
202	0
203	0
204	0
206	0
224	1
225	0
226	0
230	6
231	41
232	5
233	2
234	0
248	0
264	705
265	122
266	74
267	10
268	4
269	0
270	0
