Mass Spectrum: .alpha.-(N,N-Dimethylamino)-4'-hydroxyacetophenone
Formula: C10H13NO2
CAS: 189506-44-3
Molecular weight: 179
m/z	intensity
41	8
42	55
43	19
44	29
45	9
51	5
53	5
55	4
56	5
57	13
58	999
59	37
63	8
64	4
65	24
73	9
93	15
94	4
107	16
121	32
135	4
136	8
179	24
