Mass Spectrum: Octadecanoic acid, 3-hydroxy-2-tetradecyl-, methyl ester, (2R,3R)-
Formula: C33H66O3
CAS: 18951-36-5
Molecular weight: 510
m/z	intensity
25	181
27	193
29	531
31	3
33	43
35	6
38	3
39	115
40	25
41	734
42	218
43	999
44	281
45	131
47	25
53	56
54	131
55	687
56	375
57	906
58	140
59	125
60	3
61	3
65	6
66	75
67	412
68	481
69	562
70	265
71	484
72	65
73	43
74	874
75	718
76	56
79	31
80	31
81	368
82	609
83	531
84	187
85	250
86	31
87	749
88	156
89	6
91	6
93	25
94	25
95	312
96	481
97	437
98	150
99	68
100	6
101	150
102	15
103	12
105	6
107	18
108	12
109	162
110	156
111	162
112	37
113	25
115	75
116	31
121	12
122	9
123	93
124	96
125	78
126	40
127	15
129	156
130	31
135	12
137	62
138	62
139	37
140	25
141	21
143	375
144	43
149	9
151	18
152	31
153	25
154	28
156	56
157	6
165	18
166	46
167	12
168	21
170	100
171	12
178	6
179	9
180	15
181	9
182	9
183	125
184	18
194	3
195	46
196	56
197	12
198	100
199	15
208	6
210	6
211	6
212	46
222	40
223	9
226	234
227	46
239	156
240	31
241	87
242	25
243	15
270	421
271	93
272	15
