Mass Spectrum: 4a-Dichloromethyl-4,4a,5,6,7,8-hexahydro-3H-naphthalen-2-one
Formula: C11H14Cl2O
CAS: 18963-08-1
Molecular weight: 232
m/z	intensity
26	13
27	138
28	25
29	107
30	9
31	17
37	13
38	33
39	222
40	33
41	298
42	52
43	162
44	17
45	18
47	11
48	9
49	26
50	91
51	270
52	101
53	195
54	52
55	450
56	93
57	221
58	37
59	28
60	87
61	40
62	34
63	106
64	53
65	189
66	52
67	208
68	41
69	170
70	78
71	174
72	26
73	167
74	40
75	62
76	22
77	188
78	55
79	257
80	32
81	74
82	38
83	102
84	46
85	80
86	20
87	48
88	17
89	42
90	17
91	306
92	56
93	241
94	32
95	47
96	32
97	65
98	34
99	31
100	13
101	27
102	23
103	51
104	31
105	240
106	50
107	999
108	117
109	34
110	21
111	42
112	23
113	39
114	16
115	52
116	25
117	38
118	18
119	72
120	27
121	435
122	55
123	28
124	18
125	40
126	23
127	38
128	76
129	51
130	18
131	141
132	27
133	44
134	17
148	16
149	940
150	112
151	20
168	16
169	128
170	22
171	49
172	14
196	19
197	32
198	16
199	22
232	316
233	35
234	199
235	18
236	46
