Mass Spectrum: Ethyl chlorocyanoacetate
Formula: C5H6ClNO2
CAS: 18964-26-6
Molecular weight: 147
m/z	intensity
30	215
38	160
39	326
40	260
43	255
45	358
47	143
54	32
56	16
67	205
68	173
74	656
75	999
76	311
77	376
94	25
101	25
102	869
103	46
104	307
108	30
109	32
120	16
132	22
134	7
146	10
147	1
148	12
149	4
150	4
