Mass Spectrum: 1,3,4,6-Tetra-O-acetyl-beta-d-mannopyranose
Formula: C14H20O10
CAS: 18968-05-3
Molecular weight: 348
m/z	intensity
13	1
14	10
15	44
16	2
17	1
18	3
26	3
27	10
28	9
29	18
30	2
31	7
38	1
39	8
40	2
41	13
42	55
43	999
44	50
45	69
46	1
50	1
51	2
52	3
53	9
54	4
55	23
56	8
57	11
58	2
59	1
60	86
61	35
62	1
68	9
69	45
70	28
71	17
72	3
73	133
74	12
75	1
79	2
80	19
81	46
82	6
83	2
84	12
85	81
86	43
87	5
89	4
94	1
95	1
96	17
97	132
98	295
99	42
100	4
101	29
102	63
103	120
104	7
105	1
109	26
110	6
111	3
112	17
113	35
114	47
115	380
116	54
117	5
121	1
122	1
125	5
126	67
127	38
128	10
129	5
130	1
131	13
132	2
133	2
139	25
140	89
141	14
142	2
143	31
144	35
145	77
146	5
153	1
155	12
156	18
157	219
158	63
159	6
161	2
168	16
169	18
170	5
171	3
173	9
174	1
175	5
182	9
183	1
185	3
186	23
187	22
188	2
199	24
200	74
201	7
202	1
203	13
204	1
210	1
211	2
215	22
216	2
217	6
228	5
229	7
230	1
233	1
242	18
243	4
245	12
246	3
247	1
259	2
275	4
289	5
331	4
