Mass Spectrum: .alpha.-L-lyxo-Hexopyranoside, methyl 3-amino-2,3,6-trideoxy-
Formula: C7H15NO3
CAS: 18977-92-9
Molecular weight: 161
m/z	intensity
41	129
42	164
43	80
44	102
45	988
46	3
47	0
48	0
49	3
50	1
51	3
52	3
53	8
54	17
55	47
56	112
57	198
58	81
59	92
60	999
61	17
62	0
63	0
64	0
65	2
66	2
67	9
68	16
69	23
70	45
71	153
72	442
73	3
74	16
75	3
76	0
77	0
78	1
79	0
80	0
81	1
82	3
83	8
84	17
85	76
86	402
87	6
88	27
89	2
90	0
91	0
93	0
94	0
95	4
96	1
97	2
98	1
99	2
100	47
101	5
102	17
103	8
104	193
105	13
106	2
107	0
108	0
109	0
110	1
111	16
112	11
113	18
114	7
115	2
116	1
117	37
118	5
119	0
120	0
121	0
122	0
123	0
124	0
125	0
126	1
127	5
128	9
129	27
130	183
131	15
132	1
133	0
135	0
137	0
138	0
139	0
140	0
141	0
142	0
143	80
144	16
145	1
146	1
147	0
159	0
160	1
161	18
162	3
163	0
