Mass Spectrum: Methyl 3-keto-12-acetoxycholanate
Formula: C27H42O5
CAS: 189820-40-4
Molecular weight: 446
m/z	intensity
41	209
43	999
44	6
45	33
51	1
53	66
55	556
56	12
57	72
59	85
61	28
65	23
67	146
68	30
69	67
70	6
71	21
73	91
74	103
75	4
77	47
79	119
81	225
83	109
84	24
85	16
87	24
91	105
93	152
94	51
95	125
96	19
97	30
98	2
99	18
101	3
103	9
105	145
106	33
107	103
108	27
109	48
110	19
111	36
112	6
113	3
115	49
117	37
118	21
119	59
120	24
121	63
122	35
123	40
124	19
125	23
126	1
127	3
128	7
129	11
131	47
132	10
133	54
134	24
135	35
136	8
137	14
138	4
140	1
141	20
142	2
143	30
145	68
146	16
147	49
148	6
149	18
151	4
154	112
155	20
156	2
157	32
158	12
159	33
160	13
161	37
162	8
163	14
167	1
169	9
171	24
172	10
173	22
174	11
175	16
176	1
177	12
179	1
181	4
183	8
185	17
186	2
187	19
188	3
189	8
191	1
195	5
197	16
199	11
201	23
202	5
203	5
207	3
208	6
209	6
211	17
212	3
213	16
215	19
216	8
217	6
221	3
223	3
225	5
226	3
227	7
229	29
230	7
231	8
233	2
241	3
243	7
244	16
245	7
247	18
248	4
253	57
254	12
255	4
257	1
258	1
269	3
270	25
271	223
272	47
273	7
284	5
298	6
299	6
300	1
301	1
313	10
314	6
315	3
316	14
317	3
326	3
328	3
337	7
339	6
353	12
354	25
355	23
356	5
368	12
369	7
371	12
386	80
387	43
388	9
403	1
415	4
