Mass Spectrum: Phosphine, acetyldimethyl-
Formula: C4H9OP
CAS: 18983-86-3
Molecular weight: 104
m/z	intensity
31	33
41	25
42	25
43	999
44	41
45	225
46	270
47	41
57	116
58	41
59	250
60	37
61	179
62	358
73	25
74	41
76	133
104	375
105	50
