Mass Spectrum: 1-Methyl-2-(2-hydroxyethyl)imidazole
Formula: C6H10N2O
CAS: 18994-70-2
Molecular weight: 126
m/z	intensity
27	164
28	615
29	53
31	54
39	48
40	75
41	107
42	340
43	42
52	60
53	39
54	353
55	150
56	49
58	27
66	17
67	18
68	41
69	28
81	175
82	39
83	17
94	15
95	961
96	999
97	75
107	54
108	38
109	187
110	24
111	12
125	131
126	204
127	20
