Mass Spectrum: Tetradecanoic acid, 13-oxo-, methyl ester
Formula: C15H28O3
CAS: 18993-10-7
Molecular weight: 256
m/z	intensity
41	390
43	999
55	400
58	300
69	230
71	230
74	170
83	270
87	110
98	220
111	70
125	60
149	220
167	230
199	80
225	40
241	20
