Mass Spectrum: Tricyclo[4.2.0.0(2,4)]octan-5-one, (1.alpha.,2.beta.,4.beta.,6a)-
Formula: C8H10O
CAS: 19004-82-1
Molecular weight: 122
m/z	intensity
26	30
27	290
28	150
38	40
39	335
40	120
41	160
50	40
51	70
52	40
53	110
54	20
55	999
56	30
63	40
65	120
66	700
67	600
68	170
77	155
78	65
79	400
80	150
81	90
91	60
93	80
94	500
95	60
106	60
121	75
122	450
123	50
