Mass Spectrum: 2(1H)-Pyridinethione, 1-ethyl-
Formula: C7H9NS
CAS: 19006-71-4
Molecular weight: 139
m/z	intensity
39	162
45	72
51	130
52	86
67	999
68	56
69	80
78	320
79	112
80	106
83	50
110	56
111	530
112	80
138	440
139	780
140	94
