Mass Spectrum: Urea, triethyl-
Formula: C7H16N2O
CAS: 19006-59-8
Molecular weight: 144
m/z	intensity
25	0
26	0
27	102
28	65
29	248
30	176
31	3
36	0
38	0
39	2
40	7
41	18
42	80
43	19
44	352
45	12
46	9
47	0
51	0
52	1
53	0
54	3
55	4
56	72
57	14
58	999
59	37
60	1
67	0
68	0
69	1
70	19
71	18
72	249
73	22
74	3
84	2
85	4
86	2
87	3
88	2
92	0
99	2
100	78
101	15
102	0
113	1
115	19
116	6
117	0
126	1
127	0
128	0
129	58
130	4
143	0
144	191
145	17
146	1
