Mass Spectrum: N,N-Diisopropylchloroacetamide
Formula: C7H14ClNO
CAS: 19009-39-3
Molecular weight: 163
m/z	intensity
15	9
26	6
27	90
29	9
30	6
35	1
36	2
37	3
38	11
39	124
40	34
41	331
42	246
43	734
44	72
45	2
49	2
51	2
52	6
53	2
54	18
55	9
56	66
57	6
58	60
59	4
62	4
63	271
64	8
65	87
66	3
67	1
68	15
69	13
70	602
71	22
72	2
76	1
77	32
78	25
79	11
80	21
82	6
83	3
84	211
85	17
86	548
87	25
88	1
90	1
92	5
94	1
98	6
99	24
100	1
104	1
106	999
107	36
108	329
109	12
112	4
120	77
121	4
122	28
123	1
124	1
128	290
129	21
130	1
134	5
136	1
148	577
149	39
150	189
151	12
163	197
164	21
165	64
166	6
