Mass Spectrum: Diphenylcarbadiazone
Formula: C13H10N4O
CAS: 1900-38-5
Molecular weight: 238
m/z	intensity
39	32
50	50
51	198
52	29
63	17
64	17
65	17
74	13
76	29
77	999
78	168
90	29
91	17
105	546
106	46
134	25
152	21
153	36
154	36
167	36
168	44
169	21
181	15
210	88
211	13
212	8
238	101
239	17
