Mass Spectrum: Methyl 11-methoxyhexadecanoate
Formula: C18H36O3
CAS: 190075-50-4
Molecular weight: 300
m/z	intensity
29	39
31	8
32	39
33	8
39	3
41	105
42	23
43	39
45	229
46	14
53	11
54	13
55	304
56	28
57	53
58	15
59	60
60	2
65	6
66	3
67	74
68	6
69	81
70	5
71	95
72	6
74	44
79	3
80	2
81	42
82	17
83	371
84	23
85	17
86	10
87	15
88	8
91	9
92	9
93	9
94	4
95	1
96	13
98	8
99	20
101	4
105	13
106	8
107	12
110	4
111	3
112	4
114	21
115	999
116	86
117	9
119	9
120	4
121	31
122	4
123	10
124	4
128	1
129	28
130	9
133	3
134	3
135	2
136	4
137	5
138	1
139	6
140	8
147	75
148	9
151	3
152	5
154	9
165	138
166	21
167	6
177	0
181	7
183	7
197	153
198	26
199	2
207	2
215	27
216	7
219	6
221	6
227	8
229	543
230	69
231	13
235	7
236	9
237	14
238	4
267	2
268	4
269	15
270	5
285	4
