Mass Spectrum: Kaur-16-en-18-oic acid, 6,7,13-trihydroxy-, .gamma.-lactone, (4.alpha.,6.alpha.,7.beta.)-
Formula: C20H28O4
CAS: 19018-46-3
Molecular weight: 332
m/z	intensity
107	130
108	130
109	999
110	100
137	250
250	200
253	250
255	140
268	330
271	150
286	250
296	340
299	270
300	40
304	40
314	700
315	150
316	20
332	100
333	20
