Mass Spectrum: Ethanol, 1-(2-benzimidazolyl)-
Formula: C9H10N2O
CAS: 19018-24-7
Molecular weight: 162
m/z	intensity
15	6
17	1
26	3
27	16
28	4
29	1
31	1
37	9
38	25
39	61
40	9
41	25
42	8
43	58
44	5
45	42
46	1
50	15
51	29
52	43
53	6
54	8
55	3
56	1
57	2
58	6
59	57
60	5
61	6
62	22
63	111
64	129
65	164
66	22
67	12
68	1
69	1
71	5
72	5
73	2
74	4
75	9
76	16
77	24
78	17
79	4
80	1
81	1
83	1
85	1
87	2
88	7
89	15
90	91
91	242
92	268
93	22
94	1
95	1
97	1
101	1
102	16
103	6
104	6
105	4
106	2
107	1
114	1
115	3
116	19
117	53
118	439
119	999
120	136
121	8
128	1
129	13
130	2
131	19
132	37
133	19
134	3
135	5
142	7
143	361
144	400
145	282
146	47
147	686
148	65
149	6
159	2
160	23
161	79
162	973
163	126
164	9
