Mass Spectrum: Ethanone, 2,2'-(1,3-dithietane-2,4-diylidene)bis[1,2-diphenyl-
Formula: C30H20O2S2
CAS: 19018-13-4
Molecular weight: 476
m/z	intensity
29	95
32	319
41	238
43	113
44	179
50	59
51	119
55	119
56	89
57	268
69	77
71	59
77	441
78	35
105	999
106	80
123	59
133	9
149	14
165	26
178	38
210	17
227	119
237	9
238	77
239	17
308	11
371	20
412	23
476	561
477	194
478	74
