Mass Spectrum: N,N'-Dibutyl 4-thiaheptanedioic acid amide
Formula: C14H28N2O2S
CAS: 19014-37-0
Molecular weight: 288
m/z	intensity
74	237
86	220
87	540
100	999
101	120
104	60
114	50
115	20
128	668
129	608
130	120
160	290
161	278
162	70
188	49
216	79
288	159
