Mass Spectrum: Acetophenone, 2,2''-(1,2,4-trithiolane-3,5-diylidene)bis[2-phenyl-
Formula: C30H20O2S3
CAS: 19018-17-8
Molecular weight: 508
m/z	intensity
29	14
34	20
39	38
41	29
43	20
44	20
50	20
51	94
52	5
55	20
56	5
57	29
62	8
63	23
64	8
65	8
69	8
71	8
74	8
76	5
77	360
78	29
83	8
85	8
89	38
91	29
92	20
105	999
106	65
119	14
121	20
122	5
133	5
161	26
165	5
178	8
192	8
200	8
210	17
227	23
238	106
239	17
240	8
269	53
270	14
404	5
412	5
476	53
477	17
508	88
509	23
510	17
