Mass Spectrum: Dimethyl 2-hydroxy-2-methylbutane-1,4-dioate
Formula: C7H12O5
CAS: 19020-62-3
Molecular weight: 176
m/z	intensity
27	17
28	8
29	25
30	4
31	23
33	13
36	7
38	2
39	28
40	8
41	54
42	41
43	999
44	40
45	16
47	2
50	2
51	5
52	2
53	10
54	5
55	33
56	21
57	81
58	41
59	86
60	6
61	3
65	6
66	5
67	10
68	6
69	29
70	21
71	12
72	6
73	4
74	72
75	112
76	5
77	16
78	3
79	14
80	5
81	19
82	7
83	21
84	11
85	570
86	33
87	7
88	2
89	6
90	2
91	13
92	7
93	5
94	12
95	30
96	40
97	11
98	8
99	20
100	5
101	41
102	6
103	19
104	4
105	7
106	2
107	13
108	74
109	20
110	12
111	5
112	8
113	3
115	5
116	6
117	769
118	54
119	10
126	2
127	15
128	5
129	9
130	2
131	11
144	3
145	13
161	3
