Mass Spectrum: Thieno[2,3-c]pyridazine-7(4H)-one-6-carboxylic acid, 2-chloro-4-(p-fluorophenyl)-
Formula: C13H6ClFN2O3S
CAS: 190207-61-5
Molecular weight: 324
m/z	intensity
26	7
27	35
28	44
29	19
30	2
31	19
32	8
33	5
35	3
36	20
37	17
38	17
39	42
40	3
41	17
42	4
43	15
44	75
45	164
46	8
47	8
48	1
49	6
50	92
51	98
52	52
53	50
54	38
55	16
56	16
57	86
58	10
59	29
60	7
61	10
62	29
63	45
64	20
65	6
66	2
67	6
68	55
69	490
70	117
71	31
72	22
73	35
74	61
75	632
76	64
77	18
78	6
79	76
80	62
81	98
82	45
83	45
84	23
85	8
86	10
87	11
88	9
89	10
90	3
91	11
92	19
93	35
94	193
95	999
96	122
97	55
98	28
99	14
100	20
101	7
102	3
103	25
104	226
105	81
106	94
107	46
108	22
109	51
110	9
111	7
112	8
113	9
114	30
115	12
116	17
117	9
118	10
119	11
120	18
121	92
122	110
123	48
124	34
125	5
126	22
127	18
128	6
129	3
130	73
131	16
132	36
133	17
134	9
135	4
136	2
137	6
138	11
139	20
140	4
141	5
142	4
143	5
144	5
145	28
146	820
147	155
148	16
149	17
150	6
151	3
152	3
153	10
154	3
155	3
156	7
157	4
158	77
159	22
160	29
161	41
162	17
163	20
164	16
165	15
166	7
167	10
168	4
169	5
170	12
171	12
172	18
173	34
174	7
175	3
176	2
177	3
178	3
179	2
180	10
181	24
182	11
183	11
184	6
185	4
186	8
187	16
188	39
189	69
190	396
191	83
192	29
193	10
194	4
195	4
196	2
197	5
198	13
199	6
200	8
201	132
202	19
203	3
204	2
205	2
206	6
207	7
208	4
209	3
210	2
211	2
212	2
213	5
214	6
215	15
216	42
217	22
218	244
219	46
220	16
221	4
222	3
223	5
224	38
225	127
226	45
227	51
228	29
229	23
230	11
232	3
233	2
234	2
235	16
236	3
237	6
238	2
240	8
241	10
242	12
243	15
244	81
245	148
246	29
247	27
248	5
249	10
250	9
251	9
252	25
253	809
254	122
255	309
256	43
257	16
258	2
259	1
260	1
261	2
262	3
263	35
264	6
265	13
266	2
267	1
268	1
269	1
270	1
271	2
272	1
273	1
274	1
275	3
276	9
277	4
278	5
279	24
280	838
281	135
282	325
283	47
284	16
285	2
290	1
305	1
307	7
308	2
309	3
310	1
323	1
324	259
325	47
326	99
327	17
328	5
329	1
