Mass Spectrum: 2,3-Dioxopropanoic acid, 3-(2,5-dichlorothien-3-yl)-, 2-(4-methoxyphenyl)hydrazone
Formula: C15H12Cl2N2O4S
CAS: 190207-52-4
Molecular weight: 386
m/z	intensity
26	6
27	26
28	51
29	44
30	3
31	6
32	12
35	154
36	999
37	62
38	337
39	37
40	5
41	148
42	24
43	130
44	10
45	12
50	15
51	34
52	77
53	54
54	17
55	72
56	37
57	165
58	7
59	29
60	5
61	3
62	5
63	32
64	55
65	49
66	11
67	33
68	18
69	44
70	56
71	101
72	15
73	8
74	6
75	9
76	17
77	85
78	49
79	53
80	57
81	44
82	12
83	39
84	25
85	37
86	4
87	5
89	3
90	11
91	30
92	59
93	19
94	8
95	150
96	17
97	21
98	7
99	12
100	3
103	4
104	18
105	25
106	38
107	132
108	15
109	45
110	5
111	20
112	19
113	27
114	3
115	7
116	28
117	5
118	12
119	5
120	10
121	291
122	756
123	71
124	10
125	6
126	3
127	7
128	3
129	6
130	5
131	3
132	7
133	16
134	10
135	21
136	4
137	3
139	3
140	3
141	7
143	3
144	4
145	10
146	5
147	9
148	3
149	237
150	28
151	51
152	8
153	32
154	5
155	9
158	23
159	6
160	4
163	3
165	3
167	59
168	7
169	3
170	3
172	4
175	4
176	3
177	3
179	434
180	30
181	294
182	18
183	56
184	5
185	3
191	7
192	3
193	7
194	8
195	4
196	3
197	3
201	3
202	9
203	4
205	7
206	8
207	4
210	4
219	3
222	20
223	7
224	8
225	3
230	5
231	3
235	5
236	5
237	12
238	4
239	5
250	21
251	5
252	9
253	4
256	4
264	4
265	51
266	12
267	19
268	4
272	3
279	15
280	5
284	3
290	14
291	19
292	10
293	7
307	3
316	4
319	228
320	47
321	87
322	18
323	6
326	21
327	4
328	16
329	3
330	4
347	3
349	3
350	38
351	202
352	52
353	81
354	14
355	7
386	110
387	19
388	74
389	13
390	15
391	3
