Mass Spectrum: 4-Bromoacetyl-2-[4-chlorophenyl]-7-chloro-6-methoxyquinoline
Formula: C18H12BrCl2NO2
CAS: 19023-10-0
Molecular weight: 423
m/z	intensity
42	160
43	242
49	61
50	173
51	213
52	47
53	68
55	10
61	57
62	196
63	187
64	30
68	30
69	37
72	41
73	77
74	295
75	451
76	129
77	52
79	8
80	40
81	74
82	27
84	52
85	61
86	237
87	999
88	207
89	38
93	133
95	229
96	9
97	54
98	141
99	340
100	172
101	338
102	222
105	48
106	31
107	21
108	52
109	43
110	48
111	144
112	106
113	119
114	69
115	35
116	20
118	44
119	86
121	53
122	132
123	86
124	64
125	54
126	69
127	33
129	73
131	43
134	271
135	101
136	88
137	150
138	95
139	58
140	35
141	44
144	8
147	19
148	50
149	40
150	169
151	67
152	79
154	12
160	9
161	31
162	39
163	34
164	34
165	150
166	125
173	62
174	47
175	58
176	51
177	18
187	37
188	121
189	97
190	27
197	35
199	8
201	67
202	63
203	140
204	30
211	19
212	24
213	26
214	14
215	29
223	8
224	385
225	69
226	125
227	16
237	50
238	116
239	35
240	38
251	19
252	176
253	42
254	57
258	8
259	56
261	38
266	46
267	88
268	29
269	30
272	9
273	36
275	8
302	224
303	49
304	149
305	18
306	22
309	28
316	17
330	234
331	50
332	158
333	29
334	23
345	8
347	11
423	417
424	118
425	702
426	154
427	327
428	67
429	48
