Mass Spectrum: Thieno[2,3-c]pyridazin-7-one-6-carboxylic acid, 2-chloro-4-phenyl-, methyl ester
Formula: C14H9ClN2O3S
CAS: 190207-54-6
Molecular weight: 320
m/z	intensity
26	5
27	50
28	40
29	26
30	6
31	4
32	7
34	5
35	1
36	9
37	8
38	16
39	53
40	5
41	17
42	3
43	17
44	10
45	20
46	2
47	3
49	3
50	91
51	537
52	36
53	20
54	14
55	12
56	4
57	18
58	2
59	99
60	6
61	3
62	8
63	28
64	21
65	17
66	3
67	3
68	4
69	152
70	45
71	17
72	9
73	9
74	21
75	32
76	53
77	999
78	68
79	35
80	5
81	34
82	7
83	6
84	11
85	3
86	6
87	4
88	4
89	5
90	3
91	18
92	7
93	7
94	49
95	35
96	9
97	7
98	10
99	6
100	7
101	8
102	10
103	31
104	136
105	18
106	42
107	10
108	6
109	9
110	3
111	4
112	2
113	4
114	28
115	9
116	15
117	5
118	5
119	4
120	4
121	15
122	35
123	14
124	4
125	3
126	5
127	15
128	468
129	61
130	69
131	8
132	24
133	4
134	2
135	3
136	1
137	2
138	3
139	1
140	6
141	2
142	4
143	22
144	7
145	12
146	8
147	7
148	2
149	15
150	4
151	3
152	1
153	6
154	5
155	2
156	2
157	2
158	52
159	6
160	19
161	3
162	5
163	16
164	4
165	7
166	2
167	3
168	4
169	15
170	26
171	52
172	247
173	37
174	19
175	7
176	3
177	2
178	1
179	5
180	12
181	7
182	7
183	7
184	3
185	3
186	4
187	2
188	1
189	4
190	2
191	2
192	1
193	1
194	1
195	2
196	3
197	13
198	25
199	8
200	136
201	20
202	8
203	2
204	2
205	4
206	35
207	159
208	32
209	59
210	9
211	7
212	3
213	3
214	3
215	4
216	2
217	17
218	3
219	7
220	5
221	2
222	1
223	2
224	2
225	6
226	19
227	13
228	3
229	2
230	1
231	3
232	5
233	6
234	17
235	771
236	135
237	288
238	49
239	15
240	3
241	5
242	1
245	5
246	1
247	4
248	2
249	2
250	1
251	1
252	2
253	3
254	1
257	1
259	1
260	3
261	25
262	86
263	20
264	32
265	6
266	2
270	2
271	1
275	3
276	2
277	1
283	1
284	1
285	1
287	2
289	86
290	13
291	32
292	9
293	2
294	1
303	1
307	2
319	2
320	507
321	87
322	194
323	33
324	10
325	2
