Mass Spectrum: Propanal, 2-propenylhydrazone
Formula: C6H12N2
CAS: 19031-78-8
Molecular weight: 112
m/z	intensity
26	23
27	151
28	208
29	142
30	170
31	17
39	102
40	25
41	265
42	78
43	43
44	46
54	51
55	145
56	153
57	25
58	12
69	160
70	208
71	999
72	94
83	208
84	25
85	76
97	15
111	19
112	151
113	25
