Mass Spectrum: 1-Boraindane, 3-methyl-1-[1-(trimethylsilyl)-2,4-cyclopentadien-3-yl]-
Formula: C17H23BSi
CAS: 190316-36-0
Molecular weight: 266
m/z	intensity
27	1
28	4
29	4
31	3
37	2
39	0
40	4
41	3
43	19
44	10
45	81
46	5
47	0
50	1
51	6
53	2
55	4
57	4
58	5
59	31
60	3
61	5
62	0
63	4
64	0
65	0
67	3
69	3
71	2
72	8
73	999
74	82
75	38
76	3
77	7
78	1
79	0
81	1
83	6
85	2
86	0
87	5
88	0
89	7
90	1
91	5
93	3
95	3
96	1
97	4
98	1
99	2
100	7
101	9
102	4
103	10
104	4
105	9
106	0
107	4
108	1
109	4
111	0
112	3
113	11
114	2
115	4
116	1
117	3
118	8
119	3
121	3
122	15
123	6
124	4
125	6
126	13
127	9
128	5
129	4
131	5
132	0
133	2
135	5
136	6
137	6
139	2
140	0
141	1
143	3
145	10
146	0
149	2
150	10
151	10
152	3
153	1
155	0
157	0
159	13
160	2
161	4
162	4
163	12
164	5
165	6
166	0
167	0
169	2
174	1
175	3
176	9
177	11
178	4
179	3
180	0
181	4
182	0
183	4
185	0
186	0
187	3
188	0
189	3
190	4
191	27
192	91
193	20
194	2
195	5
196	0
197	0
199	0
202	0
203	0
204	0
205	1
206	0
207	3
208	8
209	37
210	6
211	3
215	0
217	2
218	2
219	2
221	0
223	1
231	0
232	0
233	1
235	2
248	0
249	2
250	10
251	40
252	9
253	0
265	37
266	157
267	37
268	8
