Mass Spectrum: Cyclobutane, 1,1-dimethyl-3-methylene-
Formula: C7H12
CAS: 19037-73-1
Molecular weight: 96
m/z	intensity
25	0
26	20
27	196
28	94
29	109
30	2
37	14
38	44
39	440
40	124
41	658
42	53
43	17
44	1
45	3
46	4
49	3
50	33
51	53
52	21
53	163
54	147
55	149
56	470
57	48
58	1
61	2
62	6
63	11
64	1
65	32
66	18
67	147
68	151
69	20
70	1
71	4
72	3
73	1
74	2
75	1
76	0
77	35
78	5
79	133
81	999
82	71
83	2
84	3
85	1
91	4
92	0
93	2
94	0
95	26
96	18
97	1
