Mass Spectrum: Borane, phenylbis[3-(trimethylsilyl)cyclopentadienyl]-
Formula: C22H31BSi2
CAS: 190316-43-9
Molecular weight: 362
m/z	intensity
27	0
29	5
31	3
37	0
39	1
40	6
41	5
42	0
43	34
44	13
45	173
46	10
47	5
50	0
51	2
52	0
53	4
54	0
55	6
56	0
57	7
58	6
59	40
60	3
61	3
62	0
63	1
65	1
66	0
67	5
68	1
69	5
70	1
71	2
72	5
73	999
74	83
75	39
76	2
77	6
78	1
79	2
81	5
82	1
83	11
84	1
85	3
86	1
87	4
88	1
89	2
90	1
91	6
92	1
93	11
94	1
95	12
96	6
97	14
98	1
99	2
100	4
101	3
102	5
103	20
104	3
105	17
106	3
107	23
108	3
109	5
110	0
111	1
112	2
113	8
114	1
115	2
116	1
117	2
118	0
119	4
120	1
121	17
122	24
123	15
124	3
125	9
126	28
127	6
128	2
129	5
130	2
131	8
132	1
133	4
134	0
135	232
136	34
137	15
138	5
139	4
140	1
141	4
142	2
143	5
144	1
145	15
146	4
147	7
148	2
149	5
150	8
151	21
152	65
153	15
154	2
155	5
156	2
157	3
158	3
159	15
160	3
161	2
162	1
163	8
164	5
165	10
166	4
167	4
168	1
169	10
170	12
171	8
172	2
173	3
174	1
175	1
176	2
177	9
178	3
179	8
180	6
181	18
182	5
183	29
184	7
185	11
186	3
187	3
188	1
189	2
190	1
191	3
192	3
193	9
194	6
195	30
196	24
197	41
198	8
199	4
200	2
201	1
202	1
203	1
204	0
205	2
206	1
207	5
208	9
209	28
210	7
211	13
212	31
213	10
214	9
215	5
216	2
217	1
218	1
219	2
220	1
221	2
222	2
223	10
224	240
225	927
226	200
227	53
228	7
229	3
230	1
231	5
232	2
233	3
234	1
235	1
236	0
237	0
238	0
239	1
240	0
241	1
242	2
243	4
244	3
245	3
246	1
247	1
249	0
251	0
252	0
253	1
254	0
255	2
256	1
257	4
258	18
259	48
260	11
261	3
262	1
263	0
266	0
267	0
268	0
269	1
270	0
271	1
272	3
273	15
274	49
275	14
276	3
277	0
279	0
281	0
283	0
284	2
285	5
286	2
287	10
288	43
289	43
290	11
291	3
296	1
297	5
298	1
299	0
301	0
302	2
303	0
310	1
311	5
312	7
313	1
314	0
317	0
318	0
320	0
330	0
339	2
340	1
346	9
347	42
348	14
349	5
350	1
352	0
356	0
357	0
361	73
362	321
363	111
364	38
365	8
366	1
