Mass Spectrum: 2-Iodomethyl-5-methyltetrahydrofuran
Formula: C6H11IO
CAS: 19056-49-6
Molecular weight: 226
m/z	intensity
41	260
43	430
45	270
55	430
56	110
57	170
67	150
81	30
83	60
85	999
86	70
99	400
108	45
127	30
141	40
169	30
211	20
226	185
