Mass Spectrum: 1-Ethylpyridinium bromide
Formula: C7H10BrN
CAS: 1906-79-2
Molecular weight: 187
m/z	intensity
12	3
13	3
14	6
15	5
24	4
25	20
26	160
27	324
28	114
29	397
30	9
34	1
36	5
37	19
38	27
39	79
40	8
41	3
42	1
44	1
48	6
49	32
50	153
51	247
52	618
53	75
54	4
61	1
62	2
63	2
64	4
65	3
66	2
67	1
74	3
75	15
76	10
77	6
78	110
79	999
80	75
81	25
82	39
91	3
92	3
93	15
94	3
95	14
103	1
104	2
105	2
106	13
107	8
108	338
109	10
110	342
111	8
