Mass Spectrum: 6-Benzyl-2,4-dihydroxy-5H-pyrrolo[3,4-d]pyrimidin-7[6H]-one
Formula: C13H11N3O3
CAS: 19068-66-7
Molecular weight: 257
m/z	intensity
41	42
42	49
44	78
45	5
50	23
51	79
52	138
53	201
54	53
55	13
56	83
58	2
59	1
60	0
61	0
63	55
65	245
67	42
68	15
69	4
70	15
73	36
74	11
75	5
76	3
77	51
78	16
79	27
80	42
81	22
82	20
83	10
85	5
86	2
87	1
89	27
91	999
92	81
93	18
95	20
96	10
97	1
98	1
102	4
104	47
106	866
108	18
109	11
110	0
111	0
114	0
115	7
116	3
117	5
118	4
121	0
123	12
124	30
126	10
128	3
129	3
130	7
132	23
133	1
136	10
137	37
140	1
141	1
142	4
143	2
144	0
151	3
152	3
153	2
155	4
156	1
157	9
158	7
159	0
163	1
166	9
167	1
168	0
169	2
170	2
171	1
179	24
180	18
181	0
183	2
184	2
185	14
186	12
187	5
195	1
196	3
197	0
199	0
201	0
212	2
213	10
214	5
215	1
227	0
228	4
229	1
239	2
240	1
256	30
257	461
258	82
259	4
260	2
