Mass Spectrum: 3,1-Benzoxazepine, 7-bromo-2-(p-bromophenyl)-
Formula: C15H9Br2NO
CAS: 19062-92-1
Molecular weight: 377
m/z	intensity
41	49
43	62
45	41
62	235
63	665
64	78
81	117
82	75
83	73
85	47
86	83
87	193
88	208
89	999
90	185
95	83
96	101
101	31
102	268
103	26
115	54
117	41
119	26
121	26
122	26
135	36
136	41
137	23
140	26
164	161
165	261
166	219
167	28
168	60
183	26
188	26
189	57
190	443
191	757
192	167
349	464
350	80
351	966
352	94
353	443
354	73
361	20
363	44
365	20
377	347
378	78
379	710
380	127
381	355
382	52
