Mass Spectrum: 3,1-Benzoxazepine-2-carbonitrile, 4-methyl-
Formula: C11H8N2O
CAS: 19062-85-2
Molecular weight: 184
m/z	intensity
42	8
43	999
44	32
61	23
62	65
63	124
64	35
65	17
66	17
74	20
75	35
76	29
77	74
78	32
86	5
87	23
88	20
89	74
90	32
92	5
101	11
102	20
103	38
104	14
114	44
115	71
116	8
141	29
142	522
143	59
168	20
184	320
185	50
