Mass Spectrum: 1-Naphthalenemethanol, 1,4,4a,5,6,7,8,8a-octahydro-2,5,5,8a-tetramethyl-
Formula: C15H26O
CAS: 19078-37-6
Molecular weight: 222
m/z	intensity
25	0
26	4
27	56
28	15
29	93
30	2
31	39
32	2
37	1
38	2
39	79
40	15
41	352
42	30
43	170
44	7
45	6
47	1
48	0
49	3
50	4
51	19
52	9
53	87
54	12
55	269
56	47
57	57
58	5
59	8
60	1
61	1
62	1
63	6
64	4
65	50
66	14
67	137
68	37
69	303
70	55
71	29
72	4
73	3
74	1
75	3
76	2
77	120
78	27
79	153
80	56
81	235
82	58
83	96
84	27
85	17
86	2
87	1
88	1
89	4
90	2
91	213
92	48
93	210
94	48
95	204
96	44
97	74
98	81
99	10
100	1
101	1
102	3
103	19
104	10
105	187
106	47
107	180
108	54
109	999
110	94
111	25
112	4
113	2
114	1
115	23
116	9
117	30
118	10
119	174
120	47
121	139
122	52
123	109
124	454
125	62
126	9
127	5
128	13
129	12
130	5
131	19
132	8
133	83
134	30
135	72
136	48
137	30
138	26
139	11
140	5
141	5
142	2
143	4
144	3
145	14
146	5
147	39
148	23
149	33
150	9
151	8
152	10
153	4
154	1
155	0
157	1
158	0
159	15
160	5
161	116
162	21
163	22
164	4
165	3
166	5
167	1
171	0
173	3
174	1
175	17
176	9
177	21
178	8
179	9
180	1
181	0
187	3
188	1
189	93
190	16
191	93
192	15
193	3
194	0
201	0
202	3
203	3
204	82
205	16
206	3
207	29
208	4
209	0
215	0
220	1
221	0
222	128
223	21
224	2
