Mass Spectrum: Di(n-hexyloxy)methylsilane
Formula: C13H30O2Si
CAS: 190734-10-2
Molecular weight: 246
m/z	intensity
30	22
31	19
36	11
37	11
38	22
39	202
40	49
41	459
42	231
43	476
44	52
45	155
46	17
47	24
48	2
49	2
50	7
51	15
52	8
53	45
54	45
55	612
56	382
57	94
58	18
59	66
60	27
61	467
62	38
63	181
64	7
65	18
66	7
67	71
68	21
69	139
70	31
71	21
72	9
73	28
74	12
75	177
76	21
77	492
78	39
79	151
80	9
81	21
82	67
83	999
84	254
85	208
86	19
87	55
88	9
89	35
90	9
91	413
92	29
93	81
94	6
95	9
97	6
99	29
100	6
101	62
102	9
103	80
104	10
105	325
106	31
107	17
109	6
111	4
113	6
115	48
116	6
117	83
118	8
119	21
120	2
121	6
123	6
127	4
128	2
129	17
130	4
131	49
132	4
133	9
135	7
137	11
139	7
141	7
143	27
144	11
145	88
146	9
147	48
148	4
149	2
151	9
152	2
153	6
155	2
157	2
159	19
160	11
161	348
162	41
163	137
164	17
165	11
173	22
174	14
175	564
176	79
177	27
187	11
189	4
195	2
229	189
230	39
231	342
232	60
233	15
243	11
244	60
245	625
246	132
247	46
