Mass Spectrum: Butyric acid, 4-bromo-4-phenyl-
Formula: C10H11BrO2
CAS: 19078-75-2
Molecular weight: 242
m/z	intensity
39	13
40	81
41	27
42	13
43	21
45	54
51	54
52	102
53	32
54	13
55	13
56	59
57	21
58	24
61	21
62	56
63	13
64	54
74	21
75	27
76	21
77	135
78	89
79	54
80	81
81	27
82	81
83	54
84	13
87	13
89	56
90	27
91	243
92	27
102	32
103	135
104	162
105	108
106	21
107	148
108	21
115	189
116	45
117	999
118	148
119	21
121	54
125	40
145	94
146	8
163	945
164	108
165	13
169	27
171	27
