Mass Spectrum: 7-Thiapentacyclo[4.4.0.0(2,5).0(3,9).0(4,8)]decan-10-one, 7,7-dioxide
Formula: C9H8O3S
CAS: 19086-79-4
Molecular weight: 196
m/z	intensity
37	37
38	101
39	451
40	47
41	60
42	33
43	101
44	117
45	656
46	77
47	53
48	33
49	104
50	262
51	545
52	336
53	60
62	50
63	144
64	77
65	107
66	127
67	23
73	26
74	53
75	40
76	107
77	279
78	865
79	87
80	10
83	10
84	77
85	10
90	26
91	114
92	26
97	117
98	40
101	6
102	60
103	518
104	999
105	101
106	6
131	262
132	47
133	10
143	10
144	26
145	13
196	148
197	26
198	16
