Mass Spectrum: Octasiloxane, 1,1,3,3,5,5,7,7,9,9,11,11,13,13,15,15-hexadecamethyl-
Formula: C16H50O7Si8
CAS: 19095-24-0
Molecular weight: 578
m/z	intensity
27	1
28	14
29	1
31	3
39	0
40	0
41	1
42	0
43	0
44	1
45	37
46	2
47	1
51	0
52	0
53	0
54	0
55	1
56	1
57	0
58	2
59	63
60	5
61	2
62	0
65	0
67	1
68	0
69	0
70	0
71	0
72	2
73	999
74	78
75	36
76	1
77	0
82	0
83	0
84	0
85	4
86	0
87	5
88	0
89	1
91	0
96	1
97	0
99	0
103	9
104	1
105	1
113	0
115	1
116	0
117	23
118	2
119	10
120	1
121	0
125	0
126	0
129	0
131	16
132	3
133	126
134	18
135	9
136	1
139	0
140	1
141	0
145	4
147	158
148	27
149	13
150	1
151	1
153	3
154	1
155	0
156	0
157	0
158	0
159	0
160	0
161	1
162	1
163	1
164	0
165	1
168	0
169	0
170	0
171	0
174	1
175	3
176	2
177	10
178	2
179	3
180	1
181	0
182	0
183	0
184	1
185	1
186	0
187	1
188	1
189	4
190	2
191	21
192	6
193	60
194	13
195	7
196	1
197	1
200	1
201	1
202	1
203	1
204	1
205	9
207	461
208	96
209	59
210	9
211	2
212	0
219	0
221	69
222	16
223	8
224	2
225	1
226	0
229	0
231	1
233	1
235	2
237	2
238	0
239	0
241	0
242	0
244	1
247	1
248	2
249	7
250	3
251	11
252	4
253	9
254	2
255	2
256	1
257	1
258	1
259	0
260	0
261	1
263	3
265	17
267	79
268	22
269	14
270	4
271	3
272	1
273	1
275	0
277	1
279	5
281	250
282	72
283	46
284	10
285	3
286	0
293	0
295	6
296	2
297	1
298	0
306	1
308	1
309	2
310	1
311	5
312	2
313	7
314	2
315	1
317	0
319	0
321	1
323	3
325	14
326	7
327	45
328	16
329	9
330	2
331	0
339	3
341	97
342	36
343	21
344	5
345	2
355	76
356	31
357	19
358	4
359	1
369	1
370	0
371	2
372	0
381	0
383	2
384	1
385	7
386	2
387	2
388	0
399	6
400	2
401	8
402	3
403	2
404	0
413	1
415	26
416	10
417	7
418	1
419	0
429	40
430	17
431	11
432	3
433	1
487	0
489	1
490	0
491	0
503	16
504	8
505	5
506	2
507	1
563	4
564	2
565	1
566	0
