Mass Spectrum: Ethanamine, N-methyl-N-nitro-
Formula: C3H8N2O2
CAS: 19092-01-4
Molecular weight: 104
m/z	intensity
30	430
31	32
38	21
39	37
40	189
41	123
42	999
43	999
44	345
45	39
46	33
49	26
51	14
54	19
55	35
56	223
57	325
58	169
59	96
60	24
61	18
84	21
86	11
87	14
88	57
89	970
90	29
104	560
