Mass Spectrum: Propyl methanesulfonate
Formula: C4H10O3S
CAS: 1912-31-8
Molecular weight: 138
m/z	intensity
14	7
15	265
16	4
25	1
26	26
27	195
28	48
29	130
30	13
31	92
32	4
33	4
34	4
37	4
38	7
39	72
40	21
41	236
42	308
43	330
44	13
45	83
46	4
47	5
48	16
49	5
50	5
51	1
55	2
56	1
57	10
58	4
59	48
60	2
62	1
63	19
64	10
65	67
66	2
67	3
72	1
73	3
76	1
78	5
79	999
80	100
81	56
82	6
83	1
93	7
95	6
96	2
97	333
98	8
99	18
108	1
109	811
110	26
111	47
112	1
113	1
121	1
123	27
124	1
137	6
