Mass Spectrum: Solasonine
Formula: C45H73NO16
CAS: 19121-58-5
Molecular weight: 883
m/z	intensity
41	345
42	343
43	999
44	338
45	284
47	80
49	108
50	31
51	59
52	36
53	105
54	33
55	421
56	160
57	346
58	164
60	311
61	46
63	19
64	3
65	25
66	15
67	84
68	71
69	209
70	88
71	222
73	169
74	27
75	20
77	45
78	15
79	79
80	8
81	107
82	46
83	62
84	70
85	117
86	44
87	35
88	10
89	13
91	80
93	71
94	19
95	49
96	35
97	56
98	117
99	30
100	12
101	16
102	12
103	16
105	63
106	13
107	30
108	16
109	28
110	50
111	129
112	73
113	245
114	409
115	38
116	5
117	24
118	3
119	28
120	14
121	33
122	14
123	10
124	86
125	192
126	61
127	24
128	22
129	42
131	24
133	28
134	10
135	16
136	11
138	406
139	50
140	10
142	24
143	15
144	10
145	32
147	50
148	19
149	18
150	16
152	30
153	3
155	2
157	22
158	5
159	31
160	5
161	24
162	15
163	10
164	13
166	16
167	3
168	6
169	4
171	11
173	23
174	7
175	7
176	6
178	6
180	8
181	2
183	8
185	9
192	5
197	2
199	3
206	2
207	3
214	3
215	2
221	3
253	5
267	2
283	2
378	7
380	2
385	4
396	12
413	6
