Mass Spectrum: N,N,o-Tri[methanesulfonyl]-2-aminophenol
Formula: C9H13NO7S3
CAS: 191232-18-5
Molecular weight: 343
m/z	intensity
41	3
42	3
43	1
45	17
46	4
47	4
48	9
49	0
51	377
52	108
53	5
54	6
55	1
63	40
64	14
65	21
66	10
67	6
68	1
71	0
75	1
76	10
78	438
79	239
80	68
81	5
83	0
90	0
91	2
92	11
93	11
94	19
95	15
96	1
98	12
106	438
108	999
109	26
111	11
120	46
121	18
122	16
124	19
125	0
136	3
138	8
140	0
143	1
154	7
158	2
169	8
170	3
172	4
173	2
184	11
186	976
187	80
188	57
189	1
198	0
200	78
202	32
203	0
248	43
249	2
250	5
262	2
263	2
264	234
265	132
266	42
267	15
268	2
279	4
341	1
343	222
344	35
345	49
346	8
347	1
