Mass Spectrum: Bicyclo[2.2.1]heptane, 2-chloro-2-methyl-, exo-
Formula: C8H13Cl
CAS: 19138-54-6
Molecular weight: 144
m/z	intensity
39	130
40	20
41	110
50	20
51	60
52	20
53	80
54	40
55	60
65	50
66	90
67	220
68	150
77	60
78	20
79	120
80	70
81	999
82	130
91	40
93	50
95	50
107	50
108	90
109	20
129	50
130	5
131	17
144	140
145	20
146	50
