Mass Spectrum: 3-(Butylamino)-1-phenylprop-2-en-1-one
Formula: C13H17NO
CAS: 19134-41-9
Molecular weight: 203
m/z	intensity
34	4
37	3
38	15
39	173
40	111
41	445
42	132
43	179
44	63
45	5
50	86
51	286
52	49
53	97
54	95
55	248
56	275
57	174
58	17
59	4
62	8
63	29
64	10
65	70
66	11
67	20
68	98
69	52
70	372
71	54
72	94
73	8
74	18
75	26
76	74
77	724
78	104
79	26
80	31
81	24
82	137
83	62
84	179
85	18
86	2
88	10
89	23
91	999
92	79
93	18
94	7
95	8
96	64
97	23
98	90
99	10
100	1
101	8
102	32
103	92
104	53
105	854
106	70
107	9
108	35
109	8
110	4
111	6
112	4
113	5
114	2
115	35
116	9
117	55
118	40
119	12
120	30
121	13
122	11
123	5
124	5
125	5
126	158
127	19
128	33
129	21
130	33
131	80
132	87
133	52
134	8
135	4
139	1
140	1
141	1
142	3
143	5
144	33
145	18
146	173
147	21
148	8
149	366
150	37
151	4
152	9
153	1
154	2
155	1
156	42
157	9
158	10
159	12
160	446
161	62
162	6
167	13
168	1
172	5
173	6
174	674
175	87
176	6
177	1
181	5
182	2
183	3
184	8
185	5
186	38
187	5
188	12
189	1
200	2
201	3
202	287
203	905
204	138
205	26
206	2
