Mass Spectrum: Perseitol heptaacetate
Formula: C21H30O14
CAS: 19147-10-5
Molecular weight: 506
m/z	intensity
8	0
42	14
43	999
44	216
45	6
47	13
48	11
49	10
50	3
51	3
52	2
53	6
54	6
55	21
56	7
57	37
58	11
59	2
60	11
61	31
62	1
63	2
64	0
65	2
66	1
67	8
68	12
69	58
70	21
71	29
72	0
73	60
74	6
75	4
76	1
77	6
78	14
79	4
80	6
81	23
82	16
83	43
84	53
85	54
86	73
87	49
88	8
89	0
91	1
92	0
93	0
94	1
95	10
96	6
97	64
98	118
99	112
100	44
101	12
102	21
103	151
104	5
105	2
106	6
107	9
108	2
109	6
111	83
112	37
113	18
115	242
116	37
117	48
118	2
119	0
120	0
121	1
122	2
123	11
124	65
125	58
126	10
127	50
128	76
129	186
130	50
131	5
133	1
135	0
137	0
139	166
140	110
141	61
142	52
143	12
144	7
145	215
146	15
147	3
149	1
151	0
153	151
154	21
155	4
157	265
158	67
159	96
160	7
161	1
163	0
165	1
166	66
167	94
168	9
169	19
170	43
171	53
172	15
173	2
175	12
176	0
177	0
182	25
183	12
184	97
185	16
187	111
188	8
189	20
190	1
191	0
196	0
197	0
199	67
200	118
201	153
202	13
203	3
204	0
205	0
208	1
209	0
211	8
212	0
213	6
214	2
215	1
217	81
218	7
219	1
224	0
225	9
226	48
227	14
228	2
229	6
231	196
232	25
233	4
234	0
240	8
241	231
242	41
243	14
245	3
246	0
247	1
249	0
256	1
257	0
259	134
260	15
261	3
262	0
268	10
269	1
270	0
271	0
273	89
274	11
275	2
276	0
284	0
285	0
286	24
287	18
289	71
290	8
291	1
292	0
300	13
301	110
302	15
303	2
304	0
317	0
319	0
328	3
329	6
331	8
332	1
333	0
345	1
346	0
347	3
361	82
362	13
363	2
364	0
373	44
374	7
375	1
376	0
386	4
387	430
388	26
390	3
391	0
447	67
448	14
449	3
450	0
491	7
492	1
493	0
506	0
