Mass Spectrum: Spiro[4.5]decane, 6-methylene-
Formula: C11H18
CAS: 19144-01-5
Molecular weight: 150
m/z	intensity
26	6
27	131
28	5
29	128
30	2
31	0
36	1
37	1
38	6
39	197
40	36
41	324
42	19
43	85
44	6
45	2
46	1
50	13
51	57
52	29
53	132
54	26
55	193
56	9
57	38
58	12
59	6
60	1
62	3
63	16
64	10
65	94
66	39
67	464
68	308
69	67
70	4
71	10
72	2
73	1
74	1
75	2
76	2
77	222
78	53
79	529
80	151
81	226
82	137
83	32
84	3
89	5
90	2
91	301
92	65
93	999
94	227
95	123
96	37
97	4
101	1
102	2
103	11
104	5
105	78
106	18
107	410
108	662
109	319
110	26
111	4
112	0
115	7
116	2
117	4
118	1
119	9
120	6
121	591
122	105
123	7
124	0
127	1
128	2
129	1
131	1
133	4
134	2
135	698
136	80
137	4
149	9
150	498
151	61
152	4
