Mass Spectrum: 1,4-Cyclohexanediol, dibenzoate
Formula: C20H20O4
CAS: 19150-32-4
Molecular weight: 324
m/z	intensity
41	140
42	50
43	60
44	150
45	10
50	40
51	120
52	10
53	40
54	120
55	100
56	150
57	240
58	70
59	30
64	10
65	10
67	20
68	20
69	60
70	30
71	20
76	10
77	350
78	70
79	120
80	870
81	120
82	10
83	50
84	50
86	30
91	10
96	30
97	20
98	60
105	999
106	90
113	40
