Mass Spectrum: 5-Chloro-4-methoxybenzofuroxan
Formula: C7H5ClN2O3
CAS: 19164-35-3
Molecular weight: 200
m/z	intensity
41	4
42	5
43	7
44	0
47	25
49	75
50	80
51	139
52	88
53	66
54	17
55	5
57	1
60	71
61	127
62	216
63	45
64	55
65	30
66	2
67	15
69	1
70	1
71	19
73	178
74	166
75	355
76	87
77	362
78	45
79	10
80	20
81	2
84	60
85	29
86	45
87	42
88	18
90	71
91	2
92	13
94	3
97	82
99	70
100	17
101	15
102	2
104	22
105	23
106	5
107	11
110	999
112	468
113	13
114	69
115	10
116	9
117	4
118	3
120	2
123	1
125	42
127	138
129	46
130	3
135	12
140	716
142	349
143	62
144	22
145	8
153	53
154	15
155	13
156	2
157	1
168	1
169	4
170	6
171	1
172	1
173	0
182	0
183	1
184	7
185	9
186	4
187	2
199	11
200	830
202	287
203	8
204	1
