Mass Spectrum: Zinc, bis[bis(2-hydroxyethyl)carbamodithioato-S,S']-, (T-4)-
Formula: C10H20N2O4S4Zn
CAS: 19163-92-9
Molecular weight: 424
m/z	intensity
12	2
14	3
15	38
16	1
17	9
18	34
19	2
25	1
26	12
27	65
28	207
29	85
30	191
31	50
32	58
33	24
34	71
35	4
36	4
38	49
39	6
40	9
41	41
42	138
43	84
44	228
45	125
46	18
47	7
48	2
52	2
53	1
54	27
55	13
56	408
57	37
58	15
59	30
60	132
61	51
62	8
63	2
64	14
66	1
67	4
68	7
69	16
70	26
71	4
72	54
73	126
74	599
75	32
76	999
77	29
78	89
79	2
80	2
81	1
82	1
83	5
84	5
85	5
86	92
87	17
88	56
89	4
90	4
91	1
93	1
95	2
96	4
97	2
99	1
100	42
101	25
102	20
103	138
104	282
105	26
106	18
107	1
109	1
111	1
113	3
114	3
115	1
116	25
117	14
118	4
119	11
120	10
121	2
122	1
128	6
129	422
130	33
131	21
132	25
133	2
134	1
135	2
144	5
145	35
146	8
147	469
148	53
149	25
150	2
162	1
163	40
164	4
165	4
