Mass Spectrum: 6-Aminotetrazolo(b)pyridazine
Formula: C4H4N6
CAS: 19195-43-8
Molecular weight: 136
m/z	intensity
12	16
13	13
14	31
15	4
16	19
17	30
18	49
24	19
25	44
26	322
27	767
28	999
29	49
30	3
31	8
32	6
36	15
37	67
38	86
39	44
40	38
41	52
42	29
43	21
44	7
48	3
49	6
50	36
51	179
52	235
53	425
54	47
55	17
56	4
57	5
62	8
63	15
64	17
65	10
66	14
67	7
68	4
69	3
70	1
71	4
76	21
77	62
78	229
79	57
80	239
81	20
82	10
83	3
85	2
91	1
95	4
96	1
97	2
103	1
108	3
109	1
110	67
111	6
125	1
135	1
136	24
137	27
138	3
139	1
