Mass Spectrum: 2-Oxazolidinone, 4,5-diphenyl-, cis-
Formula: C15H13NO2
CAS: 19202-66-5
Molecular weight: 239
m/z	intensity
43	30
44	20
50	30
51	100
52	30
63	30
64	20
65	20
76	20
77	210
78	80
79	250
80	30
89	70
90	30
91	30
103	10
104	330
105	180
106	50
107	999
108	250
109	30
116	20
117	10
118	20
132	40
133	50
134	10
142	20
143	10
165	50
166	10
167	20
168	10
195	10
239	40
240	10
