Mass Spectrum: 2-Benzyloxy-4,5-methylenedioxybenzyl alcohol
Formula: C15H14O4
CAS: 19202-32-5
Molecular weight: 258
m/z	intensity
17	4
18	1
26	1
27	5
28	8
29	3
30	1
31	2
38	2
39	17
40	1
41	7
42	1
43	1
44	1
50	4
51	10
52	5
53	26
54	2
55	10
56	1
57	1
62	3
63	10
64	5
65	74
66	7
67	3
69	29
70	1
71	1
75	1
76	2
77	5
78	1
79	6
80	2
81	23
82	2
83	1
84	1
89	9
90	4
91	999
92	86
93	6
94	1
95	1
103	1
105	3
106	2
107	8
108	2
109	88
110	7
111	2
115	2
119	1
120	1
121	39
122	7
123	1
128	1
135	1
136	1
137	5
138	4
139	16
140	1
141	1
149	10
150	731
151	89
152	32
153	4
164	14
165	32
166	48
167	10
168	1
169	1
181	1
197	1
210	3
211	3
223	2
225	1
227	10
228	9
229	1
239	3
240	36
241	9
242	8
243	1
256	20
257	4
258	222
259	36
260	5
