Mass Spectrum: Tetradecane, 1-iodo-
Formula: C14H29I
CAS: 19218-94-1
Molecular weight: 324
m/z	intensity
15	5
26	11
27	190
28	17
29	368
39	134
40	39
41	637
42	124
43	955
44	19
51	3
53	37
54	27
55	272
56	71
57	999
58	49
65	5
67	21
68	11
69	66
70	22
71	523
72	34
79	4
81	4
83	10
85	288
86	22
99	62
100	4
113	36
127	32
128	5
141	22
155	59
169	5
197	7
