Mass Spectrum: 1,4-Dicyano-2-cyclohexylbenzene
Formula: C14H14N2
CAS: 192128-43-1
Molecular weight: 210
m/z	intensity
40	32
41	999
42	174
43	446
44	16
45	9
47	31
49	16
50	28
51	91
52	17
53	58
54	119
55	457
56	533
57	330
58	26
59	10
60	60
61	10
62	45
63	76
64	36
65	38
66	25
67	246
68	40
69	282
70	29
71	135
72	31
73	61
74	44
75	78
76	71
77	66
78	12
79	15
80	21
81	38
82	227
83	359
84	93
85	109
86	5
87	37
88	47
89	70
90	25
91	53
93	14
94	37
95	42
96	37
97	131
98	31
99	49
100	72
101	66
102	82
103	98
104	15
105	42
106	14
107	96
108	39
109	56
110	11
111	47
113	99
114	210
115	152
116	58
117	66
118	5
119	28
120	40
121	22
122	23
123	32
124	34
125	65
126	92
127	264
128	159
129	192
130	60
131	27
132	38
133	137
134	7
135	11
136	21
137	17
138	36
139	22
140	228
141	317
142	248
143	54
144	9
145	12
148	6
149	327
150	26
151	52
152	34
153	227
154	830
155	956
156	507
157	80
159	9
161	18
162	14
163	18
164	7
165	85
166	29
167	167
168	279
169	847
170	83
171	10
175	10
176	85
177	10
178	37
179	47
180	11
181	637
182	397
183	36
184	9
185	47
186	17
187	10
189	18
190	11
191	9
192	88
193	86
194	36
195	192
196	16
201	7
203	11
204	11
205	18
206	5
208	10
209	271
210	566
211	87
212	10
213	9
