Mass Spectrum: Tricyclo[3.3.1.1(3,7)]decanone, 4-bromo-
Formula: C10H13BrO
CAS: 19213-98-0
Molecular weight: 228
m/z	intensity
27	8
28	140
29	29
30	33
33	2
36	1
37	3
38	27
39	274
40	41
41	221
42	14
43	40
44	5
45	1
46	1
50	40
51	145
52	93
53	115
54	38
55	115
56	13
57	5
58	18
59	13
60	2
61	3
62	20
63	60
64	14
65	137
66	72
67	332
68	22
69	7
70	2
71	4
74	10
75	5
76	8
77	367
78	157
79	999
80	184
81	34
82	2
83	2
84	1
87	5
89	19
90	6
91	218
92	52
93	600
94	43
95	10
97	3
102	7
103	20
104	14
105	64
106	15
107	7
108	2
109	2
110	1
111	3
115	20
116	5
117	12
118	3
119	25
120	6
121	967
122	127
123	8
128	1
129	2
130	3
131	5
132	1
133	4
134	2
135	3
143	1
145	1
146	2
147	1
148	4
149	863
150	112
151	11
158	0
174	0
227	7
228	60
229	16
230	60
231	6
232	1
