Mass Spectrum: 3-Oxo-4-phenylbutyronitrile
Formula: C10H9NO
CAS: 19212-27-2
Molecular weight: 159
m/z	intensity
39	88
40	12
41	27
42	6
43	51
45	10
50	14
51	51
52	14
55	8
57	8
63	48
64	18
65	187
66	11
68	3
77	26
79	14
83	5
85	5
89	53
90	34
91	999
92	209
93	11
97	7
106	8
107	7
118	5
122	5
136	231
137	12
159	18
160	1
161	0
