Mass Spectrum: Tricyclo[3.3.1.13,7]decane-2,4-dione
Formula: C10H12O2
CAS: 19214-00-7
Molecular weight: 164
m/z	intensity
33	2
35	0
37	14
39	342
41	258
42	37
43	15
44	6
45	3
46	1
47	1
50	56
51	106
53	250
55	473
56	27
57	54
58	150
59	6
60	2
61	6
62	12
63	32
65	141
66	394
67	203
68	83
69	31
70	13
71	6
72	3
73	8
74	8
75	7
77	219
79	999
80	448
81	271
82	42
83	19
84	5
85	0
86	4
87	1
88	1
89	7
91	187
92	458
93	133
94	86
95	148
96	37
97	20
98	3
99	2
102	1
103	7
104	13
105	29
106	17
107	108
108	154
109	29
110	8
111	12
112	1
114	1
115	6
117	163
118	228
119	26
120	11
121	34
122	26
123	8
124	6
125	0
127	0
128	0
129	0
131	3
132	2
133	3
134	6
135	43
136	134
137	16
138	17
139	2
140	0
145	2
146	1
148	19
150	55
151	8
152	22
153	2
159	1
160	0
161	11
164	971
165	93
166	25
167	4
168	2
