Mass Spectrum: Hexanoic acid, 2-(1'-hydroxybenzyl)-, methyl ester, (1R,2R or 1S,2S)
Formula: C14H20O3
CAS: 192221-70-8
Molecular weight: 236
m/z	intensity
26	2
27	52
28	3
29	41
30	1
31	8
33	2
37	0
38	1
39	27
41	49
42	14
43	21
44	1
45	6
50	6
51	32
52	9
53	13
54	2
55	140
56	11
57	13
58	1
59	22
60	1
61	2
62	1
63	4
64	1
65	8
66	1
67	3
68	2
69	26
70	14
71	8
72	0
73	1
74	13
75	2
76	3
77	151
78	28
79	192
80	24
81	4
82	1
83	7
84	1
85	2
86	0
87	999
88	60
89	8
90	1
91	36
92	4
93	0
94	0
95	1
96	0
97	11
98	33
99	50
100	4
101	147
102	12
103	15
104	7
105	69
106	35
107	345
108	26
109	2
113	1
114	0
115	18
116	6
117	14
118	2
119	1
120	3
121	4
122	0
126	2
127	3
128	4
129	8
130	671
131	58
132	7
133	8
134	1
135	0
137	1
141	1
142	0
143	2
144	2
145	3
146	4
147	4
148	1
149	0
154	0
155	0
157	3
158	1
159	14
160	3
161	12
162	6
163	2
164	0
169	0
173	0
175	1
176	1
177	0
179	29
180	3
181	0
183	0
185	0
187	4
188	0
189	0
197	1
203	0
204	2
205	7
206	1
217	0
218	0
219	1
220	0
235	0
236	160
237	26
238	2
