Mass Spectrum: Benzamide, N-benzoyl-N-(4,5-dimethyl-1H-1,2,3-triazol-1-yl)-
Formula: C18H16N4O2
CAS: 19226-35-8
Molecular weight: 320
m/z	intensity
51	125
68	50
77	470
103	2
104	10
105	999
145	6
172	5
187	4
292	112
293	27
320	1
321	1
