Mass Spectrum: Benzoic acid, anhydride with N-(4,5-dimethyl-1H-1,2,3-triazol-1-yl)benzenecarboximidic acid
Formula: C18H16N4O2
CAS: 19226-31-4
Molecular weight: 320
m/z	intensity
51	60
54	4
68	60
77	290
103	3
104	10
105	999
121	2
122	4
145	10
172	10
187	6
225	2
292	85
293	18
320	18
