Mass Spectrum: Benzoic acid, anhydride with N-(4,5-diphenyl-1H-1,2,3-triazol-1-yl)benzenecarboximidic acid
Formula: C28H20N4O2
CAS: 19226-33-6
Molecular weight: 444
m/z	intensity
51	58
77	280
89	27
103	78
105	999
121	1
122	5
165	26
178	65
192	95
208	26
225	3
311	20
313	18
416	68
417	22
444	5
445	2
