Mass Spectrum: Pregn-4-ene-3,20-dione, 6-methyl-16-(1-methylethyl)-, (6.alpha.,16.alpha.)-
Formula: C25H38O2
CAS: 1922-28-7
Molecular weight: 370
m/z	intensity
43	999
45	21
53	66
55	227
57	26
65	24
67	135
69	122
71	47
77	126
78	22
79	142
81	123
83	62
85	20
91	199
93	158
94	35
95	156
97	58
105	155
106	20
107	135
108	13
109	163
110	45
111	76
113	74
117	14
119	115
120	26
121	138
122	26
123	99
126	55
127	13
129	29
131	44
132	21
133	69
134	34
135	97
136	90
137	270
138	506
139	27
143	13
145	58
147	93
148	32
149	84
151	33
157	17
159	24
161	62
163	39
171	20
173	34
174	18
175	74
177	17
185	18
187	26
188	18
189	65
190	13
191	32
199	23
201	35
215	27
216	14
225	33
233	46
243	114
244	20
245	39
258	236
269	20
285	103
301	22
309	15
312	129
313	22
327	562
328	175
337	20
352	39
355	67
370	315
371	77
