Mass Spectrum: Pregnane-3,6,20-trione, (5.alpha.)-
Formula: C21H30O3
CAS: 1923-27-9
Molecular weight: 330
m/z	intensity
41	163
42	17
43	999
44	30
53	63
54	15
55	342
56	12
57	20
67	196
68	80
69	93
71	181
77	70
78	17
79	191
80	50
81	231
82	35
83	60
84	350
85	120
91	123
92	30
93	191
94	47
95	153
96	22
97	45
105	95
106	20
107	141
108	30
109	70
110	25
111	42
117	20
119	60
121	70
122	65
123	50
131	22
132	12
133	50
134	30
135	63
136	20
137	57
138	20
139	50
145	30
146	17
147	27
148	17
149	90
150	17
159	60
160	15
161	30
162	7
163	20
173	22
174	30
175	70
176	15
177	52
178	22
189	20
190	12
191	45
192	12
199	12
201	10
203	10
215	12
216	10
217	7
227	20
229	12
231	42
233	12
245	204
246	32
247	32
248	15
255	20
257	22
259	78
260	103
269	22
270	12
271	12
272	68
273	45
274	12
284	20
285	15
286	95
287	90
288	20
301	100
302	17
303	12
312	299
313	68
314	15
315	85
316	15
330	881
331	201
332	25
