Mass Spectrum: Ethanol, 2-(1-methylethoxy)-, acetate
Formula: C7H14O3
CAS: 19234-20-9
Molecular weight: 146
m/z	intensity
15	7
26	3
27	32
29	20
30	1
31	11
38	2
39	33
40	4
41	94
42	53
43	999
44	146
45	74
46	1
55	19
56	3
57	7
58	146
59	29
60	3
61	38
68	2
69	1
70	5
71	7
72	2
73	180
74	188
75	20
76	1
86	159
87	477
88	47
89	5
103	6
105	1
131	2
