Mass Spectrum: 1-Azabicyclo[3.2.1]octan-6-ol,
Formula: C7H13NO
CAS: 192380-09-9
Molecular weight: 127
m/z	intensity
34	1
35	19
36	75
37	14
38	55
39	257
40	73
41	398
42	752
43	397
44	393
45	27
46	1
47	8
48	6
49	3
50	26
51	39
52	24
53	69
54	77
55	254
56	126
57	999
58	77
59	5
60	14
61	6
62	12
63	29
64	13
65	57
66	14
67	44
68	85
69	63
70	201
71	85
72	12
73	16
74	5
75	3
76	6
77	31
78	11
79	40
80	45
81	52
82	207
83	121
84	57
85	8
86	4
87	2
89	18
90	14
91	83
92	9
93	4
94	8
95	8
96	59
97	29
98	162
99	54
100	4
104	2
105	4
106	4
107	32
108	26
109	10
110	129
111	15
112	16
121	1
122	0
124	7
126	75
127	240
128	29
