Mass Spectrum: Cyclohexanedicarboximide, N-(2,6-dioxo-3-piperidyl)-, (.+/-.)-
Formula: C13H16N2O4
CAS: 19246-22-1
Molecular weight: 264
m/z	intensity
15	2
26	11
27	86
28	43
29	33
30	5
31	1
37	1
38	8
39	217
40	47
41	323
42	124
43	27
44	52
45	3
46	1
49	1
50	11
51	38
52	40
53	205
54	451
55	248
56	126
57	32
58	7
59	4
62	1
63	5
64	2
65	41
66	47
67	589
68	97
69	55
70	51
71	9
72	7
73	2
74	1
75	1
76	2
77	78
78	20
79	203
80	96
81	385
82	624
83	363
84	290
85	33
86	4
91	8
92	5
93	11
94	29
95	35
96	29
97	16
98	22
99	50
100	7
101	1
103	1
104	2
105	4
106	15
107	23
108	143
109	199
110	74
111	278
112	999
113	74
114	7
115	1
117	1
118	1
119	2
120	7
121	4
122	37
123	33
124	56
125	81
126	16
127	30
128	6
129	13
130	1
132	1
133	1
134	7
135	5
136	61
137	41
138	22
139	8
140	2
146	1
147	2
148	7
149	4
150	26
151	68
152	23
153	540
154	825
155	104
156	8
162	2
163	11
164	20
165	28
166	6
167	20
168	2
170	2
174	1
175	1
176	1
177	4
178	25
179	238
180	40
181	16
182	19
183	1
189	1
190	9
191	32
192	29
193	86
194	13
195	5
196	1
205	7
206	15
207	33
208	15
209	9
210	38
211	4
218	6
219	17
220	4
221	5
222	3
223	1
235	1
236	44
237	6
238	1
247	6
248	1
263	2
264	146
265	24
266	2
