Mass Spectrum: Cholest-4-en-3-one, 26-hydroxy-
Formula: C27H44O2
CAS: 19257-21-7
Molecular weight: 400
m/z	intensity
55	999
56	258
57	629
58	40
59	55
65	35
66	18
67	18
68	86
69	505
70	73
71	101
77	142
78	38
79	363
80	88
81	372
82	59
83	154
84	20
85	77
91	49
92	59
93	304
94	105
95	348
96	49
104	23
105	263
106	79
107	267
108	68
109	184
110	27
111	51
115	40
116	40
117	75
118	36
119	167
120	81
121	206
122	129
123	188
124	656
125	75
128	31
129	47
130	27
131	114
132	36
133	173
134	90
135	158
136	53
137	81
138	25
142	14
143	51
144	25
145	101
146	55
147	232
148	118
149	153
150	23
157	38
158	22
159	84
160	25
161	79
162	23
163	40
169	18
171	22
172	14
173	73
174	35
175	51
176	16
177	18
183	14
184	11
185	27
186	16
187	75
188	18
189	27
191	12
209	14
211	40
212	16
213	31
214	25
215	23
216	14
217	14
219	3
225	11
226	18
227	29
228	31
229	365
230	99
231	31
242	20
243	36
244	60
245	49
246	21
253	23
255	20
256	21
257	31
261	21
263	40
269	45
270	40
271	83
272	29
275	20
276	100
277	167
278	38
297	20
298	21
299	29
300	5
316	40
317	18
343	56
344	21
358	195
359	56
382	56
383	34
384	21
385	60
386	21
398	21
400	751
401	223
402	32
403	3
