Mass Spectrum: 2-Bornanol, 3-(methylamino)-, endo,endo-
Formula: C11H21NO
CAS: 1925-46-8
Molecular weight: 183
m/z	intensity
30	20
39	30
40	60
41	70
42	60
43	20
44	110
45	10
51	10
52	10
53	20
54	10
55	30
56	20
57	40
58	10
60	10
65	10
67	30
68	20
69	20
70	450
71	20
72	20
73	30
74	20
77	20
78	10
79	20
80	10
81	20
82	20
83	30
84	40
85	40
86	10
90	10
93	10
94	10
95	110
96	30
97	10
98	999
99	100
100	20
107	10
108	80
109	30
110	10
111	30
112	380
113	40
114	10
121	20
122	30
123	20
124	10
126	20
135	10
136	10
140	10
150	30
152	20
154	340
155	70
156	10
165	10
166	10
168	80
169	10
183	170
184	30
