Mass Spectrum: Endo-3-chlorocamphor
Formula: C10H15ClO
CAS: 1925-57-1
Molecular weight: 186
m/z	intensity
51	14
53	73
54	14
55	501
56	10
57	10
65	31
67	171
68	73
69	301
77	70
79	59
81	122
82	43
83	999
84	63
91	56
93	59
95	91
103	17
107	52
108	24
109	17
110	14
122	413
123	294
124	35
130	7
132	10
143	115
145	45
151	154
152	10
186	178
187	10
188	52
