Mass Spectrum: Benzyl 4-ethyl-3,5-dimethyl-1H-pyrrole-2-carboxylate
Formula: C16H19NO2
CAS: 1925-61-7
Molecular weight: 257
m/z	intensity
33	3
39	24
40	10
41	17
42	22
43	4
44	0
45	1
50	4
51	14
52	7
53	14
54	5
55	8
62	7
63	6
65	72
66	19
67	15
68	1
77	30
78	3
79	33
80	5
89	22
91	999
92	71
93	17
94	6
95	11
96	0
101	1
103	0
104	6
105	10
107	62
108	31
109	1
115	0
118	2
120	11
121	9
122	22
123	100
124	7
128	1
129	6
134	76
136	20
137	1
138	1
148	43
150	133
151	7
152	4
155	0
163	0
164	1
166	78
167	8
168	0
180	2
182	1
183	1
184	2
196	3
197	2
198	4
211	0
212	10
213	1
226	0
241	2
242	153
243	20
244	1
255	3
256	19
257	391
258	65
259	9
