Mass Spectrum: 2-Propanone, 1,1-dibutoxy-
Formula: C11H22O3
CAS: 19255-82-4
Molecular weight: 202
m/z	intensity
41	407
42	29
43	221
45	13
47	35
55	45
56	42
57	999
58	62
73	17
74	14
85	6
103	113
104	4
111	3
129	31
130	2
159	55
