Mass Spectrum: 3-Butene-1,2-diol, 1-(2-furanyl)-
Formula: C8H10O3
CAS: 19261-13-3
Molecular weight: 154
m/z	intensity
41	60
42	10
43	110
44	30
55	30
57	40
58	60
59	10
69	20
81	20
91	10
95	30
96	20
97	999
98	30
120	6
136	6
154	6
