Mass Spectrum: Acetamide, N-acetyl-N-(1-methylpropyl)-
Formula: C8H15NO2
CAS: 19264-30-3
Molecular weight: 157
m/z	intensity
15	240
27	200
28	150
29	410
39	200
40	140
41	780
42	200
43	999
44	760
45	100
55	150
56	200
57	180
58	200
60	200
72	100
84	160
86	440
87	70
97	70
100	70
102	220
114	90
128	90
142	20
157	10
