Mass Spectrum: 2H-Pyran, 2-butoxytetrahydro-
Formula: C9H18O2
CAS: 1927-68-0
Molecular weight: 158
m/z	intensity
27	85
28	56
29	159
30	4
31	35
37	0
38	2
39	41
40	25
41	243
42	16
43	90
44	40
45	10
46	0
47	14
50	0
51	1
52	0
53	11
54	14
55	133
56	428
57	260
58	11
59	4
65	1
66	0
67	70
68	5
70	5
71	6
72	1
73	6
74	27
80	0
81	0
82	0
83	10
84	22
85	999
86	46
87	2
91	0
93	0
94	0
96	0
97	1
98	5
99	0
100	12
101	57
102	11
103	23
104	1
111	0
112	0
113	0
114	0
115	30
116	4
117	0
122	1
123	0
128	1
129	0
130	8
131	0
140	3
141	0
144	1
156	0
157	30
158	29
159	1
