Mass Spectrum: Benzyl pyran-2-yl ether
Formula: C12H16O2
CAS: 1927-62-4
Molecular weight: 192
m/z	intensity
14	1
15	7
19	1
26	9
27	51
28	27
29	88
30	3
31	22
37	2
38	6
39	71
40	7
41	96
42	11
43	64
44	6
45	3
50	13
51	37
52	11
53	10
54	7
55	55
56	12
57	63
58	4
59	2
61	1
62	5
63	22
64	8
65	106
66	7
67	45
68	9
69	3
70	1
71	3
73	2
74	2
75	3
76	2
77	36
78	9
79	26
80	3
81	2
83	8
84	15
85	185
86	12
87	2
88	2
89	25
90	28
91	999
92	139
93	8
94	1
95	0
97	0
99	1
101	109
102	7
103	1
104	65
105	26
106	5
107	29
108	90
109	7
115	1
116	2
117	37
118	33
119	5
129	2
131	19
132	2
133	2
134	1
145	3
146	59
147	7
192	1
