Mass Spectrum: Eicosanoic acid, 15-oxo-, methyl ester
Formula: C21H40O3
CAS: 19271-79-5
Molecular weight: 340
m/z	intensity
40	5
41	78
42	65
43	999
44	171
45	5
50	26
51	2
52	2
53	2
54	26
55	184
56	84
57	289
59	302
60	26
61	2
64	31
65	2
66	26
67	105
68	65
69	210
70	144
71	763
72	263
73	65
74	152
75	26
76	57
77	26
78	31
79	31
80	39
81	189
82	144
83	289
84	197
85	250
86	39
87	131
88	5
90	2
91	26
92	5
93	47
94	73
95	236
96	263
97	355
98	547
99	815
100	105
101	47
102	26
103	5
104	13
105	26
106	5
107	57
108	39
109	152
110	205
111	263
112	236
113	118
114	499
115	321
116	31
117	5
118	2
119	13
120	13
121	110
122	31
123	92
124	47
125	136
126	78
127	184
128	57
129	73
130	31
131	13
132	13
133	26
134	21
135	100
136	26
137	65
138	52
139	92
140	171
141	78
142	26
143	78
144	13
145	5
146	2
147	26
148	5
149	347
150	78
151	52
152	92
153	92
154	131
155	39
156	31
157	31
158	5
159	2
160	2
161	5
162	21
163	5
164	13
165	13
166	31
167	26
168	223
169	65
170	39
171	31
172	52
173	5
174	5
176	5
177	47
178	171
179	39
180	2
181	39
182	13
183	31
184	5
185	31
186	5
189	2
190	2
191	78
192	31
193	13
194	184
195	289
196	52
197	13
198	13
199	13
200	2
201	13
202	5
205	2
206	2
208	47
209	100
210	92
211	31
212	5
213	5
214	26
215	2
219	5
221	5
223	13
224	31
225	26
226	78
227	236
228	47
229	2
234	5
235	2
237	105
238	26
239	2
241	13
242	13
249	2
250	2
251	2
252	126
253	31
262	2
265	47
266	31
267	65
268	13
269	171
270	31
282	5
283	5
284	171
285	39
297	5
300	2
307	2
308	5
309	65
310	5
311	2
340	2
