Mass Spectrum: Docosanoic acid, 17-oxo-, methyl ester
Formula: C23H44O3
CAS: 19271-80-8
Molecular weight: 368
m/z	intensity
100	2
101	67
102	18
103	11
104	11
105	18
106	15
107	49
108	62
109	202
110	269
111	341
112	269
113	152
114	999
115	588
116	561
117	18
118	11
119	22
120	15
121	101
122	56
123	179
124	112
125	251
126	139
127	303
128	112
129	89
130	67
131	11
132	18
133	22
134	27
135	123
136	49
137	130
138	139
139	175
140	116
141	161
142	71
143	112
144	27
145	18
146	11
147	33
148	22
149	112
150	40
151	71
152	89
153	107
154	94
155	89
156	112
157	67
158	33
159	18
160	11
161	22
162	11
163	67
164	33
165	67
166	62
167	101
168	130
169	67
170	67
171	56
172	33
173	15
174	11
175	15
176	15
177	49
178	56
179	56
180	116
181	112
182	202
183	85
184	33
185	49
186	22
187	11
188	11
189	15
190	11
191	33
192	22
193	33
194	40
195	62
196	67
197	49
198	33
199	78
200	22
201	11
202	11
203	11
204	56
205	175
206	44
207	22
208	33
209	49
210	33
211	49
212	33
213	44
214	22
215	11
216	11
217	15
218	11
219	78
220	33
221	33
222	408
223	404
224	89
225	33
226	18
227	22
228	22
229	15
230	11
231	11
232	11
233	11
234	18
235	18
236	27
237	112
238	134
239	67
240	22
241	33
242	49
243	18
244	11
245	11
246	11
247	22
248	11
249	11
250	15
251	44
252	67
253	40
254	168
255	422
256	112
257	22
258	11
259	11
260	11
261	11
262	40
263	15
264	15
265	184
266	62
267	22
268	11
269	40
270	40
271	22
272	11
273	11
274	4
275	11
276	11
277	22
278	11
279	18
280	292
281	89
282	22
283	22
284	18
285	11
286	4
287	4
288	4
289	4
290	11
291	11
292	11
293	85
294	49
295	157
296	33
297	325
298	85
299	22
300	11
307	18
308	22
309	18
310	4
311	4
312	438
313	101
314	22
315	11
316	11
317	11
318	15
319	15
320	11
321	4
322	4
323	4
324	4
325	40
326	18
327	11
330	4
335	22
336	56
337	157
338	40
339	18
341	11
360	4
368	40
369	18
