Mass Spectrum: 2H-Pyran, 2-(1,1-dimethylethoxy)tetrahydro-
Formula: C9H18O2
CAS: 1927-69-1
Molecular weight: 158
m/z	intensity
41	949
42	111
43	393
44	30
45	10
50	20
51	20
52	10
53	50
54	20
55	252
56	303
57	999
58	20
59	313
67	50
68	10
69	10
83	10
84	20
85	383
101	20
103	40
