Mass Spectrum: 2H-Pyran, 2-(tert-butylthio)tetrahydro-
Formula: C9H18OS
CAS: 1927-53-3
Molecular weight: 174
m/z	intensity
41	999
42	50
43	40
44	10
45	10
47	20
49	10
50	50
51	50
52	10
53	120
54	170
55	800
56	440
57	320
58	10
69	40
75	30
83	150
84	350
85	40
90	80
