Mass Spectrum: 2,4(1H,3H)-Pyrimidinedione, dihydro-1,3,5-trimethyl-
Formula: C7H12N2O2
CAS: 19274-22-7
Molecular weight: 156
m/z	intensity
26	10
27	71
29	15
30	57
31	6
33	1
34	1
36	1
37	2
38	9
39	88
40	15
41	202
42	999
43	163
44	434
45	5
46	1
47	3
49	0
50	1
51	1
52	7
53	6
54	14
55	53
56	494
57	62
58	353
59	18
60	2
61	1
64	3
65	2
66	3
67	2
68	28
69	54
70	80
71	177
72	20
73	4
74	0
75	2
77	0
78	2
79	0
80	1
81	4
82	6
83	3
84	16
85	13
86	4
87	5
89	1
91	1
93	1
95	1
96	3
97	5
98	88
99	57
100	10
101	2
102	0
103	2
105	2
106	1
107	0
109	1
110	1
111	2
112	1
113	260
114	28
115	3
117	1
119	1
125	2
126	1
127	20
128	36
129	21
130	2
133	0
135	0
140	1
141	9
142	1
147	2
149	1
154	8
155	34
156	897
157	82
158	9
