Mass Spectrum: 2H-Pyran, tetrahydro-2-[(1-methylethyl)thio]-
Formula: C8H16OS
CAS: 1927-57-7
Molecular weight: 160
m/z	intensity
41	830
42	170
43	740
44	30
45	70
47	50
49	10
50	30
51	40
52	10
53	110
54	230
55	999
56	240
57	140
58	40
59	50
60	10
61	270
62	40
63	10
67	30
69	80
75	10
76	480
77	10
78	20
83	240
84	530
85	200
86	10
160	10
