Mass Spectrum: Benzoic acid, 4-methyl-, 1-methylethyl ester
Formula: C11H14O2
CAS: 19277-55-5
Molecular weight: 178
m/z	intensity
26	16
27	70
28	4
29	23
30	2
38	5
39	142
40	36
41	136
42	24
43	169
44	2
50	32
51	50
52	26
53	10
55	4
57	3
58	4
59	212
60	9
61	9
62	23
63	69
64	21
65	173
66	14
67	3
69	4
70	14
71	2
74	5
75	8
76	8
77	22
78	8
79	34
80	2
81	4
83	2
84	3
85	4
86	4
87	4
88	2
89	52
90	43
91	517
92	76
93	17
94	2
95	3
104	9
105	20
107	13
108	4
111	2
115	2
116	3
117	6
118	15
119	999
120	161
121	19
122	4
133	6
134	4
135	20
136	411
137	77
138	8
139	2
145	3
160	7
163	24
164	2
177	6
178	121
179	16
