Mass Spectrum: Acetic acid, (2,4-dichlorophenoxy)-, 3-butoxypropyl ester
Formula: C15H20Cl2O4
CAS: 1928-45-6
Molecular weight: 334
m/z	intensity
12	3
14	24
15	45
16	6
18	78
19	3
27	200
29	417
31	195
32	2
33	1
35	5
36	10
37	14
39	154
41	643
43	277
45	185
46	3
47	3
49	10
50	29
51	16
53	15
55	60
58	999
60	17
61	16
62	32
63	75
64	5
65	4
66	1
67	1
69	5
71	30
73	101
74	53
75	83
76	10
77	22
78	2
79	2
81	1
83	15
84	13
85	28
87	61
89	10
90	1
91	2
93	2
94	1
95	1
97	19
98	16
99	15
100	41
101	44
102	3
103	2
105	3
107	8
109	87
111	140
112	30
113	37
114	180
115	57
117	16
119	2
121	1
123	1
126	8
127	2
128	5
129	4
130	1
131	1
133	43
135	27
136	1
137	4
139	9
140	5
141	9
142	2
143	4
145	85
147	81
148	7
149	19
150	1
151	2
155	1
156	1
157	1
159	3
161	20
162	58
163	16
164	37
165	4
166	6
167	2
168	1
169	1
172	5
173	5
175	144
177	94
178	7
179	13
180	1
185	2
187	1
203	1
205	1
215	1
217	1
220	16
221	2
222	10
223	1
224	2
226	1
261	24
263	17
264	2
265	2
334	5
336	4
