Mass Spectrum: 7H-Purine, 7-benzyl-6-chloro-
Formula: C12H9ClN4
CAS: 1928-77-4
Molecular weight: 244
m/z	intensity
51	34
58	15
63	28
65	175
77	29
89	33
90	26
91	999
92	81
104	17
121	18
122	36
167	53
168	4
169	17
182	79
183	10
209	51
216	24
239	29
240	27
243	452
244	464
245	209
246	155
247	21
