Mass Spectrum: Mannitol, 1,3,4,5-tetra-O-methyl-, diacetate, D-
Formula: C14H26O8
CAS: 19285-93-9
Molecular weight: 322
m/z	intensity
31	29
39	15
41	68
42	53
43	999
44	42
45	356
46	15
53	15
55	35
56	21
57	58
58	53
59	54
60	30
67	11
68	16
69	31
70	19
71	158
72	23
73	58
74	49
75	81
77	21
81	21
83	25
84	13
85	48
87	230
88	82
89	86
97	15
98	23
99	66
100	12
101	620
102	90
103	18
111	17
112	11
113	83
114	19
115	26
117	473
118	35
119	32
127	14
129	439
130	36
131	51
141	19
142	16
143	22
145	275
146	28
147	12
156	13
161	316
162	26
173	16
205	68
