Mass Spectrum: Mannitol, 1,3,4-tri-O-methyl-, triacetate, D-
Formula: C15H26O9
CAS: 19285-92-8
Molecular weight: 350
m/z	intensity
30	10
31	52
33	29
36	3
38	3
39	28
41	76
42	53
43	999
44	54
45	538
46	12
47	12
51	3
53	18
54	8
55	22
56	11
57	27
58	24
59	57
60	11
61	10
65	3
66	3
67	4
68	12
69	22
70	18
71	163
72	16
73	30
74	87
75	58
76	5
77	6
79	3
80	3
81	16
82	4
83	15
84	5
85	47
86	9
87	465
88	60
89	53
91	5
93	3
95	4
97	10
98	11
99	120
100	27
101	175
102	37
103	21
104	7
105	5
109	4
111	12
112	6
113	54
114	9
115	22
116	7
117	61
118	9
119	44
122	7
124	3
125	11
126	5
127	10
128	12
129	980
130	73
131	30
132	3
139	6
142	5
143	13
145	61
146	9
147	7
148	3
149	10
157	3
159	13
160	4
161	256
162	27
163	4
171	5
173	9
189	117
190	15
191	4
205	8
233	5
234	3
