Mass Spectrum: 2,4,5-Trichlorophenoxyacetic acid, 2-ethylhexyl ester
Formula: C16H21Cl3O3
CAS: 1928-47-8
Molecular weight: 366
m/z	intensity
27	78
29	217
39	30
41	322
42	79
43	687
53	10
55	215
56	91
57	999
58	41
68	11
69	84
70	379
71	531
72	33
73	21
74	10
83	105
84	40
97	16
109	18
112	18
143	15
144	12
145	24
146	19
147	13
148	14
167	11
179	33
181	34
183	11
196	37
198	42
200	12
209	41
210	10
211	45
213	11
219	10
221	10
254	139
255	11
256	130
257	14
258	43
366	36
367	6
368	35
369	6
370	11
