Mass Spectrum: 1-Benzyl-3,3-ethylenedithioindolin-2-one
Formula: C17H15NOS2
CAS: 192931-01-4
Molecular weight: 313
m/z	intensity
26	8
27	22
39	55
41	30
43	15
44	7
45	43
50	12
51	35
52	7
55	10
57	17
58	9
59	16
60	12
61	3
62	8
63	39
64	13
65	154
66	9
69	27
70	3
71	9
75	8
76	15
77	55
78	13
89	33
90	60
91	999
92	77
102	9
104	8
107	13
108	17
120	13
121	32
122	9
129	9
133	4
134	55
135	9
146	9
148	13
149	8
152	7
162	510
163	49
164	29
165	9
166	38
176	9
180	8
193	11
194	15
221	7
222	532
223	90
224	75
225	75
226	14
253	129
254	542
255	107
256	34
257	11
280	16
313	331
314	70
315	37
316	3
