Mass Spectrum: S-[4-Cyanophenyl]-N,N-dimethylthiocarbamate
Formula: C10H10N2OS
CAS: 19290-43-8
Molecular weight: 206
m/z	intensity
15	20
18	26
27	2
28	9
37	1
38	2
39	8
40	1
41	2
42	28
43	7
44	14
45	5
50	5
51	4
52	1
56	18
57	4
58	2
61	1
62	3
63	17
64	9
69	12
70	1
72	999
73	39
74	4
75	7
76	6
81	2
82	4
83	1
88	3
90	24
91	3
93	1
94	1
102	3
103	1
106	1
107	9
108	3
116	1
133	5
134	43
135	7
136	2
162	1
177	3
206	59
207	9
208	3
