Mass Spectrum: 2-Furanilide
Formula: C11H9NO2
CAS: 1929-89-1
Molecular weight: 187
m/z	intensity
27	8
29	5
38	23
39	178
40	11
41	8
50	8
51	40
52	10
53	8
55	7
63	14
64	15
65	59
66	13
67	19
69	5
77	49
78	7
91	10
92	12
93	18
94	23
95	999
96	56
130	21
144	5
159	9
187	414
188	52
189	5
