Mass Spectrum: Benzenemethanesulfonamide, N-methyl-
Formula: C8H11NO2S
CAS: 19299-41-3
Molecular weight: 185
m/z	intensity
33	1
34	1
37	5
38	24
39	117
40	17
41	7
42	12
43	0
44	2
45	6
46	2
47	0
48	8
50	37
51	138
52	30
53	14
54	5
55	1
61	3
62	8
63	49
64	37
65	44
66	13
67	3
68	0
69	0
73	0
74	6
75	6
77	593
78	131
79	307
80	21
81	1
83	0
87	0
88	0
89	1
90	10
91	10
92	2
94	1
97	0
104	101
105	67
106	999
107	79
108	4
111	0
120	2
122	0
154	3
183	3
185	272
186	25
187	13
188	1
