Mass Spectrum: Benzonitrile, 4-chloro-3,5-dinitro-
Formula: C7H2ClN3O4
CAS: 1930-72-9
Molecular weight: 227
m/z	intensity
12	3
26	5
27	31
30	999
31	5
35	7
36	32
37	68
38	37
42	3
46	201
47	16
48	7
49	47
50	153
51	27
52	20
53	14
60	28
61	48
62	47
63	50
64	26
65	23
66	7
71	7
72	84
73	74
74	116
75	61
76	28
77	13
78	0
79	0
84	211
85	20
86	88
87	30
88	312
89	27
90	7
91	1
96	3
97	13
98	40
99	193
100	486
101	36
102	8
103	1
104	16
108	11
109	26
110	13
111	33
112	6
113	10
115	14
116	103
117	14
118	2
122	8
123	64
124	13
125	23
126	0
132	25
133	0
134	20
135	254
136	30
137	83
138	9
139	3
146	69
147	6
149	0
151	26
152	1
153	10
178	2
197	12
199	2
211	10
213	4
227	557
228	51
229	184
230	18
