Mass Spectrum: Galactitol, 1,3,4,5-tetra-O-methyl-, diacetate
Formula: C14H26O8
CAS: 19318-49-1
Molecular weight: 322
m/z	intensity
30	11
31	28
33	20
39	26
41	80
42	39
43	999
44	57
45	589
46	15
47	15
53	23
55	40
56	23
57	52
58	56
59	57
60	23
68	12
69	36
70	16
71	167
72	21
73	75
74	69
75	124
76	11
77	11
81	20
83	23
85	66
86	12
87	284
88	93
89	123
90	11
97	13
98	38
99	82
100	15
101	872
102	93
103	25
111	20
113	103
114	26
115	31
116	11
117	742
118	52
119	50
125	11
127	11
129	526
130	44
131	93
142	12
143	22
145	488
146	48
149	83
157	15
161	371
162	29
173	16
205	153
206	14
