Mass Spectrum: 2-Propanol, 1-(isopropylamino)-3-[(4-methoxy-2-methyl-1-naphthyl)oxy]-
Formula: C18H25NO3
CAS: 19314-96-6
Molecular weight: 303
m/z	intensity
39	24
41	77
42	48
43	119
44	71
56	149
57	54
58	42
70	36
71	29
72	667
73	42
74	95
91	18
98	18
100	36
102	36
105	54
114	54
115	65
116	999
117	107
127	29
128	54
129	18
144	36
159	36
172	60
173	125
187	119
188	429
189	65
288	12
303	77
304	12
