Mass Spectrum: 5,7.beta.-Cyclo-5.beta.-cholestan-4-one
Formula: C27H44O
CAS: 19318-00-4
Molecular weight: 384
m/z	intensity
41	750
43	900
55	900
57	450
67	400
69	450
71	250
79	400
81	550
91	400
93	450
95	550
105	420
107	400
109	300
111	999
119	350
121	320
135	650
137	800
147	350
149	250
159	220
161	250
173	200
174	250
175	200
229	250
231	300
247	650
260	300
261	150
271	550
328	450
329	140
369	350
384	650
385	200
