Mass Spectrum: 12,12-Dimethoxydodecanoic acid, methyl ester
Formula: C15H30O4
CAS: 1931-67-5
Molecular weight: 274
m/z	intensity
26	2
27	42
29	70
30	3
31	43
33	3
37	0
38	1
39	33
40	8
41	189
42	37
43	80
44	6
45	81
46	2
47	48
48	1
50	0
51	2
52	1
53	19
54	15
55	139
56	21
57	22
58	64
59	71
60	3
61	1
62	0
63	1
64	0
65	5
66	3
67	57
68	23
69	70
70	10
71	329
72	25
73	13
74	77
75	999
76	44
77	10
78	2
79	13
80	9
81	66
82	31
83	43
84	36
85	31
86	3
87	38
88	8
89	1
90	1
91	10
92	4
93	14
94	12
95	64
96	22
97	36
98	50
99	9
100	2
101	23
102	2
103	0
104	1
105	3
106	3
107	9
108	7
109	21
110	7
111	18
112	18
113	9
114	3
115	10
116	1
117	1
118	0
119	5
120	1
121	7
122	5
123	8
124	4
125	7
126	3
127	7
128	3
129	24
130	2
131	2
132	1
133	4
134	5
135	15
136	12
137	12
138	4
139	4
140	1
141	4
142	1
143	8
144	2
145	2
147	2
148	2
149	10
150	10
151	5
152	5
153	16
154	3
155	2
156	0
157	2
158	0
159	1
160	2
161	13
162	2
163	0
164	1
165	2
166	4
167	4
168	2
169	2
170	1
171	3
172	2
176	0
177	2
178	15
179	19
180	3
181	1
182	3
183	2
184	1
185	24
186	4
187	0
192	0
193	0
194	3
195	7
196	1
197	2
198	1
199	3
200	1
201	1
208	0
209	0
210	9
211	56
212	10
213	3
214	1
215	1
226	1
227	23
228	3
229	3
230	0
241	1
242	3
243	133
244	22
245	3
246	0
273	3
274	0
