Mass Spectrum: Mannitol, 2,4-di-O-methyl-, tetraacetate
Formula: C16H26O10
CAS: 19318-51-5
Molecular weight: 378
m/z	intensity
31	23
33	20
39	15
41	68
42	53
43	999
44	73
45	164
55	37
56	27
57	33
58	117
59	72
60	29
68	15
69	42
70	28
71	108
72	23
73	41
74	111
75	61
77	12
81	13
83	24
84	11
85	97
86	22
87	487
88	49
89	32
97	56
98	24
99	157
100	44
101	233
102	16
103	22
111	44
112	18
113	79
114	16
115	46
116	27
117	999
118	70
119	11
124	16
125	28
126	11
127	108
128	18
129	860
130	87
131	23
139	84
140	19
141	21
142	22
143	38
145	50
147	25
149	26
157	31
158	11
159	65
161	39
173	42
182	17
185	16
189	278
190	24
201	53
231	28
233	114
234	15
245	14
253	15
313	15
315	16
322	14
