Mass Spectrum: 2,6,10-Dodecatrienal, 3,7,11-trimethyl-
Formula: C15H24O
CAS: 19317-11-4
Molecular weight: 220
m/z	intensity
26	3
27	61
29	83
31	2
38	2
39	93
40	21
41	508
42	25
43	63
44	7
45	2
50	3
51	13
52	6
53	80
54	15
55	115
56	20
57	25
58	2
59	5
65	24
66	7
67	104
68	44
69	999
70	61
71	37
72	2
77	39
78	8
79	55
80	40
81	205
82	45
83	43
84	411
85	27
86	2
91	53
92	19
93	85
94	29
95	76
96	15
97	21
98	5
103	3
104	2
105	36
106	9
107	66
108	32
109	57
110	14
111	6
116	2
120	7
121	47
122	13
123	58
124	18
125	4
128	2
131	14
133	24
134	12
135	20
136	58
137	36
138	16
139	16
149	22
150	7
151	14
159	21
175	4
176	5
177	16
178	4
187	2
191	3
202	7
203	3
205	8
220	6
