Mass Spectrum: Galactitol, 1,3,5-tri-O-methyl-, triacetate
Formula: C15H26O9
CAS: 19318-48-0
Molecular weight: 350
m/z	intensity
31	30
33	19
39	17
41	77
42	50
43	999
44	49
45	423
53	15
55	47
56	19
57	63
58	102
59	55
60	21
61	15
68	14
69	52
70	41
71	170
72	36
73	37
74	82
75	66
77	20
81	19
82	13
83	33
84	15
85	96
86	24
87	242
88	25
89	46
97	24
98	17
99	151
100	42
101	382
102	79
103	29
104	12
111	38
112	22
113	50
114	17
115	46
116	23
117	852
118	49
119	62
125	20
127	71
128	17
129	694
130	62
131	36
139	11
141	15
142	24
143	67
145	23
147	28
149	69
150	11
157	29
159	82
160	13
161	303
162	25
171	13
173	44
189	36
201	18
203	32
217	20
233	80
253	12
277	13
