Mass Spectrum: 5-Azido-desoxythymidine
Formula: C10H13N5O4
CAS: 19316-85-9
Molecular weight: 267
m/z	intensity
12	5
13	3
14	33
15	197
16	16
17	18
18	97
19	76
24	0
25	4
26	85
27	407
28	975
29	638
30	999
31	261
32	4
34	2
35	1
36	3
37	10
38	45
39	388
40	228
41	656
42	667
43	426
44	258
45	117
46	12
47	3
48	1
50	3
51	15
52	52
53	89
54	253
55	404
56	165
57	257
58	337
59	28
60	18
61	2
63	1
64	3
65	14
66	26
67	67
68	262
69	204
70	666
71	82
72	14
73	13
74	1
76	0
77	3
78	5
79	6
80	127
81	93
82	112
83	104
84	101
85	50
86	41
87	17
88	1
91	1
92	7
93	8
94	37
95	38
96	93
97	24
98	16
99	8
100	2
101	1
104	1
105	1
106	1
107	2
108	14
109	35
110	232
111	23
112	12
113	21
114	20
115	2
116	12
117	1
120	1
121	2
122	64
123	43
124	101
125	14
126	286
127	500
128	34
129	3
135	1
136	2
137	1
138	15
139	10
140	4
142	133
143	9
144	1
149	2
150	57
151	11
152	7
153	36
154	18
155	3
156	1
164	1
165	4
166	1
167	2
168	4
169	1
181	9
182	3
183	0
193	6
194	1
195	1
206	1
207	2
211	4
212	1
222	1
223	0
224	0
267	32
268	5
269	0
