Mass Spectrum: 1,4,5-Tri-O-acetyl-2,3-di-O-methylarabinitol
Formula: C13H22O8
CAS: 19318-21-9
Molecular weight: 306
m/z	intensity
43	566
57	103
71	125
87	274
99	177
101	182
113	89
117	999
129	440
142	44
161	45
173	127
189	99
217	34
