Mass Spectrum: 1-(4-Hydroxy-3,5-di-tert.-butylphenyl)-2-methyl-3-morpholinopropan-1-one
Formula: C22H35NO3
CAS: 193205-47-9
Molecular weight: 361
m/z	intensity
12	0
13	0
14	1
15	14
16	1
17	4
18	16
19	0
26	1
27	13
28	50
29	55
30	13
31	3
32	0
35	9
36	36
37	3
38	12
39	10
40	2
41	69
42	60
43	25
44	13
45	4
50	0
51	2
52	1
53	5
54	5
55	34
56	82
57	58
58	5
59	3
60	0
62	0
63	1
64	1
65	5
66	1
67	5
68	6
69	12
70	36
71	12
72	13
73	1
74	0
75	0
76	0
77	8
78	2
79	6
80	1
81	1
82	3
83	2
84	2
85	7
86	12
87	5
88	1
89	2
91	19
92	2
93	3
94	1
95	1
96	1
98	34
99	49
100	999
101	61
102	4
103	4
104	1
105	12
106	2
107	5
108	1
109	0
110	0
111	0
112	2
113	0
114	1
115	15
116	5
117	8
118	2
119	9
120	2
121	4
122	0
123	0
124	0
126	2
127	7
128	25
129	11
130	4
131	8
132	2
133	7
134	1
135	2
137	1
139	0
140	2
141	5
142	5
143	4
144	2
145	6
146	2
147	8
148	3
149	4
150	0
152	0
153	1
154	1
155	2
156	1
157	3
158	1
159	5
160	3
161	8
162	2
163	3
164	0
166	0
167	0
168	0
169	0
170	0
171	1
172	0
173	2
174	2
175	10
176	2
177	2
178	0
181	0
183	0
184	0
185	1
186	0
187	2
188	1
189	3
190	3
191	1
199	0
200	0
201	1
202	0
203	9
204	1
205	0
206	0
215	0
216	0
217	8
218	1
219	3
220	0
229	0
231	1
233	17
234	2
235	0
243	0
245	0
246	0
247	1
248	0
259	1
260	0
261	2
262	1
263	0
274	0
275	0
276	0
304	0
318	0
319	0
320	0
330	0
346	0
347	0
360	0
361	1
362	0
