Mass Spectrum: Piperidine, 1,1'-(1,2-ethanediyl)bis-
Formula: C12H24N2
CAS: 1932-04-3
Molecular weight: 196
m/z	intensity
15	2
27	3
28	10
29	6
30	10
39	3
41	43
42	34
43	7
44	28
53	1
54	5
55	44
56	14
57	3
58	2
67	2
68	4
69	22
70	23
71	1
79	1
80	1
81	1
82	4
83	6
84	6
85	2
96	13
97	7
98	999
99	69
100	2
110	5
111	3
112	19
113	2
196	9
197	1
