Mass Spectrum: 1-(4-Acetoxy-3,5-di-tert.butylphenyl)-3-morpholinopropan-1-one
Formula: C23H35NO4
CAS: 193205-45-7
Molecular weight: 389
m/z	intensity
30	23
31	6
32	63
36	1
38	1
39	16
40	8
41	88
42	91
43	335
44	28
45	9
50	1
51	6
52	2
53	10
54	9
55	149
56	129
57	108
58	11
59	7
60	2
61	1
62	1
63	4
64	1
65	9
66	2
67	8
68	4
69	19
70	50
71	58
72	17
73	3
75	1
76	1
77	15
78	4
79	12
80	2
81	6
82	7
83	9
84	17
85	12
86	32
87	17
88	2
89	3
91	27
92	4
93	6
94	21
95	5
96	5
97	6
98	119
99	356
100	999
101	62
102	6
103	7
104	3
105	18
106	4
107	8
108	4
109	3
110	1
111	3
112	9
113	11
114	78
115	28
116	9
117	10
118	3
119	13
120	2
121	6
122	6
123	3
124	1
125	2
126	1
127	7
128	16
129	17
130	6
131	14
132	4
133	10
134	3
135	3
136	1
137	2
138	1
139	2
140	3
141	8
142	6
143	5
144	3
145	11
146	4
147	10
148	5
149	14
150	2
151	1
152	2
153	3
154	1
155	3
156	2
157	4
158	3
159	9
160	3
161	12
162	6
163	5
164	1
165	1
166	0
167	3
168	1
169	1
170	1
171	4
172	1
173	6
174	4
175	8
176	4
177	6
178	1
179	1
181	0
183	0
185	4
186	1
187	5
188	2
189	13
190	4
191	3
192	0
199	1
201	9
202	2
203	21
204	5
205	16
206	3
207	1
213	0
215	2
216	1
217	32
218	6
219	12
220	2
227	0
229	5
230	1
231	4
232	2
233	32
234	6
235	5
236	1
243	0
245	69
246	13
247	3
248	2
249	1
250	2
251	0
260	36
261	8
262	1
263	0
274	0
275	2
276	0
277	0
279	0
287	0
288	0
289	0
290	0
291	0
292	0
300	0
302	1
303	0
304	0
316	0
317	1
318	0
319	0
328	0
329	0
330	0
331	0
332	0
342	0
344	0
346	36
347	8
348	1
349	0
358	4
359	1
360	1
361	0
370	0
371	0
372	0
373	0
374	0
375	0
387	0
388	0
389	9
390	2
391	0
