Mass Spectrum: Piperidine, 1-(2-chloroethyl)-
Formula: C7H14ClN
CAS: 1932-03-2
Molecular weight: 147
m/z	intensity
14	1
15	21
26	9
27	93
28	66
29	33
30	34
35	8
36	50
37	3
38	16
39	36
40	7
41	125
42	195
43	20
44	64
45	2
47	1
49	5
50	1
51	4
52	4
53	11
54	22
55	124
56	38
57	13
58	3
61	2
62	1
63	28
64	1
65	9
66	1
67	8
68	9
69	40
70	47
71	3
78	3
79	1
80	4
81	2
82	8
83	9
84	10
85	1
88	1
89	1
90	7
91	6
92	9
93	2
94	3
95	1
96	16
97	4
98	999
99	68
100	3
106	4
108	2
110	5
111	4
112	9
113	2
118	16
120	5
132	1
144	1
146	25
147	47
148	11
149	15
150	1
