Mass Spectrum: Hydrazine, 1-benzoyl-2-p-toluoyl-
Formula: C15H14N2O2
CAS: 19338-21-7
Molecular weight: 254
m/z	intensity
39	147
40	18
41	44
42	10
43	28
44	42
45	5
50	95
51	206
52	24
53	10
54	3
63	50
64	19
65	202
66	10
67	3
77	390
78	28
79	3
86	2
91	379
92	27
93	1
94	0
105	357
106	27
107	3
108	1
119	999
120	77
121	10
122	1
135	4
136	0
253	0
254	74
255	10
256	0
