Mass Spectrum: 3,5-Cyclohexadiene-1,2-diol, 3-chloro-6-methyl-
Formula: C7H9ClO2
CAS: 19337-58-7
Molecular weight: 160
m/z	intensity
77	888
78	377
79	999
80	133
81	244
89	111
95	355
96	177
97	155
107	577
108	133
114	577
116	177
125	200
141	111
142	422
143	155
144	155
160	311
162	111
