Mass Spectrum: N-(1-Phenylethylidene)isobutylamine
Formula: C12H17N
CAS: 19340-97-7
Molecular weight: 175
m/z	intensity
26	5
27	83
29	187
30	39
34	0
37	3
38	8
39	97
40	16
41	295
42	19
43	17
44	1
50	18
51	50
52	16
53	10
54	12
55	23
56	11
57	999
58	44
59	1
62	7
63	23
64	6
65	64
66	10
68	8
73	1
74	6
75	4
76	8
77	68
78	22
79	15
80	1
82	1
84	385
85	23
86	2
89	17
90	11
91	172
92	114
93	9
101	1
102	11
103	40
104	23
105	71
106	4
115	16
116	6
117	51
118	22
119	9
120	7
128	2
129	1
130	66
131	15
132	293
133	30
160	13
161	2
174	8
175	87
176	11
