Mass Spectrum: 2(3H)-Furanone, 3-butyldihydro-
Formula: C8H14O2
CAS: 19340-56-8
Molecular weight: 142
m/z	intensity
41	695
42	323
43	265
44	38
45	96
46	7
47	8
48	0
49	0
50	18
51	34
52	17
53	111
54	84
55	573
56	242
57	113
58	106
59	51
60	23
61	8
62	5
63	8
64	27
65	19
66	11
67	61
68	51
69	156
70	51
71	38
72	6
73	200
74	13
75	3
76	1
77	13
78	7
79	15
80	5
81	41
82	13
83	29
84	23
85	127
86	999
87	83
88	12
89	2
90	0
91	7
92	1
93	6
94	2
95	24
96	16
97	28
98	20
99	196
100	20
101	13
102	33
103	5
104	11
105	5
106	2
107	1
108	1
109	1
110	1
111	1
112	6
113	11
114	8
115	14
116	21
117	3
118	1
119	1
121	1
122	0
123	5
124	7
125	6
126	2
127	16
128	9
129	9
130	0
131	3
132	1
133	1
134	0
135	1
136	0
137	1
138	1
139	3
140	4
141	14
142	63
143	22
144	9
145	2
