Mass Spectrum: Benzeneethanol, .alpha.-[[(1-methylethyl)amino]methyl]-
Formula: C12H19NO
CAS: 19343-25-0
Molecular weight: 193
m/z	intensity
45	78
46	48
51	19
56	96
58	29
60	52
63	15
65	44
70	19
71	11
72	999
73	67
77	29
91	178
92	22
102	26
103	19
117	29
175	11
178	37
193	29
