Mass Spectrum: 3',5'-Acetoxylidide, 4'-[2-hydroxy-3-(isopropylamino)propoxy]-
Formula: C16H26N2O3
CAS: 19343-17-0
Molecular weight: 294
m/z	intensity
39	38
41	83
42	53
43	152
44	68
56	136
57	83
58	46
60	30
70	38
71	38
72	999
73	76
74	46
100	46
108	30
114	38
116	258
136	152
137	212
138	23
179	455
180	83
192	8
218	15
250	23
279	38
294	15
