Mass Spectrum: p-Benzoquinone, 2-methoxy-5-(methylthio)-
Formula: C8H8O3S
CAS: 19349-06-5
Molecular weight: 184
m/z	intensity
39	180
41	240
45	450
53	680
57	470
59	240
69	999
71	200
72	370
73	310
75	290
85	850
95	240
98	400
109	300
111	510
113	290
138	220
141	600
155	810
156	820
169	990
170	200
171	240
184	990
185	290
186	270
