Mass Spectrum: 2-Propanol, 1-(isopropylamino)-3-(1-naphthylmethoxy)-
Formula: C17H23NO2
CAS: 19343-21-6
Molecular weight: 273
m/z	intensity
41	71
42	57
43	99
44	57
56	57
58	113
60	49
70	28
71	21
72	999
73	64
86	21
91	21
100	28
102	64
114	43
115	86
116	14
117	43
127	35
128	35
129	57
132	42
139	35
141	383
142	78
158	85
258	14
273	14
