Mass Spectrum: 2-Propanol, 1-[(1-methylethyl)amino]-3-(phenylmethoxy)-
Formula: C13H21NO2
CAS: 19343-24-9
Molecular weight: 223
m/z	intensity
39	45
41	83
42	76
43	98
44	455
45	409
46	250
56	45
58	98
60	61
65	45
72	999
73	61
77	23
79	15
91	341
92	38
102	61
117	23
132	45
208	45
209	4
222	2
223	1
