Mass Spectrum: 1,2,2-Trimethyl-6-phenylpiperidin-4-one
Formula: C14H19NO
CAS: 19340-13-7
Molecular weight: 217
m/z	intensity
37	6
38	12
39	84
40	70
41	98
42	230
43	130
44	25
49	2
50	37
51	110
52	32
53	23
54	29
55	120
56	999
57	48
58	46
59	2
61	2
62	9
63	32
64	9
65	38
66	8
67	7
68	14
69	16
70	73
71	57
72	230
73	15
74	16
75	19
76	33
77	240
78	110
79	35
80	15
81	6
82	23
83	83
84	34
85	14
86	5
87	6
88	4
89	25
90	15
91	120
92	16
93	7
94	6
95	8
96	10
97	6
98	190
99	12
100	1
101	16
102	50
103	270
104	300
105	41
106	7
107	6
108	7
109	6
110	3
111	2
112	5
114	1
115	26
116	15
117	35
118	240
119	47
120	65
121	8
122	5
124	11
125	1
126	2
127	5
128	10
129	8
130	10
131	720
132	96
133	12
134	6
135	2
139	1
140	50
141	7
142	3
143	5
144	14
145	61
146	91
147	11
152	1
153	2
156	2
157	3
158	14
159	5
160	11
161	2
165	1
170	2
171	6
172	8
173	4
174	60
175	8
176	3
183	2
184	2
185	3
186	12
187	2
188	2
189	12
190	2
200	5
201	8
202	760
203	110
204	9
215	2
216	4
217	150
218	23
219	2
