Mass Spectrum: 2-Propanol, 1-(isopropylamino)-3-(1-naphthylthio)-
Formula: C16H21NOS
CAS: 19343-29-4
Molecular weight: 275
m/z	intensity
41	29
42	16
43	43
45	16
56	27
57	14
58	22
72	999
73	51
115	84
127	14
128	24
129	16
130	11
159	38
160	43
171	8
173	29
174	8
231	11
257	3
260	3
275	8
