Mass Spectrum: 2-Propanol, 1-(isopropylamino)-3-(p-tolylthio)-
Formula: C13H21NOS
CAS: 19343-26-1
Molecular weight: 239
m/z	intensity
39	22
41	44
42	22
43	62
44	22
45	62
56	49
57	22
58	13
60	27
65	22
72	999
73	67
77	22
79	22
91	44
98	36
102	26
123	40
124	22
137	84
138	13
163	13
166	4
195	22
221	9
224	4
239	13
