Mass Spectrum: 2-Butanol, 1-(isopropylamino)-3-methyl-3-(1-naphthyloxy)-
Formula: C18H25NO2
CAS: 19343-20-5
Molecular weight: 287
m/z	intensity
41	77
42	33
43	77
44	33
55	22
56	33
57	44
60	44
72	999
73	67
84	22
89	11
102	100
115	133
116	44
126	11
127	56
128	22
144	266
145	33
185	44
215	33
287	3
