Mass Spectrum: 2-Butanol, 1-(isopropylamino)-4-(1-naphthyloxy)-
Formula: C17H23NO2
CAS: 19343-28-3
Molecular weight: 273
m/z	intensity
41	45
42	32
43	79
44	39
70	79
72	999
73	52
102	14
114	41
115	93
116	25
127	34
128	34
129	14
130	341
131	25
144	68
157	23
200	5
202	9
258	9
273	5
