Mass Spectrum: .alpha.-Aminoisobutyronitrile
Formula: C4H8N2
CAS: 19355-69-2
Molecular weight: 84
m/z	intensity
12	131
13	99
14	970
15	285
26	999
27	479
28	184
30	480
31	199
34	8
35	9
36	32
37	45
38	156
39	149
40	371
41	391
42	569
43	181
44	878
45	32
50	36
51	138
52	313
53	292
54	63
55	12
56	12
84	12
