Mass Spectrum: 2-Propanone, 1,1-dipropoxy-
Formula: C9H18O3
CAS: 19358-00-0
Molecular weight: 174
m/z	intensity
41	155
42	25
43	999
44	16
45	8
47	32
57	3
59	3
60	2
73	17
74	3
85	2
89	62
90	4
115	9
131	26
132	2
