Mass Spectrum: Formanilide, N-methyl-4'-[(3-methyl-5-oxo-1-phenyl-2-pyrazolin-4-ylidene)amino]-
Formula: C18H16N4O2
CAS: 19362-42-6
Molecular weight: 320
m/z	intensity
38	10
39	50
40	10
41	20
50	20
51	80
52	20
53	5
54	5
55	5
62	5
63	50
64	110
65	70
66	10
67	5
74	5
75	10
76	30
77	280
78	40
79	20
80	10
89	5
90	40
91	999
92	80
93	10
102	40
103	20
104	20
105	50
106	10
107	10
109	5
116	5
117	5
118	5
119	40
120	5
121	10
122	5
129	5
130	5
131	100
132	720
133	60
134	20
146	20
149	5
150	20
157	5
159	5
160	30
161	30
174	5
187	20
188	10
222	5
223	5
251	10
291	5
292	10
320	620
321	130
322	40
323	5
