Mass Spectrum: o-(2-Biphenylyl) S-(N,N-diethylthiocarbamoyl) dithiocarbonate
Formula: C18H19NOS3
CAS: 19378-30-4
Molecular weight: 361
m/z	intensity
27	9
28	2
29	57
30	3
39	8
41	1
42	5
43	1
44	26
45	2
50	2
51	6
52	1
54	1
55	1
56	6
57	1
58	3
59	6
60	145
61	5
62	8
63	8
64	1
65	3
70	3
71	1
72	179
73	7
74	3
75	4
76	10
77	7
78	1
86	16
87	5
88	268
89	16
90	11
91	3
92	1
98	1
100	999
101	60
102	7
103	1
113	3
114	7
115	35
116	375
117	25
118	16
119	1
126	5
127	7
128	4
129	2
139	16
140	4
141	31
142	22
143	5
148	1
149	1
150	5
151	16
152	67
153	37
154	6
155	1
165	5
166	3
167	1
168	11
169	35
170	26
171	5
172	1
173	1
178	1
179	2
180	2
181	11
182	2
183	2
184	11
185	11
186	3
196	1
207	1
208	1
213	5
214	1
228	1
252	4
264	3
284	2
285	154
286	31
287	9
288	1
361	2
