Mass Spectrum: 2-Furanacetic acid, .alpha.-hydroxy-
Formula: C6H6O4
CAS: 19377-73-2
Molecular weight: 142
m/z	intensity
39	257
41	409
42	37
43	25
44	58
45	72
50	51
51	69
52	63
53	43
68	31
69	142
80	36
81	65
95	108
96	52
97	999
98	74
108	17
124	14
125	24
142	139
143	9
