Mass Spectrum: 9-Octadecenoic acid, methyl ester, (E)-
Formula: C19H36O2
CAS: 1937-62-8
Molecular weight: 296
m/z	intensity
15	31
18	2
26	3
27	50
28	11
29	163
30	4
31	8
33	1
38	1
39	52
40	10
41	541
42	113
43	567
44	20
45	24
50	1
51	3
52	3
53	45
54	222
55	999
56	344
57	466
58	22
59	159
60	6
61	3
62	1
65	12
66	19
67	398
68	346
69	954
70	286
71	190
72	20
73	66
74	901
75	135
76	9
77	13
78	19
79	88
80	77
81	473
82	383
83	839
84	714
85	162
86	14
87	635
88	58
89	5
90	1
91	35
92	12
93	67
94	95
95	358
96	649
97	750
98	630
99	86
100	16
101	125
102	13
103	2
104	2
105	28
106	11
107	59
108	69
109	228
110	374
111	405
112	152
113	56
114	76
115	124
116	19
117	4
118	5
119	60
120	23
121	92
122	42
123	273
124	210
125	219
126	49
127	57
128	89
129	82
130	23
131	4
132	3
133	58
134	57
135	88
136	30
137	176
138	164
139	135
140	24
141	115
142	26
143	79
144	12
145	3
146	1
147	52
148	49
149	61
150	24
151	123
152	149
153	91
154	15
155	33
156	7
157	29
158	7
159	2
161	31
162	15
163	31
164	24
165	81
166	120
167	58
168	12
169	49
170	8
171	23
172	5
173	1
175	21
176	8
177	15
178	10
179	46
180	213
181	58
182	11
183	28
184	5
185	18
186	6
187	2
189	14
190	5
191	9
192	6
193	35
194	42
195	16
196	5
197	9
198	2
199	23
200	11
201	2
203	8
204	3
205	4
206	4
207	36
208	30
209	13
210	5
211	5
212	2
213	19
214	11
215	2
217	5
218	2
219	1
220	86
221	73
222	276
223	65
224	7
225	3
226	1
227	7
228	7
229	1
231	1
233	1
234	1
235	42
236	35
237	6
238	1
239	4
240	1
241	4
242	1
245	3
246	43
247	31
248	6
249	8
250	2
253	15
254	3
255	5
256	1
262	1
263	6
264	549
265	261
266	41
267	9
268	2
278	9
279	3
294	2
295	1
296	84
297	23
298	7
299	1
