Mass Spectrum: Taurolidine
Formula: C7H16N4O4S2
CAS: 19388-87-5
Molecular weight: 284
m/z	intensity
26	30
27	110
30	999
31	20
33	20
34	70
41	60
42	280
43	850
44	330
45	30
46	20
48	40
54	40
55	150
56	180
57	450
58	30
63	10
64	40
65	20
69	20
71	50
72	70
73	30
80	20
81	40
91	10
106	10
108	30
118	20
120	20
135	260
136	90
137	20
