Mass Spectrum: 4-(2-Methoxybenzylideneamino)benzenesulfonamide
Formula: C14H14N2O3S
CAS: 193803-91-7
Molecular weight: 290
m/z	intensity
36	19
37	3
38	79
39	380
40	20
41	215
42	69
43	86
44	37
45	27
46	11
48	33
50	35
51	31
52	104
53	80
54	99
55	88
57	124
58	10
60	10
61	32
62	56
63	138
64	144
65	568
66	68
67	18
68	15
70	35
71	17
72	9
73	1
74	20
75	3
76	8
77	26
78	9
79	19
80	152
81	21
82	17
83	26
84	19
85	8
86	1
87	1
88	1
89	21
90	49
91	161
92	999
93	65
94	9
95	1
96	11
97	12
98	9
99	1
100	1
101	1
102	7
104	16
105	26
107	84
108	602
109	64
110	13
111	15
112	46
113	16
115	10
118	23
119	149
120	18
121	9
122	8
123	14
124	13
125	23
126	5
127	2
128	1
129	9
130	1
135	26
136	8
139	10
140	38
141	8
143	3
144	1
149	19
151	7
152	12
153	6
154	27
156	774
157	50
158	37
159	5
166	7
167	1
169	8
172	984
173	64
174	40
290	9
291	2
