Mass Spectrum: 4-Isothiazolol, 5-methyl-3-phenyl-
Formula: C10H9NOS
CAS: 19389-29-8
Molecular weight: 191
m/z	intensity
39	65
43	32
45	39
50	89
51	179
52	51
55	20
57	22
58	89
59	468
60	205
61	41
63	22
74	20
75	34
76	70
77	251
78	108
88	151
103	39
104	999
105	108
135	3
191	593
192	60
193	32
