Mass Spectrum: 4-Isothiazolol, 3-phenyl-
Formula: C9H7NOS
CAS: 19389-31-2
Molecular weight: 177
m/z	intensity
39	37
45	246
46	70
50	137
51	170
52	31
63	19
74	81
75	37
76	81
77	277
79	29
103	37
104	999
105	139
135	3
149	12
177	360
178	39
179	20
