Mass Spectrum: 2-Butoxyethanol, TBDMS derivative
Formula: C12H28O2Si
CAS: 193811-78-8
Molecular weight: 232
m/z	intensity
15	2
26	2
27	29
28	12
29	125
30	4
31	8
39	34
41	283
42	18
43	57
44	10
45	69
46	5
47	31
48	2
49	1
50	1
51	4
52	1
53	7
54	2
55	34
56	30
57	463
58	80
59	119
60	18
61	44
62	3
63	3
66	2
67	1
69	2
70	1
71	6
72	20
73	266
75	999
76	108
77	78
78	3
79	2
81	1
83	3
85	14
86	3
87	57
88	44
89	80
90	8
91	4
97	2
98	1
99	12
100	6
101	48
102	16
103	94
104	9
105	13
106	1
111	1
113	2
115	27
116	4
117	62
119	874
120	106
121	45
122	2
129	2
131	26
132	3
133	2
143	1
145	2
159	22
160	3
161	32
162	4
163	1
175	440
176	64
177	21
178	2
189	6
190	1
217	4
218	1
233	1
