Mass Spectrum: 4H-Pyran-4-one, 3,5-diacetyl-2,6-dimethyl-
Formula: C11H12O4
CAS: 19396-77-1
Molecular weight: 208
m/z	intensity
39	120
42	65
43	999
44	30
67	420
68	50
69	50
71	50
83	35
85	800
95	30
109	280
125	150
127	50
148	55
151	280
165	80
166	30
193	80
208	330
209	50
