Mass Spectrum: Benzeneethanol, .alpha.-hexyl-
Formula: C14H22O
CAS: 19396-72-6
Molecular weight: 206
m/z	intensity
14	99
16	54
17	270
27	72
29	99
39	70
40	70
41	140
42	27
43	361
55	297
56	36
57	74
65	88
69	70
77	54
85	88
91	364
92	999
93	88
97	75
103	50
104	178
105	45
113	207
115	52
117	135
121	36
188	70
