Mass Spectrum: Bicyclo[2.2.0]hex-1-yl-methanol
Formula: C7H12O
CAS: 19394-20-8
Molecular weight: 112
m/z	intensity
26	24
27	318
28	78
29	223
30	15
31	311
37	21
38	47
39	564
40	115
41	999
42	180
43	320
44	161
45	36
46	5
47	5
48	4
49	9
50	56
51	89
52	44
53	368
54	250
55	292
56	152
57	512
58	67
59	6
60	5
61	11
62	9
63	16
64	5
65	51
66	135
67	214
68	219
69	127
70	275
71	152
72	12
73	6
74	5
75	8
76	5
77	146
78	34
79	759
80	86
81	483
82	63
83	163
84	75
85	7
86	5
87	5
90	5
91	53
92	13
93	83
94	113
95	21
96	8
97	143
98	13
111	19
112	6
113	6
