Mass Spectrum: 1,2-Hydrazinedisulfonyl difluoride
Formula: F2H2N2O4S2
CAS: 19403-57-7
Molecular weight: 196
m/z	intensity
29	900
30	500
48	990
51	10
64	990
65	430
66	170
67	570
83	270
113	999
196	40
