Mass Spectrum: Tetrapropylammonium bromide
Formula: C12H28BrN
CAS: 1941-30-6
Molecular weight: 265
m/z	intensity
15	8
26	9
27	121
28	27
29	19
30	176
31	2
37	4
38	7
39	48
40	9
41	201
42	84
43	471
44	45
54	5
55	4
56	16
57	8
58	32
59	1
68	3
69	1
70	27
71	4
72	199
73	9
79	4
80	9
81	4
82	9
84	20
85	2
86	106
87	6
93	3
94	1
95	3
98	4
99	1
100	12
101	1
107	5
109	4
112	14
113	1
114	999
115	81
116	3
122	37
123	1
124	37
125	1
128	5
141	3
142	13
143	75
144	9
186	14
187	2
