Mass Spectrum: Hydroxylamine, O-(3-methylbutyl)-
Formula: C5H13NO
CAS: 19411-65-5
Molecular weight: 103
m/z	intensity
14	14
15	181
16	42
26	22
27	221
28	42
29	271
30	26
31	34
32	26
33	122
34	34
35	12
38	22
39	138
40	14
41	381
42	74
43	999
44	68
45	10
54	24
55	128
56	78
57	367
58	32
59	10
70	28
71	423
72	22
87	42
89	12
103	84
104	18
