Mass Spectrum: 2,4-Dimethylcynnolinium iodide
Formula: C10H11IN2
CAS: 19418-98-5
Molecular weight: 286
m/z	intensity
27	48
28	77
39	77
50	59
51	67
57	67
58	35
62	28
63	87
64	28
65	28
74	26
75	39
76	16
77	18
89	97
114	18
115	999
116	97
127	158
128	59
130	38
131	9
139	18
140	19
141	80
142	591
144	782
145	111
157	19
158	90
159	73
160	9
