Mass Spectrum: 1,3-Dioxolan-2-one, 4,4,5,5-tetramethyl-
Formula: C7H12O3
CAS: 19424-29-4
Molecular weight: 144
m/z	intensity
41	700
42	430
43	999
44	50
45	20
51	10
53	30
55	40
56	10
57	530
58	160
59	570
60	30
67	10
69	40
83	70
84	10
85	180
100	50
144	240
145	30
