Mass Spectrum: Nicotinonitrile, 1,4-dihydro-1-pentyl-
Formula: C11H16N2
CAS: 19424-19-2
Molecular weight: 176
m/z	intensity
26	118
27	536
28	154
29	427
30	63
38	63
39	354
40	63
41	563
42	163
50	100
51	163
52	109
53	72
55	154
56	27
64	63
65	163
66	54
71	100
76	63
77	100
78	81
79	63
80	54
91	54
92	109
93	45
104	190
105	999
106	145
118	100
119	545
120	100
121	127
131	45
133	36
146	45
148	54
175	909
176	463
177	63
