Mass Spectrum: N,N-Diethyl-butyrothioamide
Formula: C8H17NS
CAS: 19420-07-6
Molecular weight: 159
m/z	intensity
30	668
32	40
34	20
40	60
41	80
42	109
43	49
44	342
48	98
56	49
57	40
58	999
59	39
60	30
64	40
70	30
72	199
73	278
74	30
88	19
129	49
130	19
131	19
159	20
