Mass Spectrum: Cyclobutanone, 2,3-dimethyl-, trans-
Formula: C6H10O
CAS: 1942-42-3
Molecular weight: 98
m/z	intensity
41	445
42	108
44	138
55	217
56	999
70	69
98	217
