Mass Spectrum: 2-Propanol, 1-(isopropylamino)-2-methyl-3-(1-naphthyloxy)-
Formula: C17H23NO2
CAS: 19423-05-3
Molecular weight: 273
m/z	intensity
39	17
41	42
42	23
43	73
44	66
45	132
46	69
51	8
55	16
56	62
57	35
58	34
63	14
65	9
70	40
71	21
72	999
73	66
74	31
77	15
89	14
100	6
101	9
114	16
115	114
116	52
126	13
127	52
128	22
129	17
130	13
143	24
144	114
145	17
157	19
167	9
200	9
215	62
216	12
258	9
273	9
