Mass Spectrum: 4,7-Dichloro-2-(ethyloxy)-2-[(1-methylethyl)thio][1,3]dithiolo[4,5-c]pyridine-6-carbonitrile
Formula: C12H12Cl2N2OS3
CAS: 194228-11-0
Molecular weight: 366
m/z	intensity
25	11
26	31
27	45
28	1
29	999
30	23
38	11
39	75
40	5
41	293
42	113
43	454
44	14
45	37
46	12
47	37
48	5
49	15
58	18
59	40
60	22
61	31
62	18
63	5
64	17
68	5
70	23
71	5
78	5
79	35
80	7
81	15
82	7
88	25
89	17
90	2
91	5
93	20
94	69
95	5
100	5
103	18
104	2
105	7
106	35
107	7
120	5
138	7
141	7
155	5
173	5
198	7
199	31
200	20
201	20
202	5
233	5
234	7
235	21
236	17
237	17
238	2
261	11
262	61
263	352
264	118
265	258
266	58
267	66
268	18
269	5
278	5
279	12
280	7
281	12
282	2
291	127
292	46
293	97
294	18
295	18
