Mass Spectrum: 2,5-Thiophenedicarboxylic acid, tetrahydro-, dimethyl ester, cis-
Formula: C8H12O4S
CAS: 19438-91-6
Molecular weight: 204
m/z	intensity
18	5
26	2
27	33
28	8
29	9
30	2
31	6
32	1
33	3
38	1
39	16
40	4
41	27
42	5
43	6
44	5
45	73
46	4
47	8
48	0
49	0
50	1
51	3
52	1
53	13
54	1
55	45
56	3
57	4
58	40
59	101
60	6
61	7
65	3
66	0
67	1
68	9
69	13
70	1
71	11
72	2
73	3
74	3
75	3
76	0
77	2
79	1
80	1
81	3
82	1
83	3
84	11
85	999
86	82
87	58
88	5
89	1
90	1
91	1
94	0
95	2
96	1
97	3
98	1
99	5
100	17
101	4
102	1
103	3
104	1
105	3
106	0
107	1
108	0
109	0
111	30
112	13
113	42
114	7
115	3
116	2
117	26
118	3
119	1
126	0
127	3
128	0
129	3
130	0
131	1
139	12
140	17
141	1
142	2
143	5
144	17
145	920
146	75
147	48
148	3
149	4
157	1
158	3
168	1
170	1
172	4
173	114
174	19
175	7
176	1
187	0
202	2
204	395
205	43
206	24
207	2
