Mass Spectrum: 1,4-Butanediamine, N,N'-diethyl-
Formula: C8H20N2
CAS: 19435-68-8
Molecular weight: 144
m/z	intensity
15	4
16	1
18	17
26	3
27	45
28	71
29	89
30	385
31	8
32	4
38	1
39	20
40	5
41	52
42	88
43	88
44	170
45	217
46	12
51	2
52	1
53	11
54	12
55	45
56	200
57	52
58	999
59	52
60	2
64	5
67	5
68	20
69	12
70	164
71	192
72	64
73	23
80	7
81	2
82	10
84	89
85	10
86	25
87	35
88	1
95	4
96	4
97	3
98	188
99	17
100	51
101	114
102	8
115	48
116	3
129	16
130	1
144	3
