Mass Spectrum: (Perfluoro-n-butyl)ethylene
Formula: C6H3F9
CAS: 19430-93-4
Molecular weight: 246
m/z	intensity
20	1
26	8
27	67
28	11
31	23
32	2
33	2
37	2
38	3
39	12
44	2
45	1
46	1
50	6
51	313
52	3
55	5
56	6
57	24
58	3
62	1
63	1
64	4
65	16
68	1
69	133
70	2
74	1
75	35
76	6
77	999
78	36
81	2
82	2
87	1
88	5
89	3
93	6
95	35
96	1
99	1
100	27
101	1
106	2
107	8
108	28
109	1
112	1
113	19
119	34
120	1
126	2
127	19
131	16
137	9
139	7
145	17
150	1
157	44
158	3
163	24
164	1
169	2
175	2
177	28
178	1
181	47
182	2
187	4
195	1
207	62
208	4
227	20
228	1
