Mass Spectrum: Curcumenol
Formula: C15H22O2
CAS: 19431-84-6
Molecular weight: 234
m/z	intensity
27	35
28	8
29	40
30	1
31	4
38	4
39	113
40	26
41	265
42	39
43	152
44	7
45	17
46	1
47	1
50	8
51	42
52	22
53	128
54	17
55	171
56	13
57	20
58	6
59	24
60	3
61	1
62	3
63	21
64	14
65	112
66	34
67	226
68	67
69	121
70	13
72	6
73	5
74	4
75	6
76	6
77	187
78	45
79	186
80	43
81	110
83	45
85	9
86	3
87	6
88	9
89	12
90	5
91	315
92	46
93	167
94	37
95	141
96	31
97	42
98	8
99	5
100	2
101	3
102	13
103	50
104	20
105	999
106	113
107	210
108	92
109	94
110	22
111	34
112	5
113	5
114	2
115	111
116	51
117	108
118	26
119	327
120	53
121	266
122	63
123	34
126	6
127	21
128	64
129	72
130	36
131	196
132	50
133	606
134	108
135	115
136	54
137	89
138	23
139	39
140	8
141	24
142	19
143	31
144	21
145	279
146	74
147	419
148	76
149	178
150	41
151	26
152	17
153	10
154	5
155	9
156	8
157	17
158	19
159	73
160	30
161	67
162	40
163	85
165	162
166	31
167	4
168	2
169	3
170	4
171	10
173	197
174	46
175	53
176	14
177	40
178	27
179	10
181	5
183	5
184	3
185	8
186	7
188	45
189	532
190	89
191	242
192	37
193	5
196	1
198	1
199	16
200	3
201	41
206	52
207	8
215	9
216	16
217	7
219	66
233	2
234	229
235	35
236	3
