Mass Spectrum: s-Tetrazine, 3,6-bis(diethylamino)-
Formula: C10H20N6
CAS: 19455-89-1
Molecular weight: 224
m/z	intensity
15	30
18	74
26	22
27	150
28	178
29	308
41	33
42	86
43	151
44	21
55	538
56	138
69	83
70	33
71	204
83	999
84	93
97	26
98	226
99	393
100	26
224	246
225	36
