Mass Spectrum: 1,3-Benzodioxol-2-one, hexahydro-, cis-
Formula: C7H10O3
CAS: 19456-20-3
Molecular weight: 142
m/z	intensity
41	999
42	920
43	200
44	80
50	10
51	20
52	10
53	50
54	320
55	510
56	70
57	300
67	40
68	30
69	400
70	170
79	10
80	130
81	20
83	110
97	30
98	30
142	10
