Mass Spectrum: 1,3-Dioxolan-2-one, 4,5-diphenyl-, cis-
Formula: C15H12O3
CAS: 19456-17-8
Molecular weight: 240
m/z	intensity
41	39
42	29
43	198
44	29
45	19
50	49
51	198
52	49
53	9
55	19
56	9
57	29
58	79
59	9
60	9
62	19
63	99
64	49
65	49
69	9
71	9
74	9
75	19
76	29
77	356
78	118
79	178
80	9
83	9
88	19
89	356
90	999
91	237
92	9
93	9
104	9
105	267
106	108
107	306
108	267
109	19
118	69
119	9
120	29
132	29
149	9
151	9
152	49
153	19
165	79
166	39
167	504
168	128
169	9
175	9
177	9
178	99
179	59
180	9
181	29
182	29
183	79
184	9
194	9
195	267
196	99
197	9
240	603
241	99
242	19
