Mass Spectrum: s-Tetrazine, 3,6-bis(diisopropylamino)-
Formula: C14H28N6
CAS: 19455-91-5
Molecular weight: 280
m/z	intensity
14	31
27	116
28	62
39	42
41	209
42	107
43	789
44	40
55	22
69	999
70	52
82	23
83	83
84	136
85	163
99	107
111	510
112	38
126	53
127	117
280	47
