Mass Spectrum: 1,2,4,5-Tetrazine, 3,6-bis(1,1-dimethylethyl)-
Formula: C10H18N4
CAS: 19455-88-0
Molecular weight: 194
m/z	intensity
15	46
27	121
28	78
29	117
30	24
39	147
40	55
41	643
42	999
43	49
52	42
55	35
56	102
57	941
58	45
66	27
67	49
68	265
69	39
82	35
83	57
84	252
194	10
