Mass Spectrum: s-Tetrazine, 3,6-bis(dipropylamino)-
Formula: C14H28N6
CAS: 19455-90-4
Molecular weight: 280
m/z	intensity
15	21
18	25
27	226
28	147
29	22
30	170
39	69
41	379
42	119
43	999
44	60
54	24
55	776
56	69
58	33
68	24
69	33
70	290
71	30
72	162
83	59
84	43
85	121
86	65
97	867
98	78
99	76
100	80
111	25
126	102
127	378
128	112
280	88
281	19
