Mass Spectrum: L-Lysine, N2-acetyl-
Formula: C8H16N2O3
CAS: 1946-82-3
Molecular weight: 188
m/z	intensity
15	10
17	4
18	21
19	1
26	3
27	16
28	84
29	23
30	248
31	11
32	1
38	1
39	19
40	4
41	40
42	62
43	250
44	78
45	17
46	10
50	2
51	3
52	4
53	8
54	13
55	37
56	148
57	36
58	30
59	18
60	45
61	1
65	3
66	2
67	36
68	11
69	9
70	44
71	18
72	159
73	83
74	60
75	18
76	1
77	3
78	2
79	2
80	4
81	3
82	44
83	64
84	999
85	66
86	55
87	55
88	5
89	9
90	2
92	1
93	3
94	4
95	1
96	2
97	5
98	10
99	17
100	92
101	45
102	5
103	6
104	1
105	1
106	5
107	1
110	6
111	4
112	12
113	5
114	24
115	54
116	12
117	2
123	1
124	1
125	8
126	362
127	58
128	57
129	6
130	4
141	2
142	58
143	94
144	10
152	2
153	1
154	1
170	35
171	6
172	9
173	2
187	1
188	2
