Mass Spectrum: Glycidamide, 3-phenyl-, trans-
Formula: C9H9NO2
CAS: 19464-96-1
Molecular weight: 163
m/z	intensity
41	60
44	275
45	10
50	155
51	308
52	55
57	73
61	33
62	80
63	203
64	88
65	208
66	10
74	38
75	45
76	28
77	278
78	80
79	305
80	20
89	365
90	470
91	999
92	203
103	25
104	5
105	125
106	620
107	258
108	23
118	128
119	50
120	125
134	8
135	5
146	50
147	3
162	5
163	130
164	13
