Mass Spectrum: 1,2-Cyclohexanediol, 1-methyl-4-(1-methylethenyl)-
Formula: C10H18O2
CAS: 1946-00-5
Molecular weight: 170
m/z	intensity
26	5
27	125
28	31
29	111
30	6
31	38
36	8
38	8
39	167
40	47
41	376
42	44
43	874
44	47
45	60
46	2
47	6
48	2
49	2
50	8
51	28
52	14
53	116
54	26
55	201
56	89
57	127
58	290
59	50
60	4
61	2
62	3
63	8
64	4
65	30
66	20
67	401
68	209
69	337
70	66
71	999
72	89
73	11
74	38
75	2
76	3
77	39
78	8
79	97
80	19
81	115
82	286
83	154
84	44
85	11
86	2
87	10
88	82
89	5
91	34
92	11
93	178
94	46
95	83
96	20
97	110
98	12
99	4
100	58
101	50
102	3
103	1
104	2
105	14
106	8
107	28
108	308
109	186
110	39
111	126
112	32
113	4
114	2
115	3
117	2
118	1
119	38
120	4
121	19
122	9
123	58
124	21
125	11
126	94
127	18
128	2
129	2
134	37
135	8
136	2
137	101
138	10
139	3
140	5
141	3
151	2
152	220
153	28
154	3
155	5
170	9
171	0
