Mass Spectrum: Glycidamide, N-allyl-3-phenyl-, trans-
Formula: C12H13NO2
CAS: 19464-98-3
Molecular weight: 203
m/z	intensity
39	240
40	10
41	999
42	50
56	170
77	140
78	10
79	140
80	10
89	160
90	220
91	930
92	60
97	200
98	310
99	30
118	170
119	20
120	350
121	30
146	180
147	20
203	140
204	20
