Mass Spectrum: Glycidamide, N-cyclopentyl-3-phenyl-, trans-
Formula: C14H17NO2
CAS: 19464-97-2
Molecular weight: 231
m/z	intensity
41	485
42	78
43	80
44	254
45	18
50	23
51	80
52	20
53	23
54	25
55	20
56	422
57	201
58	8
62	20
63	75
64	23
65	151
66	25
67	83
68	68
69	999
70	48
77	90
78	25
79	33
80	3
82	33
83	13
84	70
85	78
89	90
90	131
91	867
92	284
93	10
96	13
102	15
103	28
104	5
105	60
106	35
107	55
112	73
118	126
119	55
120	364
121	80
125	33
131	35
136	23
145	3
146	176
147	30
148	3
164	3
174	18
203	25
214	18
215	3
231	332
232	50
