Mass Spectrum: Cyclobutane, 1,2-bis(1-methylethenyl)-, trans-
Formula: C10H16
CAS: 19465-02-2
Molecular weight: 136
m/z	intensity
25	1
26	52
27	272
28	102
29	47
30	0
37	11
38	45
39	415
40	108
41	208
42	48
43	7
44	0
49	1
50	41
51	84
52	39
53	290
54	18
55	35
58	0
59	0
61	4
62	13
63	32
64	5
65	84
66	32
67	787
68	999
69	67
70	0
73	0
74	7
75	3
77	199
78	42
79	205
80	55
81	86
82	15
85	0
86	1
87	2
89	6
90	1
91	277
92	151
93	875
94	185
95	58
96	4
102	2
103	15
105	66
106	19
107	270
108	116
109	10
110	0
114	0
115	6
116	1
117	6
118	1
119	21
120	4
121	305
122	31
123	2
133	0
134	3
135	4
136	21
137	3
138	0
