Mass Spectrum: Ethyl .alpha.-d-glucopyranoside
Formula: C8H16O6
CAS: 19467-01-7
Molecular weight: 208
m/z	intensity
42	427
43	400
44	81
45	210
47	247
49	5
51	5
53	17
55	123
56	98
57	249
60	999
61	143
62	6
69	65
70	56
71	146
73	339
74	160
75	211
76	8
77	3
81	9
83	6
85	53
86	15
87	36
88	111
89	21
91	14
97	46
98	49
99	14
101	17
103	4
109	3
113	4
115	4
116	22
117	17
118	17
127	15
130	18
131	22
135	11
144	35
145	27
147	8
159	7
163	8
177	5
208	4
