Mass Spectrum: 1-Methoxy-3-dimethylaminocyclohexane (trans)
Formula: C9H19NO
CAS: 194720-35-9
Molecular weight: 157
m/z	intensity
42	121
43	45
44	73
45	51
46	16
53	11
55	36
56	73
57	7
58	113
67	5
68	9
69	5
70	71
71	405
72	67
79	22
81	38
82	45
83	7
84	714
85	77
96	7
97	18
98	58
100	9
110	14
112	22
114	999
115	50
124	22
126	200
127	45
142	317
143	29
156	11
157	415
158	31
