Mass Spectrum: 1-Butyl-1-methoxy-3-dimethylaminocyclohexane (cis)
Formula: C13H27NO
CAS: 194720-33-7
Molecular weight: 213
m/z	intensity
42	99
43	55
44	79
53	22
55	51
56	60
58	33
67	35
70	46
71	433
72	195
77	18
79	36
81	48
84	999
85	94
98	57
124	269
126	31
138	40
140	79
156	830
157	70
166	29
170	766
171	64
180	24
182	258
183	387
184	48
198	18
213	27
214	3
