Mass Spectrum: 3-Octyne, 2,2-dimethyl-
Formula: C10H18
CAS: 19482-57-6
Molecular weight: 138
m/z	intensity
39	170
40	20
41	370
42	20
43	230
50	10
51	50
52	20
53	140
54	20
55	270
56	40
57	260
63	20
65	50
66	10
67	390
68	40
69	180
70	30
77	100
78	10
79	170
80	30
81	999
82	100
91	40
93	50
95	220
96	580
97	50
108	10
109	130
110	10
123	360
124	30
138	140
139	10
