Mass Spectrum: .beta.-d-Glucopyranoside, methyl 2,3,4,6-tetrakis-O-(phenylmethyl)-
Formula: C35H38O6
CAS: 19488-61-0
Molecular weight: 554
m/z	intensity
26	0
27	1
28	6
29	2
31	0
33	1
38	0
39	6
40	0
41	4
42	0
43	1
44	0
45	5
50	1
51	3
52	1
53	0
54	0
55	1
56	0
57	1
58	0
59	0
61	1
62	0
63	2
64	0
65	24
66	1
68	0
69	4
70	0
71	4
72	0
73	1
74	1
75	0
76	0
77	6
78	2
79	4
80	0
81	3
82	2
83	1
84	0
85	2
86	0
87	3
88	0
89	4
90	4
91	999
92	76
93	3
97	1
98	0
99	6
100	2
101	2
102	0
103	2
104	3
105	7
106	1
107	7
108	1
109	0
110	0
111	0
112	0
113	0
115	1
116	0
117	2
118	0
119	2
120	0
121	5
122	0
127	5
128	1
129	3
130	0
131	1
132	0
133	8
134	3
135	3
136	0
141	0
143	1
144	0
145	3
146	1
147	1
148	1
149	1
150	0
151	5
152	0
155	0
157	1
158	0
159	5
160	0
161	2
162	0
163	5
164	1
165	1
166	0
167	2
168	0
169	1
171	1
172	0
173	0
175	2
176	0
177	4
178	0
179	1
180	1
181	39
182	8
183	0
185	0
186	0
187	10
188	1
189	3
190	0
191	0
193	13
194	2
195	0
197	7
198	1
199	0
200	0
201	0
202	2
203	1
204	0
205	1
206	0
207	0
208	0
211	5
212	0
215	0
217	2
218	0
219	1
220	0
221	0
223	1
231	0
233	1
235	2
236	0
237	0
239	0
240	17
241	4
242	0
247	0
248	0
249	0
251	0
253	93
254	18
255	2
261	0
263	0
265	0
266	0
267	0
271	0
277	0
278	0
279	0
280	0
295	1
296	0
297	0
299	0
301	0
307	0
308	2
309	0
310	0
323	0
325	7
326	1
339	0
341	0
357	0
416	0
431	5
432	1
433	0
463	9
464	2
465	0
522	0
