Mass Spectrum: Butanoic acid, 4,4,4-trichloro-3-hydroxy-, ethyl ester
Formula: C6H9Cl3O3
CAS: 19486-93-2
Molecular weight: 234
m/z	intensity
25	2
26	35
27	224
28	15
29	542
30	14
31	58
35	4
36	16
37	7
38	11
39	25
40	2
41	21
42	127
43	543
44	69
45	246
46	8
47	89
48	32
49	23
50	10
51	6
53	8
54	4
55	31
56	5
57	12
58	6
59	12
60	99
61	54
62	12
63	37
64	4
65	22
67	5
69	14
70	17
71	999
72	37
73	27
74	5
75	231
76	26
77	10
78	11
79	3
81	2
82	21
83	93
84	15
85	58
86	3
87	24
88	44
89	455
90	18
91	40
92	9
93	11
95	2
96	3
97	34
98	3
99	24
100	2
101	4
103	4
105	9
106	2
107	15
108	3
109	45
110	22
111	121
112	69
113	70
114	37
115	12
116	6
117	522
118	31
119	35
120	4
121	11
122	4
123	2
125	68
126	7
127	41
128	4
129	10
130	2
131	3
132	2
135	9
137	5
139	2
141	2
143	4
144	2
145	3
146	2
147	15
149	13
151	4
152	89
153	327
154	71
155	229
156	19
157	40
158	2
161	3
163	3
170	15
171	35
172	11
173	23
174	3
175	4
187	4
189	189
190	9
191	185
192	8
193	54
194	2
195	6
198	3
199	3
200	2
201	2
207	14
209	13
211	4
219	2
221	2
223	0
235	1
237	1
239	0
