Mass Spectrum: L-Lyxose
Formula: C5H10O5
CAS: 1949-78-6
Molecular weight: 150
m/z	intensity
14	1
15	7
16	1
17	4
18	13
19	29
26	10
27	52
28	62
29	240
30	40
31	206
32	23
33	1
36	6
37	1
38	5
39	26
40	15
41	52
42	149
43	279
44	145
45	121
46	6
47	40
49	2
51	1
53	7
54	17
55	96
56	62
57	151
58	61
59	16
60	542
61	222
62	12
63	2
65	1
67	8
68	27
69	58
70	14
71	176
72	63
73	999
74	64
75	11
76	2
77	4
79	3
80	2
81	17
82	6
83	25
84	11
85	26
86	64
87	17
88	12
89	18
90	9
91	42
92	2
93	4
94	2
95	7
96	5
97	11
98	5
99	3
100	5
101	52
102	30
103	13
104	2
105	2
107	2
109	3
110	2
111	8
112	3
113	2
114	11
115	7
116	1
119	38
120	2
121	4
122	1
123	4
124	1
125	2
127	1
128	4
129	11
130	2
133	3
135	1
136	2
137	2
143	1
149	17
150	8
151	1
152	2
157	1
