Mass Spectrum: Hexahydro-5H-imidazo[5,1-b:4,3-b']bisthiazole
Formula: C7H12N2S2
CAS: 19505-80-7
Molecular weight: 188
m/z	intensity
41	83
42	89
43	15
45	135
46	29
47	18
49	7
51	3
52	6
54	60
55	21
56	29
57	23
59	87
61	116
62	4
63	3
64	1
69	161
70	4
73	382
74	32
75	11
76	2
77	1
79	0
81	102
82	47
84	5
86	6
88	62
89	3
90	3
93	2
95	50
96	6
98	10
99	9
101	999
102	51
103	35
104	6
105	3
107	1
109	0
112	4
114	17
115	3
117	0
121	1
123	2
124	5
125	1
126	2
127	17
128	4
129	8
130	1
131	3
132	2
133	5
135	0
141	0
142	15
143	0
144	1
155	5
186	1
187	6
188	10
189	1
190	0
