Mass Spectrum: Cyclohexene, 3-(chloromethyl)-
Formula: C7H11Cl
CAS: 19509-49-0
Molecular weight: 130
m/z	intensity
12	1
13	1
14	5
15	30
18	1
25	1
26	29
27	168
28	27
29	25
31	1
35	2
36	4
37	13
38	31
39	223
40	35
41	169
42	9
43	5
44	1
45	5
46	4
47	1
48	1
49	27
50	29
51	65
52	27
53	148
54	75
55	45
56	3
60	1
61	6
62	10
63	20
64	5
65	46
66	31
67	110
68	14
69	1
73	4
74	3
75	10
77	77
78	23
79	179
80	25
81	999
82	66
83	5
84	0
85	1
86	1
87	1
88	8
89	14
90	4
91	27
92	4
93	17
94	29
95	58
96	4
97	0
101	1
102	11
103	1
104	3
105	0
115	1
117	0
129	1
130	81
131	6
132	26
133	2
