Mass Spectrum: Isoxazole, 4,5-dihydro-3-(4-methylphenyl)-5-phenyl-
Formula: C16H15NO
CAS: 19505-66-9
Molecular weight: 237
m/z	intensity
50	60
51	150
63	80
65	140
77	230
78	160
89	90
91	270
103	130
104	999
105	200
115	150
117	100
131	160
133	220
207	190
220	120
236	230
237	849
