Mass Spectrum: 2-Piperidinone, N-[4-bromo-n-butyl]-
Formula: C9H16BrNO
CAS: 195194-80-0
Molecular weight: 233
m/z	intensity
41	545
43	999
44	37
45	0
50	0
51	4
53	50
54	13
55	487
56	118
57	368
58	16
65	6
67	102
69	282
70	92
71	244
72	10
73	1
77	11
79	40
81	118
82	54
83	104
84	57
85	95
86	6
91	12
93	16
95	79
96	46
97	139
98	37
99	37
100	3
105	6
107	13
108	2
109	36
110	14
111	47
112	37
113	18
114	1
115	0
117	1
119	2
121	7
122	4
123	20
124	13
125	33
126	19
127	11
128	1
131	0
133	3
135	10
136	2
137	9
138	5
139	10
140	9
141	9
142	0
145	0
147	1
149	5
150	2
151	10
152	5
153	7
154	23
155	4
161	1
163	4
164	0
177	4
178	1
179	0
204	0
205	4
206	0
207	4
208	0
232	1
233	3
235	3
