Mass Spectrum: Benzene, 1-benzyloxy-4-(2,4-dichlorophenyliminomethyl)-
Formula: C20H15Cl2NO
CAS: 195140-41-1
Molecular weight: 355
m/z	intensity
33	0
34	0
35	0
36	2
38	7
39	35
41	14
42	0
43	1
44	1
45	0
47	0
49	1
50	11
51	25
52	4
53	1
55	2
56	0
57	1
59	0
60	0
61	1
62	7
63	24
65	144
66	6
67	0
68	0
69	1
70	0
71	1
72	0
73	3
74	7
75	12
76	6
77	12
78	2
79	2
80	0
81	0
82	0
83	1
84	1
85	1
86	1
87	2
89	23
91	999
92	69
93	11
94	1
96	0
97	1
98	0
99	1
100	1
101	1
102	1
103	0
104	0
105	1
106	0
107	0
109	14
110	3
111	5
112	2
113	1
114	1
115	1
116	0
117	0
118	0
119	0
120	0
121	0
122	0
123	0
124	1
125	0
126	0
127	1
128	0
129	0
131	0
132	0
133	1
134	0
135	1
136	1
137	1
138	2
139	4
140	2
141	0
143	0
145	12
146	1
147	7
148	1
149	2
150	1
151	1
152	1
153	1
154	0
155	0
157	0
158	0
159	0
161	1
162	0
163	1
164	4
165	5
166	8
167	2
168	0
171	1
172	4
173	2
174	4
175	1
176	1
177	1
178	0
179	0
180	0
181	0
183	0
184	0
185	0
186	0
187	0
188	0
189	0
190	0
193	0
194	0
195	0
196	0
197	1
198	2
199	2
200	5
201	17
202	3
203	5
204	0
208	0
209	0
210	0
211	0
212	1
213	0
214	0
215	0
216	0
224	0
226	0
227	0
228	0
229	0
230	0
231	0
232	0
234	0
235	1
236	1
237	1
238	1
239	0
240	0
241	0
242	0
247	0
248	0
250	0
251	0
252	0
253	0
254	0
255	0
256	0
264	4
265	1
266	3
267	1
268	0
269	0
283	0
284	0
292	0
301	0
302	0
303	0
306	0
312	0
319	0
320	0
321	0
326	0
327	0
329	0
351	0
352	0
353	0
355	44
356	9
357	25
358	5
359	4
360	0
361	0
