Mass Spectrum: 3,3'-Dichloro-4,4'-dimethyl terephthalanilide
Formula: C22H18Cl2N2O2
CAS: 195194-69-5
Molecular weight: 412
m/z	intensity
76	349
77	282
78	45
103	49
104	999
105	75
132	83
140	62
141	46
166	77
180	57
181	62
272	471
273	51
274	168
412	391
413	74
414	266
415	56
416	40
