Mass Spectrum: Amiodarone
Formula: C25H29I2NO3
CAS: 1951-25-3
Molecular weight: 645
m/z	intensity
42	19
44	27
56	30
58	29
70	20
71	20
72	8
84	30
86	999
87	51
99	19
100	19
159	10
201	19
263	9
546	9
