Mass Spectrum: 2-Pentenoic acid, 4-oxo-, methyl ester, (Z)-
Formula: C6H8O3
CAS: 19522-27-1
Molecular weight: 128
m/z	intensity
43	999
53	60
54	90
55	110
59	240
69	90
85	90
97	280
113	810
114	50
128	50
