Mass Spectrum: Bromoacetic acid, 10-undecenyl ester
Formula: C13H23BrO2
CAS: 195373-65-0
Molecular weight: 290
m/z	intensity
27	174
28	39
29	241
30	11
31	19
37	6
38	21
39	388
40	76
41	999
42	430
43	280
44	29
45	9
46	2
50	16
51	39
52	13
53	133
54	496
55	949
56	164
57	69
59	7
60	4
61	3
63	12
64	5
65	21
66	44
67	501
68	486
69	505
70	79
71	10
73	6
77	23
79	20
80	26
81	316
82	449
83	155
84	19
85	9
86	4
88	4
91	10
92	5
93	186
94	21
95	235
96	219
97	86
98	20
99	2
100	6
101	5
107	5
108	5
109	93
110	108
111	15
112	10
113	4
114	6
115	2
120	11
121	261
122	23
123	302
124	61
126	3
127	13
137	8
139	23
140	9
141	18
150	19
151	8
152	29
153	6
168	2
210	4
211	6
