Mass Spectrum: 3,6-Dimethyl-N-phenyl-hexahydro-.gamma.-carboline-9-carbothioamide
Formula: C20H23N3S
CAS: 195327-11-8
Molecular weight: 337
m/z	intensity
33	9
34	2
35	1
36	3
37	17
39	115
40	30
42	444
43	585
44	73
45	16
46	3
47	3
51	228
52	22
53	17
55	33
58	999
60	34
61	7
63	44
64	21
65	45
66	9
67	19
70	257
71	216
72	14
73	16
74	17
75	20
77	335
78	26
79	8
80	7
82	32
83	9
84	6
86	4
87	4
88	6
89	14
90	27
91	33
92	11
93	16
94	11
95	5
96	8
97	7
98	2
99	3
101	31
102	16
103	29
104	9
105	6
106	4
108	15
109	27
110	4
111	4
112	2
113	4
115	72
116	15
117	17
118	7
119	3
120	4
121	3
122	2
123	3
124	2
126	3
128	48
130	152
131	79
132	43
133	27
135	178
136	53
137	9
138	5
139	3
140	6
141	12
142	26
143	62
144	63
145	22
146	5
147	2
148	1
149	3
150	9
151	2
152	3
153	5
154	9
155	7
156	27
157	38
158	95
159	18
160	4
161	5
162	5
163	1
164	1
166	2
168	17
169	11
170	9
171	9
172	6
173	5
174	5
175	3
176	2
177	1
178	1
179	1
180	1
181	2
182	3
183	4
184	3
185	14
186	9
187	8
188	2
189	1
190	2
191	2
193	27
194	6
195	5
196	4
197	5
199	42
201	254
202	98
203	13
204	1
205	1
206	2
207	1
208	1
209	2
211	15
212	11
213	2
214	1
216	1
217	1
218	1
219	1
220	2
221	6
222	3
223	1
229	1
230	1
231	1
232	1
233	3
235	9
236	1
239	1
241	1
243	2
245	20
246	4
247	1
249	1
250	1
251	1
252	1
253	2
254	2
258	1
259	2
261	6
262	1
263	1
264	1
265	1
267	3
273	1
276	1
277	1
278	1
279	2
288	1
289	2
290	1
293	1
294	2
300	1
302	2
304	36
305	7
306	1
333	1
335	2
337	40
338	8
339	2
