Mass Spectrum: L-Cysteine, N-acetyl-, methyl ester, acetate
Formula: C8H13NO4S
CAS: 19547-88-7
Molecular weight: 219
m/z	intensity
14	3
15	39
16	1
18	1
26	1
27	9
28	12
29	11
30	26
31	4
32	1
33	33
34	1
35	1
38	1
39	1
40	5
41	22
42	90
43	999
44	36
45	38
46	20
47	20
48	13
49	1
50	1
52	1
53	1
54	2
55	19
56	9
57	32
58	25
59	70
60	439
61	18
62	1
63	1
67	1
68	5
69	1
70	12
71	17
72	2
73	5
74	57
75	60
76	338
77	15
78	16
79	1
83	1
84	25
85	12
86	47
87	22
88	460
89	63
90	7
91	2
98	2
99	107
100	15
101	16
102	234
103	14
104	2
106	1
107	5
111	3
112	10
113	2
114	1
115	1
116	17
117	14
118	422
119	27
120	21
121	1
126	2
129	1
130	10
131	31
132	4
133	2
134	91
135	16
136	5
137	1
142	1
143	4
144	62
145	4
146	15
147	1
148	1
158	6
160	152
161	12
162	17
163	1
164	1
176	141
177	290
178	31
179	15
180	1
186	4
187	1
188	2
219	1
220	2
