Mass Spectrum: 4,5-Dimethyl-3-heptanol
Formula: C9H20O
CAS: 19549-76-9
Molecular weight: 144
m/z	intensity
27	89
28	14
29	138
30	13
31	99
39	92
40	30
41	345
42	36
43	276
44	17
45	60
51	13
53	35
55	250
56	96
57	305
58	275
59	999
60	32
67	28
68	17
69	159
70	48
71	94
72	8
73	35
83	34
84	190
85	100
86	18
97	253
98	21
115	117
116	10
126	27
