Mass Spectrum: B-Homo-A-norcholestan-6-one, (5.alpha.)-
Formula: C27H46O
CAS: 19548-94-8
Molecular weight: 386
m/z	intensity
37	10
38	20
39	160
40	110
41	800
42	130
43	999
44	110
45	40
50	10
51	30
52	20
53	160
54	70
55	940
56	140
57	460
58	50
59	40
60	30
61	10
63	10
64	10
65	60
66	50
67	540
68	230
69	390
70	80
71	200
72	20
73	50
74	40
75	10
76	10
77	150
78	60
79	380
80	120
81	620
82	430
83	300
84	50
85	60
86	20
87	10
89	10
91	240
92	80
93	400
94	160
95	510
96	130
97	160
98	30
99	40
100	30
101	10
102	10
103	20
104	20
105	210
106	100
107	330
108	270
109	470
110	110
111	100
112	30
113	20
114	20
115	40
116	20
117	70
118	70
119	150
120	100
121	280
122	190
123	180
124	150
125	60
126	20
127	20
128	20
129	30
130	30
131	80
132	60
133	180
134	80
135	200
136	140
137	140
138	50
139	60
140	20
141	20
142	30
143	40
144	30
145	90
146	60
147	200
148	80
149	310
150	390
151	220
152	70
153	30
154	30
155	20
156	20
157	30
158	20
159	60
160	40
161	90
162	50
163	140
164	180
165	110
166	30
167	60
168	40
169	20
170	20
171	30
172	20
173	60
174	30
175	80
176	50
177	60
178	40
179	20
180	50
181	20
182	10
183	10
184	10
185	30
186	30
187	40
188	10
189	50
190	20
191	50
192	10
193	10
194	10
195	10
198	10
199	30
200	20
201	40
202	20
203	50
204	30
205	50
206	20
207	20
208	20
209	10
210	10
211	10
212	10
213	50
214	30
215	80
216	30
217	60
218	40
219	40
220	10
221	10
222	10
223	10
225	10
227	20
228	60
229	40
230	20
231	100
232	140
233	80
234	20
235	10
236	10
237	10
238	10
239	10
241	10
242	10
243	10
244	10
245	10
246	110
247	70
248	20
249	10
250	10
251	10
252	10
253	10
254	10
255	50
256	30
257	20
258	10
259	20
260	30
261	30
262	50
263	20
264	10
270	10
271	20
272	20
273	60
274	20
275	30
276	20
277	10
278	10
279	20
280	10
281	10
283	10
285	10
286	20
287	120
288	40
289	20
290	40
291	20
301	20
302	10
303	20
304	350
305	130
306	30
307	30
308	20
309	10
310	10
316	20
317	10
327	10
329	10
330	10
331	20
332	30
333	10
335	10
336	10
337	60
338	100
339	30
340	20
343	10
345	40
346	10
353	50
354	20
357	10
358	30
359	10
368	110
369	40
370	10
371	60
372	20
386	380
387	120
388	20
