Mass Spectrum: l-Cysteine, N-acetyl-S-(phenylmethyl)-
Formula: C12H15NO3S
CAS: 19542-77-9
Molecular weight: 253
m/z	intensity
14	3
15	25
17	3
18	11
26	4
27	9
28	15
29	1
30	9
32	1
33	1
34	3
36	1
37	1
38	5
39	30
40	8
41	32
42	41
43	249
44	47
45	48
46	4
47	4
48	1
50	6
51	18
52	5
53	1
54	1
55	3
56	3
57	1
58	3
59	6
60	65
61	3
62	5
63	17
64	4
65	81
66	4
67	1
68	2
69	2
70	3
71	2
72	2
73	1
74	41
75	5
76	7
77	13
78	6
79	5
83	3
84	9
85	14
86	59
87	40
88	8
89	18
90	9
91	999
92	85
93	4
99	1
100	2
101	2
102	23
103	9
104	2
105	1
106	2
107	1
111	13
112	2
113	2
115	3
116	5
117	2
118	2
119	1
120	30
121	16
122	19
123	16
124	59
125	5
126	3
128	1
129	11
130	13
131	11
132	2
133	5
134	3
135	3
137	33
138	4
139	1
144	9
147	2
148	9
149	6
150	2
160	1
161	38
162	88
163	6
164	6
165	1
166	7
176	28
177	3
178	2
193	2
194	178
195	20
196	9
197	1
207	1
210	2
235	7
236	1
253	31
254	4
255	2
