Mass Spectrum: 3,5-Dimethyl-4-heptanone
Formula: C9H18O
CAS: 19549-84-9
Molecular weight: 142
m/z	intensity
26	14
27	142
28	26
29	365
30	7
31	4
36	0
37	1
38	3
39	69
40	27
41	259
42	16
43	103
44	4
45	10
46	0
47	0
49	0
50	1
51	3
52	1
53	10
54	3
55	33
56	38
57	999
58	40
59	2
60	4
61	0
62	0
63	0
65	1
66	0
67	5
68	1
69	12
70	2
71	11
72	14
73	8
74	10
75	0
76	0
77	1
78	0
79	1
81	1
82	1
83	5
84	15
85	171
86	15
87	4
88	0
103	0
105	1
106	0
107	0
108	0
109	0
110	0
111	0
112	0
113	0
114	10
115	0
117	0
118	0
119	0
120	0
121	0
123	0
124	0
125	0
126	0
127	1
128	1
129	0
137	0
139	0
141	0
142	32
143	2
144	0
145	0
