Mass Spectrum: 3,5-Dimethyl-1,6-heptadien-4-ol
Formula: C9H16O
CAS: 19549-66-7
Molecular weight: 140
m/z	intensity
14	5
16	2
26	26
27	239
28	116
29	327
31	47
32	21
39	210
40	52
41	419
43	999
44	37
45	20
50	23
51	36
52	15
53	75
55	331
56	607
57	180
58	14
65	23
67	65
69	28
77	15
79	23
83	34
84	58
85	167
86	11
91	18
107	12
