Mass Spectrum: 1,2-Dimethylcyclopentanol
Formula: C7H14O
CAS: 19550-45-9
Molecular weight: 114
m/z	intensity
15	41
27	121
28	170
29	84
32	41
39	153
40	30
41	159
43	618
45	39
53	69
55	128
57	185
58	379
59	100
67	42
69	24
71	999
72	220
79	42
81	190
85	232
96	37
97	30
99	85
114	44
