Mass Spectrum: 5'-Brom-uridine
Formula: C9H11BrN2O5
CAS: 19556-55-9
Molecular weight: 306
m/z	intensity
15	270
26	156
27	260
28	217
29	322
31	333
39	229
40	177
41	968
42	312
43	395
44	166
45	229
55	229
57	895
60	135
68	166
69	843
70	437
73	677
87	677
96	156
98	375
112	260
113	999
124	72
125	31
135	125
137	125
141	979
151	62
154	10
155	114
171	416
195	427
197	427
209	114
227	83
271	52
273	52
288	114
290	114
306	31
308	31
