Mass Spectrum: 2-Hexenedioic acid, 2,5-dimethyl-, dimethyl ester
Formula: C10H16O4
CAS: 19550-59-5
Molecular weight: 200
m/z	intensity
24	23
25	1
27	312
28	115
29	161
30	18
31	53
33	11
35	0
36	0
37	4
38	13
39	328
40	72
41	615
42	83
43	155
44	18
45	127
46	3
47	4
48	0
49	1
50	12
51	45
52	36
53	402
54	129
55	399
56	139
57	140
58	15
59	635
60	25
61	7
62	1
63	9
64	3
65	50
66	34
67	162
68	20
69	99
70	10
71	59
72	31
73	44
74	5
75	20
76	2
77	63
78	15
79	162
80	108
81	999
82	116
83	42
84	18
85	572
86	28
87	27
88	139
89	6
90	2
91	5
92	1
93	28
94	5
95	41
96	9
97	45
98	12
99	33
100	5
101	12
102	2
103	1
104	1
105	1
106	2
107	18
108	656
109	761
110	66
111	43
112	29
113	99
114	11
115	5
116	1
117	1
118	3
119	1
120	0
121	3
122	2
123	6
124	3
125	968
126	104
127	10
128	1
129	3
130	1
131	1
132	0
133	1
134	1
135	1
136	226
137	39
138	5
139	45
140	410
141	410
142	32
143	4
150	1
151	0
153	4
166	0
168	597
169	202
170	21
171	1
185	1
200	3
