Mass Spectrum: Benzamidine, 4-chloro-
Formula: C7H7ClN2
CAS: 19563-04-3
Molecular weight: 154
m/z	intensity
41	25
42	79
43	999
44	298
45	19
46	6
47	8
48	5
49	52
50	421
51	321
52	122
53	13
54	6
55	5
56	0
57	0
59	39
60	29
61	54
62	48
63	70
64	26
65	29
66	5
67	2
68	1
69	20
70	6
71	3
72	15
73	71
74	164
75	413
76	154
77	120
78	12
84	16
85	45
86	17
87	22
88	6
89	6
90	23
91	12
92	11
93	1
96	0
97	4
98	2
99	33
100	19
101	14
102	181
103	41
104	4
108	3
109	4
110	14
111	252
112	52
113	97
114	18
117	3
118	9
119	8
125	2
126	14
127	33
128	6
129	9
136	2
137	145
138	827
139	133
140	298
141	33
152	1
153	33
154	728
155	187
156	247
157	64
158	7
