Mass Spectrum: 1-Propanone, 1-[2-(1,1-dimethylethyl)-2-cyclopropen-1-yl]-2,2-dimethyl-
Formula: C12H20O
CAS: 19576-21-7
Molecular weight: 180
m/z	intensity
39	109
40	109
41	290
43	163
44	14
53	54
55	272
57	200
67	309
93	54
95	999
123	54
165	309
180	54
