Mass Spectrum: 1,3,5-Benzenetrimethanol, .alpha.,.alpha.,.alpha.',.alpha.',.alpha.'',.alpha.''-hexamethyl-
Formula: C15H24O3
CAS: 19576-38-6
Molecular weight: 252
m/z	intensity
26	2
27	15
28	9
29	26
31	92
38	1
39	26
40	8
41	75
42	4
43	999
44	25
45	5
50	5
51	18
52	4
53	7
55	6
57	15
58	10
59	808
60	26
61	2
62	2
63	10
64	4
65	17
66	2
67	6
69	6
71	1
74	6
75	7
76	7
77	30
78	7
79	12
80	1
81	3
82	3
83	1
85	1
86	3
87	7
88	16
89	6
90	1
91	62
92	7
93	7
94	3
95	4
96	4
101	5
102	67
103	17
104	3
105	22
106	2
107	3
111	19
115	25
116	8
117	29
118	5
119	82
120	8
121	57
122	5
127	3
128	11
129	10
130	2
131	28
132	3
133	44
134	5
135	5
141	5
142	6
143	8
144	3
145	7
146	1
147	7
149	6
152	1
153	1
155	2
156	1
157	5
158	4
159	42
160	7
161	255
162	36
163	9
164	1
165	1
168	1
169	1
171	1
173	22
174	8
175	24
176	9
177	192
178	27
179	139
180	17
181	2
183	1
185	3
187	3
189	1
191	17
192	2
193	1
198	7
199	2
200	1
201	45
202	10
203	16
204	3
205	1
207	1
215	2
216	4
217	2
218	1
219	237
220	41
221	19
222	2
233	3
234	2
235	19
236	2
237	629
238	93
239	10
251	6
252	57
253	9
254	1
