Mass Spectrum: Benzene, 1,3,5-trimethyl-2-(phenylmethoxy)-
Formula: C16H18O
CAS: 19578-76-8
Molecular weight: 226
m/z	intensity
27	9
28	25
29	8
30	0
31	1
32	1
39	8
40	1
41	15
42	5
43	2
44	3
45	0
50	0
51	3
52	3
53	3
54	1
55	13
56	2
57	1
58	1
59	1
63	2
64	0
65	54
66	4
67	4
68	1
69	1
70	1
71	0
73	0
76	0
77	9
78	2
79	22
80	2
81	1
82	1
83	0
84	1
85	1
87	0
89	4
90	3
91	999
92	74
93	4
94	1
95	0
96	10
97	1
98	23
99	1
103	2
104	1
105	11
106	8
107	12
108	1
109	0
110	0
111	0
115	1
116	0
117	2
118	1
119	2
120	0
121	7
122	0
126	1
128	0
133	0
134	25
135	47
136	10
137	0
165	0
166	0
167	0
169	1
170	0
171	1
179	0
181	0
182	0
183	0
195	0
209	0
210	0
211	0
212	0
225	0
226	84
227	13
228	1
