Mass Spectrum: A-Norcholestan-3-one, 5-ethenyl-, (5.beta.)-
Formula: C28H46O
CAS: 19594-90-2
Molecular weight: 398
m/z	intensity
41	670
43	999
55	900
57	610
67	450
69	470
79	520
81	620
83	250
91	380
93	530
95	580
105	350
107	460
109	280
119	290
121	330
123	870
133	290
135	280
136	300
147	250
149	220
162	320
285	130
341	180
370	70
380	30
383	80
398	390
