Mass Spectrum: 2-(Bis-benzylsulfanyl-methylene)-malonic acid dimethyl ester
Formula: C20H20O4S2
CAS: 19607-30-8
Molecular weight: 388
m/z	intensity
34	1
37	1
39	61
40	5
41	17
42	1
43	1
45	71
46	2
47	5
48	1
50	7
51	27
52	7
53	3
54	1
55	1
56	2
57	3
59	64
60	2
61	2
62	6
63	27
65	167
66	9
67	1
68	1
69	4
70	1
71	7
72	2
73	1
75	18
76	3
77	22
78	9
79	6
80	1
81	1
82	1
83	1
84	7
85	9
86	2
87	2
88	4
89	23
91	999
92	94
93	4
94	1
95	1
96	1
97	1
99	14
100	1
101	1
102	2
103	2
104	1
105	1
107	3
108	1
109	1
110	1
113	1
115	15
116	2
117	1
118	2
119	1
121	34
122	29
123	54
124	6
125	3
126	1
127	1
128	1
129	1
130	1
131	5
132	1
133	1
134	5
135	1
136	1
137	1
139	1
143	103
144	7
145	7
146	4
147	3
148	1
149	1
150	1
151	1
152	1
153	1
154	1
157	1
158	1
159	1
160	1
161	1
162	1
163	1
164	1
165	1
166	1
167	5
168	1
169	1
173	2
175	119
176	9
177	8
178	3
179	2
180	13
181	11
182	2
183	1
189	10
190	1
191	1
192	1
193	2
194	1
195	1
197	1
201	2
202	2
203	1
205	4
206	2
207	1
208	1
209	1
210	1
211	1
213	4
214	4
215	2
216	1
217	1
218	1
219	1
220	1
221	2
222	1
223	1
231	1
232	1
233	5
234	5
235	1
237	8
238	1
239	1
240	1
245	1
246	1
247	1
248	1
249	1
250	1
251	1
253	1
256	1
257	1
260	1
263	1
265	84
266	19
267	9
268	1
269	1
281	1
291	1
292	1
293	1
295	1
297	134
298	22
299	15
300	2
301	1
306	1
324	20
325	5
326	2
327	1
328	1
357	10
358	2
359	1
360	1
388	1
389	1
390	1
