Mass Spectrum: N,N'-(4-Chloro-O-phenylene)dibenzamide
Formula: C20H15ClN2O2
CAS: 19614-04-1
Molecular weight: 350
m/z	intensity
27	2
28	1
36	1
38	1
39	3
41	1
43	1
44	1
50	9
51	49
52	6
55	1
57	2
62	3
63	6
64	2
69	1
71	1
73	2
74	3
75	4
76	12
77	369
78	31
79	1
88	2
89	2
90	3
96	1
97	1
98	1
99	1
100	1
103	4
104	5
105	999
106	78
107	4
113	1
114	3
115	1
122	5
124	7
125	1
126	3
127	1
139	1
140	1
149	1
164	1
166	2
168	1
181	1
182	1
192	4
193	2
194	4
210	1
216	2
227	6
228	234
229	73
230	83
231	23
232	2
245	2
246	1
247	1
332	49
333	10
334	16
335	3
350	200
351	46
352	70
353	14
354	2
