Mass Spectrum: 6b,7,12,12a-Tetrahydrobenzo[k]fluoranthene
Formula: C20H16
CAS: 19638-45-0
Molecular weight: 256
m/z	intensity
76	50
77	60
78	210
101	70
103	210
104	999
105	80
113	70
114	60
119	70
125	50
126	120
127	50
128	70
150	50
151	90
152	330
164	50
165	240
239	100
241	130
252	110
253	60
254	40
255	270
256	800
257	190
258	20
