Mass Spectrum: 1-Cyclopropanecarbonitrile, 1-amino
Formula: C4H6N2
CAS: 196311-65-6
Molecular weight: 82
m/z	intensity
25	14
26	91
27	192
28	308
29	89
30	63
31	3
36	7
37	39
38	58
39	78
40	61
41	114
42	963
43	35
44	4
49	1
50	7
51	34
52	75
53	477
54	668
55	479
56	49
57	4
58	0
60	2
62	4
63	13
64	39
65	21
66	23
67	15
68	2
69	1
70	0
71	0
76	1
77	5
78	2
79	2
80	4
81	999
82	160
83	9
