Mass Spectrum: Cobalt(II) hexafluoroacetylacetonate
Formula: C10H2CoF12O4
CAS: 19648-83-0
Molecular weight: 473
m/z	intensity
16	2
28	74
31	9
44	2
47	11
50	8
51	4
56	3
57	2
59	60
60	2
63	15
66	1
67	1
68	2
69	999
70	31
71	24
72	16
74	2
75	39
76	2
78	17
79	3
82	1
83	1
84	2
85	3
87	5
90	2
91	52
92	2
93	3
94	2
95	2
97	2
99	2
100	22
101	1
102	3
103	2
109	15
111	2
119	111
120	7
121	4
122	2
125	1
127	3
128	4
129	3
135	5
137	5
138	2
139	42
140	2
141	1
146	9
148	1
149	4
150	1
152	2
162	2
166	8
167	49
168	6
169	12
175	2
176	1
177	3
182	1
192	4
196	15
197	6
202	4
208	5
210	3
211	1
212	3
213	9
216	667
217	32
218	4
232	2
236	1
266	279
267	15
268	3
334	9
350	3
354	8
403	1
404	207
405	19
406	3
419	1
454	4
473	63
474	8
