Mass Spectrum: Aniline, N-(2-methoxy-5-nitrobenzylidene)-
Formula: C14H12N2O3
CAS: 19652-31-4
Molecular weight: 256
m/z	intensity
50	28
51	94
52	31
62	24
63	53
64	53
65	19
66	48
67	7
74	16
75	33
76	41
77	361
78	45
79	19
89	28
90	62
91	7
92	14
93	999
94	103
95	12
104	103
105	28
106	19
117	41
118	462
119	43
132	9
133	21
134	21
135	16
136	9
139	50
140	28
141	9
147	72
148	19
163	16
164	212
165	28
166	33
167	19
179	41
180	45
181	16
182	9
194	43
195	55
196	16
209	24
210	120
211	31
225	33
226	21
241	48
242	19
255	31
256	301
257	74
