Mass Spectrum: Diaziridinone, bis(1,1-dimethylpropyl)-
Formula: C11H22N2O
CAS: 19656-75-8
Molecular weight: 198
m/z	intensity
27	140
28	250
29	220
30	30
39	70
40	20
41	200
42	280
43	930
44	50
53	30
54	30
55	130
56	200
57	100
58	150
70	40
71	999
72	90
83	40
84	250
85	300
86	80
98	30
99	470
100	30
112	30
113	70
128	100
129	20
153	20
169	30
182	10
183	20
198	20
