Mass Spectrum: Propanoic acid, 2-([2-([benzyloxy)carbonyl]amino)-3-(benzylthio)propanoyl]amino)-, benzyl ester
Formula: C28H30N2O5S
CAS: 196502-17-7
Molecular weight: 506
m/z	intensity
27	8
28	4
29	3
30	2
31	2
38	3
39	21
40	3
41	10
42	11
43	14
44	33
45	14
50	9
51	23
52	7
53	5
54	2
55	8
56	3
57	3
59	3
61	2
62	4
63	11
64	4
65	51
66	3
68	5
69	3
70	25
71	3
73	2
74	7
75	3
76	3
77	41
78	10
79	67
80	6
83	1
86	3
88	4
89	13
90	14
91	999
92	81
93	3
96	6
97	2
98	2
99	1
102	5
105	4
106	2
107	47
108	59
109	5
111	1
112	1
113	1
117	2
118	1
121	5
122	4
123	15
124	13
125	2
126	9
132	6
134	4
135	3
137	35
138	4
139	25
140	9
141	1
145	1
147	1
149	10
150	1
164	11
165	2
166	8
167	2
168	7
172	2
173	3
175	2
176	7
177	19
178	10
179	3
180	7
181	7
182	1
185	3
189	1
192	2
201	1
206	1
210	2
215	4
220	6
221	1
235	1
236	1
237	1
238	1
242	0
249	2
254	1
256	11
257	2
261	4
262	1
263	2
264	65
265	10
266	5
274	2
275	2
276	1
291	1
300	1
307	214
308	33
309	13
310	2
328	1
329	1
355	13
356	3
357	1
371	24
372	5
373	2
383	1
384	2
398	1
415	10
416	2
417	0
506	1
