Mass Spectrum: 1,2,4-Oxadiazolidin-5-one, 2-tert-butyl-3-(tert-butylimino)-4-phenyl-
Formula: C16H23N3O2
CAS: 19656-63-4
Molecular weight: 289
m/z	intensity
57	999
77	260
83	260
91	200
93	220
105	100
118	70
119	80
133	800
174	80
177	410
189	60
233	140
245	70
