Mass Spectrum: 1-Bromo-9-thiabicyclo[3.3.1]nonane 9,9-dioxide
Formula: C8H13BrO2S
CAS: 19669-16-0
Molecular weight: 252
m/z	intensity
26	9
27	135
28	19
29	71
30	1
31	0
33	0
34	0
35	0
36	0
37	2
38	11
39	265
40	51
41	321
42	21
43	56
44	5
45	11
46	3
47	2
48	6
49	1
50	16
51	53
52	42
53	192
54	61
55	199
56	13
57	3
58	4
59	3
60	1
61	2
62	3
63	13
64	4
65	68
66	39
67	813
68	78
69	18
70	1
71	3
72	0
73	1
74	1
75	3
76	2
77	74
78	22
79	280
80	110
81	247
82	21
83	1
84	0
85	1
86	0
87	0
88	0
89	2
90	1
91	54
92	9
93	42
94	9
95	6
96	0
97	2
98	0
99	0
100	0
101	0
102	0
103	3
104	1
105	14
106	4
107	309
108	60
109	999
110	112
111	4
112	0
113	0
114	0
115	0
116	0
117	0
118	0
119	8
120	3
121	8
122	2
123	1
124	0
125	6
126	0
127	0
128	0
129	0
130	0
131	0
132	9
133	4
134	9
135	4
136	0
137	0
139	0
141	0
142	0
143	0
144	0
145	4
146	4
147	5
148	4
149	3
150	0
155	8
156	1
157	2
158	0
159	1
160	13
161	2
162	12
163	1
167	0
173	8
174	2
175	0
176	0
185	0
186	0
187	87
188	8
189	81
190	8
191	0
234	0
235	3
236	0
237	4
238	0
252	14
253	5
254	14
255	5
256	1
