Mass Spectrum: N-[4-Chloro-3-nitrophenyl]-4-chlorobenzylamine
Formula: C13H10Cl2N2O2
CAS: 196712-11-5
Molecular weight: 296
m/z	intensity
46	10
49	4
50	10
51	12
52	4
55	1
61	1
62	15
63	47
64	10
65	7
72	2
73	12
74	13
75	34
76	11
77	12
78	6
84	8
85	2
86	3
87	1
88	4
89	103
90	52
91	7
97	2
98	4
99	34
100	2
101	12
102	4
104	7
106	2
110	9
111	8
112	7
113	2
124	16
125	999
126	77
127	326
128	23
137	1
138	6
139	10
140	2
141	1
149	1
150	2
151	5
152	9
153	1
171	7
177	2
178	5
179	1
180	3
185	4
187	2
213	1
214	9
215	5
249	10
250	7
251	5
252	4
261	4
295	6
296	235
297	38
298	152
299	20
300	25
301	1
