Mass Spectrum: Benzene, 1-chloro-2-nitro-4-(2,4-dichlorobenzylidenamino)-
Formula: C13H7Cl3N2O2
CAS: 196712-83-1
Molecular weight: 328
m/z	intensity
33	21
35	95
36	109
37	140
38	300
39	127
41	40
42	10
43	11
44	8
46	999
49	139
50	571
51	155
52	86
53	12
54	9
55	1
57	1
59	0
60	44
61	219
62	656
63	870
64	108
65	15
66	5
67	2
68	2
69	4
71	14
72	203
73	462
74	713
75	928
76	103
77	15
78	2
79	4
83	12
84	97
85	154
86	178
87	235
88	185
89	31
90	7
91	12
93	2
95	4
96	25
97	190
98	75
99	136
100	102
101	16
102	15
103	3
105	9
107	22
108	26
109	100
110	142
111	96
112	66
114	51
118	2
120	8
121	15
123	378
124	140
125	119
126	38
127	9
128	3
132	4
133	8
134	2
135	15
136	35
137	30
138	13
139	9
140	6
145	13
146	7
147	16
148	22
149	22
150	29
151	9
156	1
157	19
158	11
159	19
160	10
161	9
162	3
164	6
165	1
170	7
171	35
172	11
173	29
174	15
175	20
176	25
177	55
178	9
182	1
183	9
184	28
185	18
186	14
187	8
196	7
200	7
202	2
208	2
209	0
210	11
211	44
212	31
213	14
214	13
219	2
220	22
221	5
222	19
223	5
228	2
235	6
236	2
237	2
246	2
247	27
248	11
249	13
251	3
256	0
258	1
281	5
282	14
283	7
284	13
285	4
297	0
324	1
325	2
327	8
328	41
329	15
330	42
331	5
332	14
334	0
