Mass Spectrum: 2,4(1H,3H)-Pyrimidinedione, 3,6-dimethyl-
Formula: C6H8N2O2
CAS: 19674-60-3
Molecular weight: 140
m/z	intensity
15	80
27	110
29	40
30	40
39	100
40	80
41	80
42	999
43	60
54	80
55	60
56	70
68	300
69	50
70	30
83	350
84	80
110	50
111	50
112	40
140	640
141	80
