Mass Spectrum: A-Norcholestan-3-one, 5-ethyl-, (5.beta.)-
Formula: C28H48O
CAS: 19682-33-8
Molecular weight: 400
m/z	intensity
41	160
43	200
55	220
57	220
67	120
69	190
71	120
81	170
83	130
95	170
97	120
109	120
121	110
124	150
125	999
126	100
245	150
400	80
