Mass Spectrum: Diisopropylaminoacetonitrile
Formula: C8H16N2
CAS: 19699-38-8
Molecular weight: 140
m/z	intensity
12	0
14	12
15	79
16	1
18	2
27	193
28	71
29	23
30	49
37	4
39	113
40	86
41	247
42	182
43	198
44	12
45	0
50	1
51	2
52	9
53	13
54	63
55	0
56	999
57	43
58	7
63	0
64	0
66	6
67	30
68	13
69	0
70	79
71	11
72	8
73	0
79	1
81	27
83	483
84	49
85	2
86	0
95	1
97	6
98	4
99	0
100	0
108	0
109	1
110	0
114	10
115	1
125	214
126	19
127	0
140	70
141	6
