Mass Spectrum: Diaziridinone, bis(1,1-dimethyl-2-phenylethyl)-
Formula: C21H26N2O
CAS: 19694-14-5
Molecular weight: 322
m/z	intensity
27	30
28	70
29	50
39	70
40	20
41	120
42	100
43	70
51	30
53	20
55	160
56	170
57	80
58	300
63	30
65	150
69	50
70	20
71	40
77	60
78	20
79	30
81	20
83	100
84	450
85	30
89	50
90	60
91	999
92	220
99	550
100	40
103	30
104	50
105	150
106	30
116	30
117	100
118	20
119	20
129	20
130	50
131	80
132	200
133	870
134	120
146	460
147	600
148	140
159	20
160	20
174	120
175	40
188	20
190	20
191	40
215	40
231	200
232	30
233	20
307	10
322	20
