Mass Spectrum: Dimethylcarbamothioic acid, O-butyl ester
Formula: C7H15NOS
CAS: 19708-86-2
Molecular weight: 161
m/z	intensity
27	630
28	42
29	130
39	40
41	110
42	74
43	77
44	160
56	40
57	34
58	32
72	999
73	52
74	50
88	130
105	49
106	350
161	270
162	25
163	13
