Mass Spectrum: Benzenesulfonamide, N-(2-chlorocyclopentyl)-4-methyl-
Formula: C12H16ClNO2S
CAS: 197145-74-7
Molecular weight: 273
m/z	intensity
33	0
34	1
35	2
36	11
39	133
40	26
41	77
42	14
43	13
44	6
45	4
46	1
48	6
49	8
50	19
51	41
52	16
53	33
54	40
55	88
56	52
57	8
58	1
59	0
60	0
61	5
62	25
63	69
65	317
67	81
68	13
69	7
70	3
71	2
72	0
73	2
75	36
76	8
77	40
78	14
79	15
80	34
82	124
83	12
84	4
85	2
86	3
87	5
89	99
91	999
92	136
93	12
95	4
96	1
97	1
98	11
99	3
100	1
101	4
102	8
103	5
104	5
105	19
106	27
107	45
108	27
109	4
110	1
111	4
112	1
113	0
114	2
115	3
116	6
118	244
119	22
120	86
121	8
122	3
123	3
124	6
125	18
126	2
127	6
128	2
129	1
130	8
131	5
132	15
133	39
134	5
135	1
136	1
137	1
138	2
139	41
140	14
141	5
142	2
143	2
144	4
146	53
147	15
148	1
149	0
150	1
151	0
152	2
153	1
155	488
156	43
157	34
158	6
159	2
160	3
161	1
162	0
163	0
164	1
165	0
166	2
167	1
168	0
169	0
171	62
172	44
173	13
174	8
175	1
177	0
178	0
179	0
180	1
181	3
182	12
183	3
184	13
185	1
186	0
189	8
191	5
192	0
193	1
194	2
195	0
196	1
197	6
198	2
199	0
200	1
202	0
204	1
205	1
206	1
207	1
208	5
210	631
211	76
212	34
213	3
214	0
216	0
218	0
220	0
221	0
222	0
223	0
224	4
225	0
226	0
231	1
232	0
233	0
234	0
235	0
236	7
237	3
238	17
239	3
240	1
244	29
245	4
246	10
247	1
248	0
251	0
252	1
254	0
260	0
270	6
271	1
272	16
273	202
274	33
275	72
276	10
277	3
278	1
279	0
280	0
