Mass Spectrum: 1,3-Dioxolane-2,2-dipropanoic acid, diethyl ester
Formula: C13H22O6
CAS: 19719-88-1
Molecular weight: 274
m/z	intensity
26	14
27	123
28	112
29	271
30	8
31	33
39	12
41	23
42	48
43	46
44	15
45	60
53	11
54	5
55	258
56	109
57	37
59	10
60	3
65	6
67	18
68	3
69	9
70	43
71	9
73	154
74	30
75	5
77	6
81	4
82	4
83	54
84	12
85	6
93	6
95	8
96	4
97	14
98	12
99	280
100	29
101	999
102	51
103	8
109	4
110	13
111	439
112	59
113	11
121	8
125	4
127	6
128	5
129	545
130	39
131	5
135	4
138	12
139	41
140	3
141	6
145	13
152	2
155	46
156	12
157	189
158	17
167	3
173	350
174	32
175	4
177	3
183	36
184	9
185	97
186	11
197	0
198	8
199	0
200	1
201	19
202	2
212	1
229	48
230	6
