Mass Spectrum: (E)-3-(Dimethylamino)-1-(2-hydroxy-5-methylphenyl)-1-propanone, o-acetyloxime
Formula: C14H20N2O3
CAS: 197174-94-0
Molecular weight: 264
m/z	intensity
27	24
29	37
30	109
31	5
39	16
41	14
42	212
43	197
44	121
45	87
46	6
51	14
52	14
53	9
54	19
55	15
56	93
57	86
58	999
59	281
60	53
63	6
65	11
68	4
70	40
71	80
72	100
73	10
74	2
77	48
78	28
79	16
89	14
90	5
91	18
97	9
100	8
103	7
104	18
105	18
106	7
107	8
115	9
116	16
117	11
118	10
121	10
122	4
130	8
131	8
132	21
133	34
134	36
135	4
145	15
146	14
147	9
148	5
158	9
159	24
160	141
161	36
162	14
173	2
174	2
176	3
187	7
188	4
189	24
203	10
204	30
205	25
222	6
264	154
265	23
