Mass Spectrum: 4-Norcaren-2-one, 1,3,5-tri-tert-butyl-3-[(1,3,5-tri-tert-butyl-4-oxo-2,5-cyclohexadien-1-yl)methyl]-
Formula: C38H62O2
CAS: 19719-70-1
Molecular weight: 550
m/z	intensity
41	999
42	120
43	130
50	60
51	80
53	80
55	220
56	160
57	920
65	50
67	50
69	60
77	90
83	140
91	110
105	60
115	45
119	60
121	40
129	40
133	40
147	40
161	120
163	70
175	60
189	50
203	130
205	70
219	510
220	245
231	40
276	90
494	10
