Mass Spectrum: L-Threonine, N-[(phenylmethoxy)carbonyl]-
Formula: C12H15NO5
CAS: 19728-63-3
Molecular weight: 253
m/z	intensity
41	15
42	3
43	19
44	9
45	81
46	7
47	1
49	9
50	5
51	24
52	7
53	2
54	2
55	3
56	20
57	8
62	3
63	14
64	5
65	64
66	3
68	2
69	2
71	2
72	4
73	1
74	50
75	4
76	1
77	27
78	2
79	33
80	2
82	1
83	4
84	7
85	2
86	7
87	2
89	26
90	21
91	999
92	73
93	4
100	10
101	1
104	1
105	6
106	1
107	40
108	58
109	3
118	11
120	2
132	2
135	1
141	2
146	4
148	125
149	9
163	2
164	6
165	2
181	2
191	9
208	2
209	52
210	7
235	1
253	5
254	1
