Mass Spectrum: Benzenepropanoic acid, .alpha.,.beta.-dimethyl-
Formula: C11H14O2
CAS: 19731-91-0
Molecular weight: 178
m/z	intensity
13	1
14	15
15	20
16	5
17	4
18	13
19	2
25	1
26	16
27	120
28	133
29	48
30	16
31	7
32	24
37	3
38	14
39	133
40	15
41	73
42	14
43	32
44	3
45	66
46	4
47	3
49	1
50	32
51	92
52	25
53	20
54	3
55	26
56	28
57	24
58	5
59	5
60	1
61	3
62	13
63	45
64	16
65	160
66	12
67	2
68	1
69	10
70	3
71	10
72	7
73	50
74	999
75	41
76	13
77	82
78	49
79	40
80	3
81	1
83	2
84	2
85	6
86	2
87	18
88	3
89	29
90	16
91	144
92	65
93	3
94	0
95	0
97	0
98	1
99	1
100	0
101	2
102	12
103	40
104	152
105	534
106	48
107	5
108	0
109	0
110	0
111	1
112	0
113	1
114	1
115	22
116	9
117	18
118	6
119	1
120	0
121	0
126	0
127	4
128	6
129	3
130	1
131	6
132	7
133	2
134	0
136	0
137	0
138	0
141	0
144	1
145	1
147	1
156	0
159	0
160	13
161	3
162	0
164	0
178	80
179	10
180	1
