Mass Spectrum: Pyridine, 3-(1-methyl-2-piperidinyl)-
Formula: C11H16N2
CAS: 19730-04-2
Molecular weight: 176
m/z	intensity
42	110
70	60
78	50
92	60
98	999
99	90
104	50
105	80
106	50
118	50
119	220
120	90
133	90
147	90
161	30
175	120
176	190
177	30
