Mass Spectrum: (N-(Benzyloxycarbonyl)-d-valyl)-l-threonine hydrazide
Formula: C17H26N4O5
CAS: 19739-62-9
Molecular weight: 366
m/z	intensity
15	2
17	2
26	1
27	6
28	19
29	12
30	10
31	8
32	12
33	4
38	1
39	10
40	1
41	12
42	5
43	14
44	12
45	9
50	3
51	8
52	3
53	2
54	3
55	25
56	25
57	15
58	4
59	10
60	1
62	1
63	5
64	1
65	34
66	2
68	1
69	10
70	8
71	5
72	93
73	9
74	115
75	5
76	1
77	17
78	4
79	25
80	2
81	1
82	2
83	6
84	9
85	8
86	2
87	3
88	73
89	18
90	12
91	999
92	90
93	4
96	1
97	1
98	17
99	6
100	11
101	2
104	1
105	4
106	12
107	29
108	28
109	2
110	1
111	2
112	2
113	2
114	2
115	7
116	23
117	4
118	2
119	1
120	14
121	2
122	80
123	9
124	1
126	1
127	6
128	3
129	2
130	1
131	1
132	1
133	31
134	4
135	1
139	1
140	3
141	1
142	3
143	2
144	3
145	1
146	2
147	2
153	2
154	1
155	6
156	2
157	1
160	1
161	1
162	136
163	16
164	62
165	6
166	1
170	2
171	1
172	3
173	4
174	1
178	8
179	3
181	2
182	5
183	6
184	2
185	1
187	2
188	1
190	1
199	13
200	3
201	6
205	2
206	26
207	4
208	1
209	2
214	9
215	1
217	2
218	1
220	2
223	2
227	9
228	1
231	1
232	1
234	76
235	10
236	1
245	6
246	1
247	1
258	3
259	1
263	14
264	2
289	4
290	2
291	31
292	6
293	1
307	19
308	3
317	4
318	1
322	33
323	6
324	1
333	1
334	3
335	314
336	62
337	9
338	1
348	13
349	3
366	64
367	12
368	2
