Mass Spectrum: 2,5-Dichloropyrazine
Formula: C4H2Cl2N2
CAS: 19745-07-4
Molecular weight: 148
m/z	intensity
35	19
36	39
37	78
38	59
39	29
47	58
48	29
49	111
50	259
51	300
52	187
53	49
60	230
61	69
62	130
63	19
64	9
76	49
77	80
78	69
84	99
85	999
86	89
87	337
88	19
89	10
94	70
96	39
120	558
121	29
122	340
123	9
124	88
148	687
149	49
150	446
151	20
152	129
