Mass Spectrum: 1H-Indene, octahydro-5-methyl-
Formula: C10H18
CAS: 19744-64-0
Molecular weight: 138
m/z	intensity
27	108
28	113
29	95
32	9
39	156
40	26
41	319
42	28
43	17
51	21
52	11
53	102
54	194
55	242
56	24
57	7
63	2
65	31
66	60
67	659
68	243
69	47
70	2
77	47
78	8
79	76
80	40
81	978
82	382
83	40
91	18
93	13
94	7
95	151
96	999
97	98
109	47
110	98
111	5
123	7
138	252
139	25
141	2
