Mass Spectrum: Phenylcyclopentylsulfide
Formula: C11H14S
CAS: 19744-72-0
Molecular weight: 178
m/z	intensity
39	44
41	118
45	21
51	25
53	10
65	51
66	50
67	51
68	12
69	67
77	33
84	24
108	10
109	70
110	999
111	82
112	45
135	17
178	254
179	34
180	14
