Mass Spectrum: 1H-Pyrrole-3,4-dicarbonitrile, 2,5-dihydro-2,5-dioxo-
Formula: C6HN3O2
CAS: 1974-53-4
Molecular weight: 147
m/z	intensity
23	15
25	2
26	12
27	15
28	14
29	11
30	2
36	14
37	1
38	62
39	3
40	2
41	0
42	10
43	68
44	2
45	0
48	23
49	1
50	55
51	14
52	6
53	7
54	5
55	0
56	0
57	0
62	17
63	1
64	8
65	2
66	1
67	28
68	1
69	0
70	14
71	0
74	0
76	999
77	129
78	53
79	7
80	0
81	0
82	0
83	0
85	0
88	0
90	3
91	1
92	0
93	1
94	2
95	0
97	0
98	0
99	0
102	2
103	7
104	712
105	45
106	4
107	0
111	0
112	0
114	0
117	0
118	0
119	361
120	24
121	1
122	5
123	0
124	0
125	0
126	0
128	0
129	0
131	0
132	1
133	0
137	2
138	0
139	0
143	0
145	0
147	890
148	72
149	7
150	0
