Mass Spectrum: 9-Oxabicyclo[4.2.1]nona-2,4-diene
Formula: C8H10O
CAS: 19740-75-1
Molecular weight: 122
m/z	intensity
25	5
26	59
27	526
28	52
29	109
31	24
34	3
35	2
36	4
37	30
38	97
39	727
40	174
41	324
42	54
43	48
44	34
45	1
46	4
49	11
50	107
51	214
52	89
53	288
54	69
55	105
56	3
57	238
58	3
59	15
60	15
61	13
62	28
63	86
64	24
65	223
66	561
67	148
68	999
69	68
70	17
71	7
72	4
73	4
74	8
75	11
76	6
77	589
78	601
79	490
80	218
81	237
82	15
83	5
84	3
85	2
86	4
87	4
89	14
90	8
91	501
92	151
93	387
94	137
95	54
96	7
102	5
103	110
104	134
105	36
106	2
107	91
108	7
118	3
119	2
120	4
121	59
122	813
123	76
124	5
