Mass Spectrum: Cyclopropane, 1-(2-chloro-1-hexen-1-ylideno)-2,2,3,3-tetramethyl-
Formula: C13H21Cl
CAS: 197451-62-0
Molecular weight: 212
m/z	intensity
35	1
36	26
38	22
39	321
40	140
41	999
42	69
43	465
44	41
49	1
50	33
51	137
52	42
53	174
55	502
56	40
57	293
58	15
62	6
63	100
64	29
65	214
66	34
67	138
69	476
70	36
71	14
73	23
74	4
75	38
77	485
78	95
79	330
80	45
81	202
82	19
83	101
84	45
85	20
86	17
87	13
88	3
89	49
91	649
92	96
93	419
94	43
95	84
96	46
97	13
99	12
101	12
102	10
103	104
105	704
106	135
107	412
108	43
109	45
112	3
113	29
115	106
116	35
117	115
118	51
119	613
120	149
121	459
122	59
123	23
125	16
126	10
127	97
128	27
129	81
130	60
131	48
132	29
133	242
134	103
135	240
136	22
139	32
141	876
142	91
143	277
144	26
145	10
146	7
147	50
148	13
149	21
153	16
154	25
155	210
156	35
157	65
158	3
159	2
161	138
162	22
163	1
167	2
168	1
169	111
170	18
171	32
176	111
177	545
178	76
183	3
197	285
198	39
199	91
200	8
212	576
213	85
214	179
215	21
