Mass Spectrum: 1,3-Cyclohexadiene, 5-(3-buten-1-yl)-
Formula: C10H14
CAS: 197523-62-9
Molecular weight: 134
m/z	intensity
26	8
27	101
29	39
30	1
34	0
37	2
38	10
39	145
40	16
41	83
42	4
43	4
44	0
48	0
49	1
50	24
51	79
52	40
53	54
54	9
55	21
56	14
57	1
58	1
59	0
61	1
62	6
63	22
64	6
65	68
66	32
67	17
68	1
69	0
73	0
74	5
75	11
76	6
77	435
78	215
79	999
80	144
81	7
82	0
85	0
86	0
87	1
88	0
89	8
90	7
91	453
92	435
93	145
94	11
95	0
98	0
101	0
102	2
103	6
104	6
105	50
106	22
107	2
115	7
116	2
117	7
118	1
119	34
120	4
126	0
127	1
128	2
129	1
130	0
131	1
132	8
133	6
134	123
135	14
136	0
