Mass Spectrum: Pyridine, 2-bromo-3-nitro-
Formula: C5H3BrN2O2
CAS: 19755-53-4
Molecular weight: 202
m/z	intensity
50	590
51	370
52	100
64	50
75	120
76	999
77	300
81	40
106	60
107	30
108	50
129	110
130	40
131	110
144	80
146	80
156	940
157	60
158	930
159	60
202	660
203	40
204	650
205	40
