Mass Spectrum: 4-Chloro-2-phthalimidobenzoic acid
Formula: C15H8ClNO4
CAS: 197514-04-8
Molecular weight: 301
m/z	intensity
41	2
43	5
45	130
47	5
49	20
50	388
51	84
52	28
53	32
54	1
55	4
59	3
61	17
62	57
63	154
64	51
65	22
66	7
69	5
70	4
72	4
73	50
74	115
75	193
76	999
77	224
78	33
79	9
83	33
85	4
86	10
87	19
88	38
89	9
90	26
91	9
92	58
93	8
97	36
98	27
99	30
100	12
101	25
102	29
104	362
105	60
106	1
107	4
110	27
111	20
112	10
113	15
114	20
115	7
116	6
117	2
119	3
120	11
121	6
123	1
124	72
126	67
127	10
128	23
130	22
131	2
132	6
133	32
135	33
136	3
137	11
138	19
139	27
140	17
141	2
142	12
149	14
150	3
151	17
152	2
153	18
154	1
155	3
161	8
163	770
164	116
165	9
166	86
167	14
172	2
173	8
174	13
175	5
176	7
177	16
178	109
180	38
182	11
186	3
192	5
193	72
194	23
200	18
201	33
202	11
203	11
212	1
213	259
214	23
215	96
216	11
222	10
227	4
228	19
229	196
230	18
231	64
232	5
248	8
254	3
255	4
256	221
257	389
258	125
259	129
260	16
282	3
284	83
285	15
286	27
287	2
299	3
301	433
302	70
303	147
304	25
305	3
