Mass Spectrum: Urea, 1-(4-chlorophenyl)-3-[3-(2-methyl-1-piperidyl)propyl]-
Formula: C16H24ClN3O
CAS: 197502-59-3
Molecular weight: 309
m/z	intensity
36	2
38	4
39	21
40	13
41	111
42	81
43	34
44	148
45	4
50	3
51	3
52	2
53	5
54	17
55	129
56	107
57	30
58	33
62	3
63	11
64	6
65	13
66	3
67	7
68	20
69	24
70	55
71	16
72	4
73	5
75	7
76	2
77	3
79	2
80	2
81	6
82	23
83	29
84	61
85	10
89	2
90	11
91	7
92	10
93	10
94	3
95	3
96	35
98	419
99	43
100	13
101	10
110	12
112	999
113	102
114	4
119	2
122	2
123	2
124	12
125	15
126	117
127	98
128	17
129	26
130	3
138	25
139	16
140	6
141	8
147	17
148	3
153	27
154	6
155	9
156	2
167	54
168	5
171	3
181	7
183	341
184	38
185	2
211	122
212	16
213	38
214	4
226	3
266	4
267	2
280	3
294	98
295	15
296	32
297	4
308	2
309	37
310	7
311	12
