Mass Spectrum: N(2),N(2)-Dimethyl-1,2-butanediamine
Formula: C6H16N2
CAS: 19764-59-1
Molecular weight: 116
m/z	intensity
15	9
26	2
27	18
28	29
29	27
30	54
31	24
38	1
39	10
40	3
41	31
42	72
43	25
44	80
45	5
46	5
52	1
53	2
54	5
55	10
56	49
57	55
58	71
59	202
60	7
68	5
69	4
70	44
71	217
72	21
73	1
82	2
83	1
84	26
85	15
86	999
87	68
88	2
96	1
98	1
99	1
113	1
115	9
116	7
117	23
118	1
