Mass Spectrum: 1,5-Di(4-formyl-phenoxy)-3-methyl-pentane
Formula: C20H22O4
CAS: 197638-27-0
Molecular weight: 326
m/z	intensity
50	21
51	90
52	5
53	26
54	7
55	879
56	82
57	36
58	2
59	2
63	18
64	16
65	103
66	14
67	68
68	5
69	25
70	2
74	5
75	7
76	36
77	230
78	20
79	101
80	6
81	15
82	62
83	999
84	61
85	21
86	2
87	3
91	19
92	9
93	38
94	33
95	40
96	4
97	5
98	1
102	1
103	33
104	10
105	239
106	17
107	99
108	6
109	4
118	1
119	7
120	8
121	234
122	77
123	188
124	13
125	1
133	6
134	2
135	253
136	29
137	2
147	16
148	7
149	34
150	4
159	2
161	5
162	14
163	33
164	5
165	1
173	3
175	7
176	2
177	85
178	13
179	1
201	1
203	3
204	2
205	359
206	55
207	5
208	2
297	1
298	13
299	2
325	5
326	352
327	86
328	9
