Mass Spectrum: Hydroxydesmethylimipramine,2-
Formula: C18H22N2O
CAS: 1977-15-7
Molecular weight: 282
m/z	intensity
27	50
28	180
29	30
30	110
39	80
40	10
41	60
42	140
43	80
44	999
45	30
50	10
51	50
52	20
53	20
55	30
56	50
57	50
58	10
63	40
64	20
65	50
70	50
71	80
72	30
77	80
78	30
79	10
89	40
90	20
91	80
102	10
103	20
104	10
105	10
106	20
107	30
115	40
116	30
117	40
118	20
127	20
128	30
129	20
130	30
133	10
139	10
140	10
141	10
146	20
151	10
152	40
153	30
154	30
165	70
166	30
167	70
168	20
177	10
178	40
179	20
180	110
181	50
182	20
183	20
191	30
192	20
193	20
194	30
195	30
196	30
204	10
207	20
208	60
209	190
210	150
211	180
212	20
220	10
222	30
223	10
224	140
225	30
236	40
237	30
238	30
250	160
251	130
252	20
282	100
283	20
