Mass Spectrum: (.+/-.)-Uleine
Formula: C18H22N2
CAS: 19775-50-9
Molecular weight: 266
m/z	intensity
41	100
42	249
43	125
44	999
45	48
46	9
47	4
48	1
49	20
50	11
51	39
52	16
53	29
54	16
55	49
56	35
57	69
58	117
59	16
60	17
61	3
62	7
63	27
64	9
65	21
66	6
67	16
68	12
69	13
70	34
71	82
72	20
73	8
74	8
75	22
76	24
77	68
78	22
79	11
80	8
81	11
82	30
84	88
85	28
86	15
87	9
88	14
89	32
90	36
91	35
92	17
93	6
94	38
95	12
96	39
97	23
98	60
99	26
100	7
101	21
102	31
103	38
104	40
105	30
106	12
107	5
108	9
109	4
110	49
111	42
112	38
113	14
114	14
115	44
116	22
117	50
118	52
119	13
120	5
121	2
122	19
123	11
124	30
125	9
126	24
127	38
128	41
129	24
130	58
131	10
132	7
133	33
134	4
135	2
136	4
137	3
138	6
139	29
140	31
141	19
142	15
143	20
144	18
145	4
146	2
147	1
148	2
149	4
150	8
151	24
152	61
153	25
154	65
155	28
156	21
157	15
158	11
159	4
160	2
161	1
162	1
163	7
164	13
165	33
166	46
167	175
168	111
169	35
170	21
171	18
172	10
173	3
174	4
175	2
176	6
177	14
178	43
179	47
180	429
181	229
182	95
183	104
184	36
185	42
186	24
187	5
188	3
189	4
190	17
191	77
192	126
193	195
194	528
195	280
196	118
197	69
198	55
199	14
200	3
201	2
202	2
203	6
204	45
205	41
206	148
207	104
208	299
209	645
210	179
211	107
212	37
213	12
214	3
215	4
216	3
217	8
218	13
219	18
220	45
221	67
222	140
223	273
224	64
225	41
226	9
227	7
228	2
229	3
230	1
231	2
232	3
233	10
234	15
235	83
236	75
237	397
238	86
239	40
240	9
241	4
242	1
243	1
245	1
246	0
247	3
248	3
249	9
250	7
251	58
252	30
253	10
254	4
255	2
256	1
261	2
262	3
263	8
264	12
265	153
266	725
267	160
268	20
