Mass Spectrum: Berbine, 11-(benzyloxy)-2,3-dimethoxy-, (.+/-.)-
Formula: C26H27NO3
CAS: 19779-85-2
Molecular weight: 401
m/z	intensity
91	999
92	110
190	200
210	100
211	180
212	60
279	130
307	170
308	80
309	60
310	340
311	80
400	240
401	420
402	110
