Mass Spectrum: 2H-Pyran-2-carboxylic acid, 5-ethyltetrahydro-2,3-dimethyl-6-oxo-
Formula: C10H16O4
CAS: 19776-82-0
Molecular weight: 200
m/z	intensity
38	17
39	13
40	75
41	15
43	999
51	8
52	11
53	44
54	20
55	671
56	233
57	77
58	13
68	15
69	142
70	488
71	57
72	175
73	35
81	15
82	22
83	217
84	26
85	31
86	15
87	8
99	26
100	71
101	40
107	22
108	35
110	20
111	15
112	35
113	8
114	4
125	26
126	15
127	622
128	28
129	13
137	44
153	15
154	17
155	982
156	62
157	17
172	288
200	22
