Mass Spectrum: 6,10-Dimethyl-9-undecen-4-ol
Formula: C13H26O
CAS: 19780-00-8
Molecular weight: 198
m/z	intensity
15	18
16	11
18	31
19	15
27	222
28	51
29	223
30	13
31	106
32	0
39	217
41	999
42	107
43	443
44	68
45	49
51	24
52	21
53	138
54	67
55	708
56	159
57	155
58	43
59	17
65	36
67	475
68	195
69	691
70	102
71	137
72	16
73	50
77	31
78	7
79	56
80	7
81	680
82	818
83	113
84	22
85	10
86	18
87	29
91	20
93	35
95	570
96	95
97	29
98	10
99	18
107	14
109	408
110	117
111	29
112	10
113	381
114	35
121	13
123	84
124	126
125	17
127	12
137	91
138	19
153	11
155	47
165	15
180	16
