Mass Spectrum: Benzeneacetonitrile, .alpha.-(benzoyloxy)-4-chloro-
Formula: C15H10ClNO2
CAS: 19788-56-8
Molecular weight: 271
m/z	intensity
50	40
51	118
62	16
63	27
64	13
73	6
74	10
75	20
76	6
77	202
78	6
88	16
105	999
106	67
110	16
113	54
114	27
123	33
124	33
125	6
139	50
141	10
149	84
150	202
151	50
152	57
165	10
191	6
226	6
271	162
272	27
273	50
274	6
