Mass Spectrum: 2,7-Dimethyl-2,7-octanediol
Formula: C10H22O2
CAS: 19781-07-8
Molecular weight: 174
m/z	intensity
26	1
27	37
29	54
30	1
31	153
33	0
38	0
39	26
40	8
41	145
42	25
43	497
44	10
45	25
46	1
49	3
50	0
51	1
52	0
53	10
54	5
55	201
56	340
57	109
58	69
59	999
60	33
61	2
62	1
63	6
65	1
66	1
67	26
68	21
69	327
70	133
71	90
72	30
73	1
77	64
78	2
79	2
81	50
82	34
83	345
84	20
85	14
86	0
91	0
93	0
94	0
95	12
96	2
97	22
98	153
99	14
100	1
101	0
107	0
109	0
121	0
123	190
124	17
125	1
137	0
138	1
139	3
140	0
141	85
142	9
143	0
157	0
159	0
