Mass Spectrum: Valeric acid, 2-cyano-2-hydroxy-4-methyl-, ethyl ester, benzoate (ester)
Formula: C16H19NO4
CAS: 19788-61-5
Molecular weight: 289
m/z	intensity
41	135
42	27
43	135
44	148
45	27
50	33
51	121
52	54
53	67
54	121
55	40
56	13
57	101
65	6
66	13
67	20
68	13
69	13
75	6
76	20
77	324
78	54
79	13
80	40
81	13
82	27
85	135
93	20
94	13
95	13
98	20
105	999
106	87
110	20
120	3
121	20
122	67
123	31
124	16
126	13
130	4
131	14
133	13
135	3
138	11
139	13
140	3
141	3
152	3
153	3
167	11
173	13
179	11
217	8
