Mass Spectrum: 5-Ethyl-1-nonene
Formula: C11H22
CAS: 19780-74-6
Molecular weight: 154
m/z	intensity
26	15
27	171
28	32
29	226
32	4
39	253
41	714
42	111
43	399
44	18
50	8
51	22
52	14
53	109
54	112
55	997
56	264
57	722
58	29
65	29
66	17
67	110
68	14
69	602
70	999
71	284
72	14
77	21
79	26
80	7
81	48
82	39
83	286
84	178
85	20
91	7
95	12
96	38
97	219
98	74
111	28
112	196
113	23
125	44
126	9
154	11
