Mass Spectrum: cis-1,4-Dimethyl-2-methylenecyclohexane
Formula: C9H16
CAS: 19781-46-5
Molecular weight: 124
m/z	intensity
15	19
26	15
27	136
28	62
29	77
39	341
40	89
41	406
42	54
43	42
50	32
51	84
52	50
53	204
54	73
55	233
56	38
63	26
65	96
67	999
68	413
69	201
70	30
77	114
78	32
79	163
81	502
82	584
83	49
91	85
92	12
93	39
95	323
96	176
97	13
105	26
107	15
109	494
110	46
124	265
125	25
