Mass Spectrum: 4-Isoxazolepropionic acid, .alpha.-acetyl-3,5-dimethyl-, ethyl ester
Formula: C12H17NO4
CAS: 19788-43-3
Molecular weight: 239
m/z	intensity
41	100
42	230
43	999
44	120
45	150
46	70
51	30
52	30
53	100
54	50
55	120
65	50
66	70
67	120
68	600
69	130
70	30
71	30
80	70
81	70
82	150
83	70
84	50
85	50
93	40
94	40
95	60
96	30
97	100
98	30
108	110
109	200
110	720
111	60
122	50
123	50
124	200
125	80
126	50
127	30
128	20
136	30
137	30
148	30
150	500
151	70
152	80
166	150
167	60
168	80
178	50
196	320
197	80
198	20
221	30
239	50
240	20
