Mass Spectrum: Cyclohexanone, 2-[(3,5-dimethyl-4-isoxazolyl)methyl]-
Formula: C12H17NO2
CAS: 19788-40-0
Molecular weight: 207
m/z	intensity
42	100
43	350
44	20
68	460
69	40
95	170
96	20
98	90
110	999
111	70
136	50
150	60
207	230
208	30
