Mass Spectrum: 2-Ethyl-1-dodecanol
Formula: C14H30O
CAS: 19780-33-7
Molecular weight: 214
m/z	intensity
27	170
28	95
29	371
31	180
39	122
41	764
42	179
43	859
44	39
45	23
53	55
54	69
55	633
56	315
57	999
58	46
59	20
66	12
67	90
68	65
69	371
70	461
71	597
72	136
81	42
82	103
83	349
84	171
85	297
86	19
95	20
96	86
97	342
98	103
99	54
110	42
111	203
112	65
113	29
124	22
125	77
126	34
127	19
139	25
140	21
167	18
168	30
196	18
