Mass Spectrum: 3-Ethyl-2-methyl-2-heptanol
Formula: C10H22O
CAS: 19780-59-7
Molecular weight: 158
m/z	intensity
15	8
27	53
28	32
29	73
30	8
31	55
39	47
41	138
42	22
43	117
44	7
45	26
51	5
53	17
55	101
56	21
57	50
58	5
59	999
60	35
67	13
69	98
70	16
71	33
73	16
83	34
84	53
85	15
86	5
97	9
98	6
143	36
