Mass Spectrum: 4-Ethynyl-4-vinyl-1,6-heptadiene
Formula: C11H14
CAS: 19781-40-9
Molecular weight: 146
m/z	intensity
15	47
16	5
24	3
26	75
27	454
28	23
29	30
30	3
37	37
38	140
39	873
40	83
41	329
42	12
48	3
50	197
51	432
52	131
53	211
54	20
55	19
61	28
62	84
63	228
64	53
65	207
66	43
67	53
68	9
73	8
74	46
75	41
76	8
77	999
78	310
79	944
80	72
81	10
85	2
86	7
87	6
88	5
89	32
90	2
91	227
92	62
93	9
94	3
98	3
101	10
102	68
103	405
104	164
105	342
106	31
115	64
116	60
117	270
118	69
119	11
127	5
128	12
129	25
130	23
131	133
132	14
143	3
145	27
146	5
