Mass Spectrum: 3-Decanol, 6-ethyl-,
Formula: C12H26O
CAS: 19780-31-5
Molecular weight: 186
m/z	intensity
26	4
27	154
29	355
30	13
31	233
38	1
39	74
40	17
41	523
42	85
43	419
44	27
45	70
46	2
50	0
51	3
52	1
53	29
54	18
55	696
56	114
57	740
58	144
59	999
60	30
61	1
63	1
65	4
66	2
67	37
68	17
69	590
70	379
71	190
72	17
73	39
74	0
77	4
78	0
79	7
80	1
81	39
82	15
83	831
84	112
85	53
86	4
87	10
88	52
89	2
91	1
93	0
95	16
96	25
97	336
98	182
99	40
100	2
101	7
109	7
110	21
111	83
112	187
113	48
114	5
115	5
116	6
117	1
123	0
124	2
125	6
126	99
127	26
128	6
129	3
137	0
138	11
139	63
140	20
141	7
142	1
143	0
156	4
157	282
158	28
159	2
167	1
168	191
169	26
170	2
171	0
185	2
