Mass Spectrum: Acetic acid, mercapto-, 2-methoxyethyl ester
Formula: C5H10O3S
CAS: 19788-48-8
Molecular weight: 150
m/z	intensity
27	130
28	130
29	360
31	230
42	160
43	220
44	120
45	999
46	180
47	670
58	660
59	610
74	70
75	170
77	270
118	120
150	50
