Mass Spectrum: 3-Ethyl-4-nonanol
Formula: C11H24O
CAS: 19780-72-4
Molecular weight: 172
m/z	intensity
27	176
28	81
29	291
30	13
31	66
39	106
41	380
42	71
43	414
44	121
45	79
53	40
55	889
56	84
57	185
58	33
59	258
67	33
69	83
70	135
71	145
72	38
83	999
84	83
85	32
86	18
97	11
99	56
100	123
101	415
102	30
