Mass Spectrum: 5-Ethyl-4-nonanol
Formula: C11H24O
CAS: 19780-73-5
Molecular weight: 172
m/z	intensity
27	171
28	73
29	222
31	100
39	96
41	369
42	66
43	377
44	47
45	34
53	36
55	999
56	145
57	330
58	18
59	76
67	21
69	332
70	105
71	92
72	271
73	811
74	40
83	29
87	18
97	21
98	156
99	31
111	64
114	25
129	104
154	15
