Mass Spectrum: 2-Butanone, 4-(3,5-dimethyl-4-isoxazolyl)-
Formula: C9H13NO2
CAS: 19788-38-6
Molecular weight: 167
m/z	intensity
43	999
44	100
45	20
55	80
56	20
67	50
68	450
69	30
82	180
83	20
97	100
98	20
110	330
111	50
124	70
125	20
126	130
127	20
167	150
168	40
