Mass Spectrum: N-(1,1-Dimethyl-2-propynyl)-N,N-dimethylamine
Formula: C7H13N
CAS: 19788-24-0
Molecular weight: 111
m/z	intensity
27	12
28	46
29	4
39	43
41	70
42	113
43	5
44	132
45	7
53	67
56	108
57	7
81	26
96	999
97	36
111	31
112	3
