Mass Spectrum: 3,5-Dimethyl-2-octanol
Formula: C10H22O
CAS: 19781-09-0
Molecular weight: 158
m/z	intensity
19	15
27	133
28	8
29	165
31	27
39	156
40	53
41	486
42	156
43	840
45	999
46	24
53	75
55	530
56	181
57	460
58	53
59	25
65	18
67	50
69	389
70	634
71	728
72	74
73	15
77	14
81	19
83	112
84	200
85	165
97	135
98	31
111	62
112	187
113	116
114	39
140	43
143	18
