Mass Spectrum: Glycolic acid, cyano-, ethyl ester, benzoate (ester)
Formula: C12H11NO4
CAS: 19788-59-1
Molecular weight: 233
m/z	intensity
43	6
44	200
45	13
50	53
51	140
52	6
74	6
75	6
76	13
77	386
78	33
105	999
106	73
116	20
118	20
119	20
122	53
131	20
134	20
161	100
162	13
179	40
188	33
