Mass Spectrum: trans-3-tert-butylcycloheptanol
Formula: C11H22O
CAS: 19790-14-8
Molecular weight: 170
m/z	intensity
57	999
67	280
81	420
95	360
96	770
109	40
113	250
124	19
137	66
152	85
153	29
155	40
168	37
170	0
