Mass Spectrum: Methanone, (3-methyl-3-phenyloxiranyl)phenyl-, cis-
Formula: C16H14O2
CAS: 19804-64-9
Molecular weight: 238
m/z	intensity
41	10
43	40
44	10
50	30
51	130
52	20
53	10
55	10
58	20
62	10
63	30
64	10
65	20
74	10
75	10
76	30
77	460
78	110
79	40
90	40
91	30
97	10
98	10
102	20
103	260
104	140
105	999
106	90
107	10
115	20
116	10
118	10
120	10
131	10
132	20
133	60
134	10
136	140
137	10
145	10
152	10
161	20
166	20
167	10
168	20
178	10
179	10
181	10
191	10
192	10
193	10
194	10
195	20
196	10
205	20
208	10
209	20
210	50
211	20
221	40
222	30
223	120
224	30
238	180
239	40
