Mass Spectrum: Ethanamine, N,N-dimethyl-2-[(4-methylphenyl)phenylmethoxy]-
Formula: C18H23NO
CAS: 19804-27-4
Molecular weight: 269
m/z	intensity
33	6
40	15
42	35
43	13
44	28
45	84
46	15
51	4
52	1
53	1
55	1
56	12
58	999
59	35
60	1
63	2
65	7
70	3
71	7
72	19
73	250
74	19
75	0
76	1
77	16
78	2
79	0
86	3
87	3
88	4
89	5
90	2
91	11
92	1
100	0
102	1
103	4
105	2
114	0
115	8
116	1
119	2
120	0
127	0
128	3
139	2
141	5
142	1
151	3
152	10
153	4
154	1
163	3
165	75
166	46
167	9
171	1
176	2
177	3
178	23
179	23
180	14
181	41
182	8
196	5
197	2
224	1
241	2
269	0
