Mass Spectrum: 1-Triisopropylsilyloxy-10-undecene
Formula: C20H42OSi
CAS: 198018-28-9
Molecular weight: 326
m/z	intensity
26	48
27	327
28	140
29	355
30	11
31	171
37	19
38	35
39	372
40	56
41	999
42	388
43	542
44	109
45	225
46	7
47	48
50	13
51	56
52	18
53	56
54	69
55	778
56	151
57	145
58	29
59	293
60	49
61	562
62	42
63	31
65	25
66	7
67	151
68	49
69	265
70	69
71	85
72	39
73	95
74	13
75	867
76	64
77	39
78	4
79	43
80	18
81	88
82	65
83	151
84	43
85	88
87	227
88	18
89	139
91	18
93	28
95	127
96	25
97	71
98	18
99	88
100	21
101	253
102	19
103	388
104	47
105	21
106	7
107	18
109	38
111	31
112	21
113	62
114	19
115	198
116	21
117	38
118	8
121	8
123	18
125	49
127	49
128	18
129	111
130	28
131	321
132	31
133	39
139	26
140	19
141	17
143	72
145	39
149	13
153	11
154	12
155	25
157	45
158	9
167	9
169	13
171	31
183	13
185	29
186	13
195	9
197	15
199	31
204	4
205	9
206	16
209	16
212	73
213	18
225	4
227	19
229	4
238	8
240	19
241	305
242	21
243	10
255	39
283	475
284	115
285	39
