Mass Spectrum: 2-Benzyl-1,2-dihydro-4-hydroxy-1-oxophthalazine
Formula: C15H12N2O2
CAS: 19807-86-4
Molecular weight: 252
m/z	intensity
16	1
26	3
27	16
28	31
29	2
36	1
37	4
38	9
39	43
40	2
41	13
42	2
43	8
44	9
45	1
49	2
50	59
51	108
52	17
53	5
55	3
56	1
57	4
61	2
62	7
63	26
64	15
65	142
66	10
68	1
69	2
70	1
71	3
73	2
74	13
75	29
76	123
77	133
78	41
79	8
80	1
81	1
82	1
83	3
84	1
85	2
86	1
87	2
88	2
89	27
90	16
91	950
92	81
93	5
94	1
95	2
96	1
97	3
99	2
100	3
101	19
102	125
103	70
104	338
105	295
106	62
107	8
108	2
111	2
114	2
115	1
116	2
117	2
118	8
119	5
120	3
121	31
122	3
123	1
125	2
126	45
127	3
128	89
129	14
130	999
131	94
132	22
133	7
134	1
144	4
145	3
146	17
147	21
148	946
149	107
150	11
151	3
152	5
153	2
160	1
163	1
165	8
166	2
167	2
168	1
174	7
175	11
176	3
177	3
178	4
179	4
180	8
181	3
182	1
190	1
192	1
193	1
194	2
195	6
196	2
205	3
206	4
207	3
208	9
209	5
219	1
221	1
222	1
223	9
224	6
225	1
233	8
234	4
235	18
236	8
237	4
251	15
252	831
253	150
254	16
255	1
