Mass Spectrum: Methanone, (3-methyl-3-phenyloxiranyl)phenyl-, trans-
Formula: C16H14O2
CAS: 19804-81-0
Molecular weight: 238
m/z	intensity
41	5
43	10
44	15
50	20
51	85
52	15
53	5
62	5
63	15
64	5
65	10
74	5
75	5
76	15
77	320
78	45
79	30
89	15
90	10
91	10
102	10
103	65
104	40
105	999
106	85
107	10
115	10
131	5
132	10
133	10
136	15
165	10
166	5
167	5
178	5
181	5
191	5
195	5
209	5
210	70
211	10
220	10
221	10
222	5
223	10
236	5
238	40
239	10
