Mass Spectrum: 2-Pyrazoline, 1-allyl-
Formula: C6H10N2
CAS: 19804-38-7
Molecular weight: 110
m/z	intensity
29	32
30	36
38	27
39	257
40	49
41	500
42	266
43	43
44	33
52	19
53	16
54	158
55	191
56	83
57	75
67	67
68	100
69	200
70	18
81	100
82	92
83	999
84	42
109	175
110	415
111	33
