Mass Spectrum: Thieno[3,2-b]furan, hexahydro-3,3,6,6-tetramethyl-
Formula: C10H18OS
CAS: 19803-12-4
Molecular weight: 186
m/z	intensity
39	145
41	430
43	112
45	175
53	121
55	303
57	172
59	121
69	160
73	999
97	406
98	866
99	315
113	121
114	48
115	415
130	206
186	303
187	45
