Mass Spectrum: N-Bromaziridine
Formula: C2H4BrN
CAS: 19816-89-8
Molecular weight: 121
m/z	intensity
28	167
29	41
30	31
31	65
32	11
39	34
40	153
41	479
42	999
43	204
44	37
45	44
46	11
80	24
82	20
93	10
95	9
106	14
108	14
121	269
122	7
123	267
124	7
