Mass Spectrum: Methanone, (2,4-dichlorophenyl)phenyl-
Formula: C13H8Cl2O
CAS: 19811-05-3
Molecular weight: 250
m/z	intensity
26	1
27	8
28	2
35	1
36	6
37	5
38	4
39	7
49	3
50	41
51	110
52	5
53	2
55	1
60	1
61	4
62	5
63	7
72	1
73	6
74	36
75	39
76	23
77	331
78	22
80	1
81	1
84	6
85	7
86	4
87	4
93	13
94	4
97	1
98	4
99	4
100	1
101	1
102	1
104	3
105	999
106	76
107	5
108	2
109	44
110	17
111	29
112	13
113	3
119	1
121	1
122	1
123	1
124	1
125	2
126	3
138	3
139	3
140	1
144	2
145	73
146	6
147	47
148	4
149	8
150	10
151	15
152	31
153	4
160	1
163	2
173	322
174	26
175	211
176	17
177	35
178	3
179	1
180	1
185	2
186	8
187	2
188	2
214	3
215	21
216	5
217	8
218	1
222	6
223	1
224	4
249	3
250	256
251	40
252	170
253	24
254	29
255	4
