Mass Spectrum: Azetidine, 2-methyl-
Formula: C4H9N
CAS: 19812-49-8
Molecular weight: 71
m/z	intensity
26	23
27	130
28	999
29	155
30	745
31	105
32	8
39	70
40	43
41	173
42	648
43	393
44	125
45	38
55	13
56	363
57	30
70	95
71	295
72	30
