Mass Spectrum: N-Bromo-2,2-dimethylaziridine
Formula: C4H8BrN
CAS: 19816-91-2
Molecular weight: 149
m/z	intensity
27	146
28	423
29	50
30	286
31	35
39	227
40	53
41	445
42	350
43	202
44	23
54	92
55	314
56	202
57	53
58	59
59	13
70	999
71	137
72	22
80	59
81	11
82	56
83	10
149	37
150	2
151	35
152	2
