Mass Spectrum: 4,4'-Bis(phenacylthio)biphenyl
Formula: C28H22O2S2
CAS: 19817-39-1
Molecular weight: 454
m/z	intensity
34	16
35	4
36	18
37	7
38	17
40	277
41	28
42	17
43	38
44	87
45	69
47	5
48	5
50	53
51	132
52	13
53	7
54	4
55	15
56	8
57	14
58	3
60	4
61	4
62	7
63	18
64	9
65	31
66	4
67	4
69	16
70	7
71	8
72	2
73	6
74	13
75	15
77	450
78	35
79	4
80	2
81	3
82	5
83	4
84	4
85	3
87	3
89	9
91	49
92	4
93	2
95	4
97	2
98	3
102	9
105	999
106	75
107	2
108	3
111	3
112	3
113	5
115	6
119	6
120	22
121	19
122	5
123	3
126	3
127	4
128	2
135	5
138	3
139	12
140	3
141	3
149	3
150	8
151	8
152	18
153	7
154	4
155	3
159	3
164	3
165	12
166	7
167	2
169	3
171	7
183	3
184	10
185	26
186	9
187	3
196	3
197	11
198	8
199	4
229	16
230	9
231	3
335	6
336	4
349	12
350	3
452	2
454	40
455	9
456	6
