Mass Spectrum: Lactic acid, 3,3,3-trichloro-, hydrazide
Formula: C3H5Cl3N2O2
CAS: 19836-22-7
Molecular weight: 206
m/z	intensity
59	720
61	360
71	260
76	240
82	120
83	340
85	210
89	999
111	230
112	650
114	430
116	80
147	60
149	60
151	30
171	30
206	80
208	80
210	30
