Mass Spectrum: Chloromethylphosphonic dichloride
Formula: CH2Cl3OP
CAS: 1983-26-2
Molecular weight: 166
m/z	intensity
12	1
13	2
14	8
15	1
18	1
27	1
29	23
31	19
33	8
35	29
36	38
37	9
38	12
39	1
41	2
43	7
44	22
45	13
47	265
48	39
49	999
50	23
51	314
52	3
57	1
59	3
60	1
62	3
63	2
64	3
65	2
66	64
67	13
68	24
69	4
70	2
77	9
78	5
79	9
80	4
81	3
82	24
83	65
84	9
85	25
87	1
91	4
93	2
95	2
96	6
97	7
98	2
99	2
101	82
102	9
103	57
104	5
105	10
115	1
117	164
119	107
121	17
130	42
131	81
132	29
133	52
134	6
135	8
136	162
137	5
138	155
139	5
140	49
141	2
142	5
150	1
152	1
159	9
161	3
166	124
167	3
168	117
169	2
170	38
172	4
