Mass Spectrum: 1,1-Dimethyl-3-chloropropanol
Formula: C5H11ClO
CAS: 1985-88-2
Molecular weight: 122
m/z	intensity
27	132
29	58
31	197
39	65
41	167
42	23
43	707
44	19
45	25
53	26
55	37
57	16
58	21
59	999
60	33
67	12
69	71
71	38
73	6
81	13
95	7
107	251
108	13
109	86
