Mass Spectrum: Benzenamine, 4-chloro-N-[(4-nitrophenyl)methylene]-, N-oxide
Formula: C13H9ClN2O3
CAS: 19865-63-5
Molecular weight: 276
m/z	intensity
39	60
50	60
51	60
63	90
75	120
90	180
111	140
113	60
125	999
126	90
127	430
128	130
260	80
276	180
278	60
