Mass Spectrum: 2-Octen-4-one, 2-methyl-
Formula: C9H16O
CAS: 19860-71-0
Molecular weight: 140
m/z	intensity
27	180
28	50
29	280
39	160
40	20
41	140
42	20
43	40
51	10
53	60
54	10
55	420
56	30
57	160
58	10
67	10
82	10
83	999
84	60
85	90
98	150
111	20
125	10
140	10
