Mass Spectrum: Bis(trifluoromethyl)phosphino-dimethylarsine
Formula: C4H6AsF6P
CAS: 19863-20-8
Molecular weight: 274
m/z	intensity
31	44
32	1
50	31
69	153
70	2
89	161
90	51
91	1
101	44
102	1
103	325
104	7
105	999
106	23
109	195
110	2
124	86
125	2
131	161
132	4
274	328
275	15
