Mass Spectrum: Benzenamine, 4-chloro-N-[(4-chlorophenyl)methylene]-, N-oxide
Formula: C13H9Cl2NO
CAS: 19865-60-2
Molecular weight: 265
m/z	intensity
38	60
39	140
50	240
51	200
62	90
63	250
64	80
73	70
74	120
75	570
76	160
77	70
87	40
89	180
90	350
99	140
111	860
112	100
113	250
125	999
126	120
127	440
128	90
138	80
139	260
140	80
141	160
248	180
249	250
250	190
251	160
252	70
253	60
264	80
265	130
266	70
267	80
