Mass Spectrum: 2-Phenyl-1-phenylsulfonylaziridine
Formula: C14H13NO2S
CAS: 19871-46-6
Molecular weight: 259
m/z	intensity
39	65
40	32
41	66
42	66
43	19
44	7
45	4
48	12
49	2
50	34
51	160
52	24
53	6
54	2
55	9
56	3
57	9
58	3
59	1
60	2
61	1
62	9
63	54
64	50
65	190
66	16
67	5
68	2
69	14
70	33
71	7
73	3
74	7
75	10
76	17
77	260
78	62
79	7
80	1
81	4
82	2
83	4
84	3
85	4
86	1
87	2
88	4
89	110
90	98
91	900
92	110
93	5
94	2
95	4
96	2
97	12
98	2
99	1
101	1
102	4
103	19
104	20
105	8
106	2
107	2
108	2
109	7
110	8
111	3
112	1
113	1
114	1
115	2
116	16
117	120
118	999
119	160
120	6
121	1
123	1
124	1
125	30
126	4
127	2
128	1
129	1
131	2
133	1
135	3
136	1
137	2
139	2
141	14
142	1
143	1
151	1
152	3
153	2
154	1
155	3
164	1
165	5
166	2
167	4
168	1
169	1
170	4
178	1
179	1
181	1
193	1
194	2
231	1
259	6
260	1
