Mass Spectrum: 6-Benzamidocaproic acid, ethyl ester
Formula: C15H21NO3
CAS: 198705-39-4
Molecular weight: 263
m/z	intensity
41	69
42	31
43	29
44	25
45	17
46	1
47	4
48	2
49	21
50	27
51	111
52	9
53	8
54	7
55	66
56	33
57	8
58	1
59	5
60	10
61	4
62	1
63	2
64	1
65	7
66	2
67	11
68	20
69	24
70	9
71	5
72	0
73	11
74	6
75	9
76	32
77	435
78	34
79	15
80	1
81	1
82	2
83	6
84	21
85	4
86	8
87	1
88	16
89	2
90	1
91	13
92	3
93	1
94	1
95	4
96	29
97	6
98	1
99	1
100	0
101	9
102	0
103	1
104	9
105	999
106	94
107	7
108	1
109	1
110	0
111	2
112	27
113	4
114	2
115	2
116	3
117	1
118	1
119	1
120	3
121	12
122	91
123	7
124	0
125	0
127	0
128	0
129	1
130	4
131	1
132	2
133	3
134	160
135	87
136	7
137	0
139	4
140	4
141	2
142	20
143	2
144	0
145	1
146	4
147	3
148	101
149	26
150	2
151	0
156	1
157	1
158	148
159	14
160	3
161	5
162	84
163	27
164	2
168	0
169	0
172	4
173	3
174	2
176	84
177	10
178	1
182	0
186	0
188	4
189	6
190	11
191	5
192	1
193	0
198	0
200	0
207	0
216	5
217	5
218	57
219	8
220	2
221	4
222	0
234	2
235	9
236	1
245	0
246	1
262	7
263	111
264	23
265	3
