Mass Spectrum: 1-(4-Methylphenyl)-3-(tetrahydrofur-2-yl)propane
Formula: C14H20O
CAS: 198780-74-4
Molecular weight: 204
m/z	intensity
39	40
41	110
42	30
43	180
44	10
53	10
55	30
57	10
65	30
71	390
72	60
77	60
78	30
79	40
84	50
91	60
97	20
103	30
104	30
105	210
106	30
115	20
116	20
117	80
118	999
119	130
131	30
145	40
204	100
205	15
206	1
