Mass Spectrum: 1-Dodecanone, 1-cyclopropyl-
Formula: C15H28O
CAS: 19873-44-0
Molecular weight: 224
m/z	intensity
28	96
29	265
30	126
39	63
40	12
41	341
42	50
43	468
44	20
53	5
54	17
55	202
56	151
57	154
58	154
67	30
68	20
69	721
70	53
71	43
72	43
83	106
84	999
85	283
86	15
95	15
96	12
97	278
98	25
111	38
129	17
153	7
169	7
181	7
183	5
224	22
225	10
