Mass Spectrum: 4(1H)-Pyrimidinone, 2-methyl-
Formula: C5H6N2O
CAS: 19875-04-8
Molecular weight: 110
m/z	intensity
26	130
27	98
28	310
32	29
39	67
40	238
41	251
42	999
43	71
52	20
53	40
54	40
55	31
56	22
66	20
67	40
68	42
69	173
70	40
81	51
82	251
83	20
93	31
95	42
110	831
111	65
