Mass Spectrum: Urea, N-methyl-N'-(4-methylphenyl)-
Formula: C9H12N2O
CAS: 19873-46-2
Molecular weight: 164
m/z	intensity
15	100
27	50
29	30
30	80
39	90
40	20
41	30
44	50
50	40
51	90
52	70
53	50
58	100
65	70
77	150
78	70
79	120
80	40
91	50
106	749
107	999
108	110
164	440
