Mass Spectrum: 3.beta.-Hydroxy-5-androsten-17-carboxylic acid
Formula: C20H30O3
CAS: 198897-79-9
Molecular weight: 318
m/z	intensity
41	999
43	802
44	69
45	228
47	17
51	51
52	24
53	387
55	757
57	372
58	41
59	26
60	34
63	13
65	130
66	15
67	519
68	82
69	187
71	76
73	203
74	5
77	471
78	41
79	956
80	40
81	532
83	115
84	20
85	31
86	53
87	33
89	18
91	740
92	123
93	509
94	133
95	345
97	122
98	4
99	28
100	15
101	3
102	4
103	75
105	832
106	222
107	812
108	88
109	143
111	104
112	10
113	14
114	4
115	135
116	38
117	259
118	68
119	285
120	224
121	257
122	50
123	65
124	78
125	155
126	12
127	42
128	58
129	110
130	36
131	328
132	82
133	362
134	99
135	88
136	20
137	25
138	25
139	68
141	59
142	29
143	180
144	58
145	419
146	72
147	176
148	57
149	40
151	59
152	28
153	30
154	7
155	31
156	5
157	98
158	14
159	236
160	106
161	479
162	72
163	41
165	45
166	11
167	16
169	41
170	14
171	74
173	113
174	29
175	48
176	16
177	39
178	19
179	127
180	12
181	4
183	46
185	71
186	14
187	80
189	173
190	17
191	53
192	52
193	37
194	23
195	15
197	58
198	5
199	48
200	3
201	21
203	32
204	13
205	36
206	192
207	440
208	55
209	12
211	29
212	8
213	104
214	16
215	65
216	3
217	28
218	30
219	27
220	23
223	3
225	28
227	13
228	21
229	31
230	6
231	74
232	78
233	556
234	89
235	8
239	122
240	28
241	16
243	65
244	16
245	38
246	43
247	17
248	3
249	26
254	8
255	17
257	56
258	109
259	83
260	37
261	74
262	13
267	56
268	8
271	37
272	34
274	37
275	29
276	7
283	15
285	666
286	140
287	19
299	14
300	504
301	150
302	26
303	134
304	28
316	12
317	7
318	553
319	148
320	24
