Mass Spectrum: Benzenemethanol, 4-chloro-.alpha.,.alpha.-dimethyl-
Formula: C9H11ClO
CAS: 1989-25-9
Molecular weight: 170
m/z	intensity
38	20
39	62
41	44
42	14
43	999
44	42
45	15
50	88
51	113
52	15
53	10
57	12
59	62
60	13
61	15
62	20
63	49
65	33
73	18
74	50
75	137
76	33
77	101
78	14
85	17
86	10
87	13
89	36
90	13
91	57
99	12
101	33
102	30
103	15
105	16
111	73
112	37
113	30
114	15
115	35
116	10
117	19
120	12
125	32
127	22
136	13
137	13
139	50
141	19
152	13
153	15
155	690
156	62
157	226
158	23
170	76
171	7
172	24
173	2
