Mass Spectrum: 2-Oxabicyclo[2.2.1]heptan-3-one, 1,7,7-trimethyl-
Formula: C9H14O2
CAS: 19893-77-7
Molecular weight: 154
m/z	intensity
38	12
39	304
40	84
41	695
42	275
43	514
44	92
45	21
46	2
50	17
51	47
52	19
53	126
54	291
55	779
56	170
57	166
58	36
60	18
63	2
65	30
66	240
67	999
68	949
69	652
70	273
71	122
73	8
74	46
77	42
78	13
79	256
80	267
81	556
82	703
83	325
84	142
85	63
86	21
87	10
91	26
92	12
93	59
94	73
95	131
96	14
97	113
98	317
99	36
102	2
103	10
104	2
105	32
107	12
108	55
109	3
110	262
111	256
112	29
113	16
115	2
118	3
125	26
126	37
132	2
136	26
138	5
139	13
153	9
154	113
155	13
