Mass Spectrum: 5.beta.-Androst-7-ene-6,17-dione, 2.beta.,3.beta.,14-trihydroxy-, cyclic 2,3-acetal with acetone
Formula: C22H30O5
CAS: 19896-54-9
Molecular weight: 374
m/z	intensity
39	70
41	140
42	187
43	999
44	15
45	620
49	120
51	20
55	60
57	10
58	340
59	70
69	45
77	25
79	22
81	12
84	85
86	40
87	260
91	50
93	45
102	59
105	70
107	16
109	14
115	20
117	32
119	78
121	25
127	11
128	20
129	27
131	100
132	20
133	40
135	11
139	10
141	12
142	10
143	28
145	28
147	30
149	17
155	50
157	27
159	30
160	40
161	36
162	13
165	19
169	68
170	13
171	39
172	11
173	25
185	47
186	15
187	28
188	18
189	28
190	10
195	21
197	25
198	10
199	94
200	23
201	15
202	8
209	20
211	20
212	17
213	35
214	11
215	14
219	10
221	14
223	17
225	24
227	48
228	27
229	48
230	33
231	27
232	10
235	10
237	20
239	30
241	58
242	27
243	17
245	11
246	12
253	34
254	10
255	48
256	16
257	25
259	37
263	20
265	20
270	37
271	20
280	20
281	100
282	24
283	47
298	146
299	225
300	46
317	60
318	50
329	17
341	115
342	27
343	20
356	122
357	33
358	18
359	750
360	160
374	160
375	36
