Mass Spectrum: Cholest-4-en-24-ol-3-one
Formula: C27H44O2
CAS: 19897-07-5
Molecular weight: 400
m/z	intensity
53	103
54	21
55	677
56	51
57	97
65	39
66	21
67	316
68	54
69	513
70	33
71	45
73	118
77	155
78	30
79	367
80	45
81	446
82	88
83	121
85	24
86	12
87	15
91	370
92	45
93	386
94	91
95	492
96	60
97	155
99	24
103	18
104	9
105	331
106	103
107	392
108	100
109	343
110	45
111	97
115	21
116	15
117	88
118	27
119	276
120	109
121	343
122	164
123	328
124	999
125	91
127	30
128	12
129	48
130	6
131	145
132	57
133	288
134	161
135	267
136	115
137	164
138	42
141	12
143	54
144	30
145	151
146	85
147	404
148	197
149	340
150	51
155	15
157	51
158	18
159	121
160	48
161	197
162	79
163	106
164	18
165	18
169	18
170	24
171	51
172	21
173	130
174	82
175	218
176	54
177	57
183	24
185	63
186	21
187	133
188	60
189	139
190	24
191	21
197	24
199	54
200	24
201	91
202	54
203	85
204	24
209	21
211	75
212	15
213	66
214	12
215	82
216	12
217	30
225	24
226	18
227	106
228	45
229	559
230	158
231	124
232	24
241	39
242	30
243	140
244	97
245	176
246	36
251	30
253	30
254	30
256	82
257	67
258	79
259	134
260	36
268	64
269	429
270	167
271	237
272	57
276	27
277	27
281	70
282	27
283	42
284	15
297	182
298	164
299	109
300	36
312	326
313	106
314	21
315	30
325	24
339	39
340	39
341	21
343	33
357	222
358	137
359	27
367	128
368	30
382	286
383	97
384	24
385	24
398	21
400	179
401	53
402	8
403	1
