Mass Spectrum: 4,8-Decadienoic acid, 2-acetyl-5,9-dimethyl-, ethyl ester, (E)-
Formula: C16H26O3
CAS: 19894-78-1
Molecular weight: 266
m/z	intensity
18	2
26	2
27	69
29	161
30	3
31	5
38	0
39	55
40	17
41	524
42	23
43	999
44	18
45	12
46	0
47	0
50	0
51	7
52	5
53	74
54	7
55	57
56	4
57	10
58	5
59	7
60	1
61	5
63	1
64	0
65	19
66	9
67	75
68	60
69	540
70	29
71	13
73	9
77	30
78	5
79	60
80	54
81	211
82	30
83	12
84	13
85	31
86	5
87	5
88	0
89	5
91	34
92	36
93	139
94	26
95	42
96	14
97	14
98	2
99	6
101	5
102	20
103	8
104	0
105	22
106	12
107	162
108	27
109	289
110	28
111	17
112	3
113	7
114	1
115	14
116	1
117	2
118	0
119	17
120	5
121	110
122	29
123	291
124	37
125	15
126	1
127	19
128	2
129	2
130	62
131	25
132	4
133	15
134	7
135	20
136	262
137	47
138	6
139	13
140	2
141	7
142	2
143	78
144	6
145	2
146	0
147	2
148	1
149	25
150	10
151	74
152	10
153	6
154	10
155	125
156	15
157	15
158	1
159	10
160	1
161	2
163	4
164	4
165	1
166	1
167	7
168	3
169	3
173	1
174	5
175	18
176	2
177	47
178	7
179	5
180	3
181	9
182	1
183	2
184	0
185	1
187	1
192	6
193	5
195	0
196	0
197	72
198	8
199	0
202	0
203	3
205	37
206	5
207	0
208	1
209	0
210	0
219	0
220	15
221	26
222	3
223	34
224	14
225	1
233	12
234	1
248	30
249	5
251	0
266	48
267	9
