Mass Spectrum: (2E,4S,7E)-4-Isopropyl-1,7-dimethylcyclodeca-2,7-dienol
Formula: C15H26O
CAS: 198991-79-6
Molecular weight: 222
m/z	intensity
27	44
29	36
39	49
41	187
42	11
43	346
45	11
53	69
54	15
55	111
57	22
58	17
65	26
66	16
67	114
68	23
69	98
71	112
77	66
78	19
79	124
80	166
81	999
82	102
83	39
91	97
92	21
93	123
94	36
95	126
96	26
97	63
103	11
105	138
106	27
107	74
108	39
109	126
111	28
117	16
119	94
120	18
121	110
122	38
123	210
124	60
125	14
126	9
131	11
133	41
134	28
135	42
136	12
137	30
138	12
145	7
147	31
161	159
162	35
163	10
164	14
177	7
178	5
179	15
189	17
204	44
205	6
207	59
208	10
222	9
