Mass Spectrum: Lycoxanthin
Formula: C40H56O
CAS: 19891-74-8
Molecular weight: 552
m/z	intensity
12	3
13	2
14	6
15	14
16	8
17	30
18	112
19	1
25	5
26	22
27	120
28	53
29	124
30	5
31	7
32	2
34	1
36	4
37	14
38	28
39	216
40	40
41	660
42	39
43	296
44	33
45	10
46	2
48	4
49	7
50	47
51	88
52	40
53	164
54	24
55	390
56	26
57	68
58	6
59	4
60	6
61	10
62	25
63	72
64	19
65	132
66	28
67	234
68	41
69	82
70	50
71	42
72	5
73	11
74	18
75	19
76	14
77	290
78	94
79	332
80	64
81	428
82	40
83	80
84	14
85	14
86	6
87	7
88	4
89	34
90	14
91	999
92	170
93	448
94	68
95	252
96	28
97	32
98	10
99	6
100	3
101	8
102	19
103	80
104	388
105	68
106	304
107	388
108	68
109	236
110	24
111	21
112	4
113	6
114	7
115	156
116	74
117	176
118	48
119	460
120	96
121	212
122	41
123	80
124	12
125	30
126	10
127	55
128	188
129	240
130	112
131	276
132	94
133	288
134	76
135	108
136	19
137	26
138	7
139	18
140	11
141	152
142	164
143	324
144	144
145	460
146	100
147	156
148	34
149	39
150	10
151	20
152	50
153	76
154	58
155	168
156	156
157	138
158	124
159	248
160	53
161	80
162	19
163	20
164	12
165	112
166	68
167	100
168	68
169	218
170	106
171	254
172	80
173	176
174	49
175	76
176	21
177	29
178	54
179	112
180	68
181	124
182	76
183	214
184	72
185	156
186	52
187	94
188	36
189	43
190	25
191	43
192	50
193	104
194	72
195	168
196	80
197	204
198	74
199	128
200	46
201	54
202	39
203	45
204	25
205	43
206	46
207	120
208	68
209	192
210	110
211	144
212	46
213	68
214	23
215	40
216	26
217	34
218	25
219	47
220	36
221	100
222	42
223	104
224	36
225	60
226	24
227	31
228	20
229	31
230	20
231	34
232	25
233	55
234	30
235	80
236	30
237	72
238	26
239	49
240	24
241	43
242	22
243	36
244	22
245	34
246	23
247	52
248	24
249	55
250	26
251	47
252	28
253	47
254	26
255	40
256	25
257	26
258	17
259	34
260	21
261	50
262	24
263	49
264	26
265	48
266	30
267	48
268	31
269	34
270	18
271	23
272	12
273	29
274	16
275	40
276	23
277	40
278	24
279	36
280	25
281	30
282	19
283	20
284	12
285	20
286	10
287	23
288	12
289	25
290	14
291	28
292	16
293	25
294	15
295	19
296	12
297	14
298	8
299	15
300	8
301	16
302	9
303	17
304	10
305	16
306	10
307	17
308	9
309	15
310	8
311	12
312	6
313	12
314	7
315	15
316	9
317	20
318	13
319	22
320	16
321	20
322	12
323	11
324	7
325	12
326	6
327	12
328	7
329	16
330	12
331	24
332	16
333	24
334	18
335	16
336	12
337	8
338	8
339	8
340	6
341	12
342	9
343	18
344	17
345	22
346	21
347	22
348	17
349	21
350	8
351	6
352	6
353	7
354	7
355	12
356	7
357	16
358	11
359	25
360	20
361	19
362	16
363	9
364	6
365	5
366	4
367	4
368	4
369	6
370	4
371	7
372	5
373	11
374	7
375	14
376	14
377	12
378	10
379	6
380	4
381	6
382	4
383	10
384	8
385	14
386	11
387	11
388	8
389	8
390	7
391	7
392	6
393	6
394	9
395	10
396	7
397	16
398	12
399	21
400	13
401	10
402	7
403	5
404	4
405	4
406	3
407	4
408	4
409	7
410	8
411	11
412	11
413	13
414	8
415	8
416	5
417	4
418	3
419	3
420	3
421	6
422	4
423	10
424	11
425	13
426	19
427	13
428	50
429	22
430	26
431	11
432	5
433	3
434	2
435	2
436	2
437	3
438	4
439	4
440	8
441	5
442	18
443	8
444	16
445	11
446	38
447	15
448	6
449	5
450	5
451	7
452	8
453	8
454	10
455	6
456	8
457	5
458	8
459	4
460	13
461	8
462	5
463	8
464	8
465	20
466	21
467	20
468	16
469	9
470	6
471	4
472	3
473	3
474	2
475	2
476	2
477	3
478	4
479	4
480	4
481	8
482	4
483	8
484	3
485	2
486	1
487	1
488	1
489	2
490	2
491	5
492	4
493	4
494	2
495	2
496	1
497	1
502	1
503	1
504	1
505	2
506	2
507	2
508	2
509	2
510	1
511	1
513	1
514	1
515	2
516	2
517	5
518	3
519	8
520	5
521	6
522	4
523	2
524	2
525	1
526	2
527	2
528	7
529	3
530	17
531	10
532	30
533	25
534	134
535	60
536	76
537	30
538	20
539	7
540	4
541	2
542	1
544	1
546	4
547	2
548	13
549	6
550	26
551	20
552	66
