Mass Spectrum: (3R,3aS,6S,7R)-3,6,8,8-Tetramethyloctahydro-1H-3a,7-methanoazulen-6-ol
Formula: C15H26O
CAS: 19903-73-2
Molecular weight: 222
m/z	intensity
26	1
27	34
28	5
29	54
30	1
31	4
38	1
39	78
40	15
41	328
42	25
43	395
44	11
45	23
46	1
50	3
51	20
52	11
53	96
54	17
55	209
56	22
57	46
58	34
59	10
60	1
61	1
62	3
63	6
64	3
65	55
66	17
67	184
68	25
69	310
70	24
71	133
72	109
73	19
74	2
75	4
76	7
77	129
78	27
79	187
80	30
81	385
82	78
83	52
84	8
85	6
87	1
89	4
91	146
92	32
93	193
94	65
95	999
96	97
97	19
98	4
99	34
100	3
102	1
103	11
104	4
105	110
106	27
107	222
108	147
109	202
110	19
111	17
112	3
113	4
114	1
115	12
116	4
117	13
119	130
120	26
121	154
122	96
123	62
127	2
129	3
130	1
133	57
134	22
135	267
136	36
137	33
138	10
139	3
147	45
148	23
149	131
150	674
151	529
152	56
153	5
161	46
162	15
163	15
164	36
165	57
166	20
167	5
175	6
176	3
177	31
178	9
179	7
180	2
189	22
190	3
193	2
203	2
204	13
207	42
208	6
209	1
222	17
223	3
