Mass Spectrum: 4.Xi.-Germacr-9-en-12-oic acid, 6.alpha.-hydroxy-1-oxo-, .gamma.-lactone, (11S)-
Formula: C15H22O3
CAS: 19906-69-5
Molecular weight: 250
m/z	intensity
40	70
41	850
42	120
43	330
44	20
45	20
50	20
51	70
52	50
53	400
54	330
55	950
56	120
57	100
59	20
63	20
65	90
66	40
67	300
68	90
69	670
70	40
71	80
72	10
74	20
77	170
78	40
79	250
80	70
81	350
82	790
83	250
84	120
85	30
86	10
91	20
92	30
93	310
94	180
95	999
96	160
97	180
98	100
99	90
105	70
106	40
107	220
108	100
109	260
110	70
111	150
112	50
113	20
115	20
119	50
120	20
121	250
122	790
123	450
124	180
125	330
126	120
127	30
128	250
129	30
131	20
133	50
134	30
135	100
136	50
137	100
138	70
139	100
140	30
147	30
148	40
149	160
150	50
151	120
152	100
153	50
154	30
155	30
159	30
161	30
162	20
163	40
164	180
165	130
166	50
167	220
168	30
175	30
176	30
177	180
178	30
179	40
180	30
181	10
182	20
189	30
191	10
192	20
193	70
194	50
195	40
204	40
205	20
206	20
207	30
208	20
218	20
222	140
223	20
232	50
235	20
250	200
251	30
