Mass Spectrum: (E)-5-((1R,3R,6S)-2,3-Dimethyltricyclo[2.2.1.02,6]heptan-3-yl)-2-methylpent-2-enal
Formula: C15H22O
CAS: 19903-70-9
Molecular weight: 218
m/z	intensity
26	2
27	56
28	9
29	99
30	2
38	6
39	168
40	31
41	339
42	17
43	176
44	7
50	9
51	49
52	20
53	132
54	28
55	235
56	22
57	19
58	4
62	2
63	18
64	6
65	122
66	49
67	125
69	127
71	35
72	19
75	2
76	2
77	351
78	67
79	387
80	64
81	81
82	75
83	22
84	158
85	14
87	1
89	5
90	2
91	455
92	101
93	999
94	419
95	243
96	40
97	44
98	13
101	2
102	4
103	44
104	16
105	273
106	72
107	339
108	167
110	72
111	12
113	2
115	27
116	11
117	43
118	15
119	268
120	86
121	539
122	254
123	65
124	17
125	25
127	4
128	12
129	11
130	5
131	28
132	26
133	59
134	70
135	73
140	6
141	4
142	3
143	10
144	7
145	35
146	9
147	60
148	44
150	11
151	40
152	21
156	2
157	14
158	4
159	13
160	18
161	21
162	27
163	8
168	1
170	1
171	3
175	40
176	5
178	3
185	13
186	2
187	4
189	19
190	12
191	2
200	5
201	1
203	27
205	4
217	2
218	66
219	11
220	2
