Mass Spectrum: p-Mentha-2,5-dien-7-ol, cis-
Formula: C10H16O
CAS: 19907-88-1
Molecular weight: 152
m/z	intensity
27	60
28	5
29	15
31	72
33	7
39	51
40	6
41	101
42	19
43	595
44	20
50	9
51	36
52	18
53	16
55	9
63	10
65	24
66	5
67	9
75	8
77	116
78	203
79	999
80	72
81	11
91	124
92	30
93	15
103	7
105	57
106	7
107	24
108	25
109	9
119	15
120	82
121	137
122	15
134	6
135	6
152	14
