Mass Spectrum: 4.Xi.,10.xi.-Germacran-12-oic acid, 6.alpha.-hydroxy-1-oxo-, .gamma.-lactone, (11S)-
Formula: C15H24O3
CAS: 19906-67-3
Molecular weight: 252
m/z	intensity
40	50
41	520
42	150
43	200
44	10
45	20
50	20
51	30
52	20
53	150
54	60
55	860
56	130
57	80
63	20
65	40
66	20
67	160
68	90
69	250
70	50
71	60
72	80
73	20
74	20
77	40
78	10
79	60
80	30
81	320
82	180
83	160
84	60
85	50
86	10
91	30
93	80
94	30
95	180
96	50
97	160
98	70
99	120
105	20
106	10
107	70
108	40
109	120
110	70
111	60
112	70
113	20
119	20
121	40
122	20
123	100
124	60
125	999
126	130
127	100
128	80
133	20
134	20
135	30
136	20
137	40
138	30
139	40
140	20
149	80
150	30
151	70
152	30
153	50
154	30
155	20
156	30
161	30
162	10
163	20
164	50
165	30
166	20
167	400
168	70
169	130
177	30
178	30
179	100
180	30
181	70
182	30
190	20
191	20
195	80
196	20
206	30
208	30
209	20
224	50
234	30
252	200
253	30
