Mass Spectrum: 9-Azabicyclo[3.3.1]nonan-3-one, 9-hydroxy-
Formula: C8H13NO2
CAS: 19918-88-8
Molecular weight: 155
m/z	intensity
33	16
34	6
35	0
36	2
37	15
38	55
39	526
40	216
41	999
42	420
43	487
44	92
45	23
46	33
47	2
48	1
49	2
50	24
51	45
52	41
53	165
54	308
55	531
56	91
57	68
58	276
59	483
60	23
61	8
62	4
63	10
64	5
65	33
66	34
67	220
68	240
69	299
70	68
71	34
72	210
73	15
74	2
75	0
76	3
77	28
78	17
79	75
80	250
81	123
82	186
83	105
84	334
85	197
86	70
87	4
88	1
89	0
91	12
92	7
93	24
94	100
95	132
96	559
97	435
98	542
99	37
100	3
101	4
103	1
105	7
106	2
107	8
108	5
109	7
110	26
112	459
113	152
114	13
115	0
117	1
118	1
119	3
120	14
121	8
122	7
123	10
124	3
125	15
126	4
127	3
128	0
136	21
137	8
138	72
139	19
140	13
141	0
151	0
155	648
156	52
157	4
