Mass Spectrum: Silane, (1,1-dimethylethyl)[2-(6-ethenyl-5,6-dihydro-2,2,4-trimethyl-2H-pyran-3-yl]dimethyl
Formula: C18H34O2Si
CAS: 199171-26-1
Molecular weight: 310
m/z	intensity
26	10
27	47
29	83
31	10
39	55
40	1
41	227
42	16
43	531
44	15
45	35
47	45
51	10
52	3
53	63
54	17
55	113
56	27
57	67
58	68
59	167
60	16
61	34
65	28
66	10
67	93
68	7
69	49
71	12
72	11
73	900
74	75
75	999
76	80
77	95
78	15
79	97
80	19
81	141
82	19
83	41
84	2
85	27
87	9
88	21
89	393
90	40
91	128
92	19
93	131
94	20
95	38
96	14
97	19
98	7
99	30
100	8
101	58
102	7
103	48
104	9
105	123
106	17
107	121
108	17
109	49
110	8
111	33
113	18
115	121
116	15
117	23
119	138
120	19
121	215
122	31
123	75
124	25
125	22
127	21
129	73
130	18
131	26
133	43
134	8
135	98
136	13
137	11
139	10
141	71
142	10
143	27
145	60
146	8
147	5
149	12
150	6
151	65
152	9
153	81
154	12
155	63
156	9
157	13
159	8
161	77
162	11
163	379
164	49
165	14
167	47
168	8
169	39
171	8
179	10
181	13
183	11
195	23
197	747
198	124
199	151
200	24
201	4
223	15
239	27
253	87
254	18
295	533
296	142
297	33
