Mass Spectrum: Purine, 6-benzyloxy-2-fluoro-
Formula: C12H9FN4O
CAS: 19916-74-6
Molecular weight: 244
m/z	intensity
41	23
42	5
43	15
44	7
45	9
46	11
47	9
49	0
50	14
51	36
52	12
53	22
54	8
55	9
56	3
57	10
58	5
59	2
60	3
61	4
62	9
63	40
64	14
65	169
66	13
67	5
68	4
69	7
70	3
71	9
72	2
73	14
74	4
75	3
76	3
77	21
78	6
79	7
80	5
81	3
82	2
83	7
84	4
85	5
86	3
87	2
88	2
89	46
90	21
91	999
92	80
93	6
94	2
95	3
96	2
97	4
98	16
99	21
100	1
101	1
102	1
103	2
104	2
105	9
106	3
107	7
108	1
109	5
110	4
111	5
112	5
113	5
114	3
115	3
116	5
117	2
118	3
119	7
120	1
121	3
122	6
123	1
125	11
126	3
127	0
128	2
129	2
131	2
132	0
133	0
134	4
135	2
136	1
137	3
138	101
139	51
140	4
141	3
142	3
143	2
147	0
149	1
150	1
152	1
153	3
154	5
155	2
156	1
157	0
165	2
166	1
167	7
168	2
169	2
170	2
171	0
179	1
180	2
181	3
182	1
183	0
187	0
188	3
189	0
195	3
196	2
197	0
198	1
200	1
213	0
215	19
216	3
217	0
223	5
224	5
225	8
226	1
227	9
228	5
229	1
242	0
243	72
244	266
245	38
246	3
