Mass Spectrum: 5-Benzofuranacetic acid, 6-ethenyl-4,5,6,7-tetrahydro-3,6-dimethyl-.alpha.-methylene-, methyl ester
Formula: C16H20O3
CAS: 19912-86-8
Molecular weight: 260
m/z	intensity
15	22
18	6
27	72
28	27
29	51
31	12
38	11
39	103
40	31
41	96
42	39
43	72
44	11
45	30
50	31
51	65
52	37
53	85
55	114
56	8
57	11
59	62
62	8
63	35
64	16
65	71
66	30
67	35
68	11
69	30
70	9
71	9
74	9
75	11
76	11
77	147
78	45
79	150
80	31
81	21
82	8
83	9
84	4
85	9
89	10
90	5
91	135
92	20
93	32
94	5
95	23
96	6
97	4
98	15
103	6
104	20
105	85
106	8
107	11
108	999
109	102
110	11
115	31
116	10
117	19
118	7
119	22
120	7
121	14
122	5
126	4
127	7
128	19
129	15
130	4
131	14
132	11
133	26
134	6
135	13
141	6
142	5
143	10
145	28
146	7
147	9
148	62
149	26
157	5
159	8
160	4
161	15
171	4
172	3
173	5
185	9
192	10
199	2
200	3
201	5
205	3
228	1
229	2
260	13
261	2
