Mass Spectrum: Epicubenol
Formula: C15H26O
CAS: 19912-67-5
Molecular weight: 222
m/z	intensity
27	35
29	43
39	78
40	14
41	297
42	29
43	268
45	10
51	22
52	12
53	111
54	15
55	312
56	50
57	69
59	11
65	72
66	25
67	155
68	27
69	236
70	37
71	47
72	47
73	6
77	176
78	35
79	271
80	43
81	315
82	259
83	110
84	21
85	27
91	229
92	79
93	273
94	83
95	331
96	39
97	87
98	23
99	9
103	25
104	9
105	488
106	65
107	223
108	90
109	306
110	158
111	133
112	14
115	25
117	31
118	33
119	999
120	193
121	194
122	120
123	227
124	29
125	15
128	15
129	11
130	8
131	19
133	65
134	25
135	85
136	29
137	68
138	26
139	21
141	5
145	13
147	43
148	29
149	20
150	12
151	23
152	5
153	33
154	10
160	18
161	828
162	128
164	13
165	15
166	5
179	540
180	73
189	39
190	5
204	360
205	55
206	5
207	33
208	5
222	7
