Mass Spectrum: (2S,2'S,5S,5'S)-2,5'-Dimethyl-5-(prop-1-en-2-yl)-5'-vinylhexahydro-[2,2'-bifuran]-3(2H)-one
Formula: C15H22O3
CAS: 199115-10-1
Molecular weight: 250
m/z	intensity
27	34
28	9
29	30
31	5
38	4
39	115
40	37
41	291
42	44
43	999
44	29
45	12
48	1
50	6
51	18
52	14
53	144
54	16
55	555
56	29
57	18
65	49
66	19
67	282
68	219
69	548
70	40
71	35
72	13
77	82
78	8
79	72
80	19
81	173
82	20
83	117
85	41
86	3
91	94
92	8
93	611
94	58
95	70
96	37
97	441
98	37
105	9
106	6
107	22
109	46
110	36
111	694
112	64
113	9
119	6
122	26
123	18
125	27
131	12
132	3
137	6
138	5
139	55
140	687
141	59
145	13
147	7
150	6
151	5
153	6
159	3
167	6
187	9
193	1
202	4
218	4
219	1
223	1
234	1
235	6
250	1
