Mass Spectrum: 2-Fluoro-5-(trifluoromethyl)benzophenone
Formula: C14H8F4O
CAS: 199292-40-5
Molecular weight: 268
m/z	intensity
18	3
26	0
27	20
37	3
38	10
39	16
50	114
51	283
52	13
53	6
56	3
57	12
61	4
62	11
63	29
68	13
69	40
73	6
74	41
75	55
76	33
77	482
78	32
80	2
81	7
85	5
86	4
87	5
88	2
92	5
93	23
94	32
95	6
98	4
99	14
100	4
101	1
105	999
106	71
107	5
109	2
110	5
111	3
112	10
113	54
114	5
117	4
118	3
119	4
120	12
122	2
123	6
124	3
125	11
131	2
132	2
137	2
143	52
144	24
145	3
149	2
150	5
151	6
152	2
161	2
163	199
164	15
168	2
169	7
170	11
171	6
179	4
181	2
188	3
191	284
192	26
193	4
199	33
200	6
201	8
219	14
220	3
240	6
247	2
249	61
250	10
268	442
269	57
270	6
