Mass Spectrum: Carbamic acid, nitrosopropyl-, ethyl ester
Formula: C6H12N2O3
CAS: 19935-86-5
Molecular weight: 160
m/z	intensity
27	475
29	999
30	800
31	275
37	17
38	15
39	112
40	70
41	250
42	225
43	425
44	300
45	175
46	82
47	15
50	15
54	30
56	400
57	122
58	52
59	90
60	40
70	30
74	30
84	107
85	57
86	52
87	40
100	12
102	110
103	37
113	12
115	57
116	12
127	12
129	15
131	27
136	15
141	15
160	27
