Mass Spectrum: Bicyclo[1.1.0]butane-1-carboxylic acid, 2,2,4,4-tetramethyl-, methyl ester
Formula: C10H16O2
CAS: 19931-20-5
Molecular weight: 168
m/z	intensity
26	125
27	835
28	185
29	710
31	196
38	110
39	894
40	263
41	934
42	200
43	967
45	245
50	434
53	691
55	774
58	345
59	631
65	450
67	946
69	231
73	999
77	672
79	600
81	433
83	216
91	520
93	982
94	291
107	252
108	313
109	576
121	132
136	215
137	159
168	150
