Mass Spectrum: (E)-4,8-Dimethylnona-1,3,7-triene
Formula: C11H18
CAS: 19945-61-0
Molecular weight: 150
m/z	intensity
27	28
29	16
38	7
39	100
40	31
41	458
42	16
43	17
48	3
50	8
51	22
52	11
53	99
54	10
55	37
57	6
63	6
65	40
66	14
67	84
68	24
69	999
70	72
71	8
77	46
78	12
79	100
80	16
81	148
82	89
91	24
92	8
93	23
94	25
106	10
107	62
108	19
109	5
121	23
122	32
123	6
125	4
135	66
136	5
150	68
151	13
