Mass Spectrum: Galactopyranose, 6-O-(2,3-dideoxy-.alpha.-D-erythro-hex-2-enopyranosyl)-1,2:3,4-di-O-isopropylidene-, diacetate, .alpha.-D-
Formula: C22H32O11
CAS: 19940-05-7
Molecular weight: 472
m/z	intensity
54	91
55	50
56	191
57	50
58	150
59	83
60	433
61	75
96	225
97	66
98	187
99	66
100	83
101	487
102	91
109	141
110	104
111	999
112	70
113	304
114	62
127	241
128	66
129	50
139	29
141	25
143	75
153	624
154	58
171	233
185	100
201	66
213	620
214	75
229	70
245	270
246	29
328	283
329	50
338	54
370	325
371	70
412	29
413	16
457	116
458	12
