Mass Spectrum: Ethyl 5-[4-pyridyl]pyrazole-3-carboxylate
Formula: C11H11N3O2
CAS: 19959-81-0
Molecular weight: 217
m/z	intensity
41	40
42	6
43	37
45	92
47	3
49	16
50	85
51	231
52	47
53	25
54	8
55	4
57	1
58	20
60	0
61	21
62	127
63	119
64	37
66	68
67	31
68	3
69	3
70	0
71	2
72	5
74	16
75	18
76	35
77	35
78	100
79	25
80	0
82	1
84	7
86	58
87	44
88	126
89	93
90	48
91	4
92	0
93	1
94	0
95	0
97	0
99	0
100	0
101	2
102	2
103	10
104	15
105	68
106	4
109	0
111	0
114	59
115	999
116	16
117	60
118	14
119	6
120	1
124	0
128	0
129	0
130	5
131	9
132	11
134	0
142	0
143	42
144	9
145	38
150	2
156	1
157	2
158	0
160	5
161	0
170	7
171	120
172	230
173	10
174	0
184	1
189	74
190	3
198	0
200	0
202	8
203	0
217	737
218	113
219	10
220	0
