Mass Spectrum: Acetic acid, (4,5-dihydro-1H-imidazol-2-ylthio)-
Formula: C5H8N2O2S
CAS: 19951-23-6
Molecular weight: 160
m/z	intensity
33	5
34	4
39	19
40	7
41	234
42	438
43	327
44	276
45	334
46	163
47	66
48	9
49	4
50	21
51	23
52	8
53	11
54	30
55	51
56	56
57	32
58	52
59	61
60	79
61	11
62	3
63	5
64	2
65	7
66	3
67	11
68	45
69	70
70	302
71	81
72	999
73	141
74	118
75	21
76	9
77	75
78	6
79	4
81	23
82	12
83	56
84	13
85	47
86	57
87	167
88	16
89	13
90	3
91	4
92	19
93	61
94	6
95	5
96	5
97	14
98	8
99	13
100	101
101	67
102	241
103	23
104	16
105	169
106	15
107	2
108	1
109	4
110	3
111	7
112	6
113	103
114	273
115	406
116	839
117	75
118	42
119	7
120	22
121	5
122	2
131	59
132	4
133	0
141	31
142	111
143	20
144	7
145	3
146	1
159	12
160	266
161	33
162	14
163	1
