Mass Spectrum: 1,3-Dioxolan-4-one, 5,5-diphenyl-
Formula: C15H12O3
CAS: 19962-65-3
Molecular weight: 240
m/z	intensity
77	493
105	999
106	73
115	56
139	69
152	56
163	95
164	99
165	896
166	367
167	82
181	90
182	398
183	160
194	86
195	757
196	601
197	90
240	528
241	90
