Mass Spectrum: Methyl 1-benzoyl-3-[1-(chloromethyl)cyclopropyl]-5-methyl-4,5-dihydro-1H-pyrazole-5-carboxylate
Formula: C17H19ClN2O3
CAS: 199783-49-8
Molecular weight: 334
m/z	intensity
34	0
35	0
36	1
37	0
38	3
39	24
40	18
41	18
42	8
43	5
44	6
45	3
49	2
50	18
51	87
52	13
53	30
54	8
55	7
56	4
57	1
58	0
59	16
60	0
61	1
62	1
63	6
64	3
65	16
66	7
67	7
68	2
69	3
70	0
71	0
73	2
74	4
75	7
76	22
77	474
78	38
79	17
80	4
81	3
82	1
83	4
85	0
87	1
88	0
89	2
90	1
91	23
92	6
93	7
94	6
95	9
96	1
97	1
99	0
100	0
101	0
102	1
103	6
105	999
106	77
107	11
108	3
109	4
110	0
111	0
113	0
114	0
115	1
116	0
117	1
118	2
119	2
120	2
121	2
122	1
123	1
124	0
125	0
126	0
127	0
128	1
129	0
132	0
133	5
135	44
136	4
137	1
138	0
141	1
142	0
143	0
146	0
147	0
151	0
154	1
156	0
160	0
161	1
167	0
168	0
169	8
170	5
171	3
172	1
173	0
177	0
178	0
180	0
183	0
185	0
193	2
194	0
195	0
197	1
198	0
199	0
211	0
228	1
229	103
230	12
231	32
232	4
239	7
240	1
247	0
273	0
274	0
275	83
276	14
277	27
278	4
299	68
300	13
301	1
334	18
335	3
336	6
337	0
