Mass Spectrum: Propane, 1,3-bis[(phenyl-(N(O)N-diazenoxido)oxy]-
Formula: C15H16N4O4
CAS: 199739-54-3
Molecular weight: 316
m/z	intensity
33	2
34	0
36	0
37	5
38	11
39	28
40	16
41	52
42	30
43	7
44	5
45	6
46	0
47	0
50	68
51	195
52	13
53	4
54	5
55	4
56	2
57	9
58	1
59	3
60	14
62	4
63	9
64	13
65	17
66	4
67	0
69	1
72	212
74	19
75	16
77	999
78	97
79	6
80	1
81	1
82	0
83	0
84	0
85	0
86	0
88	5
89	3
91	30
92	6
93	8
94	4
95	1
96	0
97	0
98	0
101	0
102	0
105	105
107	274
108	140
109	9
110	0
111	0
112	0
113	0
115	1
116	0
117	1
118	2
119	1
121	40
122	5
123	1
124	0
125	0
126	0
127	1
128	1
129	0
130	1
131	0
132	0
133	2
134	0
135	0
137	8
139	7
140	0
141	0
142	0
143	0
144	0
145	0
146	0
148	10
149	2
150	0
151	1
152	1
153	2
154	3
155	0
156	0
157	0
158	0
160	0
162	0
163	0
164	0
165	0
166	0
167	0
168	0
169	0
170	0
171	0
174	0
176	1
179	75
180	7
181	0
182	0
183	0
184	0
185	0
192	0
195	56
196	6
197	0
198	0
202	0
207	0
209	2
210	0
212	0
283	0
302	0
313	0
314	0
316	10
317	1
318	0
