Mass Spectrum: Mandelic acid, .alpha.-cyano-, ethyl ester, benzoate (ester)
Formula: C18H15NO4
CAS: 19971-69-8
Molecular weight: 309
m/z	intensity
41	40
42	16
43	40
45	26
50	60
51	83
52	33
56	33
58	43
59	40
62	33
63	60
65	33
70	33
72	26
74	40
75	33
76	60
77	134
78	67
83	33
88	40
89	67
90	40
91	40
103	20
104	40
105	999
106	127
107	40
114	43
115	100
116	107
117	100
118	20
122	73
132	40
133	60
143	40
145	40
150	26
160	134
161	26
165	43
192	67
193	67
219	26
237	244
238	40
264	67
265	201
266	67
