Mass Spectrum: 2-Oxepanone, 7-(2-phenylethyl)-
Formula: C14H18O2
CAS: 199797-18-7
Molecular weight: 218
m/z	intensity
26	6
27	58
28	207
30	1
31	4
34	1
38	6
39	90
40	10
41	156
42	40
43	62
44	17
45	6
50	13
51	57
52	16
53	23
54	12
55	207
56	42
57	74
58	7
59	2
60	3
61	2
62	5
63	26
64	8
65	131
66	10
67	129
68	18
69	8
70	16
71	7
73	6
74	4
75	11
76	6
77	79
78	84
79	55
80	36
81	70
82	9
83	23
84	14
85	76
86	8
87	2
89	22
90	9
91	593
92	272
93	23
94	15
95	17
96	8
97	0
98	11
99	4
101	12
102	9
103	42
104	999
105	189
106	16
107	7
108	2
109	57
110	6
111	3
112	1
113	11
114	5
115	71
116	27
117	727
118	110
119	12
120	5
121	6
122	6
125	2
126	9
127	103
128	22
129	38
130	32
131	144
132	26
133	25
134	43
135	0
136	2
140	6
141	9
143	29
144	16
145	21
146	3
147	4
149	2
151	2
153	3
154	3
156	45
157	8
158	108
159	25
160	2
161	3
165	1
167	2
169	3
171	8
172	28
173	5
182	11
183	2
185	2
191	1
199	3
200	77
201	10
207	1
218	212
219	31
220	4
