Mass Spectrum: Hexane, 1,1,1,2,2,3,3,4,5,5,6,6,6-tridecafluoro-
Formula: C6HF13
CAS: 1998-67-0
Molecular weight: 320
m/z	intensity
31	49
50	9
51	320
69	999
82	35
93	15
94	3
100	42
101	10
112	2
113	230
119	490
131	63
132	6
151	20
163	46
169	280
181	13
201	200
213	11
231	34
251	9
