Mass Spectrum: 6-[3-Piperidino-1-hydroxypropyl]-2-phenylbenzothiazole
Formula: C21H24N2OS
CAS: 19989-53-8
Molecular weight: 352
m/z	intensity
41	133
42	128
43	52
44	95
45	15
47	0
50	2
51	10
52	1
53	5
54	11
55	122
56	51
57	39
58	12
59	1
62	2
63	35
64	2
65	29
66	2
67	5
68	8
69	52
70	65
71	7
72	1
74	1
75	2
76	2
77	19
78	5
79	6
80	1
81	3
82	11
83	13
84	55
85	105
86	25
87	1
89	6
90	3
91	4
93	1
94	1
95	1
96	19
97	27
98	999
99	124
100	5
102	2
103	3
104	6
105	2
106	1
107	9
108	13
109	57
110	17
111	11
112	41
113	13
114	6
115	1
119	1
120	1
121	12
122	2
123	3
124	2
131	0
133	2
134	3
135	2
136	0
138	2
139	1
140	2
141	5
142	1
147	1
161	1
164	4
166	1
167	1
183	1
184	1
192	1
206	3
209	3
210	5
211	5
212	13
213	2
224	3
225	3
226	1
236	1
237	5
238	7
239	2
240	3
241	3
253	0
254	8
255	1
266	3
267	1
351	2
352	39
353	12
354	3
