Mass Spectrum: 1,3,5-Triazin-2(1H)-one, 4-amino-6-[(1-methylethyl)amino]-
Formula: C6H11N5O
CAS: 19988-24-0
Molecular weight: 169
m/z	intensity
41	344
42	387
43	999
44	515
55	86
56	43
57	86
58	473
59	43
67	65
68	129
69	473
70	129
71	43
73	65
77	43
83	65
84	65
85	129
86	366
95	65
111	151
112	537
113	43
126	43
127	366
154	816
155	43
169	430
170	43
