Mass Spectrum: 1-(Trimethylsilyloxy)cyclopentene
Formula: C8H16OSi
CAS: 19980-43-9
Molecular weight: 156
m/z	intensity
53	100
55	175
56	20
59	25
73	999
74	40
75	500
76	30
141	160
142	20
155	295
156	400
157	62
158	16
159	1
