Mass Spectrum: N-Benzyl-2,2,3,3,3-pentafluoro-N-methylpropanamide
Formula: C11H10F5NO
CAS: 1998-96-5
Molecular weight: 267
m/z	intensity
15	7
26	1
27	6
28	9
29	4
30	1
31	6
33	1
37	1
38	7
39	58
40	6
41	22
42	98
43	11
44	2
49	1
50	29
51	64
52	15
53	3
54	1
55	1
56	9
57	9
58	10
60	2
61	2
62	12
63	42
64	13
65	148
66	9
69	48
70	1
74	17
75	5
76	9
77	49
78	25
79	121
80	9
81	2
83	1
85	1
86	2
87	2
89	51
91	999
92	99
93	5
100	9
101	2
102	1
103	5
104	27
105	15
106	2
107	74
108	6
109	6
110	2
112	7
116	2
117	4
118	44
119	153
120	14
121	2
122	1
126	1
127	15
128	4
130	1
131	1
132	8
133	8
135	1
140	2
141	4
142	1
146	19
147	35
148	206
149	22
150	2
151	1
154	1
160	61
161	3
162	1
164	1
165	1
166	1
174	1
176	2
177	8
178	4
180	2
190	17
191	1
198	1
225	2
250	1
251	6
252	79
253	9
254	1
266	39
267	238
268	32
269	2
