Mass Spectrum: dl-Alanyl-dl-methionine
Formula: C8H16N2O3S
CAS: 1999-43-5
Molecular weight: 220
m/z	intensity
15	7
16	1
17	3
18	10
26	3
27	19
28	35
29	9
30	6
32	2
35	7
39	8
40	3
41	17
42	25
43	17
44	999
45	30
46	6
47	15
48	6
49	4
53	2
54	6
55	10
56	41
57	11
58	4
59	5
60	2
61	58
62	6
63	3
68	2
69	3
70	6
71	5
72	2
73	8
74	7
75	13
81	1
82	2
83	8
84	5
85	5
86	2
87	5
88	7
91	2
97	2
98	2
99	5
100	5
101	7
102	3
103	4
104	15
105	2
110	1
111	6
112	2
113	12
114	2
115	1
116	3
127	3
128	36
129	18
130	3
131	5
141	8
146	48
147	5
148	2
149	2
150	2
157	3
159	13
174	2
175	2
176	3
177	4
203	11
204	3
220	1
221	26
222	4
223	2
