Mass Spectrum: N-[2-[1,4-Naphthoquinonyl]]-.alpha.-amino-p-toluenesulfonamide
Formula: C17H14N2O4S
CAS: 19992-51-9
Molecular weight: 342
m/z	intensity
41	228
42	86
43	110
44	60
45	59
47	307
48	258
49	180
50	505
51	88
52	87
53	105
55	42
59	95
62	79
63	271
64	538
65	98
66	34
68	391
69	24
72	31
74	130
75	213
76	662
77	684
78	163
79	42
80	30
84	110
86	73
88	179
89	999
90	475
91	121
94	49
95	36
99	23
101	198
102	373
103	26
104	460
105	714
106	456
107	619
108	88
115	45
116	123
117	114
118	54
121	24
122	39
128	64
129	84
130	26
131	185
138	30
145	81
146	275
147	25
154	26
157	35
158	35
170	44
172	54
173	492
174	67
184	25
185	188
186	39
204	39
232	32
233	23
245	23
260	26
261	44
262	30
325	307
326	33
341	60
342	103
