Mass Spectrum: dl-Alanyl-dl-leucine
Formula: C9H18N2O3
CAS: 1999-42-4
Molecular weight: 202
m/z	intensity
15	4
16	1
17	13
18	7
26	1
27	15
28	24
29	20
30	11
31	1
32	3
39	8
40	2
41	24
42	18
43	14
44	999
45	33
46	1
53	2
54	2
55	7
56	8
57	13
58	4
67	1
68	1
69	9
70	5
71	4
72	1
73	4
74	3
75	1
81	1
83	2
84	6
85	5
86	26
87	3
95	1
96	1
97	2
98	2
99	8
101	2
111	2
112	2
113	6
114	1
126	1
127	1
128	22
129	4
130	1
141	10
142	1
146	4
149	1
155	1
157	2
159	2
202	4
