Mass Spectrum: dl-Alanyl-dl-asparagine
Formula: C7H13N3O4
CAS: 1999-41-3
Molecular weight: 203
m/z	intensity
12	2
14	8
15	58
16	80
17	106
18	228
25	2
26	27
27	99
28	111
29	17
30	18
31	4
38	5
39	11
40	31
41	69
42	176
43	147
44	999
45	37
46	6
51	4
52	10
53	14
54	44
55	134
56	63
57	30
58	6
59	122
60	22
65	2
66	3
67	7
68	16
69	55
70	141
71	61
72	18
73	6
74	1
77	2
78	2
79	3
80	9
81	24
82	10
83	10
84	11
85	17
86	14
87	53
88	38
89	5
91	2
93	2
94	3
95	10
96	20
97	78
98	44
99	79
100	17
101	2
105	2
107	2
108	2
109	5
110	5
111	8
112	31
113	36
114	9
115	9
120	3
121	4
122	4
123	10
124	84
125	31
126	122
127	88
128	9
129	3
135	2
137	3
138	6
139	6
140	136
141	30
142	14
143	9
149	4
150	3
151	3
152	6
153	3
157	9
158	2
163	1
165	3
166	5
167	22
168	175
169	19
170	4
178	1
179	1
185	89
186	48
187	5
193	3
194	6
195	4
