Mass Spectrum: 3,5,6-Tris(trifluoromethyl)-1-acetylcyclohexa-1,4-diene
Formula: C11H7F9O
CAS: 199939-06-5
Molecular weight: 326
m/z	intensity
43	999
44	23
45	2
50	32
69	53
145	152
146	12
173	52
174	4
195	83
196	7
212	11
213	123
237	252
238	28
239	2
241	82
242	8
257	53
258	5
263	52
264	4
307	122
308	15
309	1
311	505
312	57
313	4
326	105
327	13
328	1
