Mass Spectrum: 1H-Pyrazole-1-ethanol, 3,5-dimethyl-
Formula: C7H12N2O
CAS: 20000-80-0
Molecular weight: 140
m/z	intensity
33	10
34	3
35	4
36	17
37	25
38	77
39	448
40	177
41	405
42	504
43	69
44	26
45	27
47	0
48	0
50	25
51	41
52	61
53	121
54	100
55	76
56	43
57	2
58	0
59	0
61	3
62	14
63	28
64	15
65	63
66	60
68	325
69	42
70	5
75	0
77	6
79	83
80	54
81	49
82	97
83	10
85	1
92	13
93	10
95	279
96	384
97	119
98	3
105	0
107	19
109	999
110	220
111	13
121	0
122	0
123	0
140	185
141	11
142	0
