Mass Spectrum: 2-Pentanone, 4-methyl-1-(2,3,4,5-tetrahydro-5-methyl[2,3'-bifuran]-5-yl)-
Formula: C15H22O3
CAS: 20007-82-3
Molecular weight: 250
m/z	intensity
29	451
30	8
31	24
39	467
40	96
41	725
42	129
43	999
44	35
50	32
51	88
52	56
53	193
54	80
55	225
56	41
57	887
58	56
66	46
67	59
68	59
69	108
77	177
79	258
81	145
83	387
85	967
86	56
91	48
93	30
94	96
95	193
96	35
97	145
105	30
107	129
108	177
109	88
110	161
111	17
116	16
118	19
120	19
133	32
135	35
140	24
150	161
151	774
152	88
154	24
217	24
232	8
233	6
235	9
250	104
