Mass Spectrum: 1,6(2H,7H)-Naphthalenedione, 3,4,8,8a-tetrahydro-8a-methyl-
Formula: C11H14O2
CAS: 20007-72-1
Molecular weight: 178
m/z	intensity
14	4
15	14
25	1
26	24
27	259
28	68
29	99
30	2
31	3
32	0
37	9
38	48
39	599
40	141
41	331
42	86
43	61
44	4
45	19
46	24
47	6
49	3
50	78
51	228
52	153
53	221
54	19
55	999
56	35
57	17
58	13
59	24
60	25
61	11
62	24
63	80
64	25
65	212
66	168
67	196
68	25
69	21
70	2
71	1
73	2
74	12
75	8
76	1
77	428
78	107
79	737
80	374
81	56
82	18
83	5
84	2
86	2
87	2
89	10
90	1
91	284
92	41
93	496
94	259
95	121
96	16
97	3
102	2
103	16
104	5
105	43
107	309
108	537
109	49
110	5
115	9
116	2
117	21
118	9
119	9
121	924
122	609
123	86
124	14
125	0
130	0
131	6
132	7
133	30
134	8
135	256
136	296
137	52
138	4
142	0
143	0
145	24
146	2
147	3
148	0
149	15
150	171
151	16
152	1
159	4
160	468
161	57
162	3
163	99
164	9
177	6
178	309
179	37
180	3
