Mass Spectrum: Ethanimidamide, 2,2'-iminobis[N-hydroxy-
Formula: C4H11N5O2
CAS: 20004-00-6
Molecular weight: 161
m/z	intensity
41	148
42	90
43	333
44	999
45	110
57	146
69	185
73	110
74	146
83	66
84	700
85	60
88	73
100	74
102	148
110	55
115	58
127	88
144	483
145	30
161	4
162	0
