Mass Spectrum: Mono-[N-[2-[3-chloro-1,4-naphthoquinonyl]]bis[p-aminophenyl]sulfone
Formula: C22H15ClN2O4S
CAS: 20013-15-4
Molecular weight: 438
m/z	intensity
65	619
76	333
77	169
80	147
92	584
93	280
105	50
108	999
109	166
140	423
141	187
156	299
170	203
190	44
438	844
439	222
440	282
