Mass Spectrum: 2-Benzyloxyaniline
Formula: C13H13NO
CAS: 20012-63-9
Molecular weight: 199
m/z	intensity
25	1
26	10
27	43
28	59
29	226
30	34
31	3
33	5
34	0
35	1
37	3
38	12
39	99
40	8
41	32
42	6
43	27
44	1
45	4
46	3
49	1
50	18
51	55
52	60
53	86
54	19
55	4
56	1
57	2
58	6
59	13
60	3
61	2
62	8
63	37
64	17
65	167
66	13
67	2
68	0
69	0
70	0
71	1
73	1
74	2
75	3
76	4
77	23
78	13
79	32
80	252
81	19
82	1
83	1
85	0
86	0
87	1
88	1
89	23
90	13
91	999
92	93
93	6
94	1
95	0
98	1
101	1
102	0
103	1
104	1
105	3
106	1
107	14
108	769
109	72
110	4
115	1
116	0
117	0
119	0
120	5
121	3
122	2
123	0
127	0
128	2
129	0
131	1
133	0
139	0
141	0
143	0
146	0
148	5
149	0
151	0
152	2
153	2
154	1
165	0
166	0
167	2
168	1
169	0
170	2
171	0
179	0
180	2
181	2
182	0
183	0
184	2
195	5
196	2
197	0
198	6
199	381
200	59
201	4
