Mass Spectrum: 2,4:3,5-Diethylidene-xylosecarboxylic acid, methyl(ester)
Formula: C10H16O6
CAS: 200116-51-4
Molecular weight: 232
m/z	intensity
41	277
43	999
45	979
46	16
47	49
48	1
49	21
50	1
51	10
52	0
53	13
54	10
55	173
56	162
57	571
58	149
59	308
61	472
62	10
63	2
67	5
68	171
69	308
70	87
71	355
72	69
73	76
74	14
75	116
76	4
77	4
78	3
79	2
81	26
82	9
83	63
84	30
85	233
86	245
87	276
88	20
89	27
90	5
91	11
95	7
96	27
97	115
98	21
99	885
100	653
101	160
102	18
103	34
104	7
105	174
106	10
107	0
111	16
112	168
113	73
114	61
115	110
116	11
117	30
118	2
124	1
126	2
127	10
128	13
129	92
130	186
131	22
132	3
133	2
140	2
141	15
142	4
143	36
144	105
145	15
146	2
147	3
155	0
156	4
157	10
158	8
159	131
160	15
161	4
171	1
173	48
174	7
175	5
185	1
186	2
187	122
188	11
189	5
190	0
191	2
201	41
202	9
217	24
218	6
231	2
232	40
233	5
