Mass Spectrum: 1-[p-Chlorophenyl]-3-[4-[[2-[diethylamino]ethyl]amino]-6-[trifluoromethyl]-2-[pyrimidinyl]guanidine
Formula: C18H23ClF3N7
CAS: 200113-98-0
Molecular weight: 429
m/z	intensity
41	7
42	23
43	27
44	22
46	5
47	4
48	2
49	27
50	4
51	10
52	3
53	2
54	4
55	3
56	22
57	6
58	74
59	3
61	1
62	2
63	6
64	4
65	11
66	3
67	5
68	5
69	5
70	8
71	14
72	7
73	3
74	2
75	10
76	3
77	1
79	1
80	0
81	0
82	0
83	1
84	28
86	999
87	58
88	3
90	7
91	4
92	9
93	2
94	1
96	0
97	1
98	3
99	166
100	16
101	1
102	3
106	0
111	14
112	1
113	5
117	7
118	1
120	1
125	5
126	2
127	43
128	3
129	14
130	1
131	0
133	0
136	0
137	3
138	0
142	3
149	2
151	1
152	10
153	7
154	3
155	2
162	4
163	4
170	0
171	2
178	2
179	2
187	0
188	1
191	9
192	0
203	2
204	2
205	5
216	1
230	2
330	1
331	9
332	2
333	2
343	2
429	2
430	0
