Mass Spectrum: N-Bromo-2-methylaziridine, 1,2-trans
Formula: C3H6BrN
CAS: 20012-79-7
Molecular weight: 135
m/z	intensity
26	113
27	410
28	899
29	365
30	275
31	21
39	57
40	81
41	359
42	86
43	22
54	68
55	57
56	999
57	149
58	32
106	41
107	10
108	39
109	9
135	41
136	2
137	39
138	2
