Mass Spectrum: 1,1,1,3,5,7,7,7-Octamethyl-3,5-bis(trimethylsiloxy)tetrasiloxane
Formula: C14H42O5Si6
CAS: 2003-92-1
Molecular weight: 458
m/z	intensity
45	90
59	110
68	60
73	999
74	190
75	90
147	360
148	110
149	60
207	80
221	300
222	100
267	220
281	240
355	280
356	100
357	70
443	250
444	110
445	70
