Mass Spectrum: Pentachlorophenyl trans-crotonate
Formula: C10H5Cl5O2
CAS: 20031-89-4
Molecular weight: 332
m/z	intensity
28	2
36	2
38	3
39	43
40	9
41	163
42	7
53	1
60	2
67	1
68	15
69	999
70	49
71	3
95	7
97	2
103	4
105	2
106	1
107	1
108	1
117	4
118	1
119	4
121	1
130	9
131	1
132	6
134	1
141	6
142	1
143	6
144	1
145	2
165	14
167	13
169	4
200	3
202	4
204	2
212	1
214	1
228	2
230	2
232	1
235	9
237	13
239	9
241	3
247	1
249	2
251	1
263	2
264	8
265	4
266	12
267	3
268	8
269	1
270	2
332	24
333	3
334	41
335	4
336	26
337	3
338	8
339	1
340	1
