Mass Spectrum: Cyclopropanecarboxylic acid, 2-phenyl-, methyl ester
Formula: C11H12O2
CAS: 20030-70-0
Molecular weight: 176
m/z	intensity
26	11
27	59
29	23
30	5
31	9
37	8
38	29
39	199
40	19
41	29
43	9
50	65
51	161
52	39
53	13
55	45
57	13
58	32
59	69
61	11
62	47
63	143
64	35
65	118
66	10
72	6
74	29
75	29
76	28
77	120
78	61
79	19
85	7
86	10
87	18
88	11
89	108
90	31
91	339
92	28
101	6
102	43
103	46
104	40
105	53
106	5
113	11
114	19
115	676
116	368
117	999
118	115
119	10
121	301
122	30
127	67
128	12
129	5
131	13
133	73
134	45
135	6
143	7
144	277
145	184
146	20
161	12
175	7
176	399
177	52
178	5
