Mass Spectrum: N1-(1,3-Thiazol-2-yl)-3-methylbenzamide
Formula: C11H10N2OS
CAS: 200403-55-0
Molecular weight: 218
m/z	intensity
33	2
34	1
37	5
38	16
39	113
40	24
41	31
42	2
44	15
45	71
46	5
47	4
48	0
49	2
50	24
51	40
52	9
53	10
55	79
57	19
58	26
59	8
60	2
61	6
62	25
63	75
64	33
65	254
66	15
67	0
69	1
70	4
71	6
72	3
73	2
74	6
75	6
76	5
77	6
78	1
79	0
81	0
82	0
83	1
85	2
86	4
87	4
89	75
91	670
92	45
93	2
94	0
95	0
98	1
99	10
100	4
101	0
102	0
103	0
104	1
105	1
108	1
109	0
111	0
115	0
116	3
119	999
120	79
121	5
122	0
127	1
129	0
130	0
135	0
171	0
174	0
183	0
185	0
190	60
191	7
192	2
193	0
215	1
217	11
218	89
219	11
220	4
221	0
