Mass Spectrum: 1-Heptacosanol
Formula: C27H56O
CAS: 2004-39-9
Molecular weight: 396
m/z	intensity
26	1
27	21
28	4
29	85
30	2
31	40
38	1
39	28
41	385
42	114
43	734
44	30
45	8
51	1
52	1
53	23
54	84
55	837
56	350
57	999
58	44
59	2
65	5
66	14
67	158
68	301
69	756
70	334
71	537
72	30
73	13
74	1
77	4
78	1
79	15
80	12
81	138
82	465
83	951
84	255
85	373
86	24
87	3
91	3
93	4
94	6
95	94
96	240
97	969
98	178
99	104
100	8
101	1
107	1
108	3
109	46
110	98
111	537
112	122
113	61
114	5
122	4
123	30
124	68
125	271
126	79
127	39
128	4
136	2
137	17
138	44
139	106
140	47
141	24
142	2
151	6
152	26
153	61
154	34
155	16
156	1
165	3
166	19
167	39
168	24
169	11
170	1
179	2
180	14
181	23
182	16
183	7
194	11
195	15
196	13
197	5
198	1
208	10
209	10
210	9
211	4
221	1
222	9
223	8
224	7
225	3
236	7
237	6
238	6
239	2
250	6
251	4
252	5
253	1
264	6
265	4
266	5
267	1
278	6
279	3
280	4
281	1
292	4
293	3
294	4
295	1
306	4
307	3
308	3
309	2
320	3
321	2
322	3
323	1
334	2
335	2
336	1
348	2
349	1
350	16
351	4
352	1
376	2
378	16
379	5
380	1
