Mass Spectrum: Hotrienol
Formula: C10H16O
CAS: 20053-88-7
Molecular weight: 152
m/z	intensity
26	15
27	224
29	55
31	14
37	5
38	15
39	259
40	38
41	366
42	34
43	389
44	8
45	10
49	2
50	23
51	66
52	29
53	162
54	42
55	193
56	13
57	4
58	3
61	1
62	7
63	26
64	8
65	69
66	31
67	261
68	27
69	10
70	26
71	999
72	39
73	3
74	3
75	6
76	3
77	137
78	44
79	164
80	38
81	96
82	556
83	38
84	3
89	5
90	4
91	234
92	64
93	61
94	12
95	5
97	1
102	4
103	25
104	16
105	61
106	26
107	28
108	5
109	8
115	19
116	7
117	33
118	6
119	231
120	21
121	14
122	2
125	5
131	2
132	3
133	8
134	105
135	14
136	6
137	4
