Mass Spectrum: 11,12-Bis(methylthio)eicosanoic acid, methyl ester
Formula: C23H46O2S2
CAS: 200507-34-2
Molecular weight: 418
m/z	intensity
32	24
33	61
39	77
41	610
42	102
43	713
44	163
45	397
46	36
47	282
48	155
49	20
50	16
51	16
52	20
53	36
54	45
55	999
56	32
57	155
59	86
61	483
65	8
67	172
68	16
69	409
70	12
71	16
74	32
75	16
77	28
79	49
81	106
82	32
83	53
84	16
85	16
87	40
88	12
95	65
96	28
104	16
107	20
109	20
111	20
114	8
116	8
121	16
122	12
123	36
131	32
132	24
134	24
135	16
136	12
137	8
141	12
142	8
143	16
145	16
147	8
151	8
173	102
187	20
199	12
213	81
217	8
231	16
245	254
246	61
294	12
418	24
