Mass Spectrum: Phenol, 4-undecyl-
Formula: C17H28O
CAS: 20056-73-9
Molecular weight: 248
m/z	intensity
39	39
40	20
41	83
42	23
43	55
45	5
50	7
51	13
52	10
53	15
54	8
55	40
56	19
57	19
63	7
65	15
66	7
67	12
68	7
69	12
70	10
71	6
77	55
78	20
79	25
80	5
81	9
82	6
83	7
84	4
89	3
90	3
91	23
92	9
93	6
94	17
95	7
96	5
103	7
104	3
105	13
106	5
107	999
108	165
109	20
110	3
115	6
117	4
119	6
120	39
121	19
122	5
131	6
132	3
133	46
134	11
135	5
147	4
148	2
149	4
246	9
247	3
248	124
249	35
250	5
