Mass Spectrum: 1,2,4-Thiadiazole, 5-((p-chlorophenyl)sulfonyl)-3-methyl-
Formula: C9H7ClN2O2S2
CAS: 20064-40-8
Molecular weight: 274
m/z	intensity
14	1
15	6
26	4
27	16
28	7
32	13
33	1
34	2
36	2
37	3
38	7
39	9
40	10
41	41
42	7
43	3
44	8
45	23
46	29
47	28
48	6
49	4
50	105
51	56
52	8
53	2
55	1
57	2
58	49
59	14
60	4
61	14
62	6
63	18
64	5
65	1
66	1
67	1
69	9
70	7
71	4
72	54
73	999
74	98
75	417
76	66
77	6
78	1
79	4
80	1
81	3
82	5
83	1
84	16
85	42
86	6
87	17
88	4
89	3
90	4
91	1
92	1
93	2
94	1
95	5
96	3
97	3
98	1
99	58
100	5
101	8
102	6
103	1
105	2
106	4
107	6
108	18
109	5
110	5
111	626
112	45
113	201
114	13
115	4
116	1
117	2
124	3
125	3
126	1
127	15
128	1
129	4
130	1
131	23
132	2
133	14
134	13
135	3
136	1
137	7
138	21
139	4
140	7
142	7
143	7
144	6
145	3
146	2
149	1
150	1
151	1
152	1
159	57
160	5
161	20
162	2
163	1
168	2
169	541
170	53
171	197
172	17
173	9
174	1
175	107
176	9
177	37
178	3
179	1
183	3
184	1
185	2
190	1
201	1
209	147
210	658
211	129
212	243
213	29
214	10
215	1
273	1
274	6
275	3
276	3
277	1
