Mass Spectrum: Diethyl 2-(cyclohexylamino)vinylphosphonate
Formula: C12H24NO3P
CAS: 20061-84-1
Molecular weight: 261
m/z	intensity
25	6
26	37
27	203
28	152
29	280
30	109
31	53
33	2
34	5
36	9
37	4
38	8
39	124
40	29
41	481
42	180
43	492
44	333
45	79
46	15
47	38
48	10
49	9
50	8
51	16
52	20
53	100
54	194
55	430
56	999
57	77
58	77
59	17
60	4
61	9
62	9
63	10
64	11
65	123
66	31
67	179
68	152
69	136
70	178
71	25
72	17
73	8
74	10
75	15
76	31
77	33
78	82
79	276
80	180
81	224
82	151
83	43
84	8
86	5
87	7
88	16
89	19
90	12
91	43
92	33
93	52
94	108
95	73
96	255
97	149
98	562
99	158
100	26
101	6
102	7
103	15
104	63
105	43
106	276
107	72
108	134
109	104
110	150
111	38
112	6
113	5
114	51
115	9
116	13
117	9
118	45
119	10
120	12
121	30
122	174
123	305
124	647
125	317
126	26
127	18
128	8
129	4
130	11
131	14
132	26
133	11
134	69
135	40
136	64
137	46
138	65
139	13
140	10
141	7
142	7
143	5
144	94
145	11
146	6
147	9
148	15
149	23
150	57
151	15
152	210
153	20
154	5
155	18
156	9
157	3
158	11
159	9
160	9
161	4
162	89
163	24
164	24
165	53
166	11
167	5
168	16
169	5
170	5
171	3
172	22
173	4
174	3
175	3
176	10
177	7
178	29
179	11
180	279
181	26
182	7
183	3
184	2
185	2
186	24
187	12
188	20
189	4
190	79
191	18
192	18
193	11
194	3
197	4
198	2
200	1
202	3
203	5
204	47
205	17
206	15
207	6
208	4
209	3
211	2
212	2
214	3
215	3
216	70
217	9
218	437
219	62
220	13
221	2
230	4
231	3
232	192
233	27
234	5
235	2
244	3
245	2
246	13
247	2
248	2
258	2
260	18
261	184
262	30
263	4
