Mass Spectrum: 4-Amino-N-(2-hydroxyethyl)-6-methoxy-1,3,5-triazine-2-carboxamide
Formula: C7H11N5O3
CAS: 20061-83-0
Molecular weight: 213
m/z	intensity
15	53
16	2
17	36
18	39
26	3
27	19
28	51
29	30
30	65
31	14
32	1
39	1
40	3
41	11
42	46
43	133
44	20
45	16
46	1
52	1
53	9
54	8
55	14
56	20
57	146
58	185
59	7
60	11
66	3
67	6
68	215
69	119
70	25
71	34
72	2
77	1
78	1
81	3
82	85
83	41
84	7
85	13
86	6
87	2
88	2
91	1
93	4
94	9
95	17
96	26
97	9
98	10
99	11
100	5
101	1
108	2
109	7
110	7
111	64
112	9
113	2
114	2
120	1
121	1
122	1
123	5
124	11
125	999
126	501
127	40
128	3
135	6
136	1
137	5
138	5
139	23
140	23
141	13
142	9
143	1
149	5
150	2
151	3
152	20
153	258
154	82
155	37
156	124
157	9
158	1
165	8
166	23
167	8
168	100
169	17
170	318
171	24
172	2
178	1
180	1
181	1
182	815
183	452
184	41
185	4
194	9
195	85
196	22
197	12
198	64
199	8
200	1
212	3
213	12
214	19
215	2
