Mass Spectrum: Spirohexan-5-one
Formula: C6H8O
CAS: 20061-22-7
Molecular weight: 96
m/z	intensity
39	969
40	999
41	260
42	300
43	56
44	36
49	24
50	104
51	120
52	60
53	663
54	140
55	60
56	22
57	16
60	2
61	10
62	20
63	20
65	40
66	46
67	949
68	669
69	100
70	16
79	16
81	380
82	18
83	16
95	40
96	60
97	10
