Mass Spectrum: Imidazole, 2-aminocarbonyl-1-methyl-
Formula: C5H7N3O
CAS: 20062-51-5
Molecular weight: 125
m/z	intensity
41	127
42	285
44	226
46	7
48	20
49	7
51	52
52	112
53	138
54	349
55	235
56	91
59	6
63	20
66	33
67	26
68	89
69	33
71	6
72	6
77	5
78	16
79	33
80	143
81	488
82	279
83	25
93	12
96	285
97	58
103	6
106	23
107	24
108	72
109	159
111	26
112	9
124	7
125	999
126	52
127	28
