Mass Spectrum: Securinan-11-one, 4-methoxy-, (4.beta.)-
Formula: C14H17NO3
CAS: 20072-02-0
Molecular weight: 247
m/z	intensity
31	68
32	68
38	45
39	235
40	68
41	235
42	133
43	182
44	45
45	89
49	19
50	208
51	373
52	325
53	289
54	370
55	682
56	881
57	268
58	133
59	105
62	35
63	170
64	68
65	105
66	84
67	86
68	89
69	86
70	56
71	203
72	56
73	35
74	35
75	35
76	89
77	370
78	902
79	403
80	235
81	211
82	837
83	208
84	138
85	105
89	65
90	73
91	143
92	56
93	73
94	32
95	40
96	40
97	32
98	105
99	35
100	8
102	19
103	84
104	84
105	219
106	999
107	328
108	89
109	40
110	37
111	37
112	35
113	68
114	902
115	373
116	65
117	105
118	105
119	65
120	65
121	16
127	17
128	16
129	14
130	68
131	68
132	100
133	130
134	951
135	235
136	65
143	35
144	73
145	35
146	73
147	35
148	32
149	187
150	32
151	35
157	16
158	32
159	32
160	65
161	100
162	32
167	40
168	40
169	35
170	35
171	19
173	29
174	17
175	16
176	14
186	16
187	16
188	81
189	97
190	16
191	16
214	35
215	16
216	182
217	40
218	19
232	29
246	32
247	918
248	252
249	32
