Mass Spectrum: D-Homo-5.alpha.-androstan-3-one, 5,8,17a.beta.-trimethyl-, cyclic ethylene acetal
Formula: C25H42O2
CAS: 20078-53-9
Molecular weight: 374
m/z	intensity
17	53
18	2
27	29
29	89
39	35
40	3
41	292
42	62
43	214
44	23
45	53
53	65
54	20
55	522
56	53
57	155
58	6
59	6
60	17
61	6
65	23
66	3
67	277
68	83
69	298
70	35
71	59
72	6
73	53
74	6
75	6
77	53
78	6
79	149
80	23
81	358
82	104
83	134
84	23
85	29
86	214
87	89
88	9
90	3
91	89
92	9
93	149
94	35
95	352
96	53
97	128
98	23
99	999
100	985
101	104
102	3
103	14
104	17
105	74
106	14
107	125
108	29
109	214
110	44
111	74
112	11
113	53
115	14
116	3
117	14
119	53
120	9
121	119
122	53
123	158
124	47
125	95
126	77
127	35
128	6
129	17
130	6
131	17
133	53
134	6
135	59
136	29
137	83
138	20
139	985
140	244
141	53
142	6
143	6
145	11
147	35
148	3
149	89
150	29
151	53
152	14
153	23
155	3
159	9
161	14
163	35
164	14
165	44
166	3
167	44
168	14
169	3
173	14
175	14
177	29
178	3
179	14
181	23
187	11
189	17
190	3
191	35
192	9
193	3
201	6
203	6
205	17
217	6
219	9
231	9
245	17
259	59
260	26
274	9
275	17
297	14
303	3
315	14
330	20
331	11
345	3
359	29
374	17
