Mass Spectrum: 4-Methylpropranolol
Formula: C17H23NO2
CAS: 2007-69-4
Molecular weight: 273
m/z	intensity
39	21
41	63
42	38
43	100
44	46
56	108
57	42
58	33
60	29
70	29
71	25
72	999
73	67
74	29
100	38
102	42
115	146
116	13
127	25
128	58
129	67
141	21
142	25
157	54
158	163
159	29
171	8
197	8
200	8
229	21
258	21
273	46
274	8
