Mass Spectrum: N-Phenoxycarbonyl-4-(4-chlorphenyl)-3-morpholinopyrrrol-2-carboxylic acid, methyl ester
Formula: C23H21ClN2O5
CAS: 200862-91-5
Molecular weight: 440
m/z	intensity
12	22
13	11
14	9
15	167
16	48
17	140
18	492
19	6
26	22
27	108
28	217
29	135
30	29
31	52
32	13
35	31
36	19
37	27
38	47
39	224
40	44
41	77
42	81
43	99
44	276
45	501
46	17
47	45
48	18
49	19
50	66
51	300
52	26
53	22
54	44
55	56
56	44
57	56
58	8
59	108
60	13
61	14
62	22
63	60
64	23
65	175
66	96
67	25
68	11
69	16
70	26
71	22
72	10
73	18
74	23
75	63
76	40
77	999
78	79
79	16
80	8
81	11
82	14
83	114
84	78
85	74
86	15
87	25
88	21
89	20
90	11
91	18
92	9
93	22
94	150
95	24
96	8
97	24
98	12
99	26
100	27
101	58
102	30
103	14
104	9
105	9
106	5
107	34
108	6
109	6
110	6
111	28
112	33
113	63
114	50
115	52
116	14
117	9
118	6
119	8
120	6
121	22
122	7
123	12
124	7
125	22
126	86
127	115
128	54
129	16
130	7
135	11
136	83
137	22
138	47
139	61
140	212
141	84
142	18
143	11
145	5
147	14
148	18
149	78
150	20
151	34
152	27
153	45
154	47
155	26
156	9
157	5
161	21
162	43
163	22
164	21
165	41
166	67
167	102
168	117
169	31
170	7
171	6
172	7
173	5
174	68
175	22
176	48
177	18
178	18
179	15
180	15
181	55
182	47
183	14
184	4
187	5
188	16
189	20
190	26
191	13
192	14
193	17
194	45
195	79
196	23
197	9
198	4
199	3
200	7
201	62
202	73
203	86
204	39
205	28
206	15
207	10
208	10
209	13
210	6
211	3
213	3
214	15
215	30
216	30
217	41
218	16
219	12
220	5
221	14
222	24
223	44
224	26
225	8
226	7
227	7
228	16
229	138
230	57
231	86
232	28
233	18
234	12
235	3
236	4
237	3
238	2
239	4
240	3
241	13
242	16
243	30
244	26
245	19
246	8
247	5
248	3
249	7
250	7
251	8
252	12
253	8
254	5
255	6
256	4
257	38
258	17
259	60
260	17
261	40
262	13
263	11
264	5
265	3
266	6
267	3
268	2
269	8
270	3
271	13
272	4
273	7
274	3
275	6
276	17
277	11
278	15
279	15
280	7
281	6
282	2
283	2
284	2
285	10
286	7
287	41
288	24
289	94
290	22
291	31
292	7
293	6
294	3
295	3
296	1
297	1
298	1
299	2
300	2
301	5
302	3
303	41
304	10
305	30
306	11
307	11
308	3
309	3
310	3
311	1
312	1
313	2
314	2
315	7
316	8
317	3
318	4
319	15
320	17
321	10
322	7
323	3
324	4
325	3
326	2
327	1
328	0
329	2
330	0
331	1
333	5
334	3
335	14
336	6
337	29
338	9
339	10
340	2
341	1
343	3
344	7
345	3
346	3
347	9
349	112
350	24
351	57
352	14
353	9
354	2
363	48
364	15
365	26
366	8
367	5
368	1
369	1
370	1
374	1
377	26
378	7
379	37
381	266
382	64
383	90
384	21
385	3
390	1
391	0
395	7
396	25
397	11
398	11
399	3
405	1
407	15
408	9
409	74
410	17
411	23
412	5
413	0
421	4
422	3
423	2
424	0
425	7
426	2
427	2
438	1
440	200
441	53
442	74
443	18
444	3
