Mass Spectrum: Urea, 1-(3-chlorophenyl)-3-phenyl-
Formula: C13H11ClN2O
CAS: 2008-71-1
Molecular weight: 246
m/z	intensity
37	35
38	68
39	140
40	29
41	37
50	50
51	83
52	44
54	15
64	12
65	222
66	140
67	17
73	21
74	17
75	42
76	17
77	118
78	15
89	17
90	81
91	140
92	167
93	999
94	76
99	48
100	31
101	17
102	9
111	37
113	11
119	270
120	42
123	11
125	54
126	31
127	982
128	81
129	323
130	23
153	22
154	2
155	7
246	323
247	49
248	110
249	16
