Mass Spectrum: 1,4-Dinitro-2,3,5,6-tetrachlorobenzene
Formula: C6Cl4N2O4
CAS: 20098-38-8
Molecular weight: 304
m/z	intensity
16	1
30	999
31	3
32	2
35	8
36	20
37	3
38	4
44	3
46	68
47	32
48	6
49	11
50	3
51	1
59	3
60	36
61	5
62	7
63	14
65	6
66	1
70	1
71	60
72	34
73	24
74	8
75	2
76	3
77	1
82	2
83	14
84	2
85	12
86	44
87	24
88	2
89	6
94	12
95	77
96	13
97	31
98	4
99	2
100	1
106	33
107	217
108	43
109	81
110	14
111	7
112	1
113	1
117	2
118	96
119	6
120	63
121	41
122	17
123	18
124	4
125	2
126	1
130	118
131	10
132	101
133	7
134	29
135	2
136	3
141	17
142	578
143	55
144	372
145	28
146	65
147	5
148	5
150	2
153	10
154	1
155	9
156	17
157	5
158	19
159	2
160	7
161	1
162	1
165	222
166	13
167	218
168	12
169	69
170	3
171	9
172	1
177	224
178	16
179	222
180	15
181	88
182	6
183	23
184	1
185	6
187	1
188	9
190	11
192	7
193	45
194	6
195	44
196	4
197	17
198	1
199	3
200	29
201	5
202	35
203	6
204	18
205	3
206	4
209	3
210	1
211	5
212	136
213	11
214	162
215	11
216	80
217	5
218	20
219	1
220	3
223	14
224	1
225	14
226	1
227	5
228	26
229	2
230	38
231	2
232	22
233	1
234	6
242	2
244	9
246	10
248	5
258	1
260	2
262	1
274	3
276	4
278	1
304	129
305	9
306	167
307	12
308	84
309	5
310	18
311	1
312	1
