Mass Spectrum: Indole, 5-methoxy-3-(2-methylamino)ethyl-
Formula: C12H16N2O
CAS: 2009-03-2
Molecular weight: 204
m/z	intensity
34	2
36	1
37	1
38	5
39	18
40	45
41	10
42	40
44	999
45	25
46	0
50	9
51	19
52	13
53	6
54	3
55	4
56	4
57	6
58	7
60	0
61	0
62	7
63	22
64	10
65	12
66	3
67	2
68	1
69	1
70	2
71	3
72	2
73	1
74	5
75	9
76	11
77	23
78	9
79	5
80	8
81	1
82	0
83	1
84	2
86	2
87	3
88	3
89	34
90	28
91	11
92	2
93	1
94	3
95	0
96	0
97	0
98	1
99	0
100	1
101	6
102	12
103	13
104	7
105	2
106	0
107	0
108	0
110	0
111	0
112	1
113	1
114	3
115	7
116	16
117	74
118	22
119	3
120	0
122	0
124	0
125	0
127	1
128	8
129	7
130	29
131	9
132	6
133	1
134	0
140	0
141	1
142	2
143	5
144	11
145	78
146	91
147	11
148	1
150	0
151	0
154	0
155	1
156	1
157	2
158	11
159	21
160	298
161	518
162	61
163	5
164	0
165	0
169	0
170	1
171	2
172	3
173	16
174	7
175	0
176	0
177	0
179	0
183	0
185	0
186	0
187	2
188	1
189	0
191	0
197	1
200	0
201	0
202	4
203	3
204	41
205	5
206	0
