Mass Spectrum: 2H-Pyran, 2-[(6-chlorohexyl)oxy]tetrahydro-
Formula: C11H21ClO2
CAS: 2009-84-9
Molecular weight: 220
m/z	intensity
26	47
27	273
28	138
29	290
30	8
31	171
33	2
35	1
36	4
37	6
38	12
39	215
40	42
41	757
42	170
43	182
44	46
45	36
46	3
47	12
48	1
49	25
50	27
51	36
52	13
53	115
54	132
55	724
56	535
57	201
58	10
59	20
60	2
61	2
62	7
63	27
64	4
65	17
66	8
67	274
68	30
69	136
70	19
71	21
72	5
73	5
74	24
75	10
76	10
77	50
78	5
79	18
80	9
81	47
82	105
83	349
84	176
85	999
86	74
87	5
88	2
89	2
90	45
91	31
92	16
93	30
94	3
95	17
96	2
97	2
98	6
99	8
100	9
101	77
102	7
103	5
104	1
105	2
106	2
107	1
108	12
109	2
110	7
111	1
113	1
114	1
115	11
116	3
117	5
118	16
119	49
120	6
121	17
122	2
127	1
128	1
129	1
134	1
135	1
136	1
137	1
147	12
148	1
149	4
162	4
163	1
164	1
165	5
167	2
219	14
220	2
221	3
