Mass Spectrum: Butanoic acid, 2-diazo-3-oxo-, ethyl ester
Formula: C6H8N2O3
CAS: 2009-97-4
Molecular weight: 156
m/z	intensity
41	60
42	60
43	999
44	110
45	80
53	50
54	50
55	140
56	120
69	50
72	160
73	30
83	440
84	110
99	40
100	150
111	90
123	40
128	200
129	20
156	260
157	30
