Mass Spectrum: Ent-beyer-15-en-18-ol
Formula: C20H32O
CAS: 20107-90-8
Molecular weight: 288
m/z	intensity
105	999
119	760
123	830
133	670
134	760
135	800
148	430
161	690
175	200
229	740
256	150
257	980
258	490
288	870
289	297
