Mass Spectrum: 1,4-Cyclohexanedicarboxamide
Formula: C8H14N2O2
CAS: 20101-86-4
Molecular weight: 170
m/z	intensity
22	0
24	0
25	1
26	23
27	225
28	76
29	122
30	70
31	4
34	0
35	1
36	6
37	5
38	18
39	261
40	54
41	434
42	81
43	92
44	702
45	47
46	53
47	1
48	0
49	1
50	23
51	60
52	41
53	189
54	191
55	736
56	185
57	21
58	14
59	132
60	16
61	1
62	2
63	8
64	5
65	38
66	37
67	238
68	72
69	86
70	25
71	27
72	363
73	49
74	4
75	2
76	4
77	75
78	21
79	135
80	97
81	593
82	230
83	376
84	54
85	290
86	104
87	5
88	0
89	0
90	0
91	22
92	10
93	13
94	23
95	12
96	57
97	61
98	142
99	131
100	8
101	1
102	1
103	6
104	2
105	4
106	14
107	29
108	205
109	96
110	86
111	46
112	22
113	2
114	0
115	1
116	1
117	1
118	1
119	3
120	0
121	0
122	2
123	1
124	56
125	999
126	476
127	67
128	6
129	0
130	0
131	0
132	0
133	4
134	5
135	16
136	93
137	12
138	4
139	0
140	0
141	0
142	3
143	0
147	0
148	0
149	0
150	0
151	2
152	23
153	267
154	39
155	3
156	0
159	0
164	0
166	0
168	0
169	2
170	14
171	21
172	2
173	0
