Mass Spectrum: N-(Benzoylacetyl)-pyrrolidine
Formula: C13H15NO2
CAS: 20103-92-8
Molecular weight: 217
m/z	intensity
12	1
13	1
14	5
15	64
16	2
17	9
18	40
25	0
26	11
27	75
28	126
29	44
30	61
31	2
37	2
38	10
39	82
40	19
41	124
42	102
43	280
44	18
45	3
50	49
51	158
52	16
53	13
54	10
55	86
56	62
57	3
59	4
60	3
61	1
62	6
63	20
64	6
65	40
66	4
67	5
68	30
69	326
70	999
71	287
72	28
74	14
75	16
76	25
77	343
78	50
79	9
80	1
81	1
82	2
83	6
84	8
85	1
86	1
87	1
88	1
89	21
90	11
91	43
92	6
93	1
95	11
96	4
97	1
98	21
99	2
101	3
102	10
103	9
105	280
106	26
107	2
110	1
112	146
113	10
114	1
115	2
116	3
117	3
118	6
120	60
121	6
122	1
128	1
129	3
130	2
131	2
132	2
133	1
134	2
140	9
141	1
143	1
144	1
145	1
147	106
148	13
149	1
160	1
161	1
162	1
170	1
171	1
174	1
175	0
186	1
188	2
189	7
190	1
200	26
201	5
202	1
217	226
218	39
219	4
