Mass Spectrum: 2,4-Dichloro-6-[(3-hydroxyphenylimino)methyl]phenol
Formula: C13H9Cl2NO2
CAS: 20114-77-6
Molecular weight: 281
m/z	intensity
35	29
36	158
38	257
39	915
40	86
41	37
42	20
43	28
44	25
45	4
47	10
49	22
50	152
51	149
52	108
53	201
55	72
56	6
57	6
58	2
61	91
62	144
63	361
65	999
66	187
68	50
69	10
71	12
72	28
73	75
74	118
75	157
77	270
79	20
80	32
81	42
82	20
83	19
84	22
85	30
86	20
87	32
88	38
89	24
91	132
93	524
94	395
97	99
98	32
99	57
100	29
101	22
102	12
103	5
104	7
105	13
106	9
107	15
109	240
111	32
112	8
113	10
114	6
115	5
116	1
117	5
118	8
120	214
121	17
123	56
124	38
125	20
126	47
127	47
128	21
129	4
130	1
132	12
133	34
134	9
135	15
136	9
137	8
138	6
139	9
140	18
141	11
145	14
146	8
147	8
148	5
149	3
150	2
151	4
152	21
153	29
154	64
155	27
156	4
157	2
158	1
159	7
160	5
161	12
162	25
163	7
164	19
165	4
166	4
170	0
171	0
172	1
173	6
174	2
175	3
176	0
177	0
180	1
181	5
182	29
183	50
184	12
185	3
186	4
187	18
188	97
189	27
190	59
191	13
192	8
193	2
196	0
198	1
199	2
200	6
201	6
202	4
203	1
204	0
209	0
210	2
211	7
212	1
213	0
215	0
216	8
217	29
218	24
219	9
220	4
224	0
225	0
226	1
227	2
228	2
229	5
230	1
231	0
235	3
236	9
237	4
238	6
239	0
240	0
244	2
245	23
246	60
247	19
248	18
249	2
251	2
252	12
253	4
254	7
255	1
256	0
262	2
264	105
265	33
266	63
267	18
268	9
269	0
280	470
281	820
282	344
283	494
284	111
285	78
286	5
