Mass Spectrum: 1-Cyclohexene-3-thione
Formula: C6H8S
CAS: 201139-65-3
Molecular weight: 112
m/z	intensity
25	0
26	16
27	91
29	4
33	1
34	0
36	0
37	10
38	25
39	149
41	40
42	2
45	113
46	4
47	9
48	1
49	7
50	46
51	77
52	25
53	56
54	15
55	11
56	0
57	20
58	252
59	22
60	13
61	6
62	8
63	17
64	2
65	36
66	25
67	42
68	10
69	75
70	12
71	401
72	22
73	22
74	11
75	3
76	2
77	187
78	66
79	302
80	24
81	8
82	8
83	18
84	445
85	55
86	22
87	2
90	1
93	3
94	1
95	4
96	4
97	163
98	12
99	7
103	0
104	0
105	1
106	1
107	2
108	4
109	12
110	5
111	147
112	999
113	83
114	45
115	4
