Mass Spectrum: Pregn-4-en-3-one, 17-methoxy-, (17.alpha.)-
Formula: C22H34O2
CAS: 20112-33-8
Molecular weight: 330
m/z	intensity
41	113
43	49
45	14
53	27
55	108
57	54
67	70
69	33
70	9
71	94
73	14
77	33
78	9
79	68
80	9
81	41
85	22
86	409
87	27
91	68
92	9
93	41
95	27
99	999
100	129
105	41
106	9
107	22
108	9
109	14
119	27
121	25
122	14
124	14
129	14
131	9
133	14
145	25
242	14
243	9
244	9
245	175
246	27
254	14
269	81
270	27
271	9
298	94
299	22
301	269
302	54
303	14
330	148
331	33
