Mass Spectrum: Pregnan-3-one, 17-methoxy-, (5.alpha.,17.alpha.)-
Formula: C22H36O2
CAS: 20112-32-7
Molecular weight: 332
m/z	intensity
41	81
43	27
53	8
55	86
57	32
67	48
69	27
71	54
73	8
79	48
81	40
85	8
86	551
87	81
90	13
92	13
94	13
99	999
100	129
155	22
244	27
271	59
288	8
300	27
301	8
303	444
304	81
305	13
332	81
333	13
