Mass Spectrum: Ethyl 3-morpholinopropionate
Formula: C9H17NO3
CAS: 2012-02-4
Molecular weight: 187
m/z	intensity
12	1
14	12
15	92
16	1
18	7
19	4
26	40
27	208
28	353
29	271
30	80
31	5
38	1
39	9
41	82
42	313
43	44
44	29
45	43
46	1
50	4
51	1
52	4
54	56
55	183
56	362
57	107
58	22
59	1
60	2
61	2
67	1
68	8
70	66
71	9
72	24
73	25
74	37
75	10
82	6
83	10
84	45
85	16
86	54
87	7
88	10
96	1
98	56
100	999
101	63
102	11
112	4
113	2
114	8
116	1
128	8
129	10
130	3
140	1
142	17
143	2
144	12
145	1
156	7
157	1
158	8
159	1
187	47
188	6
