Mass Spectrum: 1,3-Dithiolane, 2-benzyl-2-methyl-
Formula: C11H14S2
CAS: 20137-72-8
Molecular weight: 210
m/z	intensity
18	3
27	13
34	1
39	22
41	8
44	5
45	23
48	8
50	6
51	17
58	13
59	252
60	14
61	31
63	12
64	17
65	35
77	16
78	6
89	11
90	7
91	65
92	11
105	8
106	6
114	1
115	26
116	12
117	28
119	999
120	83
121	104
122	11
134	15
135	8
147	6
149	8
210	5
