Mass Spectrum: Bis(cyclohex-3-enylmethyl)amine
Formula: C14H23N
CAS: 20144-36-9
Molecular weight: 205
m/z	intensity
27	19
29	16
30	80
39	38
41	112
42	27
43	54
44	711
45	30
51	11
52	6
53	42
54	12
55	64
56	28
57	13
65	25
66	15
67	103
68	27
69	11
70	32
71	7
73	8
75	8
77	67
78	14
79	118
80	29
81	32
82	15
83	7
91	49
92	9
93	174
94	51
95	120
96	15
105	24
107	6
108	7
110	10
111	35
112	12
122	26
123	10
124	999
125	122
126	8
149	13
150	12
204	9
205	188
206	37
