Mass Spectrum: Germane, tetra-1-propynyl-
Formula: C12H12Ge
CAS: 20143-28-6
Molecular weight: 230
m/z	intensity
26	5
27	39
29	9
31	1
37	10
38	21
39	246
40	21
41	3
43	0
50	75
51	220
52	73
53	16
57	0
58	2
59	1
60	7
61	0
62	8
63	41
64	2
65	16
70	47
71	2
72	64
73	25
74	88
75	33
76	22
77	103
78	34
79	0
85	0
86	0
87	4
88	1
89	12
90	6
91	24
95	77
96	4
97	109
98	39
99	153
100	14
101	40
102	2
103	3
105	0
107	15
108	138
109	573
110	205
111	837
112	472
113	999
114	85
115	225
116	22
117	28
118	21
119	27
120	9
121	94
122	48
123	136
124	71
125	132
126	49
127	31
128	56
129	92
130	12
131	4
132	27
133	426
134	65
135	578
136	236
137	776
138	59
139	174
140	11
141	430
142	125
143	11
145	16
146	5
147	90
148	77
149	125
150	130
151	181
152	142
153	275
154	137
155	936
156	148
157	10
158	1
159	16
160	11
161	21
162	10
163	15
164	10
165	6
166	0
169	0
171	12
172	3
173	17
174	12
175	24
176	11
177	10
178	1
179	2
180	0
183	0
184	5
185	72
186	23
187	201
188	66
189	258
190	82
191	223
192	23
193	40
194	0
197	51
198	18
199	124
200	51
201	174
202	62
203	126
204	21
205	21
206	0
209	41
210	30
211	171
212	69
213	236
214	117
215	229
216	35
217	43
218	1
222	5
223	56
224	22
225	484
226	108
227	664
228	252
229	776
230	105
231	164
232	20
