Mass Spectrum: 1-Benzylcyclopentanol-1
Formula: C12H16O
CAS: 2015-57-8
Molecular weight: 176
m/z	intensity
55	60
56	10
57	80
63	20
64	10
65	70
67	210
68	10
77	20
78	10
79	10
84	20
85	559
86	30
89	10
90	10
91	280
92	999
93	70
105	30
115	20
116	10
117	10
129	30
130	10
133	10
134	10
147	20
176	10
