Mass Spectrum: Hydrazine, 4TMS derivative
Formula: C12H36N2Si4
CAS: 20156-62-1
Molecular weight: 320
m/z	intensity
26	4
27	3
28	17
29	4
31	4
39	1
41	0
42	0
43	21
44	6
45	105
46	10
47	2
56	1
57	2
58	9
59	51
60	5
61	3
70	4
71	0
72	6
73	999
74	62
75	24
76	2
83	0
84	1
85	2
86	26
87	3
88	4
89	1
99	0
100	58
101	15
102	16
103	0
104	1
105	0
113	11
114	9
115	12
116	46
117	12
118	5
119	1
127	2
128	2
130	282
131	77
132	33
133	8
134	2
141	0
142	2
144	1
146	22
147	7
148	1
149	0
154	0
155	3
156	1
157	6
158	1
159	3
160	1
161	1
162	0
167	2
168	0
169	0
170	2
171	1
172	1
173	3
174	16
175	4
176	3
177	0
180	4
182	1
183	0
184	1
185	0
186	4
187	21
188	15
189	13
190	26
191	3
192	4
194	0
198	0
200	0
201	1
202	34
203	18
204	133
205	31
206	16
207	3
208	0
210	0
211	0
213	0
215	4
217	541
218	125
219	83
220	9
221	0
222	0
227	0
231	256
232	126
233	47
234	10
235	2
242	0
245	2
246	0
247	15
248	10
249	0
250	0
259	0
260	0
261	0
262	1
273	0
275	6
276	2
278	0
291	5
294	1
295	1
297	2
299	2
301	2
305	124
306	38
307	24
308	5
309	1
310	0
312	0
313	0
315	0
317	1
320	358
321	137
322	61
323	14
324	5
