Mass Spectrum: Bamifylline
Formula: C20H27N5O3
CAS: 2016-63-9
Molecular weight: 385
m/z	intensity
42	45
45	37
56	56
57	21
58	67
71	40
72	19
81	10
84	69
85	9
91	39
102	999
103	51
104	18
115	19
116	10
297	30
354	30
367	29
