Mass Spectrum: 2,4-Dithiapentane 2,2-dioxide
Formula: C3H8O2S2
CAS: 20163-71-7
Molecular weight: 140
m/z	intensity
27	25
33	2
34	2
35	60
37	2
44	6
45	108
46	66
47	24
48	17
49	4
58	11
59	30
60	19
61	999
62	31
63	77
64	11
65	7
79	15
140	160
141	7
142	13
