Mass Spectrum: 2-Benzyl-3-oxopropanoic acid, ethyl ester
Formula: C12H14O3
CAS: 2016-00-4
Molecular weight: 206
m/z	intensity
25	5
26	39
27	224
28	45
29	181
30	14
31	266
37	10
38	24
39	155
40	9
41	33
42	17
43	44
44	188
45	121
46	49
49	3
50	102
51	253
52	62
53	26
54	5
55	95
56	16
57	6
58	5
59	1
60	1
61	11
62	33
63	93
64	19
65	197
66	12
67	1
68	1
69	5
70	1
71	5
72	20
73	9
74	34
75	34
76	33
77	371
78	470
79	172
80	8
81	1
83	31
84	2
85	4
86	10
87	11
88	3
89	48
90	29
91	999
92	478
93	34
94	3
97	1
98	4
99	3
100	1
101	7
102	48
103	284
104	248
105	256
106	30
107	45
108	4
109	1
110	1
113	1
114	7
115	96
116	47
117	14
118	18
119	12
120	5
121	2
122	3
128	1
129	25
130	9
131	656
132	323
133	227
134	325
135	30
136	2
143	2
144	4
145	1
146	1
147	7
148	3
149	52
150	8
155	2
158	1
159	82
160	96
161	59
162	6
176	1
177	209
178	50
179	5
188	121
189	19
190	1
206	118
207	19
208	1
