Mass Spectrum: 1-Chloro-2-methyl-1-morpholino-1,3-butadiene
Formula: C9H14ClNO
CAS: 201679-80-3
Molecular weight: 187
m/z	intensity
29	775
30	214
31	113
32	230
35	29
36	155
37	40
38	161
39	867
40	191
41	999
42	689
43	887
44	265
45	449
46	19
49	79
50	81
51	241
52	183
53	980
54	445
55	977
56	375
57	144
58	91
59	35
60	22
61	29
62	38
63	108
64	47
65	300
66	129
67	391
68	153
69	92
70	249
71	118
72	129
73	35
75	73
76	27
77	108
78	91
79	163
80	222
81	221
82	134
83	441
84	45
85	30
86	154
87	35
88	29
89	62
91	74
92	95
93	180
94	931
95	102
96	48
101	23
102	26
103	26
104	20
105	23
106	66
107	63
108	148
109	81
110	19
112	52
113	20
114	167
115	35
116	69
117	26
118	25
120	24
122	97
124	40
128	114
129	198
130	78
131	73
136	99
137	19
142	107
143	62
144	51
145	21
150	24
151	22
152	575
153	60
154	98
156	28
157	24
158	23
169	45
172	197
173	22
174	67
187	180
188	44
189	66
