Mass Spectrum: 5-Hydroxy-4,4,6-trimethyl-7-oxabicyclo[4.1.0]heptan-2-one
Formula: C9H14O3
CAS: 201733-12-2
Molecular weight: 170
m/z	intensity
25	4
26	43
27	415
28	109
29	441
30	28
31	179
37	11
38	41
39	514
40	155
41	848
42	136
43	999
44	41
45	81
46	4
47	7
49	4
50	29
51	63
52	28
53	170
54	37
55	367
56	666
57	346
58	116
59	44
60	6
61	5
62	7
63	18
64	7
65	39
66	20
67	132
68	80
69	193
70	101
71	140
72	42
73	12
74	23
75	6
76	5
77	44
78	12
79	64
80	14
81	205
82	39
83	492
84	51
85	924
86	325
87	511
88	29
89	6
90	4
91	22
92	6
93	22
94	9
95	114
96	25
97	53
98	106
99	282
100	38
101	8
104	4
105	6
106	4
107	13
108	7
109	147
110	105
111	58
112	16
113	63
114	51
115	10
121	5
122	4
123	36
124	18
125	21
126	18
127	101
128	277
129	26
130	5
137	12
139	6
141	115
142	18
152	9
153	5
154	2
155	35
156	6
157	2
170	52
171	7
172	1
