Mass Spectrum: Bicyclo[2.2.0]hexane-1-carboxaldehyde
Formula: C7H10O
CAS: 201793-40-0
Molecular weight: 110
m/z	intensity
25	6
26	55
27	302
29	128
30	5
31	20
33	4
34	4
35	3
36	12
37	32
38	90
39	794
40	225
41	999
42	94
43	62
44	38
45	7
46	2
47	2
48	3
49	15
50	101
51	145
52	87
53	309
54	229
55	298
56	152
57	31
58	8
59	2
60	4
61	11
62	12
63	27
64	8
65	64
66	157
67	364
68	100
69	58
70	22
71	12
72	3
73	7
74	15
75	8
76	6
77	148
78	71
79	397
80	73
81	381
82	88
83	24
84	6
85	3
86	2
87	2
88	2
89	4
90	7
91	189
92	229
93	32
94	10
95	539
96	33
97	5
109	78
110	18
111	4
