Mass Spectrum: 1-Propyne, 1,3,3,3-tetrafluoro-
Formula: C3F4
CAS: 20174-11-2
Molecular weight: 112
m/z	intensity
12	80
19	27
24	97
31	999
36	110
43	130
50	50
55	80
56	4
69	200
74	150
75	3
93	360
94	9
112	82
113	2
