Mass Spectrum: (1S,2R,4S,7R)-7-((E)-5-Hydroxy-4-methylpent-3-en-1-yl)-1,7-dimethylbicyclo[2.2.1]heptan-2-ol
Formula: C15H26O2
CAS: 201731-87-5
Molecular weight: 238
m/z	intensity
27	21
29	48
30	2
31	18
39	53
40	14
41	146
42	14
43	999
44	27
45	29
46	1
50	3
51	13
52	7
53	72
54	14
55	152
56	17
57	31
58	29
59	10
63	4
65	30
66	11
67	167
68	74
69	51
70	13
71	97
72	6
77	66
78	14
79	110
80	30
81	124
82	32
83	67
84	42
85	6
86	2
91	55
92	36
93	135
94	66
95	151
96	20
97	17
103	4
105	53
107	174
117	8
118	7
119	192
120	48
121	120
122	33
123	20
125	265
126	26
131	41
132	162
133	39
134	68
135	27
137	23
138	16
139	27
143	10
145	44
146	16
147	14
159	13
161	13
162	9
173	4
187	16
189	6
194	3
202	9
205	9
206	2
220	12
