Mass Spectrum: Imidazole, 1,4,5-trimethyl-
Formula: C6H10N2
CAS: 20185-22-2
Molecular weight: 110
m/z	intensity
41	88
42	156
43	89
44	52
45	164
49	7
51	14
52	15
53	14
54	62
55	47
56	145
57	6
58	41
59	23
66	6
68	126
72	32
73	62
82	8
84	17
94	12
95	252
96	8
108	13
109	750
110	999
111	85
