Mass Spectrum: Hydrazinecarboxamide, 1-methyl-2-[(4-nitrophenyl)methylene]-
Formula: C9H10N4O3
CAS: 20184-53-6
Molecular weight: 222
m/z	intensity
26	8
27	32
28	95
29	40
30	177
31	119
33	1
37	8
38	24
39	125
40	10
41	48
42	62
43	110
44	274
45	34
46	12
49	5
50	130
51	97
52	34
53	19
54	11
55	47
56	28
57	84
58	17
59	8
60	129
61	18
62	72
63	258
64	58
65	155
66	26
67	18
68	10
69	27
70	12
71	39
72	4
73	51
74	999
75	118
76	174
77	182
78	71
79	60
80	27
81	17
82	9
83	20
84	8
85	26
86	17
87	24
88	26
89	373
90	144
91	96
92	97
93	47
94	15
95	13
96	5
97	17
98	7
99	8
100	22
101	4
102	30
103	97
104	105
105	63
106	71
107	18
108	5
109	7
110	4
111	9
112	5
113	7
114	2
115	5
116	18
117	59
118	280
119	63
120	18
121	13
122	11
123	8
124	4
125	6
126	3
127	7
128	2
129	4
130	12
131	127
132	467
133	165
134	25
135	44
136	17
137	4
138	2
139	3
140	2
141	5
142	2
143	2
144	1
145	2
146	7
147	17
148	33
149	279
150	45
151	13
152	3
153	2
154	2
155	4
157	2
159	2
160	2
161	14
162	79
163	27
164	58
165	85
166	8
167	4
168	2
169	2
175	4
176	4
177	24
178	804
179	867
180	86
181	9
182	1
183	2
185	2
186	2
187	1
189	2
191	2
192	9
193	2
194	1
195	2
196	1
197	2
205	9
206	5
207	1
221	14
222	516
223	67
224	9
