Mass Spectrum: Carbamic acid, benzoylmethyldithio-, methyl ester
Formula: C10H11NOS2
CAS: 20184-96-7
Molecular weight: 225
m/z	intensity
41	22
45	28
47	37
50	62
51	200
72	28
73	28
74	85
75	22
76	28
77	599
78	42
79	28
88	114
91	40
105	999
106	60
119	8
120	51
121	71
178	14
197	34
225	514
226	85
227	42
