Mass Spectrum: 4-(4-Benzoyloxybenzoyloxy)benzoic acid
Formula: C21H14O6
CAS: 201804-01-5
Molecular weight: 362
m/z	intensity
37	13
38	42
39	56
40	5
41	2
42	2
43	4
44	9
45	7
46	1
50	78
51	145
52	12
53	31
55	8
56	1
57	2
58	2
61	8
62	25
63	87
64	76
65	48
66	10
69	1
70	1
71	1
74	20
75	17
77	544
79	4
81	30
87	1
88	3
89	1
92	111
93	24
94	4
101	1
105	999
106	64
107	5
109	8
110	1
115	5
120	61
121	108
122	9
123	1
127	1
128	2
129	1
137	4
138	5
139	4
140	1
141	2
152	1
157	1
168	1
185	2
196	2
197	1
201	1
225	414
226	60
227	6
228	1
229	3
240	1
241	2
242	3
258	1
362	1
