Mass Spectrum: 1-Hexanamine, N-propyl-
Formula: C9H21N
CAS: 20193-23-1
Molecular weight: 143
m/z	intensity
29	70
30	600
39	20
41	140
42	40
43	310
44	330
55	30
56	50
57	10
58	50
59	10
70	50
71	10
72	999
73	40
85	20
86	10
98	10
112	10
114	220
115	10
143	40
