Mass Spectrum: Phosphoric acid, diethyl pentyl ester
Formula: C9H21O4P
CAS: 20195-08-8
Molecular weight: 224
m/z	intensity
69	38
70	28
71	38
81	114
82	45
83	33
99	999
109	64
110	28
111	33
113	19
125	47
126	16
127	535
155	873
156	31
195	2
196	5
222	3
223	2
224	7
