Mass Spectrum: 3-(Dimethylamino)-2-(1-methyl-2-benzimidazolyl)acrylonitrile
Formula: C13H14N4
CAS: 201989-81-3
Molecular weight: 226
m/z	intensity
33	10
34	29
36	47
37	49
38	110
39	279
42	999
43	101
44	96
45	11
46	5
48	4
49	9
50	111
51	487
52	151
53	73
54	70
55	36
56	25
57	27
58	9
60	8
61	15
62	44
63	239
64	173
65	123
66	95
67	76
68	38
69	27
70	15
71	9
73	11
74	34
75	91
77	522
78	140
79	80
80	46
81	29
83	30
84	10
85	14
86	14
88	29
90	133
91	86
92	128
93	59
95	26
97	9
98	40
100	38
102	155
103	69
104	76
105	77
107	161
108	12
109	5
110	2
112	45
113	106
114	23
115	24
116	27
118	68
119	247
120	35
121	10
122	14
123	3
124	1
125	2
126	5
127	10
128	19
129	72
131	168
132	64
133	30
134	7
135	2
136	1
137	2
139	3
140	9
141	13
142	45
143	67
144	24
145	41
146	60
147	8
148	2
149	6
150	1
151	2
152	3
154	24
155	96
156	221
157	180
158	22
159	12
160	5
161	1
163	1
165	2
166	3
167	17
168	32
169	66
170	85
171	76
172	10
173	2
174	1
175	1
176	1
177	2
178	3
180	88
182	603
183	144
184	436
185	70
186	83
187	9
188	1
189	1
191	1
192	3
194	51
195	71
196	228
197	99
198	99
199	13
200	2
204	1
205	1
206	1
207	5
208	23
209	51
210	76
211	357
212	51
213	5
220	2
221	2
222	9
223	22
225	508
226	780
227	111
228	7
229	1
