Mass Spectrum: 1,3-Benzodioxol-2-one, hexahydro-, trans-
Formula: C7H10O3
CAS: 20192-66-9
Molecular weight: 142
m/z	intensity
26	20
27	220
28	60
29	130
39	230
40	40
41	999
42	250
43	40
44	60
53	30
54	110
55	180
56	10
57	540
67	80
68	70
69	940
70	80
80	10
83	10
97	15
98	9
