Mass Spectrum: 2-(1-Adamantyl)-N-benzylglycine
Formula: C19H25NO2
CAS: 201992-58-7
Molecular weight: 299
m/z	intensity
39	182
40	32
41	218
42	30
43	28
45	97
50	29
51	56
52	26
53	54
54	29
55	66
56	16
57	13
63	42
65	237
66	22
67	81
68	4
69	21
74	8
77	143
78	43
79	162
80	40
81	59
82	4
87	3
89	46
90	37
91	999
92	97
93	111
103	3
104	9
105	12
106	27
107	43
115	5
116	6
117	32
118	52
119	12
120	9
135	175
136	17
254	16
255	4
