Mass Spectrum: 1,3,7,7-Tetramethyl-9-oxo-2-oxabicyclo[4.4.0]dec-5-ene
Formula: C13H20O2
CAS: 20194-67-6
Molecular weight: 208
m/z	intensity
39	340
41	620
43	999
53	190
55	290
57	180
65	180
67	180
77	250
79	290
80	160
81	200
91	270
93	160
95	180
105	160
107	370
109	840
123	160
124	380
151	190
193	910
194	250
208	160
