Mass Spectrum: Benzeneacetamide, .alpha.-hydroxy-N,.alpha.-dimethyl-
Formula: C10H13NO2
CAS: 2019-70-7
Molecular weight: 179
m/z	intensity
26	2
27	15
28	14
29	6
30	14
31	5
37	1
38	4
39	28
40	3
41	11
42	5
43	999
44	29
45	4
49	1
50	28
51	85
52	21
53	7
54	1
55	7
56	6
57	9
58	59
59	4
60	3
61	1
62	5
63	14
64	3
65	14
66	1
67	2
68	1
69	6
70	2
71	5
73	1
74	9
75	9
76	14
77	141
78	61
79	27
80	2
81	2
82	1
83	4
84	1
85	3
86	0
87	1
89	4
90	1
91	19
92	3
93	1
94	1
95	2
96	1
97	3
98	1
99	0
101	1
102	10
103	30
104	24
105	84
106	14
107	25
108	2
109	1
110	0
111	2
112	0
113	1
115	1
116	0
117	1
118	3
119	1
120	8
121	742
122	84
123	6
125	1
126	0
127	0
128	0
129	2
130	0
131	0
132	2
133	0
134	3
135	0
137	0
141	1
142	0
149	7
150	1
151	8
152	1
160	2
161	3
162	3
163	0
179	23
180	4
181	0
