Mass Spectrum: Octadecanoic acid, 6,7,9,10,12,13-hexamethoxy-, methyl ester
Formula: C25H50O8
CAS: 20207-68-5
Molecular weight: 478
m/z	intensity
15	11
17	27
29	27
41	159
43	38
45	439
47	5
55	186
56	2
57	19
58	8
59	74
71	376
72	16
73	38
75	999
76	22
77	2
79	46
80	2
81	11
83	118
84	19
85	74
88	123
89	35
91	5
92	2
93	5
95	137
97	76
99	27
101	329
102	19
105	5
107	2
109	19
111	74
112	2
113	5
114	22
115	206
119	16
121	2
123	16
125	2
127	302
128	8
129	2
131	2
133	8
135	109
136	5
137	2
139	63
141	131
145	27
153	33
157	2
158	11
159	521
160	27
161	2
165	41
171	587
172	54
173	5
177	13
185	942
186	82
191	22
197	288
198	19
203	74
204	2
207	2
209	46
210	2
211	2
217	156
218	2
223	145
224	5
229	384
230	30
235	63
236	5
241	76
242	5
255	54
256	2
261	126
262	5
267	129
268	2
287	46
299	27
319	35
320	2
331	22
350	2
363	8
