Mass Spectrum: 1-(2-Desoxy-.beta.-d-ribofuranosyl)-4-methylthio-5-fluoropyrimidin-2-one
Formula: C10H13FN2O4S
CAS: 20201-45-0
Molecular weight: 276
m/z	intensity
12	16
13	15
14	47
15	263
16	18
17	39
18	129
19	200
20	6
24	3
25	6
26	42
27	319
28	386
29	458
30	67
31	500
32	45
33	29
34	7
35	2
36	3
37	11
38	34
39	135
40	42
41	242
42	160
43	869
44	240
45	999
46	176
47	306
48	136
49	52
50	22
51	32
52	44
53	77
54	74
55	119
56	48
57	209
58	181
59	86
60	54
61	43
62	4
63	43
64	8
65	15
66	14
67	13
68	43
69	229
70	180
71	335
72	62
73	591
74	121
75	169
76	31
77	46
78	8
79	11
80	8
81	101
82	21
83	26
84	67
85	133
86	234
87	71
88	36
89	61
90	57
91	17
92	13
93	11
94	9
95	12
96	32
97	269
98	176
99	369
100	73
101	38
102	67
103	24
104	40
105	34
106	6
107	4
108	4
109	5
110	15
111	22
112	46
113	114
114	68
115	125
116	82
117	597
118	107
119	15
120	10
121	8
122	8
123	11
124	8
125	10
126	23
127	84
128	26
129	18
130	64
131	29
132	26
133	23
134	4
135	5
136	3
137	3
138	3
139	90
140	18
141	16
142	7
143	59
144	53
145	154
146	38
147	17
148	4
149	13
150	2
151	3
152	4
153	5
154	2
155	3
156	5
157	43
158	12
159	57
160	999
161	474
162	82
163	23
164	2
165	2
167	2
169	8
170	3
171	41
172	7
173	12
174	7
175	2
179	5
180	1
183	2
184	2
185	9
187	119
188	12
189	6
199	3
200	2
201	5
202	7
203	3
204	1
214	2
215	2
216	2
227	1
228	1
240	1
245	1
246	6
247	0
261	1
274	1
276	27
277	4
278	2
