Mass Spectrum: Sulfone, (3-amino-3-oxopropyl)(4-chlorophenyl)-
Formula: C9H10ClNO3S
CAS: 202191-43-3
Molecular weight: 247
m/z	intensity
33	5
34	6
35	6
36	20
37	10
38	23
39	27
40	56
41	30
42	29
43	104
44	999
46	7
47	5
48	14
50	156
51	80
52	10
53	10
54	21
55	207
56	49
57	19
58	9
59	18
60	8
61	17
62	10
63	27
64	16
65	18
66	2
67	3
68	3
69	16
70	9
72	300
73	45
74	86
75	303
76	71
77	54
78	7
79	5
80	2
81	5
82	5
83	5
84	13
85	37
86	7
87	15
88	1
89	4
90	2
91	19
92	4
93	5
94	2
95	8
96	5
97	5
98	3
99	29
100	7
101	9
102	7
103	18
104	6
105	26
106	9
107	6
108	15
109	7
111	366
112	287
113	127
114	84
115	9
116	1
117	2
118	2
119	3
120	12
121	2
122	2
123	4
125	44
126	7
127	56
128	61
129	19
130	21
131	19
132	3
133	6
134	2
135	2
136	10
138	175
139	79
140	73
141	30
142	10
143	7
144	4
145	3
146	1
147	2
148	14
149	13
150	3
151	2
152	4
153	3
154	1
155	2
156	1
157	2
159	79
160	15
161	27
162	4
163	1
164	2
165	6
166	19
167	9
168	7
169	4
170	1
171	1
172	1
175	70
176	60
177	27
178	23
179	4
180	3
182	31
183	182
184	24
185	56
186	6
187	0
188	0
189	0
190	0
191	1
192	3
193	3
194	1
195	1
196	0
197	0
199	5
200	15
201	4
202	4
203	45
204	6
205	16
206	1
207	1
208	0
209	0
210	0
212	0
213	5
214	1
215	4
216	0
217	0
218	0
219	1
222	0
223	1
224	0
225	0
227	0
228	0
230	5
231	2
232	2
233	0
234	0
240	0
241	0
242	0
245	1
247	10
248	1
249	3
250	0
251	0
