Mass Spectrum: Phenol, 2-(4-iodophenyliminomethyl)-6-nitro-
Formula: C13H9IN2O3
CAS: 202131-15-5
Molecular weight: 368
m/z	intensity
33	1
34	2
35	2
36	10
37	46
38	150
39	257
40	51
41	27
42	9
43	13
44	15
45	10
46	9
47	0
50	589
51	295
52	87
53	97
54	13
55	15
56	6
57	14
58	1
61	38
62	130
63	407
64	208
65	144
66	32
67	10
68	3
69	31
70	53
71	19
73	11
74	157
75	235
76	999
77	200
78	55
79	16
80	13
81	7
82	41
83	41
85	8
86	16
87	30
88	43
89	76
90	90
91	134
92	83
93	39
94	12
95	2
97	10
98	13
99	14
100	9
101	19
102	83
103	91
104	21
105	11
106	10
107	6
108	4
109	7
110	3
112	46
113	45
114	41
115	43
116	24
117	40
118	41
119	61
120	9
121	2
122	7
123	2
124	1
125	7
127	106
128	49
129	19
130	8
131	6
132	1
134	6
135	5
137	18
138	51
139	248
140	169
141	32
142	6
143	3
144	1
145	1
146	1
147	15
148	4
149	3
150	4
151	8
152	24
153	22
154	94
155	32
156	6
157	1
160	0
162	0
164	65
165	122
166	280
167	188
168	36
169	8
170	3
171	3
172	0
175	22
176	4
177	7
178	11
179	24
180	8
181	6
182	21
183	12
184	5
185	0
191	11
193	175
194	120
195	61
196	11
197	2
200	2
203	325
204	20
206	1
207	8
208	3
209	1
210	5
211	8
212	1
215	0
216	3
217	1
218	6
219	19
220	2
223	13
224	28
225	4
226	0
227	2
229	11
230	179
231	14
240	6
241	13
242	7
243	1
245	3
254	3
255	0
256	1
265	1
266	1
267	0
268	0
282	0
283	0
292	16
293	39
294	9
295	1
296	0
305	36
306	9
307	1
308	4
309	1
310	32
311	4
317	0
318	3
320	105
321	152
322	32
323	4
333	5
334	7
335	4
336	1
337	4
338	37
339	5
347	1
348	5
350	158
351	39
352	19
353	2
363	1
364	6
365	5
366	7
368	932
369	129
370	14
371	1
