Mass Spectrum: 5,6-Dihydroxypiperazine-2,3-dione dioxime
Formula: C4H8N4O4
CAS: 202119-15-1
Molecular weight: 176
m/z	intensity
33	28
34	45
36	3
38	22
39	62
40	80
41	193
42	342
43	999
44	498
45	122
46	161
47	12
48	3
50	4
51	11
53	158
54	65
55	183
56	40
57	57
58	65
59	148
60	70
61	10
63	2
64	5
65	9
66	7
67	23
68	73
69	76
70	83
71	105
72	103
73	78
74	5
75	2
76	2
77	7
78	13
79	7
80	10
81	16
82	12
83	33
84	26
86	202
87	21
88	28
91	3
92	2
93	5
94	6
95	16
96	21
97	18
98	18
100	110
101	12
102	15
103	14
104	3
105	8
107	3
109	8
110	8
111	18
112	13
113	20
114	6
115	5
116	2
118	85
119	7
121	2
122	10
123	4
124	3
125	5
126	4
128	30
129	60
130	9
131	6
132	15
133	2
135	2
136	2
137	2
138	4
139	3
140	2
141	2
142	2
143	4
145	2
146	2
147	2
148	3
149	6
152	2
157	2
158	3
159	9
167	2
171	4
174	2
176	79
177	6
