Mass Spectrum: Phenol, 4-nitro-2-(1,2,4-triazol-3-yl)iminomethyl-
Formula: C9H7N5O3
CAS: 202118-42-1
Molecular weight: 233
m/z	intensity
34	11
35	8
36	17
37	115
38	285
39	449
40	343
41	154
42	943
43	298
44	127
45	24
46	65
48	9
49	38
50	543
51	474
52	253
53	372
54	90
55	90
56	20
57	61
58	48
60	22
61	77
62	176
63	439
64	218
65	262
66	80
67	84
68	120
69	999
70	147
71	19
72	6
73	38
74	154
75	265
76	552
77	213
78	177
79	157
80	64
81	39
82	29
83	11
84	45
85	27
86	108
87	31
88	60
89	49
90	168
91	116
92	102
93	49
94	41
95	157
96	17
97	8
98	4
99	14
100	13
101	16
102	59
103	82
104	121
105	186
106	57
107	20
108	15
109	11
110	3
111	8
112	6
113	3
114	3
115	12
116	19
117	43
118	72
119	80
120	60
121	50
122	8
123	3
124	0
125	2
126	2
127	8
128	8
129	10
130	29
131	120
132	105
133	36
134	22
135	8
136	3
137	8
138	2
139	5
140	2
141	2
142	5
143	10
144	9
145	39
146	39
147	27
148	79
149	31
150	17
151	7
152	8
153	4
154	4
155	3
156	2
157	17
158	57
159	27
160	23
161	9
162	1
163	2
164	9
165	25
166	14
167	30
168	9
169	15
170	175
171	27
172	4
173	4
175	44
176	19
177	9
178	2
179	1
180	6
181	4
182	2
183	3
184	5
185	11
186	90
187	31
188	5
189	0
190	2
191	1
192	0
196	1
197	0
198	1
200	14
202	7
203	37
204	4
205	2
206	8
207	4
208	3
209	13
210	3
211	0
212	1
213	3
214	15
216	700
217	84
218	7
219	1
221	0
224	0
225	0
227	0
228	0
229	1
230	3
231	16
232	78
233	638
234	72
235	7
236	0
