Mass Spectrum: 1,3-Dioxolane, 2-(4-bromobutyl)-2-methyl-
Formula: C8H15BrO2
CAS: 20210-14-4
Molecular weight: 222
m/z	intensity
41	79
42	29
43	584
44	19
45	29
53	19
54	9
55	138
56	9
64	9
67	9
71	29
81	19
83	9
85	79
86	9
87	999
88	49
99	29
135	29
137	29
207	138
208	9
209	128
210	9
