Mass Spectrum: Phosphoric acid, tris(1,1-dimethylethyl) ester
Formula: C12H27O4P
CAS: 20224-50-4
Molecular weight: 266
m/z	intensity
25	0
26	7
27	31
28	21
29	69
30	2
31	10
33	0
34	2
37	3
38	7
39	54
40	14
41	150
42	14
43	65
44	6
45	17
46	1
47	5
48	1
49	2
50	18
51	31
52	8
53	9
54	3
55	40
56	77
57	216
58	22
59	56
60	1
61	1
62	1
63	2
65	21
66	2
67	3
68	1
69	5
70	2
71	2
72	2
73	4
74	6
75	3
76	4
77	78
78	17
79	5
80	8
81	68
82	33
83	105
84	1
85	1
89	1
91	15
92	5
93	4
94	1
95	3
96	2
97	13
98	1
99	999
100	1
101	6
103	1
105	103
106	92
107	13
109	19
110	20
111	94
112	2
113	15
118	1
121	5
123	11
124	1
125	26
126	15
127	461
128	10
129	3
136	1
137	13
138	11
139	628
140	21
141	11
143	1
151	63
152	5
153	27
154	64
155	685
156	31
157	5
165	3
166	3
167	111
168	7
169	1
171	1
172	1
173	1
178	1
179	5
180	2
181	5
182	1
183	3
188	2
194	3
195	454
196	35
197	4
211	17
212	2
223	3
251	27
252	2
