Mass Spectrum: 2-Succinimidoethyl 4-morpholinecarbodithioate
Formula: C11H16N2O3S2
CAS: 202340-95-2
Molecular weight: 288
m/z	intensity
34	29
35	6
36	8
37	8
39	82
40	302
41	203
42	308
43	183
44	496
45	210
46	48
48	13
49	9
50	19
52	33
53	27
54	72
55	561
56	392
57	96
58	174
59	188
60	241
61	19
62	14
63	12
64	18
65	17
66	9
67	15
68	26
70	143
72	179
73	41
74	23
76	54
77	92
78	14
79	14
80	10
81	9
82	22
84	110
86	999
88	134
89	11
90	10
91	23
92	6
93	7
94	4
95	5
96	9
97	8
98	52
100	68
102	109
103	14
104	14
105	18
106	7
107	5
108	3
109	6
110	5
112	36
113	7
114	8
115	9
116	6
117	12
118	9
119	38
120	34
121	38
122	6
123	5
124	6
126	236
127	23
128	39
130	968
131	73
132	53
133	7
134	4
135	3
144	3
145	5
146	25
147	22
148	5
149	9
154	5
157	13
158	14
160	5
161	7
163	711
164	49
165	54
166	5
171	4
189	6
285	3
286	7
288	212
289	27
290	18
