Mass Spectrum: 2-Phthalimidoethyl 4-morpholinecarbodithioate
Formula: C15H16N2O3S2
CAS: 202328-98-1
Molecular weight: 336
m/z	intensity
34	28
35	9
36	10
38	19
39	68
40	27
41	119
42	137
43	159
44	17
45	154
46	28
47	13
48	16
50	172
51	94
52	23
54	56
55	94
56	186
57	78
58	123
59	139
60	207
61	19
63	42
64	25
65	24
66	10
67	9
68	12
69	32
70	53
72	130
73	44
74	66
76	329
77	225
78	25
80	9
81	11
82	9
83	14
84	30
86	844
88	70
89	18
90	30
91	33
92	9
93	8
95	9
96	5
97	8
98	8
99	5
100	16
102	149
103	33
104	104
105	67
106	9
107	7
109	9
110	4
111	5
112	8
113	6
114	8
115	7
116	10
117	15
118	9
119	34
120	30
121	37
122	6
123	9
124	7
125	4
126	5
128	37
130	999
131	76
132	61
133	52
134	10
135	7
136	2
137	1
138	1
139	1
142	2
143	3
144	6
145	8
146	17
147	54
148	32
149	12
150	3
151	3
152	2
156	1
157	3
160	261
161	40
163	486
164	36
165	37
166	3
167	3
168	3
169	2
171	14
174	752
175	78
176	9
177	2
178	1
179	1
185	1
188	17
189	3
190	4
191	1
192	1
193	2
199	1
204	1
205	4
206	11
207	5
209	13
210	1
211	4
216	2
283	2
285	3
288	1
301	1
332	2
333	4
334	5
335	5
336	119
337	20
338	12
339	2
