Mass Spectrum: 2-Phthalimidoethyl 1-pyrrolidinecarbodithioate
Formula: C15H16N2O2S2
CAS: 202328-86-7
Molecular weight: 320
m/z	intensity
34	61
35	3
36	19
38	50
39	101
40	60
41	265
42	112
43	165
44	29
45	84
46	20
47	20
48	5
50	136
51	76
52	22
53	45
55	471
57	135
59	107
60	60
62	17
63	20
64	27
65	26
66	19
68	51
69	50
70	240
72	600
73	36
74	69
75	58
76	180
77	164
78	29
79	12
80	10
81	20
82	28
83	23
85	68
86	47
87	19
88	7
89	13
90	19
91	27
93	15
95	13
96	7
97	12
98	15
99	9
100	16
101	8
102	47
103	18
104	78
105	45
106	6
107	7
108	4
109	9
110	4
111	11
112	30
114	999
115	71
116	53
117	12
118	6
119	9
120	4
121	3
122	1
123	5
124	5
125	4
126	6
127	3
128	9
130	124
131	18
132	9
133	34
134	7
135	7
137	3
139	2
140	2
142	1
143	3
145	28
147	779
148	67
149	86
150	3
151	5
152	4
153	2
157	2
159	7
160	148
161	15
162	4
163	4
165	1
169	3
170	1
171	20
172	8
173	14
174	152
175	19
178	1
179	2
185	2
188	9
189	2
191	2
199	2
205	1
206	8
207	4
216	1
272	2
283	3
285	1
316	2
317	2
318	5
320	140
321	23
322	12
