Mass Spectrum: N-[(Benzoyl)(p-toluidino)methyl]acetamide
Formula: C17H18N2O2
CAS: 202341-25-1
Molecular weight: 282
m/z	intensity
34	28
36	28
37	22
39	281
40	414
41	126
42	139
43	551
44	334
45	14
46	6
49	10
50	151
51	352
52	78
53	38
54	15
55	27
56	15
57	27
59	179
60	96
62	34
63	91
65	330
66	24
67	7
69	15
70	15
71	10
72	7
73	9
74	30
75	27
77	580
78	126
79	58
80	13
81	9
82	6
83	9
84	6
85	8
86	22
87	7
89	85
91	653
92	45
93	61
94	4
95	4
96	3
97	4
98	3
99	3
100	2
101	5
103	8
104	21
105	278
106	260
107	147
108	69
109	7
111	3
112	4
113	2
114	2
115	3
118	999
119	64
120	16
121	3
122	2
127	2
128	2
129	2
130	2
131	7
133	64
135	761
136	92
137	6
139	2
146	2
149	8
152	4
159	2
161	4
162	2
165	3
171	3
174	2
175	23
177	643
178	71
179	6
180	3
181	2
194	7
195	2
196	2
221	4
222	7
223	117
224	23
225	4
280	2
282	18
283	4
