Mass Spectrum: Pregn-5-en-20-one, 11-(acetyloxy)-3,14-dihydroxy-12-(2-hydroxy-3-methyl-1-oxobutoxy)-, (3.beta.,11.alpha.,12.beta.,14.beta.)-
Formula: C28H42O8
CAS: 20230-37-9
Molecular weight: 506
m/z	intensity
27	234
28	225
29	402
39	126
41	620
42	149
43	999
44	328
45	144
50	46
51	50
53	50
54	46
55	758
56	252
57	799
58	46
59	103
60	87
61	41
65	69
66	27
67	321
68	121
69	731
70	264
71	708
72	96
73	149
74	114
75	34
76	87
77	206
78	46
79	179
80	50
81	494
82	211
83	528
84	179
85	436
91	252
92	96
93	206
94	87
95	441
96	202
97	556
98	126
99	137
101	59
102	62
103	46
104	96
105	413
106	126
107	443
108	87
109	390
110	149
111	321
112	126
113	126
115	73
116	46
117	149
118	62
119	287
120	275
121	183
122	114
123	252
124	94
125	206
126	82
127	96
128	124
129	124
130	57
131	206
132	69
133	206
134	85
135	206
136	73
137	177
138	119
139	137
140	91
141	114
142	71
143	195
144	126
145	402
146	91
147	200
148	91
149	770
150	114
151	142
152	87
153	149
154	69
155	172
156	69
157	188
158	91
159	200
160	69
161	142
162	110
163	482
164	126
165	172
166	126
167	229
168	96
169	183
170	80
171	172
172	64
173	160
174	57
175	156
176	80
177	96
178	96
179	119
180	114
181	149
182	114
183	218
184	87
185	149
186	73
187	172
188	172
189	367
190	298
191	275
192	183
193	298
194	551
195	528
196	275
197	448
198	172
199	294
200	114
201	183
202	126
203	218
204	149
205	298
206	298
207	390
208	264
209	436
210	188
211	425
212	137
213	183
214	103
215	183
216	110
217	133
218	87
219	110
220	69
221	149
222	275
223	287
224	179
225	528
226	172
227	225
228	91
229	183
230	96
231	80
232	57
233	126
234	91
235	229
236	69
237	87
238	46
239	367
240	464
241	172
242	149
243	402
244	126
245	126
249	379
250	160
251	160
252	82
253	137
254	57
255	50
257	202
258	160
259	73
260	505
261	252
262	64
265	80
266	46
267	632
268	183
269	172
270	50
271	119
272	202
273	50
275	57
277	172
278	57
279	57
281	46
282	91
283	110
284	46
285	402
286	126
292	126
293	379
294	114
295	298
296	73
297	48
300	303
301	103
302	39
309	46
310	574
311	482
312	172
313	195
314	46
317	27
318	46
327	46
328	774
329	367
330	103
332	80
343	48
344	23
345	57
346	41
360	119
361	41
370	156
371	50
372	25
378	25
388	114
389	41
406	41
428	64
429	18
446	11
470	11
478	32
479	9
480	4
486	4
488	43
489	13
490	6
504	4
506	100
507	29
508	6
