Mass Spectrum: N'-(3,5-Dibromo-2-hydroxybenzylidene)-3,5-dinitrobenzohydrazide
Formula: C14H8Br2N4O6
CAS: 202327-59-1
Molecular weight: 486
m/z	intensity
36	19
38	68
40	117
41	37
43	91
44	87
45	116
50	109
51	61
53	110
55	22
62	143
63	116
64	39
75	999
76	140
77	73
78	37
79	29
80	32
81	18
82	25
88	24
90	25
91	54
103	106
104	29
105	48
119	23
141	21
143	21
149	179
155	20
156	29
157	21
158	21
165	47
181	27
183	24
185	24
195	132
212	78
214	52
275	51
276	26
277	98
278	39
279	50
