Mass Spectrum: Hydrazine, 1-methyl-1-(2-propenyl)-
Formula: C4H10N2
CAS: 20240-70-4
Molecular weight: 86
m/z	intensity
27	66
28	60
29	57
30	79
31	21
39	134
41	179
42	216
43	134
44	92
45	999
46	25
56	24
59	171
68	33
86	320
87	19
