Mass Spectrum: Phosphorothioic acid, O,O-diisopropyl ester, S-ester with N-(2-mercaptoethyl)benzenesulfonamide
Formula: C14H24NO5PS2
CAS: 20243-81-6
Molecular weight: 381
m/z	intensity
12	9
13	11
14	39
15	161
16	14
17	33
18	112
19	34
20	17
24	3
25	14
26	90
27	510
28	191
29	55
30	250
31	32
32	14
33	8
34	12
35	8
36	15
37	77
38	125
39	545
40	180
41	817
42	570
43	779
44	85
45	159
46	76
47	150
48	32
49	14
50	99
51	422
52	33
53	14
54	3
55	20
56	10
57	10
58	23
59	101
60	36
61	25
62	7
63	24
64	23
65	81
66	15
67	3
68	2
69	10
70	4
71	4
72	3
73	9
74	78
75	70
76	96
77	999
78	160
79	24
80	10
81	59
82	93
83	28
84	2
85	3
86	1
87	3
88	7
89	8
90	10
91	26
92	58
93	24
94	34
95	7
96	9
97	66
98	18
99	50
100	1
101	5
102	8
103	3
104	9
105	17
106	19
107	7
108	7
109	31
110	14
111	12
112	15
113	9
114	111
115	368
116	9
117	21
118	31
119	48
120	7
121	4
122	31
123	117
124	52
125	97
126	16
127	73
128	779
129	88
130	39
131	4
135	1
136	2
137	3
138	17
140	95
141	455
142	39
143	26
144	2
145	1
149	1
151	1
152	1
154	103
155	16
156	53
157	143
158	18
159	8
165	20
166	3
167	1
170	389
171	56
172	20
173	3
174	1
182	10
183	19
184	14
185	3
186	2
187	3
198	31
199	105
200	11
201	6
204	2
205	1
212	56
213	4
214	5
215	26
216	3
217	5
218	3
224	4
240	52
241	4
242	2
244	2
280	23
281	2
282	2
298	2
340	1
382	2
