Mass Spectrum: Carda-4,20(22)-dienolide, 3-[(6-deoxy-3-O-methyl-.alpha.-L-mannopyranosyl)oxy]-14-hydroxy-, (3.beta.)-
Formula: C30H44O8
CAS: 20248-01-5
Molecular weight: 532
m/z	intensity
26	291
27	979
28	406
29	483
30	250
31	833
32	37
33	125
36	31
37	12
38	29
39	183
40	41
41	333
42	41
43	308
44	104
45	187
47	16
50	27
51	62
52	41
53	141
54	29
55	150
56	375
57	337
58	170
59	250
60	250
61	229
62	16
63	52
64	27
65	129
66	56
67	208
68	35
69	191
70	41
71	162
72	29
73	312
74	999
75	258
76	35
77	291
78	62
79	250
80	83
81	229
82	58
83	108
84	41
85	187
86	20
87	208
88	41
89	45
90	14
91	760
92	139
93	120
94	66
95	100
96	25
97	45
98	37
99	58
100	45
101	58
102	93
103	156
104	104
105	958
106	229
107	260
108	52
109	37
110	14
111	125
112	20
113	12
114	12
115	100
116	41
117	141
118	125
119	129
120	62
121	79
122	16
123	29
124	20
125	25
126	25
127	52
128	145
129	162
130	66
131	187
132	58
133	83
134	25
136	12
137	20
138	14
139	31
140	16
141	162
142	87
143	341
144	129
145	729
146	141
147	220
148	52
149	33
150	16
151	25
152	41
153	62
154	41
155	104
156	62
157	170
158	114
159	187
160	87
161	166
162	35
163	58
164	20
165	75
166	27
167	45
168	41
169	66
170	54
171	108
172	66
173	62
174	66
175	37
176	37
177	41
178	37
179	145
180	41
181	116
182	35
183	45
184	33
185	66
186	20
187	25
188	16
189	87
190	20
191	25
192	16
193	27
194	20
195	54
196	20
197	45
198	25
199	45
200	20
201	197
202	41
203	37
204	16
205	20
206	10
207	20
208	12
209	45
210	25
211	100
212	25
213	20
214	4
215	31
216	16
217	54
218	25
219	16
220	12
221	16
222	8
223	20
224	16
225	25
226	75
227	25
228	16
229	72
230	25
231	79
232	16
233	20
234	12
235	16
237	12
238	12
239	12
240	8
241	8
242	12
243	12
244	20
245	37
246	12
247	16
248	4
249	16
250	4
251	12
252	4
253	4
254	12
255	16
256	12
257	8
258	4
259	14
260	8
261	16
262	8
263	8
265	12
266	8
267	12
268	12
269	16
270	12
271	12
273	6
275	16
276	12
277	12
278	4
279	4
280	4
281	4
282	14
283	8
284	8
285	8
286	8
287	8
289	8
291	8
292	8
293	16
294	12
295	12
296	4
297	8
298	8
302	8
303	8
304	8
305	8
306	8
307	25
308	16
309	16
310	16
311	4
312	8
313	8
314	8
316	8
317	8
318	8
319	25
320	12
321	162
322	41
323	12
324	12
325	8
326	14
328	14
332	8
333	8
334	29
335	20
336	441
337	129
338	25
339	95
340	25
341	12
342	8
348	8
349	8
350	125
351	25
352	116
353	41
354	724
355	187
356	35
366	20
367	8
368	66
369	20
370	45
371	12
372	8
382	8
383	8
384	16
385	8
386	8
446	16
447	12
