Mass Spectrum: Hydrazine, 1-methyl-1-(2-methylpropyl)-
Formula: C5H14N2
CAS: 20240-63-5
Molecular weight: 102
m/z	intensity
27	41
29	62
30	98
31	44
39	37
40	25
41	58
42	201
43	61
44	55
45	73
46	16
57	22
59	999
60	29
70	11
71	25
102	114
103	7
