Mass Spectrum: 4H-Cyclohepta[c]furan-4-one, 8-ethoxy-1,3-dimethyl-
Formula: C13H14O3
CAS: 202581-65-5
Molecular weight: 218
m/z	intensity
33	8
34	1
38	95
39	262
40	39
41	40
43	999
45	43
46	1
50	91
51	105
52	42
53	44
54	10
55	32
57	7
58	3
59	2
60	3
61	14
62	55
63	113
64	43
65	89
66	20
67	25
68	12
69	11
70	2
71	2
74	65
75	56
76	53
77	97
78	36
79	55
80	15
81	6
82	2
83	2
85	7
86	12
87	13
89	118
90	46
91	91
92	15
93	9
94	9
95	18
96	1
97	3
98	9
99	5
100	4
101	15
102	31
103	46
104	18
105	55
106	7
107	9
108	4
109	2
110	0
111	0
113	5
115	90
116	24
117	20
118	20
119	31
120	9
121	9
122	4
123	3
124	0
125	0
126	2
127	7
128	4
129	8
131	61
132	20
133	19
134	8
135	3
136	1
137	2
139	1
141	0
143	8
144	17
145	26
147	111
148	13
149	4
150	2
151	3
155	3
157	1
158	3
161	724
162	302
163	38
164	6
165	4
166	1
167	1
171	2
172	1
173	7
174	6
175	12
176	13
177	9
178	3
179	2
186	1
189	205
190	78
191	12
192	3
193	2
194	0
202	0
203	2
204	6
205	4
206	1
215	0
217	50
218	180
219	20
220	3
221	0
