Mass Spectrum: N'-(3,4,5-Trimethoxybenzylidene)picolinohydrazide
Formula: C16H17N3O4
CAS: 202599-32-4
Molecular weight: 315
m/z	intensity
37	3
38	15
39	36
40	9
41	9
42	5
43	11
44	16
45	6
49	5
50	46
51	159
52	140
53	61
54	6
55	8
56	2
57	8
58	1
59	3
61	3
62	9
63	31
64	33
65	27
66	48
67	12
68	6
69	13
70	1
71	1
73	1
74	5
75	11
76	33
77	59
78	482
79	999
80	106
81	20
82	4
83	2
84	1
85	1
86	1
88	3
89	12
90	25
91	25
92	29
93	16
94	30
95	23
96	4
97	2
99	2
100	1
101	2
102	3
103	5
104	23
105	94
106	84
107	51
108	22
109	19
110	4
111	1
112	1
113	3
115	1
117	7
118	47
119	19
120	34
121	19
122	111
123	26
124	4
125	3
128	1
129	2
130	4
131	3
132	7
133	17
134	10
135	64
136	17
137	14
138	4
139	1
140	1
141	2
142	1
143	2
144	2
145	2
146	4
147	8
148	14
149	16
150	78
151	24
152	4
153	2
154	3
155	1
156	1
157	3
158	3
159	1
160	1
161	2
162	6
163	43
164	9
165	37
166	12
167	3
168	1
169	2
170	4
171	2
172	1
175	3
176	9
177	9
178	261
179	40
180	9
181	33
182	5
183	3
184	4
185	2
186	3
191	4
193	611
194	79
195	16
196	5
197	9
198	4
199	1
200	1
201	1
202	1
204	1
207	2
208	5
209	73
210	9
211	2
212	5
213	2
214	2
215	1
216	1
219	1
220	1
223	1
224	1
225	1
226	2
228	5
237	16
238	2
239	1
240	3
241	1
242	2
244	3
250	1
252	1
253	1
254	1
255	2
256	4
257	2
258	1
268	1
271	2
272	1
273	1
282	1
283	2
284	2
285	3
286	2
295	1
296	1
298	8
299	1
312	1
313	2
315	237
316	41
317	5
