Mass Spectrum: 1,4,5,6-Tetra-O-acetyl-2,3-di-O-methylglucitol
Formula: C16H26O10
CAS: 20250-47-9
Molecular weight: 378
m/z	intensity
43	234
57	45
71	53
85	120
99	194
101	193
117	999
127	232
142	84
161	79
173	55
187	48
201	24
261	192
