Mass Spectrum: 4-Fluoro-2-(trifluoromethyl)benzylamine
Formula: C8H7F4N
CAS: 202522-22-3
Molecular weight: 193
m/z	intensity
10	1
11	4
12	7
14	29
15	7
17	33
18	13
20	1
21	1
26	2
28	415
29	419
30	999
31	69
32	10
37	17
38	28
39	35
40	2
41	13
45	15
48	16
49	5
50	93
51	84
52	24
54	1
56	19
57	80
59	3
61	33
62	46
63	70
64	3
65	1
68	46
69	133
70	27
71	10
73	15
74	68
75	171
76	27
77	50
80	12
81	51
82	5
85	19
86	20
87	27
88	7
92	18
93	52
94	69
95	89
96	39
97	49
98	5
99	45
100	22
101	33
102	12
104	1
105	11
106	9
107	91
108	19
112	5
113	41
114	41
117	4
119	7
120	13
121	1
122	37
124	362
125	254
126	64
127	174
128	4
132	4
134	70
137	21
138	1
143	55
144	45
145	141
146	13
150	3
152	472
153	74
154	107
155	4
156	15
157	5
163	43
164	25
170	70
171	3
172	339
173	489
174	65
177	158
178	7
190	9
192	401
193	260
194	21
