Mass Spectrum: 2-Nitro-2-methoxypyridine
Formula: C6H6N2O3
CAS: 20265-37-6
Molecular weight: 154
m/z	intensity
27	49
29	26
30	52
37	55
38	183
39	163
45	34
50	62
51	272
52	52
53	78
54	30
63	18
64	107
65	192
66	45
67	26
76	28
77	14
78	999
79	86
80	22
81	11
93	144
94	15
96	30
108	693
109	50
110	4
124	24
154	196
155	18
156	2
