Mass Spectrum: 1-Butoxy-1-isobutoxy-butane
Formula: C12H26O2
CAS: 20266-12-0
Molecular weight: 202
m/z	intensity
39	63
41	328
42	26
43	108
45	10
55	203
56	58
57	999
58	41
71	31
72	29
73	371
74	17
85	6
89	10
103	99
104	5
129	245
130	20
159	62
160	6
161	1
