Mass Spectrum: 2-Methoxy-3-nitropyridine
Formula: C6H6N2O3
CAS: 20265-35-4
Molecular weight: 154
m/z	intensity
34	10
36	3
38	94
39	129
40	20
41	70
42	40
43	74
44	32
45	14
46	57
49	17
50	130
51	178
52	130
53	245
54	57
55	88
56	22
57	55
58	7
59	9
60	13
63	31
64	119
65	242
66	229
67	41
68	21
69	51
70	32
71	27
72	5
73	12
74	6
75	35
76	43
77	48
78	855
79	106
80	80
81	53
82	24
83	34
84	9
85	29
89	14
91	35
92	14
93	438
94	385
95	91
96	48
97	18
98	10
101	3
102	15
103	8
104	14
105	40
107	97
108	61
109	30
110	16
111	22
112	21
113	10
115	18
116	4
117	8
119	37
120	43
121	4
123	41
124	999
125	133
126	17
136	6
137	65
138	38
139	12
140	4
153	18
154	646
155	53
156	8
157	2
