Mass Spectrum: Benzensulfonamide, 4-methoxy-N-benzyl-N-(2-hydroxyethyl)-
Formula: C16H19NO4S
CAS: 202751-00-6
Molecular weight: 321
m/z	intensity
33	0
34	0
36	1
38	4
39	13
40	2
41	9
42	10
43	2
44	2
45	9
46	0
47	0
48	0
50	7
51	12
52	3
53	3
54	0
55	1
56	2
57	0
58	1
59	0
60	0
61	0
62	3
63	19
64	25
65	47
66	3
67	0
69	1
70	0
71	0
72	0
73	0
74	1
75	2
76	9
77	100
78	13
79	12
80	1
81	0
82	0
83	0
84	1
85	0
86	0
87	0
89	13
91	999
92	123
93	6
95	4
96	1
97	0
98	0
99	0
101	0
102	0
104	7
105	8
106	22
107	107
108	20
109	2
110	0
111	0
112	0
113	0
115	1
116	0
117	4
118	28
119	4
120	7
121	2
123	50
124	4
125	1
126	0
127	1
128	0
129	0
130	0
131	0
132	2
133	0
134	0
135	0
136	0
137	0
138	0
139	1
140	1
141	1
142	0
144	0
146	0
147	0
148	0
150	62
151	6
152	1
153	1
155	26
156	3
157	1
158	0
161	0
164	0
165	1
166	1
168	27
169	6
171	204
172	19
173	11
174	1
175	0
180	0
181	0
182	0
183	0
184	1
185	0
186	0
194	2
195	3
196	12
197	2
198	1
199	0
200	0
210	0
212	0
214	0
215	0
229	0
244	0
258	0
261	0
262	0
275	0
276	1
277	0
278	4
279	0
280	0
286	1
287	2
290	305
291	50
292	18
293	2
294	0
321	6
322	1
323	0
