Mass Spectrum: 1-Cyclohexyl-1-(4-ethylcyclohexyl)ethane
Formula: C16H30
CAS: 2027-13-6
Molecular weight: 222
m/z	intensity
41	60
43	110
55	830
57	130
67	260
68	120
69	999
81	290
82	330
83	600
95	100
97	130
109	130
110	670
111	600
138	260
139	150
222	70
223	12
224	1
