Mass Spectrum: Bicyclohexyl, 4-phenyl-
Formula: C18H26
CAS: 20273-27-2
Molecular weight: 242
m/z	intensity
26	5
27	42
29	55
30	1
38	3
39	60
40	8
41	200
42	13
43	47
44	6
50	9
51	32
52	12
53	37
54	16
55	342
56	23
57	40
58	4
62	3
63	15
64	11
65	39
66	6
67	77
68	13
69	42
70	10
71	26
72	2
74	3
75	6
76	10
77	60
78	57
79	40
80	18
81	127
82	57
83	425
84	32
85	14
86	5
87	2
88	2
89	13
90	5
91	683
92	130
93	20
94	3
95	10
96	4
97	7
98	3
99	3
100	1
101	3
102	14
103	37
104	400
105	102
106	13
107	3
108	2
109	6
110	3
111	4
112	3
113	6
114	5
115	145
116	52
117	999
118	135
119	16
120	2
121	2
122	2
123	3
124	2
125	4
126	4
127	33
128	115
129	270
130	110
131	92
132	17
133	3
135	1
137	1
138	1
139	4
140	3
141	35
142	20
143	112
144	24
145	14
146	3
149	1
150	1
151	3
152	8
153	11
154	8
155	18
156	10
157	55
158	50
159	742
160	330
161	37
162	5
163	3
164	4
165	7
166	3
167	5
168	2
169	7
170	2
171	11
172	4
173	135
174	24
175	3
178	3
179	2
180	2
181	1
183	2
184	2
185	8
186	182
187	33
188	3
193	4
197	3
198	3
199	75
200	19
201	3
212	2
213	14
214	5
225	1
227	1
230	2
239	1
240	3
241	11
242	958
243	192
244	18
245	1
