Mass Spectrum: 1-Cyclohexyl-1-(4-methylcyclohexyl)ethane
Formula: C15H28
CAS: 2027-12-5
Molecular weight: 208
m/z	intensity
41	530
42	30
43	90
44	20
53	70
54	70
55	999
56	60
57	90
67	200
68	130
69	930
70	60
81	280
82	300
83	330
84	20
95	140
96	280
97	290
98	20
110	310
111	310
112	20
124	280
125	240
126	20
208	80
209	13
210	1
