Mass Spectrum: Benzaldehyde, 2-hydroxy-5-nitro-, methylphenylhydrazone
Formula: C14H13N3O3
CAS: 2027-52-3
Molecular weight: 271
m/z	intensity
34	2
36	3
37	33
38	129
39	335
40	46
41	39
42	59
43	45
44	20
45	15
46	20
48	2
50	165
51	501
52	135
53	183
54	38
55	25
56	3
57	4
58	3
60	3
61	26
62	86
63	266
64	177
65	194
66	154
68	10
69	5
70	2
71	4
72	10
73	6
74	35
75	38
76	71
77	999
78	230
79	420
80	42
81	7
82	6
83	3
84	4
85	3
86	2
87	4
88	8
89	12
90	45
91	81
92	77
93	22
94	6
95	2
96	2
97	3
98	8
99	4
100	2
101	7
102	6
103	19
104	155
105	147
106	766
107	729
108	67
109	3
110	1
111	1
113	10
114	1
115	5
116	2
117	3
118	16
119	36
120	14
121	9
122	2
123	1
124	0
125	0
126	3
127	17
128	6
129	2
130	2
131	3
132	6
133	91
134	15
135	6
136	10
137	1
138	0
139	2
140	1
141	2
142	1
143	1
144	1
145	1
146	0
147	2
148	2
149	1
150	5
151	3
152	8
153	5
154	9
155	5
156	2
157	1
158	0
159	0
160	0
162	0
163	1
164	4
165	4
166	5
167	4
168	3
169	2
170	1
171	1
172	0
173	0
176	0
177	0
178	0
180	4
181	11
182	8
183	3
184	2
185	0
186	0
191	0
192	0
193	1
194	0
195	3
196	2
197	1
198	0
199	0
200	0
203	0
205	0
206	1
207	1
208	2
209	4
210	6
211	4
212	1
213	0
214	0
220	0
221	1
222	5
223	3
224	10
225	3
226	1
227	0
228	0
229	0
230	0
231	0
236	0
237	0
238	0
239	0
240	0
241	1
242	0
243	0
244	0
252	0
253	0
254	1
255	1
256	1
257	0
264	0
265	0
266	0
267	5
270	96
271	212
272	35
273	4
274	0
