Mass Spectrum: 9-Octadecenoic acid
Formula: C18H34O2
CAS: 2027-47-6
Molecular weight: 282
m/z	intensity
39	185
41	951
42	107
43	532
45	106
53	117
54	256
55	999
56	301
57	321
67	305
68	220
69	687
70	288
71	143
73	138
81	243
82	218
83	523
84	308
85	90
95	156
96	248
97	417
98	241
99	51
101	64
109	93
110	145
111	187
112	81
114	77
123	88
124	83
125	87
127	52
137	60
138	55
139	42
147	19
148	18
151	42
152	35
153	22
154	9
161	13
163	10
165	25
166	20
167	11
169	9
175	9
177	4
179	17
180	24
181	9
189	5
193	11
194	9
207	13
208	8
220	21
221	20
222	26
235	13
236	6
246	7
264	89
265	19
282	14
