Mass Spectrum: 2-[Cyclohexanecarbonylhydrazino]-1,4-naphthoquinone
Formula: C17H18N2O3
CAS: 20287-17-6
Molecular weight: 298
m/z	intensity
41	254
42	13
43	21
44	7
50	22
51	27
52	8
53	50
54	28
55	530
56	22
59	1
62	5
63	15
65	7
66	3
67	29
68	19
69	5
74	11
75	31
76	74
77	61
78	6
79	16
81	37
83	999
84	58
85	1
87	1
88	7
89	60
90	6
101	23
102	77
103	27
104	50
105	36
109	2
110	7
111	87
112	5
113	13
114	13
115	17
116	22
117	4
126	2
128	9
129	9
130	6
131	19
132	11
133	3
142	150
143	30
144	16
145	2
146	16
154	2
158	2
159	16
160	14
161	1
171	31
172	23
173	8
174	11
187	65
188	938
189	114
190	10
202	1
215	2
223	2
252	4
253	2
270	7
298	195
299	61
300	22
301	2
