Mass Spectrum: 2,5-Dimethyl-1-propylpyrrole
Formula: C9H15N
CAS: 20282-39-7
Molecular weight: 137
m/z	intensity
39	140
41	240
42	210
43	70
51	80
52	80
53	140
54	130
55	60
65	70
66	60
67	140
77	70
79	70
80	90
92	70
93	90
94	710
95	240
106	60
107	80
108	999
109	370
120	60
122	230
136	350
137	820
138	110
