Mass Spectrum: 2-Hydroxy-1,4-naphthoquinone 4-monoisobutyroylhydrazone
Formula: C14H14N2O3
CAS: 20287-22-3
Molecular weight: 258
m/z	intensity
41	156
42	14
43	999
44	30
50	6
51	30
52	5
55	80
63	24
71	452
72	13
74	22
75	50
76	73
77	71
83	192
84	11
89	30
101	51
102	214
103	52
104	42
105	12
111	73
113	5
114	35
116	22
129	21
130	28
131	161
132	43
141	6
142	39
144	12
159	41
160	150
161	12
170	91
171	22
187	105
188	912
189	103
215	18
258	326
259	66
