Mass Spectrum: Butyric acid, 1-propylpentyl ester
Formula: C12H24O2
CAS: 20286-46-8
Molecular weight: 200
m/z	intensity
26	7
27	168
28	23
29	146
30	4
31	8
37	0
38	1
39	67
40	11
41	280
42	78
43	493
44	32
45	9
47	0
50	0
51	2
52	1
53	12
54	8
55	117
56	74
57	103
58	8
59	1
60	15
61	0
63	0
65	1
66	1
67	8
68	8
69	49
70	83
71	999
72	39
73	11
74	0
77	0
78	0
79	0
81	0
82	10
83	46
84	26
85	8
86	14
87	5
88	18
89	32
90	1
91	0
97	4
98	0
99	1
100	0
111	1
112	42
113	4
114	4
115	3
128	1
129	3
130	0
143	25
144	3
157	17
158	2
