Mass Spectrum: 1H-Indole, 4-(phenylmethoxy)-
Formula: C15H13NO
CAS: 20289-26-3
Molecular weight: 223
m/z	intensity
50	43
51	3
63	11
65	118
66	5
77	108
78	29
79	2
89	29
91	999
92	51
102	6
104	260
105	15
116	9
117	5
118	3
132	450
133	30
134	2
145	10
146	5
152	2
165	3
166	1
167	2
177	1
192	2
193	3
194	5
204	2
206	2
223	355
224	42
225	3
