Mass Spectrum: 7-Benzyloxyindole
Formula: C15H13NO
CAS: 20289-27-4
Molecular weight: 223
m/z	intensity
41	12
44	3
50	31
51	86
52	17
53	2
61	0
62	6
63	34
64	7
65	129
66	4
74	2
75	5
76	24
77	72
78	28
79	0
87	0
88	0
89	28
90	6
91	999
92	77
93	0
102	2
103	4
104	141
105	10
115	0
116	2
117	0
118	0
132	63
133	4
145	1
146	1
222	4
223	162
224	23
225	0
