Mass Spectrum: 2-Bromo-5-fluorobenzyl alcohol
Formula: C7H6BrFO
CAS: 202865-66-5
Molecular weight: 204
m/z	intensity
16	1
19	1
20	1
25	2
26	7
27	13
28	9
29	86
30	8
31	85
33	4
36	4
37	27
38	46
39	44
40	2
41	1
42	2
43	8
44	14
45	10
46	4
47	10
48	9
49	25
50	176
51	139
52	46
53	15
54	5
55	6
56	16
57	84
58	4
59	1
60	6
61	49
62	77
63	70
64	6
65	3
66	3
67	1
68	77
69	64
70	68
71	16
72	3
73	30
74	140
75	305
76	44
77	326
78	43
79	34
80	23
81	69
82	22
83	9
84	6
85	15
86	18
87	16
88	5
89	6
90	2
91	4
92	35
93	69
94	250
95	611
96	642
97	999
98	64
99	3
100	3
101	13
102	10
104	8
105	40
106	13
107	194
108	115
109	12
110	2
111	2
113	1
116	4
117	4
118	3
119	4
121	1
122	13
123	236
124	38
125	988
126	78
127	5
128	4
129	2
130	4
131	2
135	2
137	2
140	1
141	2
142	1
143	2
146	1
147	1
148	2
149	1
153	3
154	2
155	27
156	10
157	29
158	9
159	5
161	4
163	3
167	1
169	1
172	1
173	47
174	17
175	105
176	20
177	59
178	5
183	43
184	11
185	45
186	12
187	40
188	6
189	35
190	5
201	27
202	14
203	58
204	353
205	59
206	328
207	24
208	1
