Mass Spectrum: Monomethyl pimelate
Formula: C8H14O4
CAS: 20291-40-1
Molecular weight: 174
m/z	intensity
39	190
41	440
43	570
45	190
55	700
59	360
60	180
68	170
69	380
73	270
74	999
83	350
87	160
96	110
97	190
100	90
101	80
114	200
115	270
124	200
125	160
128	180
143	220
156	30
