Mass Spectrum: 9-Octadecenoic acid (Z)-, hexyl ester
Formula: C24H46O2
CAS: 20290-84-0
Molecular weight: 366
m/z	intensity
13	1
14	5
15	22
16	1
17	1
18	4
19	1
25	1
26	16
27	224
28	69
29	324
30	9
31	34
32	1
36	2
37	5
38	9
39	126
40	30
41	584
42	224
43	999
44	49
45	16
49	3
50	5
51	9
52	6
53	46
54	117
55	598
56	313
57	241
58	15
59	9
60	41
61	70
62	4
63	4
65	9
66	10
67	133
68	74
69	305
70	78
71	69
72	7
73	63
74	8
75	3
77	10
78	6
79	27
80	18
81	95
82	65
83	194
84	250
85	128
86	10
87	20
88	3
91	23
92	3
93	15
94	9
95	48
96	46
97	90
98	60
99	12
100	8
101	18
102	3
103	1
104	1
105	6
106	2
107	7
108	6
109	27
110	27
111	46
112	19
113	9
114	16
115	13
116	3
117	2
119	5
120	2
121	8
122	5
123	25
124	16
125	23
126	11
127	13
128	4
129	14
130	2
131	2
133	5
134	3
135	8
136	4
137	15
138	12
139	13
140	7
141	6
142	2
143	5
144	4
145	5
147	5
148	2
149	5
150	3
151	12
152	10
153	8
154	5
155	5
156	2
157	9
158	2
161	3
163	3
164	3
165	10
166	8
167	6
168	3
169	4
170	1
171	4
175	2
177	3
178	2
179	7
180	10
181	5
182	3
183	3
184	1
185	4
186	2
189	2
191	2
192	4
193	5
194	7
195	3
196	2
197	2
199	3
201	1
207	4
208	6
209	5
210	2
211	10
212	2
213	3
217	2
218	1
219	2
220	7
221	5
222	13
223	4
225	2
227	2
228	4
229	17
230	3
235	4
236	14
237	12
238	2
239	6
240	2
243	3
245	3
246	3
247	3
250	2
251	2
253	1
255	2
256	4
257	13
258	3
262	2
263	8
264	46
265	36
266	7
271	2
279	2
280	2
282	2
283	3
338	2
364	1
366	5
