Mass Spectrum: Piperazine, 1-ethyl-4-(4-piperidyl)-
Formula: C11H23N3
CAS: 202991-77-3
Molecular weight: 197
m/z	intensity
33	17
36	37
39	83
42	999
43	588
45	566
48	0
51	10
55	570
56	684
57	500
58	351
60	282
63	3
65	7
68	259
70	348
72	412
75	0
77	6
82	637
83	465
84	943
85	241
86	171
91	4
92	1
94	18
96	235
97	241
98	85
99	55
100	14
101	34
105	3
108	19
109	15
111	120
113	452
115	424
120	0
121	2
123	17
125	135
127	573
135	0
137	10
139	136
141	314
149	4
153	198
154	34
155	28
164	0
165	1
167	24
168	17
171	0
177	0
180	2
182	14
195	10
197	187
