Mass Spectrum: Benzeneacetic acid, .alpha.-hydroxy-, pentyl ester
Formula: C13H18O3
CAS: 20309-57-3
Molecular weight: 222
m/z	intensity
41	142
42	31
43	135
44	10
45	10
47	3
49	18
50	19
51	62
52	17
53	26
54	4
55	39
56	6
57	8
62	3
63	14
64	3
65	18
66	1
67	16
68	24
69	65
70	8
71	15
74	3
75	3
76	7
77	261
78	46
79	333
80	29
81	13
82	7
83	5
84	13
85	1
86	8
89	16
90	14
91	91
92	18
93	18
94	5
95	9
105	119
106	21
107	999
108	78
109	8
115	8
118	15
119	6
121	15
122	2
123	9
135	9
136	35
137	9
138	8
152	1
176	8
205	8
206	13
207	1
222	74
223	12
