Mass Spectrum: Cyclohexene, 3-(1,5-dimethyl-4-hexenyl)-6-methylene-, [S-(R*,S*)]-
Formula: C15H24
CAS: 20307-83-9
Molecular weight: 204
m/z	intensity
26	11
27	103
29	3
37	5
38	9
39	150
41	677
42	32
43	75
45	2
50	7
51	40
52	19
53	84
54	16
55	291
56	51
57	240
58	12
62	2
63	14
64	5
65	66
66	16
67	106
68	25
69	999
70	62
71	160
72	8
75	4
76	2
77	218
78	45
79	140
80	40
81	61
82	106
83	23
84	13
85	4
89	5
91	276
92	242
93	460
94	65
95	46
96	9
97	9
99	2
102	3
103	10
104	5
105	108
106	47
107	31
108	6
109	176
110	19
111	9
112	67
113	26
114	4
115	5
116	3
117	12
118	8
119	83
120	162
121	50
122	10
123	4
128	3
129	4
131	4
132	4
133	184
134	34
135	14
136	3
137	4
145	6
146	2
147	30
148	19
149	8
150	2
159	2
160	6
161	235
162	37
175	4
189	11
202	2
204	108
205	14
