Mass Spectrum: 2-(4,5-Dihydro-3-methyl-5-oxo-1-phenyl-4-pyrazolyl)-5-nitrobenzoic acid
Formula: C17H13N5O5
CAS: 20307-76-0
Molecular weight: 367
m/z	intensity
39	266
40	823
41	240
42	154
43	381
44	999
45	113
46	25
50	100
51	81
52	38
53	56
54	43
55	173
56	66
57	196
60	75
61	34
62	42
63	80
64	27
65	33
66	8
67	28
68	26
69	74
70	76
71	105
72	17
73	73
74	59
75	57
76	46
77	50
78	19
79	24
80	20
81	38
82	21
83	46
84	21
85	37
86	46
87	49
88	49
89	23
91	6
93	67
95	31
96	9
97	20
99	46
100	9
101	21
102	29
103	24
104	9
105	10
107	13
108	16
109	6
110	15
111	24
112	20
113	45
114	87
115	26
127	20
129	53
130	7
133	8
134	15
137	8
138	7
139	8
142	70
143	11
149	24
150	8
151	9
155	4
159	3
161	12
162	7
163	16
165	10
167	13
170	52
171	12
175	9
176	21
185	13
186	24
187	68
188	56
189	35
199	4
205	7
215	6
217	7
233	6
244	4
290	9
335	71
336	13
