Mass Spectrum: Alanine, N-[N-(N-acetyl-L-leucyl)-L-alanyl]-3-phenyl-, L-
Formula: C20H29N3O5
CAS: 20310-12-7
Molecular weight: 391
m/z	intensity
26	10
27	90
28	441
29	60
30	230
31	10
38	6
39	56
40	12
41	104
42	120
43	411
44	813
45	24
50	6
51	20
52	6
53	10
54	16
55	50
56	50
57	60
58	8
59	10
60	20
63	16
64	6
65	56
68	6
69	40
70	80
71	10
72	36
73	12
74	16
75	6
76	12
77	40
78	10
79	8
81	6
82	6
83	8
84	8
85	26
86	999
87	90
88	6
89	16
90	20
91	361
92	40
93	4
96	8
97	10
98	24
99	100
100	8
101	8
102	6
103	36
104	70
105	30
106	6
110	4
111	20
112	24
113	14
114	36
115	6
116	4
117	46
118	16
119	70
120	200
121	20
122	4
126	6
127	20
128	532
129	140
130	10
131	44
132	18
133	8
141	6
144	4
145	6
146	16
147	26
148	90
149	14
150	4
154	6
155	10
156	156
157	22
158	10
165	10
166	16
169	6
170	14
173	10
174	10
175	26
176	6
180	10
181	6
182	14
187	6
188	8
199	44
200	24
201	12
202	6
203	22
204	6
211	42
212	18
217	130
218	401
219	70
220	26
226	94
227	465
228	90
234	64
235	22
236	40
237	10
243	40
244	140
245	60
259	80
260	50
261	40
262	12
263	36
264	24
275	30
276	100
277	80
278	30
279	14
282	60
283	14
294	94
295	40
296	16
302	22
303	22
316	14
317	80
318	10
320	30
321	6
329	16
330	140
331	40
345	92
346	40
347	251
348	66
349	6
371	16
372	16
373	100
374	56
375	16
376	16
390	10
391	160
392	44
