Mass Spectrum: 1H-Cyclopento[c]furan-4-carboxylic acid, [3aS-(3a.alpha.,6a.alpha.)]-3,3a,6,6a-tetrahydro-1-oxo-, methyl ester
Formula: C9H10O4
CAS: 203200-50-4
Molecular weight: 182
m/z	intensity
26	14
27	105
29	16
30	13
31	11
33	11
37	17
38	62
39	373
40	32
41	75
42	4
43	17
44	9
45	35
47	6
49	3
50	48
51	121
52	69
53	114
54	14
55	34
56	1
57	3
58	5
59	400
60	11
61	8
62	23
63	100
64	59
65	415
66	97
67	70
68	9
69	4
70	3
72	3
73	17
74	4
75	4
76	8
77	394
78	209
79	702
80	64
81	44
82	7
83	8
85	3
86	4
87	9
88	2
89	15
91	26
92	83
93	301
94	51
95	56
96	256
97	27
98	1
99	2
101	4
102	5
103	7
105	133
106	47
107	43
108	8
109	21
110	68
111	9
115	2
117	3
119	2
120	1
121	14
122	118
123	115
124	999
125	172
126	16
129	1
131	1
133	0
136	14
137	242
138	43
139	11
143	1
145	1
147	0
149	2
150	45
151	149
152	18
153	11
154	132
155	12
156	1
163	0
164	9
165	2
167	4
177	1
181	7
182	239
183	27
184	3
