Mass Spectrum: 2-(Nonylsulfanyl)ethanol
Formula: C11H24OS
CAS: 20323-24-4
Molecular weight: 204
m/z	intensity
28	59
29	254
30	78
31	225
33	5
34	7
35	24
37	2
39	209
40	78
41	359
42	234
43	668
44	91
45	455
46	147
47	223
48	43
49	19
50	8
51	21
52	8
53	91
54	66
55	583
56	263
57	245
58	36
59	92
60	278
61	999
62	38
63	37
64	2
65	13
66	6
67	93
68	63
69	537
70	171
71	100
72	6
73	28
74	9
75	38
76	7
77	21
78	84
79	38
80	7
81	38
82	42
83	273
84	82
85	48
86	2
87	65
88	8
89	26
91	89
92	9
93	7
94	4
95	10
96	23
97	84
98	40
101	21
103	7
105	19
115	17
116	2
117	3
119	4
126	42
127	2
129	12
131	2
133	18
157	7
158	10
159	466
160	52
161	30
173	83
174	6
175	4
203	5
204	102
205	16
206	4
