Mass Spectrum: Hydrazine, 1-ethyl-1-(1-methylpropyl)-
Formula: C6H16N2
CAS: 20325-97-7
Molecular weight: 116
m/z	intensity
27	93
28	44
29	185
30	71
31	37
39	35
41	117
42	239
43	122
44	114
45	283
54	9
55	20
56	78
57	70
58	46
59	174
60	24
70	78
71	12
72	16
73	12
84	20
85	18
87	999
88	57
101	122
102	7
116	250
117	24
