Mass Spectrum: Diselenide, dibutyl
Formula: C8H18Se2
CAS: 20333-40-8
Molecular weight: 274
m/z	intensity
26	15
27	193
28	35
29	556
30	10
31	17
38	3
39	112
40	9
41	437
42	15
43	12
45	4
46	1
50	1
51	7
52	1
53	29
54	4
55	187
56	20
57	999
58	45
78	4
79	1
80	7
81	6
82	4
83	6
89	4
90	7
91	25
92	18
93	46
94	20
95	50
96	4
97	7
103	3
104	4
105	7
106	7
107	15
108	6
109	9
131	14
132	10
133	31
134	6
135	60
136	10
137	20
138	7
139	3
154	9
155	6
156	21
157	15
158	45
159	17
160	54
161	9
162	50
164	14
170	1
171	3
172	7
173	3
174	4
210	9
211	6
212	28
213	20
214	67
215	40
216	112
217	18
218	125
219	9
220	40
222	3
266	6
267	9
268	31
269	25
270	76
271	46
272	131
273	25
274	146
275	20
276	45
277	4
278	3
