Mass Spectrum: 2-Oxazolin-5-one, 4-(p-bromobenzylidene)-2-phenyl-
Formula: C16H10BrNO2
CAS: 20345-16-8
Molecular weight: 327
m/z	intensity
33	2
37	9
38	24
39	23
40	2
50	78
51	132
53	9
61	5
62	16
63	21
64	13
65	4
73	6
74	32
75	27
77	320
78	180
79	4
81	4
85	2
86	6
87	9
88	32
89	9
100	3
101	9
102	5
103	14
105	999
106	53
107	5
114	24
115	69
164	3
167	6
168	2
169	5
180	2
182	2
194	49
196	52
197	4
325	4
327	129
328	26
329	113
330	17
