Mass Spectrum: Acetonitrile, 2-diethylphosphonato-2-(2,3,5,6-tetrafluoro-4-pyridyl)-
Formula: C11H11F4N2O3P
CAS: 203455-72-5
Molecular weight: 326
m/z	intensity
33	0
37	0
38	0
40	7
41	3
42	4
43	28
44	5
45	48
47	42
48	3
49	0
50	1
51	8
52	0
54	0
55	2
56	3
57	0
58	0
62	3
63	5
65	54
66	0
67	4
68	3
69	23
70	1
74	5
75	12
76	5
77	5
79	2
81	377
82	10
83	3
84	0
86	2
87	2
88	2
89	5
91	150
93	37
94	16
95	2
96	0
98	2
99	12
100	12
101	3
102	1
103	0
104	0
105	3
106	3
107	8
109	999
110	20
111	7
112	5
113	19
114	2
117	10
118	8
119	3
120	7
121	5
124	12
125	8
126	1
127	0
129	0
130	0
131	3
132	3
133	2
135	0
137	448
138	29
139	12
140	4
141	0
143	10
144	18
145	2
149	0
150	2
151	3
152	0
156	1
157	0
158	7
159	2
160	1
161	2
162	116
163	11
164	5
165	0
167	1
169	2
170	29
171	8
172	0
176	0
178	4
179	1
180	6
184	0
186	3
187	19
189	135
190	200
191	23
192	1
196	1
197	0
198	1
203	66
204	5
205	0
206	0
207	0
217	4
218	5
222	2
223	0
224	1
225	2
226	3
227	3
234	1
235	0
244	0
245	9
246	1
250	3
251	3
252	6
253	14
254	1
263	3
270	2
271	22
272	2
278	1
281	0
283	1
297	15
298	2
299	0
311	0
325	1
326	48
327	5
