Mass Spectrum: Brefeldin A
Formula: C16H24O4
CAS: 20350-15-6
Molecular weight: 280
m/z	intensity
24	23
26	66
27	344
29	411
31	453
33	13
37	36
38	26
39	284
40	58
41	999
42	92
43	546
44	98
45	308
46	77
47	18
50	21
51	45
52	23
53	220
54	98
55	682
56	185
57	242
58	34
59	88
60	15
63	21
65	175
66	154
67	817
68	167
69	231
70	71
71	109
73	120
77	316
78	140
79	820
80	541
81	682
82	156
83	199
84	645
85	223
86	42
91	581
92	215
93	586
94	231
95	454
96	127
97	74
98	29
99	300
100	26
101	26
102	204
103	47
104	31
105	310
106	101
107	183
108	112
109	122
110	82
111	130
112	79
113	129
115	66
116	18
117	483
118	175
119	799
120	151
121	146
122	260
123	164
124	39
128	69
129	117
130	109
131	156
132	61
133	140
134	39
135	85
136	167
137	231
138	45
139	63
141	66
142	23
143	90
144	29
145	87
146	34
147	85
148	42
149	218
150	61
151	42
153	44
154	33
155	26
157	210
158	82
159	63
160	53
161	286
162	92
163	55
164	26
165	82
166	45
167	39
169	34
171	47
173	37
174	60
175	79
176	71
177	61
178	93
179	77
181	18
183	15
184	50
185	26
187	63
189	58
190	21
191	31
193	29
198	18
199	47
201	26
202	294
203	74
205	29
206	42
207	58
211	15
215	34
216	23
218	54
220	135
229	13
239	23
244	90
262	66
279	58
280	31
