Mass Spectrum: 1,3-Dioxolane, 2-methyl-2-(2-methylpropyl)-
Formula: C8H16O2
CAS: 2035-08-7
Molecular weight: 144
m/z	intensity
26	30
27	180
28	55
29	120
31	30
38	30
39	265
40	50
41	324
42	90
43	840
44	30
45	50
50	25
51	20
53	40
54	24
55	52
56	25
57	130
58	30
59	20
67	30
69	45
72	30
83	30
85	50
86	30
87	999
88	60
99	190
100	20
113	20
129	220
130	30
