Mass Spectrum: 2-Bromopropionic acid, 3-phenylpropyl ester
Formula: C12H15BrO2
CAS: 203578-67-0
Molecular weight: 270
m/z	intensity
25	3
26	33
27	143
28	2
29	16
30	3
39	56
40	8
41	61
42	8
43	14
50	31
51	75
52	31
53	10
54	3
55	43
56	33
57	19
58	6
59	3
62	8
63	33
64	11
65	73
66	6
67	3
69	2
70	3
71	3
74	8
75	7
76	5
77	61
78	52
79	44
80	4
81	2
82	3
83	3
84	2
85	2
86	2
87	3
89	17
90	17
91	547
92	71
93	4
96	2
98	2
100	2
102	8
103	45
104	48
105	80
106	10
107	57
108	3
109	46
113	3
114	2
115	34
116	106
117	579
118	999
119	143
120	4
131	4
132	3
134	5
135	12
137	11
