Mass Spectrum: p-Toluic acid, 2-phenylethyl ester
Formula: C16H16O2
CAS: 203587-50-2
Molecular weight: 240
m/z	intensity
25	2
26	6
27	24
28	3
29	19
30	3
38	5
39	73
40	6
41	36
42	6
43	12
44	1
50	24
51	58
52	19
53	9
54	3
55	7
56	4
57	7
59	3
61	4
62	12
63	41
64	15
65	127
66	8
69	8
70	18
71	7
73	3
74	5
75	8
76	5
77	53
78	25
79	18
81	3
82	2
83	4
84	12
85	3
86	3
87	2
88	2
89	33
90	28
91	354
92	40
93	5
94	2
95	2
96	3
102	7
103	35
104	999
105	109
106	3
107	7
108	3
112	3
115	2
118	13
119	509
120	56
121	6
133	4
135	13
136	34
137	16
