Mass Spectrum: 4-Methyl-2-phenyl-1,2,4-thiadiazolidine-3,5-dione
Formula: C9H8N2O2S
CAS: 20354-13-6
Molecular weight: 208
m/z	intensity
33	12
34	2
37	55
38	113
39	152
40	38
41	38
42	9
43	5
44	23
45	27
46	30
48	8
49	6
50	70
51	195
52	58
53	6
54	5
55	7
56	90
57	67
58	9
59	2
60	58
61	37
62	36
63	136
64	217
65	63
66	7
69	6
70	22
71	4
72	2
73	3
74	15
75	9
76	9
77	288
78	26
79	11
87	1
88	3
89	3
90	20
91	234
92	17
93	11
95	2
96	61
97	8
104	5
119	57
120	6
122	41
123	999
124	81
125	50
151	16
208	458
209	52
210	22
