Mass Spectrum: 2,7-Oxepanedione
Formula: C6H8O3
CAS: 2035-75-8
Molecular weight: 128
m/z	intensity
33	3
34	2
35	1
36	8
37	9
38	25
39	267
40	65
41	602
42	421
43	601
45	801
47	26
48	0
49	3
50	19
51	25
52	10
53	64
54	139
55	624
56	170
57	79
58	113
59	64
60	496
61	12
62	2
63	1
64	0
65	1
66	1
68	79
69	373
70	16
71	12
72	18
73	254
74	32
75	2
77	1
79	1
80	1
81	9
82	90
83	58
84	7
85	17
86	23
87	306
88	13
89	1
91	0
95	0
97	2
100	999
101	51
102	12
103	0
108	0
110	20
111	14
112	1
113	0
119	0
128	101
129	22
130	1
