Mass Spectrum: Sulfone, 2-acetoxypropyl phenyl
Formula: C11H14O4S
CAS: 203641-90-1
Molecular weight: 242
m/z	intensity
26	1
27	20
29	6
30	0
31	15
33	0
34	0
35	0
37	0
38	2
39	38
41	76
42	15
43	999
44	25
45	8
46	0
47	0
48	0
49	0
50	23
51	109
52	7
53	3
55	0
56	0
57	3
58	19
59	58
60	3
61	40
62	1
63	3
64	0
65	12
66	4
67	0
69	2
70	0
71	0
72	3
73	0
74	4
75	5
76	8
77	240
78	51
79	9
80	0
81	1
82	0
83	0
84	0
87	1
89	2
90	0
91	18
92	2
93	2
94	26
95	2
96	0
97	12
98	0
99	0
100	5
101	426
102	21
103	3
104	0
105	15
106	1
107	1
108	0
109	2
110	2
111	0
115	4
116	2
117	5
118	3
119	0
121	1
122	0
123	0
124	0
125	100
126	13
127	5
128	0
133	0
134	3
135	0
136	1
137	2
138	0
139	0
141	61
142	7
143	14
144	0
145	0
147	2
148	0
149	0
150	0
151	0
153	1
156	16
157	1
158	2
159	2
165	2
166	0
167	0
182	25
183	13
184	3
185	11
186	1
187	0
198	1
199	6
200	2
201	0
202	0
227	1
242	22
243	3
244	1
