Mass Spectrum: Benzene, 1,2-dibutoxy-
Formula: C14H22O2
CAS: 20367-35-5
Molecular weight: 222
m/z	intensity
26	1
27	18
28	5
29	82
30	1
38	1
39	16
40	1
41	68
42	3
43	2
50	2
51	6
52	14
53	10
54	2
55	23
56	5
57	73
58	3
63	6
64	11
65	14
66	2
67	1
77	9
78	1
79	2
80	6
81	26
82	6
91	2
92	7
93	8
94	4
95	10
107	2
109	34
110	999
111	72
112	6
121	20
122	3
123	10
124	4
136	1
137	2
165	1
166	75
167	8
179	1
222	153
223	23
224	2
