Mass Spectrum: dl-2-Amino-4-(1,2-dihydro-2-oxo-1-quinolyl)-2-methylbutanoic acid
Formula: C14H16N2O3
CAS: 20377-82-6
Molecular weight: 260
m/z	intensity
14	1
15	9
16	5
17	26
18	111
25	3
26	19
27	35
28	130
29	5
30	21
36	1
37	2
38	6
39	21
40	9
41	24
42	66
43	24
44	82
45	3
49	1
50	13
51	30
52	13
53	11
54	35
55	9
56	13
57	33
58	38
59	2
61	2
62	7
63	20
64	13
65	7
66	2
67	2
68	6
69	23
70	999
71	79
72	3
73	1
74	7
75	18
76	15
77	61
78	9
79	3
80	2
81	2
82	2
83	2
84	9
85	4
86	3
87	3
88	18
89	40
90	43
91	13
92	2
93	1
94	1
95	2
96	3
97	6
98	11
99	8
100	12
101	39
102	36
103	35
104	6
105	1
107	14
108	4
109	1
110	1
111	1
113	1
114	4
115	13
116	18
117	68
118	9
119	1
123	1
125	1
126	2
127	13
128	255
129	90
130	46
131	13
132	2
139	1
140	3
141	3
142	6
143	17
144	14
145	216
146	180
147	19
148	1
149	1
151	1
152	3
153	3
154	15
155	9
156	9
157	9
158	16
159	66
160	9
161	1
165	1
166	2
167	8
168	9
169	10
170	15
171	5
172	334
173	64
174	6
178	3
179	3
180	28
181	41
182	21
183	42
184	8
185	1
192	3
193	8
194	15
195	149
196	69
197	102
198	39
199	9
200	1
206	1
207	2
208	1
209	1
213	1
214	2
215	212
216	39
217	4
218	1
224	1
226	2
242	7
243	5
244	2
245	1
260	15
261	8
262	1
