Mass Spectrum: 1-Buten-3-yne, 1-chloro-, (Z)-
Formula: C4H3Cl
CAS: 20374-90-7
Molecular weight: 86
m/z	intensity
25	1
26	19
27	1
35	6
36	15
37	37
38	15
39	3
47	11
48	23
49	122
50	344
51	999
52	42
53	0
59	1
60	36
61	4
62	12
63	1
71	1
72	0
73	0
83	2
84	23
85	22
86	835
87	40
88	237
89	11
