Mass Spectrum: Aniline, N-[(2-methoxy-1-naphthyl)methylene]-
Formula: C18H15NO
CAS: 20371-39-5
Molecular weight: 261
m/z	intensity
33	74
34	1
36	9
37	99
38	187
39	379
40	70
41	46
42	13
43	14
44	11
45	9
46	7
47	12
48	15
50	507
51	881
53	67
54	19
55	10
56	1
58	11
60	14
61	54
62	140
63	230
64	103
65	133
66	27
67	2
71	6
74	194
75	163
76	245
77	999
82	1
84	6
86	87
87	94
88	87
89	82
90	34
91	61
93	342
95	20
96	11
97	6
98	30
99	48
100	44
101	97
102	50
104	95
105	17
107	16
108	30
109	36
110	20
111	23
113	318
114	382
115	493
117	9
118	14
120	13
121	9
122	15
123	45
126	378
127	199
128	138
129	60
131	60
132	1
136	8
137	16
138	45
140	474
141	454
142	68
143	18
144	3
149	3
150	8
151	26
152	33
153	37
154	29
155	16
156	11
157	10
158	7
163	12
164	31
165	34
168	832
169	919
175	6
177	7
178	3
179	1
181	10
183	76
184	126
185	148
186	189
189	97
190	30
191	32
192	3
194	2
195	10
196	16
199	8
201	28
202	54
203	15
204	9
207	0
209	9
211	0
213	5
214	27
216	149
217	148
218	57
219	8
226	9
227	21
228	27
230	228
231	32
232	3
241	7
243	51
244	136
245	151
246	177
247	65
249	0
255	4
256	10
260	945
261	549
