Mass Spectrum: Ribopyranoside, methyl 2,3-anhydro-4-azido-4-deoxy-, .beta.-L-
Formula: C6H9N3O3
CAS: 20379-33-3
Molecular weight: 171
m/z	intensity
38	26
39	354
40	334
41	579
42	470
43	277
44	116
45	342
46	10
52	26
53	56
54	438
55	309
56	171
57	124
58	40
59	130
61	156
68	36
69	999
70	261
71	132
72	10
73	12
74	148
75	8
82	88
83	6
84	462
85	446
86	16
87	12
98	40
99	22
103	16
112	56
113	10
129	4
140	10
141	2
170	8
171	17
172	12
