Mass Spectrum: 1-Buten-3-yne, 1-chloro-, (E)-
Formula: C4H3Cl
CAS: 20374-91-8
Molecular weight: 86
m/z	intensity
49	27
50	284
51	999
52	55
60	28
62	14
84	8
85	21
86	999
87	59
88	343
89	7
