Mass Spectrum: Toluene-D8
Formula: C7D8
CAS: 2037-26-5
Molecular weight: 100
m/z	intensity
24	0
26	2
28	14
29	0
30	40
31	0
36	1
38	15
39	0
40	28
41	0
42	109
43	3
44	11
45	0
46	10
47	0
48	28
49	1
50	19
51	0
52	47
53	2
54	68
55	3
56	15
57	0
58	8
59	0
60	1
62	11
63	0
64	23
65	1
66	53
67	2
68	10
69	0
70	107
71	5
72	8
73	0
74	1
76	8
77	0
78	4
79	0
80	3
81	0
82	12
83	0
84	0
86	2
88	2
90	1
92	7
93	0
94	25
95	2
96	10
97	0
98	999
99	77
100	684
101	45
102	1
