Mass Spectrum: Cyclopentanol, 2-chloro-, trans-
Formula: C5H9ClO
CAS: 20377-80-4
Molecular weight: 120
m/z	intensity
38	15
39	95
40	25
41	110
42	15
43	55
44	90
53	15
55	60
56	25
57	999
58	80
65	10
66	10
67	110
68	10
69	5
71	70
83	20
84	20
102	60
104	15
120	90
122	30
