Mass Spectrum: (S,E)-2,5-Dimethyl-4-vinylhexa-2,5-dien-1-yl acetate
Formula: C12H18O2
CAS: 20384-05-8
Molecular weight: 194
m/z	intensity
27	33
29	28
31	4
38	6
39	127
40	28
41	204
42	25
43	668
44	22
45	6
50	12
51	39
52	23
53	142
54	21
55	222
56	19
57	15
58	5
59	7
60	5
61	9
62	5
63	14
64	3
65	72
66	31
67	251
68	109
69	83
70	10
71	164
73	4
74	2
77	174
78	56
79	252
80	68
81	128
82	100
83	30
84	114
85	10
91	356
92	140
93	238
94	48
96	25
97	44
98	8
102	4
103	31
104	15
105	219
106	101
107	115
110	19
113	10
115	15
117	60
118	13
119	999
120	97
123	26
124	10
126	5
133	33
134	421
135	51
137	24
151	2
