Mass Spectrum: N-[2-(Morpholin-4-yl)ethyl]aniline
Formula: C12H18N2O
CAS: 2038-04-2
Molecular weight: 206
m/z	intensity
37	9
38	33
39	119
40	43
41	173
42	371
43	140
44	71
45	23
50	57
51	174
52	46
53	20
54	70
55	98
56	450
57	63
58	13
60	5
61	3
62	11
63	33
64	24
65	90
66	21
67	9
68	12
70	165
71	82
72	74
73	9
74	14
75	9
77	336
78	65
79	61
80	11
81	6
82	10
83	8
84	6
85	12
86	12
87	5
89	3
91	56
92	25
93	23
94	6
95	2
97	4
98	30
100	999
102	27
103	12
104	57
106	430
107	36
109	4
111	2
112	16
113	28
114	6
115	2
117	17
118	61
119	29
120	49
121	4
122	9
146	3
147	2
149	14
150	2
177	2
178	2
189	1
191	2
206	303
207	41
208	3
