Mass Spectrum: Butanoic acid, 4-cyano-2-ethyl-2-(4-nitrophenyl)-, ethyl ester
Formula: C15H18N2O4
CAS: 203808-68-8
Molecular weight: 290
m/z	intensity
34	1
37	5
38	36
39	379
40	91
41	726
42	108
43	132
44	39
45	106
46	34
47	1
48	1
49	7
50	162
51	311
52	123
53	191
54	200
55	116
56	16
57	28
58	6
59	25
60	3
61	7
62	59
63	239
64	78
65	246
66	58
67	105
68	59
69	999
70	79
71	8
72	3
73	31
74	58
75	127
76	189
77	400
78	399
79	90
80	17
81	11
82	18
83	7
84	1
85	4
86	13
87	30
88	43
89	281
90	283
91	503
92	110
93	20
94	50
95	7
96	3
97	1
98	5
99	5
100	9
101	64
102	208
103	201
104	104
105	65
106	146
107	55
108	7
109	5
110	1
111	1
112	2
113	31
114	65
115	778
116	428
117	206
118	161
119	69
120	59
121	17
122	4
123	1
124	8
125	2
126	14
127	102
128	282
129	369
130	728
131	318
132	67
133	41
134	23
135	9
136	189
137	31
138	4
139	6
140	47
141	44
142	51
143	68
144	45
145	32
146	27
147	59
148	65
149	14
150	42
151	8
152	13
153	10
154	30
155	19
156	67
157	17
158	14
159	46
160	32
161	35
162	16
163	7
164	59
165	7
166	5
167	3
168	10
169	11
170	63
171	191
172	34
173	6
174	7
175	116
176	48
177	19
178	145
179	18
180	5
181	1
183	2
184	2
185	2
186	3
187	8
188	8
189	9
190	4
191	3
192	4
194	6
198	4
199	11
200	153
201	132
202	18
203	8
204	3
205	7
206	22
207	3
208	1
209	1
215	1
216	18
217	257
218	189
219	26
220	2
222	3
229	1
233	1
246	6
247	1
274	1
