Mass Spectrum: Acetoacetic acid, 1,3-dithio-, S-isobutyl ester
Formula: C8H14OS2
CAS: 20383-04-4
Molecular weight: 190
m/z	intensity
37	51
38	95
39	650
40	54
41	999
42	109
43	729
44	356
45	568
46	150
47	410
48	280
49	92
50	34
51	20
53	27
55	130
56	568
57	417
58	116
59	592
60	61
61	68
67	99
68	27
69	95
70	6
71	226
72	171
73	164
74	308
75	78
76	24
90	650
91	34
92	27
100	489
101	934
102	82
103	34
132	65
133	458
134	24
135	44
162	24
190	10
