Mass Spectrum: Cyclobutaneoctol
Formula: C4H8O8
CAS: 20389-20-2
Molecular weight: 184
m/z	intensity
25	7
26	8
27	8
28	547
29	999
30	134
31	76
32	16
33	5
35	3
36	14
38	5
39	8
40	58
41	69
42	29
43	11
44	386
45	267
46	607
47	19
48	3
50	5
51	6
52	8
53	5
55	8
56	76
58	585
59	29
60	14
61	2
62	2
63	4
64	22
65	2
67	4
68	35
69	41
70	2
71	2
73	8
74	348
75	38
76	47
77	9
78	19
79	5
80	3
81	3
82	2
83	2
84	2
85	48
86	29
87	9
89	2
91	6
92	115
93	4
94	2
95	4
102	105
103	22
104	34
105	9
109	2
114	4
117	2
121	5
122	11
123	3
130	76
131	7
132	2
133	3
146	3
147	2
148	18
149	3
