Mass Spectrum: Acetoacetic acid, 1,3-dithio-, S-ethyl ester
Formula: C6H10OS2
CAS: 20383-01-1
Molecular weight: 162
m/z	intensity
26	123
27	510
28	151
29	746
33	205
34	109
35	20
36	61
37	102
39	616
40	137
41	393
42	30
43	191
44	753
45	736
46	181
47	660
48	24
49	44
55	13
56	27
57	154
58	291
59	999
60	89
61	239
62	804
63	68
64	54
67	82
68	30
69	99
70	24
71	202
72	154
73	229
74	606
75	54
76	41
85	102
86	20
100	34
101	787
102	75
103	54
132	27
133	400
134	58
135	34
162	24
