Mass Spectrum: 1-Bromododecan-11-one
Formula: C12H23BrO
CAS: 203940-73-2
Molecular weight: 262
m/z	intensity
41	342
42	119
43	999
44	32
45	9
47	4
48	2
49	24
50	1
51	11
52	2
53	34
54	93
55	562
56	143
57	127
58	45
59	9
66	8
67	113
68	153
69	567
70	93
71	58
72	5
73	67
74	4
75	1
77	3
78	1
79	11
80	5
81	95
82	138
83	450
84	86
85	27
86	17
87	13
88	6
89	0
91	2
93	7
94	3
95	70
96	72
97	394
98	63
99	5
100	1
101	23
102	5
103	1
105	0
106	1
107	18
108	2
109	56
110	29
111	54
112	9
113	3
114	0
115	3
116	84
117	5
119	2
120	4
121	10
122	5
123	12
124	2
125	3
126	2
127	8
128	1
129	3
130	4
133	3
134	27
135	171
136	33
137	166
138	28
139	17
140	2
141	3
142	0
143	2
147	3
148	305
149	86
150	288
151	84
152	4
153	1
155	1
157	1
161	7
162	112
163	19
164	117
165	12
166	1
168	1
169	0
171	0
174	2
175	7
176	32
177	12
178	30
179	5
180	1
181	2
182	0
188	2
189	5
190	75
191	11
192	72
193	6
194	4
195	1
199	3
204	1
205	1
206	1
216	1
217	1
218	60
219	11
220	55
221	11
222	1
233	1
234	1
235	1
259	1
262	1
264	1
