Mass Spectrum: t-Butyl cyclohexaneperoxycarboxylate
Formula: C11H20O3
CAS: 20396-49-0
Molecular weight: 200
m/z	intensity
41	433
43	302
55	521
57	270
59	9
67	59
68	30
69	9
73	138
79	10
83	999
84	109
99	10
105	10
111	717
112	69
128	39
129	20
200	10
