Mass Spectrum: Phenol, 2-(2-aminoethyl)-
Formula: C8H11NO
CAS: 2039-66-9
Molecular weight: 137
m/z	intensity
28	52
30	999
31	21
32	3
39	37
50	11
51	30
52	21
53	23
63	18
64	11
65	28
66	9
77	92
78	33
79	26
89	18
90	23
91	61
92	14
107	113
108	212
109	7
118	3
119	4
120	25
121	11
137	290
138	28
