Mass Spectrum: Propiophenone, 2'-methyl-
Formula: C10H12O
CAS: 2040-14-4
Molecular weight: 148
m/z	intensity
26	8
27	40
28	9
29	36
37	3
38	10
39	65
40	5
41	18
43	3
50	18
51	34
52	8
53	4
55	6
57	8
61	5
62	18
63	54
64	17
65	148
66	9
74	7
75	6
76	4
77	15
78	4
79	3
86	4
87	4
89	44
90	26
91	555
92	38
103	6
105	4
115	7
118	3
119	999
120	76
121	5
131	2
133	2
148	146
149	16
