Mass Spectrum: 2-Dodecenal, (E)-
Formula: C12H22O
CAS: 20407-84-5
Molecular weight: 182
m/z	intensity
26	14
27	458
28	80
29	656
30	19
31	10
32	1
33	1
34	5
37	1
38	20
39	402
40	64
41	999
42	193
43	887
44	28
45	5
50	6
51	20
52	16
53	116
54	149
55	753
56	228
57	686
58	27
59	8
60	3
63	5
65	23
66	30
67	218
68	157
69	422
70	802
71	153
72	18
73	17
74	3
75	6
77	27
78	10
79	91
80	65
81	182
82	202
83	561
84	226
85	35
86	14
88	3
90	3
91	12
92	5
93	59
94	42
95	91
96	132
97	180
98	132
99	13
100	22
102	3
105	4
107	35
108	22
109	36
110	33
111	69
112	40
113	4
114	18
116	1
117	2
119	1
121	61
122	18
123	11
124	1
125	15
126	22
127	8
129	4
132	3
133	2
134	5
135	26
136	5
137	3
138	34
139	7
141	3
146	2
147	7
149	5
151	7
152	5
157	3
160	3
164	13
165	4
174	2
181	3
182	3
