Mass Spectrum: 1-Propanone, 2-methyl-1-(2-methylphenyl)-
Formula: C11H14O
CAS: 2040-21-3
Molecular weight: 162
m/z	intensity
26	4
27	49
28	5
36	11
37	102
38	9
39	61
40	7
41	28
48	16
50	34
51	8
52	4
54	6
62	17
63	58
64	18
65	204
66	11
74	5
75	6
77	13
89	51
90	30
91	499
92	37
105	5
115	10
117	5
118	4
119	999
120	87
121	5
131	2
162	75
163	9
