Mass Spectrum: Propanoic acid, 2-(benzyloxy)-, ethyl ester
Formula: C12H16O3
CAS: 2040-44-0
Molecular weight: 208
m/z	intensity
25	0
26	9
27	52
28	17
29	145
30	4
37	0
38	2
39	61
41	17
43	24
45	34
50	11
51	30
52	12
53	4
54	0
55	3
56	23
57	4
58	0
59	0
61	0
62	6
63	27
64	8
65	178
66	9
73	21
74	206
75	22
76	3
77	30
78	8
79	25
80	2
84	2
85	0
86	0
87	1
89	36
90	23
91	999
92	101
93	4
94	0
99	0
102	449
103	24
104	2
105	3
107	26
108	2
116	0
120	0
133	2
134	5
135	57
136	7
137	0
164	0
208	3
209	0
