Mass Spectrum: Carbamoyl chloride, phenyl-
Formula: C7H6ClNO
CAS: 2040-76-8
Molecular weight: 155
m/z	intensity
26	19
27	35
28	42
29	12
35	35
36	181
37	89
38	176
39	131
40	25
41	75
42	6
43	11
44	5
45	6
49	15
50	74
51	84
52	48
55	9
56	7
57	14
60	8
61	33
62	49
63	160
64	377
65	81
73	7
74	24
75	15
76	20
77	21
87	8
88	9
90	35
91	669
92	51
104	5
105	4
119	999
120	89
121	8
