Mass Spectrum: Acetic acid, chloro-, 1-methylheptyl ester
Formula: C10H19ClO2
CAS: 20411-47-6
Molecular weight: 206
m/z	intensity
21	2
22	2
25	2
26	25
27	145
28	26
29	183
30	8
31	8
34	1
35	16
36	102
37	5
38	34
39	164
40	33
41	531
42	236
43	453
44	168
45	73
46	3
47	3
48	6
49	149
50	42
51	59
52	82
53	62
54	55
55	676
56	489
57	606
58	52
59	14
60	10
61	3
62	2
63	6
64	2
65	14
66	8
67	74
68	97
69	339
70	770
71	476
72	28
73	14
74	4
75	6
76	29
77	999
78	46
79	340
80	13
81	45
82	109
83	479
84	298
85	60
86	6
87	19
88	4
89	3
90	1
91	24
92	14
93	9
94	8
95	39
96	6
97	239
98	19
99	2
100	1
101	3
102	3
103	4
104	7
105	18
106	2
107	3
108	2
109	2
110	15
111	10
112	546
113	258
114	19
115	22
116	10
117	13
118	6
119	2
120	14
121	803
122	54
123	263
124	11
127	4
128	6
129	26
130	2
131	4
132	3
133	6
134	2
135	8
136	2
137	4
138	1
139	1
141	1
144	1
145	3
147	2
149	13
151	3
157	4
162	4
163	1
171	6
191	2
193	6
194	2
