Mass Spectrum: Levulinic acid, 5-phenyl-, ethyl ester
Formula: C13H16O3
CAS: 20416-11-9
Molecular weight: 220
m/z	intensity
41	40
42	30
43	30
44	30
45	80
46	10
47	10
50	20
51	60
52	20
53	10
55	240
56	70
57	10
62	20
63	50
64	20
65	180
66	10
73	120
74	10
77	20
78	10
89	50
90	60
91	600
92	70
101	999
102	50
103	10
104	20
105	10
115	40
116	10
117	10
118	40
119	20
127	10
128	10
129	550
130	40
131	20
144	20
145	20
146	20
157	20
172	30
174	90
175	240
176	40
220	50
221	20
