Mass Spectrum: Bicyclo[2.2.2]octane, 1-fluoro-4-methyl-
Formula: C9H15F
CAS: 20417-60-1
Molecular weight: 142
m/z	intensity
26	27
27	192
28	49
29	111
33	31
37	14
38	31
39	279
40	33
41	338
42	274
43	266
44	15
45	15
46	24
47	34
50	55
51	103
52	54
53	146
54	100
55	303
56	35
57	92
58	5
59	91
60	8
61	10
62	10
63	29
65	54
66	50
67	358
68	999
69	110
70	182
71	43
72	129
73	72
74	18
75	18
76	16
77	140
78	220
79	220
80	66
81	112
82	183
83	41
84	16
85	120
86	64
87	27
91	94
92	139
93	764
94	194
95	88
96	32
97	64
109	37
111	17
112	26
113	367
114	45
122	715
123	75
124	7
125	2
127	71
128	6
140	4
141	8
142	545
143	55
144	3
