Mass Spectrum: Phloroglucitol
Formula: C6H12O3
CAS: 2041-15-8
Molecular weight: 132
m/z	intensity
26	8
27	107
28	33
29	108
30	5
31	49
36	2
37	2
38	6
39	86
40	26
41	174
42	216
43	357
44	473
45	730
46	18
47	38
50	3
51	7
52	2
53	19
54	12
55	48
56	13
57	50
58	23
59	8
60	13
61	3
63	2
65	11
66	11
67	80
68	119
69	58
70	226
71	94
72	12
73	999
74	36
75	7
77	5
78	4
79	6
80	2
81	15
82	4
83	11
84	12
85	8
86	23
87	10
88	5
89	2
91	73
92	4
93	3
94	2
95	14
96	115
97	16
98	5
99	7
111	4
112	3
113	12
114	85
115	7
132	6
133	3
