Mass Spectrum: Furantetracarboxylic acid
Formula: C8H4O9
CAS: 20416-04-0
Molecular weight: 244
m/z	intensity
26	29
27	114
28	110
29	216
30	18
31	173
32	29
33	74
36	22
37	59
38	331
39	464
40	44
41	26
42	29
43	37
44	70
45	132
46	12
47	18
50	20
53	69
54	38
55	143
56	12
61	10
62	12
65	236
66	387
67	88
68	36
69	28
71	15
80	61
81	52
82	37
83	63
84	59
85	14
86	10
93	26
94	158
95	875
96	22
97	20
110	18
111	48
112	999
113	78
114	33
122	10
123	16
139	540
140	74
155	90
156	219
157	46
244	33
