Mass Spectrum: (1R-(1Alpha,2alpha,4alpha,5beta,6alpha,7alpha))-3,8-dioxatricyclo(5.1.0.0(2,4))octane-5,6-diyl diacetate, 4-benzoyloxymethyl-
Formula: C18H18O8
CAS: 20421-13-0
Molecular weight: 362
m/z	intensity
15	6
27	4
28	9
29	4
31	1
38	1
39	6
40	1
41	5
42	6
43	412
44	10
45	9
50	5
51	21
52	3
53	4
54	2
55	8
56	2
57	4
58	1
60	12
61	2
63	1
65	4
66	1
67	1
68	13
69	10
70	2
71	27
72	1
73	31
74	2
75	2
76	6
77	148
78	11
79	4
80	2
81	21
82	7
83	6
84	10
85	21
86	12
89	2
91	2
92	2
93	3
94	4
95	2
96	3
97	90
98	11
99	8
100	1
101	1
102	5
103	4
104	3
105	999
106	84
107	6
108	1
109	30
110	29
111	9
112	1
113	31
114	2
115	90
116	5
121	6
122	47
123	31
124	4
125	38
126	9
127	28
128	15
129	1
135	12
136	3
137	3
138	63
139	36
140	8
141	6
143	6
144	2
148	1
149	2
152	2
153	1
155	4
156	13
157	48
158	4
163	98
164	10
165	6
167	10
168	1
169	9
170	2
176	1
180	3
181	2
182	1
183	2
185	34
186	3
189	6
190	2
193	1
194	20
195	2
197	1
198	8
199	2
201	1
202	1
207	37
208	4
211	3
213	1
214	1
215	4
218	1
219	1
227	68
228	9
229	1
230	2
231	22
232	4
236	7
237	1
240	2
243	2
244	1
245	1
249	9
250	1
257	1
260	2
261	2
273	2
302	1
303	2
362	2
363	3
