Mass Spectrum: Chlorodibromoacetic acid, methyl ester
Formula: C3H3Br2ClO2
CAS: 20428-75-5
Molecular weight: 264
m/z	intensity
12	6
13	3
14	10
15	150
16	2
24	2
25	1
26	7
27	15
28	19
29	91
30	25
31	6
35	14
36	3
37	5
38	1
40	16
41	3
42	3
43	18
44	9
45	2
46	1
47	209
48	12
49	78
50	6
51	3
52	1
56	1
59	999
60	24
61	37
62	7
63	141
64	3
65	41
75	4
76	4
77	1
79	92
80	9
81	90
82	9
83	1
86	1
91	129
92	8
93	133
94	12
95	6
96	5
97	1
103	2
104	1
105	20
106	1
107	69
108	1
109	50
110	1
114	2
116	2
118	1
119	3
120	1
121	3
122	2
126	215
127	16
128	280
129	22
130	68
131	7
133	1
139	1
141	67
142	2
143	86
144	2
145	21
146	1
154	45
155	3
156	58
157	136
158	20
159	171
160	9
161	44
162	4
170	41
172	81
173	3
174	40
175	2
177	1
185	214
186	8
187	279
188	9
189	68
190	2
198	6
200	12
201	2
202	6
203	4
204	2
205	427
206	2
207	926
208	2
209	649
210	7
211	128
212	1
229	1
231	2
233	6
235	12
237	9
239	2
264	1
266	3
268	2
