Mass Spectrum: Cyclobuta[b]quinoxaline-1,2-dione, 5-chloro-3,8-dihydro-
Formula: C10H5ClN2O2
CAS: 20420-54-6
Molecular weight: 220
m/z	intensity
28	999
74	95
100	642
102	214
110	142
137	261
139	95
164	142
166	47
192	261
194	95
220	857
221	119
222	380
