Mass Spectrum: 7H-Isobenzofuro[4,5-b][1,4]benzodioxepin-11-carboxaldehyde, 1,3-dihydro-1,4-dihydroxy-10-methoxy-5,8-dimethyl-3,7-dioxo-
Formula: C19H14O9
CAS: 20426-13-5
Molecular weight: 386
m/z	intensity
36	10
37	30
38	90
39	760
40	90
41	140
42	40
43	220
44	920
45	60
46	10
47	10
49	10
50	190
51	630
52	260
53	550
54	80
55	380
56	50
57	50
58	10
59	20
60	10
61	30
62	160
63	490
64	200
65	380
66	160
67	430
68	50
69	160
70	30
71	30
72	10
73	20
74	70
75	120
76	150
77	560
78	170
79	150
80	80
81	90
82	50
83	999
84	60
85	30
86	30
87	60
88	70
89	390
90	260
91	310
92	130
93	170
94	70
95	40
96	10
97	20
98	20
99	10
100	10
101	40
102	60
103	70
104	50
105	140
106	90
107	70
108	50
109	70
110	20
111	20
112	10
113	30
114	40
115	160
116	40
117	70
118	80
119	80
120	110
121	130
122	70
123	30
124	10
125	10
126	20
127	60
128	100
129	60
130	30
131	40
132	30
133	70
134	100
135	80
136	60
137	50
138	40
139	50
140	20
141	50
142	30
143	10
144	10
145	30
146	10
147	50
148	130
149	70
150	80
151	60
152	40
153	20
154	10
155	10
156	20
157	20
158	30
159	30
160	20
161	20
162	20
163	60
164	150
165	160
166	200
167	60
168	10
169	30
170	30
171	30
172	20
173	20
174	30
175	50
176	30
177	110
178	20
179	30
180	10
181	10
182	10
183	10
184	130
185	50
186	10
187	30
188	10
189	30
190	10
191	490
192	70
193	750
194	90
195	10
196	10
197	10
198	10
199	20
200	10
201	40
202	10
203	40
205	10
208	10
209	10
210	10
211	20
212	20
213	40
214	20
215	30
216	10
217	10
218	10
219	10
220	20
221	80
222	10
223	10
224	10
225	30
226	20
227	50
228	30
229	80
230	250
231	150
232	20
233	20
237	10
238	10
239	20
240	20
241	50
242	40
243	70
244	30
245	30
246	10
247	10
250	10
251	10
252	10
253	10
254	30
255	60
256	200
257	200
258	170
259	220
260	40
261	10
265	10
266	10
267	20
268	50
269	60
270	40
271	70
272	40
273	20
274	20
275	10
278	10
279	10
280	10
281	20
282	20
283	70
284	130
285	170
286	130
287	40
288	20
289	10
293	10
294	10
295	20
296	60
297	90
298	80
299	60
300	30
301	30
302	20
303	10
307	10
308	10
309	20
310	20
311	80
312	180
313	160
314	250
315	60
316	10
322	10
323	20
324	30
325	80
326	30
327	70
328	30
329	60
330	50
331	10
337	10
338	10
339	130
340	280
341	290
342	200
343	60
344	20
345	10
351	40
352	20
353	40
354	20
355	20
356	20
357	40
358	50
359	10
367	20
368	260
369	80
370	70
371	50
372	20
373	10
383	20
384	20
385	30
386	680
387	160
388	30
389	20
