Mass Spectrum: trans-4-Nitroso-2,3-morpholindiol, 3-acetate
Formula: C6H10N2O5
CAS: 204376-75-0
Molecular weight: 190
m/z	intensity
30	76
31	49
32	12
41	49
42	143
43	999
44	266
45	166
46	10
47	36
49	87
51	28
54	7
55	75
56	17
57	3
58	64
59	17
60	23
61	14
70	44
71	16
72	475
73	214
74	70
84	80
85	38
86	46
88	13
100	144
101	100
118	192
119	15
131	99
