Mass Spectrum: 1H,1H,2H,2H-Perfluorohexan-1-ol
Formula: C6H5F9O
CAS: 2043-47-2
Molecular weight: 264
m/z	intensity
14	1
15	5
18	1
19	7
20	6
26	4
27	28
28	33
29	163
30	28
31	999
32	26
33	10
37	1
38	1
39	4
41	1
42	7
43	23
44	17
45	30
46	4
47	14
49	91
50	7
51	54
55	2
56	3
57	15
58	5
59	5
62	1
63	2
64	26
65	147
66	3
67	16
68	1
69	227
70	3
71	1
73	4
74	1
75	48
76	6
77	79
78	5
79	3
81	3
82	1
83	2
85	2
87	1
88	2
89	2
91	4
93	15
94	4
95	383
96	13
97	4
100	38
101	2
104	1
105	2
106	3
107	8
108	4
109	6
112	1
113	22
115	4
119	52
120	1
122	3
123	1
124	2
125	3
126	9
127	46
128	2
131	47
132	1
133	5
137	2
139	2
144	1
145	36
146	1
147	5
150	4
157	12
159	1
163	9
167	1
169	9
175	21
176	7
177	9
181	2
185	2
191	1
194	2
195	67
196	97
197	6
205	2
207	4
214	26
215	12
224	3
227	12
241	4
242	2
244	93
245	6
261	3
263	36
264	3
265	12
