Mass Spectrum: 1H,1H,2H,2H-Perfluorodecyl iodide
Formula: C10H4F17I
CAS: 2043-53-0
Molecular weight: 574
m/z	intensity
18	0
20	3
26	9
27	96
28	23
31	18
32	0
33	28
36	5
38	5
39	18
45	3
47	78
50	7
51	358
52	4
56	2
57	24
58	4
59	52
64	15
65	499
66	11
69	999
70	11
75	33
76	7
77	661
78	60
79	5
81	8
82	1
83	11
88	6
89	35
90	5
93	25
95	73
97	27
100	111
101	11
106	1
107	9
108	38
109	101
110	3
112	6
113	46
115	136
116	3
119	312
120	8
126	3
127	220
128	170
129	1
131	259
132	7
133	23
137	6
138	1
139	41
140	4
141	358
142	2
143	8
145	55
147	19
150	4
151	7
153	4
154	11
155	197
156	3
157	16
158	4
159	31
162	7
163	16
165	17
169	150
170	6
173	5
175	4
177	37
181	61
182	1
185	3
188	5
189	9
193	1
195	8
203	17
205	44
207	7
208	1
213	7
219	16
225	4
227	8
231	26
239	0
243	1
245	3
263	7
269	6
275	2
277	0
281	10
293	2
295	0
307	4
313	31
331	4
357	12
363	18
377	29
378	1
381	19
427	70
428	7
574	60
575	6
