Mass Spectrum: 2-Pyrrolidinone, 1-(1-oxo-2-propenyl)-
Formula: C7H9NO2
CAS: 2043-26-7
Molecular weight: 139
m/z	intensity
23	1
26	73
27	374
28	135
29	22
30	16
31	5
36	1
37	4
38	8
39	47
40	20
41	107
42	38
43	15
44	14
45	3
47	0
48	0
49	1
50	1
51	5
52	8
53	20
54	23
55	999
56	168
57	24
58	2
59	1
60	1
61	1
62	1
63	4
64	1
65	1
66	2
67	7
68	23
69	41
70	17
71	5
72	6
73	1
74	1
75	1
77	1
78	1
79	1
80	1
81	2
82	14
83	69
84	65
85	9
86	17
87	1
88	0
89	0
91	2
92	1
93	1
94	1
95	1
96	4
97	4
98	5
99	1
103	0
105	0
107	0
108	1
109	1
110	41
111	355
112	28
113	2
137	1
138	9
139	71
140	10
141	1
