Mass Spectrum: Cyclobutanol, 1-butyl-
Formula: C8H16O
CAS: 20434-34-8
Molecular weight: 128
m/z	intensity
41	80
42	20
43	140
53	10
55	10
57	60
58	999
59	40
67	10
71	130
85	60
86	40
99	70
100	30
