Mass Spectrum: Diallylmethylsilane
Formula: C7H14Si
CAS: 2043-08-5
Molecular weight: 126
m/z	intensity
29	30
31	39
39	77
41	80
42	39
43	999
44	288
45	326
46	21
53	18
54	9
55	92
56	30
57	146
58	81
59	292
60	19
61	7
66	20
67	48
68	7
69	127
70	19
71	21
83	90
84	99
85	927
86	116
87	43
97	50
98	139
99	20
111	41
126	19
