Mass Spectrum: Cyclohexene, 1-bromo-
Formula: C6H9Br
CAS: 2044-08-8
Molecular weight: 160
m/z	intensity
26	13
27	83
28	14
29	14
31	4
36	2
37	8
38	21
39	108
40	24
41	121
42	12
43	6
44	4
45	1
48	1
49	6
50	41
51	83
52	37
53	275
54	21
55	33
56	8
57	6
58	1
61	3
62	4
63	13
64	3
65	45
66	33
67	19
68	7
69	4
70	3
71	4
72	2
73	3
74	8
75	5
76	3
77	83
78	21
79	181
80	41
81	999
82	80
83	5
91	2
93	2
94	3
95	3
96	2
97	6
98	1
99	2
104	1
105	3
106	2
107	4
108	1
109	2
117	3
118	1
119	13
120	2
121	10
122	1
131	1
132	37
133	2
134	30
135	2
145	5
146	2
147	4
148	2
158	2
159	2
160	176
161	16
162	176
163	12
164	1
