Mass Spectrum: Bicyclo[4.3.1]decan-10-one
Formula: C10H16O
CAS: 20440-21-5
Molecular weight: 152
m/z	intensity
39	271
41	524
53	100
54	526
55	453
66	53
67	999
68	360
69	73
70	17
79	122
80	48
81	813
82	559
83	111
84	351
92	22
93	35
94	24
95	320
96	593
97	368
98	946
99	77
109	171
110	400
111	44
124	100
152	951
153	155
