Mass Spectrum: 2-Amino-2-norbornanecarboxylic acid
Formula: C8H13NO2
CAS: 20448-79-7
Molecular weight: 155
m/z	intensity
15	7
17	2
18	11
26	3
27	27
28	46
29	11
30	143
31	2
37	1
38	3
39	52
40	12
41	123
42	141
43	89
44	52
45	6
46	4
47	3
50	3
51	9
52	8
53	35
54	63
55	29
56	56
57	8
59	9
60	5
62	1
63	3
64	1
65	26
66	58
67	143
68	53
69	28
70	72
71	17
72	3
73	3
74	12
75	7
77	33
78	9
79	19
80	51
81	77
82	67
83	18
84	2
85	1
87	566
88	287
89	44
90	3
91	33
92	21
93	91
94	39
95	11
96	8
97	2
98	2
100	67
101	7
106	2
107	1
108	32
109	70
110	999
111	84
112	9
113	7
114	10
119	1
120	7
121	1
122	2
123	5
124	1
126	11
127	2
136	1
137	39
138	33
139	3
140	1
154	1
155	57
156	18
157	1
