Mass Spectrum: 2-Cyclopenten-1-ol, 4-methoxyethoxymethoxy-, (1R,2S)-
Formula: C9H16O4
CAS: 204587-59-7
Molecular weight: 188
m/z	intensity
26	3
27	30
28	18
29	87
30	4
31	58
33	2
38	3
39	41
40	6
41	13
42	10
43	67
44	23
45	113
46	3
47	1
50	3
51	7
52	5
53	44
54	45
55	156
56	12
57	12
58	42
59	538
60	22
61	4
62	0
63	3
64	1
65	17
66	300
67	24
68	10
69	10
70	6
71	10
72	1
73	103
74	5
75	15
76	2
77	16
78	2
79	3
80	9
81	68
82	195
83	999
84	66
85	6
86	1
87	2
88	5
89	456
90	23
91	4
92	0
93	1
94	6
95	9
96	22
97	9
98	6
99	39
100	4
101	0
102	2
103	1
105	56
106	2
107	1
108	9
109	4
110	6
111	6
112	71
113	57
114	4
115	1
117	2
119	1
124	1
125	19
126	5
127	2
128	0
135	0
139	1
140	8
141	6
143	1
149	0
154	5
155	1
157	2
159	1
165	0
170	0
171	1
