Mass Spectrum: 4-Aza-5-phosphatricyclo[6.1.1.0(2,6)]deca-2,5-diene, 9,9-dimethyl-4-[S-(1-phenylethyl)]-
Formula: C18H22NP
CAS: 204575-21-3
Molecular weight: 283
m/z	intensity
26	2
27	60
28	29
29	13
30	2
38	2
39	38
40	35
41	68
42	6
43	20
44	2
45	5
46	9
48	3
50	4
51	33
52	9
53	20
54	4
55	13
56	3
57	16
58	2
59	2
62	3
63	8
64	2
65	29
66	5
67	12
68	3
69	15
70	5
71	10
72	2
73	1
74	2
75	1
76	3
77	172
78	38
79	198
80	17
81	11
82	3
83	13
84	1
85	5
86	3
89	7
90	3
91	47
92	7
93	13
94	3
95	11
96	4
97	4
98	15
99	8
100	1
102	7
103	91
104	38
105	999
106	90
107	11
108	13
109	19
110	3
111	179
112	14
115	10
116	5
117	10
118	3
119	5
120	3
121	8
122	10
123	20
124	46
125	4
128	3
129	2
130	4
131	6
132	4
133	15
134	5
135	66
136	478
137	46
138	7
141	1
144	1
145	2
146	3
147	7
148	14
149	36
150	67
151	16
152	6
161	7
162	12
163	12
164	216
165	25
166	1
171	1
176	3
177	5
178	155
179	113
180	13
181	1
183	1
184	1
202	1
210	4
211	1
212	1
215	44
216	7
227	3
228	2
238	1
239	2
240	99
241	16
242	1
251	1
253	7
254	8
255	3
268	23
269	4
283	788
284	149
285	14
