Mass Spectrum: 5-(3-Methoxy-6-oxo-1,6-dihydro-1-pyridazinyloxy)varelic acid
Formula: C10H14N2O5
CAS: 20465-32-1
Molecular weight: 242
m/z	intensity
13	1
14	6
15	56
16	3
17	1
18	2
24	1
25	8
26	116
27	125
28	52
29	98
30	78
31	49
36	1
37	10
38	31
39	110
40	29
41	174
42	110
43	128
44	35
45	84
46	3
47	1
49	1
50	3
51	10
52	39
53	84
54	250
55	338
56	56
57	31
58	23
59	81
60	158
61	4
62	1
65	1
66	5
67	9
68	49
69	527
70	55
71	22
72	6
73	20
74	4
77	1
78	2
79	5
80	401
81	38
82	169
83	103
84	10
85	14
86	6
87	9
88	44
89	3
90	1
91	2
93	1
94	1
95	4
96	55
97	77
98	20
99	61
100	23
101	354
102	18
103	2
104	1
105	1
109	2
110	17
111	3
112	999
113	98
114	20
115	5
123	1
124	3
125	87
126	203
127	24
128	3
129	13
130	1
137	2
139	2
140	6
141	11
142	66
143	9
144	1
149	3
151	2
152	1
153	4
155	1
165	1
167	2
168	1
181	1
198	2
225	4
226	1
242	45
243	6
