Mass Spectrum: Ethyl 3-((3-ethoxy-4-methyl-6-oxo-1,6-dihydro-1-pyridazinyl)oxy)propionate
Formula: C12H18N2O5
CAS: 20465-19-4
Molecular weight: 270
m/z	intensity
14	1
15	7
17	3
18	3
26	8
27	52
28	44
29	269
30	94
31	22
32	2
37	1
38	3
39	52
40	76
41	57
42	31
43	66
44	14
45	45
46	2
47	2
50	1
51	3
52	5
53	4
54	9
55	148
56	16
57	11
58	9
59	89
60	18
61	8
64	1
65	2
66	13
67	34
68	149
69	188
70	22
71	20
72	8
73	423
74	15
75	3
80	1
81	2
82	11
83	9
84	2
85	33
86	2
87	8
88	9
89	6
90	2
91	4
92	1
93	2
94	316
95	32
96	122
97	221
98	18
99	13
100	8
101	492
102	28
103	3
109	1
110	10
111	40
112	999
113	247
114	17
115	2
116	3
117	1
119	1
123	3
124	92
125	11
126	135
127	11
128	1
129	7
130	1
137	1
138	31
139	50
140	562
141	123
142	9
143	2
149	1
151	1
152	6
153	79
154	71
155	9
156	1
166	63
167	7
168	9
169	132
170	48
171	57
172	5
181	1
183	2
198	2
212	4
213	1
224	1
225	102
226	12
227	1
240	12
241	2
270	510
271	111
272	14
273	1
