Mass Spectrum: 2,5-Diacetylamino-p-benzoquinone
Formula: C10H10N2O4
CAS: 2046-89-1
Molecular weight: 222
m/z	intensity
28	110
40	60
41	70
42	110
43	999
68	260
70	70
110	390
111	320
137	110
138	980
139	80
180	750
181	70
222	360
