Mass Spectrum: Methyl 6-oxoheptanoate
Formula: C8H14O3
CAS: 2046-21-1
Molecular weight: 158
m/z	intensity
41	177
42	120
43	999
44	65
45	142
46	5
47	2
48	1
49	1
50	10
51	13
52	6
53	35
54	17
55	433
56	102
57	45
58	425
59	164
60	34
61	5
62	1
63	2
64	2
65	8
66	4
67	23
68	39
69	78
70	13
71	78
72	11
73	108
74	36
75	4
76	1
77	10
78	3
79	16
80	5
81	83
82	20
83	120
84	132
85	47
86	16
87	82
88	11
89	11
90	1
91	12
92	2
93	9
94	4
95	42
96	13
97	25
98	112
99	20
100	24
101	96
102	7
103	4
104	2
105	10
106	3
107	13
108	16
109	35
110	6
111	121
112	13
113	8
114	16
115	39
116	12
117	21
118	5
119	9
120	3
121	13
122	6
123	21
124	8
125	9
126	205
127	63
128	11
129	26
130	4
131	6
132	3
133	4
134	4
135	3
136	4
137	4
138	4
139	3
140	2
141	6
142	3
143	52
144	24
145	12
146	3
147	7
148	3
149	10
150	2
151	1
152	1
153	0
154	1
155	2
156	2
157	3
158	19
159	8
160	2
161	0
