Mass Spectrum: 2-Methylene cyclopentanol
Formula: C6H10O
CAS: 20461-31-8
Molecular weight: 98
m/z	intensity
25	1
26	45
27	253
28	67
29	188
30	13
31	86
33	1
34	0
35	2
36	3
37	21
38	56
39	462
40	138
41	602
42	275
43	351
44	76
45	21
46	4
47	12
48	3
49	11
50	73
51	103
52	65
53	162
54	108
55	548
56	137
57	247
58	32
59	5
60	2
61	9
62	10
63	19
64	5
65	45
66	26
67	182
68	26
69	290
70	999
71	79
72	8
73	4
74	8
75	3
76	1
77	92
78	16
79	194
80	68
81	37
82	16
83	610
84	41
85	3
86	2
87	0
88	0
89	2
90	1
91	5
92	2
93	3
94	1
95	16
96	13
97	426
98	252
99	20
100	3
101	1
