Mass Spectrum: Phosphorous bromide chloride fluoride
Formula: BrClFP
CAS: 20464-11-3
Molecular weight: 164
m/z	intensity
19	14
31	14
35	78
37	25
50	167
66	81
68	19
79	361
81	361
85	999
87	333
110	18
112	18
129	92
131	92
164	130
166	168
168	37
