Mass Spectrum: Tributylsilyloxycyclohexane
Formula: C18H38OSi
CAS: 20466-63-1
Molecular weight: 298
m/z	intensity
25	9
26	49
27	221
28	60
29	371
30	9
31	15
36	8
37	12
38	12
39	153
40	34
41	411
42	59
43	138
44	43
45	345
46	28
47	261
48	15
49	12
50	9
51	29
52	9
53	49
54	61
55	295
56	96
57	118
58	37
59	199
60	59
61	558
62	39
63	26
64	3
65	12
66	7
67	75
69	17
70	9
71	59
72	21
73	168
74	81
75	171
76	19
77	19
78	9
79	21
80	9
81	47
82	12
83	88
84	16
85	111
86	15
87	115
88	35
89	12
91	12
92	9
93	3
95	3
96	3
97	12
98	14
99	75
100	17
101	125
102	21
103	999
104	97
105	52
111	9
113	19
114	9
115	7
116	3
117	9
118	3
119	3
121	9
127	31
128	9
129	56
130	12
131	16
139	3
141	21
142	23
143	42
144	9
145	3
155	7
156	3
157	7
158	7
159	259
160	41
161	11
170	3
171	3
177	3
179	3
183	6
184	8
185	326
186	58
187	12
199	3
211	3
227	3
240	21
241	721
242	158
243	41
244	6
245	1
