Mass Spectrum: 4,7-Methanoazulene, decahydro-1,4,9,9-tetramethyl-
Formula: C15H26
CAS: 20478-88-0
Molecular weight: 206
m/z	intensity
26	9
27	264
28	122
29	320
30	7
38	11
39	315
40	56
41	999
42	183
43	405
44	94
50	13
51	67
52	28
53	245
54	56
55	579
56	132
57	183
58	13
63	18
64	13
65	126
66	41
67	466
68	141
69	503
70	37
72	26
73	18
77	235
78	56
79	396
80	94
81	711
82	843
83	207
84	30
85	11
86	18
91	294
92	56
93	396
94	207
95	943
96	207
97	56
103	22
104	13
105	147
106	26
107	698
108	315
109	616
110	207
111	49
115	41
116	11
117	30
118	7
119	75
120	26
121	311
122	716
123	273
124	100
125	56
128	18
129	26
130	7
131	28
132	9
133	56
134	18
135	358
136	122
137	28
138	9
141	15
142	7
143	13
144	24
145	5
146	18
147	9
148	132
150	264
151	37
159	98
160	15
161	22
162	34
163	867
165	139
166	13
172	9
175	13
177	67
178	86
179	11
187	11
189	69
191	345
192	41
202	37
204	50
206	856
207	94
208	3
