Mass Spectrum: 2-Trifluoromethylbenzoic acid, 2,2-dimethylpropyl ester
Formula: C13H15F3O2
CAS: 204779-84-0
Molecular weight: 260
m/z	intensity
25	2
26	10
27	48
28	6
29	131
30	5
31	3
36	10
37	4
38	8
39	65
40	13
41	229
42	31
43	127
44	4
45	4
49	4
50	35
51	19
52	8
53	16
54	5
55	125
56	162
57	999
58	33
61	1
62	3
63	5
65	2
66	1
67	3
68	2
69	12
70	327
71	66
72	4
73	2
74	13
75	41
76	22
77	8
78	3
79	9
80	1
81	3
87	11
91	3
92	2
93	4
94	6
95	44
96	8
99	5
100	3
101	1
104	12
105	4
107	3
111	4
113	2
114	2
117	1
118	1
119	4
123	3
125	19
126	21
127	5
135	8
136	1
139	10
140	5
141	4
142	2
143	2
144	5
145	133
146	13
148	2
150	1
151	12
152	1
154	14
155	2
156	8
158	3
159	1
170	5
171	4
172	2
173	371
174	27
175	2
183	2
184	6
185	28
186	2
190	14
191	4
203	3
204	7
205	34
206	3
245	2
