Mass Spectrum: Methyl 2-ethyldecanoate
Formula: C13H26O2
CAS: 20483-47-0
Molecular weight: 214
m/z	intensity
41	170
42	27
43	149
44	28
55	157
56	20
57	104
59	66
69	74
71	37
73	25
83	26
87	528
101	53
102	999
103	32
115	229
143	37
157	52
185	29
