Mass Spectrum: 5-Oxazolecarboxylic acid, 4-methyl-, ethyl ester
Formula: C7H9NO3
CAS: 20485-39-6
Molecular weight: 155
m/z	intensity
26	264
27	993
28	574
29	921
30	14
31	28
32	17
35	1
36	164
38	49
39	62
40	9
41	150
42	475
43	999
44	171
45	193
51	2
52	24
53	91
54	438
55	240
56	54
57	121
67	16
68	20
69	39
70	57
71	372
72	6
81	27
82	620
83	130
84	20
85	24
96	1
97	4
99	111
100	387
109	6
110	439
111	60
112	1
118	1
126	1
127	687
128	17
155	310
