Mass Spectrum: Acetaldehyde, ethylhydrazone
Formula: C4H10N2
CAS: 20487-02-9
Molecular weight: 86
m/z	intensity
27	230
28	229
29	167
30	968
31	36
40	46
41	84
42	484
43	86
44	167
57	84
58	29
71	999
72	40
85	45
86	563
87	32
