Mass Spectrum: Phenethyl alcohol, p-methyl-.alpha.-phenyl-
Formula: C15H16O
CAS: 20498-68-4
Molecular weight: 212
m/z	intensity
25	2
26	8
27	39
29	22
38	4
39	46
40	4
41	14
42	3
43	7
44	9
45	1
50	19
51	59
52	19
53	23
54	2
55	4
56	3
57	4
62	5
63	19
64	4
65	19
66	4
67	2
68	1
69	2
70	3
71	2
73	1
74	9
75	7
76	8
77	195
78	46
79	220
80	12
81	1
87	2
88	1
89	13
90	5
91	170
92	15
93	1
94	2
101	2
102	7
103	29
104	29
105	244
106	999
107	379
108	25
109	3
115	9
116	2
117	2
119	3
120	2
121	48
122	57
123	3
126	2
127	2
128	2
139	2
150	1
151	1
152	4
153	1
163	1
165	10
166	2
167	2
177	2
178	15
179	14
180	2
193	5
194	25
195	6
196	13
197	2
210	10
211	3
212	11
213	2
