Mass Spectrum: Diethyl glutaconate
Formula: C9H14O4
CAS: 2049-67-4
Molecular weight: 186
m/z	intensity
26	24
27	161
28	9
29	999
30	20
31	24
34	3
36	0
37	4
38	15
39	128
40	61
41	77
42	48
43	27
44	4
45	29
46	2
47	0
48	2
50	1
51	0
52	0
53	5
54	1
55	32
56	5
57	52
58	5
59	1
60	5
61	2
63	0
64	0
65	1
66	2
67	4
68	218
69	45
70	4
71	24
72	1
73	7
74	0
75	0
79	0
80	0
81	2
82	0
83	2
84	42
85	226
86	305
87	16
88	3
89	0
90	1
91	0
94	0
95	25
96	2
97	4
98	1
99	25
100	1
101	3
102	0
109	0
111	1
112	53
113	201
114	96
115	7
116	1
122	0
127	2
128	0
129	2
137	0
138	1
140	133
141	145
142	12
143	2
144	1
157	0
158	0
186	0
187	0
