Mass Spectrum: Methoxydiethoxyphosphine
Formula: C5H13O3P
CAS: 20502-41-4
Molecular weight: 152
m/z	intensity
29	685
30	34
31	153
33	32
42	16
43	107
45	69
47	428
48	72
49	59
62	50
63	11
65	539
66	391
67	11
76	23
77	37
78	144
79	999
80	84
81	206
91	35
92	31
93	82
95	443
96	796
97	839
106	14
107	258
108	93
109	16
111	12
121	47
123	14
124	49
125	454
126	17
141	1
152	263
153	16
154	2
