Mass Spectrum: Ethanol, 2-[2-(phenylmethoxy)ethoxy]-
Formula: C11H16O3
CAS: 2050-25-1
Molecular weight: 196
m/z	intensity
15	6
17	3
18	7
27	17
29	18
31	19
33	9
38	4
39	23
40	2
41	11
43	12
44	12
45	302
46	7
50	11
51	36
52	9
53	4
59	20
60	6
61	22
62	32
63	26
64	1
65	104
66	6
73	10
74	3
75	78
76	7
77	65
78	18
79	70
80	5
87	4
89	30
90	77
91	999
92	465
93	34
104	27
105	103
106	78
107	210
108	25
116	9
117	4
119	6
120	6
133	11
134	60
135	9
137	7
152	5
165	9
166	16
167	6
172	5
174	5
183	11
184	9
196	39
197	6
