Mass Spectrum: Butyric acid, neopentyl ester
Formula: C9H18O2
CAS: 2050-00-2
Molecular weight: 158
m/z	intensity
25	1
26	9
27	120
28	22
29	94
30	2
31	13
33	1
36	1
37	3
38	6
39	78
40	13
41	147
42	87
43	667
44	24
45	9
50	4
51	4
52	0
53	13
54	5
55	125
56	9
57	7
58	3
59	27
60	12
65	1
66	1
67	3
68	1
69	8
70	235
71	999
72	45
73	16
74	0
77	0
79	1
80	0
81	0
89	9
93	1
100	1
120	0
129	14
130	2
131	0
143	11
144	1
