Mass Spectrum: Acetamide, N,N'-1,2-phenylenebis-
Formula: C10H12N2O2
CAS: 2050-85-3
Molecular weight: 192
m/z	intensity
14	2
15	22
17	1
26	3
27	10
28	18
29	2
30	2
37	3
38	8
39	21
40	4
41	9
42	14
43	308
44	9
45	1
49	1
50	12
51	39
52	59
53	50
54	10
55	3
56	1
57	3
61	2
62	5
63	19
64	17
65	25
66	7
67	5
68	1
69	2
70	1
71	1
74	2
75	4
76	8
77	11
78	30
79	32
80	198
81	32
82	2
83	1
85	1
88	1
89	1
90	14
91	11
92	16
93	7
94	4
95	1
97	1
102	1
103	1
104	6
105	24
106	25
107	291
108	999
109	87
110	3
111	1
118	2
119	9
120	2
121	10
122	1
130	1
131	50
132	375
133	358
134	65
135	130
136	10
137	1
145	1
147	1
148	2
149	17
150	219
151	20
152	1
163	1
173	1
174	40
175	6
177	9
178	1
192	460
193	54
194	4
