Mass Spectrum: 3,9-Bis(2,2-dimethylpropyl)-11,11-dimethyl-1,2,7,8-tetraphenyl-5,10,12-trioxa-4,6,11-trisila-dispiro[3.1.3.3]dodeca-1,7-diene
Formula: C42H50O3Si3
CAS: 205057-97-2
Molecular weight: 686
m/z	intensity
15	8
17	10
18	32
27	19
28	14
29	184
39	26
41	293
42	17
43	94
44	12
50	5
51	11
53	7
55	44
57	999
58	48
65	7
67	7
69	23
70	6
71	21
75	10
77	35
78	11
79	7
83	24
85	8
89	8
91	118
92	10
102	10
103	24
104	6
105	99
106	9
115	43
116	8
117	16
119	37
120	6
121	5
127	18
128	37
129	41
130	9
131	14
133	10
141	14
142	5
143	12
144	7
145	25
147	18
149	10
151	7
152	15
153	8
154	4
155	6
156	12
157	6
159	6
163	64
164	16
165	67
166	14
167	17
168	5
169	11
170	7
171	10
173	5
175	8
176	21
177	25
178	55
179	48
180	10
181	12
182	10
183	28
184	10
185	25
187	4
189	62
190	33
191	242
192	53
193	17
194	4
195	38
196	11
197	9
201	4
202	37
203	81
204	61
205	122
206	29
207	10
208	6
209	6
215	29
216	10
217	21
218	8
219	18
220	5
221	7
222	12
223	11
225	11
227	4
228	5
229	12
230	6
231	14
232	7
233	11
234	4
235	4
239	134
240	37
241	63
242	14
243	12
245	38
246	10
247	14
248	5
249	7
251	5
252	5
253	50
254	15
255	43
256	10
257	8
259	5
260	8
261	20
262	9
263	20
264	7
265	36
266	10
267	15
268	5
269	6
273	4
275	5
276	4
277	14
278	6
279	21
280	8
281	9
286	3
287	3
289	48
290	15
291	28
292	9
293	11
294	3
295	4
301	6
302	3
303	14
304	5
305	13
306	4
307	7
309	3
313	4
315	28
316	8
317	27
318	8
319	8
323	5
325	5
327	6
328	3
329	6
331	4
333	3
337	8
338	3
339	34
340	13
341	22
342	6
343	5
345	5
347	14
348	5
349	17
350	10
351	47
352	23
353	51
354	19
355	22
356	7
357	4
363	117
364	46
365	248
366	120
367	272
368	116
369	122
370	37
371	16
372	3
377	13
378	4
379	14
380	6
381	19
382	7
383	10
384	4
389	3
391	6
393	5
395	3
401	3
403	3
407	4
409	5
415	3
421	14
422	16
423	68
424	88
425	335
426	133
427	59
428	17
429	10
430	4
431	9
432	4
437	3
439	3
441	14
442	7
443	41
444	20
445	33
446	13
447	5
449	5
451	6
453	4
455	9
456	5
457	6
467	8
468	5
469	13
470	6
471	3
481	10
482	5
483	3
493	5
495	14
496	7
497	4
499	8
500	9
501	19
502	9
503	5
525	8
526	4
545	8
546	5
551	11
552	8
557	8
558	6
559	22
560	12
561	7
569	4
571	54
572	33
573	58
574	31
575	12
576	4
615	26
616	17
617	8
627	43
629	572
630	347
631	168
632	54
633	14
671	65
672	39
673	16
674	4
684	22
686	636
688	365
689	168
690	74
691	4
