Mass Spectrum: 2-Propenoic acid, anhydride
Formula: C6H6O3
CAS: 2051-76-5
Molecular weight: 126
m/z	intensity
26	217
27	843
44	21
45	15
53	22
54	14
55	999
56	49
70	5
71	2
72	18
74	3
98	58
99	7
