Mass Spectrum: 2-Acetoxy-1,5-dibromopentane
Formula: C7H12Br2O2
CAS: 205180-51-4
Molecular weight: 286
m/z	intensity
5	0
7	0
9	0
10	0
11	1
13	1
14	13
15	59
17	0
18	4
20	0
24	1
26	21
27	126
28	29
29	60
30	4
31	11
32	0
33	1
35	0
36	1
37	4
39	134
40	25
41	157
42	0
43	999
44	23
45	6
49	0
50	7
51	14
52	0
53	59
54	10
55	39
56	3
57	15
58	2
59	1
60	0
61	48
62	1
63	3
65	17
67	251
68	22
69	9
71	7
73	57
74	4
75	0
76	0
77	0
79	4
80	4
81	7
82	5
83	2
84	0
85	9
86	0
87	2
88	0
89	0
91	0
93	15
95	14
96	0
97	1
98	0
99	1
101	5
102	1
103	0
105	4
106	19
107	28
108	20
109	26
110	1
113	1
117	2
119	22
120	58
121	24
122	56
123	3
125	0
127	2
133	7
135	8
136	1
137	0
142	0
143	0
147	186
149	187
150	8
151	0
163	1
164	3
165	3
166	3
167	2
168	0
173	1
177	5
179	5
185	1
187	1
189	1
191	1
193	5
195	3
197	0
198	3
200	5
202	2
207	85
209	81
210	6
211	0
226	58
228	123
229	8
230	60
231	3
