Mass Spectrum: .alpha.-D-Glucofuranuronic acid, 1,2-O-(1-methylethylidene)-, .gamma.-lactone
Formula: C9H12O6
CAS: 20513-98-8
Molecular weight: 216
m/z	intensity
27	42
29	206
31	106
39	42
41	78
42	55
43	999
55	83
57	80
58	82
59	467
60	42
61	19
71	96
72	56
73	190
74	19
83	38
84	32
85	707
86	45
99	18
100	35
101	37
113	55
123	18
127	74
129	18
131	27
141	304
142	31
158	229
159	51
183	32
201	625
202	58
216	67
