Mass Spectrum: 3-Buten-2-one 4-[p-bromophenyl]-
Formula: C10H9BrO
CAS: 20511-04-0
Molecular weight: 224
m/z	intensity
41	5
43	629
44	13
49	27
50	278
51	395
52	57
53	14
58	93
61	30
62	68
63	120
64	16
65	12
72	22
73	26
74	152
75	268
76	223
77	42
79	5
80	7
81	4
82	17
84	25
85	4
86	32
87	27
88	13
89	26
90	32
91	40
98	39
99	17
101	161
102	999
103	86
104	32
106	30
113	11
115	99
116	39
117	27
119	9
127	14
128	12
130	145
131	18
145	668
146	48
155	19
157	19
181	237
183	239
184	19
209	769
211	763
212	48
223	154
224	363
225	173
226	365
227	37
