Mass Spectrum: 1,2-Dimethacryloylhydrazine
Formula: C8H12N2O2
CAS: 20518-98-3
Molecular weight: 168
m/z	intensity
15	1
26	2
27	6
28	5
29	1
30	15
31	4
37	2
38	5
39	70
40	18
41	605
42	25
43	10
44	5
45	4
51	1
52	1
53	2
54	2
55	10
56	4
57	3
58	2
59	1
66	1
67	4
68	8
69	999
70	62
71	19
72	1
73	2
75	1
77	1
79	1
81	1
82	7
83	12
84	14
85	5
86	10
94	1
95	2
96	4
97	7
98	50
99	163
100	18
101	2
108	1
109	1
110	1
111	2
112	10
113	9
123	5
124	61
125	11
126	4
127	9
128	1
135	2
136	2
137	2
139	1
140	35
141	3
149	2
150	6
151	6
152	1
153	1
167	134
168	209
169	24
170	3
