Mass Spectrum: Oxazolidine, 2,2-dimethyl-
Formula: C5H11NO
CAS: 20515-62-2
Molecular weight: 101
m/z	intensity
15	48
19	12
26	16
27	68
29	33
30	199
31	29
38	11
39	82
40	30
41	149
42	382
43	146
44	335
45	144
54	25
55	54
56	51
57	11
58	23
59	16
68	13
70	999
71	171
72	23
83	10
86	305
87	16
100	11
101	49
102	3
