Mass Spectrum: Benzenebutanoic acid, .gamma.-oxo-
Formula: C10H10O3
CAS: 2051-95-8
Molecular weight: 178
m/z	intensity
26	7
27	50
28	19
29	17
30	1
31	3
32	1
34	0
36	0
37	0
38	4
39	15
40	1
41	4
42	3
43	6
44	1
45	34
46	1
49	1
50	42
51	150
52	12
53	4
54	1
55	30
56	5
57	4
58	0
59	0
60	0
61	0
62	4
63	7
64	0
65	4
66	4
67	1
69	2
70	0
71	1
72	0
73	14
74	14
75	11
76	20
77	446
78	37
79	4
80	0
81	1
82	0
83	1
85	0
86	0
89	2
90	0
91	5
92	0
93	0
95	0
97	0
100	1
101	3
102	1
103	3
104	4
105	999
106	73
107	5
109	0
111	0
115	4
116	0
117	0
121	0
123	1
131	1
132	1
133	4
134	2
144	1
149	0
156	0
160	2
161	9
162	0
178	66
179	6
180	1
