Mass Spectrum: 1-Methoxy-2,3-dimethyl-2-butene
Formula: C7H14O
CAS: 20518-48-3
Molecular weight: 114
m/z	intensity
25	2
26	18
27	91
28	13
29	75
30	15
31	110
33	6
36	1
37	12
38	30
39	366
40	81
41	618
42	68
43	80
44	5
45	114
46	3
49	4
50	32
51	52
52	31
53	138
54	187
55	223
56	23
57	17
58	6
59	47
60	2
61	5
62	10
63	18
64	3
65	101
66	28
67	986
68	57
69	103
70	7
71	32
72	7
73	18
74	4
75	2
77	22
78	6
79	77
80	9
81	117
82	786
83	140
84	16
85	5
97	9
98	4
99	999
100	58
101	4
112	7
113	18
114	173
115	13
