Mass Spectrum: 8-Azabicyclo[3.2.1]oct-6-en-3-ol, 8-methyl-, endo-
Formula: C8H13NO
CAS: 20513-09-1
Molecular weight: 139
m/z	intensity
41	82
42	165
43	30
44	37
79	20
80	25
81	22
82	47
83	118
84	72
85	25
93	20
94	999
95	165
96	42
97	17
120	10
121	17
122	45
139	45
