Mass Spectrum: (Z),(Z)-2,5-Dimethyl-2,4-hexadienedioic acid
Formula: C8H10O4
CAS: 20514-40-3
Molecular weight: 170
m/z	intensity
15	9
16	2
17	3
18	11
26	12
27	109
28	17
29	30
30	1
31	8
36	5
37	6
38	21
39	144
40	27
41	175
42	11
43	208
44	31
45	53
46	3
47	2
49	3
50	32
51	70
52	40
53	87
54	14
55	42
56	19
57	14
58	2
60	3
61	4
62	7
63	16
64	4
65	21
66	11
67	31
68	16
69	76
70	8
71	7
72	2
73	7
74	9
75	5
76	3
77	116
78	40
79	179
80	31
81	42
82	14
83	10
84	5
85	5
87	1
90	1
91	2
92	1
93	3
94	3
95	59
96	58
97	143
98	16
99	2
101	2
105	4
106	7
107	96
108	21
109	11
110	2
111	7
112	1
113	1
115	1
121	1
122	2
123	20
124	90
125	999
126	81
127	8
129	1
137	4
141	2
149	1
151	3
152	15
153	4
155	9
170	69
171	6
