Mass Spectrum: Zinc, dicyclopentyl-
Formula: C10H18Zn
CAS: 20525-74-0
Molecular weight: 202
m/z	intensity
26	14
27	72
28	25
29	26
30	0
33	0
34	0
36	0
37	2
38	11
39	206
40	75
41	788
42	189
43	19
44	0
49	0
50	3
51	9
52	6
53	99
54	35
55	49
56	3
57	0
62	1
63	5
64	85
65	34
66	49
67	652
68	435
69	999
70	143
71	6
77	0
78	0
79	1
80	0
81	4
82	2
83	1
84	0
85	2
91	3
92	3
93	16
94	2
95	9
96	2
97	5
104	0
105	25
106	51
107	16
108	31
109	14
110	19
111	1
112	0
119	0
131	0
132	44
133	292
134	99
135	172
136	84
137	118
138	28
139	4
140	1
142	0
161	1
163	0
165	0
174	1
176	0
184	0
186	0
188	0
202	99
203	11
204	57
205	14
206	38
207	4
208	1
