Mass Spectrum: Methane, oxybis[dichloro-
Formula: C2H2Cl4O
CAS: 20524-86-1
Molecular weight: 182
m/z	intensity
35	70
36	14
37	24
38	5
40	2
41	5
42	3
47	255
48	100
49	96
50	33
51	5
70	8
72	5
82	88
83	999
84	76
85	652
86	22
87	107
88	2
