Mass Spectrum: (+)-N-Benzenesulfonylglutamic acid
Formula: C11H13NO6S
CAS: 20531-37-7
Molecular weight: 287
m/z	intensity
41	50
42	41
43	36
44	140
45	139
46	38
48	41
50	102
51	271
52	30
54	36
55	63
56	182
57	91
64	30
65	63
66	9
69	29
73	34
74	52
75	28
76	31
77	999
78	216
79	10
82	35
83	32
84	202
85	32
91	97
93	41
94	57
97	53
100	56
102	83
105	57
106	9
107	10
122	41
125	65
128	65
141	416
142	136
143	37
146	291
147	20
157	36
159	10
160	87
186	9
196	52
197	9
198	43
205	56
224	232
225	34
242	249
243	33
