Mass Spectrum: Benzene, (2-azido-1-propenyl)-, (E)-
Formula: C9H9N3
CAS: 20544-84-7
Molecular weight: 159
m/z	intensity
77	170
89	910
90	999
91	190
103	230
104	220
115	300
116	660
117	340
130	840
131	660
159	80
