Mass Spectrum: 1H-Tetrazaborole, 4,5-dihydro-1,4,5-trimethyl-
Formula: C3H9BN4
CAS: 20546-18-3
Molecular weight: 112
m/z	intensity
11	10
13	10
15	20
24	10
25	30
26	60
27	110
28	40
29	20
30	40
37	10
38	20
39	40
40	160
41	150
42	130
43	20
44	10
51	10
52	10
53	40
54	180
55	110
56	360
57	10
66	10
67	20
68	30
69	140
70	10
82	40
83	210
84	20
111	220
112	999
113	30
