Mass Spectrum: 4(3H)-Pyrimidinone, 5-chloro-2,6-dimethyl-
Formula: C6H7ClN2O
CAS: 20551-34-2
Molecular weight: 158
m/z	intensity
42	999
44	120
52	150
54	80
76	260
78	90
89	50
90	50
91	30
95	80
103	130
105	30
117	220
119	100
130	100
132	30
158	810
160	240
