Mass Spectrum: Parthenolide
Formula: C15H20O3
CAS: 20554-84-1
Molecular weight: 248
m/z	intensity
43	999
53	174
55	120
58	250
67	97
77	91
79	117
81	124
91	137
95	89
105	122
107	85
190	94
230	81
233	11
248	15
