Mass Spectrum: Acetoacetic acid, 1,3-dithio-, S-propyl ester
Formula: C7H12OS2
CAS: 20560-74-1
Molecular weight: 176
m/z	intensity
31	23
33	27
34	68
35	61
36	23
37	61
38	112
39	653
40	153
41	755
42	489
43	772
44	360
45	670
46	156
47	602
48	68
57	98
58	173
59	670
60	61
61	217
62	20
67	95
68	30
69	115
70	23
71	244
72	190
73	231
74	353
75	142
76	646
77	47
78	20
85	102
86	6
87	6
100	544
101	999
102	95
103	146
104	17
105	20
106	13
132	47
133	496
134	40
135	54
148	40
149	20
150	17
176	23
