Mass Spectrum: 2,3,4-Trimethyl-d-xylose, TMS derivative
Formula: C11H24O5Si
CAS: 20561-82-4
Molecular weight: 264
m/z	intensity
15	20
27	20
29	60
31	40
33	20
39	10
41	60
42	10
43	70
44	20
45	230
47	20
53	20
55	30
57	20
58	110
59	100
61	20
68	10
69	20
71	70
72	20
73	370
74	40
75	150
79	10
83	20
85	40
87	20
88	999
89	120
90	10
99	20
101	560
102	40
103	30
115	140
116	60
117	10
129	10
131	170
132	20
133	710
134	70
135	30
142	1
143	4
144	1
145	10
146	20
147	9
148	2
149	2
157	8
158	1
159	19
160	5
161	4
163	1
172	2
173	4
174	50
175	21
176	5
185	14
186	2
187	4
189	2
191	1
205	1
217	8
218	2
219	1
221	1
