Mass Spectrum: 6,10-Dodecadien-1-ol, 3,7,11-trimethyl-, (E)-(.+/-.)-
Formula: C15H28O
CAS: 20576-54-9
Molecular weight: 224
m/z	intensity
27	54
28	4
29	74
31	78
32	4
39	60
40	16
41	494
42	36
43	140
44	4
45	10
51	4
52	4
53	94
54	22
55	230
56	34
57	64
65	18
66	16
67	182
68	116
69	999
70	86
71	54
77	32
78	4
79	50
80	30
81	519
82	122
83	62
84	20
85	60
86	6
91	24
92	4
93	44
94	26
95	330
96	48
97	20
98	14
99	158
100	16
101	2
103	4
105	14
107	44
108	16
109	126
110	34
111	32
112	14
113	4
121	40
122	22
123	406
124	58
125	12
135	20
136	8
137	56
138	16
139	12
146	6
147	14
149	12
150	4
151	4
163	88
164	12
180	14
181	226
182	36
209	16
224	48
225	6
