Mass Spectrum: N-Furfuryl-N'-(benzyl)oxamide
Formula: C14H14N2O3
CAS: 205749-54-8
Molecular weight: 258
m/z	intensity
33	1
34	1
37	30
38	110
39	432
40	73
41	160
42	47
43	82
44	87
46	0
48	0
50	152
51	325
52	158
53	708
54	36
55	16
56	21
57	6
58	1
60	0
61	3
62	16
63	93
65	405
66	42
67	31
68	47
69	56
70	5
71	4
72	0
74	18
75	14
77	195
78	86
79	70
81	974
82	59
83	5
84	1
85	1
86	2
87	2
89	68
91	999
92	78
94	59
95	54
96	400
97	26
98	2
99	0
100	0
101	0
102	2
104	92
105	39
106	111
107	10
108	3
109	0
110	0
112	0
113	0
115	1
116	3
117	2
118	1
119	0
120	0
122	60
123	6
124	1
125	1
127	0
128	1
129	1
130	0
132	35
133	7
134	4
135	0
136	0
138	0
141	0
142	0
144	0
145	0
149	1
150	0
152	0
153	0
157	0
161	0
164	0
165	1
166	4
167	216
168	18
169	1
170	0
171	0
175	0
177	17
178	1
179	0
181	0
182	0
184	0
186	0
189	0
190	0
191	0
206	0
255	0
256	1
258	30
259	5
260	0
