Mass Spectrum: 2,6-Dodecadien-1-ol, 3,7,11-trimethyl-, (E,E)-
Formula: C15H28O
CAS: 20576-56-1
Molecular weight: 224
m/z	intensity
26	2
27	82
28	14
29	198
30	4
31	24
36	4
39	94
40	24
41	499
42	36
43	352
44	20
45	6
51	12
52	8
53	104
54	24
55	799
56	48
57	356
58	20
65	22
66	24
67	174
68	254
69	863
70	84
71	124
72	4
77	44
78	14
79	58
80	102
81	200
82	102
83	999
84	224
85	34
86	4
91	38
92	46
93	80
94	58
95	154
96	58
97	260
98	40
103	2
105	12
106	4
107	40
108	18
109	66
110	44
111	208
112	40
113	2
115	2
117	2
119	4
120	4
121	100
122	24
123	64
124	18
129	22
135	36
136	16
137	24
138	20
139	36
140	24
149	34
150	16
151	10
163	16
166	2
177	4
178	2
179	4
191	12
193	140
194	24
206	38
207	6
209	4
224	116
225	20
