Mass Spectrum: Silane, (2-methoxycyclohexyl)trimethyl-, trans-
Formula: C10H22OSi
CAS: 20584-46-7
Molecular weight: 186
m/z	intensity
12	0
13	0
14	3
15	51
16	1
17	1
18	3
26	4
27	60
28	31
29	82
30	5
31	39
32	7
37	0
38	2
39	46
40	6
41	101
42	18
43	110
44	32
45	196
46	11
47	8
48	0
49	0
50	6
51	15
52	9
53	65
54	178
55	70
56	14
57	26
58	82
59	326
60	25
61	19
62	1
63	2
64	1
65	9
66	13
67	361
68	23
69	19
70	5
71	92
72	29
73	742
74	65
75	79
76	7
77	17
78	4
79	32
80	17
81	86
82	375
83	33
84	18
85	14
86	1
87	1
88	7
89	999
90	84
91	39
92	1
93	1
94	0
95	4
96	1
97	9
98	1
99	4
100	0
101	2
102	0
103	17
104	2
105	270
106	25
108	0
109	2
110	0
111	9
112	5
113	4
114	0
115	8
116	0
117	0
119	0
121	0
123	0
125	0
126	0
127	1
128	0
129	13
130	2
131	0
135	0
137	0
139	15
140	2
141	1
142	1
143	16
144	2
145	0
147	0
148	0
151	0
153	0
154	3
155	2
156	0
169	2
170	0
171	13
172	1
173	0
184	0
185	0
186	0
187	0
