Mass Spectrum: 4-(Methylthio)-1-butene
Formula: C5H10S
CAS: 20582-83-6
Molecular weight: 102
m/z	intensity
26	10
27	119
28	43
29	45
35	95
37	5
38	6
39	81
40	18
41	35
45	68
46	29
47	38
48	13
49	8
50	10
51	16
52	6
53	42
54	110
55	62
58	13
59	22
60	6
61	999
62	29
63	44
74	6
85	10
87	13
102	333
103	21
104	15
