Mass Spectrum: 4-Cyclohexene-1,2-dicarboxylic acid, 4-methyl-, dimethyl ester, trans-
Formula: C11H16O4
CAS: 20586-29-2
Molecular weight: 212
m/z	intensity
26	4
27	9
28	12
29	8
30	1
31	2
33	8
39	12
40	5
41	29
42	3
43	7
44	2
45	12
46	0
47	0
50	0
51	4
52	2
53	23
54	3
55	16
56	2
57	2
58	0
59	72
60	3
61	10
62	0
63	0
64	1
65	16
66	6
67	22
68	11
69	3
70	0
71	2
72	0
73	0
74	0
75	1
77	115
78	19
79	64
80	8
81	8
82	1
83	1
84	0
85	5
86	0
87	1
89	3
90	2
91	118
92	189
93	999
94	95
95	10
96	1
97	1
98	0
99	0
100	0
103	0
104	0
105	10
106	1
107	7
108	1
109	8
110	2
111	3
112	0
113	5
114	0
118	0
119	12
120	16
121	47
122	5
123	3
124	6
125	9
126	0
128	0
129	1
130	0
133	0
134	0
135	2
136	0
137	52
138	6
139	0
145	0
147	0
148	0
149	0
150	2
151	27
152	379
153	60
154	5
155	0
165	0
177	0
178	0
179	0
180	124
181	96
182	10
183	1
212	5
213	0
