Mass Spectrum: Threitol, 1,2:3,4-di-O-isopropylidene-, L-
Formula: C10H18O4
CAS: 20581-92-4
Molecular weight: 202
m/z	intensity
40	52
41	81
42	75
43	976
44	52
45	4
55	40
56	5
57	51
58	76
59	193
68	20
69	465
70	20
71	15
72	165
73	348
74	8
81	9
83	81
85	111
86	32
87	16
97	34
99	9
100	37
101	999
102	46
127	229
128	14
129	216
130	15
187	872
188	95
189	15
