Mass Spectrum: Cyclohexanol, 2-(trimethylsilyl)-, trans-
Formula: C9H20OSi
CAS: 20584-41-2
Molecular weight: 172
m/z	intensity
12	0
13	5
14	2
15	25
16	1
17	2
18	9
19	1
25	0
26	5
27	64
28	25
29	92
30	5
31	43
32	1
33	0
37	0
38	2
39	45
40	6
41	76
42	20
43	104
44	38
45	169
46	11
50	7
51	17
52	9
53	58
54	264
55	71
56	8
57	68
58	35
59	111
60	20
61	64
62	5
63	4
64	0
65	8
66	13
67	446
68	26
69	13
70	18
71	10
72	19
73	623
74	62
75	999
76	73
77	48
78	5
79	38
80	26
81	59
82	365
83	34
84	2
85	16
86	1
87	3
88	0
89	1
90	1
91	94
92	8
93	5
94	0
95	4
96	2
97	7
98	11
99	5
100	0
101	3
102	0
103	0
105	0
107	0
109	1
110	0
111	3
112	0
113	6
114	0
115	1
123	0
125	0
127	1
129	11
130	2
131	0
137	0
139	28
140	3
141	2
142	0
143	0
147	1
154	8
155	2
156	0
157	3
158	0
169	0
170	0
171	0
