Mass Spectrum: Cytidine, 3'-O-methyl-
Formula: C10H15N3O5
CAS: 20594-00-7
Molecular weight: 257
m/z	intensity
27	25
29	71
31	71
33	37
39	20
40	20
41	60
42	51
43	43
45	48
52	25
53	14
54	14
55	23
56	23
57	51
58	8
59	23
67	20
68	57
69	80
70	28
71	77
73	8
75	23
79	8
81	8
83	23
84	20
85	40
87	114
94	31
95	48
96	28
97	20
99	8
111	126
112	999
113	51
140	238
141	14
151	74
152	14
154	51
170	235
171	8
178	28
196	20
