Mass Spectrum: 2-Methoxyethyl 2-ethylhexanoate
Formula: C11H22O3
CAS: 205983-99-9
Molecular weight: 202
m/z	intensity
15	25
26	3
27	66
28	29
29	158
30	5
31	60
32	1
33	3
38	1
39	41
40	8
41	184
42	37
43	220
44	9
45	94
46	2
47	1
51	2
52	1
53	12
54	7
55	155
56	53
57	941
58	999
59	342
60	13
61	1
65	2
67	6
68	7
69	52
70	179
71	21
72	2
73	12
74	1
75	2
77	47
78	2
79	1
80	4
81	3
82	2
83	27
84	5
85	3
86	2
87	5
88	14
89	1
95	1
96	1
97	24
98	72
99	299
100	22
101	5
102	1
103	19
104	1
111	3
113	5
114	62
115	9
116	19
117	2
118	1
125	2
126	12
127	339
128	29
129	8
131	25
132	2
141	2
142	1
143	2
144	3
145	6
146	125
147	9
148	1
159	2
171	3
172	4
173	2
174	15
175	1
