Mass Spectrum: 3,5-Diphenyl-1,2,4-oxadiazole, 4-oxide
Formula: C14H10N2O2
CAS: 20594-92-7
Molecular weight: 238
m/z	intensity
12	1
13	0
14	1
15	1
16	2
17	18
18	66
25	1
26	17
27	47
28	17
29	2
30	23
32	1
36	2
37	19
38	44
39	79
40	8
41	14
42	2
43	3
44	5
45	1
48	1
49	11
50	161
51	356
52	51
53	8
54	1
55	1
56	0
57	1
60	1
61	5
62	11
63	49
64	71
65	16
66	1
67	1
68	0
69	1
70	1
71	1
72	0
73	5
74	28
75	43
76	151
77	679
78	47
79	1
80	0
81	0
83	0
84	1
85	0
86	1
87	1
88	3
89	2
90	7
91	58
92	4
93	1
95	0
98	0
99	2
100	1
101	1
103	191
105	999
106	84
107	5
111	1
112	0
119	71
120	5
121	9
122	2
137	0
138	1
139	1
141	0
171	0
222	0
238	91
239	14
240	1
