Mass Spectrum: Ether, 6-bromo-1-ethyloctyl methyl
Formula: C11H23BrO
CAS: 20599-95-5
Molecular weight: 250
m/z	intensity
41	142
42	13
43	22
45	111
53	13
55	118
57	13
58	11
59	22
67	71
68	9
69	49
71	71
72	56
73	999
74	44
81	22
82	16
83	78
84	13
95	18
96	11
97	22
99	11
109	178
110	13
111	22
139	11
141	71
142	9
171	7
221	118
222	18
223	116
224	18
