Mass Spectrum: Benzene, 1-isocyano-3-methyl-
Formula: C8H7N
CAS: 20600-54-8
Molecular weight: 117
m/z	intensity
63	150
64	10
89	210
90	380
91	40
116	800
117	999
118	90
