Mass Spectrum: Acetic acid, (ethylthio)-, methyl ester
Formula: C5H10O2S
CAS: 20600-64-0
Molecular weight: 134
m/z	intensity
26	30
27	160
28	220
29	210
30	10
41	80
42	80
43	250
44	50
45	270
46	120
47	470
48	30
49	30
57	30
58	40
59	170
60	90
61	400
62	30
63	30
73	50
74	999
75	870
76	70
77	80
91	50
102	30
103	40
105	20
106	40
119	10
134	610
135	50
136	40
