Mass Spectrum: Acetaldehyde, butylhydrazone
Formula: C6H14N2
CAS: 20607-72-1
Molecular weight: 114
m/z	intensity
28	142
29	118
30	631
31	289
39	37
40	16
41	87
42	224
43	79
44	50
45	8
54	4
55	20
56	42
57	63
58	50
59	5
69	16
70	21
71	999
72	118
73	26
83	7
84	8
85	6
99	71
100	5
112	9
113	10
114	213
115	21
