Mass Spectrum: Triethylene glycol, mononitrate
Formula: C6H13NO6
CAS: 20600-87-7
Molecular weight: 195
m/z	intensity
12	5
14	36
15	149
26	17
27	73
28	198
29	260
30	267
31	196
32	67
33	13
39	4
40	5
41	11
42	27
43	145
44	154
45	410
46	999
47	11
51	1
53	1
54	1
55	7
56	4
57	11
58	14
59	5
60	9
61	3
62	2
67	2
68	4
69	2
70	2
71	4
72	2
73	452
74	17
76	410
77	2
85	2
86	2
87	7
88	9
89	7
90	34
91	2
97	2
105	3
120	12
133	2
141	1
