Mass Spectrum: Acetamide, N-(4-hydroxy-2-benzothiazolyl)-
Formula: C9H8N2O2S
CAS: 20600-52-6
Molecular weight: 208
m/z	intensity
43	999
44	80
51	28
52	29
69	33
70	17
78	24
79	20
82	10
83	17
84	14
95	14
96	30
110	38
111	86
123	10
137	33
139	67
166	495
167	50
193	10
208	505
209	50
