Mass Spectrum: 3,5-Xylyl isocyanide
Formula: C9H9N
CAS: 20600-56-0
Molecular weight: 131
m/z	intensity
51	140
52	10
77	150
78	10
89	120
90	10
103	130
104	10
116	999
117	170
118	20
130	250
131	670
132	70
