Mass Spectrum: Acetic acid, (propylthio)-, methyl ester
Formula: C6H12O2S
CAS: 20600-65-1
Molecular weight: 148
m/z	intensity
24	110
39	80
41	290
42	80
43	530
44	20
45	300
46	130
47	330
48	10
59	140
61	190
62	10
74	999
75	830
76	70
77	70
89	280
90	30
91	80
106	130
107	10
148	430
149	60
150	20
