Mass Spectrum: Butanal, propylhydrazone
Formula: C7H16N2
CAS: 20607-76-5
Molecular weight: 128
m/z	intensity
28	194
29	103
30	689
31	24
32	11
39	72
40	12
41	259
42	75
43	375
44	63
54	18
55	31
56	50
57	91
58	66
68	28
69	28
70	104
71	42
72	15
83	13
85	67
97	10
99	999
100	91
127	9
128	250
129	28
