Mass Spectrum: Guanidine, N-methyl-N-phenyl-
Formula: C8H11N3
CAS: 20600-59-3
Molecular weight: 149
m/z	intensity
27	30
30	60
39	100
42	30
43	250
44	40
50	50
51	120
52	30
60	40
63	40
65	80
66	50
71	40
76	20
77	260
78	80
79	70
91	30
92	30
93	420
94	30
104	40
105	20
106	999
107	440
108	20
118	20
131	20
132	40
133	40
149	640
150	150
