Mass Spectrum: Propanal, 2-methyl-, ethylhydrazone
Formula: C6H14N2
CAS: 20607-77-6
Molecular weight: 114
m/z	intensity
27	279
28	441
29	465
30	441
31	81
38	15
39	170
40	37
41	441
42	255
43	535
44	721
45	781
46	86
53	23
54	47
55	202
56	187
57	372
58	142
59	54
68	47
69	37
70	109
71	125
72	61
73	166
85	279
86	49
99	999
100	42
113	65
114	908
115	100
