Mass Spectrum: (Z)-2-(Hepta-2,4-diyn-1-ylidene)-1,6-dioxaspiro[4.4]non-3-ene
Formula: C14H14O2
CAS: 206062-16-0
Molecular weight: 214
m/z	intensity
26	24
27	96
29	150
30	6
37	6
38	30
39	210
40	30
41	576
42	132
43	612
44	21
45	24
49	8
50	356
51	233
52	140
53	182
54	216
55	999
56	128
57	321
59	165
61	20
62	88
63	171
64	42
65	89
66	46
67	176
68	71
69	362
70	62
71	134
73	60
75	602
76	559
77	350
78	89
79	160
80	56
81	189
82	185
83	187
85	65
86	48
88	136
89	63
91	165
92	28
94	42
97	143
100	16
101	158
102	394
103	120
104	76
107	59
111	66
113	48
115	641
116	160
117	74
122	54
124	43
126	54
127	254
128	420
129	504
130	283
131	137
137	32
139	67
141	177
142	83
143	410
144	120
145	139
146	38
147	41
148	20
150	17
152	70
153	84
154	27
155	77
156	595
157	328
158	331
159	117
160	27
167	29
168	21
169	210
170	62
171	229
172	57
173	33
181	30
182	12
183	23
184	41
185	326
186	116
195	16
196	11
197	33
198	16
199	113
213	173
214	682
215	105
216	13
