Mass Spectrum: Isobutyraldehyde, propylhydrazone
Formula: C7H16N2
CAS: 20607-78-7
Molecular weight: 128
m/z	intensity
28	270
29	200
30	846
39	146
40	23
41	365
42	139
43	999
44	108
45	18
54	46
55	50
56	108
57	135
58	169
68	24
69	33
70	73
71	54
72	28
83	22
84	14
85	162
86	19
97	16
99	106
100	7
113	11
128	385
129	54
