Mass Spectrum: Ethanol, 2-(phenylsulfonyl)-
Formula: C8H10O3S
CAS: 20611-21-6
Molecular weight: 186
m/z	intensity
51	354
65	78
77	999
78	810
91	73
93	25
94	273
97	31
104	132
121	105
125	118
141	137
142	118
143	223
144	20
156	33
158	123
168	6
186	64
