Mass Spectrum: Benzene, 1-azido-4-methyl-2-nitro-
Formula: C7H6N4O2
CAS: 20615-75-2
Molecular weight: 178
m/z	intensity
14	10
15	10
26	50
27	200
28	200
29	20
30	130
36	20
37	50
38	90
39	380
40	40
41	70
42	10
43	20
46	20
49	20
50	170
51	350
52	130
53	40
54	10
61	30
62	60
63	130
64	110
65	999
66	170
74	30
75	50
76	100
77	200
78	70
79	20
87	10
88	40
89	280
90	180
91	130
92	50
102	30
103	40
104	40
105	50
106	10
133	10
134	20
150	290
151	30
178	40
