Mass Spectrum: Androst-5-ene-3,17-diol, 17-methyl-, diacetate, (3.beta.,17.beta.)-
Formula: C24H36O4
CAS: 2061-86-1
Molecular weight: 388
m/z	intensity
25	1
26	3
27	28
29	75
30	2
31	6
38	1
39	33
40	10
41	173
42	29
43	999
44	30
45	99
46	1
50	2
51	9
52	5
53	49
54	7
55	160
56	12
57	34
58	9
59	5
60	67
61	5
62	1
63	3
64	2
65	30
66	10
67	141
68	14
69	58
70	7
71	22
72	5
73	3
74	1
76	1
77	99
78	25
79	195
80	23
81	214
82	18
83	21
84	3
85	14
86	1
87	1
89	2
90	1
91	309
92	55
93	191
94	43
95	116
96	12
97	12
98	4
99	6
100	1
101	1
102	2
103	18
104	24
105	275
106	74
107	297
108	107
109	116
110	11
111	4
112	5
113	3
115	30
116	16
117	88
118	43
119	140
120	99
121	166
122	44
123	39
124	5
125	3
126	1
127	7
128	30
129	62
130	29
131	117
132	33
133	133
134	27
135	30
136	4
137	4
139	1
141	21
142	20
143	171
144	57
145	256
146	73
147	303
148	63
149	31
150	8
151	4
152	3
153	4
154	4
155	19
156	12
157	106
158	140
159	182
160	188
161	159
162	51
163	31
164	4
165	4
166	2
167	5
168	3
169	22
170	10
171	44
172	27
173	52
174	25
175	28
176	6
177	6
178	1
179	2
180	1
181	6
182	4
183	26
184	10
185	33
186	17
187	23
188	8
189	3
191	1
193	1
195	4
196	3
197	51
198	17
199	51
200	19
201	13
202	3
203	1
205	1
207	1
209	3
210	2
211	59
212	46
213	81
214	21
215	11
216	2
217	1
219	1
220	1
223	1
224	2
225	21
226	33
227	72
228	57
229	11
230	1
237	3
238	2
239	16
240	11
241	3
242	1
243	1
249	2
250	7
251	5
252	4
253	394
254	72
255	8
256	1
257	1
266	2
267	41
268	611
269	128
270	16
271	6
272	1
284	1
285	21
286	7
287	1
295	2
309	2
310	3
313	22
314	5
328	454
329	96
330	12
331	1
345	1
