Mass Spectrum: O-Isobutyl methylphosphonothiolate
Formula: C5H13O2PS
CAS: 20626-99-7
Molecular weight: 168
m/z	intensity
63	119
65	80
77	140
78	33
79	449
80	70
81	48
94	30
95	534
96	73
97	128
111	19
112	190
113	999
114	30
115	50
168	43
169	5
