Mass Spectrum: 1,3-Dioxane, 2-ethyl-5-methyl-
Formula: C7H14O2
CAS: 20627-54-7
Molecular weight: 130
m/z	intensity
30	25
31	276
32	9
38	9
39	110
40	25
41	213
42	320
43	150
44	9
45	25
53	6
54	3
55	760
56	31
57	374
58	37
59	622
60	25
71	25
72	12
73	59
74	9
75	47
100	6
101	999
102	56
129	132
130	15
