Mass Spectrum: Ethyl o-acetamidobenzoate
Formula: C11H13NO3
CAS: 20628-20-0
Molecular weight: 207
m/z	intensity
14	1
15	13
26	4
27	23
28	18
29	23
30	2
31	35
37	4
38	10
39	30
40	4
41	7
42	7
43	182
44	7
45	22
46	9
50	17
51	10
52	12
53	5
54	1
61	2
62	8
63	35
64	41
65	80
66	9
73	1
74	6
75	6
76	14
77	19
78	4
79	3
80	3
81	1
87	1
88	1
89	3
90	64
91	38
92	173
93	44
94	3
102	2
103	1
104	3
105	4
106	3
108	1
116	2
117	45
118	13
119	999
120	191
121	22
122	1
132	12
133	2
134	14
135	2
136	2
137	64
138	5
144	9
145	1
146	135
147	11
148	2
151	3
160	3
161	117
162	89
163	9
164	3
165	711
166	74
167	6
192	1
207	348
208	44
209	4
