Mass Spectrum: Retinamide
Formula: C20H29NO
CAS: 20638-84-0
Molecular weight: 299
m/z	intensity
46	0
53	0
55	9
56	3
57	8
58	13
59	7
60	3
67	2
69	31
70	4
71	3
72	3
73	3
74	0
77	0
79	2
80	3
81	29
82	5
83	21
85	43
86	19
87	15
88	1
89	1
91	3
92	2
93	11
94	10
95	26
97	121
98	9
99	70
100	6
101	0
102	0
103	0
104	0
105	16
106	18
107	126
108	19
110	999
111	95
112	19
113	2
114	1
115	0
116	0
117	1
118	18
119	67
120	56
121	42
122	40
123	79
124	28
125	20
126	5
127	2
128	0
129	1
130	1
131	16
132	15
133	49
134	15
135	34
136	15
137	25
138	6
139	3
140	1
141	1
142	1
143	7
144	9
145	55
146	57
147	41
148	32
149	53
150	96
151	31
152	16
153	3
154	2
155	1
156	2
157	21
158	19
159	51
160	18
161	36
162	504
163	372
164	53
165	9
166	7
167	2
168	0
169	3
170	5
171	41
172	16
173	37
174	32
175	138
176	225
177	91
178	22
179	3
180	2
181	0
182	0
183	3
184	8
185	37
186	10
187	25
188	33
189	13
190	11
191	6
192	4
193	4
194	0
195	0
196	0
197	5
198	5
199	27
200	88
201	377
202	124
203	21
204	3
205	1
206	3
207	0
208	0
209	0
210	0
211	7
212	4
213	26
214	13
215	4
216	8
217	9
218	5
219	10
220	2
221	0
222	0
223	0
224	0
225	6
226	6
227	2
228	6
229	7
230	11
231	3
232	0
233	0
234	0
235	0
238	0
239	12
240	18
241	10
242	3
243	8
244	2
245	0
249	0
250	0
252	0
253	0
254	14
255	145
256	34
257	4
258	0
259	0
265	0
266	0
267	12
268	2
269	0
270	1
271	1
272	0
273	0
280	0
281	1
282	10
283	3
284	32
285	7
286	1
287	0
295	0
296	0
297	3
299	835
300	189
301	23
