Mass Spectrum: Tetrafluoro(pentafluoroethyl)iodine
Formula: C2F9I
CAS: 20636-76-4
Molecular weight: 322
m/z	intensity
31	100
50	310
69	999
100	280
119	670
127	460
139	20
142	20
146	140
158	60
165	190
177	310
184	60
203	140
208	10
222	10
227	140
246	430
253	310
265	10
