Mass Spectrum: 3,4-Hexanedione, 2,2,5-trimethyl-
Formula: C9H16O2
CAS: 20633-03-8
Molecular weight: 156
m/z	intensity
26	23
27	157
28	30
29	171
39	93
40	18
41	281
42	56
43	999
44	51
45	18
55	14
56	28
57	586
58	37
70	16
71	211
72	16
85	84
86	16
156	32
