Mass Spectrum: Nicotinonitrile, 1,2-dihydro-6-methyl-2-oxo-4-phenethyl-
Formula: C15H14N2O
CAS: 20637-21-2
Molecular weight: 238
m/z	intensity
27	14
39	49
41	14
42	40
50	16
51	35
52	11
62	7
63	26
64	11
65	98
66	9
75	7
76	10
77	25
78	13
89	14
90	8
91	999
92	84
103	9
118	7
119	21
161	12
223	7
237	23
238	198
239	33
