Mass Spectrum: Tetrafluoro(perfluorobutyl)iodine
Formula: C4F13I
CAS: 20636-74-2
Molecular weight: 422
m/z	intensity
31	220
50	80
69	999
81	70
93	50
100	320
119	220
127	480
131	290
146	10
150	60
165	10
169	90
177	150
181	80
184	10
196	10
200	10
201	10
203	20
208	30
213	10
219	350
220	20
222	10
227	20
232	10
239	30
246	10
253	480
277	10
296	20
327	10
353	190
