Mass Spectrum: Nitric acid, heptyl ester
Formula: C7H15NO3
CAS: 20633-12-9
Molecular weight: 161
m/z	intensity
12	2
13	4
14	5
15	32
25	3
26	22
27	228
28	163
29	421
30	101
31	39
39	8
40	5
41	479
42	149
43	999
44	62
45	23
46	332
47	2
52	3
53	31
54	21
55	459
56	92
57	498
58	31
66	3
67	33
68	19
69	308
70	4
71	153
72	5
76	251
77	3
80	11
81	18
82	4
83	59
84	21
85	2
95	8
96	5
97	11
98	1
