Mass Spectrum: Nitric acid, nonyl ester
Formula: C9H19NO3
CAS: 20633-13-0
Molecular weight: 189
m/z	intensity
12	3
13	5
14	7
15	42
26	6
27	31
28	279
29	160
30	48
31	109
38	5
39	130
40	29
41	618
42	193
43	999
44	68
45	122
46	413
47	2
53	31
54	33
55	531
56	144
57	802
58	38
59	1
66	4
67	48
68	39
69	702
70	88
71	379
72	4
76	17
80	19
81	31
82	3
83	312
84	44
85	68
86	1
95	11
96	2
97	39
98	8
113	1
