Mass Spectrum: 4-Undecene, 5-methyl-
Formula: C12H24
CAS: 20634-43-9
Molecular weight: 168
m/z	intensity
27	100
28	20
29	160
39	80
40	20
41	340
42	50
43	200
44	10
51	6
53	70
54	20
55	999
56	850
57	360
58	20
65	10
66	9
67	80
68	70
69	480
70	420
71	50
77	10
79	20
81	50
82	30
83	515
84	80
85	18
95	20
96	12
97	120
98	80
99	30
110	10
111	70
112	20
121	20
168	150
169	20
