Mass Spectrum: Butane, 1,2,3-trimethoxy-4-phenyl-
Formula: C13H20O3
CAS: 20637-30-3
Molecular weight: 224
m/z	intensity
39	134
41	317
42	117
43	390
45	999
46	24
47	19
50	24
51	19
52	19
53	19
55	60
56	48
57	195
58	346
59	426
60	24
63	24
64	19
65	73
66	12
67	17
68	12
69	19
70	7
71	92
72	29
73	90
74	24
75	1
76	4
77	68
78	19
79	19
83	12
84	12
85	48
87	122
88	85
89	73
90	19
91	390
92	48
93	24
96	7
98	19
99	24
100	19
101	224
102	24
103	317
104	36
105	109
106	7
107	12
114	29
115	85
116	36
117	83
118	19
119	19
120	17
121	29
122	12
127	12
128	17
129	29
130	19
131	24
132	12
133	170
134	207
135	841
136	85
143	19
145	12
147	317
148	43
149	12
160	12
165	53
166	1
192	102
193	19
