Mass Spectrum: Butane, 1,2,4-trimethoxy-
Formula: C7H16O3
CAS: 20637-48-3
Molecular weight: 148
m/z	intensity
26	0
27	23
29	47
30	4
31	32
33	6
39	14
40	0
41	41
42	6
43	29
45	999
46	21
47	7
53	7
54	1
55	14
56	3
57	4
58	25
59	42
60	2
69	3
71	97
72	10
73	57
74	4
75	14
76	0
84	5
85	11
86	1
88	2
89	13
90	1
101	2
102	5
103	155
104	8
105	0
116	18
117	0
