Mass Spectrum: 1-Propanol, 3-methoxy-2,2-bis(methoxymethyl)-
Formula: C8H18O4
CAS: 20637-36-9
Molecular weight: 178
m/z	intensity
25	1
26	11
27	73
28	20
29	145
30	10
31	110
33	73
34	0
36	1
37	0
38	2
39	119
40	27
41	353
42	55
43	76
44	12
45	999
46	23
47	29
48	1
50	3
51	4
52	3
53	40
54	71
55	225
56	64
57	85
58	72
59	36
60	8
61	91
62	1
63	4
64	1
65	6
66	2
67	23
68	22
69	130
70	52
71	514
72	36
73	9
74	2
75	823
76	29
77	12
79	4
80	2
81	20
82	57
83	76
84	156
85	257
86	99
87	36
88	13
89	2
91	1
93	2
95	2
96	2
97	20
98	27
99	28
100	7
101	152
102	21
103	2
105	0
107	0
108	1
109	1
110	2
112	2
113	15
114	105
115	38
116	14
117	2
118	2
119	1
126	1
127	1
128	44
129	5
