Mass Spectrum: Propane, 1,2,3-trimethoxy-
Formula: C6H14O3
CAS: 20637-49-4
Molecular weight: 134
m/z	intensity
26	8
27	55
28	25
29	307
30	13
31	285
32	11
33	23
37	0
38	1
39	33
40	1
41	84
42	33
43	274
44	8
45	689
46	17
47	75
48	1
51	1
53	1
54	1
55	6
56	6
57	19
58	416
59	999
60	30
61	3
69	1
70	3
71	122
72	44
73	32
74	41
75	51
76	1
85	1
87	3
88	125
89	693
90	33
91	3
101	14
102	276
103	12
104	1
