Mass Spectrum: 5H-Dibenz(b,f)azepine, 10,11-dihydro-5-(2'-(N,N-dimethylamino)-2'-methyl)ethyl-
Formula: C19H24N2
CAS: 2064-23-5
Molecular weight: 280
m/z	intensity
42	38
43	9
44	25
45	2
47	117
48	53
49	36
50	18
51	3
52	0
54	1
56	26
57	7
58	5
60	0
63	3
65	9
70	25
72	999
73	40
75	1
76	0
77	8
78	2
90	3
91	11
92	1
97	3
99	4
100	1
101	8
102	13
103	17
104	6
105	3
106	2
109	2
111	0
113	1
114	1
126	2
127	4
128	6
129	2
130	6
131	0
139	4
140	2
141	1
150	0
151	3
152	7
153	2
154	0
163	1
164	2
165	17
166	5
167	7
168	0
176	2
177	2
178	12
179	7
180	4
190	2
191	8
192	16
193	45
194	17
195	2
204	6
205	2
206	9
207	3
208	35
209	91
210	13
217	0
218	2
220	2
222	1
234	4
235	2
236	7
237	0
280	32
281	6
