Mass Spectrum: 3-Ethoxy-2-methyl-2-cyclohexen-1-one
Formula: C9H14O2
CAS: 20643-20-3
Molecular weight: 154
m/z	intensity
15	10
18	0
26	52
27	451
28	68
29	226
30	5
31	9
38	11
39	170
40	40
41	187
42	116
43	180
44	9
45	18
50	13
51	32
52	24
53	98
54	309
55	253
56	68
57	8
63	6
65	21
66	18
67	110
68	49
69	70
70	585
71	58
72	3
77	40
78	7
79	72
80	14
81	42
82	210
83	264
84	17
85	25
91	0
92	1
93	4
95	317
96	25
97	49
98	999
99	54
100	5
107	5
108	7
109	63
110	335
111	74
112	5
124	2
125	132
126	180
127	14
139	4
153	1
154	637
155	63
156	5
