Mass Spectrum: Nonanedioic acid, dioctyl ester
Formula: C25H48O4
CAS: 2064-80-4
Molecular weight: 412
m/z	intensity
14	2
15	9
16	2
17	6
18	28
25	1
26	11
27	180
28	74
29	404
30	10
31	20
32	9
37	2
38	4
39	114
40	27
41	787
42	324
43	999
44	34
45	25
47	1
48	1
49	2
50	3
51	6
52	4
53	44
54	72
55	772
56	400
57	804
58	37
59	24
60	52
61	99
62	3
63	7
65	6
66	7
67	99
68	111
69	447
70	335
71	468
72	27
73	94
74	10
75	3
77	9
78	3
79	23
80	16
81	74
82	113
83	367
84	217
85	39
86	25
87	100
88	8
89	4
91	7
92	3
93	13
94	7
95	32
96	30
97	157
98	142
99	24
100	27
101	114
102	15
103	8
104	2
105	5
106	3
107	24
108	7
109	16
110	42
111	144
112	228
113	41
114	31
115	237
116	40
117	17
118	2
119	5
120	2
121	5
122	5
123	44
124	66
125	180
126	31
127	21
128	20
129	368
130	35
131	8
132	1
133	9
134	4
135	10
136	5
137	10
138	26
139	22
140	9
141	19
142	17
143	115
144	40
145	27
146	3
147	4
148	1
149	1
150	9
151	24
152	330
153	83
154	19
155	23
156	9
157	140
158	17
159	9
160	1
161	2
162	1
163	1
164	1
165	1
166	5
167	4
168	4
169	28
170	24
171	972
172	111
173	26
174	3
175	2
178	1
179	1
180	3
181	2
182	2
183	5
184	5
185	38
186	6
187	5
189	9
190	1
193	1
194	2
195	1
196	1
197	5
198	13
199	53
200	8
201	3
203	1
208	3
209	2
210	1
211	5
212	16
213	24
214	8
215	2
217	1
222	1
223	1
224	1
225	2
226	17
227	58
228	30
229	15
230	2
231	4
232	1
236	1
237	1
238	2
239	6
240	27
241	295
242	55
243	9
244	1
245	27
246	4
247	1
252	2
253	3
254	35
255	82
256	56
257	22
258	4
259	17
260	3
263	1
264	1
266	4
267	3
268	6
269	95
270	19
271	5
272	2
273	10
274	2
280	2
281	4
282	41
283	835
284	164
285	22
286	4
287	11
288	3
296	1
297	17
298	6
299	2
300	6
301	137
302	26
303	4
310	2
311	32
312	8
313	2
315	3
325	2
326	1
327	2
328	2
329	6
330	1
338	2
339	2
340	4
341	4
342	1
354	1
355	1
356	4
357	1
368	5
369	5
370	4
371	1
382	1
383	1
384	2
385	1
394	1
396	1
397	1
411	1
412	22
413	10
414	2
