Mass Spectrum: 1H-Azepine, 1-(phenylsulfonyl)-
Formula: C12H11NO2S
CAS: 20646-54-2
Molecular weight: 233
m/z	intensity
39	140
44	40
50	40
51	90
52	40
63	40
64	45
65	360
66	100
77	125
78	160
91	70
92	999
93	160
110	5
124	40
141	20
168	35
233	125
234	20
235	10
