Mass Spectrum: N-(4-Bromophenylsulfonyl)-1H-azepine
Formula: C12H10BrNO2S
CAS: 20646-55-3
Molecular weight: 311
m/z	intensity
38	50
39	376
40	20
41	39
50	108
51	30
63	70
64	50
65	760
66	60
74	49
75	129
76	140
92	999
93	49
155	59
157	49
