Mass Spectrum: 2,5-Cyclohexadien-1-one, 3,5-dihydroxy-4,4-dimethyl-
Formula: C8H10O3
CAS: 2065-00-1
Molecular weight: 154
m/z	intensity
41	330
42	786
43	138
44	11
45	7
46	1
49	3
50	13
51	17
52	6
53	32
54	11
55	61
56	42
57	7
58	2
59	39
60	1
61	1
62	2
63	3
64	1
65	9
66	7
67	41
68	13
69	151
70	999
71	82
72	4
73	1
77	3
79	3
80	2
81	2
82	0
83	17
84	213
85	21
86	5
93	1
95	2
97	41
98	4
108	1
109	1
110	0
111	70
112	113
113	9
125	3
126	13
127	0
139	1
140	1
154	280
155	26
156	2
