Mass Spectrum: Cyclobuta[1,2:3,4]dicyclopentene-1,4-dione, octahydro-, (3a.alpha.,3b.beta.,6a.beta.,6b.alpha.)-
Formula: C10H12O2
CAS: 2065-43-2
Molecular weight: 164
m/z	intensity
25	0
26	142
27	656
29	66
30	1
31	4
33	0
34	0
37	15
38	58
39	756
40	114
41	183
42	65
43	31
44	11
45	4
46	3
47	0
48	1
49	9
50	95
51	204
52	172
53	374
54	587
55	272
56	46
57	10
58	4
59	1
60	2
61	5
62	14
63	35
64	11
65	108
66	172
67	104
68	63
69	30
70	4
71	3
72	1
73	3
74	6
76	4
77	224
78	87
79	730
80	619
81	292
82	999
83	414
84	35
85	4
86	2
87	1
88	1
89	4
90	4
91	124
92	56
93	101
94	149
95	92
96	62
97	12
98	7
99	0
100	0
102	3
103	10
104	11
105	25
106	6
107	96
108	134
109	114
110	14
111	3
116	2
117	22
118	21
119	25
120	37
121	65
122	105
123	20
124	2
131	7
133	4
135	53
136	91
137	13
145	2
146	6
147	2
149	4
163	6
164	698
165	79
166	4
