Mass Spectrum: [1,1'-Bicyclohexyl]-3-ol
Formula: C12H22O
CAS: 20653-41-2
Molecular weight: 182
m/z	intensity
14	1
15	4
17	6
18	24
19	2
26	2
27	68
28	36
29	102
30	4
31	21
32	7
38	2
39	82
40	14
41	292
42	28
43	111
44	35
45	9
50	4
51	15
52	8
53	61
54	134
55	544
56	45
57	195
58	14
59	4
62	1
63	5
64	2
65	24
66	29
67	560
68	107
69	84
70	41
71	21
72	4
74	1
75	1
76	2
77	36
78	84
79	104
80	184
81	624
82	999
83	522
84	31
85	5
89	3
90	1
91	56
92	11
93	42
94	62
95	88
96	162
97	168
98	28
99	77
100	9
101	2
102	2
103	11
104	54
105	29
106	6
107	57
108	71
109	88
110	25
111	7
112	1
113	2
115	14
116	5
117	34
118	13
119	4
120	6
121	85
122	112
123	42
124	6
125	4
126	2
127	3
128	5
129	25
130	30
131	7
132	2
133	24
134	4
135	81
136	25
137	4
138	4
139	7
140	3
141	1
142	1
143	30
144	4
147	1
149	38
150	5
151	1
153	1
162	1
163	7
164	504
165	71
166	5
181	1
182	2
