Mass Spectrum: N,N-Dimethyl-3-methoxypropylamine
Formula: C6H15NO
CAS: 20650-07-1
Molecular weight: 117
m/z	intensity
30	29
31	4
39	10
40	3
41	27
42	69
43	18
44	31
45	43
55	6
56	12
57	20
58	999
59	41
67	2
68	3
69	3
70	8
71	8
72	5
78	9
79	1
87	2
102	14
116	1
117	106
118	6
