Mass Spectrum: 1,2,3-Butatriene, 1-chloro-
Formula: C4H3Cl
CAS: 20658-21-3
Molecular weight: 86
m/z	intensity
49	21
50	309
51	999
52	44
60	25
62	13
84	8
85	27
86	872
87	65
88	292
89	17
