Mass Spectrum: C2H5C(CH3)2COCH3
Formula: C7H14O
CAS: 20669-04-9
Molecular weight: 114
m/z	intensity
12	0
13	0
14	12
15	119
16	3
17	8
18	34
19	0
20	1
26	12
27	157
28	90
29	194
30	3
31	1
32	20
37	1
38	7
39	111
40	15
41	187
42	55
43	999
44	40
45	3
50	4
51	6
52	1
53	18
54	3
55	105
56	6
57	10
58	1
59	0
63	0
65	1
67	3
68	0
69	6
70	96
71	288
72	15
73	0
79	0
81	1
83	0
84	0
85	3
86	66
87	3
99	4
114	10
115	1
