Mass Spectrum: Oxazole, 4-hexyl-2,5-dimethyl-
Formula: C11H19NO
CAS: 20662-86-6
Molecular weight: 181
m/z	intensity
28	13
30	13
39	25
41	61
42	198
43	628
44	25
55	25
68	25
69	97
70	32
80	22
81	15
82	15
95	13
96	13
106	13
110	527
111	999
112	73
122	13
123	13
124	73
125	13
138	25
152	17
166	17
181	49
182	13
