Mass Spectrum: Oxazole, 5-bromo-2-methyl-4-phenyl-
Formula: C10H8BrNO
CAS: 20662-93-5
Molecular weight: 237
m/z	intensity
15	31
18	66
25	22
26	77
27	77
37	22
38	33
39	178
41	25
43	70
44	44
50	88
51	114
52	33
54	11
55	16
60	11
61	46
62	140
63	317
64	31
65	99
74	27
75	31
76	88
77	158
78	14
79	18
85	14
86	22
87	44
88	66
89	999
90	86
102	27
103	210
104	464
105	88
106	22
108	14
118	66
122	14
128	22
130	272
131	35
158	31
168	219
169	27
170	206
171	18
208	35
209	385
210	66
211	392
212	40
237	153
238	22
239	149
240	22
