Mass Spectrum: Methyl 3,4,6-tri-O-acetyl-2-O-methyl-.alpha.-D-mannopyranoside
Formula: C14H22O9
CAS: 20672-76-8
Molecular weight: 334
m/z	intensity
41	99
42	32
43	999
44	52
45	39
53	20
55	47
57	52
58	15
59	52
61	36
69	78
70	159
71	99
73	78
74	999
75	99
81	149
82	38
83	20
84	329
85	119
86	18
87	339
88	259
89	31
95	18
97	68
98	25
99	99
100	36
101	55
102	19
103	129
104	8
109	40
111	36
112	679
113	479
114	36
115	63
116	429
117	68
127	52
128	10
129	349
130	52
131	15
139	20
140	73
141	99
142	8
143	12
145	99
146	8
154	13
155	63
156	7
157	10
159	31
169	22
171	15
172	119
173	20
182	16
183	73
187	10
189	8
201	21
211	9
214	63
215	47
231	8
261	4
303	26
304	5
