Mass Spectrum: Methyl cyclohexanepropionate
Formula: C10H18O2
CAS: 20681-51-0
Molecular weight: 170
m/z	intensity
26	7
27	151
28	42
29	189
30	7
31	24
33	4
36	4
38	6
39	207
40	32
41	540
42	56
43	385
44	23
45	24
50	6
51	22
52	13
53	100
54	108
55	907
56	73
57	357
58	20
59	114
60	10
61	8
63	4
65	27
66	20
67	249
68	66
69	140
70	13
71	18
72	9
73	5
74	999
75	240
76	15
77	38
78	15
79	111
80	25
81	183
82	43
83	127
84	19
85	1
86	9
87	999
88	202
89	20
91	31
92	18
93	54
94	79
95	116
96	281
97	914
98	76
99	6
105	7
107	4
108	7
109	30
110	23
111	7
113	11
114	4
115	4
119	11
120	30
121	124
122	15
123	6
127	4
136	4
137	12
138	40
139	110
140	10
141	113
142	12
170	6
171	0
