Mass Spectrum: Salicin, 3',4',6'-triacetate 2'-benzoate .alpha.-salicylate acetate
Formula: C35H34O14
CAS: 20688-98-6
Molecular weight: 678
m/z	intensity
43	457
77	127
78	56
92	68
105	999
106	109
107	71
109	94
120	56
121	98
169	127
231	7
333	4
393	109
394	22
