Mass Spectrum: Methylenebis-(thioglycollic acid)
Formula: C5H8O4S2
CAS: 2068-24-8
Molecular weight: 196
m/z	intensity
12	2
13	6
14	33
15	18
16	3
17	9
18	32
25	1
26	6
27	48
28	32
29	36
30	6
31	161
32	13
33	9
34	15
35	13
36	4
37	1
38	1
39	2
40	1
41	9
42	104
43	53
44	58
45	572
46	334
47	764
48	30
49	35
53	2
54	1
55	9
56	4
57	11
58	27
59	94
60	164
61	55
62	4
63	24
64	9
65	1
67	3
68	2
69	9
70	3
71	7
72	4
73	6
74	49
75	26
76	15
77	999
78	51
79	123
80	8
81	9
82	3
83	5
84	3
85	4
86	5
87	11
88	5
89	4
90	3
91	43
92	60
93	21
94	4
95	3
96	2
97	4
98	2
99	2
100	1
101	2
102	3
103	8
104	49
105	588
106	31
107	34
108	2
109	19
110	1
111	2
112	1
113	1
114	2
119	223
120	11
121	21
122	1
123	2
125	1
127	1
129	1
132	4
134	13
135	2
136	6
137	753
138	36
139	70
140	3
141	2
145	1
148	1
149	1
150	3
151	11
152	2
153	2
161	3
162	1
163	1
165	1
173	1
178	138
179	11
180	12
181	1
195	1
196	227
197	16
198	22
199	1
