Mass Spectrum: Salicin, 2',3',4',6'-tetraacetate .alpha.-salicylate acetate
Formula: C30H32O14
CAS: 20688-97-5
Molecular weight: 616
m/z	intensity
43	999
65	35
69	24
73	17
77	30
78	105
79	23
81	62
85	36
92	50
93	23
97	71
98	21
99	23
103	35
106	56
107	162
109	419
110	38
115	42
121	61
122	186
123	23
127	153
139	71
145	49
169	578
170	61
187	17
211	24
229	29
271	30
289	8
331	191
332	30
333	6
