Mass Spectrum: Salicin, 2',3',4'-triacetate 6'-benzoate .alpha.-salicylate acetate
Formula: C35H34O14
CAS: 20689-01-4
Molecular weight: 678
m/z	intensity
43	497
77	63
78	40
105	999
106	122
107	76
109	96
120	30
121	129
127	40
169	63
231	258
232	40
333	2
393	152
394	33
