Mass Spectrum: 3-Hexen-2-one, 3,4-dimethyl-, (Z)-
Formula: C8H14O
CAS: 20685-45-4
Molecular weight: 126
m/z	intensity
13	6
14	52
15	230
16	10
17	7
18	25
19	1
24	1
25	4
26	49
27	369
28	114
29	279
30	7
31	4
32	1
33	0
34	0
35	2
36	5
37	12
38	29
39	292
40	51
41	564
42	71
43	999
44	53
45	6
46	0
47	0
48	1
49	5
50	39
51	70
52	33
53	121
54	34
55	741
56	56
57	186
58	11
59	2
60	0
61	4
62	8
63	17
64	5
65	33
66	14
67	100
68	16
69	90
70	15
71	9
72	19
73	2
74	3
75	3
76	2
77	58
78	15
79	34
80	7
81	37
82	23
83	351
84	41
85	4
86	0
87	0
89	2
90	1
91	63
92	9
93	88
94	8
95	18
96	5
97	83
98	8
99	2
100	0
102	0
103	2
104	1
105	12
106	7
107	12
108	53
109	42
110	11
111	146
112	11
113	1
115	1
116	0
117	2
118	0
119	5
120	1
121	1
122	3
123	27
124	27
125	5
126	115
127	10
128	1
