Mass Spectrum: Benzeneacetic acid, .alpha.-hydroxy-, methyl ester, (R)-
Formula: C9H10O3
CAS: 20698-91-3
Molecular weight: 166
m/z	intensity
14	1
15	44
16	0
18	0
26	3
27	23
28	6
29	43
30	5
31	7
32	2
33	2
36	4
37	3
38	10
39	32
40	3
41	1
43	1
44	4
45	3
49	2
50	34
51	91
52	24
53	20
54	1
55	2
59	14
61	3
62	8
63	18
64	3
65	3
66	1
73	1
74	8
75	5
76	1
77	305
78	43
79	462
80	27
81	0
86	1
87	1
89	15
90	10
91	5
92	1
94	1
105	85
106	1
107	999
108	62
109	4
118	4
121	2
149	2
166	78
167	7
168	0
