Mass Spectrum: 2-Methoxy-5-methyl-4-pyrimidinamine
Formula: C6H9N3O
CAS: 20696-83-7
Molecular weight: 139
m/z	intensity
26	44
27	87
29	63
38	65
39	220
40	157
41	275
42	264
43	231
52	94
53	66
54	182
55	137
56	46
58	128
65	46
66	209
67	352
68	129
69	484
70	37
81	58
82	549
83	78
92	57
93	58
94	130
97	38
108	136
109	999
110	188
116	49
138	440
139	966
140	79
