Mass Spectrum: 4-Piperidinemethanol, 1-methyl-
Formula: C7H15NO
CAS: 20691-89-8
Molecular weight: 129
m/z	intensity
39	164
41	218
42	738
43	607
44	999
45	150
55	354
57	164
58	160
70	272
71	124
98	222
110	68
112	96
128	492
129	346
