Mass Spectrum: 2-Hexanone, 3-methyl-4-methylene-
Formula: C8H14O
CAS: 20690-71-5
Molecular weight: 126
m/z	intensity
27	78
28	9
29	48
30	1
35	1
37	3
38	2
39	55
40	8
41	149
42	13
43	999
44	19
45	4
50	7
51	11
52	4
53	30
54	9
55	264
56	19
57	1
58	2
62	1
63	2
64	0
65	3
66	2
67	25
68	4
69	43
70	2
71	3
72	2
74	1
75	2
76	1
77	5
79	5
80	1
81	4
82	9
83	109
84	21
85	2
89	0
91	2
93	3
94	1
95	2
96	0
97	16
98	3
99	0
108	15
109	3
111	70
112	5
115	0
117	0
123	0
124	2
125	2
126	11
127	1
