Mass Spectrum: .beta.-D-Erythro-Hex-2-enopyranoside, methyl 2,3-dideoxy-, diacetate
Formula: C11H16O6
CAS: 20701-48-8
Molecular weight: 244
m/z	intensity
38	5
39	57
40	10
41	77
42	20
43	760
44	35
45	27
50	2
51	7
52	5
53	35
54	12
55	37
56	10
57	32
58	5
59	15
60	5
61	12
65	10
66	5
67	7
68	20
69	102
70	15
71	162
72	10
73	17
74	2
75	12
77	2
79	2
80	2
81	85
82	32
83	50
84	10
85	42
86	5
87	47
88	2
93	7
94	7
95	5
96	2
97	85
98	17
99	20
100	999
101	42
102	7
103	10
109	22
110	42
111	255
112	22
113	15
114	5
115	7
116	5
117	2
124	17
125	12
127	5
128	5
129	125
130	7
131	2
139	30
140	5
141	15
142	150
143	5
152	5
153	45
154	7
171	35
172	5
183	10
184	5
185	15
186	2
203	2
213	20
214	3
215	0
220	0
221	0
222	0
223	0
224	0
225	0
226	0
227	0
240	0
241	0
242	0
243	0
244	1
245	0
