Mass Spectrum: 2-Amino-2-methylpropionic acid, isopropylamide
Formula: C7H16N2O
CAS: 207000-27-9
Molecular weight: 144
m/z	intensity
37	14
39	19
40	67
41	90
42	94
43	78
44	150
47	5
50	15
53	5
55	7
58	999
59	561
66	12
69	86
70	112
71	31
72	68
78	17
83	15
84	62
86	121
87	642
88	16
96	7
98	49
99	40
107	6
118	21
120	7
124	14
127	135
131	14
137	9
142	9
144	634
145	14
