Mass Spectrum: Benzo[b][1,4]diazepine-2(1H,3H)-one, 4-trifluoromethyl-
Formula: C10H7F3N2O
CAS: 2070-87-3
Molecular weight: 228
m/z	intensity
37	89
38	173
39	205
40	26
41	164
42	999
43	42
44	20
45	26
46	6
47	3
49	21
50	246
51	354
52	336
53	83
54	15
55	7
56	22
57	17
58	2
62	71
63	138
64	128
65	65
66	11
67	23
69	782
70	11
71	6
72	1
73	10
74	47
75	295
76	211
77	99
78	148
79	12
80	3
81	1
83	1
84	0
89	17
90	74
91	35
92	9
93	9
94	10
95	18
96	1
98	0
101	7
102	18
103	31
104	35
105	61
106	5
108	2
109	0
115	2
116	19
117	6
118	3
119	0
120	1
121	3
122	2
125	0
126	3
127	0
129	7
130	14
131	87
132	7
133	1
134	2
136	3
137	0
139	4
140	1
144	0
145	0
146	1
147	2
151	0
152	1
153	1
157	0
158	3
159	22
160	2
161	0
166	87
167	8
178	0
179	4
180	2
181	3
182	0
186	160
187	17
189	1
199	3
200	3
201	0
209	9
210	0
211	0
228	27
229	1
