Mass Spectrum: N-Formyl-2-amino-2-methylpropanal
Formula: C5H9NO2
CAS: 207000-26-8
Molecular weight: 115
m/z	intensity
40	23
41	173
42	255
43	134
44	177
45	16
46	31
55	10
56	18
57	83
58	731
59	201
60	10
69	40
70	85
72	236
73	8
83	7
84	21
86	999
87	775
88	42
98	10
100	18
102	44
115	45
116	31
