Mass Spectrum: 5-Isoxazolecarboxylic acid, 3-chloro-
Formula: C4H2ClNO3
CAS: 20724-56-5
Molecular weight: 147
m/z	intensity
35	36
36	33
37	110
38	330
39	720
40	261
41	136
42	82
44	72
45	999
46	7
47	130
55	15
62	17
67	511
68	124
69	59
73	13
74	584
75	32
76	196
77	10
102	302
103	29
104	99
105	9
147	317
148	30
149	107
150	9
