Mass Spectrum: 1-(4-Heptyloxybenzylidene)-4-(4-isopropoxybenzyl)thiosemicarbazide
Formula: C25H35N3O2S
CAS: 207290-53-7
Molecular weight: 441
m/z	intensity
33	3
34	4
36	7
38	112
39	128
41	665
43	999
44	19
45	5
46	2
47	2
48	1
50	11
51	75
52	38
53	22
55	80
56	216
57	142
58	11
60	69
62	18
63	32
64	30
65	87
66	22
67	20
68	9
69	23
70	9
71	7
72	3
73	1
74	4
75	9
76	41
77	175
78	86
79	30
80	14
81	9
82	4
83	4
84	2
85	1
87	2
89	17
90	39
91	24
92	22
93	69
94	48
95	92
96	7
97	5
98	4
102	7
103	7
104	16
105	57
107	897
108	72
109	10
110	3
111	2
112	1
115	2
116	3
117	4
118	10
119	88
120	296
121	562
122	572
123	63
124	5
125	13
126	5
127	2
128	2
130	2
131	3
132	11
133	15
134	15
135	50
136	22
137	18
138	17
139	23
140	3
141	1
144	1
145	4
146	11
147	141
148	23
149	83
150	12
151	5
152	6
153	2
154	3
159	2
161	36
162	34
163	57
164	114
165	27
166	4
167	3
171	1
173	1
174	1
175	3
177	4
178	47
179	92
180	44
181	70
182	10
183	4
187	2
189	148
190	19
191	3
192	1
193	1
194	2
196	1
205	5
206	3
207	3
209	1
211	1
217	6
218	23
219	109
220	323
221	125
222	188
223	201
224	46
225	12
226	2
233	3
234	2
235	2
236	1
252	1
276	12
277	4
278	1
292	1
299	1
300	1
366	1
398	3
399	1
439	2
441	5
442	2
