Mass Spectrum: 6-Nonynoic acid, methyl ester
Formula: C10H16O2
CAS: 20731-17-3
Molecular weight: 168
m/z	intensity
25	1
26	10
27	156
28	193
29	150
30	6
31	26
32	22
33	5
35	1
36	5
37	1
38	10
39	275
40	81
41	162
42	87
43	443
44	26
45	51
46	8
47	4
48	1
49	1
50	15
51	60
52	53
53	187
54	48
55	325
56	26
57	58
58	12
59	375
60	13
61	5
62	4
63	20
64	6
65	156
66	69
67	643
68	143
69	59
70	7
71	40
72	10
73	6
74	206
75	20
76	3
77	193
78	56
79	999
80	143
81	162
82	40
83	32
84	45
85	18
86	2
87	46
88	11
89	3
90	2
91	150
92	25
93	293
94	887
95	231
96	20
97	38
98	19
99	5
100	6
101	16
102	2
103	6
104	1
105	10
106	3
107	51
108	287
109	131
110	13
111	33
112	6
113	15
114	6
115	3
116	1
117	12
118	11
119	23
120	3
121	66
122	8
123	3
124	1
125	18
126	21
127	5
128	2
129	1
133	1
134	1
135	21
136	40
137	33
138	5
139	10
140	3
141	3
142	1
143	1
144	1
145	1
146	1
147	1
148	1
149	1
150	1
151	1
152	1
153	14
154	2
155	1
156	1
157	1
