Mass Spectrum: Thiophene, 3-(methylthio)-
Formula: C5H6S2
CAS: 20731-74-2
Molecular weight: 130
m/z	intensity
22	11
28	9
29	63
33	8
35	3
36	34
37	18
38	42
39	152
40	4
41	8
42	58
43	43
44	274
45	487
46	40
47	45
48	11
49	15
50	21
51	20
53	26
54	6
55	9
56	8
57	40
58	83
60	13
61	2
62	0
63	1
64	7
65	50
66	18
68	46
69	144
70	40
71	388
72	3
79	8
80	2
81	42
82	60
83	16
84	264
85	121
86	19
87	3
88	23
89	90
90	7
92	3
95	2
96	14
97	312
98	21
99	17
100	4
103	5
113	2
114	17
115	465
116	20
117	34
129	55
130	999
131	55
132	94
133	5
