Mass Spectrum: 7-Nonynoic acid, methyl ester
Formula: C10H16O2
CAS: 20731-18-4
Molecular weight: 168
m/z	intensity
14	60
15	220
16	20
17	20
18	100
26	30
27	380
29	160
31	30
32	310
38	30
39	360
40	70
41	450
42	80
43	250
44	20
45	40
50	50
51	120
52	80
53	380
54	200
55	520
56	40
57	40
58	10
59	300
60	20
63	30
65	80
66	70
67	360
68	530
69	70
70	10
71	40
72	10
73	140
74	320
75	30
77	100
78	30
79	540
80	80
81	190
82	30
83	50
84	10
85	30
87	90
88	10
91	90
92	40
93	190
94	999
95	460
96	30
97	20
98	10
101	20
105	10
107	40
108	130
109	130
110	10
113	20
114	10
115	30
121	10
136	50
137	20
139	10
168	2
