Mass Spectrum: 4-Nonynoic acid, methyl ester
Formula: C10H16O2
CAS: 20731-15-1
Molecular weight: 168
m/z	intensity
14	20
15	260
18	10
26	30
27	380
28	50
29	150
31	20
37	10
38	50
39	530
40	130
41	500
42	80
43	240
44	10
45	40
50	80
51	210
52	220
53	270
54	60
55	310
56	30
57	30
59	360
60	10
61	10
62	30
63	100
64	30
65	330
66	250
67	999
68	90
69	70
70	20
71	30
72	40
73	10
74	110
75	20
77	250
78	60
79	500
80	90
81	170
82	50
83	100
84	490
85	60
86	10
87	10
91	100
92	20
93	160
94	90
95	100
96	20
97	430
98	60
107	20
108	40
109	30
111	110
112	30
120	10
125	80
126	110
127	10
137	20
140	20
141	10
153	30
167	3
168	2
