Mass Spectrum: 5-Nonynoic acid, methyl ester
Formula: C10H16O2
CAS: 20731-16-2
Molecular weight: 168
m/z	intensity
15	173
17	3
18	56
26	28
27	298
28	56
29	147
38	15
39	320
40	66
41	343
42	66
43	698
44	37
45	47
50	56
51	141
52	211
53	254
54	37
55	386
56	28
57	56
59	211
62	5
63	37
64	5
65	147
66	66
67	537
68	56
69	37
71	28
72	18
73	5
74	745
75	56
77	292
78	66
79	999
80	192
81	192
82	28
83	37
84	94
85	28
87	37
91	113
93	296
94	415
95	343
96	22
97	518
98	66
99	18
105	5
107	75
108	147
109	94
110	5
111	147
119	18
121	56
125	22
126	518
127	47
135	17
136	37
137	147
138	5
139	94
140	66
141	5
153	18
168	103
