Mass Spectrum: 4-Nonenoic acid, methyl ester
Formula: C10H18O2
CAS: 20731-19-5
Molecular weight: 170
m/z	intensity
25	2
26	31
27	521
29	287
30	9
31	35
33	5
37	7
38	19
39	396
40	66
41	832
42	138
43	448
44	18
45	40
46	4
49	2
50	14
51	42
52	25
53	161
54	505
55	981
56	73
57	56
58	6
59	356
60	10
61	5
62	2
63	8
65	60
66	30
67	474
68	166
69	213
70	35
71	66
72	30
73	32
74	999
75	73
76	6
77	30
78	7
79	56
80	27
81	312
82	79
83	51
84	102
85	305
86	19
87	128
88	25
91	10
92	4
93	15
94	41
95	94
96	518
97	170
98	15
99	20
100	6
101	28
102	4
105	5
107	2
109	50
110	62
111	11
112	3
113	41
114	25
115	14
120	10
121	31
122	2
123	30
124	3
126	4
127	33
128	15
129	2
137	6
138	227
139	90
140	7
141	9
170	19
171	3
