Mass Spectrum: Pyrazine-2-carboxylic acid, 3-hydroxy-
Formula: C5H4N2O3
CAS: 20737-42-2
Molecular weight: 140
m/z	intensity
37	1
38	96
39	202
40	69
41	353
42	262
43	17
44	61
45	150
46	18
48	8
50	9
51	54
52	88
53	29
54	56
55	14
56	18
57	16
58	5
60	1
64	6
65	14
66	54
67	330
68	513
69	102
70	9
71	6
72	4
73	2
76	1
77	9
78	25
79	5
80	5
81	2
82	3
83	4
84	3
85	3
86	38
89	1
91	1
94	701
95	108
96	999
97	48
98	4
109	1
111	3
112	18
113	1
121	1
122	125
123	11
124	2
125	12
127	3
138	1
140	540
141	33
142	4
