Mass Spectrum: Valerophenone, 4-methyl-2-phenyl-
Formula: C18H20O
CAS: 20736-42-9
Molecular weight: 252
m/z	intensity
34	0
36	0
39	17
40	10
41	40
43	52
44	3
50	7
51	36
52	5
53	3
54	0
55	3
56	0
57	0
62	1
63	4
65	13
66	0
67	0
68	0
69	2
70	0
74	1
75	2
77	187
78	24
79	9
80	0
82	0
83	0
87	0
88	0
89	6
90	10
91	203
92	15
93	0
101	1
102	4
103	18
105	999
106	68
107	4
114	0
115	9
116	3
117	4
118	2
119	0
126	0
127	1
128	2
129	2
131	10
132	0
139	0
141	0
143	0
145	0
146	12
147	6
148	0
150	0
152	6
153	0
163	0
164	1
165	7
166	2
167	3
168	0
176	0
177	0
178	1
179	0
180	0
181	0
189	0
191	0
193	0
194	1
196	84
197	13
198	1
202	0
207	0
209	2
210	0
215	0
228	0
235	0
237	1
250	0
251	0
