Mass Spectrum: 6-Nonenoic acid, methyl ester
Formula: C10H18O2
CAS: 20731-21-9
Molecular weight: 170
m/z	intensity
14	10
15	220
18	20
26	20
27	230
28	80
29	190
30	10
31	30
38	20
39	410
40	70
41	930
42	170
43	470
44	50
45	330
46	10
48	10
50	20
51	50
52	30
53	190
54	280
55	870
56	110
57	130
58	40
59	460
60	20
63	10
65	60
66	30
67	430
68	180
69	360
70	60
71	80
72	30
73	110
74	999
75	80
77	50
78	10
79	170
80	50
81	390
82	160
83	90
84	180
85	50
87	270
88	50
91	30
92	10
93	50
94	90
95	150
96	410
97	140
98	20
99	10
100	10
101	30
109	50
110	50
111	10
113	20
114	10
115	10
117	20
121	20
123	40
138	120
139	50
170	5
