Mass Spectrum: Glucopyranose, 2-deoxy-2-(1-pyrrolidinyl)-, 1,3,4,6-tetraacetate, .alpha.-D-
Formula: C18H27NO9
CAS: 20744-54-1
Molecular weight: 401
m/z	intensity
41	115
42	147
43	795
44	63
45	95
46	13
50	13
51	15
53	23
54	31
55	119
56	63
57	53
58	15
60	53
61	15
65	15
66	13
67	39
68	45
69	83
70	186
71	45
72	27
73	35
74	11
77	19
78	11
79	13
80	39
81	43
82	33
83	163
84	59
85	19
91	11
92	8
93	9
94	15
95	19
96	51
97	47
98	35
99	19
100	55
101	39
103	11
104	8
105	19
106	19
107	19
108	15
109	35
110	393
111	79
112	371
113	999
114	133
115	39
118	11
120	19
121	11
122	43
123	15
124	35
125	23
126	79
127	23
128	33
129	15
130	35
134	35
135	13
136	39
137	13
138	39
139	27
140	19
141	19
142	39
143	19
146	13
148	11
149	15
150	53
151	15
152	123
153	13
154	33
155	389
156	73
157	19
162	9
163	8
164	13
165	6
166	19
167	13
168	79
169	530
170	53
171	9
176	11
178	9
179	11
180	35
181	11
182	23
184	19
190	13
194	133
195	13
196	53
197	8
198	9
210	65
211	13
212	4
214	8
218	15
222	89
223	19
224	8
226	19
231	4
238	13
239	11
240	19
253	13
254	75
255	11
256	19
260	13
267	2
270	11
281	13
282	91
283	13
298	39
299	19
328	4
338	2
341	89
342	103
343	23
358	15
359	4
396	13
401	39
402	4
