Mass Spectrum: Hexanoic acid, 2-ethyl-, hexyl ester
Formula: C14H28O2
CAS: 20748-87-2
Molecular weight: 228
m/z	intensity
27	191
29	352
39	84
40	23
41	530
42	172
43	852
44	55
45	28
53	30
54	18
55	359
56	371
57	999
58	44
59	16
67	16
68	8
69	128
70	52
71	22
73	208
74	13
83	38
84	403
85	110
87	101
88	488
89	211
90	11
97	27
98	22
99	138
100	10
101	79
102	8
103	23
115	69
116	52
117	38
127	198
128	20
129	57
144	33
145	750
146	64
157	15
171	5
172	67
173	10
185	5
200	16
228	3
