Mass Spectrum: 2-Octanone, (2,4-dinitrophenyl)hydrazone
Formula: C14H20N4O4
CAS: 2074-06-8
Molecular weight: 308
m/z	intensity
14	1
15	4
26	3
27	47
28	53
29	96
30	71
31	1
37	3
38	11
39	64
40	11
41	321
42	171
43	481
44	18
45	4
46	1
50	13
51	54
52	33
53	25
54	17
55	256
56	38
57	78
58	14
59	7
61	5
62	26
63	79
64	45
65	26
66	12
67	29
68	45
69	457
70	40
71	10
72	4
73	2
74	9
75	48
76	40
77	70
78	80
79	100
80	19
81	31
82	25
83	31
84	7
85	6
86	1
87	2
88	7
89	25
90	37
91	45
92	51
93	22
94	9
95	12
96	11
97	12
98	3
99	1
101	1
102	6
103	52
104	90
105	33
106	21
107	12
108	7
109	30
110	85
111	999
112	88
113	4
115	16
116	35
117	53
118	19
119	18
120	25
121	7
122	81
123	9
124	5
125	3
126	9
127	5
128	7
129	12
130	15
131	25
132	26
133	23
134	9
135	24
136	10
137	9
138	9
139	2
141	1
142	2
143	6
144	14
145	26
146	12
147	7
148	7
149	87
150	47
151	11
152	80
153	15
154	3
155	2
156	3
157	6
158	9
159	6
160	4
161	52
162	18
163	21
164	13
165	45
166	17
167	10
168	5
169	1
170	4
171	8
172	4
173	8
174	3
175	8
176	7
177	25
178	306
179	33
180	165
181	94
182	11
183	26
184	9
185	4
186	3
187	2
188	2
189	4
190	17
191	61
192	15
193	5
194	3
195	1
196	32
197	5
198	66
199	8
200	3
201	2
202	3
203	12
204	7
205	9
206	6
207	44
208	8
209	1
210	111
211	13
212	2
213	1
214	1
215	2
216	9
217	19
218	7
219	25
220	35
221	15
222	3
223	2
224	2
225	1
227	5
228	1
229	7
230	4
231	6
232	3
233	5
234	2
235	1
237	8
238	128
239	14
240	2
243	2
244	2
245	6
246	2
247	1
248	3
249	2
250	1
251	13
252	3
258	1
259	1
260	1
261	2
262	1
265	5
266	1
273	31
274	7
275	5
276	3
277	1
278	7
279	4
280	2
289	1
290	1
291	2
292	6
293	5
307	9
308	348
309	88
310	11
311	1
