Mass Spectrum: Methylcarbamothioic acid, O-isopropyl ester
Formula: C5H11NOS
CAS: 20753-31-5
Molecular weight: 133
m/z	intensity
27	140
28	110
29	34
30	240
39	130
40	31
41	270
42	130
43	280
47	37
58	999
60	55
61	26
62	20
74	300
75	64
76	39
91	390
92	210
98	25
133	590
134	40
135	29
