Mass Spectrum: 2-Benzoyl-6-(thiophen-2-yl)thieno[2,3-b]pyridin-3-amine
Formula: C18H12N2OS2
CAS: 207511-82-8
Molecular weight: 336
m/z	intensity
37	3
38	18
39	90
40	14
41	14
42	3
43	12
45	217
46	6
47	8
50	99
51	404
52	79
53	18
55	10
57	30
58	37
59	4
60	6
61	4
62	21
63	52
64	19
65	22
66	5
67	4
68	7
69	105
70	24
71	23
72	17
73	7
74	26
75	39
76	27
77	999
78	89
79	15
80	2
81	10
82	25
83	13
84	17
85	1
86	6
87	14
88	17
89	44
90	10
91	5
93	24
94	16
95	16
96	25
97	10
98	3
99	6
100	8
101	10
102	13
103	18
105	262
106	25
107	3
108	30
109	12
110	6
111	2
112	4
113	4
114	22
115	13
116	20
117	4
119	2
120	22
121	39
122	10
123	4
126	5
127	16
128	5
129	3
132	5
133	22
134	12
135	3
138	3
139	1
140	4
141	4
142	8
143	6
145	12
146	10
147	7
148	1
151	2
153	3
154	3
155	5
158	6
159	21
160	25
161	3
163	1
166	1
168	12
169	4
170	8
171	8
172	10
173	1
175	3
177	8
182	1
185	15
186	7
187	44
188	7
197	5
198	10
200	2
202	1
203	1
204	58
205	5
206	2
229	10
230	5
231	65
232	10
233	4
242	1
243	1
258	4
259	21
260	1
278	2
290	3
291	1
319	1
320	1
335	179
336	138
337	40
338	12
340	1
