Mass Spectrum: Oxazole, 5-bromo-4-phenyl-
Formula: C9H6BrNO
CAS: 20756-97-2
Molecular weight: 223
m/z	intensity
37	60
38	70
39	230
40	20
41	80
50	120
51	110
52	10
61	80
62	210
63	420
64	40
77	80
88	100
89	999
90	80
116	360
117	60
168	100
169	10
170	90
171	10
195	530
196	60
197	520
198	50
223	190
224	20
225	190
226	20
