Mass Spectrum: 3,4-Dihydro-4-hydroxy-3-methyl-6-phenyl-1,2,4-triazine
Formula: C10H11N3O
CAS: 207601-71-6
Molecular weight: 189
m/z	intensity
41	35
42	77
43	88
44	85
50	73
51	161
52	43
54	4
56	6
58	19
59	28
61	5
62	34
63	93
64	22
65	29
66	4
69	39
70	2
71	2
72	4
74	51
75	66
76	166
77	330
78	34
86	4
87	12
88	21
89	145
90	22
91	61
92	4
95	3
98	8
99	4
100	3
101	21
102	999
103	347
104	519
105	103
114	16
115	51
116	368
117	86
118	68
119	64
120	10
121	3
127	3
128	27
129	28
130	51
131	25
132	7
142	6
143	90
144	46
145	124
146	65
147	20
151	2
156	35
157	6
158	86
159	118
160	11
169	12
170	17
171	249
172	264
173	63
174	44
181	6
187	100
188	9
189	447
190	52
191	6
