Mass Spectrum: .gamma.-Thionodecalactone
Formula: C10H18OS
CAS: 207669-70-3
Molecular weight: 186
m/z	intensity
41	738
42	182
43	358
44	21
45	176
46	16
47	40
48	3
49	7
50	7
51	26
52	16
53	130
54	301
55	999
56	292
57	222
58	72
59	44
60	56
61	54
62	6
63	13
64	3
65	39
66	20
67	249
68	185
69	599
70	110
71	182
72	69
73	73
74	23
75	16
76	80
77	39
78	16
79	96
80	23
81	232
82	99
83	264
84	99
85	289
86	20
87	46
88	14
89	33
90	7
91	24
92	6
93	63
94	14
95	116
96	40
97	133
98	33
99	14
100	16
101	59
102	17
103	17
104	3
105	13
106	7
107	50
108	37
109	64
110	73
111	82
112	11
113	16
114	7
115	43
116	34
117	16
118	3
119	13
120	3
121	3
122	3
123	26
124	13
125	13
126	6
127	6
128	20
129	33
130	13
131	6
132	3
133	6
134	26
135	145
136	20
137	9
139	19
140	3
141	6
142	13
143	13
144	6
145	3
146	3
148	3
150	3
151	3
152	13
153	285
154	33
155	6
157	16
158	6
159	3
161	3
163	3
164	3
166	3
167	3
168	6
169	3
171	3
173	3
174	3
175	3
176	3
177	3
180	3
182	3
183	3
184	3
186	153
187	19
188	9
