Mass Spectrum: 1-Aza-4-phosphacyclohexane, 1-butyl-
Formula: C8H18NP
CAS: 207689-15-4
Molecular weight: 159
m/z	intensity
26	3
27	54
28	35
29	101
30	35
31	0
33	2
34	0
37	0
38	0
39	19
40	5
41	68
42	322
43	87
44	37
45	38
46	20
47	7
48	4
51	1
52	0
53	3
54	21
55	27
56	50
57	58
58	22
59	32
60	63
61	24
62	5
63	0
65	0
67	2
68	6
69	6
70	39
71	12
72	7
73	24
74	24
75	14
76	3
77	0
78	0
80	1
81	1
82	4
83	1
84	82
85	6
86	14
87	13
88	223
89	10
90	2
96	1
97	0
98	49
99	3
100	23
101	5
102	15
103	13
104	2
105	0
110	0
111	0
112	9
113	0
114	10
115	5
116	999
117	55
118	2
125	0
126	0
128	0
129	0
130	14
131	3
132	2
142	1
143	0
144	5
145	0
146	1
156	0
157	0
158	21
159	416
160	36
161	1
