Mass Spectrum: .delta.-Thionodecalactone
Formula: C10H18OS
CAS: 207669-74-7
Molecular weight: 186
m/z	intensity
41	792
42	199
43	335
44	20
45	116
46	10
47	34
48	3
49	6
50	10
51	23
52	13
53	112
54	390
55	999
56	251
57	196
58	168
59	54
60	74
61	57
62	6
63	10
64	4
65	37
66	30
67	391
68	377
69	858
70	145
71	426
72	30
73	54
74	30
75	20
76	163
77	47
78	23
79	169
80	52
81	562
82	251
83	424
84	342
85	109
86	29
87	110
88	37
89	128
90	17
91	34
92	13
93	158
94	32
95	334
96	115
97	463
98	97
99	79
100	20
101	109
102	40
103	40
104	10
105	20
106	10
107	115
108	145
109	132
110	244
111	143
112	20
113	17
114	13
115	110
116	36
117	20
118	6
119	27
120	6
121	6
122	3
123	100
124	34
125	30
126	23
127	10
128	6
129	83
130	40
131	13
132	6
133	10
134	69
135	491
136	57
137	37
138	6
139	17
140	6
141	7
142	10
143	34
144	17
145	6
146	3
147	3
148	4
149	4
150	4
151	6
152	40
153	460
154	54
155	6
156	6
157	47
158	23
159	6
160	4
161	4
162	3
164	4
165	4
166	3
167	6
168	10
169	3
170	3
171	6
172	3
173	3
174	3
175	3
177	3
178	3
179	3
180	3
181	3
182	3
184	3
186	835
187	107
188	50
189	6
