Mass Spectrum: Amine, bis(2-phosphinoethyl)-
Formula: C4H13NP2
CAS: 207689-12-1
Molecular weight: 137
m/z	intensity
26	26
27	86
28	143
29	34
30	999
31	17
33	17
34	8
35	9
38	3
39	11
40	22
41	28
42	70
43	86
44	137
45	93
46	40
47	26
48	28
49	16
50	2
51	3
52	6
53	6
54	9
55	5
56	44
57	98
58	43
59	168
60	29
61	236
62	130
63	15
64	4
65	4
67	3
68	17
69	6
70	17
71	10
72	4
73	14
74	26
75	13
76	33
77	16
78	16
79	4
80	9
81	11
82	4
85	1
86	7
87	2
88	15
89	6
90	621
91	25
92	6
93	7
94	10
95	10
96	2
100	2
101	1
102	6
103	27
104	104
105	5
106	12
107	3
108	1
109	16
110	7
136	4
137	67
138	4
