Mass Spectrum: .beta.-D-Fructopyranose, pentaacetate
Formula: C16H22O11
CAS: 20764-61-8
Molecular weight: 390
m/z	intensity
41	160
42	450
43	999
44	480
45	590
46	20
50	20
51	170
52	170
53	40
54	30
55	140
56	30
57	70
58	30
59	10
60	290
61	100
67	20
68	380
69	520
70	70
71	100
72	30
73	430
74	40
81	60
82	20
83	30
84	30
85	190
86	410
87	30
89	20
91	20
95	10
96	20
97	530
98	90
99	30
100	50
101	470
102	70
103	260
104	10
108	10
109	240
110	50
111	10
113	100
114	30
115	660
116	50
119	10
125	50
126	999
127	240
128	860
129	60
130	10
131	30
132	30
139	50
143	10
144	60
145	140
146	70
155	20
156	10
157	380
158	20
168	210
169	240
170	710
171	50
172	10
173	20
185	20
186	140
187	30
191	10
202	10
211	170
212	20
215	20
228	70
229	20
233	40
245	20
246	20
270	10
271	10
275	100
276	10
287	2
288	14
289	4
317	6
318	2
330	4
331	28
332	4
333	2
347	2
