Mass Spectrum: trans-4-Methylaminorex
Formula: C10H12N2O
CAS: 2077-59-0
Molecular weight: 176
m/z	intensity
42	177
43	491
51	76
63	44
69	319
70	999
77	116
79	44
89	81
90	46
91	109
104	17
105	76
107	19
115	21
117	50
118	36
119	20
130	9
132	206
133	111
161	180
162	15
176	187
177	18
