Mass Spectrum: Bis(2-chlorophenylsufhonyl)methane
Formula: C13H10Cl2O4S2
CAS: 207853-67-6
Molecular weight: 364
m/z	intensity
11	2
17	3
18	28
27	10
36	2
38	17
39	69
44	77
45	83
48	7
49	11
50	232
51	151
61	22
62	17
63	101
64	50
65	13
69	26
70	7
73	85
74	107
75	662
76	99
77	64
78	10
79	16
81	5
84	13
85	80
86	2
87	47
88	2
89	104
90	18
95	8
96	23
99	84
101	14
108	36
109	2
111	999
112	98
113	355
114	22
115	14
125	803
126	69
127	296
128	20
131	136
133	45
139	2
141	997
142	88
143	394
144	35
145	27
157	4
159	173
160	5
161	57
173	151
175	429
176	31
177	149
207	33
281	6
329	66
331	23
364	8
366	2
