Mass Spectrum: 1,3-Cyclopentadiene, 5-[3-(dimethylamino)propyl]-
Formula: C10H17N
CAS: 207801-10-3
Molecular weight: 151
m/z	intensity
29	4
30	21
37	0
39	18
40	13
43	6
46	4
50	2
51	11
52	4
53	7
56	11
57	4
58	999
59	39
60	0
62	1
63	3
64	1
65	10
66	1
70	12
71	272
72	23
74	0
77	48
78	30
79	30
80	2
84	121
85	14
90	0
91	51
92	7
103	2
104	1
105	7
106	14
120	0
122	0
123	0
134	0
135	0
137	0
148	1
149	1
150	6
151	63
152	5
