Mass Spectrum: Bis(2,6-Dichlorophenylthio)methane
Formula: C13H8Cl4S2
CAS: 207853-69-8
Molecular weight: 368
m/z	intensity
18	7
35	5
36	11
37	15
38	18
39	24
45	999
46	69
47	54
48	4
49	11
50	37
51	28
57	5
58	10
60	3
61	20
62	39
63	71
64	4
69	109
70	7
71	10
72	9
73	40
74	52
75	107
76	11
77	30
79	27
80	3
81	40
82	27
83	10
84	33
85	21
86	13
87	10
89	5
91	4
92	7
93	15
94	5
95	8
96	4
97	18
98	4
99	10
103	12
105	15
106	25
107	91
108	21
109	80
110	20
111	73
112	34
113	18
114	9
115	3
116	5
117	3
118	4
119	15
120	38
121	58
122	6
123	15
124	4
125	4
131	3
133	20
134	2
135	12
137	3
142	163
143	25
144	67
145	15
146	9
147	10
148	4
149	3
153	3
155	103
156	83
157	41
158	30
159	28
160	4
161	15
177	36
178	8
179	25
180	4
181	6
182	4
187	19
188	8
189	22
190	4
191	788
192	76
193	525
194	46
195	100
196	8
197	3
217	2
252	2
254	3
333	36
334	8
335	47
336	8
337	19
338	3
339	3
368	111
369	22
370	163
371	23
372	84
373	12
374	23
375	3
376	3
