Mass Spectrum: 2,5-Dibromo-3,6-difluorobenzenesulfonyl chloride
Formula: C6HBr2ClF2O2S
CAS: 207853-66-5
Molecular weight: 368
m/z	intensity
12	13
16	81
17	15
18	22
25	10
28	8
31	404
32	104
34	7
35	83
36	120
37	111
38	21
41	6
44	19
45	14
48	532
49	34
50	35
51	15
55	71
56	132
57	19
60	51
61	654
62	162
63	36
64	486
65	9
66	18
67	25
68	101
69	31
71	12
72	22
73	51
74	44
75	38
77	8
79	240
80	219
81	160
82	24
83	16
86	50
87	83
91	70
92	297
93	99
94	15
95	88
96	92
98	15
99	154
100	10
104	16
105	10
106	18
110	128
111	999
112	324
113	29
115	17
117	13
122	11
123	10
124	11
128	10
129	19
130	14
131	39
134	23
135	42
136	37
137	37
139	16
140	44
141	26
142	40
143	22
145	16
146	130
147	21
148	63
149	10
152	11
153	22
154	15
155	10
159	51
160	13
161	47
162	7
166	10
168	17
170	8
171	19
172	14
173	14
178	20
180	16
190	573
191	121
192	589
193	97
194	15
210	22
212	27
213	15
215	18
222	18
224	16
225	77
226	13
227	108
228	1
229	25
257	24
259	40
261	20
269	292
270	71
271	626
272	20
273	287
274	45
275	5
285	16
287	25
289	54
291	56
293	18
304	158
306	432
307	34
308	259
309	23
310	66
319	11
333	259
335	567
336	47
337	301
338	24
339	12
348	20
350	37
352	42
354	24
368	309
370	769
371	60
372	540
373	53
374	115
