Mass Spectrum: 1-(4-Chlorobenzenesulfonyl)-3,3-dimethylbutan-2-one
Formula: C12H15ClO3S
CAS: 207974-06-9
Molecular weight: 274
m/z	intensity
14	5
15	18
16	1
17	1
18	3
26	4
27	56
28	18
29	200
30	4
36	1
37	2
38	7
39	90
40	16
41	303
42	47
43	47
44	1
45	8
46	0
48	1
49	2
50	55
51	30
52	2
53	9
54	2
55	22
56	0
57	999
58	40
59	1
61	4
62	3
63	10
64	3
65	4
67	3
69	13
70	36
71	5
73	8
74	21
75	130
76	27
77	7
79	3
81	3
82	1
83	5
84	3
85	16
86	1
87	6
89	9
90	2
95	2
96	1
99	10
100	1
101	2
105	2
108	3
109	1
111	137
112	21
113	44
114	7
115	2
125	62
126	5
127	31
128	7
129	4
130	2
131	7
133	3
139	1
141	1
142	1
147	2
153	3
155	1
159	14
160	2
161	5
175	54
176	6
177	37
178	3
179	8
190	61
191	25
192	24
193	9
194	2
217	13
218	2
219	8
221	1
232	41
233	6
234	15
235	1
246	1
274	1
276	0
