Mass Spectrum: 4-Bromo-2,5-difluorobenzenesulfonyl chloride
Formula: C6H2BrClF2O2S
CAS: 207974-14-9
Molecular weight: 290
m/z	intensity
16	5
18	7
35	37
36	44
37	57
38	30
48	179
49	24
50	53
51	21
55	14
56	88
57	31
60	16
61	192
62	372
63	135
64	212
65	12
66	9
67	10
68	108
69	49
72	22
73	12
75	38
79	37
80	58
81	200
82	22
83	7
86	28
87	41
88	12
91	12
92	99
93	106
94	13
96	11
97	24
99	47
100	39
101	29
104	6
110	17
111	111
112	999
113	225
114	31
127	13
128	11
129	14
131	20
132	29
135	26
137	19
141	15
143	15
144	47
145	36
146	11
147	46
148	6
149	13
161	9
176	8
179	61
181	60
191	345
192	181
193	308
194	162
195	10
207	191
208	20
209	183
210	17
224	25
226	52
228	41
239	18
241	22
255	936
256	80
257	842
258	79
259	47
290	309
291	30
292	405
293	40
294	131
