Mass Spectrum: 9-Oxa-bicyclo[3.3.1]nonane-2,6-dione
Formula: C8H10O3
CAS: 20797-79-9
Molecular weight: 154
m/z	intensity
26	47
27	256
29	322
30	16
31	34
37	15
38	39
39	257
40	80
41	514
42	256
43	148
44	51
45	18
50	19
51	26
52	14
53	47
54	99
55	509
56	165
57	173
58	30
59	7
60	6
62	6
63	9
64	5
65	17
66	20
67	60
68	93
69	999
70	243
71	61
72	11
73	8
74	6
75	6
76	5
77	25
78	9
79	54
80	35
81	79
82	89
83	362
84	174
85	241
86	33
87	10
89	5
91	20
92	7
93	7
94	171
95	389
96	48
97	146
98	310
99	38
100	12
103	8
104	6
105	7
107	17
108	28
109	32
110	56
111	61
112	207
113	46
114	6
120	6
125	42
126	240
127	29
133	5
135	6
136	39
137	5
153	17
154	487
155	74
156	11
