Mass Spectrum: 2-(1-Chloro-2,2,3-trimethylcyclopropyl)-1-ethynyl(trimethyl)silane
Formula: C11H19ClSi
CAS: 207920-44-3
Molecular weight: 214
m/z	intensity
33	1
35	2
36	11
37	4
39	142
40	24
41	172
43	462
44	35
45	117
46	7
47	4
49	7
50	12
51	40
53	122
54	19
55	69
56	13
57	85
58	30
59	140
60	19
61	19
63	120
65	162
66	41
67	160
68	26
69	52
70	12
71	14
73	654
74	76
75	30
77	81
78	61
79	130
80	18
81	50
82	19
83	64
84	7
85	14
86	3
87	5
88	2
89	18
91	280
93	999
94	87
95	324
96	31
97	69
98	6
99	6
100	2
101	4
103	46
105	167
106	41
107	53
108	8
109	24
110	4
111	2
113	3
114	1
115	7
117	123
118	17
119	90
120	25
121	172
122	23
123	28
124	4
125	2
126	0
127	5
128	2
129	12
130	3
131	9
132	3
133	12
135	48
136	7
137	6
138	0
139	1
140	6
141	7
142	3
143	11
144	2
145	12
146	2
147	18
148	3
149	12
150	2
151	7
152	1
153	1
154	0
155	3
157	51
158	7
159	23
160	4
161	17
163	99
164	15
165	5
166	0
168	0
169	2
170	2
171	7
172	2
173	2
174	0
177	1
178	14
179	30
180	5
181	1
183	0
185	0
186	0
199	189
200	33
201	60
202	9
203	2
212	2
214	162
215	27
216	54
217	8
218	2
