Mass Spectrum: (O-Dodecylphenoxy)acetic acid
Formula: C20H32O3
CAS: 20803-58-1
Molecular weight: 320
m/z	intensity
17	5
18	27
27	8
28	4
29	21
31	1
39	8
40	1
41	46
42	5
43	53
44	6
45	1
51	4
52	2
53	4
54	2
55	32
56	5
57	31
58	1
60	1
63	2
64	1
65	12
66	1
67	5
68	1
69	13
70	3
71	11
77	33
78	11
79	25
80	2
81	5
82	2
83	7
84	1
85	7
89	5
90	3
91	102
92	12
93	5
94	8
95	4
96	2
97	6
98	1
99	1
102	1
103	9
104	13
105	20
106	4
107	999
108	95
109	26
110	3
111	2
115	10
116	4
117	23
118	5
119	28
120	33
121	113
122	28
123	4
125	1
127	1
128	2
129	3
130	1
131	20
132	8
133	34
134	14
135	12
136	3
137	182
138	15
139	1
140	5
141	2
144	1
145	12
146	3
147	18
148	14
149	7
150	1
152	64
153	8
154	9
155	1
159	2
160	4
161	9
162	4
163	4
164	1
165	588
166	165
167	22
168	3
169	1
173	1
175	2
176	1
177	2
178	20
179	14
180	15
181	2
189	1
190	2
191	3
192	1
193	4
194	2
202	1
203	1
204	4
205	2
207	4
208	3
217	1
221	2
222	1
244	3
245	1
260	2
261	39
262	24
263	5
273	1
274	2
275	5
276	11
277	2
278	1
292	1
302	5
303	1
318	4
319	1
320	456
321	99
322	12
323	1
