Mass Spectrum: N-[Sulfamoyl]-benzenecarboxamidine
Formula: C7H9N3O2S
CAS: 20804-19-7
Molecular weight: 199
m/z	intensity
42	33
43	136
44	11
46	54
48	80
50	230
51	484
52	64
53	10
54	3
55	1
56	1
57	1
58	0
59	0
60	2
61	5
62	22
63	64
64	103
65	61
66	13
67	3
68	0
69	1
70	0
74	63
76	127
77	999
78	70
80	237
82	15
83	0
84	1
85	0
86	1
87	2
88	4
89	12
90	7
91	44
92	36
93	106
94	17
96	13
97	1
99	5
100	2
103	330
104	447
105	39
106	2
107	2
108	1
109	1
110	0
117	6
119	549
120	179
121	20
122	1
126	1
129	0
133	0
134	3
135	95
136	17
137	1
139	0
141	1
146	0
147	0
149	0
151	0
157	0
165	3
167	12
168	1
169	1
180	1
181	0
183	239
184	18
185	10
186	0
195	0
196	1
199	440
200	43
201	22
202	1
