Mass Spectrum: 2-Fluoro-6-(trifluoromethyl)benzophenone
Formula: C14H8F4O
CAS: 208173-18-6
Molecular weight: 268
m/z	intensity
17	0
18	2
20	2
27	1
37	3
38	7
39	16
50	90
51	227
52	10
53	4
56	1
57	9
61	4
62	8
63	24
64	1
68	11
69	29
70	2
73	0
74	14
75	50
76	32
77	490
78	29
79	1
80	3
81	6
85	3
86	4
87	4
88	1
92	4
93	17
94	21
95	5
98	3
99	13
100	3
105	999
106	71
107	7
110	4
111	2
112	8
113	39
114	3
117	3
118	2
119	2
120	3
123	5
124	3
125	11
137	2
143	39
144	15
145	2
149	1
150	2
151	4
161	2
163	132
164	9
169	3
170	4
171	1
180	1
181	2
182	2
187	1
188	1
191	195
192	15
193	3
199	6
200	2
201	9
202	2
219	9
220	2
229	9
247	1
249	14
250	3
268	252
269	40
270	3
