Mass Spectrum: 4-Cholesten-3-one semicarbazone
Formula: C28H47N3O
CAS: 20817-69-0
Molecular weight: 441
m/z	intensity
41	462
43	999
44	127
45	23
49	12
53	70
55	530
56	23
57	413
58	13
60	17
61	46
65	40
67	182
69	272
70	11
71	201
73	22
76	77
77	96
79	271
81	310
82	35
83	102
84	24
85	24
87	139
91	285
92	42
93	242
94	73
95	212
96	50
97	80
99	24
103	22
104	14
105	210
106	140
107	191
108	88
109	139
110	219
111	39
115	56
116	13
117	78
118	41
119	102
120	170
121	190
122	200
123	153
124	60
125	22
128	48
129	41
130	26
131	93
132	55
133	88
134	49
135	120
136	141
137	83
138	119
139	22
140	27
141	6
142	13
143	53
144	36
145	68
146	52
147	66
148	34
149	84
150	30
151	36
153	112
154	42
155	12
157	62
158	36
159	46
160	37
161	47
162	35
163	46
164	120
165	83
166	81
167	55
169	10
171	29
172	36
173	27
174	25
175	26
176	6
177	28
179	48
180	69
181	436
182	39
185	22
186	13
187	20
189	22
191	7
193	8
194	41
213	7
255	6
285	18
366	23
367	6
368	21
381	29
382	75
383	81
384	28
397	22
398	485
399	183
400	33
424	20
426	58
427	13
440	28
441	781
442	231
443	43
