Mass Spectrum: 1-Ethyl-4-phosphorinanone thiosemicarbazone
Formula: C8H16N3PS
CAS: 20817-03-2
Molecular weight: 217
m/z	intensity
41	486
42	167
43	999
44	89
45	316
46	163
47	191
48	210
49	25
50	16
51	10
52	24
53	144
54	575
55	184
56	118
57	424
58	197
59	530
60	629
61	253
62	88
63	65
64	10
65	76
66	48
67	102
68	69
69	116
70	42
71	178
72	67
73	195
74	70
75	170
76	42
77	75
78	15
79	42
80	97
81	72
82	366
83	147
84	19
85	328
86	28
87	154
88	72
89	33
90	41
91	57
92	91
93	73
94	760
95	69
96	57
97	57
98	40
99	60
100	162
101	70
102	30
103	33
105	5
106	13
107	36
108	13
109	29
110	89
111	30
112	347
113	253
114	223
115	105
116	29
117	15
118	168
119	110
120	22
122	784
123	39
124	48
125	9
126	2
127	33
128	85
129	61
130	27
131	35
132	15
135	79
136	16
139	5
140	37
141	64
142	654
143	63
144	23
145	151
146	56
147	308
148	23
149	16
154	2
156	9
157	18
158	21
159	2
160	212
161	24
162	10
163	22
164	12
171	31
173	394
174	188
175	698
176	69
177	32
184	71
188	159
189	98
190	14
200	14
201	10
217	259
218	42
219	14
220	6
