Mass Spectrum: 2-Acetyl-3-methyl-3,4,5,6-tetrahydropyridine
Formula: C8H13NO
CAS: 208102-57-2
Molecular weight: 139
m/z	intensity
39	97
41	360
42	227
43	653
52	27
54	116
55	208
66	23
68	257
69	691
79	34
82	238
96	999
97	227
98	13
112	46
113	34
124	358
138	23
139	777
140	74
