Mass Spectrum: Pentanamide, 4,4-dimethyl-3-oxo-N-(4-chloro-3-nitrophenyl)-
Formula: C13H15ClN2O4
CAS: 208118-39-2
Molecular weight: 298
m/z	intensity
34	0
35	4
36	1
37	12
38	35
39	371
40	67
41	783
42	201
43	106
44	8
46	44
47	1
48	1
49	4
50	21
51	32
52	25
53	40
55	84
57	999
58	35
59	7
60	3
61	15
62	45
63	87
64	16
65	13
66	6
67	13
68	6
69	57
70	10
71	6
72	10
73	13
74	23
75	27
76	10
77	9
78	11
79	4
80	2
81	2
82	1
83	7
84	5
85	24
86	5
87	5
88	16
89	21
90	44
91	7
92	2
93	1
95	0
96	1
97	13
98	7
99	13
100	6
101	2
102	2
103	1
104	9
105	3
106	4
107	0
108	0
109	3
110	12
111	4
112	6
113	3
114	6
115	1
116	1
117	0
118	0
119	0
120	1
121	0
123	0
124	17
125	18
126	17
127	14
128	5
129	1
130	0
131	0
132	1
133	0
134	0
138	6
139	14
140	5
141	4
142	2
143	0
144	0
145	0
149	0
151	0
153	1
154	2
155	0
156	2
157	0
158	0
163	0
165	0
166	1
167	4
168	1
169	1
170	1
171	13
172	30
173	5
174	10
175	0
176	0
178	1
179	0
180	0
181	0
182	0
184	0
185	3
186	0
187	0
195	1
196	1
197	11
198	1
199	6
200	0
201	1
212	0
213	1
214	11
215	1
216	4
217	0
241	1
243	0
295	0
298	7
299	1
300	2
301	0
