Mass Spectrum: 5-Aminobenzofurazan-4,7-diol
Formula: C6H5N3O3
CAS: 208122-47-8
Molecular weight: 167
m/z	intensity
33	5
37	392
39	352
40	132
41	170
42	105
43	84
44	95
45	8
46	2
48	4
51	712
54	688
55	115
56	126
57	108
59	38
60	4
62	26
63	45
64	82
66	163
67	45
70	999
72	4
73	2
75	18
76	11
77	17
78	30
79	91
80	133
81	209
82	151
83	17
85	20
86	1
87	1
88	2
89	3
91	23
92	25
93	13
94	12
95	24
96	27
97	26
98	2
99	1
102	1
103	1
104	2
105	5
106	11
107	21
108	13
109	28
110	6
111	6
112	2
113	2
119	7
120	3
121	8
122	8
123	5
124	4
125	1
132	2
134	6
135	1
137	8
138	11
139	43
140	29
141	2
150	118
151	9
152	1
163	1
167	337
168	15
169	2
