Mass Spectrum: Nitroisobutanetriol trinitrate
Formula: C4H6N4O11
CAS: 20820-44-4
Molecular weight: 286
m/z	intensity
14	15
15	53
26	26
27	82
28	121
29	195
30	419
31	45
32	6
39	40
40	16
41	51
42	45
43	93
44	59
45	16
46	999
47	10
55	55
56	32
57	26
58	12
59	16
60	10
69	26
70	10
71	14
73	8
74	12
76	39
87	21
91	9
97	15
102	26
118	12
166	7
