Mass Spectrum: 1,6-Anhydro-3,4-O-isopropylidene-2-O-methyl-.beta.-D-galactopyranose
Formula: C10H16O5
CAS: 20822-68-8
Molecular weight: 216
m/z	intensity
29	999
41	450
43	980
45	350
55	560
57	590
58	320
59	850
69	260
71	240
81	320
85	330
87	180
95	150
97	280
101	400
113	320
129	360
143	320
149	270
201	550
