Mass Spectrum: Benzene, (1-methylenepentyl)-
Formula: C12H16
CAS: 20826-80-6
Molecular weight: 160
m/z	intensity
26	4
27	84
28	8
29	28
30	0
31	1
32	1
37	2
38	6
39	74
40	9
41	57
42	7
43	20
44	0
45	0
48	0
49	1
50	26
51	81
52	18
53	21
54	4
55	7
56	4
57	3
58	4
59	1
61	1
62	7
63	27
64	6
65	34
66	4
67	8
68	0
69	1
70	1
71	1
72	0
73	2
74	9
75	12
76	16
77	122
78	108
79	14
80	1
81	2
82	0
83	0
85	0
86	1
87	3
88	1
89	16
90	4
91	141
92	12
93	0
94	0
98	0
99	0
100	0
101	4
102	31
103	139
104	25
105	49
106	4
107	0
111	0
112	0
113	2
114	3
115	112
116	55
117	247
118	999
119	97
120	20
121	1
122	0
125	0
126	1
127	8
128	22
129	24
130	9
131	31
132	19
133	3
134	0
139	0
140	0
141	2
142	1
143	2
144	0
145	13
146	1
147	0
152	1
153	0
154	1
155	0
157	0
158	0
159	0
160	50
161	7
162	2
