Mass Spectrum: Daunorubicin
Formula: C27H29NO10
CAS: 20830-81-3
Molecular weight: 527
m/z	intensity
41	120
42	139
43	999
44	116
45	56
50	13
51	18
52	13
53	25
54	22
55	74
56	20
57	127
58	48
63	30
65	101
66	47
67	53
68	87
69	59
70	100
71	61
72	306
77	34
78	10
81	49
82	14
83	18
84	17
86	12
89	15
91	12
92	15
93	22
94	113
95	165
96	37
97	56
102	11
104	13
105	13
106	11
111	11
112	38
113	18
115	10
117	12
118	16
119	11
120	16
121	40
122	12
128	11
129	11
130	14
131	12
135	14
139	20
145	15
146	11
151	14
152	37
153	12
154	52
155	12
162	11
163	36
164	14
165	37
166	17
173	15
174	15
176	15
179	10
180	36
181	15
187	14
189	15
190	19
205	60
206	10
217	117
218	11
237	12
265	12
270	58
281	11
284	39
285	12
291	13
294	29
295	11
301	15
302	12
306	26
309	262
310	62
311	17
313	50
319	55
320	14
321	67
322	38
323	29
334	29
337	347
338	102
339	100
340	10
344	28
355	42
362	124
363	29
382	13
398	420
399	96
