Mass Spectrum: Bicyclo[3.2.0]hept-2-en-6-one, 7-chloro-
Formula: C7H7ClO
CAS: 20836-85-5
Molecular weight: 142
m/z	intensity
26	23
27	55
31	0
35	2
36	2
37	21
38	41
39	123
40	41
42	0
47	2
48	11
49	12
50	55
51	102
52	41
53	34
54	0
55	17
56	1
60	2
61	10
62	12
63	20
64	4
65	48
66	341
72	0
73	10
74	7
75	8
76	9
77	271
78	66
79	999
80	61
81	5
85	1
86	5
87	3
88	10
89	2
90	3
93	0
94	0
99	4
100	3
101	1
102	1
106	3
107	50
108	3
112	1
113	8
114	8
115	2
116	2
119	0
120	0
128	0
134	0
139	0
141	3
142	7
143	1
144	3
