Mass Spectrum: Benzeneethanol, .alpha.,.alpha.,4-trimethyl-
Formula: C11H16O
CAS: 20834-59-7
Molecular weight: 164
m/z	intensity
15	7
17	2
18	10
26	1
27	24
28	9
29	15
31	55
32	3
38	3
39	36
40	4
41	32
42	2
43	95
44	3
45	2
50	9
51	31
52	11
53	15
54	1
55	9
57	32
58	7
59	543
60	20
61	2
62	4
63	17
64	10
65	30
66	5
67	2
71	2
72	1
73	1
74	4
75	16
76	4
77	79
78	31
79	50
80	3
83	3
87	1
89	10
90	4
91	470
92	39
93	7
98	2
101	1
102	6
103	41
104	33
105	183
106	999
107	105
108	5
115	13
116	8
117	4
118	1
119	6
120	3
121	2
122	6
127	2
128	6
129	7
130	3
131	49
132	6
133	1
145	2
146	3
147	9
149	104
150	12
151	1
163	2
