Mass Spectrum: Androstan-6-one, 3-(acetyloxy)-, (3.beta.,5.alpha.)-
Formula: C21H32O3
CAS: 20835-29-4
Molecular weight: 332
m/z	intensity
41	286
42	40
43	999
44	66
45	13
51	13
52	6
53	113
54	40
55	460
56	33
57	40
60	6
61	20
65	33
66	33
67	380
68	100
69	113
70	13
71	13
77	113
78	26
79	333
80	80
81	333
82	53
83	66
84	13
91	180
92	66
93	446
94	240
95	533
96	66
97	33
103	6
104	6
105	133
106	46
107	213
108	106
109	133
110	33
111	20
115	6
117	33
118	66
119	80
120	66
121	233
122	100
123	133
124	20
125	13
127	6
128	6
129	13
130	6
131	33
132	13
133	100
134	73
135	333
136	180
137	46
138	6
139	13
140	6
141	13
142	6
143	33
144	13
145	33
146	13
147	46
148	33
149	120
150	26
151	13
152	6
153	6
157	20
158	13
159	33
160	13
161	66
162	13
163	33
164	13
165	6
171	13
172	6
173	20
174	6
175	33
176	46
177	26
178	13
179	13
180	6
181	20
183	6
185	13
186	6
187	20
188	13
189	20
190	13
191	46
192	6
197	6
199	6
200	13
201	26
202	13
203	20
204	6
205	26
206	20
208	6
211	6
212	20
213	26
214	13
215	20
217	13
218	26
219	60
220	13
225	6
226	6
228	13
229	26
230	13
231	6
239	66
240	13
241	6
243	53
244	146
245	33
246	6
253	6
254	120
255	33
256	6
257	600
258	113
259	13
261	13
271	13
272	666
273	140
274	20
275	6
281	6
289	40
290	6
298	6
300	6
332	13
