Mass Spectrum: 2,3-Naphthalenediol, decahydro-, (2.alpha.,3.beta.,4a.alpha.,8a.beta.)-
Formula: C10H18O2
CAS: 20835-21-6
Molecular weight: 170
m/z	intensity
39	214
41	565
42	51
43	145
45	51
51	44
52	22
53	187
54	252
55	445
56	44
57	300
58	51
59	13
60	32
65	68
66	89
67	665
68	160
69	107
70	552
71	91
77	91
78	89
79	453
80	248
81	468
82	198
83	384
84	131
85	26
91	168
92	130
93	321
94	187
95	296
96	363
97	131
98	370
99	28
105	99
106	82
107	63
108	999
109	195
110	61
119	91
120	9
121	214
122	87
123	126
124	283
125	53
126	319
127	40
133	42
134	586
135	65
136	9
137	61
140	22
151	30
152	640
153	72
170	223
171	28
