Mass Spectrum: Chloroacetamidine
Formula: C2H5ClN2
CAS: 20846-52-0
Molecular weight: 92
m/z	intensity
12	1
13	3
14	8
15	9
16	19
17	39
18	16
25	1
26	4
27	17
28	104
29	9
30	101
31	2
32	1
39	11
40	29
41	84
42	64
43	999
44	32
47	9
48	18
49	105
50	9
51	33
52	1
53	6
54	1
55	6
56	1
57	30
58	2
62	2
64	6
66	2
74	2
75	14
76	52
77	6
78	16
92	334
93	12
94	106
95	5
