Mass Spectrum: 2-Furancarbodithioic acid, ethyl ester
Formula: C7H8OS2
CAS: 20849-29-0
Molecular weight: 172
m/z	intensity
29	24
38	24
39	193
45	46
55	26
69	31
71	47
76	26
81	20
82	35
83	55
84	20
99	28
107	52
111	999
112	69
113	48
139	20
144	275
145	20
146	25
172	689
173	64
174	64
