Mass Spectrum: .alpha.-[1-Adamantylaminomethyl]-6,8-dichloro-2-phenyl-4-quinolinemethanol
Formula: C27H28Cl2N2O
CAS: 20844-35-3
Molecular weight: 466
m/z	intensity
41	219
42	112
43	44
44	15
47	2
50	14
51	42
52	18
53	62
54	38
55	81
56	29
57	122
58	51
59	3
61	3
62	2
63	14
65	40
66	23
67	104
68	22
69	32
70	18
71	3
74	14
75	15
76	14
77	145
78	31
79	197
80	41
81	68
82	24
83	4
87	12
88	10
89	10
91	94
92	25
93	211
94	999
95	102
96	9
98	13
99	21
100	10
101	20
102	20
103	7
104	11
105	20
106	46
107	80
108	72
109	15
110	9
114	2
115	3
119	16
120	17
121	5
122	11
123	2
124	2
126	3
133	22
134	37
135	853
136	100
137	11
148	2
149	2
150	18
151	184
152	28
153	3
160	2
161	7
162	14
163	32
164	474
165	60
166	3
172	2
174	6
175	14
176	17
177	31
178	3
196	21
197	2
198	15
200	11
201	37
202	28
203	43
204	32
205	8
214	6
226	7
227	3
228	7
236	7
237	31
238	63
239	28
240	30
241	6
264	21
266	8
267	6
268	10
269	3
272	44
273	43
274	163
275	49
276	91
277	19
278	15
286	3
287	12
288	10
289	6
290	5
298	12
299	17
300	13
301	84
302	106
303	694
304	190
305	431
306	91
307	74
308	12
315	9
316	2
317	11
319	5
379	2
466	11
468	6
470	1
