Mass Spectrum: 5.alpha.-Pregnan-3.beta.-amine, N,N-dimethyl-
Formula: C23H41N
CAS: 20840-32-8
Molecular weight: 331
m/z	intensity
54	60
55	70
56	20
57	60
67	50
68	30
69	20
70	50
71	130
72	30
78	20
80	20
81	40
82	30
83	30
84	999
85	50
95	30
96	60
97	130
98	20
107	20
108	20
109	30
110	480
111	40
331	50
332	20
