Mass Spectrum: Pentanoic acid, 5,5'-selenobis-
Formula: C10H18O4Se
CAS: 20846-68-8
Molecular weight: 282
m/z	intensity
26	15
27	189
28	62
29	257
30	6
31	51
38	3
39	130
40	12
41	189
42	26
43	260
44	12
45	196
46	6
47	3
50	6
51	10
52	3
53	71
54	26
55	945
56	54
57	100
58	9
59	266
60	34
61	1
67	7
68	12
69	10
70	6
71	15
72	1
73	48
77	1
78	4
79	6
80	9
81	21
82	10
83	446
84	34
85	7
87	6
89	7
90	10
91	24
92	21
93	46
94	31
95	40
96	9
97	9
98	3
99	29
100	9
101	999
102	57
103	9
104	9
105	18
106	15
107	31
108	23
109	31
110	4
111	7
117	9
118	6
119	15
120	6
121	24
122	1
123	4
129	1
130	1
131	15
132	31
133	49
134	60
135	58
136	124
137	20
138	21
139	10
158	4
159	4
160	23
161	27
162	54
163	29
164	105
165	24
166	21
167	3
177	3
178	4
179	4
180	9
181	9
182	4
263	3
265	7
278	24
279	21
280	55
281	7
282	117
283	12
284	23
285	3
