Mass Spectrum: 1,4-Butanediol, 1,4-diphenyl-
Formula: C16H18O2
CAS: 2085-90-7
Molecular weight: 242
m/z	intensity
17	6
18	36
27	7
28	4
29	7
31	1
38	1
39	10
40	1
41	6
43	9
50	6
51	27
52	7
53	5
55	8
56	1
57	5
58	4
59	2
62	1
63	4
64	1
65	9
66	1
69	1
71	1
73	2
74	1
75	2
76	4
77	143
78	49
79	200
80	13
81	1
83	1
85	1
89	6
90	3
91	56
92	8
93	1
94	1
95	1
97	1
101	1
102	3
103	18
104	130
105	174
106	20
107	249
108	22
109	2
115	34
116	11
117	543
118	999
119	98
120	648
121	58
122	4
123	2
127	3
128	3
129	6
130	1
131	3
132	1
133	15
134	6
135	1
144	1
145	2
146	10
147	2
149	1
152	1
163	5
164	12
165	4
166	1
167	2
178	2
179	1
180	2
181	1
189	1
190	1
191	1
193	3
194	1
202	1
203	2
204	1
205	2
206	7
207	5
208	3
209	2
221	3
222	8
223	6
224	190
225	35
226	4
