Mass Spectrum: 1,3-Propanedione, 2-diazo-1,3-diphenyl-
Formula: C15H10N2O2
CAS: 2085-31-6
Molecular weight: 250
m/z	intensity
50	40
51	240
77	520
78	40
105	999
106	90
139	10
163	20
164	10
165	60
166	10
171	10
178	20
194	10
221	10
222	160
223	40
224	20
250	20
