Mass Spectrum: Acetic acid, 2-(coumarin-3-yl)-
Formula: C11H8O4
CAS: 20862-58-2
Molecular weight: 204
m/z	intensity
37	0
39	1
40	1
41	9
42	47
43	29
45	509
46	30
47	15
50	6
51	8
52	11
53	41
55	622
56	160
57	13
59	0
60	3
61	2
63	20
64	1
65	3
69	2
72	261
73	764
74	999
75	55
77	47
78	6
80	0
82	1
83	3
86	0
87	2
88	0
89	4
90	0
91	6
93	0
95	3
97	1
100	509
101	203
102	31
103	19
104	5
105	2
106	0
107	0
115	27
116	1
118	1
119	2
129	3
131	88
132	61
133	2
143	0
159	26
160	92
161	8
181	1
204	8
