Mass Spectrum: N-(2-(Diethylamino)ethyl)-9-methyl-4-methylthio-1,2-carbazoledicarboximide
Formula: C22H25N3O2S
CAS: 20863-13-2
Molecular weight: 395
m/z	intensity
15	2
26	1
27	4
28	15
29	13
30	46
32	2
34	1
39	1
41	3
42	9
43	4
44	4
45	1
47	1
48	1
51	1
54	1
55	2
56	11
57	6
58	69
59	2
63	1
68	1
69	2
70	4
71	7
72	5
73	1
75	1
77	1
81	1
82	1
83	1
84	12
85	4
86	999
87	61
88	1
89	1
91	1
95	1
96	1
97	2
98	1
99	6
100	1
105	2
110	1
111	1
112	2
113	1
114	2
115	1
125	1
127	1
128	1
132	1
137	1
138	1
139	4
140	2
141	1
145	2
147	1
149	1
150	1
151	3
152	3
153	1
154	1
161	4
162	2
163	1
164	2
165	2
166	2
167	2
176	1
177	2
178	3
179	3
180	2
181	2
182	1
183	1
184	1
190	6
191	2
192	3
193	1
194	1
195	1
196	2
197	1
204	1
205	2
206	3
207	1
208	2
209	4
210	9
211	7
212	1
218	1
219	1
220	1
221	1
222	1
223	3
224	5
225	5
226	3
233	1
234	2
235	3
236	2
237	2
238	5
239	3
240	1
247	1
248	1
249	3
250	2
251	2
252	2
253	1
254	2
255	1
258	1
259	1
261	1
262	1
263	3
264	2
265	2
266	2
267	1
268	1
270	1
272	1
273	1
275	1
276	1
277	2
278	1
279	2
280	2
281	3
282	4
283	1
284	1
285	1
293	2
294	4
295	5
296	15
297	4
298	1
301	1
304	1
306	1
307	2
308	5
309	18
310	9
311	2
312	1
316	1
317	1
318	1
319	1
320	2
321	3
322	9
323	10
324	3
325	1
329	2
330	1
331	2
332	1
333	1
334	1
335	1
348	1
349	2
350	1
351	2
353	2
354	1
365	2
366	2
367	3
368	1
377	2
378	1
379	1
380	3
381	1
393	3
394	4
395	45
396	11
397	4
