Mass Spectrum: N-(2-(Diethylamino)ethyl)-4-methylthio-1,2-carbazoledicarboximide
Formula: C21H23N3O2S
CAS: 20863-10-9
Molecular weight: 381
m/z	intensity
27	3
28	2
29	10
30	33
41	1
42	7
43	3
44	2
45	1
55	1
56	10
57	4
58	50
59	1
69	2
70	3
71	4
72	3
75	1
84	11
85	2
86	999
87	59
88	2
98	1
99	4
100	1
105	1
125	1
137	1
138	2
139	1
147	1
151	3
152	4
153	2
163	1
164	3
165	3
166	1
167	3
168	2
169	1
178	3
179	2
180	1
183	3
191	1
192	2
193	1
194	1
195	3
196	8
197	8
198	1
205	1
209	1
210	4
211	5
212	5
213	1
221	1
222	2
223	3
224	4
225	2
235	2
236	1
237	1
238	2
239	1
240	3
248	1
249	2
250	1
252	2
264	1
265	2
266	1
267	2
268	1
280	3
281	2
282	5
283	1
293	1
294	2
295	13
296	5
297	1
307	1
308	5
309	9
310	2
352	1
366	2
379	1
380	3
381	25
382	6
383	2
