Mass Spectrum: Phenylacetic acid, 2-methoxy-6-nitro-
Formula: C9H9NO5
CAS: 20876-28-2
Molecular weight: 211
m/z	intensity
41	78
42	19
43	48
45	161
46	11
49	2
50	194
51	565
52	126
53	117
54	18
55	43
56	3
57	8
59	18
60	4
61	19
62	67
63	162
64	62
65	352
66	127
67	55
68	19
69	15
70	1
71	5
73	4
74	52
75	62
76	161
77	701
78	281
79	283
80	42
81	19
82	16
83	9
84	2
85	6
86	14
87	13
88	2
89	93
90	156
92	999
93	165
94	128
95	97
96	11
97	6
103	6
104	21
105	136
106	80
107	302
108	207
109	30
110	15
111	3
117	3
118	14
119	24
120	39
121	57
122	68
123	22
124	5
131	4
133	29
135	142
136	21
137	20
138	20
139	2
147	1
150	895
151	71
152	11
163	14
164	13
165	26
166	91
167	116
168	9
176	8
193	10
194	25
195	11
211	238
212	25
213	4
