Mass Spectrum: Phenylmethyl cyanide, 2-methoxy-6-nitro-
Formula: C9H8N2O3
CAS: 20876-27-1
Molecular weight: 192
m/z	intensity
41	114
42	36
43	53
45	31
46	62
49	53
50	498
51	542
52	177
53	119
54	39
55	45
57	15
59	26
61	84
62	200
63	365
64	161
65	324
66	61
67	38
68	21
69	22
73	13
74	176
75	390
76	999
77	567
78	241
79	265
80	51
81	10
82	64
83	6
84	32
85	29
86	32
87	72
88	101
89	767
90	361
91	332
92	335
93	129
94	50
95	31
97	21
99	18
100	21
102	255
103	346
104	246
105	567
106	167
107	403
108	108
109	10
114	78
115	34
116	723
117	429
118	110
119	213
120	159
121	101
122	149
123	22
130	174
131	100
132	31
133	97
134	21
135	186
136	29
144	69
145	39
146	20
147	38
148	10
149	174
150	51
160	79
161	4
164	14
166	4
175	63
176	9
192	504
193	60
