Mass Spectrum: Tryptophan, 1-(1,1-dimethylallyl)-, L-
Formula: C16H20N2O2
CAS: 20880-68-6
Molecular weight: 272
m/z	intensity
39	40
40	8
41	223
42	16
43	10
44	10
46	16
50	9
51	24
52	10
53	30
65	16
67	10
69	73
70	13
74	21
75	16
76	22
77	66
78	10
89	10
90	5
101	13
102	45
103	53
104	10
115	18
116	10
117	26
118	8
128	26
129	56
130	999
131	116
141	5
142	13
155	10
156	21
157	21
158	29
166	13
167	2
181	13
196	8
197	10
198	200
199	37
226	9
227	2
272	22
273	8
274	5
