Mass Spectrum: 2'-Aminodihydro-2-stilbazole
Formula: C13H14N2
CAS: 20887-06-3
Molecular weight: 198
m/z	intensity
50	100
51	160
52	130
54	60
55	180
56	90
57	170
58	130
59	40
60	330
61	50
62	30
63	80
64	190
65	140
66	120
67	120
68	70
69	110
70	60
71	80
74	30
75	50
76	50
77	260
78	280
79	230
80	140
81	90
82	60
83	80
84	30
85	60
89	40
90	70
91	190
92	90
93	940
94	120
95	70
96	30
97	70
98	40
99	70
103	40
104	40
105	70
106	999
107	40
108	30
109	60
110	70
111	60
112	110
113	60
114	130
115	30
116	30
117	50
118	130
119	70
120	40
121	30
123	30
131	30
135	30
141	30
143	30
149	40
150	130
151	30
152	30
167	60
168	30
169	60
180	50
181	30
182	190
183	40
197	80
198	260
199	50
