Mass Spectrum: 3(2H)-Benzofuranone, 6-methyl-
Formula: C9H8O2
CAS: 20895-41-4
Molecular weight: 148
m/z	intensity
50	120
51	130
52	42
53	34
54	3
55	9
56	3
57	10
58	7
59	25
60	10
61	30
62	99
63	260
64	94
65	82
66	14
73	15
74	80
75	32
76	12
77	27
78	15
79	4
86	20
87	21
88	40
89	390
90	460
91	440
92	39
93	3
103	7
104	5
105	13
117	7
118	240
119	999
120	90
121	8
131	4
132	3
133	27
134	3
146	6
147	170
148	900
149	95
150	10
