Mass Spectrum: 2-Butanone, 1-(2-furanyl)-3-methyl-
Formula: C9H12O2
CAS: 20907-04-4
Molecular weight: 152
m/z	intensity
41	120
42	20
43	999
44	20
50	20
51	50
52	40
53	160
54	10
55	10
71	210
72	10
81	340
82	30
152	50
