Mass Spectrum: 2-Pentanone, 1-(2-furanyl)-
Formula: C9H12O2
CAS: 20907-03-3
Molecular weight: 152
m/z	intensity
41	150
42	20
43	999
44	20
50	30
51	60
52	50
53	200
54	10
55	10
71	430
72	10
81	360
82	60
152	80
