Mass Spectrum: Octane, 4,5-dipropyl-
Formula: C14H30
CAS: 20905-05-9
Molecular weight: 198
m/z	intensity
25	1
26	3
27	106
28	2
29	153
30	2
31	1
33	1
39	54
40	8
41	331
42	54
43	363
44	13
45	1
46	1
50	0
51	4
52	3
53	29
54	18
55	166
56	243
57	999
58	41
59	1
63	2
65	4
66	2
67	22
68	21
69	143
70	182
71	138
72	8
76	1
77	7
78	0
79	6
80	1
81	4
82	4
83	34
84	5
85	83
86	4
89	0
91	5
92	2
95	3
96	2
97	13
98	350
99	73
100	3
101	0
106	1
107	1
108	1
109	1
110	1
111	3
112	5
113	13
115	0
117	2
118	0
120	1
121	1
127	1
128	2
129	1
130	1
131	1
135	1
141	1
143	1
144	1
152	2
154	12
155	39
156	4
157	1
169	2
170	1
198	1
