Mass Spectrum: N,N-Dimethyl-3-phenoxypropylamine
Formula: C11H17NO
CAS: 20904-57-8
Molecular weight: 179
m/z	intensity
39	32
40	7
41	25
42	56
43	15
44	26
45	12
50	4
51	15
55	4
56	9
57	12
58	999
59	42
65	22
66	7
70	11
71	7
72	4
73	10
77	34
78	5
79	4
94	20
95	7
96	7
104	25
179	169
180	22
