Mass Spectrum: Azocine, octahydro-1-nitroso-
Formula: C7H14N2O
CAS: 20917-49-1
Molecular weight: 142
m/z	intensity
14	2
15	37
26	17
27	166
28	175
29	164
30	381
31	6
37	2
38	9
39	168
40	31
41	662
42	549
43	225
44	555
45	15
46	1
50	6
51	12
52	9
53	48
54	56
55	820
56	155
57	54
58	72
59	4
60	2
63	2
65	7
66	3
67	48
68	54
69	79
70	208
71	14
72	1
73	2
74	4
77	4
78	1
79	9
80	9
81	25
82	48
83	100
84	60
85	5
86	1
87	1
91	1
93	5
94	2
95	12
96	19
97	8
98	3
99	4
100	1
101	1
108	7
109	1
110	13
111	7
112	999
113	83
114	11
125	53
126	5
127	2
141	1
142	200
143	18
