Mass Spectrum: dl-4-Phenyl-dl-glutamic acid
Formula: C11H13NO4
CAS: 20913-74-0
Molecular weight: 223
m/z	intensity
42	388
44	348
45	999
46	132
47	101
49	5
51	4
52	43
54	110
55	72
57	164
59	13
60	7
61	16
62	5
63	111
64	6
65	208
68	2
69	3
70	16
71	3
73	61
74	152
75	778
76	842
77	208
78	102
79	107
80	26
82	10
83	45
84	2
86	2
88	75
89	64
91	188
92	33
93	5
94	0
95	0
96	3
97	3
98	3
99	1
100	2
101	226
103	333
105	777
106	9
107	67
108	0
111	2
112	0
113	1
114	3
115	191
117	204
118	52
120	19
121	2
124	0
125	3
127	4
128	3
130	49
131	130
132	407
133	43
134	3
135	14
136	18
137	4
138	1
139	7
141	4
143	3
144	16
145	3
147	2
149	3
151	6
158	4
159	20
160	235
161	27
162	5
164	1
165	0
166	9
167	1
168	0
176	5
177	5
178	91
179	7
187	3
194	8
196	2
204	1
205	686
206	287
207	25
208	1
222	2
223	11
224	1
