Mass Spectrum: Chromone, 2-(hydroxydiphenylmethyl)-3-methyl-
Formula: C23H18O3
CAS: 20924-67-8
Molecular weight: 342
m/z	intensity
50	20
51	92
52	12
53	12
55	20
63	24
64	22
65	61
66	12
67	59
74	10
75	20
76	41
77	608
78	61
79	8
101	12
102	22
103	45
104	22
105	999
106	72
107	6
109	6
113	61
114	10
115	70
116	20
117	8
118	8
120	20
121	247
122	24
125	16
126	20
127	20
128	8
129	72
130	82
131	10
143	8
144	8
145	8
146	8
148	6
150	6
151	16
152	35
153	20
154	8
155	6
159	43
160	185
161	41
162	16
163	10
164	10
165	82
166	99
167	41
168	4
170	20
176	8
177	8
178	37
179	18
181	22
182	24
183	422
184	72
185	10
187	6
189	30
190	10
191	20
192	6
193	6
194	6
200	4
201	8
202	20
203	22
204	20
205	6
232	14
234	8
235	86
236	22
237	670
238	127
239	20
246	4
247	103
248	26
249	20
250	66
251	115
252	26
264	82
265	30
266	66
267	20
294	6
296	8
298	12
323	10
324	82
325	72
326	43
327	41
341	47
342	701
343	185
344	37
