Mass Spectrum: 1,2-Dihydro-3-hydroxy-2-oxo-4,6-bis(piperidinomethyl)pyridine
Formula: C17H27N3O2
CAS: 20928-64-7
Molecular weight: 305
m/z	intensity
15	7
17	8
18	1
26	8
27	36
28	96
29	79
30	77
31	2
35	1
37	1
38	4
39	37
40	9
41	68
42	102
43	91
44	117
45	6
50	5
51	9
52	19
53	16
54	21
55	80
56	139
57	109
58	4
61	3
63	1
64	5
65	27
66	8
67	17
68	13
69	9
70	52
71	3
73	1
77	1
78	5
79	24
80	14
81	7
82	31
83	42
84	999
85	461
86	62
87	3
88	1
90	1
91	4
92	2
93	2
94	3
95	3
96	6
97	6
98	40
99	3
101	1
106	1
107	4
108	9
109	19
110	9
111	1
112	3
119	1
120	3
121	2
122	2
123	3
124	3
125	7
134	2
135	3
136	6
137	54
138	15
139	6
147	1
148	2
149	4
150	2
151	1
152	4
153	1
162	1
163	3
164	2
165	1
177	3
178	1
191	5
192	16
193	2
208	1
219	10
220	84
221	35
222	289
223	41
224	3
305	26
306	7
307	1
