Mass Spectrum: 1,4,10,13-Tetrathia-7,16-diazacyclooctadecane
Formula: C12H26N2S4
CAS: 20934-69-4
Molecular weight: 326
m/z	intensity
18	56
26	31
27	163
28	118
30	267
35	65
41	81
42	356
43	409
44	263
45	259
46	133
47	81
48	26
53	34
54	39
55	35
56	403
57	142
58	63
59	243
60	316
61	351
62	32
64	39
66	33
70	42
71	28
73	53
74	172
75	321
76	61
77	64
78	45
85	37
86	78
87	266
88	999
89	304
90	429
91	63
92	68
96	33
100	20
101	52
102	235
103	243
104	249
105	68
106	34
107	44
116	517
117	41
118	41
120	88
121	34
130	76
132	33
135	21
136	32
137	97
148	75
150	71
162	48
163	68
164	215
165	37
166	32
176	26
190	101
197	56
205	87
207	44
219	29
223	258
224	131
225	55
233	264
234	37
235	33
238	29
257	30
267	103
279	26
