Mass Spectrum: 3-Methyl-4-amino-1,2,4-triazole-5-thiol
Formula: C3H6N4S
CAS: 20939-15-5
Molecular weight: 130
m/z	intensity
26	118
28	595
29	270
30	267
32	253
40	111
41	139
42	661
43	121
45	158
46	72
56	129
57	202
58	168
59	348
60	650
62	40
70	37
72	65
74	34
75	13
83	13
84	51
85	31
89	52
99	128
100	11
101	10
113	11
115	24
130	999
131	59
132	46
