Mass Spectrum: Propanoic acid, 2,2-dimethyl-, phenylmethyl ester
Formula: C12H16O2
CAS: 2094-69-1
Molecular weight: 192
m/z	intensity
25	1
26	7
27	15
28	20
29	61
30	1
36	5
37	2
38	5
39	54
40	9
41	132
42	13
43	3
44	21
45	2
49	2
50	13
51	33
52	12
53	6
54	1
55	10
56	15
57	835
58	30
59	1
62	4
63	21
64	7
65	86
66	5
69	3
70	5
71	5
74	3
75	2
76	4
77	50
78	13
79	34
80	3
85	35
86	2
88	2
89	38
90	45
91	999
92	89
93	5
105	18
106	7
107	31
108	57
109	4
117	1
119	25
120	2
131	2
192	145
193	18
194	2
