Mass Spectrum: Benzenepropanamide, N,N'-1,6-hexanediylbis-
Formula: C24H32N2O2
CAS: 20941-30-4
Molecular weight: 380
m/z	intensity
27	70
29	33
30	454
39	55
41	82
42	26
43	42
44	114
50	17
51	59
52	15
53	13
54	19
55	70
56	61
57	9
58	43
59	10
60	7
62	0
63	14
65	91
66	4
68	4
69	22
70	21
72	66
73	15
74	5
75	3
76	8
77	191
78	100
79	171
80	6
81	18
82	29
83	34
84	22
85	6
86	283
87	35
88	8
89	18
90	7
91	955
92	89
96	10
97	14
98	446
99	76
100	434
101	53
102	24
103	183
104	426
105	999
106	185
107	35
108	2
109	6
110	2
112	5
113	11
114	184
115	32
116	41
117	65
118	11
119	2
120	11
121	2
122	5
125	6
126	42
127	16
128	99
129	13
130	15
131	174
132	100
133	378
134	37
140	15
141	2
142	15
143	124
144	111
145	33
146	13
148	33
149	19
150	49
151	5
153	5
158	18
159	10
160	18
161	1
162	54
163	266
164	32
165	4
167	6
169	4
171	20
172	9
173	6
174	13
175	5
176	120
177	93
178	10
179	6
186	7
187	9
188	10
189	8
190	173
191	133
192	16
193	6
200	18
202	11
204	155
205	68
206	12
212	5
213	10
216	14
217	7
218	500
219	285
220	44
221	5
228	5
229	10
230	390
231	110
232	68
233	48
234	7
245	4
247	145
248	121
249	181
250	22
257	9
258	7
261	8
275	47
276	36
277	9
323	33
324	11
378	11
380	422
381	114
382	21
383	4
