Mass Spectrum: 7-Hydroxychlorpromazine
Formula: C17H19ClN2OS
CAS: 2095-62-7
Molecular weight: 334
m/z	intensity
41	50
42	190
43	60
44	110
45	20
51	20
52	10
53	10
55	10
56	40
57	50
58	999
59	100
63	40
64	10
65	10
69	30
70	50
71	30
72	40
75	10
77	10
78	10
84	50
85	110
86	450
87	30
95	10
107	10
108	10
140	30
152	10
153	10
158	10
159	10
161	20
186	10
187	30
188	30
189	10
190	10
191	10
201	10
212	20
213	20
214	20
216	20
218	10
219	10
220	20
221	10
222	10
226	10
227	20
228	10
230	50
231	10
232	20
239	10
240	10
241	20
248	140
249	80
250	60
251	30
252	10
254	10
262	50
263	30
264	20
265	10
274	10
275	20
276	10
288	100
289	60
290	40
291	20
334	250
335	60
336	100
337	30
