Mass Spectrum: 4-Benzyloxypyridazine 1-oxide
Formula: C11H10N2O2
CAS: 2096-53-9
Molecular weight: 202
m/z	intensity
26	5
27	19
28	12
29	1
30	5
37	1
38	5
39	22
40	6
41	10
42	5
43	2
44	9
50	8
51	18
52	8
53	2
54	3
55	1
56	1
57	2
62	2
63	11
64	3
65	76
66	4
67	3
68	2
69	6
71	2
74	2
75	1
76	3
77	23
78	32
79	6
81	1
83	1
84	1
85	1
89	15
90	9
91	999
92	86
93	3
96	11
97	1
102	1
103	2
104	2
105	12
106	11
107	3
108	3
111	1
115	1
116	1
117	3
129	1
130	1
131	1
149	1
159	1
185	5
186	32
187	4
202	44
203	6
