Mass Spectrum: Cyclohexylmethylsilane
Formula: C7H16Si
CAS: 2096-99-3
Molecular weight: 128
m/z	intensity
46	4
47	3
50	16
51	24
52	5
53	63
54	177
55	200
56	153
57	999
58	112
59	42
67	436
68	28
69	32
70	26
71	172
72	130
73	25
74	3
76	6
77	29
78	19
79	42
80	20
81	113
82	732
83	113
85	58
86	10
87	20
97	10
98	30
99	44
100	50
113	6
127	8
128	36
129	6
130	2
