Mass Spectrum: 1,5-Bis[p-hexyloxyphenyl]-1,4-pentadien-3-one
Formula: C29H38O3
CAS: 209683-39-6
Molecular weight: 434
m/z	intensity
41	300
43	999
44	12
47	13
48	1
53	19
55	188
56	31
57	94
63	10
65	41
67	8
69	24
71	2
76	10
77	22
78	5
79	10
81	5
83	18
84	5
85	24
86	31
88	4
89	24
90	6
91	114
92	14
93	6
94	47
95	9
97	1
101	8
102	22
103	13
105	15
107	237
108	5
115	54
116	13
117	10
118	40
119	123
120	47
121	70
122	43
123	41
124	4
125	2
127	11
128	8
129	3
131	49
132	11
133	16
134	3
135	2
136	8
138	3
139	10
141	4
143	12
144	101
145	45
146	10
147	245
148	20
149	1
151	3
152	8
153	11
157	11
160	22
161	26
162	12
164	5
165	30
166	22
167	10
168	1
171	10
172	253
173	44
174	1
177	6
178	20
179	12
181	32
182	4
183	3
189	24
190	24
191	135
192	19
194	53
195	16
201	21
202	20
203	14
204	13
205	40
206	38
207	21
208	11
209	25
210	4
218	15
219	34
220	22
221	30
222	6
223	20
231	36
232	7
235	10
236	5
237	94
238	38
239	1
246	24
247	17
248	9
249	31
250	2
256	30
257	11
265	133
266	61
267	11
321	30
322	14
333	32
334	6
349	161
350	77
351	25
352	1
363	3
406	41
407	12
433	88
434	938
435	291
436	47
437	3
