Mass Spectrum: 3,6-Diazabicyclo[3.1.0]hexane-6-carboxanilide, 3-benzyl-
Formula: C18H19N3O
CAS: 20965-16-6
Molecular weight: 293
m/z	intensity
15	2
16	8
17	16
18	5
26	4
27	14
28	44
29	4
30	9
31	2
32	1
37	11
38	24
39	48
40	9
41	38
42	34
43	9
44	11
45	22
46	2
49	3
50	19
51	36
52	16
53	7
54	16
55	7
56	226
57	17
58	1
59	33
60	3
61	5
62	11
63	48
64	107
65	118
66	15
67	6
68	54
69	26
70	5
71	1
73	1
74	6
75	4
76	5
77	26
78	10
79	8
80	10
81	14
82	8
83	30
84	2
86	1
87	2
88	2
89	18
90	15
91	999
92	88
93	30
94	3
95	3
97	35
98	2
102	1
103	4
104	17
105	10
106	97
107	9
109	2
115	3
116	4
117	9
118	113
119	759
120	65
121	4
125	1
126	1
127	5
128	8
129	8
130	13
131	18
132	15
133	3
141	1
143	1
144	6
145	59
146	10
147	2
154	8
155	4
156	31
157	230
158	230
159	29
160	2
171	2
172	2
173	23
174	14
175	3
199	1
201	75
202	11
203	1
292	1
293	2
