Mass Spectrum: Glucopyranuronamide, 1-(4-amino-2-oxo-1(2H)-pyrimidinyl)-1,4-dideoxy-4-(D-2-(2-(methylamino)acetamido)hydracrylamido)-, .beta.-D-
Formula: C16H25N7O8
CAS: 2096-42-6
Molecular weight: 443
m/z	intensity
41	231
42	396
43	369
44	999
45	56
46	11
50	12
51	26
52	53
53	45
54	56
55	97
56	83
57	66
58	44
59	21
60	18
63	3
64	14
65	20
66	43
67	122
68	138
69	171
70	42
71	37
72	21
73	21
74	2
75	9
77	6
78	7
79	16
80	18
81	34
82	32
83	97
84	37
85	26
86	19
87	13
88	19
89	3
91	5
92	32
93	21
94	33
95	74
96	31
97	32
98	27
99	29
100	14
101	9
105	6
106	7
107	13
108	15
109	21
110	44
111	529
112	104
113	60
114	54
115	9
116	12
119	15
120	12
121	15
122	18
123	16
124	24
125	34
126	21
127	12
128	27
129	14
133	6
134	14
135	26
136	17
137	15
138	23
139	30
140	36
141	11
142	14
147	10
148	6
149	20
150	12
151	7
152	9
153	10
154	2
155	3
157	12
158	5
161	6
162	8
163	13
164	13
165	11
166	9
167	6
175	2
176	5
177	5
178	3
179	2
181	2
191	5
