Mass Spectrum: 4-Pentenoic acid, 2-acetyl-4-methyl-, methyl ester
Formula: C9H14O3
CAS: 20962-71-4
Molecular weight: 170
m/z	intensity
13	4
14	22
15	294
16	4
17	7
18	25
26	22
27	163
28	27
29	86
30	6
31	32
32	15
33	2
37	5
38	18
39	190
40	42
41	170
42	41
43	999
44	24
45	17
49	1
50	12
51	38
52	19
53	84
54	18
55	155
56	13
57	6
58	2
59	55
60	2
61	3
62	5
63	10
64	2
65	22
66	18
67	172
68	55
69	95
70	9
71	12
72	2
73	30
74	7
75	5
77	10
78	3
79	7
80	1
81	59
82	7
83	6
84	3
85	18
86	3
87	32
88	2
89	1
91	7
92	8
93	14
94	5
95	261
96	112
97	81
98	7
99	4
100	1
101	4
105	2
109	14
110	14
111	77
112	9
113	40
114	3
120	7
121	2
123	16
124	3
125	2
126	1
127	176
128	285
129	24
130	2
132	2
137	2
138	45
139	25
140	2
152	39
153	4
155	1
170	3
