Mass Spectrum: 3-Bromobutyronitrile
Formula: C4H6BrN
CAS: 20965-20-2
Molecular weight: 147
m/z	intensity
14	2
15	8
25	2
26	22
27	142
28	12
36	2
37	23
38	33
39	128
40	48
41	709
42	47
43	1
49	1
50	3
51	9
52	43
53	3
54	5
62	2
63	6
64	17
65	5
66	50
67	60
68	999
69	57
70	1
79	15
80	37
81	16
82	37
93	5
95	5
104	1
105	5
106	4
107	87
108	5
109	80
110	1
119	1
121	1
132	6
134	6
147	171
148	14
149	167
150	14
