Mass Spectrum: Glucitol, 1,2,5,6-tetrabenzoate, D-
Formula: C34H30O10
CAS: 20963-95-5
Molecular weight: 598
m/z	intensity
26	2
27	6
28	2
29	3
30	0
31	2
32	0
37	1
38	2
39	5
40	0
41	2
42	0
43	3
44	1
45	1
47	0
49	1
50	11
51	33
52	3
53	1
54	0
55	4
56	1
57	2
58	0
60	0
61	0
62	0
63	0
65	1
66	1
67	0
68	11
69	8
70	1
71	0
72	0
73	3
74	3
75	2
76	8
77	157
78	12
79	3
80	0
81	2
82	0
85	3
86	2
91	1
92	0
93	0
94	1
97	4
98	1
103	0
104	3
105	999
106	67
107	4
109	0
110	11
111	1
115	0
118	0
121	0
122	38
123	9
124	0
127	0
128	1
135	0
136	0
147	0
148	1
153	0
160	0
163	0
165	10
166	1
175	0
177	35
178	5
179	0
181	0
189	4
190	12
191	1
195	2
201	5
202	1
203	0
207	11
208	1
214	4
215	1
216	0
219	2
225	0
227	3
228	0
231	0
232	5
233	1
237	0
269	5
270	0
281	2
282	9
283	1
294	12
295	2
296	0
299	3
300	0
311	25
312	5
313	0
323	0
324	0
329	2
330	0
331	0
336	2
337	0
341	4
342	0
354	0
404	1
428	1
433	2
434	0
445	4
446	1
458	0
463	0
537	2
538	0
567	0
