Mass Spectrum: 3-(4-Methylbenzoyl)acrylic acid
Formula: C11H10O3
CAS: 20972-36-5
Molecular weight: 190
m/z	intensity
14	1
27	14
38	8
39	54
40	8
41	17
43	8
44	20
45	30
50	25
51	35
52	10
53	26
54	9
62	26
63	73
64	19
65	202
66	13
74	9
75	8
77	11
80	10
81	8
89	70
90	31
91	421
92	34
99	14
115	53
116	15
117	17
118	9
119	999
120	89
121	7
131	12
137	15
144	28
145	50
146	30
147	25
161	24
162	31
174	7
190	197
191	25
