Mass Spectrum: 7,11-Dioxa-6-phospha-1,3,4-triazaspiro[5.5]undeca-1(6),4-diene-2-one, 9,9-dimethyl-3,5-diphenyl-
Formula: C19H20N3O3P
CAS: 209727-18-4
Molecular weight: 369
m/z	intensity
33	0
34	0
35	3
36	2
37	3
38	14
39	61
40	25
41	187
42	21
43	38
44	13
45	7
46	1
47	20
48	2
49	2
50	15
51	61
52	20
53	14
54	2
55	36
56	26
57	22
58	44
59	2
60	0
61	1
62	4
63	44
64	139
65	49
66	5
67	9
68	10
69	39
70	7
71	4
72	0
73	4
74	3
75	4
76	16
77	102
78	25
79	3
80	1
81	1
82	2
83	20
84	2
85	13
86	13
87	7
88	50
89	39
90	26
91	999
92	81
93	6
94	1
95	0
96	0
97	1
98	0
99	0
100	1
101	2
102	2
103	20
104	19
105	13
106	4
107	5
108	3
109	1
110	0
111	0
112	1
113	0
114	0
115	3
116	1
117	3
118	1
119	1
120	1
121	1
122	3
123	0
124	0
125	0
126	0
127	1
128	2
129	4
130	1
131	0
132	1
133	2
134	1
135	0
136	1
137	1
138	3
139	2
140	1
141	2
142	1
143	1
144	1
145	0
146	0
147	0
149	1
150	1
151	1
152	1
153	5
154	1
155	4
156	1
157	0
158	1
159	0
160	0
163	1
164	2
165	12
166	10
167	26
168	7
169	1
170	0
171	2
172	0
174	0
175	1
177	0
178	1
179	4
180	4
181	1
182	0
183	0
185	0
191	0
192	10
193	42
194	701
195	115
196	10
197	2
198	12
199	2
200	0
202	0
203	0
204	0
205	0
206	0
207	0
208	0
209	0
210	0
211	1
212	1
213	0
218	0
220	0
221	0
223	0
230	10
231	1
232	3
233	2
234	1
235	0
236	0
237	1
238	0
239	17
240	3
241	0
247	0
248	0
249	0
250	0
251	0
254	0
256	0
257	10
258	2
259	0
263	0
265	0
266	9
267	1
282	1
283	2
284	1
292	0
300	4
301	4
302	1
312	0
326	0
343	0
344	2
345	0
367	0
368	29
369	161
370	41
371	5
372	0
