Mass Spectrum: Cholestan-3-one, 4,4-dimethyl-, (5.alpha.)-
Formula: C29H50O
CAS: 2097-85-0
Molecular weight: 414
m/z	intensity
37	10
38	10
39	100
40	30
41	630
42	130
43	999
44	160
45	30
50	30
51	20
52	20
53	90
54	30
55	820
56	130
57	560
58	130
59	30
60	30
61	10
63	10
65	20
66	10
67	350
68	110
69	530
70	100
71	260
72	10
73	10
74	10
77	70
78	20
79	230
80	50
81	550
82	130
83	310
84	40
85	90
91	150
92	30
93	310
94	100
95	570
96	130
97	230
98	120
99	30
100	10
105	160
106	40
107	330
108	180
109	420
110	70
111	160
112	20
113	10
115	10
116	10
117	20
118	20
119	140
120	70
121	280
122	130
123	380
124	80
125	240
126	40
127	70
128	10
129	10
130	10
131	40
132	20
133	150
134	70
135	200
136	80
137	170
138	60
139	80
140	10
141	10
143	10
145	50
146	30
147	260
148	50
149	160
150	70
151	90
152	60
153	30
157	10
159	50
160	20
161	110
162	30
163	120
164	20
165	50
166	10
167	10
171	10
173	60
174	40
175	150
176	30
177	60
178	20
179	30
181	10
185	10
187	30
188	60
189	120
190	30
191	200
192	40
193	70
194	10
199	10
201	20
203	20
205	10
215	10
217	40
219	20
231	10
245	20
259	190
260	100
261	30
263	20
274	40
275	20
287	140
288	20
315	10
328	20
329	10
389	40
390	10
414	700
415	190
