Mass Spectrum: Benzo[b]selenophene, 2-methyl-
Formula: C9H8Se
CAS: 20984-22-9
Molecular weight: 196
m/z	intensity
63	117
74	35
75	37
76	17
89	140
97	66
98	60
113	71
114	66
115	999
116	206
117	80
191	133
192	237
193	417
194	375
195	588
196	671
197	164
198	144
199	31
