Mass Spectrum: 3-Hydroxy-17-.beta.-aminoestra-1,3,5(10)-triene
Formula: C18H25NO
CAS: 20989-33-7
Molecular weight: 271
m/z	intensity
30	130
36	87
38	33
39	22
43	55
52	14
56	999
58	173
68	9
77	22
92	35
107	48
113	40
114	26
122	18
128	24
131	37
133	85
148	78
149	67
158	68
159	108
160	65
173	35
174	14
197	63
198	14
199	31
200	11
212	137
213	242
214	61
226	65
227	11
236	14
237	3
254	247
255	37
271	374
272	94
