Mass Spectrum: Bufa-20,22-dienolide, 14,15-epoxy-3,19-dihydroxy-, (3.beta.,5.beta.,15.beta.)-
Formula: C24H32O5
CAS: 20987-26-2
Molecular weight: 400
m/z	intensity
41	523
42	47
43	166
44	476
45	28
46	7
47	7
50	28
51	76
52	40
53	171
54	28
55	388
56	28
57	95
58	9
59	19
60	9
63	19
65	185
66	154
67	357
68	47
69	114
70	19
71	40
73	19
74	19
75	28
76	59
77	566
78	195
79	845
80	104
81	507
82	85
83	104
84	19
85	28
86	7
87	7
88	7
89	40
90	19
91	999
92	123
93	485
94	226
95	350
96	66
97	66
98	9
99	9
102	30
103	95
104	85
105	673
106	142
107	457
108	104
109	166
110	47
111	38
112	9
113	9
115	207
116	104
117	350
118	104
119	340
120	78
121	257
122	161
123	319
124	76
125	38
126	9
127	59
128	195
129	319
130	135
131	571
132	104
133	300
134	154
135	154
136	66
137	88
138	9
139	28
140	11
141	166
142	95
143	247
144	104
145	397
146	142
147	278
148	114
149	250
150	47
151	71
152	47
153	104
154	66
155	166
156	59
157	226
158	104
159	257
160	102
161	285
162	76
163	57
164	28
165	85
166	57
167	76
168	59
169	104
170	38
171	166
172	76
173	173
174	76
175	95
176	40
177	40
178	57
179	76
180	28
181	85
182	40
183	114
184	59
185	278
186	66
187	104
188	95
189	66
190	38
191	76
192	40
193	66
194	28
195	95
196	47
197	142
198	66
199	161
200	76
201	376
202	114
203	114
204	76
205	88
206	28
207	47
208	19
209	88
210	38
211	135
212	66
213	388
214	104
215	95
216	38
217	66
218	28
219	47
220	19
221	66
222	28
223	85
224	38
225	76
226	59
227	66
228	47
229	66
230	40
231	228
232	66
233	40
234	19
235	40
236	19
237	59
238	19
239	66
240	38
241	38
242	19
243	28
244	19
245	40
246	19
247	28
248	19
249	347
250	88
251	42
252	19
253	28
254	40
255	28
256	28
257	28
258	19
259	40
260	19
261	28
262	9
263	28
264	19
265	19
266	19
267	59
268	19
269	19
270	28
271	19
272	7
273	28
275	9
276	19
277	40
278	19
279	19
280	7
281	19
282	300
283	95
284	19
285	9
286	9
287	28
288	9
289	28
290	9
291	28
292	7
293	19
294	7
295	369
296	135
297	40
299	9
300	535
301	95
302	19
303	19
304	9
305	19
306	19
307	47
308	28
309	28
310	19
311	7
312	7
313	557
314	207
315	47
317	9
318	19
319	19
320	9
321	28
322	19
323	59
324	28
325	40
326	9
328	28
329	9
331	19
332	7
333	95
334	47
335	38
336	66
337	19
338	19
339	19
341	9
342	9
346	19
347	11
349	19
350	40
351	357
352	238
353	66
354	40
355	9
356	9
364	95
365	28
366	11
367	19
368	38
369	85
370	76
371	19
372	19
382	238
383	47
384	9
400	261
401	114
402	19
