Mass Spectrum: (Carbomethoxymethyl)dimethylsulfonium bromide
Formula: C5H11BrO2S
CAS: 20986-22-5
Molecular weight: 214
m/z	intensity
26	3
27	138
29	92
30	7
31	24
33	1
34	3
35	192
36	2
37	8
39	0
40	20
41	7
42	101
43	156
44	11
45	172
46	124
47	163
48	17
49	7
50	0
55	0
56	0
57	6
58	12
59	219
60	27
61	999
62	151
63	54
64	6
65	0
69	0
72	108
73	4
74	693
75	29
76	3
77	2
78	0
79	18
80	5
81	15
82	5
87	2
88	10
89	31
90	1
91	25
92	19
93	132
94	348
95	110
96	316
97	4
100	0
101	0
104	0
105	2
108	33
109	0
110	34
111	0
118	1
120	456
121	55
122	23
123	52
124	1
132	0
133	1
134	0
135	0
152	37
153	1
154	36
155	1
