Mass Spectrum: Dichloroacetic acid, 2-phenylethyl ester
Formula: C10H10Cl2O2
CAS: 209982-02-5
Molecular weight: 232
m/z	intensity
36	12
39	12
50	8
51	23
52	8
63	11
65	36
76	11
77	54
78	31
79	41
83	29
85	20
89	12
90	6
91	246
92	23
102	6
103	61
104	999
105	430
106	32
111	5
113	5
