Mass Spectrum: Thiocyanic acid, 5.alpha.-cholestan-3.beta.-yl ester
Formula: C28H47NS
CAS: 20997-50-6
Molecular weight: 429
m/z	intensity
41	530
42	310
43	690
44	999
45	80
53	50
54	30
55	500
56	460
57	390
58	770
59	90
60	10
67	240
68	130
69	490
70	530
71	120
74	30
77	60
78	40
79	190
80	50
81	360
82	60
83	190
84	10
85	20
91	210
92	80
93	230
94	80
95	350
96	40
97	110
98	30
104	40
105	190
106	160
107	280
108	250
109	270
110	20
111	110
112	10
115	10
117	30
118	10
119	130
120	80
121	190
122	90
123	150
124	10
125	20
131	30
133	80
134	50
135	130
136	30
137	40
145	50
146	10
147	120
148	50
149	140
150	20
151	20
159	30
160	20
161	120
162	60
163	50
165	10
173	20
174	10
175	40
176	60
177	20
187	20
188	10
189	20
198	30
199	50
200	70
201	70
202	100
203	90
204	10
206	80
207	20
215	360
216	150
217	200
218	80
219	10
229	10
230	40
231	30
232	10
242	10
243	10
247	20
257	90
258	10
260	80
261	10
262	30
274	520
275	410
276	100
277	10
289	50
301	10
316	130
317	20
355	110
356	10
357	20
370	320
371	90
372	40
414	80
415	20
429	610
430	190
431	50
