Mass Spectrum: Cholestan-3-ol, 4-methyl-, (3.alpha.,4.alpha.,5.alpha.)-
Formula: C28H50O
CAS: 20997-67-5
Molecular weight: 402
m/z	intensity
38	9
39	59
41	169
42	89
43	999
45	9
53	9
54	9
55	169
56	39
57	139
58	419
59	9
67	79
68	29
69	129
70	39
71	79
77	19
78	9
79	39
80	19
81	119
82	39
83	79
84	19
85	39
91	49
92	9
93	49
94	29
95	149
96	39
97	79
98	9
99	9
101	9
105	39
106	19
107	59
108	39
109	79
110	19
111	49
112	9
113	9
117	9
119	29
120	9
121	69
122	29
123	49
124	19
125	29
131	19
133	119
134	29
135	79
136	29
137	29
138	49
139	19
141	9
145	19
147	29
148	9
149	59
150	9
151	19
152	9
159	9
161	29
162	29
163	29
165	9
167	9
173	9
175	19
176	9
177	9
178	9
179	49
180	29
181	9
187	19
189	9
191	9
192	9
193	9
198	9
199	19
200	29
201	19
202	29
204	19
215	19
229	89
230	29
231	39
232	9
233	19
244	9
245	19
246	29
247	129
248	99
249	19
262	49
263	19
369	59
370	19
384	39
385	29
387	89
388	29
401	9
402	289
403	99
404	19
