Mass Spectrum: Furan, 2-(1-pentenyl)-, (Z)-
Formula: C9H12O
CAS: 20992-60-3
Molecular weight: 136
m/z	intensity
22	2
23	3
25	1
26	4
27	115
28	107
29	22
31	1
33	6
35	9
37	7
38	23
39	156
40	18
41	46
42	4
43	4
45	3
46	8
49	2
50	28
51	88
52	39
53	71
54	5
55	26
57	11
59	1
61	3
62	3
63	29
64	19
65	54
66	44
67	18
68	27
71	9
74	10
75	16
76	6
77	265
78	49
79	355
80	28
81	31
82	4
84	11
88	2
89	8
91	41
92	7
93	11
94	268
95	11
98	4
99	9
101	2
103	4
104	5
105	4
106	4
107	999
108	44
110	5
116	7
117	2
118	1
119	2
121	14
122	1
136	187
137	12
