Mass Spectrum: Furan, 2-(1-pentenyl)-, (E)-
Formula: C9H12O
CAS: 20992-69-2
Molecular weight: 136
m/z	intensity
22	5
26	9
27	108
28	10
29	26
37	18
38	27
39	131
40	18
41	41
42	11
45	1
47	2
49	4
50	27
51	74
52	37
53	67
54	10
55	29
56	2
59	4
60	1
61	2
62	16
63	26
64	14
65	42
66	36
67	14
68	21
73	2
74	12
75	10
76	7
77	230
78	44
79	302
80	20
81	27
82	4
85	6
88	3
89	1
91	39
92	3
93	6
94	217
95	14
97	2
98	5
100	1
101	3
103	5
104	2
105	13
106	3
107	999
108	34
109	3
111	2
117	2
119	2
120	2
121	11
122	4
134	4
136	171
137	8
138	3
