Mass Spectrum: 2-Indanone, 4,5,6,7-tetrahydro-
Formula: C9H12O
CAS: 20990-33-4
Molecular weight: 136
m/z	intensity
39	301
41	153
54	114
67	127
79	642
80	338
81	35
93	999
94	96
108	904
109	88
136	435
137	48
