Mass Spectrum: 2-Ethylhexanoic acid, TMS derivative
Formula: C11H24O2Si
CAS: 209981-27-1
Molecular weight: 216
m/z	intensity
15	3
18	3
26	3
27	30
28	7
29	50
31	2
39	18
40	3
41	66
42	11
43	42
44	13
45	63
46	4
47	31
53	6
54	3
55	77
56	18
57	54
58	11
59	17
60	6
61	28
62	2
67	17
68	3
69	27
70	36
71	5
72	13
73	999
74	93
75	344
76	24
77	14
81	6
83	22
84	2
85	5
87	2
89	5
91	3
97	11
98	20
99	8
101	2
103	4
105	8
107	3
109	24
110	2
111	2
113	3
115	4
117	60
118	6
119	5
125	4
127	2
129	101
130	12
131	7
132	3
143	19
144	13
145	64
146	9
147	4
157	17
158	3
159	28
160	187
161	25
162	9
171	6
172	4
173	17
174	3
183	3
187	10
188	29
189	5
201	400
202	67
203	21
204	2
216	7
