Mass Spectrum: Pyrido[1,2-e][1,5]diazacycloheptadecin-5(6H)-one, 4-(4-aminobutyl)octadecahydro-, (R)-
Formula: C23H45N3O
CAS: 21008-79-7
Molecular weight: 379
m/z	intensity
51	25
52	22
53	53
54	83
55	598
56	277
57	185
58	85
59	14
60	25
61	13
64	7
65	25
66	11
67	124
68	114
69	262
70	562
71	79
72	318
73	40
74	11
75	14
76	24
77	42
78	9
79	31
80	37
81	105
82	266
83	277
84	437
85	57
86	33
87	31
88	11
93	18
94	33
95	66
96	559
97	529
98	635
99	70
100	16
101	103
102	11
107	11
108	25
109	50
110	672
111	175
112	116
113	50
114	20
115	38
116	16
118	7
119	25
120	11
121	48
122	59
123	999
124	359
125	96
126	66
127	40
128	14
129	38
130	11
135	9
136	31
137	25
138	72
139	29
140	64
141	83
142	24
143	9
148	3
149	11
150	24
151	14
152	53
153	48
154	46
155	18
156	9
164	11
165	29
166	22
167	55
168	33
169	18
170	9
179	11
180	33
181	22
182	42
183	57
184	27
185	13
186	9
193	9
194	29
195	24
196	13
197	3
207	11
208	33
209	14
210	79
211	33
212	20
213	11
217	9
218	18
219	64
220	25
221	22
222	16
223	51
224	14
225	5
236	7
237	24
238	16
239	7
249	7
250	13
251	22
252	7
253	33
254	11
264	11
265	25
266	77
267	37
268	14
278	13
279	37
280	33
281	14
282	7
283	33
284	11
293	11
294	14
295	13
296	29
297	64
298	20
299	11
305	3
306	14
307	72
308	50
309	42
310	14
311	9
320	13
321	44
322	44
323	14
324	11
334	11
335	64
336	133
337	33
338	13
347	11
348	24
349	146
350	72
351	29
352	9
362	11
363	27
364	13
365	5
377	14
378	37
379	959
380	251
381	33
382	11
