Mass Spectrum: Salicylic acid, propyl ether
Formula: C10H12O3
CAS: 2100-31-4
Molecular weight: 180
m/z	intensity
41	66
43	999
51	136
58	106
63	71
65	228
66	56
76	71
77	265
91	269
92	85
93	81
95	204
103	61
104	52
119	125
120	836
121	470
122	296
123	321
145	54
147	490
148	43
161	16
162	171
163	20
180	149
181	11
