Mass Spectrum: 1H-Pyrido[1,2-j][1,5,10]triazacyclodocosin-10(11H)-one, docosahydro-, (R)-
Formula: C23H45N3O
CAS: 21008-80-0
Molecular weight: 379
m/z	intensity
51	11
52	25
53	61
54	111
55	527
56	362
57	185
58	107
59	42
60	11
64	3
65	18
66	14
67	120
68	116
69	207
70	268
71	66
72	96
73	46
74	14
75	7
79	7
80	24
81	40
82	83
83	144
84	803
85	92
86	64
87	46
88	11
89	7
92	11
93	37
94	25
95	48
96	274
97	325
98	999
99	92
100	42
101	14
102	5
106	9
107	18
108	31
109	64
110	355
111	329
112	181
113	37
114	22
115	9
121	11
122	37
123	48
124	551
125	361
126	74
127	40
128	18
129	55
130	24
131	9
135	11
136	44
137	74
138	162
139	55
140	111
141	38
142	27
143	11
151	7
152	16
153	48
154	24
155	66
156	40
157	22
158	9
165	9
166	18
167	48
168	33
169	25
170	7
171	31
172	11
179	11
180	24
181	66
182	22
183	44
184	20
185	11
195	11
196	20
197	29
198	14
199	5
206	13
207	20
208	27
209	11
224	11
225	14
226	22
227	37
228	11
229	7
238	11
239	25
240	9
252	9
253	22
254	46
255	472
256	74
257	22
258	9
265	7
266	46
267	22
268	18
269	9
279	13
280	37
281	74
282	20
283	40
284	14
285	9
293	13
294	22
295	48
296	44
297	13
298	7
307	14
308	29
309	11
320	7
321	22
322	64
323	33
324	9
336	13
337	81
338	25
339	22
340	7
349	7
350	27
351	9
362	13
363	5
377	18
378	55
379	396
380	92
381	27
382	11
