Mass Spectrum: 5-(2-Thienyl)pentanoic acid
Formula: C9H12O2S
CAS: 21010-06-0
Molecular weight: 184
m/z	intensity
11	2
15	4
17	3
18	1
26	10
27	65
28	1
29	23
30	1
31	5
37	4
38	15
39	89
40	9
41	39
42	17
43	16
45	222
46	6
47	10
50	13
51	26
52	11
53	85
54	7
55	12
57	14
58	26
59	10
60	5
61	3
62	8
63	15
64	2
65	21
66	12
67	18
69	34
70	9
71	16
72	2
73	7
74	3
75	3
76	2
77	35
78	11
79	12
81	5
82	6
84	42
85	16
86	4
87	9
91	10
93	2
95	6
97	999
98	121
99	49
100	6
105	3
108	2
109	14
110	104
111	115
112	18
113	5
123	24
124	32
125	8
137	4
138	12
139	4
166	19
167	3
184	159
185	17
186	9
