Mass Spectrum: Benzene, 1-azido-3-bromo-
Formula: C6H4BrN3
CAS: 2101-89-5
Molecular weight: 197
m/z	intensity
25	10
26	40
27	30
28	70
36	20
37	150
38	190
39	360
40	30
45	60
49	30
50	140
51	60
52	30
60	10
61	70
62	130
63	430
64	200
65	20
73	10
74	40
75	40
76	30
79	20
80	20
81	30
82	20
87	20
88	30
89	30
90	999
91	70
117	10
119	10
169	230
170	20
171	230
172	20
197	70
199	60
