Mass Spectrum: 5-Methyl-2-methylamino-2-thiazoline
Formula: C5H10N2S
CAS: 21018-31-5
Molecular weight: 130
m/z	intensity
37	29
38	69
39	429
40	209
41	879
42	349
43	129
45	339
46	109
47	89
51	9
52	9
53	29
54	29
55	849
56	149
57	449
58	99
59	209
60	149
61	29
62	9
64	9
66	9
67	14
68	29
69	199
70	999
71	79
72	114
73	159
74	539
75	39
76	89
77	9
83	9
84	9
86	9
87	9
88	59
97	19
99	29
100	19
101	19
102	9
115	59
129	99
130	879
131	79
132	39
