Mass Spectrum: Pyridine, 3-fluoro-5-amino-
Formula: C5H5FN2
CAS: 210169-05-4
Molecular weight: 112
m/z	intensity
36	15
37	39
38	59
39	55
40	31
41	189
42	41
43	44
44	14
45	15
46	20
47	4
48	14
49	5
50	14
51	11
52	35
53	12
54	19
55	72
57	209
58	96
59	22
60	3
62	2
63	13
64	19
65	55
66	24
67	12
68	17
69	25
70	13
71	15
72	21
73	5
74	1
75	2
76	5
77	5
78	2
79	6
80	1
81	8
82	19
83	38
84	81
85	346
86	22
87	3
91	5
92	3
93	10
95	17
96	10
97	9
98	1
99	1
100	0
103	0
107	1
108	3
110	18
111	92
112	999
113	54
114	2
