Mass Spectrum: 4H-1,3,5-Oxadiazine, 4,4-di(trifluoromethyl)-2,6-bismorpholino-
Formula: C13H16F6N4O3
CAS: 210243-90-6
Molecular weight: 390
m/z	intensity
33	5
34	1
36	1
37	0
38	1
40	42
42	443
43	50
44	52
45	52
47	10
50	9
51	20
53	18
54	76
55	144
56	295
57	56
58	11
59	2
60	0
61	0
62	0
63	0
64	1
65	1
67	10
69	127
70	299
72	24
73	3
74	2
76	5
77	1
78	1
79	0
80	1
81	4
82	8
84	48
85	39
86	87
87	18
88	1
92	81
95	13
96	4
97	9
99	4
100	4
101	0
102	0
103	0
104	1
105	0
106	0
107	0
108	0
109	1
110	3
112	83
114	999
115	55
116	13
119	1
121	1
122	2
123	3
124	10
125	1
126	0
127	0
128	1
129	0
130	6
131	1
132	0
133	0
135	0
136	1
137	1
138	1
139	0
142	90
145	7
147	2
149	2
151	12
152	2
153	4
154	0
155	0
158	3
159	1
160	1
163	1
164	3
165	1
166	3
167	0
168	0
169	0
171	1
172	0
173	1
174	0
176	4
177	13
178	8
179	15
180	1
181	4
182	0
184	0
185	0
186	0
187	0
191	32
192	121
193	5
194	1
195	0
199	1
201	3
202	0
204	7
205	1
206	1
207	2
209	14
210	1
214	0
215	0
216	0
217	0
219	8
221	6
222	0
223	0
224	0
225	0
227	6
228	1
229	0
233	0
234	3
235	9
236	1
237	0
238	2
239	0
246	0
247	6
248	7
249	2
250	0
251	0
254	0
257	0
258	1
260	7
261	0
262	1
263	3
264	0
269	0
274	0
276	4
277	5
278	3
279	2
280	0
288	0
290	0
291	0
292	0
293	0
300	0
302	3
304	25
305	2
306	0
318	36
321	734
322	91
323	9
324	0
371	0
388	0
390	3
391	0
