Mass Spectrum: 1-Amino-2N-(bis-ethoxycarbonylvinylamin)-4-nitro-benzen
Formula: C14H17N3O6
CAS: 21025-46-7
Molecular weight: 323
m/z	intensity
12	5
14	7
15	35
16	5
19	12
25	2
26	32
27	313
28	96
29	999
30	69
31	29
32	0
37	3
38	9
39	27
40	8
41	30
42	23
43	52
44	15
45	49
46	6
47	3
50	12
51	60
52	122
53	106
54	23
55	7
58	2
60	3
61	2
62	12
63	48
64	48
65	42
66	18
67	15
68	18
69	28
70	10
71	11
74	5
75	13
76	35
77	61
78	96
79	57
80	29
81	5
86	4
87	23
88	8
89	10
90	36
91	72
92	25
93	9
94	12
95	3
96	5
97	2
98	2
99	3
101	7
102	35
103	44
104	52
105	57
106	27
107	8
108	3
113	4
114	5
115	19
116	7
117	28
118	360
119	51
120	6
121	2
125	3
127	1
128	12
129	56
130	49
131	54
132	22
133	23
134	29
135	6
137	3
138	1
142	3
143	7
144	13
145	13
146	7
147	16
148	27
149	4
153	4
155	1
156	26
157	39
158	51
159	16
160	10
161	4
163	9
164	904
165	87
166	9
170	1
171	2
172	5
173	24
174	5
175	18
176	10
177	24
178	3
184	9
185	4
186	11
187	11
188	12
189	5
190	2
202	62
203	465
204	159
205	47
206	14
207	2
215	13
216	3
218	1
221	39
222	5
230	22
231	110
232	47
233	12
234	35
235	4
248	49
249	15
250	3
259	7
260	4
261	3
262	6
263	1
276	20
277	200
278	68
279	10
280	1
293	2
294	1
323	123
324	19
325	2
