Mass Spectrum: Oxamide, N,N'-di(4-cyanophenyl)-
Formula: C16H10N4O2
CAS: 21022-47-9
Molecular weight: 290
m/z	intensity
36	2
38	24
39	27
40	24
41	17
42	1
43	9
44	15
50	22
51	42
52	30
54	1
57	1
58	2
62	9
63	78
64	68
65	20
66	2
67	0
74	9
75	82
76	58
77	11
78	8
87	3
88	12
89	41
90	219
91	120
92	9
93	1
99	3
100	4
102	373
103	31
104	7
105	1
116	75
117	393
118	999
119	78
120	7
128	0
129	15
130	25
131	10
132	29
133	1
142	4
144	101
145	693
146	174
147	15
148	3
150	3
159	2
160	5
161	3
171	7
173	4
175	2
188	1
189	4
231	1
236	1
245	1
252	0
287	1
290	573
291	105
292	9
