Mass Spectrum: Serine, N-(N-carboxyglycyl)-, N-ethyl methyl ester, L-
Formula: C9H16N2O6
CAS: 21026-90-4
Molecular weight: 248
m/z	intensity
101	230
102	999
103	360
104	70
105	20
107	20
109	10
110	20
111	30
112	20
113	40
114	60
115	50
116	20
117	20
118	30
119	10
120	30
125	70
126	20
127	30
128	30
129	50
130	570
131	80
132	30
140	30
143	80
144	30
145	10
146	30
147	80
148	20
149	60
157	20
158	40
159	30
160	30
161	20
163	20
164	10
167	20
168	30
169	20
170	20
171	120
172	30
173	20
174	20
185	70
186	360
187	30
188	20
189	100
199	30
203	60
215	40
216	120
217	550
218	50
219	10
228	30
229	30
230	220
231	20
