Mass Spectrum: l-Histidine,N-(N-benzoyl-l-.alpha.-glutamyl)-1-(ethoxycarbonyl)-,5-methyl ester,methyl ester
Formula: C23H28N4O8
CAS: 21024-50-0
Molecular weight: 488
m/z	intensity
105	999
106	596
136	366
149	229
154	615
164	174
167	237
182	541
195	389
196	282
224	842
225	313
226	701
227	283
240	145
242	138
268	981
269	175
279	52
286	41
294	26
296	26
314	28
320	26
351	131
352	33
365	33
373	27
383	97
386	28
397	101
400	34
411	52
412	69
425	132
426	34
456	351
457	173
488	217
489	59
