Mass Spectrum: Glutamine, N2-carboxy-N-[1-[(carboxymethyl)carbamoyl]-2-mercaptoethyl]-, N2-ethyl dimethyl ester, ethyl carbamate (ester), L-
Formula: C18H29N3O10S
CAS: 21026-92-6
Molecular weight: 479
m/z	intensity
54	92
55	238
56	323
57	84
58	43
59	206
60	69
61	51
66	42
67	51
68	64
69	75
70	80
71	80
73	41
74	204
75	65
76	115
77	43
81	55
82	365
83	140
84	999
85	99
86	48
87	48
88	150
90	182
91	43
95	15
96	70
97	46
98	107
99	52
100	49
101	46
102	146
109	62
110	239
111	81
112	78
113	49
114	70
115	63
116	82
120	40
123	39
124	37
126	47
128	99
129	46
140	39
142	547
143	90
144	399
145	47
148	906
149	56
150	36
156	275
157	53
158	43
159	44
170	71
172	40
174	106
175	59
213	69
214	52
216	363
217	57
317	120
331	49
363	115
364	40
