Mass Spectrum: 3-Benzoyl-perhydro-2-oxofuran
Formula: C11H10O3
CAS: 21034-21-9
Molecular weight: 190
m/z	intensity
17	1
18	8
26	2
27	13
28	4
29	4
37	1
38	3
39	16
40	2
41	12
42	1
43	1
44	1
45	1
49	1
50	23
51	83
52	6
53	5
54	1
55	15
57	1
58	5
59	1
61	1
62	3
63	6
64	5
65	3
66	1
68	2
69	8
72	5
73	1
74	9
75	8
76	13
77	331
78	44
79	3
81	1
83	1
84	1
85	14
86	1
87	1
89	3
91	3
95	2
102	2
103	5
104	9
105	999
106	82
107	5
113	7
114	1
115	9
116	4
117	3
120	1
121	1
122	2
127	3
128	1
129	1
131	9
132	10
133	18
134	2
144	16
145	9
146	5
147	3
160	1
162	61
163	7
171	4
172	3
189	6
190	146
191	17
192	2
