Mass Spectrum: 2-Pyridinemethanamine, N-methyl-
Formula: C7H10N2
CAS: 21035-59-6
Molecular weight: 122
m/z	intensity
21	0
25	0
26	9
27	29
28	66
29	6
30	28
31	0
33	0
37	3
38	14
39	71
40	10
41	14
42	50
43	15
44	262
45	7
46	0
49	2
50	19
51	50
52	45
53	28
54	7
55	3
56	7
57	1
58	15
59	0
60	8
61	1
62	5
63	16
64	10
65	59
66	38
67	11
68	2
69	0
70	0
71	0
72	0
73	0
74	0
75	2
76	4
77	2
78	43
79	41
80	88
81	5
82	9
83	2
84	29
85	1
87	0
88	0
89	0
90	0
91	2
92	76
93	999
94	95
95	4
96	0
97	0
98	0
103	0
104	1
105	7
106	1
107	34
108	6
109	0
118	1
119	5
120	0
121	33
122	8
123	0
