Mass Spectrum: Pentanenitrile, 3-oxo-2-phenylhydrazono-
Formula: C11H11N3O
CAS: 210366-71-5
Molecular weight: 201
m/z	intensity
33	16
39	168
40	85
41	25
43	16
44	29
51	151
52	33
53	2
55	26
56	3
57	575
58	18
63	22
64	39
65	248
66	31
68	10
70	4
77	999
78	89
90	5
91	46
92	115
93	177
94	15
104	4
105	276
106	16
116	3
118	30
119	5
144	35
172	19
186	2
201	448
202	51
