Mass Spectrum: Furazano[3,4-b]pyrazine-5,6-diamine, N,N'-di(propynyl)-
Formula: C10H8N6O
CAS: 210301-55-6
Molecular weight: 228
m/z	intensity
33	1
34	0
37	46
39	999
40	53
41	39
42	22
43	51
44	9
45	27
46	0
49	0
50	6
51	25
52	65
53	136
54	87
55	23
56	12
57	8
58	6
59	2
60	0
61	0
62	2
63	8
64	28
65	31
66	100
67	23
68	58
69	8
70	3
71	2
72	1
73	0
74	1
75	3
76	6
77	21
78	24
79	36
80	31
81	56
82	6
83	2
84	2
85	0
86	2
87	0
88	0
89	1
90	12
91	32
92	21
93	79
94	38
95	12
96	5
97	2
98	1
99	0
100	1
102	9
103	5
104	10
106	218
107	44
108	9
109	4
110	1
111	1
112	4
113	0
114	0
115	1
116	2
117	9
118	11
119	12
120	9
121	4
122	11
123	4
124	0
125	0
126	0
127	0
128	0
129	5
130	8
131	11
132	21
133	42
134	6
135	1
136	1
137	1
138	1
139	0
140	0
141	0
142	1
143	4
144	19
145	11
146	14
147	5
148	2
149	2
150	0
151	1
152	0
154	1
155	0
156	2
157	5
158	15
159	56
160	8
161	1
162	3
163	1
164	0
165	1
166	0
167	0
169	10
170	5
171	24
172	10
173	2
174	2
175	1
176	1
177	0
178	0
179	0
180	0
181	1
182	0
183	2
184	3
185	1
186	2
187	1
189	38
190	4
191	1
192	0
193	0
194	0
196	2
197	6
198	7
199	1
200	3
201	1
202	4
203	1
204	1
205	0
206	0
207	1
208	0
209	0
211	7
212	1
213	0
214	0
215	0
216	1
217	1
218	0
219	0
220	0
221	0
222	0
223	0
224	0
225	0
226	0
228	21
229	3
230	0
231	1
232	0
