Mass Spectrum: Furazano[3,4-b]pyrazine, 5-(4-chlorophenylamino)-6-methylamino-
Formula: C11H9ClN6O
CAS: 210302-06-0
Molecular weight: 276
m/z	intensity
33	10
35	7
36	10
37	16
38	46
39	68
40	57
42	419
43	41
45	28
46	2
47	3
49	15
50	132
51	93
53	364
55	118
57	154
59	9
60	7
61	23
62	31
63	96
64	44
65	20
67	999
68	75
69	38
70	5
71	3
72	9
73	48
74	53
75	391
77	71
78	28
79	12
80	15
82	106
83	72
84	23
85	32
87	21
88	20
89	20
90	68
91	19
92	9
93	12
94	30
95	5
96	1
97	5
98	9
99	56
100	16
101	23
102	102
103	11
104	0
105	4
106	15
107	1
108	6
109	56
111	406
113	147
114	11
115	2
116	6
117	10
118	15
119	6
120	2
121	1
122	3
123	8
125	36
126	63
127	54
128	20
129	13
130	1
131	14
132	1
133	2
134	0
135	0
136	3
137	39
138	166
139	68
140	39
141	16
142	6
143	8
144	5
147	1
148	6
149	0
150	4
151	21
152	41
153	54
154	13
155	16
156	5
158	3
159	1
162	0
163	65
165	42
166	11
167	2
168	6
169	6
170	1
171	2
172	1
177	22
178	122
179	20
180	36
181	3
182	5
183	2
184	2
185	0
188	0
190	5
191	2
192	12
193	2
194	7
195	0
196	7
197	0
198	0
199	1
200	6
202	1
204	46
205	40
206	18
207	14
208	2
209	0
210	12
211	11
212	4
213	2
217	3
218	0
219	9
220	10
221	5
222	1
224	2
226	1
229	15
230	4
231	6
232	0
233	2
234	1
235	2
237	1
240	0
241	10
242	1
244	4
245	7
246	46
247	6
248	16
249	2
250	1
259	0
261	0
262	1
263	5
264	1
265	0
266	3
268	1
270	0
275	25
276	310
277	57
278	98
279	14
280	1
