Mass Spectrum: Serine, methyl ester
Formula: C4H9NO3
CAS: 2104-89-4
Molecular weight: 119
m/z	intensity
28	336
29	174
30	256
31	190
32	129
33	132
42	327
43	84
44	115
45	26
46	23
56	20
57	67
58	49
59	70
60	999
61	39
70	16
71	24
72	19
74	110
85	38
86	104
87	18
88	648
89	163
90	13
99	21
100	47
101	41
105	13
