Mass Spectrum: Propanamide, N-(6,7-dihydro-6-oxo-1H-purin-2-yl)-2-methyl-
Formula: C9H11N5O2
CAS: 21047-89-2
Molecular weight: 221
m/z	intensity
26	9
27	174
28	183
29	9
38	7
39	66
40	15
41	189
42	59
43	999
44	47
52	6
53	154
54	80
55	65
56	9
58	14
65	3
66	3
67	7
68	23
69	60
70	68
71	170
72	9
79	15
80	20
81	23
82	14
83	7
95	2
96	4
97	3
106	7
107	6
108	32
109	181
110	137
111	7
122	4
123	12
124	4
134	78
135	73
136	38
150	13
151	886
152	341
153	25
177	10
178	48
179	3
192	2
193	17
221	470
222	72
223	6
