Mass Spectrum: 1H-Benzotriazole, 1-chloro-
Formula: C6H4ClN3
CAS: 21050-95-3
Molecular weight: 153
m/z	intensity
34	40
35	220
36	80
38	120
39	230
40	10
44	20
49	10
50	30
51	20
52	10
61	40
62	70
63	250
64	150
65	10
87	10
88	20
89	70
90	999
91	40
98	30
118	10
125	180
126	10
127	60
153	370
154	30
155	130
156	10
