Mass Spectrum: 1,2,4-Triazole, 5-cyclohexanecarboxamido-
Formula: C9H14N4O
CAS: 21051-17-2
Molecular weight: 194
m/z	intensity
33	0
34	0
35	0
36	1
37	1
38	6
39	111
40	36
41	282
42	46
43	54
44	12
45	1
46	0
47	0
48	0
49	0
50	6
51	14
52	10
53	64
54	63
55	614
56	39
57	15
58	2
59	1
60	1
61	0
62	0
63	2
64	1
65	10
66	7
67	49
68	22
69	19
70	2
71	1
72	1
73	4
74	0
75	0
76	0
77	13
78	4
79	23
80	4
81	31
83	999
84	137
85	100
86	4
87	0
89	0
90	0
91	2
92	1
93	1
94	0
95	2
96	1
97	2
98	1
99	1
100	0
102	0
103	0
104	0
105	0
106	0
107	0
109	4
110	27
111	271
112	20
113	1
114	0
115	0
117	0
118	0
119	0
120	1
121	0
122	0
123	1
124	0
125	0
126	1
127	0
128	1
129	0
133	0
134	0
135	0
137	0
138	0
139	4
140	0
144	0
146	0
147	0
148	0
149	0
150	0
151	0
152	0
153	0
159	0
160	0
161	0
163	0
165	0
166	0
171	0
177	0
178	0
192	0
193	1
194	52
195	6
196	0
