Mass Spectrum: 2(5H)-Furanone, 4-methyl-5-phenyl-
Formula: C11H10O2
CAS: 21053-63-4
Molecular weight: 174
m/z	intensity
12	4
13	5
14	10
15	32
17	6
18	20
25	3
26	27
27	104
28	22
29	41
36	2
37	28
38	86
39	470
40	313
41	252
42	29
43	15
44	8
45	4
49	11
50	156
51	352
52	63
53	79
54	6
55	9
56	3
57	7
58	8
61	13
62	38
63	88
64	27
65	39
66	8
67	33
68	343
69	340
70	20
71	4
72	4
73	16
74	49
75	37
76	40
77	460
78	71
79	23
83	6
85	6
86	10
87	13
88	6
89	40
90	9
91	50
92	4
96	149
97	43
98	8
99	3
101	6
102	25
103	24
104	8
105	999
106	82
107	27
108	2
113	7
114	7
115	156
116	27
117	76
118	20
119	4
122	5
126	5
127	30
128	58
129	56
130	8
131	78
132	11
133	3
144	4
145	263
146	37
147	5
159	11
160	2
173	14
174	523
175	64
176	1
