Mass Spectrum: .beta.-Ribofuranose, 1-deoxy-1-[pyrimidin-4-one-2-thione-1-yl]-2,3,6-tribenzoyl-
Formula: C30H24N2O8S
CAS: 21052-18-6
Molecular weight: 572
m/z	intensity
41	10
42	12
43	6
44	3
45	21
46	0
47	2
48	0
49	11
50	61
51	166
52	18
53	10
54	2
55	4
57	1
58	3
59	5
60	3
61	3
62	3
63	4
65	7
66	7
67	8
68	9
69	16
70	12
71	1
72	0
73	7
74	20
75	13
76	25
77	351
78	28
79	3
80	1
81	7
82	0
84	2
85	0
86	4
91	0
92	0
93	1
94	7
95	8
96	4
97	3
99	2
100	3
101	0
103	2
105	999
106	74
107	5
108	1
109	0
112	3
113	0
115	1
120	0
122	150
123	12
124	1
128	38
129	4
130	1
135	1
136	0
139	0
140	5
148	14
149	1
150	0
152	0
153	2
165	1
166	0
168	258
169	20
170	13
171	0
177	0
178	9
179	2
180	0
181	1
182	2
193	3
195	1
201	66
202	9
203	1
205	1
206	4
207	16
208	1
209	0
217	3
218	19
219	3
223	3
231	0
233	5
257	0
272	9
273	1
322	36
323	7
328	2
329	4
345	2
444	1
445	10
446	2
572	0
