Mass Spectrum: 1,5,9-Cyclododecatriene, 1,5,9-trimethyl-
Formula: C15H24
CAS: 21064-19-7
Molecular weight: 204
m/z	intensity
15	3
26	3
27	92
28	4
29	91
30	2
38	3
39	132
40	60
41	278
42	35
43	41
44	2
50	6
51	25
52	17
53	198
54	24
55	158
56	12
57	17
58	1
60	1
62	1
63	8
64	3
65	43
66	25
67	282
68	999
69	122
70	9
71	3
72	1
74	1
75	2
76	2
77	85
78	24
79	168
80	104
81	272
82	47
83	11
84	1
85	1
87	1
88	1
89	2
90	1
91	107
92	91
93	459
94	231
95	161
96	36
97	11
98	2
101	1
102	2
103	8
104	5
105	108
106	46
107	320
108	174
109	116
110	19
111	5
115	8
116	3
117	10
118	5
119	100
120	53
121	283
122	93
123	65
124	9
125	1
127	2
128	3
129	4
130	2
131	10
132	4
133	85
134	54
135	56
136	39
137	7
138	1
141	1
142	1
143	1
144	1
145	8
146	6
147	86
148	60
149	41
150	7
151	1
157	1
159	3
160	2
161	81
162	41
163	13
164	2
166	1
173	2
174	1
175	44
176	51
177	9
178	1
187	3
188	1
189	349
190	54
191	5
192	1
202	3
203	2
204	102
205	20
206	3
