Mass Spectrum: Guanidine, 1-(3,4-dichlorophenyl)-3-(4-((1-ethyl-3-piperidyl)amino)-6-methyl-2-pyrimidinyl)-
Formula: C19H25Cl2N7
CAS: 21062-28-2
Molecular weight: 421
m/z	intensity
41	28
42	128
43	54
44	34
45	4
53	8
54	9
55	20
56	31
57	47
58	15
65	2
66	13
67	30
68	22
69	13
70	23
71	4
72	55
73	3
75	1
78	2
79	1
80	7
81	7
82	20
83	13
84	14
85	5
89	5
92	3
93	4
94	4
95	5
96	327
97	27
98	8
99	0
102	0
104	0
106	2
107	5
108	23
109	16
110	49
111	999
112	92
113	3
118	23
119	1
121	0
122	0
123	3
124	22
125	50
126	4
130	3
133	2
134	8
135	5
137	4
145	7
147	6
148	2
149	31
150	32
151	8
152	0
160	2
161	9
162	2
163	10
174	6
175	2
176	18
177	7
186	3
187	5
188	5
189	5
190	0
191	0
202	6
203	6
204	2
206	2
210	1
211	2
212	2
294	13
295	1
296	8
310	3
311	152
313	104
314	13
315	15
316	1
320	0
337	0
420	6
421	9
422	5
423	6
425	0
