Mass Spectrum: 1-Phenyl-1-decanol
Formula: C16H26O
CAS: 21078-95-5
Molecular weight: 234
m/z	intensity
27	34
29	66
43	48
77	144
79	328
91	58
105	39
107	999
108	74
234	24
