Mass Spectrum: d-Galactitol, 1-O-octyl-
Formula: C14H30O6
CAS: 210762-10-0
Molecular weight: 294
m/z	intensity
26	5
27	88
28	17
29	162
30	5
31	91
33	1
37	0
38	0
39	35
40	35
41	249
42	65
43	390
44	68
45	140
46	4
47	5
49	3
50	0
51	1
52	1
53	15
54	10
55	148
56	72
57	647
58	43
59	11
60	67
61	252
62	9
63	2
65	1
66	2
67	13
68	12
69	103
70	41
71	401
72	24
73	999
74	145
75	52
76	2
77	4
78	0
79	2
80	1
81	10
82	11
83	29
84	21
85	83
86	19
87	28
88	4
89	9
90	1
91	138
92	6
93	2
94	0
95	3
96	1
97	23
98	7
99	16
100	2
101	3
102	3
103	261
104	18
105	6
106	0
107	0
109	1
110	12
111	46
112	26
113	45
114	5
115	66
116	12
117	17
118	1
119	0
121	5
122	0
123	1
124	0
125	0
126	0
127	2
128	2
129	17
130	2
131	1
132	2
133	218
134	11
135	2
137	1
139	0
140	0
141	23
142	3
143	28
144	3
145	1
146	7
147	2
149	0
151	4
153	0
155	1
156	0
158	3
159	1
165	2
167	0
168	0
169	0
172	0
173	31
174	3
183	1
185	39
186	10
187	1
197	1
198	1
201	0
203	45
204	6
205	0
215	2
216	0
227	4
228	0
233	16
234	1
245	18
246	2
