Mass Spectrum: Propanedioic acid, 3-thienyl-
Formula: C7H6O4S
CAS: 21080-92-2
Molecular weight: 186
m/z	intensity
12	1
16	4
17	1
18	3
26	3
27	10
28	14
29	2
32	2
37	5
38	9
39	26
40	1
41	4
42	2
43	1
44	232
45	150
46	6
47	10
48	10
49	4
50	13
51	20
52	8
53	67
54	3
55	4
57	9
58	12
59	3
60	1
61	3
62	5
63	8
64	1
65	2
68	3
69	36
70	17
71	14
72	2
81	5
82	6
83	1
84	1
85	13
86	1
87	1
92	1
93	4
95	9
96	22
97	999
98	74
99	48
100	4
111	2
113	6
114	7
124	18
125	4
126	1
141	3
142	430
143	32
144	21
145	1
186	6
