Mass Spectrum: 3'-O-Acetylthymidine
Formula: C12H16N2O6
CAS: 21090-30-2
Molecular weight: 284
m/z	intensity
13	1
14	5
15	38
16	1
17	2
18	8
25	1
26	10
27	63
28	73
29	35
30	5
31	63
32	1
37	2
38	8
39	68
40	32
41	92
42	39
43	613
44	41
45	20
47	1
48	1
50	1
51	5
52	13
53	33
54	71
55	130
56	17
57	21
58	2
59	5
60	8
61	54
62	2
64	1
65	4
66	7
67	17
68	55
69	971
70	77
71	40
72	4
73	18
74	1
77	2
78	2
79	2
80	28
81	77
82	35
83	44
84	13
85	8
86	8
87	3
91	9
92	3
93	5
94	10
95	4
96	7
97	17
98	48
99	999
100	60
101	6
106	1
108	5
109	12
110	53
111	4
112	6
113	8
115	11
116	2
117	8
121	1
122	24
123	4
124	2
125	3
126	219
127	91
128	7
129	5
134	1
136	2
138	9
139	2
140	6
141	3
150	68
151	8
152	6
153	35
154	8
155	2
156	3
158	6
159	234
160	19
161	3
162	2
164	3
165	5
166	1
168	5
169	1
180	1
181	17
182	18
183	3
193	55
194	9
195	2
196	1
201	1
206	4
211	2
224	6
225	1
253	11
254	2
284	26
285	5
