Mass Spectrum: Compactinervine, diacetate (ester)
Formula: C24H28N2O6
CAS: 2111-85-5
Molecular weight: 440
m/z	intensity
40	64
41	71
42	142
43	999
44	140
45	761
46	7
47	2
49	2
50	16
51	35
52	21
53	21
54	14
55	16
56	26
57	9
58	2
59	19
60	252
61	26
62	7
63	21
64	7
65	19
66	7
67	11
68	9
69	7
70	14
71	4
73	9
74	7
75	14
76	16
77	42
78	19
79	16
80	14
81	7
82	9
83	4
84	2
85	2
86	2
87	7
88	16
89	16
90	9
91	19
92	9
93	14
94	14
95	11
96	4
97	2
98	2
99	2
100	2
101	14
102	31
103	14
104	19
105	26
106	26
107	9
108	7
109	7
110	4
111	2
112	2
113	14
114	11
115	35
116	26
117	19
118	11
119	109
120	31
121	9
122	11
123	14
124	2
125	4
126	4
127	19
128	28
129	23
130	54
131	9
132	9
133	2
136	2
137	2
138	4
139	19
140	16
141	9
142	11
143	19
144	28
145	4
146	2
149	2
150	2
151	11
152	16
153	16
154	50
155	28
156	64
157	28
158	11
159	2
160	19
161	2
163	7
164	14
165	23
166	35
167	78
168	31
169	19
170	14
171	9
172	4
175	2
176	7
177	14
178	23
179	35
180	47
181	23
182	21
183	26
184	16
185	2
188	4
189	4
190	16
191	28
192	31
193	28
194	38
195	14
196	7
197	2
200	7
201	7
202	11
203	21
204	78
205	50
206	52
207	26
208	19
209	14
210	7
211	4
213	4
214	21
215	19
216	19
217	35
218	42
219	47
220	26
221	11
222	7
223	7
224	4
225	14
226	31
227	14
228	11
229	11
230	16
231	28
232	50
233	76
234	52
235	16
236	7
237	4
238	16
239	14
240	9
241	7
242	7
243	9
244	9
245	23
246	16
247	11
248	7
249	7
250	26
251	16
252	11
253	7
254	4
255	4
256	4
257	7
258	9
259	45
260	57
261	100
262	31
263	11
264	16
265	21
266	9
267	4
268	14
269	4
273	7
276	7
277	9
278	11
279	7
281	4
286	4
287	28
288	33
289	35
290	9
291	16
292	14
293	178
294	40
295	7
305	21
306	7
307	14
308	4
312	4
318	4
319	21
320	242
321	128
322	33
323	9
324	54
325	9
326	4
337	9
338	7
341	4
357	19
358	11
359	9
361	7
365	23
366	9
367	7
379	11
380	135
381	47
382	11
397	9
440	9
