Mass Spectrum: Compactinervine, N-acetyl-2,16-dihydro-, diacetate (ester)
Formula: C26H32N2O7
CAS: 2111-91-3
Molecular weight: 484
m/z	intensity
40	18
41	72
42	81
43	999
44	81
45	545
46	4
47	4
50	9
51	31
52	22
53	27
54	22
55	22
56	9
57	4
59	18
60	277
61	13
62	4
63	13
64	4
65	27
66	9
67	13
68	4
69	9
70	4
71	4
73	22
74	4
75	4
76	4
77	59
78	31
79	27
80	18
81	9
82	4
87	4
88	4
89	9
90	9
91	54
92	13
93	22
94	9
96	18
101	4
102	9
103	22
104	18
105	36
106	45
107	4
115	40
116	13
117	36
118	31
119	154
120	22
121	4
127	9
128	22
129	18
130	54
131	13
132	63
133	27
134	9
135	4
140	4
142	4
143	77
144	454
145	59
154	9
155	4
156	31
157	13
160	4
166	4
167	13
168	9
170	4
177	4
180	9
185	18
186	40
187	4
191	9
192	63
193	18
194	9
204	4
206	4
207	22
208	4
216	4
233	4
247	9
252	4
278	4
281	4
289	9
291	163
292	36
293	4
305	4
321	4
333	4
334	4
364	177
365	59
366	4
