Mass Spectrum: (-)-4-Isopropenyl-1-cyclohexene-1-carbaldehyde semicarbazone
Formula: C11H17N3O
CAS: 2111-74-2
Molecular weight: 207
m/z	intensity
12	1
13	2
14	2
15	9
16	22
17	82
18	10
25	1
26	21
27	175
28	164
29	57
30	57
31	8
32	1
37	6
38	17
39	211
40	71
41	315
42	134
43	307
44	120
45	17
46	2
49	1
50	26
51	91
52	72
53	207
54	75
55	213
56	52
57	20
58	18
59	6
60	107
61	933
62	25
63	33
64	17
65	133
66	73
67	288
68	613
69	183
70	27
71	22
72	7
73	4
74	11
75	17
76	20
77	235
78	108
79	293
80	826
81	257
82	453
83	59
84	11
85	9
86	27
87	6
88	11
89	17
90	12
91	310
92	162
93	170
94	136
95	999
96	216
97	39
98	6
99	3
100	2
101	10
102	20
103	84
104	149
105	417
106	236
107	103
108	85
109	56
110	9
111	5
112	6
113	3
114	16
115	53
116	46
117	134
118	116
119	129
120	138
121	158
122	82
123	161
124	17
125	24
126	4
127	6
128	21
129	21
130	72
131	91
132	239
133	166
134	54
135	54
136	33
137	20
138	15
139	8
140	8
141	5
142	14
143	27
144	38
145	41
146	154
147	234
148	365
149	110
150	10
151	6
152	22
153	3
154	1
155	2
157	2
158	3
159	2
160	4
161	9
162	8
163	216
164	360
165	47
166	195
167	20
168	2
169	1
173	1
174	1
175	7
176	1
178	7
179	7
180	1
181	1
189	4
190	8
191	2
192	9
193	1
206	5
207	201
208	36
209	5
