Mass Spectrum: Curan-17-oic acid, 19,20-dihydroxy-, methyl ester, (19S)-
Formula: C20H26N2O4
CAS: 2111-90-2
Molecular weight: 358
m/z	intensity
55	798
56	578
57	999
58	201
59	210
60	850
61	166
62	35
63	61
64	43
65	105
66	52
67	298
68	236
69	649
70	631
71	605
72	96
73	166
74	61
75	43
76	35
77	228
78	87
79	140
80	184
81	368
82	315
83	421
84	245
85	350
86	61
87	87
88	35
89	61
90	52
91	166
92	70
93	114
94	175
95	289
96	201
97	368
98	157
99	175
100	96
101	157
102	78
103	105
104	52
105	105
106	78
107	96
108	105
109	175
110	166
111	201
112	131
113	105
114	43
115	175
116	61
117	131
118	61
119	78
120	52
121	70
122	70
123	114
124	78
125	105
126	61
127	87
128	96
129	105
130	605
131	271
132	70
133	52
134	43
135	70
136	61
137	70
138	52
139	61
140	175
141	122
142	87
143	403
144	947
145	140
146	35
147	35
148	35
149	61
150	43
151	52
152	96
153	43
154	140
155	70
156	131
157	61
158	78
159	35
163	35
165	43
166	70
167	105
168	96
169	70
170	61
171	52
178	35
179	35
180	61
181	52
182	61
183	52
184	70
185	61
191	35
192	35
193	43
194	52
195	35
196	87
197	43
198	35
199	245
200	70
201	26
202	35
208	35
209	35
210	52
211	26
216	43
223	35
225	35
226	35
227	35
228	894
229	131
230	35
239	35
240	35
241	35
242	35
270	78
271	35
281	43
285	61
286	43
313	43
326	52
327	43
341	43
358	78
359	52
