Mass Spectrum: Strychane, 1-acetyl-20.alpha.-hydroxy-16-methylene-
Formula: C21H26N2O2
CAS: 2111-98-0
Molecular weight: 338
m/z	intensity
50	18
51	43
52	25
53	106
54	87
55	575
56	287
57	875
58	143
59	62
60	431
61	812
62	37
63	31
64	12
65	56
66	31
67	193
68	131
69	450
70	999
71	362
72	50
73	400
74	37
75	25
76	18
77	100
78	37
79	75
80	50
81	200
82	162
83	225
84	118
85	168
86	31
87	68
88	256
89	43
90	18
91	75
92	31
93	68
94	62
95	118
96	100
97	168
98	75
99	62
100	43
101	37
102	31
103	25
104	12
105	37
106	31
107	43
108	62
109	75
110	75
111	87
112	37
113	43
114	25
115	100
116	31
117	43
118	25
119	31
120	31
121	37
122	31
123	50
124	31
125	50
126	31
127	50
128	43
129	56
130	106
131	31
132	18
133	18
134	25
135	25
136	25
137	31
138	31
139	31
140	31
141	18
142	18
143	75
144	106
145	25
146	18
147	18
148	18
149	31
150	12
151	18
152	31
153	25
154	31
155	31
156	31
157	25
158	18
159	12
163	6
164	6
165	18
166	131
167	81
168	50
169	43
170	31
171	25
172	25
173	18
174	6
175	12
176	6
177	6
178	18
179	18
180	87
181	68
182	112
183	75
184	56
185	56
186	18
187	12
189	12
190	37
191	18
192	25
193	37
194	75
195	43
196	93
197	37
198	25
199	18
200	12
201	6
202	12
203	6
204	18
205	12
206	18
207	18
208	62
209	37
210	68
211	43
212	12
213	18
214	12
215	12
217	6
218	6
219	12
220	25
221	12
222	50
223	43
224	62
225	37
226	31
227	25
228	18
229	12
233	12
234	12
235	18
236	25
237	43
238	56
239	106
240	43
241	31
242	12
243	12
248	12
249	12
250	18
251	18
252	37
253	43
254	31
255	12
256	18
263	12
264	12
265	18
266	43
267	43
268	18
277	12
278	12
279	37
280	31
281	637
282	143
283	25
291	18
292	18
293	12
295	68
296	31
297	12
309	31
310	25
321	37
322	18
323	25
336	25
337	31
338	168
339	50
