Mass Spectrum: Curan-17-oic acid, 19-(acetyloxy)-2,16-didehydro-20-hydroxy-, methyl ester, (19S)-
Formula: C22H26N2O5
CAS: 2111-86-6
Molecular weight: 398
m/z	intensity
41	369
42	254
43	999
44	948
45	452
46	24
47	8
48	28
50	32
51	41
52	28
53	49
54	41
55	254
56	176
57	348
58	90
59	41
60	410
61	32
62	4
63	12
64	32
65	24
66	8
67	53
68	36
69	127
70	106
71	135
72	20
73	32
74	28
75	8
76	8
77	41
78	20
79	32
80	24
81	69
82	49
83	102
84	53
85	155
86	24
87	28
88	8
89	20
90	8
91	28
92	20
93	32
94	32
95	61
96	45
97	90
98	49
99	61
100	65
101	94
102	36
103	20
104	12
105	28
106	24
107	28
108	24
109	57
110	49
111	69
112	32
113	90
114	24
115	36
116	24
117	24
118	8
119	32
120	8
121	24
122	28
123	28
124	28
125	82
126	20
127	32
128	32
129	28
130	32
131	16
133	4
135	8
136	4
137	20
138	16
139	36
140	28
141	61
142	16
143	28
144	20
145	4
149	12
151	12
152	24
153	24
154	45
155	24
156	49
157	24
158	4
164	12
165	28
166	53
167	123
168	57
169	32
170	12
171	28
178	16
179	20
180	69
181	41
182	49
183	24
184	16
185	8
191	12
192	16
193	36
194	86
195	28
196	24
197	8
198	53
199	90
200	114
201	73
202	147
204	45
205	12
206	24
207	28
208	32
209	45
210	20
211	28
212	8
213	8
214	24
215	20
216	16
217	8
218	8
219	12
220	12
221	16
222	16
223	20
224	16
225	86
226	110
227	45
228	32
229	8
232	8
233	12
234	12
235	12
236	20
237	12
238	32
239	28
240	28
241	28
242	20
249	16
250	36
251	28
252	28
253	16
254	16
255	16
261	8
262	8
263	8
264	8
265	8
266	8
267	8
268	32
269	16
279	24
280	8
281	32
282	20
283	36
284	8
293	12
294	20
295	16
296	16
299	20
306	12
307	24
308	12
310	20
320	24
323	20
338	36
339	24
398	36
