Mass Spectrum: 1,3-Oxathiole, 5-phenyl-, 3,3-dioxide
Formula: C9H8O3S
CAS: 21120-03-6
Molecular weight: 196
m/z	intensity
74	79
75	71
76	196
77	152
78	47
89	57
90	81
94	85
102	999
103	101
105	192
118	615
119	49
196	536
197	59
198	33
