Mass Spectrum: Ethane, 1-(2-chloroethoxy)-2-(o-tolyloxy)-
Formula: C11H15ClO2
CAS: 21120-80-9
Molecular weight: 214
m/z	intensity
14	2
15	9
18	4
19	6
26	6
27	189
28	42
29	17
30	2
31	10
32	4
36	2
37	1
38	6
39	61
40	6
41	17
42	3
43	37
44	9
45	458
46	11
47	1
49	9
50	17
51	53
52	30
53	26
54	2
55	4
57	3
58	2
59	3
60	2
61	3
62	16
63	999
64	35
65	415
66	21
67	8
68	3
71	2
74	4
75	3
76	3
77	131
78	52
79	67
80	40
81	4
82	37
85	3
86	2
89	31
90	48
91	374
92	34
93	34
94	9
105	15
106	24
107	540
108	874
109	180
110	9
114	5
115	1
116	6
118	12
119	4
120	91
121	11
122	1
124	2
130	1
132	20
133	15
134	68
135	9
140	7
146	3
148	1
151	2
165	22
166	2
214	428
215	53
216	142
217	17
218	2
