Mass Spectrum: 1,3-Oxathiole, 4-methyl-5-phenyl-, 3,3-dioxide
Formula: C10H10O3S
CAS: 21120-04-7
Molecular weight: 210
m/z	intensity
77	122
78	79
89	112
94	213
104	53
105	182
114	41
115	999
116	619
117	41
132	162
210	534
211	61
212	27
