Mass Spectrum: m-Toluic acid, 2-methylphenyl ester
Formula: C15H14O2
CAS: 21121-93-7
Molecular weight: 226
m/z	intensity
26	5
27	19
29	3
39	58
40	6
41	17
43	4
50	21
51	45
52	20
53	15
55	3
62	11
63	45
64	11
65	106
66	10
69	9
73	3
74	4
75	5
77	46
78	16
79	18
89	30
90	28
91	348
92	30
93	3
105	9
106	3
107	17
108	7
118	12
119	999
120	90
121	8
135	10
136	12
137	4
226	33
227	5
