Mass Spectrum: Benzaldehyde, bis(phenylmethyl)hydrazone
Formula: C21H20N2
CAS: 21136-32-3
Molecular weight: 300
m/z	intensity
27	10
29	8
39	28
41	22
42	8
43	20
51	26
55	13
57	26
63	15
65	95
71	16
77	46
89	41
90	67
91	999
92	95
103	90
104	19
153	15
165	56
166	113
167	22
178	10
179	36
180	14
181	223
182	36
209	21
223	14
300	564
301	144
302	16
