Mass Spectrum: Sulfoxide, methyl .beta.-methylstyryl
Formula: C10H12OS
CAS: 21147-09-1
Molecular weight: 180
m/z	intensity
51	220
65	160
77	140
89	140
91	490
105	240
115	999
116	430
117	759
132	130
133	190
137	162
150	70
163	30
164	40
165	90
180	440
