Mass Spectrum: 1,2,3,4,11,11a(6H)-Hexahydropyrimido[1,2-b]isoquinolin-2-one
Formula: C12H14N2O
CAS: 21140-02-3
Molecular weight: 202
m/z	intensity
41	15
42	32
43	11
44	12
45	4
50	14
51	43
52	19
53	8
54	17
55	45
56	5
57	4
59	4
62	6
63	25
64	8
65	30
67	1
69	5
70	5
71	2
72	7
73	2
74	4
75	7
76	11
77	88
78	131
79	19
80	2
84	7
86	3
87	7
88	1
89	21
90	11
91	22
92	3
93	2
97	86
98	5
99	3
101	6
102	26
103	158
104	999
105	196
106	29
107	2
110	0
114	0
115	16
116	11
117	19
118	11
119	4
120	4
127	1
128	13
129	19
130	115
131	17
132	9
133	2
142	1
143	12
144	13
145	12
146	4
147	27
148	3
156	3
157	2
158	13
159	11
160	1
171	2
172	1
173	2
185	2
187	10
200	4
201	94
202	382
203	67
204	6
