Mass Spectrum: 11,12-Dihydroxy-6,14-dimethyl-1,7-dioxacyclotetradeca-3,9-diene-2,8-dione
Formula: C14H20O6
CAS: 21142-67-6
Molecular weight: 284
m/z	intensity
25	0
26	7
27	80
28	22
29	48
30	4
31	19
34	0
36	0
37	0
38	4
39	91
40	49
41	176
42	32
43	156
44	14
45	72
46	1
47	4
50	1
51	5
52	3
53	42
54	15
55	162
56	94
57	109
58	8
59	10
60	14
61	8
62	12
63	1
64	0
65	14
66	10
67	116
68	434
69	85
70	11
71	306
72	19
73	74
74	3
75	2
77	3
78	1
79	6
80	4
81	63
82	14
83	53
84	623
85	84
86	219
87	17
88	1
89	5
90	9
91	4
92	1
93	4
94	6
95	558
96	144
97	37
98	5
99	28
100	4
101	21
102	187
103	11
104	1
105	2
106	1
107	3
108	2
109	20
110	21
111	25
112	14
113	999
114	156
115	21
116	1
117	1
118	5
119	3
120	1
121	4
122	1
123	3
124	1
125	3
126	2
127	25
128	5
129	3
130	1
131	12
132	1
133	1
134	0
135	1
136	8
137	154
138	31
139	8
140	1
141	2
142	0
143	0
145	1
146	0
147	0
148	0
153	3
154	10
155	90
156	212
157	21
158	2
159	1
161	0
162	0
163	0
164	0
165	1
166	0
167	1
168	0
169	0
170	0
171	1
172	9
173	3
174	0
177	0
178	1
179	0
180	2
181	0
182	0
183	56
184	8
185	5
186	0
187	0
191	0
193	0
194	0
195	2
196	20
197	2
198	0
199	2
200	0
201	77
202	9
203	1
204	0
205	0
206	0
208	0
209	0
210	0
211	0
212	0
213	0
214	1
215	0
219	0
220	0
221	0
222	5
223	1
225	0
239	0
240	12
241	2
242	0
255	0
