Mass Spectrum: 1H-Imidazole-4-ethanamine, .beta.,.beta.-dimethyl-
Formula: C7H13N3
CAS: 21150-01-6
Molecular weight: 139
m/z	intensity
28	150
29	50
30	280
39	120
41	120
42	90
43	20
53	50
54	40
55	100
56	20
66	40
67	70
68	70
69	120
80	50
81	120
82	100
83	20
93	60
94	40
95	230
96	30
107	30
108	60
109	989
110	999
111	120
122	10
123	10
124	20
139	20
140	10
