Mass Spectrum: Copper, bis(3-acetyl-2,4-pentanedionato)-
Formula: C14H18CuO6
CAS: 21158-02-1
Molecular weight: 345
m/z	intensity
24	2
26	13
27	40
29	40
30	12
31	128
37	2
38	6
39	28
40	24
41	20
42	34
43	999
44	22
45	8
46	1
50	3
51	4
52	2
53	8
54	1
55	29
56	2
57	2
58	1
60	2
62	1
63	90
65	42
66	3
67	67
68	5
69	13
70	2
71	4
72	1
77	2
81	8
82	20
83	7
84	3
85	251
86	12
87	1
89	10
90	3
91	12
92	1
93	3
95	5
96	1
97	3
98	1
99	13
100	19
101	11
102	7
103	25
104	11
105	119
106	6
107	58
108	1
109	15
113	14
114	1
115	4
117	7
118	2
119	10
120	2
121	5
122	1
123	52
124	15
125	21
126	1
127	79
128	7
129	8
131	21
132	3
133	18
134	2
135	4
137	2
140	4
141	154
142	55
143	6
144	4
145	16
146	5
147	320
148	15
149	135
150	6
151	1
155	2
157	2
158	4
159	3
160	2
161	13
162	11
163	46
164	9
165	17
166	1
173	2
175	66
176	6
177	29
178	2
179	5
181	1
183	1
185	4
186	1
187	22
188	4
189	778
190	52
191	330
192	26
193	3
197	2
198	1
199	1
200	2
201	3
202	2
203	589
204	67
205	339
206	35
207	35
208	2
213	1
217	1
219	2
220	2
221	1
222	1
225	1
227	1
231	3
233	1
242	2
243	12
244	2
245	8
246	12
247	2
248	6
249	2
250	1
260	1
261	2
263	1
267	1
273	6
274	1
275	2
285	10
286	1
287	6
288	23
289	4
290	10
291	1
303	16
304	2
305	6
306	1
315	22
316	4
317	9
318	3
327	1
330	136
331	22
332	62
333	8
334	1
338	1
345	93
346	17
347	47
348	8
349	1
