Mass Spectrum: Copper, bis(3-benzoyl-2,4-pentanedionato-O2,O4)-
Formula: C24H22CuO6
CAS: 21158-04-3
Molecular weight: 469
m/z	intensity
27	39
28	11
29	6
30	0
31	1
35	0
37	1
38	6
39	29
40	0
41	7
42	14
43	520
44	8
45	1
49	0
50	28
51	118
52	8
53	4
54	0
55	37
56	1
57	0
58	0
59	0
61	1
62	5
63	62
64	2
65	27
66	3
67	24
68	1
69	44
70	1
71	1
73	1
74	7
75	9
76	14
77	396
78	35
79	4
80	0
81	1
82	0
83	4
84	1
85	40
86	3
87	2
88	1
89	23
90	6
91	38
92	4
93	1
94	5
95	0
96	0
97	1
98	1
99	0
100	0
101	3
102	4
103	10
104	3
105	999
106	69
107	12
108	0
109	11
110	0
111	1
112	0
113	3
114	1
115	22
116	6
117	2
118	5
119	4
120	1
121	2
122	1
123	0
125	20
126	2
127	11
128	4
129	41
130	4
131	8
132	2
133	12
134	1
135	20
136	1
137	0
138	0
139	4
140	14
141	6
142	6
143	4
144	2
145	4
146	1
147	88
148	4
149	40
150	1
151	1
152	1
153	6
154	3
155	8
156	5
157	5
158	2
159	3
160	1
161	123
162	24
163	2
164	1
165	11
166	1
167	9
168	1
169	1
170	0
171	7
172	1
173	2
174	3
175	7
176	1
177	3
178	1
179	4
180	2
181	5
182	4
183	4
184	3
185	76
186	15
187	15
188	2
189	42
190	4
191	17
192	1
193	2
194	1
195	8
196	1
197	2
198	0
199	0
201	2
202	3
203	205
204	65
205	7
206	2
207	9
208	2
209	51
210	5
211	24
212	2
213	0
217	0
218	0
219	1
220	6
221	4
222	4
223	63
224	11
225	38
226	12
227	4
228	0
229	0
231	0
232	0
233	2
234	0
235	1
236	5
237	16
238	22
239	13
240	9
241	4
242	0
243	1
244	0
245	0
246	0
247	6
248	1
249	56
250	8
251	234
252	29
253	100
254	11
255	2
256	0
257	0
258	0
260	0
261	1
262	1
263	2
264	1
265	457
266	69
267	379
268	58
269	83
270	13
271	1
273	3
274	0
275	1
276	0
277	0
279	0
281	0
282	0
283	5
284	1
285	3
287	0
289	0
291	0
293	0
294	0
295	0
299	0
301	0
303	0
305	3
306	0
307	1
308	0
309	0
310	0
311	0
312	0
313	0
315	0
321	0
323	0
325	0
327	0
328	0
329	1
330	0
331	0
332	0
333	1
335	25
336	3
337	10
338	1
339	0
342	0
343	0
345	0
346	0
347	1
348	0
349	2
350	1
351	0
352	0
363	1
365	1
366	0
367	1
368	0
369	0
370	0
375	0
377	0
380	0
385	0
391	0
392	3
393	1
394	2
395	0
407	0
408	0
409	2
410	0
411	1
412	2
413	0
414	0
415	0
416	0
425	2
426	1
427	4
428	1
429	1
433	1
434	0
440	0
441	0
442	0
450	0
453	1
454	22
455	5
456	9
457	3
458	1
462	0
464	0
465	0
468	1
469	110
470	28
471	48
472	12
473	2
474	0
