Mass Spectrum: Hydrazinecarboximidamide, nitrate
Formula: CH7N5O3
CAS: 21150-30-1
Molecular weight: 137
m/z	intensity
12	31
13	62
14	13
15	29
16	130
17	62
26	17
27	54
28	82
29	158
30	637
31	313
32	340
35	24
36	11
41	49
42	245
43	858
44	162
46	999
47	17
51	1
57	161
58	33
59	22
63	30
73	17
74	459
75	15
