Mass Spectrum: 3-Bromo-4-hydroxy-5H-furan-2-one
Formula: C4H3BrO3
CAS: 21151-51-9
Molecular weight: 178
m/z	intensity
36	80
37	186
38	97
39	9
40	236
41	999
42	512
43	117
44	103
45	57
52	52
53	163
54	74
55	138
56	12
68	164
69	962
70	59
71	24
79	318
80	39
81	317
82	40
91	148
92	83
93	209
94	79
95	51
103	9
104	14
105	44
106	101
107	38
108	66
119	41
120	472
121	261
122	472
123	253
133	7
134	7
135	7
148	43
149	954
150	88
151	950
152	82
153	3
178	513
179	45
180	502
181	45
182	2
