Mass Spectrum: 1,2-Dimethyl-3-tert.-butyldiaziridine
Formula: C7H16N2
CAS: 211569-01-6
Molecular weight: 128
m/z	intensity
15	197
27	110
28	35
29	141
30	116
38	15
39	163
40	29
41	297
42	999
43	630
44	79
45	15
51	20
52	11
53	52
54	18
55	210
56	291
57	427
58	67
59	201
60	11
67	48
68	61
69	52
70	72
71	193
72	962
73	48
81	44
82	220
83	51
84	182
85	86
86	50
96	22
97	54
98	53
109	69
113	292
114	18
127	15
128	17
129	2
