Mass Spectrum: 1,2-Dimethyl-3-ethyldiaziridine
Formula: C5H12N2
CAS: 211568-96-6
Molecular weight: 100
m/z	intensity
26	33
27	164
28	73
29	71
30	65
37	15
38	35
39	174
40	60
41	172
42	845
43	384
44	126
45	22
52	23
53	11
54	62
55	70
56	309
57	124
58	155
59	47
60	6
68	142
69	83
70	999
71	445
72	27
73	5
83	22
85	617
86	28
87	3
99	121
100	54
101	16
