Mass Spectrum: Piperidine N-ethyl-4-[1-aminoethyl]-
Formula: C9H20N2
CAS: 21168-70-7
Molecular weight: 156
m/z	intensity
41	196
42	459
44	999
45	31
46	4
47	0
48	1
49	2
50	1
51	8
53	63
55	338
56	208
58	453
59	12
61	4
63	17
65	10
67	43
68	52
69	49
70	148
71	195
72	86
73	9
74	6
75	1
77	8
79	16
80	28
81	20
82	91
84	384
85	40
86	17
87	2
89	0
91	5
93	13
94	20
96	115
97	55
98	245
99	19
100	4
101	1
105	0
106	3
108	46
110	181
112	159
113	54
114	12
115	9
117	0
119	0
120	0
122	13
124	212
125	11
126	14
127	9
128	4
129	1
132	0
133	0
134	1
137	10
138	85
139	12
140	69
141	66
142	8
143	1
149	0
150	0
151	2
155	7
156	190
157	19
158	9
159	3
160	0
