Mass Spectrum: Aziridine, TMS derivative
Formula: C5H13NSi
CAS: 2116-90-7
Molecular weight: 115
m/z	intensity
29	50
30	10
41	15
43	130
44	20
45	220
46	20
56	30
59	260
60	20
72	50
73	999
74	90
75	40
84	10
86	10
100	400
101	30
102	20
114	50
115	210
116	24
117	8
