Mass Spectrum: Mandelamide, o-bromo-
Formula: C8H8BrNO2
CAS: 21165-17-3
Molecular weight: 229
m/z	intensity
25	1
26	10
27	47
28	14
29	66
30	3
31	3
36	0
37	8
38	25
39	74
40	31
41	2
42	1
43	12
44	152
45	7
46	6
47	0
48	0
49	9
50	162
51	360
52	65
53	11
54	1
55	6
56	0
57	0
58	1
59	0
60	0
61	10
62	32
63	51
64	5
65	8
66	4
67	1
68	0
69	0
71	0
73	6
74	48
75	68
76	92
77	999
78	336
79	121
80	6
81	1
82	1
84	0
85	2
86	8
87	6
88	5
89	65
90	9
91	2
92	1
93	3
94	3
95	0
101	0
102	1
103	2
104	12
105	128
106	21
107	84
108	7
109	0
112	0
114	0
115	1
116	1
117	2
118	0
119	2
120	1
121	1
122	0
123	0
128	1
129	2
130	0
131	2
132	6
133	19
134	2
141	0
142	0
143	0
147	0
149	0
150	371
151	36
152	3
153	0
154	0
155	29
156	3
157	110
158	10
159	86
160	5
167	0
168	3
169	1
170	4
171	0
183	34
184	11
185	562
186	56
187	521
188	50
189	3
190	0
196	0
203	0
207	0
209	0
212	0
213	0
229	0
230	4
231	0
232	5
233	0
