Mass Spectrum: Spiro[4,2]hept-1-ene, 1,2-diaza-3-bromo-
Formula: C5H7BrN2
CAS: 211738-70-4
Molecular weight: 174
m/z	intensity
33	0
34	1
36	4
37	29
38	68
39	229
40	182
41	208
42	141
43	12
44	7
45	14
47	30
49	6
50	32
51	47
52	49
53	34
54	107
55	16
56	2
57	1
58	0
60	2
61	10
62	19
63	33
64	11
65	40
66	45
67	48
68	114
69	68
70	2
71	0
73	0
75	0
76	1
77	1
78	7
79	22
80	22
81	758
82	54
83	4
84	0
86	4
87	1
88	0
90	0
91	3
92	5
93	72
94	83
95	999
96	61
97	1
103	0
104	0
105	2
106	2
107	6
108	2
109	4
113	0
117	1
118	0
119	2
120	0
121	2
122	0
130	1
132	1
134	0
146	0
147	1
148	0
149	0
171	0
173	7
174	73
175	10
176	72
177	5
