Mass Spectrum: 1,4-Cyclohexanedimethanol, (E)-, 2TMS derivative
Formula: C14H32O2Si2
CAS: 2117-21-7
Molecular weight: 288
m/z	intensity
27	3
28	1
29	9
31	2
39	7
40	1
41	26
42	2
43	39
44	10
45	50
46	4
47	24
48	1
49	1
51	1
52	1
53	10
54	6
55	51
56	4
57	6
58	18
59	66
60	9
61	35
62	2
63	1
65	6
66	13
67	431
68	25
69	8
70	3
71	5
72	16
73	388
74	40
75	292
76	21
77	23
78	10
79	97
80	28
81	102
82	7
83	3
84	1
85	6
86	1
87	5
88	10
89	46
90	4
91	30
92	5
93	65
94	42
95	53
96	4
97	4
98	1
99	7
100	1
101	8
103	188
104	18
105	22
106	4
107	59
108	193
109	999
110	85
111	6
112	1
113	4
114	1
115	7
116	7
117	7
118	1
119	6
120	1
121	1
123	1
125	4
126	1
127	5
129	64
131	12
132	2
133	27
134	4
135	3
137	2
139	3
140	1
141	3
142	2
143	3
144	1
145	1
147	260
148	40
149	72
150	9
151	5
152	1
153	3
154	1
155	12
156	3
157	1
161	1
163	7
164	1
165	2
167	1
168	3
169	8
170	1
171	1
177	49
178	8
179	4
180	1
181	2
182	1
183	13
184	2
185	13
186	2
187	1
198	78
199	13
200	4
273	6
274	1
275	1
