Mass Spectrum: Phenol, 2-(1,1-dimethylethyl)-4-methyl-, phosphite (3:1)
Formula: C33H45O3P
CAS: 21177-86-6
Molecular weight: 520
m/z	intensity
29	4
37	0
38	0
39	16
41	35
47	1
48	0
50	0
51	3
52	0
53	18
54	1
55	275
56	3
57	109
58	4
61	0
62	0
63	1
64	0
65	10
66	1
67	5
68	0
69	0
76	1
77	35
78	3
79	40
80	2
81	2
82	0
83	1
85	0
87	0
89	3
90	1
91	122
92	16
93	38
94	4
95	1
96	0
99	0
101	0
102	1
103	19
104	12
105	999
106	96
107	18
108	4
109	3
110	0
111	0
113	0
115	29
116	28
117	47
118	8
119	138
120	18
121	24
122	3
123	17
124	1
125	0
126	0
127	2
128	7
129	17
130	18
131	26
132	12
133	15
134	2
135	11
136	2
137	4
138	0
139	0
140	0
141	0
142	0
143	2
144	2
145	7
146	4
147	93
148	17
149	19
150	4
151	17
152	2
153	1
154	0
155	23
156	1
157	0
158	0
159	0
160	1
161	3
162	1
163	26
164	9
165	2
166	0
167	1
168	0
169	0
171	0
172	0
173	0
175	1
176	1
177	61
178	7
179	32
180	3
181	0
182	0
183	0
184	0
185	0
186	0
189	0
190	0
191	7
192	1
193	14
194	3
195	8
196	2
197	0
198	0
202	0
203	0
205	0
206	0
207	0
208	0
209	4
210	3
211	4
212	1
213	1
214	0
215	0
217	0
219	0
220	0
221	0
222	0
223	0
224	0
226	0
227	5
228	1
237	0
239	0
243	1
244	0
245	18
246	2
247	0
250	0
251	0
252	0
257	0
258	0
260	0
261	2
262	0
263	0
267	0
268	0
271	0
277	0
281	0
283	0
285	1
286	0
287	0
288	0
299	3
300	1
301	28
302	5
303	4
304	0
311	0
313	0
315	1
316	0
317	7
318	0
319	0
323	0
325	0
326	0
327	0
328	0
329	0
339	0
340	0
341	8
342	2
343	19
344	4
345	0
351	0
355	0
357	874
358	234
359	32
360	3
361	0
371	0
373	0
405	0
407	0
409	0
411	0
433	1
434	0
447	0
449	0
463	0
464	0
489	0
490	0
503	1
504	0
505	6
506	2
507	0
518	0
520	140
521	48
522	9
523	1
524	0
