Mass Spectrum: Pyrazole, 3-(2-bromoethyl)-
Formula: C5H7BrN2
CAS: 211738-72-6
Molecular weight: 174
m/z	intensity
34	0
36	3
37	12
38	34
39	117
40	105
41	125
42	93
43	8
44	4
47	12
49	2
50	14
51	23
52	23
53	19
54	63
55	10
57	1
60	0
61	3
62	8
63	13
64	4
65	22
66	25
67	30
68	74
69	43
70	1
71	0
78	4
79	8
81	604
82	34
83	1
87	0
91	1
92	2
93	41
95	999
96	54
97	1
105	1
106	1
107	4
108	1
109	2
117	0
119	0
121	0
130	1
132	0
173	11
174	123
175	15
176	114
177	5
