Mass Spectrum: Benzotriazol-1-carboxylic acid, 3-oxide, ethyl ester
Formula: C9H9N3O3
CAS: 211808-98-9
Molecular weight: 207
m/z	intensity
33	2
34	3
35	0
37	117
38	139
39	267
40	81
41	102
42	41
43	93
44	75
45	35
46	3
47	2
50	799
51	927
52	999
53	99
55	27
56	7
57	6
59	10
61	47
62	77
63	199
64	237
65	63
66	12
67	6
68	3
69	9
70	2
71	10
73	35
74	160
75	149
76	515
77	618
78	441
79	212
80	19
81	3
82	3
83	7
84	1
85	4
87	14
88	16
90	385
91	202
92	37
93	18
94	2
96	0
101	2
102	4
103	19
104	51
105	109
106	128
107	235
108	15
109	2
113	4
115	18
116	4
117	6
118	11
119	29
120	43
121	5
124	4
125	4
126	10
127	22
128	10
129	2
131	1
134	124
135	362
136	26
137	2
139	21
140	24
141	14
142	3
148	5
149	5
150	5
151	12
152	18
153	17
154	15
155	3
156	0
163	40
164	9
165	11
166	12
167	12
168	4
169	7
170	0
177	1
178	4
179	3
180	6
181	3
182	2
183	2
191	36
192	4
193	2
194	1
196	3
197	2
205	3
207	159
208	16
209	9
210	6
