Mass Spectrum: Hexanoic acid, 3-hydroxy-, methyl ester
Formula: C7H14O3
CAS: 21188-58-9
Molecular weight: 146
m/z	intensity
31	155
33	85
34	5
35	0
36	1
37	7
38	13
39	143
40	29
41	230
42	156
43	999
44	147
45	46
46	0
47	1
49	3
50	3
51	6
52	1
53	24
54	13
55	237
56	13
57	42
58	31
59	107
60	2
61	208
62	5
63	2
65	3
66	2
67	10
68	51
69	52
70	6
71	394
72	24
73	57
74	251
75	21
76	2
77	0
79	0
80	0
81	9
82	0
84	1
85	16
86	8
87	7
89	0
95	1
96	7
97	48
98	5
99	2
100	1
101	1
102	2
103	185
104	11
105	1
111	0
113	14
114	1
115	3
116	0
117	0
118	0
128	5
129	4
131	0
132	0
133	0
145	1
146	0
147	0
