Mass Spectrum: Phosphine sulfide, t-butyl-dichloro-
Formula: C4H9Cl2PS
CAS: 21187-18-8
Molecular weight: 190
m/z	intensity
27	59
28	8
29	206
30	4
31	1
33	0
35	1
36	1
37	1
38	5
39	89
40	11
41	297
42	12
43	3
44	1
45	11
46	1
47	1
48	0
49	0
50	2
51	4
52	0
53	9
54	1
55	35
56	136
57	999
58	44
59	5
60	0
61	0
62	0
63	39
64	2
65	2
66	7
67	1
68	3
69	4
70	1
71	3
72	0
73	1
74	1
75	0
76	0
77	10
78	0
79	3
80	0
81	5
82	0
83	1
85	0
87	1
89	8
90	0
91	0
93	0
95	0
98	9
99	2
100	3
101	14
103	9
105	1
107	1
109	0
115	0
117	0
121	0
122	0
123	2
125	0
133	12
134	5
135	10
136	3
137	2
138	0
139	0
141	0
143	0
155	25
156	2
157	10
158	8
159	0
160	4
161	0
162	0
175	2
177	1
179	0
190	231
191	11
192	163
193	8
194	32
195	1
196	1
