Mass Spectrum: 1,3,4-Thiadiazol-5-amine, N,N-dimethyl-
Formula: C4H7N3S
CAS: 21184-87-2
Molecular weight: 129
m/z	intensity
27	163
29	190
30	144
41	157
42	999
43	503
44	223
45	405
46	260
55	178
56	110
57	58
58	114
59	94
69	269
70	90
71	122
72	70
73	89
74	20
85	77
86	13
87	337
88	288
89	27
90	16
100	834
101	58
102	74
114	400
115	27
116	26
129	518
130	42
131	29
