Mass Spectrum: Imidazole, 4-amino-5-ethoxycarbonyl-
Formula: C6H9N3O2
CAS: 21190-16-9
Molecular weight: 155
m/z	intensity
38	11
39	25
41	29
42	23
43	79
44	60
45	61
46	6
47	2
48	2
50	3
52	7
53	114
54	597
55	325
56	90
57	19
58	1
59	0
60	2
62	0
63	1
64	1
65	3
66	5
67	16
68	13
69	11
70	7
71	7
72	18
73	14
74	2
76	3
77	2
78	1
79	3
80	16
81	182
82	158
83	109
84	9
85	3
91	0
92	0
94	3
95	3
97	3
98	3
99	13
100	8
101	1
102	0
105	0
107	1
109	999
110	313
111	37
112	5
115	0
116	0
118	1
119	0
122	5
125	0
126	10
127	349
128	20
129	2
139	0
140	4
155	532
156	38
157	4
