Mass Spectrum: 2(1H)-Quinolinone, 1,4-dihydroxy-
Formula: C9H7NO3
CAS: 21201-44-5
Molecular weight: 177
m/z	intensity
26	20
27	50
28	30
29	40
30	20
37	50
38	100
39	200
40	20
41	50
42	60
43	70
49	20
50	220
51	270
52	250
53	50
61	40
62	110
63	230
64	200
65	150
66	30
69	170
73	20
74	90
75	130
76	310
77	370
78	100
79	999
85	50
86	20
87	30
88	40
89	80
90	100
91	260
92	120
93	20
101	30
102	70
103	150
104	120
105	90
106	20
107	110
114	20
115	20
118	30
119	70
120	30
125	30
129	60
130	30
132	130
133	30
134	20
135	590
136	50
148	30
161	50
177	680
178	80
179	7
