Mass Spectrum: Diborane(6), 1,1:2,2-di-1,5-cyclooctylene-
Formula: C16H30B2
CAS: 21205-91-4
Molecular weight: 244
m/z	intensity
25	15
26	129
27	429
29	104
35	2
36	43
37	164
38	109
39	577
40	290
41	639
42	35
43	11
44	6
45	2
46	7
47	2
48	6
49	27
50	129
51	319
52	303
53	748
54	187
55	171
56	17
57	3
60	7
61	22
62	31
63	82
64	206
65	461
66	388
67	305
68	42
69	19
70	3
71	3
72	5
73	12
74	15
75	27
76	65
77	190
78	199
79	402
80	331
81	247
82	33
83	2
84	2
85	1
86	4
87	8
88	13
89	43
90	78
91	162
92	159
93	430
94	999
95	77
96	7
97	4
99	1
101	2
102	1
103	9
104	11
105	26
106	21
107	53
108	41
109	14
110	11
111	3
112	2
113	3
114	2
115	3
116	2
117	3
118	8
119	24
120	71
121	288
122	943
123	80
124	5
130	1
131	3
132	13
133	36
134	48
135	14
136	1
138	5
146	0
147	3
148	5
149	0
159	0
160	0
162	0
194	3
215	0
229	3
242	36
243	302
244	643
245	114
246	9
