Mass Spectrum: Ethane, 1-phenyl-1-(phenylthio)-
Formula: C14H14S
CAS: 21213-26-3
Molecular weight: 214
m/z	intensity
26	1
27	19
29	1
37	0
38	4
39	29
40	0
41	0
43	0
45	6
50	14
51	45
52	10
53	3
54	0
57	1
58	2
59	4
61	0
62	6
63	13
64	1
65	37
66	8
67	0
69	15
70	1
71	0
72	0
73	0
74	4
75	3
76	4
77	111
78	32
79	68
80	3
81	1
82	3
83	3
84	2
85	0
89	4
91	11
92	0
93	1
95	0
98	0
101	1
102	6
103	56
104	55
105	999
106	90
107	2
108	7
109	59
110	77
111	8
112	2
121	5
134	0
135	1
137	1
151	0
165	3
178	0
179	0
184	0
197	0
199	0
213	0
214	99
215	15
216	6
