Mass Spectrum: Benzeneacetic acid, .alpha.-hydroxy-, methyl ester, (S)-
Formula: C9H10O3
CAS: 21210-43-5
Molecular weight: 166
m/z	intensity
14	2
15	52
16	0
18	0
26	4
27	23
28	10
29	38
30	5
31	6
32	2
33	2
37	3
38	8
39	29
40	3
43	2
44	5
45	3
49	2
50	34
51	98
52	27
53	22
54	2
55	2
59	14
61	3
62	10
63	22
64	5
65	4
66	0
73	2
74	11
75	6
76	9
77	386
78	57
79	606
80	36
86	1
89	17
90	11
91	10
105	88
106	19
107	999
108	69
109	4
118	4
121	2
149	0
166	82
167	8
