Mass Spectrum: o-Toluic acid, 2-pentyl ester
Formula: C13H18O2
CAS: 212260-63-4
Molecular weight: 206
m/z	intensity
25	3
26	16
27	101
28	16
29	106
39	165
40	26
41	169
42	84
43	381
44	3
45	5
50	41
51	78
52	27
53	26
54	6
55	156
56	9
57	7
58	5
59	14
60	4
61	6
62	26
63	70
64	27
65	204
66	14
67	6
68	4
69	19
70	147
71	58
72	3
73	3
74	10
75	11
76	4
77	48
78	12
79	37
80	5
81	4
82	6
83	8
84	6
85	3
86	7
87	38
88	10
89	71
90	145
91	517
92	66
93	26
94	5
95	3
96	3
97	2
101	2
102	30
103	4
104	2
105	34
106	5
107	3
108	3
110	3
112	4
113	2
114	4
115	6
116	4
117	9
118	539
119	999
120	88
121	8
122	3
128	3
131	2
133	6
134	8
135	43
136	711
137	122
138	11
163	3
206	34
207	8
