Mass Spectrum: Aspidospermidin-17-ol, 1-acetyl-19,21-epoxy-15,16-dimethoxy-
Formula: C23H30N2O5
CAS: 2122-26-1
Molecular weight: 414
m/z	intensity
64	108
65	37
66	33
67	456
68	240
69	999
70	336
71	833
72	74
73	163
74	43
75	9
76	3
77	67
78	24
79	132
80	95
81	475
82	256
83	617
84	243
85	432
86	43
87	40
88	3
89	6
90	3
91	74
92	24
93	95
94	77
95	308
96	185
97	419
98	179
99	129
100	37
101	40
102	15
103	12
104	15
105	52
106	27
107	61
108	52
109	154
110	151
111	185
112	70
113	70
114	15
115	27
116	24
117	30
118	15
119	40
120	27
121	52
122	40
123	64
124	52
125	77
126	27
127	40
128	15
129	46
130	21
131	24
132	40
133	43
134	21
135	43
136	43
137	58
138	617
139	86
140	46
141	30
142	9
143	15
144	6
145	18
146	18
147	18
148	12
149	27
150	6
151	21
152	21
153	15
154	12
155	18
156	12
157	9
158	15
159	30
160	117
161	61
162	9
163	6
164	3
165	6
166	12
167	6
168	6
169	6
170	6
171	18
172	6
173	9
174	18
175	6
176	6
183	12
185	6
198	18
199	24
200	40
201	24
202	52
204	18
205	3
206	3
207	3
369	6
370	9
371	6
414	9
