Mass Spectrum: 3,5-Ethano-3H-pyrrolo[2,3-d]carbazole-6-carboxylic acid, 4-ethyl-1,2,3a,4,5,7-hexahydro-11-methoxy-, methyl ester, stereoisomer
Formula: C21H26N2O3
CAS: 2122-32-9
Molecular weight: 354
m/z	intensity
41	80
42	90
43	60
44	30
50	10
51	20
52	20
53	20
54	20
55	40
56	70
57	20
58	70
59	20
63	20
65	20
67	30
68	50
69	70
70	40
71	999
72	70
76	20
77	30
78	20
79	20
80	20
81	20
82	80
83	30
84	250
85	20
86	20
89	20
90	20
91	20
92	20
93	20
94	20
95	160
96	60
97	30
98	110
99	30
102	20
103	20
104	20
105	20
106	20
107	20
108	40
109	10
110	80
111	20
112	20
113	10
114	10
115	30
116	10
117	20
118	20
119	30
120	20
122	50
123	50
124	50
125	30
126	30
127	30
128	20
129	20
130	10
131	10
132	30
133	20
134	20
135	20
136	10
138	10
139	40
140	100
141	30
142	20
143	20
144	10
145	10
146	20
147	40
148	20
151	10
152	30
153	40
154	50
155	20
156	20
158	20
159	10
160	30
161	40
162	10
164	10
165	20
166	30
167	60
168	50
169	30
170	30
171	10
172	10
173	30
174	30
177	110
178	20
179	20
180	50
181	40
182	50
183	30
184	40
185	20
186	30
187	20
191	10
192	20
193	20
194	30
195	40
196	90
197	80
198	70
199	50
200	60
201	30
202	10
204	20
205	20
206	20
207	30
208	30
209	150
210	180
211	180
212	50
213	30
214	20
220	10
221	20
222	30
223	50
224	190
225	60
226	50
227	210
228	40
230	30
231	20
232	20
233	10
234	10
235	20
236	30
237	40
238	90
239	90
240	30
241	20
242	20
243	20
244	60
245	40
246	20
247	10
248	10
249	20
250	30
251	60
252	70
253	30
254	20
255	60
256	140
257	50
258	70
259	990
260	180
261	30
262	10
263	10
264	20
265	50
266	40
267	20
268	30
269	30
270	80
271	70
272	20
278	20
279	50
280	30
281	50
282	30
283	100
284	80
285	110
286	30
291	20
292	10
293	60
294	90
295	160
296	60
297	400
298	90
299	20
307	30
308	10
309	30
310	20
311	50
312	20
313	10
321	30
322	30
323	50
324	30
325	50
326	40
327	20
339	60
340	30
352	30
353	60
354	350
355	100
