Mass Spectrum: 1,2,4-Triazino[5,6-b]indole, 3-(2-(1-piperidyl)ethylthio]-
Formula: C16H19N5S
CAS: 212246-31-6
Molecular weight: 313
m/z	intensity
33	12
34	3
35	5
37	11
39	177
41	602
42	390
43	84
44	200
45	40
46	17
47	4
48	1
50	31
51	41
52	26
53	41
54	126
55	385
56	153
57	41
58	25
59	26
60	23
61	31
62	34
63	47
64	30
65	15
66	7
67	25
68	55
69	144
70	121
71	13
72	10
73	8
74	14
75	48
76	35
77	24
78	6
79	4
80	11
81	16
82	85
83	193
84	47
85	14
86	20
87	30
88	45
89	19
90	25
91	7
92	0
93	3
94	10
96	254
98	999
99	57
100	8
101	28
102	80
103	13
104	1
105	1
106	1
107	3
108	8
109	33
110	235
111	729
112	98
114	100
115	21
116	18
117	8
118	3
119	8
120	11
121	5
125	0
126	0
128	21
129	28
130	4
133	0
134	0
135	0
141	36
142	22
143	22
144	14
146	146
147	13
148	6
153	2
154	1
155	2
156	1
157	1
160	9
161	1
162	0
168	4
169	15
170	4
171	4
173	31
174	16
175	2
187	55
188	6
189	2
201	2
202	8
203	3
215	22
216	2
227	2
229	11
230	1
313	1
