Mass Spectrum: N,N'-(1,2-Propylene)-thiourea
Formula: C4H8N2S
CAS: 2122-19-2
Molecular weight: 116
m/z	intensity
41	90
42	155
43	200
44	315
45	90
54	50
55	30
56	75
57	60
59	75
60	100
72	75
73	90
74	100
86	100
87	15
91	10
93	40
94	25
100	25
101	250
102	20
103	20
115	20
116	999
117	60
118	46
119	2
