Mass Spectrum: m-Toluic acid, 2-pentyl ester
Formula: C13H18O2
CAS: 212260-68-9
Molecular weight: 206
m/z	intensity
25	3
26	24
27	153
28	20
29	159
30	4
39	194
40	34
41	247
42	137
43	460
44	15
49	6
50	34
51	58
52	26
53	28
54	11
55	275
56	59
57	72
58	12
59	11
60	38
61	16
62	23
63	79
64	30
65	258
66	20
67	13
68	11
69	54
70	644
71	142
72	9
73	20
74	8
75	10
76	6
77	32
78	11
79	26
80	4
81	8
82	8
83	32
84	17
85	10
86	10
87	127
88	9
89	76
90	68
91	737
92	98
93	81
94	6
95	3
96	4
97	8
98	5
99	244
100	18
101	3
103	3
105	17
106	3
107	8
108	5
109	5
111	3
112	46
113	13
114	6
115	8
116	27
117	50
118	30
119	999
120	189
121	17
122	2
127	2
128	6
129	8
130	3
131	2
133	2
134	5
135	26
136	250
137	681
138	64
139	8
163	20
191	2
205	3
206	23
207	4
