Mass Spectrum: (3R,4aS,8aS)-8a-Methyl-5-methylene-3-(prop-1-en-2-yl)-1,2,3,4,4a,5,6,8a-octahydronaphthalene
Formula: C15H22
CAS: 212394-95-1
Molecular weight: 202
m/z	intensity
26	2
27	40
29	25
30	1
39	200
40	34
41	312
42	16
43	12
50	6
51	79
52	38
53	244
54	25
55	235
56	18
57	12
62	4
63	42
64	24
65	216
66	68
67	326
68	66
69	144
70	13
71	31
72	10
75	4
76	15
77	515
78	159
79	588
80	115
81	286
82	24
83	34
85	4
86	7
87	5
88	1
89	28
91	999
92	201
93	626
94	118
95	112
96	16
101	6
102	23
103	158
104	109
105	688
106	225
107	208
108	106
111	3
113	1
114	3
115	222
116	86
117	580
118	318
119	674
120	126
126	3
127	38
128	129
129	145
130	76
131	700
132	247
134	120
141	34
142	24
143	82
144	50
145	526
146	142
147	126
148	38
152	6
153	6
154	2
155	5
156	4
157	18
158	67
159	556
160	139
161	33
169	1
171	4
172	4
173	178
174	64
175	7
185	2
186	1
187	169
188	25
201	3
202	158
203	26
