Mass Spectrum: Carbonodithioic acid, o-ethyl S-(2,3,6-trichloro-5-cyano-4-pyridinyl) ester
Formula: C9H5Cl3N2OS2
CAS: 212396-23-1
Molecular weight: 326
m/z	intensity
16	12
17	2
18	6
25	1
26	25
27	224
28	74
29	999
30	24
32	26
33	3
34	1
35	5
36	2
37	1
38	9
39	1
40	1
41	1
42	3
43	19
44	8
45	28
46	3
47	18
48	2
49	6
50	2
51	2
55	2
56	5
57	5
58	3
59	5
60	18
61	30
62	24
63	3
64	14
65	4
66	1
67	4
68	18
69	4
70	25
71	10
72	2
73	7
74	19
75	6
76	39
77	14
78	4
79	48
80	8
81	18
82	63
83	12
84	5
85	22
86	11
87	8
88	15
89	60
90	3
91	33
92	3
93	31
94	91
95	9
96	13
97	23
98	6
99	8
100	33
101	5
102	1
103	74
104	3
105	28
106	77
107	11
108	24
109	104
110	15
111	41
112	5
113	3
115	18
116	1
117	36
118	13
119	14
120	22
121	3
122	11
123	14
124	4
125	4
126	4
127	2
128	3
129	7
130	1
131	6
132	100
133	12
134	49
135	13
136	9
137	4
138	2
140	1
141	55
142	16
143	20
144	51
145	4
146	29
147	2
148	5
149	1
150	5
151	1
152	5
153	3
154	2
155	4
156	1
157	2
158	1
159	3
160	1
161	2
163	1
164	1
166	1
167	55
168	13
169	21
170	11
171	9
172	5
173	6
174	1
175	2
176	39
177	4
178	28
179	5
180	6
181	3
182	1
183	1
190	1
193	25
194	11
195	25
196	10
197	10
198	3
199	5
200	1
201	3
202	326
203	98
204	209
205	79
206	79
207	32
208	37
209	8
210	11
211	6
212	2
213	4
214	1
215	2
216	1
217	1
224	1
225	1
226	1
227	2
228	1
229	1
231	2
233	4
234	14
235	8
236	10
237	23
238	503
239	65
240	532
241	56
242	200
243	19
244	25
245	2
246	3
247	6
248	2
249	7
250	2
251	9
252	2
253	7
254	1
255	2
257	1
263	272
264	27
265	211
266	21
267	67
268	7
269	17
270	2
271	9
272	2
273	3
275	1
281	29
282	3
283	31
284	3
285	11
286	1
287	2
289	1
291	630
292	81
293	467
294	55
295	109
296	12
297	8
298	1
299	4
326	7
327	1
328	7
329	1
330	3
