Mass Spectrum: Iditol, hexabenzoate, L-
Formula: C48H38O12
CAS: 21238-34-6
Molecular weight: 806
m/z	intensity
27	3
28	1
29	1
31	0
37	0
38	1
39	2
40	0
41	1
42	0
43	1
44	1
45	0
49	0
50	5
51	19
52	2
53	0
55	2
57	1
58	0
60	0
61	0
63	0
65	0
66	0
68	7
69	5
70	0
71	0
73	1
74	1
75	1
76	5
77	130
78	10
79	2
81	0
82	0
85	2
86	1
91	0
92	0
93	0
94	0
97	3
98	0
103	0
104	3
105	999
106	78
107	4
109	0
110	6
111	1
115	0
118	0
121	0
122	17
123	5
124	0
127	0
128	0
135	0
136	0
147	0
148	0
149	0
152	0
153	0
159	0
160	0
163	0
165	8
166	0
172	0
175	0
177	28
178	5
179	0
180	0
181	1
182	0
189	3
190	11
191	1
195	1
201	5
202	1
207	9
208	1
209	0
210	0
214	8
215	2
216	0
219	1
220	0
225	0
227	2
228	0
231	0
232	4
233	0
237	0
269	18
270	3
271	0
281	4
282	9
283	2
284	0
292	0
293	0
294	13
295	2
296	0
299	3
300	0
311	24
312	5
313	0
318	1
319	0
323	0
324	0
329	2
330	0
331	3
332	0
335	2
336	7
337	1
338	0
341	3
342	0
354	0
403	20
404	5
405	1
415	0
416	0
428	0
433	2
434	0
440	0
445	5
446	1
447	0
458	1
459	0
463	0
537	15
538	5
539	1
562	1
563	0
671	1
672	0
