Mass Spectrum: 13-Pentacosanone
Formula: C25H50O
CAS: 2123-19-5
Molecular weight: 366
m/z	intensity
26	3
27	55
29	177
30	4
39	47
40	9
41	480
42	120
43	999
44	34
45	7
51	2
53	27
54	47
55	533
56	135
57	908
58	569
59	252
60	9
65	5
66	6
67	119
68	59
69	251
70	91
71	787
72	63
73	6
77	5
79	23
80	12
81	151
82	195
83	207
84	69
85	325
86	28
87	3
91	4
93	13
94	7
95	233
96	254
97	196
98	73
99	50
100	74
101	9
107	6
108	3
109	139
110	88
111	75
112	22
113	64
114	64
115	9
121	6
122	2
123	74
124	68
125	30
126	12
127	104
128	18
129	4
135	3
137	22
138	40
139	8
140	2
141	22
142	10
151	7
152	204
153	27
154	61
155	34
156	29
157	4
165	7
166	5
167	2
168	3
169	42
170	20
171	3
179	10
180	5
183	13
184	5
194	28
195	6
197	850
198	121
199	10
207	7
212	110
213	216
214	32
215	2
225	56
226	9
236	3
239	25
240	5
250	2
253	5
254	2
267	4
281	8
323	4
337	4
365	2
366	10
367	3
