Mass Spectrum: 5-Methyl-2-benzoylimino-1,3-thiazolidine
Formula: C11H12N2OS
CAS: 21233-46-5
Molecular weight: 220
m/z	intensity
43	439
45	209
50	129
51	289
52	69
53	59
54	49
55	259
56	159
57	249
58	54
59	69
60	199
61	89
66	29
67	79
68	49
69	159
70	89
71	134
72	39
73	79
74	109
75	39
76	79
77	729
78	169
79	59
80	19
81	79
82	49
83	89
84	49
85	59
86	39
91	189
92	29
93	59
103	69
104	69
105	999
106	119
107	44
108	19
116	29
117	39
118	69
119	49
120	29
121	49
122	89
123	34
129	29
130	19
131	39
132	49
135	29
136	69
140	89
143	129
144	14
145	19
146	129
147	19
149	59
150	29
152	89
163	19
164	19
177	9
178	39
179	9
189	9
190	29
191	119
192	49
193	19
205	69
206	9
219	399
220	179
221	29
