Mass Spectrum: 1,4-Naphthalenedione, 2-(3,7,11,15,19,23,27-heptamethyl-2,6,10,14,18,22,26-octacosaheptaenyl)-3-methyl-, (all-E)-
Formula: C46H64O2
CAS: 2124-57-4
Molecular weight: 648
m/z	intensity
18	20
26	24
27	34
28	52
29	34
39	64
40	20
41	278
43	165
50	20
53	60
55	161
57	36
66	20
67	125
68	221
69	999
70	60
77	54
78	20
79	96
80	34
81	508
82	52
83	34
91	64
92	24
93	189
94	54
95	181
96	20
97	24
107	141
109	112
119	64
120	20
121	151
122	48
123	84
129	16
131	20
141	20
145	20
147	80
148	32
149	64
186	80
187	181
188	40
189	76
190	20
191	24
201	32
221	26
222	20
223	36
224	121
225	947
226	177
227	114
238	24
239	127
240	80
241	26
307	64
308	60
309	20
340	20
375	60
376	60
378	20
430	16
443	44
444	34
445	16
446	20
461	16
498	20
511	40
512	36
513	20
578	20
579	121
580	52
581	26
633	40
634	20
646	20
648	806
649	427
650	215
651	76
652	24
