Mass Spectrum: Butyric acid, 3-bromo-, methyl ester
Formula: C5H9BrO2
CAS: 21249-59-2
Molecular weight: 180
m/z	intensity
14	5
15	56
26	22
27	80
28	2
29	110
30	20
31	28
37	18
38	44
39	265
40	53
41	434
42	160
43	28
44	2
45	17
53	5
55	9
57	2
58	3
59	999
60	34
61	4
68	3
69	50
70	2
73	6
79	17
80	9
81	17
82	10
93	9
94	2
95	11
96	1
101	552
102	31
103	2
105	4
106	2
107	19
108	2
109	15
120	4
121	129
122	9
123	128
124	3
149	64
150	2
151	62
152	1
180	9
182	8
