Mass Spectrum: 1-Acetyl-3-amino-4-cyano-3-pyrroline
Formula: C7H9N3O
CAS: 2125-74-8
Molecular weight: 151
m/z	intensity
41	81
43	999
44	19
45	2
47	1
49	16
51	14
52	133
53	97
54	104
55	32
56	9
57	2
58	0
60	4
62	0
63	4
64	8
66	34
67	51
68	23
69	18
70	1
71	1
72	1
75	1
77	7
79	33
81	235
82	110
83	19
84	7
86	6
88	1
91	2
92	3
93	69
94	20
95	2
96	0
107	8
108	520
109	381
110	22
111	0
122	1
123	2
124	1
125	0
132	2
134	9
136	21
137	0
151	414
152	37
153	2
