Mass Spectrum: Cholest-8-ene-3,6-diol, 14-methyl-, (3.beta.,5.alpha.,6.alpha.)-
Formula: C28H48O2
CAS: 2126-69-4
Molecular weight: 416
m/z	intensity
41	430
42	70
43	750
44	999
45	30
51	10
53	60
54	10
55	400
56	60
57	300
58	30
59	10
65	20
67	140
68	20
69	290
70	20
71	130
73	10
77	60
78	20
79	120
80	20
81	200
82	30
83	180
84	10
85	30
91	120
92	10
93	120
94	50
95	300
96	30
97	120
98	10
105	110
106	20
107	120
108	30
109	110
110	10
111	60
115	20
116	10
117	30
118	10
119	90
120	20
121	90
122	30
123	80
124	10
125	40
128	20
129	30
130	10
131	60
132	10
133	60
134	10
135	40
136	10
137	20
141	50
142	20
143	80
144	20
145	70
146	10
147	50
148	10
149	20
150	20
151	10
155	20
156	10
157	60
158	20
159	90
160	10
161	40
163	30
165	10
169	10
171	30
172	10
173	40
175	20
177	10
183	20
185	20
187	10
189	10
191	20
193	20
195	10
197	20
199	20
200	10
201	20
203	10
205	10
207	30
208	10
209	20
211	20
212	10
213	10
215	40
216	10
217	30
218	10
219	10
225	30
227	20
229	40
230	10
231	20
233	20
235	20
239	10
241	10
243	30
244	10
245	10
247	30
251	10
253	20
257	10
259	10
261	30
267	10
269	10
271	20
274	60
275	20
276	10
285	20
287	10
301	10
304	10
323	10
325	10
339	10
341	10
349	10
365	140
366	40
367	10
380	10
381	10
383	210
384	60
385	10
398	40
399	30
401	160
402	40
416	30
417	10
