Mass Spectrum: 5,6-Epoxy-2,2-dimethyl-3-heptyne
Formula: C9H14O
CAS: 212687-69-9
Molecular weight: 138
m/z	intensity
35	2
36	9
37	19
38	58
39	341
40	71
41	264
43	436
45	23
50	99
51	199
52	111
53	189
54	67
55	98
56	9
57	41
59	1
61	16
62	42
63	85
64	21
65	89
66	140
67	86
68	11
69	9
70	5
71	1
73	4
74	13
75	10
77	790
79	999
80	73
81	24
82	45
83	4
84	2
85	2
86	2
87	1
89	2
91	155
93	188
94	178
95	91
96	8
97	1
103	2
105	30
107	38
108	6
109	20
110	3
117	1
119	2
120	12
121	6
123	135
124	10
125	1
137	9
138	29
139	3
