Mass Spectrum: .alpha.-[[6-Chloropurine-9-yl]-9H]-p-toluenesulfonamide
Formula: C12H10ClN5O2S
CAS: 21267-95-8
Molecular weight: 323
m/z	intensity
41	50
43	38
44	25
45	33
46	19
47	29
48	24
49	23
50	99
51	217
52	104
53	77
54	14
55	33
61	11
62	82
63	436
64	577
65	89
66	61
67	27
69	25
73	23
74	58
75	55
76	103
77	487
78	179
79	105
80	44
81	48
82	23
85	45
86	77
87	58
88	45
89	999
90	463
91	88
92	21
93	7
94	85
95	57
97	6
99	26
100	26
101	32
102	36
103	54
104	87
105	47
106	618
107	865
108	80
109	26
111	13
113	24
114	45
115	18
116	42
119	21
121	189
122	77
124	33
126	37
127	40
128	26
129	30
131	14
133	7
138	38
139	24
141	12
153	51
154	39
155	24
161	5
166	22
167	160
168	27
169	54
170	102
179	6
180	84
181	25
188	6
206	28
207	32
208	30
215	22
216	13
241	13
242	147
243	80
244	65
245	28
261	140
262	19
288	40
322	712
323	750
324	232
325	250
326	41
