Mass Spectrum: 1,1-Dibenzyloxy-4,4-dimethyl-2-pentyne
Formula: C21H24O2
CAS: 212687-75-7
Molecular weight: 308
m/z	intensity
33	1
37	2
39	77
40	11
41	59
43	26
44	1
50	22
51	58
52	15
53	20
54	3
55	22
57	24
58	1
61	1
62	5
63	18
65	128
66	9
67	11
68	1
69	5
70	1
73	1
74	3
75	3
77	103
78	19
79	48
80	4
81	11
82	2
83	8
87	1
89	26
91	999
92	214
93	18
94	5
95	12
96	1
103	1
105	31
106	11
107	85
108	8
109	9
110	6
111	29
112	2
115	5
116	3
117	8
118	1
119	1
123	4
124	1
127	1
128	4
129	6
130	1
131	14
132	2
141	5
142	4
143	8
144	6
145	19
146	3
155	1
156	2
157	14
158	2
159	3
165	1
167	2
171	6
172	5
173	2
183	6
184	1
185	2
187	2
200	5
201	10
202	2
217	22
218	3
