Mass Spectrum: 1-Cyclopropyl-3,4-epoxyhex-5-en-1-yne
Formula: C9H10O
CAS: 212687-67-7
Molecular weight: 134
m/z	intensity
33	1
39	861
41	25
42	4
43	5
44	1
50	616
52	999
53	64
55	344
57	32
62	282
65	83
66	18
67	6
68	8
69	4
74	53
77	713
78	514
79	63
81	30
82	1
83	1
85	5
86	5
87	3
89	11
91	161
92	13
93	9
94	3
95	1
98	1
103	22
105	132
106	83
107	9
108	1
115	12
116	5
117	8
119	18
120	1
133	43
134	5
