Mass Spectrum: N,9-Bis[p-sulfamoylbenzyl]adenine
Formula: C19H19N7O4S2
CAS: 21268-02-0
Molecular weight: 473
m/z	intensity
41	25
42	13
43	26
44	3
45	21
46	20
48	493
50	115
51	134
52	45
53	64
54	28
55	16
57	1
60	1
61	4
62	27
63	181
64	999
65	141
66	94
67	34
68	7
69	10
70	6
71	3
73	3
74	25
75	56
76	74
77	329
78	122
79	61
80	99
81	13
82	5
84	4
86	5
87	8
88	6
89	561
90	384
91	254
92	58
93	86
94	37
95	20
97	4
98	4
99	4
101	7
102	88
103	62
104	181
105	139
106	781
107	590
108	62
109	11
110	3
111	3
112	1
114	16
115	19
116	39
117	17
118	51
119	241
120	100
121	71
122	50
123	22
124	12
125	6
126	5
127	13
128	17
129	18
130	5
131	13
132	2
133	19
134	9
135	65
136	19
137	13
138	36
139	14
140	6
141	37
142	28
143	21
144	4
146	11
148	47
149	6
151	8
152	7
153	22
154	25
155	39
156	23
157	9
158	3
164	3
165	8
166	26
167	7
168	50
169	31
170	86
171	22
172	14
177	1
178	6
179	16
180	37
181	33
182	71
183	40
184	51
185	513
186	46
187	26
188	6
192	5
193	3
194	10
195	60
196	45
197	20
198	3
204	2
205	14
206	9
207	21
208	43
209	24
210	20
211	4
214	5
220	1
221	7
222	137
223	128
224	190
225	84
226	16
235	1
236	1
237	3
238	5
239	7
240	4
244	1
249	1
256	6
257	8
258	1
261	24
262	4
271	5
288	14
289	23
290	5
303	463
304	75
305	28
306	2
312	1
313	2
315	1
317	2
392	5
393	7
394	4
472	4
473	40
474	13
475	4
