Mass Spectrum: Bis(3-(p-nitrophenyl)-2,4-pentananedionato)copper(ii)
Formula: C22H20CuN2O8
CAS: 21264-19-7
Molecular weight: 503
m/z	intensity
14	6
15	30
16	1
26	3
27	20
28	32
29	8
30	17
31	5
37	2
38	7
39	43
40	5
41	9
42	19
43	999
44	43
45	6
46	2
47	2
49	1
50	26
51	53
52	13
53	13
54	2
55	63
56	4
57	3
58	1
60	4
61	6
62	27
63	73
64	15
65	30
66	7
67	3
69	2
70	1
71	2
73	2
74	13
75	20
76	23
77	112
78	50
79	22
80	2
81	2
83	8
85	7
86	9
87	13
88	15
89	80
90	28
91	36
92	13
93	5
94	2
95	2
97	1
98	3
101	7
102	35
103	119
104	51
105	43
106	9
107	13
108	1
109	2
113	8
114	14
115	68
116	17
117	14
118	30
119	10
120	13
121	6
127	6
128	13
129	7
130	12
131	174
132	447
133	70
134	9
135	1
136	2
137	8
140	1
141	1
142	2
143	2
144	9
145	22
146	12
147	17
148	12
149	22
150	9
151	4
152	2
153	2
154	2
155	1
156	5
157	3
158	4
159	30
160	31
161	131
162	43
163	19
164	9
165	3
166	2
167	2
168	2
170	1
171	1
172	2
173	9
174	18
175	5
176	5
177	2
178	25
179	220
180	26
181	4
182	4
183	5
184	2
185	1
186	2
187	5
188	3
189	9
190	13
191	7
192	2
193	2
194	2
195	2
196	2
197	1
198	2
199	1
200	2
202	3
203	21
204	9
205	17
206	734
207	84
208	10
209	6
210	2
211	2
212	1
217	1
219	15
220	26
221	500
222	71
223	9
224	8
225	3
226	15
227	3
228	6
229	5
235	8
236	9
237	9
238	7
239	4
240	3
242	1
252	5
254	24
255	2
256	9
257	1
261	2
265	3
266	3
267	4
268	91
269	11
270	39
271	5
278	2
281	1
282	15
283	36
284	110
285	29
286	47
287	6
340	1
406	1
434	8
435	1
442	2
443	2
445	1
449	9
450	2
461	1
467	6
468	1
488	4
490	2
496	3
498	2
503	82
504	22
505	42
506	9
507	2
