Mass Spectrum: Oxan-4-one, 2-trifluoromethyl-2-hydroxy-5,5-dimethyl-
Formula: C8H11F3O3
CAS: 212615-80-0
Molecular weight: 212
m/z	intensity
39	125
41	459
42	227
43	243
45	40
47	5
50	11
51	14
53	31
56	999
59	28
61	4
62	3
64	24
65	4
67	34
69	113
70	154
72	33
73	45
75	16
77	1
78	1
79	1
81	2
83	27
85	9
87	16
89	5
91	4
92	9
93	6
95	3
97	6
99	5
101	45
103	0
105	0
107	0
109	1
112	13
113	1
115	1
117	1
119	1
120	0
121	0
122	0
123	0
125	3
127	1
128	0
129	0
131	0
133	0
135	0
137	0
139	10
141	0
143	16
144	1
145	0
147	0
149	1
151	0
152	0
153	0
155	0
157	0
159	0
161	0
163	0
164	0
165	0
167	3
168	0
169	0
170	0
175	0
177	0
179	0
182	31
184	0
191	0
193	0
195	5
196	0
197	0
207	0
208	0
212	53
213	5
214	0
215	0
