Mass Spectrum: Bis(3-benzyl-2,4-pentanedionato)palladium(ii)
Formula: C24H26O4Pd
CAS: 21264-23-3
Molecular weight: 484
m/z	intensity
14	5
15	19
16	1
26	3
27	16
28	3
37	3
38	8
39	50
40	7
41	21
42	33
43	999
44	33
45	5
49	2
50	40
51	105
52	28
53	14
54	2
55	63
56	5
57	14
58	7
61	5
62	17
63	64
64	20
65	62
66	7
67	7
68	2
69	16
70	10
71	16
72	2
73	3
74	28
75	40
76	69
77	157
78	99
79	19
80	3
81	9
82	4
83	8
84	4
85	9
86	8
87	9
88	4
89	23
90	6
91	241
92	23
93	3
94	9
95	16
96	4
97	132
98	13
99	20
100	4
101	18
102	67
103	254
104	53
105	161
106	17
107	4
108	5
109	4
110	2
111	6
112	2
113	11
114	4
115	110
116	23
117	57
118	9
119	8
120	2
121	2
122	2
123	3
124	1
125	5
126	25
127	116
128	194
129	365
130	109
131	569
132	63
133	37
134	4
135	10
136	1
137	2
138	1
139	14
140	9
141	42
142	21
143	14
144	9
145	311
146	80
147	643
148	100
149	14
150	15
151	34
152	138
153	80
154	81
155	92
156	13
157	58
158	8
159	9
160	4
161	4
163	2
165	2
166	1
167	1
168	9
169	20
170	74
171	39
172	196
173	113
174	12
175	21
176	3
178	1
179	1
181	4
182	7
183	8
184	1
185	8
186	5
187	238
188	414
189	58
190	106
191	15
192	2
193	1
195	3
196	8
197	9
198	3
199	8
200	2
201	4
202	1
207	3
208	5
209	7
210	2
211	7
212	1
213	3
219	4
220	7
221	10
222	7
223	15
224	4
225	12
226	2
227	6
233	1
234	1
235	4
236	5
237	9
238	4
239	9
241	6
243	1
249	7
250	12
251	22
252	12
253	27
254	4
255	18
256	2
257	5
262	1
265	2
266	3
267	3
269	3
271	1
277	2
278	2
279	9
280	12
281	19
282	3
283	16
284	2
285	6
292	5
293	12
294	47
295	70
296	77
297	23
298	62
299	13
300	25
301	3
337	1
338	1
340	1
344	3
387	2
482	6
483	13
484	17
485	4
486	14
487	4
488	7
489	1
