Mass Spectrum: Bismuth, tris(dimethylcarbamodithioato-S,S')-, (OC-6-11)-
Formula: C9H18BiN3S6
CAS: 21260-46-8
Molecular weight: 569
m/z	intensity
14	2
15	26
20	1
27	5
28	27
29	3
30	9
32	16
33	5
34	13
35	2
36	1
38	11
39	5
40	13
41	21
42	106
43	38
44	101
45	26
46	6
47	21
48	2
54	1
55	2
56	21
57	3
58	1
59	1
60	16
61	9
63	1
64	13
66	1
69	1
70	3
71	1
72	28
73	88
74	9
75	4
76	208
77	27
78	18
79	2
88	999
89	67
90	48
91	3
97	1
105	1
106	1
107	1
119	2
120	25
121	60
122	5
123	5
132	1
136	2
138	1
139	1
143	1
175	1
176	4
177	4
178	1
183	6
184	4
185	3
186	2
208	3
209	36
210	2
217	1
220	1
241	20
242	3
243	1
273	1
295	1
296	9
297	2
298	3
300	1
303	24
304	3
305	14
306	1
307	2
329	268
330	14
331	23
332	1
344	4
345	1
346	1
361	2
373	16
374	1
375	1
449	403
450	41
451	72
452	7
453	5
