Mass Spectrum: 2-Chloro-5,5-dimethyl-1-phenyl-3-hexen-1-ol
Formula: C14H17ClO
CAS: 212687-74-6
Molecular weight: 236
m/z	intensity
36	18
39	145
41	103
43	28
51	206
53	106
55	21
57	76
63	59
65	36
66	7
67	9
69	7
71	2
73	9
74	13
75	15
77	441
79	548
80	29
81	4
83	3
86	8
87	5
89	12
91	41
93	16
95	13
99	5
101	3
102	5
103	4
105	79
107	999
108	66
109	6
110	1
111	1
115	32
116	5
117	3
125	1
126	3
127	6
128	11
129	6
131	6
138	5
139	4
141	11
142	4
143	3
144	2
145	1
150	1
151	1
152	5
153	5
154	3
155	1
156	1
157	1
165	2
167	1
168	1
169	3
171	2
180	1
183	1
184	2
185	1
200	1
