Mass Spectrum: Butanoic acid, 4-phenoxy-, methyl ester
Formula: C11H14O3
CAS: 21273-27-8
Molecular weight: 194
m/z	intensity
41	192
42	30
43	25
45	15
50	25
51	98
56	25
59	562
60	25
63	25
64	15
65	126
66	53
69	215
70	17
75	25
77	205
78	38
79	30
81	12
91	25
93	17
94	417
95	38
101	999
102	60
106	48
119	10
121	12
163	113
164	12
194	38
