Mass Spectrum: 4-Methoxybutanoic acid, TMS derivative
Formula: C8H18O3Si
CAS: 21273-18-7
Molecular weight: 190
m/z	intensity
41	140
42	10
43	60
44	20
45	250
47	60
51	20
58	50
59	150
60	10
61	50
69	100
71	10
72	50
73	530
74	40
75	440
76	30
77	20
85	20
88	10
89	999
90	70
91	40
100	20
101	20
102	10
104	10
106	10
116	20
117	300
118	30
119	10
129	20
132	90
133	40
143	20
145	30
146	10
147	20
175	80
176	10
190	1
