Mass Spectrum: Ehtyl 3-methyl-8-[p-sulfamylphenethylamino]pyrido[2,3-b]pyrazine
Formula: C19H22N6O4S
CAS: 21271-93-2
Molecular weight: 430
m/z	intensity
41	121
42	129
43	265
44	641
45	66
46	18
47	3
48	434
49	10
50	73
51	99
52	81
53	59
54	50
55	22
56	24
57	11
58	13
59	19
60	127
61	9
62	32
63	70
64	999
65	103
66	105
67	118
68	26
69	27
71	9
74	25
75	21
76	33
77	157
78	51
79	69
80	43
81	20
82	24
84	12
86	8
88	32
89	55
90	69
91	306
92	72
93	28
94	23
95	10
101	3
102	32
103	130
104	51
105	31
106	41
107	78
108	48
109	20
110	8
115	17
116	51
117	44
118	33
119	37
120	52
121	29
122	3
123	45
124	59
125	8
130	3
131	8
132	42
133	30
134	51
135	129
136	48
137	13
138	8
146	3
147	41
148	66
149	39
151	8
155	23
158	13
159	73
160	28
161	29
167	38
170	11
171	28
174	73
175	400
176	57
183	59
186	14
188	569
189	71
191	4
200	17
219	4
226	4
251	13
275	8
279	28
284	4
307	8
311	57
312	7
