Mass Spectrum: .alpha.-Nitrobenzyl phenyl sulfone
Formula: C13H11NO4S
CAS: 21272-78-6
Molecular weight: 277
m/z	intensity
41	36
42	15
43	22
44	15
45	30
46	1
47	60
48	31
49	397
50	95
51	477
52	51
53	96
54	7
55	16
57	6
60	10
61	5
62	33
63	131
64	71
65	216
66	23
68	14
69	14
70	8
71	7
74	18
75	20
76	26
77	975
78	119
79	11
80	43
81	60
82	17
83	33
84	290
85	7
86	189
87	8
88	32
89	255
90	139
91	123
92	47
93	33
94	28
95	5
97	146
98	10
99	7
102	13
103	6
105	215
106	21
108	13
109	14
115	14
116	2
119	402
120	35
121	10
125	999
126	72
127	51
128	7
136	19
137	7
139	8
141	647
142	47
143	33
151	1
152	22
153	6
158	7
163	4
164	6
165	59
166	17
167	17
231	55
232	9
247	36
248	5
277	1
