Mass Spectrum: Benzenepropanoic acid, TMS derivative
Formula: C12H18O2Si
CAS: 21273-15-4
Molecular weight: 222
m/z	intensity
24	0
26	1
27	22
29	7
30	0
31	3
32	0
34	0
35	0
36	0
37	0
38	2
39	28
40	0
41	6
42	6
43	28
44	15
45	85
46	7
47	56
48	3
49	4
50	9
51	39
52	10
53	6
54	2
55	14
56	1
57	6
58	14
59	18
60	9
61	45
62	6
63	15
64	4
65	54
66	5
67	0
68	0
69	0
70	1
71	2
72	22
73	506
74	58
75	859
76	66
77	101
78	39
79	24
80	2
81	0
83	0
84	0
85	0
86	0
87	2
88	5
89	18
90	5
91	258
92	19
93	1
94	0
95	1
97	0
98	0
99	0
101	10
102	9
103	46
104	999
105	129
106	7
111	0
112	0
113	0
115	8
116	14
117	4
118	1
119	0
121	1
126	0
128	1
129	12
130	3
131	27
132	42
133	6
134	1
135	8
136	1
137	1
138	0
143	1
144	0
145	3
146	0
147	6
148	0
149	2
150	0
151	1
161	2
162	2
163	10
164	1
165	1
172	0
173	1
174	0
175	0
177	0
178	0
179	1
184	0
187	0
188	1
189	27
190	4
191	4
192	1
193	1
200	0
203	1
204	1
205	15
206	12
207	450
208	73
209	21
210	2
219	0
221	1
222	223
223	42
224	11
