Mass Spectrum: 4-(Benzyloxy)butanoic acid, TMS derivative
Formula: C14H22O3Si
CAS: 21273-17-6
Molecular weight: 266
m/z	intensity
41	34
42	9
43	28
44	12
45	40
47	31
55	28
58	25
59	12
61	28
63	12
65	78
70	31
72	31
73	314
74	34
75	226
76	34
77	59
78	15
79	31
85	204
86	15
89	28
90	15
91	999
92	100
93	18
104	15
105	34
106	37
107	25
116	34
117	345
118	34
119	9
129	25
131	25
132	172
133	28
135	28
148	47
149	15
150	75
151	28
159	59
160	125
161	25
175	34
180	94
181	25
205	15
251	47
266	12
