Mass Spectrum: Heptanoic acid, 7-phenoxy-, trimethylsilyl ester
Formula: C16H26O3Si
CAS: 21273-13-2
Molecular weight: 294
m/z	intensity
41	230
42	42
43	76
44	38
45	80
47	57
50	30
51	57
52	15
53	30
54	15
55	334
56	34
57	23
58	23
59	19
61	57
62	11
63	11
64	76
65	38
66	50
67	19
68	115
69	23
72	34
73	999
74	100
75	723
76	57
77	196
78	23
79	38
81	42
82	23
83	538
86	42
87	15
89	7
91	38
93	38
94	807
95	92
96	15
99	30
101	15
103	15
105	23
107	73
108	7
109	7
110	7
111	269
112	30
113	19
115	7
116	15
117	153
118	11
119	11
120	15
130	96
131	7
132	11
133	42
134	23
136	7
138	7
139	34
140	34
141	34
143	7
145	30
147	69
148	15
149	19
151	211
152	38
153	30
158	15
160	19
162	15
166	173
167	38
168	15
173	38
176	38
178	38
185	688
186	111
187	53
188	38
189	7
201	311
202	80
203	38
204	15
279	10
294	426
295	76
296	23
