Mass Spectrum: .alpha.-Nitro-.alpha.-bromobenzyl phenyl sulfone
Formula: C13H10BrNO4S
CAS: 21272-88-8
Molecular weight: 355
m/z	intensity
41	20
42	3
43	3
44	2
45	15
46	5
47	9
48	5
49	50
50	118
51	489
52	43
53	35
55	108
56	4
57	3
61	10
62	65
63	229
64	80
65	80
66	6
68	26
69	14
70	5
71	3
73	1
74	22
75	26
76	48
77	994
78	106
79	103
80	19
81	25
82	13
83	3
84	28
85	3
86	27
87	17
88	24
89	489
90	59
91	111
92	10
93	15
94	3
95	6
97	115
98	7
99	6
102	2
103	8
105	999
106	127
107	398
108	27
109	9
113	2
115	6
117	3
118	6
119	124
120	11
121	6
125	310
126	24
127	16
128	0
131	3
133	4
135	16
137	1
139	8
141	135
142	9
143	8
146	1
151	0
152	5
153	3
154	2
155	3
156	4
158	31
160	25
163	8
164	9
165	44
166	9
167	2
168	13
169	3
170	14
171	2
172	0
184	0
186	9
188	9
198	13
200	12
202	0
214	51
215	3
216	49
217	3
