Mass Spectrum: Phenoxyacetic acid, TMS derivative
Formula: C11H16O3Si
CAS: 21273-08-5
Molecular weight: 224
m/z	intensity
42	10
43	30
44	20
45	60
47	30
50	10
51	50
52	10
58	20
59	20
61	20
63	10
65	30
66	20
72	30
73	999
74	90
75	210
76	20
77	150
78	20
79	10
88	10
89	20
91	30
92	20
93	10
94	10
95	10
101	10
105	10
107	10
116	10
117	40
121	10
129	10
131	10
135	160
136	20
137	10
147	140
148	20
149	20
151	50
152	10
153	10
163	60
164	10
165	170
166	30
167	10
171	20
179	10
181	60
182	10
209	30
210	10
224	200
225	40
226	10
