Mass Spectrum: 4-Phenoxybutyric acid, TMS derivative
Formula: C13H20O3Si
CAS: 21273-10-9
Molecular weight: 252
m/z	intensity
40	29
41	237
42	59
43	79
44	39
45	207
46	19
47	89
48	9
49	9
50	19
51	69
52	9
53	9
55	39
56	9
57	9
58	29
59	39
60	19
61	49
62	9
63	29
64	9
65	108
66	59
67	9
68	9
69	207
70	29
71	9
72	49
73	999
74	108
75	485
76	39
77	207
78	29
79	29
85	9
86	9
87	9
88	19
89	9
90	9
91	49
92	9
93	9
94	198
95	29
99	59
100	9
101	29
102	9
103	9
104	9
105	19
106	9
107	39
108	9
115	9
116	39
117	138
118	19
119	19
120	9
121	19
123	19
129	9
131	9
132	9
133	9
134	9
135	19
137	19
143	49
144	9
145	9
147	69
148	9
149	9
150	19
151	772
152	118
153	49
159	980
160	138
161	49
163	9
165	19
166	138
167	29
168	9
195	29
196	9
225	9
237	39
238	9
252	19
253	9
