Mass Spectrum: Valeric acid, 5-methoxy-, trimethylsilyl ester
Formula: C9H20O3Si
CAS: 21273-24-5
Molecular weight: 204
m/z	intensity
41	80
42	20
43	60
44	20
45	460
46	10
47	70
53	10
54	40
55	250
56	30
57	10
58	130
59	60
60	10
61	80
69	20
71	140
72	50
73	999
74	80
75	660
76	60
77	50
82	30
83	70
84	50
85	10
86	40
88	10
89	810
90	70
91	30
99	170
100	10
101	20
103	40
104	10
105	10
107	10
113	50
114	120
115	20
116	20
117	70
118	10
129	80
130	10
131	30
132	10
145	80
146	10
147	50
157	460
158	60
159	50
172	70
173	20
174	10
189	100
190	10
204	10
