Mass Spectrum: O-Trifluoroacetyl-neoisomenthol
Formula: C12H19F3O2
CAS: 2127-99-3
Molecular weight: 252
m/z	intensity
27	170
29	130
39	160
41	510
42	140
43	520
51	30
53	130
54	160
55	460
56	140
57	120
59	30
65	30
67	300
68	170
69	260
70	70
77	40
79	100
80	60
81	999
82	250
83	170
91	30
93	40
94	120
95	970
96	510
97	140
109	60
110	30
123	290
124	30
138	410
139	70
153	10
166	3
167	8
209	3
237	4
252	4
