Mass Spectrum: Butyric acid, 4-ethoxy-, trimethylsilyl ester
Formula: C9H20O3Si
CAS: 21273-25-6
Molecular weight: 204
m/z	intensity
41	157
42	23
43	78
44	28
45	76
47	105
55	49
56	26
57	28
58	55
59	210
60	26
61	81
70	110
72	26
73	999
74	86
75	926
76	73
77	55
85	144
86	76
87	57
88	10
89	39
90	13
91	13
99	65
101	26
103	981
104	105
105	47
114	28
115	5
116	52
117	656
118	68
119	36
129	28
130	10
131	13
132	131
133	7
143	105
144	10
145	31
146	76
159	78
160	34
161	31
175	241
176	10
189	141
190	23
204	26
