Mass Spectrum: 6-Amino-2,3-diphenyl-8-[p-sulfamylbenzylamino]pyrido[2,3-b]pyrazine
Formula: C26H22N6O2S
CAS: 21271-90-9
Molecular weight: 482
m/z	intensity
41	104
44	115
47	102
48	488
49	51
50	188
51	32
52	91
53	23
63	23
64	999
65	86
66	53
67	105
75	117
76	149
77	276
78	55
79	93
80	95
84	39
86	26
90	53
91	134
102	315
103	160
104	279
105	147
106	101
107	120
118	82
119	114
120	49
156	131
166	59
182	99
183	53
184	98
298	24
312	317
313	270
314	45
403	116
482	27
