Mass Spectrum: Trichothec-9-en-4-ol, 7,8:12,13-diepoxy-, 2-butenoate, [4.beta.(Z),7.beta.,8.beta.]-
Formula: C19H24O5
CAS: 21284-11-7
Molecular weight: 332
m/z	intensity
39	62
41	231
43	124
53	57
69	999
77	75
79	97
82	66
91	120
95	93
105	80
106	71
107	88
109	137
111	93
119	75
121	97
122	75
123	88
135	111
136	80
147	62
149	57
159	62
175	80
332	231
333	53
