Mass Spectrum: 1,5-Cyclooctadiene, 3,4-dimethyl-
Formula: C10H16
CAS: 21284-05-9
Molecular weight: 136
m/z	intensity
27	114
28	7
29	35
30	1
33	0
36	0
37	3
38	10
39	161
40	49
41	157
42	27
43	8
45	0
49	1
50	15
51	39
52	17
53	135
54	10
55	40
56	2
57	0
58	1
61	1
62	5
63	14
64	3
65	39
66	39
67	406
68	999
69	65
70	3
71	0
74	2
75	2
76	1
77	58
78	16
79	93
80	24
81	36
82	7
83	0
84	0
86	0
87	0
89	3
90	0
91	53
92	24
93	85
94	97
95	27
96	2
102	1
103	4
104	1
105	11
106	5
107	61
108	18
109	2
115	3
116	0
117	2
118	0
119	2
120	0
121	33
122	3
135	0
136	34
137	3
