Mass Spectrum: Methyl 2-hydroxyethyl sulfoxide
Formula: C3H8O2S
CAS: 21281-74-3
Molecular weight: 108
m/z	intensity
13	58
14	156
15	404
19	119
26	118
27	488
28	128
29	654
31	185
33	52
43	338
44	195
45	999
46	245
47	374
48	133
61	154
62	53
63	313
64	675
65	60
66	43
77	13
78	20
79	16
108	91
109	13
