Mass Spectrum: Butanoic acid, 3-oxo-, 2-[(2-methyl-1-oxo-2-propenyl)oxy]ethyl ester
Formula: C10H14O5
CAS: 21282-97-3
Molecular weight: 214
m/z	intensity
14	1
15	33
16	1
19	2
25	2
26	15
27	46
29	42
30	4
31	18
36	1
37	7
38	18
39	218
40	75
41	570
42	144
43	898
44	36
45	29
50	1
51	2
52	1
53	9
54	5
55	15
56	7
57	5
58	18
59	6
60	1
61	1
66	1
67	3
68	87
69	999
70	47
71	7
72	2
73	8
74	1
77	3
78	1
82	7
83	1
84	30
85	252
86	170
87	105
88	5
96	2
97	2
98	3
99	23
100	91
101	6
102	1
103	1
105	2
112	651
113	365
114	25
115	3
120	1
124	1
128	12
129	76
130	18
131	5
144	1
147	3
148	3
172	1
214	1
