Mass Spectrum: 3,5-Octadiene, 4,5-diethyl-, (E,Z)-
Formula: C12H22
CAS: 21293-02-7
Molecular weight: 166
m/z	intensity
2	8
12	0
13	1
14	6
15	80
16	1
17	0
18	1
25	0
26	15
27	332
28	43
29	342
30	7
31	1
37	2
38	11
39	282
40	40
41	567
42	42
43	180
44	6
45	1
46	1
50	16
51	72
52	73
53	332
54	49
55	684
56	46
57	146
58	10
59	4
60	1
61	3
62	15
63	62
64	17
65	146
66	50
67	389
68	46
69	273
70	21
71	20
72	1
73	1
74	8
75	10
76	6
77	253
78	62
79	233
80	42
81	679
82	72
83	66
84	11
85	2
86	2
87	3
88	1
90	3
91	196
92	32
93	173
94	31
95	999
96	102
97	13
98	1
100	0
101	0
102	2
103	7
104	6
105	48
106	10
107	88
108	31
109	239
110	40
111	3
112	0
115	7
116	2
117	5
118	1
119	7
120	2
121	28
122	15
123	194
124	26
125	3
126	3
127	0
128	0
133	1
134	1
135	10
136	6
137	708
138	81
139	5
149	1
150	0
151	42
152	4
153	0
165	1
166	523
167	69
168	4
