Mass Spectrum: 3-Phenylpropanesulfonmorpholide
Formula: C13H19NO3S
CAS: 21297-84-7
Molecular weight: 269
m/z	intensity
41	77
42	45
43	16
44	24
45	6
47	13
48	8
49	9
50	11
51	6
52	10
53	5
54	16
55	32
56	345
57	174
58	16
59	6
60	5
62	5
63	30
64	8
65	108
66	7
70	5
72	1
75	1
76	4
77	32
78	17
79	10
82	2
83	3
84	9
85	6
86	308
87	999
88	90
89	31
90	24
91	549
92	39
100	17
102	5
103	15
104	7
105	8
115	44
116	15
117	489
118	840
119	77
120	5
134	21
148	6
169	3
171	3
176	6
183	8
196	6
198	5
205	2
269	44
270	5
271	1
