Mass Spectrum: 2-Nonene, 2-methyl-
Formula: C10H20
CAS: 2129-95-5
Molecular weight: 140
m/z	intensity
26	6
27	92
28	19
29	98
30	2
38	4
39	91
40	21
41	492
42	73
43	144
44	5
45	12
50	4
51	11
52	6
53	52
54	20
55	295
56	609
57	202
58	9
60	12
63	3
65	10
66	7
67	64
68	79
69	999
70	189
71	24
73	7
74	2
77	8
78	2
79	8
80	2
81	16
82	23
83	80
84	99
85	17
87	3
91	4
93	2
95	7
96	8
97	50
98	20
99	2
105	4
109	2
111	14
112	22
113	2
120	2
125	17
126	2
140	277
141	31
142	2
