Mass Spectrum: 2-Isopropyl-2-phenylglycidic acid, tert-butyl ester
Formula: C16H22O3
CAS: 21297-92-7
Molecular weight: 262
m/z	intensity
57	999
77	271
91	434
105	358
116	326
130	195
135	543
145	347
147	358
160	866
161	298
163	959
187	307
205	706
206	886
262	5
