Mass Spectrum: 6,6'-Bis(2-methylbenz[d][1,3]oxazin-4-one)
Formula: C18H12N2O4
CAS: 2130-57-6
Molecular weight: 320
m/z	intensity
33	27
34	13
35	5
36	9
37	14
39	41
40	147
41	50
43	999
45	11
50	59
51	25
52	22
53	9
55	34
56	11
57	25
58	5
60	6
61	9
62	29
63	33
64	12
65	7
66	5
67	6
69	27
70	11
71	11
74	37
75	34
77	26
78	7
80	5
81	11
82	14
83	6
84	5
86	29
87	22
88	23
89	11
91	12
96	8
98	14
99	17
100	17
101	11
102	9
109	5
110	9
111	10
112	11
113	8
114	24
115	23
116	9
117	5
123	5
124	7
125	16
126	14
127	8
136	5
137	20
138	15
139	8
149	11
150	21
151	26
152	23
153	12
160	13
163	10
164	85
165	49
166	10
171	6
177	8
178	16
179	21
180	14
191	25
192	9
193	21
205	12
207	65
208	12
220	24
221	6
235	174
236	24
249	44
250	23
251	5
276	37
277	11
278	48
279	9
304	7
305	72
306	12
316	6
317	9
320	356
321	59
322	8
