Mass Spectrum: D:A-Friedooleanan-24-ol
Formula: C30H52O
CAS: 2130-12-3
Molecular weight: 428
m/z	intensity
95	450
109	999
123	800
135	350
137	360
149	450
163	220
177	270
203	220
205	950
217	180
219	150
231	500
233	250
245	350
397	650
428	10
