Mass Spectrum: Stannum tetrabromide-bispyridine
Formula: C10H10Br4N2Sn
CAS: 21309-39-7
Molecular weight: 594
m/z	intensity
16	3
17	10
18	54
25	6
26	44
27	10
28	16
29	1
32	1
35	1
36	8
37	13
38	24
39	53
40	8
41	6
43	3
48	6
49	25
50	137
51	220
52	543
53	62
54	2
55	3
57	5
62	1
63	2
64	2
65	2
69	2
70	2
71	2
74	3
75	17
76	13
77	3
78	119
79	999
80	388
81	181
82	383
83	1
84	1
85	1
91	2
93	1
95	2
97	1
98	2
99	3
100	1
109	1
112	1
114	1
116	24
117	11
118	38
119	14
120	54
122	8
124	10
125	1
135	2
149	3
160	2
193	2
195	19
196	10
197	59
198	22
199	85
200	13
201	53
203	13
205	9
274	3
275	1
276	8
277	4
278	13
279	4
280	13
281	2
282	7
284	2
349	1
351	6
353	30
354	13
355	115
356	56
357	239
358	77
359	315
360	48
361	223
362	12
363	103
365	34
367	9
432	4
433	1
434	16
435	8
436	45
437	16
438	63
439	13
440	55
441	8
442	33
443	2
444	15
446	5
