Mass Spectrum: N-t-Boc-O-benzyl-L-tyrosine
Formula: C21H25NO5
CAS: 2130-96-3
Molecular weight: 371
m/z	intensity
15	1
16	2
17	1
18	3
26	4
27	15
28	28
29	24
30	1
31	21
37	2
38	5
39	48
40	10
41	158
42	7
43	9
44	146
45	3
46	1
49	1
50	7
51	11
52	4
53	9
54	3
55	38
56	84
57	67
58	4
59	86
60	3
62	1
63	6
64	2
65	48
66	3
67	1
69	2
71	1
73	1
74	5
75	1
76	1
77	8
78	7
79	4
80	1
81	1
82	1
83	1
85	1
86	1
87	7
89	10
90	8
91	999
92	84
93	4
94	3
95	2
96	1
97	1
98	1
101	2
103	1
104	1
105	4
106	4
107	31
108	4
109	1
110	1
115	4
116	2
117	4
118	1
119	3
120	2
121	2
123	1
124	1
127	1
128	3
129	3
130	1
131	5
132	3
133	3
134	6
135	6
136	1
141	2
142	1
143	1
145	3
146	1
147	3
148	1
149	3
150	1
151	1
152	1
153	1
155	1
157	1
159	3
160	1
161	3
162	1
163	5
164	2
165	2
167	1
173	1
175	5
176	1
177	1
178	2
179	9
180	2
181	1
184	1
189	1
190	1
191	4
193	1
195	1
196	1
197	376
198	60
199	6
203	4
204	1
205	3
206	1
207	5
208	1
217	4
219	6
220	1
221	1
223	1
224	1
225	2
226	9
227	1
233	19
234	3
235	33
236	5
247	5
248	1
249	1
252	1
254	17
255	3
263	253
264	45
265	5
270	6
271	2
278	52
279	9
280	1
296	1
297	26
298	16
299	3
310	18
311	4
315	13
316	3
371	22
372	5
