Mass Spectrum: 2H-Pyran-3-ol, tetrahydro-6-methoxy-2-methyl-, [2R-(2.alpha.,3.beta.,6.beta.)]-
Formula: C7H14O3
CAS: 21317-50-0
Molecular weight: 146
m/z	intensity
29	100
30	13
31	85
39	27
40	18
41	69
42	23
43	89
44	40
45	74
46	1
50	1
51	1
52	1
53	15
54	1
55	19
56	2
57	115
58	999
59	218
60	9
61	17
65	2
67	8
68	9
69	69
70	41
71	67
72	8
73	5
74	1
75	6
77	4
78	1
79	6
80	9
81	6
84	1
85	5
88	41
90	1
97	29
100	5
101	16
102	169
103	9
107	14
108	2
113	2
114	42
115	93
116	4
123	6
146	4
