Mass Spectrum: 2-Benzoxazolamine, N-(phenylmethyl)-
Formula: C14H12N2O
CAS: 21326-87-4
Molecular weight: 224
m/z	intensity
39	34
51	35
65	93
78	30
91	999
92	69
105	40
110	10
111	10
117	25
133	25
134	12
147	10
149	10
183	10
196	10
207	20
223	90
224	270
225	60
