Mass Spectrum: 7H-1,2,3-Triazolo[4,5-d]pyrimidin-7-one, 3,6-dihydro-3-benzyl-
Formula: C11H9N5O
CAS: 21324-31-2
Molecular weight: 227
m/z	intensity
37	10
38	81
39	248
40	61
41	85
42	12
43	42
44	12
45	14
50	99
51	206
52	80
53	66
54	36
55	13
56	1
60	2
61	12
62	49
63	169
64	64
65	595
66	70
67	85
68	99
69	14
70	2
73	3
74	26
75	27
76	33
77	114
78	35
79	42
80	5
85	14
86	4
87	5
89	147
90	98
91	999
92	82
93	51
94	17
95	5
96	22
101	4
102	9
103	7
104	38
105	7
114	2
116	85
117	107
118	10
121	14
122	3
128	14
129	19
130	3
141	2
142	10
143	58
144	126
145	13
153	4
154	1
155	2
169	5
170	637
171	102
172	5
182	5
184	3
185	1
198	405
199	81
200	5
209	1
227	111
228	16
229	2
