Mass Spectrum: .alpha.-Thiodeoxyguanosine
Formula: C10H13N5O3S
CAS: 2133-81-5
Molecular weight: 283
m/z	intensity
41	999
43	532
44	300
45	315
46	3
47	62
49	36
50	96
51	131
52	105
53	455
54	93
55	221
56	57
57	215
58	31
59	21
60	53
61	45
62	5
63	1
64	18
65	17
66	21
67	22
68	130
69	410
70	289
71	190
72	31
73	262
74	25
75	11
76	0
77	5
78	8
79	15
80	9
81	969
82	182
83	38
84	19
85	85
86	25
87	18
88	4
89	3
90	0
91	5
92	16
93	4
94	7
95	40
97	427
98	552
99	189
100	21
101	10
103	17
104	0
105	2
106	4
107	33
108	19
109	32
110	9
111	10
112	21
113	12
114	21
115	59
116	35
117	422
118	21
119	7
120	1
121	2
122	1
123	15
124	5
125	67
126	18
127	8
128	4
129	6
130	3
131	2
133	19
134	74
135	12
136	7
137	3
139	39
140	7
141	4
142	0
143	11
144	5
145	8
146	0
147	4
149	2
150	19
151	10
152	3
153	3
154	2
155	2
159	0
160	4
161	0
165	2
166	5
167	359
168	36
169	17
170	2
171	3
172	2
173	8
174	1
175	0
176	1
177	2
178	2
179	0
180	2
181	2
183	3
184	2
185	1
186	2
189	3
192	10
193	4
194	5
195	3
196	4
197	15
198	2
201	6
202	5
203	2
204	3
206	5
207	0
213	1
214	21
215	4
216	0
217	4
218	13
219	4
220	0
224	1
228	7
229	24
230	4
231	3
232	1
233	3
247	11
248	1
256	0
265	4
283	1
