Mass Spectrum: L-Azetidine-2-carboxylic acid
Formula: C4H7NO2
CAS: 2133-34-8
Molecular weight: 101
m/z	intensity
41	26
42	19
43	13
44	21
45	80
46	8
47	8
48	7
51	20
52	13
53	8
54	55
55	123
56	999
57	35
58	18
64	5
70	1
72	5
73	36
74	6
82	5
83	3
84	27
86	19
100	4
101	44
102	12
