Mass Spectrum: Selenourea, N,N-diphenyl-
Formula: C13H12N2Se
CAS: 21347-28-4
Molecular weight: 276
m/z	intensity
41	99
42	46
43	187
44	315
50	254
51	999
52	131
63	127
64	120
65	173
66	431
74	58
75	47
76	65
77	853
78	90
91	283
92	46
93	28
102	67
103	132
118	35
119	575
120	46
139	31
140	38
141	30
166	123
167	249
168	237
169	293
170	31
192	56
193	240
194	838
195	198
272	23
273	26
274	40
276	100
278	28
