Mass Spectrum: Carbamoselenothioic acid, dimethyl-, S-methyl ester
Formula: C4H9NSSe
CAS: 21347-33-1
Molecular weight: 183
m/z	intensity
41	189
42	85
43	217
44	999
45	114
46	82
47	225
48	71
59	119
72	230
73	205
80	51
88	914
89	50
90	51
91	55
92	51
93	82
94	32
95	57
118	53
119	85
120	139
121	260
122	92
123	82
124	80
132	110
133	116
134	317
135	87
136	664
137	75
138	116
139	92
140	80
168	85
179	128
180	96
181	357
183	767
185	169
