Mass Spectrum: Carbamoselenothioic acid, phenyl-, S-methyl ester
Formula: C8H9NSSe
CAS: 21347-34-2
Molecular weight: 231
m/z	intensity
44	70
45	210
46	50
47	400
48	370
49	70
50	230
51	400
63	30
64	30
74	60
75	80
76	240
77	999
78	70
103	560
104	50
124	50
150	30
156	40
179	90
180	100
181	160
183	500
184	70
185	90
229	40
231	70
232	20
