Mass Spectrum: 4-Methyl-5-decanol
Formula: C11H24O
CAS: 213547-15-0
Molecular weight: 172
m/z	intensity
14	3
15	10
16	0
18	14
27	189
28	60
29	261
30	12
31	56
32	6
39	114
40	34
41	372
42	66
43	365
44	90
45	120
51	6
52	4
53	44
54	4
55	882
56	116
57	164
58	48
59	92
65	8
67	32
68	13
69	110
70	73
71	102
72	38
73	7
77	6
79	6
81	16
82	90
83	999
84	92
85	22
86	4
97	20
98	6
99	41
100	90
101	325
102	18
103	4
110	4
111	17
112	5
128	8
154	13
