Mass Spectrum: Methyl 9-methyltetradecanoate
Formula: C16H32O2
CAS: 213617-69-7
Molecular weight: 256
m/z	intensity
39	15
41	143
42	26
43	235
44	3
45	7
53	7
54	12
55	171
56	62
57	111
58	33
59	61
67	22
68	4
69	158
70	17
71	40
72	4
73	23
74	999
75	160
76	2
79	5
80	7
81	56
82	15
83	95
84	18
85	44
86	9
87	665
88	32
93	8
95	24
96	17
97	92
98	28
99	3
100	11
101	76
102	11
103	6
107	6
109	25
110	6
111	46
112	18
113	2
115	8
116	16
120	15
121	5
122	5
124	6
125	29
129	62
130	18
131	15
132	12
133	9
135	13
136	6
137	5
138	18
140	12
143	177
144	22
149	2
152	6
153	32
154	7
157	66
158	14
165	15
166	8
167	5
171	33
180	11
181	8
185	59
191	6
192	10
197	12
199	56
200	15
209	9
213	120
214	37
225	28
227	14
256	78
257	16
