Mass Spectrum: 1-(2-Pyridyl)-3-(tert-butyl-oxycarbonyl-amino)piperidine-2,6-dione
Formula: C15H19N3O4
CAS: 213742-11-1
Molecular weight: 305
m/z	intensity
51	13
52	2
54	9
55	45
56	77
57	999
58	36
59	18
66	7
67	13
69	7
78	114
79	23
80	2
82	1
83	25
84	59
85	4
87	6
92	5
93	8
94	124
95	57
99	21
101	9
105	3
106	6
107	14
120	23
121	493
122	35
123	6
129	4
133	14
134	16
136	62
137	2
148	14
149	49
150	22
160	2
161	39
162	2
176	118
177	92
178	4
205	15
206	5
220	20
221	11
222	37
232	78
233	8
249	25
250	65
251	5
277	14
305	7
