Mass Spectrum: 1-[Benzenesulfonyl]-2-methylaziridine
Formula: C9H11NO2S
CAS: 21384-00-9
Molecular weight: 197
m/z	intensity
41	36
42	6
43	3
44	5
45	3
47	2
48	1
49	15
50	32
51	128
52	9
53	1
54	24
56	999
57	28
59	5
63	5
64	1
65	7
69	4
70	4
74	7
75	5
76	2
77	151
78	13
82	1
84	9
86	7
88	3
91	12
97	6
105	2
117	2
125	9
141	12
153	1
182	5
197	3
