Mass Spectrum: 3,5-Dibromosalicylaldoxime
Formula: C7H5Br2NO2
CAS: 21386-43-6
Molecular weight: 293
m/z	intensity
12	9
13	3
14	3
15	5
16	9
17	87
18	390
19	24
20	4
24	8
25	30
26	32
27	25
28	317
29	49
30	40
31	13
32	4
36	62
37	287
38	197
39	89
40	16
41	26
42	7
43	9
44	145
45	29
46	3
48	20
49	100
50	234
51	167
52	157
53	323
54	35
55	13
56	1
57	3
58	2
59	4
60	89
61	550
62	999
63	669
64	115
65	37
66	36
67	17
68	9
69	7
70	8
71	9
72	12
73	73
74	201
75	253
76	130
77	41
78	73
79	66
80	20
81	49
82	20
83	13
84	35
85	27
86	63
87	133
88	584
89	332
90	230
91	212
92	30
93	23
94	4
95	8
97	1
98	8
99	26
100	24
101	7
102	2
103	8
104	13
105	9
106	21
107	25
108	9
109	5
110	2
111	3
112	2
115	15
116	60
117	92
118	61
119	73
120	7
121	2
122	2
123	13
124	30
125	18
126	2
127	2
128	12
129	17
130	19
131	34
132	9
133	18
134	5
135	19
136	2
137	1
138	4
139	9
140	24
141	549
142	98
143	575
144	80
145	57
146	8
147	10
148	8
149	1
150	1
152	3
153	12
154	20
155	32
156	25
157	28
158	19
159	17
160	10
161	7
162	1
165	1
166	7
167	38
168	383
169	126
170	442
171	102
172	82
173	18
174	1
175	7
178	3
179	6
180	6
181	7
182	6
183	31
184	9
185	41
186	14
187	11
188	8
189	1
194	1
195	16
196	347
197	134
198	336
199	114
200	17
201	2
208	1
210	2
211	1
213	11
214	3
215	10
216	3
219	2
220	24
221	30
222	52
223	54
224	32
225	26
226	4
227	1
232	1
233	1
234	3
235	3
236	3
237	2
238	1
239	2
241	1
246	7
247	100
248	26
249	194
250	36
251	106
252	16
253	8
254	3
258	2
259	1
260	4
261	3
262	3
263	3
264	2
265	2
266	2
267	2
268	2
269	1
270	1
271	2
272	1
273	1
274	2
275	255
276	49
277	515
278	93
279	292
280	54
281	35
282	6
283	1
290	1
293	109
294	9
295	210
296	16
297	97
298	8
