Mass Spectrum: Zearalenone, [S-(E)]-, 2TMS derivative
Formula: C24H38O5Si2
CAS: 21381-15-7
Molecular weight: 462
m/z	intensity
41	85
43	40
45	85
55	125
57	12
59	17
67	17
69	80
73	999
74	85
75	187
77	12
81	23
83	12
91	17
95	17
97	17
112	46
113	29
115	29
117	34
125	147
128	17
129	46
131	12
132	12
133	40
145	29
147	46
149	17
151	503
152	57
201	57
202	17
203	40
204	12
205	17
216	23
217	63
218	23
219	17
221	12
222	12
223	12
229	17
231	12
232	113
233	102
234	23
235	34
236	29
237	17
245	29
247	34
248	29
249	29
259	46
260	328
261	215
262	51
263	12
265	12
273	17
275	34
276	12
277	34
278	17
279	12
281	12
289	34
291	57
292	17
293	23
294	12
295	23
303	12
304	34
305	232
306	91
307	153
308	57
309	29
317	164
318	51
319	34
320	102
321	57
322	12
323	96
324	29
331	34
332	12
333	418
334	147
335	63
336	12
347	12
349	12
350	40
351	51
352	6
354	34
355	6
357	6
372	23
373	12
375	6
390	34
391	1
429	232
430	74
431	23
444	136
445	46
446	6
447	147
448	34
449	12
462	255
463	85
464	29
