Mass Spectrum: Ethanol, 2-[(4-nitrophenyl)sulfonyl]-
Formula: C8H9NO5S
CAS: 21386-32-3
Molecular weight: 231
m/z	intensity
45	999
50	228
51	76
63	94
64	58
65	70
74	80
75	242
76	336
77	264
78	56
92	80
93	40
109	48
122	154
123	300
124	160
139	52
140	18
141	40
149	68
166	32
169	50
170	118
186	70
187	26
188	700
189	52
201	148
203	34
213	22
231	112
