Mass Spectrum: cis-2,3-Dimethyl-1-(p-nitrobenzoyl)aziridine
Formula: C11H12N2O3
CAS: 21383-77-7
Molecular weight: 220
m/z	intensity
15	4
26	2
27	11
28	38
29	22
30	4
37	1
38	2
39	6
40	1
41	18
42	77
43	10
44	5
50	25
51	5
52	1
53	3
54	7
55	10
56	5
57	2
62	1
63	5
64	7
65	2
68	9
69	3
70	999
71	55
72	1
74	6
75	20
76	58
77	6
78	1
90	1
91	1
92	14
93	1
102	2
103	6
104	53
105	4
118	1
120	22
121	2
122	1
129	1
130	3
134	2
148	1
149	2
150	54
151	5
175	4
176	23
177	3
190	1
203	3
204	1
205	2
219	3
220	11
221	3
