Mass Spectrum: Erythromycin, 12-deoxy-, N-oxide
Formula: C37H67NO13
CAS: 21395-58-4
Molecular weight: 733
m/z	intensity
41	160
43	478
55	172
57	188
69	187
71	294
83	729
84	119
85	185
95	119
96	103
97	128
98	149
99	355
101	167
109	202
113	307
114	93
115	999
116	119
121	53
123	136
124	110
125	347
127	906
137	78
143	126
155	78
156	108
157	42
158	185
159	291
165	42
167	30
172	44
174	57
177	25
183	31
193	25
195	82
205	26
213	24
221	20
223	487
224	65
239	48
241	230
242	38
251	64
257	28
259	48
261	24
269	47
271	30
286	23
314	30
315	50
325	30
349	29
365	26
366	29
367	58
368	20
383	67
384	23
385	47
395	49
401	78
413	134
414	27
416	13
479	12
495	10
497	15
498	8
523	25
524	7
538	9
539	8
540	9
541	8
542	8
556	23
557	10
558	6
571	12
572	5
574	10
575	5
644	2
654	18
655	2
656	3
686	4
687	3
697	6
699	7
700	3
715	3
