Mass Spectrum: 3-Penten-2-one, 4-[(phenylmethyl)amino]-
Formula: C12H15NO
CAS: 21396-42-9
Molecular weight: 189
m/z	intensity
33	2
34	2
36	2
37	6
38	25
39	168
40	61
41	79
42	209
43	196
44	19
45	5
46	0
48	0
49	3
50	46
51	99
52	35
53	20
54	23
55	27
56	11
57	9
58	6
60	1
61	2
62	18
63	56
65	286
67	24
68	23
69	19
70	10
71	8
72	10
73	6
74	10
75	11
76	20
77	81
78	32
79	35
80	6
81	4
82	12
83	9
84	12
85	5
86	4
87	5
89	48
91	999
92	77
93	5
94	8
95	6
96	16
98	19
99	2
100	0
101	1
102	4
103	13
104	38
105	78
106	78
107	14
108	2
109	5
110	3
111	2
112	5
113	1
114	1
115	13
116	6
117	7
118	6
119	3
120	6
121	3
122	1
123	1
124	0
125	2
126	2
127	7
128	12
129	19
130	29
131	24
132	14
133	10
134	4
135	2
136	1
137	4
138	0
139	0
140	5
141	3
142	3
143	7
144	28
145	7
146	99
147	15
148	5
149	14
150	2
151	1
152	2
153	2
154	1
155	2
156	4
157	9
158	6
159	2
160	3
161	1
162	3
163	0
165	1
166	0
167	2
168	2
169	3
170	14
171	8
172	84
173	18
174	154
175	21
176	0
180	1
181	0
182	1
183	2
184	3
185	3
186	5
187	69
188	28
189	219
190	29
191	2
