Mass Spectrum: 1-Cyclohexene-1-carboxaldehyde, 4-(1-methylethyl)-
Formula: C10H16O
CAS: 21391-98-0
Molecular weight: 152
m/z	intensity
27	402
28	8
29	170
30	3
31	19
36	5
37	2
38	16
39	447
40	67
41	822
42	88
43	303
44	5
45	17
46	6
49	3
50	41
51	156
52	85
53	328
54	80
55	461
56	43
57	43
58	9
59	30
60	5
62	5
63	30
64	5
65	103
66	70
67	455
68	67
69	231
70	248
71	46
72	3
73	1
74	4
75	31
76	7
77	302
78	83
79	641
80	85
81	758
82	106
83	298
84	39
85	15
86	4
87	4
90	3
91	157
92	68
93	67
94	77
95	333
96	177
97	23
98	9
99	14
101	3
102	5
103	9
105	33
106	10
107	73
108	48
109	999
110	157
111	26
114	3
115	4
116	2
119	58
120	9
121	33
122	3
123	88
124	96
125	7
126	8
127	10
129	7
133	6
134	28
135	6
137	69
138	5
152	150
153	15
