Mass Spectrum: 1,4-Benzodioxan-2-methylamine, N-ethyl-
Formula: C11H15NO2
CAS: 21398-66-3
Molecular weight: 193
m/z	intensity
29	298
30	10
35	1
36	7
37	6
38	18
39	49
40	37
41	76
42	30
43	38
44	36
50	19
51	30
52	63
53	31
54	11
55	29
56	35
58	999
59	38
63	8
64	4
65	11
67	2
68	9
69	8
70	27
71	5
72	6
77	16
78	3
79	7
80	20
81	110
82	9
83	3
84	13
85	4
89	4
91	3
92	1
93	3
94	4
95	5
96	16
97	5
98	12
105	1
107	7
108	2
109	9
110	9
111	8
119	2
120	2
121	26
122	2
131	2
134	4
135	18
136	16
147	8
148	7
149	7
178	8
179	1
193	102
194	12
