Mass Spectrum: 1,2-Dibenzoyl-3-methyldiaziridine
Formula: C16H14N2O2
CAS: 21392-67-6
Molecular weight: 266
m/z	intensity
40	16
41	9
42	8
43	21
44	9
55	4
56	5
57	47
69	28
71	25
77	68
78	15
103	16
104	14
105	999
106	43
107	7
266	107
267	14
268	6
