Mass Spectrum: Uridine, 2'-O-methyl-
Formula: C10H14N2O6
CAS: 2140-76-3
Molecular weight: 258
m/z	intensity
27	49
28	163
29	81
30	20
31	75
32	81
33	49
39	26
40	26
41	93
42	26
43	93
44	14
45	163
46	8
49	8
50	14
53	23
54	23
55	93
56	17
57	122
58	35
59	67
60	17
61	35
66	5
67	23
68	46
69	99
70	35
71	134
72	26
73	93
74	35
75	49
81	17
82	23
83	20
84	17
85	81
86	14
87	999
88	67
89	17
95	17
96	23
97	29
98	49
99	20
100	113
101	37
110	5
111	5
112	23
113	113
114	29
115	49
129	23
137	11
138	14
141	20
146	215
147	192
148	20
166	23
167	8
168	11
169	23
185	20
195	23
209	23
226	23
258	14
