Mass Spectrum: Cytidine, 2'-O-methyl-
Formula: C10H15N3O5
CAS: 2140-72-9
Molecular weight: 257
m/z	intensity
27	152
28	155
29	316
30	46
31	206
32	40
36	23
38	17
39	77
40	2
41	169
42	112
43	416
44	913
45	844
46	46
47	17
48	63
50	20
51	20
52	46
53	28
54	51
55	97
56	48
57	146
58	69
59	80
60	155
61	106
65	23
66	17
67	54
68	132
69	189
70	69
71	106
72	37
73	86
74	69
75	51
76	20
77	20
78	20
79	48
80	20
81	51
82	28
83	57
84	57
85	74
86	31
87	379
88	48
89	20
91	28
93	28
94	74
95	97
96	66
97	51
98	25
99	34
100	54
101	43
102	28
103	20
104	20
105	20
106	20
107	20
108	20
109	28
110	28
111	261
112	999
113	69
114	25
115	51
116	20
117	20
118	20
119	20
120	8
121	20
122	48
123	48
124	28
125	28
126	28
127	28
128	28
129	28
130	5
131	20
133	28
134	17
135	17
136	57
137	28
138	31
139	5
140	175
141	20
146	419
147	51
148	20
149	28
151	856
152	71
153	20
154	25
166	25
168	123
169	17
178	51
183	40
184	25
185	20
226	37
227	17
228	34
257	20
