Mass Spectrum: 2,4,6,8,9-Pentathiaadamantane-3-methanol, .alpha.,.alpha.,1,5,7-pentamethyl-
Formula: C11H18OS5
CAS: 21404-63-7
Molecular weight: 326
m/z	intensity
12	2
13	1
15	27
17	22
18	110
25	2
26	10
27	27
28	11
29	18
30	1
31	50
32	10
33	22
34	59
35	4
36	14
37	3
38	9
39	44
40	8
41	64
42	9
43	175
44	29
45	64
46	6
47	13
48	3
49	1
50	6
51	9
52	4
53	19
54	6
55	13
56	9
57	26
58	80
59	999
60	45
61	54
62	3
63	3
64	5
65	11
66	4
67	16
68	3
69	13
70	4
71	16
72	4
73	12
74	6
75	9
76	56
77	16
78	7
79	9
80	2
81	9
82	3
83	11
84	11
85	42
86	8
87	6
88	2
89	1
90	3
91	16
92	16
93	9
94	5
95	7
96	3
97	15
98	5
99	13
100	4
101	29
102	3
103	16
104	2
105	3
106	1
107	2
108	1
109	25
110	45
111	46
112	28
113	38
114	4
115	12
116	5
117	153
118	27
119	20
120	3
121	2
122	1
123	6
124	3
125	33
126	19
127	16
128	8
129	18
130	4
131	20
132	3
133	4
134	2
135	3
136	4
137	8
138	3
139	8
140	1
141	4
142	4
143	230
144	74
145	60
146	11
147	7
148	3
149	7
150	14
151	7
152	11
153	7
154	4
155	28
156	5
157	10
158	9
159	35
160	5
161	11
162	2
163	2
164	0
165	1
166	1
167	3
168	2
169	8
170	37
171	11
172	3
173	1
174	0
175	112
176	18
177	22
178	3
179	2
180	1
181	2
182	2
183	9
184	5
185	8
186	3
187	3
188	1
189	3
190	0
191	2
192	0
193	1
194	1
195	1
196	0
197	0
198	0
199	0
200	2
201	3
202	25
203	38
204	30
205	7
206	4
207	1
208	0
209	2
210	0
211	1
212	0
213	0
214	0
215	0
216	1
217	8
218	1
219	6
220	1
221	1
222	0
223	0
224	0
225	0
226	0
227	0
228	0
229	0
230	0
231	0
232	0
233	1
234	0
235	104
236	12
237	16
238	2
239	1
240	0
241	0
242	0
243	0
244	0
245	0
246	0
247	0
248	0
249	0
250	2
251	0
252	0
253	0
254	0
255	0
256	0
257	0
258	0
259	0
260	0
261	4
262	70
263	11
264	11
265	1
266	1
267	1
268	4
269	1
270	1
271	0
272	0
273	0
274	0
275	0
276	0
277	0
280	0
281	0
283	0
284	0
285	0
286	0
291	0
292	0
293	0
294	1
295	0
296	0
300	1
301	0
302	0
308	0
309	0
310	0
311	1
312	0
313	0
326	59
327	10
328	14
329	2
330	1
