Mass Spectrum: 2,4,6,8,9,10-Hexathiaadamantane, 1-benzyl-3,5,7-trimethyl-
Formula: C14H16S6
CAS: 21404-64-8
Molecular weight: 376
m/z	intensity
12	0
13	0
14	0
15	10
16	0
17	0
18	0
22	0
24	0
25	0
26	2
27	6
28	1
29	0
32	5
33	2
34	2
35	0
36	1
37	0
38	2
39	26
40	1
41	6
42	0
43	0
44	14
45	20
46	3
47	3
48	0
49	0
50	7
51	23
52	5
53	2
54	0
55	0
56	0
57	9
58	45
59	999
60	34
61	46
62	4
63	15
64	6
65	56
66	3
67	0
68	0
69	7
70	1
71	2
72	0
73	1
74	2
75	3
76	15
77	12
78	4
79	1
80	0
81	1
82	2
83	0
84	1
85	2
86	1
87	1
88	1
89	19
90	14
91	245
92	23
93	7
94	1
95	1
96	0
97	0
98	0
99	0
100	0
101	0
102	5
103	3
104	0
105	0
106	0
107	0
108	3
109	2
110	0
111	0
112	0
113	0
114	0
115	1
116	0
117	22
118	87
119	7
120	7
121	3
122	1
123	3
124	0
125	4
126	0
127	1
128	2
129	2
130	0
131	1
132	0
133	3
134	69
135	307
136	36
137	14
138	1
139	0
141	0
142	0
143	0
144	2
145	14
146	1
147	2
148	0
149	10
150	50
151	14
152	7
153	1
154	0
155	0
156	0
158	0
159	0
160	1
161	7
162	1
163	1
164	0
165	0
166	0
167	9
168	2
169	1
170	0
171	0
173	0
174	0
175	0
176	0
177	4
178	0
179	1
180	0
181	0
182	0
183	3
184	0
185	0
186	0
187	0
188	0
189	1
190	0
191	0
192	1
193	27
194	55
195	9
196	5
197	0
198	0
199	0
201	0
203	0
204	0
207	0
209	23
210	2
211	4
212	0
213	0
219	0
220	2
221	36
222	5
223	3
224	0
225	7
226	55
227	9
228	7
229	1
230	0
237	0
238	0
239	0
241	0
242	0
243	0
248	0
251	0
252	0
253	4
254	0
255	0
256	0
258	0
259	0
260	0
269	0
270	0
271	0
279	0
283	0
284	0
285	25
286	4
287	4
288	0
289	0
297	0
301	0
302	0
303	0
304	0
311	0
312	0
313	0
317	0
318	0
319	0
329	0
332	0
343	0
344	0
345	0
361	0
362	0
363	0
376	22
377	5
378	6
379	1
380	0
381	0
382	0
