Mass Spectrum: 25-Hydroxycholesterol
Formula: C27H46O2
CAS: 2140-46-7
Molecular weight: 402
m/z	intensity
15	4
26	4
27	24
29	82
30	4
31	64
36	3
38	3
39	41
40	14
41	390
42	33
43	400
44	16
45	48
46	3
51	14
52	6
53	95
54	13
55	708
56	81
57	172
58	45
59	999
60	35
61	4
62	1
63	6
64	2
65	46
66	19
67	340
68	47
69	497
70	42
71	97
72	11
73	5
74	2
77	146
78	42
79	419
80	63
81	575
82	84
83	160
84	17
85	37
86	4
87	3
91	455
92	92
93	448
94	126
95	480
96	72
97	110
98	11
99	12
100	3
102	3
103	33
104	42
105	560
106	131
107	541
108	120
109	324
110	44
111	110
112	17
113	13
114	5
115	61
116	34
117	193
118	89
119	362
120	221
121	327
122	77
123	150
124	64
125	52
126	10
127	20
128	52
129	132
130	54
131	275
132	96
133	348
134	105
135	209
136	61
137	78
138	52
139	16
140	5
141	41
142	43
143	213
144	90
145	446
146	108
147	278
148	84
149	160
150	43
151	63
152	26
153	10
154	9
155	26
156	47
157	160
158	178
159	356
160	165
161	303
162	71
163	144
164	35
165	30
166	6
168	5
169	43
170	17
171	116
172	49
173	162
174	56
175	94
176	50
177	69
178	63
179	36
180	9
181	5
182	4
183	44
184	15
185	107
186	54
187	109
188	30
189	89
190	20
191	48
192	17
193	14
195	5
196	4
197	44
198	20
199	92
200	35
201	53
202	16
203	40
204	16
205	26
206	20
207	7
209	4
211	63
212	27
213	227
214	59
215	56
216	19
217	70
218	18
219	14
220	3
222	1
223	3
224	3
225	19
226	12
227	55
228	46
229	79
230	30
231	83
232	29
233	11
234	5
235	2
236	1
239	30
240	12
241	26
242	7
243	33
244	20
245	87
246	36
247	10
248	2
251	2
252	2
253	56
254	18
255	128
256	26
257	25
258	25
259	23
260	14
262	2
263	2
264	1
265	1
267	10
268	8
269	23
270	26
271	253
272	83
273	263
274	63
275	13
276	2
277	2
278	3
279	1
281	22
282	9
283	10
284	8
285	14
286	5
287	5
288	2
289	2
290	21
291	4
295	21
296	8
297	8
298	9
299	119
300	79
301	29
302	9
303	2
309	7
310	4
311	13
312	7
313	15
314	10
316	4
317	33
318	8
319	2
323	2
324	8
325	12
326	5
327	14
328	15
329	19
330	7
331	2
332	1
338	3
340	3
341	4
342	19
343	8
344	6
345	4
346	1
349	2
351	123
352	40
353	6
355	7
356	4
358	4
359	1
365	3
366	47
367	22
368	9
369	184
370	50
371	7
382	6
383	5
384	343
385	108
386	19
387	57
388	14
402	120
403	40
404	5
