Mass Spectrum: Guanosine, 2'-O-methyl-
Formula: C11H15N5O5
CAS: 2140-71-8
Molecular weight: 297
m/z	intensity
26	33
27	174
28	18
31	308
33	126
35	22
36	112
38	78
39	106
40	67
41	382
42	129
43	516
44	426
45	421
46	39
47	39
50	16
51	16
52	16
53	44
54	78
55	303
56	89
57	348
58	157
59	516
60	73
61	101
62	22
64	44
65	16
66	22
67	33
68	483
69	421
70	50
71	999
72	179
73	123
74	320
75	112
76	22
77	39
78	16
79	16
80	16
81	33
82	101
83	112
84	44
85	179
86	50
87	954
88	573
89	33
91	11
93	11
94	11
95	39
96	39
97	50
98	39
99	157
100	438
101	179
102	44
103	44
104	33
105	39
106	22
107	16
108	39
109	89
110	61
111	67
112	50
113	39
114	11
115	157
116	11
117	16
118	16
119	16
121	11
122	11
123	11
124	39
125	11
126	67
127	28
128	78
129	44
130	16
132	11
133	33
134	44
135	16
136	16
138	67
140	16
141	44
142	16
143	11
144	33
145	16
146	89
147	44
148	11
149	101
150	73
151	747
152	168
153	39
158	11
160	11
161	11
163	11
164	11
165	56
166	11
167	11
168	16
177	11
178	11
179	11
180	56
181	11
182	11
191	11
192	11
193	11
194	11
195	11
197	11
204	67
206	11
207	84
208	179
209	33
220	11
221	11
222	11
223	11
224	11
228	11
236	11
250	11
256	11
257	11
266	11
267	22
280	11
289	16
296	16
297	95
298	11
