Mass Spectrum: 6-(p-Tolyl)-2H-pyran-2-one
Formula: C12H10O2
CAS: 21421-61-4
Molecular weight: 186
m/z	intensity
33	7
39	999
41	71
42	4
43	4
44	3
51	232
52	25
53	15
55	2
57	3
63	272
65	416
67	5
70	3
74	37
75	24
77	51
79	41
86	24
87	15
89	92
91	263
93	6
95	92
98	5
102	24
103	9
104	4
113	3
115	177
116	13
119	68
120	4
127	49
128	92
129	205
130	31
131	3
139	3
140	4
141	5
143	3
158	599
159	57
160	4
186	218
187	22
