Mass Spectrum: 2,6-Octadien-1-ol, 3,7-dimethyl-, formate, (Z)-
Formula: C11H18O2
CAS: 2142-94-1
Molecular weight: 182
m/z	intensity
26	2
27	33
29	36
30	1
31	9
38	3
39	75
40	22
41	429
42	24
44	5
45	4
46	1
50	5
51	17
52	8
53	74
54	9
55	37
56	6
57	13
59	6
63	3
65	23
66	10
67	126
68	224
69	999
70	59
77	32
78	6
79	35
80	75
81	51
83	13
84	12
85	5
87	2
91	27
92	34
93	145
94	25
95	16
97	6
105	9
106	2
107	20
108	5
112	6
121	69
122	8
123	12
136	99
137	16
138	2
139	8
167	1
182	1
