Mass Spectrum: 3H-1,2,4-Triazole-3-thione, 1,2-dihydro-2-phenyl-
Formula: C8H7N3S
CAS: 21434-18-4
Molecular weight: 177
m/z	intensity
39	90
50	80
51	220
63	110
64	240
65	110
77	320
89	90
91	999
92	80
118	90
149	100
176	730
177	890
178	130
179	50
