Mass Spectrum: 1-Methyl pyrrolidin-3-amine
Formula: C5H12N2
CAS: 214357-95-6
Molecular weight: 100
m/z	intensity
29	8
30	6
37	2
38	3
39	25
40	23
41	53
42	258
43	399
44	326
45	9
47	3
48	5
50	4
51	41
52	2
53	4
54	10
55	14
56	53
57	999
58	32
59	6
67	17
68	5
69	8
70	10
71	20
72	11
82	15
83	280
84	16
85	93
86	3
99	3
100	357
101	24
102	1
