Mass Spectrum: Propanamide, 2-(2,4-dichlorophenoxy)-N-(1-naphthyl)-
Formula: C19H15Cl2NO2
CAS: 214478-54-3
Molecular weight: 359
m/z	intensity
35	2
37	13
38	18
39	67
40	3
41	10
42	78
43	96
45	12
47	3
49	9
50	39
51	46
52	14
53	13
54	7
55	141
56	25
58	7
60	3
61	19
62	66
63	234
64	31
65	56
66	5
69	3
71	9
72	12
73	63
74	64
75	113
76	28
77	54
78	8
79	2
83	17
84	12
85	22
86	14
87	30
88	42
89	134
90	22
91	39
92	5
95	2
96	3
97	19
98	41
99	36
100	19
101	34
102	13
103	6
104	2
107	11
109	120
110	27
111	56
112	15
113	71
114	124
115	999
116	161
117	24
118	9
119	7
123	2
125	136
126	93
127	275
128	164
129	97
130	16
131	2
133	102
134	8
135	67
136	8
137	11
138	5
139	18
140	131
141	80
142	176
143	759
144	149
145	129
146	27
147	79
148	15
149	15
150	4
151	7
152	32
153	168
154	257
155	612
156	109
157	10
159	6
161	63
162	59
163	59
164	39
165	22
166	14
167	23
168	64
169	284
170	938
171	136
172	9
173	7
175	5
177	2
178	5
179	3
180	9
181	9
182	32
183	23
184	4
189	274
190	28
191	181
192	17
193	29
194	4
196	20
197	77
198	658
199	97
200	8
216	5
217	6
218	3
261	2
296	2
324	87
325	20
326	30
327	6
359	490
360	110
361	319
362	68
363	54
364	10
