Mass Spectrum: 3-Acetyl-pancracine
Formula: C18H19NO5
CAS: 21446-22-0
Molecular weight: 329
m/z	intensity
42	478
43	999
44	77
45	14
47	3
49	9
50	24
51	83
52	23
53	53
54	30
55	99
56	45
57	30
58	9
59	4
60	9
61	6
62	14
63	63
64	30
65	61
66	14
67	23
68	26
69	31
70	16
71	12
72	7
73	5
74	9
75	25
76	45
77	121
78	37
79	23
80	13
81	20
82	31
83	25
84	23
85	6
86	9
87	11
88	16
89	62
90	23
91	101
92	19
93	10
94	10
95	7
96	11
97	11
98	6
99	5
100	2
101	18
102	37
103	39
104	15
105	18
106	12
107	16
108	3
109	3
110	4
111	6
112	1
113	21
114	30
115	155
116	48
117	23
118	12
119	10
120	11
121	3
122	11
123	2
124	2
126	30
127	77
128	109
129	52
130	19
131	16
132	5
133	4
135	61
136	9
137	2
138	0
139	44
140	17
141	71
142	19
143	21
144	12
145	7
146	7
147	17
148	18
149	23
150	7
151	14
152	59
153	66
154	38
155	41
156	19
157	24
158	4
159	16
160	15
161	42
162	22
163	13
164	6
165	89
166	23
167	35
168	19
169	30
170	11
171	32
172	68
173	55
174	80
175	63
176	30
177	6
178	3
179	1
180	8
181	39
182	25
183	27
184	9
185	220
186	51
187	25
188	9
189	5
190	2
191	2
192	5
193	46
194	14
195	8
196	8
197	50
198	54
199	95
200	41
201	19
202	14
203	3
204	4
205	3
208	1
209	19
210	41
211	89
212	143
213	96
214	125
215	37
216	6
217	0
220	1
221	4
222	22
223	253
224	55
225	31
226	60
227	53
228	20
229	6
230	3
235	0
236	0
237	6
238	41
239	75
240	104
241	194
242	82
243	55
244	10
245	0
250	41
251	30
252	210
253	38
254	13
255	1
256	7
257	3
258	5
259	0
266	5
267	0
268	284
269	118
270	290
271	46
272	7
284	8
285	3
286	31
287	20
288	3
310	0
312	39
313	8
327	0
328	49
329	817
330	163
331	24
332	2
