Mass Spectrum: Indolo[3,2-b]quinoline,10-benzyl-2-nitro-
Formula: C22H15N3O2
CAS: 214467-40-0
Molecular weight: 353
m/z	intensity
33	23
34	1
36	0
37	0
39	24
40	17
41	11
42	3
43	6
44	9
45	2
46	0
50	7
51	12
52	3
53	1
55	4
56	1
57	3
58	0
59	0
60	0
62	18
63	13
65	90
66	4
67	1
68	0
69	2
70	1
71	2
73	4
74	4
75	8
76	10
77	6
78	1
79	1
80	0
81	1
82	0
83	1
84	1
85	1
86	3
87	12
88	12
89	11
91	999
92	65
94	3
95	1
96	0
97	1
98	1
99	2
100	2
101	2
102	6
103	1
104	1
105	1
106	1
107	0
108	0
109	0
110	0
111	1
112	2
113	3
114	4
115	2
116	0
117	0
118	0
119	0
120	1
121	0
122	0
123	1
124	1
125	6
126	3
127	3
128	1
129	1
130	0
131	0
132	0
133	0
134	0
135	0
136	1
137	2
138	4
139	4
140	2
141	0
142	0
143	0
145	0
146	0
147	0
148	0
149	2
150	2
151	3
152	5
153	2
154	1
157	0
158	0
159	0
160	0
161	1
162	2
163	3
164	2
165	1
166	1
167	0
168	0
169	0
170	0
171	0
174	0
175	1
176	4
177	5
178	1
179	1
180	0
181	0
182	0
183	0
184	0
185	0
186	0
187	1
188	11
189	12
190	6
191	0
192	0
194	0
195	0
196	0
197	0
198	0
199	0
200	0
201	1
202	2
203	3
204	5
205	1
206	0
209	0
210	1
211	1
212	0
213	1
214	1
215	17
216	14
217	2
218	0
219	0
223	0
224	0
225	1
226	0
227	0
228	0
229	3
230	2
231	1
232	3
233	0
246	0
247	0
248	0
250	0
251	0
252	0
253	0
262	5
263	1
264	0
274	0
275	0
276	1
277	1
278	0
279	0
280	0
290	0
291	0
292	0
293	0
301	0
302	0
303	1
304	1
305	3
306	3
307	2
308	0
323	1
324	0
337	0
353	50
354	12
355	1
