Mass Spectrum: Aspidodispermine, deoxy-
Formula: C19H24N2O2
CAS: 21446-30-0
Molecular weight: 312
m/z	intensity
41	80
42	80
43	180
44	40
45	20
50	10
51	20
52	10
53	30
54	30
55	50
56	40
57	30
58	30
59	30
63	10
65	30
66	10
67	30
68	30
69	30
70	40
71	20
74	20
77	30
78	10
79	20
80	10
81	10
82	30
83	30
84	30
85	20
89	20
90	20
91	30
92	20
93	20
94	20
95	10
96	30
97	40
98	30
99	30
100	10
101	20
102	20
103	30
104	20
106	20
107	10
108	20
109	20
110	30
111	30
112	999
113	90
114	20
115	60
116	30
117	40
118	20
119	10
120	20
121	20
122	50
123	20
124	20
125	20
126	110
127	40
128	40
129	40
130	130
131	30
132	30
133	20
134	20
135	30
136	20
138	30
139	20
140	330
141	50
142	30
143	100
144	120
145	30
146	20
147	10
148	10
149	10
150	10
151	10
152	10
153	10
154	40
155	30
156	90
157	50
158	50
159	30
160	50
161	20
162	10
166	20
167	30
168	50
169	50
170	50
171	30
172	20
173	20
174	10
177	20
178	110
179	20
180	30
181	20
182	40
183	40
184	40
185	40
186	30
187	20
194	20
195	20
196	20
197	30
198	30
199	30
200	20
206	10
207	20
208	20
209	20
210	20
211	30
212	20
213	30
214	20
221	20
222	20
223	40
224	30
225	20
226	20
227	20
228	20
229	10
235	10
236	30
237	20
238	10
239	20
240	20
241	30
242	20
243	10
249	20
250	10
251	70
252	30
253	20
254	30
255	30
256	20
257	10
265	30
266	80
267	30
268	20
269	50
270	40
271	20
279	20
283	30
284	50
285	20
286	10
293	50
294	160
295	100
296	20
297	20
298	10
310	20
311	460
312	850
313	200
314	40
