Mass Spectrum: Aspidodispermine, monoacetate (ester)
Formula: C21H26N2O4
CAS: 21451-68-3
Molecular weight: 370
m/z	intensity
28	20
41	101
42	101
43	353
44	50
45	20
50	20
51	20
52	10
53	30
54	30
55	50
56	60
57	30
58	30
65	20
66	10
67	30
68	30
69	30
70	40
71	20
77	40
78	20
79	20
80	30
81	20
82	30
83	30
84	30
85	30
86	10
89	20
90	10
91	30
92	10
93	10
94	10
95	10
96	30
97	20
98	30
99	20
100	10
101	10
102	10
103	20
104	20
105	10
106	10
107	10
108	20
109	20
110	30
111	30
112	999
113	80
114	20
115	30
116	20
117	30
118	20
119	10
120	20
121	10
122	50
123	10
124	20
125	10
126	121
127	30
128	20
129	10
130	40
131	20
132	20
133	20
134	10
135	10
136	10
138	30
139	10
140	272
141	30
142	10
143	20
144	10
145	20
146	111
147	20
148	10
150	10
151	10
153	10
154	20
155	10
156	20
157	10
158	30
159	101
160	141
161	20
164	10
165	10
166	10
167	10
168	20
169	20
170	20
171	20
172	70
173	30
174	30
175	10
176	10
177	10
178	101
179	20
180	10
181	10
182	20
183	30
184	30
185	50
186	50
187	30
188	30
189	20
195	10
196	10
197	20
198	20
199	30
200	20
201	30
202	20
209	10
210	20
211	30
212	30
213	10
214	30
215	20
216	20
223	20
224	20
225	20
226	20
227	40
228	20
229	20
237	20
239	40
240	60
241	20
242	20
243	30
244	20
251	20
252	30
253	20
254	10
255	20
256	30
257	20
258	20
265	20
266	10
267	70
268	60
269	30
270	20
271	30
272	10
282	20
283	10
284	20
285	101
286	232
287	30
291	10
294	30
295	30
296	10
299	20
300	20
309	40
310	383
311	111
312	10
324	20
325	10
326	20
327	363
328	666
329	121
330	10
341	10
342	20
351	10
352	60
353	10
354	10
355	10
369	111
370	868
371	212
372	40
