Mass Spectrum: Bicyclo[2.2.1]heptane, 2-ethenyl-
Formula: C9H14
CAS: 2146-39-6
Molecular weight: 122
m/z	intensity
25	1
26	8
27	151
28	20
29	55
30	1
33	0
36	0
37	2
38	12
39	240
40	51
41	270
42	21
43	4
44	0
45	1
46	1
47	0
49	0
50	12
51	46
52	23
53	131
54	212
55	65
56	3
57	0
58	4
59	2
60	0
61	0
62	2
63	13
64	2
65	85
66	437
67	999
68	514
69	28
70	0
71	0
73	0
74	1
75	1
76	1
77	105
78	48
79	385
80	513
81	231
82	14
83	0
84	0
86	0
87	0
89	1
90	0
91	79
92	23
93	388
94	129
95	13
96	0
97	0
102	0
103	3
104	1
105	8
106	1
107	104
108	8
109	0
115	1
116	0
117	0
119	0
121	7
122	81
123	8
124	0
