Mass Spectrum: 8-Azabicyclo[3.2.1]octan-3-one, 8-methyl-, oxime, o-(5-bromo-3-pyridylcarbonyl)-
Formula: C14H16BrN3O2
CAS: 214785-13-4
Molecular weight: 337
m/z	intensity
33	7
35	11
36	41
37	11
38	29
39	59
40	29
41	98
42	255
43	17
44	14
45	20
49	39
50	198
51	31
52	16
53	37
54	74
55	115
56	45
57	37
58	1
63	2
64	2
65	13
66	11
67	56
68	58
70	51
71	2
74	2
75	19
76	104
77	61
79	40
80	52
81	214
82	999
83	98
84	3
85	0
91	5
94	165
95	87
96	191
97	57
98	4
104	6
105	17
106	50
108	55
109	22
110	6
120	14
121	7
122	32
123	23
124	1
127	1
128	7
129	33
130	9
131	34
132	0
135	4
137	375
138	30
139	1
140	3
153	17
156	100
158	97
159	6
184	63
186	66
187	3
201	12
202	2
203	12
256	12
258	11
337	7
339	7
