Mass Spectrum: p-Dioxane, 2,5-divinyl-
Formula: C8H12O2
CAS: 21485-51-8
Molecular weight: 140
m/z	intensity
14	1
15	7
17	1
18	7
26	10
27	78
28	56
29	29
30	3
31	10
32	5
37	2
38	6
39	195
40	12
41	47
42	16
43	21
44	3
45	1
50	6
51	14
52	10
53	61
54	999
55	137
56	8
57	14
58	3
59	1
63	2
65	1
66	3
67	8
68	5
69	26
70	146
71	42
72	2
77	9
78	2
79	5
80	2
81	5
82	4
83	38
84	9
85	2
86	1
89	3
90	2
91	2
92	1
93	1
94	1
95	4
96	16
97	21
98	2
99	9
103	1
104	2
105	12
106	1
108	1
109	2
110	7
111	2
112	5
115	6
116	6
117	2
