Mass Spectrum: 1-Pyridin-2-yl-3-o-tolyl-thiourea
Formula: C13H13N3S
CAS: 21487-27-4
Molecular weight: 243
m/z	intensity
34	1
37	4
38	15
39	69
40	34
41	36
42	5
43	14
44	20
45	2
50	28
51	123
52	67
53	20
54	7
55	12
56	6
57	17
58	3
62	8
63	35
64	21
65	94
66	31
67	268
68	19
69	13
70	11
71	1
75	11
76	20
77	101
78	412
79	81
80	14
81	6
83	11
84	9
89	61
90	27
91	107
92	22
94	999
95	238
96	20
97	9
104	45
105	33
106	197
107	224
108	27
109	10
110	6
111	11
112	10
113	5
114	19
115	8
116	65
117	57
119	17
120	103
121	101
122	34
123	29
124	31
125	17
126	5
130	4
131	45
132	13
133	6
136	23
137	263
138	64
139	18
140	6
149	84
150	122
151	18
152	11
153	4
154	6
155	12
156	3
163	28
164	23
165	31
166	9
167	15
168	18
169	21
170	4
180	3
181	19
182	16
183	26
184	3
192	6
193	12
194	7
195	2
209	99
210	335
211	53
212	5
213	0
227	13
228	265
229	37
230	14
231	2
241	15
242	116
243	972
244	166
245	57
246	8
247	0
