Mass Spectrum: (3,7-Dimethyl-octa-2,6-dienyl)-benzene
Formula: C16H22
CAS: 21488-83-5
Molecular weight: 214
m/z	intensity
26	4
27	67
29	65
37	4
38	3
39	118
40	22
41	630
42	34
43	58
44	25
45	4
50	16
51	56
52	18
53	87
54	12
55	95
56	12
57	29
62	3
63	25
64	11
65	120
66	16
67	118
68	34
69	999
70	76
71	15
72	3
73	4
74	8
75	8
76	10
77	102
78	48
79	55
80	32
81	113
82	52
83	29
84	4
85	5
89	17
90	4
91	521
92	57
93	24
94	6
95	51
96	78
97	13
101	4
102	17
103	106
104	73
105	96
106	11
107	20
108	19
109	93
110	26
111	5
114	3
115	90
116	31
117	163
118	62
119	13
121	14
122	28
123	252
124	29
125	5
126	4
127	29
128	92
129	337
130	151
131	160
132	38
133	5
136	4
139	24
141	22
142	16
143	280
144	180
145	311
146	51
147	7
149	4
152	5
153	9
154	16
155	8
156	5
157	82
158	50
159	11
165	4
167	4
168	4
169	6
170	8
171	121
172	23
173	3
199	15
214	148
215	30
216	3
