Mass Spectrum: dl-Alanine-beta-naphthylamide
Formula: C13H14N2O
CAS: 2149-46-4
Molecular weight: 214
m/z	intensity
15	3
27	5
28	9
29	1
30	2
39	7
40	1
41	3
42	17
43	9
44	999
45	38
50	4
51	7
52	2
55	3
57	3
61	1
62	6
63	15
64	3
65	7
69	1
70	3
71	3
74	4
75	7
76	5
77	10
78	1
85	1
86	2
87	4
88	8
89	14
90	3
91	1
98	1
99	1
100	1
101	6
102	2
103	1
113	10
114	19
115	134
116	49
117	7
125	1
126	15
127	38
128	8
129	1
139	1
140	21
141	16
142	29
143	495
144	66
145	4
153	4
154	3
155	1
156	1
167	1
168	1
169	36
170	9
171	16
172	2
182	4
183	1
196	2
197	3
211	2
212	5
213	1
214	387
215	63
216	6
