Mass Spectrum: Timolol n-butylboronate
Formula: C17H31BN4O3S
CAS: 214981-73-4
Molecular weight: 382
m/z	intensity
41	726
42	296
56	403
57	568
69	101
70	192
83	245
84	392
96	289
112	999
113	96
124	111
126	55
138	170
139	170
140	365
154	101
156	44
180	219
181	762
195	378
196	216
222	42
226	110
240	7
241	5
253	6
254	6
268	4
269	11
280	4
283	7
293	14
297	4
309	2
311	3
324	5
325	16
348	4
349	12
366	207
367	374
381	180
382	377
