Mass Spectrum: 1-Chloro-1,2,2,3,3,4-hexafluorocyclobutane
Formula: C4HClF6
CAS: 214910-11-9
Molecular weight: 198
m/z	intensity
25	8
27	11
29	12
30	25
31	999
35	59
36	13
37	36
39	22
41	46
42	7
43	19
44	104
47	48
48	18
49	11
50	127
51	199
55	60
56	66
57	34
58	3
60	5
62	23
63	93
64	11
66	86
67	74
68	20
69	592
70	16
74	68
75	268
76	7
79	10
80	3
81	10
82	347
85	65
86	9
87	18
91	5
93	125
94	41
95	18
98	934
99	13
100	527
101	8
109	12
113	264
114	5
116	487
117	9
118	140
119	2
129	276
130	5
131	82
132	1
