Mass Spectrum: Isopropyl N-(3,4-dichlorophenyl)carbamate
Formula: C10H11Cl2NO2
CAS: 2150-28-9
Molecular weight: 247
m/z	intensity
40	19
41	240
42	24
43	999
44	46
45	106
47	4
49	10
50	6
51	5
52	9
53	2
58	2
59	35
60	5
61	16
62	40
63	62
64	15
65	7
67	3
70	4
72	12
73	36
74	23
75	27
76	5
82	6
83	8
85	7
86	2
87	7
88	14
89	12
90	30
91	7
96	4
97	22
98	10
99	26
100	7
101	6
102	2
106	7
109	25
110	7
111	7
112	4
113	3
116	4
118	2
119	2
123	3
124	50
125	34
126	28
127	12
128	8
133	45
134	7
135	30
136	6
137	8
138	2
141	3
142	6
145	12
147	7
149	3
152	2
153	5
154	3
155	5
157	2
159	23
160	35
161	250
162	39
163	157
164	18
165	24
166	6
170	9
172	2
174	4
176	2
185	5
187	29
188	54
189	23
190	33
191	6
192	7
193	2
202	2
203	5
204	7
205	94
206	10
207	56
208	5
209	10
244	3
245	5
247	81
248	10
249	50
250	5
251	4
