Mass Spectrum: Tenocyclidine
Formula: C15H23NS
CAS: 21500-98-1
Molecular weight: 249
m/z	intensity
15	3
26	6
27	45
28	53
29	58
30	28
37	2
38	8
39	107
40	14
41	177
42	92
43	25
44	27
45	80
46	3
47	7
49	1
50	13
51	39
52	17
53	76
54	40
55	145
56	87
57	40
58	21
59	9
60	3
61	3
62	6
63	25
64	5
65	66
66	23
67	61
68	18
69	43
70	20
71	16
72	2
73	4
74	7
75	8
76	6
77	79
78	24
79	106
80	46
81	181
82	45
83	33
84	293
85	80
86	78
87	7
88	2
89	12
90	5
91	86
92	11
93	10
94	7
95	9
96	12
97	999
98	84
99	55
100	6
101	2
102	7
103	18
104	9
105	9
106	6
107	3
108	39
109	127
110	183
111	51
112	16
113	3
114	1
115	43
116	17
117	14
118	5
119	5
120	4
121	42
122	23
123	263
124	69
125	28
126	14
127	6
128	19
129	23
130	11
131	24
132	7
133	4
134	40
135	240
136	168
137	54
138	22
139	5
140	1
143	1
144	3
145	1
146	3
147	17
148	12
149	117
150	37
151	22
152	20
153	3
154	1
158	2
159	2
160	14
161	7
162	7
163	59
164	522
165	707
166	190
167	55
168	9
169	1
170	1
172	1
173	1
174	3
175	1
176	2
177	2
178	18
179	7
180	13
181	2
182	1
186	1
188	3
189	1
190	1
191	2
192	148
193	54
194	13
195	3
202	3
203	1
204	2
206	398
207	60
208	23
209	3
214	1
216	6
217	1
218	1
220	16
221	3
222	1
234	2
247	1
248	58
249	276
250	48
251	18
252	2
