Mass Spectrum: 2-Amino-2-thiazoline-4-carboxylic acid
Formula: C4H6N2O2S
CAS: 2150-55-2
Molecular weight: 146
m/z	intensity
41	19
42	68
43	164
44	23
45	106
46	26
47	15
48	5
49	8
51	4
53	8
54	12
55	16
56	3
57	21
58	68
59	237
60	92
61	16
62	4
64	0
67	2
69	6
70	3
71	3
72	5
73	7
74	73
75	4
76	4
82	11
84	6
85	2
86	17
87	2
91	3
100	8
101	999
102	73
103	48
104	3
145	7
146	18
147	9
148	2
