Mass Spectrum: 4-Amino-4'-formamido diphenyl sulfone
Formula: C13H12N2O3S
CAS: 21501-24-6
Molecular weight: 276
m/z	intensity
41	48
42	19
43	4
45	9
50	13
51	19
52	49
53	42
54	24
62	20
63	79
64	56
65	433
66	69
67	7
69	5
74	5
75	8
76	7
77	16
78	18
79	10
80	164
81	14
84	15
85	9
89	8
90	14
91	53
92	383
93	103
94	10
96	10
97	2
99	13
106	7
108	999
109	169
110	11
112	17
115	11
117	9
122	23
123	31
124	60
125	11
127	9
128	10
130	15
139	15
140	716
141	256
142	52
143	19
154	20
155	7
156	51
157	8
166	17
167	26
168	14
169	8
181	9
182	22
183	75
184	91
185	12
198	10
248	684
249	102
250	39
276	8
