Mass Spectrum: 2-(2-Chloroacetamido)-5-methyl-1,3,4-thiadiazole
Formula: C5H6ClN3OS
CAS: 21521-87-9
Molecular weight: 191
m/z	intensity
33	13
34	6
35	15
36	41
37	6
38	26
39	24
40	66
41	93
42	210
43	133
44	30
45	62
46	58
47	30
49	409
50	28
51	119
52	9
53	9
54	7
56	291
57	75
58	229
59	541
60	49
61	24
62	3
63	1
64	8
65	1
66	3
67	3
69	39
70	10
71	10
72	35
74	450
75	17
77	267
78	15
79	76
80	3
81	2
82	11
83	26
84	3
85	2
86	15
87	9
88	2
89	1
90	1
93	1
94	1
95	1
97	1
99	38
100	5
101	10
102	1
103	2
107	1
108	4
110	2
115	999
116	108
117	43
118	4
121	3
122	6
123	1
124	2
126	1
128	9
129	2
142	67
143	4
144	3
150	21
152	9
155	2
156	20
157	10
158	2
159	1
163	2
165	1
191	125
192	9
193	43
194	3
195	2
