Mass Spectrum: Estr-5-en-3-one, 17.beta.-hydroxy-, cyclic ethylene acetal, acetate
Formula: C22H32O4
CAS: 21528-89-2
Molecular weight: 360
m/z	intensity
77	157
79	237
81	170
86	233
87	88
91	324
93	170
95	109
98	139
99	999
100	115
105	230
107	129
117	116
119	116
129	84
131	91
133	91
141	77
143	32
145	77
159	59
330	21
331	14
332	45
333	22
360	316
361	77
362	23
