Mass Spectrum: Propanenitrile, 3-(ethylamino)-
Formula: C5H10N2
CAS: 21539-47-9
Molecular weight: 98
m/z	intensity
28	78
29	52
30	326
40	47
41	40
42	354
43	40
44	37
52	28
53	23
54	177
55	30
56	179
57	40
58	999
59	54
67	23
68	30
69	23
83	264
97	37
98	78
