Mass Spectrum: 3-Methyl-4,5-diamino-1,2,4(4H)-triazole
Formula: C3H7N5
CAS: 21532-07-0
Molecular weight: 113
m/z	intensity
40	108
41	147
42	500
43	746
55	50
57	98
58	50
71	61
80	70
82	59
97	50
98	49
113	999
