Mass Spectrum: .beta.-2,2,6,6-Tetramethyl-4-piperidylaminocrotonic acid, ethyl ester
Formula: C15H28N2O2
CAS: 215308-49-9
Molecular weight: 268
m/z	intensity
39	32
41	137
42	192
43	59
44	20
45	7
46	1
47	1
48	1
49	1
50	1
51	2
53	18
54	13
55	116
56	44
58	540
59	15
60	3
61	1
63	1
65	8
67	53
68	34
69	32
70	23
71	28
72	7
73	4
74	1
75	2
76	9
77	7
78	2
79	18
80	14
81	38
82	92
83	57
84	62
85	21
86	3
87	1
90	3
91	11
92	3
93	10
94	16
95	23
96	38
97	18
98	198
99	97
100	9
101	2
103	2
104	13
105	7
106	4
107	36
108	37
109	22
110	33
111	15
112	45
113	8
114	1
115	1
119	2
120	3
121	6
122	21
124	999
125	90
126	9
127	6
128	1
129	2
130	7
131	1
132	1
133	1
134	3
135	4
136	4
137	4
138	43
139	14
140	63
141	9
147	1
148	2
149	8
150	6
151	3
152	1
153	1
154	1
155	9
156	5
157	1
163	2
164	3
165	4
166	2
167	2
168	3
169	2
170	9
171	1
177	1
178	1
179	3
180	1
181	1
182	1
183	1
191	1
196	11
197	1
207	2
210	4
211	8
212	1
223	25
224	4
253	12
254	2
268	37
269	6
