Mass Spectrum: 5-Methyl-1-phenylhexen-3-yn-5-ol
Formula: C13H14O
CAS: 215392-63-5
Molecular weight: 186
m/z	intensity
26	3
27	30
29	19
31	8
38	9
39	65
41	43
43	999
44	21
45	2
50	35
51	90
52	18
53	12
55	26
59	11
62	20
63	62
64	21
65	31
67	3
69	17
70	8
71	9
74	24
75	40
76	58
77	90
78	27
79	11
81	5
82	11
83	16
85	6
87	15
89	24
91	38
93	11
95	9
98	7
99	3
101	19
102	40
103	21
105	18
107	2
109	40
113	5
115	115
116	38
117	9
123	8
126	30
127	111
128	348
129	70
130	6
131	3
133	12
139	19
141	51
142	27
143	132
144	18
150	3
151	41
152	95
153	97
154	23
155	12
165	25
166	11
167	31
168	57
169	20
170	3
171	355
172	50
185	48
186	212
187	30
