Mass Spectrum: Propenoic acid, 2-pentafluorobenzoyl-3-(3-pyridylcarbonylhydrazino)-, ethyl ester
Formula: C18H12F5N3O4
CAS: 215433-03-7
Molecular weight: 429
m/z	intensity
39	13
41	7
43	20
45	5
50	28
51	142
52	142
53	87
54	2
55	2
67	9
68	8
69	14
71	21
76	14
78	999
79	901
80	61
99	4
104	2
105	99
106	589
107	46
110	3
111	14
117	46
122	55
123	28
143	9
148	25
161	13
167	135
168	16
173	1
174	7
179	7
188	9
192	16
193	13
195	450
196	35
204	5
206	2
216	16
219	5
220	10
221	9
229	2
243	8
249	5
258	5
261	8
264	2
292	27
317	8
331	13
339	7
384	2
414	8
429	64
430	8
