Mass Spectrum: Thiourea, N-cyclohexyl-N'-[2-(4-morpholinyl)ethyl]-
Formula: C13H25N3OS
CAS: 21545-54-0
Molecular weight: 271
m/z	intensity
15	5
18	2
26	2
27	19
28	39
29	30
30	32
31	1
32	3
33	4
34	9
39	17
40	3
41	66
42	52
43	25
44	31
45	6
50	1
51	2
52	2
53	10
54	21
55	144
56	143
57	28
58	6
59	5
60	10
61	3
62	1
65	2
66	1
67	25
68	9
69	27
70	56
71	10
72	17
73	2
74	2
76	1
77	17
78	2
79	7
80	2
81	15
82	33
83	99
84	23
85	12
86	11
87	7
88	9
89	1
94	1
95	2
96	4
97	5
98	91
99	9
100	999
101	68
102	8
103	32
104	2
105	2
108	1
109	2
110	4
111	7
112	28
113	745
114	83
115	6
123	2
124	2
125	3
126	2
127	8
128	3
129	4
130	2
131	1
136	1
137	2
138	1
139	3
140	3
141	93
142	13
143	6
144	1
146	1
150	2
151	3
152	2
153	1
154	5
155	11
156	5
157	3
158	2
159	104
160	9
161	5
164	1
169	4
171	3
173	11
174	1
180	6
181	2
182	1
183	6
184	25
185	9
186	2
190	1
194	4
195	2
206	1
207	15
208	4
209	4
228	1
235	1
236	9
237	33
238	7
239	1
253	1
269	1
271	79
272	17
273	5
274	1
