Mass Spectrum: 1,2-Benzenedicarboperoxoic acid, bis(1,1-dimethylethyl) ester
Formula: C16H22O6
CAS: 2155-71-7
Molecular weight: 310
m/z	intensity
43	461
57	582
73	999
74	248
75	30
93	30
104	269
105	39
121	40
132	9
146	59
148	60
149	268
150	29
163	20
165	29
205	29
223	10
