Mass Spectrum: Naphthalene, 1,2,3,4-tetrahydro-2,3-dimethyl-
Formula: C12H16
CAS: 21564-92-1
Molecular weight: 160
m/z	intensity
15	2
26	2
27	24
28	8
29	12
38	3
39	47
40	5
41	41
42	2
43	10
50	11
51	39
52	11
53	18
54	1
55	5
56	23
57	4
58	7
61	1
62	6
63	29
64	34
65	45
66	5
67	7
68	17
69	57
70	8
71	10
72	1
74	4
75	8
76	10
77	51
78	54
79	13
81	1
86	1
87	3
88	2
89	17
90	3
91	183
92	44
93	3
101	4
102	17
103	58
104	999
105	132
106	10
113	2
114	3
115	101
116	41
117	91
118	82
119	11
120	1
125	1
126	4
127	26
128	75
129	57
130	29
131	100
132	15
133	1
139	5
140	1
141	16
142	8
143	17
144	6
145	198
146	26
147	1
152	2
153	1
155	1
156	1
157	1
158	2
159	12
160	468
161	61
162	4
