Mass Spectrum: Methyl 4-pentynoate
Formula: C6H8O2
CAS: 21565-82-2
Molecular weight: 112
m/z	intensity
27	53
29	197
39	357
43	402
50	335
51	427
52	412
53	999
54	213
59	226
67	18
68	14
69	97
70	47
80	46
81	505
82	201
83	132
84	537
85	37
97	86
98	10
111	150
112	58
113	9
