Mass Spectrum: 1,2-Cinnolinedicarboxylic acid, 1,2,3,5,6,7,8,8a-octahydro-4-trimethylsilyloxy-, diethyl ester
Formula: C17H30N2O5Si
CAS: 215712-69-9
Molecular weight: 370
m/z	intensity
20	0
25	1
26	5
27	84
28	28
29	768
30	35
31	25
32	18
37	0
38	0
39	15
40	3
41	43
42	13
43	46
44	30
45	119
46	8
47	17
48	1
49	1
50	1
51	5
52	3
53	24
54	16
55	32
56	22
57	16
58	12
59	67
60	7
61	22
62	7
63	1
65	12
66	12
67	39
68	11
69	20
70	7
71	22
72	22
73	999
74	99
75	371
76	29
77	42
78	12
79	66
80	24
81	85
82	21
83	16
84	8
85	15
86	9
87	6
88	6
89	13
90	4
91	42
92	11
93	21
94	16
95	19
96	20
97	14
98	7
99	21
100	23
101	12
102	15
103	35
104	15
105	28
106	14
107	32
108	36
109	80
110	12
111	10
112	5
113	5
114	3
115	8
116	9
117	18
118	23
119	21
120	23
121	12
122	17
123	16
124	18
125	23
126	11
127	10
128	7
129	4
130	6
131	7
132	3
133	6
134	11
135	82
136	55
137	21
138	10
139	12
140	10
141	11
142	4
143	11
144	3
145	3
146	14
147	21
148	7
149	9
150	131
151	56
152	12
153	30
154	61
155	18
156	8
157	9
158	2
159	2
160	2
161	11
162	18
163	25
164	13
165	12
166	15
167	72
168	36
169	17
170	7
171	2
172	1
173	2
174	7
175	2
176	5
177	3
178	5
179	33
180	26
181	187
182	78
183	29
184	6
185	1
186	0
187	1
188	1
189	9
190	2
191	7
192	13
193	7
194	21
195	70
196	79
197	44
198	14
199	2
200	1
201	1
202	0
203	1
204	0
205	3
206	6
207	37
208	121
209	174
210	54
211	18
212	5
213	2
214	0
215	1
216	1
217	1
219	0
220	1
221	2
222	6
223	57
224	25
225	56
226	24
227	5
228	1
229	0
230	0
231	0
232	0
233	1
234	2
235	4
236	8
237	11
238	12
239	4
240	28
241	7
242	3
243	1
249	0
250	1
251	28
252	81
253	93
254	32
255	11
256	10
257	3
258	1
261	2
262	0
263	0
265	1
266	6
267	6
268	208
269	70
270	21
271	3
272	0
277	0
278	0
279	3
280	28
281	967
282	236
283	70
284	13
285	2
286	0
295	2
296	8
297	153
298	53
299	12
300	2
309	1
310	0
311	1
312	1
313	1
314	0
324	3
325	23
326	4
327	2
328	0
341	1
342	0
355	20
356	4
357	1
368	0
369	2
370	37
371	9
372	2
373	0
