Mass Spectrum: 3,4-Dichlorophenethylamine
Formula: C8H9Cl2N
CAS: 21581-45-3
Molecular weight: 189
m/z	intensity
4	1
14	0
15	3
17	1
18	1
26	1
27	5
28	54
29	0
30	999
31	16
32	1
35	1
36	2
37	4
38	6
39	18
40	2
41	4
42	10
43	6
44	1
46	0
47	1
49	5
50	16
51	12
52	2
53	1
54	1
56	0
58	9
60	1
61	8
62	22
63	39
64	3
65	3
72	3
73	18
74	13
75	20
76	4
77	4
83	1
84	4
85	6
86	7
87	10
88	4
89	47
90	7
91	3
95	0
96	1
97	6
98	2
99	11
100	1
101	6
102	4
107	1
108	1
109	4
110	1
111	2
112	0
116	1
117	7
118	3
119	0
123	18
124	8
125	22
126	3
127	4
133	5
134	0
135	3
136	2
137	2
138	2
148	0
151	1
152	1
153	5
154	1
155	1
159	18
160	3
161	11
162	2
163	1
164	0
172	1
174	1
187	1
188	1
189	8
190	1
191	5
192	0
193	0
