Mass Spectrum: 2,4-Pentanediamine, 2-methyl-
Formula: C6H16N2
CAS: 21586-21-0
Molecular weight: 116
m/z	intensity
12	7
13	7
14	21
15	166
16	50
17	43
18	242
19	1
24	1
25	5
26	38
27	168
28	379
29	64
30	68
31	32
32	29
33	1
34	1
35	8
36	2
37	1
38	30
39	140
40	100
41	410
42	681
43	110
44	999
45	21
49	1
50	5
51	9
52	9
53	18
54	15
55	51
56	117
57	84
58	927
59	45
60	1
61	1
62	1
63	1
64	1
65	5
66	4
67	22
68	11
69	12
70	10
71	6
72	5
73	15
74	1
75	1
76	1
77	3
78	1
79	6
80	4
81	8
82	98
83	26
84	126
85	13
86	3
87	1
91	1
92	1
93	1
94	2
95	2
96	5
97	104
98	18
99	54
100	10
101	16
102	2
105	1
106	1
107	3
108	3
109	2
110	2
111	3
112	1
113	3
114	1
115	1
116	1
117	1
