Mass Spectrum: Pent-3-en-2-one, 4-methyl-, oxime
Formula: C6H11NO
CAS: 2158-24-9
Molecular weight: 113
m/z	intensity
33	7
34	2
35	9
36	11
37	37
38	112
39	634
40	141
41	545
42	564
43	277
44	47
45	12
47	26
48	10
49	14
50	61
51	94
52	75
53	297
54	117
55	285
56	186
57	93
58	31
59	16
60	6
61	6
62	12
63	18
64	17
65	47
66	39
67	99
68	40
69	45
70	34
71	16
72	4
73	29
74	4
75	3
76	5
77	50
78	15
79	142
80	345
81	475
82	50
83	63
84	11
85	33
86	3
87	6
88	0
91	0
92	2
93	8
94	70
95	36
96	339
97	61
98	999
99	62
100	4
107	0
109	0
110	1
111	1
112	16
113	411
114	32
115	2
