Mass Spectrum: 4-Bromo 5-[4-phenylpiperazin-1-yl]veratrole
Formula: C18H21BrN2O2
CAS: 21585-32-0
Molecular weight: 376
m/z	intensity
41	34
42	102
43	10
44	1
45	4
49	5
50	48
51	133
52	39
53	34
54	40
55	31
56	96
57	5
58	4
62	11
63	42
64	33
65	69
66	26
67	11
68	12
69	5
74	5
75	17
76	34
77	447
78	94
79	78
80	14
81	5
82	4
84	1
88	1
89	14
90	39
91	172
92	46
93	42
94	24
95	8
102	9
103	34
104	493
105	999
106	178
107	33
108	15
109	6
115	5
116	7
117	37
118	40
119	38
120	85
121	74
122	30
123	5
126	1
127	8
128	1
129	8
130	23
131	23
132	371
133	97
134	27
135	11
136	8
137	24
138	7
141	5
143	9
144	11
145	14
146	19
147	21
149	70
150	45
151	21
152	1
155	2
156	5
157	19
158	7
159	31
160	49
161	31
162	13
163	5
164	52
165	54
166	9
167	1
168	1
169	5
170	6
171	7
172	9
173	5
174	6
175	4
176	20
177	11
178	8
179	4
180	1
182	5
183	1
184	12
185	19
186	7
187	17
188	30
189	34
190	5
191	17
192	77
193	9
194	4
196	1
197	6
198	6
199	15
200	67
201	11
202	59
203	5
204	5
210	2
211	1
213	4
214	4
215	6
217	4
226	10
228	145
229	85
230	131
231	75
232	8
238	2
239	4
240	4
242	34
243	191
244	70
245	186
246	43
247	3
251	1
253	7
254	4
255	5
257	22
258	7
259	21
260	5
266	15
267	7
270	137
271	5
272	116
273	12
281	11
282	5
283	1
296	8
297	159
298	33
299	5
320	2
332	26
333	7
334	13
335	2
336	5
361	70
363	70
364	9
375	27
376	756
377	152
378	755
379	151
380	16
