Mass Spectrum: Bicyclo[3.2.0]hept-2-ene, 5-methoxy-6,endo-7-diphenyl-
Formula: C20H20O
CAS: 216021-09-9
Molecular weight: 276
m/z	intensity
27	24
29	4
31	2
33	1
38	2
39	21
40	3
41	14
42	2
43	4
44	0
45	6
50	7
51	28
52	9
53	94
54	2
55	8
62	2
63	16
64	5
65	30
66	21
67	14
68	1
69	1
73	4
74	1
75	4
76	11
77	43
78	16
79	3
80	1
81	83
82	6
87	0
88	2
89	34
90	47
91	136
92	13
96	999
97	67
98	5
99	2
101	7
102	19
103	24
104	6
105	8
108	4
109	5
113	3
114	4
115	71
116	18
117	14
118	20
119	1
121	17
122	1
125	1
126	3
127	20
128	62
129	35
130	5
131	7
132	2
134	2
139	9
140	4
141	30
142	13
143	8
144	16
145	4
146	8
147	6
148	2
150	1
151	4
152	26
153	40
154	8
155	14
156	1
157	10
158	9
159	113
160	11
161	2
163	2
164	4
165	62
166	15
167	22
168	4
169	1
170	17
171	5
172	17
173	4
176	10
177	7
178	61
179	76
180	75
181	13
182	1
183	3
184	3
185	81
186	14
189	3
190	2
191	3
192	1
193	0
197	4
198	11
199	3
200	1
201	1
202	10
203	9
204	4
205	5
208	2
209	2
213	1
215	11
216	6
217	4
218	1
219	4
226	3
227	2
228	13
229	12
230	2
231	1
233	1
239	4
240	2
241	4
242	2
243	11
244	21
245	7
246	2
261	2
276	23
277	5
