Mass Spectrum: Bicyclo[3.2.0]hept-2-en-6-ol, 5-methoxy-exo-6-methyl-endo-7-phenyl-
Formula: C15H18O2
CAS: 216021-03-3
Molecular weight: 230
m/z	intensity
26	3
27	60
31	6
38	5
39	66
40	7
41	37
42	10
43	354
44	25
45	23
50	11
51	45
52	19
53	142
54	9
55	24
57	0
58	0
59	6
62	5
63	26
64	7
65	55
66	32
67	28
68	5
69	5
71	6
72	1
73	3
74	3
75	12
76	11
77	61
78	18
79	18
80	3
81	122
82	10
83	3
85	4
87	2
88	1
89	24
90	12
91	211
92	22
93	4
94	4
95	12
96	999
97	122
98	10
99	0
101	5
102	16
103	20
104	6
105	30
106	3
107	7
108	0
109	7
111	3
113	11
114	3
115	189
116	37
117	37
118	7
119	22
120	2
121	25
122	2
123	0
125	7
126	7
127	40
128	118
129	298
130	985
131	114
132	7
133	13
134	210
135	24
136	0
139	12
140	2
141	38
142	13
143	19
144	4
145	1
151	7
152	30
153	41
154	30
155	179
156	31
157	8
158	0
159	0
165	16
166	6
167	3
168	0
169	4
170	3
171	5
172	1
178	5
179	5
180	1
181	8
182	3
183	9
184	0
185	5
186	2
187	179
188	28
189	1
197	12
198	14
199	2
212	4
230	8
231	0
