Mass Spectrum: 2,4,6-Cycloheptatrien-1-one, 2-methoxy-
Formula: C8H8O2
CAS: 2161-40-2
Molecular weight: 136
m/z	intensity
41	30
42	20
43	20
44	40
49	30
50	240
51	370
52	110
53	100
54	20
55	30
61	40
62	100
63	230
64	110
65	999
66	370
67	30
68	20
69	20
74	50
75	10
76	30
77	420
78	640
79	190
80	40
81	20
89	20
90	190
91	50
92	40
93	150
94	40
95	30
105	830
106	180
107	220
108	190
109	30
118	130
119	20
121	30
135	80
136	860
137	130
138	20
