Mass Spectrum: 5-(2-Aminopropyl)-2-methylphenol
Formula: C10H15NO
CAS: 21618-99-5
Molecular weight: 165
m/z	intensity
15	3
17	2
18	7
27	10
28	8
29	2
30	3
31	1
39	13
40	3
41	9
42	16
43	8
44	999
45	24
50	4
51	10
52	5
53	8
54	1
55	3
56	2
57	3
58	1
59	1
60	1
62	2
63	6
64	2
65	10
66	3
67	2
72	6
73	1
74	2
75	4
76	2
77	26
78	7
79	8
80	2
89	2
90	1
91	19
92	4
93	2
94	1
95	1
102	2
103	7
104	3
105	5
106	1
107	14
108	2
109	1
115	2
117	2
118	1
119	2
120	2
121	27
122	24
123	3
130	1
131	2
132	3
133	3
134	3
135	2
146	2
147	2
148	4
149	3
150	5
162	1
163	1
164	3
165	20
166	5
