Mass Spectrum: 3,5,6-Trichloro-4-isopropylsulfanyl-pyridine-2-carbonitrile
Formula: C9H7Cl3N2S
CAS: 216242-35-2
Molecular weight: 280
m/z	intensity
24	3
25	8
26	27
27	138
28	3
29	4
35	6
36	11
37	15
38	35
39	111
40	69
41	322
42	221
43	999
44	34
45	25
47	14
48	4
49	6
50	2
51	1
56	3
57	5
58	11
59	26
60	9
61	4
62	8
63	3
67	4
68	6
69	5
70	6
71	7
72	3
73	4
74	5
76	1
77	1
78	1
79	10
80	4
81	7
82	10
83	5
84	3
85	4
86	3
87	2
88	3
89	1
90	1
91	7
92	3
93	5
94	21
95	4
96	3
97	4
98	3
99	3
100	4
101	2
102	3
103	13
104	3
105	7
106	17
107	5
108	4
109	6
110	3
111	5
112	2
113	2
114	3
115	8
116	4
117	7
118	4
119	3
120	3
121	1
122	1
123	1
131	2
132	8
133	3
134	5
135	2
136	2
137	2
140	2
141	8
142	3
143	4
144	2
145	2
150	3
151	1
152	2
153	1
154	1
155	1
158	1
159	1
167	3
168	3
169	2
170	1
175	1
176	7
177	2
178	4
179	1
180	1
181	1
185	1
187	1
193	2
194	3
195	2
196	1
201	3
202	15
203	12
204	11
205	7
206	4
207	2
210	1
229	1
230	1
231	1
232	1
235	1
236	3
237	11
238	58
239	27
240	60
241	18
242	21
243	4
244	3
245	1
265	1
266	1
267	1
279	3
280	18
281	6
282	17
283	4
284	6
285	1
286	1
