Mass Spectrum: 6H-1,3,4-Thiadiazine, 2-cyclohexylamino-5-phenyl-
Formula: C15H19N3S
CAS: 216259-89-1
Molecular weight: 273
m/z	intensity
34	2
36	2
37	4
39	251
41	574
42	57
43	75
44	18
45	39
46	55
47	11
48	7
50	79
51	188
52	48
53	102
55	734
56	77
57	13
58	21
59	55
60	113
61	10
62	20
63	46
64	19
65	42
66	17
67	75
68	24
69	29
71	24
72	29
73	11
74	28
75	38
76	118
77	531
78	73
79	78
80	88
81	141
83	890
84	47
85	20
86	34
87	12
88	13
89	32
90	17
91	78
92	12
93	8
94	5
95	19
96	18
98	57
99	14
100	14
103	999
104	381
105	36
106	8
107	3
108	8
109	11
110	9
111	5
112	7
113	11
114	8
115	11
116	11
117	18
118	34
119	16
120	9
121	17
122	5
123	17
124	9
125	23
126	5
127	16
128	9
129	6
130	21
131	33
132	19
133	14
134	32
135	30
136	9
137	10
138	2
139	2
140	5
142	194
143	18
144	17
145	6
146	6
148	32
149	13
150	21
151	10
152	3
153	8
155	137
156	13
157	11
158	7
159	26
160	14
162	55
164	504
165	47
166	17
167	3
168	2
169	28
170	24
171	6
172	4
173	2
175	10
176	7
177	7
178	4
179	0
181	0
182	1
183	2
184	10
185	4
186	3
188	20
191	181
192	25
193	9
194	2
195	2
196	15
197	4
198	11
199	2
200	0
201	0
202	6
203	16
204	8
205	1
211	0
212	3
213	2
215	0
216	15
217	6
218	24
219	4
220	0
224	1
225	5
226	9
227	3
228	0
230	84
231	17
232	6
233	0
239	3
240	18
241	8
242	3
243	1
244	13
245	3
246	0
256	3
257	18
258	28
259	5
260	1
269	0
270	4
272	127
273	333
274	53
275	17
276	1
