Mass Spectrum: 1-Methyl-4-nitro-5-(4-nitro-phenoxy)-1H-imidazole
Formula: C10H8N4O5
CAS: 216219-89-5
Molecular weight: 264
m/z	intensity
33	6
34	3
35	0
36	2
37	9
38	36
39	44
40	55
42	999
43	60
44	18
45	3
46	13
47	2
48	1
50	146
51	33
52	30
53	53
54	12
55	7
56	12
58	382
60	2
61	6
62	19
63	69
64	70
65	22
66	13
67	56
69	310
71	12
73	7
74	38
75	91
76	118
77	18
78	16
79	17
80	14
81	9
82	8
83	26
84	3
85	1
86	1
87	2
88	4
89	8
90	15
91	8
92	26
93	7
94	1
95	2
96	3
97	4
98	24
99	1
100	0
101	1
102	6
103	6
104	10
105	9
106	6
107	2
108	7
109	11
110	3
111	8
112	2
113	1
114	0
115	4
116	6
117	6
118	2
119	2
120	2
122	21
123	4
126	425
127	23
128	3
129	1
130	2
131	3
132	3
133	3
134	2
135	1
136	1
137	1
138	1
139	8
140	0
141	0
142	1
143	2
144	2
145	3
146	3
147	1
148	0
149	4
150	2
151	0
152	0
153	0
154	1
155	0
156	3
157	3
158	0
159	0
161	11
162	1
163	3
164	0
165	1
166	0
171	10
172	2
173	0
174	0
175	0
176	0
177	0
179	2
180	0
185	0
186	0
187	0
188	7
189	1
190	0
195	0
200	0
202	8
203	0
204	0
205	0
215	0
217	7
218	1
219	0
234	76
235	8
236	0
248	0
264	14
265	2
266	0
