Mass Spectrum: Furo[3,2-E]-2,1,3-benzoxadiazole, 7-methyl-
Formula: C9H6N2O2
CAS: 216218-89-2
Molecular weight: 174
m/z	intensity
30	999
37	16
38	91
39	108
40	6
41	23
43	321
44	17
49	20
50	95
51	123
52	120
57	23
61	50
62	34
63	123
64	26
65	31
66	26
71	13
75	75
76	52
80	46
88	57
89	173
90	16
91	30
102	10
104	130
116	43
118	16
119	19
142	16
144	190
145	21
156	23
157	295
158	10
173	41
174	876
175	113
