Mass Spectrum: Phenol, 3-[(1-methyl-4-nitro-1H-imidazol-5-yl)amino]-
Formula: C10H10N4O3
CAS: 216219-93-1
Molecular weight: 234
m/z	intensity
33	18
35	8
36	17
37	23
38	83
39	210
40	81
42	999
43	34
44	12
45	8
46	18
47	5
48	4
49	15
50	39
51	75
52	92
53	118
54	26
55	47
56	14
57	33
58	8
59	5
61	23
62	42
63	120
64	98
65	176
66	58
67	63
68	36
69	54
70	8
71	5
72	3
73	14
74	25
75	31
76	93
77	41
78	55
79	50
80	60
81	54
82	21
83	56
85	31
86	9
87	7
88	9
89	14
90	35
91	62
92	52
93	99
94	59
95	20
96	15
97	19
98	8
99	3
100	5
101	6
102	11
103	19
104	44
105	39
106	37
107	32
108	36
109	29
110	19
111	13
112	10
113	5
115	17
116	15
117	25
119	225
120	92
121	24
122	12
123	14
124	8
125	3
126	2
127	2
128	4
129	6
130	15
131	23
132	36
133	79
134	60
135	87
136	44
137	5
138	3
139	0
141	2
142	4
143	10
144	36
145	48
146	49
147	159
148	62
149	42
150	7
151	11
152	2
153	2
156	5
157	8
158	27
159	54
160	94
161	197
162	36
163	113
164	18
165	5
166	2
167	7
168	1
169	3
171	98
172	213
173	71
174	27
175	29
176	36
177	12
178	6
179	4
180	0
182	0
183	4
184	6
186	81
187	96
188	84
189	232
190	43
191	3
193	4
195	1
197	0
199	82
200	153
201	96
202	44
203	18
204	19
205	10
206	1
210	0
215	3
217	175
218	24
219	2
232	1
234	770
235	88
236	9
