Mass Spectrum: Malonic acid, 1,3-dithio-, bimol. cyclic S,S-ethylene ester
Formula: C10H12O4S4
CAS: 21620-30-4
Molecular weight: 324
m/z	intensity
41	140
42	599
43	999
44	955
45	392
46	140
47	280
48	34
49	20
56	14
57	56
58	220
59	340
60	779
61	372
62	48
63	20
64	90
65	40
66	16
70	100
76	60
77	54
78	30
79	40
84	30
85	110
86	48
87	955
88	52
89	40
90	40
91	24
92	140
93	80
94	310
95	30
96	30
102	420
103	769
104	74
105	56
118	92
119	236
120	72
121	432
122	36
123	34
129	96
130	14
135	26
136	148
137	34
138	24
145	60
146	40
147	583
148	40
149	40
162	40
163	60
178	26
180	24
195	20
239	14
265	34
266	12
267	14
309	14
324	2
