Mass Spectrum: Androstan-17-ol, 2,3-epoxy-1-methyl-, acetate, (1.alpha.,2.alpha.,3.alpha.,5.alpha.,17.beta.)-
Formula: C22H34O3
CAS: 21623-55-2
Molecular weight: 346
m/z	intensity
41	350
42	30
43	999
44	20
45	10
50	10
51	10
53	90
54	20
55	350
56	20
57	50
60	10
66	30
67	20
68	240
69	80
70	110
71	10
72	100
78	110
79	30
80	260
81	60
82	330
83	40
84	30
85	90
86	30
91	230
92	60
93	350
94	180
95	270
96	30
97	70
98	10
104	10
105	250
106	100
107	290
108	90
109	110
110	20
111	30
115	10
117	50
118	40
119	160
120	120
121	160
122	50
123	80
124	30
125	10
129	10
130	10
131	110
132	40
133	220
134	90
135	110
136	30
137	150
138	30
143	20
144	10
145	110
146	100
147	200
148	130
149	70
150	10
151	20
156	20
157	10
158	120
159	100
160	140
161	70
162	30
164	10
170	20
171	10
172	80
173	70
174	100
175	20
176	20
185	40
186	10
187	140
188	30
189	10
190	10
199	20
200	130
201	120
202	110
203	30
212	10
215	240
216	50
217	20
218	20
229	10
234	100
243	20
253	20
260	150
261	80
262	50
271	30
276	90
277	10
287	30
304	20
305	30
328	10
331	380
332	80
346	70
347	10
