Mass Spectrum: 4,7-Dichloro-2-mercapto-2-[(1-methylethyl)thio][1,3]dithiolo[4,5-c]pyridine-6-carbonitrile
Formula: C10H8Cl2N2S4
CAS: 216242-37-4
Molecular weight: 354
m/z	intensity
24	2
25	4
26	20
27	72
28	1
37	7
38	25
39	120
40	72
41	494
42	242
43	999
44	42
45	48
46	12
47	39
48	6
49	8
55	8
56	3
57	12
58	20
59	54
60	22
61	15
62	9
63	3
64	9
65	2
66	2
67	3
68	5
69	6
70	12
71	10
72	2
73	1
74	7
75	9
76	28
77	20
78	6
80	5
81	9
82	6
83	5
84	1
85	6
87	1
88	8
89	1
91	3
92	2
93	6
94	37
95	8
96	4
97	5
98	4
99	3
100	4
102	2
103	9
104	2
105	7
106	30
107	9
108	7
109	4
110	3
111	3
112	2
115	3
116	1
117	2
118	4
119	7
120	4
123	2
129	2
132	2
133	1
134	1
138	2
139	1
140	2
141	9
142	4
143	3
144	1
150	2
151	2
152	1
154	1
155	4
156	1
157	1
164	1
165	1
166	1
167	5
168	4
169	3
170	1
177	2
179	1
196	1
198	3
199	15
200	6
201	7
202	4
203	4
204	1
205	1
206	1
207	1
208	2
209	2
210	2
211	2
212	1
213	1
233	3
234	17
235	16
236	16
237	11
238	6
239	3
240	1
241	1
242	1
243	7
244	3
245	3
246	2
247	4
248	2
249	2
250	1
251	1
276	2
277	8
278	45
279	185
280	68
281	140
282	34
283	38
284	8
285	3
311	3
312	1
313	2
319	1
320	5
321	33
322	15
323	28
324	8
325	6
