Mass Spectrum: 1,4,8,11-Tetraoxacyclotetradecane-5,7,12,14-tetrone
Formula: C10H12O8
CAS: 21620-29-1
Molecular weight: 260
m/z	intensity
41	35
42	889
43	379
44	142
45	142
57	13
59	15
60	33
61	59
63	73
68	23
69	231
70	23
71	33
72	51
73	15
74	13
86	695
87	193
88	15
89	55
90	15
100	73
101	33
102	15
104	53
105	31
113	999
114	132
115	23
118	13
119	13
129	15
131	407
132	33
133	11
144	138
145	13
150	47
161	15
172	71
173	11
199	11
217	71
218	11
230	23
