Mass Spectrum: 1-Methyl-4-[4-aminobenzene]sulfonyl piperazine
Formula: C11H17N3O2S
CAS: 21623-68-7
Molecular weight: 255
m/z	intensity
41	10
42	56
43	20
44	14
54	12
55	10
56	152
57	19
58	23
63	7
65	62
66	10
70	63
71	7
72	23
84	7
91	11
92	59
97	21
99	999
100	54
106	14
108	29
140	12
156	21
184	3
254	10
255	100
256	22
