Mass Spectrum: Propanoic acid, 2,3-dihydroxy-2-methyl-
Formula: C4H8O4
CAS: 21620-60-0
Molecular weight: 120
m/z	intensity
13	1
14	9
15	57
16	2
17	7
18	33
19	143
25	2
26	18
27	110
28	63
29	369
30	16
31	223
32	10
33	3
36	2
37	2
38	5
39	18
40	5
41	10
42	49
43	741
44	339
45	80
46	8
47	65
49	15
53	9
54	3
55	44
56	19
57	483
58	60
59	22
60	5
61	21
62	1
63	1
69	2
71	20
72	254
73	19
74	8
75	637
76	22
77	21
83	3
84	4
85	13
86	1
87	1
88	3
89	53
90	999
91	35
92	7
102	11
121	2
