Mass Spectrum: 2-(3-Methyl-5-nitro-3H-imidazol-4-ylamino)-phenol
Formula: C10H10N4O3
CAS: 216219-92-0
Molecular weight: 234
m/z	intensity
33	6
34	3
36	3
37	18
38	45
39	155
40	86
42	999
43	184
44	47
45	12
46	5
47	1
48	1
50	42
51	75
52	105
53	79
54	19
55	24
56	13
57	36
58	10
62	20
63	76
64	83
65	97
66	24
67	47
68	12
69	30
70	6
71	6
72	2
73	5
74	8
75	17
76	21
77	30
78	39
79	41
80	76
81	19
82	11
83	25
84	8
85	15
86	4
87	4
88	5
89	9
90	50
91	72
92	39
93	39
94	17
95	7
96	6
97	5
98	4
99	1
100	3
101	4
102	19
103	10
104	22
105	21
106	12
107	10
108	22
109	9
110	4
111	3
112	2
113	1
114	0
115	2
116	9
117	22
118	20
119	106
120	89
121	10
122	2
123	2
124	1
125	1
126	4
127	5
128	4
129	7
130	7
131	10
132	18
133	14
134	14
135	8
136	2
137	1
138	0
139	0
140	0
141	1
142	4
143	6
145	157
146	304
147	101
148	22
149	7
150	1
151	0
152	1
153	1
154	0
155	1
156	2
157	4
158	15
159	33
160	35
161	13
162	2
163	1
164	0
165	0
167	0
168	0
169	1
170	6
171	16
172	57
173	25
174	8
175	14
176	4
177	2
182	0
183	1
184	7
185	14
186	69
187	153
188	116
189	14
190	1
193	0
197	0
198	2
200	60
201	18
202	5
203	5
204	0
217	19
218	8
219	2
234	167
235	19
236	2
