Mass Spectrum: N,N-Dimethyl-6-phenyl-1,2,4-triazine-3-amine, 4-oxide
Formula: C11H12N4O
CAS: 216321-33-4
Molecular weight: 216
m/z	intensity
42	10
43	61
44	2
50	19
51	10
52	12
53	9
54	6
62	2
63	4
65	2
70	172
71	122
72	23
73	2
76	3
77	353
78	11
79	19
82	1
84	2
87	2
88	6
89	103
90	24
91	2
101	2
102	51
103	999
104	163
105	18
114	3
115	9
116	5
119	17
120	8
121	1
130	34
132	52
133	10
143	2
144	19
145	24
146	40
147	26
148	2
157	59
158	366
159	67
160	13
172	10
173	9
174	2
188	7
189	2
199	50
200	509
201	75
216	69
217	8
