Mass Spectrum: Diphosphorous acid, tetraethyl ester
Formula: C8H20O5P2
CAS: 21646-99-1
Molecular weight: 258
m/z	intensity
43	38
45	51
47	89
49	64
81	76
82	89
93	999
109	25
110	38
111	153
121	871
128	25
129	25
138	25
139	76
145	38
155	25
157	51
185	358
213	51
214	333
230	25
258	12
