Mass Spectrum: o-(3-Phenylureido)benzoic acid
Formula: C14H12N2O3
CAS: 2164-95-6
Molecular weight: 256
m/z	intensity
17	2
18	1
26	4
27	9
28	18
29	1
30	1
31	2
36	1
37	23
38	47
39	75
40	19
41	35
42	5
43	1
44	16
45	47
46	15
47	1
49	5
50	31
51	34
52	38
53	9
54	9
55	1
59	36
60	10
61	13
62	24
63	83
64	175
65	129
66	116
67	11
68	6
69	1
73	3
74	9
75	8
76	14
77	15
78	6
79	1
80	2
86	1
87	3
88	3
89	3
90	32
91	248
92	314
93	424
94	29
95	1
103	1
118	5
119	999
120	98
121	6
136	1
137	274
138	22
139	2
146	25
147	2
163	58
164	7
194	1
195	1
212	3
237	4
238	13
239	2
256	9
257	1
