Mass Spectrum: Furfurylamine, N-(3,4-methylenedioxybenzylideno)-
Formula: C13H11NO3
CAS: 216501-50-7
Molecular weight: 229
m/z	intensity
33	0
37	31
38	76
39	118
40	15
41	26
42	14
43	4
44	0
45	1
49	8
50	102
51	129
52	78
53	378
54	18
55	4
56	0
57	1
59	1
60	1
61	21
62	80
63	148
64	31
65	125
66	14
67	3
68	8
69	4
70	0
71	2
72	0
73	3
74	22
75	30
76	63
77	46
78	18
79	17
81	999
82	57
83	3
84	0
85	1
86	3
87	5
88	10
89	22
90	20
91	32
92	8
93	3
94	3
95	7
96	0
98	0
100	7
101	2
102	10
103	9
104	29
105	14
106	4
107	20
108	1
109	0
110	0
111	0
113	5
114	8
115	35
116	11
117	6
118	8
119	4
120	17
121	58
122	6
123	0
125	0
126	0
127	1
128	1
129	1
130	3
131	2
132	3
133	3
134	13
135	24
136	3
137	0
138	0
140	4
141	9
142	12
143	7
144	4
145	2
146	38
147	19
148	41
149	10
150	2
151	0
152	0
153	0
154	1
155	0
156	0
157	0
158	0
159	1
160	11
161	21
162	6
163	1
165	5
166	4
167	0
168	0
169	1
170	15
171	7
172	4
173	3
174	5
175	1
176	1
177	0
180	0
181	0
182	1
183	0
184	0
186	3
187	1
188	1
189	0
190	0
191	0
198	4
199	3
200	49
201	25
202	4
203	0
204	0
206	0
207	0
210	0
211	1
212	3
213	0
214	0
226	0
228	75
229	669
230	98
231	10
232	1
233	0
