Mass Spectrum: Guanoxan
Formula: C10H13N3O2
CAS: 2165-19-7
Molecular weight: 207
m/z	intensity
26	20
30	999
38	10
39	60
41	50
42	90
43	320
50	50
51	80
52	160
53	60
54	40
55	50
56	140
57	30
59	10
60	40
62	10
63	50
64	40
65	40
66	10
72	650
73	50
74	10
75	10
77	80
78	20
79	40
80	80
81	110
82	20
84	50
85	20
86	20
91	10
92	20
93	10
96	10
98	60
99	40
105	10
107	50
108	30
109	60
110	70
120	20
121	210
122	20
133	10
134	30
135	220
136	110
137	10
146	20
147	70
148	170
149	20
165	90
166	10
177	10
190	120
191	20
207	90
208	10
