Mass Spectrum: Piperazine, 2,6-dimethyl-, cis-
Formula: C6H14N2
CAS: 21655-48-1
Molecular weight: 114
m/z	intensity
14	2
15	23
26	5
27	38
28	183
29	30
30	356
31	15
35	1
37	1
38	5
39	64
40	22
41	172
42	454
43	214
44	944
45	35
46	1
47	1
48	9
49	4
51	1
52	4
53	3
54	23
55	12
56	510
57	52
58	55
59	2
65	1
66	2
67	8
68	55
69	22
70	588
71	999
72	279
73	22
80	3
81	4
82	14
83	40
84	35
85	9
86	1
94	1
95	8
96	5
97	12
98	19
99	617
100	39
101	1
108	13
109	6
110	5
111	7
112	6
113	48
114	188
115	61
116	4
