Mass Spectrum: 1H-Tetrazole-1,5-diamine
Formula: CH4N6
CAS: 2165-21-1
Molecular weight: 100
m/z	intensity
39	0
41	195
43	999
44	40
45	1
54	1
55	2
56	18
58	5
60	0
69	0
73	0
74	0
77	0
84	0
85	0
88	0
91	0
100	49
101	5
