Mass Spectrum: 2'-Hydroxybutyrophenone oxime
Formula: C10H13NO2
CAS: 21667-43-6
Molecular weight: 179
m/z	intensity
15	2
17	1
18	9
26	2
27	39
28	15
29	6
30	2
31	2
37	1
38	7
39	48
40	5
41	71
42	14
43	100
44	8
45	4
46	3
50	6
51	18
52	10
53	9
54	6
55	5
57	1
58	2
59	1
60	1
61	1
62	4
63	24
64	27
65	54
66	8
67	3
68	7
69	1
70	3
71	2
72	1
73	7
74	2
75	8
76	6
77	28
78	10
79	9
80	7
81	9
82	1
88	1
89	8
90	11
91	167
92	35
93	22
94	9
95	3
101	4
102	25
103	16
104	14
105	31
106	7
107	24
108	5
109	3
110	1
115	9
116	5
117	9
118	19
119	999
120	194
121	38
122	4
127	4
128	6
129	2
130	3
131	9
132	28
133	102
134	35
135	7
136	10
137	1
144	6
145	9
146	112
147	31
148	22
149	2
150	2
151	47
152	4
160	31
161	17
162	113
163	23
164	74
165	8
178	18
179	559
180	85
181	8
