Mass Spectrum: Benzonitrile, p-(dibromoacetyl)-
Formula: C9H5Br2NO
CAS: 21661-87-0
Molecular weight: 301
m/z	intensity
24	1
26	4
27	10
29	0
36	0
37	11
38	17
39	19
41	2
44	0
48	1
49	7
50	44
51	40
52	11
53	1
58	0
61	11
62	26
63	19
64	12
65	3
66	0
72	0
73	4
74	18
75	70
76	37
77	3
78	0
79	2
81	2
84	0
85	2
86	5
87	9
88	16
89	5
90	1
91	2
92	6
93	3
94	5
95	0
97	0
98	1
99	7
100	4
101	6
102	212
103	19
104	1
110	0
111	0
112	0
113	0
114	17
115	46
116	3
119	0
120	6
121	0
122	7
123	0
127	4
128	0
130	999
131	69
132	4
133	0
141	0
143	0
144	0
147	0
148	1
167	3
168	1
169	2
170	1
171	1
172	0
173	3
175	1
194	17
195	2
196	18
197	1
301	1
303	1
304	0
305	1
