Mass Spectrum: Pipazethate
Formula: C21H25N3O3S
CAS: 2167-85-3
Molecular weight: 399
m/z	intensity
41	47
42	28
44	26
45	17
55	41
56	21
69	20
96	10
98	999
99	58
111	158
112	28
156	9
199	50
200	39
288	40
