Mass Spectrum: 7-Azatricyclo[4.2.2.0(2,5)]deca-3,7,9-triene, 8-methoxy-, endo-
Formula: C10H11NO
CAS: 21681-32-3
Molecular weight: 161
m/z	intensity
26	60
27	60
28	50
38	90
39	195
50	125
51	230
52	999
53	70
62	30
63	75
64	60
65	85
76	50
77	90
78	160
79	120
89	40
90	30
91	60
103	70
108	55
117	90
118	90
130	100
145	115
146	145
161	280
162	110
