Mass Spectrum: Propanoic acid, 3,3'-selenobis-
Formula: C6H10O4Se
CAS: 2168-88-9
Molecular weight: 226
m/z	intensity
25	11
26	202
27	881
28	284
29	298
30	13
31	64
41	14
42	65
43	110
44	85
45	999
46	21
47	9
53	40
54	5
55	379
56	43
57	10
58	2
59	5
60	26
61	4
71	14
72	17
73	329
74	79
75	8
76	17
77	31
78	68
79	80
80	135
81	161
82	79
83	94
84	11
85	13
88	1
89	31
90	50
91	111
92	68
93	206
94	131
95	113
96	22
97	34
98	2
99	5
101	10
102	21
103	100
104	170
105	304
106	302
107	503
108	463
109	279
110	89
112	2
113	9
114	6
117	8
118	1
119	12
120	5
121	69
122	45
123	143
124	11
125	277
126	6
127	50
129	5
130	9
131	38
132	59
133	130
134	95
135	215
136	129
137	146
138	28
139	45
140	1
141	6
147	5
148	9
149	54
150	63
151	130
152	61
153	240
154	55
155	43
156	12
157	4
158	33
159	26
160	85
161	8
162	180
163	13
164	31
165	10
167	19
169	2
174	3
176	33
177	34
178	105
179	19
180	201
181	39
182	33
183	9
188	4
190	10
191	3
198	3
205	3
206	4
207	8
209	11
211	3
220	6
222	64
223	54
224	167
225	13
226	335
227	22
228	61
229	3
