Mass Spectrum: 7-Azatricyclo[4.2.2.02,5]deca-3,7,9-triene, 8-methoxy-, exo-
Formula: C10H11NO
CAS: 21681-33-4
Molecular weight: 161
m/z	intensity
25	40
26	40
27	70
38	65
39	190
50	105
51	250
52	999
53	80
62	30
63	70
64	40
65	60
66	40
67	35
76	20
77	110
78	160
79	110
80	50
91	60
96	40
102	30
103	65
104	55
108	45
110	30
117	100
118	90
120	30
130	90
132	40
145	160
146	155
161	290
162	105
