Mass Spectrum: Azaribine
Formula: C14H17N3O9
CAS: 2169-64-4
Molecular weight: 371
m/z	intensity
15	2
27	3
29	6
30	1
31	1
39	4
40	1
41	12
42	20
43	999
44	33
45	7
51	1
52	2
53	3
54	5
55	20
56	5
57	14
58	6
59	1
60	6
61	12
67	1
68	51
69	77
70	17
71	14
72	2
73	20
74	2
75	1
80	1
81	8
82	8
83	9
84	24
85	51
86	55
87	5
88	1
89	1
95	2
96	9
97	113
98	12
99	26
100	12
101	6
102	4
103	31
104	4
108	2
109	3
110	3
111	10
112	12
113	7
114	43
115	79
116	8
117	1
121	11
122	1
124	2
125	4
126	30
127	19
128	75
129	12
130	1
131	1
136	1
137	4
138	7
139	132
140	14
141	2
142	7
143	17
144	1
145	12
146	2
151	2
152	2
153	5
154	37
155	19
156	62
157	45
158	3
164	1
165	1
166	20
167	13
168	38
169	3
170	22
171	11
172	2
180	2
181	8
182	32
183	3
184	7
185	2
187	1
191	1
192	62
193	6
196	143
197	16
198	30
199	4
204	1
208	4
209	85
210	13
211	1
214	5
215	1
216	1
223	1
224	5
225	1
226	3
227	1
238	2
239	2
241	1
242	6
251	12
252	3
256	7
257	1
259	38
260	4
268	2
269	6
270	1
284	1
298	14
299	2
