Mass Spectrum: Butanoic acid, 3-butenyl ester
Formula: C8H14O2
CAS: 21698-32-8
Molecular weight: 142
m/z	intensity
25	1
26	22
27	240
28	53
29	127
30	4
31	13
37	3
38	11
39	184
40	22
41	198
42	84
43	636
44	26
45	12
49	0
50	5
51	9
52	5
53	37
54	573
55	205
56	13
57	4
58	1
59	0
60	9
61	0
67	2
68	3
69	6
71	999
72	51
73	14
74	1
78	0
79	0
81	1
82	3
83	1
85	0
86	9
87	2
88	2
89	4
91	0
92	0
95	0
99	4
101	121
102	6
103	0
112	0
113	0
114	4
142	2
