Mass Spectrum: 3-Heptyl-2,3-dihydro-6-phenyl-1,2,4-triazine, 4-oxide
Formula: C16H23N3O
CAS: 216975-99-4
Molecular weight: 273
m/z	intensity
41	8
42	3
43	14
44	9
51	60
52	18
53	19
54	26
55	135
56	58
57	59
63	44
69	8
76	107
77	201
78	10
82	90
83	38
84	56
85	10
86	6
90	33
91	74
102	999
103	274
104	284
105	67
106	10
116	8
117	96
118	72
119	2
125	26
126	8
128	13
129	28
130	45
131	7
134	3
136	3
143	22
144	91
145	366
146	119
147	15
157	68
158	223
159	112
170	74
171	405
172	106
173	38
174	35
184	154
185	37
186	23
199	1
200	1
201	1
212	15
213	1
227	26
228	6
229	47
230	8
245	14
246	2
254	22
255	152
256	70
257	16
273	19
274	1
