Mass Spectrum: 1,4-Dimethyl-7-(prop-1-en-2-yl)decahydroazulen-4-ol
Formula: C15H26O
CAS: 21698-41-9
Molecular weight: 222
m/z	intensity
27	41
29	79
38	4
39	174
40	44
41	477
42	66
43	624
45	30
51	46
52	25
53	225
54	55
55	504
56	42
57	65
58	88
59	19
63	21
64	13
65	135
66	50
67	610
68	150
69	349
70	66
71	533
72	25
73	5
74	4
75	3
77	272
78	59
79	532
80	158
81	832
82	273
83	215
84	36
85	18
87	2
91	411
92	88
93	640
94	207
95	444
96	101
97	100
98	27
102	7
103	34
104	18
105	520
106	158
107	999
108	730
109	480
110	62
111	129
112	16
113	4
115	48
117	62
119	357
120	195
121	760
122	557
123	234
124	37
125	88
126	67
127	33
128	22
129	21
131	38
132	14
133	306
134	159
135	180
136	97
137	18
138	20
139	13
145	25
147	328
148	198
149	139
150	29
151	36
152	41
160	8
161	390
162	127
163	31
164	19
166	3
175	82
176	39
177	11
178	2
179	10
189	429
190	55
194	8
204	203
205	41
206	4
222	4
