Mass Spectrum: (3S,6S)-6-Isopropyl-3-methyl-2-(propan-2-ylidene)-3-vinylcyclohexanone
Formula: C15H24O
CAS: 21698-46-4
Molecular weight: 220
m/z	intensity
26	2
27	74
28	8
29	87
30	2
31	3
37	1
38	5
39	219
40	44
41	586
42	54
43	374
44	13
50	13
51	78
52	38
53	298
54	40
55	574
56	45
57	59
59	26
60	1
62	4
63	28
64	14
65	170
66	51
67	464
68	81
69	445
70	37
71	191
72	12
73	5
74	3
75	5
76	5
77	475
78	96
79	498
80	95
81	469
83	302
84	26
85	16
86	4
87	3
89	13
90	5
91	778
92	104
93	676
94	122
95	407
96	91
97	242
98	24
99	15
101	2
102	8
103	48
104	14
105	293
106	61
107	999
109	520
110	73
113	3
115	45
116	15
117	68
118	13
119	128
120	34
121	505
122	212
123	175
124	66
125	37
128	22
129	26
130	13
131	86
132	22
133	96
134	36
135	396
136	138
137	158
138	33
139	17
141	5
142	4
143	12
144	23
145	107
146	22
147	71
148	24
149	382
150	111
151	55
152	15
153	2
156	2
157	6
158	4
159	187
160	31
162	38
163	210
164	71
165	24
166	3
172	3
173	7
174	3
175	8
176	6
177	543
178	202
179	220
180	28
181	2
187	30
188	6
190	4
191	70
192	42
193	21
194	4
202	5
203	4
205	450
206	69
207	6
219	3
220	265
221	44
222	9
223	1
