Mass Spectrum: N-Phenyl-N'-(2,4-dichlorobenzylidene)hydrazine
Formula: C13H10Cl2N2
CAS: 21719-63-1
Molecular weight: 264
m/z	intensity
27	18
28	44
35	6
36	20
37	19
38	62
39	228
40	29
41	22
43	8
49	10
50	82
51	144
52	45
54	8
55	7
57	8
61	19
62	42
63	100
64	101
65	704
66	270
67	21
71	5
72	7
73	52
74	94
75	98
76	27
77	126
78	18
83	11
84	30
85	27
86	21
87	25
88	9
89	24
90	16
91	193
92	999
93	322
94	19
96	27
97	22
99	13
100	54
101	12
102	7
109	102
110	24
111	36
112	7
118	22
119	26
123	93
124	14
125	29
126	6
132	22
133	14
136	51
137	10
138	18
139	8
145	49
146	6
147	28
149	7
152	6
163	6
164	7
165	22
166	18
167	28
171	37
172	34
173	27
174	21
175	6
192	9
193	17
194	57
195	6
201	15
202	8
227	6
228	37
229	432
230	72
231	129
232	14
263	93
264	632
265	150
266	378
267	60
268	57
269	5
