Mass Spectrum: Acetic acid, 8-chlorooctyl ester
Formula: C10H19ClO2
CAS: 21727-90-2
Molecular weight: 206
m/z	intensity
14	4
15	38
16	1
17	1
18	3
26	8
27	93
28	39
29	102
30	4
31	12
32	1
35	1
36	2
37	1
38	4
39	100
40	21
41	310
42	133
43	999
44	34
45	9
49	19
50	2
51	12
52	3
53	37
54	68
55	332
56	136
57	41
58	38
59	6
61	298
62	11
63	23
64	2
65	14
66	14
67	162
68	216
69	273
70	54
71	19
72	2
73	84
74	4
75	9
76	10
77	13
78	5
79	14
80	6
81	93
82	124
83	79
84	33
85	4
86	1
87	12
88	4
89	5
90	19
91	58
92	9
93	20
94	2
95	26
96	3
97	27
98	26
99	2
101	19
102	5
103	8
104	323
105	26
106	104
107	8
108	1
109	26
110	16
111	16
112	3
115	2
116	33
117	16
118	133
119	14
120	43
121	3
125	1
126	1
129	2
130	2
131	1
132	1
133	1
134	4
136	1
144	3
145	3
146	33
147	5
148	12
149	1
150	1
153	1
161	2
162	1
163	1
191	1
