Mass Spectrum: Cyclopentaneethanol, .beta.,2,3-trimethyl-
Formula: C10H20O
CAS: 21721-18-6
Molecular weight: 156
m/z	intensity
25	1
26	6
27	104
28	10
29	150
30	5
31	94
38	3
39	123
40	24
41	485
42	75
43	145
44	5
45	16
46	1
50	4
51	12
52	4
53	84
54	31
55	936
56	178
57	204
58	106
59	32
60	2
63	2
65	18
66	10
67	186
68	85
69	999
70	165
71	61
72	9
73	4
75	2
77	13
78	5
79	33
80	10
81	391
82	112
83	333
84	39
85	20
86	7
87	1
89	2
91	9
92	3
93	8
94	14
95	363
96	368
97	281
98	15
99	5
100	4
101	3
102	1
103	0
105	2
107	6
108	3
109	101
110	17
111	3
112	6
113	3
114	3
115	4
117	0
119	0
121	2
122	1
123	133
124	12
125	54
126	4
127	2
131	0
134	0
136	1
137	3
138	7
139	1
140	0
141	3
142	0
143	0
154	1
156	0
