Mass Spectrum: N-Methylbenzimidoyl chloride
Formula: C8H8ClN
CAS: 21737-87-1
Molecular weight: 153
m/z	intensity
39	40
50	110
51	170
52	30
59	30
62	30
63	40
74	30
75	50
76	140
77	370
78	40
89	40
91	60
103	230
104	30
118	999
119	100
153	30
155	10
