Mass Spectrum: 5-(p-Chlorophenylthio)-3-methyl-1,2,4-thiadiazole
Formula: C9H7ClN2S2
CAS: 21734-97-4
Molecular weight: 242
m/z	intensity
14	1
15	3
26	1
27	15
28	2
32	14
34	1
36	2
37	4
38	8
39	13
40	7
41	11
42	5
44	7
45	32
46	23
47	33
48	1
49	5
50	36
51	19
52	2
53	1
54	1
57	9
58	18
59	6
60	3
61	8
62	11
63	46
64	71
65	1
66	6
69	43
70	8
71	5
72	31
73	999
74	61
75	130
76	16
77	1
79	4
81	9
82	19
83	5
84	9
85	10
86	2
87	4
88	1
90	9
91	1
92	2
93	4
94	2
95	4
96	1
97	3
98	1
99	48
100	4
101	14
102	4
103	4
105	4
106	5
107	18
108	184
109	16
110	9
111	44
112	4
113	13
114	1
116	1
118	2
119	2
120	9
121	9
122	7
125	7
127	2
130	1
131	1
133	7
134	18
135	2
136	1
137	85
138	7
139	34
140	7
141	1
142	15
143	191
144	19
145	70
146	5
147	3
155	398
156	35
157	146
158	11
159	6
165	4
166	10
167	2
168	1
169	32
170	5
171	11
172	1
173	1
174	87
175	10
176	36
177	4
178	3
187	1
200	17
201	584
202	63
203	239
204	22
205	18
206	2
241	64
242	920
243	137
244	379
245	46
246	30
247	3
