Mass Spectrum: 1H-Tetrazole-1-acetic acid, 5-amino-
Formula: C3H5N5O2
CAS: 21743-62-4
Molecular weight: 143
m/z	intensity
26	3
27	14
28	84
29	20
30	7
31	41
35	3
36	7
37	2
38	7
39	13
40	29
41	59
42	359
43	582
44	58
45	205
46	8
47	2
48	2
50	7
51	11
52	13
53	43
54	23
55	77
56	29
57	29
58	14
59	199
60	151
61	6
62	6
63	12
64	7
65	7
66	8
67	11
68	13
69	26
70	389
71	23
72	23
73	89
74	16
75	17
76	15
77	20
78	15
79	10
80	24
81	12
82	23
83	11
84	8
85	17
86	19
87	212
88	85
89	8
90	9
91	14
92	13
93	10
94	9
95	7
96	5
97	8
98	999
99	64
100	35
101	30
102	5
103	6
104	8
105	24
106	9
107	7
108	4
109	4
110	6
111	6
112	3
113	3
114	8
115	105
116	7
117	4
118	5
119	5
120	6
121	5
122	3
123	5
124	4
125	16
126	5
127	51
128	105
129	6
141	7
142	11
143	623
144	44
145	8
