Mass Spectrum: Butanoic acid, 4-(4-methylphenyl)-2,4-dioxo-3-phenylhydrazono-
Formula: C17H14N2O4
CAS: 217474-46-9
Molecular weight: 310
m/z	intensity
33	4
39	338
41	77
43	22
45	102
47	0
50	58
51	161
52	34
53	13
54	11
55	3
56	0
57	1
58	0
59	1
60	6
63	165
65	674
66	27
67	2
69	17
70	0
71	0
74	14
75	16
77	310
78	16
79	4
81	1
82	0
83	0
84	0
85	1
86	3
87	5
89	83
91	734
92	173
93	149
94	9
95	0
97	0
98	0
99	0
100	0
101	1
102	5
103	12
105	72
107	5
108	0
109	0
110	0
111	0
113	1
114	1
115	6
116	7
119	999
120	62
121	4
122	0
123	0
127	0
128	0
129	1
130	1
131	7
132	5
133	3
134	0
135	0
136	0
137	2
139	1
140	0
141	0
143	4
146	190
147	20
149	3
150	0
152	1
153	0
154	0
155	0
157	0
159	4
160	1
161	4
162	0
163	0
164	0
165	5
166	3
167	5
168	1
169	0
172	2
173	1
174	0
175	0
176	0
177	0
178	1
179	1
180	1
182	56
183	15
184	1
187	0
189	0
190	0
191	1
192	1
194	12
195	2
196	0
201	0
202	0
205	0
206	0
207	0
208	1
209	1
210	2
211	0
219	0
220	1
221	1
222	0
223	2
224	0
233	0
235	2
236	11
237	12
238	4
239	0
248	0
249	3
250	0
251	2
252	0
262	0
263	4
265	52
266	32
267	5
268	0
278	0
281	2
282	7
283	1
292	12
293	3
294	11
295	4
296	0
306	0
309	17
310	82
311	16
312	2
313	0
