Mass Spectrum: 5-(p-Chlorophenylthio)-3-methylthio-1,2,4-thiadiazole
Formula: C9H7ClN2S3
CAS: 21745-04-0
Molecular weight: 274
m/z	intensity
15	2
27	1
28	1
32	2
36	1
37	1
38	3
39	6
41	1
44	4
45	24
46	26
47	25
48	3
49	2
50	15
51	8
57	3
58	9
59	31
60	9
61	7
62	5
63	21
64	16
65	1
66	1
69	20
70	7
71	2
72	13
73	26
74	11
75	43
76	7
77	1
78	2
79	6
81	5
82	9
83	1
84	3
85	27
86	14
87	3
88	2
90	114
91	4
92	10
93	2
94	1
95	2
96	9
97	2
99	23
100	3
101	8
102	23
103	2
104	4
105	999
106	44
107	98
108	97
109	17
110	5
111	30
112	3
113	9
114	6
115	2
116	2
117	1
118	1
119	2
120	4
122	2
123	1
125	6
127	2
130	5
131	67
132	4
133	9
134	9
135	1
137	35
138	10
139	10
140	7
142	8
143	69
144	131
145	35
146	48
147	4
148	2
151	3
152	1
153	1
155	44
156	5
157	17
158	3
159	1
162	19
163	5
164	3
165	2
166	3
168	1
169	9
170	18
171	6
172	7
173	1
174	10
175	8
176	6
177	3
178	1
180	1
181	1
182	1
187	3
189	1
192	2
198	1
200	6
201	136
202	18
203	59
204	8
205	5
206	1
210	2
212	1
215	1
226	1
227	59
228	8
229	24
230	3
231	2
239	1
240	1
241	18
242	3
243	7
244	1
259	14
260	2
261	7
262	1
273	15
274	634
275	91
276	291
277	37
278	33
279	4
280	1
