Mass Spectrum: 2,4,6-Trichlorobenzyl alcohol
Formula: C7H5Cl3O
CAS: 217479-60-2
Molecular weight: 210
m/z	intensity
17	1
25	2
26	6
27	7
28	8
29	106
30	12
31	68
35	13
36	23
37	56
38	38
39	19
40	1
43	32
44	4
45	1
47	16
48	10
49	48
50	128
51	101
52	12
53	11
54	10
55	49
56	15
59	1
60	45
61	99
62	80
63	55
64	4
65	6
66	4
67	2
69	37
70	15
71	11
72	44
73	180
74	370
75	347
76	41
77	51
78	9
79	14
82	3
83	11
84	100
85	106
86	91
87	100
88	19
91	4
92	2
94	2
95	7
96	22
97	53
98	9
99	20
100	2
101	8
102	2
103	9
104	25
105	21
107	39
108	81
109	381
110	109
111	999
112	157
113	285
114	43
115	3
118	8
119	12
120	13
121	19
122	9
123	102
124	9
125	32
126	4
130	1
131	7
132	2
133	18
134	2
135	9
136	1
137	7
138	4
139	30
140	5
141	9
142	3
143	55
144	67
145	379
146	181
147	759
148	130
149	377
150	35
151	56
152	3
153	1
154	1
155	1
157	84
158	35
159	63
160	24
161	15
162	5
163	1
167	6
169	8
171	4
173	375
174	256
175	835
176	203
177	411
178	53
179	92
180	42
181	62
182	41
183	43
184	13
185	11
186	2
187	1
192	5
193	126
194	19
195	128
196	14
197	36
198	4
199	4
207	40
208	10
209	141
210	266
211	133
212	250
213	50
214	77
215	8
216	8
217	1
