Mass Spectrum: Propanedioic acid, 2-(2-oxiran-2-yl)ethyl-, diethyl ester
Formula: C11H18O5
CAS: 21746-94-1
Molecular weight: 230
m/z	intensity
25	3
26	57
27	326
28	90
29	999
30	46
31	240
33	2
35	2
36	11
37	4
38	12
39	132
40	38
41	211
42	353
43	208
44	58
45	113
46	9
47	18
48	2
49	2
50	9
51	20
52	17
53	121
54	68
55	470
56	61
57	114
58	200
59	56
60	18
61	17
62	3
63	5
64	2
65	22
66	74
67	221
68	84
69	124
70	193
71	119
72	103
73	163
74	14
75	8
76	2
77	13
78	3
79	19
80	16
81	111
82	117
83	154
84	86
85	82
86	94
87	81
88	95
89	14
90	3
91	4
92	2
93	42
94	53
95	111
96	108
97	107
98	77
99	125
100	45
101	112
102	15
103	5
104	34
105	57
106	5
107	5
108	64
109	80
110	112
111	262
112	96
113	75
114	71
115	115
116	19
117	6
118	2
119	3
120	5
121	84
122	17
123	31
124	10
125	131
126	30
127	200
128	67
129	38
130	21
131	6
132	59
133	118
134	11
135	4
136	5
137	33
138	88
139	301
140	103
141	30
142	9
143	13
144	4
145	13
146	3
147	2
148	2
149	2
150	3
151	3
152	4
153	14
154	21
155	31
156	120
157	84
158	20
159	4
160	135
161	170
162	19
163	3
164	1
165	2
166	13
167	17
168	5
169	9
170	12
171	23
172	10
173	150
174	20
175	4
176	3
177	1
178	1
179	2
180	1
181	2
182	2
183	22
184	87
185	225
186	31
187	8
188	1
189	1
198	14
199	4
200	13
201	11
202	6
203	4
204	1
211	0
212	1
213	5
214	1
215	1
229	1
230	8
231	8
232	1
