Mass Spectrum: 2-(p-Chlorophenylsulfonyl)-5-nitrothiazole
Formula: C9H5ClN2O4S2
CAS: 21745-20-0
Molecular weight: 304
m/z	intensity
26	2
27	14
28	6
29	1
30	37
32	12
34	2
36	5
37	3
38	8
39	8
40	1
41	1
42	3
43	14
44	29
45	17
46	4
47	1
48	9
49	3
50	78
51	43
52	5
53	1
54	2
55	5
56	9
57	102
58	9
59	11
60	12
61	9
62	6
63	13
64	32
65	3
66	2
69	10
70	10
71	17
72	4
73	17
74	41
75	328
76	61
77	13
78	1
79	3
80	1
81	3
82	15
83	64
84	13
85	35
86	5
87	15
88	2
89	3
90	1
91	1
92	1
93	1
94	1
95	4
96	4
97	6
98	6
99	25
100	7
101	7
102	12
103	1
105	1
106	1
107	3
108	23
109	17
110	8
111	999
112	93
113	387
114	35
115	9
116	1
117	2
118	1
119	1
120	1
122	1
123	6
124	3
125	2
126	1
127	16
128	3
129	5
130	2
131	22
132	4
133	9
134	2
135	1
136	1
137	14
138	5
139	23
140	5
141	6
142	5
143	16
144	32
145	8
146	13
147	2
148	1
149	1
150	16
151	2
152	6
153	1
155	5
156	1
157	2
158	9
159	86
160	10
161	24
162	3
163	1
166	8
167	15
168	5
169	9
170	1
171	1
175	255
176	19
177	94
178	8
179	5
182	4
183	1
184	3
193	3
194	632
195	72
196	233
197	27
198	10
199	1
205	3
211	1
222	1
226	1
240	755
241	86
242	281
243	30
244	12
245	1
254	2
256	2
258	1
272	2
274	1
286	7
287	1
288	5
289	1
290	1
304	10
305	2
306	4
