Mass Spectrum: 1H-Cycloprop[e]azulene, 1a,2,3,5,6,7,7a,7b-octahydro-1,1,4,7-tetramethyl-, [1aR-(1a.alpha.,7.alpha.,7a.beta.,7b.alpha.)]-
Formula: C15H24
CAS: 21747-46-6
Molecular weight: 204
m/z	intensity
25	5
27	161
28	11
29	180
30	5
38	5
39	218
40	32
41	697
42	38
43	233
44	8
50	12
51	69
52	31
53	193
54	29
55	434
56	22
57	45
58	9
63	28
64	25
65	128
66	41
67	240
68	36
69	259
70	20
71	13
72	7
73	8
74	5
75	14
76	9
77	279
78	75
79	413
80	77
81	513
82	124
83	77
84	12
85	8
86	5
87	9
88	8
89	16
90	10
91	538
92	127
93	776
94	156
95	144
96	415
97	62
98	5
101	5
102	14
103	50
104	32
105	847
106	189
107	999
108	206
109	123
110	16
111	15
115	67
116	37
117	93
118	31
119	512
120	111
121	290
122	260
123	195
124	93
125	10
127	21
128	37
129	40
130	24
131	67
132	25
133	285
134	111
135	812
136	347
137	37
141	10
142	9
143	11
144	9
145	52
146	23
147	229
148	109
149	73
150	16
159	26
160	39
161	770
162	157
163	22
173	7
174	7
175	141
176	63
177	9
189	411
190	63
204	488
205	79
206	5
