Mass Spectrum: L-Norleucine, methyl ester
Formula: C7H15NO2
CAS: 21754-55-2
Molecular weight: 145
m/z	intensity
26	10
27	210
28	530
29	180
30	990
31	40
32	30
33	120
39	100
40	10
41	260
42	140
43	210
44	170
45	10
53	10
54	30
55	20
56	140
57	50
59	10
60	30
67	10
69	80
70	10
72	60
74	10
84	10
86	999
87	60
88	150
89	10
