Mass Spectrum: Aralionine, debenzoyl-
Formula: C27H34N4O4
CAS: 21761-50-2
Molecular weight: 478
m/z	intensity
30	21
31	0
32	10
38	1
39	9
40	2
41	26
42	43
43	10
44	4
45	13
46	0
50	3
51	6
52	4
53	3
54	1
55	8
56	8
57	17
58	30
59	2
60	1
61	0
62	1
63	3
64	1
65	6
66	1
67	2
68	4
69	25
70	16
71	9
72	6
73	1
74	1
75	1
76	2
77	16
78	9
79	5
80	1
81	1
82	5
83	4
84	33
85	49
86	10
87	0
88	0
89	6
90	10
91	28
92	4
93	1
94	2
95	1
96	3
97	5
98	9
99	7
100	7
101	2
102	3
103	18
104	9
105	7
106	4
107	9
108	2
109	0
110	0
111	2
112	10
113	8
114	999
115	106
116	8
117	16
118	16
119	12
120	6
121	3
122	0
123	0
124	0
125	0
126	0
127	0
128	3
129	1
130	4
131	30
132	7
133	6
134	16
135	23
136	8
137	0
138	0
139	0
140	0
141	0
142	0
143	0
144	2
145	2
146	7
147	4
148	6
149	1
150	0
151	0
152	0
153	0
154	0
155	1
156	0
157	0
158	3
159	1
160	4
161	2
162	6
163	2
164	0
165	0
166	0
167	0
168	1
169	0
170	0
171	0
172	0
173	1
174	3
175	1
176	6
177	1
178	0
179	1
180	2
181	0
182	1
183	0
184	0
185	0
186	1
187	1
188	3
189	1
190	0
191	0
192	1
193	0
194	0
195	0
196	1
197	0
198	0
199	0
200	0
201	0
202	4
203	2
204	2
205	1
206	0
207	0
208	1
209	0
210	0
211	0
212	0
213	0
214	0
215	1
216	1
217	0
218	2
219	2
220	0
221	0
222	0
223	0
224	2
225	0
226	0
227	0
228	0
229	4
230	1
231	0
232	0
336	0
337	0
338	0
347	0
348	1
349	0
363	0
364	0
365	1
366	0
376	7
377	1
378	0
421	3
422	0
423	0
424	0
463	0
464	0
474	0
476	0
477	0
478	1
479	0
480	0
