Mass Spectrum: Pentanamide, N-(7-benzoyl-5,8-dioxo-3-phenyl-2-oxa-6,9-diazabicyclo[10.2.2]hexadeca-10,12,14,15-tetraen-4-yl)-2-(dimethylamino)-3-methyl-, [3R-[3R*,4S*(2S*,3R*),7S*]]-
Formula: C34H38N4O5
CAS: 21761-48-8
Molecular weight: 582
m/z	intensity
30	12
31	9
32	23
33	1
34	1
39	19
40	6
41	39
42	70
43	31
44	36
45	10
47	1
48	0
49	1
50	9
51	17
52	7
53	6
54	4
55	21
56	13
57	21
58	25
59	2
60	5
61	2
62	1
63	4
64	1
65	4
66	2
67	9
68	6
69	19
70	12
71	13
72	3
73	5
74	2
75	1
76	4
77	38
78	22
79	6
80	3
81	8
82	10
83	9
84	21
85	30
86	4
87	1
88	1
89	6
90	6
91	15
92	4
93	4
94	3
95	6
96	6
97	8
98	13
99	10
100	11
101	4
102	2
103	10
104	7
105	75
106	21
107	9
108	4
109	6
110	2
111	3
112	13
113	27
114	999
115	84
116	7
117	11
118	9
119	13
120	6
121	4
122	4
123	4
124	2
125	2
126	1
127	2
128	2
129	3
130	3
131	17
132	8
133	12
134	10
135	22
136	4
137	2
138	1
139	2
140	1
141	2
142	2
143	1
144	2
145	4
146	5
147	5
148	4
149	5
150	2
151	1
152	1
153	1
154	1
155	3
156	1
157	2
158	1
159	2
160	2
161	3
162	10
163	2
164	0
165	2
166	0
167	2
168	0
169	1
170	1
171	2
172	1
173	2
174	1
175	6
176	1
177	1
178	1
179	2
180	1
181	0
182	1
183	1
184	1
185	2
186	1
187	2
188	2
189	2
190	1
191	1
192	1
193	1
194	1
195	1
196	1
197	1
198	1
199	1
200	1
201	5
202	1
204	1
205	1
206	2
207	1
208	0
209	0
210	1
211	0
212	0
213	1
214	1
215	2
216	1
217	1
218	1
219	0
220	0
221	1
222	1
223	1
224	4
225	1
226	1
227	1
228	1
229	6
230	1
231	1
232	0
233	0
234	0
235	0
236	0
237	0
238	0
239	2
240	1
241	1
242	1
243	1
244	2
245	1
246	1
247	0
248	0
249	0
250	1
251	0
252	0
253	1
254	1
255	0
256	2
257	1
258	1
259	1
260	1
261	1
262	1
263	1
264	0
277	3
278	2
279	1
280	1
281	0
284	0
285	2
286	1
287	1
288	2
289	0
290	0
291	1
300	1
301	0
302	3
303	1
304	0
305	0
306	1
307	1
308	0
467	1
468	0
469	0
524	1
525	5
526	1
527	0
567	1
568	0
569	0
580	5
581	1
582	10
583	4
584	1
