Mass Spectrum: Octadecanoic acid, 1-[[(1-oxohexadecyl)oxy]methyl]-1,2-ethanediyl ester
Formula: C55H106O6
CAS: 2177-99-3
Molecular weight: 862
m/z	intensity
26	13
27	76
28	45
29	182
30	8
31	9
32	3
33	6
36	6
37	5
38	6
39	69
40	17
41	455
42	133
43	901
44	41
45	25
50	5
51	8
52	7
53	33
54	57
55	643
56	182
57	999
58	60
59	19
60	168
61	47
62	5
63	5
64	9
65	10
66	10
67	147
68	68
69	413
70	133
71	621
72	40
73	182
74	30
75	8
76	3
77	10
78	8
79	40
80	23
81	182
82	78
83	371
84	252
85	427
86	36
87	54
88	5
89	5
91	19
92	6
93	35
94	20
95	224
96	73
97	315
98	343
99	133
100	33
101	29
102	16
103	7
104	3
105	8
106	6
107	29
108	14
109	133
110	39
111	154
112	119
113	73
114	15
115	40
116	46
117	29
118	6
119	10
120	5
121	43
122	133
123	77
124	24
125	67
126	41
127	49
128	13
129	154
130	17
131	10
132	3
133	8
134	8
135	41
136	13
137	50
138	19
139	31
140	24
141	35
142	14
143	26
144	8
145	7
146	4
147	8
148	7
149	24
150	10
151	24
152	16
153	22
154	27
155	28
156	13
157	24
158	126
159	20
160	6
161	6
162	5
163	14
164	7
165	17
166	13
167	24
168	21
169	28
170	15
171	203
172	31
173	9
174	3
175	6
176	6
177	9
178	6
179	11
180	10
181	14
182	18
183	50
184	13
185	105
186	16
187	8
188	3
189	4
190	3
191	8
192	6
193	9
194	12
195	14
196	17
197	22
198	8
199	34
200	13
201	6
202	4
203	4
204	4
205	7
206	5
207	8
208	7
209	11
210	16
211	18
212	8
213	58
214	14
215	7
216	3
217	5
218	5
219	9
220	10
221	8
222	13
223	13
224	14
225	22
226	8
227	105
228	20
229	7
230	4
231	5
232	5
233	5
234	4
235	6
236	13
237	18
238	35
239	322
240	59
241	57
242	15
243	6
244	3
245	3
246	4
247	8
248	7
249	10
250	6
251	7
252	6
253	22
254	10
255	31
256	33
257	14
258	5
259	4
261	3
262	6
263	6
264	19
265	28
266	77
267	712
268	161
269	45
270	13
271	6
272	3
273	3
274	3
275	3
276	3
277	3
278	4
279	5
280	16
281	24
282	13
283	41
284	57
285	23
286	6
287	3
288	3
289	3
290	5
291	3
292	4
293	6
294	8
295	18
296	12
297	39
298	17
299	10
300	5
301	4
302	3
303	3
304	3
305	3
306	5
307	5
308	22
309	20
310	10
311	56
312	27
313	217
314	46
315	10
316	3
317	3
318	3
319	3
320	4
321	5
322	10
323	15
324	15
325	42
326	13
327	9
328	4
329	4
330	3
331	10
332	4
333	4
334	3
335	5
336	9
337	13
338	12
339	77
340	40
341	385
342	85
343	17
344	5
345	3
346	3
347	3
348	3
349	5
350	4
351	9
352	8
353	40
354	77
355	57
356	13
357	5
358	3
359	12
360	6
361	6
362	3
363	3
364	3
365	10
366	8
367	280
368	71
369	20
370	6
371	3
372	3
373	5
374	3
378	3
379	7
380	8
381	28
382	168
383	112
384	26
385	6
386	3
390	3
391	3
392	4
393	13
394	9
395	448
396	133
397	25
398	8
399	5
400	4
401	6
402	4
406	3
407	7
408	6
409	65
410	24
411	8
412	3
413	3
414	4
415	3
418	4
419	3
420	5
421	8
422	7
423	105
424	40
425	13
426	5
427	3
433	3
434	4
435	6
436	8
437	73
438	29
439	9
440	3
442	7
443	4
444	3
448	4
449	8
450	6
451	182
452	67
453	16
454	6
455	4
456	4
457	3
463	5
464	4
465	46
466	22
467	8
468	4
469	4
470	6
471	3
472	3
474	3
475	3
476	5
477	6
478	3
479	59
480	25
481	9
482	4
483	3
484	4
485	3
486	3
491	5
492	4
493	57
494	27
495	10
496	6
497	5
498	5
503	4
504	8
505	9
506	6
507	56
508	24
509	9
510	4
511	3
512	5
513	3
514	3
519	4
520	5
521	38
522	22
523	10
524	6
525	4
526	4
532	6
533	7
534	6
535	112
536	42
537	13
538	4
539	7
540	4
541	3
547	3
548	4
549	39
550	25
551	13
552	6
553	3
554	4
555	3
560	3
561	5
562	6
563	63
564	29
565	29
566	12
567	5
568	4
569	3
570	3
574	8
575	7
576	16
577	81
578	308
579	656
580	273
581	57
582	13
583	4
584	3
585	3
591	7
592	6
593	18
594	10
595	4
596	3
597	7
598	4
599	3
600	3
604	8
605	12
606	38
607	189
608	315
609	126
610	27
611	7
620	25
621	17
622	6
623	11
624	6
625	5
626	3
634	3
635	4
636	3
637	3
638	16
639	8
640	4
648	14
649	9
650	4
651	6
652	4
653	3
661	3
662	4
663	3
664	3
666	7
667	4
668	3
676	6
677	5
678	3
693	4
694	3
705	4
706	3
707	3
718	5
719	3
720	3
732	6
733	4
746	6
747	4
748	3
749	3
750	3
760	5
761	7
774	5
775	3
776	3
788	3
789	5
790	4
791	3
802	3
844	8
845	6
846	4
847	3
861	6
862	8
863	6
