Mass Spectrum: 2-Propen-1-one, 1-cyclohexyl-
Formula: C9H14O
CAS: 2177-34-6
Molecular weight: 138
m/z	intensity
26	16
27	219
28	47
29	94
31	4
38	6
39	132
40	20
41	342
42	33
43	66
44	17
45	30
46	14
47	38
48	8
50	8
51	20
52	11
53	53
54	66
55	999
56	84
57	63
58	4
60	5
61	6
63	29
64	16
65	17
66	16
67	151
68	70
69	30
70	106
71	47
72	10
73	4
77	20
78	10
79	51
80	40
81	129
82	97
83	567
84	50
85	9
91	17
92	14
93	9
94	69
95	72
96	150
97	133
98	14
99	4
105	12
106	5
107	9
108	5
109	94
110	69
111	43
112	5
119	6
120	20
121	6
123	29
124	4
137	18
138	145
139	17
