Mass Spectrum: L-Aspartic acid-.beta.-benzyl ester
Formula: C11H13NO4
CAS: 2177-63-1
Molecular weight: 223
m/z	intensity
41	29
42	86
43	96
44	14
45	15
46	25
50	14
51	47
52	12
53	5
55	2
62	6
63	28
64	9
65	110
66	5
70	33
71	7
73	3
74	46
75	4
76	1
77	62
78	12
79	27
86	14
87	3
88	36
89	59
90	25
91	999
92	75
93	1
105	12
107	10
108	3
114	8
132	53
178	269
179	30
180	1
223	19
224	4
