Mass Spectrum: 2-Propenoic acid, 2-methyl-, phenyl ester
Formula: C10H10O2
CAS: 2177-70-0
Molecular weight: 162
m/z	intensity
41	950
51	40
65	120
69	999
77	50
82	20
93	20
94	200
95	20
162	180
163	20
164	2
