Mass Spectrum: 1,1'-Bi-1H-indene
Formula: C18H14
CAS: 2177-49-3
Molecular weight: 230
m/z	intensity
24	4
26	2
27	3
28	4
29	0
31	1
37	1
38	5
39	40
40	1
41	4
43	0
44	0
45	1
50	9
51	16
52	2
53	1
55	0
57	1
58	0
61	3
62	12
63	63
64	5
65	34
66	1
69	0
73	1
74	7
75	17
76	7
77	3
78	1
85	1
86	4
87	17
88	17
89	52
90	8
91	4
92	1
93	0
94	0
98	2
99	2
100	16
101	25
102	2
103	0
105	1
107	1
108	1
110	1
111	2
112	8
113	29
114	21
115	999
116	124
117	6
123	0
125	0
126	2
127	1
128	3
129	2
130	0
138	0
139	3
143	4
144	3
145	11
146	1
149	1
150	5
151	3
152	3
153	1
161	0
162	1
163	2
164	0
165	0
173	2
174	2
175	1
176	2
177	0
183	0
187	3
188	1
189	2
190	0
194	0
198	0
199	1
200	10
201	7
202	14
203	3
204	0
207	0
213	2
214	1
215	56
216	8
217	1
222	0
223	1
224	8
225	5
226	28
227	16
228	35
229	71
230	413
231	111
232	9
