Mass Spectrum: 1-Propanamine, N,N-dimethyl-3-[[1-(phenylmethyl)cycloheptyl]oxy]-
Formula: C19H31NO
CAS: 2179-37-5
Molecular weight: 289
m/z	intensity
57	199
58	999
85	89
86	696
91	230
95	98
102	498
103	40
115	199
116	79
117	128
128	138
129	160
130	79
141	30
142	10
143	49
157	4
159	4
185	3
186	149
187	5
198	144
199	7
