Mass Spectrum: Selenocyanic acid, phenyl ester
Formula: C7H5NSe
CAS: 2179-79-5
Molecular weight: 183
m/z	intensity
25	9
26	9
37	9
38	15
39	22
49	15
50	128
51	188
52	9
60	1
61	11
62	11
63	22
64	3
65	18
72	3
73	34
74	150
75	103
76	113
77	999
78	94
79	3
80	150
81	13
82	22
88	3
89	13
90	13
91	24
92	5
93	47
94	1
95	5
100	1
101	5
102	34
103	726
104	75
105	52
106	66
107	18
108	9
109	1
113	20
114	18
115	47
116	5
117	94
118	9
119	18
125	5
126	13
127	18
128	18
129	37
130	34
131	18
132	9
133	1
139	3
141	9
143	1
150	1
151	3
152	24
153	47
154	98
155	75
156	122
157	135
158	37
159	20
160	1
177	5
179	90
180	75
181	226
182	18
183	481
184	37
185	84
186	5
