Mass Spectrum: 1-Methyl-3-nitro-5-phenoxy-1H-[1,2,4]triazole
Formula: C9H8N4O3
CAS: 21796-24-7
Molecular weight: 220
m/z	intensity
34	5
38	26
39	210
40	61
41	46
42	50
43	543
44	156
46	40
50	103
51	433
52	16
53	15
55	66
56	94
57	42
63	40
64	24
65	420
66	32
67	4
68	23
69	30
70	17
74	25
75	23
77	999
78	72
79	42
80	60
83	13
91	423
92	31
93	63
94	47
96	4
97	15
105	65
106	21
107	424
108	40
117	171
118	23
119	33
120	72
121	27
126	35
131	5
132	14
145	6
174	31
190	28
204	7
218	10
219	124
220	622
221	76
