Mass Spectrum: 1H-Cyclonona[1,2-c:5,6-c']difuran-1,3,6,8(4H)-tetrone, 10-[(3,6-dihydro-6-oxo-2H-pyran-2-yl)hydroxymethyl]-5,9,10,11-tetrahydro-4-hydroxy-5-(1-hydroxyheptyl)-, [4R*,5S*(R*),10S*[S*(S*)]]-(+)-
Formula: C26H30O11
CAS: 21794-01-4
Molecular weight: 518
m/z	intensity
27	151
29	52
30	7
31	15
39	127
40	36
41	370
42	72
43	999
44	732
45	31
46	29
50	17
51	32
52	15
53	85
54	25
55	206
56	34
57	176
58	33
60	13
63	25
64	11
65	52
66	20
67	52
68	50
69	88
70	28
71	34
72	13
73	18
77	82
78	35
79	83
80	16
81	68
82	39
83	54
84	17
85	228
86	16
89	21
91	119
92	21
93	25
94	25
95	60
96	17
97	149
98	55
99	19
103	38
104	26
105	76
106	16
107	42
108	14
109	177
110	60
111	44
113	472
114	42
115	163
116	78
117	65
118	20
119	37
120	13
121	19
123	18
126	15
127	31
128	49
129	55
130	18
131	47
132	20
133	54
134	18
135	35
136	21
137	16
141	25
143	29
144	212
145	71
146	32
147	50
148	20
149	25
155	20
157	25
158	14
159	32
160	29
161	73
162	31
163	18
165	20
169	19
171	20
173	38
174	20
175	27
185	19
187	22
189	22
225	19
227	22
229	22
241	17
243	20
256	19
257	21
269	24
270	16
271	38
272	22
273	16
274	21
275	25
287	15
289	16
297	15
315	37
316	17
330	21
331	19
340	17
343	20
358	22
376	16
384	29
386	16
400	15
402	15
412	17
428	23
438	11
456	27
474	4
