Mass Spectrum: 1-Phenylprop-1-ene (1-3)sultine
Formula: C9H8O2S
CAS: 21806-36-0
Molecular weight: 180
m/z	intensity
39	100
50	130
51	220
52	70
55	78
58	120
62	50
63	150
65	50
74	80
75	80
76	120
77	290
78	50
89	80
102	450
103	180
105	530
115	999
116	330
131	120
132	270
180	270
181	30
