Mass Spectrum: 1,4-Diacetyl-2,5-piperazinedione
Formula: C8H10N2O4
CAS: 21827-92-9
Molecular weight: 198
m/z	intensity
13	2
14	13
15	87
16	1
25	1
26	3
27	11
28	58
29	9
30	105
31	3
38	1
39	3
40	8
41	9
42	81
43	999
44	33
45	3
51	1
52	3
53	1
54	6
55	17
56	86
57	9
58	6
59	4
60	1
68	1
69	2
70	3
71	142
72	79
73	9
74	2
83	9
84	9
85	56
86	11
96	25
97	7
98	1
99	22
100	22
101	3
112	3
113	60
114	248
115	29
116	2
125	13
126	1
127	16
128	19
129	2
141	2
142	1
146	1
154	4
155	10
156	158
157	25
158	2
168	8
169	1
170	271
171	24
172	3
198	299
199	28
200	4
