Mass Spectrum: Ethanol, 2-chloro-, nitrate
Formula: C2H4ClNO3
CAS: 21823-34-7
Molecular weight: 125
m/z	intensity
14	29
15	68
26	28
27	125
28	57
29	176
30	223
31	10
36	18
42	17
43	16
46	999
47	19
48	10
49	210
51	73
52	12
62	11
63	64
64	4
65	21
76	464
125	1
