Mass Spectrum: Falcarinol
Formula: C17H24O
CAS: 21852-80-2
Molecular weight: 244
m/z	intensity
26	12
27	291
28	44
29	412
30	10
31	15
32	1
37	1
38	7
39	205
40	28
41	618
42	59
43	582
44	18
45	7
46	1
48	1
50	26
51	120
52	43
53	157
54	257
55	999
56	73
57	290
58	14
59	11
60	5
61	4
62	24
63	120
64	34
65	190
66	84
67	284
68	137
69	135
70	24
71	40
72	4
73	8
74	21
75	51
76	45
77	293
78	197
79	247
80	74
81	271
82	99
83	75
84	29
85	21
86	10
87	17
88	11
89	90
90	36
91	656
92	97
93	97
94	41
95	100
96	102
97	27
98	8
99	9
100	3
101	19
102	71
103	246
104	89
105	255
106	142
107	102
108	23
109	65
110	75
111	15
112	7
113	12
114	9
115	354
116	177
117	436
118	111
119	120
120	61
121	35
122	12
123	15
124	4
125	7
126	8
127	98
128	183
129	290
130	99
131	356
132	80
133	98
134	26
135	17
136	6
137	6
138	57
139	18
140	6
141	223
142	59
143	68
144	100
145	220
146	59
147	50
148	10
149	20
150	3
151	5
152	11
153	20
154	17
155	90
156	24
157	81
158	59
159	614
160	110
161	65
162	10
163	9
164	2
165	6
166	2
167	7
168	4
169	20
170	5
171	11
172	6
173	114
174	31
175	14
176	4
177	3
178	1
179	2
180	2
181	2
182	1
183	6
184	1
185	5
186	1
187	44
188	8
189	22
190	4
191	1
192	0
193	2
194	0
195	1
196	0
197	3
198	0
199	2
200	0
201	7
202	2
203	4
204	2
205	11
206	2
207	8
208	1
209	0
211	1
213	2
215	7
216	1
217	22
218	4
219	3
220	6
221	2
222	1
223	0
224	0
225	1
226	1
227	4
228	1
229	18
230	3
231	3
232	0
236	0
241	1
242	0
243	9
244	5
245	1
246	0
