Mass Spectrum: Indole, 2,3-dihydro-1-(2-nitrobenzoyl)-
Formula: C15H12N2O3
CAS: 21859-86-9
Molecular weight: 268
m/z	intensity
33	0
37	6
38	18
39	39
41	12
42	1
43	1
44	0
45	4
46	10
47	0
50	171
51	96
52	29
53	8
54	1
55	1
58	0
59	2
61	9
62	29
63	88
64	51
65	130
66	9
67	1
68	0
70	1
71	0
74	102
75	97
76	277
77	89
78	43
79	8
80	0
81	1
82	1
83	2
85	1
86	2
87	12
89	199
90	174
91	446
92	48
93	14
94	0
95	2
97	0
98	0
99	1
100	1
101	4
102	9
104	94
105	10
106	1
107	1
109	0
110	0
111	0
113	3
114	6
117	598
118	999
119	79
121	63
122	3
123	1
125	0
126	1
127	4
128	6
129	0
130	0
132	1
134	15
135	2
136	0
137	1
138	2
139	8
140	4
141	1
142	0
146	0
147	1
150	245
151	118
152	10
154	5
155	1
162	0
163	9
164	10
165	22
166	8
167	12
168	1
171	0
173	0
175	1
176	1
177	4
178	4
179	4
180	3
181	0
188	0
189	1
190	19
191	20
192	20
193	7
194	2
195	0
202	0
204	11
205	4
206	5
207	2
208	1
209	0
211	0
220	34
222	10
223	0
234	1
235	3
236	1
237	0
238	2
239	0
251	0
252	0
265	0
268	770
269	112
270	14
271	0
