Mass Spectrum: Diselenide, bis(4-methylphenyl)
Formula: C14H14Se2
CAS: 21856-94-0
Molecular weight: 342
m/z	intensity
26	1
27	28
37	1
38	15
39	226
40	18
41	34
50	34
51	79
52	18
53	28
61	3
62	34
63	173
64	18
65	264
66	18
74	9
75	15
76	5
77	79
78	56
79	84
80	5
85	1
86	3
87	11
88	5
89	217
90	98
91	999
92	94
93	184
94	3
95	34
101	1
102	3
103	1
104	5
105	3
106	3
113	5
114	5
115	22
116	3
117	47
118	9
119	18
120	1
121	1
126	3
127	5
128	7
129	9
130	13
131	5
132	3
139	3
140	1
141	9
142	1
143	9
144	1
145	5
152	7
153	5
154	5
155	1
156	18
157	3
158	3
163	1
164	1
165	37
166	34
167	198
168	141
169	411
170	90
171	660
172	66
173	113
174	9
178	1
179	1
180	1
181	18
182	211
183	34
184	1
242	3
243	5
244	9
245	9
246	13
247	7
249	7
250	3
251	1
252	1
257	1
258	15
259	18
260	37
261	11
262	66
263	9
264	11
333	1
334	15
335	18
336	75
337	56
338	198
339	117
340	339
341	71
342	367
343	52
344	113
345	17
346	9
