Mass Spectrum: Diethyl-di(prop-2-enyl)-silane
Formula: C10H20Si
CAS: 2186-42-7
Molecular weight: 168
m/z	intensity
37	9
38	11
39	80
40	38
41	77
42	42
43	407
44	84
45	145
46	8
47	10
51	26
53	47
54	15
55	128
56	30
57	208
58	58
59	147
60	13
61	6
65	6
66	19
67	58
68	13
69	185
70	80
71	858
72	73
73	75
74	6
77	34
78	6
79	8
81	15
83	91
84	8
85	20
86	6
87	22
95	36
96	6
97	108
98	26
99	999
100	110
101	47
105	6
111	26
112	8
113	6
125	4
126	15
127	629
128	80
129	34
139	61
140	8
141	6
168	6
169	1
