Mass Spectrum: 1-[3-Carbomethoxy-4-[p-chlorophenyl]-5,5-dimethyl-4,5-dihydro-2-furyl]-3-phenylurea
Formula: C21H21ClN2O4
CAS: 21863-91-2
Molecular weight: 400
m/z	intensity
41	300
42	72
43	374
44	246
45	33
46	5
49	17
50	115
51	248
52	110
53	77
54	22
55	36
56	7
57	11
58	74
59	434
61	26
62	46
63	177
64	247
65	331
66	118
67	70
68	19
69	30
70	59
71	8
72	6
73	75
74	49
75	145
76	60
77	408
78	40
79	15
80	9
81	6
82	19
83	17
84	16
85	22
86	17
87	15
88	9
89	59
90	32
91	375
92	207
93	999
94	88
95	14
96	5
97	17
98	9
99	36
100	22
101	175
102	140
103	51
104	9
105	5
107	3
108	5
109	7
110	26
111	41
112	20
113	24
114	18
115	176
116	53
117	16
119	576
120	121
121	18
122	15
123	12
124	8
125	142
126	70
127	158
128	209
129	132
130	100
131	28
133	3
134	6
135	18
136	111
137	88
138	57
139	86
140	53
141	166
142	127
143	106
144	26
145	8
146	5
148	3
149	28
150	9
151	31
152	18
153	101
154	16
155	77
156	209
157	49
158	11
161	16
162	76
163	163
164	392
165	346
166	158
167	101
168	22
169	206
170	361
171	38
172	13
173	9
175	14
176	27
177	95
178	57
179	72
180	91
181	57
182	28
183	13
186	7
187	6
188	79
189	18
190	59
191	38
192	33
193	21
194	12
195	9
196	52
197	30
198	25
199	4
203	21
204	32
205	79
206	137
207	49
208	63
209	10
210	7
212	46
213	12
214	5
217	31
218	5
219	10
220	20
221	9
222	551
223	171
224	191
225	50
226	6
231	19
232	679
233	237
234	261
235	83
236	16
237	47
238	185
239	37
240	65
241	7
246	6
247	2
248	8
249	8
250	27
251	4
252	8
265	13
266	55
267	15
268	19
269	2
280	23
281	730
282	147
283	241
284	44
285	2
292	2
308	30
309	2
310	9
369	10
371	3
400	154
401	28
402	52
403	9
