Mass Spectrum: 5,6-Di-O-acetyl-3-S-acetyl-1,2-O-isopropylidene-3-thio.alpha.d-allofuranose
Formula: C15H22O8S
CAS: 21870-81-5
Molecular weight: 362
m/z	intensity
43	999
45	11
55	13
57	5
58	6
59	70
61	4
69	6
71	4
73	9
81	24
84	30
85	20
87	24
89	17
97	15
99	7
101	13
102	17
113	12
115	24
117	10
125	7
127	7
129	4
131	9
142	26
143	13
159	79
169	4
184	6
185	6
200	5
217	23
229	1
242	6
245	8
257	0
273	1
302	0
303	1
347	10
