Mass Spectrum: Rugulosin, 8,8'-dihydroxy-, (1S,1'S,2R,2'R,3S,3'S,9aR,9'aR)-
Formula: C30H22O12
CAS: 21884-44-6
Molecular weight: 574
m/z	intensity
27	49
38	42
39	125
41	56
43	49
50	49
51	63
52	49
53	98
54	42
55	56
56	35
58	42
59	49
62	63
63	999
64	84
65	84
66	56
67	70
68	42
70	63
71	49
74	84
75	77
76	63
77	98
78	70
79	63
80	42
81	42
82	49
84	70
86	56
87	98
88	49
89	98
90	56
91	63
92	98
93	70
94	49
95	56
96	42
98	49
102	42
103	49
104	49
105	56
106	49
107	49
108	56
109	42
110	49
111	35
112	35
114	42
115	105
116	49
117	42
118	56
120	63
121	181
122	63
123	42
125	35
126	49
127	77
128	91
129	84
130	42
132	35
134	42
135	70
136	35
137	91
138	42
139	118
140	49
141	49
142	42
143	70
144	42
145	70
146	49
147	42
148	49
149	42
150	56
151	35
152	42
153	35
155	56
156	35
157	56
158	42
159	35
160	35
161	42
162	35
167	42
168	63
170	35
171	49
172	35
173	49
174	49
175	35
176	42
177	35
178	28
179	28
183	35
184	56
185	56
186	42
187	42
188	35
189	49
190	35
191	28
196	56
197	56
203	35
211	28
212	42
213	84
214	70
215	42
216	56
217	49
218	56
223	28
224	35
225	49
226	35
227	35
228	28
229	63
230	49
237	28
239	28
240	35
241	98
242	112
243	49
244	49
245	63
246	28
252	28
253	118
254	70
255	98
256	49
257	673
258	84
259	42
260	28
269	125
270	958
271	278
272	84
273	35
285	35
286	847
287	236
288	223
289	21
504	28
505	7
510	7
520	7
521	7
528	14
530	7
538	21
539	7
546	21
547	7
556	7
558	7
574	77
575	21
576	1
