Mass Spectrum: 5,5'-Isopropylidenebis[2-(benzoyloxy)toluene]
Formula: C31H28O4
CAS: 21886-69-1
Molecular weight: 464
m/z	intensity
38	1
39	4
40	5
41	3
43	2
44	7
50	8
51	35
52	3
53	2
55	3
57	2
63	1
65	2
67	1
69	2
70	1
71	1
74	2
75	2
76	10
77	374
78	28
79	3
81	1
83	1
85	1
89	1
91	4
95	1
97	1
103	2
105	999
106	122
107	9
108	1
109	1
115	2
119	1
121	1
122	3
127	1
128	2
129	1
131	1
133	3
135	1
141	1
142	1
147	1
148	1
149	1
152	2
153	2
155	1
165	3
166	1
167	1
168	1
178	1
179	1
181	1
182	1
195	1
196	1
211	1
237	3
238	1
241	2
345	3
346	1
360	2
449	16
450	6
451	1
464	29
465	9
466	2
