Mass Spectrum: 1-Propyne, 3,3'-[ethylidenebis(oxy)]bis-
Formula: C8H10O2
CAS: 2188-15-0
Molecular weight: 138
m/z	intensity
13	12
14	28
15	107
25	30
26	60
27	101
28	52
29	132
31	16
37	39
38	99
39	999
40	60
41	109
42	23
43	576
44	21
45	55
51	18
53	60
55	132
64	29
65	34
66	21
67	16
77	34
82	21
83	556
84	34
123	81
138	5
