Mass Spectrum: 4-Oxatricyclo[4.3.1.1(3,8)]undecane
Formula: C10H16O
CAS: 21898-86-2
Molecular weight: 152
m/z	intensity
26	5
27	89
28	12
29	67
30	3
31	12
37	2
38	7
39	182
40	30
41	262
42	23
43	47
44	4
45	3
50	9
51	33
52	19
53	105
54	67
55	138
56	39
57	23
58	3
59	4
62	3
63	11
64	4
65	54
66	132
67	249
68	104
69	42
70	25
71	10
72	2
74	2
75	3
76	3
77	126
78	235
79	689
80	999
81	594
82	91
83	40
84	13
85	5
89	3
90	2
91	150
92	130
93	360
94	128
95	216
96	50
97	19
98	4
103	5
104	4
105	39
106	19
107	112
108	101
109	111
110	81
111	17
112	2
115	4
116	1
117	5
118	4
119	34
120	108
121	128
122	309
123	77
124	10
125	1
129	2
131	2
133	27
134	136
135	21
136	2
137	45
138	5
139	1
151	54
152	686
153	90
154	7
