Mass Spectrum: 1,3-Butadiene, 1-bromo-
Formula: C4H5Br
CAS: 21890-35-7
Molecular weight: 132
m/z	intensity
25	17
26	131
27	456
28	9
36	5
37	34
38	46
39	35
40	1
42	0
48	6
49	51
50	192
51	214
52	83
53	999
54	41
55	0
57	0
59	0
65	1
66	7
67	4
70	0
71	1
74	0
77	1
79	23
80	7
81	26
82	9
83	1
85	0
88	0
91	3
92	2
93	4
94	3
95	1
98	0
103	0
104	6
105	10
106	10
107	8
108	6
113	0
116	0
117	9
118	0
119	9
128	0
129	0
130	1
131	2
132	141
133	9
134	145
135	7
