Mass Spectrum: 4-Oxatricyclo[4.3.1.1(3,8)]undecan-5-one
Formula: C10H14O2
CAS: 21898-84-0
Molecular weight: 166
m/z	intensity
26	13
27	185
28	50
29	97
30	3
31	5
37	3
38	15
39	258
40	47
41	311
42	32
43	50
44	33
45	4
46	2
50	17
51	50
52	30
53	143
54	87
55	107
56	10
57	19
58	3
59	3
60	2
61	2
62	3
63	13
64	3
65	53
66	115
67	168
68	78
69	28
70	10
71	9
72	1
73	1
74	2
75	4
76	1
77	110
78	162
79	532
80	999
81	468
82	39
83	9
84	3
85	4
89	2
91	57
92	22
93	158
94	82
95	57
96	8
97	7
98	2
99	1
102	1
103	3
104	13
105	10
106	3
107	46
108	6
109	7
110	2
111	2
113	1
115	1
117	2
119	4
120	2
121	7
122	177
123	27
124	1
125	2
135	1
136	1
137	3
138	1
139	1
149	4
150	3
166	11
167	2
