Mass Spectrum: Methyl 2,3-diacetamido-2,3-dideoxy-.alpha.-D-glucopyranoside
Formula: C11H20N2O6
CAS: 21893-19-6
Molecular weight: 276
m/z	intensity
56	79
57	169
58	149
59	369
60	249
61	109
69	49
70	109
71	79
72	219
73	319
74	429
75	259
82	49
83	189
84	309
85	169
86	349
87	109
96	109
97	179
98	239
99	69
100	999
101	319
102	109
103	59
111	109
112	89
113	89
114	389
115	209
116	179
125	89
126	119
127	89
128	289
129	119
137	59
138	84
139	309
140	99
141	69
142	489
143	169
144	119
155	69
156	169
157	119
167	16
169	34
170	7
171	25
172	7
173	16
174	7
179	2
181	34
183	34
184	7
185	299
186	139
187	39
195	69
196	16
197	16
199	169
200	25
201	16
208	7
213	16
214	16
215	349
216	49
217	25
227	7
244	169
245	69
