Mass Spectrum: Tricyclo[4.3.1.1(3,8)]undecane, 1-methoxy-
Formula: C12H20O
CAS: 21898-95-3
Molecular weight: 180
m/z	intensity
39	40
40	20
41	90
42	20
43	40
44	50
45	40
51	10
52	10
53	40
54	20
55	50
56	20
57	30
58	20
59	20
65	30
66	30
67	70
68	20
69	30
70	20
71	20
72	40
73	20
77	60
78	40
79	80
80	30
81	50
82	20
83	20
84	20
85	40
86	20
87	20
91	70
92	20
93	70
94	40
95	40
96	20
97	30
98	20
99	20
105	30
106	30
107	40
108	70
109	999
110	100
111	40
119	20
120	20
121	20
122	20
123	100
124	70
125	40
126	20
131	20
133	20
135	20
137	40
138	20
139	20
148	30
149	50
150	10
151	20
165	30
166	10
180	140
181	10
182	10
