Mass Spectrum: Glycyl-dl-norvaline
Formula: C7H14N2O3
CAS: 2189-27-7
Molecular weight: 174
m/z	intensity
15	4
17	3
18	13
26	2
27	21
28	47
29	21
30	999
31	73
32	8
38	1
39	10
40	2
41	13
42	8
43	20
44	6
45	5
46	2
52	1
53	3
54	5
55	22
56	15
57	7
58	2
59	6
68	1
69	1
70	15
71	5
72	105
73	8
74	9
75	1
82	1
83	3
84	4
85	14
86	2
87	1
88	1
89	3
98	4
99	2
100	4
101	2
102	1
103	2
113	16
114	22
115	2
116	6
117	2
118	2
127	2
128	5
129	9
130	2
131	9
132	21
133	1
144	2
156	3
157	1
174	25
175	2
