Mass Spectrum: Tricyclo[4.3.1.1(3,8)]undecane-3-carboxylic acid
Formula: C12H18O2
CAS: 21898-91-9
Molecular weight: 194
m/z	intensity
39	100
40	100
41	180
42	40
43	100
44	999
45	110
46	40
47	50
48	10
50	50
51	60
52	50
53	50
54	30
55	110
56	40
57	40
58	30
59	20
61	20
63	20
64	30
65	40
66	30
67	140
68	40
69	50
70	30
73	20
74	20
75	260
76	50
77	160
78	280
79	260
80	80
81	150
82	50
83	30
84	30
91	160
92	100
93	300
94	70
95	70
96	20
103	20
104	20
105	50
106	40
107	130
108	50
109	40
118	10
119	30
120	10
121	30
122	20
133	80
134	20
135	370
136	70
137	20
147	20
148	40
149	999
150	230
151	20
194	50
195	30
