Mass Spectrum: N-(2-Cyanoethyl)-N-methyl-benzenesulfonamide
Formula: C10H12N2O2S
CAS: 218920-78-6
Molecular weight: 224
m/z	intensity
12	2
13	2
14	9
15	169
16	7
17	32
18	114
19	0
25	1
26	21
27	88
28	127
29	17
30	32
31	2
32	4
35	1
36	3
37	4
38	14
39	49
40	36
41	45
42	353
43	95
44	47
45	12
46	1
47	1
48	5
49	4
50	125
51	431
52	42
53	17
54	41
55	10
56	9
57	7
58	9
59	1
60	3
61	1
62	4
63	9
64	5
65	16
66	4
67	4
68	1
69	10
70	3
71	4
72	1
73	3
74	24
75	20
76	28
77	999
78	87
79	6
80	1
81	7
82	3
83	7
84	1
85	1
86	12
87	1
89	2
90	2
91	18
92	3
93	2
94	3
95	2
96	1
97	18
98	1
99	1
100	1
101	2
102	0
103	1
104	6
105	3
106	2
107	1
108	1
109	4
110	1
111	1
112	0
113	0
116	2
117	4
118	2
119	0
120	1
123	0
125	16
126	1
127	1
131	2
132	0
133	0
137	0
139	1
141	581
142	42
143	29
144	2
145	0
147	0
152	0
168	0
170	0
171	0
182	0
184	365
185	38
186	19
187	1
224	5
225	0
226	0
