Mass Spectrum: 5.beta.-Ergost-24-en-26-oic acid, 5,6.beta.-epoxy-4.beta.,18,22-trihydroxy-3-methoxy-1-oxo-, .delta.-lactone, diacetate, (20S,22R)-
Formula: C33H46O9
CAS: 21903-02-6
Molecular weight: 586
m/z	intensity
41	453
42	38
43	961
44	46
45	69
50	15
51	38
52	38
53	169
54	30
55	230
56	38
57	69
58	76
59	38
60	30
61	23
63	23
65	53
66	30
67	300
68	100
69	176
70	23
71	69
73	30
74	30
77	123
78	46
79	200
80	38
81	153
82	30
83	46
84	23
85	130
87	23
91	230
92	53
93	146
94	30
95	115
96	184
97	300
98	30
99	30
103	38
104	38
105	184
106	46
107	115
108	38
109	153
110	38
111	69
112	30
113	30
115	53
116	30
117	153
118	46
119	115
120	38
121	107
122	38
123	69
124	153
125	999
126	130
127	38
128	38
129	76
130	69
131	200
132	69
133	107
134	38
135	69
136	30
137	76
138	69
139	69
140	23
141	69
142	30
143	76
144	38
145	115
146	46
147	76
148	30
149	38
150	23
151	38
152	38
153	76
154	46
155	115
156	107
157	134
158	53
159	107
160	38
161	69
162	23
163	30
165	30
166	38
167	69
168	461
169	53
170	23
171	76
172	30
173	76
174	30
175	69
176	23
177	23
178	23
179	23
180	23
181	76
182	30
183	46
184	23
185	69
186	30
187	46
188	23
189	30
190	7
191	23
193	23
195	38
196	23
197	46
198	38
199	61
200	23
201	38
202	23
203	23
204	7
205	7
206	7
207	23
209	38
211	46
212	23
213	38
214	23
215	30
216	7
217	7
218	7
219	23
221	23
223	23
225	30
226	23
227	30
228	23
229	30
230	23
231	23
232	7
233	7
234	7
235	23
236	7
237	23
239	30
240	23
241	38
242	7
243	7
244	7
245	7
246	7
247	7
248	7
249	30
250	7
251	23
252	7
253	30
254	23
255	30
256	7
257	7
258	7
259	7
260	7
261	7
262	23
263	30
265	23
267	30
268	23
269	23
271	23
273	23
274	7
275	7
276	7
277	7
278	7
279	23
281	30
283	23
284	23
285	92
286	30
287	7
288	7
289	7
290	7
291	7
292	7
293	23
294	23
295	23
296	23
297	23
298	7
299	23
300	7
301	7
302	7
303	7
304	7
305	7
306	7
307	7
309	7
310	7
311	38
312	23
313	23
314	7
315	7
316	7
317	7
321	7
322	7
323	7
324	7
325	7
327	7
328	7
329	38
330	7
331	7
333	7
335	7
337	7
339	7
341	7
342	7
343	7
345	7
346	23
347	30
348	7
349	7
351	7
353	7
355	7
357	7
359	7
360	7
361	7
362	7
363	7
365	7
367	7
368	7
369	7
370	7
371	7
373	7
375	7
377	7
378	7
379	7
380	7
381	7
385	7
387	7
388	7
389	484
390	115
391	30
392	7
393	7
401	7
402	3
403	15
404	7
405	7
406	15
407	11
408	3
409	3
416	19
417	19
418	7
419	7
420	3
421	7
422	3
423	3
424	3
425	3
430	3
431	3
433	3
434	11
435	11
436	7
437	3
438	3
439	3
448	7
449	3
450	3
451	7
452	7
453	7
454	3
455	7
456	3
457	3
460	3
461	3
466	7
467	3
468	3
469	3
470	3
476	3
481	3
482	3
483	3
484	3
494	11
495	7
496	3
497	7
498	11
508	7
509	3
510	3
512	3
513	3
526	7
527	3
586	3
