Mass Spectrum: Indole, 3-[(benzylselenyl)methyl]-
Formula: C16H15NSe
CAS: 21903-67-3
Molecular weight: 301
m/z	intensity
26	10
27	18
28	9
37	12
38	24
39	93
40	6
41	18
49	7
50	77
51	122
52	4
53	4
61	15
62	34
63	86
64	24
65	165
66	10
73	4
74	45
75	62
76	97
77	45
78	21
79	58
80	12
81	9
82	9
84	3
85	4
86	7
87	9
88	3
89	46
90	21
91	999
92	85
93	24
94	4
95	4
98	7
99	4
100	4
101	27
102	272
103	65
104	7
118	9
127	7
128	83
129	573
130	438
131	49
132	3
167	3
168	18
169	23
170	41
171	9
172	77
173	9
174	15
208	3
210	1
299	3
301	7
