Mass Spectrum: 1H-Indole, 3-[[(phenylmethyl)thio]methyl]-
Formula: C16H15NS
CAS: 21903-71-9
Molecular weight: 253
m/z	intensity
26	6
27	9
28	12
32	1
33	7
34	1
37	4
38	10
39	43
41	7
45	73
46	1
47	4
49	3
50	26
51	46
52	18
53	4
61	4
62	12
63	39
64	9
65	75
66	3
69	7
74	15
75	26
76	28
77	115
78	18
79	9
86	3
87	4
88	3
89	35
90	15
91	279
92	20
93	3
97	3
98	3
101	17
102	76
103	79
104	9
116	9
117	26
118	71
119	9
121	12
122	1
123	9
124	28
125	4
126	3
127	1
128	28
129	85
130	999
131	118
132	7
133	6
134	6
135	6
160	18
161	6
162	28
163	6
253	132
254	21
255	7
