Mass Spectrum: 27-Deoxy-2,3-dihydro-3-methoxywithaferin
Formula: C29H42O6
CAS: 21902-97-6
Molecular weight: 486
m/z	intensity
41	220
42	32
43	240
44	16
45	48
53	80
54	24
55	200
56	24
57	48
58	48
59	40
61	24
65	24
66	16
67	168
68	64
69	120
70	20
71	40
73	16
74	24
77	72
78	24
79	136
80	32
81	160
82	40
83	48
84	8
85	100
87	16
91	140
92	40
93	144
94	40
95	128
96	96
97	168
98	24
99	24
101	16
103	24
104	8
105	144
106	48
107	144
108	56
109	120
110	32
111	72
112	32
113	32
114	32
115	32
116	8
117	40
118	32
119	120
120	40
121	112
122	64
123	80
124	88
125	999
126	176
127	64
128	24
129	40
130	24
131	120
132	48
133	168
134	72
135	112
136	40
137	72
138	32
139	48
140	24
142	16
143	48
144	24
145	96
146	32
147	88
148	32
149	48
150	32
151	40
152	40
153	48
154	40
155	72
156	100
157	72
158	32
159	104
160	48
161	80
162	24
163	72
164	16
165	32
166	8
167	40
168	56
169	40
170	16
171	48
172	24
173	88
174	32
175	80
176	32
177	40
178	8
179	16
180	8
181	344
182	60
183	40
184	24
185	48
186	40
187	60
188	24
189	40
190	8
191	8
193	16
194	8
195	40
196	32
197	40
199	320
200	48
201	40
202	24
203	24
207	8
209	24
210	8
211	32
212	24
213	48
214	24
215	40
217	16
219	24
221	16
223	72
224	20
225	32
226	16
227	40
228	16
229	32
230	24
231	16
233	16
235	8
236	16
237	32
238	16
239	32
241	40
242	8
243	24
245	16
246	8
247	8
249	8
250	8
251	8
253	8
255	32
256	24
257	24
258	8
259	8
261	8
262	8
263	16
269	40
270	16
271	16
273	24
274	16
275	16
279	16
281	24
282	8
283	16
285	24
286	16
287	72
288	140
289	40
290	8
291	24
299	24
300	24
301	32
302	24
306	24
312	16
313	32
314	16
315	24
331	152
332	40
353	24
364	16
365	8
366	8
367	8
369	16
370	16
371	16
379	24
380	8
381	8
382	8
390	24
391	8
392	24
393	16
394	8
397	32
398	8
399	8
400	24
401	8
403	16
407	8
408	24
409	8
410	8
418	56
419	24
420	8
421	8
436	40
437	8
438	8
439	8
454	32
468	32
486	88
487	8
