Mass Spectrum: 2-Hydroxy-5-nitro-4-picoline
Formula: C6H6N2O3
CAS: 21901-41-7
Molecular weight: 154
m/z	intensity
41	194
42	67
43	54
44	19
45	4
46	39
47	16
48	11
49	110
50	246
51	385
52	356
53	999
54	147
55	150
56	20
57	18
60	3
61	15
62	35
63	68
64	52
65	41
66	60
67	64
68	141
69	76
70	16
71	10
74	1
75	14
76	15
77	9
78	36
79	93
80	130
81	95
82	63
83	150
84	34
85	6
86	18
88	5
91	2
92	10
93	20
94	35
95	69
96	54
97	8
98	2
99	2
107	13
108	8
109	56
110	17
111	2
124	6
125	3
127	0
135	1
136	2
137	698
138	60
139	5
153	4
154	306
155	23
156	0
