Mass Spectrum: 2-Hydroxy-4-methyl-3-nitropyridine
Formula: C6H6N2O3
CAS: 21901-18-8
Molecular weight: 154
m/z	intensity
41	185
42	27
43	26
44	18
45	11
46	46
47	18
48	12
49	64
50	140
51	266
52	309
53	999
54	107
55	41
56	28
57	7
60	1
61	8
62	19
63	55
64	41
65	70
66	113
67	52
68	63
69	19
70	20
71	4
75	8
76	11
77	12
78	95
79	41
80	207
81	81
82	99
83	10
84	6
85	1
86	40
88	6
91	3
92	23
93	13
94	32
95	22
96	155
97	16
106	6
107	9
108	25
109	37
110	39
111	3
119	15
120	1
121	4
124	18
125	5
136	3
137	404
138	36
139	4
154	577
155	43
156	1
