Mass Spectrum: 2-Hydroxy-3-[2-dimethylaminoethyl]-5-tert-butylbiphenyl
Formula: C20H27NO
CAS: 21912-01-6
Molecular weight: 297
m/z	intensity
41	15
42	17
43	9
44	16
45	2
46	1
47	2
49	13
51	6
53	2
55	3
56	3
57	29
58	999
59	33
63	2
65	3
70	0
71	1
73	2
76	1
77	5
78	0
79	0
83	1
84	8
86	5
88	1
89	2
91	8
92	0
103	2
104	0
105	4
115	4
117	1
119	0
126	2
127	2
128	3
129	1
139	0
141	3
152	3
153	2
165	7
166	2
167	2
168	0
178	4
179	3
180	0
181	3
182	1
183	1
185	5
195	2
197	0
207	0
209	2
223	2
237	6
238	0
239	3
252	2
253	1
296	0
297	12
298	3
