Mass Spectrum: Oxiranemethanol, 3-phenyl-
Formula: C9H10O2
CAS: 21915-53-7
Molecular weight: 150
m/z	intensity
15	170
16	12
17	8
18	18
19	11
26	56
27	191
28	15
29	289
31	389
37	35
38	108
39	424
40	55
41	54
42	32
43	175
44	149
45	13
50	218
51	445
52	89
53	23
55	19
61	30
62	120
63	341
64	120
65	339
66	26
73	9
74	50
75	39
77	525
78	169
79	773
80	50
86	20
87	15
89	802
90	826
91	836
92	103
93	24
103	133
104	451
105	408
107	999
108	82
115	13
119	245
120	109
121	23
131	174
132	241
133	56
150	20
151	2
