Mass Spectrum: 1-Propyne, 3-(ethenylthio)-
Formula: C5H6S
CAS: 21916-66-5
Molecular weight: 98
m/z	intensity
25	7
26	37
27	98
33	8
36	5
37	52
38	85
39	251
40	2
41	4
44	7
45	200
46	28
47	17
48	4
49	5
50	14
51	17
52	12
53	72
54	10
55	0
56	5
57	50
58	191
59	149
60	15
61	10
62	5
63	11
64	3
65	34
66	2
68	9
69	70
70	19
71	74
72	7
73	3
81	1
82	1
83	2
84	0
92	0
93	3
94	0
95	2
96	0
97	999
98	211
99	56
