Mass Spectrum: N-Cbz-im-benzyl-L-histidine
Formula: C21H21N3O4
CAS: 21929-66-8
Molecular weight: 379
m/z	intensity
41	55
42	20
43	65
44	144
45	34
47	25
48	17
49	1
50	72
51	1
52	39
53	28
54	20
55	37
56	21
57	33
58	4
59	1
60	10
61	14
62	30
63	69
64	29
65	205
66	16
67	13
68	9
69	25
70	9
71	19
72	4
73	12
74	20
75	11
76	13
77	170
78	52
79	214
80	20
81	126
82	28
83	22
84	1
85	18
86	6
87	3
88	13
89	65
90	57
91	999
92	84
93	9
94	9
95	22
96	6
97	11
98	3
99	8
101	1
103	2
104	5
105	38
106	17
107	130
108	184
109	25
110	7
111	10
112	0
113	3
115	7
116	2
117	2
118	1
119	2
120	3
121	5
122	20
123	5
124	8
125	5
127	16
128	1
129	5
130	2
131	1
132	1
133	4
135	2
136	2
137	1
138	1
139	7
140	1
141	3
142	2
143	3
144	1
145	1
147	1
149	7
151	6
152	4
153	4
154	1
155	5
156	2
157	2
163	2
165	5
166	0
167	3
169	8
170	2
171	147
172	68
173	9
179	3
180	1
181	1
182	0
183	5
184	117
185	28
186	2
197	1
198	11
199	24
200	69
201	11
202	1
205	0
207	1
209	0
211	3
213	1
225	1
228	11
229	9
230	6
244	10
245	0
254	6
271	1
272	3
290	10
333	4
334	39
335	16
336	2
379	27
380	6
