Mass Spectrum: Ethylenediamine, 2TBDMS derivative
Formula: C14H36N2Si2
CAS: 21934-57-6
Molecular weight: 288
m/z	intensity
39	21
41	173
42	14
43	61
44	36
45	98
46	12
47	4
50	1
51	0
53	3
54	1
55	13
56	40
57	148
58	86
59	239
60	30
61	8
67	0
68	0
69	3
70	7
71	7
72	55
73	999
74	136
75	41
76	2
79	1
81	0
82	0
83	3
84	10
85	24
86	59
87	46
88	304
89	28
90	10
97	2
98	3
99	61
100	38
101	133
102	17
103	6
104	1
112	0
113	6
114	23
115	144
116	33
117	17
118	6
119	1
126	0
127	0
128	3
129	1
130	36
131	59
132	24
133	6
134	1
141	1
142	12
143	10
144	936
145	129
146	61
147	6
148	1
156	0
157	24
158	14
159	10
160	2
171	4
172	1
173	7
174	1
175	1
188	1
202	0
215	0
229	0
231	226
232	49
233	19
234	2
273	24
274	5
275	1
287	1
