Mass Spectrum: 1-Aminohexadecane, N-heptafluorobutyryl
Formula: C20H34F7NO
CAS: 2193-25-1
Molecular weight: 437
m/z	intensity
38	23
39	125
40	35
41	718
42	209
43	999
44	274
45	53
46	10
47	3
49	19
50	33
51	6
52	27
53	81
54	202
55	716
57	586
58	81
59	8
64	7
65	16
66	10
67	93
68	75
69	630
70	127
71	202
72	68
73	8
74	3
75	7
77	21
78	12
79	15
81	62
82	53
83	301
84	89
85	109
86	24
90	8
94	26
95	34
96	192
98	45
99	21
100	43
108	20
109	22
110	20
111	67
112	25
113	14
114	9
118	18
122	4
123	8
124	5
125	25
126	18
127	14
128	18
131	9
142	11
148	17
150	11
151	6
163	11
168	13
169	101
170	11
177	8
194	11
195	7
198	8
212	13
214	166
215	9
225	14
226	195
227	524
228	59
238	17
239	10
240	147
241	21
252	12
254	52
255	22
267	36
268	848
269	145
281	97
282	18
296	15
310	10
418	8
436	9
437	54
438	12
439	1
