Mass Spectrum: 5.beta.-Androstan-3.alpha.-ol-17-one 3-O-trifluoroacetyl-
Formula: C21H29F3O3
CAS: 2193-54-6
Molecular weight: 386
m/z	intensity
41	988
43	466
44	35
45	20
47	47
49	26
51	12
53	337
55	999
56	23
57	173
59	28
60	6
65	129
67	838
68	196
69	321
70	10
71	64
73	22
77	283
79	737
80	51
81	619
82	132
83	65
84	13
86	10
87	15
88	18
91	510
93	592
94	215
95	299
97	541
98	37
99	4
101	28
103	25
105	369
106	237
107	454
108	374
109	264
110	115
111	37
115	53
116	4
117	87
119	256
120	126
121	196
122	148
123	116
124	92
125	11
128	17
129	28
131	119
132	16
133	172
134	124
135	110
136	73
137	15
141	4
142	5
143	45
144	23
145	161
147	232
148	70
149	106
150	42
151	54
152	4
157	37
158	50
159	108
160	101
161	129
162	108
163	47
164	46
165	30
167	4
171	33
172	6
173	75
174	83
175	54
176	79
177	29
178	18
183	8
185	24
186	19
187	46
188	24
189	26
190	20
191	9
197	22
199	57
200	7
201	184
202	21
203	23
211	8
213	142
215	157
216	158
217	50
218	42
219	4
228	97
229	50
230	40
231	21
239	102
240	18
243	3
244	128
245	20
246	57
247	10
254	44
255	44
257	155
258	27
271	3
272	115
273	77
274	10
275	7
288	3
290	202
291	44
315	66
316	14
327	103
328	22
329	43
330	38
342	337
343	63
344	20
353	63
354	15
368	132
369	38
371	49
372	3
386	477
387	109
388	14
