Mass Spectrum: Benzo[b]thiophene, octahydro-2-methyl (2.alpha., 3a.beta., 7a.beta.)-
Formula: C9H16S
CAS: 21930-90-5
Molecular weight: 156
m/z	intensity
39	789
40	148
41	999
42	128
43	72
44	65
45	449
46	39
47	162
48	7
49	31
50	59
51	150
52	66
53	300
54	213
55	369
56	25
57	44
58	100
59	261
60	143
61	321
62	37
63	45
64	20
65	126
66	96
67	472
68	138
69	62
70	11
71	104
72	32
73	99
74	328
75	198
76	34
77	213
78	64
79	467
80	230
81	835
82	86
83	28
84	66
85	196
86	64
87	75
88	19
89	19
91	89
92	23
93	179
94	69
95	178
96	120
97	72
98	19
99	233
100	84
101	98
102	19
103	10
105	16
107	270
108	43
109	49
110	10
111	28
112	14
113	867
114	219
115	74
116	10
121	23
122	253
123	52
124	14
127	137
128	28
129	19
139	12
140	12
141	629
142	65
143	32
154	7
155	74
156	711
157	79
158	35
159	3
