Mass Spectrum: 1,2-Dichlorooctane
Formula: C8H16Cl2
CAS: 21948-46-9
Molecular weight: 182
m/z	intensity
14	1
15	8
17	1
18	6
26	12
27	263
28	47
29	348
30	8
31	3
32	1
35	3
36	27
37	2
38	12
39	220
40	38
41	821
42	350
43	999
44	33
45	6
49	43
50	7
51	32
52	8
53	117
54	185
55	811
56	416
57	371
58	15
59	12
61	30
62	29
63	67
64	10
65	34
66	20
67	266
68	285
69	303
70	631
71	94
72	4
73	4
74	1
75	119
76	34
77	72
78	13
79	34
80	10
81	370
82	126
83	123
84	68
85	64
86	4
87	3
88	7
89	93
90	29
91	113
92	12
93	28
94	1
95	74
96	8
97	180
98	13
99	8
101	3
102	9
103	298
104	348
105	124
106	112
107	11
108	1
109	21
110	33
111	29
112	4
113	4
115	4
116	3
117	79
118	37
119	31
120	11
121	2
123	1
124	1
125	43
126	3
127	26
128	1
129	5
131	3
132	1
133	2
137	1
138	2
139	215
140	12
141	140
142	8
143	24
144	3
145	6
146	5
147	3
148	2
151	3
152	1
153	17
154	2
155	10
157	2
