Mass Spectrum: 1,1,1-Trichloro-2-hydroxy-2-[2-acetamidoethylthio]ethane
Formula: C6H10Cl3NO2S
CAS: 21946-69-0
Molecular weight: 265
m/z	intensity
41	63
42	331
43	287
44	999
45	314
46	93
47	48
48	23
49	4
50	2
51	1
52	3
54	16
55	41
56	58
57	52
58	50
59	102
60	152
61	141
62	8
63	8
64	14
65	2
66	2
67	5
69	36
70	18
71	23
72	28
73	10
74	61
75	50
76	62
77	290
78	72
79	16
80	5
81	6
82	7
83	15
84	17
86	129
88	742
89	21
90	65
91	2
92	18
93	11
94	20
95	7
96	2
97	14
98	3
99	4
100	2
101	16
102	39
103	9
104	22
105	10
106	68
108	53
109	189
111	25
112	0
113	6
114	7
116	21
117	197
118	28
119	38
120	7
121	12
122	16
123	43
124	5
125	9
126	4
127	1
128	5
129	6
130	2
132	10
133	21
134	64
135	57
136	22
137	15
138	2
139	3
140	0
141	3
142	1
143	4
144	3
146	39
147	12
148	20
149	12
151	11
153	75
154	0
155	12
156	0
157	3
158	0
159	1
160	8
161	3
162	1
163	1
164	7
165	2
166	9
167	14
168	2
169	3
170	1
171	1
172	3
173	0
174	1
175	24
176	19
177	11
178	4
179	2
180	0
181	2
182	0
183	1
184	0
185	2
188	0
189	0
191	1
192	23
193	25
194	2
195	28
196	0
197	4
198	0
202	0
204	1
205	1
206	5
207	1
208	1
209	2
210	0
211	13
213	4
214	0
215	1
216	0
217	0
218	2
219	1
220	0
