Mass Spectrum: 3-Carbomethoxy-5,5-dimethyl-4-phenyl-2-[N'-phenylureido]-4,5-dihydrofuran
Formula: C21H22N2O4
CAS: 21952-23-8
Molecular weight: 366
m/z	intensity
41	87
42	19
43	151
44	38
45	9
47	7
49	24
50	23
51	103
52	36
53	37
54	11
55	20
56	2
57	2
58	32
59	149
60	2
61	2
62	8
63	39
64	44
65	171
66	76
67	40
68	3
69	18
70	34
71	9
73	35
74	10
75	20
76	34
77	356
78	59
79	29
80	7
81	3
82	12
83	13
84	18
85	13
86	11
89	23
90	21
91	311
92	150
93	999
94	86
95	11
96	2
97	11
99	2
101	30
102	147
103	162
104	33
105	75
106	35
107	6
108	8
109	2
110	18
111	2
113	2
115	155
116	74
117	78
118	21
119	210
120	80
121	97
122	19
123	4
124	5
125	15
126	14
127	82
128	310
129	513
130	526
131	483
132	62
133	7
134	9
135	20
136	35
137	17
138	11
139	5
140	2
141	99
142	97
143	158
144	92
145	60
146	41
147	20
150	10
152	4
153	89
154	14
155	28
156	117
157	62
158	36
159	15
160	5
161	44
162	127
163	23
165	2
168	3
169	68
170	381
171	144
172	127
173	34
174	26
175	2
176	2
183	33
184	11
185	2
186	25
187	20
188	453
189	125
190	29
196	4
197	16
198	573
199	250
200	39
201	9
202	9
203	36
204	121
205	18
206	11
212	6
214	16
215	18
216	4
231	15
232	37
233	5
234	8
246	15
247	450
248	81
249	12
274	53
275	9
335	23
336	2
351	12
366	420
367	82
368	12
