Mass Spectrum: N-(3-Pyridyl)cyanoacetamide
Formula: C8H7N3O
CAS: 219618-13-0
Molecular weight: 161
m/z	intensity
36	20
38	289
39	654
40	40
41	271
42	65
43	49
44	6
49	17
50	95
51	285
52	128
53	39
54	17
55	14
65	74
66	160
67	699
68	169
69	14
70	4
78	552
79	40
80	7
94	999
95	62
96	3
107	11
108	2
109	1
110	0
119	28
120	18
121	106
122	7
123	1
133	4
134	3
135	2
136	1
137	0
143	1
144	1
145	0
146	0
161	278
162	27
163	2
