Mass Spectrum: Heptane, 1-(ethenylthio)-
Formula: C9H18S
CAS: 21961-05-7
Molecular weight: 158
m/z	intensity
40	999
41	860
42	230
43	600
45	280
46	10
47	60
53	20
54	60
55	480
56	270
57	460
58	50
59	120
60	999
61	230
62	30
67	60
68	50
69	160
70	140
73	180
74	60
75	80
81	110
82	20
83	10
87	190
88	20
89	10
95	30
96	90
97	60
98	40
101	140
103	10
115	150
129	110
143	40
158	350
159	20
