Mass Spectrum: 2H-1,5-Benzodiazepin-2-one, 7-bromo-1,3,4,5-tetrahydro-5-(trifluoroacetyl)-
Formula: C11H8BrF3N2O2
CAS: 219686-38-1
Molecular weight: 336
m/z	intensity
34	0
37	6
38	15
39	18
40	21
41	17
42	46
43	14
44	9
45	2
46	0
47	0
50	53
51	57
52	47
53	13
55	999
56	36
57	4
59	4
61	10
62	26
63	70
64	37
65	23
66	6
67	2
69	212
70	3
71	1
72	0
73	1
74	9
75	28
76	89
77	80
78	65
79	13
80	8
81	5
82	5
83	1
84	0
85	0
86	1
87	4
88	14
89	19
90	64
91	90
92	14
93	3
94	1
95	3
96	2
97	8
98	1
99	2
101	6
102	8
103	55
104	38
105	50
106	15
107	4
108	5
109	1
110	0
111	0
112	1
113	1
114	1
115	4
116	13
117	57
118	283
119	37
120	5
121	2
122	1
123	0
124	0
125	0
126	2
127	1
128	2
129	6
130	10
131	53
132	52
133	11
134	16
135	10
136	1
137	0
138	0
139	1
140	1
141	2
142	4
143	25
144	6
145	30
146	29
147	17
148	3
149	2
151	1
152	1
153	3
154	2
155	5
156	14
157	9
158	20
159	9
160	17
161	10
162	1
163	1
165	1
166	2
167	2
168	17
169	7
170	26
171	9
172	11
173	9
174	1
175	1
176	0
180	1
181	1
182	12
183	10
184	35
185	33
186	37
187	18
188	13
189	11
190	1
194	1
195	3
196	25
197	72
198	29
199	69
200	7
201	3
202	5
203	3
204	1
206	0
207	2
208	1
209	16
210	10
211	31
212	42
213	146
214	45
215	125
216	11
217	1
221	1
222	8
223	12
224	9
225	249
226	24
227	238
228	24
229	3
230	1
231	0
233	2
234	0
235	1
237	1
238	63
239	15
240	15
241	7
242	1
243	1
244	12
245	2
246	12
247	2
256	1
257	2
258	10
259	1
260	0
261	3
262	0
263	4
264	276
265	30
266	262
267	392
268	42
269	346
270	41
271	3
277	0
279	0
281	1
282	39
283	5
284	37
285	3
286	0
292	10
293	16
294	11
295	15
296	2
307	0
308	0
309	0
310	0
336	182
337	23
338	171
339	22
340	1
