Mass Spectrum: 5-(2-Nitro-4-trifluoromethyl-phenylsulfanyl)-[1,3,4]thiadiazol-2-ylamine
Formula: C9H5F3N4O2S2
CAS: 219689-98-2
Molecular weight: 322
m/z	intensity
33	9
34	6
37	3
38	11
39	15
40	61
41	19
42	58
43	25
44	87
45	117
46	21
47	36
48	8
49	3
50	41
51	17
52	4
53	4
54	1
55	8
56	6
57	42
58	28
59	63
60	999
62	101
63	93
64	24
65	6
66	2
67	2
68	12
69	183
70	30
71	16
72	21
73	69
74	291
75	137
76	57
77	27
78	8
79	5
80	5
81	39
82	33
83	12
84	7
85	4
86	7
87	18
88	17
89	16
90	9
91	10
92	11
93	39
94	48
95	160
96	21
97	11
98	3
99	19
100	74
101	24
102	10
103	3
104	6
105	16
106	41
107	42
108	51
109	13
110	11
111	8
112	11
113	36
114	35
115	8
116	13
117	8
118	11
119	33
120	27
121	12
122	8
123	13
124	8
125	70
126	169
127	23
128	13
129	4
130	14
131	29
132	139
133	47
134	8
135	7
137	11
138	48
139	41
140	17
141	5
143	53
144	66
145	47
146	88
147	43
148	17
149	10
150	7
151	23
152	17
153	5
154	2
155	6
157	222
158	75
159	28
160	8
161	4
163	29
164	166
165	46
166	35
167	8
168	2
169	4
170	32
171	64
172	13
174	174
175	62
176	200
177	33
178	18
179	92
180	10
181	6
182	22
183	6
184	12
185	13
186	3
187	4
188	19
189	17
190	75
191	10
192	5
193	0
194	1
195	4
196	5
197	1
198	1
199	1
200	1
201	5
202	11
203	21
204	10
206	535
207	244
208	50
209	15
210	2
211	1
214	89
215	25
216	71
217	17
218	9
219	7
220	3
221	4
222	10
223	5
224	1
225	2
226	0
227	26
228	2
229	1
231	4
232	2
234	124
235	38
236	19
237	7
238	0
243	0
247	1
250	0
251	2
252	0
253	34
254	3
255	3
257	48
258	6
259	5
260	0
269	0
272	1
273	3
275	52
276	396
277	51
278	36
279	3
280	10
281	1
282	0
283	1
291	2
303	6
304	0
321	163
322	483
323	74
324	45
325	5
326	0
