Mass Spectrum: 5-Benzotriazol-1-yl-pyrrolidin-2-one
Formula: C10H10N4O
CAS: 219694-37-8
Molecular weight: 202
m/z	intensity
12	4
13	5
14	16
15	24
16	10
17	71
18	250
19	3
20	1
24	2
25	12
26	92
27	144
28	749
29	79
30	43
31	6
32	6
36	6
37	68
38	96
39	144
40	36
41	359
42	32
43	19
44	27
45	22
48	1
49	7
50	36
51	52
52	93
53	17
54	64
55	94
56	181
57	15
58	1
60	7
61	21
62	31
63	140
64	248
65	73
66	11
67	4
68	1
69	5
70	1
71	3
73	2
74	3
75	6
76	15
77	25
78	11
79	2
80	1
81	2
82	10
83	77
84	291
85	16
86	2
87	4
88	5
89	5
90	39
91	764
92	67
93	7
97	1
101	2
102	2
103	6
104	5
105	6
112	1
113	2
115	1
117	3
118	29
119	999
120	131
121	6
128	1
129	1
130	4
131	6
132	2
133	3
145	3
146	30
147	4
171	2
173	1
202	118
203	15
204	1
