Mass Spectrum: 3H-2-Benzopyran-3-one, octahydro-
Formula: C9H14O2
CAS: 21962-62-9
Molecular weight: 154
m/z	intensity
26	8
27	112
28	3
29	66
30	5
31	5
36	5
38	13
39	200
40	47
41	305
42	30
43	98
44	14
45	7
46	7
47	7
50	19
51	38
52	23
53	121
54	427
55	173
56	41
57	24
58	11
62	5
63	11
64	5
65	35
66	47
67	810
68	223
69	75
70	12
71	6
77	39
78	16
79	93
80	158
81	450
82	999
83	90
84	9
91	31
92	29
93	24
94	124
95	228
96	117
97	18
98	8
105	4
106	5
107	8
108	29
109	14
110	12
111	16
112	19
113	5
123	6
124	306
125	36
126	15
135	5
136	205
137	22
138	7
139	11
141	5
149	8
154	160
155	16
