Mass Spectrum: 1-Isopropyl-1,4,5-trimethylcyclohexane
Formula: C12H24
CAS: 219783-06-9
Molecular weight: 168
m/z	intensity
14	1
15	6
16	5
26	8
27	108
28	26
29	100
32	0
39	116
41	404
42	41
43	147
44	6
51	14
52	7
53	63
54	6
55	392
56	42
57	179
58	11
65	19
67	115
68	101
69	999
70	68
71	19
77	22
78	5
79	25
80	6
81	54
82	135
83	330
84	26
91	10
93	6
95	69
96	47
97	34
109	102
110	10
111	12
124	287
125	357
126	35
