Mass Spectrum: Dihexadecyl phosphate
Formula: C32H67O4P
CAS: 2197-63-9
Molecular weight: 546
m/z	intensity
27	13
28	8
29	44
30	1
31	2
32	1
39	17
40	3
41	135
42	35
43	204
44	8
45	1
51	1
53	9
54	27
55	247
56	172
57	280
58	11
63	1
65	3
66	7
67	51
68	55
69	263
70	192
71	139
72	7
73	1
77	3
78	1
79	5
80	3
81	36
82	95
83	291
84	121
85	78
86	5
91	1
93	2
94	1
95	15
96	51
97	259
98	72
99	999
100	2
101	8
105	2
107	2
109	6
110	24
111	131
112	45
113	10
119	1
121	1
122	1
123	4
124	13
125	57
126	25
127	8
137	2
138	8
139	20
140	14
141	5
152	4
153	9
154	9
155	3
166	3
167	6
168	6
169	2
180	1
181	3
182	3
183	1
186	1
195	1
196	9
197	1
224	16
225	4
278	2
323	56
324	9
325	1
546	1
547	8
