Mass Spectrum: 2-Methyl-7-nonadecene
Formula: C20H40
CAS: 219750-68-2
Molecular weight: 280
m/z	intensity
27	164
28	100
29	358
39	131
41	877
42	153
43	999
44	40
53	71
54	202
55	824
56	889
57	911
58	42
65	25
66	25
67	241
68	147
69	748
70	363
71	254
72	18
77	18
79	43
80	18
81	119
82	163
83	495
84	208
85	166
95	61
96	103
97	417
98	109
99	42
109	24
110	55
111	268
112	76
113	24
124	29
125	107
126	38
138	15
139	48
140	21
153	25
167	17
224	22
252	33
280	103
281	22
