Mass Spectrum: Methyl 16-hydroxyhexadecanoate, TMS derivative
Formula: C20H42O3Si
CAS: 21987-14-4
Molecular weight: 358
m/z	intensity
41	380
42	70
43	440
44	50
45	120
47	70
53	30
54	50
55	800
56	80
57	220
58	50
59	230
60	30
61	150
67	170
68	50
69	480
70	60
71	100
72	30
73	750
74	350
75	999
76	100
77	70
79	30
80	20
81	170
82	50
83	300
84	60
85	70
86	150
87	40
88	40
89	350
90	40
91	150
92	20
93	50
94	10
95	150
96	50
97	190
98	70
99	50
101	100
102	20
103	430
104	50
105	50
107	220
108	30
109	70
110	30
111	60
112	20
113	30
115	60
116	20
117	30
119	40
121	40
123	50
124	20
125	30
126	20
127	30
129	70
130	20
131	50
135	30
137	20
141	20
143	30
145	20
146	200
147	40
148	20
149	20
152	30
157	30
159	120
160	30
161	20
171	20
185	20
236	20
268	20
269	30
285	20
311	870
312	230
313	70
314	20
327	50
328	20
343	580
344	170
345	50
358	20
