Mass Spectrum: Verrucarol
Formula: C15H22O4
CAS: 2198-92-7
Molecular weight: 266
m/z	intensity
39	477
40	101
41	999
43	774
45	115
51	168
52	79
53	460
54	84
55	486
56	66
57	123
65	283
66	70
67	345
68	66
69	243
71	92
77	588
78	132
79	504
80	106
81	438
82	84
83	128
84	75
91	707
92	141
93	486
94	115
95	256
96	84
97	101
103	92
105	570
106	150
107	309
108	92
109	331
110	79
111	79
115	172
116	92
117	216
118	66
119	429
120	119
121	243
122	119
123	207
124	168
125	163
127	66
128	119
129	163
130	97
131	234
132	115
133	207
134	66
135	110
137	106
139	75
143	177
144	88
145	336
146	115
147	252
148	75
149	101
155	101
157	119
158	79
159	300
160	79
161	265
162	84
163	146
171	88
173	221
174	225
175	159
176	79
177	172
187	70
189	150
191	367
192	163
193	70
203	79
205	101
217	97
218	70
223	84
235	119
266	101
267	35
