Mass Spectrum: 2,6,10,14-Tetramethylpentadecan-2-ol
Formula: C19H40O
CAS: 21980-66-5
Molecular weight: 284
m/z	intensity
27	72
29	212
31	90
41	565
42	133
43	822
55	822
56	497
57	813
58	513
59	999
60	420
69	895
70	359
71	731
83	361
85	190
97	223
99	404
111	213
125	117
129	136
199	23
224	31
269	36
