Mass Spectrum: 2-Pentanol, nitrate
Formula: C5H11NO3
CAS: 21981-48-6
Molecular weight: 133
m/z	intensity
26	57
27	493
28	97
29	376
30	176
31	65
33	2
34	1
35	1
36	1
37	9
38	21
39	168
40	29
41	365
42	87
43	999
44	116
45	275
46	625
47	4
48	3
49	1
50	4
51	6
52	2
53	10
54	3
55	57
56	6
57	86
58	23
59	52
60	3
61	1
62	1
63	1
64	1
65	1
66	1
67	2
68	1
69	6
70	11
71	304
72	25
73	4
74	4
75	1
76	2
77	1
78	1
79	1
80	1
81	1
82	1
83	1
84	1
85	1
86	8
87	2
88	1
89	1
90	178
91	5
92	1
93	1
94	1
95	1
96	1
97	1
98	1
99	1
101	3
104	28
105	1
106	1
107	1
108	1
109	1
110	1
111	1
112	1
113	1
114	1
115	1
118	20
119	1
120	1
