Mass Spectrum: Octadecanoic acid, 9,10-dihydroxy-, methyl ester, bis(trifluoroacetate)
Formula: C23H36F6O6
CAS: 21987-19-9
Molecular weight: 522
m/z	intensity
41	270
42	50
43	300
44	20
45	20
53	30
54	60
55	400
56	70
57	120
58	10
59	90
66	20
67	200
68	80
69	250
70	50
71	50
73	40
74	999
75	180
76	10
77	10
79	50
80	50
81	200
82	100
83	140
84	50
85	40
87	20
88	20
91	20
93	50
94	40
95	170
96	100
97	70
98	40
99	20
101	20
107	30
108	30
109	90
110	60
111	30
115	20
119	13
120	4
121	28
122	20
123	45
124	35
125	22
126	5
127	8
128	7
129	10
130	2
131	5
132	2
133	8
134	3
135	25
136	23
137	47
138	33
139	10
140	8
141	10
142	5
143	8
144	2
145	3
146	2
147	10
148	3
149	17
150	24
151	15
152	17
153	9
154	8
155	21
156	4
157	10
158	2
159	2
161	4
163	8
164	18
165	22
166	12
167	7
168	7
169	3
170	2
171	3
173	3
175	2
177	5
178	10
179	11
180	5
181	7
182	7
183	3
185	2
187	5
189	2
191	5
192	4
193	5
194	2
195	5
196	10
197	15
198	2
199	2
201	2
205	3
206	3
207	10
208	3
209	5
210	10
211	3
219	2
220	10
221	5
222	2
223	5
224	3
225	2
231	2
233	2
234	5
235	3
236	2
237	4
238	3
239	2
245	5
246	2
251	20
252	3
253	3
261	2
262	17
263	30
264	5
265	3
266	2
267	2
271	1
279	5
281	5
282	2
283	10
284	3
294	38
295	10
296	3
297	1
310	4
327	1
331	2
341	2
370	1
377	1
378	1
491	10
492	3
522	5
523	3
