Mass Spectrum: 5-Acetyl-2-methylpyridine thiosemicarbazone
Formula: C9H12N4S
CAS: 219865-93-7
Molecular weight: 208
m/z	intensity
12	5
13	12
14	17
15	54
16	51
17	83
18	3
24	2
25	8
26	91
27	385
28	244
29	8
30	12
31	3
32	141
33	101
34	297
35	7
36	13
37	20
38	51
39	248
40	115
41	225
42	440
43	76
44	28
45	20
46	9
47	30
48	31
49	9
50	82
51	148
52	106
53	55
54	20
55	9
56	30
57	33
58	19
59	163
60	99
61	18
62	28
63	94
64	150
65	597
66	169
67	46
68	9
69	6
70	4
71	4
72	2
73	4
74	12
75	43
76	69
77	99
78	88
79	45
80	52
81	42
82	9
83	5
84	4
85	3
86	2
87	4
88	7
89	33
90	71
91	362
92	847
93	289
94	48
95	7
96	7
97	6
98	1
99	2
101	1
102	9
103	35
104	43
105	30
106	64
107	107
108	39
109	7
110	2
111	2
112	1
113	1
114	1
115	3
116	53
117	153
118	698
119	999
120	152
121	20
122	9
123	6
124	8
125	17
126	2
127	2
128	5
129	2
130	3
131	32
132	113
133	310
134	960
135	117
136	48
137	9
138	4
139	3
140	1
141	1
142	1
143	3
144	11
145	10
146	17
147	33
148	216
149	139
150	25
151	75
152	12
153	5
154	1
157	1
158	6
159	11
160	3
161	2
162	14
163	18
164	81
165	41
166	303
167	30
168	14
169	2
170	1
171	1
172	1
173	5
174	128
175	208
176	55
177	27
178	8
179	4
180	1
181	1
186	1
190	4
191	171
192	32
193	193
194	21
195	9
196	1
206	2
207	13
208	441
209	59
210	24
211	3
