Mass Spectrum: Methyl 2-hydroxyhexadecanoate, TMS derivative
Formula: C20H42O3Si
CAS: 21987-11-1
Molecular weight: 358
m/z	intensity
14	8
15	42
16	4
18	5
26	11
27	43
28	85
29	116
30	4
31	5
32	15
39	22
40	5
41	185
42	33
43	291
44	21
45	58
46	3
47	11
50	2
52	3
53	10
54	16
55	179
56	26
57	196
58	17
59	137
60	11
61	21
65	2
66	3
67	55
68	19
69	197
70	18
71	102
72	22
73	999
74	100
75	216
76	15
77	10
79	9
80	3
81	54
82	21
83	229
84	19
85	52
86	3
87	23
88	6
89	408
90	34
91	62
92	4
93	6
95	46
96	14
97	171
98	16
99	10
100	2
101	40
102	8
103	238
104	23
105	19
107	15
109	20
110	5
111	62
112	6
113	7
115	32
116	22
117	15
118	2
119	30
120	2
121	3
123	7
124	2
125	15
126	2
127	4
129	120
130	16
131	23
132	4
133	4
137	3
139	3
143	15
145	19
146	25
147	5
157	5
159	82
160	10
161	12
162	14
171	4
173	3
185	9
199	3
201	3
207	10
208	2
243	3
283	5
285	3
299	845
300	224
301	56
302	10
315	33
316	9
343	295
344	78
345	22
346	3
358	4
