Mass Spectrum: 1H-Pyrazole, 5-ethyl-4,5-dihydro-3,5-dimethyl-
Formula: C7H14N2
CAS: 21981-22-6
Molecular weight: 126
m/z	intensity
26	21
27	142
28	214
29	129
30	69
31	10
39	120
40	28
41	157
42	214
43	50
44	11
51	14
52	9
53	36
54	36
55	46
56	300
57	70
65	9
66	6
67	20
68	11
69	9
70	42
71	8
79	5
80	5
81	16
82	17
83	113
84	21
95	24
96	26
97	999
98	72
99	11
109	7
111	129
112	25
126	143
127	35
