Mass Spectrum: Methyl 3-hydroxyoctadecanoate, TMS derivative
Formula: C22H46O3Si
CAS: 21987-13-3
Molecular weight: 386
m/z	intensity
41	340
42	100
43	600
44	200
45	100
47	30
53	20
54	30
55	300
56	70
57	260
58	20
59	190
60	10
61	40
67	100
68	50
69	200
70	50
71	120
72	30
73	999
74	30
75	280
76	20
77	40
78	10
79	20
80	10
81	100
82	70
83	150
84	30
85	80
86	10
87	20
88	10
89	700
90	50
91	50
93	20
95	70
96	40
97	120
98	30
99	20
100	10
101	60
102	10
103	120
104	10
105	100
106	10
107	30
108	10
109	30
110	10
111	30
113	10
114	10
115	20
116	20
117	50
118	10
119	30
121	10
122	10
123	20
124	10
125	10
129	50
130	50
131	130
132	20
133	200
134	30
135	30
141	20
143	50
145	30
146	10
147	20
159	170
160	20
161	10
175	900
176	130
177	40
313	40
314	10
339	20
355	20
371	320
372	100
373	30
