Mass Spectrum: Phosphinic acid, di(phenoxymethyl)-
Formula: C14H15O4P
CAS: 21993-10-2
Molecular weight: 278
m/z	intensity
33	11
34	2
35	5
36	20
37	40
38	124
39	379
41	95
42	74
43	126
44	183
45	270
46	11
47	42
48	36
49	16
50	147
51	463
52	65
53	59
54	19
55	36
56	11
57	20
58	7
59	24
60	109
61	39
62	79
63	142
64	78
65	249
66	57
67	22
68	5
69	13
70	15
71	7
73	26
74	56
75	83
76	103
77	999
78	85
79	177
80	27
81	4
82	12
84	13
85	7
86	11
87	16
88	18
89	32
90	19
91	46
92	21
93	47
94	76
95	8
97	1
98	16
99	23
100	13
101	40
102	26
103	16
104	16
105	27
106	5
107	338
108	57
110	7
111	6
112	4
113	18
114	15
115	32
116	16
117	12
118	3
119	6
120	26
121	39
122	7
123	2
124	4
125	6
126	2
127	24
128	15
129	16
130	22
131	5
133	4
137	4
138	5
139	7
140	9
141	17
142	29
143	10
144	12
145	2
147	1
149	4
152	11
153	17
154	10
155	3
156	4
158	16
159	2
165	2
167	11
168	4
169	5
170	11
171	12
172	12
173	9
176	2
180	4
181	4
183	7
184	6
185	7
186	6
187	3
190	2
191	2
193	1
195	1
198	47
199	10
200	2
201	8
202	1
213	7
214	13
216	2
217	6
218	4
219	9
220	6
230	1
249	2
250	3
252	11
253	4
254	1
260	1
263	2
273	1
274	7
275	4
276	1
277	2
278	85
279	13
