Mass Spectrum: 1H-Pyrrole-2-carboxylic acid, ethyl ester
Formula: C7H9NO2
CAS: 2199-43-1
Molecular weight: 139
m/z	intensity
37	50
38	160
39	440
40	120
41	30
42	10
43	20
44	20
45	20
51	10
52	10
53	20
54	20
55	30
63	10
64	50
65	220
66	440
67	200
68	10
78	10
80	10
82	20
83	10
93	950
94	999
95	160
96	10
106	20
111	200
112	10
120	10
122	10
124	10
139	260
140	20
