Mass Spectrum: 1,2-Propanediol, 3-(octadecyloxy)-, diacetate
Formula: C25H48O5
CAS: 21994-81-0
Molecular weight: 428
m/z	intensity
26	3
27	21
28	25
29	75
30	2
31	7
39	16
40	0
41	155
42	43
43	999
44	25
45	18
50	2
51	2
53	4
54	20
55	285
56	79
57	655
58	49
59	9
60	5
61	48
62	2
65	2
66	7
67	47
68	48
69	195
70	68
71	410
72	26
73	195
74	25
75	16
76	2
77	3
78	3
79	7
80	15
81	69
82	100
83	157
84	43
85	256
86	50
87	8
88	2
91	3
93	7
94	16
95	65
96	80
97	128
98	42
99	98
100	168
101	77
102	7
103	121
104	6
105	3
107	3
108	8
109	40
110	41
111	80
112	49
113	59
114	7
115	17
116	50
117	200
118	15
119	16
120	3
121	15
122	8
123	29
124	25
125	47
126	18
127	41
128	7
129	7
130	3
133	2
135	17
136	7
137	18
138	18
139	17
140	10
141	28
142	5
143	3
144	6
145	23
146	2
147	3
149	8
150	5
151	16
152	15
153	16
154	8
155	21
156	3
157	3
158	6
159	122
160	8
161	2
163	3
164	2
165	8
166	8
167	13
168	4
169	17
170	3
171	2
172	5
173	2
177	28
178	3
179	8
180	7
181	8
182	3
183	15
184	3
185	3
186	3
189	3
191	3
192	2
193	8
194	5
195	8
196	4
197	7
198	3
199	3
200	3
205	2
206	2
207	8
208	4
209	8
210	3
211	4
212	3
213	3
214	3
221	5
222	6
223	7
224	5
225	2
227	3
228	3
233	3
234	2
235	3
236	2
237	8
238	5
239	3
241	3
242	2
247	3
248	3
249	3
250	17
251	11
252	7
253	20
254	3
255	3
256	2
261	2
262	3
263	2
264	3
265	6
266	4
267	3
268	2
269	3
270	3
279	16
280	8
281	31
282	8
283	66
284	14
285	3
290	3
293	2
295	3
296	2
297	3
298	2
308	73
309	18
310	3
311	3
312	3
313	8
314	2
325	67
326	16
327	3
339	2
353	2
355	6
356	2
367	3
368	7
369	4
370	2
385	3
386	2
428	3
429	2
