Mass Spectrum: Benzo[1,?2-?b:4,?5-?b']?difuran-?4-?ethanamine, 8-?bromo-?a-?methyl-
Formula: C13H12BrNO2
CAS: 219986-78-4
Molecular weight: 293
m/z	intensity
40	5
41	10
42	49
44	999
45	29
48	1
49	2
50	12
51	11
52	3
53	4
54	2
56	3
57	7
59	2
61	6
62	23
63	53
64	11
65	8
66	2
67	1
68	1
70	2
71	8
73	2
74	20
75	18
76	6
77	14
78	5
79	3
80	2
81	2
82	2
83	1
85	10
86	28
87	42
88	44
89	20
90	3
91	2
92	1
93	1
97	2
98	11
99	11
100	8
101	4
102	3
103	1
104	1
105	1
107	1
109	2
110	6
111	6
113	76
114	92
115	51
116	8
117	2
118	1
119	1
122	1
123	1
124	1
126	5
127	5
128	5
129	8
130	2
131	2
133	1
137	1
139	9
140	7
142	86
143	20
144	3
145	1
146	1
147	1
152	1
153	2
154	2
155	3
156	1
157	1
158	1
159	1
166	1
167	2
168	4
169	4
170	20
171	49
172	8
173	1
179	1
181	1
182	1
183	1
184	2
185	1
192	1
193	2
194	1
195	4
196	2
197	1
198	3
199	8
200	1
207	1
209	1
210	1
212	1
213	1
214	1
221	7
222	3
223	6
224	2
225	1
234	1
236	1
238	1
246	1
247	1
249	73
250	105
251	81
252	90
253	11
254	1
262	1
263	1
264	1
275	1
277	2
278	2
279	1
280	1
281	1
292	1
293	3
294	1
295	2
296	1
