Mass Spectrum: Di-epi-.alpha.-cedrene-(I)
Formula: C15H24
CAS: 21996-77-0
Molecular weight: 204
m/z	intensity
27	14
29	18
30	1
38	1
39	43
40	7
41	133
42	9
43	27
50	3
51	18
52	8
53	43
54	4
55	98
56	12
57	8
58	2
62	1
63	9
64	6
65	42
66	8
67	45
68	6
69	41
70	5
71	5
72	3
75	2
76	3
77	98
78	22
79	89
80	11
81	49
82	74
83	36
84	4
85	1
89	4
90	1
91	142
92	34
93	143
94	23
95	21
96	4
97	2
101	1
102	3
103	22
104	9
105	223
106	40
107	95
108	21
109	27
110	4
115	38
116	13
117	39
118	26
119	999
120	269
121	187
122	109
123	72
124	9
125	1
126	1
127	6
128	21
129	20
130	10
131	19
132	8
133	159
134	89
135	37
136	27
137	3
141	4
142	2
143	5
144	3
145	18
146	4
147	47
148	34
149	5
153	1
157	1
158	1
159	4
160	6
161	168
173	1
176	33
177	4
189	32
190	4
204	188
205	31
206	3
