Mass Spectrum: Propanoic acid, 3-(butylthio)-
Formula: C7H14O2S
CAS: 22002-73-9
Molecular weight: 162
m/z	intensity
27	690
28	370
29	600
39	200
41	710
43	150
45	530
46	200
47	500
54	130
55	800
56	870
57	270
59	200
60	330
61	990
73	110
74	60
77	130
88	130
89	999
90	140
91	60
106	260
119	140
162	170
