Mass Spectrum: N-Ethyl-2-phenethylamine
Formula: C10H15N
CAS: 22002-68-2
Molecular weight: 149
m/z	intensity
38	2
39	25
40	3
41	11
42	24
43	11
44	5
50	11
51	31
52	8
53	4
54	2
55	1
56	47
57	9
58	999
59	37
62	4
63	17
64	4
65	50
66	3
67	2
74	3
75	2
76	4
77	47
78	19
79	18
80	1
89	12
90	5
91	87
92	11
93	1
102	4
103	25
104	14
105	57
106	5
115	1
117	4
118	5
119	3
120	2
130	2
132	7
134	3
146	1
147	1
148	3
149	5
