Mass Spectrum: 1,4-Piperazinedicarbonitrile
Formula: C6H8N4
CAS: 22005-33-0
Molecular weight: 136
m/z	intensity
14	2
15	21
26	15
27	54
28	152
29	16
30	9
38	2
39	7
40	20
41	38
42	999
43	33
51	1
52	4
53	60
54	100
55	187
56	48
57	40
58	1
66	4
67	23
68	44
69	19
70	1
79	1
80	4
81	24
82	27
83	3
93	2
94	7
95	1
96	5
106	4
107	3
108	4
109	3
110	1
135	5
136	395
137	37
138	1
