Mass Spectrum: 7-Hydroxy-3,4-dihydronaphthalen-1(2H)-one
Formula: C10H10O2
CAS: 22009-38-7
Molecular weight: 162
m/z	intensity
38	34
39	118
40	15
41	25
42	14
43	6
49	5
50	71
51	168
52	71
53	72
55	54
57	13
59	13
61	3
62	33
63	52
64	16
65	59
66	46
67	30
74	32
75	27
76	33
77	237
78	125
79	50
80	17
86	15
87	14
89	39
90	20
91	50
92	17
93	15
94	5
102	21
103	64
104	24
105	207
106	999
107	123
108	13
115	42
116	23
117	27
118	6
119	37
120	233
121	40
127	16
128	0
129	2
131	50
132	36
133	244
134	471
135	52
144	61
145	50
146	18
147	167
148	19
161	78
162	777
163	90
