Mass Spectrum: Indole-2-acetic acid, .alpha.-(1-acetyl-3-ethylidene-4-piperidyl)-.alpha.-(hydroxymethyl)-3-(methoxymethyl)-, methyl ester
Formula: C23H30N2O5
CAS: 2202-18-8
Molecular weight: 414
m/z	intensity
40	47
41	202
42	440
43	999
44	833
45	952
46	59
47	23
53	23
55	119
56	59
57	202
58	23
59	166
60	488
61	131
67	47
68	23
69	83
70	71
71	71
73	71
74	500
75	71
77	23
79	35
80	23
81	75
82	51
83	43
84	19
85	35
86	7
87	31
88	99
89	31
91	23
92	4
93	27
94	43
95	35
96	27
97	35
98	15
99	123
100	7
101	11
102	4
103	4
105	7
106	7
107	19
108	103
109	127
110	87
111	27
112	19
113	7
114	4
115	31
116	7
117	7
118	4
119	7
121	7
122	7
123	31
124	23
125	19
126	7
127	15
128	15
129	23
130	23
131	7
132	4
133	4
135	7
136	11
137	11
138	7
139	7
140	19
141	19
142	59
143	35
144	27
145	4
147	4
149	47
150	31
151	178
152	396
153	59
154	43
155	27
156	11
157	11
158	15
159	4
160	15
161	4
164	4
165	11
166	7
167	31
168	27
169	55
170	214
171	31
172	19
173	19
176	4
177	7
178	11
179	11
180	31
181	19
182	19
183	4
184	11
185	7
186	4
187	4
189	4
190	4
191	19
192	23
193	27
194	31
195	7
196	4
197	4
198	103
199	23
200	31
201	39
202	91
203	19
204	19
205	23
206	35
207	23
208	27
209	4
213	4
214	31
215	7
216	4
217	4
218	11
219	19
220	31
221	35
222	35
223	15
224	4
228	7
229	19
230	238
231	43
232	91
233	27
234	27
235	19
236	11
237	4
238	7
239	4
244	91
245	35
246	7
247	11
248	15
249	23
250	11
251	31
252	27
253	11
254	7
256	4
259	4
260	4
261	7
262	39
263	31
264	7
265	19
266	51
267	11
268	7
274	15
275	4
277	27
278	23
279	39
280	19
281	11
291	7
292	15
293	95
294	23
295	11
305	7
307	7
308	7
309	15
310	4
317	7
319	15
320	19
321	15
322	7
323	15
324	11
337	43
338	11
339	4
351	11
352	250
353	75
354	15
368	11
382	59
383	23
384	27
385	7
414	27
415	7
