Mass Spectrum: 1-(2-Chloro-4-nitro-phenyl)-[1,4]diazepane
Formula: C11H14ClN3O2
CAS: 220220-19-9
Molecular weight: 255
m/z	intensity
34	0
39	41
40	24
41	126
42	231
43	999
44	114
45	6
46	4
47	0
48	0
49	4
50	21
51	30
52	16
53	8
54	18
55	15
56	108
57	53
58	40
59	1
60	1
61	5
62	15
63	46
64	14
65	14
66	5
67	5
68	35
69	53
70	160
71	52
72	6
73	14
74	31
75	118
76	59
77	38
78	29
79	6
80	4
81	2
82	6
83	14
84	16
85	16
86	6
87	8
88	10
89	64
90	34
91	23
92	8
93	2
94	1
95	2
96	1
97	12
98	8
99	22
100	6
101	13
102	67
103	34
104	77
106	29
107	2
108	1
109	8
110	35
111	29
112	42
113	12
114	13
115	13
116	19
117	43
118	19
119	10
120	7
121	1
122	1
123	10
124	32
125	13
126	21
127	12
128	17
129	8
130	13
131	14
132	5
133	2
134	3
135	1
136	3
137	32
138	28
139	77
140	28
141	29
142	11
143	10
144	16
145	28
146	7
147	1
148	1
149	8
150	4
151	15
152	15
153	161
154	44
155	63
156	27
157	7
158	5
159	1
160	1
161	5
162	1
163	5
164	8
165	22
166	9
167	52
168	17
169	24
170	46
171	10
172	31
173	5
174	10
175	6
176	2
177	8
178	7
179	28
180	10
181	12
182	7
183	46
184	21
185	78
186	16
187	20
188	4
189	9
190	7
191	139
192	35
193	5
194	2
195	17
196	15
197	30
198	28
199	258
200	36
201	81
202	9
203	2
204	2
205	0
206	0
207	1
208	5
209	9
210	15
211	23
213	758
214	85
215	239
216	26
217	3
218	7
219	36
220	375
221	51
222	5
223	5
224	15
225	49
226	17
227	17
228	3
229	0
237	0
238	2
239	2
240	4
241	1
242	1
253	3
254	14
255	144
256	23
257	46
258	6
259	0
