Mass Spectrum: 2,3-Dihydrofarnesyl decanoate
Formula: C25H46O2
CAS: 220284-39-9
Molecular weight: 378
m/z	intensity
27	9
29	23
41	279
42	32
43	158
44	10
53	30
55	174
56	31
57	126
58	17
66	8
67	228
68	180
69	999
70	66
71	100
72	6
80	47
81	731
82	199
85	60
86	5
93	82
94	67
95	388
107	146
108	73
109	284
110	40
121	259
122	92
123	608
135	71
136	60
137	114
138	39
149	121
150	47
155	119
156	12
162	5
163	522
164	78
173	19
177	13
191	41
192	6
199	9
206	20
223	10
277	5
281	32
282	5
306	3
312	5
333	2
335	96
336	25
337	4
340	9
362	5
363	1
378	2
