Mass Spectrum: 4-Methylphenyl .beta.-phenylpropionate
Formula: C16H16O2
CAS: 22020-95-7
Molecular weight: 240
m/z	intensity
41	11
42	1
43	1
50	14
51	54
52	21
53	20
54	1
55	8
62	3
63	16
64	5
65	61
66	4
74	2
75	3
76	1
77	137
78	43
79	74
80	14
81	1
89	10
91	391
92	25
93	1
101	0
102	6
103	42
104	35
105	258
106	24
107	96
108	999
109	33
110	4
115	0
124	1
131	15
132	5
133	24
134	2
197	0
240	37
241	5
