Mass Spectrum: Cobalt, bis[.mu.-(benzenethiolato)]tetranitrosyldi-
Formula: C12H10Co2N4O4S2
CAS: 22033-59-6
Molecular weight: 456
m/z	intensity
59	999
123	200
168	160
182	230
198	80
228	20
259	80
336	580
366	200
396	250
426	500
456	250
