Mass Spectrum: 1-Ethenyl-3-(1-hexenyl)-4-trimethylsilylcyclopentane
Formula: C16H30Si
CAS: 220399-93-9
Molecular weight: 250
m/z	intensity
36	11
37	11
38	19
39	151
40	82
41	156
42	37
43	104
44	63
45	117
46	10
50	24
51	34
52	19
53	44
54	45
55	54
56	12
57	19
58	20
59	150
60	12
61	8
63	11
65	27
66	30
67	59
68	9
69	14
71	14
72	16
73	999
74	89
75	48
77	50
78	31
79	69
80	35
81	21
83	11
85	20
91	52
92	29
93	24
94	10
95	12
97	8
99	10
101	12
105	26
106	16
107	9
109	10
119	20
120	8
122	15
123	9
129	8
133	9
135	7
140	11
141	16
148	8
151	8
176	29
177	7
195	3
196	24
235	8
250	7
