Mass Spectrum: 1,3,6-Octatriene, (Z,E)-
Formula: C8H12
CAS: 22038-68-2
Molecular weight: 108
m/z	intensity
25	1
26	15
27	176
28	15
29	68
30	1
31	0
32	0
35	0
36	0
37	10
38	23
39	320
40	54
41	252
42	15
43	6
44	1
47	0
48	0
49	5
50	45
51	109
52	57
53	134
54	65
55	52
56	5
57	0
58	1
60	0
61	4
62	11
63	33
64	11
65	148
66	185
67	117
68	13
69	2
70	0
71	0
73	2
74	8
75	26
76	6
77	696
78	251
79	999
80	148
81	28
82	1
85	0
86	1
87	1
89	14
90	4
91	457
92	56
93	490
94	38
95	1
98	0
101	0
102	1
103	8
104	2
105	26
106	9
107	28
108	193
109	17
110	1
