Mass Spectrum: Cholest-7-en-6-one, 25-(acetyloxy)-2,3,14,20,22-pentahydroxy-, (2.beta.,3.beta.,5.beta.,22R)-
Formula: C29H46O8
CAS: 22033-96-1
Molecular weight: 522
m/z	intensity
43	999
60	460
81	310
99	770
267	55
269	55
285	73
300	160
327	200
344	300
363	101
365	320
393	22
406	30
408	65
411	32
426	360
444	84
462	2
468	6
486	2
504	0
522	0
