Mass Spectrum: Estr-5(10)-en-17.beta.-ol, 3.alpha.-fluoro-, acetate
Formula: C20H29FO2
CAS: 22034-58-8
Molecular weight: 320
m/z	intensity
43	999
44	47
51	33
53	177
54	31
55	322
59	68
65	109
66	41
67	233
69	60
77	250
78	88
79	339
80	66
81	250
83	47
85	53
91	625
92	134
93	322
94	176
95	177
97	88
103	60
104	95
105	339
106	143
107	177
108	53
109	107
111	58
115	104
116	57
117	215
118	99
119	215
120	106
121	75
123	56
128	90
129	134
130	78
131	355
132	78
133	355
134	106
135	63
137	72
139	143
141	52
143	93
144	53
145	214
146	446
147	357
148	65
149	60
151	74
152	87
153	57
157	59
159	125
163	160
164	86
165	214
166	160
178	73
179	92
199	62
203	55
205	72
217	79
218	69
219	285
220	74
231	83
232	99
233	68
245	679
246	125
259	143
260	999
261	223
320	999
321	207
