Mass Spectrum: 1,3-Diethenyl-4-trimethylsilylcyclopentane
Formula: C12H22Si
CAS: 220399-92-8
Molecular weight: 194
m/z	intensity
39	40
40	14
41	33
42	8
43	50
44	58
45	74
51	19
53	14
54	17
55	14
57	14
58	14
59	115
65	12
66	8
67	26
69	9
71	12
72	17
73	999
74	69
75	43
77	24
78	9
79	15
80	10
82	8
83	10
85	24
91	30
92	21
93	10
95	18
97	11
99	15
101	15
105	21
119	20
120	29
123	38
124	7
127	9
128	9
140	227
141	19
142	8
149	50
151	40
152	8
153	11
179	37
180	6
181	3
194	2
