Mass Spectrum: Methylamine, N-(1-methylhexylidene)-
Formula: C8H17N
CAS: 22058-71-5
Molecular weight: 127
m/z	intensity
41	70
42	210
43	90
44	10
54	20
55	70
56	970
57	40
58	10
68	10
70	30
71	999
72	40
84	160
85	20
98	50
112	60
126	10
127	10
