Mass Spectrum: Cyclopropanecarboxylic acid, 1-amino-
Formula: C4H7NO2
CAS: 22059-21-8
Molecular weight: 101
m/z	intensity
25	4
26	46
27	117
28	613
29	106
30	112
31	2
37	10
38	19
39	66
40	26
41	44
42	45
43	27
44	28
45	74
46	12
50	1
51	12
52	42
53	15
54	516
55	999
56	507
57	24
65	2
67	2
68	2
69	2
70	2
71	2
72	4
73	12
74	4
81	5
82	2
83	351
84	18
85	2
100	31
101	29
102	6
