Mass Spectrum: trans,trans-2,9-Undecadiene
Formula: C11H20
CAS: 22057-21-2
Molecular weight: 152
m/z	intensity
26	15
27	184
28	92
29	251
32	11
39	323
40	62
41	495
42	57
43	45
50	11
51	30
52	21
53	165
54	189
55	999
56	70
57	9
65	32
66	60
67	662
68	818
69	163
70	14
77	25
79	64
81	564
82	185
83	17
93	15
95	148
96	63
97	17
109	66
110	161
111	15
123	48
124	7
152	154
153	21
