Mass Spectrum: Acetamide, oxime
Formula: C2H6N2O
CAS: 22059-22-9
Molecular weight: 74
m/z	intensity
33	17
34	1
36	0
38	17
40	105
42	999
43	82
44	59
46	1
47	0
53	14
55	116
56	20
57	47
58	47
59	50
61	0
74	605
75	25
