Mass Spectrum: 3,4-Dichloro-5-phenylimino-2(5H)-furanone
Formula: C10H5Cl2NO2
CAS: 220509-42-2
Molecular weight: 241
m/z	intensity
33	9
35	160
36	65
37	244
38	387
39	411
40	257
41	189
42	95
43	38
44	466
45	108
47	153
48	32
49	181
50	449
52	280
53	121
54	86
55	17
59	107
60	170
61	151
62	138
63	342
64	241
65	407
66	329
67	43
69	27
73	18
74	36
75	49
76	64
77	68
78	54
79	9
87	442
88	48
89	136
90	74
91	230
92	632
93	999
96	252
97	30
98	13
104	40
105	261
106	6
107	77
108	6
109	6
119	311
120	13
122	51
123	8
124	18
129	8
131	13
140	57
142	21
149	8
159	12
162	60
163	13
164	24
166	36
241	51
243	40
