Mass Spectrum: Cyclopropa[16,17]pregn-4-ene-3,20-dione, 3',16-dihydro-, (16.beta.)-
Formula: C22H30O2
CAS: 2205-92-7
Molecular weight: 326
m/z	intensity
40	17
41	206
43	999
45	8
50	5
51	23
52	18
53	98
54	10
55	163
57	15
63	6
65	61
66	17
67	144
68	9
69	28
71	15
77	167
78	51
79	227
80	22
81	110
82	14
83	35
85	6
90	5
91	328
92	43
93	141
94	30
95	129
96	16
97	84
98	11
102	5
103	23
104	17
105	221
106	46
107	185
108	36
109	140
110	25
111	26
115	44
116	15
117	65
118	20
119	98
120	34
121	126
122	42
123	124
124	224
125	30
127	9
128	38
129	46
130	17
131	105
132	29
133	118
134	46
135	107
136	30
137	44
138	19
139	6
141	20
142	14
143	62
144	35
145	132
146	40
147	122
148	43
149	105
150	49
151	20
155	30
156	9
157	44
158	13
159	170
160	56
161	113
162	34
163	36
164	7
165	5
167	9
169	27
170	8
171	37
172	12
173	60
174	16
175	56
176	17
177	20
181	8
183	19
184	11
185	56
186	14
187	62
188	17
189	67
190	11
191	7
195	12
197	14
198	7
199	24
200	13
201	23
202	27
203	81
204	16
209	12
211	9
213	22
215	27
216	9
217	5
223	7
224	8
225	15
227	21
228	9
229	6
230	36
233	5
239	6
241	73
242	17
243	8
248	7
251	18
253	7
255	7
260	5
265	40
266	19
267	8
268	54
269	36
282	13
283	248
284	132
293	8
297	5
308	7
311	230
312	50
325	6
326	303
