Mass Spectrum: 1-Cyclopenteneacetic acid, 5-oxo-
Formula: C7H8O3
CAS: 22060-62-4
Molecular weight: 140
m/z	intensity
39	380
40	320
41	920
42	220
43	500
44	110
45	230
50	110
51	170
53	390
55	470
56	190
57	390
65	420
66	470
67	999
68	310
69	350
70	200
71	220
81	230
83	210
85	130
94	140
95	470
96	770
97	260
98	15
111	150
112	10
122	70
123	40
140	190
141	15
