Mass Spectrum: Dimethylsulfoxide-D6
Formula: C2D6OS
CAS: 2206-27-1
Molecular weight: 84
m/z	intensity
12	1
14	5
16	16
18	141
19	1
28	19
30	42
32	12
34	74
36	32
38	48
40	2
44	11
46	143
47	3
48	91
49	2
50	77
51	2
52	22
54	1
58	2
60	4
62	4
64	31
65	1
66	999
67	29
68	43
69	1
82	6
84	844
85	24
86	38
87	1
