Mass Spectrum: Methyl 18-oxidanyloctadeca-9,12-dienoate, TMS derivative
Formula: C22H42O3Si
CAS: 22074-68-6
Molecular weight: 382
m/z	intensity
41	380
42	40
43	150
44	40
45	120
47	20
51	20
52	20
53	70
54	100
55	460
56	30
57	50
58	30
59	150
60	20
61	70
65	30
66	60
67	580
68	200
69	200
70	30
71	70
72	40
73	999
74	170
75	420
76	50
77	120
78	70
79	380
80	440
81	450
82	160
83	100
84	30
85	50
87	100
88	20
89	120
90	20
91	200
92	70
93	360
94	330
95	380
96	130
97	70
98	50
99	30
101	380
102	50
103	120
104	70
105	120
106	70
107	180
108	150
109	140
110	50
111	50
112	20
113	20
115	50
116	30
117	40
118	20
119	130
120	70
121	260
122	120
123	50
124	20
125	20
127	30
129	170
130	30
131	40
132	10
133	80
134	50
135	170
136	100
137	50
139	100
141	20
142	30
143	30
145	20
146	50
147	60
148	20
149	80
150	70
151	30
155	60
156	20
157	10
159	50
160	10
161	30
163	30
164	50
165	20
169	30
170	30
171	20
173	20
175	20
177	10
178	40
179	20
181	10
183	80
184	20
185	20
187	10
196	20
197	20
201	20
210	20
215	30
217	20
231	20
236	20
239	10
257	10
271	40
285	20
286	20
290	40
291	20
292	30
335	40
336	20
341	20
351	20
365	20
367	50
368	20
382	20
