Mass Spectrum: Benzeneacetic acid, 3-benzoyl-
Formula: C15H12O3
CAS: 22071-22-3
Molecular weight: 240
m/z	intensity
39	68
44	27
50	20
51	145
63	32
77	657
78	45
79	94
89	114
90	41
91	8
103	33
105	999
106	70
116	64
130	41
131	25
135	56
147	1
152	18
163	698
164	62
165	77
181	111
194	59
195	23
196	2
221	2
240	399
241	56
