Mass Spectrum: (1R,4aS,8aS)-3,4a,8,8-Tetramethyl-4-oxo-1,4,4a,5,6,7,8,8a-octahydronaphthalen-1-yl acetate
Formula: C16H24O3
CAS: 220766-77-8
Molecular weight: 264
m/z	intensity
27	17
29	31
39	80
40	18
41	230
42	28
43	535
44	20
53	75
54	14
55	160
56	26
57	29
65	59
66	20
67	97
68	31
69	192
70	41
71	29
77	112
78	23
79	120
80	21
81	103
82	45
83	46
84	17
85	44
91	151
92	20
93	65
94	51
95	44
96	50
97	67
98	999
99	61
105	96
106	23
107	168
108	47
109	312
110	63
111	84
112	28
117	23
120	31
121	77
122	195
123	198
124	79
125	80
126	21
127	79
128	32
131	27
133	66
134	49
135	191
136	91
137	86
138	30
139	48
140	369
141	34
145	23
147	99
148	105
149	44
151	64
152	27
153	45
161	136
162	73
165	20
166	19
179	67
180	12
189	105
190	17
193	28
194	126
195	27
204	119
205	44
207	33
208	17
221	58
222	271
223	50
264	157
265	28
