Mass Spectrum: 2-Furancarboxylic acid, tetrahydro-3-methyl-5-oxo-
Formula: C6H8O4
CAS: 22073-04-7
Molecular weight: 144
m/z	intensity
26	12
27	95
28	19
29	65
30	4
31	7
36	5
37	5
38	15
39	95
40	21
41	216
42	198
43	421
44	15
45	38
46	3
50	2
51	6
53	16
54	6
55	38
56	4
57	21
58	18
60	5
68	2
69	11
70	12
71	394
72	16
73	9
75	5
81	4
83	2
85	2
98	2
99	999
100	54
101	5
129	4
130	1
144	9
