Mass Spectrum: 2-Methyl-4-phenyl-1-pyrrolidin-1-yl-butanne-1,4-dione
Formula: C15H19NO2
CAS: 220749-85-9
Molecular weight: 245
m/z	intensity
12	1
13	0
14	3
15	75
16	2
17	3
18	16
19	0
26	13
27	106
28	140
29	68
30	74
31	3
32	0
36	0
37	2
38	7
39	95
40	27
41	200
42	128
43	107
44	15
45	2
46	0
49	2
50	47
51	189
52	15
53	14
55	309
56	187
57	9
58	8
59	0
60	0
61	0
62	2
63	7
64	2
65	10
66	2
67	3
68	24
69	77
70	999
71	90
72	33
73	3
74	8
75	10
76	30
77	493
78	43
79	6
80	1
81	1
82	2
83	3
84	4
85	1
86	2
87	0
88	0
89	3
90	1
91	16
92	2
93	0
94	1
95	1
97	150
98	177
99	12
100	1
101	0
102	2
103	9
105	956
106	78
107	7
108	1
109	0
110	1
111	3
112	7
113	4
114	1
115	7
116	2
117	4
118	1
119	1
120	12
121	3
122	1
123	0
125	53
126	29
127	6
128	4
129	9
130	2
131	13
132	2
133	12
134	1
135	0
138	1
140	50
141	4
142	0
143	0
144	0
145	3
147	42
148	10
149	2
150	0
155	0
157	0
158	0
159	6
160	1
161	0
167	0
168	6
169	0
170	0
172	1
173	1
175	189
176	36
177	4
178	0
186	0
188	0
189	0
200	1
201	0
202	0
205	0
207	0
217	0
228	0
230	0
245	19
246	6
247	1
