Mass Spectrum: 2H-Thiopyran-3-ol, tetrahydro-
Formula: C5H10OS
CAS: 22072-19-1
Molecular weight: 118
m/z	intensity
12	1
13	2
14	9
15	59
16	3
17	4
18	14
25	2
26	34
27	267
28	62
29	92
30	4
31	86
32	12
33	7
34	14
35	30
36	3
37	13
38	26
39	238
40	35
41	447
42	105
43	330
44	434
45	307
46	435
47	389
48	282
49	185
50	22
51	18
52	5
53	79
54	67
55	96
56	25
57	208
58	251
59	174
60	117
61	774
62	240
63	56
64	11
65	48
66	87
67	221
68	21
69	44
70	59
71	298
72	63
73	34
74	341
75	79
76	36
77	28
78	3
79	2
81	2
82	2
83	16
84	20
85	294
86	19
87	161
88	15
89	63
90	104
91	9
92	6
97	9
98	3
99	76
100	242
101	182
102	23
103	24
104	2
105	2
114	2
115	2
116	22
117	14
118	999
119	67
120	48
121	4
