Mass Spectrum: N-(2-Propenyl)-N-(2-propynyl)-N-methylamine
Formula: C7H11N
CAS: 220700-02-7
Molecular weight: 109
m/z	intensity
39	290
40	22
41	379
42	742
43	19
44	19
66	53
67	29
68	91
69	18
70	122
71	9
81	29
82	999
83	38
92	19
94	125
95	10
107	29
108	271
109	307
110	25
111	5
