Mass Spectrum: 11-Aminoundecanoic acid, t-butyl ester
Formula: C15H31NO2
CAS: 220851-29-6
Molecular weight: 257
m/z	intensity
26	4
27	52
28	10
29	166
30	881
31	19
37	2
38	5
39	65
40	12
41	345
42	47
43	69
44	88
45	126
46	5
50	2
51	3
52	1
53	12
54	14
55	134
56	139
57	999
58	71
59	75
60	18
61	3
65	2
66	1
67	19
68	10
69	63
70	21
71	16
72	37
73	34
74	4
75	0
76	0
77	2
78	0
79	5
80	2
81	19
82	10
83	32
84	16
85	8
86	95
87	27
88	4
89	1
90	0
91	2
92	1
93	4
94	2
95	10
96	8
97	16
98	15
99	3
100	47
101	10
102	5
103	1
104	1
105	3
106	1
107	3
108	1
109	4
110	5
111	7
112	7
113	2
114	25
115	10
116	1
119	1
120	1
121	2
122	2
123	4
124	4
125	4
126	2
127	3
128	20
129	34
130	3
135	1
136	1
137	2
138	2
139	1
140	2
141	1
142	243
143	25
144	1
145	1
152	4
153	1
154	2
155	0
156	9
157	14
158	2
166	3
167	1
168	1
170	1
171	1
172	13
173	23
174	2
179	1
180	11
181	1
182	20
183	3
184	321
185	36
186	3
198	2
199	1
200	92
201	25
202	23
203	2
210	2
226	2
242	5
243	1
256	1
257	13
258	4
