Mass Spectrum: 7-Pentadecyne
Formula: C15H28
CAS: 22089-89-0
Molecular weight: 208
m/z	intensity
26	9
27	266
29	370
30	9
39	161
40	26
41	593
42	71
43	407
44	14
45	2
50	11
51	29
52	48
53	123
54	441
55	516
56	81
57	155
58	32
59	18
63	9
64	5
65	65
66	84
67	999
68	318
69	308
70	48
71	35
72	8
73	2
77	88
78	21
79	183
80	71
81	967
82	481
83	233
84	33
85	19
86	9
87	0
91	58
92	8
93	76
94	34
95	708
96	424
97	145
98	18
99	9
100	10
101	2
105	12
106	4
107	30
108	17
109	482
110	293
111	57
112	7
113	24
114	6
115	4
119	3
120	4
121	17
122	13
123	241
124	93
125	25
126	6
127	81
128	8
135	6
136	4
137	51
138	35
139	7
140	8
142	15
143	4
144	11
145	6
146	13
147	2
148	2
149	6
151	34
152	11
153	10
155	7
159	3
163	4
165	75
166	49
167	5
179	49
180	6
206	5
208	94
209	17
210	5
