Mass Spectrum: Borane, chlorodipropyl-
Formula: C6H14BCl
CAS: 22086-53-9
Molecular weight: 132
m/z	intensity
11	9
13	9
15	39
25	9
26	59
27	239
28	29
29	69
36	19
37	29
38	19
39	99
40	69
41	169
42	99
43	29
46	39
47	139
48	19
49	49
50	29
51	39
52	29
53	99
54	29
55	29
57	9
59	39
60	419
61	999
62	149
63	329
64	9
65	9
66	9
67	19
68	29
69	9
70	9
71	39
72	29
73	79
74	19
75	39
76	9
77	9
81	9
83	9
84	9
85	19
86	9
87	19
88	239
89	859
90	109
91	279
92	9
95	9
96	39
97	49
105	9
131	29
132	99
133	19
134	39
