Mass Spectrum: 2-Butene, 1-butoxy-3-methyl-
Formula: C9H18O
CAS: 22094-02-6
Molecular weight: 142
m/z	intensity
25	3
26	20
27	279
28	81
29	438
30	15
31	22
33	2
34	2
35	1
37	2
39	204
40	80
41	847
42	122
43	510
44	36
45	14
46	2
48	1
49	2
50	7
51	22
52	9
53	90
54	24
55	147
56	139
57	593
58	38
59	2
62	0
63	4
64	2
65	9
67	96
68	147
69	349
70	139
71	999
72	48
73	3
74	1
75	2
76	1
77	0
78	0
79	5
80	1
81	2
82	1
83	15
84	35
85	135
86	31
87	5
88	1
90	1
91	2
93	2
94	2
95	2
96	2
97	5
98	14
99	22
100	2
101	1
103	1
105	2
106	0
107	2
108	1
111	1
112	8
113	9
114	1
117	2
119	0
120	1
121	1
122	2
123	0
124	2
125	1
127	147
128	14
129	2
131	2
132	1
134	1
135	1
136	1
137	1
139	1
140	1
142	64
143	6
144	1
