Mass Spectrum: 5-Dodecylbicyclo(2.2.1)-2-heptene
Formula: C19H34
CAS: 22094-86-6
Molecular weight: 262
m/z	intensity
27	14
29	27
39	25
40	14
41	104
42	12
43	75
44	3
51	5
52	3
53	15
54	12
55	73
56	14
57	32
66	999
67	126
68	11
69	26
70	8
71	7
77	44
78	17
79	101
80	93
81	25
82	9
83	14
84	2
85	2
91	43
92	14
93	54
94	14
95	16
96	6
97	6
105	8
106	3
107	10
108	12
109	6
111	2
121	42
122	11
123	3
135	6
136	2
149	10
150	3
163	2
180	2
234	3
262	10
