Mass Spectrum: 4-Hydroxyheptanohydrazide
Formula: C7H16N2O2
CAS: 22094-43-5
Molecular weight: 160
m/z	intensity
35	1
39	366
41	845
43	875
45	222
47	1
48	1
50	8
51	20
52	15
53	65
55	999
57	375
59	139
60	13
61	5
63	5
65	12
67	39
69	504
71	73
73	66
74	292
75	4
77	8
78	3
79	9
81	26
83	402
85	227
87	76
88	174
91	4
93	11
95	4
96	6
97	15
99	295
101	4
102	4
103	1
107	1
108	1
109	3
111	164
113	61
114	4
117	287
119	2
120	1
125	4
127	29
129	55
131	3
142	53
143	8
144	5
156	1
159	1
160	6
161	1
