Mass Spectrum: 1-Methoxy-3-methyl-2-butene
Formula: C6H12O
CAS: 22093-99-8
Molecular weight: 100
m/z	intensity
39	150
40	30
41	370
42	30
43	40
45	170
53	150
54	10
55	280
56	20
57	20
58	10
59	30
65	20
67	130
68	130
69	200
70	20
71	10
83	20
84	10
85	999
86	60
99	50
100	270
101	30
