Mass Spectrum: 1,2,3-Thiadiazole-4-carboxylic acid, 5-methyl-
Formula: C4H4N2O2S
CAS: 22097-10-5
Molecular weight: 144
m/z	intensity
38	80
39	360
40	70
41	110
44	690
45	700
46	20
48	70
49	130
69	170
70	120
71	999
72	260
73	70
88	140
99	30
100	40
116	180
117	25
144	30
