Mass Spectrum: Dodecanedioic acid, 2,2,11,11-tetramethyl-
Formula: C16H30O4
CAS: 22092-64-4
Molecular weight: 286
m/z	intensity
27	38
28	1
29	82
30	1
31	10
39	26
40	11
41	214
42	27
43	166
44	5
45	28
47	2
53	15
54	6
55	208
56	87
57	189
58	7
59	53
60	9
61	6
65	1
66	1
67	26
68	8
69	212
70	44
71	78
72	11
73	75
74	7
77	3
79	5
80	2
81	25
82	44
83	138
84	16
85	46
86	3
87	122
88	999
89	44
90	4
91	2
93	3
94	4
95	27
96	13
97	109
98	22
99	14
100	2
101	113
102	94
103	4
107	3
108	2
109	13
110	3
111	45
112	63
113	15
114	2
115	44
116	9
117	1
121	2
122	1
123	9
124	2
125	22
126	40
127	9
128	3
129	48
130	8
135	3
137	4
138	4
139	17
140	15
141	7
142	2
143	51
144	6
149	2
151	4
152	2
153	20
154	4
155	2
156	2
157	53
158	6
163	2
165	2
166	2
167	11
168	3
170	1
171	44
172	6
179	1
180	1
181	21
182	3
183	2
184	1
185	43
186	7
187	1
193	1
194	2
195	6
196	1
197	8
198	3
199	69
200	14
201	2
206	2
207	3
209	2
212	1
213	9
214	2
222	7
223	8
224	4
225	2
227	11
228	13
229	1
235	1
239	1
240	3
241	25
242	304
243	51
244	5
250	4
251	1
256	8
257	1
268	3
270	1
286	2
