Mass Spectrum: 2-Butanone, 4-(dimethylamino)-3-methyl-
Formula: C7H15NO
CAS: 22104-62-7
Molecular weight: 129
m/z	intensity
14	2
15	18
18	3
27	11
28	31
29	10
30	41
32	7
39	22
40	5
41	32
42	98
43	99
44	40
45	11
55	6
56	18
57	16
58	999
59	39
68	5
69	8
70	11
71	16
72	9
84	17
85	5
86	11
114	1
129	5
