Mass Spectrum: Pyrrocaine
Formula: C14H20N2O
CAS: 2210-77-7
Molecular weight: 232
m/z	intensity
15	2
26	1
27	8
28	13
29	10
30	10
38	1
39	14
40	3
41	19
42	99
43	10
44	3
50	2
51	7
52	5
53	9
54	11
55	66
56	16
57	6
58	1
62	1
63	4
64	2
65	11
66	3
67	3
68	3
69	2
70	87
71	5
75	1
76	2
77	30
78	8
79	11
80	6
81	2
82	20
83	35
84	999
85	58
86	2
89	3
90	2
91	30
92	8
93	4
94	1
95	1
102	3
103	10
104	6
105	13
106	6
107	1
108	1
110	2
115	1
116	2
117	5
118	13
119	8
120	36
121	9
122	1
130	4
131	2
132	6
133	2
134	3
144	2
145	1
146	2
147	4
148	6
149	1
159	1
160	1
163	3
230	1
231	1
232	6
233	1
