Mass Spectrum: 6-Methyl-4-(5-methyl-furan-2-yl)-2-(2-oxo-2-phenyl-ethylsulfanyl)-nicotinonitrile
Formula: C20H16N2O2S
CAS: 221052-16-0
Molecular weight: 348
m/z	intensity
39	17
40	12
41	6
42	6
43	73
44	5
45	10
46	3
50	16
51	67
52	13
53	15
55	3
57	3
62	4
63	14
64	7
65	19
69	4
71	3
74	4
75	10
77	400
78	31
79	6
81	4
82	3
87	3
88	7
89	15
90	8
91	27
92	3
100	4
101	8
102	14
103	11
105	999
106	76
107	7
113	3
114	8
115	34
116	15
117	5
118	5
120	8
121	5
126	3
127	11
128	11
129	6
130	5
131	4
132	4
133	3
134	13
140	13
141	9
142	17
143	8
144	7
152	4
153	5
154	5
155	9
156	5
157	5
159	3
160	3
167	3
168	9
169	11
170	8
171	6
172	3
173	3
174	3
181	3
182	4
183	4
185	6
186	4
187	5
188	3
197	7
198	7
199	6
200	6
201	13
202	3
214	6
215	13
228	5
229	10
230	9
241	5
243	464
244	71
245	26
246	3
315	16
316	4
317	6
319	3
331	6
347	43
348	93
349	23
350	6
