Mass Spectrum: Acrylanilide
Formula: C9H9NO
CAS: 2210-24-4
Molecular weight: 147
m/z	intensity
24	3
26	22
27	261
29	1
30	1
31	0
36	0
37	11
38	30
39	109
41	11
42	2
43	1
44	0
46	0
49	2
50	22
51	62
52	20
53	7
54	9
55	649
56	21
57	1
60	0
61	4
62	10
63	37
64	30
65	119
66	76
67	7
68	0
73	1
74	6
75	4
76	5
77	61
78	8
79	1
80	0
86	0
87	0
88	0
89	2
90	4
91	18
92	32
93	999
94	68
95	1
101	0
102	0
103	1
104	2
105	1
106	12
107	1
116	0
117	5
118	31
119	64
120	8
121	0
128	2
129	0
130	1
132	0
135	0
146	6
147	295
148	33
149	3
