Mass Spectrum: 2-Dodecen-1-ol
Formula: C12H24O
CAS: 22104-81-0
Molecular weight: 184
m/z	intensity
38	3
39	177
40	5
41	738
42	93
43	691
44	93
52	8
53	84
54	345
55	513
56	289
57	999
58	44
66	37
67	345
68	355
69	327
70	196
71	149
72	7
80	28
81	289
82	429
83	252
84	65
85	1
93	13
94	130
95	196
96	242
97	18
108	11
109	112
110	74
111	28
112	2
121	2
122	28
123	37
124	46
125	4
135	1
136	18
137	46
138	56
139	9
140	1
141	8
142	1
154	0
155	9
156	0
166	65
167	7
183	1
184	28
185	3
