Mass Spectrum: 2-Heptenoic acid, methyl ester
Formula: C8H14O2
CAS: 22104-69-4
Molecular weight: 142
m/z	intensity
27	487
28	35
29	174
30	8
31	16
33	2
35	3
37	4
38	23
39	309
40	116
41	854
42	104
43	296
45	63
47	3
49	0
50	14
51	37
52	21
53	142
54	49
55	920
56	312
57	28
58	32
59	334
60	10
61	2
62	3
63	6
64	2
65	23
66	6
67	48
68	373
69	373
70	26
71	93
72	20
73	12
74	448
75	16
76	1
77	7
78	0
81	311
82	207
83	10
85	61
86	6
87	999
88	101
89	7
90	2
91	0
93	30
94	3
95	18
96	1
97	6
99	19
100	165
101	198
102	11
103	2
110	238
111	284
112	29
113	552
114	53
115	6
125	11
126	0
127	32
128	2
141	0
142	115
143	11
