Mass Spectrum: 5,8,11-Heptadecatrienoic acid, methyl ester
Formula: C18H30O2
CAS: 22117-08-4
Molecular weight: 278
m/z	intensity
26	5
27	120
28	50
29	240
30	7
31	10
32	8
33	3
38	3
39	150
40	25
41	650
42	52
43	280
44	14
45	22
46	1
50	5
51	29
52	24
53	140
54	200
55	480
56	37
57	110
58	9
59	150
60	10
61	6
62	2
63	10
64	7
65	120
66	150
67	999
68	150
69	200
70	20
71	75
72	6
73	26
74	220
75	24
76	4
77	310
78	190
79	880
80	730
81	590
82	130
83	78
84	31
85	120
86	8
87	160
88	38
89	10
90	8
91	510
92	150
93	740
94	310
95	330
96	100
97	60
98	21
99	31
100	5
101	24
102	9
103	22
104	62
105	220
106	480
107	260
108	75
109	97
110	76
111	19
112	4
113	8
114	5
115	35
116	24
117	96
118	27
119	140
120	110
121	130
122	57
123	52
124	25
125	9
126	4
127	14
128	10
129	21
130	25
131	47
132	14
133	120
134	43
135	150
136	94
137	100
138	18
139	5
140	20
141	45
142	7
143	11
144	8
145	23
146	7
147	110
148	62
149	72
150	210
151	39
152	8
153	6
154	17
155	8
156	3
157	18
158	5
159	12
160	15
161	190
162	43
163	190
164	40
165	11
166	11
167	17
168	19
169	5
170	1
171	10
172	2
173	9
174	4
175	59
176	15
177	56
178	15
179	10
180	170
181	35
182	9
183	3
184	1
185	4
186	1
187	5
188	2
189	20
190	10
191	14
192	1
193	20
194	28
195	9
196	4
197	2
198	2
199	4
200	2
201	3
202	6
203	8
204	28
205	10
206	4
207	24
208	25
209	5
210	7
211	2
215	2
216	1
217	6
218	5
219	4
220	2
221	31
222	9
223	3
224	13
225	3
227	2
228	4
229	27
230	6
231	2
232	1
233	1
234	2
235	10
236	6
237	7
238	2
239	1
241	2
243	2
244	3
245	5
246	9
247	9
248	3
249	6
250	4
251	2
252	1
253	1
263	1
276	5
277	8
278	170
279	32
280	8
281	2
