Mass Spectrum: Cyclohexanamine, N-hydroxy-
Formula: C6H13NO
CAS: 2211-64-5
Molecular weight: 115
m/z	intensity
15	9
16	1
17	3
18	11
26	6
27	62
28	110
29	67
30	71
31	4
32	2
33	4
34	30
39	77
40	11
41	273
42	57
43	174
44	19
45	11
46	83
47	2
50	4
51	9
52	6
53	32
54	122
55	585
56	954
57	51
58	3
59	137
60	6
61	1
62	1
63	1
65	7
66	5
67	126
68	29
69	40
70	115
71	8
72	999
73	58
74	4
77	9
78	2
79	22
80	6
81	44
82	108
83	308
84	22
85	2
86	53
87	4
93	1
94	2
95	1
96	23
97	33
98	79
99	201
100	28
101	1
112	1
113	12
114	19
115	297
116	34
117	2
