Mass Spectrum: Undecanedioic acid, octadecafluoro-, dimethyl ester
Formula: C13H6F18O4
CAS: 22116-91-2
Molecular weight: 568
m/z	intensity
15	380
59	999
69	100
81	30
100	40
109	30
119	40
131	120
324	60
424	90
509	40
521	40
524	110
549	40
