Mass Spectrum: Guanidine, (phenylmethyl)-
Formula: C8H11N3
CAS: 2211-57-6
Molecular weight: 149
m/z	intensity
27	40
28	130
29	20
30	120
39	70
40	10
41	30
42	120
43	240
44	200
45	10
50	60
51	100
52	30
53	20
58	20
59	30
60	10
63	40
65	110
66	20
71	70
72	90
76	20
77	140
78	70
79	240
80	20
86	20
89	40
90	20
91	180
92	60
93	100
103	60
104	110
105	40
106	999
107	180
108	20
119	40
131	40
132	70
133	20
148	300
149	630
150	60
