Mass Spectrum: 1-Phenyl-2,4,5-trioxoimidazolidine
Formula: C9H6N2O3
CAS: 2211-33-8
Molecular weight: 190
m/z	intensity
40	20
41	30
42	70
43	40
44	40
45	30
50	40
51	60
52	30
59	20
61	10
62	20
63	70
64	150
65	40
70	50
74	10
76	20
77	20
81	20
90	20
91	290
92	20
103	10
119	999
120	90
190	660
