Mass Spectrum: 1,4-Naphthalenediol, 2-methyl-, 1-benzoate
Formula: C18H14O3
CAS: 2211-28-1
Molecular weight: 278
m/z	intensity
27	7
28	4
29	6
37	3
38	6
39	28
40	3
41	15
42	4
43	21
44	10
45	7
49	2
50	38
51	74
52	26
53	5
54	2
55	19
56	6
57	22
58	2
60	5
61	2
62	3
63	12
65	6
66	2
67	9
68	6
69	22
70	6
71	13
73	7
74	14
75	14
76	38
77	394
78	175
79	15
81	11
82	6
83	13
84	6
85	8
87	4
89	8
91	19
92	2
93	3
95	7
96	4
97	9
98	7
99	4
101	6
102	5
103	3
104	14
105	999
106	120
107	9
109	5
110	3
111	5
112	3
113	4
114	5
115	58
116	20
117	22
118	3
121	3
123	4
125	4
126	4
127	21
128	10
129	7
131	3
137	3
139	3
143	2
144	8
145	19
146	2
155	6
172	8
173	75
174	12
184	5
278	338
279	75
280	10
