Mass Spectrum: 1,2,3,5,6,7-Hexahydro-inden-4-one
Formula: C9H12O
CAS: 22118-01-0
Molecular weight: 136
m/z	intensity
26	8
27	65
28	19
29	18
31	3
37	3
38	14
39	133
40	30
41	63
42	21
43	19
44	2
49	2
50	33
51	86
52	98
53	62
54	14
55	50
56	6
57	8
58	4
59	3
60	3
61	4
62	12
63	41
64	12
65	74
66	37
67	41
68	12
69	14
70	15
71	6
72	2
73	2
74	9
75	11
76	8
77	152
78	83
79	365
80	161
81	30
82	8
83	19
84	15
85	6
86	4
87	2
89	7
90	4
91	78
92	21
93	68
94	24
95	19
96	14
97	62
98	21
99	5
100	2
101	2
102	3
103	8
104	3
105	17
106	6
107	42
108	999
109	104
110	24
111	7
117	5
118	7
119	3
121	23
122	9
134	3
135	28
136	307
137	46
138	4
