Mass Spectrum: Imidazole-4-carboxamide, 5-nitro-N-(3-tolyl)-
Formula: C11H10N4O3
CAS: 221223-57-0
Molecular weight: 246
m/z	intensity
33	0
34	0
35	2
36	16
37	3
38	30
39	101
40	49
41	40
42	17
43	20
44	40
45	21
46	6
47	1
48	0
50	20
51	54
52	40
53	50
54	24
55	32
56	13
57	9
58	4
59	1
60	2
61	2
62	10
63	29
64	20
65	73
66	47
67	37
68	17
69	102
70	9
71	4
72	13
73	14
74	27
75	8
76	15
77	150
78	59
79	78
80	18
81	8
82	5
83	6
84	3
85	5
86	7
87	2
88	2
89	25
90	21
91	66
92	10
93	7
94	36
95	12
96	29
97	6
99	9
100	20
101	8
102	9
103	14
104	35
105	19
106	312
107	999
108	95
109	9
110	10
111	4
112	2
113	15
114	4
115	3
116	14
117	15
118	9
119	5
120	2
121	1
122	17
123	22
124	6
125	6
126	1
127	4
128	8
129	6
130	8
131	8
132	21
133	14
134	4
135	3
136	1
137	1
138	1
139	3
140	21
141	23
142	5
143	13
144	6
145	10
146	8
147	3
148	2
149	4
150	0
151	0
152	0
153	1
154	1
155	4
156	4
157	27
158	9
159	14
160	4
161	1
162	0
163	1
164	0
165	0
167	1
168	1
169	1
170	8
171	9
172	6
173	6
174	2
175	5
176	0
177	0
178	0
179	0
180	0
181	0
182	6
183	2
184	2
185	14
186	6
187	2
188	0
189	0
190	0
192	0
194	0
196	0
197	1
198	12
199	18
200	80
201	12
202	7
203	0
204	0
211	7
212	4
213	3
214	0
215	0
216	3
217	0
218	0
219	0
227	0
228	5
229	17
230	2
231	2
232	0
235	0
243	0
244	1
245	10
246	243
247	36
248	3
249	0
