Mass Spectrum: Indole, 3-(2-(dimethylamino)ethyl)-5-methyl-
Formula: C13H18N2
CAS: 22120-39-4
Molecular weight: 202
m/z	intensity
42	31
44	1
50	3
51	8
52	3
53	2
55	1
56	4
57	9
58	999
59	35
60	1
61	1
62	2
63	9
64	2
65	6
67	1
70	1
71	2
74	1
75	4
76	4
77	13
78	3
79	1
82	1
84	1
85	1
86	1
87	2
88	1
89	9
90	3
91	15
92	2
93	1
94	1
98	1
99	1
100	2
101	5
102	9
103	5
104	2
105	1
113	2
115	53
116	13
117	8
118	1
120	1
125	1
126	1
127	11
128	21
129	13
130	11
131	3
132	1
139	1
140	4
141	6
142	35
143	50
144	92
145	10
146	1
152	1
154	8
155	3
156	24
157	19
158	29
159	2
160	1
167	1
168	1
169	3
170	2
172	1
184	1
185	2
186	1
199	2
200	2
201	1
202	157
203	22
204	1
