Mass Spectrum: Tetradecanoic acid, 2-hydroxyethyl ester
Formula: C16H32O3
CAS: 22122-18-5
Molecular weight: 272
m/z	intensity
15	40
17	36
18	150
19	14
26	20
27	230
28	90
29	460
30	17
31	69
32	5
39	100
40	30
41	730
42	230
43	999
44	360
45	350
46	11
47	5
51	7
52	6
53	42
54	67
55	790
56	190
57	570
58	55
59	38
60	220
61	340
62	14
63	11
65	8
66	9
67	90
68	65
69	350
70	100
71	270
72	24
73	290
74	53
75	13
77	10
78	6
79	23
80	14
81	73
82	50
83	200
84	300
85	140
86	280
87	110
88	20
89	14
91	8
92	4
93	17
94	13
95	64
96	35
97	170
98	580
99	550
100	48
101	36
102	10
103	12
104	960
105	80
106	11
107	13
108	10
109	36
110	24
111	100
112	180
113	48
114	32
115	39
116	9
117	400
118	29
119	7
121	19
122	8
123	16
124	11
125	37
126	43
127	14
128	7
129	49
130	10
131	22
132	5
133	9
135	18
136	6
137	9
138	9
139	18
140	31
141	25
142	7
143	16
144	5
145	9
146	10
147	5
149	12
150	5
151	6
152	6
153	16
154	74
155	52
156	9
157	11
158	4
159	19
160	7
163	5
166	14
167	26
168	29
169	17
170	4
171	11
173	44
174	37
175	10
176	7
177	17
178	5
179	5
181	13
182	9
183	8
185	28
186	7
187	10
188	4
191	6
192	9
193	7
194	5
195	6
196	4
197	12
198	4
199	10
200	4
201	4
202	4
203	5
204	4
205	5
207	8
208	6
209	11
210	44
211	430
212	66
213	12
215	5
216	4
217	5
218	10
219	10
220	4
225	9
228	70
229	180
230	32
231	7
239	13
242	20
243	8
253	7
254	28
255	36
256	19
257	9
267	6
272	74
273	22
274	6
