Mass Spectrum: 1,3-Bis(2-chloroethyl)urea
Formula: C5H10Cl2N2O
CAS: 2214-72-4
Molecular weight: 184
m/z	intensity
35	52
36	216
37	16
38	76
39	23
40	92
41	152
42	385
43	359
44	999
45	103
46	3
47	15
48	30
49	266
50	17
51	88
52	7
53	7
54	11
55	81
56	209
57	33
58	8
59	2
60	95
61	35
62	56
63	873
64	66
65	368
66	11
67	9
68	12
69	26
70	56
71	20
72	8
73	344
74	13
75	5
76	17
77	34
78	213
79	25
80	103
81	13
82	15
83	12
84	5
85	26
86	117
87	47
88	2
90	2
91	2
92	2
93	1
94	1
95	6
96	2
97	8
98	1
99	28
100	2
104	5
105	9
106	106
107	8
108	36
109	5
110	1
111	5
112	6
113	32
114	2
115	1
117	8
119	5
121	2
122	36
123	4
124	12
125	28
126	2
127	1
134	3
135	741
136	63
137	275
138	16
139	3
141	2
147	7
148	62
149	118
150	28
151	37
152	2
155	0
157	1
166	0
167	2
168	3
184	148
185	34
186	98
187	19
188	16
