Mass Spectrum: Stigmastane-3,6-dione, (5.alpha.)-
Formula: C29H48O2
CAS: 22149-69-5
Molecular weight: 428
m/z	intensity
27	76
28	8
29	134
30	54
32	54
38	27
39	134
40	76
41	594
42	179
43	902
44	30
45	3
50	48
51	70
52	54
53	143
54	73
55	999
56	280
57	786
58	79
59	33
60	27
63	33
64	30
65	79
66	51
67	432
68	265
69	740
70	274
71	490
72	67
73	24
74	21
76	33
77	192
78	61
79	457
80	131
81	573
82	219
83	411
84	301
85	368
86	33
87	30
89	27
90	30
91	286
92	85
93	384
94	155
95	423
96	143
97	365
98	615
99	176
100	21
103	33
104	33
105	207
106	91
107	350
108	271
109	359
110	79
111	201
112	61
113	76
114	21
115	48
116	27
117	85
118	24
119	146
120	57
121	219
122	186
123	234
124	76
125	94
126	42
127	61
128	48
129	45
130	21
131	70
132	33
133	155
134	76
135	173
136	167
137	350
138	118
139	103
140	33
141	146
142	48
143	48
145	70
146	33
147	115
148	70
149	347
150	97
151	85
152	76
153	48
154	48
155	79
156	33
157	48
158	27
159	76
160	30
161	118
162	54
163	100
164	70
165	70
166	33
167	51
168	61
169	64
170	21
171	33
172	21
173	64
174	30
175	112
176	45
177	106
178	85
179	45
180	33
181	39
182	24
183	42
185	33
187	64
189	85
190	48
191	115
192	39
193	61
194	24
195	27
197	24
199	39
201	45
202	21
203	76
204	39
205	54
206	24
207	24
211	24
213	27
215	54
217	79
218	42
219	39
220	30
223	21
227	33
229	48
231	164
232	36
233	21
239	21
241	21
243	48
244	33
245	454
246	225
247	70
257	27
259	70
260	70
261	45
269	42
273	33
274	24
275	61
276	24
285	76
286	54
287	179
288	61
290	21
299	21
300	27
301	24
313	24
314	24
315	33
329	45
330	67
331	30
342	24
397	33
398	15
412	30
413	54
426	33
428	411
429	85
430	24
