Mass Spectrum: Butyl 3-hydroxy-2-methylene-butanoate
Formula: C9H16O3
CAS: 22141-40-8
Molecular weight: 172
m/z	intensity
41	501
43	391
45	221
53	156
55	514
56	215
57	432
70	209
71	304
72	80
73	712
81	285
82	64
83	579
87	41
97	250
98	537
99	634
101	999
115	61
116	134
117	20
125	4
129	113
130	9
139	4
155	20
156	3
157	225
158	17
