Mass Spectrum: Allyldimethyl(vinyl)silane
Formula: C7H14Si
CAS: 22146-25-4
Molecular weight: 126
m/z	intensity
28	130
29	37
30	18
31	76
39	51
40	8
41	81
42	27
43	160
44	49
45	68
59	761
60	47
61	17
69	8
71	29
85	999
86	91
87	39
95	10
99	39
100	18
101	10
110	9
111	51
126	21
