Mass Spectrum: 1H-Imidazole-1-ethanol, 2-methyl-.alpha.-phenyl-
Formula: C12H14N2O
CAS: 22159-32-6
Molecular weight: 202
m/z	intensity
50	100
51	190
52	170
54	120
55	180
77	310
78	870
79	350
81	130
82	50
95	370
96	999
97	80
107	290
202	150
