Mass Spectrum: Oxosuccinamide
Formula: C4H6N2O3
CAS: 2215-07-8
Molecular weight: 130
m/z	intensity
12	3
13	3
14	13
15	14
16	20
17	37
18	120
19	1
24	2
25	4
26	23
27	119
28	148
29	24
30	14
31	8
32	1
37	1
38	19
39	47
40	51
41	90
42	206
43	326
44	619
45	60
46	4
50	3
51	8
52	7
53	10
54	5
55	4
56	2
57	4
58	5
59	440
60	15
61	1
65	1
66	4
67	70
68	57
69	402
70	21
71	8
76	1
78	1
81	1
82	1
83	1
84	2
85	14
86	999
87	44
88	6
91	1
95	2
97	2
98	2
102	8
107	1
111	2
112	9
113	21
114	15
129	6
130	185
131	29
132	2
