Mass Spectrum: Carbonic acid, 4-methoxyphenyl methyl ester
Formula: C9H10O4
CAS: 22159-41-7
Molecular weight: 182
m/z	intensity
14	1
15	32
26	14
27	4
28	9
29	8
30	2
31	1
37	3
38	14
39	23
40	2
41	64
42	2
43	2
44	4
45	2
49	1
50	15
51	22
52	42
53	24
54	35
55	6
59	71
60	2
61	5
62	12
63	42
64	37
65	32
66	5
67	14
68	1
69	7
73	1
74	5
75	3
76	4
77	51
78	7
79	17
80	35
81	7
82	11
91	1
92	39
93	3
94	3
95	217
96	14
97	1
103	1
105	1
107	62
108	18
109	15
110	1
121	2
122	1
123	999
124	89
125	8
135	2
138	119
139	10
140	1
151	4
166	1
182	373
183	37
184	5
