Mass Spectrum: 3-(4-Nitrophenyl)propiolic acid
Formula: C9H5NO4
CAS: 2216-24-2
Molecular weight: 191
m/z	intensity
37	84
38	132
39	193
44	128
45	209
46	290
49	161
50	480
51	399
53	80
61	246
62	355
63	472
74	655
75	367
77	221
86	43
87	100
88	124
89	999
90	39
98	96
100	84
101	221
105	193
116	96
117	173
133	177
145	84
147	64
161	242
162	15
191	910
192	89
