Mass Spectrum: 2-Bromocholestanone
Formula: C27H45BrO
CAS: 22164-15-4
Molecular weight: 464
m/z	intensity
41	445
43	999
44	23
47	1
49	13
51	8
53	85
55	620
56	73
57	286
58	7
65	25
67	216
68	118
69	150
70	23
71	131
72	6
77	54
79	144
80	12
81	310
82	60
83	115
84	11
85	27
86	3
88	1
91	99
93	201
94	49
95	249
96	28
97	56
98	3
99	2
103	7
105	116
107	155
108	24
109	91
110	5
111	51
112	5
113	3
115	8
117	21
118	4
119	43
120	11
121	145
122	51
123	119
124	27
125	14
126	9
127	5
129	7
131	24
132	2
133	54
134	23
135	57
136	11
137	29
139	3
140	4
143	9
144	1
145	27
147	41
148	4
149	20
150	1
151	8
152	2
153	3
157	9
159	16
161	39
163	44
164	6
165	7
171	5
173	17
174	2
175	39
176	9
177	7
179	1
185	7
187	14
188	1
189	13
191	1
193	1
199	2
201	11
202	3
203	17
204	8
211	3
213	15
215	17
216	1
217	25
227	9
229	10
231	52
232	34
233	9
241	6
243	8
245	12
246	9
247	1
255	5
257	3
263	7
268	1
275	4
282	3
283	4
284	3
293	1
295	33
296	4
297	31
298	5
308	3
309	63
310	43
311	53
312	43
313	11
315	7
316	4
324	7
325	3
326	7
353	1
371	1
383	1
384	8
385	30
386	12
449	8
451	6
464	61
465	20
466	61
467	23
468	3
