Mass Spectrum: Butanoic acid, (tetrahydro-2-furanyl)methyl ester
Formula: C9H16O3
CAS: 2217-33-6
Molecular weight: 172
m/z	intensity
26	4
27	20
28	3
29	8
31	3
36	13
38	4
39	19
40	4
41	52
42	19
43	149
44	6
50	4
51	5
52	11
53	5
54	7
55	13
56	6
57	5
67	6
69	5
70	21
71	999
72	48
73	5
78	3
79	20
83	6
84	117
85	16
87	6
91	3
101	3
103	3
