Mass Spectrum: 1-Naphthalenamine, 1,2,3,4-tetrahydro-
Formula: C10H13N
CAS: 2217-40-5
Molecular weight: 147
m/z	intensity
14	1
15	6
16	1
17	2
18	6
26	3
27	27
28	77
29	9
30	54
31	1
32	1
37	3
38	8
39	63
40	7
41	29
42	28
43	19
44	3
45	2
46	8
47	1
49	1
50	25
51	65
52	20
53	18
54	13
55	3
56	49
57	4
58	26
59	49
60	4
61	4
62	13
63	41
64	20
65	56
66	9
67	4
68	3
69	2
70	6
71	23
72	9
73	2
74	12
75	15
76	12
77	71
78	27
79	17
80	5
81	2
82	1
85	1
86	4
87	6
88	3
89	36
90	31
91	170
92	187
93	19
94	3
95	1
98	2
99	1
100	1
101	7
102	16
103	28
104	77
105	16
106	8
107	1
108	2
109	1
110	6
111	1
113	3
114	4
115	101
116	41
117	73
118	272
119	619
120	62
121	3
122	2
123	2
125	1
126	8
127	51
128	104
129	179
130	999
131	169
132	24
133	2
140	1
141	1
142	3
143	16
144	25
145	15
146	298
147	49
148	4
