Mass Spectrum: 2-Naphthalenamine, 5,6,7,8-tetrahydro-
Formula: C10H13N
CAS: 2217-43-8
Molecular weight: 147
m/z	intensity
39	110
41	90
52	60
63	60
65	110
77	110
78	60
89	50
91	180
92	50
93	50
104	60
106	70
115	100
117	90
118	230
119	999
120	110
130	90
131	80
132	70
144	50
146	420
147	820
148	100
