Mass Spectrum: Butanoic acid, heptafluoro-, sodium salt
Formula: C4F7NaO2
CAS: 2218-54-4
Molecular weight: 236
m/z	intensity
28	19
31	273
43	16
44	721
45	11
46	5
50	83
55	11
62	54
65	30
69	999
70	13
74	30
81	176
82	5
93	78
100	500
101	11
112	16
131	776
132	30
150	362
151	12
215	1
259	37
260	1
