Mass Spectrum: Benzenamine, 3-(4-morpholylsulfonyl)-
Formula: C10H14N2O3S
CAS: 22184-97-0
Molecular weight: 242
m/z	intensity
33	3
34	15
36	3
37	2
38	14
39	91
40	20
41	56
42	65
43	18
44	47
45	10
46	0
48	9
50	6
51	10
52	23
53	8
54	30
55	27
56	572
57	65
58	11
59	5
60	2
61	0
62	7
63	32
64	39
65	242
66	37
67	4
68	2
69	5
70	5
71	3
72	3
74	3
75	2
76	2
77	7
78	5
79	3
80	8
81	3
82	1
84	26
86	999
87	48
88	4
90	8
91	26
92	331
93	481
94	34
95	3
96	1
97	2
98	4
104	2
105	7
106	30
107	18
108	5
109	7
110	1
111	0
112	3
113	0
117	0
118	4
119	19
120	35
121	6
122	2
123	1
124	0
125	2
130	0
131	0
132	2
133	2
134	6
135	2
140	10
141	2
145	0
147	18
148	8
149	2
150	1
156	65
157	21
158	5
159	0
163	1
171	1
177	6
178	3
182	0
184	8
185	2
211	0
240	0
242	172
243	18
244	8
