Mass Spectrum: 1-Phenylthio-1-acetoxy-2-propanone
Formula: C11H12O3S
CAS: 22198-56-7
Molecular weight: 224
m/z	intensity
15	90
17	20
18	80
27	20
28	50
29	10
38	10
39	90
42	20
43	999
44	80
45	80
50	30
51	100
58	10
59	20
63	20
65	130
66	90
69	50
77	130
78	40
82	10
84	30
87	90
103	10
108	20
109	160
110	570
111	120
112	30
113	10
115	150
116	10
121	40
123	20
132	10
135	10
137	10
138	10
139	350
140	30
141	20
149	10
150	10
152	40
153	60
154	10
165	40
166	10
181	440
182	50
183	20
224	120
225	20
