Mass Spectrum: Lifibrate
Formula: C20H21Cl2NO4
CAS: 22204-91-7
Molecular weight: 409
m/z	intensity
15	5
26	2
27	9
28	9
29	26
30	9
31	1
36	4
37	2
38	6
39	20
40	2
41	15
42	86
43	40
44	77
45	2
46	1
49	2
50	12
51	10
52	3
53	9
54	8
55	129
56	13
57	21
58	8
61	3
62	4
63	12
64	9
65	24
66	3
67	7
68	10
69	9
70	64
71	11
72	2
73	10
74	5
75	38
76	9
77	10
78	2
79	3
80	4
81	7
82	37
83	9
84	3
85	3
86	1
87	1
89	1
91	1
92	3
93	8
94	22
95	8
96	999
97	162
98	569
99	46
100	10
101	7
102	4
110	1
111	65
112	17
113	23
114	25
115	4
125	1
127	18
128	101
129	17
130	33
131	4
133	1
139	21
140	9
141	36
142	8
143	8
149	1
151	1
152	1
154	3
155	7
156	2
157	2
158	1
167	11
168	9
169	5
170	6
171	2
175	2
185	12
186	6
187	5
188	2
203	2
204	9
205	2
206	3
232	1
233	1
239	1
254	3
256	1
267	56
268	9
269	37
270	6
271	6
272	1
281	20
282	72
283	18
284	24
285	4
298	1
312	6
313	1
314	4
374	4
375	2
376	2
408	4
409	171
410	42
411	114
412	25
413	21
414	4
