Mass Spectrum: 1-Azabicyclo[2.2.2]octane-2-carboxylic acid, 5-oxo-, ethyl ester
Formula: C10H15NO3
CAS: 22207-79-0
Molecular weight: 197
m/z	intensity
39	41
40	18
41	225
42	420
43	95
44	65
45	6
54	65
55	508
56	71
57	53
58	47
59	35
60	6
67	124
68	461
69	290
70	47
71	35
72	6
73	24
74	6
80	24
81	89
82	231
83	53
84	53
85	24
86	53
87	6
88	12
89	6
94	47
95	83
96	999
97	479
98	71
99	47
100	35
101	6
108	12
109	41
110	53
111	24
112	53
113	6
124	112
125	41
126	100
127	18
128	71
129	6
140	644
141	53
142	6
152	18
153	12
154	53
155	6
168	47
169	875
170	106
171	6
197	213
198	53
199	6
