Mass Spectrum: Quinoline, 1-benzoyldecahydro-, trans-
Formula: C16H21NO
CAS: 22218-33-3
Molecular weight: 243
m/z	intensity
39	40
41	10
42	30
50	30
51	80
53	30
54	30
55	50
56	20
67	40
68	20
69	20
76	20
77	420
78	40
79	30
80	20
81	30
105	999
106	80
109	40
110	30
122	40
134	30
137	130
138	50
148	20
200	310
201	70
214	20
242	70
243	250
244	50
