Mass Spectrum: (1S,4aS,4bS,7S,8aS,10aS)-7-Isopropyl-1,4a-dimethyltetradecahydrophenanthrene
Formula: C19H34
CAS: 2221-95-6
Molecular weight: 262
m/z	intensity
27	52
29	70
30	4
39	72
40	18
41	591
42	48
43	378
44	11
52	9
53	145
54	79
55	727
56	33
57	52
65	60
66	30
67	721
68	160
69	487
70	24
71	21
77	122
78	23
79	294
80	113
81	999
82	384
83	401
84	253
85	30
86	2
88	2
91	95
92	15
93	201
94	80
95	737
96	118
97	160
98	16
105	59
106	19
107	159
108	172
109	737
110	112
111	79
112	12
121	163
122	80
123	320
124	86
125	52
126	9
135	223
136	119
137	273
138	154
139	18
147	16
149	139
150	40
151	74
152	27
153	7
162	11
163	409
164	174
165	41
166	6
176	6
177	72
178	104
179	106
180	13
191	62
192	16
205	10
218	16
219	183
220	43
221	4
247	260
248	42
249	4
262	402
263	90
264	8
