Mass Spectrum: Cylindrocarine, 1-benzoyl-20-oxo-
Formula: C28H30N2O5
CAS: 22226-27-3
Molecular weight: 474
m/z	intensity
41	60
42	40
43	40
44	20
45	20
50	10
51	20
53	10
54	10
55	50
56	30
57	80
58	10
67	30
68	10
69	10
70	40
71	40
77	280
78	30
79	10
80	10
81	20
82	10
83	20
84	10
85	10
91	20
93	10
94	20
95	60
96	30
101	10
105	999
106	90
108	20
109	50
110	20
112	40
113	20
122	100
123	10
128	10
129	150
130	30
132	10
133	20
134	10
143	10
144	10
146	10
147	30
149	20
154	10
155	10
156	10
158	20
159	30
160	80
161	20
167	10
168	70
169	10
170	10
171	10
172	10
173	10
174	20
182	270
183	50
184	50
185	20
186	30
197	10
198	10
199	20
210	60
211	20
212	40
213	10
224	10
225	10
226	10
237	10
238	20
239	20
240	10
241	10
248	10
251	10
253	40
254	20
264	40
265	30
266	140
267	40
279	40
280	20
281	250
282	90
283	20
294	10
310	20
311	10
355	10
358	10
369	60
370	60
371	10
385	50
386	940
387	660
388	160
389	30
414	20
415	60
417	10
459	20
473	50
474	970
475	330
476	60
