Mass Spectrum: S,S'-Trimethylene bis(phenylmethanethiosulfonate)
Formula: C17H20O4S4
CAS: 2224-61-5
Molecular weight: 416
m/z	intensity
26	2
27	6
28	9
29	1
32	5
33	1
34	5
37	2
38	5
39	44
40	4
41	95
42	9
43	4
44	8
45	34
46	12
47	6
48	40
49	1
50	9
51	21
52	8
53	2
55	2
56	1
57	4
58	4
59	13
60	9
61	9
62	9
63	32
64	193
65	198
66	14
67	1
69	3
70	1
71	6
72	14
73	21
74	9
75	3
76	4
77	19
78	27
79	4
80	3
81	1
82	1
83	2
84	1
85	2
86	3
87	4
88	1
89	54
90	26
91	999
92	120
93	6
94	1
95	1
96	1
97	2
99	1
103	3
104	4
105	29
106	169
107	16
108	14
109	2
110	2
111	1
115	1
117	3
121	20
122	41
123	31
124	12
125	2
126	1
129	2
130	6
131	8
132	2
133	3
135	2
136	1
137	4
138	9
139	2
140	4
149	1
151	1
152	1
153	1
157	8
163	11
164	5
165	22
166	6
167	3
168	1
178	3
179	5
180	5
181	5
182	8
183	4
196	5
197	151
198	19
199	13
200	1
211	1
212	1
213	1
214	8
215	1
224	1
228	2
229	14
230	2
231	2
246	2
261	17
262	2
263	2
287	1
320	11
321	2
322	1
352	1
