Mass Spectrum: 1,2-Cyclohexanediol, monoacetate
Formula: C8H14O3
CAS: 22241-34-5
Molecular weight: 158
m/z	intensity
22	0
23	0
24	0
25	1
26	17
27	147
28	33
29	87
30	6
31	79
32	0
37	2
38	6
39	102
40	19
41	313
42	78
43	999
44	75
45	22
47	16
50	5
51	9
52	4
53	27
54	31
55	83
56	22
57	162
58	15
59	2
60	12
61	51
62	1
63	1
65	6
66	4
67	118
68	18
69	188
70	366
71	33
72	4
73	5
74	7
75	1
77	11
78	3
79	221
80	40
81	33
82	7
83	121
84	8
85	4
86	2
87	2
93	0
95	2
96	5
97	213
98	621
99	44
100	3
101	0
102	0
111	0
112	4
113	0
114	1
115	22
116	21
117	2
130	1
140	12
141	1
157	1
158	1
159	1
