Mass Spectrum: Bicyclo[2.2.1]heptan-2-amine, N,N,1,7,7-pentamethyl-
Formula: C12H23N
CAS: 22243-41-0
Molecular weight: 181
m/z	intensity
41	449
42	349
43	147
44	170
45	93
46	30
50	12
51	42
52	21
53	144
54	35
55	226
56	156
57	40
58	102
59	42
63	12
65	51
66	23
67	156
68	65
69	81
70	86
71	216
72	430
73	30
77	86
78	23
79	86
80	23
81	86
82	116
83	40
84	193
85	12
91	65
92	7
93	58
94	35
95	999
96	156
97	51
98	279
99	40
105	7
107	23
108	30
109	30
110	926
111	112
112	12
121	16
122	16
124	30
125	7
126	23
136	23
137	7
138	23
153	7
166	81
167	7
180	23
181	298
182	47
183	16
