Mass Spectrum: S,S'-Ethylene-p-toluenethiosulfonate
Formula: C16H18O4S4
CAS: 2225-23-2
Molecular weight: 402
m/z	intensity
25	1
26	9
27	19
28	19
29	1
32	7
33	3
34	9
37	1
38	4
39	54
40	5
41	19
42	1
43	2
44	10
45	88
46	21
47	9
48	27
49	1
50	10
51	26
52	8
53	7
55	1
57	6
58	16
59	43
60	42
61	8
62	9
63	34
64	210
65	227
66	16
67	17
68	1
69	7
70	2
71	5
73	1
74	2
75	3
76	5
77	53
78	23
79	29
80	5
82	2
83	1
84	2
85	3
86	1
87	2
88	1
89	47
90	36
91	999
92	336
93	20
94	28
95	6
96	9
97	4
98	1
103	1
105	7
106	4
107	19
108	13
109	6
110	2
111	14
112	1
115	2
116	1
117	1
118	1
119	2
121	19
122	18
123	70
124	61
125	7
126	6
128	2
134	1
135	4
136	1
137	5
138	6
139	922
140	86
141	46
142	4
147	1
148	1
149	5
150	6
151	9
152	3
153	5
154	6
155	902
156	114
157	99
158	9
159	3
165	7
166	4
167	5
168	1
171	3
178	1
179	1
180	1
181	6
182	9
183	14
184	10
185	2
186	1
187	2
197	2
198	4
199	6
200	1
201	5
211	1
212	1
213	6
214	26
215	35
216	6
217	4
218	1
230	1
245	1
246	22
247	963
248	119
249	136
250	14
251	7
278	7
279	3
280	1
338	1
339	1
344	1
