Mass Spectrum: Bicyclo[4.2.0]octa-1,3,5-triene, 7,8-dibromo-
Formula: C8H6Br2
CAS: 22250-72-2
Molecular weight: 260
m/z	intensity
25	1
26	10
27	4
36	0
37	19
38	34
39	40
40	0
42	0
48	1
49	21
50	199
51	236
52	54
53	3
60	2
61	27
62	52
63	98
64	7
65	0
72	1
73	17
74	129
75	154
76	172
77	14
78	1
79	12
80	2
81	11
82	1
84	0
85	3
86	6
87	19
88	1
89	0
90	17
91	19
92	1
93	1
94	0
95	0
96	0
97	5
98	24
99	10
100	7
101	103
102	999
103	83
104	2
105	0
106	1
107	0
116	0
117	2
118	1
119	1
128	1
129	1
130	5
131	8
132	4
140	0
141	1
142	0
143	2
152	0
153	0
154	0
155	1
156	0
157	0
160	0
165	0
167	0
169	0
181	583
182	53
183	564
184	48
185	1
260	130
261	11
262	250
263	21
264	122
265	11
266	0
