Mass Spectrum: Cyclodeca[b]furan-2(3H)-one, 3a,4,5,8,9,11a-hexahydro-3,6,10-trimethyl-, [3S-(3R*,3aR*,6E,10E,11aR*)]-
Formula: C15H22O2
CAS: 2225-79-8
Molecular weight: 234
m/z	intensity
18	160
27	160
28	53
29	200
39	240
40	53
41	333
42	27
43	93
51	53
52	27
53	307
54	67
55	560
56	40
57	27
65	107
66	40
67	373
68	107
69	173
81	999
82	200
83	160
91	320
92	53
93	373
94	93
95	213
96	93
97	53
105	240
106	53
107	387
108	147
109	493
110	107
111	40
115	27
117	40
119	173
120	80
121	333
122	147
123	227
124	107
125	200
131	80
133	107
134	93
135	107
136	53
137	107
138	53
143	40
145	160
146	40
147	80
148	27
149	107
150	67
151	120
152	307
153	133
154	27
159	40
160	107
161	333
162	67
163	107
164	40
165	93
173	53
175	53
176	40
177	227
178	93
179	93
189	27
190	40
191	120
192	67
203	40
219	307
220	53
234	573
235	93
