Mass Spectrum: Cyclobutanecarboxylic acid, 1-amino-
Formula: C5H9NO2
CAS: 22264-50-2
Molecular weight: 115
m/z	intensity
39	81
40	49
41	465
42	608
43	41
44	10
45	161
51	10
52	20
53	19
54	31
55	41
56	20
57	10
60	29
67	10
68	22
69	38
70	111
71	10
87	999
88	38
115	10
