Mass Spectrum: 2,4,6(1H,3H,5H)-Pyrimidinetrione, 5-phenyl-
Formula: C10H8N2O3
CAS: 22275-34-9
Molecular weight: 204
m/z	intensity
33	2
34	3
35	4
36	8
37	34
38	179
39	314
40	96
41	97
43	405
44	164
45	67
46	1
48	1
49	14
50	208
51	245
52	64
53	28
54	45
55	53
56	8
57	14
59	54
61	58
62	183
63	445
64	137
65	25
66	10
67	25
68	9
69	23
70	80
71	6
73	10
74	39
75	38
76	34
77	136
78	36
79	12
80	8
81	4
82	13
83	10
84	12
85	16
86	31
87	31
89	629
90	999
91	78
92	7
93	3
94	1
95	2
96	1
97	7
98	12
99	2
100	1
101	1
102	4
103	7
104	56
105	30
106	6
107	3
108	1
109	0
110	0
111	1
112	2
113	1
114	2
115	7
116	5
118	977
119	76
120	5
121	1
122	0
123	2
125	55
126	4
127	1
128	1
129	1
130	0
132	19
133	5
134	2
136	1
137	0
139	1
140	0
141	0
142	0
143	3
144	2
145	0
146	0
147	0
148	0
149	0
150	0
151	1
152	1
153	0
154	0
156	0
158	0
160	2
161	7
162	0
163	0
164	0
165	1
166	0
167	0
168	0
171	2
172	0
175	0
176	0
178	1
179	0
180	0
184	0
185	0
187	0
188	1
189	0
191	0
192	0
193	0
194	0
195	0
197	0
198	0
200	0
202	4
204	257
205	30
206	3
207	1
209	0
