Mass Spectrum: 2,6-Pyridinediol, 3-[(2,4-dihydroxyphenyl)azo]-, 4-benzoate
Formula: C18H13N3O5
CAS: 22280-53-1
Molecular weight: 351
m/z	intensity
41	50
43	60
44	30
45	150
46	70
51	40
52	20
53	20
55	50
56	20
57	60
67	20
69	40
70	20
71	30
77	270
78	30
80	30
81	30
82	30
83	30
85	20
97	20
105	999
106	80
229	30
351	210
352	40
