Mass Spectrum: 2-Pyridinol, 3-[(p-hydroxyphenyl)azo]-
Formula: C11H9N3O2
CAS: 22280-52-0
Molecular weight: 215
m/z	intensity
40	30
41	60
43	80
44	60
45	30
50	30
51	60
52	170
53	110
54	40
55	60
57	40
60	40
63	40
64	40
65	350
66	110
67	50
78	30
79	50
80	60
81	90
82	30
93	999
94	270
95	40
107	60
108	80
109	80
110	70
121	360
122	50
131	30
215	890
216	130
217	30
