Mass Spectrum: Bicyclo[2.2.1]heptan-2-amine, N,1,7,7-tetramethyl-
Formula: C11H21N
CAS: 22285-82-1
Molecular weight: 167
m/z	intensity
30	50
31	30
39	80
40	10
41	160
42	160
43	40
44	410
45	10
51	20
52	10
53	50
54	10
55	80
56	70
57	330
58	140
59	60
65	30
66	10
67	70
68	50
69	50
70	170
71	20
77	50
78	10
79	40
80	30
81	40
82	70
83	90
84	240
85	50
90	10
91	50
92	10
93	80
94	30
95	980
96	999
97	150
98	50
107	20
108	70
109	50
110	50
111	10
112	120
113	10
121	70
122	10
123	10
124	60
126	30
136	50
138	10
152	140
153	30
154	10
166	30
167	860
168	130
169	10
