Mass Spectrum: N-(2-(Diethylamino)ethyl)-3-phenyl-1,2-carbazoledicarboximide
Formula: C26H25N3O2
CAS: 22293-99-8
Molecular weight: 411
m/z	intensity
15	1
27	4
28	9
29	13
30	44
39	1
41	2
42	9
43	4
44	4
51	1
54	1
55	1
56	11
57	6
58	49
59	2
63	1
69	1
70	4
71	6
72	12
73	1
75	1
77	1
83	1
84	11
85	3
86	999
87	64
88	1
93	1
97	1
98	2
99	8
100	2
101	1
106	3
107	1
111	1
112	1
113	1
114	1
119	2
120	5
121	1
127	1
134	1
139	1
156	1
162	4
163	1
164	1
187	1
188	1
189	1
198	4
205	1
211	1
212	2
213	5
214	4
215	2
227	1
238	7
239	5
240	29
241	24
242	9
243	1
252	1
253	1
254	3
255	1
265	1
266	5
267	5
268	8
269	5
270	2
279	1
281	1
282	1
292	1
293	1
294	1
295	2
296	2
297	1
298	1
310	1
311	4
312	17
313	5
314	1
323	1
324	1
325	9
326	7
327	1
337	1
338	5
339	7
340	2
382	1
396	1
397	1
409	1
410	1
411	19
412	5
413	1
