Mass Spectrum: Phosphinothionic acid, bis(1-methylethyl)-
Formula: C6H15OPS
CAS: 22307-83-1
Molecular weight: 166
m/z	intensity
33	14
34	21
35	6
36	14
37	13
38	38
39	246
40	209
41	483
42	98
43	889
44	285
45	36
47	95
48	38
49	42
50	10
51	11
52	1
53	6
55	33
56	13
57	38
58	10
59	27
60	11
61	10
62	8
63	158
64	36
65	31
66	7
67	5
68	3
69	31
70	9
71	20
72	30
73	39
74	6
75	28
76	7
77	14
78	7
80	126
81	185
82	449
83	46
84	25
85	3
86	2
89	28
90	69
91	30
92	28
93	5
94	4
96	59
97	7
98	5
104	1
105	19
106	33
107	10
108	17
109	18
110	2
111	4
112	5
117	1
121	3
122	15
124	999
125	40
126	49
127	3
128	3
133	2
134	8
149	8
151	6
164	4
166	536
167	38
168	26
169	1
