Mass Spectrum: 2,2-Dimethyl-1,3-propanediol bis(4-methylphenylsulfonate)
Formula: C19H24O6S2
CAS: 22308-12-9
Molecular weight: 412
m/z	intensity
26	25
27	108
28	20
29	132
30	3
31	18
38	1
39	101
40	11
41	139
42	31
43	470
44	7
45	59
50	12
51	38
52	5
53	18
54	4
55	86
56	108
57	50
58	2
59	22
60	3
61	48
62	7
63	65
64	14
65	230
66	1
67	8
68	20
69	165
70	19
71	6
72	5
73	15
74	2
75	3
76	2
77	25
78	7
79	17
80	3
81	3
82	0
83	4
84	1
85	80
86	3
87	3
88	14
89	54
90	58
91	999
92	113
93	6
95	1
96	0
97	2
104	0
105	4
106	1
107	75
108	24
109	3
111	1
115	1
121	1
131	3
138	1
139	18
140	2
141	1
145	0
146	4
149	3
154	27
155	856
156	60
157	30
158	1
159	2
165	1
166	0
167	0
171	4
172	37
173	86
174	6
175	2
176	6
227	5
240	13
241	14
242	1
257	3
262	11
263	1
326	2
327	7
328	0
344	3
412	26
413	5
