Mass Spectrum: Acetamide, 2-cyano-N-(1-naphthyl)-
Formula: C13H10N2O
CAS: 22302-63-2
Molecular weight: 210
m/z	intensity
38	26
39	116
40	116
41	45
43	22
44	13
45	19
50	47
51	63
52	23
57	46
61	12
62	61
63	150
64	37
65	69
67	16
68	75
70	44
71	19
74	39
75	61
76	38
77	63
86	31
87	43
88	66
89	144
90	23
101	30
102	10
113	93
114	167
115	999
116	213
117	24
126	53
127	164
128	29
139	12
140	132
141	86
142	340
143	764
144	585
145	61
166	13
167	21
168	18
169	259
170	96
171	11
210	994
211	145
212	12
