Mass Spectrum: Methylsulfonyl-methanesulfonyl chloride
Formula: C2H5ClO4S2
CAS: 22317-89-1
Molecular weight: 192
m/z	intensity
36	121
38	46
48	116
49	131
51	39
63	468
64	90
65	41
79	999
80	19
83	52
85	8
93	36
94	11
98	324
100	118
113	52
115	12
157	41
