Mass Spectrum: Dihydrotecomanine
Formula: C11H19NO
CAS: 22324-87-4
Molecular weight: 181
m/z	intensity
41	196
42	311
43	258
44	999
45	51
46	2
47	25
48	11
49	117
50	23
51	91
52	19
53	64
54	30
55	397
56	44
57	241
58	427
59	22
60	30
61	8
62	7
63	11
64	5
65	30
66	12
67	67
68	30
69	32
70	40
71	54
72	11
73	25
74	7
75	6
76	5
77	101
78	52
79	28
80	11
81	36
82	61
83	52
84	141
85	40
86	45
87	7
88	9
89	4
90	1
91	28
92	5
93	19
94	17
95	19
96	31
97	30
98	255
99	21
100	2
101	6
102	1
103	3
104	3
105	51
106	31
107	11
108	19
109	18
110	56
111	33
112	33
113	6
115	6
117	8
118	21
119	5
120	4
121	9
122	10
123	19
124	43
125	25
126	8
127	3
129	6
130	1
132	7
133	13
134	4
135	5
136	9
137	5
138	18
139	6
141	4
143	2
149	11
150	5
151	2
152	13
153	7
154	10
155	8
157	1
163	9
164	7
165	6
166	29
167	5
178	1
179	14
180	148
181	245
182	37
183	4
