Mass Spectrum: 1H-Imidazole, 1-[(4-methylphenyl)sulfonyl]-
Formula: C10H10N2O2S
CAS: 2232-08-8
Molecular weight: 222
m/z	intensity
26	3
27	12
28	16
29	3
37	3
38	12
39	111
40	90
41	44
42	6
43	9
44	2
45	7
48	3
50	25
51	48
52	15
53	7
55	2
57	4
60	2
61	4
62	17
63	63
64	20
65	253
66	19
68	5
69	4
71	2
74	5
75	7
76	6
77	24
78	20
79	9
85	2
86	4
87	4
88	3
89	69
90	38
91	999
92	123
93	5
95	3
102	3
103	12
104	8
107	3
108	3
111	4
116	2
117	2
118	2
121	4
122	2
123	2
130	14
131	3
139	24
140	3
141	2
142	2
155	587
156	67
157	42
158	4
167	1
222	397
223	63
224	27
225	3
