Mass Spectrum: Androstan-7-one, (5.alpha.)-
Formula: C19H30O
CAS: 2232-18-0
Molecular weight: 274
m/z	intensity
41	800
42	90
43	360
44	120
45	10
51	40
52	30
53	240
54	70
55	590
56	50
57	40
65	70
66	50
67	480
68	160
69	160
70	10
71	10
77	170
78	30
79	310
80	90
81	520
82	70
83	50
84	10
90	999
91	190
92	30
93	240
94	100
95	520
96	120
97	40
102	10
103	10
104	10
105	100
106	30
107	140
108	90
109	140
110	100
111	30
115	10
116	10
117	30
118	20
119	50
120	40
121	160
122	90
123	30
131	30
132	10
133	40
134	30
135	450
136	90
137	60
145	50
146	20
147	60
148	20
149	70
150	60
151	10
159	30
160	30
161	50
162	10
163	90
164	50
165	90
166	10
178	999
179	260
180	30
191	140
192	20
199	20
203	20
213	20
217	10
231	30
232	10
241	50
242	10
255	30
259	40
260	10
274	220
275	50
