Mass Spectrum: 1-Propene, 3,3,3-trichloro-
Formula: C3H3Cl3
CAS: 2233-00-3
Molecular weight: 144
m/z	intensity
12	5
13	3
14	5
15	1
16	1
17	10
18	41
20	1
24	4
25	14
26	35
27	68
28	23
29	1
30	1
31	1
32	5
35	73
36	151
37	153
38	161
39	155
40	5
41	1
42	1
43	1
44	1
45	1
47	68
48	16
49	130
50	6
51	35
52	1
53	2
54	4
55	2
56	1
59	3
60	14
61	8
62	6
63	4
64	1
65	2
70	2
71	10
72	33
73	145
74	24
75	49
76	5
77	1
82	37
83	163
84	25
85	103
86	5
87	18
94	1
95	2
96	1
97	2
98	1
105	1
106	1
107	9
108	2
109	999
110	32
111	640
112	22
113	103
114	4
117	27
119	27
121	8
123	1
143	2
144	6
145	3
146	5
147	1
148	2
