Mass Spectrum: Octanoic acid, 3-oxo-, methyl ester
Formula: C9H16O3
CAS: 22348-95-4
Molecular weight: 172
m/z	intensity
41	320
42	230
43	999
55	230
56	160
57	130
59	360
69	250
71	350
74	370
84	270
85	150
99	549
101	390
116	819
117	140
129	190
130	60
141	40
142	20
154	30
172	50
