Mass Spectrum: 1-(2-Chlorophenyl)-1,2,3,4-tetrahydro-3-methoxycarbonyl-9H-indolo[2,3-c]pyridine
Formula: C19H17ClN2O2
CAS: 223690-84-4
Molecular weight: 340
m/z	intensity
35	371
36	256
37	145
38	82
39	102
42	64
43	39
44	999
50	79
51	38
52	48
58	56
59	20
63	37
75	42
77	68
86	10
87	20
115	35
117	62
130	114
131	33
140	26
141	25
143	38
168	33
172	17
180	20
204	16
206	25
207	30
216	33
217	100
218	53
219	11
229	45
242	18
244	22
252	27
253	60
254	54
255	29
279	41
280	33
281	25
340	37
