Mass Spectrum: Bicyclo[3.2.0]hept-2-en-6-one, 5-bromo-7,7-dichloro-
Formula: C7H5BrCl2O
CAS: 22374-10-3
Molecular weight: 254
m/z	intensity
24	22
26	76
27	47
28	13
29	7
31	1
34	0
35	28
36	17
37	106
38	186
39	309
40	13
41	6
42	1
43	2
44	2
45	0
47	62
48	10
49	60
50	262
51	268
52	24
53	17
54	1
55	10
56	16
57	4
59	2
60	30
61	45
62	53
63	135
64	24
65	217
66	13
67	0
68	0
69	0
70	0
71	2
72	21
73	62
74	82
75	193
76	43
77	499
78	33
79	25
80	8
81	26
82	49
83	4
84	44
85	55
86	25
87	21
88	5
89	3
90	0
91	1
92	2
93	5
94	2
95	4
96	5
97	19
98	2
99	7
100	1
101	1
102	0
103	0
104	2
105	8
106	2
107	12
108	2
109	11
110	17
111	999
112	545
113	355
114	175
115	12
116	0
117	4
118	0
119	4
120	6
121	3
122	4
123	2
124	0
125	0
126	0
127	0
128	0
129	0
130	0
131	1
132	0
133	4
134	0
135	2
136	0
137	0
138	0
139	110
140	30
141	41
142	10
143	3
144	72
145	7
146	102
147	424
148	43
149	269
150	20
151	44
152	2
153	0
155	4
156	1
157	4
158	1
159	0
161	0
162	0
163	0
165	0
166	0
167	0
168	0
169	0
170	0
171	0
172	0
173	1
174	0
175	850
176	64
177	533
178	43
179	88
180	5
181	0
182	0
183	0
184	0
185	0
187	0
189	0
190	0
191	16
192	2
193	23
194	2
195	5
196	0
219	1
221	2
222	0
223	0
224	0
225	0
226	0
227	0
228	1
229	0
230	0
240	0
254	2
255	0
256	3
257	0
258	1
260	0
