Mass Spectrum: 2-Pyridinecarbaldehyde 4-cyclohexylthiosemicarbazone
Formula: C13H18N4S
CAS: 223727-10-4
Molecular weight: 262
m/z	intensity
15	2
16	1
26	8
27	36
28	42
29	25
30	32
31	1
32	10
33	5
34	16
36	1
37	3
38	8
39	66
40	9
41	141
42	22
43	44
44	6
45	3
46	1
47	1
48	1
49	3
50	25
51	56
52	59
53	39
54	72
55	244
56	119
57	9
58	5
59	26
60	24
61	4
62	4
63	9
64	14
65	115
66	36
67	108
68	12
69	16
70	11
71	3
72	6
73	1
74	3
75	9
76	13
77	80
78	96
79	189
80	44
81	97
82	75
83	128
84	9
85	3
86	2
87	1
88	1
90	1
91	12
92	179
93	77
94	16
95	6
96	15
97	23
98	293
99	34
100	2
101	4
102	33
103	5
104	108
105	51
106	52
107	999
108	101
109	6
110	2
111	3
112	1
113	7
114	20
115	3
116	1
117	1
118	5
119	19
120	182
121	43
122	15
123	32
124	23
125	73
126	7
127	41
128	24
129	3
130	3
131	1
132	2
133	1
134	1
135	7
136	4
137	5
138	4
139	1
140	3
141	75
142	9
143	4
145	1
146	2
147	4
148	18
149	3
150	2
151	2
152	1
154	1
155	48
156	24
157	19
158	6
159	1
160	4
162	2
163	10
164	15
165	27
166	8
167	3
170	2
171	1
178	9
179	13
180	2
181	1
182	1
183	5
184	15
185	2
186	8
187	12
188	2
201	2
202	3
203	1
204	1
205	1
206	11
207	1
219	13
220	5
221	1
228	1
229	86
230	13
231	1
233	1
260	2
261	3
262	356
263	72
264	22
265	3
