Mass Spectrum: 2-Undecen-4-ol
Formula: C11H22O
CAS: 22381-86-8
Molecular weight: 170
m/z	intensity
41	50
43	50
56	10
57	10
58	40
71	999
72	100
86	50
99	24
100	2
127	24
128	2
152	2
170	4
