Mass Spectrum: Benzenemethanol, .alpha.-(ethoxymethyl)-
Formula: C10H14O2
CAS: 22383-53-5
Molecular weight: 166
m/z	intensity
26	3
27	26
28	3
29	47
30	2
31	80
33	2
37	0
38	2
39	21
40	2
41	11
42	2
43	26
44	5
45	9
50	15
51	58
52	14
53	11
54	0
55	5
56	2
57	5
58	2
59	66
60	3
61	5
62	3
63	11
64	3
65	20
66	2
67	1
69	3
70	1
71	2
73	1
74	5
75	6
76	6
77	173
78	41
79	379
80	25
81	2
82	1
83	1
84	1
85	1
87	1
88	1
89	7
90	3
91	47
92	5
93	3
94	1
95	1
97	1
98	0
99	1
102	2
103	29
104	19
105	50
106	17
107	999
108	80
109	5
115	1
117	0
118	0
119	3
120	7
121	13
122	1
148	2
149	17
150	1
161	1
166	93
167	10
168	0
