Mass Spectrum: 3-Quinolinecarbonitrile, 1-acetoxy-1,2-dihydro-2-oxo-
Formula: C12H8N2O3
CAS: 22384-04-9
Molecular weight: 228
m/z	intensity
15	60
39	60
43	999
44	20
50	50
51	40
52	20
62	30
63	60
64	40
75	30
76	70
79	20
87	20
88	40
90	30
100	30
103	70
104	30
114	100
115	70
127	60
129	20
130	20
132	40
141	110
142	40
155	40
170	30
186	999
187	250
188	30
228	310
229	50
