Mass Spectrum: 9-Hexadecenoic acid, tetradecyl ester, (Z)-
Formula: C30H58O2
CAS: 22393-82-4
Molecular weight: 450
m/z	intensity
26	6
27	110
28	100
29	270
30	7
31	6
32	15
37	4
38	3
39	91
40	19
41	670
42	200
43	999
44	32
45	8
50	3
51	6
52	6
53	54
54	150
55	810
56	250
57	590
58	29
59	8
60	13
61	9
62	2
63	2
64	2
65	13
66	14
67	180
68	110
69	540
70	170
71	230
72	15
73	30
74	7
75	2
76	2
77	13
78	6
79	37
80	21
81	140
82	87
83	330
84	140
85	130
86	11
87	16
88	3
89	3
91	12
92	4
93	23
94	16
95	82
96	97
97	210
98	130
99	34
100	13
101	26
102	4
105	7
106	3
107	15
108	14
109	46
110	54
111	100
112	41
113	23
114	28
115	20
116	7
117	4
119	10
120	4
121	19
122	9
123	43
124	29
125	46
126	25
127	32
128	11
129	15
130	4
131	3
132	3
133	11
134	10
135	19
136	8
137	33
138	30
139	29
140	17
141	19
142	6
143	9
144	4
145	4
147	13
148	8
149	11
150	6
151	27
152	53
153	28
154	12
155	15
156	5
157	9
158	6
159	2
161	7
162	4
163	5
164	4
165	19
166	11
167	11
168	10
169	8
170	4
171	8
172	5
173	2
175	4
176	3
177	4
178	3
179	13
180	6
181	7
182	6
183	6
184	3
185	6
186	4
187	2
189	3
190	2
191	3
192	28
193	18
194	47
195	14
196	23
197	10
198	4
199	4
207	8
208	9
209	4
210	2
211	7
212	3
213	3
214	2
217	11
218	16
219	14
220	13
221	3
222	2
223	3
224	2
225	4
226	3
234	3
235	20
236	230
237	170
238	27
239	6
240	2
241	6
242	2
243	2
251	3
252	11
253	7
254	21
255	38
256	8
257	6
258	2
266	2
268	3
269	5
270	2
279	2
280	2
281	2
282	2
283	1
284	1
293	2
294	2
295	3
296	2
297	1
305	2
306	1
309	3
310	2
311	2
323	6
324	2
325	1
326	1
337	2
338	1
339	2
349	1
350	1
351	1
352	1
353	2
354	1
355	1
365	1
367	1
368	2
369	1
376	1
377	1
379	1
380	1
381	1
382	2
383	1
393	1
395	1
406	1
407	2
408	1
409	1
421	1
438	1
450	27
451	9
452	3
453	2
