Mass Spectrum: Stearic acid, 9-hexadecenyl ester, (Z)-
Formula: C34H66O2
CAS: 22393-91-5
Molecular weight: 506
m/z	intensity
26	4
27	27
28	19
29	84
30	5
31	4
32	3
35	2
36	3
38	3
39	30
40	9
41	310
42	85
43	550
44	22
45	6
46	2
50	2
51	4
52	3
53	27
54	240
55	760
56	150
57	520
58	28
59	10
60	52
61	28
62	3
63	2
64	8
65	7
66	47
67	410
68	380
69	710
70	120
71	270
72	19
73	90
74	10
75	3
76	2
77	9
78	6
79	46
80	59
81	470
82	995
83	660
84	100
85	170
86	18
87	28
88	5
89	5
90	1
91	10
92	3
93	25
94	40
95	490
96	999
97	490
98	89
99	33
100	8
101	27
102	6
103	6
104	4
105	6
106	3
107	15
108	22
109	320
110	530
111	230
112	38
113	18
114	6
115	27
116	8
117	4
118	1
119	3
120	2
121	19
122	26
123	230
124	360
125	110
126	23
127	12
128	4
129	39
130	5
131	3
132	1
133	3
134	1
135	15
136	19
137	160
138	220
139	55
140	29
141	12
142	4
143	11
144	3
145	4
146	4
147	4
148	2
149	11
150	7
151	66
152	110
153	35
154	14
155	7
156	3
157	8
158	2
159	2
160	1
161	2
162	1
163	6
164	5
165	52
166	96
167	24
168	7
169	5
170	4
171	10
172	2
173	2
174	1
175	1
176	1
177	4
178	3
179	32
180	62
181	15
182	4
183	3
184	2
185	15
186	3
187	2
188	1
189	1
190	1
191	3
192	3
193	27
194	96
195	19
196	6
197	3
198	1
199	6
200	2
201	4
202	1
203	1
204	1
205	2
206	1
207	5
208	2
209	4
210	4
211	2
212	1
213	3
214	1
215	2
216	1
217	1
218	1
219	4
220	9
221	12
222	790
223	150
224	19
225	4
226	1
227	5
228	2
229	2
230	1
231	1
234	1
235	1
236	2
237	3
238	13
239	9
240	2
241	18
242	3
243	1
244	1
245	1
246	1
247	4
248	2
249	2
250	1
251	1
252	1
253	2
254	1
255	5
256	2
257	3
258	1
262	1
263	1
264	13
265	10
266	5
267	170
268	33
269	5
270	1
271	2
272	1
277	1
278	1
279	2
280	2
281	2
282	7
283	10
284	38
285	340
286	68
287	9
288	1
293	1
295	2
296	1
297	1
298	1
299	2
300	1
309	1
310	1
311	1
312	1
313	2
314	1
321	1
322	1
323	2
324	1
325	1
326	1
335	1
336	1
337	1
338	1
339	1
340	1
349	2
350	1
351	1
352	1
353	1
363	1
364	1
365	1
366	1
367	1
377	1
378	1
379	1
380	1
381	1
391	1
392	1
393	2
394	2
395	1
405	1
406	1
407	2
408	1
409	1
419	1
420	1
421	1
422	1
433	1
434	1
449	1
450	1
463	1
464	1
477	1
478	1
488	2
489	1
494	1
495	1
504	1
505	2
506	7
507	3
508	3
509	2
510	1
