Mass Spectrum: Myristic acid, 9-octadecenyl ester, (Z)-
Formula: C32H62O2
CAS: 22393-93-7
Molecular weight: 478
m/z	intensity
26	10
27	130
28	52
29	330
30	9
31	9
32	9
39	98
40	22
41	720
42	210
43	999
44	37
45	10
50	5
51	7
52	5
53	64
54	240
55	880
56	300
57	660
58	30
59	9
60	95
61	40
62	4
63	5
64	3
65	15
66	30
67	340
68	200
69	550
70	220
71	200
72	11
73	67
74	12
77	19
78	12
79	57
80	50
81	300
82	390
83	400
84	79
85	93
86	10
87	21
88	4
89	6
91	13
92	4
93	28
94	28
95	240
96	330
97	260
98	52
99	17
100	5
101	22
102	4
103	5
104	4
105	7
106	3
107	15
108	13
109	140
110	170
111	94
112	22
113	11
114	4
115	20
116	5
117	5
119	4
121	14
122	13
123	85
124	110
125	45
126	8
127	6
128	4
129	22
130	4
131	5
132	3
133	4
135	11
136	10
137	58
138	67
139	23
140	7
141	7
142	3
143	9
144	3
145	4
146	3
147	3
149	9
150	6
151	23
152	38
153	18
154	6
155	4
156	3
157	6
163	3
164	3
165	13
166	32
167	12
168	8
169	5
170	2
171	7
172	3
173	3
177	2
178	2
179	9
180	22
181	8
182	4
183	5
184	2
185	12
186	3
187	2
191	6
192	4
193	11
194	23
195	5
196	3
197	4
198	2
199	5
200	2
201	2
205	2
206	2
207	8
208	19
209	10
210	4
211	290
212	44
213	6
214	2
215	2
217	2
218	2
219	3
220	2
221	8
222	30
223	8
224	3
225	2
226	3
227	4
228	15
229	130
230	20
231	4
235	4
236	4
237	4
238	3
239	2
240	2
249	4
250	320
251	63
252	8
253	3
254	2
255	3
256	2
266	7
267	5
268	3
269	3
279	2
280	2
281	2
282	2
283	2
292	2
293	2
294	2
295	3
296	2
310	4
311	3
321	2
322	2
323	2
335	2
337	2
338	2
350	2
351	2
352	2
353	3
354	2
362	2
364	2
365	2
366	2
377	2
379	2
380	3
381	2
460	2
469	2
476	3
477	3
478	7
479	4
480	3
