Mass Spectrum: 9-Hexadecenoic acid, hexadecyl ester, (Z)-
Formula: C32H62O2
CAS: 22393-83-5
Molecular weight: 478
m/z	intensity
26	7
27	100
28	34
29	260
30	7
31	7
32	3
38	4
39	82
40	22
41	630
42	190
43	999
44	38
45	7
46	2
50	3
51	5
52	6
53	49
54	150
55	790
56	250
57	650
58	30
59	6
60	15
61	9
62	2
63	2
65	12
66	12
67	180
68	100
69	530
70	160
71	260
72	15
73	32
74	4
76	2
77	12
78	4
79	34
80	20
81	130
82	83
83	340
84	130
85	140
86	11
87	15
88	3
89	2
91	10
92	4
93	19
94	14
95	84
96	92
97	210
98	120
99	35
100	12
101	24
102	4
103	2
104	2
105	6
106	4
107	14
108	11
109	43
110	51
111	100
112	40
113	23
114	27
115	21
116	6
117	2
118	2
119	8
120	5
121	20
122	9
123	38
124	29
125	46
126	23
127	30
128	10
129	15
130	4
131	3
132	2
133	12
134	10
135	19
136	8
137	32
138	31
139	31
140	16
141	19
142	4
143	9
144	3
145	3
147	12
148	7
149	11
150	5
151	26
152	54
153	29
154	12
155	15
156	4
157	8
158	6
159	2
161	7
162	3
163	5
164	4
165	20
166	13
167	11
168	7
169	9
170	4
171	7
172	5
173	2
174	1
175	5
176	2
177	3
178	3
179	14
180	7
181	7
182	7
183	6
184	3
185	6
186	3
187	2
188	2
189	3
190	1
191	2
192	28
193	15
194	46
195	15
196	10
197	5
198	3
199	4
206	1
207	7
208	7
209	4
210	3
211	6
212	3
213	3
214	2
216	2
217	9
218	15
219	14
220	3
221	3
222	5
223	3
224	16
225	9
226	4
227	2
234	3
235	16
236	230
237	150
238	25
239	7
240	2
241	2
242	2
243	3
244	2
250	2
251	2
252	11
253	8
254	21
255	38
256	9
257	7
258	2
264	5
265	3
266	2
267	2
268	2
269	6
270	2
279	2
280	2
281	2
282	2
283	2
284	2
285	2
294	2
295	3
296	2
297	4
298	2
305	2
306	1
308	1
309	1
310	2
311	2
312	1
321	2
322	2
323	2
324	1
325	2
337	2
338	1
339	1
351	5
352	3
353	2
354	1
365	1
366	1
379	2
380	1
381	1
382	2
395	1
396	2
397	2
410	2
435	1
450	2
466	2
476	1
477	2
478	24
479	11
480	4
481	2
