Mass Spectrum: 9-Octadecenoic acid (Z)-, 9-hexadecenyl ester, (Z)-
Formula: C34H64O2
CAS: 22393-99-3
Molecular weight: 504
m/z	intensity
26	7
27	60
28	130
29	163
30	6
31	4
32	29
36	2
37	3
38	4
39	52
40	12
41	484
42	121
43	539
44	21
45	9
50	3
51	5
52	4
53	41
54	272
55	999
56	212
57	387
58	19
59	6
60	16
61	6
63	3
65	12
66	29
67	406
68	254
69	824
70	151
71	175
72	10
73	32
74	6
75	3
76	2
77	13
78	10
79	55
80	52
81	369
82	412
83	624
84	121
85	103
86	10
87	17
88	4
89	3
91	16
92	6
93	35
94	35
95	309
96	375
97	418
98	109
99	30
100	10
101	24
102	3
103	2
104	4
105	8
106	4
107	21
108	23
109	181
110	206
111	193
112	42
113	17
114	17
115	20
116	5
117	3
118	2
119	8
120	4
121	35
122	24
123	121
124	145
125	90
126	23
127	24
128	7
129	18
130	4
131	4
132	2
133	11
134	7
135	32
136	21
137	81
138	84
139	43
140	20
141	14
142	4
143	10
144	3
145	3
147	12
148	5
149	19
150	16
151	46
152	48
153	27
154	13
155	11
156	5
157	9
158	3
161	7
162	4
163	12
164	12
165	38
166	38
167	21
168	8
169	11
170	4
171	8
172	2
173	2
174	2
175	6
176	3
177	8
178	10
179	27
180	40
181	18
182	7
183	7
184	3
185	8
186	4
187	1
188	3
189	4
190	2
191	6
192	9
193	19
194	32
195	13
196	6
197	10
198	3
199	7
200	3
205	4
206	4
207	15
208	9
209	8
210	6
211	5
212	3
213	5
214	3
215	3
217	4
218	4
219	7
220	115
221	41
222	284
223	57
224	9
225	5
226	3
227	5
228	3
229	3
234	6
235	8
236	10
237	13
238	9
239	8
240	3
241	4
245	8
246	9
247	17
248	9
249	7
250	4
251	5
252	5
253	4
254	3
255	3
256	3
257	3
259	4
260	3
261	41
262	28
263	139
264	163
265	32
266	14
267	4
268	3
277	3
278	4
279	25
280	24
281	10
282	16
283	45
284	10
285	6
291	3
292	2
293	4
294	4
295	3
296	3
297	2
305	3
306	3
307	4
308	5
309	4
310	2
318	2
319	2
320	2
321	4
322	6
323	3
324	2
333	2
334	2
335	4
336	6
337	3
338	2
339	2
347	3
348	3
349	5
350	8
351	4
352	3
360	2
361	2
362	2
363	4
364	10
365	4
366	2
367	2
377	6
378	13
379	4
380	3
381	2
390	2
391	6
392	15
393	6
394	3
395	1
405	7
406	15
407	6
408	3
419	7
420	14
421	6
422	2
423	1
433	6
434	9
435	4
447	6
448	7
449	3
461	3
462	4
463	2
469	17
470	9
471	5
472	2
503	4
504	151
505	56
506	13
507	4
