Mass Spectrum: Palmitic acid, 9-hexadecenyl ester, (Z)-
Formula: C32H62O2
CAS: 22393-90-4
Molecular weight: 478
m/z	intensity
26	5
27	33
28	32
29	100
30	6
31	4
32	5
33	2
34	1
35	1
38	3
39	36
40	11
41	350
42	100
43	560
44	24
45	8
50	3
51	5
52	4
53	31
54	270
55	820
56	170
57	510
58	27
59	10
60	55
61	27
62	3
63	3
64	16
65	10
66	52
67	460
68	410
69	740
70	130
71	260
72	17
73	100
74	11
75	3
76	2
77	12
78	8
79	52
80	66
81	520
82	999
83	680
84	110
85	160
86	17
87	29
88	5
89	6
90	1
91	12
92	5
93	29
94	42
95	530
96	999
97	500
98	100
99	31
100	8
101	29
102	6
103	7
104	4
105	8
106	3
107	16
108	23
109	350
110	560
111	220
112	39
113	16
114	7
115	29
116	9
117	5
118	2
119	4
120	2
121	20
122	27
123	240
124	380
125	110
126	24
127	12
128	5
129	39
130	5
131	3
132	1
133	3
134	2
135	16
136	20
137	160
138	230
139	54
140	28
141	13
142	4
143	10
144	3
145	4
146	4
147	3
148	2
149	12
150	7
151	68
152	120
153	34
154	14
155	8
156	3
157	14
158	3
159	2
160	1
161	1
162	1
163	6
164	5
165	56
166	100
167	24
168	7
169	5
170	4
171	13
172	2
173	2
174	1
175	1
176	1
177	3
178	3
179	34
180	61
181	15
182	4
183	4
184	1
185	12
186	2
187	2
188	1
189	1
190	1
191	2
192	4
193	29
194	110
195	19
196	6
197	4
198	2
199	5
200	2
201	8
202	2
203	1
204	1
205	1
206	1
207	6
208	3
209	3
210	3
211	2
212	1
213	20
214	3
215	1
216	1
217	2
218	2
219	9
220	10
221	12
222	750
223	140
224	17
225	3
226	1
227	6
228	2
229	2
230	1
231	1
232	1
233	1
234	1
235	1
236	11
237	11
238	16
239	220
240	39
241	6
242	1
243	1
244	1
245	1
246	1
247	1
248	1
249	1
250	1
251	1
252	2
253	2
254	3
255	10
256	43
257	410
258	71
259	8
260	1
261	1
262	1
263	1
264	2
265	1
266	1
267	6
268	2
269	2
270	1
271	1
277	1
278	1
279	1
280	1
281	1
282	5
283	4
284	2
285	2
286	1
294	1
295	1
296	2
297	1
298	2
299	1
300	1
307	2
308	1
309	2
310	1
311	1
312	1
313	1
314	1
321	2
322	1
323	2
324	1
325	1
326	1
334	1
335	1
336	2
337	1
338	1
349	1
350	1
351	1
352	2
353	1
363	1
364	1
365	2
366	2
367	1
377	1
378	1
379	1
380	1
381	1
391	1
392	1
393	1
394	1
405	1
406	1
407	1
408	1
409	1
421	1
422	1
423	1
424	1
435	1
449	1
460	1
461	1
466	1
477	2
478	7
479	3
480	3
481	1
