Mass Spectrum: 9-Hexadecenoic acid, 9-hexadecenyl ester, (Z,Z)-
Formula: C32H60O2
CAS: 22393-97-1
Molecular weight: 476
m/z	intensity
26	11
27	120
28	48
29	240
30	10
31	6
32	11
38	6
39	100
40	25
41	670
42	210
43	620
44	29
45	12
50	6
51	11
52	8
53	71
54	250
55	999
56	290
57	270
58	17
59	7
60	17
61	9
62	4
63	5
65	19
66	26
67	360
68	170
69	690
70	190
71	110
72	7
73	26
74	8
75	5
76	5
77	19
78	12
79	63
80	43
81	290
82	220
83	400
84	73
85	58
86	8
87	16
88	4
89	5
91	18
92	5
93	23
94	24
95	210
96	190
97	220
98	52
99	15
100	9
101	17
102	5
103	5
104	5
105	11
106	6
107	19
108	15
109	110
110	100
111	100
112	20
113	12
114	12
115	15
116	6
117	5
118	5
119	10
120	7
121	28
122	16
123	60
124	59
125	42
126	14
127	16
128	7
129	14
130	6
131	5
133	12
134	7
135	22
136	14
137	46
138	44
139	28
140	10
141	17
142	8
143	9
144	5
147	10
148	6
149	15
150	11
151	28
152	33
153	21
154	8
155	10
156	5
157	6
158	5
159	4
161	7
162	4
163	8
164	7
165	19
166	20
167	13
168	6
169	8
170	4
171	7
172	4
175	5
176	3
177	7
178	7
179	13
180	11
181	7
182	6
183	5
185	5
186	3
191	6
192	16
193	14
194	28
195	8
196	5
197	4
199	3
206	5
207	6
208	7
209	6
210	5
211	11
212	4
217	8
218	6
219	14
220	29
221	11
222	92
223	20
224	5
225	4
226	3
227	4
229	5
233	3
234	17
235	13
236	40
237	150
238	30
239	8
240	4
249	3
250	4
251	11
252	10
253	7
254	5
255	24
256	6
257	5
265	3
266	3
267	4
268	3
269	3
278	3
279	4
280	3
281	3
282	3
293	3
294	4
295	3
296	3
306	3
307	4
308	4
309	3
310	3
321	3
322	3
323	3
335	4
336	4
337	3
348	3
349	4
350	5
351	4
352	3
363	4
364	7
365	3
377	5
378	8
379	4
380	3
391	5
392	8
393	4
405	5
406	6
407	4
419	4
420	5
421	3
433	3
434	4
447	3
476	41
477	17
478	6
