Mass Spectrum: Undecanoic acid, 11-cyano-, trimethylsilyl ester
Formula: C15H29NO2Si
CAS: 22396-24-3
Molecular weight: 283
m/z	intensity
53	30
54	50
55	210
56	30
58	30
59	30
60	20
61	70
67	50
68	20
69	80
70	10
71	10
72	50
73	770
74	90
75	999
76	80
77	50
79	10
80	10
81	50
82	30
83	100
84	50
85	10
86	10
87	10
88	10
89	30
91	20
93	20
94	10
95	20
96	40
97	100
98	80
99	20
101	20
103	20
105	20
107	10
108	10
109	10
110	30
111	20
112	20
113	50
114	10
115	20
116	50
117	480
118	50
119	30
122	20
123	10
124	10
126	80
127	20
128	10
129	150
130	30
131	110
132	130
133	30
134	10
135	10
136	10
140	20
141	10
143	10
145	50
146	10
147	20
148	10
149	10
150	10
153	10
154	20
155	80
156	10
157	10
159	10
166	20
168	30
169	160
170	30
171	20
182	40
183	30
184	10
185	20
192	10
194	30
196	30
197	10
210	10
212	10
223	10
224	250
225	50
226	20
227	10
238	10
241	10
243	10
250	10
268	680
269	160
270	50
271	10
