Mass Spectrum: Eicosanoic acid, 9-hexadecenyl ester, (Z)-
Formula: C36H70O2
CAS: 22393-92-6
Molecular weight: 534
m/z	intensity
26	7
27	30
28	57
29	86
30	6
31	5
32	11
33	3
34	2
36	3
37	3
38	4
39	38
40	11
41	320
42	87
43	570
44	26
45	7
50	4
51	6
52	4
53	30
54	223
55	760
56	170
57	600
58	34
59	11
60	53
61	30
62	4
63	4
64	29
65	9
66	50
67	410
68	380
69	750
70	140
71	330
72	21
73	92
74	13
75	4
76	2
77	13
78	9
79	48
80	61
81	460
82	980
83	710
84	110
85	200
86	21
87	29
88	5
89	5
90	1
91	16
92	6
93	32
94	42
95	480
96	999
97	530
98	110
99	39
100	9
101	29
102	6
103	6
104	5
105	9
106	4
107	18
108	25
109	320
110	540
111	240
112	44
113	23
114	8
115	31
116	10
117	6
118	3
119	6
120	3
121	23
122	30
123	230
124	360
125	120
126	26
127	16
128	6
129	41
130	7
131	5
132	2
133	5
134	3
135	20
136	21
137	160
138	220
139	60
140	31
141	18
142	7
143	12
144	4
145	6
146	4
147	5
148	2
149	19
150	8
151	68
152	120
153	41
154	16
155	10
156	5
157	10
158	3
159	3
160	2
161	3
162	2
163	8
164	6
165	54
166	100
167	28
168	10
169	7
170	5
171	11
172	2
173	2
174	1
175	2
176	1
177	5
178	4
179	34
180	65
181	19
182	6
183	6
184	3
185	13
186	3
187	3
188	1
189	2
190	1
191	4
192	4
193	29
194	100
195	21
196	8
197	4
198	2
199	5
200	3
201	11
202	2
203	2
204	1
205	3
206	2
207	7
208	6
209	6
210	6
211	4
212	2
213	9
214	3
215	2
216	2
217	3
218	3
219	7
220	11
221	13
222	870
223	170
224	23
225	4
226	2
227	7
228	3
229	4
230	1
231	1
232	1
233	1
234	1
235	2
236	3
237	4
238	14
239	9
240	3
241	6
242	1
243	1
244	1
245	1
246	1
247	1
248	2
249	2
250	5
251	4
252	3
253	2
254	1
255	4
256	2
257	4
258	2
259	1
260	1
261	1
262	1
263	1
264	4
265	3
266	3
267	6
268	2
269	16
270	4
271	1
272	1
273	1
274	1
275	4
276	2
277	3
278	2
279	3
280	2
281	2
282	6
283	7
284	3
285	4
286	1
287	1
288	1
289	1
290	1
291	2
292	14
293	11
294	5
295	140
296	32
297	5
298	1
299	2
300	1
305	1
306	1
307	1
308	1
309	2
310	3
311	7
312	37
313	310
314	68
315	9
316	2
320	1
321	1
322	1
323	2
324	1
325	1
326	1
337	1
338	1
339	2
340	1
341	1
348	1
349	1
350	1
351	1
352	1
353	2
354	1
363	2
364	1
365	1
366	1
367	1
368	1
377	2
378	2
379	1
380	1
381	1
391	1
392	1
393	1
394	1
405	1
406	1
407	1
408	1
419	1
420	1
421	2
422	2
423	1
424	2
425	1
433	1
434	1
435	1
436	1
447	2
448	2
449	2
450	1
451	1
461	1
462	1
463	1
464	1
469	1
477	1
478	1
491	1
492	1
504	1
505	1
516	2
517	1
522	2
523	1
534	7
535	4
536	4
537	2
