Mass Spectrum: 12-Hydroxyoctadecanoic acid, 2TMS derivative
Formula: C24H52O3Si2
CAS: 22396-22-1
Molecular weight: 444
m/z	intensity
28	15
31	2
44	5
45	49
53	6
55	205
56	19
58	12
59	38
60	7
61	53
62	3
63	2
66	1
67	57
68	14
69	105
70	10
71	15
72	3
73	999
74	95
75	586
76	43
77	26
78	1
79	11
80	3
81	64
82	12
83	61
84	9
85	14
86	4
87	6
88	3
89	14
91	22
92	2
93	12
95	71
96	12
97	68
98	10
99	13
100	2
101	27
102	3
103	82
104	9
105	10
107	6
108	1
109	24
110	4
111	11
112	2
113	8
114	1
115	16
116	27
117	74
118	9
119	6
121	7
123	6
124	2
125	4
127	3
128	2
129	155
130	23
131	25
132	36
133	24
134	4
135	7
137	4
139	2
141	2
143	15
144	2
145	16
146	2
147	51
148	9
149	26
150	3
151	3
155	2
157	5
161	5
163	2
165	1
169	2
171	10
172	5
173	3
185	7
186	4
187	609
188	103
189	33
190	3
191	2
197	3
199	4
201	2
203	4
204	30
205	7
206	3
207	0
213	2
217	72
218	16
219	7
221	0
222	1
227	6
231	3
241	3
247	1
253	7
254	1
259	1
264	2
265	2
269	4
271	1
273	1
287	1
330	38
331	12
332	4
339	25
340	7
341	2
354	3
355	2
359	238
360	76
361	30
362	6
363	2
413	18
414	6
415	2
429	20
430	7
431	3
