Mass Spectrum: 1,22-Docosanediol, 2TMS derivative
Formula: C28H62O2Si2
CAS: 22396-30-1
Molecular weight: 486
m/z	intensity
40	17
41	118
42	22
43	207
44	19
45	45
47	22
53	7
54	22
55	369
56	44
57	458
58	34
59	88
61	122
67	81
68	44
69	480
70	50
71	318
72	29
73	554
74	60
75	999
76	68
77	45
81	102
82	88
83	591
84	48
85	221
86	19
87	28
88	14
89	128
91	133
93	14
95	93
96	57
97	591
98	50
99	88
101	73
103	480
104	48
105	26
109	51
110	22
111	332
113	51
115	51
117	14
124	28
126	128
127	14
128	29
130	81
132	29
134	66
136	29
138	14
140	119
142	22
144	14
147	554
148	103
149	147
150	22
151	11
163	16
165	281
166	44
167	26
177	65
185	14
228	111
229	44
281	14
306	28
353	36
381	130
382	38
383	7
396	72
397	28
398	7
455	103
456	44
457	14
471	73
472	31
473	8
486	8
487	3
488	1
