Mass Spectrum: Oleic acid, eicosyl ester
Formula: C38H74O2
CAS: 22393-88-0
Molecular weight: 562
m/z	intensity
26	17
27	57
28	190
29	120
30	9
31	9
32	34
33	8
34	5
35	4
36	10
37	8
38	12
39	64
40	21
41	400
42	110
43	750
44	61
45	15
46	4
47	4
48	4
49	6
50	11
51	14
52	10
53	43
54	150
55	840
56	290
57	999
58	56
59	13
60	35
61	25
62	7
63	10
64	96
65	17
66	62
67	270
68	220
69	800
70	290
71	630
72	42
73	73
74	15
75	8
76	8
77	26
78	16
79	56
80	46
81	270
82	280
83	790
84	390
85	430
86	36
87	43
88	10
89	9
90	4
91	39
92	14
93	45
94	50
95	230
96	340
97	680
98	400
99	130
100	35
101	69
102	13
103	10
104	13
105	26
106	14
107	36
108	40
109	140
110	190
111	370
112	160
113	85
114	87
115	72
116	24
117	16
118	11
119	27
120	16
121	48
122	30
123	130
124	110
125	200
126	100
127	120
128	36
129	59
130	15
131	14
132	7
133	31
134	26
135	52
136	25
137	95
138	90
139	110
140	65
141	69
142	28
143	39
144	11
145	15
146	8
147	31
148	22
149	60
150	26
151	85
152	81
153	74
154	47
155	47
156	19
157	32
158	9
159	10
160	6
161	22
162	12
163	26
164	22
165	76
166	79
167	64
168	38
169	50
170	14
171	24
172	10
173	6
174	5
175	18
176	9
177	14
178	13
179	58
180	150
181	64
182	32
183	41
184	14
185	34
186	22
187	10
188	5
189	12
190	6
191	10
192	10
193	36
194	35
195	30
196	21
197	22
198	13
199	24
200	15
201	23
202	8
203	9
204	6
205	8
206	8
207	36
208	31
209	23
210	25
211	19
212	11
213	13
214	10
215	6
216	7
217	16
218	17
219	42
220	95
221	56
222	160
223	42
224	17
225	14
226	9
227	11
228	9
229	16
230	10
231	7
232	5
233	4
234	6
235	27
236	31
237	12
238	7
239	17
240	9
241	8
242	4
243	4
244	5
245	25
246	55
247	42
248	21
249	12
250	14
251	7
252	14
253	10
254	10
255	5
256	6
257	12
258	6
259	5
260	4
261	5
262	16
263	70
264	860
265	300
266	49
267	14
268	6
269	5
270	4
271	3
272	3
273	3
274	3
275	4
276	5
277	4
278	19
279	18
280	68
281	38
282	56
283	120
284	28
285	19
286	6
287	4
288	3
289	3
290	3
291	3
292	4
293	4
294	5
295	6
296	7
297	6
298	4
299	3
300	3
301	3
302	3
303	3
304	4
305	4
306	5
307	5
308	4
309	4
310	5
311	4
312	4
313	6
314	4
315	4
316	3
317	3
318	4
319	4
320	4
321	4
322	6
323	7
324	6
325	19
326	6
327	5
328	4
329	4
333	5
334	4
335	5
336	4
337	5
338	5
339	5
340	5
341	5
342	3
343	3
349	4
350	4
351	4
352	5
353	8
354	6
355	4
356	4
357	4
361	4
362	3
363	4
364	4
365	4
366	4
367	4
368	4
369	4
375	4
376	4
377	5
378	5
379	4
380	4
381	5
391	4
392	4
393	5
394	4
395	4
401	4
402	4
407	10
408	6
409	6
410	4
418	3
419	3
420	4
421	4
424	5
425	4
430	3
431	3
432	3
435	4
436	4
437	3
449	3
450	3
451	4
452	4
463	3
464	3
465	4
466	4
467	3
469	4
479	4
480	6
481	4
491	3
494	4
495	3
505	3
517	3
519	3
533	3
544	4
560	6
561	6
562	27
563	13
