Mass Spectrum: N-(4-Oxo-3-chromanyl)benzamide
Formula: C16H13NO3
CAS: 22406-52-6
Molecular weight: 267
m/z	intensity
15	3
26	1
27	9
28	8
29	1
37	1
38	6
39	18
40	2
41	5
42	9
43	3
44	2
50	30
51	109
52	9
53	6
55	3
57	1
61	1
62	4
63	21
64	23
65	29
66	3
74	7
75	10
76	34
77	575
78	43
79	9
80	1
89	5
90	4
91	26
92	66
93	24
94	4
102	1
103	5
104	19
105	999
106	80
107	11
108	1
115	1
116	1
117	2
118	29
119	11
120	161
121	633
122	52
123	4
128	1
130	13
131	2
132	1
133	3
134	5
135	14
136	1
144	2
145	5
146	782
147	476
148	52
149	5
152	1
161	9
162	44
163	20
164	2
174	1
180	1
181	1
197	1
208	1
223	3
225	21
226	3
239	1
248	1
249	1
250	2
251	1
265	21
266	5
267	154
268	27
269	4
