Mass Spectrum: 1-Piperidinyl-2-dimethylphenylsilylethane
Formula: C15H25NSi
CAS: 22409-26-3
Molecular weight: 247
m/z	intensity
29	8
30	8
35	9
40	8
41	48
42	55
43	52
51	19
53	19
54	8
55	49
56	16
57	16
58	88
59	16
60	3
65	5
67	7
69	24
70	9
77	14
78	6
79	6
80	3
81	6
82	6
83	9
84	16
85	3
86	35
87	3
91	11
93	9
95	7
96	7
97	6
98	999
99	75
100	3
103	3
105	37
106	7
107	14
108	3
109	7
110	22
111	3
112	3
113	7
114	3
115	3
116	2
117	3
119	19
120	5
121	25
126	3
127	19
128	28
131	4
132	4
133	6
134	4
135	119
136	18
137	4
169	18
170	3
204	14
205	4
232	3
246	11
247	19
248	3
