Mass Spectrum: D-glycero-L-manno-Heptonic acid, .gamma.-lactone
Formula: C7H12O7
CAS: 22404-04-2
Molecular weight: 208
m/z	intensity
14	1
15	16
17	4
18	8
19	3
26	3
27	16
28	16
29	42
30	9
31	55
32	2
36	1
38	1
39	11
40	3
41	24
42	25
43	118
44	81
45	65
46	3
47	4
49	1
51	2
52	1
53	5
54	9
55	30
56	26
57	64
58	23
59	9
60	77
61	242
62	9
63	2
65	1
67	3
68	6
69	34
70	9
71	175
72	56
73	999
74	62
75	7
76	62
77	4
78	1
79	1
80	1
81	9
82	6
83	22
84	10
85	93
86	14
87	7
88	5
89	18
90	4
91	104
92	4
93	2
94	2
95	6
96	6
97	30
98	8
99	10
100	102
101	28
102	13
103	11
104	1
105	1
107	1
108	1
109	5
110	3
111	8
112	6
113	12
114	36
115	27
116	4
117	1
118	4
119	43
120	2
121	2
122	1
123	4
124	2
125	5
126	2
127	3
128	1
129	2
130	3
131	81
132	5
133	23
134	2
135	2
136	1
137	2
138	1
139	3
140	1
141	5
142	54
143	5
144	6
145	7
146	1
147	51
148	19
149	9
150	1
151	2
152	1
153	2
154	1
155	2
157	1
159	188
160	24
161	4
162	1
163	6
165	1
167	2
168	1
169	1
172	2
173	1
177	9
178	2
179	1
181	1
183	1
190	28
191	5
195	1
197	1
208	9
209	5
210	1
