Mass Spectrum: Eicosanoic acid, hexadecyl ester
Formula: C36H72O2
CAS: 22413-05-4
Molecular weight: 536
m/z	intensity
26	13
27	83
28	150
29	200
30	6
31	5
32	32
36	3
37	3
38	4
39	62
40	18
41	440
42	130
43	999
44	42
45	12
50	5
51	7
52	4
53	25
54	69
55	590
56	240
57	980
58	49
59	10
60	87
61	120
62	4
63	3
64	1
65	6
66	10
67	99
68	130
69	450
70	200
71	300
72	28
73	150
74	15
75	4
76	1
77	9
78	4
79	19
80	13
81	83
82	160
83	420
84	160
85	290
86	20
87	33
88	4
89	4
91	10
92	4
93	10
94	7
95	66
96	88
97	340
98	130
99	65
100	8
101	30
102	8
103	7
104	3
105	8
106	2
107	9
108	5
109	33
110	43
111	180
112	68
113	43
114	9
115	39
116	25
117	8
118	2
119	5
120	2
121	11
122	4
123	20
124	25
125	89
126	45
127	25
128	10
129	68
130	11
131	4
132	1
133	4
134	2
135	11
136	4
137	10
138	20
139	50
140	33
141	31
142	8
143	15
144	5
145	4
146	3
147	3
148	1
149	10
150	2
151	5
152	12
153	31
154	25
155	19
156	5
157	11
158	4
159	4
161	2
162	1
163	5
164	1
165	3
166	9
167	22
168	19
169	10
170	3
171	15
172	3
173	2
174	1
175	1
177	4
178	1
179	3
180	5
181	16
182	13
183	7
184	2
185	21
186	4
187	3
191	3
192	1
193	2
194	5
195	11
196	56
197	13
198	1
199	8
200	2
201	2
202	1
203	1
205	1
206	1
207	2
208	2
209	5
210	3
211	4
212	2
213	16
214	3
215	2
216	1
217	1
218	1
219	4
220	2
221	2
222	5
223	3
224	240
225	58
226	6
227	11
228	5
229	11
230	2
235	1
236	1
237	2
238	2
239	3
240	1
241	9
242	2
243	2
248	1
249	2
250	6
251	4
252	4
253	4
254	2
255	7
256	3
257	3
258	1
263	1
264	1
265	2
266	2
267	2
268	1
269	70
270	14
271	2
275	5
276	3
277	2
278	2
279	2
280	2
281	1
282	1
283	7
284	10
285	29
286	6
287	1
292	12
293	11
294	7
295	83
296	19
297	13
298	4
299	3
300	1
310	2
311	11
312	170
313	690
314	150
315	18
316	2
323	1
325	1
326	1
339	2
340	1
350	1
352	2
353	6
354	2
368	7
369	3
380	3
381	1
382	2
395	1
424	1
480	1
493	2
494	1
508	3
509	1
518	1
522	1
535	3
536	260
537	99
538	22
539	3
540	1
