Mass Spectrum: Butane, 1,1'-[methylenebis(oxy)]bis[3-methyl-
Formula: C11H24O2
CAS: 22418-64-0
Molecular weight: 188
m/z	intensity
26	7
27	94
28	22
29	127
30	13
31	44
39	62
40	13
41	214
42	73
43	878
44	39
45	92
51	4
53	17
54	8
55	159
56	39
57	40
58	29
59	39
67	13
68	19
69	652
70	438
71	970
72	69
73	7
81	6
82	32
83	21
84	15
85	48
86	15
87	32
89	7
95	3
97	4
99	93
100	29
101	999
102	68
103	17
113	11
114	5
117	63
118	4
119	6
127	3
131	9
187	23
188	3
