Mass Spectrum: 1,1-Difluorocyclohexan-4-ol
Formula: C6H10F2O
CAS: 22419-35-8
Molecular weight: 136
m/z	intensity
40	28
41	141
42	76
43	96
44	248
45	43
46	5
47	39
49	21
50	9
51	91
52	12
53	84
54	59
55	162
56	21
57	999
58	16
59	124
60	59
61	4
62	21
63	5
64	23
65	38
66	13
67	87
68	49
69	43
70	14
71	40
72	279
73	2
74	83
75	32
76	2
77	99
78	15
79	32
80	2
81	138
82	7
83	14
84	4
85	50
86	3
87	84
88	81
90	7
91	2
93	15
95	39
96	17
97	46
98	145
99	83
101	94
103	12
111	3
113	5
114	2
115	13
116	710
117	61
118	14
119	7
134	5
135	12
136	52
137	4
