Mass Spectrum: Lanostan-3.beta.-ol, 11.beta.,19-epoxy-
Formula: C30H52O2
CAS: 22417-94-3
Molecular weight: 444
m/z	intensity
41	615
42	74
43	999
44	45
45	38
51	12
52	14
53	96
54	360
55	761
56	110
57	567
58	36
65	28
66	21
67	98
68	72
69	716
70	74
71	242
72	24
73	21
77	96
78	28
79	264
80	52
81	451
82	132
83	281
84	45
85	60
86	33
87	14
91	276
92	64
93	382
94	221
95	913
96	283
97	170
98	26
99	24
100	9
101	12
103	24
104	36
105	336
106	98
107	391
108	137
109	389
110	69
111	88
112	24
113	31
114	12
115	24
116	24
117	91
118	50
119	387
120	149
121	192
122	149
123	235
124	45
125	57
126	14
127	14
128	24
129	50
130	33
131	149
132	483
133	312
134	144
135	271
136	194
137	117
138	43
139	31
140	12
141	26
142	24
143	84
144	36
145	230
146	314
147	242
148	96
149	153
150	93
151	52
152	45
153	38
155	26
156	24
157	74
158	48
159	216
160	79
161	204
162	67
163	103
164	72
165	72
166	31
167	14
168	24
169	45
170	24
171	101
172	50
173	216
174	96
175	165
176	45
177	62
178	40
179	38
180	12
181	12
183	28
184	24
185	120
186	45
187	122
188	72
189	120
190	52
191	454
192	125
193	60
194	19
195	14
197	36
198	12
199	72
200	50
201	146
202	74
203	216
204	72
205	57
206	69
207	372
208	146
209	36
210	9
211	33
212	168
213	74
214	117
215	36
216	69
217	60
218	74
219	48
221	432
222	96
223	24
224	12
225	36
226	26
227	69
228	36
229	69
230	40
231	103
232	52
233	60
234	33
235	93
236	26
237	14
238	14
239	24
241	146
242	60
243	358
244	105
245	125
246	48
247	48
248	48
249	74
250	24
251	9
253	84
254	36
255	336
256	238
257	105
258	48
259	384
260	165
261	483
262	218
263	72
264	24
267	7
268	26
269	40
270	19
271	127
272	72
273	629
274	348
275	108
276	86
277	45
278	21
281	12
283	48
284	21
285	24
286	108
287	55
288	24
289	209
290	480
291	331
292	96
293	28
295	26
296	12
297	14
299	24
300	9
301	36
302	24
303	101
304	478
305	115
306	26
311	24
312	12
313	43
314	24
315	24
316	12
317	24
318	19
325	12
327	21
328	14
329	24
330	14
331	50
332	24
339	19
340	19
341	24
342	12
343	12
344	12
353	21
354	9
355	12
356	12
357	12
358	21
359	36
360	24
361	19
368	24
369	14
370	14
374	24
376	16
381	55
382	24
383	28
384	36
385	12
393	36
394	14
395	139
396	88
397	50
398	24
399	74
400	28
401	24
402	12
408	24
409	16
411	79
412	48
413	718
414	336
415	98
416	24
425	12
426	117
427	43
428	12
429	45
430	24
442	24
443	57
444	668
445	240
446	48
447	21
