Mass Spectrum: Ethanethioic acid, S,S'-[thiobis(methylene)] ester
Formula: C6H10O2S3
CAS: 2242-70-8
Molecular weight: 210
m/z	intensity
12	0
13	1
14	7
15	68
16	1
17	0
18	1
24	0
25	0
26	1
27	4
28	6
29	2
30	0
31	0
32	3
33	2
34	2
35	1
36	0
37	0
38	0
39	1
40	0
41	3
42	16
43	999
44	24
45	66
46	60
47	30
48	3
49	1
50	0
51	0
52	0
53	0
54	0
55	1
56	0
57	2
58	17
59	19
60	6
61	7
62	0
63	0
64	4
65	0
66	0
67	0
68	0
69	2
70	0
71	0
72	0
73	1
74	0
75	0
76	7
77	6
78	24
79	13
80	3
81	1
82	0
83	0
84	0
85	0
86	0
87	0
88	1
89	80
90	12
91	36
92	15
93	8
94	2
95	1
96	0
97	0
98	0
99	0
100	0
101	0
102	0
103	6
104	0
105	1
106	0
107	0
109	0
111	0
115	0
117	0
118	1
119	1
120	28
121	38
122	18
123	5
124	3
125	7
126	1
127	1
128	0
129	0
131	0
132	6
133	6
134	54
135	56
136	8
137	5
138	0
139	0
145	0
148	0
149	6
150	6
151	0
152	0
153	0
162	0
163	1
164	7
165	1
166	4
167	37
168	12
169	5
170	1
171	0
172	0
181	0
192	1
193	0
194	0
210	51
211	5
212	6
213	0
214	0
