Mass Spectrum: Acetic acid, anhydride with N-(benzyloxy)benzimidic acid
Formula: C16H15NO3
CAS: 22421-26-7
Molecular weight: 269
m/z	intensity
39	28
41	14
42	16
43	192
45	43
50	26
51	69
52	14
60	26
63	16
64	16
65	55
76	19
77	226
78	36
79	21
89	4
90	9
91	999
92	91
93	19
105	414
106	69
107	19
108	4
210	77
211	16
227	313
228	48
269	43
270	7
