Mass Spectrum: 5-Benzyloxy-2-nitrophenylpyruvic acid
Formula: C16H13NO6
CAS: 22424-59-5
Molecular weight: 315
m/z	intensity
41	9
42	1
43	1
44	97
45	13
46	1
49	4
50	15
51	38
52	22
53	10
54	4
55	4
56	0
57	1
60	0
61	2
62	9
63	33
64	11
65	106
66	9
67	2
68	2
69	2
70	0
71	0
73	0
74	4
75	4
76	6
77	22
78	8
79	10
80	14
81	2
82	2
83	1
84	3
85	0
86	3
87	1
88	1
89	23
91	999
92	80
93	4
94	4
95	1
96	1
97	0
103	0
104	0
105	8
106	10
107	7
108	11
109	2
113	0
115	2
119	0
120	3
121	2
122	4
123	1
128	0
133	0
134	5
135	2
136	25
137	3
138	1
139	1
141	0
147	0
148	11
149	2
150	2
151	1
152	8
153	3
154	1
163	1
164	11
165	4
166	5
167	2
168	1
169	1
179	1
180	3
181	2
182	0
195	0
196	3
197	1
210	1
213	1
224	2
225	12
226	4
227	15
228	2
229	0
237	0
239	10
240	2
241	0
242	1
243	12
244	2
253	9
254	0
255	13
256	2
257	3
259	1
267	0
268	0
269	0
270	13
271	14
272	2
287	0
314	1
315	18
316	3
317	0
