Mass Spectrum: (1R,2R,3S,5R)-(-)-2,3-Pinanediol
Formula: C10H18O2
CAS: 22422-34-0
Molecular weight: 170
m/z	intensity
15	38
17	28
18	98
19	3
26	14
27	248
28	48
29	195
31	23
35	17
36	107
37	8
38	45
39	234
40	36
41	499
42	58
43	999
44	34
45	27
50	11
51	36
52	15
53	142
54	30
55	472
56	107
57	68
58	53
59	19
63	10
65	50
66	19
67	200
68	55
69	691
70	136
71	534
72	184
73	12
74	65
77	67
78	11
79	131
80	27
81	214
82	186
83	780
84	77
85	34
87	29
91	71
92	22
93	148
94	27
95	90
96	19
97	191
98	227
99	513
100	44
101	8
105	12
107	50
108	179
109	164
110	22
111	246
112	21
119	19
121	5
122	6
123	9
124	36
125	32
126	152
127	17
135	6
137	20
152	2
153	6
