Mass Spectrum: Ethane, 1,1'-thiobis(2-methoxy)-
Formula: C6H14O2S
CAS: 22428-72-4
Molecular weight: 150
m/z	intensity
27	90
33	66
41	110
43	65
44	165
45	999
46	100
47	101
58	862
59	530
60	180
61	85
62	55
70	50
72	209
73	45
75	699
76	55
77	46
81	40
87	40
89	55
105	54
109	46
118	430
119	65
120	70
133	40
150	40
