Mass Spectrum: 3,7-Decadiene-5,6-diol, 4,7-dimethyl-
Formula: C12H22O2
CAS: 22427-95-8
Molecular weight: 198
m/z	intensity
39	120
40	10
41	330
42	20
43	999
44	20
45	20
53	70
54	10
55	210
56	20
57	50
58	10
65	10
67	20
69	50
70	10
71	440
72	10
77	10
79	20
81	200
82	40
83	30
84	20
85	10
97	10
98	20
99	550
100	550
101	30
109	10
111	10
123	10
198	30
199	10
