Mass Spectrum: 1,3-Oxazino[4,5-g]-3,1-benzoxazine-4,9-dione, 2,7-dimethyl-
Formula: C12H8N2O4
CAS: 22438-03-5
Molecular weight: 244
m/z	intensity
37	4
38	6
39	3
42	46
43	999
44	68
45	4
49	0
50	19
51	26
52	35
53	31
54	2
61	38
62	54
63	13
64	4
65	3
66	2
67	4
68	0
73	7
74	24
75	16
76	20
77	19
78	4
79	1
80	1
86	0
87	12
88	51
89	23
90	6
91	2
92	0
93	0
94	0
97	0
99	0
100	1
101	2
102	6
103	5
104	9
105	2
114	2
115	50
116	33
117	25
118	2
119	0
128	1
129	4
130	42
131	24
132	38
133	4
134	0
144	145
145	19
146	3
156	2
157	9
158	22
159	148
160	84
161	6
172	0
173	27
174	29
175	9
176	0
185	1
186	0
187	2
200	186
201	25
202	196
203	23
204	1
215	4
229	81
230	9
231	0
243	0
244	300
245	46
246	5
247	0
