Mass Spectrum: Hydrazine, 2-naphthalenyl-
Formula: C10H10N2
CAS: 2243-57-4
Molecular weight: 158
m/z	intensity
39	181
40	35
41	31
42	23
43	27
44	9
50	226
51	187
52	96
53	17
55	17
56	3
57	17
61	58
62	156
63	258
64	66
65	75
66	9
67	14
70	6
73	18
74	136
75	135
76	98
77	119
78	49
79	29
85	34
87	89
88	84
89	102
90	11
91	6
95	2
97	2
98	32
99	24
100	24
101	43
102	81
103	20
112	2
113	32
115	999
116	68
117	9
122	8
123	7
126	179
127	255
128	356
129	43
130	16
139	10
140	71
141	75
142	243
143	40
156	27
157	48
158	600
159	47
