Mass Spectrum: 2,3-Nonadiene
Formula: C9H16
CAS: 22433-34-7
Molecular weight: 124
m/z	intensity
39	260
40	80
41	410
42	80
43	90
50	20
51	60
52	30
53	190
54	50
55	130
65	70
66	50
67	450
68	999
69	80
77	50
79	90
80	10
81	180
82	50
91	10
93	10
95	80
96	10
105	1
107	1
109	5
122	0
123	0
124	1
