Mass Spectrum: Methanamine, N-(1-methylbutylidene)-
Formula: C6H13N
CAS: 22431-09-0
Molecular weight: 99
m/z	intensity
41	99
42	356
43	79
44	9
52	9
53	9
54	39
55	49
56	999
57	49
68	9
70	19
71	475
72	19
84	198
98	9
99	9
