Mass Spectrum: 1,2,4,5-Tetrazine, 1,4-dihydro-1,4-diphenyl-
Formula: C14H12N4
CAS: 2244-91-9
Molecular weight: 236
m/z	intensity
26	1
27	17
28	4
37	2
38	9
39	24
40	2
41	4
49	0
50	38
51	206
52	16
53	0
61	0
62	2
63	16
64	27
65	18
66	2
73	0
74	6
75	7
76	22
77	771
78	66
79	3
80	0
88	0
89	0
90	3
91	39
92	14
93	6
94	0
102	0
103	6
104	999
105	78
106	4
107	9
108	0
117	0
118	44
119	7
120	0
127	0
129	0
131	0
132	0
133	5
134	0
145	1
146	6
147	0
151	0
152	0
153	0
154	0
159	2
167	0
168	0
180	18
181	3
182	0
194	0
207	1
208	5
209	0
210	4
211	0
235	8
236	836
237	127
238	19
239	1
