Mass Spectrum: Benzeneacetic acid, 3-hydroxy-, ethyl ester
Formula: C10H12O3
CAS: 22446-38-4
Molecular weight: 180
m/z	intensity
26	10
27	38
29	177
39	33
41	14
50	10
51	26
52	17
53	17
55	10
77	96
78	33
79	23
90	37
105	10
107	999
108	134
121	17
135	22
180	311
181	38
