Mass Spectrum: Morpholine, 4-[(1-nitroethyl)sulfonyl]-
Formula: C6H12N2O5S
CAS: 22456-98-0
Molecular weight: 224
m/z	intensity
41	15
42	0
43	2
44	0
45	5
48	1
50	5
51	26
52	12
53	15
54	0
55	5
56	0
57	2
61	0
62	4
63	28
64	14
65	103
66	6
67	0
69	2
71	0
74	1
75	1
77	68
78	19
79	31
80	3
84	1
86	1
87	0
89	54
90	65
91	999
92	63
93	2
94	1
102	1
103	8
105	13
107	45
108	186
109	13
110	1
115	2
119	2
120	1
121	3
123	1
126	1
127	0
128	2
129	2
137	2
139	10
140	0
141	5
145	0
151	1
152	3
153	6
154	11
155	2
160	0
163	1
165	14
166	13
167	5
169	32
170	5
178	9
179	51
180	324
181	195
182	22
183	2
195	4
196	1
197	182
198	54
199	6
224	1
225	0
