Mass Spectrum: Oxirane, (2,2-dimethylpropyl)-
Formula: C7H14O
CAS: 2245-29-6
Molecular weight: 114
m/z	intensity
41	940
42	70
43	320
44	10
50	20
51	30
52	10
53	80
54	10
55	190
56	180
57	999
58	240
59	30
65	10
67	20
69	120
70	10
71	70
79	30
81	170
97	10
99	90
