Mass Spectrum: 4-Isopropenylcyclohexanone
Formula: C9H14O
CAS: 22460-53-3
Molecular weight: 138
m/z	intensity
26	3
27	45
28	19
29	21
30	1
31	1
32	1
37	2
38	10
39	163
40	54
41	177
42	38
43	23
44	1
45	1
46	1
50	14
51	35
52	25
53	126
54	70
55	381
56	33
57	21
58	1
61	2
62	6
63	15
64	3
65	51
66	31
67	595
68	999
69	102
70	32
72	1
74	2
75	1
77	44
78	9
79	116
80	27
81	258
82	222
83	111
84	10
89	1
91	15
92	9
93	17
94	33
95	164
96	128
97	199
98	13
99	1
103	2
105	18
106	2
107	5
108	3
109	91
110	175
111	14
112	1
118	1
119	1
120	38
121	7
123	80
124	8
136	3
137	3
138	123
139	13
140	1
