Mass Spectrum: Bicyclo[4.2.0]oct-5-ene-2,3-dicarboxylic anhydride, 1-ethyl-
Formula: C12H14O3
CAS: 22467-69-2
Molecular weight: 206
m/z	intensity
25	0
26	20
27	136
29	30
30	4
37	1
38	8
39	162
41	72
42	4
43	2
45	5
49	1
50	38
51	105
52	37
53	57
54	5
55	16
57	1
58	10
59	1
61	1
62	12
63	39
64	11
65	64
66	13
67	9
68	2
69	0
71	3
73	0
74	7
75	6
76	8
77	159
78	86
79	136
80	13
81	6
82	4
86	4
87	1
89	13
90	2
91	391
92	56
93	27
94	3
97	3
98	3
99	4
101	1
102	12
103	69
104	43
105	999
106	284
107	33
108	1
109	4
115	29
116	10
117	74
118	14
119	117
120	15
121	6
122	4
123	3
125	5
126	3
127	3
128	1
129	2
130	3
131	49
132	44
133	311
134	91
135	15
136	0
137	4
144	3
145	7
146	4
147	4
148	1
149	128
150	13
151	1
159	1
160	15
161	15
162	0
163	13
164	4
165	4
177	0
178	79
179	17
188	5
189	3
206	23
207	5
