Mass Spectrum: Morphinan, 3-methoxy-N,6.alpha.-dimethyl-, (-)-
Formula: C19H27NO
CAS: 2246-03-9
Molecular weight: 285
m/z	intensity
41	140
42	999
43	180
44	350
45	40
51	140
52	20
53	130
54	20
55	210
56	20
57	10
58	130
59	820
60	90
61	10
65	120
66	10
70	100
71	10
77	230
78	120
79	110
80	10
82	140
83	10
91	230
92	20
102	90
103	100
104	10
108	100
109	10
115	420
116	120
117	10
121	180
122	160
123	20
127	150
128	400
129	230
130	30
141	210
142	20
144	100
145	10
152	100
153	120
154	10
158	130
159	120
160	10
162	130
163	20
164	480
165	140
166	20
171	320
172	150
173	20
174	110
175	10
203	90
204	10
226	90
227	10
228	100
229	10
270	100
271	10
284	150
285	400
286	80
287	10
