Mass Spectrum: Cyclopropaneacrylic acid, 3-carboxy-.alpha.,2,2-trimethyl-, dimethyl ester, trans-(+)-
Formula: C12H18O4
CAS: 22467-83-0
Molecular weight: 226
m/z	intensity
27	77
28	130
29	61
39	113
40	26
41	157
42	11
43	59
44	27
45	30
50	10
51	30
52	12
53	93
54	10
55	61
59	142
65	67
66	10
67	55
68	117
69	209
73	174
77	84
78	18
79	112
80	19
81	29
82	18
83	53
85	23
91	226
92	37
93	86
94	16
95	25
96	10
97	35
105	57
106	56
107	999
108	109
109	28
111	18
112	509
113	47
119	24
121	24
123	29
124	13
125	768
126	67
133	15
134	152
135	274
136	43
137	14
139	71
151	19
155	16
162	116
163	64
166	104
167	632
168	70
179	32
183	87
194	161
195	187
196	22
211	9
226	15
227	2
