Mass Spectrum: 5H-Cyclopropa[3,4]benz[1,2-e]azulen-5-one, 9,9a-bis(acetyloxy)-3-[(acetyloxy)methyl]-1,1a,1b,4,4a,7a,7b,8,9,9a-decahydro-7b-hydroxy-1,1,6,8-tetramethyl-, [1aR-(1a.alpha.,1b.beta.,4a.beta.,7a.alpha.,7b.alpha.,8.alpha.,9.beta.,9a.alpha.)]-
Formula: C26H34O8
CAS: 22478-51-9
Molecular weight: 474
m/z	intensity
15	0
16	12
18	0
19	2
20	0
21	0
26	2
27	26
28	20
29	55
30	2
31	8
32	2
33	0
37	1
38	2
39	44
40	10
41	202
42	24
43	999
44	30
45	20
46	1
47	1
49	0
50	7
51	16
52	8
53	62
54	20
55	202
56	46
57	146
58	15
59	43
60	46
61	20
62	2
63	7
64	3
65	59
66	24
67	140
68	39
69	354
70	56
71	86
72	7
73	41
74	8
75	5
76	13
77	129
78	34
79	151
80	41
81	149
82	43
83	518
84	51
85	54
86	25
87	21
88	5
89	10
90	6
91	227
92	41
93	137
94	43
95	146
96	97
97	77
98	31
99	17
100	6
101	37
102	11
103	39
104	27
105	227
106	48
107	177
108	62
109	177
110	39
111	50
112	41
113	35
114	51
115	83
116	39
117	91
118	32
119	177
120	101
121	329
122	177
123	117
124	65
125	227
126	29
127	35
128	73
129	113
130	40
131	111
132	49
133	116
134	60
135	100
136	87
137	65
138	25
139	34
140	11
141	67
142	51
143	113
144	43
145	121
146	70
147	164
148	78
149	506
150	55
151	89
152	89
153	50
154	24
155	58
156	62
157	130
158	72
159	189
160	113
161	151
162	83
163	81
164	54
165	73
166	29
167	75
168	25
169	53
170	72
171	164
172	202
173	151
174	74
175	79
176	45
177	51
178	27
179	40
180	24
181	37
182	25
183	62
184	36
185	103
186	75
187	97
188	122
189	88
190	91
191	44
192	48
193	36
194	24
195	49
196	31
197	82
198	106
199	265
200	202
201	86
202	34
203	50
204	37
205	50
206	21
207	29
208	21
209	53
210	39
211	103
212	125
213	70
214	45
215	215
216	108
217	100
218	36
219	21
220	11
221	26
222	18
223	110
224	46
225	102
226	56
227	102
228	60
229	92
230	43
231	26
232	17
233	32
234	20
235	29
236	22
237	59
238	68
239	67
240	29
241	67
242	54
243	87
244	30
245	20
246	16
247	22
248	25
249	25
250	94
251	164
252	53
253	50
254	35
255	72
256	46
257	27
258	34
259	31
260	29
261	54
262	16
263	18
264	12
265	70
266	189
267	78
268	29
269	103
270	34
271	27
272	17
273	18
274	8
275	16
276	59
277	48
278	21
279	189
280	44
281	29
282	13
283	68
284	88
285	35
286	12
287	17
288	16
289	7
290	4
291	4
292	11
293	78
294	544
295	215
296	41
297	60
298	18
299	8
300	5
301	24
302	10
303	25
304	7
305	2
306	2
307	3
308	5
309	7
310	12
311	151
312	341
313	126
314	24
315	11
316	6
317	3
318	2
319	3
320	2
321	8
322	2
323	3
324	1
325	11
326	39
327	16
328	8
329	53
330	37
331	10
332	3
333	1
334	1
335	2
336	25
337	17
338	5
339	20
340	5
341	5
342	2
343	10
344	20
345	8
346	2
347	1
348	1
349	0
350	1
351	1
352	2
353	12
354	240
355	100
356	21
357	10
358	3
359	1
360	1
361	0
362	1
363	0
364	0
365	1
366	0
367	2
368	6
369	2
370	11
371	253
372	265
373	65
374	11
375	1
376	0
377	0
378	1
379	1
380	0
381	1
382	1
383	1
384	1
385	2
386	7
387	3
388	3
389	4
390	2
391	0
392	0
393	1
394	0
395	0
396	7
397	3
398	1
399	6
400	1
401	1
402	1
403	0
404	0
405	0
406	1
407	1
408	0
409	0
410	3
411	1
412	2
413	2
414	278
415	124
416	26
417	5
418	0
419	0
420	0
421	0
422	0
423	0
424	0
425	0
426	0
427	0
428	1
429	0
430	1
431	22
432	8
433	1
434	0
435	0
436	0
437	0
438	0
439	0
440	0
441	0
442	0
443	0
444	0
445	0
446	0
447	0
448	0
449	0
450	0
451	0
452	1
453	0
454	0
455	0
456	1
457	0
460	0
461	0
462	0
463	0
464	0
465	0
466	0
467	0
468	0
470	0
471	0
472	0
474	2
475	1
476	0
