Mass Spectrum: 1-Bromo-6-[3-chlorophenyl]hexane
Formula: C12H16BrCl
CAS: 224776-01-6
Molecular weight: 274
m/z	intensity
41	394
42	42
43	92
44	4
45	3
47	1
49	9
50	31
51	70
52	14
53	35
54	10
55	125
56	10
57	48
60	0
61	4
62	16
63	80
64	24
65	46
66	4
67	23
68	8
69	297
70	18
71	10
73	25
74	12
75	53
76	16
77	122
78	22
79	9
80	2
81	12
82	6
83	27
84	9
85	10
86	6
87	7
88	5
89	175
90	75
91	692
92	68
93	11
95	15
96	2
97	22
99	64
101	37
102	28
103	124
104	27
105	17
107	28
109	28
110	3
111	12
112	35
113	13
114	15
115	56
116	22
117	39
118	4
119	4
120	0
121	5
122	1
123	9
125	999
126	936
127	399
128	302
129	30
130	4
131	19
132	2
133	2
134	1
135	6
136	3
137	8
138	62
139	175
140	32
141	57
142	4
143	0
147	0
149	20
150	0
151	29
152	6
153	65
154	7
155	21
156	2
159	8
160	0
162	2
163	3
164	2
165	8
166	3
167	29
168	6
169	19
171	13
172	0
177	0
178	1
179	1
180	0
181	9
182	1
183	2
185	1
189	0
191	1
193	1
194	5
195	23
196	3
197	8
198	1
238	0
239	9
240	1
241	8
242	1
273	3
274	225
275	28
276	279
277	35
278	71
279	9
280	0
