Mass Spectrum: o-Phenyl 4,4-dimethyl-2-(p-nitrophenyl)-1,3-dithioallophanate
Formula: C16H15N3O3S2
CAS: 22476-89-7
Molecular weight: 361
m/z	intensity
15	9
26	1
27	4
28	10
29	1
30	4
32	2
37	3
38	6
39	27
40	4
41	2
42	39
43	9
44	30
45	9
46	2
47	16
49	2
50	27
51	33
52	4
53	1
55	3
56	13
57	1
58	2
59	1
60	3
61	9
62	5
63	27
64	13
65	28
66	8
67	1
69	5
70	4
71	1
72	372
73	62
74	14
75	19
76	26
77	175
78	15
79	1
81	1
82	2
83	4
84	3
87	6
88	999
89	48
90	109
91	9
92	2
93	9
94	50
95	5
96	3
99	2
102	2
104	1
105	5
106	2
107	21
108	8
109	18
110	3
111	1
118	3
119	1
120	4
121	1
122	20
123	2
124	1
131	2
132	1
133	8
134	75
135	10
136	7
137	4
146	24
147	6
148	10
149	7
150	30
151	3
152	2
162	1
163	3
164	9
165	2
166	1
167	5
176	1
177	2
178	2
180	227
181	97
182	19
183	5
192	103
193	11
194	2
195	5
196	1
197	1
198	1
206	1
207	8
208	2
222	5
223	1
224	1
225	1
235	1
239	1
241	113
242	16
243	2
252	197
253	25
254	10
255	1
268	17
269	2
270	2
284	2
285	1
361	86
362	17
363	9
364	1
