Mass Spectrum: o-(p-Chlorophenyl) 2-(p-chlorophenyl)-4,4-dimethyl-1,3-dithioallophanate
Formula: C16H14Cl2N2OS2
CAS: 22477-28-7
Molecular weight: 384
m/z	intensity
15	7
27	2
28	2
29	1
30	2
32	1
36	2
37	3
38	5
39	7
41	1
42	34
43	6
44	22
45	8
46	1
47	15
49	3
50	21
51	12
52	1
56	14
57	1
58	1
59	1
60	1
61	11
62	5
63	13
64	8
65	6
66	3
67	1
69	3
70	2
71	2
72	464
73	61
74	15
75	78
76	18
77	2
79	2
81	1
82	1
83	2
84	13
85	8
86	2
87	6
88	999
89	50
90	56
91	3
92	1
93	1
95	1
98	1
99	14
100	3
101	4
102	7
107	3
108	7
109	2
110	2
111	147
112	9
113	46
114	4
118	1
120	1
124	1
125	13
126	1
127	11
128	22
129	4
130	9
133	5
134	22
135	3
136	2
137	13
138	3
139	7
140	1
141	1
142	6
143	10
144	3
145	4
146	1
149	5
151	1
153	3
155	1
163	2
165	2
166	12
167	2
168	4
169	302
170	29
171	111
172	10
173	5
178	3
181	69
182	7
183	22
184	3
187	4
189	1
198	1
199	1
201	3
203	1
213	1
214	2
215	47
216	6
217	17
218	2
229	3
231	1
236	1
241	211
242	26
243	79
244	9
245	4
246	2
248	1
257	34
258	4
259	13
260	2
261	1
264	38
265	5
266	25
267	3
268	4
273	2
275	1
308	1
310	1
384	39
385	8
386	28
387	5
388	6
389	1
