Mass Spectrum: Cinnamamide, N-(benzyloxy)-
Formula: C16H15NO2
CAS: 22472-17-9
Molecular weight: 253
m/z	intensity
74	51
75	34
76	53
77	504
78	140
79	84
90	48
91	999
92	104
101	26
102	128
103	419
104	55
105	262
106	233
107	77
108	31
116	14
117	60
118	48
119	19
129	51
130	111
131	834
132	101
145	60
146	293
147	167
148	24
193	72
194	12
236	53
237	7
252	12
253	101
254	29
