Mass Spectrum: Pentafluorophenyl-tetra-fluorophosphorane
Formula: C6F9P
CAS: 22474-70-0
Molecular weight: 274
m/z	intensity
69	337
88	9
107	999
117	209
129	20
148	80
167	79
217	9
236	100
255	190
274	190
