Mass Spectrum: Benzene, 1-(2-methoxyethoxy)-4-nitro-
Formula: C9H11NO4
CAS: 22483-40-5
Molecular weight: 197
m/z	intensity
15	67
25	1
26	17
27	42
29	338
30	72
31	241
33	10
37	7
38	41
39	46
40	3
41	20
42	11
43	142
44	8
45	692
46	19
47	2
49	2
50	100
51	37
52	18
53	18
54	9
55	4
57	6
58	248
59	999
60	31
61	10
62	38
63	142
64	91
65	52
66	10
67	2
68	4
69	1
73	3
74	34
75	92
76	136
77	32
78	22
79	14
80	9
81	11
82	5
83	1
88	1
89	6
90	4
91	26
92	52
93	20
94	6
95	3
96	2
104	1
105	3
106	21
107	8
108	6
109	28
110	2
117	1
118	8
119	7
120	5
121	2
122	49
123	25
124	2
128	1
135	2
136	4
137	2
138	1
139	3
147	1
148	2
149	2
150	1
151	2
152	22
153	2
164	1
165	1
166	3
167	4
168	1
179	1
181	5
197	158
198	16
199	2
