Mass Spectrum: 3-Cyclohex-3-enyl-propionic acid
Formula: C9H14O2
CAS: 22482-62-8
Molecular weight: 154
m/z	intensity
26	50
27	450
29	394
30	25
31	82
33	10
34	29
36	29
37	14
38	39
39	473
40	369
41	608
42	252
43	291
44	388
45	224
46	22
47	13
50	46
51	125
52	81
53	343
54	674
55	430
56	117
57	142
58	62
59	62
60	113
61	42
62	13
63	31
64	14
65	139
66	120
67	362
68	89
69	164
70	103
71	236
72	23
73	180
74	43
75	19
76	11
77	271
78	99
79	703
80	238
81	603
82	144
83	84
84	81
85	47
86	33
87	18
91	164
92	288
93	227
94	999
95	434
96	79
97	81
98	82
99	57
100	38
101	14
102	21
103	14
104	10
105	40
106	11
107	33
108	198
109	61
110	24
111	35
112	26
113	34
114	14
115	15
116	14
117	58
118	215
119	36
120	24
121	36
135	22
136	382
137	70
138	19
139	49
140	10
152	16
154	278
155	33
