Mass Spectrum: Methyl-6-deoxy-6-fluoro-2,3,4-tri-O-methyl.beta.d-galactopyranoside
Formula: C10H19FO5
CAS: 2248-90-0
Molecular weight: 238
m/z	intensity
45	127
59	41
71	41
73	192
75	201
88	999
89	91
99	24
101	974
102	41
111	7
115	16
127	7
131	41
133	7
145	7
147	12
175	7
176	33
207	24
