Mass Spectrum: (3S,4aR,5S,8aS)-4a,5-Dimethyl-3-(prop-1-en-2-yl)-2,3,4,4a,5,6-hexahydronaphthalen-1(8aH)-one
Formula: C15H22O
CAS: 22489-11-8
Molecular weight: 218
m/z	intensity
26	1
27	18
28	3
29	18
30	1
38	2
39	85
40	21
41	135
42	17
43	26
44	1
50	6
51	33
52	17
53	107
54	14
55	66
56	6
57	4
58	2
59	2
60	1
62	2
63	11
64	5
65	76
66	22
67	157
68	50
69	28
70	4
71	3
72	1
73	1
74	2
75	2
76	3
77	241
78	54
79	211
80	53
81	93
82	21
83	9
84	7
85	2
86	1
87	1
88	1
89	7
90	2
91	399
92	66
93	999
94	121
95	85
96	14
97	19
98	3
99	1
101	1
102	4
103	21
104	8
105	161
106	94
107	319
108	590
109	451
110	57
111	8
112	17
113	2
115	20
116	7
117	21
118	20
119	75
120	43
121	60
122	25
123	13
124	4
125	1
127	3
128	10
129	11
130	5
131	20
132	13
133	63
134	27
135	56
136	29
137	8
138	8
141	3
142	3
143	30
144	8
145	31
146	9
147	32
148	32
149	34
150	14
151	37
152	4
155	1
156	2
157	33
158	13
159	28
160	9
161	53
162	19
163	7
164	3
170	1
171	6
172	5
173	4
174	22
175	40
176	22
177	7
178	1
185	29
186	5
187	2
189	9
190	9
191	1
200	10
201	2
203	25
204	4
217	1
218	109
219	18
220	2
