Mass Spectrum: Cyclooctanol, o-[5-bromo-n-pentyl]-
Formula: C13H25BrO
CAS: 22498-17-5
Molecular weight: 276
m/z	intensity
41	836
42	189
43	242
44	37
45	19
50	1
51	10
53	90
55	363
56	19
57	164
58	11
59	9
63	1
65	11
67	178
69	999
70	57
71	37
72	5
73	1
77	6
79	19
81	109
82	78
83	19
84	9
85	19
87	53
88	2
91	3
93	8
95	42
96	5
97	8
98	5
99	8
101	1
105	4
107	28
109	48
110	125
111	410
112	39
113	5
115	12
119	0
121	3
123	5
125	2
127	7
128	9
131	3
133	7
135	3
137	2
141	5
149	320
151	375
152	16
163	0
165	2
167	30
169	35
170	0
177	4
179	3
181	0
192	0
193	0
194	2
195	5
197	2
205	16
207	15
208	0
219	3
221	3
233	6
235	6
247	2
249	2
275	5
276	44
277	8
278	45
279	8
280	2
