Mass Spectrum: Benzene, [(1-methyl-2-propenyl)oxy]-
Formula: C10H12O
CAS: 22509-78-0
Molecular weight: 148
m/z	intensity
36	2
37	4
38	17
39	132
40	23
41	18
42	3
43	17
47	2
48	1
49	2
50	20
51	53
52	9
53	38
54	28
55	289
56	20
57	8
58	2
59	1
62	5
63	15
64	9
65	45
66	57
67	5
68	3
69	4
70	3
71	4
74	3
75	2
76	4
77	47
78	9
79	7
80	1
81	3
82	1
83	4
84	1
85	2
86	0
89	1
91	13
92	3
93	8
94	999
95	68
96	4
97	3
98	1
99	1
100	0
102	1
103	4
104	2
105	23
106	3
107	11
108	1
109	2
111	2
115	4
119	8
120	7
121	4
123	1
125	1
127	1
128	2
129	1
131	5
132	1
133	17
134	2
147	4
148	80
149	13
150	1
