Mass Spectrum: 2-Methoxyethyl acetoacetate
Formula: C7H12O4
CAS: 22502-03-0
Molecular weight: 160
m/z	intensity
13	1
14	7
15	85
16	2
19	1
25	2
26	18
27	58
28	7
29	183
30	12
31	97
32	1
33	4
37	2
38	5
39	18
40	4
41	25
42	142
43	999
44	33
45	622
46	15
47	7
53	2
55	7
56	3
57	7
58	696
59	162
60	7
61	2
69	39
70	5
71	3
72	5
73	24
74	2
75	10
76	4
77	17
84	24
85	252
86	33
87	19
88	5
99	1
100	1
101	1
102	24
103	22
104	1
112	1
113	14
114	1
115	6
117	2
118	5
129	1
130	19
131	1
142	6
145	2
160	5
