Mass Spectrum: Methyl 4-oxo-2-heptenedioate
Formula: C9H12O5
CAS: 22503-69-1
Molecular weight: 200
m/z	intensity
15	46
17	1
18	8
26	19
27	26
28	20
29	9
30	2
31	10
32	4
38	1
39	13
40	1
41	18
42	11
43	4
44	1
45	8
50	1
51	2
52	1
53	41
54	42
55	94
56	9
57	5
58	1
59	131
60	3
63	1
65	2
67	1
68	7
69	26
71	10
79	1
80	2
81	43
82	49
83	5
84	1
85	82
86	5
87	20
88	2
93	2
95	1
96	8
97	3
98	3
99	4
108	8
109	182
110	18
111	5
112	13
113	999
114	63
115	38
116	2
123	1
124	3
125	1
126	130
127	13
128	2
136	12
137	67
138	13
139	1
140	32
141	20
142	2
145	4
153	1
157	1
168	197
169	264
170	24
171	3
172	14
173	1
185	1
200	2
201	1
