Mass Spectrum: 7-Tridecylamine
Formula: C13H29N
CAS: 22513-16-2
Molecular weight: 199
m/z	intensity
29	50
30	210
31	50
39	20
40	10
41	80
42	20
43	120
44	50
55	100
56	50
57	20
69	20
70	20
114	999
115	100
128	20
198	10
199	10
