Mass Spectrum: 1,7,7-Trimethylbicyclo[2.2.1]hept-5-en-2-one
Formula: C10H14O
CAS: 22516-10-5
Molecular weight: 150
m/z	intensity
26	5
27	86
28	5
29	38
37	3
38	12
39	160
40	25
41	130
42	18
43	16
44	5
49	1
50	27
51	74
52	32
53	73
54	11
55	21
56	2
57	13
58	4
59	4
60	2
61	2
62	7
63	28
64	7
65	72
66	22
67	31
68	5
69	6
74	4
75	6
76	3
77	184
78	40
79	134
80	42
81	15
82	5
83	2
89	11
90	6
91	369
92	62
93	918
94	85
95	13
96	3
102	3
103	13
104	4
105	69
106	13
107	421
108	999
109	99
110	4
115	3
117	2
119	3
121	7
122	20
123	3
135	11
149	8
150	35
151	6
