Mass Spectrum: 1,22-Docosanediol
Formula: C22H46O2
CAS: 22513-81-1
Molecular weight: 342
m/z	intensity
29	122
31	403
39	91
41	740
42	409
43	493
53	84
54	141
55	999
56	309
57	339
66	38
67	255
68	190
69	858
70	202
71	159
81	313
82	374
83	462
84	93
85	74
94	50
95	242
96	320
97	296
98	65
109	193
110	138
111	175
123	134
124	130
125	83
137	103
138	109
152	47
153	5
166	47
167	6
181	44
182	5
194	44
195	6
222	47
223	7
278	54
279	11
306	81
307	19
