Mass Spectrum: 4-Aminophenylsuccinic acid
Formula: C10H11NO4
CAS: 22511-21-3
Molecular weight: 209
m/z	intensity
41	40
42	230
43	153
44	145
45	579
46	27
47	28
50	82
51	158
52	110
53	75
54	63
55	107
56	31
57	71
59	104
60	53
61	14
62	43
63	115
64	53
65	233
66	83
67	42
68	25
69	51
70	21
71	30
73	38
74	27
75	39
76	77
77	313
78	92
79	24
80	56
81	12
82	36
83	44
84	6
85	13
87	24
89	96
90	54
91	268
92	69
93	140
94	275
95	26
96	5
97	34
101	27
102	35
103	90
104	90
105	207
106	999
107	78
108	26
111	27
116	34
117	151
118	512
119	587
120	213
122	262
123	78
124	5
129	21
130	28
131	11
146	50
150	274
151	31
153	6
159	87
162	46
163	851
164	553
165	193
166	27
177	64
178	29
179	19
183	27
189	11
191	205
192	30
208	24
209	811
210	85
211	6
