Mass Spectrum: Thiophene, 2,5-di(benzoylthio)-
Formula: C18H12O2S3
CAS: 22511-32-6
Molecular weight: 356
m/z	intensity
39	3
41	1
43	1
44	7
45	1
50	16
51	68
52	2
55	0
69	23
70	24
71	2
74	0
75	3
76	13
77	628
78	27
88	0
101	0
102	0
103	0
104	13
105	999
106	160
107	7
114	10
121	0
122	0
146	0
356	74
357	20
358	5
