Mass Spectrum: 9-Hexadecenoic acid, eicosyl ester, (Z)-
Formula: C36H70O2
CAS: 22522-34-5
Molecular weight: 534
m/z	intensity
26	14
27	48
28	87
29	110
30	8
31	8
32	16
33	9
36	7
37	6
38	9
39	57
40	20
41	400
42	110
43	760
44	49
45	13
50	9
51	10
52	8
53	40
54	150
55	910
56	280
57	999
58	52
59	12
60	29
61	30
62	7
63	9
64	71
65	17
66	45
67	240
68	200
69	880
70	290
71	640
72	40
73	79
74	14
75	8
76	7
77	23
78	14
79	52
80	44
81	260
82	260
83	790
84	440
85	450
86	36
87	45
88	9
89	5
90	4
91	31
92	12
93	43
94	46
95	220
96	350
97	680
98	460
99	140
100	46
101	84
102	16
103	7
104	9
105	21
106	13
107	35
108	42
109	140
110	200
111	360
112	160
113	100
114	110
115	77
116	27
117	17
118	10
119	31
120	15
121	51
122	31
123	140
124	110
125	200
126	90
127	130
128	42
129	64
130	14
131	12
132	7
133	35
134	33
135	53
136	32
137	120
138	140
139	120
140	58
141	87
142	27
143	36
144	13
145	11
146	5
147	31
148	28
149	54
150	23
151	110
152	230
153	120
154	44
155	60
156	20
157	33
158	25
159	12
160	7
161	23
162	13
163	18
164	11
165	74
166	53
167	53
168	26
169	35
170	14
171	35
172	19
173	8
174	4
175	14
176	9
177	12
178	11
179	52
180	30
181	29
182	26
183	27
184	12
185	26
186	14
187	7
188	4
189	9
190	7
191	9
192	130
193	72
194	220
195	62
196	20
197	20
198	10
199	15
200	11
201	27
202	13
203	9
204	5
205	6
206	6
207	30
208	35
209	14
210	13
211	22
212	10
213	10
214	5
215	4
216	5
217	43
218	69
219	62
220	25
221	16
222	11
223	8
224	11
225	12
226	12
227	6
228	5
229	8
230	4
231	4
232	4
233	5
234	16
235	80
236	870
237	300
238	47
239	15
240	6
241	4
242	4
243	10
244	4
245	3
246	3
247	3
248	4
249	4
250	9
251	12
252	53
253	30
254	66
255	150
256	36
257	45
258	10
259	4
260	3
261	3
262	3
263	3
264	7
265	6
266	5
267	5
268	6
269	5
270	4
271	3
273	3
274	3
275	3
276	3
277	4
278	14
279	8
280	30
281	18
282	7
283	4
284	4
285	5
286	3
290	3
291	3
292	4
293	3
294	5
295	8
296	5
297	4
298	3
304	3
305	4
306	4
307	5
308	4
309	4
310	6
311	4
312	3
313	3
314	3
315	3
319	3
320	3
321	3
322	7
323	6
324	5
325	18
326	6
327	3
331	3
332	3
333	3
335	4
336	3
337	3
338	3
339	3
340	5
341	4
348	3
350	4
351	3
352	4
353	8
354	4
363	3
364	3
365	3
366	3
367	3
374	3
376	4
377	5
378	4
379	4
380	4
381	4
391	3
392	4
393	4
394	4
395	4
396	4
407	11
408	6
409	5
410	4
421	4
422	4
423	4
424	5
435	4
436	4
437	4
438	5
448	4
449	4
452	6
453	4
463	4
466	5
469	4
477	4
479	4
490	4
505	4
516	4
522	4
532	6
533	6
534	27
535	14
536	9
537	5
