Mass Spectrum: 2H-Quinolizin-1-ol, octahydro-
Formula: C9H17NO
CAS: 22525-60-6
Molecular weight: 155
m/z	intensity
53	30
54	70
55	260
56	80
57	20
67	30
68	40
69	70
70	40
71	30
80	20
81	20
82	100
83	999
84	150
94	20
96	120
97	220
98	670
99	60
110	190
111	620
112	70
113	20
114	10
124	140
125	20
126	40
127	20
136	30
137	10
138	60
139	10
140	20
154	260
155	450
156	40
