Mass Spectrum: DL-4,5-Octanediol
Formula: C8H18O2
CAS: 22520-40-7
Molecular weight: 146
m/z	intensity
27	220
28	80
29	140
41	230
42	60
43	400
54	70
55	999
56	100
57	170
71	50
72	400
73	630
