Mass Spectrum: Germane, trimethyl(pentafluorophenoxy)-
Formula: C9H9F5GeO
CAS: 22530-02-5
Molecular weight: 302
m/z	intensity
69	37
70	11
71	23
72	15
73	33
74	25
75	41
77	11
78	21
79	14
84	15
85	76
86	26
87	114
88	51
89	187
90	17
91	128
92	33
93	155
94	35
98	24
99	14
100	37
101	15
102	47
103	27
104	61
105	27
106	20
115	533
116	31
117	780
118	253
119	999
120	47
121	307
122	59
123	213
125	54
136	117
137	25
139	15
145	14
154	11
155	43
156	6
163	15
164	7
166	8
168	10
179	9
181	5
183	17
184	161
185	14
199	7
200	17
235	8
237	15
239	7
253	7
255	10
257	13
283	40
284	9
285	53
286	23
287	72
288	10
289	19
298	49
299	1
300	67
301	3
302	90
303	2
304	23
305	3
