Mass Spectrum: 7H-Acenaphtho[1,2-c]pyrazole-7,8(9H)-dicarboxanilide, 9-phenyl-
Formula: C33H24N4O2
CAS: 22531-81-3
Molecular weight: 508
m/z	intensity
50	340
51	803
52	190
74	16
76	26
77	280
78	80
88	56
90	54
91	999
92	160
93	679
94	60
119	999
120	136
199	8
200	14
201	6
251	18
252	18
253	40
254	84
255	40
256	18
296	28
297	50
298	20
311	20
312	36
313	20
329	28
330	36
331	66
332	30
373	20
374	38
375	18
388	32
389	50
390	34
