Mass Spectrum: Diborane(6), .mu.-mercapto-
Formula: B2H6S
CAS: 22548-43-2
Molecular weight: 60
m/z	intensity
11	90
12	29
13	175
22	9
23	6
24	70
25	20
26	50
27	350
32	135
33	175
34	430
43	30
44	130
45	275
46	135
48	8
54	25
55	215
56	900
57	999
58	405
59	180
60	5
