Mass Spectrum: (1S,2S,4S)-Trihydroxy-p-menthane
Formula: C10H20O3
CAS: 22555-61-9
Molecular weight: 188
m/z	intensity
19	1
26	2
27	50
28	9
29	52
30	2
31	25
36	1
37	1
38	2
39	84
40	19
41	256
42	36
43	999
44	46
45	59
46	2
47	6
50	4
51	14
52	7
53	78
54	13
55	292
56	42
57	142
58	411
59	127
60	8
61	8
62	3
63	5
64	2
65	29
66	13
67	133
68	26
69	166
70	61
71	531
72	92
73	155
74	66
75	4
76	2
77	35
78	7
79	81
80	10
81	366
82	37
83	185
84	49
85	270
86	69
87	29
88	6
89	22
91	41
92	8
93	48
94	30
95	129
96	15
97	113
98	28
99	267
100	97
101	10
102	1
103	3
106	4
107	29
108	20
109	731
110	72
111	38
112	117
113	24
114	6
115	149
116	114
117	398
118	28
119	38
120	6
121	10
122	7
123	25
124	5
125	17
126	23
127	800
128	63
129	6
130	1
134	13
135	15
136	4
137	35
138	3
139	4
140	2
142	3
143	4
144	14
145	476
146	36
149	1
151	1
152	18
153	9
155	6
170	9
171	1
188	1
