Mass Spectrum: 1,2-Propanediol, 3-(methylthio)-
Formula: C4H10O2S
CAS: 22551-26-4
Molecular weight: 122
m/z	intensity
14	5
15	64
16	1
17	3
18	11
19	1
26	8
27	93
28	47
29	74
30	7
31	125
32	4
33	3
34	8
38	2
39	19
40	3
41	20
42	21
43	313
44	74
45	222
46	169
47	383
48	144
49	77
50	7
51	3
53	1
54	1
55	23
56	58
57	519
58	42
59	43
60	32
61	999
62	534
63	93
64	25
65	3
69	1
71	3
72	2
73	77
74	28
75	60
76	76
77	11
78	15
79	1
85	2
86	3
87	6
88	2
89	17
90	37
91	738
92	33
93	35
94	1
101	5
102	1
103	6
104	830
105	75
106	41
107	4
119	2
120	2
122	75
123	7
124	4
