Mass Spectrum: .alpha.-(Methylthio)acetamide
Formula: C3H7NOS
CAS: 22551-24-2
Molecular weight: 105
m/z	intensity
26	28
27	190
28	35
30	79
31	5
32	1
33	3
35	220
37	4
39	1
41	29
42	110
43	62
44	319
45	251
46	216
47	368
48	21
49	11
57	3
58	20
59	999
60	38
61	543
62	144
63	24
64	5
72	2
87	6
105	454
106	20
107	14
