Mass Spectrum: Benzene, 1-(chloromethyl)-2-ethenyl-
Formula: C9H9Cl
CAS: 22570-84-9
Molecular weight: 152
m/z	intensity
39	140
50	50
51	80
58	90
63	107
65	56
89	66
91	200
102	20
115	524
116	195
117	999
118	102
152	338
154	110
