Mass Spectrum: .beta.-Allyloxypropionic acid
Formula: C6H10O3
CAS: 22577-15-7
Molecular weight: 130
m/z	intensity
13	1
14	11
15	57
16	2
17	4
18	14
25	5
26	64
27	317
28	292
29	470
30	131
31	187
32	12
33	8
37	11
38	33
39	402
40	88
41	924
42	149
43	374
44	38
45	434
46	16
47	28
50	1
51	2
52	1
53	9
54	19
55	494
56	243
57	980
58	995
59	69
60	27
61	23
66	2
67	14
68	9
69	28
70	27
71	433
72	60
73	999
74	266
75	14
76	2
77	2
79	6
80	3
81	2
82	2
83	21
84	299
85	36
86	11
87	14
88	11
89	253
90	8
91	3
94	6
95	1
97	4
98	1
99	1
100	1
101	1
102	1
103	10
104	1
105	1
111	1
112	150
113	69
114	5
115	1
129	5
130	19
131	11
132	1
