Mass Spectrum: Acetic acid, anhydride with formic acid
Formula: C3H4O3
CAS: 2258-42-6
Molecular weight: 88
m/z	intensity
12	9
13	52
14	207
15	517
16	69
17	8
18	13
24	1
25	18
26	28
28	86
29	844
30	52
31	69
41	138
42	560
43	999
44	410
45	766
46	17
47	4
56	2
60	198
61	4
73	1
87	26
