Mass Spectrum: 2-Benzoyl-6-hexanelactam
Formula: C13H15NO2
CAS: 22585-46-2
Molecular weight: 217
m/z	intensity
26	24
27	186
29	83
30	81
38	21
39	172
40	24
41	213
42	40
43	91
44	32
50	76
51	280
52	33
53	41
54	62
55	127
56	150
57	69
58	14
62	13
63	44
64	25
65	50
66	13
67	53
68	17
69	66
70	28
71	25
74	21
75	24
76	37
77	690
78	84
79	30
80	12
81	37
82	17
83	29
84	46
85	17
91	45
94	24
95	57
103	17
104	17
105	999
106	79
112	79
115	53
116	16
117	26
127	13
128	30
129	44
130	19
131	32
133	26
145	24
146	29
147	16
189	66
190	10
216	24
217	102
218	19
