Mass Spectrum: 1,4-p-Menthadien-7-al
Formula: C10H14O
CAS: 22580-90-1
Molecular weight: 150
m/z	intensity
26	2
27	41
28	5
29	39
30	1
31	1
37	2
38	9
39	100
40	13
41	106
42	5
43	130
44	4
45	1
46	1
49	1
50	38
51	106
52	41
53	63
54	7
55	18
56	3
57	2
58	2
59	2
60	5
61	4
62	16
63	54
64	10
65	87
66	42
67	35
68	5
69	5
73	2
74	20
75	15
76	15
77	431
78	102
79	959
80	71
81	12
82	2
86	3
87	5
88	1
89	17
90	10
91	239
92	30
93	61
94	10
95	5
98	2
101	3
102	13
103	60
104	15
105	210
106	41
107	999
108	95
110	1
113	1
114	1
115	26
116	6
117	23
118	4
119	13
120	9
121	51
122	7
123	1
128	1
129	1
131	3
132	1
133	6
134	3
135	28
136	3
149	2
150	8
151	2
