Mass Spectrum: 4-Pentenoic acid, 4-methyl-, methyl ester
Formula: C7H12O2
CAS: 2258-59-5
Molecular weight: 128
m/z	intensity
27	220
28	29
29	133
30	9
31	19
33	5
34	1
35	0
36	2
37	10
38	26
39	294
40	73
41	829
42	69
43	73
44	4
45	25
46	0
48	0
49	2
50	18
51	31
52	14
53	136
54	33
55	202
56	25
57	17
58	2
59	130
60	4
61	3
62	3
63	5
64	0
65	15
66	12
67	187
68	405
69	999
70	55
71	57
72	10
73	25
74	9
75	0
77	1
79	2
81	44
82	2
83	2
84	0
85	22
86	34
87	21
88	2
93	0
94	0
95	19
96	272
97	192
98	13
99	4
100	1
111	1
113	21
114	1
127	2
128	140
129	11
130	0
