Mass Spectrum: 2-Pentyne, 1-chloro-
Formula: C5H7Cl
CAS: 22592-15-0
Molecular weight: 102
m/z	intensity
14	1
15	7
25	2
26	22
27	95
28	1
35	5
36	19
37	24
38	50
39	388
40	102
41	696
42	33
43	13
44	6
45	1
47	2
48	6
49	26
50	74
51	286
52	78
53	130
54	14
55	4
56	4
57	9
60	6
61	35
62	51
63	57
64	14
65	304
66	174
67	999
68	88
69	4
71	1
72	2
73	29
74	9
75	37
76	11
77	11
78	3
79	1
83	3
84	2
85	4
86	9
87	74
88	6
89	27
90	1
99	5
100	2
101	38
102	900
103	77
104	292
105	21
106	1
