Mass Spectrum: 2-Azetidinone, 3,4,4-trimethyl-
Formula: C6H11NO
CAS: 22607-01-8
Molecular weight: 113
m/z	intensity
39	80
41	120
42	360
43	30
55	770
56	140
57	10
58	280
59	20
70	999
71	60
113	10
