Mass Spectrum: Azetidine, 2-phenyl-1-(phenylmethyl)-
Formula: C16H17N
CAS: 22606-85-5
Molecular weight: 223
m/z	intensity
30	50
39	50
41	30
43	70
50	40
51	70
52	40
63	50
64	20
65	120
66	30
74	20
75	20
76	40
77	120
78	100
79	40
89	70
90	50
91	999
92	170
93	20
102	40
103	130
104	520
105	110
106	50
107	20
108	20
115	40
116	30
117	110
118	160
119	90
120	30
130	20
131	30
132	150
133	30
144	20
146	50
147	20
165	30
167	20
193	30
194	260
195	70
196	30
221	30
222	370
223	190
224	40
