Mass Spectrum: Azetidine, 1-benzyl-2,2,3,3-tetramethyl-
Formula: C14H21N
CAS: 22606-88-8
Molecular weight: 203
m/z	intensity
39	60
41	150
42	20
56	160
57	20
65	60
69	180
70	20
91	999
92	80
120	60
132	50
146	80
147	130
148	10
203	40
