Mass Spectrum: Benzo[1,2,5]oxadiazol-5-ylthiophen-2-ylmethanone
Formula: C11H6N2O2S
CAS: 226090-73-9
Molecular weight: 230
m/z	intensity
25	1
26	9
27	17
28	52
29	14
30	36
31	2
32	10
34	1
35	1
36	14
37	17
38	65
39	380
40	23
41	62
42	5
43	31
44	10
45	70
46	1
47	3
49	3
50	22
51	25
52	7
53	26
54	3
55	43
56	5
57	62
58	15
59	6
60	2
61	12
62	47
63	30
64	25
65	13
66	8
67	9
68	4
69	81
70	7
71	14
72	4
73	13
74	8
75	10
76	8
77	23
78	9
79	7
80	4
81	22
82	28
83	114
84	16
85	16
86	7
87	10
88	18
89	18
90	2
91	11
92	2
93	5
94	3
95	14
96	5
97	11
98	3
99	3
100	5
101	9
102	5
103	3
104	1
105	10
106	1
107	2
108	12
109	26
110	22
111	999
112	64
113	46
114	6
115	9
116	2
117	20
118	6
119	10
120	3
121	10
122	14
123	13
124	1
125	1
127	3
128	11
129	5
132	1
133	2
134	5
135	10
136	11
137	5
138	3
139	7
140	1
141	1
142	1
145	20
146	15
147	39
148	5
149	15
150	247
151	36
152	17
153	2
154	4
156	2
157	2
158	3
159	4
160	1
161	11
162	1
163	2
165	2
167	3
170	3
171	1
172	95
173	17
174	10
175	2
177	3
178	4
179	2
180	3
184	1
185	9
186	9
187	14
195	1
196	2
197	1
199	3
200	59
201	7
202	20
203	1
206	9
207	4
213	21
214	2
224	5
227	5
229	3
230	413
231	54
232	23
233	2
