Mass Spectrum: Methyl 5-amino-2-furoate
Formula: C6H7NO3
CAS: 22600-30-2
Molecular weight: 141
m/z	intensity
14	1
15	36
25	7
26	43
27	67
28	39
29	46
30	11
31	11
33	5
36	4
37	39
38	64
39	32
40	10
41	34
42	17
43	10
44	135
45	10
50	6
51	39
52	319
53	434
54	999
55	137
56	8
59	34
65	11
66	20
67	7
68	11
69	13
70	63
71	5
80	151
81	191
82	139
83	630
84	39
85	5
93	10
94	6
95	12
98	155
99	10
110	799
111	55
112	23
141	902
142	65
143	8
