Mass Spectrum: 4-(Thiophene-2-carbonyl)[1,2]benzoquinone dioxime
Formula: C11H8N2O3S
CAS: 226090-72-8
Molecular weight: 248
m/z	intensity
25	0
26	5
27	7
28	16
29	3
30	34
31	4
32	1
34	0
35	0
36	2
37	13
38	45
39	320
40	16
41	7
42	2
43	5
44	4
45	48
46	3
47	3
48	0
49	3
50	19
51	19
52	20
53	22
54	3
55	4
56	1
57	30
58	14
59	3
60	2
61	11
62	38
63	43
64	23
65	5
66	3
67	2
68	1
69	17
70	3
71	3
72	1
73	7
74	14
75	28
76	17
77	14
78	11
79	4
80	3
81	14
82	22
83	102
84	16
85	9
86	7
87	10
88	13
89	17
90	15
91	11
92	2
93	4
94	3
95	8
96	2
97	2
98	2
99	3
100	4
101	7
102	6
103	10
104	6
105	3
106	2
107	17
108	11
109	4
110	5
111	999
112	67
113	51
114	8
115	7
116	4
117	17
118	33
119	14
120	3
121	9
122	13
123	3
124	2
125	0
126	2
127	4
128	10
129	4
130	4
131	2
132	3
133	3
134	6
135	23
136	9
137	2
138	2
139	1
140	6
141	3
142	2
143	0
144	1
145	21
146	13
147	41
148	6
149	4
150	4
151	2
152	1
153	1
154	1
155	0
156	2
157	3
158	18
159	9
160	13
161	3
162	8
163	2
164	0
165	28
166	2
167	1
168	0
169	1
170	3
171	3
172	77
173	26
174	14
175	6
176	1
177	1
178	0
180	0
182	0
183	1
184	5
185	11
186	21
187	5
188	2
189	1
190	4
191	0
192	0
193	1
197	1
198	0
199	2
200	40
201	27
202	41
203	7
204	2
205	0
207	0
213	16
214	4
215	3
216	2
217	1
218	13
219	3
220	1
221	0
228	0
229	4
230	272
231	69
232	68
233	10
234	3
246	74
247	12
248	160
249	20
250	9
251	0
