Mass Spectrum: (benzo[1,2,5]oxadiazol-3-oxide-5-yl)thiophen-2-ylmethanone
Formula: C11H6N2O3S
CAS: 226090-70-6
Molecular weight: 246
m/z	intensity
26	2
27	3
28	9
29	2
30	57
31	0
32	2
36	1
37	7
38	24
39	239
40	8
41	3
43	3
44	2
45	31
46	1
47	1
49	3
50	16
51	8
52	2
53	24
54	1
55	3
56	0
57	23
58	10
59	2
60	1
61	7
62	18
63	20
64	4
65	1
66	1
67	1
68	0
69	16
70	2
71	5
72	0
73	7
74	59
75	145
76	14
77	6
78	1
79	1
80	2
81	11
82	18
83	86
84	9
85	6
86	6
87	8
88	6
89	6
90	1
91	2
92	0
93	5
94	1
95	2
96	0
97	1
98	3
99	3
100	1
101	3
102	5
103	49
104	15
105	3
106	1
107	1
108	15
109	3
110	3
111	999
112	63
113	60
114	31
115	3
116	13
117	3
118	1
119	2
120	1
121	3
122	25
123	6
124	1
125	1
126	1
127	1
128	1
129	0
131	0
132	5
133	10
134	6
135	3
136	2
137	3
138	0
140	0
141	0
142	2
143	0
144	0
145	2
146	1
147	2
148	0
149	0
150	1
153	1
154	0
155	1
156	1
157	8
158	100
159	16
160	22
161	5
162	1
163	2
165	2
167	0
169	1
170	0
171	0
172	5
173	1
174	0
180	0
184	1
185	23
186	99
187	13
188	8
189	1
193	0
200	2
201	0
202	2
213	1
216	1
229	0
230	17
231	2
232	2
246	619
247	85
248	40
249	4
250	0
