Mass Spectrum: 4,5-Octanediol
Formula: C8H18O2
CAS: 22607-10-9
Molecular weight: 146
m/z	intensity
39	79
40	9
41	227
42	29
43	514
44	49
45	59
47	9
53	19
54	9
55	999
56	69
57	168
58	19
67	19
69	9
71	69
72	524
73	683
74	19
103	39
146	19
