Mass Spectrum: 2(5H)-Furanone, 4-butoxy-5-phenyl-
Formula: C14H16O3
CAS: 22609-97-8
Molecular weight: 232
m/z	intensity
27	250
28	460
29	520
30	20
38	10
39	190
40	20
41	700
42	60
43	170
44	60
45	20
50	60
51	200
52	40
53	50
54	20
55	100
56	300
57	999
58	50
62	20
63	60
65	40
69	620
70	80
71	320
72	10
74	20
75	20
76	30
77	370
78	90
79	230
80	20
84	20
85	80
89	50
90	30
91	200
92	40
98	480
99	140
100	10
102	40
103	70
104	10
105	480
106	100
107	390
108	280
109	20
115	60
116	20
118	20
119	20
120	50
125	50
127	140
128	10
130	20
131	150
132	30
147	80
148	180
149	20
154	20
159	60
160	10
175	80
176	310
177	190
178	20
203	10
232	260
233	50
