Mass Spectrum: 1,5-Heptadiene-3,4-diol, 2,5-dimethyl-
Formula: C9H16O2
CAS: 22607-16-5
Molecular weight: 156
m/z	intensity
39	170
40	20
41	370
42	30
43	390
44	20
45	90
51	20
53	60
54	20
55	110
56	20
57	240
58	10
65	20
67	100
68	20
69	40
70	10
71	150
72	530
73	20
83	30
84	30
85	999
86	120
87	10
95	10
97	10
98	10
109	20
123	10
138	10
139	10
156	10
