Mass Spectrum: Azetidine, 1-benzyl-3,3-dimethyl-2-phenyl-
Formula: C18H21N
CAS: 22606-97-9
Molecular weight: 251
m/z	intensity
65	120
66	10
91	999
92	320
93	30
115	70
116	80
117	300
118	30
132	160
133	20
194	260
195	140
196	10
251	110
252	20
