Mass Spectrum: 1,2-Butanediol, 1-phenyl-
Formula: C10H14O2
CAS: 22607-13-2
Molecular weight: 166
m/z	intensity
37	9
38	9
39	69
41	89
42	59
43	415
44	118
45	19
47	9
50	19
51	89
52	19
53	19
55	29
56	9
57	49
58	237
59	118
63	9
65	9
69	9
71	19
77	227
78	59
79	465
80	39
83	49
85	39
89	9
90	29
91	89
104	9
105	79
106	29
107	534
108	999
109	79
166	9
