Mass Spectrum: Azetidine, 2,2,3,3-tetramethyl-
Formula: C7H15N
CAS: 22606-87-7
Molecular weight: 113
m/z	intensity
30	30
31	50
32	40
33	60
39	80
41	160
42	160
43	10
53	50
55	100
56	230
57	120
58	999
59	50
67	50
69	740
70	180
71	190
72	20
80	40
81	30
82	40
83	40
84	430
85	40
98	500
99	70
112	50
113	80
