Mass Spectrum: Azetidine, 1-benzyl-3-tert-butyl-2,2-dimethyl-
Formula: C16H25N
CAS: 22606-89-9
Molecular weight: 231
m/z	intensity
41	210
42	20
55	100
56	120
57	100
58	10
65	100
66	10
69	110
70	10
91	999
92	100
93	10
97	140
98	10
120	80
132	60
146	180
147	100
148	10
160	50
216	340
217	30
231	50
