Mass Spectrum: 2(5H)-Furanone, 4-methoxy-5-phenyl-
Formula: C11H10O3
CAS: 22609-96-7
Molecular weight: 190
m/z	intensity
25	10
26	70
27	130
28	380
29	40
30	20
31	30
32	20
37	20
38	40
39	120
40	20
41	60
42	50
43	40
44	180
45	20
49	10
50	140
51	270
52	30
53	40
55	10
56	40
57	40
59	50
61	20
62	40
63	90
64	30
65	40
69	999
70	50
74	40
75	30
76	30
77	420
78	70
79	70
84	350
85	440
86	30
87	20
89	50
90	30
91	90
92	10
102	50
103	90
104	20
105	300
106	40
107	40
112	120
113	50
114	10
115	60
116	10
118	10
119	10
121	10
130	10
131	50
132	20
133	30
147	30
161	40
162	10
175	20
189	20
190	500
191	50
