Mass Spectrum: Acetaldehyde, azine with benzophenone
Formula: C15H14N2
CAS: 22610-09-9
Molecular weight: 222
m/z	intensity
51	390
52	40
77	999
78	80
104	400
105	40
145	170
146	20
165	350
166	40
180	620
181	70
207	470
208	60
221	580
222	720
223	100
