Mass Spectrum: 2-Pentanone, 5-(2-methylenecyclohexyl)-, stereoisomer
Formula: C12H20O
CAS: 22629-28-3
Molecular weight: 180
m/z	intensity
40	80
41	444
42	80
43	999
44	40
45	20
50	20
51	50
52	40
53	161
54	50
55	222
56	20
57	20
58	50
59	10
63	20
65	70
66	40
67	343
68	121
69	50
70	10
71	181
72	10
77	121
78	40
79	272
80	111
81	303
82	40
83	10
84	40
85	30
91	101
92	40
93	333
94	121
95	232
96	60
97	10
105	40
106	20
107	252
108	30
109	70
110	111
111	10
119	20
120	20
121	30
122	828
123	80
133	30
134	20
135	20
136	10
137	10
147	30
162	121
163	30
165	10
178	10
180	10
