Mass Spectrum: Azetidine, 3-tert-butyl-1,2-diphenyl-, trans-2,3-
Formula: C19H23N
CAS: 22628-30-4
Molecular weight: 265
m/z	intensity
38	30
39	270
40	40
41	690
42	60
43	100
50	100
51	360
52	100
53	80
54	20
55	150
56	10
57	190
58	20
62	20
63	80
64	40
65	120
66	20
67	60
69	80
70	20
74	20
75	20
76	60
77	999
78	230
79	50
89	70
90	40
91	360
92	50
93	40
102	40
103	80
104	390
105	430
106	140
115	130
116	60
117	230
118	60
127	30
128	80
129	70
130	110
131	40
132	30
145	600
146	100
147	10
152	40
160	230
161	30
179	30
180	320
181	950
182	120
183	20
194	40
206	30
208	40
265	300
266	70
