Mass Spectrum: Methyl 5-[2-thiazolin-2-ylthio]valerate
Formula: C9H15NO2S2
CAS: 22623-66-1
Molecular weight: 233
m/z	intensity
41	177
42	78
43	65
44	41
45	325
46	107
47	79
48	11
49	52
50	8
51	26
52	8
53	58
54	40
55	702
56	86
57	30
58	93
59	656
60	810
61	281
62	42
63	17
64	18
65	7
67	3
68	7
69	17
70	23
71	59
72	221
73	351
74	39
75	10
76	16
77	14
78	1
79	6
80	3
81	14
82	12
83	141
84	66
85	34
86	102
87	142
88	77
89	12
90	27
91	13
92	6
97	6
98	1
99	25
100	7
101	12
103	24
104	1
105	12
107	3
108	3
112	3
113	12
114	66
115	217
116	6
117	38
118	32
119	999
120	442
121	108
122	40
123	7
126	6
127	7
128	18
129	6
131	16
132	14
133	216
134	16
135	20
140	9
142	33
144	11
145	8
146	206
147	20
148	20
154	7
172	13
173	6
174	28
186	161
187	16
188	17
200	8
201	12
202	80
203	9
204	8
233	65
234	12
235	2
