Mass Spectrum: 2,5-Cyclohexadiene-1,4-dione, 2-hydroxy-6-(hydroxymethyl)-3,5-dimethyl-
Formula: C9H10O4
CAS: 22631-97-6
Molecular weight: 182
m/z	intensity
26	100
27	600
28	300
29	240
30	30
31	120
37	50
38	100
39	680
40	120
41	350
42	100
43	150
44	40
45	20
49	40
50	150
51	300
52	240
53	700
54	140
55	650
56	200
57	50
61	40
62	50
63	100
64	50
65	140
66	160
67	500
68	180
69	250
70	80
71	50
77	250
78	140
79	420
80	999
81	200
82	60
83	999
84	100
85	50
89	20
90	30
91	60
92	20
93	100
94	20
95	120
96	30
97	30
98	20
99	20
105	20
106	200
107	280
108	999
109	50
110	70
121	10
122	20
123	20
124	100
125	20
135	100
136	280
137	100
138	30
139	60
140	20
151	20
152	40
153	150
154	250
155	50
163	20
164	60
165	30
166	40
180	20
181	40
182	750
183	40
