Mass Spectrum: 1-Propanamine, N-cyclohexylidene-
Formula: C9H17N
CAS: 22668-89-9
Molecular weight: 139
m/z	intensity
26	80
27	642
28	242
29	231
30	383
31	7
32	3
37	10
38	31
39	356
40	65
41	982
42	561
43	804
44	185
45	3
49	2
50	23
51	57
52	45
53	127
54	924
55	379
56	145
57	69
58	52
59	12
60	3
61	1
62	5
63	12
64	8
65	32
66	23
67	185
68	142
69	165
70	100
71	12
72	32
73	2
74	2
75	4
76	4
77	76
78	23
79	103
80	52
81	280
82	160
83	205
84	20
85	10
86	1
87	2
91	14
92	7
93	17
94	28
95	17
96	491
97	69
98	252
99	21
101	1
104	8
105	5
106	132
107	16
108	151
109	63
110	999
111	202
112	76
113	6
114	1
115	1
116	1
117	2
118	4
119	6
120	2
121	1
122	14
123	4
124	105
125	8
128	1
130	2
131	2
132	5
133	4
134	4
135	26
136	19
137	58
138	92
139	370
140	42
