Mass Spectrum: Hexanoic acid, 6,6'-selenodi-
Formula: C12H22O4Se
CAS: 22676-16-0
Molecular weight: 310
m/z	intensity
26	14
27	251
28	55
29	212
30	6
31	47
35	4
36	9
37	4
38	9
39	261
40	45
41	787
42	132
43	204
44	9
45	362
46	9
47	4
49	3
50	3
51	11
52	6
53	88
54	1
55	551
56	31
57	40
58	4
59	39
60	103
61	7
63	1
65	17
66	9
67	207
68	66
69	999
70	63
71	100
72	11
73	267
74	14
77	4
78	6
79	14
80	12
81	15
82	18
83	15
84	3
85	7
86	7
87	7
89	9
90	15
91	44
92	39
93	75
94	55
95	78
96	15
97	456
98	39
99	9
101	4
102	1
103	9
104	12
105	39
106	34
107	75
108	39
109	78
110	7
111	15
113	67
114	9
115	299
116	18
117	6
118	4
119	11
120	7
121	18
122	9
123	9
124	1
125	4
131	15
132	12
133	40
134	11
135	59
136	9
137	12
143	1
144	3
145	18
146	45
147	70
148	74
149	102
150	148
151	36
152	29
153	3
161	4
163	7
172	4
173	6
174	37
175	42
176	86
177	40
178	171
179	26
180	31
181	3
191	7
192	9
193	6
194	12
195	7
196	4
221	3
223	9
289	3
290	1
291	9
293	15
295	3
306	23
307	25
308	61
309	11
310	119
311	15
312	23
313	3
