Mass Spectrum: Decanoic acid, 10,10'-selenodi-
Formula: C20H38O4Se
CAS: 22676-20-6
Molecular weight: 422
m/z	intensity
25	3
26	20
27	157
28	54
29	245
30	8
31	23
36	10
37	3
38	6
39	130
40	23
41	708
42	113
43	479
44	20
45	166
46	5
47	1
51	6
52	3
53	64
54	54
55	999
56	88
57	249
58	11
59	64
60	230
61	22
62	3
63	1
64	1
65	11
66	8
67	250
68	78
69	754
70	67
71	135
72	6
73	210
74	15
75	6
76	1
77	13
78	5
79	59
80	16
81	200
82	54
83	301
84	106
85	62
86	10
87	94
88	10
89	6
90	6
91	27
92	13
93	64
94	18
95	105
96	30
97	203
98	181
99	28
100	11
101	40
102	5
103	3
104	5
105	28
106	23
107	84
108	27
110	30
111	142
112	30
113	11
114	8
115	28
116	1
117	3
118	6
119	16
120	10
121	64
122	11
123	33
124	15
125	81
126	32
127	10
128	13
129	44
130	3
131	30
132	27
133	94
134	25
135	372
136	44
137	47
138	5
139	81
140	10
141	3
143	13
144	1
145	16
146	13
147	39
148	13
149	74
150	20
151	37
152	11
153	347
154	40
155	5
157	5
158	1
159	5
160	3
161	15
162	3
163	16
164	3
165	6
168	3
169	3
171	22
172	11
173	5
174	1
175	11
176	1
177	15
178	5
179	6
184	1
185	5
186	3
187	8
188	11
189	11
190	5
191	18
192	6
193	8
194	1
195	1
196	1
197	5
198	20
199	37
200	47
201	37
202	67
203	30
204	28
205	45
206	28
207	23
208	8
209	8
211	11
212	13
213	32
214	11
215	67
216	30
217	28
218	13
219	27
220	16
221	10
222	6
223	3
225	3
227	5
228	3
229	33
230	55
231	111
232	78
233	191
234	152
235	55
236	30
237	8
238	1
244	3
245	6
246	11
247	16
248	30
249	15
250	61
251	23
252	13
253	5
254	5
261	3
263	6
265	8
275	3
277	10
279	20
281	5
293	3
303	3
304	1
305	8
307	13
308	3
309	3
362	5
363	5
364	13
365	1
366	22
367	5
368	5
374	5
375	3
376	11
377	3
378	16
379	3
380	3
390	5
391	8
392	15
393	3
394	30
395	6
396	5
401	3
402	5
403	5
404	5
405	5
406	3
407	3
408	5
410	1
416	6
417	3
418	61
419	64
420	166
421	44
422	316
423	74
424	67
425	13
426	5
