Mass Spectrum: Heptanoic acid, 7,7'-diselenodi-
Formula: C14H26O4Se2
CAS: 22676-36-4
Molecular weight: 418
m/z	intensity
26	15
27	196
28	59
29	196
30	3
31	27
35	11
36	83
37	6
38	25
39	177
40	28
41	657
42	67
43	308
44	37
45	228
46	5
47	5
50	6
51	13
52	8
53	106
54	37
55	945
56	62
57	64
58	8
59	42
60	67
61	10
62	5
63	3
64	1
65	20
66	13
67	227
68	81
69	762
70	47
71	25
72	10
73	84
74	13
75	1
76	5
77	20
78	23
79	47
80	50
81	194
82	44
83	999
84	132
85	74
86	8
87	118
88	6
89	8
90	13
91	33
92	27
93	125
94	33
95	303
96	30
97	42
98	11
99	16
100	6
101	8
103	8
104	11
105	28
106	27
107	57
108	40
109	61
110	16
111	691
112	59
113	10
115	3
117	5
118	6
119	11
120	8
121	16
122	11
123	84
124	11
125	5
126	6
127	27
128	3
129	223
130	16
131	22
132	15
133	55
134	11
135	96
136	15
137	20
138	5
139	5
140	3
141	30
142	6
143	8
144	8
145	23
146	16
147	33
148	22
149	54
150	13
151	11
152	8
153	5
154	20
155	11
156	45
157	23
158	74
159	28
160	89
161	74
162	30
163	115
164	47
165	23
166	10
169	3
170	5
171	8
172	10
173	13
174	11
175	15
176	16
177	10
178	5
185	5
186	5
187	10
188	27
189	44
190	67
191	28
192	128
193	15
194	22
195	3
198	3
199	3
200	8
201	11
202	13
203	13
204	22
205	10
206	13
207	3
208	13
209	3
210	5
211	3
212	3
213	3
214	5
215	5
216	6
217	6
218	6
219	10
220	3
221	15
222	5
223	3
238	5
239	5
240	3
241	6
242	6
243	6
244	6
245	5
246	5
264	8
265	8
266	27
267	22
268	81
269	47
270	128
271	23
272	149
273	11
274	45
275	3
276	5
278	5
279	1
280	8
281	6
282	13
283	1
284	16
285	1
286	5
304	3
306	3
336	3
338	5
346	3
348	5
356	3
358	5
360	6
362	6
396	5
397	1
398	3
399	1
400	3
410	8
411	6
412	27
413	15
414	66
415	42
416	113
417	23
418	125
419	16
420	40
421	5
422	6
423	3
