Mass Spectrum: Nonanoic acid, 9,9'-selenodi-
Formula: C18H34O4Se
CAS: 22676-19-3
Molecular weight: 394
m/z	intensity
26	6
27	141
28	46
29	223
30	3
31	26
35	3
36	10
37	1
38	3
39	131
40	23
41	716
42	106
43	341
44	11
45	183
46	3
47	3
50	1
51	8
52	3
53	70
54	45
55	999
56	73
57	138
58	6
59	63
60	176
61	8
65	11
66	8
67	223
68	58
69	541
70	1
71	80
72	3
73	130
74	10
77	10
78	3
79	53
80	10
81	133
82	26
83	140
84	45
85	23
86	1
87	25
88	3
89	6
90	6
91	25
92	16
93	76
94	26
95	195
96	35
97	221
98	31
99	11
100	1
101	28
103	3
104	6
105	30
106	26
107	58
108	26
109	96
110	13
111	73
112	46
113	13
114	5
115	13
117	3
118	3
119	28
120	16
121	298
122	31
123	23
124	3
125	30
126	3
127	1
129	5
131	21
132	18
133	55
134	10
135	103
136	11
137	63
138	25
139	475
140	48
141	3
145	10
146	8
147	16
148	3
149	33
150	3
151	8
153	3
155	3
157	23
158	1
159	5
160	3
161	10
162	1
163	13
164	3
165	3
171	3
172	3
173	6
174	6
175	13
176	1
177	23
178	3
179	5
185	3
186	1
187	8
188	8
189	15
190	5
191	26
192	10
193	10
194	3
197	1
198	6
199	13
200	6
201	30
202	30
203	20
204	11
205	5
206	8
207	5
208	1
213	1
214	1
215	30
216	33
217	80
218	36
219	143
220	68
221	41
222	11
223	3
232	6
233	10
234	16
235	8
236	31
237	13
238	8
239	3
249	1
251	3
261	3
262	1
263	6
265	15
266	3
267	1
291	5
293	8
348	1
350	1
364	3
366	6
373	1
374	1
375	3
376	1
377	8
378	1
390	30
391	33
392	80
393	20
394	166
395	33
396	33
397	5
