Mass Spectrum: Hexanoic acid, 6,6'-diselenodi-
Formula: C12H22O4Se2
CAS: 22676-35-3
Molecular weight: 390
m/z	intensity
26	16
27	154
28	40
29	126
30	1
31	25
36	3
37	3
38	10
39	154
40	28
41	484
42	77
43	156
44	16
45	189
46	3
47	5
49	3
50	1
51	8
52	3
53	53
54	16
55	436
56	23
57	26
58	1
59	23
60	63
61	5
63	3
65	15
66	11
67	131
68	45
69	999
70	63
71	131
72	10
73	319
74	26
75	3
76	3
77	3
78	10
79	11
80	21
81	15
82	26
83	13
84	1
85	3
86	1
87	8
88	1
89	6
90	11
91	26
92	20
93	47
94	30
95	40
96	11
97	621
98	47
99	10
100	1
101	13
102	1
103	5
104	11
105	16
106	13
107	31
113	37
114	6
115	393
116	43
117	5
118	3
119	10
120	3
121	10
122	3
123	1
129	3
130	1
131	15
132	10
133	31
134	8
135	43
136	3
137	11
143	3
144	1
145	31
146	31
147	80
148	30
149	139
150	50
151	33
152	13
153	3
154	10
155	6
156	25
157	16
158	40
159	10
160	45
161	11
162	15
163	3
170	3
171	5
172	3
173	13
174	16
175	26
176	20
177	33
178	33
179	11
180	8
184	5
192	3
193	3
194	8
226	3
227	3
228	3
229	3
230	1
231	1
250	1
251	3
252	13
253	11
254	33
255	25
256	55
257	13
258	60
259	5
260	20
269	3
325	5
369	1
371	3
372	3
373	3
382	3
383	5
384	23
385	13
386	57
387	33
388	97
389	16
390	112
391	13
392	37
393	3
394	1
