Mass Spectrum: N-(2-Methoxyethyl)-tert-butylamine
Formula: C7H17NO
CAS: 22687-22-5
Molecular weight: 131
m/z	intensity
15	35
17	3
18	25
26	3
27	37
28	56
29	189
30	951
31	95
32	4
33	4
38	2
39	49
40	9
41	252
42	190
43	63
44	160
45	57
46	2
47	2
50	1
51	2
52	1
53	7
54	8
55	53
56	64
57	541
58	184
59	218
60	8
61	1
65	1
67	9
68	9
69	16
70	51
71	15
72	20
73	2
74	61
75	2
76	5
81	1
82	9
83	3
84	520
85	39
86	999
87	60
88	7
91	2
92	1
97	3
98	4
99	3
100	4
101	1
112	2
114	1
115	1
116	864
117	61
118	3
130	1
131	62
132	19
133	1
