Mass Spectrum: Benzofurazan, 4-methoxy-
Formula: C7H6N2O2
CAS: 22698-43-7
Molecular weight: 150
m/z	intensity
15	34
18	34
26	39
27	21
28	23
29	15
30	57
31	26
37	28
38	42
39	55
40	13
41	18
50	63
51	55
52	34
53	23
54	26
55	13
61	18
62	28
63	44
64	44
65	92
66	36
67	23
75	28
76	50
77	118
78	21
79	50
80	26
90	23
91	23
92	63
93	999
94	28
105	42
107	36
120	60
133	15
135	23
150	263
151	36
