Mass Spectrum: 1-Bromo-1-bromomethyl-cyclohexane
Formula: C7H12Br2
CAS: 22690-21-7
Molecular weight: 254
m/z	intensity
26	7
27	54
28	18
29	24
38	9
39	107
40	20
41	110
42	6
43	9
44	3
45	7
46	13
47	8
48	4
50	11
51	30
52	15
53	90
54	31
55	137
56	7
57	3
61	3
62	4
63	10
64	2
65	31
66	17
67	180
68	30
69	17
70	2
71	2
77	52
78	11
79	74
80	16
81	88
82	6
91	32
92	8
93	41
94	17
95	999
96	104
97	11
98	3
99	3
105	2
107	4
109	2
119	7
121	8
133	15
134	2
135	14
173	3
174	12
175	222
176	28
177	220
178	17
