Mass Spectrum: Phosphorodifluoridous hydrazide, trimethyl-
Formula: C3H9F2N2P
CAS: 22692-24-6
Molecular weight: 142
m/z	intensity
27	38
28	18
29	21
30	188
31	21
36	8
40	21
41	30
42	489
43	669
44	351
45	30
46	150
50	30
51	21
57	60
58	90
59	81
60	21
69	248
71	38
72	30
73	999
74	90
78	21
80	21
94	30
96	21
98	8
112	38
123	51
142	68
