Mass Spectrum: Phosphorodichloridous hydrazide, trimethyl-
Formula: C3H9Cl2N2P
CAS: 22692-21-3
Molecular weight: 174
m/z	intensity
27	19
28	121
30	79
31	19
32	38
33	19
35	9
36	19
40	9
41	19
42	238
43	270
44	331
45	19
46	79
57	19
58	28
59	19
60	159
66	51
67	19
68	19
71	28
72	9
73	999
74	38
94	9
96	51
98	15
101	60
103	38
110	70
112	22
139	168
141	57
