Mass Spectrum: Phosphorofluoridous dihydrazide, hexamethyl-
Formula: C6H18FN4P
CAS: 22692-25-7
Molecular weight: 196
m/z	intensity
27	20
28	130
29	20
30	130
31	20
32	50
40	8
41	20
42	239
43	210
44	260
45	20
46	71
50	8
51	8
57	29
58	20
59	150
60	41
71	29
72	20
73	999
74	139
78	20
80	29
94	50
123	79
148	8
196	109
197	8
