Mass Spectrum: 2-Dimethyl(ethenyl)silyloxybutane
Formula: C8H18OSi
CAS: 227025-50-5
Molecular weight: 158
m/z	intensity
25	8
26	55
27	135
28	5
29	109
30	6
31	18
37	13
38	11
39	61
40	15
41	49
42	22
43	159
44	62
45	215
46	18
47	51
48	6
49	13
50	59
51	81
52	125
53	45
54	13
55	76
56	17
57	39
58	69
59	331
60	49
61	197
62	13
63	11
64	9
65	8
66	8
67	15
69	11
70	28
71	49
72	6
73	18
74	18
75	341
76	27
77	8
78	24
79	161
80	9
83	8
84	19
85	999
86	112
87	648
88	64
89	27
99	25
101	19
102	6
113	27
114	9
115	11
116	6
127	6
128	16
129	962
130	109
131	69
132	6
143	288
144	39
145	24
157	9
158	2
159	1
