Mass Spectrum: 4-(1,5-Dihydro-2,4,3-benzodioxaborepin-3-yl)-benzoylazid
Formula: C15H12BN3O3
CAS: 227011-86-1
Molecular weight: 293
m/z	intensity
11	0
12	2
13	1
14	17
15	9
16	4
17	9
18	35
19	1
25	1
26	11
27	62
28	97
29	63
30	3
31	5
36	3
37	18
38	50
39	249
40	28
41	52
42	19
43	22
44	9
45	23
46	0
47	1
48	3
49	10
50	164
51	282
52	124
53	145
54	7
55	14
56	2
57	4
58	1
59	3
60	2
61	14
62	48
63	177
64	88
65	359
66	34
67	18
68	3
69	4
70	8
71	3
72	1
73	4
74	31
75	40
76	87
77	260
78	164
79	16
80	2
81	2
82	3
83	3
84	2
85	3
86	7
87	14
88	13
89	241
90	263
91	999
92	153
93	20
94	2
96	7
97	5
98	4
99	2
100	4
101	13
102	112
103	236
104	129
105	37
106	3
107	1
111	26
113	2
114	2
115	10
116	57
117	208
118	71
119	342
120	74
121	8
122	1
125	102
127	3
128	8
129	12
130	22
131	60
132	28
133	13
134	2
135	1
136	1
137	1
138	2
139	4
140	2
141	4
142	3
143	1
144	7
145	41
146	70
147	35
148	4
149	2
150	2
151	5
152	15
153	7
154	2
155	2
157	2
158	9
159	8
160	11
161	4
162	1
163	5
164	4
165	32
166	9
167	22
168	3
169	0
170	0
171	2
172	1
173	4
174	1
175	1
176	5
177	18
178	116
179	118
180	28
181	4
182	1
183	1
184	1
186	1
187	5
188	2
189	1
190	5
191	8
192	7
193	16
194	3
195	4
196	0
202	1
203	2
204	3
205	11
206	27
207	21
208	5
209	1
218	1
219	2
220	3
221	4
222	7
223	12
224	2
233	1
234	4
235	1
236	0
237	1
247	2
248	8
249	8
250	104
251	412
252	72
253	8
254	0
263	6
264	31
265	37
266	7
267	4
268	3
269	1
271	0
292	8
293	35
294	5
295	0
