Mass Spectrum: 4,5-Pyrimidinediamine, 6-methyl-
Formula: C5H8N4
CAS: 22715-28-2
Molecular weight: 124
m/z	intensity
15	40
16	20
26	40
27	100
28	500
29	110
30	30
38	30
39	40
40	60
41	60
42	250
43	150
44	40
45	30
51	20
52	80
53	170
54	200
55	190
56	150
57	30
66	40
67	20
68	10
69	60
70	340
71	30
79	30
80	80
81	60
82	30
83	20
95	20
96	140
97	200
98	20
104	20
106	30
107	10
108	40
109	20
123	60
124	999
125	110
