Mass Spectrum: S-Benzyl-L-cysteine, methyl ester
Formula: C11H15NO2S
CAS: 22728-88-7
Molecular weight: 225
m/z	intensity
26	3
27	15
28	50
29	15
30	86
31	6
33	150
39	77
40	9
41	38
42	99
43	108
44	67
45	106
46	12
47	14
48	13
50	12
51	46
52	12
53	5
55	11
56	6
57	6
58	8
59	21
60	40
61	5
62	9
63	42
64	12
65	210
66	12
69	5
70	9
71	11
73	5
74	24
75	18
76	8
77	47
78	15
79	14
86	3
87	44
88	641
89	67
90	21
91	999
92	170
93	8
101	41
102	14
103	284
104	21
105	6
106	11
108	3
115	6
117	3
120	7
121	38
122	112
123	32
124	14
132	4
134	5
135	10
136	3
137	209
138	478
139	53
140	24
141	3
148	35
149	21
150	4
166	255
167	29
168	13
176	3
178	3
208	26
209	4
225	176
226	25
227	10
