Mass Spectrum: 4,4-Bis(chlorodifluoromethyl)-1,2-oxathietane-2,2-dioxide
Formula: C4H2Cl2F4O3S
CAS: 22721-86-4
Molecular weight: 276
m/z	intensity
29	7
31	18
41	53
42	403
43	64
45	53
48	111
49	266
50	90
51	129
57	112
61	79
63	119
64	75
67	67
69	103
75	222
76	81
77	574
78	60
79	270
85	999
87	337
91	49
99	32
101	29
111	461
113	152
127	240
129	83
149	29
161	396
163	137
191	396
193	152
195	10
