Mass Spectrum: Cyclohexane, butylidene-
Formula: C10H18
CAS: 2272-03-9
Molecular weight: 138
m/z	intensity
41	360
42	10
43	50
53	160
54	160
55	480
56	10
65	10
66	10
67	999
68	180
69	30
77	30
79	70
80	20
81	600
82	320
83	30
95	130
96	410
97	20
109	650
110	40
138	220
139	10
