Mass Spectrum: 1,4,8-Metheno-1H-cyclopent[f]azulene, 3a,4,4a,7,7a,8,9,9a-octahydro-
Formula: C14H16
CAS: 22723-47-3
Molecular weight: 184
m/z	intensity
66	108
77	238
78	168
79	270
91	290
104	165
105	521
115	155
117	512
118	999
119	145
