Mass Spectrum: Triacontanal
Formula: C30H60O
CAS: 22725-63-9
Molecular weight: 436
m/z	intensity
27	26
29	72
39	41
40	18
41	491
42	124
43	927
44	400
45	40
53	43
54	79
55	677
56	238
57	999
58	63
60	14
65	12
66	69
67	341
68	362
69	542
70	175
71	548
72	68
77	33
78	9
79	71
80	38
81	343
82	779
83	577
84	100
85	292
86	42
94	29
95	337
96	533
97	416
98	78
99	61
100	7
107	21
108	12
109	191
110	209
111	208
112	49
113	17
118	8
122	32
123	135
124	125
125	75
126	29
127	28
132	10
135	29
136	19
137	100
138	101
139	49
140	17
142	11
151	16
152	59
153	18
158	9
165	18
166	9
168	7
169	8
171	13
176	8
179	13
180	19
194	24
195	9
207	24
222	28
236	17
237	9
250	20
264	32
265	7
277	10
278	18
292	29
306	14
307	5
320	24
334	25
347	10
348	22
361	9
362	18
375	12
376	14
389	6
390	43
391	16
392	8
393	5
408	7
418	237
419	70
420	15
436	27
437	7
