Mass Spectrum: 3-Bromo-4-trichloromethyl-1,2-oxathietane-2,2-dioxide
Formula: C3H2BrCl3O3S
CAS: 22721-90-0
Molecular weight: 302
m/z	intensity
35	90
36	88
37	258
38	181
41	81
47	337
48	367
49	190
60	211
61	140
62	81
63	241
64	149
73	331
75	120
79	90
81	90
82	310
83	327
84	201
85	211
92	131
93	400
94	151
95	478
105	151
107	218
109	80
117	999
119	929
121	419
123	360
127	289
129	347
131	139
143	458
145	410
147	150
175	70
177	99
179	59
185	239
187	591
189	570
191	268
267	10
