Mass Spectrum: 2(1H)-Naphthalenone, octahydro-1,4a-dimethyl-, (1.alpha.,4a.beta.,8a.alpha.)-
Formula: C12H20O
CAS: 22738-31-4
Molecular weight: 180
m/z	intensity
38	19
39	485
40	108
41	999
42	178
43	198
44	19
45	9
50	19
51	79
52	39
53	306
54	118
55	792
56	118
57	178
58	9
63	19
65	89
66	59
67	564
68	227
69	732
70	79
71	29
72	9
77	99
78	29
79	178
80	49
81	475
82	158
83	346
84	118
85	29
91	79
92	9
93	148
94	69
95	425
96	128
97	79
98	19
105	39
106	9
107	89
108	198
109	227
110	69
111	49
112	49
113	9
119	9
120	9
121	79
122	59
123	445
124	89
125	455
126	49
133	49
134	9
135	49
136	79
137	69
138	9
147	49
149	49
150	9
151	49
152	69
153	9
162	39
163	19
164	19
165	49
166	9
180	277
181	49
182	19
