Mass Spectrum: 6-Butyl-1,4-cycloheptadiene
Formula: C11H18
CAS: 22735-58-6
Molecular weight: 150
m/z	intensity
36	0
37	0
38	6
39	214
40	31
41	291
42	13
43	45
44	1
45	0
47	0
48	0
49	1
50	11
51	59
52	27
53	79
54	52
55	87
56	3
57	25
58	1
59	0
61	0
62	2
63	19
64	4
65	129
66	168
67	185
68	21
69	5
70	0
71	1
74	0
75	1
76	1
77	443
78	210
79	999
80	472
81	83
82	11
83	5
84	1
85	0
86	0
87	0
88	0
89	5
90	1
91	481
92	96
93	641
94	260
95	38
96	18
97	1
98	0
101	0
102	1
103	7
104	2
105	30
106	5
107	140
108	95
109	21
110	1
111	0
115	2
116	0
117	1
118	0
119	0
120	0
121	45
122	16
123	1
127	0
128	0
129	0
135	12
136	1
149	0
150	179
151	18
152	0
