Mass Spectrum: Butanamide, N-(aminocarbonyl)-3-methyl-
Formula: C6H12N2O2
CAS: 2274-08-0
Molecular weight: 144
m/z	intensity
15	5
16	3
17	8
18	22
26	2
27	34
28	15
29	54
30	8
31	9
37	1
38	4
39	41
40	8
41	125
42	39
43	106
44	304
45	7
46	2
50	1
51	2
52	1
53	3
54	2
55	12
56	35
57	244
58	13
59	276
60	30
61	123
62	2
68	3
69	31
70	8
73	1
74	25
75	1
82	2
83	9
84	3
85	110
86	45
87	21
88	13
89	1
100	2
101	3
102	999
103	40
104	4
129	46
130	3
143	1
144	2
145	2
