Mass Spectrum: Butanamide, N-(aminocarbonyl)-2-ethyl-
Formula: C7H14N2O2
CAS: 2274-01-3
Molecular weight: 158
m/z	intensity
39	160
41	300
42	120
43	999
44	970
55	250
60	120
61	270
69	100
70	110
71	470
72	170
87	110
99	70
115	200
130	620
