Mass Spectrum: n-Butyl orotate
Formula: C9H12N2O4
CAS: 22754-37-6
Molecular weight: 212
m/z	intensity
41	694
43	106
44	56
45	15
47	7
49	1
50	1
51	8
52	3
53	45
55	180
56	279
57	361
58	18
68	999
69	154
70	40
71	2
73	9
74	14
75	5
76	7
81	4
84	19
85	7
86	12
97	1
98	1
102	19
103	10
104	7
105	2
110	2
111	27
112	57
113	44
114	33
119	1
126	70
127	2
139	189
140	82
141	7
146	2
147	2
156	87
157	267
158	29
159	2
169	2
170	7
171	4
194	7
195	17
197	7
211	35
212	334
213	35
214	11
215	1
