Mass Spectrum: 1,4-Bis(morpholinoacetyl)piperazine
Formula: C16H28N4O4
CAS: 22764-36-9
Molecular weight: 340
m/z	intensity
41	65
42	111
43	44
44	72
45	6
51	3
54	18
56	191
57	18
58	2
68	5
69	13
70	42
71	9
72	17
77	3
83	5
85	6
86	13
87	1
91	1
97	8
98	39
100	999
101	41
102	10
103	2
105	2
310	1
340	34
341	4
