Mass Spectrum: Benzenepropanoic acid 1-methylethyl ester
Formula: C12H16O2
CAS: 22767-95-9
Molecular weight: 192
m/z	intensity
25	2
26	12
27	27
28	8
29	11
30	1
31	5
35	2
36	18
37	3
38	8
39	44
40	9
41	38
42	12
43	29
44	1
45	9
49	3
50	31
51	79
52	24
53	11
54	9
55	40
56	26
57	16
59	1
60	2
61	3
62	8
63	27
64	6
65	60
66	10
67	12
68	11
69	28
70	23
71	7
73	6
74	14
75	14
76	13
77	114
78	116
79	59
80	5
81	8
82	10
83	19
84	14
85	3
86	2
87	2
89	20
90	7
91	999
92	67
93	7
94	3
95	5
96	5
97	14
98	6
101	2
102	18
103	97
104	514
105	178
106	17
107	31
108	4
109	2
110	2
111	5
112	2
115	4
116	2
117	3
118	2
119	3
120	2
121	1
122	2
123	1
125	2
126	4
128	1
129	1
130	2
131	42
132	57
133	36
134	6
135	20
136	3
139	2
145	2
147	5
148	4
149	6
150	438
151	40
152	4
154	3
156	2
159	1
173	3
177	2
178	2
183	1
185	1
190	2
191	1
192	24
193	4
