Mass Spectrum: Bicyclo[2.2.1]heptane, 2-chloro-1-methyl-, exo-
Formula: C8H13Cl
CAS: 22768-96-3
Molecular weight: 144
m/z	intensity
39	100
40	20
41	100
50	20
51	30
52	20
53	60
54	30
55	50
65	40
66	80
67	300
68	90
77	50
78	20
79	100
80	80
81	999
82	120
91	20
93	70
95	50
108	50
109	80
110	10
129	50
130	20
131	30
144	120
145	30
146	40
