Mass Spectrum: Benzenepropanoic acid, phenylmethyl ester
Formula: C16H16O2
CAS: 22767-96-0
Molecular weight: 240
m/z	intensity
25	1
26	7
27	12
28	7
29	4
36	6
37	1
38	4
39	29
40	6
41	11
42	4
43	18
44	2
45	2
49	2
50	17
51	47
52	14
53	6
55	9
56	1
57	2
61	2
62	6
63	24
64	7
65	96
66	7
67	2
69	2
70	1
71	2
73	2
74	6
75	6
76	9
77	121
78	58
79	88
80	6
81	2
83	2
85	1
86	1
87	3
89	37
90	35
91	999
92	155
93	10
94	1
95	2
96	1
97	2
101	1
102	11
103	65
104	135
105	191
106	25
107	948
108	98
109	8
115	7
116	3
117	3
118	1
119	1
120	3
121	1
128	1
129	1
130	1
131	17
132	16
133	16
134	6
135	2
141	1
147	13
148	94
149	382
150	40
151	4
152	4
153	1
162	11
163	2
165	11
166	5
167	17
168	3
178	7
179	12
180	826
181	126
182	11
191	1
192	1
193	3
194	7
195	1
222	10
223	3
240	21
241	4
