Mass Spectrum: Bicyclo[2.2.1]heptane, 3-chloro-2,2-dimethyl-, exo-
Formula: C9H15Cl
CAS: 22768-97-4
Molecular weight: 158
m/z	intensity
39	230
40	20
41	330
42	20
43	50
44	50
50	30
51	50
52	20
53	100
54	50
55	270
56	50
57	60
63	20
65	50
66	90
67	420
68	70
69	180
70	80
74	40
76	80
77	120
78	220
79	130
80	180
81	80
82	100
88	20
89	20
90	50
91	40
92	20
93	60
94	20
95	60
96	30
100	50
101	20
102	40
103	30
104	10
105	10
107	110
108	10
109	999
110	50
115	50
116	40
117	30
120	20
121	90
122	110
123	20
142	40
144	20
158	400
159	40
160	120
161	10
