Mass Spectrum: Phenoxymethylpenillonic acid, methyl ester
Formula: C17H20N2O5S
CAS: 22773-90-6
Molecular weight: 364
m/z	intensity
59	36
69	31
77	73
83	51
94	107
96	34
97	70
107	999
108	80
113	73
114	131
135	26
136	53
137	31
141	39
142	29
156	107
157	595
159	60
169	82
197	100
198	34
219	41
250	58
262	168
263	41
270	124
271	619
272	202
273	43
290	839
291	104
292	24
303	51
304	26
305	60
331	102
332	36
333	75
364	351
365	80
366	43
