Mass Spectrum: Silacyclotridecan-7-one, 1,1-dimethyl-
Formula: C14H28OSi
CAS: 22778-68-3
Molecular weight: 240
m/z	intensity
39	20
41	80
42	20
43	80
44	40
45	50
55	70
57	10
58	40
59	270
60	20
61	110
67	30
69	10
71	20
72	20
73	20
75	999
76	60
77	30
81	20
83	10
85	80
86	10
87	10
89	10
95	20
97	30
98	10
99	80
100	10
101	70
110	20
112	40
113	10
114	50
115	10
125	20
127	60
128	30
129	40
139	10
141	170
142	30
143	10
154	70
155	10
169	80
170	10
179	10
183	90
184	10
197	90
225	40
240	20
