Mass Spectrum: 5-Nonenal, (E)-
Formula: C9H16O
CAS: 2277-18-1
Molecular weight: 140
m/z	intensity
39	156
41	560
42	88
43	88
51	24
53	78
54	999
55	560
56	107
57	137
65	44
66	34
67	683
68	122
69	122
70	88
77	44
78	30
79	107
80	30
81	930
82	73
83	137
84	88
85	73
91	29
93	59
94	20
95	49
96	950
97	146
98	340
99	24
111	44
122	132
123	20
140	5
