Mass Spectrum: 3H-N-Triazolo(4,5-d)pyrimidine-5,7(4H,6H)-dione, 3,6-dimethyl-
Formula: C6H7N5O2
CAS: 2278-14-0
Molecular weight: 181
m/z	intensity
39	109
40	239
41	279
42	209
43	289
51	49
52	119
53	999
54	249
55	199
56	279
57	29
58	59
65	9
66	59
67	849
68	509
69	69
70	29
77	9
80	59
81	89
82	139
83	79
94	29
95	19
96	9
98	19
123	9
124	19
180	19
181	249
