Mass Spectrum: 2-Piperidinimine
Formula: C5H10N2
CAS: 22780-54-7
Molecular weight: 98
m/z	intensity
14	1
15	14
26	9
27	43
28	100
29	27
30	262
31	5
32	2
39	49
40	16
41	183
42	344
43	502
44	83
45	6
47	3
48	11
50	4
51	8
52	10
53	17
54	77
55	79
56	75
57	22
58	4
64	1
65	1
66	3
67	7
68	14
69	16
70	687
71	31
72	1
78	5
79	1
80	11
81	4
82	8
83	14
84	2
94	2
95	7
96	4
97	145
98	999
99	101
100	4
