Mass Spectrum: 2-(Chloromethyl)-5-oxo-1,2-oxaphospholane 2-oxide
Formula: C4H6ClO3P
CAS: 22793-96-0
Molecular weight: 168
m/z	intensity
33	54
35	34
36	71
37	17
38	33
39	38
40	21
42	643
43	133
44	71
45	117
47	704
48	106
49	267
51	102
53	27
55	999
56	306
57	24
58	4
59	5
60	9
61	15
62	9
63	9
65	187
66	9
67	12
68	44
69	6
70	13
71	4
73	68
74	20
75	37
76	3
77	13
78	7
79	9
81	112
82	8
83	27
84	2
85	9
86	1
87	1
88	2
89	4
91	78
92	8
93	10
94	2
96	99
97	7
98	31
99	9
100	1
101	1
102	1
103	4
104	4
105	14
106	2
107	2
109	88
110	3
111	3
112	3
113	10
114	7
115	4
116	3
119	390
120	12
121	5
124	128
125	9
126	36
127	5
128	1
133	2
134	1
137	247
138	8
139	83
140	2
141	5
142	2
143	1
168	37
169	8
170	10
171	3
172	1
