Mass Spectrum: 2,2-Dimethylpropanoic acid, undecyl ester
Formula: C16H32O2
CAS: 227953-78-8
Molecular weight: 256
m/z	intensity
26	3
27	10
28	13
29	34
36	3
39	18
40	5
41	121
42	33
43	118
44	11
53	7
54	13
55	106
56	141
57	855
58	33
59	16
67	20
68	26
69	101
70	107
71	95
72	6
79	4
81	11
82	42
83	115
84	94
85	188
86	12
87	20
89	4
95	6
96	26
97	146
98	64
99	16
102	7
103	999
104	53
105	5
110	13
111	85
112	46
113	8
115	3
124	6
125	45
126	73
127	7
143	3
152	3
154	194
155	31
169	5
171	5
199	18
