Mass Spectrum: S-Propylthio-L-cysteine
Formula: C6H13NO2S2
CAS: 2280-26-4
Molecular weight: 195
m/z	intensity
39	19
40	7
41	104
42	122
43	422
44	19
45	24
46	19
47	20
48	7
49	1
53	1
55	8
56	4
57	7
58	6
59	7
60	3
61	3
62	2
64	5
65	2
66	4
67	3
68	1
69	5
70	54
71	6
72	2
73	337
74	530
75	29
76	17
77	3
78	2
79	51
80	30
81	7
82	4
83	4
84	2
85	3
87	5
88	999
89	21
90	2
91	2
93	1
95	3
96	2
97	3
101	7
103	2
104	2
105	2
106	2
107	6
108	11
109	3
110	1
111	2
112	2
113	1
118	1
119	32
120	8
121	50
122	27
123	5
124	3
125	2
145	1
149	2
150	13
151	2
152	2
159	2
169	1
195	9
196	2
197	1
