Mass Spectrum: 1-Pentyne, 3-methoxy-3-methyl-
Formula: C7H12O
CAS: 22802-35-3
Molecular weight: 112
m/z	intensity
39	157
41	104
43	223
51	96
52	48
53	164
55	29
57	8
59	40
63	23
65	47
67	21
69	21
70	33
79	74
81	91
83	999
95	2
97	152
111	2
112	0
