Mass Spectrum: [3,3'-Bi-1H-1,2,4-triazole]-5,5'-diamine
Formula: C4H6N8
CAS: 22819-10-9
Molecular weight: 166
m/z	intensity
33	24
34	39
35	3
36	21
37	17
38	64
40	937
41	260
42	255
43	539
44	363
45	49
46	6
47	1
50	23
51	44
53	296
54	83
55	250
57	274
58	50
59	11
60	18
62	8
63	19
64	12
65	48
66	27
67	51
68	99
69	73
70	49
71	30
72	6
73	13
74	4
75	9
76	14
77	33
78	8
79	18
80	21
81	17
82	26
84	73
85	12
86	8
87	3
89	1
91	25
92	29
93	12
94	8
95	18
96	11
97	13
105	3
106	1
108	5
110	999
111	117
112	13
113	2
115	3
120	4
122	2
125	3
127	2
129	3
135	7
137	7
139	1
151	2
152	3
165	1
166	238
167	13
