Mass Spectrum: 2-Methyl-5-(4-nitrophenyl)-1,3,4-oxadiazole
Formula: C9H7N3O3
CAS: 22815-99-2
Molecular weight: 205
m/z	intensity
33	15
37	31
38	64
39	83
40	61
41	24
43	999
44	24
46	24
49	20
50	245
51	69
52	14
53	12
55	8
56	9
61	32
62	125
63	129
64	63
65	19
73	15
74	98
75	162
76	268
77	146
78	9
85	9
86	27
87	38
88	79
89	211
90	75
91	155
92	93
102	67
103	125
104	157
105	16
118	21
119	114
120	43
135	95
150	91
159	12
163	26
205	338
206	30
