Mass Spectrum: 4-Methylsulfonyl-4-benzoyl-butyronitrile
Formula: C12H13NO3S
CAS: 22818-11-7
Molecular weight: 251
m/z	intensity
50	10
51	28
52	10
54	9
63	10
66	9
74	9
75	10
76	19
77	343
78	38
79	9
82	18
104	18
105	999
106	115
115	19
131	9
251	38
