Mass Spectrum: Benzoic acid, p-nitro-, acetylhydrazide
Formula: C9H9N3O4
CAS: 22816-00-8
Molecular weight: 223
m/z	intensity
38	4
39	48
40	50
41	32
43	999
44	58
46	18
48	0
50	261
51	55
52	17
53	1
59	11
60	3
61	7
62	18
63	45
64	55
65	37
66	8
67	0
69	6
70	3
71	3
73	12
74	75
75	116
76	315
77	41
78	7
79	3
80	3
89	4
90	9
91	15
92	175
93	16
102	7
103	14
104	306
105	27
106	4
118	5
119	8
120	128
121	12
122	6
134	34
135	6
136	4
148	4
150	431
151	59
152	7
166	4
181	255
182	21
183	0
193	0
223	31
224	3
