Mass Spectrum: Cyclopropane, 1-ethenyl-2-hexenyl-, [1.alpha.,2.beta.(E)]-(.+/-.)-
Formula: C11H18
CAS: 22822-99-7
Molecular weight: 150
m/z	intensity
39	173
41	315
55	110
67	180
77	265
78	143
79	999
80	410
91	290
93	370
94	130
105	34
107	75
108	47
109	21
121	31
135	1
150	58
