Mass Spectrum: Schizozygine, hexahydro-N,N-dimethyl-
Formula: C22H30N2O3
CAS: 2283-33-2
Molecular weight: 370
m/z	intensity
52	17
53	41
54	17
55	86
56	62
57	34
58	999
59	52
65	27
66	10
67	52
68	27
69	10
70	27
71	34
72	41
77	41
78	10
79	10
80	10
81	41
82	17
83	104
84	17
89	17
90	10
91	34
94	13
95	13
96	145
97	27
98	34
108	27
109	41
110	62
111	10
112	138
113	10
114	27
115	17
116	17
123	27
124	62
125	34
126	937
127	76
128	17
129	10
130	17
139	41
140	52
141	10
153	10
154	277
155	27
168	27
170	62
171	27
172	17
173	17
174	225
175	27
185	17
186	17
187	41
188	41
189	17
202	97
203	69
204	17
210	17
211	27
212	10
213	10
214	27
215	27
216	10
224	27
225	17
226	41
240	27
241	17
242	27
254	62
255	17
256	10
268	27
270	27
282	34
283	17
284	17
285	10
296	41
297	10
298	10
311	17
312	72
313	17
325	34
326	41
327	10
341	41
342	10
370	243
371	69
372	10
