Mass Spectrum: 2(1H)-Naphthalenone, 1.alpha.-bromo-3,4,4a,5,6,7,8,8a.alpha.-octahydro-4a.beta.-phenyl-
Formula: C16H19BrO
CAS: 22844-38-8
Molecular weight: 306
m/z	intensity
41	180
42	20
43	40
44	10
45	10
49	50
50	110
51	40
52	90
53	20
54	90
55	160
56	40
57	110
58	10
59	10
62	10
63	60
64	40
65	110
66	30
67	140
68	20
69	20
70	20
71	60
74	20
75	20
76	50
77	210
78	100
79	130
80	20
81	240
82	20
83	30
84	10
85	30
89	30
90	10
91	999
92	100
93	60
94	10
95	60
96	10
97	10
98	10
102	70
103	110
104	120
105	130
106	10
107	50
108	10
109	60
115	380
116	100
117	370
118	140
119	20
120	10
121	20
122	10
123	30
124	10
127	90
128	300
129	480
130	160
131	130
132	20
133	20
139	20
141	290
142	160
143	220
144	40
145	180
146	30
147	10
149	30
152	30
153	40
154	30
155	110
156	270
157	230
158	160
159	60
165	30
166	10
167	70
168	30
169	180
170	130
171	650
172	130
173	50
181	50
182	70
183	100
184	170
185	130
186	30
197	30
198	70
199	130
200	30
209	160
210	40
211	10
213	10
225	50
226	180
227	610
228	390
229	60
250	10
251	520
252	90
253	510
254	70
278	20
280	20
306	250
307	60
308	250
309	40
