Mass Spectrum: 3,5,6,7,7,8-Hexachloro-5,6,7,8-tetrahydro-S-triazolo[4,3-a]pyridine
Formula: C6H3Cl6N3
CAS: 22841-85-6
Molecular weight: 327
m/z	intensity
47	736
48	225
49	759
50	340
51	385
52	108
53	495
60	353
61	999
62	789
63	577
64	411
71	59
72	361
73	582
74	216
75	305
76	221
82	96
83	400
84	116
85	751
86	264
87	386
88	169
95	52
96	433
97	309
98	599
99	213
100	215
101	102
107	542
108	129
109	595
110	169
111	217
120	153
121	50
122	163
124	156
126	186
131	169
133	205
134	161
135	209
143	176
144	55
168	56
186	409
188	271
221	546
222	205
223	531
224	121
225	174
256	208
258	281
259	54
260	134
292	332
294	565
296	354
298	120
