Mass Spectrum: 5-Hepten-1-yne, 6-methyl
Formula: C8H12
CAS: 22842-10-0
Molecular weight: 108
m/z	intensity
27	28
28	166
29	30
30	11
39	63
40	18
41	747
42	34
43	67
44	107
45	1
51	9
52	6
53	75
54	13
55	22
56	21
57	31
58	3
59	0
63	1
64	3
65	63
66	92
67	76
68	20
69	999
70	70
71	13
77	358
78	54
79	102
80	30
81	11
82	9
83	12
84	5
85	9
89	4
90	4
91	381
92	53
93	989
94	80
95	4
96	4
97	8
98	4
99	2
103	3
104	2
105	21
106	18
107	35
108	431
109	39
110	2
