Mass Spectrum: Methyl-3,4,6-tri-O-methyl-2-O-(methylester-2,3,4-tri-O-methyl.beta.d-glucopyranuronic acid).alpha.d-glucopyranoside
Formula: C20H36O12
CAS: 22855-12-5
Molecular weight: 468
m/z	intensity
75	198
88	109
101	999
111	11
114	12
117	82
127	10
141	24
143	11
144	6
145	6
157	10
159	32
161	7
169	46
173	32
186	33
187	65
201	626
219	136
233	265
246	46
249	8
279	579
287	57
319	265
394	85
405	57
437	42
468	12
