Mass Spectrum: Methyl-2,3,4-tri-O-methyl-6-O-(methylester-2,3,4-tri-O-methyl.beta.d-glucopyranuronic acid).alpha.d-glucopyranoside
Formula: C20H36O12
CAS: 22854-45-1
Molecular weight: 468
m/z	intensity
45	259
55	26
57	31
58	31
59	63
71	159
73	109
75	689
85	79
88	959
89	97
101	999
102	57
111	36
113	22
115	41
117	28
127	57
129	49
131	46
141	53
145	73
157	30
159	31
161	1
169	20
173	24
187	18
201	149
219	99
233	19
279	30
367	47
