Mass Spectrum: Bicyclo[2.2.1]heptane, 2-chloro-2,7,7-trimethyl-, exo-
Formula: C10H17Cl
CAS: 22852-22-8
Molecular weight: 172
m/z	intensity
39	270
40	70
41	400
42	40
43	120
49	40
50	80
51	50
52	120
53	40
54	120
55	40
56	40
57	20
63	50
64	20
65	90
66	50
67	200
68	100
69	180
70	40
77	30
78	250
79	70
80	480
81	900
82	130
83	70
84	20
89	20
90	30
91	230
92	220
93	999
94	300
95	250
96	50
105	80
106	30
107	250
108	140
109	120
110	80
119	40
120	20
121	520
122	70
123	90
124	20
136	570
137	100
138	20
157	280
158	30
159	100
172	150
173	20
174	50
