Mass Spectrum: .beta.-d-Lyxofuranoside, methyl
Formula: C6H12O5
CAS: 22861-09-2
Molecular weight: 164
m/z	intensity
25	1
27	131
28	55
29	273
30	47
31	322
32	13
33	143
34	1
37	1
38	4
39	37
40	35
41	64
42	71
43	193
44	63
45	514
46	14
47	17
48	0
49	1
50	1
51	1
52	0
53	3
54	22
55	120
56	89
57	471
58	111
59	66
60	160
61	272
62	7
63	2
65	0
66	0
67	0
68	75
69	39
70	3
71	104
72	26
73	999
74	151
75	171
76	7
77	1
79	2
81	1
82	0
83	11
84	7
85	69
86	109
87	147
88	8
89	3
90	0
91	2
93	0
95	0
96	0
97	6
98	1
99	1
100	2
101	16
102	4
103	16
104	29
105	28
106	1
111	0
113	0
114	10
115	32
116	113
117	16
118	1
119	0
121	0
123	0
125	0
127	0
128	0
129	0
131	0
132	8
133	145
134	9
135	1
