Mass Spectrum: Anisomycin
Formula: C14H19NO4
CAS: 22862-76-6
Molecular weight: 265
m/z	intensity
41	36
42	21
43	345
44	24
45	12
46	1
49	0
50	5
51	21
52	16
53	11
54	9
55	28
56	31
57	11
58	9
59	8
60	7
61	6
62	2
63	13
64	8
65	31
66	5
67	8
68	23
69	5
70	9
71	2
72	21
73	5
74	5
75	2
76	5
77	76
78	67
79	18
80	5
81	2
82	2
84	999
85	20
86	6
87	0
88	1
89	19
90	14
91	64
92	12
93	5
94	3
95	1
96	1
97	1
98	0
99	0
100	2
101	8
102	16
103	17
104	8
105	11
106	11
107	17
108	23
109	4
110	0
111	0
114	2
115	10
116	3
117	8
118	11
119	17
120	9
121	323
122	166
123	14
124	1
126	115
127	10
128	2
129	1
130	8
131	12
132	7
133	6
134	23
135	16
136	1
137	0
143	1
144	532
145	51
146	12
147	12
148	10
149	12
150	9
151	1
156	0
158	2
159	7
160	10
161	4
162	17
163	7
164	4
165	0
170	0
171	0
172	0
173	0
174	1
175	1
176	1
186	3
187	0
188	1
203	0
204	1
205	2
206	5
207	0
221	1
222	5
223	0
262	1
263	0
264	8
265	24
266	3
267	0
