Mass Spectrum: p-Benzoquinone, 2,6-dimethoxy-, 4-oxime
Formula: C8H9NO4
CAS: 22867-29-4
Molecular weight: 183
m/z	intensity
37	41
38	99
39	138
40	277
41	59
42	85
43	24
44	31
50	39
51	61
52	248
53	343
54	51
55	57
56	17
57	83
58	134
59	19
65	69
66	130
67	132
68	999
69	414
77	14
78	27
79	69
80	220
81	52
82	163
83	19
93	67
94	289
95	29
96	37
97	119
108	76
109	59
110	57
111	13
122	166
123	49
124	71
125	101
126	19
136	106
137	257
138	69
139	16
140	86
149	171
150	9
152	44
153	79
154	9
165	84
166	41
167	448
169	19
182	9
183	121
184	9
