Mass Spectrum: 2H-Pyran-2-carboxylic acid, 3,6-dihydro-6-methoxy-, methyl ester
Formula: C8H12O4
CAS: 22870-43-5
Molecular weight: 172
m/z	intensity
41	350
42	50
43	80
44	60
45	210
51	70
52	50
53	430
54	90
55	440
58	60
59	170
69	220
71	340
81	999
82	100
83	30
84	120
85	150
97	20
98	20
99	20
108	180
109	110
111	50
112	110
113	810
114	60
140	100
141	180
171	5
172	5
