Mass Spectrum: 4-Decenoic acid, 3-methyl-, (E)-
Formula: C11H20O2
CAS: 22882-86-6
Molecular weight: 184
m/z	intensity
26	6
27	115
28	28
29	168
30	5
31	8
38	5
39	126
40	27
41	394
42	81
43	220
44	10
45	48
50	6
51	18
52	11
53	81
54	46
55	517
56	120
58	19
59	70
60	42
61	7
63	6
66	20
67	160
68	364
69	363
70	45
71	145
72	95
73	42
74	7
77	34
78	8
79	49
80	16
81	259
82	239
83	125
84	61
85	120
86	14
87	58
88	14
91	12
93	15
94	11
95	156
96	47
97	50
98	61
99	24
100	66
101	32
102	6
105	13
107	6
109	48
110	23
112	9
114	23
115	12
122	21
123	19
124	999
125	107
126	11
127	22
128	16
129	6
137	15
138	11
139	1
141	10
142	1
153	12
154	1
165	5
166	67
167	16
168	1
184	56
185	8
186	0
