Mass Spectrum: 2,4(3H,5H)-Furandione, 3-propyl-
Formula: C7H10O3
CAS: 22884-75-9
Molecular weight: 142
m/z	intensity
26	80
27	400
28	190
29	200
31	30
38	30
39	230
40	50
41	210
42	150
43	120
44	10
50	30
51	30
52	10
53	50
54	30
55	999
56	110
57	30
68	20
69	80
70	20
73	20
81	20
82	20
83	40
84	140
85	50
96	50
100	260
101	460
102	20
113	90
114	40
124	20
127	30
142	30
