Mass Spectrum: 1-Oxaspiro[4.5]decane-2,4-dione, 3-acetyl-
Formula: C11H14O4
CAS: 22884-85-1
Molecular weight: 210
m/z	intensity
26	30
27	180
28	5
29	120
30	10
31	10
32	2
38	10
39	200
40	50
41	320
42	210
43	720
44	60
45	10
50	10
51	30
52	10
53	80
54	60
55	400
56	50
57	70
60	20
61	30
65	20
66	10
67	70
68	10
69	210
70	80
71	20
73	20
77	30
78	10
79	50
80	60
81	470
82	50
83	40
84	440
85	200
86	10
95	10
97	30
98	650
99	999
100	60
107	20
108	80
109	40
111	30
112	10
113	10
125	20
126	40
127	20
129	60
131	20
137	40
138	10
139	30
140	20
142	50
150	10
151	10
153	10
154	10
155	340
156	30
163	10
164	40
168	40
169	60
177	60
181	20
182	10
191	10
192	110
193	10
210	680
211	80
212	10
