Mass Spectrum: 1-Oxaspiro[4.5]decane-2,4-dione
Formula: C9H12O3
CAS: 22884-78-2
Molecular weight: 168
m/z	intensity
28	80
29	70
38	10
39	210
40	60
41	220
42	260
43	120
44	10
50	20
51	40
52	20
53	60
54	80
55	340
56	70
57	10
65	20
67	50
69	210
70	160
71	20
77	20
79	20
80	110
81	40
83	70
84	10
97	30
98	999
99	90
105	20
140	280
141	20
168	40
