Mass Spectrum: 5-Isopropyl-1H-1,2,4-triazol-3-amine
Formula: C5H10N4
CAS: 22882-41-3
Molecular weight: 126
m/z	intensity
29	69
30	19
36	2
37	8
38	22
39	134
40	36
41	183
42	97
43	502
44	34
47	2
50	10
51	26
52	59
53	68
54	131
55	78
56	71
57	340
58	89
59	2
63	10
64	6
65	1
66	16
67	20
68	40
69	88
70	207
71	10
72	2
77	1
79	3
80	4
81	19
82	16
83	22
84	18
85	14
94	24
95	9
96	1
97	47
98	156
99	7
103	3
109	3
110	23
111	999
112	102
122	3
123	1
124	2
125	259
126	851
127	90
128	3
