Mass Spectrum: 2,4(3H,5H)-Furandione, 3-acetyl-5,5-dimethyl-
Formula: C8H10O4
CAS: 22884-84-0
Molecular weight: 170
m/z	intensity
26	30
27	80
28	170
29	50
31	40
37	20
38	30
39	170
40	50
41	110
42	90
43	870
44	20
45	10
51	10
53	20
54	10
55	60
56	30
58	20
59	580
60	20
66	20
67	40
68	20
69	300
70	10
84	999
85	480
86	30
87	20
112	10
113	20
127	30
142	160
143	20
155	30
170	260
171	40
