Mass Spectrum: 2(1H)-Pyridone, 1-(2-deoxy-.alpha.-D-erythro-pentofuranosyl)-
Formula: C10H13NO4
CAS: 22882-18-4
Molecular weight: 211
m/z	intensity
38	29
39	171
40	65
41	171
42	47
43	259
44	62
45	441
46	10
47	14
49	3
50	26
51	76
52	82
53	56
54	29
55	79
56	32
57	76
58	6
59	6
60	21
61	14
64	6
65	18
66	47
67	350
68	62
69	132
70	32
71	132
72	10
73	344
74	26
75	18
76	3
77	10
78	221
79	44
80	32
81	41
82	7
83	10
84	6
85	24
86	4
87	6
91	3
92	10
93	32
94	24
95	999
96	823
97	121
98	50
99	138
100	9
104	14
105	4
106	4
108	8
109	29
110	4
111	4
112	3
115	3
116	7
117	244
118	15
119	3
120	50
121	17
122	176
123	19
133	3
134	7
137	19
138	9
149	5
150	32
151	10
162	6
180	4
202	3
211	88
212	11
