Mass Spectrum: Ethanethioic acid, S-(pentafluorophenyl) ester
Formula: C8H3F5OS
CAS: 22891-72-1
Molecular weight: 242
m/z	intensity
40	27
42	26
43	999
44	24
155	200
156	23
180	11
181	17
199	260
200	181
201	27
242	24
