Mass Spectrum: 1,4,2-Dioxazole, 3-(4-nitrophenyl)-5-phenyl-
Formula: C14H10N2O4
CAS: 2289-99-8
Molecular weight: 270
m/z	intensity
37	10
38	20
39	70
40	10
50	100
51	170
52	40
53	10
62	40
63	70
64	40
65	10
74	30
75	50
76	70
77	380
78	80
79	10
87	10
88	110
89	40
90	10
91	10
92	20
102	30
104	60
105	999
106	300
107	30
118	40
119	40
120	30
134	90
135	20
148	30
150	550
151	50
164	210
165	70
166	10
270	280
271	50
