Mass Spectrum: .alpha.,.alpha.'-[Piperazine-1,4-dimethylene]bis[4',7-difluoro-2-phenyl-4-quinolinylmethanol]
Formula: C38H32F4N4O2
CAS: 22894-96-8
Molecular weight: 652
m/z	intensity
41	58
42	218
43	130
44	141
45	203
47	36
48	15
54	10
55	72
56	257
57	80
58	101
59	22
63	5
68	25
69	38
70	400
71	40
74	24
75	40
81	11
82	24
83	34
84	18
85	24
86	10
88	13
91	12
92	6
93	36
94	30
95	35
96	23
97	85
98	80
99	999
100	72
101	21
106	19
109	11
110	19
111	178
112	46
113	603
114	51
119	50
120	97
122	11
123	17
125	22
126	28
127	55
133	18
134	45
146	56
170	23
193	23
200	17
212	11
219	21
220	27
221	16
222	22
239	53
240	405
241	147
242	79
254	5
255	19
266	104
267	82
268	46
269	365
270	101
271	74
272	5
283	27
284	6
382	273
383	67
