Mass Spectrum: Silane, triethyl(3-phenylpropoxy)-
Formula: C15H26OSi
CAS: 2290-40-6
Molecular weight: 250
m/z	intensity
27	159
28	10
29	138
30	14
31	49
36	5
37	7
38	11
39	109
40	15
41	109
42	8
43	57
44	28
45	299
46	18
47	301
48	16
49	16
50	29
51	89
52	34
53	19
54	6
55	41
56	16
57	59
58	79
59	265
60	31
61	78
62	17
63	45
64	13
65	135
66	8
67	5
68	5
69	9
70	5
71	18
72	15
73	131
74	55
75	506
76	48
77	85
78	57
79	44
80	7
81	11
82	16
83	9
85	14
86	12
87	179
88	26
89	802
90	85
91	999
92	101
93	9
95	4
96	15
97	7
98	4
99	9
100	5
101	98
102	34
103	157
104	39
105	59
106	4
107	8
109	4
111	21
115	65
116	15
117	269
118	278
119	53
120	7
121	9
123	7
127	5
129	19
130	7
131	8
132	5
133	7
135	12
136	5
137	5
145	7
147	9
161	5
163	35
164	5
165	7
175	5
177	5
179	5
191	7
193	31
194	5
207	49
208	5
209	5
219	8
220	19
221	776
222	143
223	47
224	5
