Mass Spectrum: (1-(Methylthio)propyl)benzene
Formula: C10H14S
CAS: 22906-19-0
Molecular weight: 166
m/z	intensity
15	2
26	1
27	15
28	8
29	4
32	2
34	1
37	1
38	5
39	58
40	4
41	113
42	4
44	3
45	31
46	4
47	12
48	2
49	2
50	17
51	55
52	13
53	6
57	1
58	2
59	13
61	6
62	9
63	30
64	6
65	46
66	4
67	1
69	6
70	1
71	2
72	1
73	5
74	7
75	9
76	9
77	76
78	48
79	29
80	2
82	1
83	1
85	1
86	2
87	3
88	1
89	21
90	7
91	999
92	77
93	4
97	1
101	1
102	10
103	48
104	51
105	9
107	9
108	1
109	9
110	1
111	1
113	1
114	1
115	49
116	11
117	59
118	24
119	406
120	40
121	48
122	13
123	7
124	2
125	4
127	1
134	3
135	11
136	2
137	167
138	18
139	8
149	1
151	1
166	156
167	17
168	8
