Mass Spectrum: 3-Thiophenecarboxylic acid, methyl ester
Formula: C6H6O2S
CAS: 22913-26-4
Molecular weight: 142
m/z	intensity
28	5
29	10
31	3
37	7
38	18
39	190
40	3
44	4
45	38
50	5
53	3
57	15
58	2
59	4
81	12
82	16
83	92
84	9
85	2
97	8
111	999
112	37
113	27
142	241
143	15
144	8
