Mass Spectrum: Benzene, [2-(ethylthio)ethyl]-
Formula: C10H14S
CAS: 22914-08-5
Molecular weight: 166
m/z	intensity
24	1
25	2
26	29
27	164
28	18
29	127
30	3
31	1
32	3
33	3
34	4
35	12
36	1
37	4
38	11
39	81
40	6
41	37
42	1
43	2
44	2
45	49
46	18
47	210
48	5
49	11
50	35
51	95
52	23
53	11
54	1
55	1
56	1
57	3
58	10
59	26
60	7
61	13
62	11
63	34
64	8
65	79
66	7
67	1
68	1
69	4
70	1
71	2
72	1
73	3
74	11
75	999
76	50
77	153
78	47
79	34
80	2
81	1
82	1
83	1
84	1
85	1
86	1
87	1
88	1
89	18
90	7
91	215
92	20
93	2
94	1
95	1
96	1
97	1
98	1
99	1
100	1
101	2
102	11
103	53
104	240
105	74
106	7
107	1
108	1
109	7
110	1
111	1
115	1
116	1
117	3
118	1
119	1
120	1
121	2
122	1
123	1
127	1
128	1
129	1
131	1
132	1
133	1
134	5
135	14
136	4
137	6
138	1
139	1
141	1
142	1
147	1
149	1
151	1
152	1
153	1
164	1
165	1
166	177
167	21
168	9
169	1
