Mass Spectrum: Carbamic acid, phenyl-, 2-methylpropyl ester
Formula: C11H15NO2
CAS: 2291-80-7
Molecular weight: 193
m/z	intensity
26	7
27	89
28	20
29	298
30	10
31	22
37	8
38	27
39	190
40	28
41	496
42	32
43	60
44	3
45	8
46	2
47	2
49	1
50	24
51	78
52	25
53	12
54	7
55	49
56	16
57	814
58	45
59	34
60	2
61	4
62	11
63	43
64	59
65	241
66	76
67	9
73	15
74	7
75	6
76	13
77	196
78	19
79	5
80	5
82	2
88	2
89	3
90	9
91	80
92	186
93	999
94	91
95	4
103	2
104	4
105	4
106	20
107	4
108	3
117	5
118	3
119	47
120	201
121	20
125	6
127	2
132	4
133	2
134	37
135	5
136	15
137	213
138	32
139	3
148	2
149	3
150	5
151	2
178	4
179	2
193	421
194	61
195	6
