Mass Spectrum: 4-(2-Bromoethoxy)anisole
Formula: C9H11BrO2
CAS: 22921-76-2
Molecular weight: 230
m/z	intensity
15	2
26	11
27	60
28	2
29	1
37	1
38	7
39	18
40	1
41	37
42	1
43	4
45	1
50	9
51	13
52	22
53	16
54	20
55	5
61	2
62	6
63	23
64	24
65	26
66	5
67	8
68	1
69	3
74	2
75	2
76	2
77	20
78	3
79	10
80	17
81	18
82	9
91	7
92	15
93	14
94	3
95	131
96	9
105	1
107	90
108	10
109	135
110	8
119	5
120	2
121	4
122	1
123	999
124	163
125	12
126	1
135	12
136	2
137	32
138	4
143	1
145	1
147	2
150	21
151	19
152	3
155	1
162	2
163	2
170	2
186	1
215	1
217	1
230	268
231	26
232	261
233	25
234	2
