Mass Spectrum: 2,2,2-Trifluoro-N-(5-phenyl-[1,3,4]thiadiazol-2-yl)-acetamide
Formula: C10H6F3N3OS
CAS: 22926-55-2
Molecular weight: 273
m/z	intensity
33	2
34	2
36	0
37	9
38	21
39	78
40	20
41	13
42	13
43	9
44	21
45	162
46	23
47	20
48	4
49	8
50	154
51	301
52	33
53	6
54	4
55	4
56	2
57	7
58	17
59	17
60	40
61	18
62	44
63	116
64	86
65	10
66	7
67	3
69	644
70	28
71	12
72	8
73	119
74	292
75	77
76	145
77	630
78	57
79	3
80	2
81	13
82	23
83	6
84	8
85	6
86	39
87	13
88	12
89	103
90	38
91	76
92	10
93	42
94	20
95	27
96	54
97	47
98	4
99	4
100	17
101	64
102	37
103	187
104	999
105	111
106	10
107	9
108	26
109	10
110	2
111	1
112	1
113	1
114	4
115	9
116	2
117	10
118	41
119	14
120	22
121	572
122	61
123	29
124	3
125	0
126	0
128	31
129	2
130	5
131	1
132	1
133	4
134	19
135	112
136	32
137	8
138	2
139	1
140	0
141	1
142	2
143	2
145	162
146	17
147	2
148	1
149	5
150	5
151	0
152	2
153	0
155	1
156	4
157	0
158	0
160	18
161	34
162	7
163	1
164	0
165	0
167	31
168	3
170	46
171	3
172	3
173	0
174	0
175	2
177	449
178	47
179	21
180	2
181	0
182	1
183	0
185	0
186	0
187	0
188	0
189	0
192	8
193	0
194	1
200	0
201	0
202	3
204	414
205	49
206	21
207	2
208	0
209	0
212	0
214	69
215	14
216	1
217	0
218	0
219	0
220	0
224	0
225	0
226	7
227	0
228	0
243	0
253	0
254	12
256	28
257	2
258	8
259	0
273	945
274	120
275	48
276	5
