Mass Spectrum: Iron, tetracarbonyl(heptafluoropropyl)iodo-
Formula: C7F7FeIO4
CAS: 22925-82-2
Molecular weight: 464
m/z	intensity
28	999
29	70
30	170
31	569
43	180
50	50
51	60
56	529
68	70
69	380
70	130
74	50
75	340
83	300
86	100
93	420
100	120
103	130
106	60
112	699
125	80
127	150
131	619
140	60
169	70
183	999
187	30
201	350
206	100
211	599
215	50
220	70
225	80
230	130
234	100
239	350
243	30
258	130
261	80
267	120
281	50
290	120
294	30
295	50
310	60
318	50
319	50
333	30
337	30
345	50
352	10
361	50
366	60
380	80
390	80
408	180
418	40
435	50
445	10
463	330
