Mass Spectrum: Borane, (1,2-diethyl-1,2-ethenediyl)bis[diethyl-
Formula: C14H30B2
CAS: 2292-02-6
Molecular weight: 220
m/z	intensity
25	1
26	49
27	211
28	11
29	19
36	11
37	37
38	22
39	86
40	256
41	893
42	17
43	0
44	0
45	5
47	0
48	1
49	6
50	26
51	67
52	23
53	82
54	21
55	71
56	1
59	11
60	1
61	23
62	7
63	19
64	26
65	70
66	12
67	27
68	251
69	999
70	43
73	1
74	4
75	14
76	19
77	19
78	8
79	26
80	28
81	67
82	4
83	0
85	1
87	0
88	2
89	7
90	5
91	13
92	36
93	134
94	18
95	26
101	1
102	0
103	2
104	3
105	7
106	2
107	5
108	1
109	7
110	12
118	0
119	4
120	10
121	43
122	53
123	11
133	3
134	2
135	9
136	0
148	1
149	12
150	16
151	0
160	1
161	5
162	19
163	37
164	2
166	0
178	3
179	0
189	7
190	68
191	149
192	18
193	0
206	1
218	2
219	40
220	94
221	12
