Mass Spectrum: Cyclohexane, 1,1-ethylenedioxy-2-(2-methyl-1-propenyl)-
Formula: C12H20O2
CAS: 22931-94-8
Molecular weight: 196
m/z	intensity
26	46
27	129
29	171
30	10
31	61
38	17
39	165
40	51
41	359
42	192
43	418
44	201
45	138
46	17
47	23
49	10
50	16
51	34
52	27
53	123
54	48
55	317
56	55
57	87
58	111
59	20
60	52
61	9
62	17
63	16
64	12
65	75
66	43
67	203
68	88
69	136
70	41
71	37
72	12
73	95
74	21
75	15
76	18
77	84
78	28
79	140
80	51
81	188
82	72
83	46
84	42
85	61
86	485
87	62
88	10
89	10
91	87
92	42
93	226
94	41
95	197
96	43
97	41
98	56
99	999
100	119
101	15
102	19
103	10
104	12
105	38
106	21
107	48
108	416
109	141
110	33
111	35
112	88
113	184
114	235
115	26
116	10
117	62
118	12
119	33
120	13
121	24
122	18
123	35
124	27
125	898
126	131
127	23
128	62
129	16
133	19
134	30
135	22
137	24
138	12
139	96
140	46
141	30
142	16
144	13
147	11
151	18
152	15
153	264
154	40
181	48
195	19
196	615
197	112
198	16
