Mass Spectrum: 1-(propen-1-yl)adamantane
Formula: C13H20
CAS: 22943-89-1
Molecular weight: 176
m/z	intensity
51	30
52	20
53	130
54	20
55	210
56	40
57	70
65	100
66	50
67	220
69	90
70	30
71	80
77	230
78	70
79	320
80	80
81	115
82	90
83	60
91	999
92	230
93	460
94	410
95	90
103	20
105	170
106	100
107	90
108	30
115	20
117	40
118	90
119	750
120	220
121	95
122	20
133	115
134	65
135	332
136	65
137	10
147	100
148	20
161	110
162	20
175	30
176	970
177	138
178	9
