Mass Spectrum: 4,6-Dimethyl-3-methylthio-5-oxo-4,5-dihydro-triazine
Formula: C6H9N3OS
CAS: 22943-32-4
Molecular weight: 171
m/z	intensity
41	257
42	682
45	511
46	477
47	467
55	438
56	805
71	188
72	408
73	217
83	148
88	999
96	150
126	628
171	518
