Mass Spectrum: 4-Aminophenyl-4'-[4-methylpiperazino]phenyl sulfone
Formula: C17H21N3O2S
CAS: 22947-01-9
Molecular weight: 331
m/z	intensity
41	42
42	470
43	999
44	125
45	10
50	19
51	38
52	20
53	19
54	21
55	14
56	87
57	80
58	48
63	31
64	21
65	153
66	21
69	14
70	520
71	486
72	23
75	6
76	31
77	69
78	30
80	50
85	13
89	11
90	16
91	20
92	100
93	22
97	11
98	20
99	9
102	3
103	19
104	21
105	16
108	216
109	17
117	6
120	28
124	9
130	11
131	18
132	11
139	3
140	148
141	15
142	3
152	27
153	6
156	22
165	17
166	4
167	16
168	7
182	13
196	11
248	7
260	49
261	39
262	2
266	16
274	9
275	14
287	19
288	15
289	25
316	27
330	24
331	318
332	67
333	21
