Mass Spectrum: 4-Benzylaminophenyl-4-morpholinophenyl sulfone
Formula: C23H24N2O3S
CAS: 22952-05-2
Molecular weight: 408
m/z	intensity
51	29
63	6
65	79
69	28
76	39
77	93
78	37
90	17
91	999
92	85
103	30
104	69
105	43
120	75
131	33
132	16
140	6
152	157
153	16
168	25
178	27
180	27
181	32
195	43
210	17
253	111
254	7
263	33
321	34
349	6
350	78
351	14
408	255
409	53
410	6
