Mass Spectrum: 4-Acetamidophenyl-4'-[4-methylpiperazino]phenyl sulfone
Formula: C19H23N3O3S
CAS: 22952-04-1
Molecular weight: 373
m/z	intensity
41	13
42	305
43	999
44	116
51	17
56	62
57	66
58	42
65	38
70	426
71	429
72	18
76	12
77	39
78	11
92	25
93	20
104	20
105	11
108	73
120	11
131	5
140	54
152	29
260	63
266	5
303	20
329	13
330	11
331	39
358	32
372	51
373	538
374	121
375	35
