Mass Spectrum: Morphinan-3-ol, 6-azido-4,5-epoxy-17-methyl-, (5.alpha.,6.beta.)-
Formula: C17H20N4O2
CAS: 22952-87-0
Molecular weight: 312
m/z	intensity
58	150
59	220
70	97
115	73
123	999
171	62
184	59
255	49
269	50
270	59
283	34
284	53
312	670
