Mass Spectrum: Pregn-5-ene-3,20-diamine, N3,N3,N20-trimethyl-, (3.beta.,20S)-
Formula: C24H42N2
CAS: 22953-27-1
Molecular weight: 358
m/z	intensity
41	10
42	20
43	10
44	20
46	10
55	10
56	10
57	10
58	300
59	10
67	10
71	20
72	10
73	10
76	10
78	10
80	10
84	999
85	60
86	10
90	10
92	10
105	10
286	13
287	5
301	20
302	5
343	5
344	2
357	2
358	35
359	10
360	1
