Mass Spectrum: Methyl-2,3,4-tri-O-methyl.beta.l-arabinopyranoside
Formula: C9H18O5
CAS: 2296-43-7
Molecular weight: 206
m/z	intensity
45	102
53	18
55	34
57	18
58	122
59	26
68	11
69	16
71	38
73	286
75	511
83	30
85	20
87	18
88	714
99	34
101	999
105	3
115	53
131	10
143	16
175	20
176	53
