Mass Spectrum: Methyl 3,4-di-O-methyl-.beta.-L-arabinopyranoside
Formula: C8H16O5
CAS: 2296-48-2
Molecular weight: 192
m/z	intensity
45	329
55	30
57	53
58	319
59	185
61	30
69	205
71	205
72	35
73	67
74	999
75	820
85	32
87	546
88	154
97	12
99	26
100	43
101	144
105	4
114	28
115	16
129	32
130	18
161	144
162	5
