Mass Spectrum: Androstenediol dipropionate
Formula: C25H38O4
CAS: 2297-30-5
Molecular weight: 402
m/z	intensity
41	68
42	3
43	33
44	6
45	6
48	1
50	5
52	1
53	21
55	102
56	12
57	999
58	32
59	5
62	1
65	11
66	8
67	100
68	7
69	34
70	3
71	5
75	2
77	50
78	6
79	130
80	19
81	150
82	10
83	10
84	2
85	1
86	1
90	1
91	193
92	41
93	168
94	50
95	91
96	4
97	7
101	3
103	10
104	4
105	185
106	72
107	168
108	67
109	48
111	4
113	2
115	11
116	5
117	68
118	34
119	92
120	59
121	268
122	49
123	13
127	2
128	22
129	45
130	25
131	95
132	31
133	241
134	33
135	32
136	9
141	18
142	6
143	88
144	37
145	132
146	228
147	105
148	50
149	64
150	5
151	1
154	2
155	13
156	2
157	45
158	53
159	78
160	39
161	34
163	11
165	2
167	1
169	11
171	8
172	13
173	27
182	1
183	54
184	8
185	4
186	1
187	2
188	2
197	14
198	2
199	23
200	12
205	2
206	1
211	10
212	7
213	10
214	3
225	10
226	8
238	1
239	93
240	21
254	40
255	19
256	2
257	12
270	1
271	1
272	1
274	1
283	1
285	1
299	2
313	31
327	1
328	356
329	86
330	7
