Mass Spectrum: 2(1H)-Pyridinone, 1-isopropyl-
Formula: C8H11NO
CAS: 22973-00-8
Molecular weight: 137
m/z	intensity
27	220
28	159
39	393
40	102
41	304
42	90
43	86
51	102
53	43
54	17
55	10
64	23
65	36
66	82
67	999
68	90
78	155
79	40
80	17
93	26
94	60
95	508
96	233
97	29
104	16
109	31
120	35
122	46
135	32
136	111
137	286
138	60
