Mass Spectrum: Benzamide, N-(4-hydroxyphenyl)-2-methyl-
Formula: C14H13NO2
CAS: 22978-52-5
Molecular weight: 227
m/z	intensity
50	18
51	40
52	40
53	40
63	59
64	26
65	203
80	15
81	47
89	40
90	47
91	857
92	67
108	31
109	43
119	999
120	202
227	819
228	169
