Mass Spectrum: 2,2-Bis[4-(benzoyloxy)phenyl]propane
Formula: C29H24O4
CAS: 2297-14-5
Molecular weight: 436
m/z	intensity
33	3
34	1
36	1
37	10
39	30
40	10
41	10
43	9
44	13
45	1
49	3
50	27
51	133
52	9
53	3
55	8
57	6
58	1
59	1
60	1
61	4
63	9
65	14
66	2
67	1
68	1
69	2
70	2
71	2
74	11
77	450
79	3
81	1
82	1
83	2
84	1
85	1
86	1
87	1
88	3
89	2
91	11
92	1
94	3
95	1
97	1
98	1
99	2
100	1
102	6
105	999
106	50
107	8
108	1
111	1
113	2
114	1
115	5
116	1
117	1
119	9
120	2
121	2
122	4
126	1
127	3
128	4
129	2
130	1
131	1
133	1
134	2
135	2
139	4
141	3
144	1
145	1
150	1
152	5
153	3
154	1
155	2
157	1
158	1
165	4
166	1
167	1
168	1
169	3
170	1
181	2
182	1
183	1
185	1
196	1
197	2
198	1
199	1
209	1
210	1
211	1
212	2
213	8
214	1
223	1
225	1
226	1
227	1
228	2
239	1
314	1
317	11
318	2
330	1
331	2
332	8
333	2
421	10
422	3
423	1
435	2
436	24
437	7
438	1
