Mass Spectrum: Benzenesulfonic acid, 4-bromo-, hydrazide
Formula: C6H7BrN2O2S
CAS: 2297-64-5
Molecular weight: 250
m/z	intensity
31	150
74	280
75	999
76	759
77	659
141	220
155	639
156	460
157	659
158	460
159	60
171	60
172	120
173	60
174	80
186	6
188	12
203	200
205	220
219	40
220	160
221	440
222	200
223	420
250	200
252	200
