Mass Spectrum: 1-Butanone, 1-(2-pyridinyl)-
Formula: C9H11NO
CAS: 22971-32-0
Molecular weight: 149
m/z	intensity
36	6
37	2
38	12
39	54
40	11
41	67
42	23
43	153
44	6
49	3
50	40
51	203
52	168
53	38
54	2
55	41
56	0
59	4
63	4
64	5
65	19
66	10
67	6
69	2
70	5
71	25
74	3
75	5
76	12
77	16
78	720
79	999
80	153
81	7
89	1
90	1
91	1
92	6
93	110
94	7
103	2
104	6
105	1
106	322
107	136
108	12
116	5
117	12
118	5
120	19
121	206
122	23
130	23
131	3
132	11
133	6
134	379
135	35
136	1
146	2
148	53
149	155
150	19
151	0
