Mass Spectrum: Acetic acid, (4-aminophenoxy)-
Formula: C8H9NO3
CAS: 2298-36-4
Molecular weight: 167
m/z	intensity
63	20
64	34
65	141
66	32
67	24
69	66
70	12
71	35
76	37
77	16
78	29
79	135
80	38
82	36
91	47
92	86
94	18
97	35
98	36
102	10
104	24
105	11
107	999
108	115
109	11
120	22
121	21
122	11
141	9
167	364
168	25
