Mass Spectrum: 2-Piperidinemethanamine
Formula: C6H14N2
CAS: 22990-77-8
Molecular weight: 114
m/z	intensity
12	1
13	1
14	2
15	25
16	4
17	12
18	5
25	0
26	12
27	82
28	158
29	251
30	350
31	19
32	1
35	4
36	5
37	2
38	5
39	56
40	12
41	125
42	132
43	40
44	30
45	2
46	0
47	7
48	4
49	3
50	4
51	6
52	7
53	16
54	42
55	104
56	341
57	47
58	7
59	1
60	0
62	0
63	1
64	0
65	7
66	2
67	48
68	30
69	29
70	11
71	5
72	0
73	0
75	0
76	0
77	2
78	1
79	5
80	10
81	8
82	37
83	620
84	999
85	75
86	3
87	3
91	0
92	0
93	1
94	0
95	2
96	20
97	7
98	8
99	1
100	0
110	1
111	2
112	1
113	5
114	8
115	0
