Mass Spectrum: Germane, dichlorobis(1-methylethyl)-
Formula: C6H14Cl2Ge
CAS: 22998-59-0
Molecular weight: 230
m/z	intensity
15	3
26	6
27	160
28	26
29	3
32	5
37	4
38	10
39	140
40	22
41	308
42	116
43	999
44	32
70	12
71	13
72	17
73	19
74	25
75	19
76	5
77	5
83	1
84	3
85	18
86	5
87	28
88	16
89	38
91	9
95	2
96	1
97	9
99	10
100	2
101	6
102	1
105	133
107	221
108	57
109	309
110	25
111	142
112	9
113	34
114	7
115	16
116	8
117	12
118	4
119	3
120	2
121	3
124	1
125	4
126	1
127	2
128	1
134	1
136	3
139	3
140	8
141	5
142	18
143	12
144	27
145	17
146	18
147	15
148	361
150	606
151	177
152	823
153	90
154	347
155	18
156	47
158	2
159	2
160	4
161	1
163	4
165	9
166	2
167	11
169	5
183	45
185	95
186	28
187	126
188	23
189	71
190	32
191	48
192	39
193	58
194	56
195	67
196	28
197	28
198	5
199	5
226	56
228	100
229	30
230	153
231	25
232	96
233	6
234	23
235	2
