Mass Spectrum: Thiazolo[3,2-a]pyridinium, 3-carboxy-2,3-dihydro-8-hydroxy-, hydroxide, inner salt
Formula: C8H7NO3S
CAS: 23003-39-6
Molecular weight: 197
m/z	intensity
38	157
39	631
43	157
44	999
51	45
52	68
53	87
54	104
55	104
58	54
59	63
60	35
66	68
67	73
68	105
69	49
70	48
71	76
72	40
80	147
83	129
94	62
95	37
96	15
97	38
98	35
99	28
108	28
109	15
110	18
120	31
124	122
127	121
151	42
152	315
153	223
