Mass Spectrum: 3,3'-Bipyranyl, octahydro-2,2'-dimethoxy-
Formula: C12H22O4
CAS: 23006-89-5
Molecular weight: 230
m/z	intensity
26	10
27	101
28	26
29	109
30	5
31	63
33	43
38	3
39	126
40	26
41	348
42	47
43	63
44	7
45	122
46	3
47	7
50	4
51	15
52	12
53	108
54	967
55	245
56	44
57	29
58	70
59	39
60	5
61	107
62	3
63	6
64	2
65	29
66	34
67	772
68	138
69	111
70	18
71	134
72	21
73	19
74	8
75	96
76	4
77	41
78	11
79	95
80	32
81	195
82	695
83	99
84	208
85	42
86	13
87	9
88	8
89	2
91	28
92	8
93	43
94	21
95	90
96	24
97	280
98	32
99	15
100	3
101	5
102	2
103	15
105	13
106	2
107	19
108	8
109	35
110	111
111	56
112	16
113	19
114	999
115	83
116	14
117	2
119	6
120	5
121	20
122	3
123	49
124	6
125	27
126	4
127	61
128	8
129	6
131	4
135	2
136	2
137	18
138	62
139	37
140	10
141	14
142	83
143	8
153	5
155	9
165	4
166	8
167	481
168	62
169	8
170	26
171	3
183	6
197	3
198	3
199	13
200	2
229	1
