Mass Spectrum: 1-Butene, 2-(chloromethyl)-
Formula: C5H9Cl
CAS: 23010-02-8
Molecular weight: 104
m/z	intensity
25	5
26	78
27	417
28	56
29	227
30	5
31	11
33	1
35	10
36	19
37	55
38	108
39	592
40	178
41	919
42	266
43	24
44	1
47	6
48	6
49	75
50	81
51	127
52	41
53	553
54	87
55	601
56	27
57	1
60	4
61	22
62	33
63	58
64	9
65	50
66	16
67	339
68	564
69	999
70	77
71	3
72	2
73	15
74	5
75	88
76	42
77	29
78	13
79	0
84	1
85	0
86	1
87	3
89	162
90	8
91	51
92	2
101	0
102	0
104	456
105	27
106	144
107	8
