Mass Spectrum: Pregn-5-ene-3,11,20-trione, cyclic 3,20-bis(1,2-ethanediyl acetal)
Formula: C25H36O5
CAS: 2302-12-7
Molecular weight: 416
m/z	intensity
26	3
27	7
29	18
30	2
31	3
39	5
40	10
41	19
42	8
43	109
44	38
45	13
51	2
52	1
53	9
54	2
55	84
56	5
57	3
58	1
59	1
65	5
66	2
67	13
68	4
69	8
70	1
72	1
73	9
77	13
78	4
79	18
80	4
81	14
82	2
83	3
84	2
85	8
86	10
87	420
88	19
89	4
90	1
91	28
92	5
93	11
94	3
95	10
96	2
97	4
98	5
99	999
100	67
101	18
102	2
103	4
104	3
105	18
106	5
107	17
108	4
109	4
110	2
111	2
112	3
113	6
114	1
115	11
116	4
117	9
118	3
119	9
120	4
121	9
122	8
123	5
124	2
125	4
126	3
127	3
128	6
129	8
130	3
131	9
132	3
133	8
134	4
135	6
136	7
137	3
138	1
139	3
140	3
141	4
142	3
143	6
144	3
145	7
146	3
147	8
148	3
149	3
150	2
151	3
152	2
153	2
154	1
155	3
156	2
157	4
158	2
159	5
160	4
161	6
162	3
163	3
164	2
165	5
166	9
167	4
168	2
169	2
170	1
171	4
172	2
173	4
174	1
175	3
176	2
177	3
178	5
179	4
180	3
181	2
182	1
183	2
184	1
185	3
186	1
187	3
188	1
189	3
190	1
191	2
193	3
195	1
197	2
198	1
199	2
200	1
201	1
203	1
204	1
205	2
206	1
207	3
208	1
209	2
211	2
212	1
213	2
215	1
223	1
224	1
225	2
226	1
227	1
237	1
239	1
241	2
242	1
243	1
251	1
252	1
253	1
255	1
257	1
258	1
265	1
267	2
271	1
273	1
285	2
287	1
295	1
301	1
302	1
311	1
313	3
314	1
315	1
316	2
317	5
318	1
326	1
327	2
328	6
329	2
344	2
354	1
355	4
356	2
357	13
358	3
360	1
370	2
371	2
372	9
373	3
386	1
388	6
389	2
396	1
398	3
399	1
401	13
402	3
415	3
416	48
417	4
418	3
