Mass Spectrum: Imidazole, 5-chloro-1-ethyl-2-methyl-4-nitro-
Formula: C6H8ClN3O2
CAS: 2302-28-5
Molecular weight: 189
m/z	intensity
35	3
36	13
37	7
38	18
39	38
40	37
41	40
42	251
43	999
44	26
45	3
46	40
47	13
48	3
49	23
50	3
51	32
52	68
53	53
54	30
55	7
56	40
57	2
59	1
60	3
61	17
62	272
63	21
64	91
65	9
66	15
67	20
68	8
69	38
70	24
71	1
72	3
73	42
74	36
75	27
76	15
77	16
78	5
79	24
80	20
81	46
82	12
83	9
84	0
85	2
86	18
87	20
88	52
89	34
90	207
91	16
92	66
93	14
94	1
95	1
96	1
97	12
98	0
99	1
100	7
101	4
102	25
103	3
104	9
105	1
106	0
107	3
108	6
109	3
110	47
111	3
113	2
114	24
115	18
116	10
117	23
118	6
119	7
120	2
121	3
128	0
129	1
130	0
131	0
132	0
136	1
137	0
138	7
139	0
142	2
143	16
144	1
145	5
150	0
151	0
155	0
158	0
159	4
160	1
161	0
162	0
173	6
174	0
175	1
188	4
189	466
190	47
191	150
192	12
193	0
