Mass Spectrum: Pyridinium, 1-[(ethoxycarbonyl)amino]-, hydroxide, inner salt
Formula: C8H10N2O2
CAS: 23025-55-0
Molecular weight: 166
m/z	intensity
41	20
42	20
43	40
44	30
45	10
49	10
50	50
51	90
52	180
53	20
62	10
63	50
64	30
65	20
66	50
67	40
68	10
78	70
79	999
80	90
81	10
93	20
94	170
95	10
121	470
122	50
166	90
167	20
