Mass Spectrum: cis-2,3-Epoxyoctane
Formula: C8H16O
CAS: 23024-54-6
Molecular weight: 128
m/z	intensity
26	130
27	860
28	310
29	900
30	60
31	90
38	30
39	680
40	170
41	940
42	910
43	980
44	530
45	970
46	70
47	20
50	20
51	60
52	20
53	150
54	210
55	920
56	999
57	850
58	560
59	200
65	30
66	30
67	240
68	160
69	720
70	150
71	740
72	450
73	50
77	20
79	30
81	230
82	760
83	630
84	400
85	800
86	100
95	40
96	20
97	20
99	230
100	20
110	50
112	40
113	140
114	10
128	100
