Mass Spectrum: 1-(3-Ethoxyphenyl)acetone
Formula: C11H14O2
CAS: 23037-47-0
Molecular weight: 178
m/z	intensity
39	68
43	999
51	54
52	30
53	31
63	30
65	24
77	170
78	49
79	63
89	34
90	30
91	82
105	16
107	237
108	138
121	8
135	351
136	156
137	13
149	1
163	2
178	459
179	53
