Mass Spectrum: Lofepramine
Formula: C26H27ClN2O
CAS: 23047-25-8
Molecular weight: 418
m/z	intensity
15	1
17	1
18	3
26	1
27	5
28	4
29	2
30	3
36	1
37	1
38	3
39	12
40	1
41	12
42	56
43	19
44	65
45	2
49	1
50	14
51	17
52	6
53	3
54	2
55	5
56	3
57	25
58	999
59	38
60	1
61	2
62	4
63	13
64	5
65	13
66	1
67	7
68	2
69	2
70	9
71	6
72	2
73	2
74	6
75	26
76	13
77	21
78	8
79	2
80	3
81	3
82	50
84	25
85	4
86	3
87	3
88	3
89	26
90	13
91	26
92	3
93	1
94	1
96	20
98	2
99	2
100	1
101	6
102	10
103	12
104	9
105	6
106	5
107	1
108	8
110	5
111	39
112	5
113	13
114	4
115	16
116	11
117	15
118	10
119	2
120	1
123	2
124	1
125	23
126	5
127	12
128	13
129	5
130	18
131	9
132	3
136	1
137	1
138	2
139	66
140	18
141	22
142	4
143	2
144	2
145	1
149	1
150	2
151	8
152	18
153	6
154	14
155	3
156	4
160	1
161	1
162	1
163	5
164	6
165	30
166	14
167	22
168	7
169	1
170	1
175	1
176	7
177	7
178	37
179	46
180	39
181	7
182	2
183	1
184	1
188	1
189	3
190	7
191	24
192	47
193	115
194	98
195	80
196	17
197	4
198	1
199	1
202	2
203	2
204	27
205	15
206	34
207	11
208	43
209	12
210	1
216	1
217	7
218	13
219	7
220	82
221	55
222	16
223	4
224	1
225	1
230	1
232	3
233	2
234	45
235	40
236	7
237	1
249	1
263	1
264	2
266	1
277	1
278	1
279	20
280	4
418	16
419	4
420	6
421	1
