Mass Spectrum: But-2-enedioic acid, dimethyl ester
Formula: C6H8O4
CAS: 23055-10-9
Molecular weight: 144
m/z	intensity
25	6
26	80
27	20
28	3
29	36
30	9
31	10
39	14
41	13
42	9
43	4
44	3
45	8
53	43
54	71
55	28
56	3
57	6
58	2
59	222
60	5
68	2
69	4
71	2
81	4
82	25
83	4
85	108
86	7
99	9
113	999
114	89
115	9
129	1
144	7
