Mass Spectrum: Butanol, 1-dimethylphosphonato)-
Formula: C6H15O4P
CAS: 23054-81-1
Molecular weight: 182
m/z	intensity
14	31
15	176
26	18
27	211
29	233
30	29
31	112
33	26
38	14
39	91
41	133
42	20
43	162
44	101
45	26
47	148
48	25
49	32
52	6
53	18
55	82
57	41
63	23
65	36
71	11
72	35
73	13
77	17
79	448
80	400
81	11
93	40
95	161
96	6
107	4
110	999
111	124
112	9
127	14
138	4
139	13
140	22
141	4
153	20
154	4
