Mass Spectrum: Hexanoic acid, 3-hydroxy-, ethyl ester
Formula: C8H16O3
CAS: 2305-25-1
Molecular weight: 160
m/z	intensity
25	4
26	43
27	480
28	67
29	636
30	15
31	199
32	2
37	4
38	6
39	115
40	10
41	277
42	201
43	886
44	174
45	213
46	12
47	79
48	4
49	1
50	1
51	6
52	4
53	21
54	11
55	466
56	29
57	46
58	48
60	401
61	172
62	9
63	6
65	6
67	18
68	67
69	127
70	109
71	999
72	57
73	230
74	12
75	154
77	5
79	3
80	1
81	7
82	6
85	11
86	15
87	5
88	357
89	426
90	5
91	7
93	2
95	3
96	9
97	185
98	7
99	28
102	2
103	2
104	4
105	5
106	4
107	6
109	4
113	44
114	18
115	65
116	3
117	736
118	28
125	3
126	3
128	4
129	7
131	17
132	6
135	4
136	3
142	13
