Mass Spectrum: Pentanoic acid, heptadecyl ester
Formula: C22H44O2
CAS: 230646-75-0
Molecular weight: 340
m/z	intensity
25	5
26	34
27	80
28	4
29	180
30	4
31	4
36	22
37	4
38	15
39	69
40	26
41	356
42	102
43	458
44	40
45	11
50	6
51	7
52	6
53	22
54	69
55	404
56	229
57	663
58	29
59	7
60	54
61	32
65	5
66	8
67	80
68	102
69	311
70	191
71	205
72	10
73	59
74	5
75	12
77	8
78	7
79	13
80	10
81	47
82	146
83	334
84	133
85	413
86	23
87	8
91	8
93	5
95	26
96	83
97	278
98	78
99	25
100	6
101	16
102	116
103	999
104	51
105	6
109	9
110	26
111	138
112	52
113	15
115	6
116	24
117	3
119	3
123	4
124	14
125	63
126	34
127	9
129	5
130	4
133	11
135	5
138	9
139	23
140	22
141	5
143	4
147	4
152	5
153	12
154	15
155	4
158	8
166	4
167	7
168	10
169	3
177	5
181	4
182	8
191	16
192	4
193	10
196	4
210	29
211	5
238	37
239	8
267	5
282	6
283	18
284	3
