Mass Spectrum: Spiro[cyclopentane-1,3'-[3H]indole], 2'-methyl-
Formula: C13H15N
CAS: 23077-27-2
Molecular weight: 185
m/z	intensity
77	350
78	999
79	150
91	190
102	90
115	250
128	140
129	150
130	90
143	170
144	130
156	130
157	170
170	340
185	400
