Mass Spectrum: 2-Benzyloxy-3-allyl-5-t-butylbiphenyl
Formula: C26H28O
CAS: 23079-46-1
Molecular weight: 356
m/z	intensity
41	119
42	4
43	19
44	1
47	4
48	2
49	2
50	2
51	2
52	3
53	8
55	15
56	0
57	999
58	44
59	0
62	0
63	9
64	2
65	62
66	3
67	6
69	5
70	1
71	2
75	2
76	3
77	30
78	5
79	9
80	0
81	5
82	2
83	5
84	3
85	2
86	1
87	1
88	6
89	11
90	5
91	829
92	59
93	4
94	0
95	3
96	1
97	3
101	2
102	6
103	12
104	2
105	16
106	1
107	2
109	1
111	2
113	2
114	1
115	32
116	6
117	8
118	0
119	2
125	1
126	3
127	8
128	17
129	15
130	4
131	11
132	1
133	1
135	0
139	7
140	1
141	11
142	3
143	3
144	0
145	2
150	1
151	5
152	17
153	10
154	3
155	4
156	1
157	1
163	2
164	2
165	48
166	22
167	10
168	24
169	6
170	0
173	1
176	4
177	5
178	30
179	20
180	8
181	55
182	9
183	6
184	1
189	11
190	7
191	21
192	12
193	7
194	8
195	11
196	5
197	2
202	10
203	7
204	3
205	6
206	4
207	17
208	12
209	55
210	8
211	3
215	4
216	2
217	2
218	2
219	3
220	4
221	28
222	7
223	8
224	3
225	1
226	0
233	2
234	1
235	16
236	3
237	3
239	15
240	2
249	20
250	5
251	3
252	1
257	1
258	2
263	3
264	6
265	16
266	4
299	7
300	5
301	4
341	210
342	53
343	6
356	165
357	40
358	6
