Mass Spectrum: 3-Isoxazolecarboxamide, 5-phenyl-
Formula: C10H8N2O2
CAS: 23088-52-0
Molecular weight: 188
m/z	intensity
44	999
45	40
51	500
52	30
63	150
64	20
77	700
78	70
105	670
106	70
145	200
146	20
188	190
189	20
