Mass Spectrum: 3,7-Dithiabicyclo[7.3.1]trideca-1(13),9,11-triene
Formula: C11H14S2
CAS: 23088-83-7
Molecular weight: 210
m/z	intensity
103	140
104	999
105	120
135	90
136	50
149	70
210	570
211	90
212	50
