Mass Spectrum: Methyl 3,4-di-O-acetyl-2,6-di-O-methyl-.alpha.-D-mannopyranoside
Formula: C13H22O8
CAS: 23089-68-1
Molecular weight: 306
m/z	intensity
41	52
42	26
43	999
44	33
45	289
47	8
53	25
57	36
58	44
59	70
61	27
69	64
70	169
71	129
73	44
74	999
75	159
81	94
82	19
83	25
84	67
85	299
86	19
87	439
88	99
89	39
94	28
95	24
97	45
98	19
99	109
100	109
101	58
102	23
103	70
109	24
111	82
112	289
113	409
114	35
115	52
116	449
117	82
126	19
127	169
128	27
129	399
130	36
131	10
141	42
142	64
143	61
144	82
145	38
155	139
156	11
159	13
170	9
172	42
173	21
186	64
187	88
188	7
189	19
201	9
203	23
204	4
215	11
261	1
275	25
276	5
