Mass Spectrum: Butanoic acid, 1,1-dimethylethyl ester
Formula: C8H16O2
CAS: 2308-38-5
Molecular weight: 144
m/z	intensity
25	0
26	13
27	146
28	38
29	175
30	3
31	20
33	0
36	0
37	3
38	9
39	150
40	25
41	496
42	72
43	478
44	15
45	9
47	0
48	0
49	1
50	3
51	5
52	0
53	9
54	1
55	34
56	186
57	999
58	40
59	33
60	17
61	0
63	0
64	0
66	1
67	0
68	0
69	1
71	655
72	23
73	9
74	1
76	0
78	0
79	0
80	0
82	0
83	0
84	0
85	0
87	1
88	5
89	92
90	5
91	0
92	0
94	0
98	0
100	0
101	0
106	0
109	0
110	0
119	0
124	0
129	26
130	3
131	0
132	0
134	0
136	0
143	0
144	0
146	0
