Mass Spectrum: 1-Benzyl-2-hydroxymethyl-cis-3-(p-methoxyphenylcarbamoyl)aziridine
Formula: C18H20N2O3
CAS: 23112-05-2
Molecular weight: 312
m/z	intensity
14	1
15	5
16	1
17	14
18	9
25	1
26	12
27	32
28	97
29	14
30	13
31	3
37	2
38	7
39	32
40	8
41	22
42	21
43	11
44	15
45	4
46	1
47	1
49	1
50	17
51	33
52	26
53	22
54	58
55	13
56	6
57	4
58	2
59	1
60	3
61	6
62	6
63	24
64	18
65	90
66	8
67	6
68	6
69	3
70	57
71	5
72	9
73	1
74	6
75	9
76	17
77	60
78	30
79	36
80	37
81	5
82	3
83	2
84	2
85	10
86	3
87	2
88	1
89	21
90	24
91	999
92	122
93	13
94	4
95	21
96	1
97	2
98	7
99	2
100	2
101	4
102	9
103	36
104	35
105	29
106	121
107	60
108	193
109	21
110	2
111	1
114	1
115	8
116	9
117	22
118	20
119	9
120	37
121	14
122	56
123	436
124	133
125	10
126	3
127	10
128	9
129	6
130	32
131	11
132	37
133	37
134	78
135	19
136	31
137	8
138	1
140	1
141	2
142	2
143	7
144	41
145	25
146	27
147	14
148	34
149	68
150	45
151	7
152	28
153	4
154	5
155	5
156	2
157	2
158	67
159	13
160	40
161	17
162	220
163	34
164	13
165	7
166	10
167	2
168	1
169	1
170	1
171	1
172	5
173	22
174	32
175	45
176	30
177	6
178	7
179	6
180	4
181	1
182	3
185	2
186	1
187	3
188	3
189	72
190	27
191	36
192	5
193	6
194	1
196	2
197	3
198	1
200	3
201	1
202	18
203	36
204	8
205	9
206	2
207	213
208	33
209	6
210	4
211	2
212	14
213	3
214	1
215	1
217	2
221	104
222	13
223	2
224	2
225	2
226	5
227	1
233	1
234	5
235	1
236	6
237	2
249	1
250	2
251	6
252	3
253	5
254	2
263	2
264	1
265	12
266	4
267	3
268	2
269	1
276	3
278	3
279	11
280	4
281	104
282	21
283	9
284	2
292	6
293	7
294	84
295	18
296	3
310	4
311	1
312	177
313	39
314	5
