Mass Spectrum: Butanoic acid, 2,3-dimethyl-2-(1-methylethyl)-
Formula: C9H18O2
CAS: 23119-04-2
Molecular weight: 158
m/z	intensity
26	3
27	107
28	16
29	80
30	1
31	10
36	0
37	1
38	2
39	84
40	11
41	235
42	20
43	135
44	5
45	58
46	2
47	1
48	0
49	0
50	2
51	7
52	3
53	30
54	10
55	118
56	14
57	219
58	11
59	79
60	3
61	0
62	0
63	2
64	1
65	4
66	1
67	15
68	4
69	35
70	4
71	24
72	2
73	35
74	6
75	0
77	2
78	1
79	3
80	0
81	3
82	7
83	76
84	6
85	13
86	3
87	84
88	4
89	0
91	0
93	0
94	0
95	0
96	3
97	14
98	22
99	7
101	999
102	180
103	10
104	1
105	0
106	0
107	0
108	0
109	0
110	1
111	0
112	2
113	18
114	2
115	39
116	454
117	32
118	4
119	0
143	5
144	0
157	1
158	0
159	0
