Mass Spectrum: Oxetane, 2,2,4-trimethyl-
Formula: C6H12O
CAS: 23120-44-7
Molecular weight: 100
m/z	intensity
26	27
27	84
28	69
29	102
30	19
31	46
38	20
39	139
40	75
41	500
42	392
43	999
44	58
45	84
50	27
53	27
55	69
56	683
57	173
58	42
59	791
60	40
85	81
100	34
