Mass Spectrum: Oxetane, 2,2,3-trimethyl-
Formula: C6H12O
CAS: 23120-43-6
Molecular weight: 100
m/z	intensity
17	16
18	75
26	22
27	141
28	33
29	107
30	52
31	75
32	3
37	11
38	24
39	230
40	67
41	509
42	584
43	660
44	13
50	15
51	22
52	7
53	64
54	30
55	566
56	39
57	16
58	49
59	999
60	39
67	77
68	16
69	115
70	296
71	20
81	11
82	39
85	41
100	15
