Mass Spectrum: Pentanamide, 4-oxo-N-phenyl-
Formula: C11H13NO2
CAS: 23132-35-6
Molecular weight: 191
m/z	intensity
14	9
15	22
16	18
17	2
18	8
19	15
25	15
26	24
27	27
28	15
37	4
38	9
39	31
40	6
41	22
42	15
43	186
44	13
45	6
50	13
51	33
52	6
53	6
54	6
55	42
56	11
57	29
60	18
61	11
62	2
63	11
64	9
65	47
66	31
67	6
68	9
69	24
70	9
71	65
73	18
74	4
75	4
76	9
77	53
78	18
79	13
81	15
82	9
83	18
84	9
85	6
87	6
88	6
91	15
92	33
93	999
94	85
95	6
96	6
97	11
98	9
99	218
100	18
101	4
109	4
110	4
111	9
112	13
113	6
115	6
117	13
118	20
119	9
120	18
121	6
129	11
130	15
131	6
132	9
133	9
135	9
136	13
143	4
144	20
145	6
148	18
149	13
171	11
172	18
173	44
174	13
176	13
191	200
192	31
