Mass Spectrum: 6-Methoxy-2-methyl-4-pyrimidinamine
Formula: C6H9N3O
CAS: 23132-67-4
Molecular weight: 139
m/z	intensity
27	69
29	46
30	32
40	55
41	196
42	494
43	374
45	42
54	35
55	61
56	86
57	80
66	75
67	210
68	999
69	144
70	39
82	61
109	182
110	124
138	152
139	757
140	66
