Mass Spectrum: Butenamide, N,N-dimethyl-
Formula: C6H11NO
CAS: 23135-18-4
Molecular weight: 113
m/z	intensity
38	20
39	227
40	60
41	563
42	164
43	27
44	256
45	116
46	7
49	17
53	9
55	13
56	11
58	17
68	61
69	999
70	85
71	3
72	149
73	11
86	53
98	493
99	34
112	12
113	214
114	14
