Mass Spectrum: 2-Pyrrolidinone, 5-hydroxy-1-methyl-5-phenyl-
Formula: C11H13NO2
CAS: 23132-30-1
Molecular weight: 191
m/z	intensity
33	34
36	0
39	125
42	146
44	65
45	4
51	414
52	39
53	25
55	241
56	57
58	341
60	2
61	5
62	24
63	18
65	49
66	23
68	61
69	12
70	14
71	5
73	20
74	26
77	541
78	723
79	43
81	16
82	11
84	11
86	197
87	12
88	14
89	16
91	81
92	12
93	1
96	1
99	0
101	4
103	52
105	999
106	54
107	10
112	7
114	953
116	39
118	105
119	11
120	10
127	0
130	4
131	10
133	197
134	102
136	108
144	10
145	4
146	4
148	1
160	14
161	61
162	22
163	15
164	1
172	4
174	175
175	12
191	450
192	38
