Mass Spectrum: 3,5-Dimethyl-4-benzylpyrazole
Formula: C12H14N2
CAS: 23147-77-5
Molecular weight: 186
m/z	intensity
26	24
27	83
28	230
29	18
30	14
38	23
39	171
40	52
41	110
42	434
43	20
50	62
51	167
52	113
53	41
54	14
62	23
63	79
64	27
65	126
66	42
67	28
68	115
69	10
73	14
74	23
75	33
76	39
77	158
78	53
79	19
80	24
85	16
89	45
90	16
91	158
92	42
93	33
95	32
101	16
102	64
103	95
104	22
107	16
108	119
109	999
110	79
115	119
116	33
117	24
127	37
128	68
129	37
130	61
131	11
140	10
141	39
142	31
143	31
144	216
145	54
154	12
155	15
156	13
168	17
169	23
170	14
171	622
172	85
183	16
184	10
185	343
186	901
187	126
