Mass Spectrum: Carbonotrithioic acid, diethyl ester
Formula: C5H10S3
CAS: 2314-49-0
Molecular weight: 166
m/z	intensity
29	999
45	97
46	43
47	56
61	120
62	45
66	29
75	6
76	148
77	249
94	14
105	204
110	6
122	19
137	5
138	24
166	147
