Mass Spectrum: Di-tert-butyl carbonotrithioate
Formula: C9H18S3
CAS: 2314-52-5
Molecular weight: 222
m/z	intensity
39	273
41	999
47	21
55	143
56	287
57	928
61	28
75	24
76	588
90	97
110	17
133	8
165	10
166	17
222	27
