Mass Spectrum: Pyrazole, 1-phenylmethyl-3,4,5-trimethyl-
Formula: C13H16N2
CAS: 23147-78-6
Molecular weight: 200
m/z	intensity
26	18
27	92
28	76
29	24
38	16
39	185
40	42
41	111
42	119
43	14
50	28
51	85
52	36
53	54
54	24
55	33
56	20
62	12
63	61
64	23
65	298
66	44
67	22
68	27
69	16
76	12
77	66
78	24
79	25
80	16
81	13
82	20
89	66
90	34
91	999
92	108
93	14
95	100
96	16
103	17
104	41
108	15
109	417
110	36
115	27
116	18
117	20
118	14
122	11
123	215
124	19
128	10
130	24
142	12
143	20
144	49
145	14
156	11
157	11
158	31
168	10
169	10
170	14
171	115
172	20
183	14
184	23
185	643
186	222
187	27
198	16
199	584
200	536
201	81
202	6
