Mass Spectrum: Diisopropyl carbonotrithioate
Formula: C7H14S3
CAS: 2314-51-4
Molecular weight: 194
m/z	intensity
27	783
39	710
41	942
42	594
43	999
45	434
47	355
59	326
61	370
66	16
75	587
76	725
77	158
103	35
108	18
110	149
119	96
150	38
151	69
152	66
194	149
