Mass Spectrum: Pyrazole, 4-phenylmethyl-1,3,5-trimethyl-
Formula: C13H16N2
CAS: 23147-79-7
Molecular weight: 200
m/z	intensity
27	52
28	56
29	28
30	14
38	11
39	104
40	32
41	54
42	137
43	25
50	35
51	110
52	33
53	37
54	24
55	36
56	388
57	17
63	44
64	17
65	75
66	62
67	15
68	10
74	12
75	17
76	24
77	95
78	38
79	12
80	21
81	25
82	38
87	13
89	27
90	10
91	93
92	26
100	41
102	37
103	30
109	38
110	3
115	75
116	22
117	13
122	45
123	999
124	89
127	30
128	47
129	33
141	23
142	22
143	20
144	50
156	10
158	55
168	10
169	15
170	11
182	17
183	20
184	10
185	630
186	91
199	297
200	740
201	114
202	8
