Mass Spectrum: Carbonotrithioic acid, diphenyl ester
Formula: C13H10S3
CAS: 2314-54-7
Molecular weight: 262
m/z	intensity
16	10
17	50
18	170
26	10
27	20
38	10
39	90
41	10
43	10
44	90
45	40
50	50
51	230
52	20
55	10
57	10
58	10
62	10
63	20
65	80
66	60
67	10
69	60
74	20
75	20
76	100
77	999
78	110
79	10
81	10
82	20
83	10
84	30
108	30
109	130
110	160
111	30
121	20
131	10
152	10
153	999
154	100
155	100
156	10
184	30
185	40
186	60
187	10
262	200
263	30
264	40
