Mass Spectrum: 2H-1,4-Benzoxazin-3(4H)-one, 4-(.beta.-D-glucopyranosyloxy)-2-hydroxy-7-methoxy-
Formula: C15H19NO10
CAS: 23140-98-9
Molecular weight: 373
m/z	intensity
15	25
16	97
17	586
27	28
28	999
29	79
30	25
31	133
32	36
41	36
42	36
44	744
45	118
46	122
55	50
56	50
57	169
60	151
61	82
69	50
72	28
73	237
74	61
79	25
80	36
85	36
102	28
103	61
106	125
109	46
121	36
124	28
125	28
134	79
140	36
149	143
150	194
165	384
166	107
179	25
295	100
357	25
