Mass Spectrum: Acetyl methyl carbinol dimer
Formula: C8H16O4
CAS: 23147-57-1
Molecular weight: 176
m/z	intensity
26	14
27	83
28	24
29	36
30	2
31	13
32	1
38	1
39	12
40	1
41	21
42	23
43	999
44	33
45	416
46	9
47	0
50	1
51	1
52	0
53	10
54	11
55	14
56	6
57	130
58	4
59	4
60	1
61	26
69	2
70	4
71	210
72	467
73	31
74	2
86	2
87	8
88	48
89	229
90	10
91	1
99	1
113	1
114	10
115	3
116	3
131	124
132	11
133	2
141	3
159	14
160	1
