Mass Spectrum: 1,4-Dioxaspiro[4.4]nonane, 6-methylene-
Formula: C8H12O2
CAS: 23153-75-5
Molecular weight: 140
m/z	intensity
27	100
28	100
29	50
39	170
40	210
42	70
43	50
53	70
54	50
55	280
67	120
68	310
99	390
112	999
113	70
139	160
140	520
