Mass Spectrum: Acetamide, 2-chloro-N,N-diethyl-
Formula: C6H12ClNO
CAS: 2315-36-8
Molecular weight: 149
m/z	intensity
13	1
14	11
15	49
16	1
17	1
18	22
26	17
27	129
28	93
29	307
30	143
31	2
32	4
35	1
36	6
37	1
38	2
39	7
40	9
41	33
42	136
43	34
44	182
45	5
47	1
48	4
49	72
50	2
51	22
52	3
54	9
55	7
56	68
57	16
58	999
59	36
64	2
68	5
69	4
70	12
71	17
72	428
73	16
74	1
76	5
77	65
78	4
79	21
82	1
84	1
85	2
86	11
87	1
88	1
92	4
94	1
98	1
100	203
101	11
106	47
107	2
108	16
112	1
113	2
114	540
115	40
116	2
120	7
121	7
122	3
123	2
134	128
135	7
136	41
137	2
148	3
149	107
150	9
151	34
152	3
