Mass Spectrum: 3,6,9,12-Tetraoxatetradecan-1-ol, 14-[4-(1,1,3,3-tetramethylbutyl)phenoxy]-
Formula: C24H42O6
CAS: 2315-64-2
Molecular weight: 426
m/z	intensity
39	32
40	16
41	169
42	48
43	201
44	72
45	725
46	8
50	8
51	8
52	8
53	32
54	24
55	290
56	96
57	806
58	120
59	629
60	56
61	24
63	32
64	8
65	56
66	16
67	153
68	32
69	354
70	88
71	225
72	72
73	354
74	40
75	80
76	32
77	153
78	48
79	104
80	24
81	137
82	48
83	120
84	120
85	161
86	56
87	411
88	40
89	999
90	88
91	516
92	72
93	64
94	48
95	120
96	64
97	96
98	64
99	354
100	72
101	72
102	40
103	266
104	64
105	185
106	96
107	250
108	40
109	80
110	32
111	80
112	177
113	717
114	72
115	177
116	48
117	435
118	153
119	153
120	56
121	233
122	40
123	24
124	24
125	32
126	32
127	112
128	40
129	88
130	16
131	96
132	24
133	483
134	338
135	620
136	56
137	24
138	16
139	32
141	24
142	24
143	32
145	40
146	16
147	145
148	80
149	274
150	32
151	32
153	16
155	32
156	8
157	16
159	32
160	32
161	556
162	72
163	80
164	8
165	32
168	8
169	16
171	16
173	24
175	104
176	8
177	80
178	16
179	48
180	16
184	24
185	24
187	32
189	16
190	8
191	32
193	32
197	16
201	8
205	129
206	32
207	209
208	40
209	32
210	24
213	8
217	16
219	16
221	48
222	8
223	80
231	8
233	24
237	8
239	8
241	8
249	48
265	16
267	145
268	24
269	16
277	24
281	80
282	16
293	8
295	16
311	387
312	64
325	56
339	16
353	16
355	870
356	177
357	32
372	8
379	104
380	24
426	16
