Mass Spectrum: 4-(2-phenylcyclohex-4-enyl)-4-hydroxybutan-2-one
Formula: C16H20O2
CAS: 2316-86-1
Molecular weight: 244
m/z	intensity
41	100
42	60
43	999
51	155
52	50
53	60
55	65
57	65
58	130
63	60
65	130
66	50
77	270
78	160
79	180
80	60
87	60
89	50
91	690
92	80
95	60
102	60
103	130
104	350
105	130
115	270
116	70
117	155
120	100
127	85
128	220
129	230
130	90
131	320
132	130
139	65
141	135
142	60
143	130
153	90
154	60
155	220
156	125
157	90
158	50
167	130
168	360
169	85
179	80
183	70
186	180
187	20
208	70
209	10
244	70
245	12
246	1
