Mass Spectrum: Phosphonothioic acid, 1-aziridinyl-, O,O-dimethyl ester
Formula: C4H10NO2PS
CAS: 23165-77-7
Molecular weight: 167
m/z	intensity
41	2
42	272
43	3
44	999
45	302
47	537
48	91
49	69
50	4
51	9
54	20
55	10
56	103
57	81
58	113
59	70
60	52
61	80
62	171
63	94
64	8
65	35
66	17
68	2
69	13
70	11
71	13
73	19
74	57
75	231
76	21
77	23
78	31
79	118
81	50
82	60
83	6
84	5
85	2
86	11
88	26
89	6
90	23
91	49
93	107
95	55
96	76
97	5
99	7
101	3
102	12
103	20
104	30
105	21
106	12
108	24
109	23
110	15
111	13
112	6
113	9
116	8
117	2
118	5
120	11
122	25
125	595
126	65
127	43
134	2
135	8
136	10
138	26
151	5
152	89
153	9
166	25
167	438
168	172
169	38
170	4
