Mass Spectrum: Phenol, 2-bromo-4,6-dinitro-
Formula: C6H3BrN2O5
CAS: 2316-50-9
Molecular weight: 262
m/z	intensity
25	9
26	17
27	45
28	83
29	67
30	578
31	83
36	7
37	69
38	50
39	68
40	14
41	126
42	25
43	138
44	29
45	48
46	17
47	2
48	6
49	45
50	205
51	156
52	61
53	476
54	44
55	114
56	49
57	179
58	8
59	4
60	45
61	319
62	999
63	331
64	85
65	32
66	35
67	38
69	26
70	81
71	29
72	74
73	4
74	27
75	28
76	36
77	53
78	43
79	50
80	89
81	28
82	33
83	17
84	48
85	14
86	40
87	3
88	5
89	3
90	158
91	444
92	36
93	15
94	12
95	27
96	13
97	35
98	9
99	12
100	2
101	1
103	1
104	6
105	24
106	7
107	17
108	6
109	15
110	6
111	21
112	6
113	8
114	1
115	6
116	14
117	10
118	14
119	9
120	11
121	7
122	5
123	12
124	4
125	9
126	4
127	5
128	2
129	21
130	9
131	37
132	9
133	19
134	2
135	6
136	4
137	6
138	3
139	5
140	8
141	61
142	17
143	61
144	9
145	4
151	11
152	3
153	3
154	2
155	5
156	2
157	56
158	20
159	53
160	19
161	2
163	2
165	3
166	3
167	3
168	4
169	151
170	102
171	172
172	108
173	21
174	10
175	2
176	6
177	2
178	2
179	2
180	1
181	1
183	1
184	2
185	152
186	34
187	154
188	31
189	4
190	1
191	2
192	1
193	6
194	1
195	1
198	1
199	15
200	4
201	16
202	6
215	1
216	11
217	2
218	12
219	1
232	130
233	10
234	127
235	9
245	5
246	16
247	5
248	16
249	2
262	634
263	43
264	620
265	41
266	7
