Mass Spectrum: 3-Cyclohexene-1-methanol, .alpha.,4-dimethyl-.alpha.-(4-methyl-3-pentenyl)-, [R-(R*,R*)]-
Formula: C15H26O
CAS: 23178-88-3
Molecular weight: 222
m/z	intensity
41	340
43	400
53	60
55	110
57	70
67	220
68	120
69	999
70	60
71	180
77	110
79	180
80	70
81	270
82	130
91	160
92	60
93	270
94	110
95	210
105	150
107	180
109	300
110	40
119	290
120	50
121	150
122	40
123	50
133	70
134	50
135	160
136	50
161	120
189	20
204	120
222	5
