Mass Spectrum: 1,3-Propanediamine, N,N'-dihexyl-
Formula: C15H34N2
CAS: 23178-21-4
Molecular weight: 242
m/z	intensity
27	126
28	117
29	189
30	344
31	8
32	4
39	33
41	201
42	218
43	369
44	424
45	25
50	52
53	16
54	8
55	189
56	176
57	294
58	365
59	33
67	12
68	58
69	16
70	957
71	327
72	453
73	12
82	33
83	12
84	529
85	180
86	54
87	33
96	12
98	373
99	67
100	222
101	84
102	75
112	638
113	111
114	999
115	168
116	25
126	252
127	33
128	529
129	88
140	65
141	232
142	75
143	21
144	10
149	12
157	8
169	25
170	12
171	252
172	29
199	8
213	2
227	8
241	8
242	100
243	16
