Mass Spectrum: Ethanone, 1-(2-methoxy-1H-inden-3-yl)-
Formula: C12H12O2
CAS: 23194-50-5
Molecular weight: 188
m/z	intensity
43	999
44	20
50	35
51	64
52	18
101	35
102	268
103	158
104	15
113	16
114	21
115	141
116	35
117	102
118	10
127	21
128	31
129	25
130	80
131	169
132	22
145	337
146	474
147	44
173	344
174	40
175	1
188	917
189	117
190	7
