Mass Spectrum: (1R,2S)-(-)-2-Amino-1,2-diphenylethanol
Formula: C14H15NO
CAS: 23190-16-1
Molecular weight: 213
m/z	intensity
27	2
28	30
29	3
30	1
39	5
50	2
51	12
52	4
53	3
63	2
65	2
76	2
77	80
78	15
79	194
80	12
89	3
90	2
91	4
104	23
105	13
106	999
107	95
108	4
118	1
152	2
165	3
166	1
167	1
178	1
179	1
180	1
194	1
195	1
196	1
197	1
213	2
214	1
