Mass Spectrum: Borazine, 1,3-dimethyl-
Formula: C2H10B3N3
CAS: 23208-28-8
Molecular weight: 109
m/z	intensity
36	60
37	260
38	460
39	110
40	250
41	10
42	20
43	30
44	10
49	10
50	30
51	100
52	150
53	115
54	80
58	30
59	20
60	65
61	40
62	80
63	100
64	70
65	130
66	130
67	230
68	10
75	10
76	30
77	40
78	60
79	90
80	120
81	230
90	30
91	25
92	35
93	25
94	35
95	10
104	10
105	50
106	240
107	820
108	999
109	350
110	10
