Mass Spectrum: Borazine, 2,4-dimethyl-
Formula: C2H10B3N3
CAS: 23208-27-7
Molecular weight: 109
m/z	intensity
35	10
36	20
37	100
38	140
39	50
40	60
41	40
42	40
45	10
46	65
47	20
48	10
49	20
50	60
51	130
52	180
53	130
54	20
55	15
60	10
61	20
62	25
63	25
64	20
65	160
66	430
67	550
68	20
74	10
75	50
76	110
77	140
78	45
79	20
80	20
81	20
88	20
89	30
90	60
91	100
92	240
93	760
94	999
95	30
105	10
106	20
107	140
108	340
109	360
110	10
