Mass Spectrum: Imidazolidine, 2-(4-methoxyphenyl)-1,3-dimethyl-
Formula: C12H18N2O
CAS: 23229-39-2
Molecular weight: 206
m/z	intensity
42	200
56	50
99	999
100	70
107	13
121	143
122	10
148	128
149	10
162	724
163	70
191	40
205	618
206	180
207	21
