Mass Spectrum: Benzamide, N-(.beta.-cyanostyryl)-
Formula: C16H12N2O
CAS: 23228-06-0
Molecular weight: 248
m/z	intensity
36	27
37	14
38	46
39	163
40	29
41	91
42	33
43	106
44	81
47	13
48	13
49	11
50	14
51	14
52	93
53	29
54	14
55	81
56	39
57	122
58	26
59	14
62	74
63	134
64	65
65	57
66	16
67	20
68	16
69	54
70	26
71	68
72	13
73	26
74	48
75	70
76	149
77	945
78	266
79	27
80	16
81	24
82	14
83	41
84	18
85	52
86	14
87	39
88	70
89	204
90	46
91	18
92	11
93	22
94	13
95	14
96	11
97	18
98	13
99	18
100	13
101	18
102	13
103	13
104	37
105	999
106	508
107	44
108	18
109	14
110	18
111	16
112	13
113	22
114	37
115	100
116	108
117	27
141	89
142	115
143	78
248	921
249	232
