Mass Spectrum: Imidazolidine, 1,3-dimethyl-2-(4-methylphenyl)-
Formula: C12H18N2
CAS: 23229-38-1
Molecular weight: 190
m/z	intensity
42	133
56	33
91	57
99	999
100	70
105	101
106	10
132	144
133	10
146	470
147	40
175	27
189	486
190	138
191	17
