Mass Spectrum: 1-Methyl-1-(3-methylbutyl)oxy-1-silacyclobutane
Formula: C9H20OSi
CAS: 232270-65-4
Molecular weight: 172
m/z	intensity
39	167
40	20
41	302
42	108
43	459
44	99
45	452
46	20
47	51
50	11
51	19
53	29
54	17
55	124
56	41
57	57
58	55
59	191
60	18
61	256
62	23
63	31
66	21
67	19
68	27
69	35
70	41
71	36
72	26
73	82
74	310
75	999
76	87
77	41
83	17
85	128
86	13
87	135
88	201
89	212
90	22
99	42
100	12
101	160
102	43
103	20
104	10
111	17
112	11
113	22
115	89
116	24
117	37
128	33
129	685
130	107
131	31
143	32
144	188
145	81
146	22
157	11
172	20
173	3
174	1
