Mass Spectrum: Imidazolidine, 1,3-dimethyl-2-phenyl-
Formula: C11H16N2
CAS: 23229-37-0
Molecular weight: 176
m/z	intensity
42	158
56	41
77	67
91	137
99	999
100	70
118	73
132	450
133	50
161	19
175	333
176	80
177	10
