Mass Spectrum: 2-Deoxy-2-fluoro-1,6-anhydro-.beta.-d-glucopyranose
Formula: C6H9FO4
CAS: 23235-99-6
Molecular weight: 164
m/z	intensity
26	70
27	282
29	489
30	49
31	245
33	65
38	20
39	91
40	22
41	96
42	170
43	300
44	193
45	147
46	33
47	370
49	34
50	15
51	40
52	10
53	52
54	18
55	356
56	999
57	533
58	32
59	61
60	400
61	104
62	130
63	47
65	10
67	13
68	10
69	63
70	86
71	37
72	340
73	68
74	356
75	41
76	20
81	24
82	13
83	14
84	12
85	47
87	14
88	12
89	267
90	14
91	19
93	13
95	13
97	50
98	50
99	19
100	28
101	65
102	296
103	24
105	10
115	19
118	30
119	9
144	12
147	19
