Mass Spectrum: Methacrylaldehyde, tert-butyl methyl acetal
Formula: C9H18O2
CAS: 23230-83-3
Molecular weight: 158
m/z	intensity
2	11
12	13
13	19
14	42
15	218
16	5
17	3
18	2
19	2
20	0
24	2
25	11
26	54
27	219
28	107
29	424
30	19
31	160
32	79
33	46
34	0
36	8
37	55
38	85
39	570
40	99
41	897
42	102
43	109
44	6
45	42
46	0
47	2
48	2
49	9
50	28
51	23
52	8
53	46
54	12
55	195
56	195
57	999
58	46
59	56
60	2
61	37
62	0
63	0
65	0
66	0
67	1
68	1
69	33
70	195
71	101
72	8
73	47
74	3
75	14
76	0
77	0
81	0
82	0
83	7
84	1
85	423
86	24
87	35
88	1
89	0
97	0
98	0
99	0
100	1
101	94
102	55
103	5
104	0
105	0
109	1
111	0
113	0
115	0
116	0
117	87
118	5
119	0
127	35
128	3
129	0
143	1
158	4
159	0
