Mass Spectrum: Furan, 2,5-dihydro-2,2,4-trimethyl-
Formula: C7H12O
CAS: 23230-79-7
Molecular weight: 112
m/z	intensity
12	2
13	5
14	20
15	160
16	7
17	8
18	30
19	0
20	0
24	0
25	2
26	32
27	216
28	43
29	101
30	7
31	14
32	0
33	0
36	0
37	16
38	40
39	316
40	39
41	435
42	52
43	730
44	18
45	7
46	1
47	1
48	0
50	29
51	46
52	18
53	6
54	11
55	129
56	12
57	11
58	1
59	46
60	2
61	3
62	8
63	16
64	3
65	25
66	9
67	73
68	8
69	71
70	18
71	3
72	2
73	0
74	2
75	2
76	0
77	19
78	3
79	43
80	3
81	17
82	16
83	40
84	2
85	0
86	0
87	0
89	1
90	1
96	7
97	999
98	66
111	4
112	3
113	0
