Mass Spectrum: Deprenyl
Formula: C13H17N
CAS: 2323-36-6
Molecular weight: 187
m/z	intensity
42	114
44	19
51	14
56	172
58	32
65	26
70	25
77	11
80	9
81	8
91	62
94	10
96	999
97	54
103	2
115	6
117	7
119	2
128	3
129	0
132	1
144	0
146	1
156	0
162	1
170	1
172	1
184	0
186	0
187	0
