Mass Spectrum: Propionic acid, 3-(allylthio)-, ethyl ester
Formula: C8H14O2S
CAS: 23246-24-4
Molecular weight: 174
m/z	intensity
26	70
27	400
28	280
29	980
31	80
39	460
41	999
42	90
43	140
45	640
46	150
47	200
55	200
57	160
61	450
63	90
67	90
71	100
72	500
73	730
74	300
75	90
85	200
87	960
88	80
89	140
91	120
100	230
101	310
102	90
105	110
128	200
129	300
133	440
174	640
175	80
