Mass Spectrum: 1-Propanol, 3,3'-diselenobis[2-methyl-
Formula: C8H18O2Se2
CAS: 23243-50-7
Molecular weight: 306
m/z	intensity
26	4
27	105
28	9
29	134
30	86
31	465
32	4
37	3
38	6
39	144
40	21
41	257
42	34
43	289
44	12
45	96
46	1
50	1
51	4
53	57
54	9
55	999
56	83
57	58
58	10
59	10
69	4
70	1
71	83
72	18
73	159
74	7
78	4
79	4
80	9
81	7
82	4
83	6
89	7
90	10
91	26
92	17
93	52
94	24
95	43
96	6
97	7
103	4
104	4
105	10
106	4
107	21
108	4
109	14
111	12
117	9
118	6
119	10
120	4
121	14
122	7
123	12
129	4
131	15
132	15
133	43
134	12
135	71
136	23
137	21
138	7
145	3
147	18
148	15
149	48
150	9
151	96
152	18
153	27
154	31
155	20
156	77
157	43
158	133
159	15
160	151
161	7
162	51
163	4
164	7
169	4
170	1
171	7
172	7
173	12
174	6
175	12
176	4
177	4
178	4
195	4
197	4
199	4
201	4
207	1
208	7
209	9
210	34
211	27
212	74
213	49
214	119
215	24
216	136
217	12
218	43
219	3
220	4
222	6
223	3
224	9
226	17
227	4
228	7
229	7
230	7
231	12
232	9
233	10
234	9
235	4
236	4
238	1
283	4
284	3
285	9
286	6
287	12
288	3
289	12
290	3
291	6
296	4
297	3
298	12
299	12
300	49
301	38
302	114
303	77
304	213
305	37
306	240
307	24
308	69
309	9
310	7
