Mass Spectrum: 17.beta.-Acetoxy-5.alpha.-androst-2-ene
Formula: C21H32O2
CAS: 2324-10-9
Molecular weight: 316
m/z	intensity
26	3
27	31
29	93
30	2
31	4
38	1
39	45
40	14
41	282
42	14
43	999
44	19
45	8
50	2
51	8
52	5
53	85
54	22
55	276
56	16
57	20
58	2
59	1
60	5
61	6
63	2
64	1
65	44
66	21
67	240
68	38
69	88
70	8
71	16
72	2
73	3
77	165
78	36
79	384
80	73
81	323
82	32
83	35
84	11
85	6
86	2
87	2
89	2
90	1
91	375
92	86
93	428
94	142
95	205
96	20
97	23
98	5
99	2
100	1
101	1
102	2
103	13
104	22
105	288
106	142
107	274
108	223
109	107
110	16
111	19
112	2
113	1
115	15
116	8
117	59
118	36
119	145
120	98
121	164
122	49
123	34
124	5
125	3
127	3
128	11
129	22
130	12
131	162
132	42
133	146
134	81
135	58
136	11
137	15
138	2
139	1
141	5
142	4
143	21
144	15
145	153
146	166
147	226
148	77
149	50
150	8
151	8
152	1
153	2
154	1
155	3
156	3
157	20
158	16
159	128
160	89
161	189
162	52
163	24
164	5
165	11
166	2
167	1
169	2
170	1
171	18
172	10
173	154
174	83
175	52
176	34
177	8
178	2
179	7
180	1
181	1
183	2
184	1
185	27
186	14
187	334
188	55
189	17
190	3
191	5
192	2
193	3
194	1
197	1
198	1
199	65
200	26
201	126
202	911
203	131
204	11
205	9
206	7
208	4
209	1
211	1
213	25
214	26
215	98
216	19
217	11
218	6
219	20
220	69
221	12
222	1
227	17
228	14
229	6
230	7
231	3
232	3
233	19
234	8
235	1
239	3
240	1
241	219
242	42
243	5
244	1
245	2
246	3
247	10
248	4
249	1
254	2
255	12
256	335
257	72
258	10
259	33
260	23
261	28
262	703
263	111
264	12
265	1
272	1
273	5
274	42
275	11
276	1
287	3
288	3
301	43
302	9
303	1
314	3
315	1
316	553
317	114
