Mass Spectrum: Propionic acid, 3-(isobutylthio)-
Formula: C7H14O2S
CAS: 23246-19-7
Molecular weight: 162
m/z	intensity
39	174
40	24
41	382
42	24
43	154
44	22
45	245
46	78
47	191
48	24
49	12
53	44
54	19
55	286
56	571
57	539
58	44
59	98
60	117
61	424
62	29
63	34
73	93
74	142
75	19
76	7
77	164
78	17
79	7
87	115
88	227
89	999
90	76
91	49
101	41
102	12
103	36
104	7
105	29
106	225
107	66
108	17
119	76
120	17
121	2
162	76
163	14
164	4
