Mass Spectrum: 1-Pentanol, 5,5'-diselenobis-, diacetate
Formula: C14H26O4Se2
CAS: 23243-52-9
Molecular weight: 418
m/z	intensity
27	18
28	5
29	28
31	10
39	26
40	3
41	233
42	20
43	460
44	16
45	8
53	13
54	3
55	46
56	3
57	11
61	51
65	5
66	3
67	83
68	21
69	999
70	50
71	3
73	13
85	26
87	96
88	6
91	5
92	3
93	11
94	8
95	10
104	3
105	6
106	3
107	10
108	5
109	5
119	3
121	3
129	50
130	3
131	1
132	1
133	11
134	1
135	15
136	10
137	5
143	3
144	1
145	26
146	21
147	60
148	16
149	106
150	26
151	23
152	6
156	3
157	1
158	8
160	8
162	3
163	3
165	6
167	1
223	3
224	6
225	8
226	15
227	13
228	23
229	10
230	26
231	5
232	10
277	5
279	6
314	3
316	3
338	3
351	1
352	1
353	11
354	6
355	26
356	15
357	43
358	6
359	46
360	6
361	13
372	3
374	3
376	3
410	1
411	1
412	10
413	5
414	26
415	16
416	45
417	11
418	48
419	8
420	15
421	3
