Mass Spectrum: Allylamine, 3-chloro-N-isopropyl-2-methyl-, (E)-
Formula: C7H14ClN
CAS: 23240-44-0
Molecular weight: 147
m/z	intensity
12	3
13	5
14	23
15	172
16	4
17	6
18	34
25	2
26	41
27	414
28	385
29	72
30	560
31	9
32	1
35	2
36	8
37	21
38	47
39	272
40	39
41	231
42	159
43	186
44	36
45	1
46	1
47	8
48	9
49	41
50	18
51	53
52	25
53	490
54	47
55	29
56	47
57	23
58	19
59	1
60	2
61	12
62	9
63	20
64	7
65	8
66	16
67	10
68	25
69	8
70	179
71	13
72	211
73	23
74	2
75	11
76	3
77	5
78	2
79	2
80	11
81	7
82	15
83	2
84	3
85	1
86	1
87	3
88	8
89	999
90	78
91	319
92	25
93	2
94	7
95	3
96	37
97	5
98	1
102	4
103	1
104	45
105	3
106	14
107	1
108	2
110	6
111	2
112	108
113	9
116	3
118	2
119	2
130	3
132	685
133	49
134	218
135	15
145	1
146	18
147	33
148	10
149	10
150	1
