Mass Spectrum: 3-Phenyl-4-methyl-isoxazol-5(4H)-one
Formula: C10H9NO2
CAS: 23244-37-3
Molecular weight: 175
m/z	intensity
37	19
38	39
39	177
40	19
41	60
42	49
43	51
44	50
45	40
51	279
52	69
53	19
54	19
55	49
56	80
57	30
58	19
61	19
62	39
63	109
64	40
65	61
74	49
75	50
76	109
77	247
78	50
89	50
91	217
92	20
102	49
103	120
104	139
105	39
106	19
115	328
116	89
117	999
118	110
119	39
130	90
131	30
132	30
133	19
146	19
175	370
176	50
