Mass Spectrum: Propionic acid, 3-(butylthio)-, methyl ester
Formula: C8H16O2S
CAS: 23246-22-2
Molecular weight: 176
m/z	intensity
27	610
28	320
29	640
39	210
41	530
43	110
45	760
46	200
47	260
54	100
55	600
56	250
57	250
58	100
59	580
60	390
61	640
73	60
74	100
77	130
87	400
88	999
89	740
90	80
101	120
103	210
116	300
117	160
119	300
120	500
133	220
145	230
176	999
177	100
178	50
