Mass Spectrum: 1-Butanol, 4,4'-diselenobis-
Formula: C8H18O2Se2
CAS: 23243-48-3
Molecular weight: 306
m/z	intensity
26	9
27	106
28	14
29	87
30	3
31	278
32	3
38	3
39	75
40	109
41	151
42	28
43	290
44	23
45	34
51	6
53	37
54	9
55	999
56	48
57	12
69	7
70	6
71	109
72	9
73	512
74	21
78	4
79	4
80	9
81	9
82	6
83	6
89	6
90	9
91	20
92	15
93	31
94	28
95	21
96	7
97	3
103	4
104	6
105	12
106	12
107	20
108	14
109	15
110	4
111	6
117	3
119	6
120	1
121	10
122	3
123	7
130	3
131	10
132	12
133	28
134	20
135	37
136	35
137	14
138	6
149	4
150	1
151	9
152	3
153	3
154	7
155	4
156	21
157	12
158	35
159	9
160	40
161	6
162	14
164	3
171	3
172	3
173	4
174	3
175	6
177	3
209	3
210	7
211	6
212	18
213	10
214	31
215	7
216	35
217	9
218	12
222	4
223	3
224	9
226	15
227	1
228	4
229	3
230	4
231	3
232	9
233	3
234	7
235	1
236	3
283	3
285	6
286	3
287	9
289	12
291	3
299	3
300	9
301	6
302	23
303	12
304	39
305	4
306	43
307	6
308	12
