Mass Spectrum: Allylamine, 3-chloro-N-isopropyl-2-methyl-, (Z)-
Formula: C7H14ClN
CAS: 23240-43-9
Molecular weight: 147
m/z	intensity
12	3
13	6
14	25
15	190
16	5
17	10
18	53
25	3
26	45
27	440
28	417
29	77
30	585
31	9
32	2
35	3
36	9
37	21
38	49
39	290
40	44
41	250
42	176
43	196
44	43
45	1
46	1
47	9
48	9
49	43
50	20
51	57
52	27
53	533
54	52
55	32
56	53
57	25
58	22
59	1
60	2
61	12
62	9
63	21
64	8
65	9
66	16
67	11
68	26
69	8
70	172
71	13
72	196
73	22
74	3
75	12
76	12
77	9
78	2
79	3
80	12
81	8
82	15
83	2
84	3
85	1
86	2
87	5
88	9
89	999
90	77
91	319
92	24
93	2
94	8
95	3
96	37
97	5
98	2
102	5
103	1
104	46
105	3
106	15
107	1
108	2
110	6
111	2
112	105
113	9
116	3
118	2
119	2
130	6
132	783
133	56
134	248
135	18
145	3
146	24
147	41
148	13
149	13
150	2
