Mass Spectrum: (5a.alpha.,9a.beta.,9b.beta.)-5,5a,6,7,8,9,9a,9b-octahydro-6,6,9a-trimethylnaphtho[1,2-c]furan-1-(3H)-one (drimenin)
Formula: C15H22O2
CAS: 2326-89-8
Molecular weight: 234
m/z	intensity
39	140
41	260
42	80
43	50
51	60
53	90
55	140
65	100
67	120
68	50
69	270
77	150
78	50
79	140
81	130
82	60
83	40
91	230
92	40
93	80
95	80
98	170
105	150
106	40
107	50
109	999
110	100
111	750
112	60
117	40
119	70
123	50
124	690
125	90
219	30
234	18
