Mass Spectrum: .beta.-D-Glucopyranoside, methyl 2,3,6-tri-O-methyl-
Formula: C10H20O6
CAS: 23262-64-8
Molecular weight: 236
m/z	intensity
41	88
42	76
45	403
55	56
57	100
58	92
59	64
71	161
73	213
74	100
75	774
85	153
87	121
88	999
89	60
99	52
101	149
102	12
105	24
111	100
113	121
115	121
121	193
122	100
144	72
149	96
159	100
161	927
162	52
173	28
