Mass Spectrum: (1R,2R,4S)-2-(6-Chloropyridin-3-yl)-7-methyl-7-azabicyclo[2.2.1]heptane
Formula: C12H15ClN2
CAS: 232615-84-8
Molecular weight: 222
m/z	intensity
51	15
53	8
54	14
55	29
56	13
57	13
62	5
63	13
64	5
65	11
67	26
73	6
74	4
75	11
76	10
77	22
78	10
79	8
80	15
82	534
83	999
84	61
85	6
88	2
89	10
90	10
91	6
92	2
94	5
95	2
96	6
97	4
98	2
99	7
101	6
102	12
103	7
104	18
105	2
112	4
114	4
115	9
116	11
117	13
118	4
124	2
126	11
127	4
128	7
129	3
130	8
131	4
139	10
145	5
146	1
151	7
152	11
153	9
154	5
155	4
157	7
158	5
159	1
166	4
168	2
178	3
187	1
193	32
194	10
195	12
196	3
222	50
223	6
224	17
225	2
