Mass Spectrum: 5-Phenyl-3-piperidin-1-ylmethyl-3H-[1,3,4]oxadiazole-2-thione
Formula: C14H17N3OS
CAS: 23269-66-1
Molecular weight: 275
m/z	intensity
33	0
34	1
37	1
38	3
39	23
40	22
41	74
42	81
43	22
44	37
45	4
46	0
49	0
50	12
51	24
52	5
53	5
54	8
55	57
56	22
57	8
58	1
59	1
60	4
61	3
62	3
63	12
64	4
65	2
66	0
67	4
68	6
69	25
70	33
71	2
72	2
73	0
74	2
75	4
76	16
77	58
78	5
79	1
80	1
81	1
82	4
83	7
84	18
85	6
86	0
88	0
89	6
90	3
91	10
92	1
93	0
94	1
95	1
96	22
98	999
99	67
100	1
102	1
103	23
104	23
105	28
106	2
109	0
110	1
111	0
112	1
117	0
118	19
119	4
120	3
121	2
131	8
132	1
138	1
139	6
140	0
145	0
146	3
154	0
164	2
178	18
179	1
180	0
275	3
