Mass Spectrum: .beta.-D-Ribofuranoside, phenylmethyl 2,3-O-(1-methylethylidene)-
Formula: C15H20O5
CAS: 23276-32-6
Molecular weight: 280
m/z	intensity
31	70
43	180
57	170
59	230
65	90
68	100
85	290
86	80
91	999
92	120
107	60
108	80
113	50
131	350
149	30
156	50
157	50
173	30
174	30
191	15
237	5
249	5
265	30
