Mass Spectrum: Hydantoin, 2-thio-1-(p-tolylsulfonyl)-
Formula: C10H10N2O3S2
CAS: 23286-28-4
Molecular weight: 270
m/z	intensity
33	6
34	3
35	0
36	1
37	4
38	19
39	195
40	28
41	66
42	27
43	19
44	16
45	95
46	19
47	8
48	11
49	4
50	45
51	80
52	20
53	20
54	10
55	115
56	10
57	5
58	24
59	78
60	76
61	14
62	36
63	123
64	43
65	439
66	27
67	13
68	2
69	16
70	8
71	15
72	139
73	11
74	17
75	11
76	12
77	53
78	29
79	26
80	7
81	4
82	6
83	8
84	5
85	6
86	44
87	10
88	17
89	103
90	48
91	999
92	126
93	10
94	2
95	4
96	3
97	4
98	3
99	1
100	1
101	0
102	0
103	1
104	4
105	88
106	18
107	19
108	14
109	4
110	3
111	6
112	1
113	0
114	3
116	53
117	11
118	76
119	338
120	63
121	22
122	14
123	30
124	87
125	9
126	5
127	0
128	0
129	0
130	2
131	5
132	1
133	0
134	10
135	73
136	10
137	7
138	1
139	36
140	7
141	3
142	0
143	0
144	1
145	27
146	3
147	0
148	6
149	16
150	17
151	3
152	0
153	0
154	3
155	34
156	24
157	3
158	1
159	0
160	0
161	0
162	1
163	5
164	4
165	0
166	1
167	0
171	0
172	0
173	8
174	0
175	0
177	92
178	11
179	6
180	0
184	1
185	0
186	0
187	0
190	0
191	1
202	0
205	696
206	651
207	102
208	33
209	4
210	0
212	0
214	4
215	0
237	0
270	4
271	0
272	0
