Mass Spectrum: N-Phenylglycine methyl ester
Formula: C9H11NO2
CAS: 23284-84-6
Molecular weight: 165
m/z	intensity
31	98
33	0
37	1
38	32
39	82
40	38
41	31
42	17
43	28
44	47
45	25
49	1
50	88
51	270
52	66
53	43
54	0
59	31
61	2
62	1
63	21
64	11
65	33
66	10
71	1
73	16
74	28
75	21
76	23
77	432
78	98
79	224
80	29
91	16
92	7
93	5
104	82
105	27
106	999
107	91
108	2
111	9
165	81
166	8
167	0
