Mass Spectrum: 3-Butyl-2-oxo-1,3-oxazolidine
Formula: C7H13NO2
CAS: 23288-01-9
Molecular weight: 143
m/z	intensity
14	1
15	17
26	9
27	64
28	105
29	107
30	29
31	3
37	1
38	3
39	33
40	8
41	87
42	68
43	34
44	24
45	3
50	1
51	2
52	2
53	5
54	19
55	26
56	864
57	59
58	3
59	1
68	4
69	2
70	19
71	2
72	1
73	3
74	4
82	1
84	18
85	2
86	15
87	18
88	83
89	3
98	2
99	1
100	999
101	224
102	14
103	1
113	2
114	32
115	5
126	1
128	252
129	17
130	1
142	4
143	105
144	9
