Mass Spectrum: Imidazolidine, 2-(4-chlorophenyl)-1,3-dimethyl-
Formula: C11H15ClN2
CAS: 23281-56-3
Molecular weight: 210
m/z	intensity
42	220
56	72
99	999
100	70
111	26
113	11
125	106
126	10
127	37
152	139
153	10
154	33
166	149
167	10
168	42
195	25
197	8
209	415
210	104
211	146
212	33
