Mass Spectrum: Aniline, N-cyclohexyloxycarbonyl-4-nitro-
Formula: C13H16N2O4
CAS: 23294-39-5
Molecular weight: 264
m/z	intensity
33	6
35	0
36	2
37	12
38	40
39	238
41	626
42	58
43	118
44	48
45	9
46	7
48	0
50	42
51	35
52	47
53	86
55	999
56	52
57	45
58	5
61	8
62	22
63	92
64	78
65	64
66	13
67	74
68	6
69	6
70	4
71	4
72	1
74	7
75	26
76	32
77	16
78	12
79	34
80	27
81	54
83	727
84	41
85	2
87	1
88	2
90	50
91	30
92	30
93	6
94	2
95	4
96	0
97	1
98	0
99	4
100	0
101	0
102	0
103	0
104	0
105	2
106	9
108	82
109	6
110	0
111	0
112	0
115	0
116	0
117	1
118	6
119	5
120	1
122	19
123	33
124	3
125	0
127	0
129	0
130	1
131	1
132	0
134	11
135	4
136	4
138	88
139	8
140	0
141	0
143	0
145	0
146	0
148	5
149	2
150	1
151	2
152	8
153	0
161	0
162	0
163	0
164	6
165	13
166	9
167	4
168	0
171	0
173	0
176	0
177	10
178	1
180	0
181	0
182	28
183	15
184	5
185	0
191	0
203	2
204	0
205	0
220	3
221	0
224	2
225	0
231	0
233	4
234	1
235	0
248	0
262	0
264	30
265	4
266	0
283	0
