Mass Spectrum: 3-Hexyn-2-ol, 5-methyl-
Formula: C7H12O
CAS: 23293-50-7
Molecular weight: 112
m/z	intensity
39	210
41	600
43	999
45	110
51	87
53	210
55	82
67	190
69	160
75	87
79	85
95	35
97	400
110	9
111	12
112	3
