Mass Spectrum: 2-[(5-Iodosalicylidene)hydrazino]-4-(4-nitroanilino)-6-piperidino-1,3,5-triazine
Formula: C21H21IN8O3
CAS: 232936-22-0
Molecular weight: 560
m/z	intensity
33	11
36	158
39	412
41	543
42	14
43	510
44	230
46	51
50	129
51	109
53	199
55	642
56	146
57	67
58	8
60	11
61	21
65	148
67	134
68	277
69	206
70	39
71	26
73	26
74	21
75	44
76	146
77	70
78	36
80	189
81	62
82	114
83	181
84	999
86	17
87	14
88	11
90	151
91	82
92	142
93	80
94	38
95	26
96	21
97	22
98	29
99	12
101	31
102	12
103	24
104	19
105	54
107	29
108	39
109	54
111	153
112	17
113	9
115	11
116	22
117	34
118	119
119	82
120	49
122	46
123	21
124	27
125	11
127	231
128	137
130	33
131	17
132	19
133	38
134	27
135	21
136	79
137	17
138	26
139	7
140	5
141	12
143	96
144	27
145	16
146	11
147	17
148	11
149	29
150	8
151	17
152	12
153	14
154	11
155	14
156	17
157	21
158	26
159	21
160	17
161	7
163	19
164	51
165	12
166	7
168	7
169	8
170	12
171	12
172	9
173	7
174	5
175	3
176	12
177	11
178	75
179	14
180	3
181	3
183	16
184	17
185	41
186	12
187	8
189	80
190	16
191	26
192	9
193	36
197	3
198	7
199	5
200	7
201	7
202	12
203	9
204	19
205	8
206	21
207	8
208	43
210	3
211	5
212	5
213	8
214	12
215	9
216	22
217	21
218	12
219	31
220	8
225	7
226	11
227	8
228	9
229	9
230	19
231	80
232	59
233	27
234	8
238	5
240	16
241	3
243	7
245	94
246	57
247	106
248	96
249	9
254	184
255	5
256	5
257	14
258	29
259	27
260	74
261	33
262	14
267	7
268	22
269	9
270	11
271	16
272	74
273	54
274	39
275	9
279	3
280	7
284	14
285	21
286	132
287	59
288	9
297	3
298	7
299	24
300	80
301	16
305	8
311	8
312	97
314	367
315	193
316	49
317	7
319	5
328	5
330	17
334	14
341	24
342	5
354	8
355	3
356	8
383	16
451	5
468	7
492	8
543	53
544	12
559	8
560	57
561	12
