Mass Spectrum: Cycloocta-1,3-dioxole, octahydro-2-phenyl-
Formula: C15H20O2
CAS: 23299-33-4
Molecular weight: 232
m/z	intensity
24	2
25	2
26	51
27	665
29	605
30	10
31	51
37	12
38	45
39	616
40	51
41	999
42	193
43	200
44	78
45	17
46	1
47	2
48	4
49	8
50	140
51	378
52	97
53	161
54	268
55	725
56	87
57	130
58	16
59	5
60	1
61	7
62	26
63	79
64	34
65	57
66	34
67	805
68	150
69	112
70	46
71	23
72	3
73	3
74	24
75	26
76	31
77	609
78	173
79	438
80	63
81	210
82	296
83	89
84	31
85	9
86	2
87	3
88	4
89	142
90	169
91	193
92	30
93	26
94	6
95	62
96	6
97	29
98	18
99	2
102	1
103	17
104	37
105	864
106	129
107	337
108	36
109	354
110	40
111	8
113	0
115	7
116	6
117	36
118	9
119	37
120	26
121	7
122	0
123	87
124	13
125	5
126	4
127	14
128	3
129	26
130	4
131	17
132	5
133	66
134	6
135	0
141	5
142	2
143	6
144	3
145	14
146	2
147	7
148	1
155	39
157	3
159	4
161	2
173	3
176	1
185	1
187	2
189	4
229	1
230	11
231	238
232	110
233	14
