Mass Spectrum: Ethylamine, 2-(2-phenylphenoxy)-
Formula: C14H15NO
CAS: 23314-13-8
Molecular weight: 213
m/z	intensity
33	2
38	4
39	58
40	19
41	30
42	71
43	94
44	999
45	25
50	25
51	44
52	10
53	5
55	18
56	5
57	7
58	3
59	0
60	1
62	25
63	54
64	10
65	17
66	3
67	1
68	3
69	5
70	6
71	2
74	26
75	26
76	28
77	31
78	6
79	1
80	3
81	1
82	2
83	1
84	3
85	2
86	10
87	16
88	11
89	27
90	5
91	14
92	1
94	1
95	0
97	0
98	30
99	5
100	2
101	7
102	17
103	4
104	0
106	1
107	1
108	3
109	11
110	2
111	5
112	3
113	15
114	18
115	124
116	11
117	0
118	2
120	0
122	0
124	0
125	3
126	19
127	17
128	11
129	7
130	1
131	2
135	12
137	1
138	3
139	63
140	16
141	85
142	29
143	3
144	1
150	18
151	46
152	105
153	34
154	17
155	28
156	4
157	1
163	0
165	32
166	9
167	11
168	41
169	159
170	356
171	50
172	1
177	1
179	0
181	33
182	18
183	15
184	23
185	3
195	1
196	0
210	0
211	4
213	177
214	20
215	1
