Mass Spectrum: Propanenitrile, 3-[1-(5-nitro-2-furyl)ethyliden]hydrazino-3-oxo-
Formula: C9H8N4O4
CAS: 23326-60-5
Molecular weight: 236
m/z	intensity
38	388
39	999
40	92
41	209
42	305
43	149
44	33
45	10
46	81
51	89
52	132
53	116
54	137
55	56
56	37
57	75
58	8
62	92
63	250
64	139
65	424
66	120
67	83
68	730
69	34
70	163
71	9
78	20
79	42
80	57
81	38
82	64
83	30
84	1
92	40
93	391
94	202
95	89
96	65
97	11
106	7
107	20
108	5
109	8
110	13
111	3
121	149
122	252
123	39
124	37
125	4
138	8
139	28
140	6
162	30
163	7
168	14
169	49
170	3
171	0
190	87
191	8
193	48
194	3
196	6
219	12
220	3
221	2
235	7
236	108
237	14
