Mass Spectrum: 2-Heptadecylimidazole
Formula: C20H38N2
CAS: 23328-87-2
Molecular weight: 306
m/z	intensity
26	1
27	11
29	32
30	1
39	12
40	5
41	101
42	27
43	117
44	4
52	1
53	10
54	29
55	54
56	12
57	38
58	2
65	1
66	1
67	8
68	8
69	24
70	4
71	6
77	1
78	1
79	2
80	3
81	96
82	999
83	60
84	3
85	2
93	6
94	8
95	473
96	168
97	12
106	2
107	13
108	11
109	89
110	17
111	2
119	2
120	1
121	23
122	10
123	49
124	31
125	2
133	1
135	8
136	2
137	195
138	28
139	2
149	4
150	1
151	97
152	13
153	1
163	3
165	37
166	6
177	2
179	26
180	4
191	1
193	34
194	6
205	1
207	26
208	5
219	1
221	18
222	4
235	13
236	2
249	13
250	3
261	1
263	37
264	7
277	28
278	6
291	4
292	1
305	30
306	39
307	8
