Mass Spectrum: D-Glucitol, 1-deoxy-1-(octylamino)-
Formula: C14H31NO5
CAS: 23323-37-7
Molecular weight: 293
m/z	intensity
26	2
27	24
28	7
29	60
30	315
31	20
35	11
36	0
37	0
38	0
39	11
40	23
41	96
42	50
43	149
44	999
45	37
46	2
47	1
48	0
50	0
51	0
52	0
53	4
54	2
55	43
56	34
57	78
58	10
59	3
60	37
61	31
62	1
65	1
66	1
67	5
68	7
69	29
70	26
71	35
72	20
73	35
74	12
75	1
77	1
78	0
79	1
80	2
81	4
82	3
83	4
84	13
85	5
86	14
87	3
88	1
89	1
90	1
91	3
92	0
93	0
94	1
95	1
96	1
97	1
98	6
99	2
100	4
101	0
102	6
103	3
104	2
105	0
109	0
110	1
111	3
112	5
113	0
114	2
115	2
116	8
117	1
118	0
121	1
122	0
126	1
127	0
128	11
129	24
130	12
131	1
132	1
133	0
134	2
140	5
141	1
142	992
143	99
144	5
145	1
146	0
147	0
154	0
156	1
158	1
163	1
164	1
168	0
170	1
171	1
172	69
173	12
174	1
176	2
184	2
185	0
186	7
187	0
194	52
195	5
196	1
198	0
199	1
202	34
203	6
204	1
208	0
212	0
214	4
215	2
216	1
226	1
232	29
233	5
236	0
244	1
245	0
246	1
250	2
257	1
258	3
262	19
263	2
264	1
274	0
275	2
276	4
277	0
278	0
292	1
293	1
294	5
295	0
