Mass Spectrum: .alpha.-d-Erythro-hex-2-enopyranoside, ethyl 2,3-dideoxy-
Formula: C8H14O4
CAS: 23339-15-3
Molecular weight: 174
m/z	intensity
25	1
26	33
27	267
28	34
29	442
30	15
31	247
33	0
37	0
38	10
39	173
40	26
41	163
42	28
43	102
44	18
45	26
46	1
47	21
50	5
51	20
52	7
53	56
54	11
55	143
56	31
57	859
58	40
59	9
60	4
61	27
62	1
63	1
65	11
66	1
67	9
68	27
69	147
70	19
71	23
72	5
73	20
74	2
75	1
77	1
78	0
79	1
80	2
81	55
82	11
83	160
84	31
85	328
86	337
87	20
88	4
93	2
94	1
96	0
97	76
98	6
99	18
100	1
101	10
102	1
109	4
110	1
111	64
112	8
113	3
114	999
115	62
116	4
125	1
127	1
128	1
129	244
130	19
131	2
138	1
143	4
157	2
173	2
174	1
