Mass Spectrum: 2,5-Cyclooctadien-1-ol, acetate
Formula: C10H14O2
CAS: 23346-41-0
Molecular weight: 166
m/z	intensity
26	13
27	109
29	51
30	1
31	8
37	1
38	9
39	178
40	33
41	135
42	25
43	999
44	27
45	14
49	2
50	27
51	59
52	48
53	70
54	22
55	76
56	6
57	29
58	3
60	4
61	6
62	4
63	15
64	2
65	54
66	55
67	86
68	63
69	30
70	201
71	15
74	5
75	1
76	3
77	104
78	456
79	202
80	78
81	69
82	36
83	42
84	6
85	2
89	2
90	2
91	367
92	30
93	18
94	9
95	220
96	368
97	25
98	1
99	7
101	0
102	1
103	15
104	3
105	96
106	297
107	30
108	6
109	51
110	3
111	1
112	22
121	1
122	0
123	14
124	98
125	12
133	0
138	44
139	5
151	0
166	8
