Mass Spectrum: 2,6-Cyclooctadien-1-ol, acetate
Formula: C10H14O2
CAS: 23346-42-1
Molecular weight: 166
m/z	intensity
26	8
27	81
28	34
29	35
31	3
37	1
38	13
39	156
40	28
41	99
42	35
43	985
44	30
45	14
49	1
50	20
51	52
52	25
53	55
54	29
55	51
56	4
57	19
58	1
59	1
60	4
61	3
62	3
63	12
64	3
65	39
66	29
67	65
68	26
69	49
70	999
71	58
72	3
73	1
74	1
75	3
76	2
77	84
78	255
79	132
80	137
81	29
82	10
83	25
84	2
85	0
87	1
89	2
91	235
92	23
93	14
94	4
95	40
96	27
97	8
98	2
99	9
100	3
101	0
102	1
103	16
104	6
105	67
106	222
107	45
108	12
109	17
110	5
111	1
112	336
113	19
114	1
119	0
121	1
122	28
123	22
124	118
125	11
126	0
136	0
137	0
138	6
139	0
148	0
149	0
151	1
152	0
166	7
167	0
