Mass Spectrum: 1-Propanamine, 3-chloro-N,N,2-trimethyl-
Formula: C6H14ClN
CAS: 23349-86-2
Molecular weight: 135
m/z	intensity
15	13
26	1
27	10
28	9
29	13
30	37
39	14
40	3
41	17
42	60
43	13
44	32
45	1
49	4
51	2
53	3
54	1
55	9
56	8
57	11
58	999
59	37
63	1
68	2
70	7
71	8
75	1
82	1
84	8
85	8
86	11
98	4
100	1
134	3
135	29
136	3
137	9
