Mass Spectrum: 1,4-Cyclooctadiene, 6-bromo-
Formula: C8H11Br
CAS: 23359-89-9
Molecular weight: 186
m/z	intensity
26	13
27	126
28	20
30	0
31	0
33	1
36	1
37	10
38	29
39	239
40	30
41	203
42	10
45	3
49	6
50	63
51	129
52	71
53	89
54	67
55	17
56	0
60	0
61	6
62	14
63	33
64	8
65	157
66	85
67	135
68	5
70	0
73	4
74	12
75	9
76	8
77	312
78	369
79	999
80	113
81	4
82	4
85	1
86	1
87	1
88	0
89	7
90	3
91	531
92	83
93	22
94	0
98	1
101	0
102	5
103	33
104	7
105	113
106	108
107	589
108	63
109	2
117	0
119	2
121	1
132	7
134	4
144	0
145	2
146	0
147	2
149	0
157	4
158	15
159	4
160	16
161	0
186	13
187	0
188	11
189	0
