Mass Spectrum: trans-2-Methyl-2,3-diphenyloxirane
Formula: C15H14O
CAS: 23355-99-9
Molecular weight: 210
m/z	intensity
15	4
26	3
27	28
28	3
29	1
37	2
38	12
39	86
40	10
41	5
43	144
44	3
49	1
50	50
51	182
52	47
53	12
54	1
55	1
57	1
61	2
62	21
63	101
64	37
65	33
66	2
69	2
70	1
73	1
74	15
75	21
76	41
77	397
78	416
79	86
80	5
81	2
82	14
83	15
84	1
86	4
87	7
88	7
89	198
90	111
91	116
92	9
94	2
95	1
96	3
97	9
98	2
99	1
101	7
102	65
103	505
104	999
105	235
106	16
107	58
108	6
113	2
114	1
115	22
116	4
117	1
118	2
119	66
120	7
121	9
122	1
126	2
127	3
128	6
129	1
131	4
132	10
133	5
138	1
139	7
140	1
141	5
142	1
149	1
150	2
151	7
152	54
153	13
154	2
163	5
164	7
165	121
166	80
167	714
168	106
169	7
176	5
177	18
178	29
179	24
180	7
181	252
182	39
183	5
189	3
190	2
191	12
192	52
193	16
194	25
195	278
196	42
197	4
207	1
209	230
210	684
211	111
212	9
