Mass Spectrum: Arsine, tricyclohexyl-
Formula: C18H33As
CAS: 23356-03-8
Molecular weight: 324
m/z	intensity
27	0
29	21
39	2
41	136
42	2
43	11
53	26
54	5
55	451
56	13
65	1
67	130
68	8
69	15
77	3
78	0
79	53
80	17
81	386
82	40
83	999
84	71
85	1
88	0
89	11
90	2
91	4
93	0
95	2
97	0
101	6
102	5
103	47
104	3
105	29
106	0
108	0
109	2
114	1
115	17
116	30
117	203
118	8
119	0
121	0
122	0
123	0
127	6
128	1
129	45
130	18
131	575
132	23
133	0
137	0
139	0
140	0
141	1
143	19
144	1
145	2
146	0
150	0
153	0
154	0
155	1
156	1
157	10
158	669
159	449
160	432
161	279
162	19
163	0
164	0
165	0
171	0
173	1
174	0
199	0
202	0
235	0
239	0
240	1
241	11
242	438
243	74
244	7
245	0
258	0
259	0
317	0
318	0
320	0
322	1
323	1
324	784
325	174
326	16
327	0
328	0
