Mass Spectrum: Pentanoic acid, 1,1-dimethylethyl ester
Formula: C9H18O2
CAS: 23361-78-6
Molecular weight: 158
m/z	intensity
26	20
27	99
28	66
29	194
31	14
37	6
38	9
39	99
40	23
41	357
42	48
43	77
44	5
45	12
50	16
51	16
53	6
55	39
56	162
57	999
58	56
59	32
60	31
61	5
73	12
75	6
85	293
86	18
102	9
103	62
104	6
143	17
144	1
