Mass Spectrum: (1S,2R)-(+)-2-Amino-1,2-diphenylethanol
Formula: C14H15NO
CAS: 23364-44-5
Molecular weight: 213
m/z	intensity
27	5
28	21
29	2
30	1
38	1
39	8
41	1
50	6
51	24
52	8
53	6
54	1
62	1
63	4
64	1
65	3
74	1
75	2
76	3
77	98
78	20
79	186
80	12
89	5
90	3
91	5
92	1
103	1
104	27
105	18
106	999
107	104
108	5
118	1
152	2
165	5
166	1
167	2
178	1
179	1
180	1
193	1
194	2
195	1
