Mass Spectrum: 3-Undecene, 3-methyl-
Formula: C12H24
CAS: 23381-94-4
Molecular weight: 168
m/z	intensity
23	0
24	0
26	5
27	87
28	10
29	133
30	2
32	5
33	0
35	1
36	0
37	4
38	4
39	69
40	15
41	355
42	78
43	163
44	2
46	0
47	0
49	0
50	0
51	5
52	3
53	41
54	22
55	999
56	170
57	131
58	8
62	0
64	0
65	11
66	4
67	81
68	21
69	270
70	478
71	113
72	5
77	8
78	2
79	10
80	2
81	41
82	27
83	569
84	66
85	10
93	4
95	6
96	6
97	101
98	24
99	2
109	2
110	1
111	12
112	4
113	0
115	0
119	1
125	0
126	0
137	0
138	4
139	25
140	5
165	0
166	0
167	17
168	36
169	5
