Mass Spectrum: 4-O-Methyl-2,3-O-benzal-d-mannosan
Formula: C14H16O5
CAS: 23397-64-0
Molecular weight: 264
m/z	intensity
41	692
42	258
43	533
44	173
45	529
46	11
47	16
48	3
49	37
50	107
51	366
52	108
53	289
54	100
55	253
56	73
57	144
58	96
59	127
60	13
61	69
62	24
63	95
64	44
65	68
66	9
67	12
68	82
69	422
70	112
71	819
72	67
73	72
74	137
75	28
76	40
77	707
78	160
79	162
81	584
82	228
83	57
84	90
85	325
86	73
87	279
88	16
89	224
90	143
91	795
92	101
93	9
94	2
95	17
96	63
97	83
98	21
99	106
100	12
101	70
102	53
103	154
104	11
105	831
106	92
107	84
108	6
109	2
111	266
112	999
113	538
114	38
115	49
116	18
117	239
118	31
119	254
120	67
121	145
122	16
123	2
124	1
125	0
126	4
127	19
128	21
129	249
130	53
131	54
132	21
133	20
134	9
135	28
136	1
137	1
141	14
142	7
143	4
144	5
145	24
147	280
148	260
149	31
150	89
151	9
157	65
158	83
159	43
160	12
161	42
162	5
163	5
169	0
171	2
172	1
173	3
174	0
175	7
176	2
177	6
178	10
179	1
186	5
187	207
188	28
189	339
190	47
191	10
192	1
193	1
201	8
202	1
203	1
204	1
205	2
217	2
218	2
219	3
235	17
236	2
249	1
263	78
264	149
265	19
266	3
