Mass Spectrum: 9-Borabicyclo[3.3.1]nonane, 9-methyl-
Formula: C9H17B
CAS: 23418-81-7
Molecular weight: 136
m/z	intensity
27	368
29	48
30	3
36	19
37	82
38	47
39	320
40	528
41	999
42	35
43	7
44	5
47	4
49	10
50	65
51	164
52	201
53	736
54	245
55	136
56	9
57	3
59	3
61	7
62	8
63	34
64	75
65	211
66	539
67	952
68	115
69	24
75	7
76	18
77	71
78	67
79	320
80	544
81	175
82	62
83	3
86	3
88	5
89	17
90	19
91	82
92	95
93	349
94	543
95	827
96	61
103	4
104	3
105	17
106	27
107	177
108	506
109	40
110	8
118	3
119	7
120	25
121	65
122	9
134	4
135	220
136	872
137	89
138	8
