Mass Spectrum: cis-1,5-Cyclooctanediol
Formula: C8H16O2
CAS: 23418-82-8
Molecular weight: 144
m/z	intensity
15	25
18	9
19	20
26	30
27	402
28	120
29	581
30	31
31	221
38	3
39	253
40	52
41	570
42	289
43	570
44	386
45	67
47	64
51	31
53	91
54	835
55	726
56	193
57	945
58	157
59	22
60	13
65	30
66	44
67	628
68	180
69	562
70	730
71	320
72	43
73	88
77	37
78	22
79	296
80	999
81	129
82	468
83	578
84	300
85	75
91	22
93	192
94	12
95	49
96	18
97	253
98	414
99	41
101	300
102	11
107	6
108	25
111	44
116	145
