Mass Spectrum: Borane, propadienediylidenetetrakis[difluoro-
Formula: C3B4F8
CAS: 23423-53-2
Molecular weight: 232
m/z	intensity
49	628
66	78
68	36
85	78
96	999
104	23
115	349
134	31
145	318
164	783
183	23
213	241
232	124
