Mass Spectrum: Methyl 2-bromo-isobutyrate
Formula: C5H9BrO2
CAS: 23426-63-3
Molecular weight: 180
m/z	intensity
14	2
15	98
16	1
25	1
26	8
27	26
28	11
29	28
30	3
31	7
32	1
33	3
37	4
38	9
39	93
40	22
41	424
42	71
43	30
44	2
45	13
53	4
54	1
55	8
56	1
57	3
59	201
60	5
61	3
68	1
69	79
70	21
71	3
73	318
74	13
75	1
79	5
80	7
81	5
82	7
85	1
86	1
87	3
91	2
93	4
95	4
99	1
100	3
101	999
102	59
103	6
105	3
106	1
107	3
120	12
121	198
122	18
123	192
124	6
133	2
135	2
137	3
139	3
149	19
151	18
152	2
154	1
165	1
167	1
180	17
181	1
182	16
183	1
