Mass Spectrum: Phenylalanine, 4-chloro-, methyl ester
Formula: C10H12ClNO2
CAS: 23434-96-0
Molecular weight: 213
m/z	intensity
15	13
27	2
28	49
29	9
30	4
31	1
39	9
40	1
41	4
42	14
43	9
44	3
46	1
50	5
51	9
52	1
56	3
57	3
58	28
59	31
60	21
61	1
62	3
63	13
64	3
65	10
66	1
73	4
74	2
75	9
76	2
77	19
78	6
85	1
86	1
87	1
88	999
89	65
90	15
91	47
92	5
99	8
101	9
102	8
103	2
104	1
111	1
112	1
116	2
117	12
118	44
119	69
120	6
125	47
126	13
127	16
128	4
137	3
138	3
139	1
140	1
151	1
152	3
153	9
154	219
155	22
156	71
157	6
165	1
211	1
213	31
214	8
215	10
216	2
