Mass Spectrum: 2H-Azonin-2-one, octahydro-6-hydroxy-
Formula: C8H15NO2
CAS: 23435-07-6
Molecular weight: 157
m/z	intensity
30	999
39	100
41	230
42	110
43	440
44	110
55	140
56	130
68	250
69	140
70	120
72	150
73	140
101	140
139	130
140	30
157	30
