Mass Spectrum: Ether, 3-methyl-2-butenyl o-tolyl
Formula: C12H16O
CAS: 23446-47-1
Molecular weight: 176
m/z	intensity
34	0
36	2
37	1
38	12
39	142
40	46
41	374
42	19
43	14
44	5
49	1
50	24
51	63
52	35
53	79
54	9
55	8
56	0
57	3
61	0
62	5
63	20
64	6
65	44
66	5
67	36
68	14
69	285
70	16
71	1
72	0
74	2
75	2
77	144
78	43
79	55
80	35
81	4
83	1
85	0
89	13
90	37
91	37
92	3
93	2
103	0
105	7
107	154
108	999
109	75
110	5
112	0
115	2
116	0
119	0
121	4
128	2
129	1
131	1
133	2
144	0
145	1
146	0
150	0
159	3
160	0
161	1
164	0
171	0
174	0
176	33
177	3
179	0
