Mass Spectrum: Tridecanoic acid, 12-oxo-
Formula: C13H24O3
CAS: 2345-12-2
Molecular weight: 228
m/z	intensity
27	2
29	38
30	0
31	7
35	1
36	13
37	0
38	4
39	9
40	0
41	104
42	20
43	697
44	12
45	27
46	1
47	0
50	0
51	1
53	6
54	15
55	187
56	30
57	80
58	999
59	265
60	50
61	4
62	0
63	1
64	0
65	2
66	3
67	67
68	33
69	196
70	33
71	246
72	19
73	93
74	6
75	1
76	1
77	5
78	3
79	18
80	10
81	61
82	37
83	133
84	137
85	57
86	7
87	26
88	52
89	2
91	5
92	4
93	29
94	26
95	48
96	49
97	102
98	312
99	33
100	12
101	27
102	5
103	2
104	2
105	7
106	3
107	19
108	33
109	40
110	41
111	90
112	173
113	26
114	18
115	18
116	10
117	1
118	19
119	9
120	2
121	10
122	8
123	22
124	25
125	36
126	17
127	15
128	8
129	8
130	1
131	2
132	1
133	6
134	39
135	227
136	29
137	11
138	3
139	8
140	6
141	5
142	2
143	2
144	1
145	1
147	1
148	1
149	26
150	7
151	9
152	201
153	143
154	19
155	3
156	1
157	1
158	0
159	2
160	0
161	0
163	3
164	4
165	1
166	1
167	14
168	10
169	14
170	60
171	15
172	2
173	0
174	1
175	0
177	2
178	0
179	0
180	0
181	2
182	7
183	1
184	3
185	1
186	0
187	0
191	1
192	9
193	2
194	1
195	2
196	0
199	1
200	1
201	1
202	0
205	0
206	0
207	0
208	0
209	2
210	31
211	10
212	1
213	13
214	2
215	0
216	0
220	0
223	0
227	0
228	16
229	3
