Mass Spectrum: Benzohydrazide, N2-acethyl-N2-phenyl-
Formula: C15H14N2O2
CAS: 23459-55-4
Molecular weight: 254
m/z	intensity
34	9
35	1
37	37
38	70
39	274
40	79
41	145
43	639
44	56
45	15
46	7
47	5
48	10
50	275
51	600
52	93
53	39
55	74
56	31
57	82
58	9
59	13
60	31
61	11
62	26
63	76
64	60
65	125
66	22
67	16
69	38
70	23
71	24
72	4
74	69
75	39
76	118
77	958
78	86
79	17
80	16
81	9
82	6
83	15
84	9
85	7
86	4
87	4
88	2
89	2
90	7
91	34
92	23
93	26
94	5
95	5
96	4
97	6
98	8
99	2
100	1
101	4
102	3
103	12
105	999
106	68
107	98
108	6
109	3
110	2
111	5
112	10
113	5
114	2
115	4
116	0
117	2
118	4
119	6
120	4
121	7
122	3
123	2
124	1
125	2
126	0
127	3
128	3
129	3
130	1
131	2
132	0
133	2
134	0
135	6
136	2
137	2
138	0
139	2
140	0
141	0
143	2
144	0
145	1
146	1
147	1
149	7
150	2
151	2
152	2
153	1
154	0
156	0
157	1
158	0
159	0
160	0
161	0
162	0
164	0
165	0
166	3
167	2
168	1
169	0
170	1
171	12
172	0
173	0
175	0
179	0
180	0
181	0
182	1
183	1
186	0
187	0
190	0
193	0
194	1
196	0
197	13
198	2
199	0
206	0
208	0
209	1
210	3
212	192
213	24
214	2
227	0
236	0
246	0
254	0
