Mass Spectrum: Spinasterone
Formula: C29H46O
CAS: 23455-44-9
Molecular weight: 410
m/z	intensity
41	376
43	918
44	3
51	9
53	91
55	999
57	120
59	5
63	1
65	41
67	252
69	576
70	4
71	57
73	8
77	112
79	271
81	316
83	246
84	45
85	23
91	205
93	190
95	234
97	193
98	10
99	1
103	16
105	140
107	132
108	9
109	100
110	21
111	22
115	20
117	53
119	85
120	6
121	103
122	38
123	92
124	61
125	9
127	1
128	13
129	24
131	61
133	91
134	31
135	55
136	13
137	48
138	10
139	4
141	11
142	5
143	23
144	2
145	57
146	2
147	113
148	32
149	69
150	9
151	12
152	1
155	10
157	26
158	2
159	45
160	7
161	54
162	8
163	25
165	8
166	9
167	3
169	10
171	22
172	5
173	36
174	17
175	38
176	10
177	17
183	8
184	1
185	20
186	1
187	28
188	4
189	14
191	10
197	9
199	17
201	25
203	24
205	2
209	1
211	11
213	18
215	23
217	11
225	9
227	30
228	5
229	48
230	9
231	31
232	2
239	1
241	11
242	8
243	33
244	1
245	110
246	17
252	2
253	51
254	6
255	22
256	39
257	32
258	5
268	56
269	183
270	117
271	177
272	38
273	9
275	1
280	5
281	15
283	53
284	14
285	15
287	1
288	2
289	2
297	87
298	185
299	65
300	11
311	8
312	42
313	36
314	9
325	5
326	3
327	10
349	22
350	2
351	1
367	130
368	42
370	4
381	8
395	12
396	2
398	5
410	307
411	106
412	34
413	7
