Mass Spectrum: 3-Butynoic acid
Formula: C4H4O2
CAS: 2345-51-9
Molecular weight: 84
m/z	intensity
25	18
26	18
27	20
28	10
29	42
30	1
31	3
34	3
36	31
37	157
38	223
39	999
40	607
41	21
42	18
43	11
44	8
45	166
46	1
48	0
49	3
50	2
52	1
53	11
54	0
55	17
56	5
57	2
66	7
67	19
69	7
84	79
85	4
