Mass Spectrum: 2-Pyrrolidinone, 4,4-dimethyl-5-methylidene-
Formula: C7H11NO
CAS: 23461-69-0
Molecular weight: 125
m/z	intensity
25	3
26	21
27	205
28	103
29	168
30	58
31	3
37	16
38	44
39	243
40	145
41	523
42	320
43	73
44	31
45	6
46	2
47	1
48	1
49	3
50	23
51	56
52	40
53	96
54	49
55	118
56	239
57	122
58	9
59	3
60	4
61	7
62	5
63	11
64	7
65	56
66	28
67	241
68	90
69	39
70	15
71	7
72	3
73	2
77	13
78	9
79	38
80	46
81	44
82	242
83	143
84	30
85	4
92	13
93	8
94	10
95	9
96	84
97	49
98	5
99	4
102	3
104	2
105	2
106	5
107	3
108	7
109	8
110	999
111	139
112	11
124	59
125	694
126	102
127	12
