Mass Spectrum: 1-Propanol, 2,2-dimethyl-, 4-methylbenzenesulfonate
Formula: C12H18O3S
CAS: 2346-07-8
Molecular weight: 242
m/z	intensity
55	151
56	53
57	999
58	44
69	8
70	129
71	26
91	544
92	160
93	17
155	303
156	84
157	75
171	4
172	13
173	13
185	4
186	13
187	357
212	1
227	4
242	26
