Mass Spectrum: 2-Cyclopentene-1-carboxylic acid
Formula: C6H8O2
CAS: 2348-89-2
Molecular weight: 112
m/z	intensity
25	1
26	14
27	50
29	8
30	0
31	6
33	0
36	0
37	12
38	30
39	179
40	40
41	235
42	9
43	10
44	1
45	27
46	1
47	2
48	0
49	1
50	7
51	13
52	4
53	8
54	0
55	13
56	2
57	3
58	1
60	1
61	5
62	8
63	14
64	4
65	88
66	86
67	999
68	54
69	7
70	2
71	0
72	0
73	3
74	0
77	0
79	1
81	0
82	0
83	4
84	4
85	0
86	0
92	0
93	1
94	6
95	6
96	0
97	60
98	3
99	0
110	0
111	7
112	252
113	23
114	2
