Mass Spectrum: Allyloxy-dimethyl-silane
Formula: C5H12OSi
CAS: 23483-20-7
Molecular weight: 116
m/z	intensity
45	419
47	81
53	33
55	69
57	62
58	89
59	744
60	73
61	335
63	11
69	10
71	223
73	158
74	32
75	999
76	77
77	37
85	183
86	28
87	37
88	26
89	49
92	19
97	19
99	861
100	86
101	735
102	72
103	28
115	183
116	20
117	10
