Mass Spectrum: Silane, [(1,1-dimethyl-2-propenyl)oxy]dimethyl-
Formula: C7H16OSi
CAS: 23483-22-9
Molecular weight: 144
m/z	intensity
45	52
47	18
53	22
55	20
57	12
58	10
59	134
60	20
61	125
62	10
69	23
71	9
73	13
75	999
76	76
77	40
85	34
87	51
99	28
101	80
102	12
111	56
113	33
115	14
116	83
117	122
118	15
127	28
129	973
130	117
131	41
143	23
144	12
145	2
