Mass Spectrum: 2,6-Octadienoic acid, 3,7-dimethyl-, methyl ester
Formula: C11H18O2
CAS: 2349-14-6
Molecular weight: 182
m/z	intensity
27	67
29	40
30	1
31	3
37	1
38	3
39	106
40	16
41	546
42	27
43	27
44	1
45	6
46	1
50	3
51	12
52	6
53	72
54	28
55	32
56	5
57	2
58	0
59	30
61	1
63	2
64	1
65	11
66	6
67	46
68	28
69	999
70	51
71	2
72	0
73	11
74	2
75	1
77	16
78	3
79	19
80	5
81	21
82	74
83	119
84	10
85	4
86	1
91	17
92	2
93	9
94	3
95	10
96	4
97	1
98	1
99	12
100	1
101	1
103	1
105	6
106	1
107	27
108	12
109	12
110	1
111	4
112	0
114	194
115	15
116	1
119	0
120	0
121	6
122	46
123	109
124	11
125	10
126	4
127	5
128	1
135	4
138	5
139	31
140	4
141	0
149	0
150	13
151	37
152	4
153	0
154	0
167	4
182	17
183	1
