Mass Spectrum: 5Alpha-cevane-3beta,20-diol
Formula: C27H45NO2
CAS: 23496-39-1
Molecular weight: 415
m/z	intensity
17	1
18	4
27	1
28	3
29	5
30	4
39	2
41	18
42	7
43	28
44	7
45	2
53	4
54	2
55	28
56	9
57	6
58	2
65	2
66	1
67	16
68	6
69	15
70	7
71	10
72	1
77	7
78	1
79	16
80	4
81	16
82	11
83	7
84	5
85	2
91	16
92	3
93	16
94	6
95	9
96	18
97	9
98	125
99	12
100	4
103	1
104	1
105	11
106	4
107	15
108	5
109	6
110	40
111	242
112	999
113	83
114	4
115	1
117	4
118	1
119	7
120	3
121	5
122	3
123	3
124	9
125	21
126	4
127	1
128	3
129	2
130	1
131	5
132	2
133	5
134	3
135	3
136	4
137	2
138	4
139	1
140	9
141	3
142	6
143	3
144	1
145	4
146	2
147	5
148	4
149	3
150	6
151	2
152	2
153	1
154	9
155	6
156	2
157	2
158	1
159	3
160	1
161	3
162	3
163	2
164	3
165	1
170	1
171	2
172	1
173	2
174	1
175	1
176	2
177	1
178	1
180	2
185	1
187	1
188	1
190	2
191	1
194	2
198	2
199	1
201	1
202	1
204	1
216	1
218	1
232	1
234	2
236	1
258	1
259	1
260	1
271	1
272	1
274	1
288	1
298	1
300	1
302	3
303	1
314	1
316	2
328	3
329	1
330	2
342	4
343	1
344	2
345	2
346	1
356	1
357	1
358	3
359	3
360	2
361	1
364	1
366	1
367	1
368	3
369	1
370	24
371	8
372	14
373	5
374	1
378	1
379	1
380	1
382	3
383	2
384	1
385	2
386	2
387	2
388	1
394	2
395	1
396	13
397	6
398	7
399	2
400	9
401	2
409	1
411	2
412	3
413	26
414	32
415	78
416	21
417	3
