Mass Spectrum: Hexaethylene glycol, 2TMS derivative
Formula: C18H42O7Si2
CAS: 235086-39-2
Molecular weight: 426
m/z	intensity
15	5
19	2
26	2
27	8
28	27
29	24
30	5
31	15
39	1
41	11
42	14
43	82
44	39
45	150
46	6
47	8
51	1
53	1
55	3
56	3
57	11
58	38
59	93
60	7
61	20
62	1
63	1
66	3
67	1
69	3
70	16
71	28
72	61
73	942
74	84
75	115
76	8
77	11
78	1
79	1
83	1
84	1
85	3
86	10
87	102
88	47
89	57
90	4
91	2
95	1
97	1
99	4
100	3
101	147
102	22
103	324
104	30
105	21
106	1
107	1
113	4
114	3
115	21
116	477
117	999
118	130
119	62
120	5
121	2
127	1
129	3
130	4
131	32
132	6
133	35
134	3
135	3
143	2
144	1
145	41
146	10
147	141
148	18
149	12
150	1
157	1
158	1
159	13
160	7
161	241
162	32
163	13
164	1
174	1
175	20
176	4
177	5
178	1
179	2
189	12
190	2
191	58
192	10
193	6
194	1
201	2
202	1
203	2
204	1
205	21
206	3
207	4
219	3
220	2
221	2
223	1
233	3
234	1
235	15
236	3
237	2
248	1
249	3
251	1
264	1
277	1
279	2
295	1
323	1
383	1
