Mass Spectrum: (E)-5-(Benzo[d][1,3]dioxol-5-yl)-1-(piperidin-1-yl)pent-3-en-1-one
Formula: C17H21NO3
CAS: 23512-55-2
Molecular weight: 287
m/z	intensity
27	11
28	10
29	14
30	8
31	1
38	3
39	46
40	4
41	295
42	51
43	44
44	10
50	9
51	47
52	11
53	36
54	19
55	63
56	164
58	11
61	3
62	11
63	50
64	13
65	69
66	10
68	20
69	969
70	125
71	6
75	11
76	12
77	81
78	23
83	29
84	220
85	24
86	70
87	14
88	7
89	46
90	9
91	113
92	14
97	20
98	3
99	6
101	5
102	28
103	31
104	9
105	21
106	4
110	9
111	5
112	999
113	76
114	14
115	366
116	142
117	248
118	34
120	3
121	22
122	22
124	13
125	2
127	57
128	14
129	5
130	7
132	9
134	5
135	132
136	25
137	6
138	54
139	18
140	3
141	2
142	2
143	15
144	39
145	35
146	17
147	30
149	15
150	9
151	13
152	477
153	49
154	6
157	1
158	1
159	5
160	8
161	31
162	6
163	2
165	2
166	6
167	1
171	4
172	3
173	19
174	137
175	28
176	25
177	5
178	1
186	1
190	1
195	1
196	1
197	1
201	5
202	70
203	18
204	126
205	18
208	1
211	1
216	1
220	1
233	1
239	1
244	1
256	1
257	1
258	4
259	3
260	1
271	1
272	1
286	36
287	318
288	62
289	7
291	1
