Mass Spectrum: 2-Octenoic acid, ethyl ester
Formula: C10H18O2
CAS: 2351-90-8
Molecular weight: 170
m/z	intensity
26	24
27	196
28	265
29	860
30	10
31	12
37	1
38	5
39	122
40	46
41	450
42	120
43	116
44	10
45	42
51	12
53	61
54	38
55	999
56	78
57	76
58	10
60	30
61	28
65	10
66	8
67	53
68	121
69	61
70	86
71	29
73	575
74	17
79	13
80	9
81	91
82	145
83	59
84	9
85	23
86	113
87	39
88	123
89	11
91	5
95	43
96	125
97	34
99	206
100	28
101	212
102	29
109	6
113	20
114	21
115	83
116	8
124	142
125	725
126	29
127	73
128	30
129	7
141	20
142	11
155	5
170	28
171	4
