Mass Spectrum: Cyclohexanone, 4-ethoxy-
Formula: C8H14O2
CAS: 23510-92-1
Molecular weight: 142
m/z	intensity
41	403
42	167
43	250
44	236
45	71
51	21
52	19
53	69
54	202
55	431
56	71
57	999
58	307
59	190
60	236
61	119
63	14
64	14
65	19
67	107
68	303
69	238
70	226
71	143
72	286
73	107
79	16
81	69
83	26
85	763
86	121
87	138
88	236
89	9
95	52
96	83
97	83
98	33
99	69
101	35
113	71
114	97
115	38
127	21
141	14
142	847
143	88
