Mass Spectrum: 2,4-Dinitrophenyl-.beta.-phenylpropionate
Formula: C15H12N2O6
CAS: 23522-80-7
Molecular weight: 316
m/z	intensity
41	58
42	14
43	68
44	4
45	17
47	1
48	1
49	7
50	86
51	291
52	75
53	34
54	3
55	46
56	4
57	1
60	1
61	6
62	25
63	113
64	35
65	455
66	29
67	2
69	1
71	1
73	2
74	19
75	20
76	29
77	479
78	196
79	364
80	23
81	1
82	1
83	2
84	3
85	1
86	4
87	4
88	2
89	114
90	103
91	999
92	536
93	315
94	2
95	4
96	1
97	2
98	1
101	3
102	23
103	164
104	347
105	430
107	81
108	79
109	10
113	1
114	1
115	4
116	2
117	3
118	0
119	3
120	3
121	2
128	1
129	1
130	1
131	17
132	5
133	49
134	9
135	1
137	1
141	1
142	0
143	1
145	0
147	21
148	104
149	348
150	76
151	8
152	5
153	1
155	2
162	11
163	6
164	2
165	12
166	5
167	16
168	2
181	1
182	6
183	584
184	102
185	8
193	1
194	5
195	0
222	7
223	10
224	1
239	0
240	11
241	2
316	3
317	0
