Mass Spectrum: 2(3H)-Benzofuranone, 6-ethenylhexahydro-3,6-dimethyl-7-(1-methylethenyl)-, [3S-(3.alpha.,3a.alpha.,6.alpha.,7.beta.,7a.beta.)]-
Formula: C15H22O2
CAS: 23527-07-3
Molecular weight: 234
m/z	intensity
18	22
27	130
28	54
29	207
39	304
40	43
41	435
42	33
43	76
51	33
52	22
53	207
54	43
55	598
56	33
57	22
65	87
66	22
67	250
68	109
69	174
71	22
77	196
78	33
79	217
80	261
81	999
82	293
83	304
84	33
91	217
92	43
93	293
94	65
95	141
96	65
97	43
105	196
106	54
107	250
108	98
109	315
110	87
111	33
117	22
119	98
120	33
121	196
122	98
123	196
124	76
125	141
131	33
133	65
134	43
135	65
136	33
137	98
138	33
143	11
145	87
146	11
147	22
148	11
149	54
150	33
151	141
152	217
153	130
154	22
159	22
160	87
161	272
162	43
163	54
164	33
165	152
166	33
173	33
175	22
177	163
178	76
179	130
180	22
189	22
190	87
191	54
192	22
206	22
219	228
220	33
234	228
235	33
