Mass Spectrum: 17.beta.-Acetoxyandrosta-4,6-dien-3-one
Formula: C21H28O3
CAS: 2352-19-4
Molecular weight: 328
m/z	intensity
27	29
29	52
30	1
31	3
38	1
39	38
40	8
41	142
42	14
43	999
44	21
45	8
50	2
51	13
52	7
53	47
54	5
55	179
56	10
57	24
58	3
59	1
60	3
61	1
63	5
64	3
65	33
66	8
67	59
68	7
69	21
70	4
71	10
72	1
73	1
75	1
76	3
77	77
78	25
79	106
80	17
81	75
82	7
83	13
84	2
85	4
89	5
90	3
91	193
92	26
93	85
94	26
95	48
96	4
97	20
98	3
99	1
101	1
102	6
103	28
104	30
105	115
106	26
107	97
108	24
109	38
110	9
111	13
112	1
113	1
114	1
115	69
116	30
117	89
118	40
119	41
120	12
121	34
122	20
123	19
124	28
125	7
126	1
127	16
128	57
129	73
130	31
131	100
132	42
133	902
134	90
135	16
136	638
137	59
138	7
139	2
140	1
141	37
142	26
143	59
144	65
145	87
146	34
147	37
148	13
149	12
150	4
151	148
152	15
153	14
154	10
155	38
156	18
157	37
158	23
159	56
160	68
161	83
162	38
163	14
164	4
165	11
166	6
167	13
168	9
169	29
170	15
171	28
172	40
173	54
174	67
175	41
176	12
177	4
178	8
179	8
180	4
181	14
182	9
183	42
184	14
185	23
186	16
187	19
188	7
189	4
190	1
191	1
192	2
193	40
194	9
195	16
196	10
197	28
198	19
199	14
200	6
201	8
202	2
203	3
204	1
205	1
206	1
207	6
208	8
209	35
210	10
211	32
212	15
213	22
214	23
215	11
216	7
217	1
219	1
220	1
221	4
222	5
223	7
224	38
225	27
226	25
227	24
228	8
229	11
230	4
231	1
232	1
233	1
235	27
236	6
237	2
238	2
239	12
240	20
241	8
242	11
243	5
244	2
245	1
249	4
250	14
251	16
252	4
253	152
254	29
255	4
256	1
257	3
258	5
259	1
266	3
267	11
268	315
269	67
270	9
271	34
272	8
273	1
284	59
285	20
286	314
287	59
288	9
289	1
299	2
300	8
301	1
310	5
311	3
312	1
313	5
314	1
326	1
327	1
328	275
329	64
