Mass Spectrum: 4-Pentenoic acid, TMS derivative
Formula: C8H16O2Si
CAS: 23523-56-0
Molecular weight: 172
m/z	intensity
16	24
26	8
27	74
28	16
29	48
30	0
31	8
38	3
39	54
40	3
41	24
42	15
43	59
44	22
45	147
46	11
47	75
48	3
49	3
50	4
51	7
52	4
53	25
54	143
55	66
56	5
57	11
58	20
59	34
60	14
61	56
62	5
63	2
70	3
71	4
72	22
73	876
74	92
75	999
76	75
77	39
78	4
81	7
82	36
83	6
84	1
85	7
86	2
87	2
88	4
89	3
91	3
96	1
97	11
98	2
99	3
100	1
101	10
102	2
103	1
111	2
112	9
113	10
114	1
115	3
116	5
117	41
118	5
119	2
127	1
128	14
129	9
130	1
139	5
141	1
144	4
156	3
157	382
158	52
159	18
160	1
172	11
173	2
