Mass Spectrum: 3Beta-acetoxy-20-hydroxy-5alpha-cevan-6-one
Formula: C29H45NO4
CAS: 23521-52-0
Molecular weight: 471
m/z	intensity
15	2
27	1
28	6
29	3
30	5
39	2
41	15
42	8
43	58
44	8
45	5
53	4
54	2
55	29
56	10
57	4
58	2
60	3
61	1
65	2
66	2
67	13
68	6
69	16
70	7
71	10
72	1
77	7
78	1
79	15
80	4
81	15
82	12
83	7
84	5
85	2
91	13
92	4
93	17
94	7
95	12
96	21
97	10
98	126
99	13
100	3
103	1
105	9
106	3
107	9
108	4
109	5
110	38
111	239
112	999
113	81
114	3
115	1
117	4
118	1
119	6
120	3
121	6
122	3
123	5
124	9
125	25
126	4
128	2
129	2
130	1
131	5
132	2
133	5
134	2
135	2
136	4
137	2
138	3
139	1
140	9
141	4
142	5
143	2
144	1
145	4
146	2
147	4
148	3
149	3
150	6
151	2
152	2
153	1
154	8
155	5
156	1
157	2
158	1
159	3
160	1
161	2
162	3
163	1
164	3
165	1
169	1
170	1
171	1
172	1
173	2
174	1
175	2
176	2
177	1
178	1
180	2
183	1
184	1
185	1
187	1
188	1
189	1
190	2
191	1
194	2
196	1
197	1
199	1
202	1
204	1
205	2
206	1
216	1
218	1
230	1
232	1
234	2
236	1
244	1
246	1
256	1
258	1
260	1
270	1
272	1
286	1
288	2
289	2
312	1
314	2
330	1
331	1
340	1
344	1
345	1
355	1
356	2
358	2
359	1
364	1
366	2
367	1
368	1
369	1
370	2
371	1
372	2
378	1
379	1
381	1
382	2
383	2
384	3
385	2
386	2
390	1
392	4
393	2
394	2
395	1
396	1
398	3
399	1
400	2
401	1
409	2
410	9
411	6
412	5
413	1
414	1
415	2
416	1
424	2
426	21
427	8
428	14
429	5
430	1
438	1
439	2
440	1
441	1
442	1
452	4
453	3
454	6
455	3
456	6
457	2
467	1
468	2
469	22
470	26
471	76
472	23
473	4
