Mass Spectrum: S-[[N-[(Carbethoxymethyl)amino]amidino]methyl] thiosulfate
Formula: C6H13N3O5S2
CAS: 23521-07-5
Molecular weight: 271
m/z	intensity
41	111
42	476
43	601
44	101
45	686
46	115
47	143
48	399
49	5
50	33
51	3
52	11
53	27
54	13
55	141
56	19
57	85
58	51
59	149
60	271
61	53
62	31
64	999
65	11
66	112
67	16
68	50
69	138
70	378
72	287
73	80
74	120
75	3
76	143
77	131
78	18
79	30
80	13
81	9
82	24
83	22
84	77
85	37
86	216
87	19
88	119
89	70
90	38
91	32
92	5
93	6
95	8
96	79
97	89
99	95
101	235
102	124
103	9
104	91
106	31
107	9
108	9
109	12
110	4
111	10
112	90
114	107
115	36
116	179
118	413
119	20
120	14
121	26
122	5
123	21
124	11
125	55
126	64
127	20
128	99
129	37
130	17
131	44
132	3
133	26
134	45
136	14
138	24
139	22
140	30
141	58
142	27
143	136
144	6
145	3
146	416
147	12
148	93
150	20
151	24
152	22
153	47
154	48
155	30
156	26
157	34
158	25
159	6
160	202
161	4
162	33
164	7
165	12
166	7
167	18
168	56
169	54
170	75
171	26
172	26
173	14
174	7
175	14
176	7
177	19
178	9
179	18
180	12
181	12
182	13
183	20
184	12
185	30
186	33
187	69
188	37
189	49
190	16
191	78
192	85
193	13
194	36
195	33
196	25
197	90
199	29
200	46
201	21
202	16
203	24
205	108
207	24
208	4
209	9
210	6
211	23
212	10
213	26
214	50
215	29
216	13
217	44
219	68
221	34
222	13
223	9
224	60
225	45
226	11
227	30
228	24
229	9
230	14
231	6
232	14
233	5
236	3
237	4
238	7
239	11
240	8
241	17
242	55
243	33
255	7
256	85
257	70
258	4
270	7
271	107
272	10
273	3
