Mass Spectrum: 4-Fluorophenyl-.beta.-phenylpropionate
Formula: C15H13FO2
CAS: 23522-72-7
Molecular weight: 244
m/z	intensity
41	20
42	15
43	3
44	2
45	8
47	12
48	6
49	50
50	63
51	175
52	40
53	24
54	4
55	24
56	14
57	152
58	7
61	6
62	21
63	83
64	28
65	152
66	11
68	4
69	8
70	1
73	4
74	20
75	49
76	25
77	274
78	129
79	140
80	10
81	19
82	17
83	221
84	59
85	3
86	17
87	2
88	3
89	30
91	999
92	74
93	5
94	4
95	32
96	2
101	3
102	23
103	148
104	179
105	864
106	71
107	8
110	0
111	55
112	229
113	15
115	0
131	73
132	52
133	376
134	35
135	9
149	2
150	13
151	1
152	2
153	2
244	8
245	1
