Mass Spectrum: 4-Bromophenyl-.beta.-phenylpropionate
Formula: C15H13BrO2
CAS: 23522-76-1
Molecular weight: 304
m/z	intensity
41	15
42	6
43	1
49	1
50	40
51	89
52	20
53	13
54	1
55	19
61	3
62	18
63	96
64	51
65	140
66	9
74	10
75	22
76	25
77	169
78	73
79	112
80	6
89	21
91	999
92	82
93	19
94	0
95	0
101	1
102	14
103	101
104	119
105	957
106	79
107	2
115	1
117	11
119	11
131	83
132	93
133	451
134	41
135	2
143	26
145	27
146	1
152	0
154	0
155	7
157	5
172	348
174	352
175	17
181	2
304	24
306	27
307	3
