Mass Spectrum: 2,2,2-Trichloroethyl .beta.-phenylpropionate
Formula: C11H11Cl3O2
CAS: 23522-65-8
Molecular weight: 280
m/z	intensity
26	4
27	14
29	3
36	6
38	3
39	24
41	5
42	6
43	10
47	1
48	2
49	3
50	14
51	60
52	24
53	6
55	4
60	3
61	16
62	4
63	19
64	3
65	53
66	21
74	4
75	5
76	7
77	115
78	69
79	88
80	5
82	3
83	2
84	3
89	16
90	7
91	569
92	46
95	22
96	11
97	14
98	6
99	1
102	11
103	88
104	999
105	422
106	35
107	394
108	30
117	9
119	8
121	2
125	5
131	21
132	7
133	347
134	34
135	3
149	11
150	2
245	5
247	3
280	130
281	14
282	123
283	14
284	40
285	4
286	4
