Mass Spectrum: 9-Borabicyclo[3.3.1]nonane, 9-butyl-
Formula: C12H23B
CAS: 23532-74-3
Molecular weight: 178
m/z	intensity
27	272
29	82
30	2
35	3
36	14
37	63
38	73
39	335
40	352
41	999
42	24
43	16
45	1
46	2
48	2
49	6
50	53
51	173
52	246
53	800
54	390
55	341
56	29
57	11
58	1
59	1
61	4
62	9
63	40
64	100
65	316
66	240
67	505
68	112
69	115
70	8
71	2
72	3
74	3
75	10
76	38
77	128
78	148
79	473
80	331
81	487
82	138
83	103
84	10
85	2
87	4
88	10
89	34
90	47
91	168
92	258
93	627
94	521
95	210
96	42
97	25
98	1
102	2
103	6
104	8
105	25
106	25
107	97
108	226
109	67
110	16
116	2
117	4
118	10
119	27
120	124
121	438
122	248
123	26
127	2
133	2
134	14
135	59
136	49
137	115
138	13
148	5
149	27
150	44
151	5
177	174
178	772
179	89
180	6
