Mass Spectrum: Benzenesulfonamide, N-methyl-2-nitro-
Formula: C7H8N2O4S
CAS: 23530-40-7
Molecular weight: 216
m/z	intensity
26	10
27	71
28	279
29	62
30	664
31	16
37	24
38	79
39	297
40	21
41	34
42	18
43	26
44	13
45	31
46	32
47	4
48	20
49	14
50	627
51	508
52	142
53	119
54	10
55	17
56	13
57	23
58	8
59	3
60	95
61	20
62	88
63	266
64	321
65	265
66	55
67	23
68	11
69	47
70	41
71	8
72	3
73	21
74	176
75	171
76	610
77	999
78	601
79	229
80	63
81	22
82	10
83	9
84	11
85	5
86	1
87	3
88	5
89	13
90	159
91	102
92	290
93	205
94	192
95	46
96	30
97	7
98	3
99	2
102	3
103	4
104	266
105	141
106	65
107	57
108	56
109	73
110	10
111	4
112	10
113	7
114	1
115	5
116	91
117	27
118	14
119	10
120	11
121	7
122	49
123	102
124	9
125	3
133	4
134	13
135	9
136	5
137	2
138	3
139	3
140	40
141	8
142	3
149	137
150	15
151	3
152	3
155	9
156	16
157	8
165	3
167	3
168	5
169	9
170	275
171	28
172	16
181	3
182	7
183	4
184	5
185	2
186	848
187	233
188	62
189	16
198	82
199	8
200	4
216	8
217	2
