Mass Spectrum: Acrylamide, 2-acetamido-3,3-dichloro-
Formula: C5H6Cl2N2O2
CAS: 23530-21-4
Molecular weight: 196
m/z	intensity
33	3
35	10
36	18
38	19
39	12
40	19
43	999
44	165
47	47
48	15
49	17
50	6
51	6
52	4
53	4
54	5
55	2
56	1
57	2
59	4
60	4
61	3
62	5
63	4
64	4
65	1
66	1
67	1
68	1
69	3
71	11
73	6
75	69
76	31
77	14
78	8
79	0
80	0
82	35
83	14
84	19
85	11
86	6
87	12
88	4
90	41
92	15
93	1
94	1
95	1
96	1
97	1
98	1
100	1
102	2
104	1
105	0
106	1
109	100
111	124
112	17
113	33
115	3
116	0
119	23
120	3
121	7
122	2
123	1
124	2
125	7
126	5
127	1
128	3
130	0
136	4
137	4
138	3
139	2
140	0
141	0
142	0
144	14
146	5
147	0
149	0
151	3
154	390
156	235
158	42
161	96
163	33
164	3
166	2
179	0
180	1
181	1
182	0
183	0
194	0
196	16
198	11
199	0
200	1
