Mass Spectrum: 1-Methoxy-4,4-dimethyl-cyclohex-2-ene
Formula: C9H16O
CAS: 23538-27-4
Molecular weight: 140
m/z	intensity
41	227
43	432
54	86
55	93
58	16
59	18
63	10
65	40
66	15
67	152
68	19
69	81
70	5
71	27
72	43
73	5
77	112
78	21
79	75
80	13
81	48
82	42
83	13
84	999
85	76
86	6
91	86
92	11
93	203
94	29
95	27
96	4
97	72
98	25
105	7
107	15
108	31
109	77
110	12
111	82
112	64
113	5
119	4
123	8
124	5
125	274
126	23
139	18
140	201
141	19
