Mass Spectrum: Isobutyrylurea
Formula: C5H10N2O2
CAS: 23549-54-4
Molecular weight: 130
m/z	intensity
14	1
15	9
16	9
17	32
18	22
26	10
27	92
28	41
29	17
30	5
31	5
32	1
37	3
38	8
39	60
40	13
41	147
42	66
43	581
44	999
45	33
46	36
51	1
52	2
53	3
54	6
55	29
56	6
57	2
58	6
59	35
60	101
61	199
62	4
68	3
69	17
70	162
71	268
72	139
73	7
86	17
87	312
88	43
89	3
102	20
113	11
115	51
116	3
129	1
130	441
131	29
132	2
