Mass Spectrum: Pentanamide, N-(aminocarbonyl)-
Formula: C6H12N2O2
CAS: 23549-55-5
Molecular weight: 144
m/z	intensity
39	130
41	380
42	100
43	160
44	930
55	110
57	440
59	570
61	160
72	100
85	170
102	999
115	80
