Mass Spectrum: Butanamide, N-(aminocarbonyl)-
Formula: C5H10N2O2
CAS: 23549-53-3
Molecular weight: 130
m/z	intensity
14	1
15	6
16	6
17	15
18	35
26	6
27	66
28	30
29	15
30	8
31	7
32	1
37	2
38	5
39	38
40	7
41	97
42	52
43	378
44	476
45	12
46	4
52	1
54	3
55	35
56	2
57	1
58	1
59	198
60	30
61	97
62	1
68	2
69	9
70	25
71	310
72	80
73	5
74	11
85	1
86	9
87	29
88	9
102	999
103	40
104	5
115	42
116	2
129	1
130	1
131	1
