Mass Spectrum: 3-[3-Phthalimidopropyl]-2-oxazolidinone
Formula: C14H14N2O4
CAS: 23545-33-7
Molecular weight: 274
m/z	intensity
41	145
42	157
43	47
44	25
45	5
47	3
50	119
51	59
52	7
54	82
56	999
57	355
61	0
62	1
63	11
64	6
65	14
66	6
68	79
70	337
71	3
72	6
74	19
75	14
76	266
77	144
78	13
80	13
82	77
83	644
84	17
86	9
88	7
89	5
90	24
91	9
92	1
93	1
97	4
98	0
100	110
101	54
102	39
104	152
105	49
106	5
112	3
113	1
114	139
115	5
117	34
118	3
126	41
127	37
129	18
130	81
132	91
134	2
141	2
143	5
145	5
147	26
148	10
149	16
156	2
158	6
160	159
161	77
169	25
170	1
172	5
173	1
174	41
175	4
183	0
186	10
187	7
188	55
189	1
201	12
202	3
215	4
216	2
230	10
274	10
275	1
