Mass Spectrum: N-[4-Aminobutyl]aziridine
Formula: C6H14N2
CAS: 23545-51-9
Molecular weight: 114
m/z	intensity
41	299
42	346
43	319
44	312
45	60
47	18
53	19
54	58
55	234
56	216
57	159
58	217
59	93
67	71
68	73
69	191
70	319
71	120
72	274
73	44
81	45
82	88
83	204
84	999
85	115
86	105
87	17
94	21
96	66
97	92
98	276
99	55
112	19
113	66
114	98
115	18
