Mass Spectrum: Benzene, 1,1'-[thiobis(methylene)]bis[4-chloro-
Formula: C14H12Cl2S
CAS: 23566-23-6
Molecular weight: 282
m/z	intensity
34	1
36	6
37	1
38	9
39	47
40	23
41	3
42	0
45	273
47	19
49	3
50	18
51	29
52	3
53	0
55	0
57	0
58	1
59	0
60	0
61	4
62	16
63	67
64	11
65	13
66	0
69	8
70	1
71	2
72	1
73	21
74	5
75	31
76	6
77	31
78	9
79	1
81	1
82	0
83	0
84	0
85	4
86	2
87	5
89	149
90	42
91	31
92	3
93	1
94	0
95	2
97	3
99	44
101	17
102	0
103	0
106	0
107	0
108	0
110	0
111	11
112	6
113	5
114	2
115	0
119	1
120	4
121	19
122	9
123	9
125	999
126	91
127	318
128	27
129	1
134	0
135	4
136	0
139	6
140	2
141	1
142	1
147	0
152	0
155	19
156	12
157	58
158	9
159	20
160	1
161	0
165	0
166	0
168	0
170	1
172	0
178	0
200	0
201	1
215	0
235	0
249	1
250	0
282	60
283	10
284	42
285	6
286	7
287	0
288	0
