Mass Spectrum: 2,7-Octadien-1-ol
Formula: C8H14O
CAS: 23578-51-0
Molecular weight: 126
m/z	intensity
15	5
16	1
17	3
18	9
26	10
27	161
28	31
29	117
30	4
31	35
37	5
38	18
39	336
40	44
41	546
42	48
43	62
44	18
45	7
49	2
50	30
51	75
52	42
53	118
54	488
55	224
56	46
57	175
58	13
59	2
61	3
62	8
63	21
64	5
65	170
66	175
67	999
68	100
69	34
70	48
71	18
72	4
73	1
74	6
75	3
76	2
77	217
78	109
79	645
80	238
81	54
82	54
83	75
84	70
85	7
86	2
89	3
90	1
91	176
92	21
93	588
94	48
95	53
96	6
97	13
98	7
102	2
103	9
104	6
105	17
106	8
107	35
108	314
109	30
110	1
111	3
