Mass Spectrum: 1-Octyn-3-ol, 3-methyl-
Formula: C9H16O
CAS: 23580-51-0
Molecular weight: 140
m/z	intensity
43	220
52	20
54	50
57	70
68	50
69	999
70	90
71	20
84	120
97	40
125	70
