Mass Spectrum: .beta.-Alanine, N-(phenylmethyl)-, ethyl ester
Formula: C12H17NO2
CAS: 23583-21-3
Molecular weight: 207
m/z	intensity
15	2
26	3
27	19
28	24
29	40
30	11
31	3
38	2
39	23
40	3
41	12
42	56
43	16
44	13
45	9
46	3
50	10
51	31
52	10
53	3
54	3
55	19
56	13
57	6
59	4
60	9
61	2
62	4
63	19
64	6
65	99
66	6
67	1
70	27
71	1
72	1
73	9
74	27
75	4
76	4
77	36
78	17
79	20
80	2
81	1
84	35
85	2
86	1
87	1
88	9
89	26
90	33
91	999
92	87
93	4
100	3
101	1
102	1
103	5
104	35
105	17
106	690
107	60
108	2
116	114
117	17
118	110
119	17
120	397
121	36
122	2
130	12
131	2
132	18
133	5
134	1
136	1
158	1
160	6
161	1
162	3
176	2
178	4
179	1
205	1
206	8
207	5
208	1
