Mass Spectrum: Diethyleneglycol dimethacrylate
Formula: C12H18O5
CAS: 2358-84-1
Molecular weight: 242
m/z	intensity
15	17
18	1
19	3
26	6
27	21
28	16
29	15
30	2
31	13
37	2
38	7
39	131
40	48
41	563
42	36
43	22
44	17
45	35
46	1
51	1
53	4
54	2
55	5
56	2
57	4
58	4
59	3
65	1
66	1
67	2
68	24
69	999
70	81
71	6
72	2
73	7
75	1
78	2
80	2
81	1
82	4
83	2
84	5
85	2
86	271
87	19
88	5
89	2
91	8
92	5
93	1
95	1
96	3
97	1
98	2
99	6
100	4
101	5
108	9
109	3
110	1
111	2
112	33
113	840
114	58
115	5
125	4
126	4
127	1
128	5
129	1
136	8
137	1
143	20
144	2
145	1
152	1
170	1
180	2
181	1
199	2
212	1
214	3
