Mass Spectrum: Tricyclo[5.1.0.0(3,5)]octane-2,6-dione, 1,3,4,5,7,8-hexamethyl-, stereoisomer
Formula: C14H20O2
CAS: 23585-24-2
Molecular weight: 220
m/z	intensity
26	11
27	171
28	45
29	156
38	8
39	250
40	46
41	459
42	37
43	322
44	11
45	6
50	11
51	54
52	28
53	194
54	63
55	647
56	41
57	23
59	6
63	18
64	8
65	87
66	38
67	423
68	31
69	52
70	5
71	8
77	96
78	22
79	110
80	25
81	125
82	71
83	999
84	56
85	8
91	107
92	17
93	70
94	17
95	72
96	11
97	7
103	15
104	8
105	103
106	20
107	102
108	28
109	70
110	144
111	45
115	15
116	9
117	22
118	7
119	111
120	38
121	145
122	42
123	200
124	28
128	6
129	9
130	6
131	21
132	7
133	82
134	48
135	115
136	68
137	125
138	295
139	34
143	5
144	17
145	15
146	11
147	25
148	18
149	255
150	42
151	15
159	48
160	9
161	31
162	19
163	97
164	32
165	79
166	13
175	7
176	4
177	287
178	54
179	6
187	10
190	8
191	23
192	176
193	27
202	12
203	5
205	101
206	15
220	135
221	22
