Mass Spectrum: N,N'-Methylenebismethacrylamide
Formula: C9H14N2O2
CAS: 2359-15-1
Molecular weight: 182
m/z	intensity
15	3
26	2
27	7
28	3
29	1
30	37
31	1
32	2
37	2
38	6
39	87
40	26
41	409
42	30
43	13
44	16
45	10
46	184
47	3
52	1
53	4
54	2
55	14
56	9
57	8
58	13
59	2
60	1
66	1
67	3
68	56
69	999
70	70
71	9
72	1
73	5
80	1
81	2
82	3
83	4
84	5
85	29
86	144
87	7
95	2
96	24
97	171
98	77
99	6
101	4
102	1
109	2
110	3
111	4
112	3
113	671
114	44
115	3
123	1
124	3
125	4
126	1
129	4
137	1
138	1
141	1
149	1
152	1
153	1
154	5
165	3
167	1
181	1
182	21
183	9
184	1
