Mass Spectrum: Ethanamine, 2-(dicyclohexylphosphino)-N,N-diethyl-
Formula: C18H36NP
CAS: 2359-96-8
Molecular weight: 297
m/z	intensity
26	1
27	11
28	8
29	33
30	52
31	0
35	0
39	8
40	26
41	58
42	17
43	8
44	17
45	2
46	1
47	1
48	0
49	1
50	0
51	0
52	0
53	7
54	6
55	77
56	28
57	11
58	44
59	4
60	1
61	5
62	1
63	9
65	1
66	1
67	12
68	1
69	1
70	11
71	29
72	14
73	7
74	4
75	2
76	1
77	2
78	0
79	8
80	2
81	31
82	7
83	26
84	14
85	99
86	999
87	56
88	2
89	2
90	0
91	0
93	0
95	2
96	0
97	0
98	3
99	55
100	10
101	1
102	6
103	1
104	5
105	0
107	0
109	0
111	0
113	4
114	2
115	23
116	10
117	26
118	1
127	0
128	0
129	8
130	4
131	1
132	10
133	0
141	2
142	2
143	7
144	57
145	15
146	1
155	0
156	0
157	1
158	1
169	0
171	0
183	1
184	0
195	1
196	0
197	5
198	12
199	2
200	0
211	3
212	2
213	2
214	10
215	2
223	0
224	0
225	4
226	25
227	3
228	0
240	0
268	15
269	2
282	1
296	1
297	10
298	2
