Mass Spectrum: Benzenol, 4-n-propyloxy-O-[4-[1-cycloazapropyl]-n-butyl]-
Formula: C15H23NO2
CAS: 23618-02-2
Molecular weight: 249
m/z	intensity
41	122
42	109
43	117
44	89
45	3
50	4
51	6
52	2
53	26
55	125
56	145
57	18
58	6
59	2
63	9
64	6
65	12
66	3
67	5
69	64
70	40
71	12
72	3
76	4
77	8
78	2
79	5
81	23
82	9
83	1
84	4
85	4
86	2
89	0
91	3
93	7
94	3
95	5
96	26
98	999
99	52
100	3
101	3
103	2
105	2
107	7
109	20
110	48
111	6
112	5
113	1
114	2
115	3
116	1
118	0
121	2
122	1
123	11
124	2
125	2
128	2
130	8
131	2
133	0
134	2
135	3
136	2
137	3
139	1
140	0
141	1
142	4
143	1
145	1
149	2
150	1
151	2
152	10
153	2
155	0
157	0
159	14
160	4
163	2
165	5
171	6
172	1
178	2
186	4
195	1
201	0
205	0
207	2
214	1
234	3
235	0
247	0
248	2
249	10
250	1
