Mass Spectrum: Bicyclo[3.2.0]hepta-2,6-diene, 5-chloro-
Formula: C7H7Cl
CAS: 23610-81-3
Molecular weight: 126
m/z	intensity
26	13
27	23
28	10
29	2
31	1
35	0
36	0
37	17
38	44
39	144
40	11
41	18
42	4
43	28
44	9
45	21
46	3
47	1
48	0
49	9
50	42
51	59
52	10
53	4
54	0
55	2
56	0
57	2
58	4
59	0
60	2
61	22
62	47
63	108
64	27
65	170
66	17
67	0
70	0
71	1
72	1
73	16
74	7
75	11
76	2
77	5
78	3
79	6
80	4
81	0
84	2
85	6
86	9
87	6
88	1
89	78
90	36
91	999
92	100
93	6
97	1
99	17
100	21
101	6
102	7
105	0
106	0
108	1
109	1
125	76
126	19
127	24
128	5
