Mass Spectrum: 2,4-Decadienal
Formula: C10H16O
CAS: 2363-88-4
Molecular weight: 152
m/z	intensity
26	14
27	217
29	210
31	9
38	10
39	221
40	17
41	508
42	92
43	34
44	2
50	12
51	36
52	24
53	110
54	96
55	161
56	17
57	27
63	11
65	60
66	65
67	171
68	69
69	22
70	31
77	56
78	25
79	67
80	23
81	999
82	86
83	104
84	25
91	23
93	14
94	36
95	85
96	33
109	24
123	19
152	56
