Mass Spectrum: Butanamide, 3-methyl-N-phenyl-
Formula: C11H15NO
CAS: 2364-50-3
Molecular weight: 177
m/z	intensity
26	3
27	45
28	3
29	99
30	3
37	2
38	9
39	72
40	38
41	129
42	10
43	39
44	1
50	8
51	34
52	8
53	5
54	4
55	11
56	3
57	254
58	11
59	0
61	0
62	2
63	11
64	15
65	67
66	54
67	6
68	0
69	10
73	1
74	2
75	1
76	4
77	70
78	9
79	2
80	0
81	1
83	1
84	1
85	32
86	1
89	0
90	1
91	14
92	47
93	999
94	91
95	3
103	1
104	2
105	1
106	6
107	0
117	1
118	1
119	7
120	32
121	2
133	1
134	7
135	17
136	1
144	1
148	0
149	2
162	3
163	0
176	2
177	115
178	14
179	1
