Mass Spectrum: Butanoic acid, 4-phenoxy-, ethyl ester
Formula: C12H16O3
CAS: 2364-59-2
Molecular weight: 208
m/z	intensity
37	9
38	25
39	180
40	35
41	190
42	60
43	240
44	23
45	150
46	7
47	7
49	6
50	36
51	110
52	15
53	10
55	39
56	5
57	9
58	5
59	39
60	27
61	23
62	10
63	32
64	18
65	120
66	75
67	10
68	17
69	240
70	20
71	6
73	34
74	14
75	8
76	14
77	210
78	34
79	28
85	20
86	7
87	999
88	70
89	6
91	20
92	8
93	17
94	700
95	70
96	9
105	9
107	75
108	5
115	860
116	47
117	7
119	8
120	15
121	20
122	4
163	300
164	25
165	3
208	80
209	10
