Mass Spectrum: 4-Hexenal, 6-hydroxy-4-methyl-, dimethyl acetal, acetate, (Z)-
Formula: C11H20O4
CAS: 23665-67-0
Molecular weight: 216
m/z	intensity
26	14
27	157
29	261
30	23
31	198
33	27
38	15
39	245
40	60
41	182
42	108
43	803
44	81
45	192
46	19
47	264
48	14
50	20
51	52
52	35
53	236
54	59
55	347
56	76
57	112
58	426
59	162
60	36
61	166
62	14
63	25
64	13
65	97
66	90
67	376
68	160
69	150
70	37
71	276
72	101
73	41
74	27
75	999
76	86
77	220
78	51
79	278
80	98
81	455
82	160
83	167
84	573
85	382
86	43
87	22
88	290
89	145
90	22
91	249
92	351
93	750
94	419
95	382
96	75
97	111
98	124
99	50
100	15
101	105
102	36
103	26
104	14
105	56
106	20
107	34
108	30
109	457
110	478
111	224
112	38
113	29
114	16
115	127
116	21
117	23
118	16
119	47
120	22
121	37
122	16
123	105
124	469
125	449
126	398
127	106
128	32
129	29
130	12
131	25
132	13
133	21
134	21
135	14
136	38
137	19
138	41
139	30
140	15
141	30
142	24
143	15
145	19
148	12
149	20
152	241
153	42
154	15
155	16
156	15
157	36
162	12
184	19
185	17
215	8
