Mass Spectrum: 2-Phenyl-5,6-tetramethylene-5,6-dihydro-4H-1,3-oxazine
Formula: C14H17NO
CAS: 23665-14-7
Molecular weight: 215
m/z	intensity
12	6
14	5
15	14
16	3
17	7
18	35
25	3
26	23
27	115
28	163
29	69
30	24
31	9
32	41
36	2
37	4
38	9
39	138
40	29
41	253
42	35
43	52
44	23
45	12
50	35
51	115
52	23
53	49
54	169
55	107
56	34
57	36
58	3
60	8
61	3
62	2
63	9
64	4
65	23
66	15
67	284
68	39
69	30
70	16
71	17
73	6
74	7
75	15
76	47
77	453
78	42
79	69
80	18
81	46
82	51
83	23
84	9
85	8
89	8
90	10
91	41
92	7
93	12
94	37
95	14
96	6
97	15
98	6
99	4
102	4
103	57
104	130
105	999
106	84
107	6
108	3
109	6
110	50
111	13
112	7
113	3
115	4
116	6
117	59
118	7
119	5
121	3
122	56
123	6
134	569
135	49
136	7
158	7
159	5
172	8
173	4
174	16
186	6
187	4
214	9
215	269
216	39
217	4
