Mass Spectrum: Pteridine-8-oxide, 6-aldoximino-2-amino-4(3H)-oxo-
Formula: C7H6N6O3
CAS: 23663-23-2
Molecular weight: 222
m/z	intensity
41	115
42	247
43	636
44	999
45	167
46	36
47	8
48	44
49	10
50	9
51	72
52	175
53	239
54	136
55	87
56	45
57	38
58	7
59	19
60	27
61	16
62	2
64	71
65	74
66	66
67	57
68	40
69	67
70	81
71	40
72	8
77	9
78	6
79	11
80	42
81	15
82	26
83	21
84	10
85	1
86	8
91	7
92	9
93	14
94	8
95	16
96	15
97	47
98	4
99	4
106	7
107	3
108	4
109	25
110	15
111	9
118	4
119	22
120	11
121	1
122	6
123	4
124	5
125	4
126	3
127	9
132	5
133	1
135	17
136	63
137	37
138	7
139	1
151	1
152	2
153	20
154	133
155	38
162	4
164	3
170	3
179	7
180	26
181	8
182	2
221	1
222	4
223	1
