Mass Spectrum: 4,4,4-Trifluoro-2-butanone
Formula: C4H5F3O
CAS: 2366-70-3
Molecular weight: 126
m/z	intensity
39	9
40	198
41	9
42	9
43	999
44	65
45	10
51	14
57	2
63	15
64	45
69	134
70	1
83	291
84	2
91	148
92	1
106	4
111	699
112	18
126	149
127	4
