Mass Spectrum: L-Serine, N-[(1,1-dimethylethoxy)carbonyl]-O-(phenylmethyl)-
Formula: C15H21NO5
CAS: 23680-31-1
Molecular weight: 295
m/z	intensity
15	5
17	2
18	7
26	2
27	12
28	17
29	32
30	3
31	22
37	1
38	3
39	37
40	6
41	105
42	16
43	79
44	40
45	3
46	1
50	7
51	16
52	4
53	5
54	1
55	16
56	34
57	501
58	24
59	102
60	6
62	3
63	9
64	3
65	60
66	4
69	1
70	4
71	6
72	2
73	9
74	86
75	4
76	1
77	25
78	6
79	28
80	2
82	2
84	1
86	5
87	34
88	54
89	65
90	15
91	999
92	134
93	7
101	2
102	1
104	7
105	18
106	6
107	77
108	26
109	2
113	2
114	1
115	3
116	3
117	1
118	3
119	8
120	17
121	30
122	5
130	5
131	2
132	73
133	72
134	5
135	1
143	10
144	1
145	1
146	1
147	3
148	204
149	21
150	22
151	3
159	1
160	4
163	1
164	7
165	4
174	4
175	1
177	1
178	1
191	1
192	5
193	1
194	52
195	9
196	3
209	26
210	3
221	11
222	12
223	1
233	1
235	2
238	25
239	56
240	9
241	1
249	1
250	2
263	19
264	3
278	4
