Mass Spectrum: Methyl 4-ketohex-5-enoate
Formula: C7H10O3
CAS: 23684-13-1
Molecular weight: 142
m/z	intensity
27	393
29	39
31	16
39	33
41	20
42	26
43	18
45	17
53	19
54	28
55	999
56	53
57	11
59	85
67	19
68	13
72	23
74	9
82	39
83	62
87	34
99	7
110	15
111	134
112	10
114	171
115	37
142	2
143	1
