Mass Spectrum: 1,3-Butadiene, 2-(bromomethyl)-
Formula: C5H7Br
CAS: 23691-13-6
Molecular weight: 146
m/z	intensity
24	0
25	3
26	42
27	135
28	20
29	6
30	0
31	7
33	1
36	2
37	32
38	74
39	424
40	86
41	771
42	23
43	1
44	0
45	1
46	0
48	1
49	9
50	49
51	61
52	49
53	42
54	3
55	2
56	0
57	0
59	0
60	1
61	11
62	18
63	26
64	5
65	195
66	49
67	999
68	57
69	31
70	2
71	0
72	1
73	1
74	0
75	0
77	0
79	4
80	2
81	5
82	2
83	0
84	0
85	0
91	0
92	0
93	3
94	0
95	3
102	0
103	0
104	0
105	1
106	1
107	0
108	1
109	0
110	0
113	0
116	0
117	1
118	0
119	2
120	0
121	1
131	1
133	1
145	0
146	128
147	8
148	130
149	7
150	1
