Mass Spectrum: 2-Fluoro-5-methylpyridine
Formula: C6H6FN
CAS: 2369-19-9
Molecular weight: 111
m/z	intensity
12	2
14	4
15	6
16	2
18	1
19	1
20	1
21	1
22	1
25	6
26	25
27	36
28	36
31	100
32	3
33	18
34	1
36	5
37	44
38	74
39	134
40	18
41	15
42	2
44	13
45	7
46	7
48	4
49	16
50	55
51	60
52	26
53	5
54	14
56	48
57	213
58	40
59	10
60	7
61	42
62	38
63	88
64	127
65	52
66	13
67	5
68	7
69	23
70	13
71	5
72	8
74	2
75	6
76	17
77	1
78	7
79	3
80	11
81	72
82	39
83	326
84	228
85	67
86	4
87	1
88	2
89	6
90	33
91	295
92	28
93	1
95	2
96	17
106	1
107	2
108	4
110	514
111	999
112	66
113	1
