Mass Spectrum: 2-Buten-1-one, 1-(2,6,6-trimethyl-1,3-cyclohexadien-1-yl)-
Formula: C13H18O
CAS: 23696-85-7
Molecular weight: 190
m/z	intensity
27	38
28	6
29	22
39	117
40	15
41	290
42	12
43	31
50	7
51	29
52	10
53	35
55	25
63	15
65	34
66	7
67	13
69	999
70	41
77	81
78	21
79	66
80	8
81	12
83	8
89	5
91	107
92	11
93	34
103	24
104	8
105	188
106	44
107	19
109	10
115	17
116	7
117	6
119	44
120	91
121	654
122	60
123	9
128	8
129	8
131	12
133	24
135	8
136	5
141	6
142	8
143	6
145	11
147	19
149	21
157	12
159	17
160	7
161	10
171	9
175	79
176	10
190	191
191	28
