Mass Spectrum: 2-Ethylhexyl hydrogen maleate
Formula: C12H20O4
CAS: 2370-71-0
Molecular weight: 228
m/z	intensity
12	2
13	5
14	2
15	4
16	1
17	6
18	19
24	4
25	16
26	175
27	92
28	28
29	164
30	3
31	41
32	6
36	1
37	2
38	2
39	48
40	8
41	318
42	68
43	351
44	13
45	9
50	2
51	4
52	3
53	17
54	182
55	268
56	217
57	999
58	42
59	7
65	2
66	1
67	12
68	18
69	125
70	423
71	243
72	14
73	3
77	2
79	2
81	6
82	30
83	220
84	93
85	8
86	1
87	1
91	1
95	3
96	1
97	16
98	55
99	65
100	156
101	7
102	1
105	2
109	1
110	11
111	20
112	181
113	134
114	10
115	1
117	296
118	20
119	6
120	1
126	1
127	1
128	2
129	6
131	3
139	1
140	1
141	2
142	1
153	1
154	1
155	1
167	3
168	1
169	3
171	5
172	1
180	1
181	2
182	3
183	2
185	7
186	1
192	1
199	3
210	4
211	8
212	12
213	2
227	2
228	3
229	11
230	2
