Mass Spectrum: 1,2,4-Triazol-5(4H)-thione, 4-allyl-3-phenyl-
Formula: C11H11N3S
CAS: 23714-53-6
Molecular weight: 217
m/z	intensity
33	3
35	21
36	86
38	68
39	171
41	187
42	80
44	92
45	38
46	5
47	4
48	1
50	58
51	77
52	27
54	82
55	42
56	70
58	240
59	59
60	53
61	11
62	21
63	40
64	21
65	10
66	4
67	7
68	11
69	13
70	36
71	24
72	48
73	12
74	22
75	35
76	130
77	182
78	14
79	5
81	138
82	9
83	2
86	999
87	55
89	31
90	12
91	65
92	8
93	2
94	2
95	3
96	3
97	2
99	102
100	75
101	180
103	334
104	263
105	31
107	3
108	20
110	0
111	0
113	37
114	13
115	14
116	13
118	115
119	19
120	7
121	6
122	9
123	0
124	0
126	0
127	3
128	14
129	7
130	12
131	5
132	1
133	0
134	1
135	0
136	1
140	5
141	3
142	10
143	9
144	17
145	5
146	19
147	7
148	2
149	2
150	0
152	0
153	0
154	0
155	3
156	4
157	19
158	24
159	21
160	3
161	13
162	1
163	0
168	0
169	4
170	9
171	7
172	28
173	5
174	1
175	2
177	33
178	10
179	2
180	0
181	0
182	2
184	181
185	23
186	3
187	0
188	1
189	7
190	26
191	6
192	1
199	1
200	4
202	635
203	67
204	28
205	2
213	0
216	290
217	522
218	82
219	27
220	2
