Mass Spectrum: Diethylvinylsilane
Formula: C6H14Si
CAS: 2372-29-4
Molecular weight: 114
m/z	intensity
41	51
42	44
43	173
44	259
45	71
50	64
51	65
52	75
53	78
54	37
56	163
57	126
58	999
59	351
60	238
61	30
64	57
70	40
71	30
72	85
73	47
74	30
83	81
84	51
85	797
86	828
87	40
88	30
113	27
114	211
115	25
116	8
