Mass Spectrum: 1,1,1-Trichloro-4,4-dimethyl-4-vinyldisilethylene
Formula: C6H13Cl3Si2
CAS: 23755-60-4
Molecular weight: 246
m/z	intensity
59	38
85	999
86	90
87	37
117	19
119	8
219	10
221	9
231	31
233	30
235	17
