Mass Spectrum: 2-Cyclohexen-1-ol, 1-methyl-
Formula: C7H12O
CAS: 23758-27-2
Molecular weight: 112
m/z	intensity
26	10
27	128
29	68
31	13
37	5
38	24
39	222
40	42
41	248
42	49
43	326
44	20
45	24
46	2
50	22
51	71
52	18
53	88
54	33
55	233
56	15
57	31
58	67
61	1
62	2
63	18
65	59
66	35
67	119
68	57
69	476
70	30
71	66
77	222
78	23
79	546
80	18
81	20
82	14
83	50
84	331
85	11
91	100
92	4
93	72
94	227
95	59
96	9
97	999
98	83
99	0
111	5
112	135
113	10
114	2
