Mass Spectrum: 1-Chloro-1,1-difluoroacetylacetone
Formula: C5H5ClF2O2
CAS: 2375-76-0
Molecular weight: 170
m/z	intensity
12	2
13	2
14	26
15	59
17	1
18	5
25	8
26	37
27	75
28	17
29	81
31	91
32	2
35	12
36	5
37	24
38	29
39	71
40	19
41	121
42	123
43	686
44	29
45	15
47	5
49	6
50	31
51	9
53	15
55	42
56	9
57	5
59	1
61	4
63	15
64	9
66	10
67	22
69	125
70	8
71	7
73	5
75	9
78	8
79	3
80	3
85	999
86	47
87	29
91	45
92	5
103	5
105	3
107	17
109	5
119	10
120	27
135	24
136	5
155	14
170	35
171	3
172	10
