Mass Spectrum: 1,1,1,4,4-Pentamethyl-4-vinyldisilethylene
Formula: C9H22Si2
CAS: 23755-58-0
Molecular weight: 186
m/z	intensity
58	87
59	190
60	18
73	928
74	77
75	35
85	999
86	388
87	68
97	198
98	117
99	26
111	19
112	77
113	17
117	29
129	57
130	8
131	88
132	10
143	48
144	29
145	20
158	116
159	60
160	9
171	335
172	71
173	30
186	108
187	30
188	8
