Mass Spectrum: Dispiro[1,4,2-dioxazole-5,4'(5'H)-naphth[2,1-d]isoxazole-5',5''-[1,4,2]dioxazole], 3'a,9'b-dihydro-3,3',3''-triphenyl-
Formula: C31H21N3O5
CAS: 23767-18-2
Molecular weight: 515
m/z	intensity
27	8
28	50
29	10
50	80
51	168
52	32
62	16
63	88
64	128
65	36
74	28
75	42
76	288
77	655
78	46
79	16
88	16
89	96
90	108
91	178
92	16
93	16
94	6
95	24
101	14
102	292
103	308
104	456
105	999
106	86
115	10
116	52
117	196
118	304
119	460
120	46
121	96
122	20
130	6
131	200
132	24
133	400
134	48
144	300
145	28
146	999
147	96
148	10
149	234
150	28
151	10
162	68
163	16
164	10
165	68
172	68
173	18
174	10
188	8
189	104
190	90
191	140
192	32
193	30
203	16
204	226
205	256
206	32
207	32
208	8
218	40
219	156
220	108
221	100
222	16
223	16
235	12
247	44
248	108
249	150
250	20
251	6
263	64
264	16
265	16
274	4
275	30
276	12
277	8
291	9
292	4
293	19
294	4
309	7
323	1
368	19
369	4
396	4
412	136
413	34
515	40
516	6
