Mass Spectrum: Spiro[1,4,2-dioxazole-5,2'(1'H)-naphthalen]-1'-one, 3-phenyl-
Formula: C17H11NO3
CAS: 23767-20-6
Molecular weight: 277
m/z	intensity
39	22
50	78
51	122
52	20
62	30
63	80
64	50
65	8
74	40
75	76
76	200
77	290
78	16
91	38
101	50
102	851
103	236
104	60
105	999
106	82
118	36
119	68
120	8
129	40
130	851
131	90
146	48
147	4
148	12
149	18
173	4
174	56
189	14
190	4
202	4
220	10
221	50
222	8
247	58
248	20
249	10
277	68
278	10
