Mass Spectrum: Spiro[1,4,2-dioxazole-5,5'(4'H)-naphth[2,1-d]isoxazol]-4'-one, 3'a,9'b-dihydro-3,3'-diphenyl-
Formula: C24H16N2O4
CAS: 23767-16-0
Molecular weight: 396
m/z	intensity
26	12
27	36
28	144
29	4
39	88
40	8
49	6
50	268
51	386
52	50
53	10
61	6
62	56
63	56
64	46
65	32
66	4
73	4
74	74
75	96
76	559
77	851
78	100
86	10
87	30
88	96
89	56
90	30
91	46
92	8
100	8
101	8
102	36
103	146
104	999
105	56
116	8
117	18
118	20
119	84
120	10
121	336
122	38
130	30
144	36
145	8
146	36
147	8
162	4
163	12
164	20
165	40
166	12
172	496
173	60
174	20
175	12
189	22
190	96
191	32
192	12
203	40
204	98
205	50
206	12
218	10
219	110
220	66
221	92
232	24
233	4
246	12
247	148
248	110
249	48
250	10
262	14
263	20
274	40
275	146
276	40
277	56
278	12
291	19
292	4
321	1
337	0
338	1
348	1
349	1
350	5
351	1
352	2
363	2
364	1
365	4
366	2
367	1
368	7
369	1
380	1
396	2
397	1
398	0
