Mass Spectrum: Benzene, 1-bromo-4-(1-propynyl)-
Formula: C9H7Br
CAS: 23773-30-0
Molecular weight: 194
m/z	intensity
50	32
51	24
55	12
56	10
57	28
58	8
61	16
62	43
63	90
64	16
65	25
73	8
74	33
75	30
76	14
77	5
85	15
86	30
87	46
88	41
89	62
90	5
97	7
98	10
99	5
109	6
110	10
111	6
113	60
114	90
115	999
116	100
193	90
194	680
195	160
196	670
197	70
