Mass Spectrum: 1,4-Phenazinedione, 2,3-dihydroxy-
Formula: C12H6N2O4
CAS: 23774-13-2
Molecular weight: 242
m/z	intensity
74	80
75	440
76	60
77	90
78	70
88	50
90	50
101	120
102	680
103	920
104	110
114	50
128	50
129	300
130	999
131	200
142	100
158	770
159	80
170	130
186	120
214	330
215	60
242	900
243	200
244	120
