Mass Spectrum: (E,E)-2,2'-Furil dioxime
Formula: C10H8N2O4
CAS: 23789-33-5
Molecular weight: 220
m/z	intensity
12	4
13	4
14	10
15	3
16	3
17	3
18	10
24	2
25	8
26	61
27	92
28	98
29	187
30	56
31	3
32	3
36	12
37	150
38	330
39	780
40	44
41	64
42	56
43	10
44	32
45	3
46	4
48	3
49	17
50	84
51	261
52	111
53	86
54	68
55	191
56	24
57	6
58	4
59	9
60	2
61	15
62	42
63	88
64	372
65	259
66	91
67	46
68	58
69	43
70	13
71	14
72	6
73	15
74	22
75	53
76	83
77	124
78	50
79	93
80	75
81	64
82	53
83	266
84	280
85	21
86	8
87	12
88	20
89	149
90	73
91	45
92	49
93	999
94	467
95	161
96	17
97	33
98	9
99	6
100	4
101	12
102	90
103	55
104	41
105	38
106	137
107	71
108	18
109	320
110	98
111	15
112	4
113	1
114	7
115	9
116	150
117	198
118	202
119	61
120	26
121	136
122	43
123	7
124	2
125	1
126	1
127	3
128	3
129	15
130	22
131	95
132	24
133	29
134	28
135	12
136	9
137	213
138	16
139	2
142	2
143	7
144	85
145	124
146	204
147	61
148	37
149	7
150	5
151	1
152	1
156	2
157	5
158	94
159	24
160	24
161	50
162	32
163	11
164	2
166	1
170	1
171	1
172	462
173	440
174	115
175	368
176	58
177	6
185	3
186	18
187	8
188	30
189	9
190	41
191	106
192	11
193	1
200	1
201	1
202	230
203	87
204	25
205	4
218	18
219	3
220	316
221	38
222	5
