Mass Spectrum: 2-Butenethioic acid, S-[2-(acetylamino)ethyl] ester
Formula: C8H13NO2S
CAS: 23784-20-5
Molecular weight: 187
m/z	intensity
25	3
26	25
27	73
28	81
29	21
30	999
31	27
33	8
34	20
35	9
36	6
37	18
38	38
39	405
40	86
41	841
42	134
43	781
44	244
45	97
46	22
47	32
48	11
49	4
50	4
51	3
52	5
53	11
54	16
55	42
56	15
57	14
58	35
59	103
60	361
61	35
62	8
65	4
66	4
67	12
68	110
69	669
70	137
71	20
72	160
73	27
74	9
75	13
76	181
77	15
78	12
79	2
80	7
81	11
82	7
83	5
84	17
85	60
86	297
87	50
88	8
91	3
93	3
98	46
99	8
100	27
101	57
102	63
103	8
104	23
105	3
111	12
112	22
113	4
115	5
116	11
117	3
118	127
119	68
120	9
121	5
127	7
128	216
129	19
130	5
144	26
145	28
146	4
159	8
187	3
