Mass Spectrum: Cycloheptane, 1-methyl-4-methylene-
Formula: C9H16
CAS: 23799-25-9
Molecular weight: 124
m/z	intensity
29	80
38	160
39	310
40	50
41	460
42	60
43	60
44	15
51	30
52	20
53	100
54	80
55	240
56	60
57	20
63	20
65	20
66	20
67	300
68	999
69	220
70	40
79	60
81	350
82	140
83	20
91	20
93	20
95	120
96	180
97	20
106	20
109	180
124	80
