Mass Spectrum: Octadecanoic acid, 13-oxo-, methyl ester
Formula: C19H36O3
CAS: 2380-28-1
Molecular weight: 312
m/z	intensity
12	3
14	3
15	75
16	7
17	17
18	190
19	13
25	4
26	25
27	130
28	88
29	180
30	9
31	21
32	6
33	2
37	3
38	8
39	82
40	33
41	480
42	150
43	999
44	53
45	35
53	26
54	31
55	620
56	80
57	140
58	240
59	240
60	8
61	3
65	6
66	6
67	95
68	33
69	220
70	52
71	480
72	58
73	29
74	170
75	15
76	3
77	7
78	3
79	27
80	14
81	110
82	46
83	210
84	71
85	75
86	12
87	100
88	11
93	23
94	11
95	68
96	65
97	160
98	230
99	360
100	42
101	23
102	36
106	3
107	32
108	10
109	34
110	31
111	72
112	110
113	22
114	260
115	120
116	15
117	3
119	6
120	3
121	23
122	18
123	21
124	26
125	60
126	130
127	74
128	16
129	15
130	7
131	4
132	6
133	4
135	10
136	6
137	13
138	12
139	30
140	16
141	21
142	8
143	25
144	4
145	2
147	8
148	28
152	4
153	9
154	6
155	9
156	8
157	11
158	3
163	51
164	11
165	6
166	110
167	130
168	22
169	7
170	4
171	4
172	3
173	13
174	3
177	2
178	2
179	2
180	6
181	33
182	12
183	11
184	2
185	3
186	15
187	3
188	2
191	6
195	4
196	13
197	6
198	85
199	150
200	25
201	3
202	5
206	7
207	2
209	44
210	9
211	2
213	6
214	9
215	3
221	3
223	2
224	56
225	14
226	2
228	2
235	2
237	21
238	18
239	38
240	8
241	130
242	25
243	4
251	3
252	6
253	4
256	180
257	40
258	5
262	3
263	2
269	17
270	7
279	11
280	16
281	100
282	24
283	7
312	41
313	9
314	3
