Mass Spectrum: 1,3,5-Triphenylpent-2-ene-1,5-dione
Formula: C23H18O2
CAS: 23800-57-9
Molecular weight: 326
m/z	intensity
26	6
27	20
29	14
38	6
39	32
41	26
42	7
43	23
44	10
50	22
51	112
52	10
53	7
55	24
56	9
57	27
63	16
64	9
65	19
67	9
69	16
70	7
71	14
75	9
76	17
77	437
81	12
83	12
85	9
89	13
91	27
95	12
97	10
105	999
106	78
115	57
119	6
129	12
131	13
139	7
141	7
143	10
154	9
157	9
158	9
165	10
169	7
178	7
181	7
189	10
190	6
191	14
192	7
193	10
202	9
203	122
204	52
205	20
207	10
220	30
221	125
222	22
223	9
224	6
249	9
309	33
310	13
326	37
327	10
