Mass Spectrum: Pivalaldehyde, semicarbazone
Formula: C6H13N3O
CAS: 23809-33-8
Molecular weight: 143
m/z	intensity
40	30
41	530
42	240
43	250
44	240
45	10
51	20
52	10
53	40
55	200
56	90
57	380
58	140
59	20
60	440
61	140
67	20
68	130
69	70
70	130
71	20
72	80
82	30
83	40
84	530
85	320
86	999
87	40
100	60
128	20
143	90
144	10
