Mass Spectrum: Octadecanoic acid, 15-oxo-, methyl ester
Formula: C19H36O3
CAS: 2380-30-5
Molecular weight: 312
m/z	intensity
15	43
17	20
18	42
26	9
27	160
28	48
29	140
30	5
31	14
33	2
37	2
38	4
39	84
40	21
41	580
42	110
43	999
44	37
45	25
53	40
54	38
55	500
56	73
57	180
58	230
59	160
60	7
67	87
68	33
69	250
70	48
71	680
72	34
73	29
74	200
75	17
77	2
79	8
81	41
82	29
83	100
84	33
85	24
86	130
87	140
88	13
93	11
94	4
95	34
96	11
97	35
98	10
99	31
100	4
101	9
107	8
109	14
110	7
111	21
112	8
113	6
115	3
121	7
123	7
124	2
125	9
126	2
127	2
128	3
129	4
130	2
135	8
137	3
138	2
139	4
140	2
141	2
143	3
152	7
153	8
154	5
155	3
157	3
163	2
165	3
167	5
168	2
169	2
171	3
176	8
177	35
178	5
179	2
181	3
182	2
183	5
185	4
191	31
192	7
193	2
194	73
195	110
196	17
197	5
201	4
203	3
208	3
209	45
210	21
211	4
214	3
221	5
223	7
224	8
225	2
226	51
227	180
228	28
229	3
237	71
238	18
239	53
240	11
241	13
242	4
243	4
251	5
252	18
253	4
262	8
263	6
269	340
270	69
271	11
279	19
280	55
281	170
282	34
283	7
284	11
285	3
296	2
299	3
312	110
313	48
