Mass Spectrum: Octadecanoic acid, 7-oxo-, methyl ester
Formula: C19H36O3
CAS: 2380-22-5
Molecular weight: 312
m/z	intensity
12	6
13	4
14	13
15	180
16	15
17	43
18	330
24	2
25	8
26	39
27	170
28	99
29	240
30	11
31	29
32	10
33	4
37	6
38	8
39	130
40	44
41	720
42	170
43	999
44	71
45	11
53	63
54	60
55	820
56	160
57	69
58	180
59	210
60	8
61	3
65	11
66	8
67	110
68	62
69	620
70	100
71	360
72	38
73	63
74	84
75	8
76	3
77	11
78	5
79	46
80	25
81	140
82	70
83	220
84	67
85	170
86	20
87	120
88	10
93	26
94	26
95	150
96	110
97	340
98	240
99	66
100	36
101	16
102	14
103	3
107	36
108	10
109	82
110	30
111	190
112	270
113	53
114	95
115	420
116	31
117	5
119	3
121	19
122	22
123	38
124	18
125	300
126	32
127	30
128	9
129	89
130	85
131	8
132	2
133	3
135	17
136	6
137	17
138	64
139	25
140	430
141	67
142	15
143	9
144	10
145	2
147	3
151	13
152	6
153	57
154	210
155	40
156	13
157	180
158	22
159	4
161	2
163	7
164	5
165	12
166	4
167	13
168	3
169	8
170	4
172	510
173	65
174	8
175	2
177	5
178	4
179	6
180	31
181	11
182	8
183	270
184	29
185	47
186	7
191	3
192	3
193	4
194	2
195	6
196	5
197	6
198	350
199	70
200	9
201	3
202	5
205	3
206	2
207	3
209	9
210	4
211	35
212	7
213	3
214	6
215	2
219	3
220	8
221	3
223	4
224	3
225	7
226	3
227	3
228	2
233	5
234	4
235	30
236	7
237	5
238	3
239	60
240	11
241	4
243	2
245	15
246	3
251	5
252	46
253	15
254	2
256	2
261	3
262	7
263	46
264	10
265	4
269	3
270	3
279	15
280	17
281	100
282	22
283	4
294	6
295	2
311	3
312	44
313	36
314	8
