Mass Spectrum: 2-Propanol, 1-iodo-2-methyl-
Formula: C4H9IO
CAS: 23825-98-1
Molecular weight: 200
m/z	intensity
14	49
15	173
16	8
19	10
20	0
24	0
25	5
26	45
27	225
28	40
29	191
30	9
31	254
33	1
35	0
36	3
37	18
38	35
39	178
40	31
41	227
42	68
43	392
44	18
45	81
46	2
47	0
48	0
49	5
50	17
51	16
52	5
53	26
54	6
55	227
56	63
57	118
58	384
59	999
60	35
61	2
63	0
64	0
65	0
66	0
67	1
68	0
69	2
70	3
71	10
72	10
73	433
74	20
75	1
77	1
78	0
79	1
80	1
81	1
82	1
83	1
84	0
85	1
86	0
87	1
90	0
91	1
92	1
93	2
94	0
95	1
96	0
97	1
98	0
99	1
101	7
102	1
103	0
104	0
105	1
106	0
107	1
109	1
110	0
111	1
112	1
113	1
115	0
117	0
119	1
120	0
121	1
122	1
123	1
125	0
127	233
128	50
129	4
133	0
135	0
137	0
139	10
140	14
141	89
142	131
143	2
144	2
145	0
149	0
151	1
152	1
153	1
155	6
157	1
164	0
165	1
167	5
168	2
169	3
170	0
181	1
182	3
183	22
184	6
185	352
186	12
187	1
199	1
200	104
201	5
202	0
