Mass Spectrum: (Z)-1-Methyl-3-(prop-1-en-1-yl)trisulfane
Formula: C4H8S3
CAS: 23838-24-6
Molecular weight: 152
m/z	intensity
26	7
29	24
37	14
38	31
39	226
40	13
41	42
44	7
45	999
46	97
47	163
48	44
49	9
51	3
54	5
57	23
58	60
59	47
60	3
61	57
62	7
63	88
64	187
65	21
66	16
68	15
69	63
70	14
71	182
72	193
73	225
74	54
75	25
78	8
79	157
80	50
83	3
85	6
86	3
87	22
88	336
89	15
91	3
103	38
104	30
105	59
106	9
107	23
152	391
153	26
154	67
155	6
156	4
