Mass Spectrum: Spiro[bicyclo[3.1.0]hexane-6,3'(2'H)-as-indacen]-2-one, decahydro-6'-hydroxy-4,5'a-dimethyl-, acetate, stereoisomer
Formula: C21H30O3
CAS: 2383-65-5
Molecular weight: 330
m/z	intensity
97	999
117	206
119	222
131	333
132	250
133	358
145	266
146	266
147	295
148	125
159	416
174	941
228	43
234	470
288	83
