Mass Spectrum: (E)-1-Methyl-3-(prop-1-en-1-yl)trisulfane
Formula: C4H8S3
CAS: 23838-25-7
Molecular weight: 152
m/z	intensity
27	24
29	14
37	11
38	27
39	221
40	13
41	117
45	999
46	89
47	196
48	13
57	33
58	72
59	55
60	15
61	127
64	182
65	22
66	21
68	16
69	74
71	200
72	153
73	475
74	37
75	70
79	267
80	64
81	15
87	22
88	555
89	25
103	52
104	44
105	92
106	13
107	30
152	699
153	39
154	86
155	6
