Mass Spectrum: 6-Heptynoic acid, 2-amino-4-hydroxy-
Formula: C7H11NO3
CAS: 23840-14-4
Molecular weight: 157
m/z	intensity
41	240
42	160
43	130
44	999
45	70
46	110
55	60
56	170
67	60
68	230
69	70
72	170
74	830
75	60
94	70
95	120
112	540
113	60
118	130
139	3
