Mass Spectrum: 5-Hexynoic acid, 2-amino-4-methyl-
Formula: C7H11NO2
CAS: 23840-12-2
Molecular weight: 141
m/z	intensity
41	140
42	120
43	90
44	190
45	50
51	50
53	220
54	50
55	50
67	60
68	50
69	60
74	350
75	50
80	80
81	100
86	90
94	50
96	999
97	100
126	10
141	2
