Mass Spectrum: 3-Methoxy-D-homoestra-1,3,5(10),8(14)-tetraen-17a-one, 17a-cyclic ethyleneketal
Formula: C22H28O3
CAS: 2384-17-0
Molecular weight: 340
m/z	intensity
39	85
40	27
41	103
42	52
43	66
44	98
45	55
50	22
51	38
52	18
53	28
54	14
55	320
56	14
57	14
63	29
65	30
66	20
67	30
69	20
73	55
75	14
77	45
78	19
79	40
81	23
86	53
91	63
92	13
99	999
100	229
101	38
105	35
106	24
113	24
115	70
116	23
127	24
128	49
129	34
130	14
139	23
141	39
142	19
143	14
144	19
145	28
146	20
147	45
152	45
153	40
154	23
155	17
164	20
165	74
166	35
167	26
171	48
172	21
173	35
178	34
179	40
180	15
181	31
193	18
194	22
195	32
196	28
197	36
209	37
210	41
211	48
212	20
223	38
224	38
225	98
226	51
238	23
239	32
240	72
241	27
250	14
251	15
252	27
277	19
278	50
279	118
280	37
281	19
324	10
325	27
337	23
339	25
340	348
341	84
342	10
343	1
