Mass Spectrum: Aziridine, 1-(1,2,3,4-tetrahydro-2-naphthyl)-
Formula: C12H15N
CAS: 23853-53-4
Molecular weight: 173
m/z	intensity
13	12
14	50
15	246
16	11
17	31
18	104
20	2
24	6
25	19
26	134
27	304
28	399
29	48
30	93
31	3
32	3
36	8
37	12
38	41
39	233
40	44
41	145
42	240
43	81
44	216
45	16
46	3
49	5
50	92
51	220
52	69
53	77
54	48
55	34
56	152
57	42
58	38
61	12
62	46
63	154
64	90
65	113
66	17
67	11
68	48
69	30
70	31
71	20
72	10
73	8
74	41
75	52
76	47
77	204
78	159
79	34
80	20
81	11
82	88
83	10
84	21
85	9
87	21
88	13
89	72
90	26
91	273
92	35
93	11
94	17
95	8
96	9
97	10
98	20
99	14
100	10
101	31
102	92
103	159
104	435
105	95
106	15
107	8
108	9
109	7
110	7
111	8
112	7
113	15
114	24
115	458
116	162
117	152
118	62
119	19
120	14
122	8
125	12
126	41
127	171
128	390
129	604
130	999
131	329
132	103
133	14
138	6
139	21
140	18
141	26
142	17
143	69
144	129
145	77
146	58
147	79
148	14
150	6
151	9
152	16
153	13
154	12
155	12
156	31
157	23
158	115
159	47
160	37
161	36
162	7
163	5
164	6
165	11
166	14
167	50
168	44
169	32
170	21
171	39
172	82
173	306
174	56
175	11
