Mass Spectrum: Piperazine, 1-methyl-4-(1,2,3,4-tetrahydro-2-naphthyl)-
Formula: C15H22N2
CAS: 23853-58-9
Molecular weight: 230
m/z	intensity
25	3
26	37
27	229
28	394
29	141
30	158
31	8
32	4
34	3
36	2
37	5
38	17
39	141
40	31
41	189
42	938
43	999
44	361
45	21
46	3
49	7
50	44
51	124
52	46
53	87
54	117
55	165
56	493
57	224
58	973
59	43
60	4
61	6
62	19
63	77
64	49
65	69
66	10
67	22
68	89
69	72
70	878
71	332
72	182
73	21
74	21
75	30
76	28
77	135
78	85
79	24
80	20
81	19
82	76
83	56
84	57
85	86
86	13
87	13
88	7
89	36
90	12
91	343
92	31
93	6
94	17
95	25
96	30
97	150
98	94
99	272
100	223
101	48
102	79
103	131
104	205
105	67
106	10
107	7
108	4
109	9
110	7
111	77
112	14
113	42
114	27
115	413
116	187
117	94
118	23
119	13
120	4
121	5
122	4
123	8
124	25
125	217
126	68
127	195
128	384
129	512
130	689
131	379
132	63
133	10
134	2
137	3
138	3
139	37
140	10
141	26
142	21
143	69
144	82
145	118
146	42
147	8
148	2
151	3
152	6
153	20
154	17
155	40
156	41
157	53
158	134
159	258
160	85
161	12
165	3
166	4
167	9
168	10
169	10
170	23
171	51
172	101
173	33
174	38
175	9
176	4
179	3
180	6
181	12
182	14
183	8
184	17
185	7
186	101
187	36
188	26
189	6
192	1
193	3
194	4
195	17
196	5
197	6
198	5
199	5
200	9
201	28
202	34
203	7
205	3
206	4
207	12
208	7
209	14
210	20
211	14
212	3
213	9
214	3
215	34
216	7
217	2
221	2
222	3
223	5
224	22
225	11
226	69
227	37
228	230
229	94
230	577
231	100
232	9
