Mass Spectrum: 2-Naphthylamine, N-cyclohexyl-1,2,3,4-tetrahydro-
Formula: C16H23N
CAS: 23853-48-7
Molecular weight: 229
m/z	intensity
13	1
14	126
15	45
16	17
17	4
18	19
20	3
25	1
26	14
27	179
28	999
29	141
30	138
31	3
32	47
35	1
36	2
37	4
38	10
39	158
40	33
41	339
42	61
43	84
44	87
45	4
49	1
50	18
51	60
52	23
53	81
54	64
55	228
56	233
57	18
58	6
61	2
62	8
63	35
64	17
65	45
66	10
67	44
68	42
69	23
70	20
71	4
72	3
74	7
75	14
76	14
77	87
78	60
79	32
80	27
81	33
82	77
83	53
84	9
85	9
87	5
88	5
89	24
90	12
91	221
92	25
93	62
94	12
95	5
96	10
97	4
98	68
99	12
100	57
101	18
102	36
103	82
104	177
105	103
106	12
107	2
108	3
109	2
110	23
111	4
112	8
113	8
114	15
115	242
116	113
117	91
118	28
119	18
120	7
121	2
122	5
123	3
124	42
125	11
126	23
127	109
128	175
129	213
130	585
131	462
132	73
133	6
134	1
136	2
137	1
138	13
139	6
140	9
141	28
142	21
143	90
144	79
145	112
146	92
147	21
148	13
149	3
151	4
152	7
153	10
154	12
155	9
156	26
157	9
158	51
159	9
160	10
161	2
164	2
165	9
166	6
167	30
168	40
169	39
170	27
171	13
172	19
173	9
174	3
175	2
178	3
179	4
180	20
181	10
182	181
183	32
184	35
185	10
186	614
187	95
188	8
189	1
191	1
192	1
193	2
194	3
195	2
196	7
197	2
198	6
199	3
200	27
201	6
202	3
204	1
206	1
207	2
208	2
210	1
212	3
213	1
214	5
215	2
216	1
217	3
218	3
219	7
220	2
221	2
222	3
223	13
224	17
225	165
226	46
227	212
228	60
229	377
230	70
231	7
