Mass Spectrum: 7-Oxabicyclo[4.1.0]heptane-3-carboxylic acid, 7-oxabicyclo[4.1.0]hept-3-ylmethyl ester
Formula: C14H20O4
CAS: 2386-87-0
Molecular weight: 252
m/z	intensity
15	23
18	30
27	359
28	60
29	330
31	76
39	412
41	999
42	269
43	320
44	100
45	26
50	12
51	39
53	229
55	621
57	149
58	9
65	92
67	711
68	186
69	321
70	149
71	41
73	13
77	212
79	643
81	935
82	393
83	321
84	25
85	56
86	26
91	188
93	448
94	94
95	278
96	201
97	346
98	45
99	16
107	18
109	217
110	226
111	186
112	19
113	36
123	74
124	45
125	129
127	417
128	31
141	63
142	26
143	42
