Mass Spectrum: Kaura-5,16-dien-18(or 19)-ol, acetate
Formula: C22H32O2
CAS: 23877-95-4
Molecular weight: 328
m/z	intensity
41	677
43	999
53	52
55	212
67	100
69	76
77	166
79	214
81	196
91	314
93	200
95	126
105	300
107	104
109	76
115	58
117	156
119	126
121	108
129	120
131	180
133	80
135	104
140	104
141	120
143	136
145	122
147	312
155	100
157	100
159	164
169	52
171	80
173	166
175	100
239	46
253	653
254	54
255	400
268	206
269	54
313	753
328	999
