Mass Spectrum: 1,3-Propanediol, 2-(hydroxymethyl)-2-methyl-, tris(4-methylbenzenesulfonate)
Formula: C26H30O9S3
CAS: 2387-43-1
Molecular weight: 582
m/z	intensity
27	5
29	7
39	31
41	20
43	4
51	13
53	7
54	8
55	33
64	6
65	109
67	7
71	18
77	19
79	15
83	36
85	50
89	27
90	52
91	999
92	124
105	8
107	52
108	20
117	2
129	3
139	27
145	20
146	4
154	14
155	582
156	52
157	40
171	10
172	14
173	25
174	13
181	2
225	14
226	6
227	3
238	6
239	35
240	5
255	38
256	5
257	12
261	7
262	13
327	4
410	40
411	28
412	9
582	22
583	7
584	4
