Mass Spectrum: 11-Oxododecanoic acid
Formula: C12H22O3
CAS: 2388-78-5
Molecular weight: 214
m/z	intensity
15	10
17	2
18	8
26	1
27	42
28	17
29	67
30	2
31	9
39	41
40	8
41	194
42	43
43	859
44	24
45	46
46	1
47	1
51	2
52	1
53	18
54	23
55	294
56	34
57	74
58	999
59	319
60	67
61	6
65	4
66	4
67	72
68	35
69	313
70	38
71	296
72	24
73	79
74	9
75	1
77	4
78	2
79	43
80	30
81	95
82	44
83	121
84	221
85	63
86	9
87	18
88	6
89	1
91	7
92	4
93	49
94	80
95	109
96	104
97	206
98	430
99	45
100	16
101	26
102	2
104	1
105	3
106	1
107	15
108	11
109	46
110	57
111	116
112	91
113	27
114	24
115	13
116	1
117	1
118	20
119	7
120	43
121	318
122	34
123	26
124	6
125	32
126	25
127	12
128	13
129	7
130	1
131	2
132	1
133	3
134	2
135	65
136	16
137	22
138	478
139	386
140	50
141	9
142	4
143	1
144	1
145	3
149	5
150	9
151	3
152	3
153	45
154	21
155	22
156	139
157	35
158	4
159	1
160	1
163	7
164	1
167	3
168	23
169	3
170	3
171	1
172	2
177	2
178	40
179	6
181	6
186	2
195	3
196	92
197	48
198	6
199	23
200	2
214	23
215	9
216	1
