Mass Spectrum: 3-Chloro-1-phenylsulfonyl-2-propanone
Formula: C9H9ClO3S
CAS: 23886-96-6
Molecular weight: 232
m/z	intensity
26	14
27	72
28	13
29	5
30	0
31	1
35	1
36	8
37	6
38	15
39	39
40	7
41	2
42	38
43	10
44	28
45	14
46	0
47	1
48	3
49	29
50	86
51	275
52	15
53	7
54	0
55	4
56	1
57	1
58	0
59	0
60	1
61	4
62	4
63	12
64	5
65	29
66	5
67	0
68	0
69	5
70	1
71	1
72	0
73	6
74	29
75	51
76	27
77	999
78	70
79	4
81	2
82	0
83	1
84	2
85	4
86	2
87	1
88	0
89	2
90	2
91	29
92	3
93	5
94	11
95	1
96	0
97	18
98	0
99	2
100	0
101	0
102	0
103	1
104	1
105	6
106	0
107	1
108	1
109	3
110	2
111	57
112	24
113	21
114	9
115	1
116	0
118	0
119	2
121	2
122	0
123	0
125	61
126	13
127	3
128	2
129	0
130	0
131	1
132	2
133	16
134	3
135	0
137	0
138	1
139	116
140	10
141	634
142	49
143	32
144	1
145	0
146	3
147	0
148	2
149	0
150	0
152	0
153	0
155	2
156	112
157	8
158	34
159	3
160	0
161	1
163	0
168	8
169	1
170	1
171	0
176	1
178	0
179	0
182	0
183	304
184	32
185	18
186	1
187	0
188	0
190	0
197	0
232	69
233	7
234	26
235	3
236	1
