Mass Spectrum: 2H-Azirine-2-carboxylic acid, 3-phenyl-, ethyl ester
Formula: C11H11NO2
CAS: 23893-63-2
Molecular weight: 189
m/z	intensity
40	108
42	39
44	43
50	79
51	162
52	19
62	61
63	217
64	19
74	19
75	21
76	77
77	458
78	41
88	23
89	312
90	37
103	98
104	88
105	999
106	513
107	37
116	296
117	79
133	515
134	49
144	158
160	79
161	496
162	57
189	17
