Mass Spectrum: L-Lysine, N(2)-[(1,1-dimethylethoxy)carbonyl]-N(6)-[(phenylmethoxy)carbonyl]-
Formula: C19H28N2O6
CAS: 2389-45-9
Molecular weight: 380
m/z	intensity
14	1
15	13
16	4
17	2
18	7
25	1
26	10
27	55
28	107
29	54
30	43
31	118
32	2
37	6
38	11
39	83
40	17
41	222
42	29
43	134
44	212
45	8
46	2
49	3
50	23
51	52
52	23
53	33
54	28
55	91
56	144
57	113
58	8
59	419
60	13
61	2
62	7
63	13
64	5
65	60
66	9
67	14
68	9
69	11
70	23
71	9
72	5
73	8
74	13
75	5
76	5
77	112
78	31
79	252
80	32
81	14
82	43
83	56
84	66
85	10
86	8
87	18
88	2
89	27
90	38
91	634
92	63
93	6
94	3
95	4
96	5
97	9
98	21
99	11
100	26
101	17
102	1
103	2
104	3
105	24
106	20
107	268
108	999
109	89
110	26
111	9
112	3
113	2
114	7
115	7
116	6
117	3
118	1
119	2
120	10
121	1
123	1
124	12
125	6
126	11
127	65
128	70
129	9
130	4
131	2
132	1
133	2
135	1
136	2
137	2
142	5
143	5
144	4
145	3
146	5
147	1
149	2
151	2
152	2
153	5
154	8
155	5
156	3
157	1
158	1
160	1
164	2
167	1
171	15
172	8
173	22
174	29
175	4
178	1
180	2
181	1
189	6
198	1
199	4
200	4
206	1
216	1
217	12
218	18
219	5
220	1
234	1
235	5
236	1
263	6
264	1
280	35
281	7
306	28
307	6
324	9
325	2
