Mass Spectrum: cis-Methyl 11-eicosenoate
Formula: C21H40O2
CAS: 2390-09-2
Molecular weight: 324
m/z	intensity
15	1
26	2
27	37
28	12
29	123
30	3
31	5
33	1
38	1
39	72
40	15
41	571
42	105
43	519
44	18
45	21
46	1
50	1
51	4
52	4
53	61
54	198
55	999
56	235
57	319
58	17
59	143
60	5
61	2
63	1
65	22
66	16
67	316
68	187
69	721
70	196
71	121
72	11
73	45
74	489
75	73
76	5
77	17
78	6
79	61
80	32
81	227
82	168
83	465
84	308
85	80
86	4
87	288
88	27
89	2
91	13
92	6
93	30
94	33
95	167
96	286
97	379
98	246
99	35
100	7
101	53
102	6
103	1
105	8
106	4
107	27
108	25
109	109
110	164
111	181
112	66
113	26
114	33
115	56
116	9
117	2
118	2
119	22
120	9
121	39
122	15
123	112
124	85
125	95
126	21
127	27
128	37
129	39
130	12
131	2
132	1
133	21
134	21
135	36
136	10
137	64
138	64
139	56
140	11
141	52
142	10
143	39
144	5
145	1
147	14
148	15
149	22
150	6
151	36
152	47
153	29
154	6
155	8
156	2
157	11
158	2
159	1
161	9
162	5
163	12
164	4
165	21
166	23
167	14
168	3
169	6
170	1
171	7
172	2
173	1
175	8
176	3
177	7
178	3
179	13
180	17
181	10
182	3
183	6
185	7
186	2
189	5
190	2
191	4
192	6
193	11
194	30
195	10
196	3
197	11
198	2
199	6
200	1
201	1
203	3
204	1
205	3
206	2
207	12
208	69
209	15
210	4
211	8
212	2
213	3
214	1
215	1
217	1
219	2
220	1
221	17
222	15
223	4
224	1
225	2
227	6
228	4
229	1
231	1
234	1
235	20
236	13
237	5
238	1
239	1
241	6
242	4
243	1
245	1
248	22
249	29
250	82
251	19
252	2
255	2
256	3
257	1
263	19
264	11
265	2
273	1
274	10
275	4
276	1
277	2
278	1
281	6
282	1
292	190
293	115
294	22
295	4
296	1
306	2
324	27
325	6
326	1
