Mass Spectrum: 1,4-Dioxane, 2,3-dimethoxy-
Formula: C6H12O4
CAS: 23918-30-1
Molecular weight: 148
m/z	intensity
24	0
25	0
26	17
27	80
28	383
29	265
30	37
31	145
32	8
33	166
34	1
37	1
39	0
41	4
42	29
43	72
44	17
45	446
46	9
47	14
55	0
56	10
57	31
58	13
59	141
60	12
61	999
62	23
63	3
71	2
72	2
73	156
74	10
75	22
76	0
86	4
87	4
88	396
89	19
90	1
103	1
116	1
117	21
118	1
147	0
148	1
