Mass Spectrum: L-Cystine, N,N'-bis[(phenylmethoxy)carbonyl]-, diethyl ester
Formula: C26H32N2O8S2
CAS: 23926-58-1
Molecular weight: 564
m/z	intensity
38	40
39	62
40	50
41	62
42	62
43	127
50	40
51	125
55	47
58	50
62	50
63	54
64	152
73	16
74	135
76	27
77	210
78	50
79	308
87	25
89	47
90	64
91	999
92	355
101	16
102	125
106	23
107	16
108	291
109	355
130	115
137	113
143	54
145	40
149	42
158	76
160	33
163	50
176	62
188	33
191	50
221	118
229	67
238	118
250	84
264	33
272	33
273	33
281	50
315	42
348	33
381	33
413	33
455	84
564	76
