Mass Spectrum: Pregnan-1-ol, 3-(dimethylamino)-, (1.beta.,3.alpha.,5.alpha.)-
Formula: C23H41NO
CAS: 23931-07-9
Molecular weight: 347
m/z	intensity
51	31
53	85
54	58
55	35
56	97
67	46
68	7
69	39
70	39
71	253
72	78
76	19
79	39
81	58
82	7
83	11
84	46
85	19
91	23
93	23
95	43
96	15
97	31
98	19
100	999
101	78
102	15
105	35
106	11
107	31
108	7
109	35
110	148
111	31
120	7
122	7
123	7
124	35
125	27
134	11
136	11
147	15
149	11
162	7
164	19
231	19
232	19
233	19
277	23
302	58
303	11
304	15
333	11
346	7
347	113
348	35
