Mass Spectrum: 1,2-Bis(dimethylphosphino)ethane
Formula: C6H16P2
CAS: 23936-60-9
Molecular weight: 150
m/z	intensity
26	14
27	103
28	15
29	71
30	1
31	24
33	10
34	4
35	7
37	1
38	2
39	27
40	6
41	99
42	7
43	18
44	34
45	378
46	107
47	105
48	20
49	2
50	1
51	1
52	0
53	3
54	1
55	16
56	17
57	229
58	65
59	359
60	26
61	479
62	499
63	22
64	1
65	5
66	0
67	0
68	4
69	11
70	2
71	32
72	6
73	102
74	14
75	174
76	48
77	22
78	3
79	48
80	1
81	2
82	0
83	1
84	1
85	5
86	1
87	13
88	59
89	77
90	42
91	18
92	13
93	37
94	7
95	0
97	0
98	1
99	3
100	0
101	1
102	1
103	12
104	1
105	4
106	7
107	999
108	45
109	1
112	0
115	0
117	0
118	1
119	7
120	8
121	22
122	851
123	33
124	59
131	0
132	0
133	8
134	23
135	613
136	44
137	2
138	0
147	4
148	1
149	6
150	48
151	11
152	0
153	0
