Mass Spectrum: Pyrazol-3(2H)-one, 4-benzylamino-1,5-dimethyl-2-phenyl-
Formula: C18H19N3O
CAS: 23934-85-2
Molecular weight: 293
m/z	intensity
36	0
37	1
39	47
40	10
41	20
42	27
43	7
44	2
45	0
50	9
51	36
52	10
53	6
54	19
56	999
57	28
58	1
61	0
62	3
63	19
64	22
65	76
66	7
67	6
68	4
69	2
70	2
71	0
74	1
75	1
77	59
78	8
79	2
80	0
81	2
83	198
84	9
85	0
86	0
87	0
89	17
91	240
92	29
93	11
94	3
95	1
96	1
97	3
98	3
99	0
102	0
103	5
104	11
105	9
106	4
107	1
109	6
110	0
111	0
112	0
115	4
116	4
117	5
118	10
119	12
120	7
121	26
123	151
124	9
125	0
128	0
129	1
130	4
131	2
132	2
133	0
134	0
138	0
140	0
141	0
142	1
143	1
144	3
145	2
146	3
147	1
148	0
157	3
158	2
159	1
160	0
161	0
164	0
167	0
169	0
170	2
171	11
172	12
173	6
174	1
175	0
180	2
181	0
182	3
183	0
184	0
185	1
186	0
187	0
188	2
189	1
190	0
191	0
193	0
196	0
197	0
198	2
199	39
200	6
201	13
202	72
203	9
204	1
207	0
214	0
216	31
217	3
218	0
237	0
261	1
262	0
265	0
274	0
278	0
291	6
292	11
293	135
294	27
295	2
