Mass Spectrum: 5-Carboxy-2,4-dihydroxypyrimidine
Formula: C5H4N2O4
CAS: 23945-44-0
Molecular weight: 156
m/z	intensity
41	202
42	217
43	68
44	144
45	78
52	97
53	143
54	10
55	10
67	83
68	263
69	303
70	102
84	132
85	180
86	67
96	33
112	999
113	53
139	42
140	4
156	128
157	11
