Mass Spectrum: Carbonic acid, monoamide, N-(2-fluorophenyl)-, ethyl ester
Formula: C9H10FNO2
CAS: 2395-34-8
Molecular weight: 183
m/z	intensity
26	3
27	40
29	192
30	3
31	4
38	3
39	9
41	3
43	2
44	3
45	24
50	4
51	5
52	4
56	2
57	41
58	2
62	4
63	16
64	22
65	6
68	2
69	4
74	2
75	20
76	2
77	67
78	5
81	10
82	25
83	175
84	76
85	4
89	5
90	22
91	48
92	4
94	4
95	14
96	5
97	13
104	2
107	2
108	4
109	42
110	104
111	999
112	69
118	3
121	10
122	10
123	8
124	666
125	53
136	5
137	73
138	97
139	16
141	2
154	9
155	7
156	3
183	760
184	77
185	5
