Mass Spectrum: 1H-1,5-Benzodiazepine-2,4(3H,5H)-dione, 1,5-dimethyl-
Formula: C11H12N2O2
CAS: 23954-54-3
Molecular weight: 204
m/z	intensity
33	29
34	3
35	0
37	47
38	127
39	309
40	115
42	999
43	47
44	16
45	4
50	225
51	445
52	181
53	57
54	31
55	23
56	16
58	17
59	6
60	6
61	22
62	68
63	205
64	205
65	406
66	151
67	43
69	165
70	4
71	2
72	0
73	14
74	41
75	63
76	134
77	417
78	219
79	73
80	20
81	12
82	17
83	2
87	10
88	19
89	35
90	154
91	203
92	438
93	66
94	57
95	4
97	0
99	0
100	0
102	24
103	25
104	72
105	50
106	81
107	36
108	21
109	2
111	0
115	4
116	17
117	77
118	369
119	617
120	179
121	94
122	17
123	21
124	1
125	0
128	1
129	7
130	10
131	59
132	100
133	337
134	113
135	219
136	44
137	2
144	43
145	254
146	95
147	278
148	64
149	10
150	0
158	12
159	98
160	290
161	649
162	708
163	349
164	32
165	2
172	1
173	9
174	5
175	11
176	22
177	1
185	0
186	42
187	237
188	31
189	8
190	30
191	3
203	176
204	845
205	109
206	10
