Mass Spectrum: 1-Propanol, 3,3'-oxybis-
Formula: C6H14O3
CAS: 2396-61-4
Molecular weight: 134
m/z	intensity
30	23
31	958
35	11
36	67
37	5
38	27
39	94
40	27
41	423
42	205
43	278
44	34
45	600
46	16
55	12
57	124
58	214
59	999
60	55
61	21
71	5
72	12
75	14
87	14
89	12
101	9
103	267
104	12
