Mass Spectrum: 1-Methyl-4-acetylaminomethyl-1,2,3,6-tetrahydropyridine
Formula: C9H16N2O
CAS: 23969-82-6
Molecular weight: 168
m/z	intensity
41	156
42	537
43	549
44	361
45	28
46	4
47	37
48	17
52	23
53	92
54	40
55	55
56	39
57	23
58	35
59	169
60	24
61	1
62	1
63	4
64	2
65	34
66	22
67	75
68	73
69	19
70	31
71	8
72	24
73	3
74	1
77	15
78	11
79	32
80	76
81	93
82	166
83	363
88	14
91	4
92	16
93	37
94	246
95	39
96	997
97	74
98	14
99	1
100	2
106	13
107	53
108	340
109	999
110	134
111	9
112	5
121	3
122	4
123	17
124	40
125	12
126	5
127	0
137	3
138	0
149	2
150	3
151	1
165	5
166	1
167	28
168	43
169	7
170	6
