Mass Spectrum: 2H-Pyran-2,3-diol, tetrahydro-, diacetate, cis-
Formula: C9H14O5
CAS: 2396-74-9
Molecular weight: 202
m/z	intensity
41	30
42	30
43	999
44	40
55	20
71	290
72	20
83	10
84	10
86	10
100	60
101	20
131	20
143	70
