Mass Spectrum: 1-Methyl-1,2,3,6-tetrahydro-4-[1-acetylaminoethyl]pyridine
Formula: C10H18N2O
CAS: 23969-84-8
Molecular weight: 182
m/z	intensity
41	126
42	511
43	614
44	654
45	101
46	4
47	7
48	2
52	22
53	87
54	34
55	47
56	34
57	34
58	46
59	254
60	98
61	4
63	3
64	0
65	22
66	15
67	45
68	36
69	18
70	36
71	9
72	17
73	4
77	26
78	15
79	51
80	82
81	85
82	128
83	19
84	38
85	0
86	55
87	3
88	6
91	10
92	11
93	25
94	158
95	35
96	999
97	164
98	52
99	4
100	0
104	2
105	7
106	19
107	81
108	146
109	73
110	29
111	4
112	9
113	2
114	5
119	0
120	22
121	36
122	281
123	620
124	112
125	11
126	18
127	2
135	1
136	4
137	47
138	30
139	6
140	4
141	1
149	3
150	0
151	17
152	1
153	0
164	24
165	7
167	3
180	3
181	13
182	21
183	2
184	0
