Mass Spectrum: 1,3,5-Trioxane, 2,4,6-tripropyl-
Formula: C12H24O3
CAS: 2396-43-2
Molecular weight: 216
m/z	intensity
25	5
27	74
28	1
29	47
30	1
31	48
33	0
36	0
37	0
38	1
39	21
40	12
41	72
42	13
43	183
44	34
45	13
46	0
47	0
50	0
51	0
52	0
53	3
54	2
55	474
56	19
57	34
58	2
59	0
60	18
61	0
62	0
63	0
65	0
67	0
68	0
69	2
70	5
71	186
72	46
73	999
74	36
75	2
76	0
77	0
78	0
81	0
82	0
83	0
84	0
85	0
86	0
87	1
88	1
89	0
90	0
91	0
97	0
98	0
99	1
100	0
101	3
102	0
104	0
111	0
113	0
114	0
115	0
116	1
117	0
118	0
119	0
125	0
127	0
128	0
129	0
130	0
131	0
132	0
142	0
143	50
144	5
145	182
146	20
147	1
159	0
160	0
173	49
174	5
175	0
215	10
216	1
217	0
