Mass Spectrum: 1,2-Cyclohexanol diacetate, cis-
Formula: C10H16O4
CAS: 2396-76-1
Molecular weight: 200
m/z	intensity
26	1
27	25
29	10
30	0
31	7
33	0
37	0
38	0
39	25
40	2
41	49
42	17
43	999
44	21
45	2
47	0
50	0
51	1
52	0
53	5
54	7
55	18
56	4
57	14
58	4
59	0
60	0
61	58
62	1
63	1
65	1
66	1
67	46
68	5
69	39
70	48
71	5
72	3
73	4
74	1
77	2
78	2
79	41
80	26
81	18
82	43
83	37
84	2
85	1
86	2
87	2
91	0
94	1
95	0
96	3
97	114
98	263
99	27
100	4
101	1
102	0
103	1
104	0
105	0
111	1
112	13
113	2
114	0
115	10
116	3
117	0
121	0
122	0
125	0
129	0
130	0
135	0
140	24
141	3
142	0
143	0
156	0
157	4
158	4
159	0
181	0
