Mass Spectrum: Cyclohexanone, 4-(benzoyloxy)-, oxime
Formula: C13H15NO3
CAS: 23968-54-9
Molecular weight: 233
m/z	intensity
41	140
42	30
43	20
44	170
45	10
47	10
49	10
50	80
51	170
52	50
53	60
54	80
55	100
56	30
57	30
58	10
62	10
63	20
64	10
65	40
66	120
67	110
68	60
69	20
70	10
74	30
75	20
76	30
77	460
78	70
79	70
80	40
81	70
82	20
83	30
91	30
92	30
93	120
94	150
95	200
96	100
97	10
103	10
104	20
105	999
106	90
107	20
109	10
110	40
111	470
112	50
115	20
117	40
118	30
122	250
123	180
124	20
128	10
133	30
135	10
143	10
162	10
199	10
215	20
216	10
217	10
