Mass Spectrum: 4-Hexenoic acid, methyl ester
Formula: C7H12O2
CAS: 2396-79-4
Molecular weight: 128
m/z	intensity
27	380
28	50
29	269
30	15
31	48
33	11
34	3
36	2
37	18
38	47
39	512
40	82
41	961
42	146
43	450
44	22
45	40
48	1
49	4
50	28
51	48
52	25
53	206
54	113
55	786
56	43
57	25
58	8
59	287
60	10
61	9
62	9
63	14
64	3
65	32
66	25
67	276
68	999
69	696
70	39
71	160
72	15
73	8
74	837
75	27
76	2
77	2
78	0
79	4
81	72
82	4
83	4
84	2
85	52
86	11
87	67
88	3
95	31
96	138
97	293
98	20
99	10
100	15
101	1
111	5
113	76
114	4
127	4
128	345
129	26
130	1
