Mass Spectrum: 4-Acetylaminomethylpyridine
Formula: C8H10N2O
CAS: 23974-15-4
Molecular weight: 150
m/z	intensity
41	38
42	79
43	952
44	44
45	11
46	2
47	3
48	2
49	35
50	134
51	339
52	196
53	167
54	30
55	12
56	5
57	1
58	3
59	4
60	5
61	5
62	13
63	57
64	31
65	136
66	16
67	13
68	6
69	1
70	1
71	1
72	10
73	0
74	3
75	10
76	14
77	16
78	145
79	417
80	521
81	35
82	2
83	1
84	15
85	1
86	9
87	1
88	2
89	4
90	3
91	8
92	144
93	32
94	7
95	3
96	6
97	1
99	0
100	1
102	1
103	1
104	4
105	48
106	54
107	999
108	530
109	866
110	56
111	3
113	0
121	5
122	15
123	26
124	5
126	0
134	2
135	11
136	1
137	1
138	0
139	0
149	67
150	971
151	174
152	12
153	0
