Mass Spectrum: O-[N-p-Tolylsulfonylcarbamyl]-3-tropanone oxime
Formula: C16H21N3O4S
CAS: 23979-32-0
Molecular weight: 351
m/z	intensity
41	284
42	672
43	68
44	134
45	34
46	27
47	5
48	57
49	11
50	121
51	186
52	103
53	124
54	127
55	138
56	100
57	77
58	28
59	59
60	7
61	21
62	80
63	242
64	103
65	487
66	54
67	104
68	72
69	32
70	61
71	12
72	3
73	32
74	25
75	21
76	22
77	156
78	66
79	78
80	108
81	119
82	999
83	88
84	17
85	15
86	16
87	12
88	9
89	151
90	106
91	828
92	82
93	25
94	91
95	32
96	215
97	32
98	12
102	3
103	10
104	21
105	84
106	96
107	122
108	268
109	50
110	8
111	9
115	5
117	8
118	8
119	15
120	22
121	14
122	22
123	13
124	5
125	12
126	17
131	3
132	6
133	31
134	1
135	14
136	18
137	87
138	9
139	17
149	1
150	2
153	14
154	64
155	185
156	14
157	9
159	1
161	3
162	2
163	1
164	5
165	101
166	10
169	1
170	1
171	48
172	5
173	2
197	63
198	6
199	4
229	3
251	2
351	0
