Mass Spectrum: 3-Pyridinecarbonitrile, 1,4-dihydro-
Formula: C6H6N2
CAS: 23974-91-6
Molecular weight: 106
m/z	intensity
25	3
26	31
27	52
28	114
29	5
37	22
38	27
39	35
40	12
41	16
42	7
43	3
49	13
50	63
51	166
52	126
53	55
54	16
55	5
57	3
61	3
62	5
63	10
64	17
65	7
66	3
75	17
76	31
77	36
78	180
79	23
80	23
103	18
104	25
105	999
106	383
107	26
