Mass Spectrum: Tris(ethylenimino)methane
Formula: C7H13N3
CAS: 23974-29-0
Molecular weight: 139
m/z	intensity
26	109
27	258
28	861
29	306
30	88
31	11
38	40
39	72
40	163
41	531
42	999
43	544
44	158
45	10
53	61
54	160
55	11
56	248
57	40
58	48
67	35
68	126
69	90
70	560
71	69
72	7
83	77
84	7
97	880
98	125
99	8
138	11
139	2
