Mass Spectrum: 2-Propenamide, 3-ethoxy-N-phenyl-
Formula: C11H13NO2
CAS: 23980-91-8
Molecular weight: 191
m/z	intensity
24	0
26	6
27	28
28	4
29	47
30	1
31	4
37	2
38	11
39	41
40	8
41	9
42	9
43	64
44	2
45	4
46	0
47	0
50	8
51	32
52	11
53	5
54	7
55	9
56	0
57	0
58	0
59	0
60	0
61	1
62	4
63	17
64	20
65	96
66	34
67	4
68	1
69	21
70	3
71	999
72	30
73	4
74	2
75	2
76	2
77	53
78	8
79	5
80	0
83	0
88	0
89	2
90	3
91	14
92	30
93	512
94	38
95	1
97	0
98	1
99	596
100	32
101	4
103	0
104	5
105	2
106	17
107	2
116	2
117	2
118	1
119	2
120	10
121	0
128	2
129	0
130	0
132	1
133	3
134	5
135	1
144	1
145	1
146	2
147	3
148	1
149	0
162	4
173	0
176	1
191	169
192	22
193	2
