Mass Spectrum: 5-(2-Thienyl)cyclohexane-1,3-dione
Formula: C10H10O2S
CAS: 23994-65-2
Molecular weight: 194
m/z	intensity
34	2
37	4
38	15
39	130
40	25
41	41
42	130
43	45
44	4
45	136
46	6
47	7
48	0
49	2
50	19
51	41
52	11
53	28
54	2
55	15
56	172
57	20
58	44
59	10
60	4
61	9
62	22
63	28
64	6
65	87
66	100
67	9
69	73
70	12
71	32
72	1
74	4
75	4
77	61
78	16
79	29
80	1
81	8
82	13
83	15
84	150
85	14
86	5
87	1
88	0
89	7
90	4
91	67
92	45
93	6
95	10
96	7
97	72
98	7
99	3
105	0
106	0
107	4
108	12
109	148
110	999
111	100
112	47
113	8
115	0
118	0
121	10
122	1
123	31
124	70
125	10
126	3
127	2
131	0
133	6
135	10
137	537
138	51
139	30
140	1
147	2
148	8
149	5
150	1
151	21
152	23
153	4
161	6
165	9
166	134
167	15
168	6
176	2
179	0
194	605
195	67
196	29
197	2
