Mass Spectrum: (1-Fluoro-2,2-bistrifluromethyl)vinyl-diisopropylphosphine
Formula: C10H14F7P
CAS: 24008-11-5
Molecular weight: 298
m/z	intensity
39	19
41	100
42	20
43	999
44	30
69	20
78	20
110	20
229	30
256	19
297	20
298	99
299	29
