Mass Spectrum: 2(1H)-Pyridinone, 3-(phenylmethoxy)-1-(phenylmethyl)-
Formula: C19H17NO2
CAS: 24016-11-3
Molecular weight: 291
m/z	intensity
26	2
27	2
38	4
39	43
40	3
41	14
50	5
51	18
52	6
53	6
54	11
55	2
62	4
63	21
64	7
65	122
66	11
67	3
75	1
76	1
77	8
78	3
79	3
80	1
81	7
89	29
90	16
91	999
92	86
93	3
94	7
95	1
103	1
104	8
105	3
107	1
109	6
115	11
116	4
117	4
118	1
122	19
123	1
127	4
128	3
129	2
142	2
143	7
144	19
145	2
154	4
155	1
165	1
166	1
167	5
168	3
170	1
171	1
172	34
173	4
179	1
180	13
181	8
182	2
184	11
185	17
186	7
198	1
200	102
201	14
202	1
214	3
272	1
273	6
274	1
290	2
291	77
292	16
293	2
