Mass Spectrum: Dispiro[1,3-dioxolane-2,2'-bicyclo[2.2.1]heptane-3',2''-(1'',3''-dioxolane)], 4',7',7'-trimethyl-
Formula: C14H22O4
CAS: 24022-14-8
Molecular weight: 254
m/z	intensity
26	7
27	61
28	31
29	40
30	1
31	2
37	0
38	1
39	51
40	6
41	249
42	19
43	47
44	13
45	34
46	1
47	0
50	1
51	6
52	6
53	46
54	14
55	212
56	10
57	3
59	1
60	0
61	0
62	0
63	2
64	0
65	12
66	7
67	60
68	16
69	148
70	8
71	1
72	0
73	51
74	1
75	0
76	2
77	21
78	5
79	24
80	5
81	17
82	8
83	43
84	2
85	1
86	9
87	5
89	2
90	1
91	14
92	2
93	10
94	4
95	30
96	4
97	9
98	3
99	861
100	53
101	5
103	1
105	2
106	1
107	6
108	2
109	12
110	3
111	4
112	11
113	999
114	73
115	7
116	0
117	0
119	1
121	2
122	1
123	4
124	0
125	2
126	16
127	97
128	8
129	0
133	0
135	1
136	0
137	4
138	1
139	7
140	12
141	94
142	9
143	0
151	3
152	0
153	6
154	4
155	25
156	2
157	4
159	5
165	1
166	1
167	17
168	2
170	19
171	10
172	2
179	2
181	6
182	18
183	2
184	0
185	0
186	0
193	0
194	0
196	0
209	2
210	0
211	2
212	0
224	0
239	9
240	1
254	13
255	2
