Mass Spectrum: Lanosta-7,9(11),20-triene-3.beta.,18-diol, diacetate
Formula: C34H52O4
CAS: 24041-73-4
Molecular weight: 524
m/z	intensity
41	177
42	16
43	999
44	20
45	20
50	8
51	4
53	28
54	8
55	289
56	28
57	186
58	12
59	8
60	16
61	4
65	12
66	8
67	111
68	24
69	413
70	37
71	107
72	12
73	12
77	28
78	8
79	78
80	16
81	190
82	66
83	227
84	24
85	45
86	4
91	90
92	20
93	119
94	28
95	214
96	33
97	247
98	24
99	16
100	8
103	8
104	12
105	132
106	24
107	132
108	33
109	140
110	20
111	70
112	8
113	8
115	20
116	12
117	53
118	33
119	124
120	24
121	95
122	33
123	107
124	12
125	12
126	4
127	16
128	33
129	74
130	45
131	148
132	41
133	99
134	24
135	90
136	16
137	28
138	8
139	12
140	4
141	62
142	62
143	152
144	95
145	165
146	37
147	53
148	16
149	28
150	8
151	8
152	12
153	24
154	20
155	136
156	86
157	152
158	66
159	90
160	20
161	33
162	8
163	12
164	4
165	20
166	16
167	41
168	37
169	186
170	70
171	128
172	33
173	53
174	12
175	20
176	8
177	12
178	12
179	24
180	16
181	70
182	41
183	173
184	57
185	95
186	24
187	33
188	8
189	12
190	4
191	12
192	12
193	33
194	20
195	90
196	41
197	148
198	49
199	53
200	16
201	20
202	8
203	20
204	8
205	8
206	8
207	37
208	20
209	82
210	28
211	70
212	41
213	12
214	12
215	28
216	12
217	41
218	12
219	12
220	12
221	41
222	16
223	82
224	28
225	119
226	37
227	49
228	20
229	16
230	8
231	8
232	4
233	8
234	8
235	37
236	20
237	66
238	33
239	78
240	24
241	33
242	12
243	20
244	4
245	4
247	8
248	4
249	28
250	12
251	99
252	49
253	90
254	41
255	152
256	37
257	24
258	4
259	8
261	4
263	53
264	16
265	33
266	20
267	37
268	24
269	99
270	28
271	20
272	4
273	8
275	12
276	8
277	41
278	20
279	37
280	16
281	53
282	49
283	24
284	12
285	33
286	12
287	16
288	20
289	8
291	74
292	28
293	49
294	20
295	70
296	24
297	45
298	33
299	16
300	37
301	12
302	8
303	8
305	12
307	20
308	8
309	24
310	4
311	62
312	144
313	252
314	128
315	128
316	28
317	8
319	33
320	12
321	41
322	12
323	24
324	12
325	41
326	24
327	12
328	12
329	20
330	8
331	8
332	4
333	16
334	8
335	24
336	16
337	20
338	24
339	24
340	8
341	16
342	8
347	12
348	8
349	12
350	4
351	74
352	28
353	49
354	16
355	90
356	28
357	4
361	12
362	8
363	12
364	4
365	8
366	8
367	4
368	8
369	8
370	12
371	4
372	8
373	4
374	8
375	4
376	12
377	12
378	12
379	57
380	24
381	28
382	12
383	8
388	8
389	194
390	70
391	148
392	49
393	28
394	12
395	8
403	4
404	16
405	24
406	8
407	62
408	24
409	24
410	8
411	140
412	41
413	24
421	8
422	4
423	4
435	4
436	8
437	4
449	276
450	99
451	371
452	124
453	53
454	12
463	4
464	247
465	90
466	45
467	20
468	4
509	24
510	4
511	4
524	140
525	49
526	45
527	8
