Mass Spectrum: Metofluthrin
Formula: C18H20F4O3
CAS: 240494-70-6
Molecular weight: 360
m/z	intensity
41	62
42	5
43	116
45	15
46	1
47	1
50	3
51	13
52	3
53	38
54	6
55	104
56	6
57	18
58	1
59	3
60	1
61	1
62	4
63	10
64	2
65	40
66	11
67	347
68	23
69	46
70	3
71	12
72	1
73	1
74	3
75	9
76	1
77	65
78	11
79	99
80	13
81	137
82	15
83	47
84	3
85	3
86	3
87	5
88	3
89	4
90	2
91	75
92	23
93	76
94	24
95	42
96	9
97	13
98	3
99	9
100	2
101	4
102	1
103	3
104	1
105	20
106	6
107	184
108	45
109	999
110	131
111	24
112	6
113	8
114	12
115	4
116	1
117	5
118	1
119	11
120	1
121	4
122	1
123	14
124	5
125	70
126	17
127	54
128	5
129	3
130	2
131	1
132	7
133	3
134	1
135	36
136	5
137	54
138	13
139	9
140	1
141	2
142	1
143	28
144	9
145	127
146	12
147	1
148	1
149	1
150	16
151	6
152	13
153	114
154	20
155	11
156	17
157	63
158	11
159	18
160	2
161	3
162	13
163	104
164	22
165	3
167	1
169	1
172	4
173	113
174	13
175	14
176	242
177	215
178	19
179	2
182	1
183	1
187	3
188	1
189	3
190	2
191	27
192	18
193	5
194	1
195	1
201	1
203	3
204	1
205	1
206	50
207	162
208	19
209	2
215	1
217	1
219	1
221	4
222	3
223	2
224	1
227	1
229	2
231	1
233	1
241	2
242	1
243	1
245	1
261	1
265	1
267	1
271	1
273	1
274	1
283	1
284	1
285	1
286	2
287	1
290	1
305	1
313	1
317	1
319	1
330	1
345	2
360	16
361	3
