Mass Spectrum: Lanostan-18-oic acid, 3.beta.,11.beta.-dihydroxy-, .gamma.-lactone, acetate
Formula: C32H52O4
CAS: 24041-80-3
Molecular weight: 500
m/z	intensity
41	366
42	39
43	999
44	29
45	19
53	49
54	9
55	455
56	49
57	356
58	19
59	19
60	9
61	9
65	19
66	9
67	217
68	49
69	643
70	49
71	168
72	19
77	59
78	19
79	207
80	59
81	405
82	148
83	247
84	29
85	39
86	9
91	178
92	39
93	326
94	108
95	475
96	89
97	138
98	19
99	9
103	19
104	9
105	267
106	69
107	366
108	108
109	326
110	49
111	59
112	9
113	9
115	19
116	9
117	59
118	29
119	257
120	99
121	316
122	168
123	247
124	39
125	49
126	9
127	19
128	19
129	29
130	19
131	138
132	39
133	217
134	138
135	386
136	207
137	108
138	29
139	59
140	9
141	19
142	9
143	39
144	19
145	148
146	39
147	217
148	59
149	138
150	39
151	39
152	178
153	49
154	9
155	19
156	9
157	39
158	19
159	128
160	39
161	207
162	39
163	59
164	19
165	39
166	29
167	19
169	19
170	9
171	59
172	19
173	138
174	49
175	227
176	287
177	108
178	19
179	29
180	9
181	19
183	19
185	39
186	19
187	99
188	49
189	118
190	39
191	59
192	29
193	247
194	49
195	29
197	29
199	49
200	29
201	49
202	39
203	59
204	19
205	59
206	29
207	29
208	9
209	9
211	19
212	19
213	49
214	29
215	59
216	19
217	39
218	19
219	39
220	29
221	29
222	9
223	19
225	19
226	9
227	29
228	9
229	29
230	9
231	29
232	19
233	39
234	29
235	59
236	29
237	227
238	49
239	39
240	19
241	59
242	19
243	49
244	39
245	79
246	19
247	29
248	9
249	29
250	19
251	39
252	19
253	9
255	29
256	19
257	39
258	29
259	59
260	29
261	29
262	59
263	29
264	89
265	39
266	19
267	29
268	19
269	39
270	19
271	39
272	19
273	79
274	29
275	29
277	19
281	29
282	19
283	267
284	79
285	118
286	49
287	297
288	326
289	108
291	19
295	19
297	19
299	29
300	9
301	29
302	29
303	19
304	19
305	19
309	19
310	9
311	79
312	39
313	39
314	19
315	19
316	19
317	19
318	19
319	19
320	9
325	19
326	9
327	69
328	19
329	29
330	19
331	19
333	19
337	9
339	19
341	29
342	19
343	574
344	158
345	49
346	19
347	465
348	168
349	39
355	19
356	9
357	19
358	19
359	19
360	9
369	19
370	49
371	148
372	69
373	29
379	59
380	19
381	49
382	19
384	9
385	69
386	9
387	29
395	19
396	9
397	108
398	39
399	9
407	19
411	9
415	9
425	376
426	118
427	19
429	19
439	39
440	207
441	99
442	19
443	9
454	29
455	69
456	39
457	9
467	19
482	19
485	247
486	79
487	9
500	316
501	108
502	9
