Mass Spectrum: Trimethylphosphine sulfide
Formula: C3H9PS
CAS: 2404-55-9
Molecular weight: 108
m/z	intensity
26	4
27	31
29	10
30	0
31	2
33	6
34	2
35	3
37	1
38	1
39	4
40	15
41	68
42	3
43	2
44	19
45	132
46	30
47	68
48	2
49	21
50	0
51	1
52	0
53	2
54	3
55	7
56	14
57	68
58	20
59	64
60	5
61	68
62	9
63	67
64	6
65	260
66	3
67	12
68	4
69	6
70	1
71	4
72	0
73	31
74	1
75	256
76	23
77	31
78	30
79	11
80	2
81	5
82	4
83	1
84	0
85	0
87	1
88	0
89	0
90	0
91	1
92	1
93	614
94	25
95	29
96	3
97	5
98	0
103	0
104	0
105	0
106	1
107	8
108	999
109	43
110	45
111	1
