Mass Spectrum: Propiophenone, 3-dimethylamino-2-dimethylaminomethyl-
Formula: C14H22N2O
CAS: 24042-89-5
Molecular weight: 234
m/z	intensity
33	0
34	0
37	1
38	5
39	24
40	15
41	55
42	217
43	53
44	61
45	8
46	1
48	0
49	2
50	21
51	56
52	6
53	5
55	41
56	34
58	999
59	35
60	0
61	0
62	1
63	3
64	1
65	2
66	1
67	2
68	8
69	4
70	14
71	3
72	1
74	6
75	5
76	15
77	131
78	13
79	3
80	1
81	2
82	11
84	220
85	13
86	4
87	0
88	0
89	1
90	1
91	6
92	0
93	0
94	0
95	0
96	1
98	18
99	1
101	0
102	2
103	5
104	10
105	108
106	9
107	0
108	0
110	0
111	0
112	1
113	0
114	0
115	5
116	1
117	1
118	0
119	0
120	0
121	0
122	1
124	0
127	1
128	0
129	1
130	1
131	4
132	5
133	6
134	0
135	0
141	0
142	0
143	1
144	2
145	2
146	2
147	0
148	0
150	0
155	0
157	12
158	16
159	2
160	3
161	0
162	0
165	0
167	0
169	0
170	0
171	2
172	9
174	18
176	314
177	34
178	2
179	0
