Mass Spectrum: Pyrrole, 1-[(.alpha.-methylbenzylidene)amino]-
Formula: C12H12N2
CAS: 24046-23-9
Molecular weight: 184
m/z	intensity
50	60
51	260
76	50
77	999
78	90
91	60
92	30
103	70
104	40
105	80
115	40
116	30
117	40
118	400
119	60
120	60
143	110
144	20
183	510
184	480
185	70
