Mass Spectrum: Lanosta-7,9(11)-diene-3.beta.,18,20-triol, 3,18-diacetate, (20R)-
Formula: C34H54O5
CAS: 24041-72-3
Molecular weight: 542
m/z	intensity
41	390
42	110
43	999
44	130
45	180
50	20
53	50
54	20
55	580
56	80
57	540
58	70
59	40
60	60
61	20
65	20
67	180
68	50
69	999
70	130
71	290
72	30
73	20
77	50
78	20
79	130
80	30
81	280
82	100
83	310
84	70
85	160
86	20
87	20
91	140
92	30
93	180
94	70
95	360
96	60
97	310
98	60
99	80
100	20
103	20
105	200
106	50
107	190
108	40
109	200
110	40
111	200
112	40
113	90
115	40
116	30
117	90
118	50
119	180
120	60
121	160
122	70
123	150
124	50
125	60
126	30
127	60
128	60
129	140
130	70
131	230
132	70
133	140
134	50
135	160
136	50
137	70
138	30
139	40
140	30
141	80
142	80
143	240
144	120
145	270
146	60
147	120
148	40
149	70
151	40
152	30
153	50
154	50
155	190
156	120
157	260
158	150
159	190
160	60
161	170
162	60
163	50
164	30
165	40
166	30
167	80
168	60
169	220
170	110
171	210
172	150
173	140
174	50
175	80
176	30
177	30
178	30
179	50
180	40
181	110
182	70
183	220
184	90
185	170
186	50
187	110
188	40
189	50
191	30
192	30
193	60
194	40
195	130
196	70
197	220
198	100
199	110
200	50
201	80
202	30
203	50
205	30
206	30
207	60
208	40
209	140
210	60
211	140
212	60
213	90
214	40
215	50
216	30
217	80
221	70
222	50
223	120
224	60
225	220
226	80
227	80
228	40
229	50
230	30
231	30
233	30
235	80
236	50
237	110
238	60
239	120
240	70
241	80
242	40
243	50
247	40
249	70
250	40
251	130
252	100
253	130
254	80
255	130
256	50
257	50
263	120
264	60
265	80
266	50
267	80
268	60
269	120
270	60
271	60
274	50
277	80
278	60
279	180
280	70
281	170
282	160
283	70
284	40
285	80
286	40
287	40
288	40
289	40
291	150
292	60
293	120
294	90
295	120
296	70
297	70
298	40
299	50
300	50
302	30
306	20
308	30
309	20
310	60
311	70
312	150
313	120
314	50
315	80
316	20
319	50
320	20
321	50
322	30
323	40
324	30
325	70
326	40
327	40
328	20
329	30
330	20
331	20
333	30
334	20
335	30
336	30
337	110
338	70
339	160
340	50
341	70
342	20
347	20
349	20
350	20
351	140
352	50
353	110
354	140
355	190
356	140
357	30
367	20
368	20
369	40
370	20
376	30
377	30
378	20
379	60
380	40
381	60
382	20
389	220
390	80
391	100
392	40
393	50
394	20
397	300
398	100
399	80
400	30
404	30
405	30
406	20
407	140
408	60
409	40
410	20
411	200
412	60
413	40
414	30
421	30
422	20
423	20
436	40
437	80
438	40
439	40
440	30
449	480
450	190
451	700
452	250
453	100
454	40
457	30
459	30
464	360
465	150
466	70
467	100
468	40
469	30
482	80
483	40
484	30
509	80
510	40
511	30
524	190
525	90
526	80
527	40
542	20
