Mass Spectrum: Pyrrolidin-2-one, 5-heptyl-
Formula: C11H21NO
CAS: 2405-92-7
Molecular weight: 183
m/z	intensity
41	99
42	24
43	36
44	26
45	3
47	0
48	1
49	2
50	1
51	2
52	1
53	7
54	12
55	40
56	41
57	11
58	1
59	2
60	2
61	1
64	1
65	2
66	2
67	7
68	4
69	11
70	5
71	3
72	1
73	1
77	2
78	1
79	2
80	2
81	4
82	6
83	15
84	999
85	48
86	4
87	0
91	1
93	1
94	1
95	2
96	2
97	6
98	5
99	2
100	1
105	0
106	1
107	0
108	0
109	1
110	6
111	2
112	1
113	1
119	0
121	1
122	0
123	1
124	3
125	1
126	1
127	1
128	3
129	0
138	2
139	1
140	1
141	1
143	0
149	0
150	0
152	1
153	1
154	1
155	1
161	0
164	1
166	1
168	1
169	0
180	1
181	2
182	3
183	53
184	8
185	1
