Mass Spectrum: Thiazolidine, 2-propyl-
Formula: C6H13NS
CAS: 24050-10-0
Molecular weight: 131
m/z	intensity
26	16
27	128
29	45
30	159
31	1
33	6
34	13
35	23
37	4
38	6
39	41
40	7
41	77
42	115
43	82
44	80
45	61
46	16
47	16
48	2
49	1
50	2
51	4
52	4
53	10
54	30
55	61
56	186
57	32
58	19
59	59
60	63
61	114
62	8
63	6
67	4
68	19
69	13
70	113
71	10
72	37
73	7
74	9
75	3
76	1
80	2
81	2
82	7
84	179
85	36
86	9
87	12
88	999
89	46
90	45
91	2
98	11
99	2
101	8
102	8
103	4
114	4
116	12
130	32
131	186
132	17
133	9
