Mass Spectrum: Thiazolidine, 2-methyl-
Formula: C4H9NS
CAS: 24050-16-6
Molecular weight: 103
m/z	intensity
25	28
27	619
28	146
29	4
30	234
32	21
33	80
34	218
35	104
36	14
37	8
38	31
39	49
40	41
41	274
42	465
43	133
44	858
45	242
46	85
47	43
48	20
51	9
52	7
53	4
54	84
55	36
56	999
57	595
58	130
59	264
60	248
61	166
62	17
63	9
64	11
66	2
67	8
68	26
69	65
70	45
71	7
72	4
73	12
74	48
75	18
76	10
79	4
85	16
86	17
87	2
88	541
90	23
99	28
100	7
101	44
102	100
103	796
104	43
105	40
