Mass Spectrum: 1-Chloro-1-methyl-1-silacyclopentane
Formula: C5H11ClSi
CAS: 2406-31-7
Molecular weight: 134
m/z	intensity
39	30
41	20
42	20
43	60
45	10
53	20
54	10
55	20
59	10
63	180
64	20
65	70
66	10
71	20
77	20
78	425
79	140
80	155
83	40
91	45
92	50
93	50
94	10
95	10
97	20
99	60
105	30
106	999
107	90
108	360
109	30
110	10
119	70
121	23
134	180
135	19
136	65
137	7
138	2
