Mass Spectrum: N-Acrylonitrylaziridine
Formula: C5H6N2
CAS: 2407-61-6
Molecular weight: 94
m/z	intensity
26	221
27	443
28	541
29	72
30	9
39	551
40	307
41	999
42	673
43	145
44	11
51	83
52	574
53	121
54	71
55	9
64	62
65	63
66	725
67	461
68	82
69	11
79	225
80	22
93	221
94	14
95	1
