Mass Spectrum: Cyclopropane, 1-bromo-1-chloro-2-fluoro-
Formula: C3H3BrClF
CAS: 24071-59-8
Molecular weight: 172
m/z	intensity
27	60
31	200
33	50
37	100
38	90
39	80
49	70
57	250
67	410
68	10
69	130
93	999
94	30
95	270
96	10
