Mass Spectrum: 3-Methylcyclopentyl acetate
Formula: C8H14O2
CAS: 24070-70-0
Molecular weight: 142
m/z	intensity
27	35
29	35
38	7
39	102
40	15
41	114
42	32
43	999
44	62
45	16
51	14
52	7
53	31
54	24
55	113
56	29
57	168
58	16
65	10
67	126
68	13
69	35
70	15
71	100
72	921
73	42
81	30
82	461
83	258
84	577
85	72
99	50
100	113
101	10
109	18
113	5
114	38
127	99
128	7
142	3
