Mass Spectrum: Bis(1-hydroxycyclohexyl) peroxide
Formula: C12H22O4
CAS: 2407-94-5
Molecular weight: 230
m/z	intensity
27	233
28	618
29	150
39	256
41	573
42	837
43	267
54	117
55	999
57	203
59	60
60	211
69	456
70	237
71	101
73	169
83	117
87	64
98	615
99	109
196	16
