Mass Spectrum: 3-Methyl-1-phenylthieno[2,3-c]pyrazole-5-carboxylic acid
Formula: C13H10N2O2S
CAS: 24086-27-9
Molecular weight: 258
m/z	intensity
36	5
37	64
38	99
39	165
40	34
41	22
42	129
43	22
44	29
45	402
46	3
47	3
49	24
50	223
51	681
52	92
53	33
54	3
57	26
58	66
59	23
60	2
61	23
62	51
63	111
64	64
65	38
66	40
68	9
69	187
70	38
71	11
73	9
74	63
75	64
76	88
77	999
78	78
79	5
80	11
81	37
82	28
83	15
84	23
85	22
86	142
87	11
88	14
89	10
91	20
92	6
93	29
94	94
95	69
96	43
97	3
99	8
100	8
101	6
102	7
103	29
104	175
105	14
106	3
107	8
108	6
109	7
110	31
111	10
112	7
113	7
114	31
115	4
116	3
117	4
118	15
121	35
125	4
127	13
128	213
129	42
135	7
136	17
137	22
139	3
140	7
146	5
153	3
160	9
161	10
162	9
170	3
171	11
172	37
173	20
174	4
175	4
181	27
186	10
187	7
188	5
199	7
200	5
211	11
212	30
213	93
214	12
215	4
217	7
240	5
241	12
257	331
258	704
259	123
260	43
261	6
