Mass Spectrum: 3-(2-Pyridylimino)[1,2,4]thiadiazolo[4,3-a]pyridine
Formula: C11H8N4S
CAS: 24097-57-2
Molecular weight: 228
m/z	intensity
33	11
34	24
36	144
37	5
38	1
39	157
40	5
41	1
42	110
43	3
44	8
45	1
46	93
47	11
48	2
49	13
50	63
51	402
52	111
53	22
55	15
56	41
57	1
58	137
59	12
60	1
63	17
64	57
65	32
66	20
67	1
68	1
69	14
70	51
71	16
72	17
73	3
74	2
75	1
76	25
78	999
79	34
80	5
81	1
83	18
84	13
85	2
86	260
87	12
88	1
89	1
90	1
91	3
92	37
93	3
94	1
95	1
96	1
97	1
100	18
101	42
104	2
105	12
106	1
107	1
112	1
113	14
114	88
115	11
116	2
122	1
123	7
124	260
125	14
135	5
136	176
137	64
138	5
139	1
170	14
227	153
228	328
229	50
230	16
