Mass Spectrum: Isoxazole, 3-(4-chlorophenyl)-5-phenyl-
Formula: C15H10ClNO
CAS: 24097-17-4
Molecular weight: 255
m/z	intensity
77	890
78	50
89	90
103	90
105	999
106	70
111	60
113	20
123	50
125	20
137	280
138	20
139	120
140	10
150	50
152	10
165	40
178	90
180	30
220	20
227	10
254	20
255	480
256	80
257	160
258	30
