Mass Spectrum: 1,3-Dioxolane-2-propanal, 2-methyl-
Formula: C7H12O3
CAS: 24108-29-0
Molecular weight: 144
m/z	intensity
41	80
42	40
43	940
44	50
45	100
53	20
54	10
55	110
56	30
57	70
58	20
59	20
69	10
70	20
71	60
72	20
73	100
83	20
84	100
85	220
86	30
87	999
88	40
99	20
116	20
129	260
130	20
