Mass Spectrum: 17-(1,5-Dimethylhexyl)-10,13-dimethyl-1,7,8,9,10,11,12,13,14,15,16,17-dodecahydrocyclopenta[a]phenanthren-4-one
Formula: C27H42O
CAS: 24116-50-5
Molecular weight: 382
m/z	intensity
32	11
39	33
40	9
41	464
42	50
43	999
44	29
51	2
53	37
54	6
55	368
56	46
57	380
58	18
59	2
65	18
66	7
67	222
68	45
69	144
70	17
71	97
72	3
77	61
78	14
79	105
80	17
81	123
82	21
83	106
84	10
85	14
91	213
92	51
93	126
94	55
95	190
96	26
97	47
98	3
99	2
100	4
103	15
104	4
105	241
106	52
107	138
108	52
109	55
110	3
111	11
115	13
116	13
117	47
118	14
119	123
120	45
121	154
122	126
123	66
124	7
125	8
127	11
128	14
129	56
130	12
131	50
132	24
133	120
134	27
135	146
136	17
137	6
141	24
142	11
143	9
144	11
145	52
146	8
147	108
148	21
149	21
150	2
151	3
152	2
153	4
154	2
155	11
156	9
157	95
158	33
159	144
160	18
161	16
162	5
163	15
165	4
167	2
169	3
170	2
171	58
172	22
173	72
174	11
175	9
176	2
177	2
178	2
179	2
183	5
185	23
186	7
187	26
188	3
189	5
191	4
193	4
194	2
195	2
196	2
197	5
198	4
199	16
200	13
201	23
202	2
205	6
206	6
207	10
209	8
211	6
212	2
213	35
214	16
215	5
219	2
226	2
227	110
228	30
229	9
230	4
241	28
242	5
243	15
246	5
247	97
248	22
255	5
256	2
261	14
269	35
270	7
312	2
367	68
368	23
382	137
383	51
384	9
