Mass Spectrum: Diallylphenylsilane
Formula: C12H16Si
CAS: 2412-32-0
Molecular weight: 188
m/z	intensity
39	26
41	40
43	91
53	57
55	40
67	18
68	5
69	31
79	60
80	9
81	52
91	28
93	27
103	16
104	8
105	999
106	161
107	190
108	19
110	87
111	6
119	42
120	10
121	43
143	16
145	103
146	50
147	522
148	98
149	26
188	41
