Mass Spectrum: Benzoic acid, cyclohexyl ester
Formula: C13H16O2
CAS: 2412-73-9
Molecular weight: 204
m/z	intensity
15	1
26	2
27	28
28	9
29	22
31	1
38	2
39	38
40	5
41	81
42	9
43	10
44	1
50	22
51	86
52	7
53	14
54	70
55	99
56	5
57	3
63	1
65	6
66	4
67	221
68	11
69	2
70	1
71	1
74	5
75	6
76	16
77	365
78	28
79	44
80	5
81	43
82	256
83	37
84	2
91	2
94	1
98	4
99	66
100	4
104	4
105	999
106	81
107	5
117	3
120	16
121	4
122	12
123	878
124	68
125	6
133	2
136	1
139	2
145	1
148	5
157	2
159	2
161	1
168	2
186	3
204	4
