Mass Spectrum: Tridecanoic acid, 3-methyl-, methyl ester
Formula: C15H30O2
CAS: 2412-84-2
Molecular weight: 242
m/z	intensity
41	248
42	63
43	248
44	21
45	7
53	14
54	14
55	219
56	56
57	156
58	14
59	85
60	7
61	7
62	7
63	7
65	7
66	7
67	21
68	14
69	120
70	21
71	63
72	14
73	63
74	999
75	191
76	14
77	7
79	7
80	7
81	21
82	7
83	56
84	21
85	35
86	7
87	70
88	14
95	14
96	7
97	35
98	21
99	14
101	624
102	49
103	7
105	14
109	7
110	2
111	19
112	14
113	7
114	4
115	17
116	4
121	2
123	2
124	2
125	9
126	5
127	4
129	14
130	2
135	4
137	2
139	5
140	2
141	1
143	11
157	19
158	5
167	2
168	5
171	5
185	17
186	2
199	21
200	5
211	21
212	5
227	1
228	2
241	5
242	5
