Mass Spectrum: Benzeneacetic acid, .alpha.-(aminocarbonyl)-.alpha.-ethyl-
Formula: C11H13NO3
CAS: 24130-91-4
Molecular weight: 207
m/z	intensity
39	150
41	140
44	220
51	140
63	90
65	110
77	160
78	150
79	70
89	70
91	999
103	80
104	70
105	60
115	80
117	70
119	170
120	130
135	160
163	100
191	10
