Mass Spectrum: 1,2-Dimethyl-4,4-diphenyl-2-imidazolin-5-one
Formula: C17H16N2O
CAS: 24133-92-4
Molecular weight: 264
m/z	intensity
51	35
56	999
77	55
82	125
83	85
118	70
132	30
133	45
159	30
164	25
165	125
166	90
180	15
207	55
235	100
236	30
263	15
264	310
265	70
