Mass Spectrum: Benzyl alcohol, 3,5-dibenzyloxy-
Formula: C21H20O3
CAS: 24131-31-5
Molecular weight: 320
m/z	intensity
41	20
42	2
43	6
44	1
45	2
49	1
50	9
51	27
52	8
53	7
54	1
55	10
56	1
57	2
61	1
62	5
63	30
64	10
65	178
66	15
67	3
68	1
69	7
70	0
71	1
73	0
74	1
75	2
76	2
77	15
78	3
79	3
80	0
81	3
82	2
83	2
84	0
85	0
86	0
87	0
88	0
89	28
90	15
91	999
92	105
93	4
94	1
95	1
96	0
97	1
102	0
103	1
104	0
105	13
106	1
107	1
109	0
110	0
111	1
115	5
116	0
117	0
121	1
122	1
123	2
124	0
125	0
126	0
127	1
128	3
129	3
131	2
132	0
139	1
140	6
141	4
142	1
143	1
144	0
145	0
151	1
152	4
153	4
154	1
155	3
156	0
157	0
165	4
166	1
167	3
168	1
169	1
170	0
171	3
172	0
178	0
179	7
180	28
181	94
182	14
183	5
184	0
187	0
195	0
197	2
199	3
200	1
201	0
210	1
211	13
212	1
213	0
225	0
227	1
228	0
229	7
230	3
231	0
289	12
290	3
301	0
302	0
303	1
304	0
318	0
319	0
320	115
321	28
322	3
