Mass Spectrum: 3,5-Dimethoxy-4-hydroxyphenethylamine
Formula: C10H15NO3
CAS: 2413-00-5
Molecular weight: 197
m/z	intensity
14	6
15	59
16	2
17	3
18	9
26	6
27	38
28	94
29	2
30	999
31	23
33	1
37	4
38	18
39	89
40	17
41	22
42	21
43	30
44	78
45	4
46	2
49	2
50	28
51	52
52	43
53	94
54	15
55	25
56	3
57	5
58	4
59	3
61	3
62	9
63	27
64	37
65	55
66	62
67	39
68	11
69	19
70	3
71	3
74	4
75	7
76	15
77	47
78	64
79	45
80	21
81	35
82	13
83	4
85	13
89	4
90	6
91	13
92	23
93	23
94	31
95	17
96	7
97	8
98	1
104	5
105	12
106	51
107	50
108	14
109	11
110	21
111	6
118	2
119	3
120	13
121	16
122	68
123	79
124	23
125	58
126	5
132	3
133	2
134	12
135	12
136	18
137	43
138	17
139	5
148	4
149	7
150	4
151	18
152	4
153	141
154	13
155	1
164	2
165	6
167	308
168	646
169	69
170	5
180	5
181	3
195	2
197	102
198	11
199	2
