Mass Spectrum: Butanamide, N-(4-methylphenyl)-3-oxo-
Formula: C11H13NO2
CAS: 2415-85-2
Molecular weight: 191
m/z	intensity
14	3
15	23
18	1
26	4
27	28
28	9
29	2
30	4
31	5
37	2
38	7
39	45
40	7
41	13
42	11
43	295
44	7
45	1
50	15
51	43
52	34
53	23
54	6
55	4
57	2
58	14
59	1
61	1
62	5
63	17
64	8
65	37
66	6
67	3
69	7
73	1
74	2
75	3
76	7
77	115
78	47
79	63
80	12
81	2
84	1
85	31
86	2
87	1
88	2
89	9
90	7
91	47
92	6
93	5
102	2
103	3
104	30
105	29
106	476
107	999
108	85
109	3
116	1
117	1
118	3
119	2
120	12
121	1
130	2
131	2
132	24
133	266
134	29
135	2
146	2
147	2
148	12
149	4
158	2
162	1
189	2
190	2
191	382
192	52
193	5
