Mass Spectrum: Bicyclo[4.1.0]octane, 7,7-dichloro-1-methyl-
Formula: C8H12Cl2
CAS: 2415-76-1
Molecular weight: 178
m/z	intensity
35	9
36	35
37	19
38	59
39	604
40	116
41	685
42	46
43	35
44	7
45	8
46	2
47	7
49	28
50	87
51	260
52	74
53	236
54	86
55	317
56	30
57	3
58	1
60	4
61	27
62	31
63	95
65	361
66	73
67	695
68	999
69	327
70	15
71	2
73	64
74	17
75	87
76	17
77	351
78	64
79	399
80	45
81	113
82	298
83	30
84	6
85	31
86	9
87	132
88	17
89	74
91	398
92	44
93	56
95	202
96	18
97	4
98	5
99	46
100	22
101	222
102	72
103	81
104	23
105	55
106	22
107	425
108	39
109	60
110	19
111	41
112	21
113	72
114	25
115	74
116	14
117	16
118	2
121	5
122	375
123	69
124	227
125	50
126	41
127	103
128	9
129	33
130	1
131	0
135	13
136	162
137	24
138	99
139	13
140	14
141	5
142	29
143	200
144	27
145	59
146	5
149	63
150	9
151	35
152	4
153	5
162	0
163	77
164	6
165	48
166	2
167	7
178	54
179	5
180	34
181	2
182	4
