Mass Spectrum: Bicyclo[4.1.0]heptane, 7,7-dibromo-
Formula: C7H10Br2
CAS: 2415-79-4
Molecular weight: 252
m/z	intensity
25	2
26	35
27	188
29	78
30	0
36	0
37	18
38	58
39	397
40	61
41	179
42	19
43	4
44	2
45	23
46	14
49	6
50	52
51	134
52	52
53	125
54	41
55	259
56	12
60	0
61	9
62	20
63	45
64	15
65	180
66	109
67	331
68	999
69	57
70	1
73	2
74	3
75	4
76	3
77	199
78	46
79	101
80	12
81	63
82	8
83	0
84	1
85	5
86	4
87	4
89	8
90	3
91	135
92	27
93	492
94	74
95	6
104	2
105	6
106	2
107	7
108	0
109	2
116	1
117	16
118	3
119	32
120	2
121	17
129	3
130	2
131	56
132	11
133	56
134	9
135	1
143	6
144	13
145	13
146	15
147	7
148	2
155	0
157	3
158	2
159	4
160	1
161	0
166	4
168	5
170	3
171	9
172	5
173	81
174	11
175	79
176	7
184	0
186	2
188	1
197	14
198	2
199	28
200	2
201	13
208	1
209	0
210	93
211	12
212	188
213	19
214	88
215	9
223	0
225	1
226	1
227	0
250	0
251	3
252	12
253	4
254	18
255	3
256	9
257	0
