Mass Spectrum: 2-Aziridinone, 1-tert-butyl-3-(1-methylcyclopentyl)-
Formula: C12H21NO
CAS: 24161-48-6
Molecular weight: 195
m/z	intensity
37	40
38	80
39	480
40	130
41	970
42	350
43	999
44	60
45	20
47	40
50	40
51	100
52	100
53	150
54	80
55	660
56	170
57	810
58	370
59	80
60	30
63	30
65	50
66	70
67	260
68	570
69	90
70	80
71	100
72	20
77	90
78	20
79	100
80	30
81	400
82	80
83	710
84	300
85	300
91	40
93	30
94	40
95	230
96	380
97	60
98	20
105	50
110	40
111	20
112	130
113	20
115	20
121	20
124	20
126	100
127	20
138	30
139	130
140	30
152	100
153	20
167	50
168	10
179	20
180	40
195	180
196	50
