Mass Spectrum: 2-Aziridinone, 1-tert-butyl-3-(1-methylcyclohexyl)-
Formula: C13H23NO
CAS: 24161-49-7
Molecular weight: 209
m/z	intensity
40	70
41	350
42	100
43	250
44	20
45	10
50	20
51	80
52	40
53	130
54	100
55	999
56	100
57	230
58	100
59	20
63	20
64	10
65	40
66	20
67	120
68	150
69	120
70	60
71	80
72	20
77	50
78	20
79	50
80	20
81	100
82	90
83	70
84	90
85	20
86	20
91	20
93	40
94	30
95	60
96	40
97	780
98	80
99	90
106	10
108	50
109	30
110	60
111	10
112	20
114	10
115	10
123	30
124	60
125	10
126	120
127	20
138	5
139	10
140	1
152	10
153	3
166	52
167	12
180	6
181	15
182	1
194	1
209	16
210	2
