Mass Spectrum: diazoadamantane
Formula: C10H14N2
CAS: 24175-02-8
Molecular weight: 162
m/z	intensity
39	720
40	140
41	480
51	210
52	140
53	280
54	70
55	70
63	100
65	280
66	140
67	170
77	620
78	280
79	620
80	310
91	999
92	690
93	520
105	340
106	240
107	30
119	240
120	30
134	140
135	20
