Mass Spectrum: 6-Azabicyclo[3.2.1]octane, 6-methyl-
Formula: C8H15N
CAS: 24173-54-4
Molecular weight: 125
m/z	intensity
39	95
41	95
42	177
43	20
44	52
53	29
54	31
55	41
56	27
67	31
68	20
70	20
80	14
81	12
82	999
83	66
94	33
96	93
97	20
125	97
126	33
