Mass Spectrum: 5.alpha.,14.beta.-Androstane, 16.alpha.,17.alpha.-epoxy-
Formula: C19H30O
CAS: 24174-25-2
Molecular weight: 274
m/z	intensity
25	12
27	197
28	44
29	408
30	16
31	37
39	328
40	81
41	909
42	95
43	460
44	31
45	49
50	8
51	51
52	40
53	425
54	144
55	921
56	98
57	158
58	16
59	52
60	24
61	11
63	16
64	15
65	206
66	104
67	913
68	282
69	423
70	57
71	75
72	26
73	43
74	15
75	18
76	13
77	427
78	116
79	788
80	292
81	922
82	398
83	342
84	104
85	49
87	30
88	15
89	12
91	664
92	173
93	767
94	360
95	907
96	297
97	345
98	61
99	16
100	11
101	17
102	12
103	67
104	52
105	594
106	301
107	642
108	597
109	999
110	568
111	116
112	24
113	11
114	18
115	75
116	29
117	174
118	66
119	421
120	917
121	793
122	493
123	293
124	83
125	26
127	13
128	49
129	94
130	50
131	411
132	108
133	386
134	310
135	606
136	251
137	155
138	38
139	11
141	33
142	18
143	79
144	36
145	342
146	455
147	899
148	641
149	796
150	247
151	122
152	29
153	12
155	22
156	12
157	55
158	21
159	187
160	269
161	393
162	231
163	354
164	606
165	188
166	67
167	15
169	11
171	49
172	27
173	166
174	69
175	148
176	75
177	74
178	87
179	25
183	11
185	75
186	57
187	87
188	47
189	207
190	159
191	72
192	17
193	12
199	96
200	38
201	259
202	78
203	320
204	109
205	27
213	45
214	19
215	139
216	94
217	327
218	71
219	19
227	98
228	34
229	130
230	607
231	178
232	127
233	25
241	563
242	104
243	53
244	11
245	118
246	33
255	13
256	497
257	92
258	27
259	293
260	73
261	20
272	9
273	26
274	380
275	72
276	12
