Mass Spectrum: 9-Thiabicyclo[3.3.1]non-6-en-2-one
Formula: C8H10OS
CAS: 24173-42-0
Molecular weight: 154
m/z	intensity
26	14
27	248
29	38
30	4
31	5
33	4
34	6
35	4
36	9
37	12
38	40
39	315
40	44
41	206
42	39
43	41
44	89
45	283
46	20
47	33
48	5
49	15
50	51
51	93
52	42
53	145
54	26
55	94
56	15
57	30
58	56
59	38
60	25
61	21
62	24
63	52
64	11
65	124
66	128
67	157
68	22
69	40
70	25
71	70
72	35
73	24
74	11
75	10
76	7
77	160
78	57
79	477
80	99
81	50
82	18
83	16
84	89
85	150
86	16
87	14
88	2
89	9
90	4
91	98
92	106
93	182
94	33
95	23
96	31
97	999
98	419
99	295
100	37
101	14
102	4
103	8
104	6
105	6
106	3
107	9
108	6
109	13
110	516
111	150
112	154
113	21
114	9
115	3
116	2
117	2
118	2
119	5
120	6
121	67
122	12
123	9
124	6
125	43
126	176
127	19
128	14
129	7
130	2
133	2
134	4
135	6
136	14
137	7
138	5
139	7
140	3
141	3
151	2
152	3
153	14
154	797
155	99
156	54
157	6
