Mass Spectrum: 4-(2-Dimethylaminoethoxy)benzonitrile
Formula: C11H14N2O
CAS: 24197-95-3
Molecular weight: 190
m/z	intensity
39	20
41	20
42	110
43	40
44	30
54	30
56	20
57	20
58	999
59	30
64	10
65	10
70	10
71	20
72	10
75	10
90	10
98	10
102	20
190	5
