Mass Spectrum: 1,4,8,11-Tetrathiacyclotetradecane
Formula: C10H20S4
CAS: 24194-61-4
Molecular weight: 268
m/z	intensity
26	3
27	11
28	6
29	3
32	10
34	2
35	6
39	12
40	2
41	136
42	9
43	5
44	14
45	92
46	61
47	37
48	3
49	2
51	1
53	6
54	1
55	10
57	1
58	7
59	56
60	70
61	149
62	7
63	6
64	38
65	3
66	4
67	19
68	2
69	19
70	1
71	7
72	22
73	159
74	148
75	55
76	9
77	6
78	25
79	7
80	2
81	15
82	1
83	1
84	4
85	30
86	31
87	99
88	9
89	10
90	2
91	16
92	14
93	5
94	2
95	2
97	2
98	1
99	17
100	54
101	94
102	16
103	11
104	6
105	121
106	999
107	332
108	107
109	28
110	4
111	1
113	11
114	1
115	4
116	1
117	2
118	5
119	70
120	62
121	20
122	6
123	2
124	1
125	1
126	2
127	8
128	1
129	1
130	9
131	2
132	7
133	367
134	448
135	98
136	43
137	7
138	6
139	3
146	2
147	24
148	8
149	5
150	1
160	9
161	22
162	5
163	2
165	18
166	8
167	28
168	12
169	4
170	1
175	1
179	4
180	3
181	20
182	6
183	3
184	1
193	7
194	3
195	1
196	2
203	2
207	23
208	6
209	4
210	1
212	2
220	1
222	1
224	1
240	30
241	4
242	6
252	4
254	3
268	621
269	89
270	116
271	14
272	9
273	1
