Mass Spectrum: (4R,4aR,7S,7aR)-4,7-Dimethylhexahydrocyclopenta[c]pyran-1(3H)-one
Formula: C10H16O2
CAS: 24190-27-0
Molecular weight: 168
m/z	intensity
27	45
29	49
30	3
38	8
39	181
40	34
41	303
42	37
43	63
45	8
50	13
51	39
52	23
53	134
54	65
55	192
56	92
57	59
59	9
60	3
65	64
66	38
67	628
68	161
69	320
71	18
72	3
73	8
74	2
77	78
79	159
80	61
81	792
82	184
83	46
84	7
85	19
86	8
87	9
95	296
96	48
97	25
98	9
99	7
100	51
108	66
109	109
110	55
111	217
112	22
113	999
114	115
122	38
123	146
124	23
125	102
126	182
127	110
128	9
135	36
138	5
139	34
140	20
150	14
151	20
153	417
154	42
167	16
168	49
