Mass Spectrum: Octadecanoic acid, 4-hydroxy-, methyl ester
Formula: C19H38O3
CAS: 2420-38-4
Molecular weight: 314
m/z	intensity
14	5
15	5
16	8
17	38
18	190
25	2
26	7
27	62
28	110
29	190
30	8
31	7
32	17
38	4
39	44
40	14
41	270
42	78
43	340
44	59
45	39
51	5
52	5
53	24
54	54
55	380
56	190
57	290
58	22
59	46
60	23
61	6
64	3
65	7
66	8
67	95
68	90
69	280
70	150
71	140
72	24
73	62
74	73
75	16
76	12
77	10
78	5
79	22
80	16
81	120
82	110
83	310
84	190
85	999
86	60
87	78
88	13
89	5
91	14
92	4
93	19
94	24
95	110
96	140
97	270
98	150
99	61
100	110
101	82
102	11
103	4
104	15
105	13
106	4
107	16
108	19
109	72
110	110
111	170
112	90
113	50
114	99
115	39
116	9
117	5
118	5
119	27
120	9
121	22
122	17
123	74
124	75
125	94
126	50
127	55
128	96
129	42
130	11
131	5
132	6
133	25
134	28
135	22
136	13
137	69
138	64
139	63
140	37
141	39
142	16
143	31
144	9
145	4
146	3
147	22
148	20
149	27
150	7
151	55
152	45
153	40
154	28
155	26
156	8
157	13
158	7
159	4
161	15
162	9
163	13
164	10
165	38
166	31
167	30
168	19
169	22
170	7
171	11
172	8
173	34
174	5
175	11
176	3
177	6
178	7
179	27
180	42
181	19
182	37
183	16
184	6
185	13
186	10
187	4
189	8
190	4
191	5
192	5
193	20
194	19
195	11
196	7
197	8
198	6
199	12
200	5
201	3
202	5
203	5
204	4
205	4
206	3
207	19
208	16
209	9
210	11
211	7
212	4
213	7
214	5
215	2
216	2
218	4
219	2
220	110
221	39
222	67
223	34
224	7
225	15
226	5
227	8
228	4
229	5
235	14
236	17
237	4
238	4
239	11
240	5
241	4
246	63
247	15
253	9
254	6
255	5
256	3
257	3
261	3
262	2
263	5
264	240
265	53
266	8
267	4
268	2
269	4
280	8
281	16
282	35
283	10
284	2
296	9
297	8
298	6
299	3
300	5
301	3
302	4
313	8
