Mass Spectrum: Octadecanoic acid, 3-hydroxy-, methyl ester
Formula: C19H38O3
CAS: 2420-36-2
Molecular weight: 314
m/z	intensity
25	1
26	0
27	5
28	25
29	109
30	3
31	12
33	10
37	8
38	2
39	25
41	228
42	55
43	440
45	18
48	0
51	2
52	2
53	12
54	23
55	223
56	38
57	144
58	21
59	44
60	13
61	101
62	2
65	6
66	2
67	55
68	46
69	121
70	43
71	220
72	14
73	7
74	205
75	58
76	6
77	2
78	5
79	14
80	10
81	31
82	51
83	81
84	59
85	48
86	1
87	44
88	4
91	8
92	3
93	0
94	6
95	43
96	51
97	76
98	35
99	6
100	13
101	44
102	4
103	999
104	46
105	7
106	0
107	2
108	3
109	21
110	36
111	44
112	18
113	20
114	14
115	12
116	36
117	29
121	6
123	16
124	10
125	10
126	6
127	7
128	9
129	16
133	6
135	8
137	7
138	8
139	6
140	6
141	18
143	8
152	12
153	13
154	2
155	8
166	6
167	5
179	8
180	9
182	5
183	1
199	8
200	1
204	6
222	14
223	0
239	5
254	6
255	0
264	19
265	2
