Mass Spectrum: Butanoic acid, 2-hydroximino-3-(4-pyridylcarbonylhydrazono)-, ethyl ester
Formula: C12H14N4O4
CAS: 242147-54-2
Molecular weight: 278
m/z	intensity
37	12
38	26
39	48
40	23
41	23
42	71
43	124
44	33
45	18
46	4
47	2
48	0
49	11
50	92
51	285
52	90
53	55
54	36
55	26
56	41
57	9
58	1
61	3
63	1
64	2
65	4
66	8
67	51
68	7
69	9
70	32
71	12
72	2
74	8
75	6
76	14
78	660
79	107
80	12
82	35
83	37
84	3
85	25
86	2
90	0
91	2
92	2
93	3
94	0
95	1
98	36
99	14
100	2
103	2
104	12
106	999
107	76
108	6
109	2
110	6
113	9
116	7
118	1
119	5
120	1
121	5
122	6
123	6
124	23
125	0
126	19
127	17
128	0
131	7
132	1
133	0
136	0
137	3
138	8
144	1
146	1
152	1
156	0
159	5
160	2
162	96
163	9
172	16
173	1
187	2
188	1
189	7
205	20
231	0
232	5
233	8
259	1
261	61
262	6
263	0
278	82
279	9
