Mass Spectrum: 2-Ethyl-cyclohexylamine
Formula: C8H17N
CAS: 24216-90-8
Molecular weight: 127
m/z	intensity
25	2
26	28
27	56
28	28
29	88
30	4
31	7
36	2
37	1
38	4
39	29
40	3
41	63
42	36
43	94
44	77
45	5
50	2
51	4
52	4
53	13
54	17
55	29
56	999
57	62
58	8
59	2
65	6
66	5
67	37
68	17
69	22
70	87
71	14
72	4
73	1
77	8
78	2
79	9
80	4
81	34
82	16
83	2
84	341
85	29
86	2
91	4
92	1
93	2
94	2
95	12
96	6
97	6
98	44
99	6
109	4
110	11
111	2
112	15
113	3
126	10
127	117
128	14
129	2
