Mass Spectrum: Card-20(22)-enolide, 2,3,14-trihydroxy-, (2.alpha.,3.beta.,5.alpha.)-
Formula: C23H34O5
CAS: 24211-63-0
Molecular weight: 390
m/z	intensity
39	171
41	683
42	145
43	507
44	191
45	114
53	243
54	114
55	709
56	129
57	326
65	145
66	88
67	533
68	139
69	481
70	145
71	176
72	119
73	207
77	321
78	88
79	533
80	171
81	595
82	145
83	259
84	207
85	999
86	88
91	538
92	119
93	538
94	171
95	538
96	145
97	238
98	569
99	119
105	673
106	171
107	414
108	207
109	347
110	165
111	896
112	119
117	207
118	134
119	326
120	207
121	347
122	155
123	285
124	533
125	165
126	466
129	145
131	248
132	119
133	248
134	119
135	285
136	119
137	155
143	150
144	88
145	481
146	155
147	253
148	119
149	290
150	119
151	88
153	150
154	72
157	139
159	202
160	171
161	202
162	88
163	481
164	145
165	88
171	119
172	103
173	150
175	119
176	119
177	165
178	248
179	145
181	145
185	196
187	77
189	77
190	114
191	108
195	580
196	217
197	82
199	82
200	88
201	709
202	150
203	82
219	518
220	119
229	124
230	62
231	88
233	25
234	20
235	28
236	25
237	39
238	14
239	22
240	7
241	17
242	13
243	19
244	50
245	35
246	17
247	41
248	31
249	38
250	14
251	14
253	11
255	23
256	11
257	32
258	12
259	13
260	10
261	14
262	63
263	22
264	11
265	29
266	48
267	22
268	11
269	17
270	11
271	11
273	13
275	58
276	17
277	14
279	14
280	66
281	22
282	16
283	19
284	17
285	17
286	10
287	5
288	11
289	10
291	8
293	17
294	11
295	22
296	11
297	17
298	14
299	15
300	11
301	15
302	22
303	22
304	11
306	15
307	11
308	11
309	11
310	8
311	20
312	8
313	20
314	7
315	11
316	15
317	8
321	54
322	17
323	7
325	11
326	14
327	11
328	14
329	11
331	8
334	20
335	8
336	56
337	22
338	8
339	90
340	24
341	10
342	10
343	10
344	17
346	11
353	17
354	237
355	68
356	17
357	133
358	37
359	7
368	11
370	15
371	5
372	312
373	88
374	17
375	8
386	22
387	8
388	12
390	31
391	10
