Mass Spectrum: 5.alpha.-Cardanolide, 3.beta.,14,19-trihydroxy-
Formula: C23H36O5
CAS: 24211-70-9
Molecular weight: 392
m/z	intensity
27	110
28	100
29	150
31	67
39	127
40	84
41	476
42	95
43	369
44	234
45	52
53	137
54	84
55	584
56	128
57	394
58	41
65	67
66	54
67	531
68	137
69	410
70	137
71	275
77	203
78	67
79	491
80	137
81	656
82	150
83	298
84	107
85	392
91	506
92	137
93	574
94	277
95	627
96	176
97	999
98	165
99	84
103	52
104	52
105	516
106	193
107	516
108	193
109	107
110	176
111	203
112	54
113	95
115	110
116	67
117	326
118	206
119	503
120	313
121	445
122	287
123	326
124	105
125	127
126	84
127	66
128	203
129	181
130	94
131	381
132	135
133	462
134	219
135	506
136	193
137	179
138	54
139	84
140	54
141	84
142	54
143	181
144	95
145	490
146	179
147	506
148	221
149	222
150	67
151	108
152	54
153	54
155	69
157	151
158	84
159	478
160	150
161	803
162	990
163	440
164	137
165	298
166	105
167	66
169	82
170	41
171	148
172	82
173	161
174	272
175	232
176	107
177	95
178	193
179	137
180	95
181	148
182	722
183	219
184	66
185	122
186	54
187	94
188	41
189	148
191	95
192	127
193	193
194	54
195	67
196	67
197	287
198	66
199	94
201	287
202	85
203	54
205	54
207	54
209	82
210	54
211	110
213	54
215	54
217	67
218	54
219	221
220	54
221	42
223	67
224	41
225	54
231	54
232	54
233	54
235	85
236	41
237	56
238	57
239	44
240	1
241	54
243	44
244	42
247	44
248	67
249	44
250	33
251	44
252	34
253	54
257	44
259	44
262	95
263	67
265	54
266	107
267	54
271	69
272	69
273	34
274	46
279	44
280	54
281	34
283	42
284	34
285	44
286	44
287	67
288	54
289	82
290	44
291	34
301	44
302	94
303	44
304	84
305	52
307	44
311	54
315	34
323	54
324	34
325	359
326	351
327	112
328	44
338	85
339	41
341	85
342	44
343	287
344	448
345	140
346	85
348	67
356	255
357	84
358	38
359	66
360	28
361	29
362	54
374	326
375	99
376	29
392	343
393	85
394	29
