Mass Spectrum: Bicyclo[2.2.1]heptan-2-one, 4,7,7-trimethyl-, semicarbazone
Formula: C11H19N3O
CAS: 24230-79-3
Molecular weight: 209
m/z	intensity
34	4
36	9
37	5
38	36
39	494
40	43
41	856
42	198
43	999
44	842
45	21
47	5
48	4
50	30
51	122
52	77
53	262
54	56
55	242
56	68
57	48
58	31
59	8
60	28
61	33
62	5
63	41
64	23
65	151
66	63
67	210
68	53
69	116
70	29
71	12
72	3
73	9
74	7
75	8
77	282
78	70
79	224
80	69
81	122
82	52
83	65
84	16
85	14
87	3
89	6
91	235
92	52
93	168
94	93
95	169
96	47
97	36
98	22
99	25
100	19
101	13
102	6
103	18
104	17
105	60
106	169
107	132
108	100
109	113
110	43
111	12
112	4
115	13
117	8
118	7
119	21
120	28
121	70
122	62
123	144
124	41
125	75
126	51
127	4
131	1
132	9
133	21
134	135
135	42
136	11
137	24
138	22
139	45
140	10
148	29
149	47
150	99
151	41
152	22
153	9
154	1
164	4
165	56
166	83
167	31
168	6
178	1
180	19
181	64
182	3
192	2
193	65
194	17
208	28
209	60
210	1
