Mass Spectrum: Tinoridine
Formula: C17H20N2O2S
CAS: 24237-54-5
Molecular weight: 316
m/z	intensity
33	1
34	3
35	0
36	3
37	1
38	8
39	81
40	15
41	41
42	111
43	14
44	11
45	30
46	2
47	4
50	9
51	40
52	21
53	31
54	20
55	6
56	3
57	4
58	14
59	15
60	32
61	3
62	6
63	27
64	23
65	211
66	53
67	26
68	11
69	18
70	10
71	10
72	7
73	2
74	2
75	2
76	9
77	33
78	30
79	15
80	34
81	12
82	12
83	13
84	17
85	9
86	5
87	2
88	1
89	25
91	999
92	93
93	11
94	6
95	14
96	37
97	42
98	10
99	4
100	1
101	1
102	1
103	3
104	9
105	12
106	7
107	9
108	7
109	10
110	12
111	10
112	10
113	4
114	1
115	2
116	2
117	11
118	29
119	10
120	12
121	6
122	28
123	34
124	59
125	524
126	48
127	26
128	4
129	1
130	2
131	6
132	12
133	2
134	8
135	8
136	15
137	6
138	11
139	7
140	21
141	4
142	1
143	0
144	0
145	2
146	2
147	1
148	3
149	13
150	26
151	117
152	151
153	90
154	18
155	5
156	2
157	4
158	1
159	0
160	0
161	0
162	2
163	3
164	14
165	12
166	5
167	3
168	40
169	10
170	15
171	2
172	1
173	0
174	0
175	0
176	2
177	45
178	33
179	79
180	13
181	6
182	4
183	3
184	5
185	15
186	2
187	1
191	2
192	3
193	4
194	4
195	3
197	397
198	79
199	28
200	4
201	1
202	0
203	0
204	0
205	0
206	0
207	0
208	6
209	8
210	10
211	5
212	4
213	1
214	4
215	3
216	1
217	0
221	0
222	1
223	5
224	58
225	65
226	13
227	5
228	1
229	0
235	0
237	5
238	6
239	6
240	2
241	7
242	10
243	15
244	2
245	0
253	2
254	3
255	1
256	0
259	0
260	0
267	2
269	151
270	45
271	45
272	8
273	2
274	2
275	0
283	2
284	0
285	0
287	59
288	11
289	3
290	0
298	38
299	11
300	3
301	1
302	1
313	1
315	480
316	497
317	120
318	33
319	5
320	0
