Mass Spectrum: 2-(Allylamino)ethanol
Formula: C5H11NO
CAS: 2424-00-2
Molecular weight: 101
m/z	intensity
31	45
39	157
41	650
42	171
43	154
44	27
45	37
54	34
55	24
56	208
57	117
58	14
68	71
69	13
70	999
71	69
72	15
74	37
82	12
83	9
84	17
99	6
100	10
101	36
102	16
