Mass Spectrum: 2-Butenedioic acid (Z)-, monododecyl ester
Formula: C16H28O4
CAS: 2424-61-5
Molecular weight: 284
m/z	intensity
12	2
13	4
14	2
15	2
16	1
17	1
18	5
24	7
25	30
26	238
27	121
28	50
29	248
30	9
31	94
32	2
36	3
37	4
38	2
39	86
40	19
41	661
42	262
43	834
44	53
45	25
46	1
50	1
51	4
52	8
53	57
54	294
55	966
56	904
57	817
58	38
59	4
63	1
65	7
66	13
67	149
68	389
69	999
70	944
71	301
72	18
73	29
74	2
76	1
77	5
78	1
79	9
80	5
81	70
82	442
83	982
84	629
85	167
86	10
87	4
88	1
91	2
92	1
93	3
94	2
95	27
96	165
97	710
98	416
99	139
100	55
101	6
105	1
107	1
108	1
109	10
110	69
111	389
112	216
113	25
114	3
115	1
117	91
118	18
119	4
121	1
122	1
123	6
124	24
125	145
126	84
127	11
128	3
129	1
131	1
135	1
137	4
138	15
139	48
140	225
141	27
142	2
143	1
149	1
150	1
151	1
152	3
153	6
154	4
155	3
156	3
157	5
158	1
162	1
163	1
164	1
165	2
166	7
167	3
168	138
169	21
170	2
171	5
177	1
179	1
180	1
181	1
182	1
183	3
184	1
185	8
186	1
195	1
196	1
197	1
209	1
223	1
224	1
225	1
237	1
238	1
284	1
285	1
