Mass Spectrum: Cyclohexanol, 2-bromo-, trans-
Formula: C6H11BrO
CAS: 2425-33-4
Molecular weight: 178
m/z	intensity
27	131
28	42
29	141
31	63
39	133
40	22
41	222
42	68
43	135
44	117
53	57
54	22
55	157
57	685
58	28
65	11
66	19
67	31
69	52
70	36
71	41
72	16
77	17
79	62
80	28
81	999
82	72
83	11
98	13
99	696
100	34
132	40
134	40
135	12
178	69
180	67
