Mass Spectrum: Hexadecanoic acid, 2-hydroxy-3,7,11,15-tetramethyl-, methyl ester
Formula: C21H42O3
CAS: 24257-07-6
Molecular weight: 342
m/z	intensity
53	15
54	15
55	438
56	152
57	909
58	129
59	45
80	115
81	43
82	288
83	40
84	377
85	50
86	47
90	999
91	45
95	113
96	43
97	236
98	40
99	154
100	18
101	43
102	18
110	140
111	43
112	159
113	40
114	102
115	18
116	18
117	286
118	18
137	22
138	9
139	54
140	9
141	86
142	18
159	150
283	188
284	43
327	159
328	38
