Mass Spectrum: Tetradecane, 1-chloro-
Formula: C14H29Cl
CAS: 2425-54-9
Molecular weight: 232
m/z	intensity
26	2
27	79
28	7
29	201
30	5
34	0
36	1
38	0
39	48
40	10
41	412
42	117
43	903
44	26
49	4
51	2
52	1
53	25
54	26
55	453
56	161
57	999
58	42
59	1
60	0
62	1
63	12
64	0
65	4
66	2
67	34
68	30
69	375
70	118
71	490
72	27
75	2
76	1
77	10
78	1
79	4
80	0
81	14
82	26
83	185
84	69
85	221
86	15
89	1
90	2
91	610
92	24
93	172
94	7
95	4
96	12
97	107
98	42
99	32
100	2
103	0
104	16
105	148
106	11
107	51
108	2
109	2
110	3
111	39
112	24
113	13
114	2
115	0
117	0
118	6
119	39
120	4
121	12
122	0
123	1
124	1
125	10
126	11
127	6
131	1
132	3
133	23
134	2
135	7
138	0
139	3
140	4
141	4
146	2
147	14
148	2
149	3
153	1
154	1
155	1
160	3
161	8
162	1
163	3
167	0
168	2
174	4
175	7
176	1
177	2
188	2
189	5
190	1
191	1
196	1
202	1
203	3
204	0
205	0
232	16
233	2
234	4
235	0
