Mass Spectrum: 1,3-Oxathiolane, 4-methyl-
Formula: C4H8OS
CAS: 24254-54-4
Molecular weight: 104
m/z	intensity
29	80
30	120
39	300
41	270
42	80
44	120
45	580
46	140
58	80
73	50
74	999
104	730
