Mass Spectrum: 1,3-Oxathiolane, 5-methyl-
Formula: C4H8OS
CAS: 24254-53-3
Molecular weight: 104
m/z	intensity
29	200
30	10
39	250
41	730
42	120
43	180
44	20
45	370
46	230
59	300
60	840
74	570
104	999
