Mass Spectrum: (+-)-2-Benzamido-3-phenylpropionamide
Formula: C16H16N2O2
CAS: 24250-72-4
Molecular weight: 268
m/z	intensity
17	1
26	2
27	12
28	3
38	2
39	9
40	1
41	2
42	1
43	1
44	7
45	1
50	12
51	48
52	6
53	1
55	1
57	1
62	2
63	8
64	2
65	20
66	1
73	1
74	4
75	6
76	18
77	288
78	25
79	2
86	1
87	1
88	2
89	9
90	7
91	79
92	14
93	1
101	1
102	9
103	26
104	31
105	999
106	81
107	5
111	1
112	5
115	1
116	3
117	11
118	9
119	5
120	5
121	2
122	3
126	1
127	1
128	4
129	20
130	15
131	21
132	3
133	2
134	3
139	7
141	2
144	1
145	1
146	96
147	307
148	38
149	3
150	1
151	3
152	4
155	1
159	5
160	2
163	3
165	2
175	2
176	7
177	23
178	49
179	9
180	1
196	3
203	2
204	15
205	9
206	3
207	1
222	1
223	48
224	190
225	34
226	3
229	1
231	2
232	2
233	2
234	4
235	1
247	1
248	5
249	2
250	14
251	29
252	5
268	40
269	7
