Mass Spectrum: Isothiazole, 3,5-dimethyl-
Formula: C5H7NS
CAS: 24260-24-0
Molecular weight: 113
m/z	intensity
39	40
43	100
45	100
58	50
59	40
71	287
72	170
73	186
80	70
98	115
112	210
113	999
