Mass Spectrum: Diethylaminoethyl acrylate
Formula: C9H17NO2
CAS: 2426-54-2
Molecular weight: 171
m/z	intensity
25	2
26	37
27	239
28	116
29	130
30	177
31	6
38	0
39	5
40	4
41	31
42	147
43	37
44	74
45	6
52	2
53	7
54	19
55	270
56	107
57	25
58	202
59	7
60	0
68	3
69	2
70	24
71	31
72	23
73	2
84	34
85	1
86	999
87	55
88	3
98	1
99	159
100	29
101	2
102	0
114	0
116	1
156	4
157	0
171	8
172	0
