Mass Spectrum: 2-Hydroxy-3-methoxy-6-nitrobenzaldehyde benzenesulfonate
Formula: C14H11NO7S
CAS: 2426-60-0
Molecular weight: 337
m/z	intensity
41	17
42	5
43	7
45	9
47	0
48	0
51	591
52	25
53	70
54	10
55	9
57	8
59	7
62	30
63	40
64	10
65	27
66	10
67	43
69	56
70	2
71	2
74	11
75	12
77	999
78	136
79	157
81	246
82	9
83	8
84	4
85	1
86	1
87	0
88	0
89	2
90	0
91	10
93	27
94	16
95	24
96	4
97	17
98	0
99	1
101	1
102	2
103	1
104	0
105	5
106	116
107	101
108	11
109	10
110	0
111	1
112	11
113	0
115	5
116	1
117	0
120	18
121	147
123	399
124	25
125	25
126	4
127	7
128	4
129	0
132	2
133	0
134	0
135	22
137	19
138	8
140	7
141	415
142	25
143	20
144	2
145	0
147	1
148	0
149	8
150	4
151	15
152	13
153	2
155	6
156	1
159	0
162	3
164	6
165	3
166	4
167	0
168	6
169	1
170	0
171	1
172	0
178	1
179	100
180	75
181	6
182	1
183	1
184	2
185	0
195	0
196	29
197	3
198	1
199	1
200	0
201	0
210	0
211	1
212	2
213	0
214	0
217	0
218	0
225	0
227	2
228	1
245	0
255	0
256	0
308	0
309	1
320	2
321	0
336	5
337	17
338	3
339	1
340	0
