Mass Spectrum: 2-Butenoic acid, 4-hydroxy-2-(hydroxymethyl)-, 3,3a,4,5,6a,7,9a,9b-octahydro-9-methyl-3-methylene-2-oxospiro[azuleno[4,5-b]furan-6(2H),2'-oxiran]-4-yl ester, [3aR-[3a.alpha.,4.beta.(E),6.beta.,6a.alpha.,9a.alpha.,9b.beta.]]-
Formula: C20H24O7
CAS: 24268-45-9
Molecular weight: 376
m/z	intensity
69	22
77	74
79	55
80	69
81	27
85	8
91	53
93	64
95	999
96	59
97	28
101	13
103	19
105	53
106	22
109	11
115	11
117	22
119	30
120	22
122	11
126	24
127	11
128	8
129	11
131	21
141	22
142	8
143	11
146	11
147	10
155	16
156	10
157	10
164	8
167	19
169	27
171	10
173	11
175	10
183	19
185	34
186	13
188	10
189	10
197	21
199	13
208	8
211	29
213	279
214	133
215	35
226	85
227	21
228	10
229	16
231	8
239	8
243	24
244	72
245	11
289	14
