Mass Spectrum: N-Ethoxyoxalylaspartic acid,diethyl ester
Formula: C12H19NO7
CAS: 24265-87-0
Molecular weight: 289
m/z	intensity
26	12
27	107
28	162
29	421
30	29
31	21
32	3
35	1
36	6
38	2
39	1
40	2
41	21
42	60
43	148
44	16
45	24
46	23
47	6
53	1
54	1
55	7
56	12
57	21
58	12
59	4
60	21
61	7
68	2
69	28
70	10
71	5
72	4
73	15
74	154
75	7
76	1
83	8
84	3
85	1
86	8
87	33
88	49
89	2
97	7
98	6
99	7
100	12
102	999
103	60
104	6
112	1
114	8
115	78
116	7
117	1
118	2
124	1
125	15
126	2
127	1
128	4
129	6
130	2
142	4
143	25
144	7
145	1
146	2
169	1
171	146
172	18
173	3
174	10
175	2
176	22
177	2
188	1
198	4
199	4
202	2
215	1
216	47
217	29
218	3
243	9
244	41
245	9
246	1
289	2
