Mass Spectrum: Furazano[3,4-b]pyrazine, 5,6-diphenyl-
Formula: C16H10N4O
CAS: 24294-88-0
Molecular weight: 274
m/z	intensity
33	19
35	4
36	0
37	17
38	38
39	195
40	14
41	8
43	7
44	4
45	0
47	3
48	0
50	116
51	507
52	43
53	12
54	1
55	4
56	3
57	2
60	0
61	25
62	94
63	259
65	27
66	3
68	3
69	4
70	1
74	66
75	66
76	129
77	577
78	26
79	1
81	6
82	6
83	2
85	5
86	12
87	65
88	87
89	303
90	24
91	7
92	1
95	5
96	3
98	13
99	14
100	17
101	15
103	999
104	58
105	6
108	0
109	3
110	3
111	7
112	8
113	20
114	73
115	73
116	19
117	2
119	6
121	1
122	6
123	1
124	1
126	9
127	11
128	5
129	51
130	4
131	0
135	0
136	0
137	9
138	5
139	19
140	17
141	32
142	11
143	2
145	3
150	4
151	20
152	13
153	6
154	1
161	0
162	6
163	26
164	30
165	76
166	12
167	2
168	0
171	99
172	11
173	0
174	0
175	6
176	20
177	19
178	11
179	3
180	5
188	17
189	22
190	144
191	35
192	7
193	1
200	0
201	9
202	11
203	19
204	4
205	1
206	3
214	0
215	21
216	37
217	77
218	23
219	4
221	0
227	2
228	0
230	0
241	1
242	5
243	60
244	302
245	58
246	4
247	0
257	4
258	0
262	1
274	301
275	52
276	5
