Mass Spectrum: TRH
Formula: C16H22N6O4
CAS: 24305-27-9
Molecular weight: 362
m/z	intensity
70	710
81	270
82	880
84	999
110	100
122	140
137	100
153	200
154	430
190	30
221	80
234	230
248	30
249	40
278	40
318	10
345	10
362	30
