Mass Spectrum: Butanamide, N-(2-hydroxyethyl)-3-oxo-
Formula: C6H11NO3
CAS: 24309-97-5
Molecular weight: 145
m/z	intensity
27	109
28	165
29	121
30	999
31	171
39	49
41	57
42	197
43	967
44	110
45	81
54	21
55	27
56	26
58	64
59	20
60	79
69	46
70	65
71	12
72	78
73	16
84	13
85	278
86	20
87	24
88	16
101	6
102	226
103	14
114	121
115	171
116	12
127	45
128	7
145	6
146	23
147	2
