Mass Spectrum: Perhydro-2-oxo-5-phenethylfuran
Formula: C12H14O2
CAS: 2430-75-3
Molecular weight: 190
m/z	intensity
15	2
26	5
27	43
28	40
29	124
30	4
31	2
37	1
38	5
39	52
40	5
41	22
42	7
43	18
44	5
45	2
50	17
51	55
52	14
53	11
54	3
55	31
56	55
57	58
58	9
61	1
62	6
63	24
64	7
65	84
66	8
67	5
68	2
69	1
70	10
71	6
73	3
74	6
75	5
76	5
77	74
78	48
79	41
80	3
81	2
83	3
84	5
85	361
86	20
87	3
89	18
90	9
91	678
92	550
93	41
94	2
97	2
98	22
99	58
100	5
101	1
102	7
103	36
104	106
105	116
106	13
107	11
108	9
111	1
112	20
113	1
115	52
116	15
117	340
118	57
119	4
120	1
127	3
128	11
129	97
130	999
131	140
132	9
133	22
134	11
135	2
141	2
143	8
144	12
145	10
146	13
147	4
148	8
149	2
162	3
171	1
172	3
189	1
190	565
191	74
192	7
