Mass Spectrum: N-(4-Ethoxybenzylidene)aniline
Formula: C15H15NO
CAS: 24313-64-2
Molecular weight: 225
m/z	intensity
39	371
40	95
41	60
43	85
44	41
51	719
53	18
55	61
56	19
57	27
63	160
65	275
66	35
69	15
70	21
71	10
74	44
77	999
79	13
83	18
84	10
89	29
90	17
91	22
93	48
94	45
102	13
104	79
105	11
112	10
113	10
115	38
139	25
140	14
141	13
151	14
152	12
166	43
167	101
168	58
178	10
179	12
196	562
197	146
198	16
224	355
225	471
226	74
