Mass Spectrum: 2,3,4-Hexatriene, 2,5-dimethyl-
Formula: C8H12
CAS: 2431-31-4
Molecular weight: 108
m/z	intensity
26	13
27	106
28	7
29	31
30	0
31	0
34	0
36	0
37	10
38	28
39	258
40	41
41	167
42	9
43	6
44	1
45	2
46	0
48	0
49	6
50	66
51	162
52	61
53	156
54	28
55	19
56	2
57	0
60	1
61	15
62	31
63	82
64	20
65	171
66	42
67	68
68	11
69	2
70	0
72	0
73	5
74	30
75	21
76	10
77	617
78	92
79	147
80	21
81	5
82	0
84	1
85	4
86	10
87	7
88	1
89	14
90	3
91	645
92	75
93	407
94	31
95	2
96	0
97	0
98	2
99	0
101	0
102	0
103	7
104	1
105	46
106	9
107	144
108	999
109	67
110	3
111	0
