Mass Spectrum: 1,2,3-Benzotriazin-4(3H)-one, 3-(chloromethyl)-
Formula: C8H6ClN3O
CAS: 24310-41-6
Molecular weight: 195
m/z	intensity
35	40
36	30
37	170
38	200
39	210
40	30
42	30
45	50
48	20
49	180
50	830
51	300
52	80
53	50
56	70
61	30
62	70
63	160
64	100
65	20
66	20
73	50
74	230
75	220
76	710
77	999
78	100
88	20
89	20
90	200
91	30
92	30
102	50
103	40
104	320
105	250
106	30
110	80
111	20
112	40
118	20
132	650
133	80
134	20
135	30
139	30
148	20
160	660
161	60
162	20
195	100
196	20
197	40
