Mass Spectrum: Phenol, o-(benzylthio)-
Formula: C13H12OS
CAS: 24312-63-8
Molecular weight: 216
m/z	intensity
40	8
41	11
44	10
45	24
50	14
51	24
52	10
53	20
62	9
63	31
64	11
65	117
66	20
69	11
70	10
71	6
77	9
78	6
89	18
90	8
91	999
92	90
93	5
94	42
95	7
96	7
97	31
98	5
121	6
125	11
126	10
216	210
217	34
218	13
