Mass Spectrum: Acetic acid, [(1,1-dimethylethyl)thio]-
Formula: C6H12O2S
CAS: 24310-22-3
Molecular weight: 148
m/z	intensity
26	6
28	15
29	2
30	3
39	39
40	5
41	207
42	9
45	29
46	14
47	18
49	4
53	5
55	18
56	34
57	999
58	21
59	15
74	3
75	4
87	15
133	3
