Mass Spectrum: Propionic acid, thio-, S-undecyl ester
Formula: C14H28OS
CAS: 2432-46-4
Molecular weight: 244
m/z	intensity
27	14
28	10
29	89
30	3
39	6
40	1
41	68
42	12
43	96
44	2
45	7
47	12
53	5
54	7
55	88
56	40
57	999
58	42
59	7
60	9
61	14
67	14
68	7
69	52
70	16
71	27
72	11
73	9
75	6
79	4
81	8
82	8
83	31
84	10
85	23
86	10
87	21
88	4
89	4
90	24
91	30
95	6
96	8
97	31
98	8
99	12
100	7
101	10
103	9
110	6
111	14
112	8
113	9
114	8
115	4
117	4
125	8
126	5
127	6
128	10
129	7
131	3
132	6
141	6
142	5
143	6
146	4
154	84
155	40
156	7
184	22
186	17
187	95
188	10
215	9
226	3
244	31
