Mass Spectrum: 1,2,3,5-Tetrahydro-3,6-dihydroxy-2,2-dimethyl-5-oxoindolizine
Formula: C10H13NO3
CAS: 24322-00-7
Molecular weight: 195
m/z	intensity
14	1
15	5
17	16
18	4
26	5
27	43
28	139
29	27
30	8
31	7
32	1
37	2
38	9
39	68
40	20
41	105
42	15
43	57
44	11
45	3
46	2
50	7
51	31
52	23
53	41
54	17
55	51
56	7
57	70
58	3
59	2
60	1
61	2
62	2
63	6
64	4
65	19
66	17
67	41
68	35
69	22
70	9
71	13
72	72
73	4
74	32
75	31
76	6
77	34
78	38
79	24
80	16
81	9
82	19
83	17
84	2
85	3
89	2
90	1
91	15
92	10
93	19
94	22
95	17
96	134
97	16
98	2
99	1
102	1
103	5
104	8
105	7
106	30
107	10
108	7
109	7
110	5
111	105
112	26
113	2
115	1
116	3
117	2
118	10
119	4
120	13
121	3
122	7
123	7
124	783
125	999
126	78
127	7
128	1
130	6
131	1
132	21
133	6
134	9
135	2
136	50
137	6
138	26
139	3
140	1
142	1
144	1
146	3
147	1
148	11
149	7
150	81
151	10
152	244
153	22
154	2
158	1
159	1
160	2
161	1
162	23
163	3
164	5
165	4
166	203
167	386
168	40
169	3
175	1
176	5
177	4
178	5
179	1
180	11
181	1
193	3
194	3
195	158
196	56
197	6
