Mass Spectrum: Hexanethioic acid, S-decyl ester
Formula: C16H32OS
CAS: 2432-81-7
Molecular weight: 272
m/z	intensity
29	23
39	13
41	85
42	19
43	326
44	4
45	5
47	10
53	7
54	6
55	112
56	19
57	78
58	5
59	5
60	7
61	11
67	12
68	7
69	46
70	26
71	445
72	24
73	3
76	5
79	5
81	13
83	24
85	25
87	12
97	16
98	16
99	999
100	65
101	9
103	6
111	5
112	3
113	4
114	7
115	4
117	9
131	116
132	7
133	23
140	30
141	16
156	7
172	16
173	24
174	6
212	7
216	6
239	1
244	2
254	1
272	9
