Mass Spectrum: Butyric acid, thio-, S-pentyl ester
Formula: C9H18OS
CAS: 2432-53-3
Molecular weight: 174
m/z	intensity
28	2
29	34
39	31
40	4
41	193
42	43
43	572
44	17
45	13
46	8
47	22
53	7
55	44
56	5
57	2
58	3
59	9
60	9
61	18
67	5
68	4
69	26
70	39
71	999
72	53
73	7
76	6
86	4
87	6
89	4
100	34
101	4
102	25
103	21
104	9
105	62
114	21
131	17
156	1
174	74
