Mass Spectrum: Propionic acid, thio-, S-heptyl ester
Formula: C10H20OS
CAS: 2432-45-3
Molecular weight: 188
m/z	intensity
27	31
28	39
29	169
30	5
39	15
40	3
41	80
42	18
43	59
44	1
45	11
46	5
47	17
53	8
54	6
55	86
56	42
57	999
58	41
59	8
60	10
61	13
67	7
68	4
69	18
70	15
71	5
72	8
73	7
75	4
81	6
83	4
85	7
86	11
87	12
88	6
90	17
91	25
97	16
98	51
99	16
100	9
101	4
102	7
103	6
114	6
128	26
129	3
130	19
131	56
132	7
133	3
140	3
155	2
159	9
170	2
188	31
189	3
190	1
