Mass Spectrum: 2-Butyl-1,2,3,5-tetrahydro-3,6-dihydroxy-5-oxoindolizine
Formula: C12H17NO3
CAS: 24322-05-2
Molecular weight: 223
m/z	intensity
17	3
18	2
26	2
27	24
28	46
29	22
30	5
31	3
38	3
39	31
40	9
41	63
42	9
43	11
44	5
45	2
50	2
51	13
52	9
53	22
54	8
55	30
56	6
57	22
58	1
63	4
64	2
65	21
66	10
67	31
68	18
69	17
70	4
71	3
74	5
75	1
76	1
77	15
78	19
79	17
80	17
81	11
82	10
83	9
84	2
85	1
89	2
90	1
91	8
92	9
93	8
94	14
95	12
96	62
97	10
98	2
102	1
103	1
104	3
105	4
106	17
107	8
108	8
109	8
110	5
111	40
112	42
113	3
115	1
116	5
117	2
118	10
119	3
120	16
121	4
122	5
123	6
124	336
125	999
126	76
127	7
128	2
130	2
131	1
132	5
133	2
134	12
135	4
136	67
137	9
138	352
139	153
140	12
141	1
144	2
146	5
147	3
148	34
149	16
150	23
151	5
152	239
153	47
154	5
158	1
160	1
161	1
162	94
163	10
164	9
165	2
166	40
167	30
168	4
174	1
175	1
176	10
177	16
178	21
179	3
180	148
181	15
182	1
188	2
189	1
190	5
191	1
192	25
193	5
194	123
195	152
196	18
197	1
201	1
202	1
203	1
204	7
205	13
206	6
207	3
208	2
221	5
222	8
223	151
224	47
225	6
