Mass Spectrum: 5-Nonanone, 1,1,1,9,9,9-hexafluoro-
Formula: C9H12F6O
CAS: 24322-11-0
Molecular weight: 250
m/z	intensity
41	120
42	100
43	40
45	20
46	20
47	680
48	30
51	80
53	20
55	90
57	10
58	40
59	50
61	20
64	70
65	50
69	90
70	20
71	90
72	20
73	20
75	20
77	210
78	20
85	20
89	30
90	20
91	999
92	60
107	30
109	20
110	20
111	300
112	20
115	20
119	20
121	20
139	930
140	70
141	20
147	40
149	20
163	20
167	20
230	20
231	60
232	20
250	40
251	20
