Mass Spectrum: Hexanethioic acid, S-heptyl ester
Formula: C13H26OS
CAS: 2432-80-6
Molecular weight: 230
m/z	intensity
29	25
39	12
40	1
41	91
42	18
43	369
44	7
45	4
47	9
53	7
55	114
56	14
57	53
60	5
61	10
67	6
69	21
70	24
71	437
72	21
76	5
81	9
83	4
87	7
97	8
98	18
99	999
100	69
101	5
114	8
130	10
131	157
132	8
133	23
139	2
140	2
141	2
155	4
158	4
170	8
174	8
