Mass Spectrum: Butyric acid, 3-methylthio-, S-propyl ester
Formula: C8H16OS
CAS: 2432-58-8
Molecular weight: 160
m/z	intensity
28	5
29	84
39	77
40	10
41	393
42	54
43	226
44	6
45	21
46	14
47	45
53	8
55	28
56	49
57	999
58	54
59	10
60	5
61	15
69	39
70	2
71	2
73	3
74	8
75	10
76	31
77	10
85	910
86	50
87	4
103	26
117	75
118	7
119	5
145	3
160	185
161	12
162	7
