Mass Spectrum: Butanethioic acid, 3-methyl-, S-ethyl ester
Formula: C7H14OS
CAS: 2432-57-7
Molecular weight: 146
m/z	intensity
27	76
28	31
29	205
30	6
35	24
39	83
40	12
41	407
42	45
43	159
44	4
45	21
46	16
47	27
53	11
55	32
56	53
57	999
58	53
59	21
60	12
61	47
62	24
63	8
69	40
70	2
71	5
75	9
76	23
85	630
86	36
89	57
103	6
104	6
117	30
118	5
119	5
131	5
146	161
147	9
148	7
