Mass Spectrum: Ethanethioic acid, S-octyl ester
Formula: C10H20OS
CAS: 2432-34-0
Molecular weight: 188
m/z	intensity
27	23
29	51
35	3
39	26
40	4
41	190
42	42
43	999
44	28
45	22
46	8
47	34
53	14
54	13
55	162
56	72
57	69
58	17
59	24
60	16
61	32
67	24
68	26
69	213
70	67
71	59
72	30
73	8
74	6
75	5
76	38
77	40
79	7
81	16
82	30
83	62
84	48
85	39
86	25
87	34
88	7
89	15
95	7
97	15
98	7
99	8
100	16
101	19
103	8
111	19
112	158
113	33
114	12
118	14
128	106
137	8
141	11
144	22
145	260
146	24
147	12
155	6
170	10
188	65
189	5
190	3
