Mass Spectrum: 2-Ethyl-1,2,3,5-tetrahydro-3,6-dihydroxy-5-oxoindolizine
Formula: C10H13NO3
CAS: 24322-02-9
Molecular weight: 195
m/z	intensity
15	4
16	1
17	32
18	5
26	6
27	41
28	113
29	28
30	11
31	6
37	2
38	8
39	55
40	17
41	79
42	10
43	17
44	9
45	3
46	1
50	7
51	29
52	19
53	40
54	14
55	41
56	7
57	28
58	1
59	1
60	1
62	2
63	8
64	5
65	29
66	16
67	48
68	28
69	23
70	7
71	7
72	4
73	1
74	18
75	2
76	2
77	21
78	31
79	21
80	22
81	9
82	13
83	12
84	4
85	3
89	2
90	2
91	12
92	15
93	12
94	20
95	20
96	94
97	13
98	2
99	1
102	1
103	3
104	4
105	9
106	27
107	10
108	7
109	9
110	6
111	62
112	54
113	4
115	1
116	5
117	3
118	15
119	6
120	29
121	6
122	5
123	8
124	391
125	999
126	77
127	7
128	2
129	1
130	4
131	1
132	6
133	3
134	13
135	4
136	69
137	9
138	278
139	81
140	7
141	1
142	2
143	1
144	3
145	1
146	6
147	1
148	44
149	13
150	20
151	3
152	143
153	13
154	1
158	1
159	1
160	5
161	3
162	70
163	8
164	42
165	9
166	148
167	196
168	20
169	1
174	1
175	1
176	25
177	20
178	9
179	2
180	51
181	6
182	1
193	6
194	6
195	158
196	47
197	5
