Mass Spectrum: Octanethioic acid, S-methyl ester
Formula: C9H18OS
CAS: 2432-83-9
Molecular weight: 174
m/z	intensity
29	65
35	1
39	30
40	4
41	271
42	43
43	311
44	6
45	13
46	4
47	35
48	6
49	4
53	10
55	174
56	21
57	999
58	34
59	8
61	10
67	42
69	18
70	9
71	12
75	49
81	6
83	19
84	12
85	4
90	21
97	5
98	9
109	45
127	430
159	85
174	3
