Mass Spectrum: Heptanethioic acid, S-methyl ester
Formula: C8H16OS
CAS: 2432-82-8
Molecular weight: 160
m/z	intensity
29	62
35	3
39	43
40	6
41	286
42	40
43	999
44	23
45	22
46	7
47	51
48	9
49	6
53	12
55	106
56	33
57	231
58	8
61	14
67	11
68	10
69	29
70	6
71	4
75	64
83	9
84	18
85	404
86	17
90	21
95	35
113	517
145	185
160	4
