Mass Spectrum: Hexanethioic acid, S-propyl ester
Formula: C9H18OS
CAS: 2432-78-2
Molecular weight: 174
m/z	intensity
28	75
29	78
39	51
41	298
42	66
43	999
44	25
45	15
46	9
47	34
53	9
55	155
56	11
57	9
58	4
59	5
60	3
61	11
69	17
70	27
71	758
72	30
74	6
75	7
76	21
77	6
81	13
99	968
100	41
103	6
118	8
131	249
132	9
133	8
174	5
