Mass Spectrum: Octanethioic acid, S-propyl ester
Formula: C11H22OS
CAS: 2432-85-1
Molecular weight: 202
m/z	intensity
29	39
39	16
40	2
41	252
42	30
43	340
44	6
45	7
46	3
47	17
53	5
55	156
56	16
57	999
58	33
59	9
61	6
67	37
69	15
70	9
71	9
74	4
75	5
76	13
77	5
81	6
83	17
84	14
85	6
89	3
97	5
98	13
99	2
103	2
109	93
118	10
127	711
128	47
159	159
160	51
161	3
202	1
