Mass Spectrum: 2,6-Diphenyl-4,4-bis-trifluoromethyl-1,4-dihydro-[1,3,5]triazine
Formula: C17H11F6N3
CAS: 24337-46-0
Molecular weight: 371
m/z	intensity
33	0
34	0
36	0
37	2
38	6
39	27
40	11
41	5
42	2
43	4
44	4
45	0
46	0
47	0
48	0
50	61
51	132
52	31
53	7
54	0
55	3
56	2
57	4
58	0
59	0
60	0
61	0
62	3
63	12
64	6
65	3
66	0
67	1
69	75
70	2
71	1
72	0
73	2
74	11
75	37
76	129
77	350
78	29
79	1
80	0
81	1
82	1
83	1
84	0
85	0
86	0
87	1
88	2
89	3
90	1
91	6
92	1
93	0
94	0
95	2
96	17
97	1
98	0
99	1
100	2
101	4
102	35
103	208
104	999
105	105
106	4
107	1
108	1
109	0
110	0
111	0
112	0
113	0
114	1
115	1
116	1
117	1
118	0
119	0
120	0
121	1
122	0
123	0
124	0
125	0
126	0
127	1
128	2
129	11
130	1
131	0
132	0
133	1
134	1
135	0
137	0
138	0
139	0
141	14
143	0
144	0
145	0
146	0
147	0
149	2
151	74
153	2
154	0
156	0
157	0
158	0
159	0
160	0
164	3
165	0
166	0
167	0
169	0
170	0
171	0
172	4
173	0
176	2
177	1
178	3
179	3
180	1
183	0
184	0
185	0
187	0
189	0
190	0
191	0
192	0
193	0
197	3
198	2
199	1
202	0
203	0
204	0
205	2
206	0
207	0
208	0
214	0
215	0
217	0
222	0
227	0
228	0
229	3
230	0
232	0
233	0
234	3
235	0
236	0
246	0
247	0
248	1
249	12
250	1
253	0
256	0
266	0
267	5
268	0
269	0
279	0
282	0
283	1
284	0
299	29
302	566
303	90
304	7
305	0
350	0
351	0
352	4
353	0
370	0
371	2
372	0
