Mass Spectrum: Tetrahydrofuran-2-acetic acid ethyl ester
Formula: C8H14O3
CAS: 2434-02-8
Molecular weight: 158
m/z	intensity
13	1
14	9
15	29
16	1
17	1
18	3
25	3
26	27
27	172
28	38
29	187
30	8
31	47
32	1
37	4
38	9
39	99
40	26
41	168
42	122
43	327
44	20
45	35
46	4
47	5
49	1
50	5
51	9
52	5
53	27
54	41
55	98
56	41
57	17
58	13
59	7
60	31
61	12
62	1
63	2
64	1
65	7
66	9
67	27
68	18
69	32
70	18
71	999
72	48
73	19
74	3
75	7
77	1
78	1
81	6
82	8
83	77
84	134
85	19
86	5
87	89
88	57
89	14
94	8
95	3
96	1
97	4
98	1
99	5
100	9
101	5
102	20
103	1
110	2
111	37
112	9
113	79
114	6
115	105
116	7
117	4
126	1
127	3
128	6
129	33
130	223
131	15
132	2
143	2
144	1
156	2
157	7
158	5
159	1
