Mass Spectrum: 4-Isothiazolecarboxamide
Formula: C4H4N2OS
CAS: 24340-75-8
Molecular weight: 128
m/z	intensity
44	340
45	200
51	40
52	80
53	80
57	500
58	200
59	80
82	40
83	60
84	300
85	260
100	120
112	999
128	880
