Mass Spectrum: o-((2-Hydroxy-3-phenoxypropyl)carbamoyl)benzoic acid
Formula: C17H17NO5
CAS: 24343-31-5
Molecular weight: 315
m/z	intensity
15	6
17	2
18	1
25	1
26	5
27	19
28	44
29	22
30	622
31	24
36	3
37	35
38	53
39	105
40	18
41	9
42	37
43	42
44	26
45	4
46	1
48	3
49	23
50	246
51	138
52	31
53	12
54	6
55	16
56	117
57	24
58	3
59	5
60	131
61	14
62	14
63	37
64	16
65	111
66	73
67	6
68	3
69	2
70	2
71	3
72	12
73	27
74	123
75	83
76	563
77	413
78	60
79	45
80	4
81	2
82	1
83	2
84	1
85	2
86	1
89	8
90	6
91	39
92	8
93	25
94	999
95	88
96	5
97	1
101	2
102	28
103	15
104	741
105	120
106	13
107	90
108	72
109	6
110	1
111	1
115	3
116	8
117	21
118	6
119	33
120	10
121	4
122	1
123	359
124	30
125	2
127	1
128	2
129	4
130	105
131	28
132	47
133	133
134	18
135	6
136	18
137	5
138	1
139	1
141	1
143	1
144	25
145	5
146	5
147	13
148	269
149	130
150	13
151	1
152	1
156	1
157	2
158	7
159	9
160	504
161	178
162	62
163	7
164	1
167	57
168	8
169	4
172	88
173	10
174	31
175	5
176	1
178	1
185	4
186	705
187	94
188	9
189	1
190	352
191	40
192	4
202	3
203	22
204	519
205	65
206	6
207	1
222	1
236	2
250	2
251	7
252	1
253	1
261	2
262	1
279	33
280	6
295	2
297	81
298	16
299	2
