Mass Spectrum: Thietane, hexafluoro-
Formula: C3F6S
CAS: 24345-51-5
Molecular weight: 182
m/z	intensity
31	140
50	50
63	390
69	110
82	150
100	999
113	150
119	20
163	80
182	290
