Mass Spectrum: 2H-Thiopyran, 2,2,3,3,4,4,5,5,6,6-decafluorotetrahydro-
Formula: C5F10S
CAS: 24345-52-6
Molecular weight: 282
m/z	intensity
50	30
63	390
69	200
81	20
82	150
93	30
94	30
100	999
113	200
119	40
125	20
131	470
150	20
151	100
163	80
181	80
182	80
213	100
263	140
282	430
