Mass Spectrum: 1,2-Dithiepane, 3,3,4,4,5,5,6,6,7,7-decafluoro-
Formula: C5F10S2
CAS: 24345-54-8
Molecular weight: 314
m/z	intensity
31	140
50	100
63	400
64	999
69	410
82	430
93	240
100	450
113	140
114	200
131	410
145	250
181	120
195	100
213	120
231	170
295	150
314	880
