Mass Spectrum: Thiophene 2-carboxamide, N-(6-methylpyrid-2-yl)-
Formula: C11H10N2OS
CAS: 24341-73-9
Molecular weight: 218
m/z	intensity
34	2
37	26
38	88
39	468
40	71
41	26
42	27
43	5
44	6
45	75
47	2
49	7
50	22
51	31
52	42
53	64
54	10
55	4
56	1
57	56
58	18
60	1
62	6
63	18
64	32
65	85
66	36
67	7
69	11
70	4
76	1
77	2
78	12
79	8
80	44
81	32
82	35
83	145
84	15
85	8
91	14
92	62
93	12
94	2
105	7
107	11
108	3
109	18
111	999
112	60
113	47
121	2
128	8
131	1
133	3
134	3
135	19
145	4
157	10
158	1
173	1
175	2
185	162
186	21
189	37
190	197
191	27
192	9
197	3
217	14
218	226
219	29
220	12
