Mass Spectrum: Thiophene-2-carboxamide, N-(2-benzoyl-4-chlorophenyl)-
Formula: C18H12ClNO2S
CAS: 24341-74-0
Molecular weight: 341
m/z	intensity
33	0
34	1
35	0
36	3
37	2
38	7
39	177
40	9
41	1
42	0
43	0
44	2
45	9
46	0
47	0
49	1
50	12
51	45
52	6
53	8
54	0
55	0
57	10
58	3
59	0
60	0
61	1
62	6
63	18
64	4
65	2
66	1
67	0
69	3
70	1
71	1
72	1
73	4
74	5
75	9
76	6
77	107
78	8
79	0
80	0
81	3
82	8
83	82
84	7
85	4
86	1
87	2
88	3
89	5
90	5
91	2
92	1
93	0
94	0
95	0
96	0
97	2
98	4
99	5
100	2
101	2
102	1
103	0
105	33
106	2
111	999
113	147
114	5
115	3
116	0
117	1
118	0
119	0
120	0
121	0
122	0
123	1
124	11
125	4
126	9
127	2
128	2
129	0
130	0
131	3
132	1
133	0
134	0
135	0
136	0
137	1
138	2
139	13
140	7
141	1
142	0
145	6
146	0
147	2
148	0
149	1
150	2
151	3
152	4
153	1
154	2
155	0
156	0
157	0
158	0
160	0
161	0
162	0
163	0
164	2
165	2
166	18
167	15
168	2
169	0
170	0
171	1
172	1
173	1
174	0
175	0
176	0
177	1
178	0
180	8
181	0
182	2
183	0
184	0
185	0
186	0
187	0
188	0
189	0
191	1
192	0
193	0
194	1
195	10
196	1
197	0
199	0
200	0
201	9
202	2
203	3
204	1
205	0
206	0
207	0
208	0
209	0
210	0
213	0
214	2
215	0
216	1
217	0
218	0
219	0
220	0
221	0
222	0
227	0
228	0
229	5
230	25
231	9
232	9
233	2
234	0
236	128
237	17
238	46
239	6
240	2
241	0
242	0
243	0
248	0
250	0
251	0
257	0
258	0
259	0
260	0
262	0
263	0
264	6
265	1
266	2
267	0
270	0
272	0
273	0
274	0
280	0
281	0
282	0
283	0
296	0
298	0
306	0
307	0
308	0
309	0
310	0
311	0
312	0
313	0
314	0
324	0
340	1
341	134
342	25
343	48
344	9
345	3
346	0
