Mass Spectrum: 3-Cyano-2,5-dimethylpyrazine
Formula: C7H7N3
CAS: 2435-47-4
Molecular weight: 133
m/z	intensity
37	107
38	188
39	240
40	192
41	69
42	999
43	28
44	49
49	39
51	42
52	47
63	28
64	90
65	179
66	10
73	5
81	134
84	17
106	20
133	215
134	10
