Mass Spectrum: 5-Diazouracil
Formula: C4H2N4O2
CAS: 2435-76-9
Molecular weight: 138
m/z	intensity
41	115
42	197
43	343
44	272
45	81
46	50
47	6
48	5
49	1
50	16
51	28
52	27
53	111
54	75
55	120
56	25
57	34
58	8
59	14
60	29
61	10
62	4
63	6
64	17
65	16
67	999
68	164
69	159
70	93
71	17
72	4
73	23
74	5
75	8
76	2
77	42
78	43
79	8
80	2
81	11
82	15
83	11
84	7
85	9
86	5
87	9
88	5
89	6
90	1
91	19
92	5
93	3
94	4
95	100
96	109
97	12
98	4
99	6
100	12
101	6
102	1
103	3
104	1
105	36
106	30
107	10
108	1
109	1
110	13
111	2
112	183
113	14
114	4
115	7
116	3
117	2
120	2
121	7
122	26
123	1
137	12
138	759
139	292
140	18
141	3
