Mass Spectrum: Delachlor
Formula: C15H22ClNO2
CAS: 24353-58-0
Molecular weight: 283
m/z	intensity
12	4
14	42
15	83
16	16
17	64
18	163
19	2
27	518
29	718
30	36
31	37
32	1
35	4
36	5
37	7
39	355
41	999
42	241
43	670
44	55
45	21
46	1
49	226
51	160
52	37
53	57
54	15
55	45
57	893
58	34
59	2
61	2
63	47
65	111
66	17
67	5
68	1
69	2
71	3
72	2
73	4
74	2
77	438
78	78
79	174
80	11
81	2
86	21
87	26
89	39
91	187
92	30
93	20
94	4
95	1
97	2
99	1
103	110
104	41
105	162
106	47
107	26
108	2
115	13
117	215
118	98
119	56
120	105
121	105
122	51
123	7
128	3
130	56
132	475
133	158
134	406
135	36
136	1
139	1
142	2
143	1
144	23
145	10
146	33
147	30
148	471
149	64
150	53
151	4
153	1
160	30
161	13
162	46
163	6
164	1
173	2
174	9
176	9
178	10
179	2
180	6
181	3
182	10
184	3
190	1
192	60
193	4
197	168
198	48
199	59
200	14
201	1
205	3
209	62
210	82
211	36
212	26
213	5
226	7
228	2
234	3
240	1
242	1
247	4
248	75
249	11
250	1
283	15
284	3
285	4
286	1
