Mass Spectrum: 3.alpha.,5-Cyclo-5.alpha.-ergosta-6,8(14).22t-triene
Formula: C28H42
CAS: 24352-51-0
Molecular weight: 378
m/z	intensity
41	341
43	999
44	23
53	48
55	464
57	63
65	20
67	125
69	156
70	38
71	10
77	39
79	52
81	87
82	5
83	54
85	2
91	53
93	47
95	54
97	12
103	6
105	52
107	28
109	32
115	30
116	8
117	33
119	16
121	10
123	2
125	11
127	8
128	30
129	26
130	6
131	25
133	17
135	3
141	27
142	16
143	42
144	7
145	47
146	3
147	12
152	2
153	19
154	10
155	49
156	8
157	59
158	13
159	27
165	22
166	13
167	28
168	11
169	20
170	5
171	20
178	8
179	8
181	15
182	8
183	24
184	5
185	16
195	19
196	8
197	28
198	2
199	81
200	11
209	8
211	19
212	5
213	4
223	11
225	11
226	18
227	19
237	28
238	34
239	15
251	7
252	10
253	209
254	43
255	2
265	5
363	22
364	4
378	94
379	27
