Mass Spectrum: 1,3,2-Oxazaborinane, 2-butyl-
Formula: C7H16BNO
CAS: 24372-00-7
Molecular weight: 141
m/z	intensity
37	5
38	5
39	35
40	15
41	85
42	45
43	73
44	45
50	5
51	6
52	13
53	17
54	40
55	100
56	208
57	60
58	105
59	5
65	4
66	7
67	7
68	13
69	15
70	35
71	80
72	5
73	5
78	4
79	8
80	5
81	8
82	25
83	68
84	235
85	30
86	9
96	6
97	15
98	270
99	999
100	55
101	5
110	10
111	35
112	140
113	40
114	5
125	4
126	16
127	1
138	2
139	6
140	34
141	45
142	6
143	1
