Mass Spectrum: Cinnamic acid, .alpha.-hydroxy-, monoanhydride with 1-butaneboronic acid, cyclic ester
Formula: C13H15BO3
CAS: 24375-02-8
Molecular weight: 230
m/z	intensity
37	2
38	6
39	35
40	7
41	17
42	7
43	9
44	5
45	5
50	13
51	24
52	7
53	8
54	4
55	17
56	4
57	2
59	2
61	4
62	13
63	39
64	19
65	15
66	4
67	4
69	5
73	6
74	7
75	13
76	9
77	12
78	3
79	1
83	1
85	1
86	1
87	4
88	11
89	108
90	320
91	55
92	4
101	18
102	17
103	3
104	1
105	7
115	5
116	8
117	29
118	999
119	98
120	7
127	1
128	2
129	9
130	2
131	1
135	1
136	1
141	1
142	1
143	3
144	3
145	15
146	4
147	2
157	1
172	3
173	15
174	8
175	1
186	0
187	2
188	0
200	1
201	2
202	2
209	1
210	1
229	52
230	210
231	32
232	4
