Mass Spectrum: Propionic acid, 3-(allylthio)-, butyl ester
Formula: C10H18O2S
CAS: 24382-59-0
Molecular weight: 202
m/z	intensity
26	17
27	225
28	194
29	563
30	29
31	31
39	291
40	19
41	999
42	58
43	75
44	17
45	315
46	36
47	68
53	34
55	157
56	191
57	628
58	24
59	97
60	55
61	87
63	24
66	9
67	65
68	7
69	9
71	68
72	298
73	497
74	201
75	43
76	4
77	7
85	114
86	29
87	577
88	53
89	293
90	17
91	17
94	26
99	26
100	184
101	145
102	21
103	38
104	53
105	553
106	34
107	19
119	19
127	174
128	211
129	29
130	14
145	65
146	97
147	17
148	9
161	94
162	7
202	296
203	31
204	17
