Mass Spectrum: Pyridine-3-carboxylic acid, 2-hydroxy-4-methyl-5-phenylazo-, ethyl ester
Formula: C15H15N3O3
CAS: 243860-77-7
Molecular weight: 285
m/z	intensity
33	24
34	3
36	3
37	16
38	48
39	92
40	39
41	40
42	118
43	25
44	10
45	13
46	0
48	0
49	0
51	251
52	121
53	145
54	31
55	22
56	5
57	2
59	9
60	0
61	2
62	9
63	38
64	55
65	56
66	26
67	17
68	14
69	17
70	4
71	3
72	0
73	0
74	3
77	999
78	178
79	42
80	25
81	7
82	5
83	7
84	0
87	0
88	2
89	7
90	8
91	40
92	37
93	43
94	14
95	5
96	12
97	21
98	1
99	1
101	0
102	5
103	10
105	205
106	76
107	21
108	11
109	3
111	16
112	0
113	3
114	11
115	19
116	8
117	4
118	5
119	5
120	3
121	3
122	1
123	3
124	17
125	4
126	0
128	18
129	9
130	3
131	9
134	889
135	88
136	13
137	3
138	2
139	4
140	6
141	5
142	11
143	9
144	3
145	0
146	0
147	0
149	4
150	6
152	221
153	17
154	10
155	6
156	3
157	1
158	0
159	1
160	1
161	0
162	1
164	0
165	2
166	8
167	2
168	2
169	3
170	2
171	1
172	0
175	0
177	1
178	4
180	253
181	28
182	9
183	14
184	5
185	2
186	1
187	0
193	0
194	5
195	10
196	17
197	7
198	1
203	0
204	0
206	0
208	66
209	8
210	37
211	37
212	10
213	9
214	2
215	8
216	0
224	0
238	11
239	26
240	24
241	3
256	4
271	13
272	1
273	0
282	1
285	602
286	101
287	16
288	2
