Mass Spectrum: Pyridine, 3-(1-methyl-2-piperidinyl)-, (S)-
Formula: C11H16N2
CAS: 24380-92-5
Molecular weight: 176
m/z	intensity
42	120
92	50
98	999
99	80
104	30
105	60
106	30
118	40
119	150
120	70
133	60
147	60
161	40
175	90
176	220
177	30
