Mass Spectrum: Propionic acid, 3-(allylthio)-, tert-butyl ester
Formula: C10H18O2S
CAS: 24382-62-5
Molecular weight: 202
m/z	intensity
27	100
28	70
29	220
39	200
41	660
43	100
45	190
55	80
56	70
57	999
58	60
59	80
72	160
73	430
74	80
87	410
89	100
101	200
105	250
129	250
145	80
146	520
147	60
202	60
