Mass Spectrum: Propionic acid, 3-(allylthio)-, isobutyl ester
Formula: C10H18O2S
CAS: 24382-60-3
Molecular weight: 202
m/z	intensity
27	190
28	150
29	360
39	250
41	830
43	100
45	310
46	70
47	80
55	120
56	80
57	999
59	80
60	60
61	60
67	70
71	60
72	200
73	390
74	130
81	130
85	80
87	420
89	350
100	90
101	170
105	370
113	70
119	20
128	100
129	260
145	200
146	180
161	30
201	90
202	300
