Mass Spectrum: 1,2-Dihydro-3-hydroxy-2-oxo-6-(2-oxocyclooctyl)methylpyridine
Formula: C14H19NO3
CAS: 24387-40-4
Molecular weight: 249
m/z	intensity
15	1
16	1
17	22
18	2
26	3
27	33
28	76
29	26
30	9
31	1
38	2
39	42
40	11
41	95
42	18
43	22
44	6
45	1
50	3
51	16
52	13
53	31
54	12
55	80
56	9
57	9
58	9
59	2
60	1
62	1
63	6
64	4
65	22
66	12
67	43
68	31
69	25
70	13
71	13
72	1
74	9
75	3
76	2
77	27
78	24
79	45
80	26
81	17
82	11
83	31
84	13
85	5
87	1
88	1
89	3
90	3
91	25
92	10
93	17
94	22
95	18
96	51
97	21
98	15
99	2
101	1
102	2
103	5
104	8
105	11
106	16
107	55
108	22
109	12
110	4
111	25
112	76
113	5
114	1
115	6
116	5
117	8
118	18
119	11
120	14
121	5
122	13
123	9
124	245
125	999
126	78
127	8
128	6
129	3
130	5
131	3
132	14
133	6
134	11
135	9
136	425
137	62
138	379
139	79
140	8
141	2
142	4
143	2
144	4
145	3
146	28
147	10
148	25
149	20
150	119
151	44
152	116
153	20
154	4
155	1
156	1
157	1
158	3
159	2
160	9
161	9
162	31
163	15
164	342
165	55
166	26
167	14
168	2
169	1
170	3
171	1
172	2
173	6
174	29
175	11
176	15
177	4
178	91
179	16
180	16
181	23
182	3
183	1
184	3
185	2
186	7
187	3
188	40
189	9
190	6
191	2
192	33
193	13
194	36
195	6
196	1
198	5
199	2
200	15
201	8
202	20
203	42
204	33
205	6
206	160
207	24
208	7
209	2
210	1
212	3
213	2
214	12
215	3
216	7
217	2
218	1
219	3
220	26
221	262
222	39
223	4
226	1
227	2
228	4
229	12
230	27
231	85
232	21
233	3
234	3
247	1
248	9
249	296
250	68
251	9
