Mass Spectrum: Pyridine-3-carbonitrile, 1,2-dihydro-4-(formyl)(phenylhydrazono)methyl-1-methyl-2-oxo-
Formula: C15H12N4O2
CAS: 243860-84-6
Molecular weight: 280
m/z	intensity
33	2
34	0
35	3
36	15
37	18
38	39
39	135
40	32
41	25
42	51
43	11
44	48
45	5
46	1
47	0
49	2
50	27
51	109
52	46
53	20
54	11
55	10
56	4
57	2
58	5
59	3
61	3
62	13
63	59
64	228
65	316
66	77
67	34
68	4
69	2
70	0
72	7
73	30
74	6
75	14
77	999
78	100
79	9
80	6
81	4
82	8
83	1
84	0
86	0
87	1
88	3
89	8
90	20
91	112
92	168
93	170
94	28
95	2
97	0
100	1
101	2
102	5
103	19
104	41
105	242
106	76
107	8
108	1
109	0
111	0
112	2
113	0
114	1
115	2
116	4
117	9
118	14
119	29
120	10
121	3
122	4
123	0
126	0
127	1
128	3
129	6
130	20
131	11
132	10
133	19
134	4
135	1
139	1
140	6
141	0
142	1
143	0
144	1
145	6
146	22
147	8
148	6
149	1
151	1
152	1
153	3
154	4
155	2
156	1
157	3
158	6
159	28
160	116
161	14
162	1
163	0
164	1
165	0
166	2
167	4
168	4
169	3
170	1
172	1
173	1
174	0
175	2
176	4
177	4
178	2
179	2
180	3
181	2
182	1
183	1
184	0
185	1
186	0
187	0
188	3
189	0
190	0
192	1
193	2
194	2
195	7
196	5
197	0
198	0
200	0
201	1
202	0
203	0
205	5
206	6
207	4
208	4
209	2
210	1
214	0
215	0
217	0
218	1
219	0
220	1
221	3
222	3
223	13
224	4
225	1
232	0
233	1
234	12
235	45
236	9
237	2
238	2
239	0
249	1
250	1
251	10
252	4
253	1
254	0
262	2
263	1
265	5
266	7
267	1
276	2
277	3
278	4
279	42
280	274
281	51
282	4
283	0
