Mass Spectrum: Propionic acid, 3-(allylthio)-, propyl ester
Formula: C9H16O2S
CAS: 24382-58-9
Molecular weight: 188
m/z	intensity
27	370
28	180
29	120
39	360
41	999
42	80
43	850
45	430
46	100
47	120
55	120
57	140
59	130
67	80
71	80
72	380
73	610
74	290
75	90
87	150
89	770
90	70
100	200
101	220
105	520
128	170
129	320
145	60
146	60
147	150
188	340
