Mass Spectrum: 5,12-Naphthacenedione, 6,8,10,11-tetrakis(acetyloxy)-8-[(acetyloxy)acetyl]-7,8,9,10-tetrahydro-1-methoxy-, (8S-cis)-
Formula: C31H28O14
CAS: 24385-09-9
Molecular weight: 624
m/z	intensity
18	220
28	270
43	999
60	150
73	20
163	30
176	30
189	30
217	50
233	30
245	40
263	30
273	40
291	60
301	50
319	140
337	80
347	330
362	70
378	370
389	20
402	30
420	670
438	120
447	20
462	420
480	300
498	130
504	60
522	130
540	600
582	130
624	20
