Mass Spectrum: 1,3,2-Dioxaborolane, 4,4,5,5-tetramethyl-2-phenyl-
Formula: C12H17BO2
CAS: 24388-23-6
Molecular weight: 204
m/z	intensity
26	7
27	57
28	8
29	48
31	27
37	2
38	8
39	128
40	26
41	213
42	112
43	254
44	8
45	12
49	2
50	27
51	63
52	33
53	50
54	4
55	21
56	3
57	63
58	62
59	88
60	4
61	3
62	1
63	6
64	1
65	7
66	3
67	9
68	2
69	21
70	4
71	1
73	1
74	6
75	5
76	13
77	78
78	34
79	23
80	3
82	1
83	6
84	4
85	158
86	10
87	5
89	2
91	12
92	2
94	3
95	1
99	3
100	2
101	4
102	12
103	74
104	362
105	999
106	66
107	4
111	1
113	2
115	6
116	4
117	25
118	732
119	120
120	9
121	2
122	1
128	1
129	3
130	8
131	28
132	2
133	1
134	2
143	1
144	4
145	26
146	33
147	66
148	6
159	7
160	16
161	46
162	12
163	1
172	3
173	12
174	3
175	2
187	2
188	162
189	689
190	80
191	7
202	17
203	147
204	361
205	51
206	5
