Mass Spectrum: Glycine-N,N-bis(methylenephosphonic acid)
Formula: C4H11NO8P2
CAS: 2439-99-8
Molecular weight: 263
m/z	intensity
33	14
34	0
36	1
37	0
38	3
39	6
40	30
41	88
42	533
43	121
44	999
45	68
47	122
48	7
49	4
50	0
51	0
52	1
53	1
54	9
55	17
56	29
57	10
58	34
59	16
60	2
61	2
62	1
63	18
64	15
65	65
66	15
67	1
68	1
69	2
70	3
71	3
72	8
73	2
74	29
75	2
76	0
77	5
78	5
79	8
80	5
81	35
82	30
83	2
84	1
85	1
86	3
87	0
88	11
89	7
90	2
91	1
92	0
93	1
94	2
95	5
96	6
97	2
98	3
99	1
100	2
101	3
102	55
103	67
104	5
105	1
106	2
107	0
108	0
109	1
110	2
111	4
112	1
113	0
114	1
115	1
116	9
117	2
118	3
119	3
120	4
121	0
122	1
123	1
124	2
125	1
126	0
127	1
128	1
129	2
130	0
131	0
132	0
134	1
135	2
136	16
137	2
138	5
139	0
140	0
141	1
142	1
143	3
144	0
145	0
146	0
148	0
149	0
150	5
151	1
152	11
153	6
154	2
155	6
156	0
157	1
158	0
159	0
160	0
161	2
162	0
163	0
164	0
165	1
166	0
167	1
168	2
169	0
170	1
171	1
172	0
173	1
174	1
175	1
176	0
178	0
179	0
180	0
181	5
182	16
183	0
184	1
185	3
186	0
187	0
188	3
189	0
190	1
191	0
192	0
193	0
194	0
195	0
196	1
197	0
198	3
199	0
200	1
201	0
202	0
204	0
205	7
208	0
209	0
210	0
211	0
213	0
214	3
215	1
216	0
217	3
218	3
227	0
228	0
229	0
239	0
240	1
241	0
244	0
245	16
246	1
247	0
