Mass Spectrum: N,N-Dimethyl-l-leucine
Formula: C8H17NO2
CAS: 2439-37-4
Molecular weight: 159
m/z	intensity
41	78
42	133
43	62
44	50
45	45
46	10
47	0
49	3
50	0
51	3
52	1
53	7
54	6
55	23
56	79
57	33
58	100
59	3
60	1
67	3
68	6
69	5
70	37
71	41
72	304
73	16
74	10
80	2
81	2
82	11
83	2
84	21
85	2
86	3
88	21
94	0
96	1
97	0
98	23
99	2
100	17
101	2
102	260
103	19
104	0
112	8
113	1
114	999
115	85
116	3
144	2
158	4
159	42
160	4
161	1
