Mass Spectrum: 2H-Pyran-2-one, tetrahydro-5,6-dimethyl-, trans-
Formula: C7H12O2
CAS: 24405-16-1
Molecular weight: 128
m/z	intensity
37	17
38	33
39	211
41	400
42	515
43	400
45	48
50	22
51	26
52	6
53	48
54	24
55	160
56	999
57	66
67	22
69	40
83	6
84	133
85	33
90	4
99	4
113	6
128	7
