Mass Spectrum: Acetamide, 2-cyclopropylamino-2-thioxo-N-phenyl-
Formula: C11H12N2OS
CAS: 244095-47-4
Molecular weight: 220
m/z	intensity
33	12
34	7
35	5
36	14
37	35
39	999
40	183
41	826
42	67
43	140
44	77
45	210
46	24
47	24
48	3
50	72
51	303
52	79
54	100
56	173
57	31
58	27
59	76
60	191
61	30
62	44
63	123
64	160
65	333
66	112
67	71
68	111
69	20
70	24
71	53
72	109
73	69
74	34
75	22
77	503
78	53
79	6
80	4
81	2
82	4
83	6
84	13
85	19
86	76
87	10
88	8
89	7
91	131
92	188
93	482
94	65
95	5
96	4
99	258
100	145
101	124
102	19
103	20
104	56
105	10
106	6
107	2
108	3
109	13
110	4
112	27
113	2
114	1
115	2
116	1
117	6
118	7
119	41
120	73
121	20
123	8
124	4
125	4
127	134
128	9
129	7
130	4
132	86
133	14
134	4
135	14
136	23
137	4
138	1
139	0
140	0
141	0
142	0
143	2
144	1
145	3
146	5
147	33
149	8
150	1
151	0
152	4
153	0
154	0
155	0
156	0
157	0
158	1
159	2
160	3
161	2
163	5
164	8
165	2
166	0
167	0
169	0
170	0
171	1
173	0
174	0
175	0
176	1
177	1
179	1
180	0
181	0
185	0
186	0
187	3
188	0
189	0
191	0
192	17
193	1
194	0
202	4
203	0
205	24
206	2
207	1
215	0
216	0
217	0
218	1
220	165
221	21
222	8
223	0
