Mass Spectrum: 2-Imidazoline-2-carboxamide, N-(4-chlorophenyl)-
Formula: C10H10ClN3O
CAS: 244095-51-0
Molecular weight: 223
m/z	intensity
33	7
34	8
35	3
36	13
37	15
38	42
39	70
40	192
41	463
42	481
43	297
44	112
45	10
47	3
49	10
50	38
51	30
52	16
53	13
54	10
55	26
56	4
57	6
58	2
59	3
60	6
61	13
62	35
63	101
64	42
65	22
66	8
67	16
68	60
70	999
71	53
73	51
74	24
75	88
76	18
77	9
78	4
80	20
81	1
82	0
83	2
84	4
85	10
86	3
87	5
88	7
89	18
90	76
91	29
92	10
94	42
95	22
96	7
97	6
98	11
99	71
100	12
101	23
102	6
103	2
104	3
105	3
106	0
108	0
109	1
111	57
112	13
113	17
114	1
115	1
116	1
117	3
118	3
119	4
120	0
123	0
124	5
125	72
126	46
127	51
128	19
129	12
130	3
131	3
132	3
133	2
134	0
137	1
138	5
139	3
140	6
141	1
142	1
144	0
145	4
146	0
149	0
150	0
151	3
152	15
153	93
154	18
155	29
156	4
157	0
158	3
159	18
160	2
165	3
166	2
167	2
168	0
179	3
181	62
182	6
183	18
184	1
186	6
187	13
188	111
189	13
193	1
194	2
195	9
196	1
197	2
204	1
219	0
220	3
221	8
222	219
223	429
224	119
225	134
226	15
227	1
