Mass Spectrum: Pentanoic acid, 2,2,4-trimethyl-3-hydroxy-, isobutyl ester
Formula: C12H24O3
CAS: 244074-78-0
Molecular weight: 216
m/z	intensity
14	3
15	19
16	9
17	32
18	128
19	1
22	1
24	1
25	4
26	25
27	259
28	260
29	179
30	72
31	18
32	2
36	1
37	12
38	25
39	222
40	41
41	564
42	84
43	999
44	149
45	18
46	1
47	1
49	2
50	9
51	13
52	6
53	35
54	10
55	283
56	454
57	116
58	23
59	9
60	2
61	1
62	2
63	3
65	8
66	3
67	34
68	10
69	64
70	68
71	366
72	95
73	62
74	3
75	1
77	7
78	2
79	8
80	2
81	13
82	6
83	221
84	29
85	38
86	5
87	2
88	7
89	70
90	3
91	3
93	3
94	1
95	25
96	6
97	47
98	62
99	7
109	2
110	11
111	7
112	4
113	14
114	26
115	3
126	1
127	1
128	3
129	1
142	2
143	9
144	1
145	2
155	1
161	2
173	12
174	1
