Mass Spectrum: Acetamide, N-[1-(1,3-dithiolan-2-yl)-2-hydroxyethyl]-
Formula: C7H13NO2S2
CAS: 24401-55-6
Molecular weight: 207
m/z	intensity
30	90
31	40
42	80
43	430
45	130
53	30
58	30
60	839
61	140
74	30
84	30
87	30
92	40
102	200
105	999
106	60
107	60
120	40
134	60
148	839
