Mass Spectrum: 1,3-Dioxolane, 2-(3-bromopropyl)-2-methyl-
Formula: C7H13BrO2
CAS: 24400-75-7
Molecular weight: 208
m/z	intensity
41	170
42	40
43	710
44	30
45	40
53	20
54	10
55	40
57	20
58	90
59	20
67	30
69	20
71	20
72	30
83	20
84	30
85	90
86	10
87	999
88	50
89	10
93	10
95	10
99	60
107	10
109	10
121	40
123	30
149	50
151	50
193	200
194	20
195	190
196	20
