Mass Spectrum: O-Methylisourea
Formula: C2H6N2O
CAS: 2440-60-0
Molecular weight: 74
m/z	intensity
42	240
43	999
44	975
45	32
46	7
47	4
48	2
53	1
54	1
55	8
56	8
57	12
58	123
59	9
60	167
61	7
62	0
72	2
73	15
74	334
75	31
76	1
