Mass Spectrum: 2-Cyclopentenone, 2-acethyl-3-(pyrrolidinyl)-
Formula: C11H15NO2
CAS: 24417-32-1
Molecular weight: 193
m/z	intensity
33	3
34	0
36	1
37	10
39	398
41	501
43	999
45	7
47	3
50	50
51	172
52	192
53	318
54	138
55	201
56	51
57	6
58	2
59	1
60	1
62	10
63	30
64	31
65	93
66	119
67	148
68	154
69	45
70	148
71	6
72	2
74	2
75	6
77	76
79	159
80	214
81	94
82	61
83	8
84	3
85	0
86	0
88	0
89	2
91	29
92	23
94	205
95	44
96	49
97	8
98	1
103	3
104	8
105	20
106	31
108	79
109	44
110	10
111	2
112	0
114	0
115	2
118	150
120	74
122	305
124	236
125	13
126	1
128	0
130	11
132	42
133	16
134	33
136	206
137	83
138	30
139	1
141	0
143	0
144	1
146	16
147	18
148	30
150	357
151	39
152	5
153	1
155	0
156	0
158	10
160	7
164	540
165	106
166	7
167	0
172	5
174	83
175	35
176	49
178	332
179	31
180	1
188	0
189	2
193	556
194	45
195	2
