Mass Spectrum: 2-Cyclopentenone, 2-acetyl-3-methylamino-
Formula: C8H11NO2
CAS: 24417-29-6
Molecular weight: 153
m/z	intensity
33	7
34	1
36	1
37	32
39	251
40	69
41	177
42	214
43	425
44	28
45	4
46	1
47	3
49	8
50	71
51	110
52	179
53	183
54	137
55	160
56	61
58	34
59	1
61	8
62	12
63	26
64	20
65	57
66	75
67	146
68	180
69	42
70	15
71	1
72	0
73	1
74	4
75	3
77	28
79	77
80	101
82	999
83	42
84	7
85	1
87	0
90	0
91	2
92	7
93	9
94	26
95	15
96	53
97	58
98	3
104	1
106	22
107	11
108	20
110	149
111	12
112	1
120	1
121	4
122	2
124	43
125	3
132	0
133	2
134	25
135	19
136	28
138	781
139	43
140	3
146	0
149	0
150	2
153	487
154	23
155	2
