Mass Spectrum: Butanoic acid, 2-hydroxy-3-methyl-, ethyl ester
Formula: C7H14O3
CAS: 2441-06-7
Molecular weight: 146
m/z	intensity
25	0
26	8
27	94
28	12
29	169
30	18
31	57
37	1
38	2
39	39
40	6
41	74
42	13
43	174
44	10
45	69
46	2
47	49
48	0
49	1
50	0
51	0
53	8
54	2
55	330
56	18
57	48
58	52
59	4
60	2
67	0
68	0
69	9
70	1
71	9
72	33
73	999
74	44
75	75
76	311
77	8
78	2
82	2
83	3
84	1
85	12
86	0
87	0
88	1
89	3
90	0
91	0
95	0
99	2
100	2
101	0
103	47
104	83
105	4
106	0
111	0
113	0
117	5
118	0
119	0
123	0
128	0
129	0
131	0
146	0
147	0
