Mass Spectrum: N,N,N',N'',N''-Pentaethyldiethylenetriamine
Formula: C14H33N3
CAS: 24426-21-9
Molecular weight: 243
m/z	intensity
26	5
27	35
29	129
30	283
31	2
39	2
40	4
41	17
42	155
43	52
44	151
45	2
53	0
54	10
55	9
56	121
57	48
58	201
59	6
60	0
67	1
68	6
69	4
70	49
71	51
72	169
73	8
80	0
81	0
82	5
83	2
84	97
85	16
86	999
87	186
88	4
95	0
96	11
97	7
98	44
99	99
100	877
101	98
102	1
110	0
111	7
112	3
113	5
114	4
125	4
126	3
127	29
128	2
129	7
140	1
141	10
142	5
143	86
144	83
145	21
146	0
152	0
153	0
155	17
156	1
157	416
158	43
159	0
170	45
171	6
198	0
212	2
