Mass Spectrum: di-tert-Butyl dicarbonate
Formula: C10H18O5
CAS: 24424-99-5
Molecular weight: 218
m/z	intensity
26	1
27	17
28	2
29	69
30	1
31	6
33	0
37	0
38	0
39	22
40	5
41	133
42	8
43	46
44	12
45	3
50	0
51	0
53	1
54	0
55	9
56	64
57	999
58	44
59	35
60	1
68	0
70	0
94	3
105	0
112	1
113	0
119	4
