Mass Spectrum: Isopropyl N,N-difluorocarbamate
Formula: C4H7F2NO2
CAS: 24425-18-1
Molecular weight: 139
m/z	intensity
15	134
27	238
29	104
39	134
41	343
43	999
45	164
47	223
59	58
65	59
80	89
91	44
98	67
124	119
