Mass Spectrum: Aziridine, 2,3-dimethyl-1-(phenylmethyl)-, trans-
Formula: C11H15N
CAS: 24432-52-8
Molecular weight: 161
m/z	intensity
12	0
13	0
14	2
15	27
16	0
17	5
18	22
25	0
26	11
27	53
28	72
29	34
30	7
31	0
32	0
36	0
37	5
38	16
39	94
40	14
41	68
42	100
43	16
44	0
45	0
46	0
48	0
49	1
50	26
51	54
52	16
53	8
54	20
55	24
56	45
57	3
58	2
59	1
60	0
61	2
62	8
63	29
64	9
65	71
66	7
67	1
68	13
69	5
70	999
71	49
72	1
73	1
74	4
75	4
76	5
77	2
78	7
79	3
80	0
81	0
82	0
83	0
84	1
85	0
86	1
87	1
88	1
89	18
90	11
91	140
92	12
93	0
95	0
97	6
98	0
101	0
102	0
103	2
104	8
105	5
106	1
112	6
113	0
115	2
116	1
117	4
118	2
119	0
128	0
130	1
131	0
132	2
133	0
134	0
144	1
145	0
146	2
160	3
161	9
162	1
