Mass Spectrum: C(14a)-Homo-27-norgammacer-13-en-21-ol, 3-methoxy-, (3.alpha.,21.beta.)-
Formula: C31H52O2
CAS: 24433-34-9
Molecular weight: 456
m/z	intensity
65	48
67	440
68	129
69	999
70	129
71	574
72	70
73	114
77	144
78	148
79	300
80	70
81	599
82	151
83	344
84	114
85	259
86	70
87	70
91	307
92	77
93	503
94	166
95	907
96	148
97	281
98	70
99	148
100	70
105	377
106	111
107	518
108	207
109	503
110	74
111	107
112	66
113	74
117	85
118	51
119	403
120	166
121	499
122	185
123	370
124	70
125	148
127	77
129	55
131	162
132	81
133	370
134	214
135	814
136	192
137	203
138	66
143	74
145	166
146	77
147	300
148	177
149	296
150	74
151	81
159	181
160	74
161	259
162	148
163	174
164	55
165	55
166	77
167	137
173	114
174	70
175	218
176	74
177	133
179	74
187	292
188	122
189	640
190	351
191	151
193	55
201	225
202	148
203	666
204	462
205	137
207	166
213	66
215	70
216	92
217	103
219	107
220	107
221	411
222	218
228	77
229	129
234	92
235	114
236	159
249	66
255	103
271	55
391	66
409	48
424	59
438	70
441	122
456	388
457	144
