Mass Spectrum: Mandelhydrazide
Formula: C8H10N2O2
CAS: 2443-66-5
Molecular weight: 166
m/z	intensity
41	6
42	6
43	20
44	16
45	4
47	7
48	2
49	35
50	78
51	225
52	59
53	52
54	1
55	8
56	1
57	3
58	3
59	7
60	4
61	7
62	25
63	58
64	14
65	16
66	5
67	1
68	1
71	2
73	5
74	24
75	16
76	24
77	861
78	154
79	999
80	58
81	3
84	22
86	22
87	6
88	3
89	58
90	49
91	57
92	8
93	8
94	1
95	1
97	0
103	4
104	2
105	186
106	81
107	525
108	37
109	2
118	45
119	36
120	38
121	7
124	4
131	12
132	5
133	1
147	299
148	623
149	62
150	4
166	4
167	1
