Mass Spectrum: 4-Octyne-3,6-diol
Formula: C8H14O2
CAS: 24434-07-9
Molecular weight: 142
m/z	intensity
26	39
27	318
28	64
29	855
30	26
31	156
37	10
38	52
39	246
40	40
41	686
42	51
43	585
44	20
45	38
47	1
49	2
50	26
51	67
52	18
53	137
54	25
55	320
56	56
57	999
58	49
59	71
60	2
61	3
62	8
63	17
64	5
65	111
66	42
67	529
68	41
69	46
70	11
71	60
72	7
73	3
74	2
75	5
77	24
78	5
79	28
80	5
81	42
82	11
83	110
84	61
85	170
86	12
91	8
93	5
95	860
96	63
97	10
98	2
99	5
107	3
108	1
109	27
110	1
111	3
112	8
113	209
114	17
123	4
124	9
127	4
