Mass Spectrum: 2-Methylthioacetic acid
Formula: C3H6O2S
CAS: 2444-37-3
Molecular weight: 106
m/z	intensity
25	77
26	8
28	11
30	13
31	2
33	3
34	107
37	4
42	37
43	9
44	13
45	155
46	74
47	111
48	10
49	7
57	2
58	6
59	11
60	109
61	999
62	24
63	28
88	4
106	808
107	15
108	16
