Mass Spectrum: 1,1'-Hexamethylenedibiguanide
Formula: C10H24N10
CAS: 24447-89-0
Molecular weight: 284
m/z	intensity
12	4
13	11
14	7
15	9
16	310
17	649
18	55
26	9
27	55
28	223
29	22
30	99
31	24
32	2
38	2
39	5
40	6
41	62
42	487
43	999
44	147
45	7
48	12
50	1
51	2
52	2
53	7
54	5
55	21
56	20
57	22
58	8
59	365
60	165
61	7
63	4
64	54
65	1
66	3
67	24
68	151
69	25
70	11
71	12
72	9
73	9
74	3
77	4
78	2
79	3
80	4
81	7
82	7
83	24
84	584
85	108
86	24
87	10
88	3
91	4
93	3
94	3
95	6
96	6
97	19
98	14
99	10
100	5
101	4
102	5
103	2
105	2
107	2
108	2
109	5
110	7
111	36
112	6
113	4
114	2
115	2
117	2
119	2
122	2
123	4
124	1
125	6
126	374
127	195
128	16
129	3
130	4
131	1
135	3
136	2
137	2
138	2
139	54
140	34
141	9
142	2
143	1
145	2
149	5
150	1
151	3
152	2
153	35
154	10
155	3
163	2
165	3
166	3
167	11
168	6
169	2
180	2
181	8
182	12
183	2
193	2
194	2
195	20
196	17
197	3
205	1
207	2
208	3
209	22
210	4
211	1
220	1
223	4
224	1
225	6
226	1
