Mass Spectrum: Butyramide, 2,3-epoxy-3-phenyl-
Formula: C10H11NO2
CAS: 24446-48-8
Molecular weight: 177
m/z	intensity
15	6
16	4
17	10
18	48
26	5
27	50
28	42
29	17
30	6
31	1
37	4
38	14
39	87
40	7
41	10
42	26
43	278
44	92
45	3
46	1
49	3
50	78
51	215
52	53
53	23
54	3
55	17
56	8
57	16
58	10
59	1
61	6
62	21
63	67
64	11
65	45
66	7
67	1
69	3
72	9
73	4
74	68
75	283
76	48
77	424
78	475
79	143
80	9
81	2
85	2
86	4
87	6
88	2
89	37
90	19
91	92
92	24
93	3
94	2
98	3
99	1
100	2
101	8
102	68
103	654
104	999
105	371
106	50
107	7
108	1
114	1
115	33
116	15
117	9
118	22
119	84
120	237
121	107
122	9
128	1
129	1
130	8
131	33
132	918
133	202
134	104
135	34
136	7
142	4
143	2
144	8
145	5
146	3
147	1
148	15
149	12
150	1
159	4
160	107
161	13
162	41
163	4
176	24
177	210
178	23
179	2
