Mass Spectrum: Benzeneacetic acid, 2-chloro-
Formula: C8H7ClO2
CAS: 2444-36-2
Molecular weight: 170
m/z	intensity
14	4
16	2
17	3
18	10
26	4
27	9
28	10
29	6
35	2
36	9
37	9
38	18
39	82
40	8
41	6
42	2
43	10
44	14
45	27
47	1
48	1
49	7
50	29
51	52
52	10
53	7
55	2
57	1
60	3
61	13
62	40
63	120
64	28
65	42
66	3
67	1
69	1
72	2
73	28
74	9
75	21
76	5
77	53
78	33
79	22
80	1
84	3
85	8
86	8
87	9
88	5
89	277
90	204
91	563
92	44
93	2
96	1
97	4
99	70
100	4
101	22
102	2
103	1
105	4
106	5
107	29
108	2
111	1
113	2
116	1
118	2
121	1
122	1
123	4
124	15
125	999
126	97
127	324
128	36
129	2
130	3
134	12
135	482
136	46
137	4
139	2
141	1
147	5
149	1
150	1
151	1
152	16
153	3
154	6
155	1
170	361
171	32
172	116
173	10
174	1
