Mass Spectrum: Copper, [[2,2'-(1,2-dimethyl-1,2-ethanediylidene)bis[hydrazinecarbothioamidato]](2-)-N2,N2',S,S']-
Formula: C6H10CuN6S2
CAS: 24457-73-6
Molecular weight: 293
m/z	intensity
13	20
15	50
26	80
27	350
28	40
29	30
30	20
32	30
33	140
34	350
37	140
38	90
39	180
40	180
41	400
42	999
43	480
44	60
50	20
51	30
52	40
53	110
54	160
55	60
56	80
57	60
58	50
59	380
60	360
63	140
64	130
65	60
66	40
67	40
68	190
69	40
73	40
76	330
78	20
80	20
81	50
82	40
90	50
91	30
95	30
96	30
97	90
98	70
104	150
105	140
106	80
107	80
122	60
123	140
124	160
125	60
132	60
134	30
137	50
139	40
141	60
160	80
162	40
164	160
187	20
189	10
192	30
194	20
205	30
293	540
294	50
295	290
296	30
297	20
