Mass Spectrum: Acetamide, N-(1,2-diphenylethyl)-2,2,2-trifluoro-N-methyl-
Formula: C17H16F3NO
CAS: 24456-03-9
Molecular weight: 307
m/z	intensity
40	10
41	40
42	10
43	10
44	10
49	20
50	30
51	10
52	10
62	10
63	10
64	20
65	10
68	40
69	10
74	30
76	50
77	30
78	10
81	10
82	20
83	10
89	30
90	20
91	70
92	20
101	20
102	30
103	20
104	10
109	20
110	999
111	30
118	70
119	30
120	20
125	10
126	10
131	10
132	10
139	10
140	10
145	10
146	20
147	10
148	10
149	10
150	10
151	10
152	10
165	30
166	20
167	10
176	10
177	10
178	40
179	40
180	360
181	70
182	10
216	980
217	100
218	20
306	7
307	1
308	1
