Mass Spectrum: Urbacid
Formula: C7H15AsN2S4
CAS: 2445-07-0
Molecular weight: 330
m/z	intensity
15	17
42	61
44	45
47	22
61	11
64	23
72	33
73	87
76	10
77	34
88	999
89	42
90	44
107	53
120	13
121	30
195	16
210	556
211	34
212	52
315	47
