Mass Spectrum: Diisopropyl azodicarboxylate
Formula: C8H14N2O4
CAS: 2446-83-5
Molecular weight: 202
m/z	intensity
41	266
43	999
45	6
46	0
47	2
48	0
49	4
51	1
54	0
55	1
56	18
57	6
58	2
59	5
60	0
61	0
62	3
69	1
70	0
71	5
73	88
74	1
75	19
76	1
77	2
79	0
83	0
84	2
85	1
86	1
87	5
88	0
89	0
97	0
99	13
100	0
101	1
102	0
103	1
104	1
105	0
113	1
115	10
117	195
118	7
119	1
121	2
123	0
129	0
130	0
143	0
145	0
147	0
149	0
158	0
159	2
160	0
185	0
191	0
202	4
203	0
204	0
