Mass Spectrum: 3,5-Dimethyl-1,4-dibenzylpyrazole
Formula: C19H20N2
CAS: 24466-63-5
Molecular weight: 276
m/z	intensity
26	11
27	34
28	41
39	81
40	23
41	45
42	66
43	10
50	15
51	54
52	21
53	19
56	25
63	34
64	12
65	199
66	29
76	14
77	69
78	22
89	44
90	26
91	999
92	103
99	25
102	24
103	38
104	21
105	13
108	12
109	89
115	64
116	22
117	23
118	12
123	61
124	7
127	20
128	106
129	31
130	20
136	23
137	12
138	27
142	30
143	24
144	41
145	13
151	12
152	13
155	10
156	14
157	11
158	15
165	12
166	5
167	12
168	11
169	20
170	13
171	57
172	19
178	12
179	12
180	12
182	16
183	34
184	45
185	330
186	96
187	12
197	17
198	8
199	276
200	70
201	17
261	327
262	71
263	7
275	314
276	500
277	109
278	6
