Mass Spectrum: Phenol, 4-hexyl-
Formula: C12H18O
CAS: 2446-69-7
Molecular weight: 178
m/z	intensity
26	1
27	14
28	2
29	15
38	2
39	21
40	3
41	21
42	3
43	13
50	3
51	12
52	8
53	14
54	1
55	12
56	1
57	1
62	2
63	6
64	2
65	13
66	4
67	2
68	1
69	1
74	1
75	1
76	1
77	79
78	21
79	12
80	2
81	3
89	3
90	1
91	19
92	2
93	3
94	13
95	2
96	1
102	1
103	7
104	1
105	5
107	999
108	91
109	6
115	3
116	1
117	1
118	1
119	5
120	13
121	7
122	1
127	1
131	2
132	1
133	5
134	1
135	1
149	1
178	112
179	15
180	1
