Mass Spectrum: 4-Chlordehydromethyltestosterone
Formula: C20H27ClO2
CAS: 2446-23-3
Molecular weight: 334
m/z	intensity
40	27
41	329
43	999
44	27
45	44
50	10
51	59
52	28
53	164
54	35
55	271
56	18
57	102
58	112
59	32
62	2
63	32
64	16
65	165
66	37
67	229
68	76
69	79
70	5
71	175
72	18
73	14
74	2
75	22
76	6
77	247
78	64
79	252
80	42
81	165
82	26
83	51
84	10
85	29
86	6
87	6
88	2
89	64
91	787
92	87
93	269
94	53
95	163
96	21
97	39
98	11
99	22
100	3
101	22
102	31
103	102
104	36
105	235
106	50
107	233
108	121
109	112
110	22
111	104
112	25
113	11
114	6
115	191
116	61
117	88
118	27
119	245
120	66
121	380
122	56
123	46
124	13
125	101
126	160
127	102
128	218
129	128
130	41
131	77
132	36
133	80
134	29
135	53
136	11
137	21
138	10
139	38
140	12
141	87
142	48
143	61
144	36
145	94
146	45
147	236
148	47
149	22
150	8
151	34
152	38
153	53
154	46
155	500
156	142
157	197
158	80
159	92
160	43
161	262
162	45
163	15
164	4
165	90
166	35
167	57
168	57
169	60
170	32
171	82
172	46
173	77
174	23
175	11
176	10
177	15
178	20
179	103
180	31
181	54
182	21
183	27
184	17
185	30
186	19
187	16
188	3
189	7
190	2
191	11
192	11
193	30
194	12
195	25
196	13
197	27
198	17
199	29
200	6
201	5
202	2
203	2
205	8
206	9
207	22
208	11
209	24
210	11
211	23
212	37
213	32
214	5
215	2
217	1
219	4
220	3
221	7
222	10
223	20
224	17
225	55
226	12
227	20
228	11
229	8
231	1
233	5
234	1
235	2
236	1
237	8
238	9
239	5
240	110
241	56
242	10
247	8
248	6
249	2
251	6
252	6
253	2
255	1
256	2
257	1
260	2
261	7
262	2
263	22
264	5
265	44
266	9
267	1
275	3
276	7
277	2
278	3
279	1
280	20
281	38
282	8
283	2
298	5
299	9
301	8
302	1
303	3
316	1
319	9
320	2
321	4
333	1
334	82
335	19
336	29
337	6
