Mass Spectrum: (4aS,5R,6S,8aS)-5-(2-(Furan-3-yl)ethyl)-5,6,8a-trimethyl-3,4,4a,5,6,7,8,8a-octahydronaphthalene-1-carboxylic acid
Formula: C20H28O3
CAS: 24470-47-1
Molecular weight: 316
m/z	intensity
26	1
27	26
29	32
30	1
31	2
38	2
39	60
40	13
41	208
42	14
43	86
44	3
45	13
47	1
50	3
51	21
52	12
53	164
54	21
55	193
56	12
57	27
58	2
59	4
60	3
62	1
63	6
64	3
65	73
66	23
67	147
68	28
69	127
70	12
71	13
72	1
73	4
75	8
76	2
77	142
78	27
79	188
80	23
81	561
82	267
83	103
84	10
85	8
86	1
87	2
88	1
89	3
90	2
91	194
92	28
93	128
94	185
95	443
96	550
97	120
98	10
99	4
100	5
101	2
102	3
103	21
104	9
105	140
106	24
107	114
108	27
109	81
110	13
111	49
112	4
113	4
115	34
116	13
117	33
118	9
119	92
120	23
121	73
122	19
123	63
124	13
125	999
126	78
127	13
128	17
129	18
130	7
131	34
132	9
133	77
134	15
135	41
136	14
137	240
138	34
139	26
140	4
141	7
142	4
143	10
144	4
145	25
146	6
147	53
148	11
149	34
150	13
151	84
152	14
153	12
154	2
155	3
156	1
157	7
158	2
159	19
160	5
161	31
162	5
163	12
164	6
165	22
166	3
167	3
168	1
169	2
170	1
171	5
172	2
173	10
174	3
175	56
176	10
177	14
178	5
179	5
180	2
181	1
182	1
183	2
184	1
185	16
186	3
187	6
188	2
189	11
190	3
193	6
194	1
195	1
197	2
198	1
199	4
200	1
201	9
202	3
203	231
204	36
205	53
206	8
207	3
211	1
212	1
213	3
214	1
215	3
216	1
217	3
218	2
219	14
220	48
221	236
222	49
223	8
225	1
226	1
227	3
229	2
230	1
231	1
234	1
235	2
236	1
237	2
238	1
239	2
240	1
241	2
242	1
243	2
244	2
247	1
253	1
255	2
257	2
258	1
259	1
265	2
270	1
271	2
272	2
273	1
283	65
284	14
285	2
286	1
287	1
289	4
298	3
299	2
301	10
302	3
316	44
317	10
318	2
