Mass Spectrum: 2-Pentenoic acid, 5-(decahydro-5,5,8a-trimethyl-2-methylene-1-naphthalenyl)-3-methyl-, [1S-[1.alpha.(E),4a.beta.,8a.alpha.]]-
Formula: C20H32O2
CAS: 24470-48-2
Molecular weight: 304
m/z	intensity
15	10
16	8
17	14
18	74
26	4
27	46
28	36
29	92
30	6
31	36
32	2
37	4
38	4
39	72
40	24
41	360
42	56
43	565
44	464
45	50
46	4
49	4
50	4
51	16
52	12
53	144
54	36
55	563
56	64
57	152
58	40
59	24
60	24
63	6
64	4
65	62
66	26
67	410
68	96
69	372
70	44
71	112
72	14
73	28
74	6
75	4
76	4
77	174
78	38
79	440
80	126
81	999
82	248
83	228
84	60
85	68
86	6
87	16
88	6
89	6
90	4
91	344
92	76
93	731
94	156
95	909
96	116
97	280
98	44
99	16
100	174
101	16
102	6
103	24
104	16
105	344
106	108
107	787
108	196
109	709
110	96
111	184
112	32
113	26
114	8
115	28
116	14
117	58
118	32
119	280
120	156
121	631
122	266
123	539
124	296
125	196
126	16
127	16
128	16
129	28
130	14
131	78
132	36
133	250
134	88
135	583
136	156
137	108
138	28
139	48
140	16
141	18
142	6
143	18
144	12
145	80
146	38
147	282
148	80
149	400
150	70
151	50
152	36
153	246
154	32
155	16
156	4
157	26
158	12
159	76
160	26
161	192
162	54
163	236
164	44
165	54
166	28
167	16
168	6
169	6
170	6
171	18
172	6
173	84
174	28
175	204
176	64
177	124
178	26
179	26
180	26
181	36
182	6
183	6
184	6
185	18
186	8
187	56
188	16
189	266
190	58
191	40
192	26
193	132
194	26
195	6
196	4
197	8
198	4
199	8
200	4
201	36
202	44
203	164
204	36
205	28
206	16
207	74
208	22
209	6
211	6
212	4
213	16
214	4
215	28
216	8
217	44
218	16
219	46
220	44
221	66
222	16
223	4
225	8
226	4
227	18
228	6
229	48
230	16
231	18
232	6
233	58
234	16
235	4
236	4
237	4
239	4
241	14
242	16
243	106
244	28
245	456
246	104
247	36
248	36
249	6
250	4
251	4
253	8
254	6
255	6
256	6
257	16
258	16
259	36
260	36
261	166
262	36
269	6
270	6
271	40
272	18
273	16
274	26
275	66
276	46
277	36
278	6
284	8
285	6
287	36
288	14
289	264
290	130
291	30
292	6
304	36
305	6
