Mass Spectrum: Pyridine (5-methyl-2-nitrophenyl)nitride
Formula: C12H11N3O2
CAS: 244759-54-4
Molecular weight: 229
m/z	intensity
15	1
25	4
26	41
27	53
28	80
29	2
30	57
36	3
37	21
38	44
39	175
40	21
41	23
42	4
43	3
44	12
48	3
49	21
50	132
51	266
52	610
53	74
54	7
55	3
56	1
57	3
60	1
61	10
62	30
63	86
64	68
65	533
66	93
67	8
68	2
69	2
70	1
71	2
73	2
74	13
75	33
76	37
77	121
78	183
79	999
80	90
81	6
82	1
83	2
84	1
85	3
86	7
87	9
88	8
89	300
90	129
91	56
92	43
93	9
94	7
95	3
96	1
97	2
98	1
99	1
101	1
102	12
103	13
104	28
105	52
106	27
107	7
108	2
109	1
111	1
114	2
115	2
116	5
117	9
118	15
119	17
120	10
121	9
122	5
123	1
127	1
128	2
129	2
130	2
131	2
132	2
133	3
134	93
135	10
136	4
137	1
140	1
141	2
142	3
143	27
144	5
145	1
148	2
149	2
150	799
151	70
152	62
153	6
154	4
155	3
156	2
157	1
166	1
167	3
168	36
169	45
170	8
171	1
179	1
180	1
181	27
182	52
183	37
184	6
185	1
194	1
195	2
196	2
197	71
198	10
199	2
211	1
229	143
230	20
231	2
