Mass Spectrum: Dithioacetic acid .alpha.-[p-nitrophenyl] 3-carbamylpyridinium
Formula: C14H11N3O3S2
CAS: 24472-71-7
Molecular weight: 333
m/z	intensity
41	37
42	16
43	44
44	367
45	164
46	35
47	108
48	328
49	139
50	326
51	640
52	220
53	74
54	11
55	8
58	8
59	14
60	22
61	26
62	44
63	142
64	679
65	122
66	56
67	14
69	25
70	10
71	9
73	8
74	33
75	63
76	123
77	328
78	846
79	127
80	22
81	5
82	12
83	9
84	55
85	5
86	41
87	11
88	15
89	200
90	132
91	97
92	35
93	25
94	61
95	13
96	7
97	2
99	10
102	23
103	15
104	142
105	112
106	999
107	111
108	19
109	11
110	2
113	2
115	2
119	9
120	64
121	83
122	702
123	107
124	13
125	17
126	7
127	9
132	11
133	9
134	21
135	3
136	376
137	112
138	25
139	12
148	22
149	13
150	84
151	90
152	31
153	38
154	11
163	9
164	10
165	29
166	40
167	35
168	15
169	119
170	14
171	25
173	3
176	15
177	11
178	16
179	4
180	19
181	8
182	10
183	11
192	5
193	11
194	8
195	2
209	2
210	6
213	4
215	15
229	2
239	27
240	20
241	11
255	7
256	11
257	2
258	4
270	40
271	8
272	12
273	11
274	5
288	2
289	5
301	2
333	5
