Mass Spectrum: 3-Methyl-3-isopropyldiaziridine
Formula: C5H12N2
CAS: 24476-95-7
Molecular weight: 100
m/z	intensity
29	140
30	100
31	38
32	65
39	160
40	30
41	390
42	999
43	180
44	150
45	13
53	40
55	350
56	30
57	130
58	43
68	135
69	38
70	100
72	200
73	15
85	175
86	23
100	3
