Mass Spectrum: 1,3,5-Triazine, 2-(pentylthio)-4,6-bis(trichloromethyl)-
Formula: C10H11Cl6N3S
CAS: 24481-70-7
Molecular weight: 415
m/z	intensity
15	7
26	11
27	203
28	11
29	449
30	7
34	2
35	40
36	137
37	11
38	50
39	168
40	30
41	999
42	737
43	832
44	18
45	130
46	80
47	97
48	7
49	30
50	8
51	9
52	7
53	40
54	20
55	333
56	30
57	44
58	27
59	80
60	84
61	25
62	23
63	7
64	7
65	9
66	5
67	51
68	20
69	713
70	357
71	56
72	130
73	113
74	16
75	25
76	9
77	9
78	2
79	40
81	16
82	170
83	13
84	110
85	63
86	80
87	32
88	9
89	9
91	35
92	2
93	13
94	11
95	5
96	13
97	7
98	11
99	13
100	32
101	42
102	13
103	75
104	7
105	11
106	7
107	7
108	374
109	118
110	223
111	82
112	40
113	13
114	7
115	2
116	2
117	177
118	7
119	174
120	20
121	54
122	68
123	9
124	32
125	7
126	18
127	2
128	16
129	20
130	5
131	30
132	5
133	13
134	106
135	53
136	61
137	30
138	16
139	7
140	208
141	7
142	111
143	11
144	44
145	11
146	37
147	5
148	16
149	7
150	7
151	2
152	75
153	5
154	51
155	7
156	18
157	7
158	11
159	5
160	7
161	7
162	5
163	7
164	2
165	2
166	9
167	25
168	9
169	30
170	16
171	13
172	13
173	9
174	7
175	5
176	2
178	23
179	7
180	20
181	20
182	9
183	18
184	5
185	7
186	2
187	9
188	5
189	7
190	13
191	2
192	11
193	112
194	27
195	82
196	20
197	24
198	12
199	2
200	7
201	9
202	5
203	12
204	7
205	9
206	24
207	12
208	17
209	7
210	7
211	7
212	2
213	9
214	2
215	14
216	2
217	24
218	7
219	28
220	12
221	17
222	9
223	9
224	5
225	2
226	2
227	2
228	62
229	9
230	68
231	9
232	28
233	5
234	7
235	9
236	5
237	12
238	5
239	12
240	31
241	14
242	26
243	12
244	17
245	9
246	9
247	7
248	12
249	5
250	7
251	5
252	7
253	9
254	9
255	12
256	9
257	12
258	5
259	5
260	5
261	4
262	7
263	5
264	7
265	5
266	7
267	5
268	7
269	7
270	7
271	5
272	9
273	9
274	12
275	14
276	36
277	26
278	43
279	24
280	36
281	14
282	16
283	7
284	7
285	8
286	8
287	7
288	31
289	12
290	33
291	9
292	26
293	12
294	17
295	12
296	12
297	9
298	12
299	7
300	12
301	9
302	7
303	12
304	17
305	9
306	14
307	14
308	41
309	67
310	94
311	102
312	98
313	100
314	88
315	64
316	57
317	31
318	17
319	12
320	19
321	9
322	26
323	24
324	121
325	33
326	196
327	36
328	134
329	26
330	47
331	9
332	12
333	5
334	7
335	2
336	7
337	14
338	12
339	21
340	24
341	19
342	31
343	9
344	84
345	169
346	166
347	369
348	158
349	262
350	80
351	121
352	50
353	41
354	21
355	17
356	9
357	19
358	11
359	47
360	19
361	85
362	17
363	68
364	10
365	33
366	3
367	7
368	26
369	5
370	50
371	7
372	37
373	9
374	74
375	9
376	59
377	7
378	24
379	21
380	607
381	86
382	983
383	128
384	702
385	83
386	245
387	28
388	45
389	7
390	30
391	2
392	10
400	4
402	7
414	3
415	12
416	6
417	23
418	5
419	20
420	2
421	9
422	1
423	2
