Mass Spectrum: 1,3,5-Triazine, 2-(hexylthio)-4,6-bis(trichloromethyl)-
Formula: C11H13Cl6N3S
CAS: 24481-71-8
Molecular weight: 429
m/z	intensity
15	5
26	8
27	210
28	24
29	302
30	10
34	2
35	51
36	260
37	16
38	82
39	215
40	37
41	933
42	201
43	770
44	24
45	74
46	73
47	80
48	7
49	24
50	5
51	11
52	7
53	48
54	40
55	999
56	447
57	70
58	20
59	55
60	117
61	20
62	16
63	7
64	7
65	11
66	3
67	68
68	13
69	128
70	30
71	16
72	106
73	61
74	18
75	20
76	9
77	7
78	5
79	40
80	3
81	47
82	91
83	358
84	100
85	51
86	91
87	74
88	27
89	8
90	5
91	32
92	2
93	13
94	13
95	2
96	11
97	5
98	8
99	8
100	22
101	13
102	3
103	2
104	1
105	8
106	7
107	5
108	280
109	132
110	166
111	66
112	27
113	20
114	11
115	33
116	24
117	184
118	10
119	177
120	18
121	56
122	42
123	8
124	32
125	5
126	11
127	5
128	5
129	22
130	2
131	22
132	5
133	14
134	86
135	37
136	50
137	24
138	16
139	7
140	133
141	7
142	96
143	13
144	63
145	7
146	35
147	5
148	18
149	5
150	5
151	3
152	58
153	5
154	51
155	5
156	13
157	5
158	11
159	7
160	7
161	7
162	2
163	2
164	3
165	2
166	8
167	20
168	7
169	20
170	13
171	11
172	13
173	8
174	7
175	5
176	2
177	3
178	20
179	7
180	22
181	20
182	7
183	14
184	2
185	8
186	2
187	8
188	3
189	5
190	8
191	2
192	18
193	96
194	30
195	88
196	27
197	16
198	10
199	2
200	3
201	7
202	3
203	8
204	7
205	7
206	14
207	10
208	11
209	8
210	5
211	3
212	3
213	10
214	2
215	10
216	2
217	20
218	8
219	22
220	8
221	18
222	7
223	5
224	3
225	2
226	2
227	3
228	53
229	7
230	68
231	7
232	22
233	3
234	5
235	3
236	3
237	2
238	3
239	8
240	25
241	8
242	24
243	8
244	14
245	8
246	7
247	7
248	8
249	7
250	5
251	7
252	7
253	8
254	8
255	10
256	7
257	8
258	3
259	3
260	2
261	3
262	3
263	2
264	2
265	3
266	7
267	2
268	5
269	3
270	5
271	3
272	5
273	3
274	10
275	18
276	33
277	25
278	42
279	24
280	32
281	18
282	16
283	8
284	8
285	2
286	7
287	5
288	22
289	11
290	38
291	10
292	20
293	10
294	11
295	10
296	7
297	10
298	3
299	3
300	2
301	5
302	11
303	8
304	18
305	10
306	20
307	13
308	11
309	47
310	35
311	134
312	125
313	136
314	110
315	94
316	41
317	37
318	25
319	20
320	13
321	8
322	20
323	16
324	90
325	37
326	106
327	42
328	81
329	20
330	30
331	10
332	13
333	8
334	10
335	5
336	13
337	16
338	20
339	24
340	42
341	16
342	37
343	10
344	70
345	160
346	130
347	326
348	176
349	257
350	145
351	115
352	88
353	32
354	22
355	8
356	11
357	7
358	56
359	42
360	74
361	68
362	66
363	65
364	38
365	30
366	13
367	10
368	10
369	11
370	7
371	10
372	25
373	11
374	50
375	11
376	42
377	5
378	16
379	8
380	5
381	2
382	4
383	5
384	5
385	8
386	27
387	5
388	57
389	7
390	44
391	2
392	18
393	75
394	473
395	122
396	770
397	107
398	540
399	76
400	220
401	25
402	78
403	7
404	40
405	2
406	3
407	2
408	5
409	2
410	5
411	2
412	3
428	4
429	16
430	7
431	31
432	6
433	25
434	5
435	11
436	2
437	3
438	1
