Mass Spectrum: 1,4-Dithiin-2,3,5,6-tetracarbonitrile
Formula: C8N4S2
CAS: 2448-55-7
Molecular weight: 216
m/z	intensity
12	1
17	2
24	3
26	3
27	2
28	1
32	78
34	4
36	7
38	75
39	1
41	1
43	1
44	55
45	1
46	9
48	7
50	19
51	1
55	1
56	25
57	2
58	7
59	1
62	12
64	109
65	2
66	9
68	17
69	1
70	999
71	34
72	48
73	1
74	2
76	92
77	3
78	7
80	1
82	118
83	8
84	6
88	33
89	1
90	7
92	2
94	248
95	12
96	14
97	1
100	6
102	20
103	1
104	1
106	3
108	48
109	3
110	3
114	38
115	2
116	2
120	103
121	7
122	4
126	11
128	1
132	25
133	2
134	3
138	1
140	33
141	2
142	1
146	48
147	4
148	2
149	1
152	2
158	34
159	6
160	2
164	54
165	4
166	5
172	18
173	1
178	6
184	161
185	16
186	8
190	91
191	9
192	9
216	937
217	109
218	89
219	8
220	2
