Mass Spectrum: Benzaldehyde, 4-benzyloxy-3-methoxy-2-nitro-
Formula: C15H13NO5
CAS: 2450-27-3
Molecular weight: 287
m/z	intensity
28	2
38	1
39	9
41	3
50	3
51	9
52	2
53	2
55	1
62	1
63	6
64	2
65	48
66	3
75	1
76	1
77	3
78	4
79	4
89	8
90	5
91	999
92	80
93	3
104	1
105	1
106	1
107	2
123	1
151	1
257	1
287	22
288	4
