Mass Spectrum: 1,3,5-Triazine, 2-(butylthio)-4,6-bis(trichloromethyl)-
Formula: C9H9Cl6N3S
CAS: 24504-18-5
Molecular weight: 401
m/z	intensity
15	7
26	23
27	220
28	34
29	380
30	16
35	38
36	166
37	11
38	59
39	204
40	32
41	999
42	68
43	377
44	18
45	108
46	82
47	151
48	11
49	47
50	9
51	11
52	7
53	51
54	25
55	808
56	880
57	189
58	37
59	77
60	73
61	20
62	23
63	7
64	9
65	5
66	2
67	5
68	9
69	5
70	56
71	13
72	144
73	66
74	18
75	27
76	11
77	2
78	7
79	42
80	7
81	18
82	166
83	18
84	110
85	80
86	111
87	53
88	18
89	20
90	5
91	42
92	2
93	16
94	18
95	2
96	23
97	4
98	11
99	9
100	11
101	9
102	2
103	2
104	2
105	16
106	9
107	7
108	452
109	112
110	271
111	80
112	46
113	16
114	27
115	4
116	2
117	186
118	9
119	173
120	20
121	60
122	63
123	11
124	42
125	7
126	16
127	5
128	7
129	20
130	2
131	32
132	7
133	16
134	94
135	49
136	80
137	32
138	16
139	9
140	203
141	9
142	112
143	13
144	59
145	11
146	39
147	9
148	13
149	9
150	5
151	2
152	77
153	7
154	63
155	5
156	18
157	7
158	13
159	7
160	5
161	7
162	7
163	2
164	5
165	2
166	11
167	32
168	108
169	27
170	18
171	16
172	13
173	7
174	7
175	5
176	2
177	2
178	23
179	9
180	23
181	18
182	7
183	18
184	5
185	9
186	5
187	13
188	5
189	13
190	11
191	5
192	20
193	132
194	40
195	84
196	23
197	20
198	11
199	2
200	5
201	9
202	7
203	11
204	7
205	9
206	18
207	7
208	13
209	5
210	5
211	2
212	2
213	11
214	2
215	13
216	5
217	20
218	9
219	23
220	9
221	25
222	7
223	20
224	7
225	11
226	5
227	7
228	56
229	9
230	59
231	9
232	25
233	2
234	5
235	2
236	5
237	5
238	5
239	9
240	25
241	11
242	32
243	11
244	16
245	7
246	9
247	5
248	9
249	2
250	7
251	2
252	7
253	9
254	11
255	11
256	7
257	7
258	7
259	5
260	9
261	5
262	7
263	4
264	5
265	2
266	9
267	5
268	7
269	5
270	5
271	5
272	5
273	2
274	9
275	11
276	27
277	20
278	37
279	20
280	20
281	9
282	9
283	5
284	7
285	2
286	7
287	5
288	25
289	11
290	46
291	13
292	35
293	9
294	23
295	13
296	25
297	16
298	26
299	11
300	10
301	13
302	11
303	16
304	16
305	9
306	13
307	9
308	14
309	49
310	32
311	75
312	51
313	70
314	49
315	46
316	30
317	13
318	9
319	5
320	7
321	2
322	9
323	20
324	175
325	96
326	289
327	61
328	204
329	30
330	107
331	25
332	94
333	33
334	66
335	16
336	30
337	11
338	16
339	25
340	16
341	25
342	11
343	35
344	9
345	173
346	49
347	342
348	97
349	278
350	79
351	112
352	35
353	30
354	10
355	27
356	46
357	7
358	35
359	70
360	70
361	139
362	57
363	115
364	23
365	59
366	428
367	84
368	704
369	92
370	445
371	59
372	213
373	25
374	96
375	11
376	74
377	9
378	29
379	2
380	7
400	3
401	14
402	6
403	28
404	5
405	23
406	3
407	11
408	2
409	1
