Mass Spectrum: Valeric acid, thio-, S-sec-butyl ester
Formula: C9H18OS
CAS: 2450-11-5
Molecular weight: 174
m/z	intensity
28	12
29	118
35	4
39	43
40	3
41	307
42	19
43	10
44	1
45	10
47	13
53	12
54	5
55	93
56	69
57	859
58	43
59	25
60	19
61	53
67	5
69	1
71	2
73	5
75	6
76	27
77	10
84	15
85	999
86	55
87	4
88	7
89	16
90	9
91	3
103	2
117	263
118	14
119	48
132	12
145	3
174	22
