Mass Spectrum: Hexanethioic acid, S-ethyl ester
Formula: C8H16OS
CAS: 2450-12-6
Molecular weight: 160
m/z	intensity
28	85
29	245
35	17
39	46
40	7
41	227
42	58
43	999
44	25
45	13
46	7
47	16
53	11
55	161
56	12
57	8
58	6
59	13
60	9
61	35
62	14
63	5
69	18
70	27
71	766
72	29
75	6
76	15
80	4
81	1
83	4
85	1
89	23
99	798
100	33
104	11
117	3
131	272
132	9
133	7
160	3
