Mass Spectrum: 4-[[2-[Diethylamino]ethyl]amino]-2-methylpyrimido[1,2-a]benzimidazole
Formula: C17H23N5
CAS: 24511-49-7
Molecular weight: 297
m/z	intensity
41	5
42	22
43	6
44	14
49	0
51	3
52	3
53	1
54	3
55	2
56	19
57	5
58	55
59	1
63	3
64	3
65	3
66	4
67	1
70	5
71	6
72	4
75	0
76	2
77	5
78	2
84	8
85	3
86	999
87	54
88	1
90	11
91	2
92	2
96	2
99	6
100	3
102	5
103	3
105	2
111	6
117	1
118	4
129	3
133	0
141	2
142	0
143	0
155	6
156	2
158	2
170	3
171	0
181	3
182	10
183	3
197	1
198	1
209	4
210	3
211	63
212	9
223	2
225	4
297	44
298	12
299	1
