Mass Spectrum: Cyclopropane, tetramethylpropylidene-
Formula: C10H18
CAS: 24519-04-8
Molecular weight: 138
m/z	intensity
15	29
26	16
27	162
28	66
29	158
38	20
39	237
40	41
41	541
42	200
43	412
44	20
50	29
51	58
52	25
53	175
54	45
55	350
56	83
57	187
58	25
59	41
63	29
65	58
66	25
67	362
68	45
69	225
70	37
71	29
72	16
77	83
78	25
79	133
80	33
81	999
82	112
83	54
84	16
91	79
92	20
93	91
94	29
95	212
96	70
97	70
105	25
107	45
108	66
109	29
121	29
122	12
123	833
124	83
138	250
139	29
