Mass Spectrum: Ether, tert-butyl isopropylidenecyclopropyl
Formula: C10H18O
CAS: 24524-56-9
Molecular weight: 154
m/z	intensity
27	68
28	36
29	189
39	100
40	26
41	410
42	42
43	52
53	47
54	15
55	94
56	57
57	999
58	47
59	21
67	21
69	142
70	42
79	26
81	47
83	42
97	142
98	442
99	57
