Mass Spectrum: Propane, 2-(2-isopropylidene-3-methylcyclopropyl)-, trans-
Formula: C10H18
CAS: 24524-51-4
Molecular weight: 138
m/z	intensity
15	16
26	10
27	220
28	60
29	140
37	6
38	16
39	300
40	60
41	500
42	100
43	240
44	8
50	24
51	80
52	40
53	220
54	140
55	420
56	60
57	40
58	8
59	10
62	6
63	26
64	6
65	80
66	28
67	999
68	140
69	120
70	180
71	12
72	8
74	6
75	6
76	4
77	120
78	100
79	140
80	28
81	480
82	620
83	80
84	24
91	80
92	10
93	80
94	22
95	300
96	80
97	8
103	4
105	14
106	4
107	28
108	16
109	240
110	22
111	8
112	8
121	6
122	4
123	460
124	36
125	6
138	160
139	18
