Mass Spectrum: Urea, 1-ethyl-3-(propylsulfonyl)-2-thio-
Formula: C6H14N2O2S2
CAS: 24539-90-0
Molecular weight: 210
m/z	intensity
39	49
40	9
41	188
42	89
43	346
44	999
45	29
47	9
48	9
53	9
55	257
56	9
59	39
60	79
64	19
69	59
70	198
71	89
72	9
76	39
83	59
84	9
87	49
88	9
97	49
98	9
102	287
104	39
105	9
161	89
168	39
210	178
211	19
212	19
