Mass Spectrum: Propanoic acid, 3-hydroxy-, hydrazide
Formula: C3H8N2O2
CAS: 24535-11-3
Molecular weight: 104
m/z	intensity
26	8
27	63
28	51
29	58
30	26
31	271
32	999
33	28
41	10
42	19
43	179
44	30
45	85
46	6
55	85
56	6
57	6
58	4
59	9
67	2
69	5
71	7
73	80
74	11
85	9
86	22
104	16
105	2
