Mass Spectrum: .beta.-Diethylaminoethylxathene-9-carboxylate
Formula: C20H23NO3
CAS: 24539-72-8
Molecular weight: 325
m/z	intensity
26	1
27	12
28	19
29	38
30	58
31	1
39	6
40	1
41	10
42	35
43	13
44	52
45	4
50	3
51	7
52	2
53	1
54	3
55	6
56	36
57	21
58	64
59	2
60	1
62	1
63	6
64	1
65	2
67	2
68	1
69	3
70	16
71	27
72	23
73	2
74	3
75	5
76	7
77	9
78	1
79	1
81	1
82	1
83	2
84	23
85	6
86	999
87	87
88	3
89	1
91	5
94	1
96	1
97	2
98	3
99	181
100	36
101	3
102	3
103	1
104	1
105	2
106	1
107	2
111	1
113	1
114	2
115	3
116	1
117	1
119	1
121	1
125	1
126	8
127	10
128	2
131	3
139	2
141	4
142	2
144	0
145	3
146	2
149	11
150	7
151	18
152	60
153	9
154	0
155	2
165	1
167	1
168	1
173	2
179	2
180	8
181	277
182	44
183	4
190	1
191	0
194	1
195	1
196	2
197	2
205	1
208	2
209	1
254	2
255	1
310	21
311	4
323	2
324	3
325	35
326	9
327	2
