Mass Spectrum: 3-Octanamine, N,N-dimethyl-
Formula: C10H23N
CAS: 24539-82-0
Molecular weight: 157
m/z	intensity
41	130
42	160
43	60
44	90
45	10
46	10
53	10
54	10
55	40
56	70
57	20
58	80
68	10
69	10
70	50
71	120
72	50
84	50
85	20
86	999
87	70
98	10
128	640
129	60
157	20
