Mass Spectrum: 1-Benzoyl-3,3-dimethyl-4,4-diphenylazetidin-2-one
Formula: C24H21NO2
CAS: 24549-63-1
Molecular weight: 355
m/z	intensity
41	119
42	239
43	12
51	133
52	11
53	22
70	329
71	18
77	931
78	37
91	72
92	9
105	999
106	111
165	81
166	15
208	33
209	5
285	15
286	573
287	111
288	19
355	263
356	47
357	11
