Mass Spectrum: Propane, 1-(2,2-dichloro-3-isopropylcyclopropyl)-
Formula: C9H16Cl2
CAS: 24551-88-0
Molecular weight: 194
m/z	intensity
39	400
40	60
41	580
42	390
43	470
44	20
51	150
53	130
55	140
56	999
57	260
58	10
63	60
65	110
67	90
69	60
75	80
77	150
78	10
79	120
81	60
83	30
84	30
85	20
87	60
89	80
91	50
98	40
102	40
103	220
104	20
105	70
109	260
110	50
111	170
112	30
123	160
124	30
125	90
137	20
138	230
151	40
