Mass Spectrum: Cyclopropane, 1,1-dichloro-2-methyl-2-(1-methylbutyl)-
Formula: C9H16Cl2
CAS: 24551-82-4
Molecular weight: 194
m/z	intensity
39	330
40	60
41	550
42	70
43	380
44	20
51	120
53	160
54	40
55	250
56	200
57	20
65	60
67	50
69	999
70	400
71	120
75	40
77	90
81	50
83	110
87	30
89	40
98	480
99	40
109	20
123	30
194	2
