Mass Spectrum: Pentane, 1-(2,2-dichloro-1-methylcyclopropyl)-
Formula: C9H16Cl2
CAS: 24551-80-2
Molecular weight: 194
m/z	intensity
39	660
40	120
41	999
42	210
43	800
44	40
51	200
52	10
53	240
54	90
55	580
56	920
57	160
65	210
66	10
67	180
68	10
69	500
70	290
71	80
75	80
77	110
81	100
83	70
87	80
89	140
90	10
98	530
99	40
102	170
103	20
109	40
111	30
123	230
124	270
125	100
126	160
127	20
194	20
