Mass Spectrum: Butane, 1-(2,2-dichloro-3,3-dimethylcyclopropyl)-
Formula: C9H16Cl2
CAS: 24551-91-5
Molecular weight: 194
m/z	intensity
36	120
38	130
39	880
40	130
41	999
42	140
43	330
44	40
50	90
51	270
52	80
53	320
54	20
55	260
56	160
57	100
63	110
65	430
66	90
67	340
68	30
69	170
70	20
75	200
76	20
77	390
78	70
79	390
80	60
81	290
82	30
84	340
85	30
89	180
90	20
91	130
92	20
93	100
94	20
95	40
101	100
102	280
103	380
104	120
105	120
107	40
109	200
110	20
111	120
112	120
113	10
115	60
116	110
117	60
119	20
123	300
124	200
125	50
126	120
129	40
131	20
137	880
138	80
139	560
140	50
151	20
158	90
159	80
160	30
194	30
