Mass Spectrum: 1,5-Cyclohexadiene-1-carboxylic acid, 3,4-dihydroxy-
Formula: C7H8O4
CAS: 24554-00-5
Molecular weight: 156
m/z	intensity
39	751
50	155
51	237
52	110
53	717
54	231
55	303
63	151
64	110
65	493
66	324
81	910
82	844
83	86
84	86
109	296
110	999
111	103
112	82
113	124
121	441
122	62
138	958
139	89
156	655
