Mass Spectrum: 3-Octanamine
Formula: C8H19N
CAS: 24552-04-3
Molecular weight: 129
m/z	intensity
41	170
42	70
43	140
44	60
53	10
54	10
55	70
56	70
57	30
58	999
59	40
69	10
70	10
83	10
100	430
101	30
128	10
