Mass Spectrum: Hexylamine, N-methyl-N-propyl-
Formula: C10H23N
CAS: 24552-00-9
Molecular weight: 157
m/z	intensity
41	250
42	280
43	380
44	630
55	50
56	30
57	90
58	340
70	40
72	30
84	30
86	999
87	80
128	280
129	30
157	50
