Mass Spectrum: Propane, 1-(2,2-dichloro-1-methylcyclopropyl)-2,2-dimethyl-
Formula: C9H16Cl2
CAS: 24551-84-6
Molecular weight: 194
m/z	intensity
39	200
40	40
41	360
42	20
43	60
51	60
53	50
56	30
57	999
58	5
63	20
65	40
67	30
71	30
77	40
79	20
89	20
91	20
123	40
125	20
194	1
