Mass Spectrum: Cyclopropane, 1,1-dichloro-2,2-diethyl-3,3-dimethyl-
Formula: C9H16Cl2
CAS: 24551-94-8
Molecular weight: 194
m/z	intensity
36	340
38	220
39	980
40	140
41	999
42	130
43	300
44	10
50	170
51	480
52	150
53	620
54	30
55	600
56	100
57	110
63	220
64	10
65	340
66	90
67	500
68	40
69	250
70	80
75	160
76	20
77	700
78	150
79	420
80	90
81	640
82	60
84	30
89	300
90	30
91	550
92	100
93	630
94	100
95	350
96	40
101	50
102	70
103	560
104	70
105	240
106	30
107	280
108	30
109	60
110	20
115	40
116	90
117	220
118	20
119	80
123	700
124	140
125	110
126	50
129	240
130	20
131	120
132	10
137	30
139	20
143	70
158	510
159	340
160	190
161	110
162	10
165	140
166	10
167	90
194	20
