Mass Spectrum: Butylamine, 1-ethyl-N,N-dimethyl-
Formula: C8H19N
CAS: 24552-03-2
Molecular weight: 129
m/z	intensity
41	130
42	250
43	80
44	140
45	20
46	10
51	10
52	10
53	20
54	20
55	50
56	110
57	20
58	120
59	10
67	10
68	20
69	10
70	80
71	210
72	60
82	20
84	60
85	30
86	999
87	60
98	20
99	10
100	790
128	10
129	50
130	10
