Mass Spectrum: Cyclopropane, 1,1-dichloro-2-methyl-3-pentyl-
Formula: C9H16Cl2
CAS: 24551-85-7
Molecular weight: 194
m/z	intensity
39	770
40	110
41	970
42	480
43	960
44	50
51	250
52	10
53	260
54	10
55	600
56	740
57	130
58	10
63	100
65	300
66	20
67	240
68	20
69	360
70	120
71	70
75	300
76	20
77	180
78	10
79	70
81	100
83	100
84	130
85	70
87	130
89	170
90	10
91	70
98	140
102	70
103	40
109	90
110	999
111	130
112	650
113	80
114	100
115	10
116	160
117	10
123	240
124	110
125	110
126	60
137	20
138	20
194	6
