Mass Spectrum: Cyclopropane, 1,1-dichloro-2,3-diisopropyl-
Formula: C9H16Cl2
CAS: 24551-89-1
Molecular weight: 194
m/z	intensity
39	510
40	80
41	740
42	90
43	520
44	30
51	160
53	170
55	240
56	999
57	200
58	10
63	80
65	140
67	120
69	460
70	40
75	80
77	160
78	10
79	130
81	80
83	80
84	20
85	30
87	60
89	80
91	80
98	20
102	20
103	340
104	30
105	110
109	110
110	20
111	390
112	40
123	230
124	30
125	140
126	10
137	20
138	240
139	30
151	30
