Mass Spectrum: Acetic acid, 2-(N-methyl-N-phosphonatomethyl)amino-
Formula: C4H10NO5P
CAS: 24569-83-3
Molecular weight: 183
m/z	intensity
33	9
34	4
36	1
37	1
38	9
39	40
40	124
41	130
42	551
43	124
44	999
45	64
46	9
47	56
48	14
49	1
54	7
55	22
56	34
57	401
58	73
59	5
60	5
62	1
63	11
64	20
65	29
68	5
69	7
70	17
71	8
72	21
73	11
74	28
77	3
78	6
79	10
80	7
81	24
82	10
83	4
84	4
86	1
90	4
91	3
94	2
95	2
96	10
97	3
98	1
101	2
102	39
103	3
112	2
116	5
120	1
124	2
136	1
137	58
138	5
165	4
