Mass Spectrum: Methyl abietate isomer
Formula: C21H32O2
CAS: 24563-92-6
Molecular weight: 316
m/z	intensity
39	113
41	806
42	93
43	999
51	178
52	67
53	147
54	72
55	466
56	82
57	212
59	335
60	9
63	90
64	80
65	113
66	67
67	195
68	82
69	257
70	72
71	80
73	183
76	66
77	265
78	240
79	193
80	82
81	236
82	172
83	299
84	80
85	77
86	11
88	67
89	65
90	94
91	562
92	96
93	138
94	75
95	94
97	193
98	103
99	103
100	9
101	145
102	104
103	155
104	87
105	198
106	86
107	101
108	9
109	113
111	63
112	117
113	101
114	8
115	461
116	127
117	339
118	70
119	230
120	73
121	342
122	84
123	99
126	67
127	127
128	282
129	509
130	67
131	257
132	117
133	67
134	66
139	17
141	421
142	138
143	325
144	96
145	117
146	69
147	144
148	4
149	70
150	7
151	7
152	67
153	110
154	79
155	186
156	117
157	93
158	17
159	107
160	25
161	1
165	117
166	90
167	121
168	90
169	80
170	94
171	117
172	24
173	94
174	113
178	12
179	82
180	9
181	103
182	22
183	113
184	91
185	107
186	96
187	14
188	5
191	62
192	12
193	67
194	2
195	17
196	18
197	66
198	73
199	25
200	14
207	258
208	82
209	65
210	2
211	9
212	14
213	8
214	2
224	2
225	4
226	7
238	2
239	67
240	702
241	155
242	19
256	4
257	4
282	4
301	104
302	12
316	31
317	7
