Mass Spectrum: Furane-2-carboxylic acid, 2,4-dimethyl-4-(2-methoxycarbonyl-2-methyl-3-phenylpropyl)-5-oxo-, methyl ester
Formula: C20H26O6
CAS: 245678-59-5
Molecular weight: 362
m/z	intensity
33	24
34	1
37	0
39	95
40	64
41	232
43	577
45	34
50	5
51	22
52	9
53	35
55	60
57	17
59	107
60	2
61	0
62	1
63	14
65	107
66	13
67	48
69	214
70	8
71	4
73	24
74	1
75	3
77	39
78	31
79	37
81	44
83	21
85	18
86	2
87	2
89	26
91	999
92	86
93	13
94	3
95	19
96	4
97	6
99	7
100	2
101	17
102	5
103	14
105	51
107	30
108	15
109	48
111	58
112	106
113	10
115	70
116	43
117	72
118	23
119	7
121	41
122	5
123	7
124	3
125	15
126	24
127	13
128	19
129	34
131	374
132	47
133	9
134	2
135	11
136	7
137	3
139	10
140	33
141	21
142	15
143	17
144	11
145	62
146	10
147	2
149	1
150	0
151	9
152	3
153	5
154	12
155	9
157	116
158	17
159	9
161	14
162	17
163	3
164	0
165	4
166	1
167	5
168	5
169	5
170	3
172	148
173	20
174	5
175	8
176	42
177	57
178	10
179	15
180	1
181	2
183	33
184	11
185	28
186	18
187	2
191	1
193	3
194	0
195	2
197	43
198	7
199	4
201	31
202	16
203	11
204	23
205	2
207	2
209	0
211	3
212	0
213	0
215	13
216	6
217	1
223	0
225	13
226	1
227	0
229	1
230	3
234	1
236	2
237	2
239	23
240	3
241	1
243	69
244	11
245	4
253	9
254	1
255	0
256	0
257	2
262	9
263	0
271	73
272	11
273	1
275	3
276	0
283	0
284	3
285	33
286	6
287	0
299	1
300	2
302	139
303	101
304	18
305	2
315	3
330	4
331	25
332	4
344	19
345	3
346	0
360	2
362	59
363	11
364	1
371	1
