Mass Spectrum: Benzenemethanol, 2,4,6-trinitro-
Formula: C7H5N3O7
CAS: 24577-68-2
Molecular weight: 243
m/z	intensity
84	113
85	113
86	72
87	84
88	72
89	442
90	304
91	194
92	30
101	427
102	99
103	110
104	30
105	36
106	42
110	18
114	18
117	999
118	397
119	340
120	33
131	18
132	30
133	18
146	24
147	99
148	15
149	24
150	39
163	152
164	15
165	125
166	15
176	15
177	12
178	30
192	18
207	18
208	63
209	137
210	15
225	15
