Mass Spectrum: Cyclopentaneheptanoic acid, 5-oxo-3-(trimethylsiloxy)-2-[3-(trimethylsiloxy)-1-octenyl]-, methyl ester, 5-(O-methyloxime)
Formula: C28H55NO5Si2
CAS: 24578-34-5
Molecular weight: 541
m/z	intensity
12	5
13	5
15	24
16	4
18	98
25	4
26	13
27	20
28	31
29	43
30	14
31	69
32	45
38	8
39	24
40	32
41	128
42	18
43	82
44	11
45	112
46	9
47	74
48	5
49	7
50	10
51	14
52	29
53	15
54	14
55	95
56	14
57	27
58	9
59	74
60	14
61	35
65	11
66	9
67	89
68	133
69	53
70	13
71	38
72	18
73	999
74	104
75	794
76	58
77	50
78	15
79	93
80	36
81	74
82	18
83	33
84	10
85	15
87	14
89	86
90	13
91	61
92	18
93	49
94	30
95	39
96	15
97	18
98	13
99	40
100	8
101	77
102	10
103	52
104	16
105	50
106	28
107	34
108	15
109	25
110	9
111	17
112	6
113	12
114	5
115	21
116	47
117	50
118	43
119	30
120	23
121	21
122	11
123	15
124	7
125	8
126	13
127	15
128	11
129	403
130	107
131	56
132	48
133	119
134	28
135	24
136	14
137	10
139	8
140	8
141	14
142	37
143	40
144	36
145	24
146	29
147	82
148	28
149	68
150	18
151	15
152	8
153	10
154	7
155	26
156	14
157	22
158	12
159	20
160	12
161	15
162	11
163	21
164	9
165	13
166	8
167	23
168	17
169	19
170	14
171	17
172	12
173	105
174	25
175	18
176	10
177	7
178	7
179	10
180	14
181	16
182	17
183	16
184	8
185	10
186	15
187	13
188	18
189	25
190	14
191	25
192	10
193	15
194	18
195	14
196	19
197	18
198	17
199	348
200	76
201	31
202	21
203	11
204	11
205	8
206	12
207	53
208	33
209	15
210	8
211	11
212	21
213	9
214	9
215	7
216	11
217	28
218	13
219	10
220	14
221	18
222	16
223	24
224	17
225	50
226	18
227	7
228	9
229	5
230	7
231	5
232	10
233	7
234	15
235	9
236	9
237	20
238	12
239	17
240	12
241	5
242	6
243	27
244	11
245	6
246	7
247	9
248	14
249	7
250	8
251	8
252	11
253	6
254	5
255	7
257	4
258	5
260	6
261	5
262	8
263	10
264	8
265	14
266	13
267	10
268	5
269	4
270	7
271	4
272	7
273	6
274	10
275	5
276	11
277	8
278	44
279	39
280	14
281	38
282	12
283	9
287	11
288	13
289	5
290	14
291	6
292	11
293	6
294	9
295	22
296	12
297	68
298	24
299	9
300	10
304	7
305	10
306	7
308	88
309	30
310	23
311	11
312	8
313	25
314	9
315	5
316	20
317	6
318	8
320	7
321	7
322	29
323	17
324	19
325	16
326	9
327	5
329	5
330	18
331	17
332	7
333	4
336	10
337	6
338	24
339	8
340	14
341	9
342	8
348	23
349	9
350	53
351	17
352	9
353	23
354	54
355	27
356	9
361	9
362	7
364	7
365	5
366	14
367	20
368	64
369	24
370	8
378	6
380	267
381	81
382	29
383	6
388	5
390	8
392	5
393	5
394	6
398	5
399	4
406	10
408	6
410	7
412	6
414	38
415	12
416	6
418	4
420	157
421	68
422	23
423	6
438	12
440	18
441	7
451	33
452	15
470	504
471	185
472	71
473	16
508	6
510	90
511	39
512	14
526	40
527	16
528	5
541	8
