Mass Spectrum: Butane, 2-(2,2-dichloro-1,3-dimethylcyclopropyl)-
Formula: C9H16Cl2
CAS: 24577-80-8
Molecular weight: 194
m/z	intensity
36	240
38	170
39	840
40	130
41	810
42	90
43	130
50	90
51	250
52	80
53	310
54	10
55	380
56	210
57	380
58	20
63	150
64	20
65	340
66	120
67	340
68	30
69	770
70	60
75	120
77	430
78	90
79	230
80	40
81	200
82	20
84	999
85	80
89	110
90	10
91	310
92	50
93	400
94	60
95	150
96	10
101	50
102	120
103	140
104	60
105	70
107	130
108	10
109	40
111	20
115	60
116	50
117	40
123	150
124	20
125	30
129	150
130	260
131	70
137	100
138	40
139	70
143	30
158	110
159	10
160	40
