Mass Spectrum: 1,3,5-Hexatriene, 3-methyl-, (Z)-
Formula: C7H10
CAS: 24587-27-7
Molecular weight: 94
m/z	intensity
24	0
25	1
26	17
27	156
28	124
29	25
30	0
31	0
32	20
34	0
36	0
37	13
38	33
39	256
40	55
41	86
42	9
43	6
44	1
45	21
46	22
47	4
48	0
49	4
50	45
51	103
52	52
53	114
54	41
55	22
56	1
57	0
60	1
61	9
62	19
63	39
64	9
65	92
66	45
67	23
68	2
69	2
70	0
73	2
74	7
75	19
76	4
77	605
78	98
79	999
80	66
81	2
82	0
83	0
84	0
85	2
86	2
87	1
88	0
89	10
90	3
91	258
92	24
93	171
94	460
95	36
96	1
