Mass Spectrum: N-Methyltrifluoroacetamide, TMS derivative
Formula: C6H12F3NOSi
CAS: 24589-78-4
Molecular weight: 199
m/z	intensity
14	1
15	70
16	1
26	2
27	9
28	40
29	34
30	3
31	18
32	2
33	6
39	2
40	6
41	9
42	18
43	108
44	55
45	152
46	12
47	60
48	4
49	55
50	8
51	5
52	3
53	8
54	4
55	20
56	25
57	18
58	134
59	47
60	38
61	11
62	8
63	64
64	15
65	4
66	9
67	2
69	151
70	21
71	8
72	170
73	999
74	91
75	61
76	36
77	970
78	82
79	39
80	1
81	9
84	1
85	2
86	5
87	3
88	23
89	3
90	5
91	22
92	3
93	6
95	2
96	1
97	2
98	1
100	16
101	2
102	1
103	1
104	6
105	4
106	2
107	240
108	16
109	6
110	87
111	3
114	3
117	1
118	37
119	5
120	2
126	5
127	11
130	354
131	43
132	15
133	3
134	491
135	51
136	17
137	1
139	1
143	17
144	1
147	94
148	13
149	8
154	1
180	5
184	188
185	19
186	8
198	1
199	59
200	9
201	2
