Mass Spectrum: Dexrazoxane
Formula: C11H16N4O4
CAS: 24584-09-6
Molecular weight: 268
m/z	intensity
41	318
42	999
43	166
44	222
45	11
46	1
49	2
51	1
52	4
53	7
54	45
55	103
56	523
57	48
58	40
59	13
60	2
63	8
66	1
67	7
68	43
69	46
70	106
71	100
72	7
73	2
74	1
80	2
81	5
82	20
83	29
84	38
85	234
86	19
87	2
95	2
96	3
97	6
98	7
99	31
100	3
101	5
102	8
109	1
110	1
111	5
113	82
114	6
115	1
116	1
124	1
125	1
127	46
128	4
129	1
138	1
139	7
141	970
142	62
143	10
153	1
154	5
155	6
159	3
173	6
182	1
268	4
269	1
