Mass Spectrum: 1,3-Dithiane, 2-(2-methoxyphenyl)-
Formula: C11H14OS2
CAS: 24588-70-3
Molecular weight: 226
m/z	intensity
39	150
41	100
45	280
46	10
50	60
51	160
63	60
65	160
66	10
69	100
73	100
77	180
78	80
91	780
92	80
105	110
107	180
108	100
109	70
118	60
119	999
120	130
121	280
122	20
135	70
137	100
147	130
148	10
151	310
152	640
153	150
154	10
161	240
162	20
226	999
227	140
228	100
229	10
