Mass Spectrum: Furazan-3-carboxamide, 4-amino-, (3-pyridylcarbonyl)hydrazone
Formula: C9H9N7O2
CAS: 246048-70-4
Molecular weight: 247
m/z	intensity
46	4
50	15
51	29
53	23
66	17
69	13
78	456
79	26
104	6
106	999
107	41
120	5
144	6
146	6
172	15
187	4
189	22
190	105
217	69
230	94
244	10
246	32
247	895
248	109
