Mass Spectrum: Furazan-3-carbohydrazide, 4-amino-
Formula: C3H5N5O2
CAS: 246048-72-6
Molecular weight: 143
m/z	intensity
33	28
34	1
36	3
38	121
39	77
40	114
41	167
42	404
43	614
44	248
45	12
46	1
50	6
51	11
53	999
54	650
55	452
56	83
57	197
58	729
59	917
60	12
61	1
62	0
63	1
64	3
65	5
66	10
67	29
68	109
69	52
70	363
71	45
72	117
73	3
74	1
76	1
77	1
78	6
79	1
80	0
82	31
83	88
84	43
85	262
86	680
87	20
88	2
89	0
90	0
91	0
95	3
96	4
97	2
99	0
100	0
101	1
102	0
105	0
109	0
110	0
112	105
113	170
114	73
115	4
116	0
123	0
125	0
126	3
127	1
129	2
135	0
140	0
143	332
144	20
145	1
