Mass Spectrum: Thiodiacetophenone
Formula: C16H14O2S
CAS: 2461-80-5
Molecular weight: 270
m/z	intensity
15	1
17	1
18	3
27	9
28	9
32	4
34	1
38	2
39	19
40	1
41	5
42	3
43	5
44	2
45	14
46	3
47	1
50	26
51	121
52	9
53	1
55	1
57	1
59	2
60	1
62	2
63	8
64	2
65	24
66	2
69	1
73	1
74	5
75	6
76	13
77	438
78	37
79	2
87	2
89	5
90	2
91	90
92	8
102	2
103	9
104	2
105	999
106	73
107	5
118	1
119	2
120	42
121	6
122	2
123	4
131	2
133	13
134	2
135	3
137	8
147	2
150	2
151	3
152	2
163	2
164	30
165	165
166	18
167	9
168	1
196	1
208	1
209	1
224	5
225	1
236	2
237	112
238	19
239	2
270	34
271	7
272	2
