Mass Spectrum: 4(1H)-Pyrimidinone, 5-ethoxy-2-methyl-
Formula: C7H10N2O2
CAS: 24611-11-8
Molecular weight: 154
m/z	intensity
26	113
27	362
28	262
29	230
40	108
41	199
42	999
43	128
52	47
53	81
54	312
55	58
56	70
57	70
58	36
69	81
70	29
71	61
80	88
81	47
82	407
83	49
86	99
97	67
98	239
99	18
110	61
111	31
112	90
113	61
126	900
127	58
136	22
137	22
139	420
140	29
153	20
154	262
155	38
