Mass Spectrum: Oxirane, [(dodecyloxy)methyl]-
Formula: C15H30O2
CAS: 2461-18-9
Molecular weight: 242
m/z	intensity
15	4
26	6
27	86
29	357
30	21
31	188
32	2
38	2
39	72
40	19
41	533
42	136
43	650
44	49
45	158
46	6
47	6
51	3
52	2
53	35
54	58
55	665
56	291
57	999
58	515
59	64
60	3
61	3
65	6
66	8
67	93
68	106
69	509
70	204
71	327
72	20
73	14
74	15
75	65
76	2
77	7
79	11
80	5
81	65
82	111
83	419
84	116
85	164
86	13
87	88
88	6
89	20
91	1
93	4
94	4
95	57
96	49
97	365
98	70
99	22
100	3
101	6
102	1
107	2
108	2
109	34
110	23
111	194
112	45
113	11
115	5
121	2
123	14
124	9
125	35
126	9
127	3
129	5
137	5
138	7
139	6
140	27
141	5
165	1
166	3
167	1
168	9
169	2
183	9
185	3
197	23
198	3
