Mass Spectrum: 1,3-Heptadiene, 5,5-dimethyl-
Formula: C9H16
CAS: 24618-86-8
Molecular weight: 124
m/z	intensity
26	59
27	491
29	263
38	20
39	403
41	504
42	28
43	14
50	37
51	105
52	48
53	246
54	32
55	464
56	29
63	26
65	71
66	34
67	681
68	109
69	32
70	12
78	39
79	168
80	68
81	121
82	25
83	17
91	78
93	81
94	18
95	999
96	71
109	187
110	17
124	200
125	21
