Mass Spectrum: 2(1H)-Pyridinone, 1-[2-deoxy-3,5-bis-O-(4-methylbenzoyl)-.alpha.-D-erythro-pentofuranosyl]-
Formula: C26H25NO6
CAS: 24616-99-7
Molecular weight: 447
m/z	intensity
27	26
28	40
29	17
39	62
40	15
41	35
43	14
44	52
51	18
52	10
53	32
55	18
63	14
65	58
66	15
67	36
68	14
69	19
78	17
81	999
82	64
89	23
90	22
91	245
92	28
95	54
96	53
97	26
118	15
119	655
120	66
136	55
165	15
216	29
217	11
353	54
354	16
447	1
448	0
