Mass Spectrum: 9,12-Octadecadienoic acid, methyl ester
Formula: C19H34O2
CAS: 2462-85-3
Molecular weight: 294
m/z	intensity
25	0
26	5
27	115
28	9
29	270
30	8
31	10
33	2
34	0
38	0
39	109
41	717
42	79
43	299
44	6
45	24
46	0
51	8
52	10
53	107
54	447
55	742
56	67
57	73
59	173
60	6
61	1
63	2
65	67
66	74
67	999
68	473
69	353
70	30
71	30
72	2
73	25
74	115
75	15
77	106
78	30
79	354
80	213
81	775
82	509
83	182
84	46
85	38
87	85
88	7
89	5
91	85
92	18
93	132
94	134
95	557
96	398
97	136
98	32
99	18
100	6
101	20
102	2
103	1
104	5
105	24
106	11
107	77
108	83
109	258
110	182
111	53
115	24
116	4
119	18
120	17
121	86
122	66
123	116
124	92
125	29
126	4
127	11
128	6
129	17
130	1
131	15
132	8
133	26
134	11
135	87
136	92
137	60
138	47
139	15
149	61
150	93
151	40
152	21
162	2
163	30
164	49
165	18
166	12
173	11
174	1
175	2
176	1
177	16
178	31
179	9
221	2
222	1
223	3
224	1
261	1
262	27
263	34
264	8
279	0
290	0
294	57
295	9
