Mass Spectrum: Acetic acid, 5-isopropyl-8a,10a-dimethyl-4,6-dioxohexadecahydrodicyclopenta[a,f]naphthalen-1-yl ester
Formula: C23H34O4
CAS: 24634-28-4
Molecular weight: 374
m/z	intensity
26	2
27	32
28	30
29	70
30	2
31	3
33	0
34	0
36	2
37	1
38	1
39	24
40	7
41	236
42	24
43	773
44	23
45	11
46	0
47	0
50	1
51	3
52	3
53	43
54	9
55	241
56	38
57	75
58	6
59	8
60	4
61	2
62	0
63	1
64	2
65	17
66	6
67	92
68	21
69	104
70	8
71	36
72	2
73	3
74	0
75	1
76	1
77	55
78	13
79	103
80	20
81	132
82	53
83	999
84	56
85	32
86	6
87	1
89	0
90	1
91	102
92	18
93	124
94	73
95	133
96	64
97	771
98	78
99	13
100	2
101	2
102	1
103	7
104	4
105	83
106	25
107	88
108	100
109	133
110	35
111	94
112	16
113	4
114	2
115	8
116	4
117	21
118	10
119	59
120	106
121	90
122	44
123	47
124	96
125	48
126	7
127	5
128	8
129	12
130	5
131	35
132	12
133	126
134	77
135	92
136	31
137	47
138	12
139	9
140	5
141	6
142	5
143	16
144	8
145	33
146	11
147	46
148	14
149	26
150	22
151	26
152	17
153	12
154	3
155	6
156	5
157	17
158	8
159	27
160	11
161	38
162	20
163	36
164	19
165	10
166	3
167	3
168	2
169	6
170	3
171	14
172	8
173	23
174	8
175	35
176	22
177	16
178	13
179	15
180	3
181	4
182	2
183	9
184	3
185	18
186	5
187	16
188	6
189	34
190	27
191	15
192	5
193	3
194	3
195	4
196	3
197	10
198	3
199	10
200	12
201	16
202	5
203	73
204	10
205	4
206	1
207	5
208	2
209	4
210	2
211	5
212	2
213	7
214	3
215	18
216	8
217	7
218	255
219	47
220	11
221	8
222	2
223	4
224	1
225	6
226	2
227	8
228	2
229	5
230	2
231	2
232	1
233	9
234	2
235	5
236	8
237	3
238	1
239	3
240	1
241	6
242	1
243	9
244	2
245	1
246	1
247	1
248	1
249	0
250	0
251	0
252	0
253	6
254	3
255	6
256	2
257	6
258	3
259	2
260	2
261	6
262	2
263	154
264	18
265	3
266	0
267	1
268	1
269	1
270	1
271	7
272	6
273	2
274	2
275	11
276	84
277	14
278	298
279	98
280	15
281	5
282	1
283	0
284	0
285	1
286	1
287	1
288	0
289	3
290	1
291	1
292	0
293	0
294	0
295	1
296	4
297	2
298	0
299	7
300	2
301	3
302	1
303	5
304	1
305	0
312	0
313	3
314	5
315	4
316	2
317	5
318	184
319	36
320	5
321	0
326	0
327	0
328	1
329	0
330	0
331	2
332	20
333	4
334	1
335	0
339	0
340	0
341	2
342	0
343	0
344	0
345	0
346	1
347	0
348	0
349	0
350	0
355	0
356	27
357	8
358	1
359	14
360	3
361	1
372	1
373	1
374	128
375	24
376	5
377	0
378	0
