Mass Spectrum: Cyclopropa[5,6]-A-nor-5.alpha.-androstane-3,7-dione, 3',6.beta.-dihydro-17.beta.-hydroxy-3',3'-dimethyl-, acetate
Formula: C23H32O4
CAS: 24634-23-9
Molecular weight: 372
m/z	intensity
25	2
26	11
27	56
29	131
30	11
31	13
34	2
35	4
36	17
37	3
38	7
39	57
40	21
41	296
42	39
43	999
44	55
45	32
46	2
47	2
50	5
51	16
52	9
53	84
54	24
55	320
56	35
57	89
58	21
59	11
60	17
61	7
62	2
63	7
64	4
65	57
66	26
67	161
68	45
69	115
70	24
71	34
72	7
73	13
74	5
75	5
76	5
77	129
78	35
79	209
80	50
81	192
82	50
83	129
84	28
85	18
86	6
87	6
88	2
89	6
90	5
91	216
92	65
93	233
94	84
95	189
96	87
97	557
98	55
99	17
100	4
101	3
102	3
103	19
104	13
105	161
106	58
107	231
108	100
109	169
110	72
111	38
112	11
113	8
114	3
115	28
116	12
117	51
118	20
119	118
120	60
121	144
122	173
123	126
124	36
125	18
126	5
127	9
128	18
129	31
130	16
131	69
132	78
133	408
134	135
135	461
136	122
137	66
138	31
139	10
140	4
141	16
142	12
143	34
144	18
145	77
146	32
147	84
148	50
149	327
150	444
151	238
152	57
153	33
154	11
155	15
156	9
157	31
158	21
159	68
160	37
161	83
162	35
163	51
164	20
165	11
166	7
167	8
168	5
169	14
170	9
171	29
172	25
173	80
174	44
175	76
176	29
177	135
178	39
179	36
180	10
181	10
182	3
183	20
184	10
185	51
186	19
187	39
188	29
189	35
190	18
191	19
192	6
193	10
194	2
195	11
196	7
197	19
198	11
199	32
200	18
201	61
202	19
203	37
204	13
205	21
206	7
207	5
208	2
209	6
210	5
211	13
212	8
213	26
214	19
215	22
216	67
217	51
218	25
219	12
220	6
221	15
222	3
223	16
224	7
225	9
226	6
227	25
228	27
229	16
230	8
231	12
232	5
233	22
234	12
235	8
236	3
237	8
238	5
239	16
240	7
241	61
242	38
243	10
244	4
245	10
246	3
247	5
248	3
249	2
250	2
251	13
252	5
253	8
254	14
255	15
256	24
257	11
258	5
259	12
260	2
261	4
262	3
263	15
264	3
265	4
266	9
267	4
268	2
269	34
270	16
271	10
272	4
273	8
274	10
275	8
276	241
277	81
278	13
279	21
280	5
281	2
282	1
283	7
284	17
285	8
286	6
287	15
288	9
289	6
290	2
291	1
292	1
293	2
294	13
295	5
296	2
297	24
298	9
299	23
300	9
301	30
302	17
303	4
304	1
311	5
312	18
313	8
314	10
315	29
316	100
317	36
318	5
319	2
326	8
327	5
328	3
329	29
330	15
331	6
332	2
339	5
340	1
341	5
342	3
343	5
344	120
345	35
346	8
347	1
354	11
355	9
356	3
357	30
358	12
359	2
370	6
371	4
372	173
373	50
374	11
375	2
