Mass Spectrum: 2,4,6-Trimethyl-1,3,6-heptatriene
Formula: C10H16
CAS: 24648-33-7
Molecular weight: 136
m/z	intensity
14	2
15	27
16	3
27	313
28	87
29	198
32	11
37	9
39	600
40	88
41	498
42	29
43	125
44	10
50	70
51	163
52	92
53	320
54	33
55	205
56	19
57	8
58	7
62	16
63	62
64	15
65	153
66	44
67	181
68	17
69	9
74	14
77	474
78	108
79	811
80	109
81	111
82	10
89	8
91	592
92	99
93	999
94	151
95	44
103	75
105	540
106	144
107	299
108	560
109	48
115	12
117	9
119	114
121	648
122	56
136	233
137	24
