Mass Spectrum: O,O'O''-Triphenylphosphorothioate
Formula: C9H21O3PS
CAS: 2464-03-1
Molecular weight: 240
m/z	intensity
45	332
47	72
58	36
59	467
60	26
65	169
81	70
82	79
83	17
96	33
97	240
98	46
107	55
113	37
114	426
115	999
116	25
117	50
123	36
133	24
139	156
140	33
141	94
142	9
143	6
149	10
155	70
156	56
157	266
158	9
159	13
165	40
167	7
183	33
197	67
198	31
199	112
225	12
