Mass Spectrum: 2H-Pyran, 2-[(1,1-dimethyl-2-butynyl)oxy]tetrahydro-
Formula: C11H18O2
CAS: 24642-03-3
Molecular weight: 182
m/z	intensity
26	10
27	84
29	83
31	30
37	6
38	13
39	112
40	23
41	193
42	19
43	114
44	14
50	9
51	22
52	10
53	101
54	20
55	86
56	62
57	80
58	3
59	6
63	11
64	5
65	33
66	24
67	79
68	6
69	18
70	3
71	7
77	22
79	71
80	89
81	999
82	82
83	112
84	30
85	391
86	23
96	59
97	42
98	9
99	7
101	23
121	9
139	3
149	3
158	1
167	20
