Mass Spectrum: Benzoic acid, 2-benzoyl-1-(phenylmethyl)hydrazide
Formula: C21H18N2O2
CAS: 24664-22-0
Molecular weight: 330
m/z	intensity
51	70
77	300
91	80
105	999
106	90
122	30
209	100
210	100
211	20
225	20
226	20
314	5
330	5
