Mass Spectrum: 1,3,4-Oxadiazolium, 5-hydroxy-2,3-diphenyl-, hydroxide, inner salt
Formula: C14H10N2O2
CAS: 24660-41-1
Molecular weight: 238
m/z	intensity
17	3
18	14
26	2
27	10
28	17
37	1
38	4
39	8
41	1
42	0
43	5
44	2
45	1
49	3
50	21
51	82
52	6
53	0
57	1
62	0
63	4
64	4
65	6
69	0
74	4
75	4
76	12
77	347
78	27
79	1
83	0
91	4
93	3
103	3
104	2
105	999
106	76
107	4
115	0
119	4
149	1
152	2
166	0
167	2
195	1
197	5
238	44
239	9
240	0
