Mass Spectrum: Glycyl-D-asparagine
Formula: C6H11N3O4
CAS: 24667-21-8
Molecular weight: 189
m/z	intensity
12	18
13	4
14	13
15	22
16	213
17	293
18	768
19	1
24	2
25	7
26	56
27	158
28	207
29	66
30	121
31	4
36	3
37	5
38	13
39	28
40	60
41	118
42	81
43	178
44	999
45	20
46	6
49	1
50	5
51	11
52	20
53	21
54	47
55	82
56	82
57	31
58	12
59	37
60	15
61	2
62	3
63	5
64	6
65	6
66	8
67	17
68	18
69	22
70	37
71	11
72	50
73	8
74	2
75	2
76	3
77	6
78	7
79	5
80	9
81	10
82	28
83	19
84	33
85	30
86	7
87	5
88	9
89	3
90	2
91	3
92	5
93	6
94	5
95	7
96	10
97	27
98	21
99	37
100	57
101	12
102	2
103	2
104	2
105	4
106	5
107	6
108	6
109	8
110	48
111	45
112	49
113	95
114	19
115	3
116	2
117	2
118	2
119	4
120	5
121	4
122	7
123	9
124	8
125	10
126	62
127	12
128	4
129	4
130	2
131	2
132	2
133	3
134	4
135	5
136	9
137	7
138	13
139	8
140	11
141	2
142	1
143	2
144	2
145	2
146	2
147	3
148	3
149	5
150	5
151	7
152	9
153	19
154	45
155	6
156	3
157	2
158	1
159	2
160	2
161	3
162	3
163	5
164	5
165	5
166	5
167	7
168	3
169	4
170	7
171	9
172	26
173	4
174	1
184	1
185	1
186	1
187	2
188	3
189	3
190	4
191	1
