Mass Spectrum: Boric acid, tricyclohexyl ester
Formula: C18H33BO3
CAS: 2467-16-5
Molecular weight: 308
m/z	intensity
26	52
27	238
28	263
29	240
31	76
39	278
41	630
42	115
43	209
44	264
53	111
54	209
55	736
56	151
57	776
58	72
67	371
71	113
79	75
81	335
82	684
83	999
84	85
99	85
100	57
101	47
127	63
141	45
142	153
143	421
144	61
145	48
183	73
224	58
225	224
226	116
265	38
307	11
308	35
309	7
