Mass Spectrum: 4-Piperidinone, 1-benzoyl-
Formula: C12H13NO2
CAS: 24686-78-0
Molecular weight: 203
m/z	intensity
26	5
27	34
28	32
29	4
30	4
38	4
39	14
40	4
41	11
42	37
43	7
44	2
50	39
51	136
52	11
53	3
54	9
55	18
56	31
57	4
63	4
65	3
70	7
74	11
75	11
76	25
77	577
78	43
79	3
91	9
92	4
98	32
99	2
103	5
104	25
105	999
106	102
107	6
117	2
118	3
119	3
120	11
132	9
133	3
134	22
146	45
147	25
148	3
160	5
173	3
174	57
175	78
176	9
201	14
202	99
203	278
204	36
205	3
