Mass Spectrum: Ibogamine-18-carboxylic acid, 3,4-didehydro-, methyl ester, (2.alpha.,5.beta.,6.alpha.,18.beta.)-
Formula: C21H24N2O2
CAS: 2468-21-5
Molecular weight: 336
m/z	intensity
41	52
42	138
43	103
44	279
45	29
51	23
52	14
53	25
54	13
55	67
56	22
57	135
58	999
59	59
60	14
63	20
65	27
67	30
68	20
69	44
70	18
71	29
72	13
75	13
76	17
77	68
78	19
79	30
80	19
81	30
82	30
83	28
84	18
85	17
86	14
89	25
90	15
91	40
92	26
93	42
94	19
95	30
96	25
97	23
98	15
101	18
102	32
103	27
104	13
105	18
106	24
107	54
108	109
109	56
110	22
111	18
113	14
114	17
115	65
116	26
117	30
118	13
119	24
120	21
121	51
122	61
123	32
124	26
125	17
126	18
127	34
128	50
129	38
130	78
131	22
132	18
133	19
134	19
135	90
136	73
137	88
138	35
139	25
140	37
141	26
142	26
143	115
144	65
145	24
146	35
147	18
148	13
149	40
150	22
151	26
152	31
153	22
154	94
155	40
156	80
157	39
158	33
159	26
160	14
163	23
164	14
165	29
166	31
167	95
168	98
169	99
170	70
171	32
172	46
173	17
176	13
177	20
178	31
179	23
180	56
181	28
182	36
183	31
184	30
185	34
186	43
187	27
188	14
189	18
190	18
191	38
192	30
193	40
194	45
195	55
196	45
197	27
198	21
199	16
200	20
201	68
202	36
203	28
204	169
205	133
206	68
207	31
208	28
209	30
210	20
211	20
214	68
215	48
216	39
217	100
218	126
219	66
220	61
221	41
222	30
223	20
224	18
225	22
226	19
227	57
228	63
229	42
230	45
231	26
232	34
233	28
234	408
235	126
236	57
237	29
238	20
239	16
240	13
241	13
242	13
243	20
245	15
246	29
247	33
248	87
249	64
250	44
251	34
252	17
253	15
254	12
256	15
260	20
261	22
262	36
263	79
264	172
265	65
266	26
267	13
273	16
274	12
275	21
276	25
277	35
278	42
279	27
280	23
281	15
290	19
291	23
292	101
293	40
294	27
295	20
296	13
305	1
306	1
307	1
308	38
309	19
310	3
319	13
320	25
321	36
322	17
334	2
335	23
336	61
337	20
338	2
339	0
