Mass Spectrum: 3-Furancarboxamide, 2-methyl-N-phenyl-
Formula: C12H11NO2
CAS: 24691-80-3
Molecular weight: 201
m/z	intensity
15	1
26	2
27	17
29	3
37	3
38	8
39	39
40	4
41	2
43	103
44	3
49	1
50	15
51	39
52	28
53	36
54	3
55	1
61	1
62	3
63	12
64	10
65	41
66	9
67	12
68	1
74	2
75	2
76	2
77	26
78	3
79	2
80	17
81	6
82	1
89	1
90	1
91	6
92	13
93	14
94	2
95	1
100	3
102	1
103	2
104	4
105	1
106	2
108	33
109	999
110	67
111	6
115	3
116	1
117	1
118	1
119	2
120	2
127	2
128	2
129	1
130	2
131	1
132	4
142	1
143	3
144	6
145	1
154	1
157	1
158	1
170	2
172	2
184	7
185	1
199	1
200	7
201	210
202	29
203	3
