Mass Spectrum: 1,3-Oxathiane, 2-(1,1-dimethylethyl)-2-methyl-
Formula: C9H18OS
CAS: 24699-60-3
Molecular weight: 174
m/z	intensity
26	30
27	90
28	40
29	180
39	140
40	30
41	570
42	50
43	570
45	100
46	300
47	80
53	30
55	120
56	50
57	660
58	40
59	70
67	50
69	60
73	50
74	320
75	230
83	140
85	90
87	20
89	40
100	50
101	110
117	999
118	60
119	60
159	40
174	81
175	10
