Mass Spectrum: N-Cbz-16-oxo-tetrahydro-solasodine
Formula: C35H51NO4
CAS: 24694-73-3
Molecular weight: 549
m/z	intensity
41	102
42	26
43	59
44	22
45	5
49	2
50	1
51	6
52	2
53	16
54	11
55	144
56	30
57	28
58	5
59	2
63	6
65	47
66	5
67	70
68	23
69	108
70	16
71	6
77	20
78	4
79	54
80	12
81	72
82	62
83	20
84	11
85	3
89	9
90	6
91	999
92	75
93	55
94	17
95	53
96	30
97	24
98	301
99	20
105	31
106	10
107	51
108	25
109	23
110	9
111	5
114	2
117	6
118	2
119	18
120	10
121	25
122	39
123	11
124	14
125	8
126	5
129	2
131	8
132	3
133	14
134	6
135	15
136	7
137	4
138	6
142	19
143	3
145	8
146	3
147	11
148	6
149	8
150	8
151	3
152	14
159	7
160	3
161	10
162	6
163	6
164	7
165	7
166	15
167	9
168	7
173	4
175	5
176	10
177	6
178	3
186	0
188	468
189	65
190	6
201	2
202	2
215	8
216	7
231	33
232	326
233	47
234	7
245	3
260	3
269	5
273	4
287	15
288	3
302	7
382	9
383	2
384	1
396	7
397	8
398	5
414	20
415	5
443	21
444	9
549	2
