Mass Spectrum: 1,4,7-Triazacyclononane, 1-benzoyl-
Formula: C13H19N3O
CAS: 247067-54-5
Molecular weight: 233
m/z	intensity
41	114
42	278
43	476
44	886
45	441
46	488
47	14
51	30
55	50
56	629
57	272
58	203
59	16
60	16
61	517
65	14
68	15
69	59
70	58
71	150
72	14
73	177
77	67
78	120
81	21
83	43
84	80
85	999
86	334
87	81
91	36
95	19
97	44
98	21
99	82
100	129
101	15
105	22
106	60
111	18
112	26
119	13
124	64
129	27
130	25
149	29
177	15
