Mass Spectrum: 14,16-Hentriacontanedione
Formula: C31H60O2
CAS: 24724-84-3
Molecular weight: 464
m/z	intensity
39	72
40	21
41	527
42	114
43	999
53	40
54	48
55	442
56	122
57	762
58	80
59	37
67	106
68	48
69	440
70	80
71	469
72	32
79	48
80	42
81	168
82	58
83	208
84	106
85	186
93	42
94	58
95	173
96	50
97	160
98	93
99	48
100	826
101	56
107	29
108	18
109	101
110	21
111	74
112	53
113	128
114	29
121	32
122	21
123	48
124	69
125	42
126	18
127	26
135	34
136	16
137	40
138	133
139	37
140	18
141	18
142	48
147	16
148	10
149	21
150	10
151	26
152	21
153	21
154	40
155	18
156	37
165	13
166	13
167	13
168	16
169	21
170	10
179	10
180	16
181	16
182	10
183	16
184	21
192	106
193	32
194	18
195	13
196	13
197	10
198	10
207	24
208	18
209	13
210	29
211	173
212	34
220	106
221	34
222	16
223	10
225	16
226	16
227	8
235	34
236	21
237	16
238	34
239	133
240	37
250	136
251	37
252	10
253	162
254	40
255	13
260	10
263	32
264	13
265	8
268	80
269	50
270	8
278	144
279	37
280	8
281	170
282	42
283	13
291	13
292	16
296	80
297	40
298	8
305	13
306	16
307	10
309	40
310	24
311	8
319	13
320	21
323	10
324	18
333	13
334	24
335	8
338	18
351	10
352	13
446	90
447	40
448	5
463	16
464	66
465	26
