Mass Spectrum: .alpha.-pyrone-6-carboxylic acid, 3,4-dimethyl-
Formula: C8H8O4
CAS: 2474-49-9
Molecular weight: 168
m/z	intensity
41	258
43	257
45	130
46	7
48	3
49	8
50	54
51	93
52	52
53	36
55	38
56	8
57	9
58	4
59	1
60	9
61	28
63	47
65	89
67	999
68	28
69	56
70	15
71	6
72	1
73	15
74	8
75	2
76	1
77	11
78	6
79	6
80	4
81	6
82	3
83	9
85	38
86	4
87	4
88	4
89	1
90	0
91	5
93	13
94	9
95	79
96	5
97	16
98	12
99	9
100	6
101	2
103	11
105	5
106	3
107	4
109	2
110	3
111	18
112	22
113	45
114	3
115	2
116	0
117	4
118	0
119	0
120	0
121	3
123	568
124	43
125	13
126	4
127	2
128	1
129	3
130	5
131	1
133	0
134	0
135	0
136	0
137	1
138	2
140	288
141	19
142	2
143	0
145	0
147	0
149	1
150	4
151	3
152	1
153	0
163	1
166	0
167	0
168	437
169	63
170	7
171	4
