Mass Spectrum: 5.alpha.,14.beta.-Spirostan-3-one, cyclic ethylene acetal, (25R)-
Formula: C29H46O4
CAS: 24742-86-7
Molecular weight: 458
m/z	intensity
41	50
42	20
43	40
53	10
55	70
56	10
57	10
67	30
69	40
73	10
77	10
79	30
81	50
83	10
85	10
86	40
87	10
91	30
93	40
94	10
95	30
97	10
99	999
100	110
101	15
105	30
107	30
108	10
109	20
112	35
113	10
115	20
119	20
120	10
121	30
123	10
125	270
126	30
131	10
133	15
135	10
139	50
145	10
147	10
159	10
161	10
314	10
315	15
327	10
329	40
330	10
332	20
344	270
345	70
346	10
386	130
387	35
388	30
389	85
390	20
399	20
428	25
429	10
443	15
458	335
459	110
460	20
