Mass Spectrum: 5.alpha.-Furost-20(22)-en-26-ol, (25R)-
Formula: C27H44O2
CAS: 24744-54-5
Molecular weight: 400
m/z	intensity
41	720
42	80
43	410
44	20
45	70
50	40
51	40
52	50
53	180
54	80
55	930
56	70
57	90
58	20
59	40
65	80
66	50
67	830
68	190
69	420
70	40
71	70
72	20
73	50
74	20
75	20
77	170
78	50
79	460
80	100
81	700
82	90
83	160
84	150
85	110
86	20
87	30
91	330
92	80
93	470
94	100
95	999
96	160
97	140
98	50
99	30
101	30
103	30
104	20
105	220
106	70
107	290
108	420
109	710
110	100
111	50
112	20
113	20
114	30
115	140
116	30
117	50
118	20
119	120
120	50
121	360
122	120
123	300
124	50
125	50
126	30
127	20
128	30
129	40
130	20
131	60
132	30
133	100
134	50
135	190
136	50
137	80
138	30
139	270
140	50
141	20
142	20
143	20
144	20
145	50
146	20
147	110
148	50
149	140
150	50
151	50
152	50
153	20
155	20
157	20
159	40
160	30
161	110
162	50
163	130
164	40
165	40
166	30
167	40
168	110
169	40
171	20
173	30
174	20
175	60
176	30
177	30
178	20
179	50
180	40
181	960
182	370
183	70
184	20
185	20
187	30
189	20
190	20
191	20
195	20
198	20
199	20
201	30
202	20
203	50
204	20
215	20
216	20
217	50
218	30
219	50
220	20
229	20
230	20
231	30
232	20
241	20
244	40
245	20
255	20
256	40
257	210
258	50
259	20
271	50
272	20
285	20
286	40
287	150
288	30
300	30
301	10
302	60
303	10
317	20
327	80
328	130
329	30
330	20
331	30
332	10
340	10
341	20
342	10
343	10
368	10
370	30
371	10
386	10
398	90
399	30
400	800
401	250
402	40
