Mass Spectrum: N1-(8-Methyl-8-azabicyclo[3.2.1]oct-3-yl)-2-(2-methoxyphenyl)acetamide
Formula: C17H24N2O2
CAS: 247566-69-4
Molecular weight: 288
m/z	intensity
39	25
40	3
41	76
42	131
50	2
52	15
53	13
54	9
56	44
57	14
58	30
64	7
65	96
66	8
67	22
68	24
69	16
70	43
71	3
77	53
78	8
79	31
80	41
81	8
82	999
83	379
84	414
85	31
87	3
89	14
91	166
92	21
93	42
94	239
95	188
96	490
97	256
98	41
99	1
103	3
104	5
105	15
106	6
108	20
111	16
112	1
117	5
118	3
119	8
120	11
121	147
122	433
123	121
124	193
125	16
130	2
132	1
134	19
135	2
138	1
139	36
140	5
144	5
146	7
148	30
149	19
162	1
164	30
165	7
166	12
167	23
186	0
192	29
193	5
194	2
207	14
208	29
232	32
257	28
273	17
288	361
289	80
290	10
