Mass Spectrum: N1-(8-Methyl-8-azabicyclo[3.2.1]oct-3-yl)-2-(2-fluorophenyl)acetamide
Formula: C16H21FN2O
CAS: 247565-70-4
Molecular weight: 276
m/z	intensity
37	1
39	41
40	9
41	88
42	280
43	46
44	69
45	1
50	3
51	9
52	6
53	21
54	36
55	95
56	69
57	125
58	35
59	10
60	1
61	1
62	6
63	18
64	3
65	24
66	13
67	134
68	91
69	21
70	58
71	7
72	2
73	0
74	1
75	2
76	1
77	14
78	8
79	16
80	39
81	91
82	807
83	999
84	299
85	21
86	57
87	5
88	2
89	16
90	4
91	19
92	5
94	371
95	222
96	646
97	386
98	38
99	2
101	1
102	1
103	1
104	1
105	1
106	7
107	40
108	84
109	378
110	195
111	23
112	2
113	1
115	1
117	0
118	1
119	1
120	4
122	69
123	144
124	266
125	24
126	2
128	1
129	1
130	1
131	1
132	1
133	2
134	3
135	3
136	18
137	5
138	9
139	52
140	6
146	1
147	1
148	1
149	1
150	1
151	1
152	1
153	1
154	9
155	1
160	0
162	1
165	3
166	3
167	7
168	1
178	1
179	1
180	5
181	4
182	6
183	1
186	1
193	1
194	2
195	13
196	2
204	1
207	0
218	1
219	3
220	2
221	4
233	2
235	1
245	2
246	1
247	4
248	6
249	1
261	21
262	3
276	231
277	60
278	7
