Mass Spectrum: Thiophene, 2-decyl-
Formula: C14H24S
CAS: 24769-39-9
Molecular weight: 224
m/z	intensity
50	3
51	13
52	6
53	49
54	6
55	40
56	8
57	25
58	14
59	6
60	2
61	2
62	2
63	8
64	2
65	15
66	7
67	16
68	3
69	18
70	8
71	18
72	2
73	3
74	2
75	2
76	2
77	16
78	8
79	10
80	3
81	6
82	5
83	6
84	42
85	38
86	8
87	8
88	1
89	2
90	1
91	7
92	2
93	4
94	2
95	8
96	8
97	999
98	307
99	72
100	23
101	3
102	2
103	2
104	2
105	4
106	2
107	3
108	3
109	9
110	36
111	112
112	17
113	11
114	3
115	2
116	1
117	1
118	1
119	4
120	2
121	4
122	2
123	12
124	4
125	8
126	3
127	2
128	1
129	1
133	3
134	2
135	2
136	1
137	2
138	1
139	25
140	6
141	2
142	2
143	1
147	2
148	1
149	2
150	1
151	2
152	1
153	13
154	5
155	2
156	2
157	1
161	1
162	1
163	1
164	2
165	2
166	1
167	12
168	4
169	3
170	1
177	3
181	11
182	3
183	2
189	1
190	2
191	4
192	1
195	5
196	5
197	1
198	1
209	1
223	4
224	193
225	27
226	10
227	2
