Mass Spectrum: Isoxazole, 4-iodo-3,5-diphenyl-
Formula: C15H10INO
CAS: 24768-82-9
Molecular weight: 347
m/z	intensity
26	12
27	30
38	12
39	50
41	38
50	45
51	138
55	27
57	16
60	14
62	19
63	50
64	13
65	13
67	14
69	16
73	13
74	19
75	22
76	38
77	420
78	57
79	13
81	15
83	13
87	17
88	25
89	96
90	19
91	21
94	13
95	19
97	13
98	13
103	53
104	13
105	999
106	88
114	13
115	38
116	17
117	14
128	45
129	13
143	25
144	13
146	13
163	18
165	40
166	14
180	86
181	14
187	18
188	17
189	71
190	50
191	18
192	35
193	15
220	93
221	71
222	33
223	14
347	480
348	86
349	11
