Mass Spectrum: 1,3-Propanediol, 2-methyl-2-phenyl-
Formula: C10H14O2
CAS: 24765-53-5
Molecular weight: 166
m/z	intensity
15	2
18	2
26	2
27	36
28	5
29	110
30	4
31	53
32	1
37	1
38	6
39	56
40	5
41	24
42	1
43	539
44	11
45	3
50	24
51	71
52	17
53	11
55	9
56	2
57	284
58	15
59	1
61	2
62	7
63	24
64	5
65	40
66	5
67	1
69	1
70	1
74	9
75	11
76	10
77	141
78	81
79	63
80	4
86	1
87	1
89	12
90	4
91	211
92	25
93	95
94	7
98	1
101	2
102	15
103	92
104	20
105	67
106	9
107	6
113	1
115	84
116	22
117	309
118	999
119	90
120	6
121	1
128	2
129	3
130	2
131	2
132	4
133	8
134	28
135	342
136	36
137	2
147	1
148	7
