Mass Spectrum: Sulfurous acid, bis(1-methylpropyl) ester
Formula: C8H18O3S
CAS: 24769-51-5
Molecular weight: 194
m/z	intensity
27	108
28	87
29	296
30	7
31	32
39	55
40	7
41	263
42	20
43	175
44	20
45	552
46	12
48	17
53	7
55	12
56	145
57	999
58	50
59	158
60	60
64	29
65	2
66	2
69	1
70	3
71	10
72	7
73	44
74	2
83	55
84	4
85	1
87	1
92	4
93	1
94	1
95	3
101	94
102	5
109	13
111	3
115	4
121	2
138	1
139	75
140	4
141	4
159	1
194	0
