Mass Spectrum: Tricyclo[10.2.2.2(5,8)]octadeca-5,7,12,14,15,17-hexaene, 6-bromo-
Formula: C18H19Br
CAS: 24777-39-7
Molecular weight: 314
m/z	intensity
91	570
105	580
106	450
115	300
117	999
118	400
119	380
120	30
128	100
129	100
130	230
131	410
132	70
133	10
143	50
144	40
145	30
146	20
157	80
158	80
160	20
165	50
173	20
176	10
178	40
182	80
183	10
184	110
186	20
189	20
235	250
236	70
237	10
314	660
315	140
316	640
317	140
318	20
