Mass Spectrum: Ether, (2-ethyl-1-cyclodecen-1-yl)methyl methyl
Formula: C14H26O
CAS: 24773-30-6
Molecular weight: 210
m/z	intensity
27	124
28	78
29	212
30	11
31	22
32	11
33	10
39	184
40	40
41	776
42	64
43	171
44	19
45	530
46	12
50	10
51	33
52	29
53	192
54	86
55	774
56	64
57	72
58	34
59	70
65	84
66	57
67	999
68	191
69	371
70	45
71	408
72	53
73	41
77	185
78	65
79	631
80	296
81	982
82	691
83	312
84	64
85	379
86	47
87	14
91	196
92	44
93	637
94	203
95	764
96	361
97	320
98	37
99	160
105	71
106	27
107	511
108	769
109	422
110	125
111	177
112	280
113	110
121	498
122	227
123	164
124	70
125	315
126	35
135	358
136	133
137	68
138	12
139	52
147	18
148	11
149	747
150	105
151	25
153	54
163	466
164	60
165	19
167	13
178	498
179	75
180	13
181	593
182	74
183	8
209	8
210	110
211	18
