Mass Spectrum: Ethanamine, 2TMS derivative
Formula: C8H23NSi2
CAS: 2477-39-6
Molecular weight: 189
m/z	intensity
26	6
27	11
29	97
30	5
31	37
33	5
35	6
36	3
39	3
40	22
41	5
42	5
43	45
45	173
46	10
47	8
51	1
53	4
55	6
56	9
57	11
58	17
59	323
60	28
61	12
63	2
65	3
66	2
69	4
70	9
71	6
72	11
73	605
74	40
75	25
76	3
77	11
78	2
80	6
81	2
83	2
84	1
85	7
86	217
87	19
88	9
89	4
90	1
96	3
97	2
99	4
100	999
101	101
102	35
103	6
104	3
108	1
111	3
112	1
113	4
114	20
115	6
116	9
117	29
118	5
119	4
121	1
129	3
130	34
131	22
132	6
133	4
142	1
144	2
145	3
146	4
147	4
156	2
158	10
159	2
160	2
161	1
171	2
172	11
173	3
174	838
175	139
176	60
177	8
178	2
188	6
189	38
190	7
191	4
