Mass Spectrum: Silane, dichloro(p-menth-3-yloxy)methyl-
Formula: C11H22Cl2OSi
CAS: 24799-65-3
Molecular weight: 268
m/z	intensity
26	55
27	159
28	71
29	140
30	1
31	4
35	5
36	43
37	4
38	14
39	131
40	32
41	495
42	63
43	230
45	11
46	1
47	2
48	2
49	3
50	7
51	15
52	8
53	102
54	55
55	443
56	221
57	131
58	6
59	6
60	2
61	2
62	0
63	25
64	2
65	23
66	14
67	281
68	168
69	323
70	85
71	21
72	1
73	0
74	0
75	1
77	31
78	9
79	57
80	119
81	999
82	507
83	153
84	22
85	3
86	1
87	0
88	0
89	1
90	0
91	18
92	4
93	33
94	63
95	892
96	296
97	35
98	3
99	4
100	1
101	3
103	1
104	0
106	1
107	4
108	0
109	131
110	81
111	16
112	14
113	247
114	21
115	192
116	12
117	48
118	4
119	7
120	1
121	6
122	1
123	449
124	45
125	5
127	0
128	0
129	3
130	0
131	5
132	0
133	5
134	1
135	3
136	1
137	33
138	499
139	55
140	2
141	3
142	0
143	60
144	4
145	38
146	2
147	14
148	1
149	4
150	0
151	4
152	0
153	2
155	2
156	15
157	19
158	11
159	12
160	2
161	3
162	0
163	3
165	2
167	10
168	1
169	76
170	19
171	58
172	11
173	14
174	2
175	1
176	0
177	0
181	2
182	12
183	735
184	92
185	500
186	57
187	96
188	10
189	4
193	0
195	3
196	3
197	58
198	17
199	38
200	10
201	9
202	1
203	0
207	0
208	0
209	5
210	1
211	23
212	4
213	14
214	2
215	2
223	2
224	2
225	7
226	2
227	3
228	0
229	0
251	0
253	4
255	2
267	0
268	1
269	0
270	0
