Mass Spectrum: L-Serine, N-methyl-
Formula: C4H9NO3
CAS: 2480-26-4
Molecular weight: 119
m/z	intensity
30	250
31	120
32	30
40	30
41	100
42	930
43	110
44	200
45	60
54	20
55	30
56	290
57	60
58	30
59	30
60	100
70	70
71	30
72	30
74	999
75	40
88	850
89	150
