Mass Spectrum: Methyl 11-(2-cyclopenten-1-yl)undecanoate
Formula: C17H30O2
CAS: 24828-56-6
Molecular weight: 266
m/z	intensity
26	7
27	71
28	38
29	84
30	5
31	9
32	6
33	2
35	2
36	1
37	2
38	6
39	120
40	28
41	317
42	50
43	98
44	8
45	15
47	2
48	1
49	1
50	5
51	14
52	12
53	53
54	31
55	183
56	26
57	31
58	5
59	104
60	5
61	3
62	2
63	5
64	2
65	64
66	87
67	999
68	78
69	71
70	13
71	12
72	3
73	27
74	105
75	15
76	3
77	37
78	9
79	74
80	62
81	81
82	149
83	47
84	12
85	6
86	1
87	65
88	7
89	3
91	16
92	4
93	20
94	9
95	43
96	18
97	15
98	7
99	3
100	1
101	8
102	1
103	5
104	2
105	3
106	1
107	6
108	4
109	9
110	7
111	8
112	2
113	2
114	2
115	4
116	2
117	2
118	1
119	2
120	1
121	6
122	3
123	5
124	4
125	4
127	2
128	2
129	6
130	2
131	2
132	2
133	3
134	2
135	11
136	3
137	3
138	2
139	2
141	5
142	2
143	5
144	2
146	1
147	5
148	2
149	4
150	2
151	2
152	2
153	13
154	4
155	2
157	2
185	4
186	2
201	2
234	4
235	4
236	2
266	3
