Mass Spectrum: Acetamide, N-[2-(acetyloxy)-1-[(acetyloxy)methyl]-3-heptadecenyl]-, [R-[R*,S*-(E)]]-
Formula: C24H43NO5
CAS: 2482-37-3
Molecular weight: 425
m/z	intensity
41	337
42	166
43	999
44	60
45	69
53	40
54	29
55	163
56	83
57	188
58	12
59	9
60	172
67	108
68	122
69	89
70	58
71	27
72	11
73	44
74	10
75	19
77	37
78	21
79	58
80	75
81	80
82	89
83	77
84	651
85	560
86	38
91	25
93	38
94	129
95	77
96	42
97	40
98	25
99	24
102	170
103	13
107	13
108	61
109	34
112	14
113	6
117	20
119	8
120	12
121	12
122	29
123	21
124	18
125	13
127	20
128	11
135	12
136	153
137	63
140	10
144	150
145	21
148	9
150	40
151	11
154	14
159	8
165	8
207	18
245	6
250	43
251	17
262	12
263	10
276	6
280	8
283	5
292	35
293	11
303	5
305	27
358	5
