Mass Spectrum: L-Alanine, N-[N-[(phenylmethoxy)carbonyl]-L-threonyl]-, methyl ester
Formula: C16H22N2O6
CAS: 2483-53-6
Molecular weight: 338
m/z	intensity
41	30
42	50
43	60
44	330
45	30
50	20
51	90
52	20
53	10
54	10
55	20
56	270
57	50
58	20
59	40
63	20
65	140
69	20
70	60
71	10
72	20
74	40
77	250
78	30
79	320
80	30
83	20
84	10
86	10
87	10
88	80
89	30
90	30
91	999
92	250
99	150
100	270
101	260
102	100
103	20
104	180
105	40
106	40
107	130
108	300
109	20
112	30
120	20
126	20
127	130
128	20
131	10
132	20
134	20
143	100
144	10
145	10
146	20
147	10
159	200
160	20
164	150
165	20
170	30
174	100
175	20
185	5
186	12
187	2
191	12
192	3
194	5
198	15
199	3
203	15
204	2
208	67
209	12
210	1
218	2
231	3
232	5
233	23
234	6
235	5
236	38
261	1
262	3
263	1
279	6
280	2
289	5
290	2
294	96
295	13
296	1
307	1
338	1
