Mass Spectrum: N-Acetyl-l-alanine ethylamide
Formula: C7H14N2O2
CAS: 24847-34-5
Molecular weight: 158
m/z	intensity
15	16
17	6
18	11
26	2
27	17
28	30
29	38
30	114
31	2
40	2
41	7
42	42
43	130
44	999
45	46
46	16
54	2
55	7
56	12
57	4
58	3
59	9
60	4
68	1
69	2
70	4
71	4
72	243
73	10
74	2
83	2
84	2
85	4
86	226
87	800
88	39
89	2
99	2
100	4
101	14
113	1
114	12
115	4
140	1
143	2
158	4
159	10
