Mass Spectrum: Benzene, 2,4-dinitro-1-phenoxy-
Formula: C12H8N2O5
CAS: 2486-07-9
Molecular weight: 260
m/z	intensity
26	2
27	11
28	22
29	2
30	20
37	4
38	18
39	58
40	6
41	5
43	1
44	2
46	6
49	1
50	41
51	205
52	15
53	24
54	6
55	5
56	2
57	3
61	5
62	28
63	81
64	26
65	521
66	33
67	3
68	7
69	25
70	8
71	1
73	3
74	38
75	37
76	21
77	285
78	24
79	172
80	15
81	13
82	5
83	1
84	1
86	6
87	10
88	16
89	28
90	7
91	25
92	16
93	999
94	98
95	8
96	2
98	2
99	3
100	1
101	6
102	17
103	6
104	3
105	9
106	4
107	24
108	3
109	22
110	4
111	2
112	2
113	32
114	45
115	9
116	3
117	1
118	4
119	2
120	4
121	9
122	3
123	3
125	1
126	5
127	14
128	17
129	6
130	4
131	3
132	4
133	1
134	1
137	12
138	13
139	357
140	58
141	7
142	3
143	2
144	3
145	1
146	1
148	1
150	1
151	4
152	1
153	6
154	2
155	12
156	9
157	19
158	11
159	2
160	1
165	1
166	3
167	946
168	158
169	94
170	13
171	8
172	3
173	1
177	3
178	2
180	5
181	42
182	7
183	9
184	7
185	11
186	3
196	2
197	37
198	5
199	1
200	3
202	1
203	2
204	1
206	1
212	1
213	8
214	35
215	35
216	5
227	17
228	3
229	1
230	7
231	2
243	156
244	28
245	4
260	603
261	87
262	11
263	1
