Mass Spectrum: Benzene, 2,4-dinitro-1-(2-phenylethenyl)-
Formula: C14H10N2O4
CAS: 2486-13-7
Molecular weight: 270
m/z	intensity
27	45
28	67
29	32
30	80
32	32
38	41
39	123
40	36
43	49
46	36
50	89
51	333
52	89
53	41
55	41
57	36
58	41
62	110
63	476
64	102
65	123
66	45
69	41
74	106
75	228
76	415
77	533
78	293
79	89
80	41
81	36
82	67
83	36
84	36
85	45
86	58
87	106
88	272
89	224
90	703
91	999
92	89
93	41
98	45
99	58
100	41
101	58
102	119
103	115
104	620
105	660
106	141
107	67
111	45
113	49
114	41
115	110
116	41
118	359
119	102
120	36
121	45
122	54
123	36
125	41
126	84
127	67
128	67
135	49
137	46
138	37
139	132
140	50
141	37
148	37
149	104
150	136
151	208
152	199
153	73
154	37
163	82
164	480
165	511
166	104
167	82
168	46
174	55
175	73
176	272
177	150
178	168
179	186
180	77
190	46
191	55
192	46
193	46
194	50
195	104
196	50
206	68
207	141
208	77
222	64
223	190
224	91
225	77
238	59
240	59
241	82
253	154
254	73
269	68
270	141
271	73
