Mass Spectrum: Formamide, N-(2,4,6-triamino-5-pyrimidinyl)-
Formula: C5H8N6O
CAS: 24867-33-2
Molecular weight: 168
m/z	intensity
26	120
27	469
28	532
29	214
30	6
38	16
39	22
40	19
41	47
42	279
43	999
44	76
45	58
46	2
50	2
51	2
52	27
53	193
54	83
55	97
56	35
57	5
58	0
59	7
60	2
64	2
65	8
66	23
67	21
68	244
69	177
70	330
71	88
72	14
77	1
78	4
79	5
80	12
81	24
82	17
83	5
84	1
85	18
86	30
88	2
91	4
95	48
96	87
97	115
98	25
99	5
106	3
107	6
108	27
109	15
110	2
111	8
112	773
113	55
122	114
123	73
124	4
125	6
133	13
134	8
135	2
137	0
138	14
139	856
140	609
141	44
142	3
149	4
150	106
151	19
166	4
167	9
168	845
169	73
170	1
