Mass Spectrum: .alpha.-D-Glucopyranose, 6-deoxy-6-iodo-, tetraacetate
Formula: C14H19IO9
CAS: 24871-54-3
Molecular weight: 458
m/z	intensity
71	116
72	121
73	197
81	248
82	96
87	91
97	58
98	164
99	354
100	245
101	63
102	73
103	263
105	63
106	81
107	45
109	222
110	63
115	999
116	108
117	243
118	91
119	45
120	40
121	88
127	253
128	98
129	546
130	108
131	81
141	298
142	55
143	35
144	30
145	88
147	48
149	45
150	141
151	40
152	83
157	589
158	55
161	48
162	40
163	81
164	53
168	38
169	339
170	35
172	58
173	275
174	25
183	164
184	35
192	45
193	121
194	32
208	27
209	30
211	45
212	30
225	25
228	25
229	50
237	179
238	15
271	65
279	40
296	12
297	25
331	741
332	119
333	20
339	45
340	5
356	17
399	68
