Mass Spectrum: 8-[1-Piperidinyl]-5,6-quinolinedione
Formula: C14H14N2O2
CAS: 24886-24-6
Molecular weight: 242
m/z	intensity
41	954
42	374
43	113
44	84
49	77
50	336
51	472
52	316
53	254
54	286
55	879
56	298
57	69
62	82
63	199
64	105
65	143
66	39
67	140
68	169
69	103
70	48
73	11
74	143
75	293
76	535
77	262
78	421
79	196
80	111
82	182
83	231
84	514
85	69
87	14
88	12
89	86
90	109
91	62
92	28
93	56
94	12
101	26
102	240
103	999
104	777
105	341
106	80
116	77
117	172
118	108
119	11
129	43
130	431
131	314
132	165
133	44
142	41
143	196
144	159
145	137
146	81
147	274
156	33
157	649
158	721
159	481
160	53
168	25
169	25
170	50
171	390
172	110
173	175
184	50
185	501
186	266
187	57
196	26
197	101
199	111
213	211
214	736
215	113
242	709
243	109
244	14
