Mass Spectrum: Mesembrine
Formula: C17H23NO3
CAS: 24880-43-1
Molecular weight: 289
m/z	intensity
41	31
42	198
43	35
44	160
45	16
46	6
47	1
49	5
50	8
51	31
52	13
53	27
54	15
55	64
56	31
57	48
58	23
59	9
60	10
61	2
62	4
63	21
64	12
65	42
66	17
67	20
68	16
69	17
70	997
71	92
72	21
73	15
74	6
75	8
76	12
77	70
78	51
79	44
80	18
81	38
82	41
83	16
84	21
85	10
87	55
88	34
89	25
90	14
91	60
92	13
93	10
94	114
95	55
96	999
97	76
98	17
99	12
101	21
102	51
103	36
104	14
105	23
106	26
107	27
108	36
110	164
111	11
112	34
113	5
114	4
115	70
116	27
117	27
118	19
119	14
120	11
121	11
122	18
123	13
124	17
125	5
126	2
127	17
128	27
129	23
130	21
131	33
132	30
133	18
134	6
135	9
136	8
137	7
138	15
139	4
141	9
142	4
143	15
144	29
145	31
146	23
147	15
148	10
149	15
150	31
151	67
152	12
153	4
154	2
155	4
156	7
157	12
158	19
159	29
160	26
161	36
162	10
163	14
164	6
165	8
168	3
169	2
170	3
171	10
172	16
173	21
174	45
175	36
176	22
177	9
178	18
179	2
180	4
183	2
184	5
185	7
186	14
187	37
188	28
189	27
190	18
191	12
192	6
198	3
199	8
200	14
201	19
202	29
203	35
204	221
205	32
206	5
212	1
214	7
215	25
216	30
217	8
218	797
219	336
220	78
221	10
228	2
229	3
230	44
231	32
232	176
233	47
234	7
242	7
243	18
244	7
245	5
246	60
247	10
248	4
256	2
258	9
259	2
260	7
261	6
262	2
271	1
272	10
273	1
274	79
275	16
276	3
285	5
286	7
287	8
288	368
289	901
290	170
291	27
292	3
