Mass Spectrum: L-Methionine, N-[(1,1-dimethylethoxy)carbonyl]-
Formula: C10H19NO4S
CAS: 2488-15-5
Molecular weight: 249
m/z	intensity
14	2
15	12
16	4
17	3
18	9
25	1
26	9
27	74
28	129
29	130
30	15
31	88
32	2
33	1
34	2
35	26
37	5
38	9
39	98
40	20
41	459
42	34
43	43
44	222
45	55
46	28
47	102
48	47
49	26
50	11
51	10
52	6
53	18
54	45
55	121
56	334
57	815
58	40
59	396
60	18
61	389
62	205
63	25
64	9
65	1
68	5
69	2
70	9
71	7
72	6
73	22
74	112
75	876
76	37
77	42
78	1
81	2
82	15
83	82
84	43
85	19
86	28
87	43
88	68
89	6
90	4
91	1
93	1
95	1
96	13
97	1
98	1
99	26
100	83
101	419
102	73
103	10
104	127
105	8
106	7
109	19
110	3
111	5
112	7
113	1
114	86
115	5
116	105
117	14
118	14
119	999
120	40
121	9
126	1
127	119
128	22
129	206
130	18
131	191
132	111
133	20
134	5
135	1
142	2
144	2
145	35
146	44
147	5
148	71
149	36
150	12
151	2
157	29
158	4
159	1
160	3
175	221
176	72
177	15
178	4
192	2
193	784
194	81
195	44
196	4
204	1
249	9
250	3
