Mass Spectrum: 8-Cyclohexylamino-5,5,7-trichloro-6[5H]-quinolone
Formula: C15H15Cl3N2O
CAS: 24886-16-6
Molecular weight: 344
m/z	intensity
41	606
42	82
43	406
44	23
45	7
47	36
49	98
50	94
51	133
52	48
53	170
54	20
55	603
56	999
57	50
59	39
61	41
62	73
63	110
64	7
65	54
67	96
68	35
69	47
70	97
71	6
72	28
73	46
74	26
75	109
76	74
77	117
78	143
79	97
81	232
82	41
83	85
84	48
85	33
86	42
87	49
88	38
89	47
90	38
92	40
94	7
96	30
97	167
98	280
99	162
100	84
101	15
102	82
103	29
104	7
105	40
106	66
109	22
110	7
111	8
112	38
113	20
114	66
115	46
116	14
117	6
120	6
123	24
124	76
125	39
126	36
127	80
128	19
129	67
130	12
136	114
137	56
138	53
139	7
140	44
142	7
148	47
149	67
150	50
151	27
152	40
155	40
157	17
159	61
161	40
162	11
163	64
164	77
165	60
166	6
167	29
168	52
170	27
171	6
173	45
174	6
175	14
176	36
177	14
178	12
180	155
181	37
182	42
183	42
184	29
185	8
186	7
187	56
188	11
189	43
190	25
192	14
194	9
195	13
197	19
199	303
200	75
201	147
202	46
203	47
204	21
207	23
208	6
209	40
210	28
211	7
213	129
214	26
215	96
216	46
217	34
218	33
219	12
226	106
228	491
229	42
230	374
231	129
232	86
233	55
234	7
237	24
238	7
239	47
240	103
241	52
242	52
243	6
244	37
245	41
246	43
248	7
253	218
254	23
255	193
256	42
257	31
261	97
262	90
263	65
264	81
265	44
266	48
267	132
268	35
269	84
270	24
271	7
272	66
273	94
274	31
275	75
277	7
281	35
283	16
290	49
291	6
292	6
301	35
303	37
308	460
309	97
310	308
311	23
312	51
313	49
314	38
321	20
344	87
345	19
346	85
347	8
348	26
