Mass Spectrum: Pipofezine
Formula: C16H19N5O
CAS: 24886-52-0
Molecular weight: 297
m/z	intensity
40	569
42	999
43	555
44	247
45	23
46	6
48	8
50	87
51	91
52	87
53	79
54	55
55	87
56	133
57	63
58	29
63	87
64	33
65	61
66	45
67	57
68	18
70	123
71	105
73	73
75	61
76	73
77	113
78	53
79	33
80	14
81	19
82	33
83	31
84	10
89	57
90	21
91	23
92	21
93	12
94	12
95	12
96	10
97	12
99	12
101	23
102	49
103	21
104	21
105	27
107	8
108	6
112	8
113	6
114	19
115	29
116	12
117	8
120	25
127	10
128	29
129	14
130	19
131	8
132	16
133	14
134	14
135	12
140	6
141	6
142	12
143	12
144	8
145	6
149	10
155	10
156	14
157	16
158	65
159	53
160	10
168	8
170	14
171	8
172	8
182	10
184	6
185	10
198	12
199	14
200	12
207	12
209	6
212	59
214	69
215	57
216	8
224	10
225	10
227	507
228	45
238	6
239	16
240	25
241	10
253	8
297	39
