Mass Spectrum: 3-Butenoic acid, 4-phenyl-, methyl ester
Formula: C11H12O2
CAS: 24891-74-5
Molecular weight: 176
m/z	intensity
26	2
27	15
28	4
29	8
30	2
31	4
37	2
38	9
39	80
40	6
41	15
42	3
43	14
44	5
45	27
49	1
50	26
51	64
52	15
53	6
54	1
55	10
56	6
57	13
58	25
59	61
60	2
61	4
62	18
63	52
64	12
65	54
66	5
67	2
68	1
69	10
70	6
71	6
72	2
73	2
74	17
75	13
76	13
77	46
78	21
79	5
81	1
83	8
84	5
85	4
86	6
87	8
88	6
89	39
90	9
91	204
92	27
93	2
95	1
97	7
98	5
99	1
101	3
102	24
103	14
104	12
105	23
106	8
107	3
108	3
109	1
110	1
111	4
112	4
113	11
114	12
115	318
116	130
117	999
118	131
119	9
120	1
121	21
122	2
125	2
126	2
127	6
128	4
129	8
130	3
131	15
132	5
133	8
134	88
135	9
141	2
142	2
143	4
144	33
145	16
146	3
147	2
161	3
174	9
175	2
176	360
177	53
178	5
