Mass Spectrum: Heptadecanoic acid, 14-methyl-, methyl ester
Formula: C19H38O2
CAS: 2490-23-5
Molecular weight: 298
m/z	intensity
15	19
17	10
18	29
26	2
27	41
28	12
29	86
30	3
31	5
39	37
40	9
41	310
42	72
43	600
44	22
45	16
46	2
53	23
54	26
55	440
56	85
57	250
58	18
59	110
60	5
61	2
64	3
65	4
66	3
67	68
68	29
69	300
70	94
71	220
72	14
73	34
74	999
75	210
76	11
77	6
79	18
80	6
81	65
82	2
83	230
84	81
85	100
86	7
87	710
88	71
89	6
93	22
94	7
95	72
97	210
98	59
99	26
100	6
101	110
102	11
103	3
107	25
108	4
109	54
110	25
111	120
112	22
113	19
114	5
115	48
116	20
117	3
121	45
122	7
123	43
124	20
125	77
126	11
127	12
128	4
129	140
130	42
131	5
135	49
136	8
137	23
138	11
139	56
140	9
141	9
142	2
143	380
144	41
145	5
151	14
152	8
153	41
154	8
155	6
156	3
157	54
158	6
163	23
164	4
165	9
166	4
167	28
168	5
169	5
170	3
171	37
172	14
173	3
177	15
178	5
179	7
180	8
181	29
182	7
183	4
185	120
186	36
187	5
191	5
192	2
193	4
194	3
195	18
196	6
197	4
198	3
199	240
200	41
201	6
202	9
203	2
205	75
206	13
207	3
208	2
209	6
210	2
211	3
213	77
214	22
215	6
219	9
220	2
221	4
222	13
223	96
224	23
225	5
227	60
228	49
229	52
230	8
231	2
233	8
234	2
236	2
237	5
238	2
241	36
242	12
243	3
247	3
248	5
249	28
250	7
251	13
252	3
253	3
254	3
255	380
256	76
257	11
258	2
264	3
265	11
266	10
267	83
268	17
269	61
270	14
271	2
280	2
283	15
284	4
296	3
297	12
298	980
299	260
300	38
301	4
