Mass Spectrum: Oleic anhydride
Formula: C36H66O3
CAS: 24909-72-6
Molecular weight: 546
m/z	intensity
15	1
17	1
18	3
26	3
27	75
28	21
29	142
30	3
31	3
38	1
39	68
40	14
41	448
42	72
43	349
44	12
45	18
50	1
51	4
52	3
53	53
54	211
55	827
56	210
57	307
58	17
59	12
60	38
61	6
64	1
65	14
66	25
67	405
68	231
69	575
70	242
71	143
72	9
73	67
74	6
77	16
78	9
79	91
80	75
81	426
82	337
83	574
84	311
85	94
86	8
87	30
88	4
89	1
91	41
92	15
93	70
94	72
95	332
96	316
97	480
98	999
99	99
100	33
101	44
102	6
103	1
104	2
105	21
106	10
107	48
108	64
109	192
110	205
111	262
112	173
113	37
114	62
115	30
116	8
117	4
118	3
119	36
120	16
121	75
122	42
123	143
124	127
125	122
126	93
127	57
128	15
129	24
130	5
131	3
132	3
133	48
134	36
135	64
136	26
137	121
138	100
139	68
140	34
141	28
142	7
143	13
144	3
145	2
146	1
147	38
148	32
149	37
150	19
151	155
152	104
153	58
154	25
155	48
156	9
157	11
158	2
159	1
161	22
162	13
163	20
164	15
165	102
166	72
167	40
168	18
169	25
170	5
171	8
172	3
173	1
175	15
176	7
177	11
178	8
179	45
180	51
181	25
182	13
183	15
184	4
185	8
186	7
187	1
189	9
190	4
191	8
192	6
193	34
194	25
195	13
196	9
197	6
198	3
199	6
200	4
201	1
203	5
204	2
205	5
206	3
207	48
208	26
209	20
210	8
211	4
212	2
213	3
214	2
217	3
218	2
219	2
220	46
221	56
222	56
223	14
224	3
225	3
226	2
227	1
231	1
232	1
233	6
234	3
235	31
236	37
237	14
238	4
239	5
240	2
241	2
245	5
246	25
247	31
248	7
249	8
250	5
251	4
252	2
253	2
254	2
260	1
261	2
262	9
263	20
264	457
265	459
266	83
267	11
268	1
276	1
277	2
278	4
279	18
280	51
281	14
282	64
283	13
284	7
285	1
291	2
292	1
293	2
295	2
296	2
297	3
306	1
309	3
310	1
319	1
320	1
324	1
333	1
347	4
348	1
390	1
391	1
403	7
404	4
405	2
416	1
417	4
418	2
419	1
429	1
430	1
431	1
433	2
434	2
447	4
448	3
449	1
528	5
529	2
546	14
547	6
548	1
