Mass Spectrum: Nonanoic acid, 2,4,6-trimethyl-, methyl ester, (R,R,R)-(-)-
Formula: C13H26O2
CAS: 2490-57-5
Molecular weight: 214
m/z	intensity
15	43
18	4
26	8
27	78
28	16
29	133
30	4
31	5
32	2
33	5
39	59
40	10
41	276
42	100
43	345
44	13
45	25
51	6
52	6
53	34
54	11
55	225
56	71
57	211
58	14
59	170
60	9
61	8
65	9
66	5
67	29
68	9
69	258
70	71
71	163
72	15
73	81
74	18
75	5
77	9
79	11
81	19
82	15
83	108
84	18
85	94
86	10
87	68
88	999
89	73
90	10
91	5
95	18
96	5
97	48
98	8
99	18
100	5
101	688
102	79
103	9
107	5
109	18
110	8
111	65
112	18
113	13
114	5
115	8
121	6
123	5
124	15
125	10
126	5
127	50
128	8
129	71
130	10
139	28
140	16
141	6
143	23
144	5
145	5
149	8
153	8
154	4
155	6
165	23
166	5
167	14
171	40
172	8
181	6
183	31
184	6
199	5
214	25
215	5
