Mass Spectrum: Octadecanoic acid, 4-methyl-, methyl ester
Formula: C20H40O2
CAS: 2490-15-5
Molecular weight: 312
m/z	intensity
29	70
41	130
43	380
55	310
56	140
57	470
59	70
69	250
70	70
71	300
73	110
74	650
75	170
81	50
83	210
85	230
87	999
88	280
95	50
97	130
99	110
101	50
111	70
113	80
115	200
127	70
141	60
155	50
240	80
241	370
242	80
255	450
256	80
281	110
283	50
312	280
313	70
