Mass Spectrum: Methyl 2-O-acetyl-3,4,6-tri-O-methyl-.alpha.-D-glucopyranoside
Formula: C12H22O7
CAS: 24904-97-0
Molecular weight: 278
m/z	intensity
43	749
45	269
55	31
57	45
58	39
59	62
71	509
72	96
73	80
74	509
75	999
76	39
81	22
83	47
84	31
85	55
87	149
88	459
89	139
99	69
101	309
102	199
103	129
109	10
111	24
112	19
113	34
114	15
115	59
116	179
117	61
127	31
129	54
130	6
131	13
141	38
143	20
144	12
145	70
149	32
155	11
159	29
173	77
177	13
186	12
187	10
201	9
204	63
205	5
215	25
216	5
219	5
233	29
247	6
