Mass Spectrum: Heptanoic acid, 3,5-dimethyl-, methyl ester
Formula: C10H20O2
CAS: 2490-54-2
Molecular weight: 172
m/z	intensity
14	2
15	26
16	2
17	7
18	24
26	5
27	67
28	63
29	137
30	6
31	9
32	11
33	2
37	2
38	4
39	90
40	19
41	67
42	85
43	168
44	11
45	13
50	3
51	7
52	4
53	29
54	8
55	210
56	56
57	209
58	10
59	174
60	2
61	1
65	5
66	3
67	22
68	10
69	222
70	37
71	34
72	3
73	103
74	999
75	27
76	7
77	6
78	2
79	7
80	2
81	17
82	38
83	233
84	19
85	10
86	2
87	97
88	17
89	2
91	2
92	2
93	4
94	2
95	5
96	27
97	101
98	78
99	52
100	2
101	551
102	68
103	7
105	2
107	4
109	2
111	74
112	30
113	6
114	2
115	178
116	18
117	10
122	8
123	113
124	12
125	22
126	2
127	3
129	2
139	6
140	4
141	92
142	8
143	77
144	7
149	3
157	37
158	4
172	17
173	2
