Mass Spectrum: Octadecanoic acid, 10-methyl-, methyl ester
Formula: C20H40O2
CAS: 2490-19-9
Molecular weight: 312
m/z	intensity
26	3
27	37
28	4
29	115
30	3
31	8
33	1
39	30
40	8
41	291
42	66
43	503
44	21
45	15
46	1
47	2
49	1
51	2
52	1
53	17
54	22
55	341
56	100
57	480
58	25
59	61
60	4
61	3
65	4
66	2
67	54
68	25
69	312
70	63
71	230
72	15
73	33
74	999
75	279
76	14
77	5
78	2
79	15
80	5
81	62
82	28
83	246
84	56
85	166
86	13
87	751
88	75
89	7
91	4
93	24
94	6
95	54
96	25
97	157
98	56
99	29
100	7
101	97
102	11
103	3
105	1
107	23
108	4
109	43
110	11
111	81
112	20
113	11
114	8
115	50
116	26
117	3
119	4
121	23
122	6
123	30
124	19
125	76
126	11
127	7
128	4
129	154
130	113
131	10
132	6
133	3
135	11
136	3
137	14
138	8
139	41
140	18
141	9
142	2
143	366
144	44
145	4
147	1
148	3
149	144
150	19
151	9
152	3
153	10
154	7
155	6
156	1
157	32
158	11
159	3
163	14
164	3
165	6
166	11
167	145
168	27
169	5
171	58
172	66
173	37
174	4
177	5
179	3
180	65
181	27
182	5
183	2
185	5
191	4
193	2
194	2
195	5
196	1
197	1
198	1
199	148
200	27
201	7
202	8
205	3
206	1
207	1
208	1
209	4
213	12
214	4
215	1
219	2
220	2
223	4
227	12
228	3
229	1
230	2
232	1
233	3
237	3
238	1
239	1
241	4
242	1
243	1
246	1
247	7
251	4
252	1
253	1
255	19
256	5
261	3
262	4
263	16
264	4
265	10
266	2
269	152
270	30
271	4
279	4
280	5
281	29
282	6
283	26
284	6
285	1
294	1
297	8
298	4
299	1
300	1
311	4
312	273
313	73
314	12
