Mass Spectrum: .beta.-d-Mannofuranoside, methyl, tetraacetate
Formula: C15H22O10
CAS: 24916-40-3
Molecular weight: 362
m/z	intensity
27	4
29	8
31	6
33	4
39	5
40	1
41	8
42	11
43	999
44	26
45	27
51	1
52	1
53	3
54	2
55	9
56	2
57	14
58	4
59	4
60	4
61	13
64	0
65	1
66	1
67	1
68	9
69	59
70	43
71	11
72	2
73	32
74	26
75	4
77	1
80	5
81	60
82	6
83	15
84	13
85	132
86	53
87	81
88	4
89	2
91	11
92	1
93	0
96	2
97	38
98	104
99	28
100	4
101	6
102	6
103	80
104	4
105	0
109	21
110	6
111	5
112	79
113	11
114	2
115	408
116	36
117	7
125	4
126	15
127	45
128	33
129	42
130	3
131	0
132	0
133	2
139	10
140	48
141	47
142	4
143	5
144	3
145	81
146	6
147	2
149	2
151	0
152	1
155	1
156	0
157	105
158	26
159	3
167	2
168	17
169	44
170	8
171	10
172	1
173	0
174	0
175	3
176	1
182	4
183	13
184	1
185	0
186	2
187	3
188	13
189	1
199	9
200	42
201	6
202	0
203	0
210	13
211	5
212	0
215	6
216	1
217	173
218	19
219	3
228	1
229	3
230	0
231	0
242	14
243	15
244	2
245	4
259	2
260	1
289	1
331	16
332	2
333	1
334	0
