Mass Spectrum: Cyclopropene, 1-chloro-2,3,3-trifluoro-
Formula: C3ClF3
CAS: 24921-89-9
Molecular weight: 128
m/z	intensity
35	39
37	19
69	91
74	161
78	128
80	48
93	999
109	272
111	85
128	97
130	25
