Mass Spectrum: Decanoic acid, 1,1a,1b,4,4a,5,7a,7b,8,9-decahydro-4a,7b-dihydroxy-3-(hydroxymethyl)-1,1,6,8-tetramethyl-5-oxo-9aH-cyclopropa[3,4]benz[1,2-e]azulene-9,9a-diyl ester, [1aR-(1a.alpha.,1b.beta.,4a.beta.,7a.alpha.,7b.alpha.,8.alpha.,9.beta.,9a.alpha.)]
Formula: C40H64O8
CAS: 24928-17-4
Molecular weight: 672
m/z	intensity
12	0
13	0
14	1
15	3
16	1
17	5
18	29
19	0
20	0
24	0
25	2
26	8
27	64
28	64
29	154
30	5
31	11
32	9
33	0
35	0
36	1
37	1
38	4
39	57
40	14
41	352
42	84
43	999
44	38
45	23
46	1
47	0
48	0
49	0
50	4
51	9
52	7
53	90
54	30
55	323
56	71
57	746
58	36
59	26
60	126
61	21
62	2
63	4
64	2
65	23
66	11
67	114
68	35
69	338
70	46
71	67
72	40
73	122
74	16
75	11
76	2
77	45
78	18
79	101
80	32
81	154
82	50
83	53
84	63
85	380
86	29
87	28
88	3
89	8
90	2
91	108
92	26
93	121
94	29
95	211
96	52
97	57
98	38
99	18
100	4
101	16
102	5
103	18
104	12
105	111
106	70
107	171
108	53
109	253
110	59
111	84
112	63
113	16
114	35
115	40
116	15
117	47
118	21
119	94
120	57
121	225
122	91
123	133
124	83
125	146
126	18
127	15
128	29
129	92
130	25
131	74
132	35
133	104
134	61
135	83
136	90
137	84
138	84
139	88
140	21
141	32
142	28
143	64
144	32
145	94
146	59
147	115
148	56
149	92
150	46
151	60
152	36
153	36
154	14
155	591
156	84
157	67
158	64
159	130
160	59
161	128
162	71
163	70
164	38
165	49
166	30
167	60
168	60
169	40
170	29
171	84
172	87
173	211
174	77
175	118
176	64
177	84
178	45
179	74
180	30
181	35
182	21
183	45
184	26
185	66
186	54
187	98
188	66
189	84
190	54
191	84
192	30
193	35
194	18
195	50
196	43
197	73
198	64
199	112
200	84
201	77
202	46
203	71
204	63
205	49
206	30
207	36
208	54
209	54
210	119
211	84
212	40
213	116
214	109
215	152
216	64
217	88
218	45
219	47
220	21
221	35
222	60
223	70
224	47
225	98
226	49
227	149
228	111
229	52
230	29
231	59
232	105
233	54
234	19
235	39
236	30
237	49
238	25
239	73
240	43
241	84
242	47
243	45
244	40
245	38
246	25
247	21
248	15
249	47
250	26
251	73
252	45
253	77
254	69
255	47
256	18
257	36
258	25
259	61
260	21
261	1
262	2
263	4
264	5
265	6
266	5
267	10
268	4
269	6
270	3
271	4
272	2
273	1
274	1
275	1
276	1
277	5
278	1
279	5
280	4
281	84
282	174
283	74
284	32
285	66
286	21
287	16
288	11
289	9
290	14
291	33
292	136
293	83
294	30
295	98
296	28
297	46
298	32
299	59
300	98
301	29
302	9
303	25
304	7
305	4
306	6
307	11
308	33
309	112
310	647
311	253
312	63
313	50
314	14
315	11
316	7
317	11
318	15
319	5
320	2
321	5
322	5
323	7
324	21
325	12
326	30
327	132
328	521
329	183
330	36
331	11
332	4
333	4
334	4
335	2
336	1
337	5
338	2
339	2
340	2
341	3
342	7
343	8
344	15
345	45
346	50
347	14
348	3
349	2
350	2
351	3
352	6
353	3
354	2
355	6
356	2
357	3
358	2
359	3
360	2
361	3
362	6
363	3
364	2
365	1
366	0
367	2
368	6
369	7
370	9
371	5
372	2
373	3
374	1
375	2
376	2
377	2
378	7
379	4
380	2
381	6
382	4
383	2
384	2
385	3
386	2
387	4
388	19
389	6
390	2
391	1
392	0
393	1
394	1
395	2
396	7
397	4
398	2
399	3
400	3
401	2
402	2
403	2
404	4
405	2
406	3
407	2
408	2
409	1
410	1
411	1
412	1
413	15
414	6
415	3
416	2
417	2
418	1
419	1
420	1
421	2
422	1
423	2
424	2
425	4
426	2
427	1
428	1
429	1
430	1
431	2
432	5
433	3
434	1
435	2
436	7
437	3
438	3
439	4
440	1
441	2
442	3
443	2
444	1
445	1
446	2
447	2
448	1
449	3
450	1
451	8
452	5
453	5
454	15
455	6
456	2
457	8
458	3
459	1
460	0
461	0
462	0
463	3
464	36
465	18
466	6
467	7
468	3
469	4
470	2
471	5
472	5
473	2
474	0
475	5
476	1
477	0
478	1
479	4
480	4
481	16
482	121
483	46
484	11
485	11
486	3
487	1
488	1
489	0
490	0
491	0
493	0
494	0
495	8
496	4
497	4
498	9
499	28
500	52
501	197
502	67
503	14
504	2
505	0
506	0
509	1
510	1
511	0
512	1
513	1
514	1
515	2
516	3
517	16
518	9
519	2
520	0
524	0
525	0
526	0
527	5
528	2
529	2
530	1
531	0
532	1
533	1
534	0
535	0
536	0
537	0
542	1
543	0
544	1
545	8
546	3
547	0
555	0
558	0
559	0
560	0
561	1
562	0
571	0
572	0
573	0
579	0
580	0
608	0
609	0
618	0
619	0
621	0
623	0
625	0
626	0
627	0
636	2
637	1
638	0
639	0
640	0
650	0
652	0
653	0
654	15
655	7
656	2
657	0
670	0
672	16
673	8
674	2
675	0
