Mass Spectrum: .beta.-D-Glucopyranoside, 4-nitrophenyl
Formula: C12H15NO8
CAS: 2492-87-7
Molecular weight: 301
m/z	intensity
12	6
13	7
14	31
15	167
16	7
17	57
18	275
19	99
24	3
25	13
26	88
27	279
28	224
29	454
30	161
31	486
32	22
33	2
36	7
37	41
38	108
39	557
40	49
41	238
42	177
43	614
44	147
45	544
46	15
47	71
48	2
49	17
50	116
51	87
52	82
53	179
54	53
55	281
56	176
57	823
58	45
59	60
60	796
61	565
62	69
63	155
64	97
65	655
66	52
67	17
68	42
69	465
70	129
71	297
72	85
73	999
74	129
75	100
76	79
77	72
78	23
79	31
80	41
81	253
82	24
83	47
84	22
85	909
86	66
87	567
88	34
89	58
90	16
91	258
92	48
93	225
94	71
95	28
96	30
97	223
98	111
99	122
100	10
101	82
102	26
103	88
104	7
105	8
106	13
107	46
108	21
109	495
110	39
111	7
112	9
113	23
114	13
115	64
116	20
117	9
118	10
119	8
120	7
121	5
122	17
123	199
124	30
125	9
126	23
127	349
128	27
129	8
130	3
131	23
132	5
133	11
134	6
135	9
136	18
137	6
138	2
139	636
140	122
141	14
142	4
143	3
144	51
145	601
146	45
147	11
148	2
149	2
150	1
151	2
152	24
153	3
160	3
161	1
162	16
163	105
164	9
165	22
166	4
167	1
168	9
169	1
176	2
177	1
180	2
181	19
182	22
183	2
192	2
193	2
194	5
210	5
211	1
212	6
