Mass Spectrum: Butanoic acid, 4-hydroxy-2-methylene-
Formula: C5H8O3
CAS: 24923-76-0
Molecular weight: 116
m/z	intensity
37	50
38	77
39	730
40	680
41	236
44	160
50	46
51	41
53	113
54	46
68	999
69	150
98	750
99	60
