Mass Spectrum: Perfluoropropionic acid, TMS derivative
Formula: C6H9F5O2Si
CAS: 24930-02-7
Molecular weight: 236
m/z	intensity
26	1
27	3
29	11
30	1
31	9
42	10
43	50
44	15
45	87
46	6
47	43
48	3
49	42
50	7
51	8
52	1
53	6
54	2
55	8
56	3
57	6
58	14
59	20
60	3
61	4
62	7
63	53
64	4
65	3
66	1
67	2
69	60
70	3
72	17
73	473
74	41
75	19
76	21
77	999
78	72
79	33
80	1
81	20
82	1
83	1
85	1
87	1
89	1
90	1
91	4
95	1
97	16
100	12
101	1
109	6
113	1
117	4
118	1
119	31
121	15
122	1
123	1
125	1
127	1
128	1
139	3
143	17
144	1
145	1
147	1
193	11
194	1
221	54
222	6
223	2
