Mass Spectrum: 4,15:5,10-Dimethanobenzofuro[3',2':7,8][1,4]dioxonino[6,7-c]pyridin-4a.beta.(5H)-ol, 1,2,3,4,7,8,10,10a.beta.-octahydro-10-(2-hydroxyethoxy)-12-methoxy-3-methyl-
Formula: C22H29NO7
CAS: 24945-93-5
Molecular weight: 419
m/z	intensity
41	180
42	580
43	999
44	820
45	340
46	30
50	50
51	80
52	10
53	80
54	10
55	230
56	100
57	120
58	230
59	80
60	50
63	80
64	10
65	130
66	20
67	50
68	50
69	70
70	320
71	110
72	10
73	140
74	20
77	120
78	10
79	80
80	10
81	50
82	60
84	60
86	130
87	100
88	10
89	60
91	110
92	20
93	70
94	50
95	50
98	50
99	80
102	50
103	60
114	50
115	320
116	70
117	50
121	230
122	30
126	50
127	110
128	120
129	80
130	10
131	70
138	90
139	70
140	10
141	60
142	50
143	50
144	70
145	70
146	10
152	70
153	50
154	10
155	60
157	50
158	50
159	160
160	50
161	50
165	80
171	60
173	50
174	50
175	60
184	60
185	80
186	70
187	60
188	70
189	60
198	50
199	70
200	60
201	80
202	50
210	50
214	80
215	60
216	130
217	20
228	70
229	80
230	250
231	60
232	10
240	30
241	30
242	40
258	30
288	40
299	30
300	30
357	30
358	80
359	20
374	40
419	120
420	10
