Mass Spectrum: 1H-Isoindole-1,3(2H)-dione, 2-(3-azatricyclo[3.2.1.0(2,4)]oct-6-en-3-yl)-, (1.alpha.,2.beta.,4.beta.,5.alpha.)-
Formula: C15H12N2O2
CAS: 24948-29-6
Molecular weight: 252
m/z	intensity
50	390
76	830
77	420
78	320
79	360
90	280
91	520
104	910
105	999
106	560
130	350
148	240
225	200
252	320
