Mass Spectrum: Decane, 4-methylene-
Formula: C11H22
CAS: 24949-41-5
Molecular weight: 154
m/z	intensity
39	70
41	280
42	70
43	170
44	40
53	40
55	560
56	999
57	80
67	40
68	20
69	390
70	100
71	10
81	10
83	40
84	170
85	70
97	70
111	60
154	70
155	10
