Mass Spectrum: Hexadecanamide, N-(2-acetoxyethyl)-
Formula: C20H39NO3
CAS: 2495-72-9
Molecular weight: 341
m/z	intensity
41	338
42	125
43	898
44	321
45	51
55	402
56	111
57	394
60	212
62	125
69	188
71	204
72	208
73	137
83	119
84	104
85	999
86	496
87	100
97	69
98	429
99	125
102	117
103	158
104	517
111	34
112	102
116	63
126	33
140	101
141	16
144	8
145	672
146	80
147	11
154	60
155	9
158	137
159	22
168	31
169	6
170	4
171	3
172	22
173	4
182	28
183	7
184	4
185	3
186	12
187	9
196	28
197	5
198	3
200	23
201	6
210	20
211	3
213	6
214	20
215	4
224	18
225	3
226	5
228	7
238	43
239	146
240	28
242	6
250	1
252	35
256	59
257	11
264	2
266	12
268	13
269	2
270	6
271	1
280	44
281	13
282	9
284	4
285	1
294	1
298	58
299	15
300	2
308	2
309	1
312	5
313	1
340	1
341	25
342	6
