Mass Spectrum: Cyclohexane, 1,3-dichloro-, cis-
Formula: C6H10Cl2
CAS: 24955-63-3
Molecular weight: 152
m/z	intensity
28	50
39	130
41	170
42	10
51	30
53	70
54	60
55	130
67	160
75	80
79	100
80	670
81	999
82	60
88	20
90	20
116	50
117	60
118	10
119	10
152	30
154	10
