Mass Spectrum: Cyclohexane, 1,3-dichloro-, trans-
Formula: C6H10Cl2
CAS: 24955-62-2
Molecular weight: 152
m/z	intensity
28	20
29	10
39	90
41	110
51	10
53	50
54	50
55	50
62	20
65	10
67	50
75	40
79	80
80	220
81	999
82	60
88	30
90	10
116	180
117	10
118	50
