Mass Spectrum: Isosativene
Formula: C15H24
CAS: 24959-83-9
Molecular weight: 204
m/z	intensity
20	2
26	15
27	199
28	24
29	82
30	2
37	2
38	5
39	216
40	30
41	416
42	23
43	155
44	5
50	11
51	46
52	28
53	127
54	24
55	141
56	10
57	12
63	15
64	8
65	118
66	29
67	139
68	19
69	99
70	7
71	3
74	2
75	8
76	5
77	207
78	51
79	280
80	50
81	146
82	24
83	13
85	3
89	9
90	3
91	482
92	109
93	251
94	999
95	178
96	11
98	4
102	1
103	29
104	19
105	362
106	76
107	162
108	92
109	34
110	6
112	0
115	33
116	15
117	64
118	25
119	232
120	90
121	50
122	31
123	27
124	4
126	3
127	2
128	13
129	22
130	10
131	35
132	9
133	168
134	39
135	39
136	11
137	8
138	1
141	3
142	0
143	3
144	1
145	11
146	5
147	46
148	22
149	4
150	5
159	3
160	7
161	202
162	31
163	7
175	14
176	10
177	2
183	0
189	62
190	9
204	235
205	40
206	1
