Mass Spectrum: 4-Amino-6-morpholino-5-nitropyrimidine
Formula: C8H11N5O3
CAS: 24957-88-8
Molecular weight: 225
m/z	intensity
34	34
36	48
38	156
39	315
40	866
41	431
42	622
43	999
44	409
45	338
46	50
47	5
48	11
50	49
51	98
52	253
53	372
54	542
55	446
56	277
57	141
58	36
59	11
60	11
61	10
62	7
63	13
64	36
65	135
66	510
67	846
68	348
69	438
70	252
71	132
72	33
73	98
74	19
75	11
77	76
78	143
79	218
80	146
81	199
82	240
83	113
84	31
85	21
86	26
87	9
88	1
89	2
90	6
91	14
92	45
93	117
94	261
95	374
96	174
97	101
98	44
99	13
100	2
101	1
102	2
103	5
104	6
105	17
106	44
107	123
108	173
109	110
110	113
111	33
112	18
113	9
114	6
115	4
116	1
118	19
119	57
120	59
121	87
122	84
123	155
124	121
125	65
126	15
127	4
128	1
129	1
130	4
131	6
132	10
133	77
134	69
135	265
136	408
137	107
138	51
139	37
140	18
141	4
142	1
145	24
147	100
148	258
149	226
150	221
151	100
152	416
153	34
154	5
155	1
156	1
157	1
158	1
159	5
161	73
162	153
163	32
164	61
165	70
166	31
168	132
169	8
170	1
171	2
174	2
175	2
177	22
178	98
179	49
180	157
181	17
182	3
183	1
189	7
190	64
191	29
192	14
193	3
194	5
195	12
196	10
197	16
198	2
205	5
208	306
209	28
210	2
222	6
225	277
226	26
227	2
