Mass Spectrum: Demeton S-sulfone
Formula: C8H19O5PS2
CAS: 2496-91-5
Molecular weight: 290
m/z	intensity
12	4
13	3
14	16
15	80
16	8
17	18
18	57
19	23
24	2
26	122
27	690
28	274
29	999
30	74
32	13
33	9
34	21
35	61
36	1
37	3
39	7
41	21
42	11
43	90
45	524
46	33
47	103
48	29
49	8
50	7
51	2
54	58
55	18
56	3
57	11
58	56
59	224
60	235
61	354
62	25
63	56
64	25
65	190
66	28
67	6
68	1
69	2
70	1
71	5
72	2
73	4
75	32
76	16
77	49
78	11
79	17
81	575
82	35
83	19
84	1
85	2
86	5
87	10
88	8
89	23
91	178
92	11
93	72
94	13
95	96
96	41
97	156
99	89
101	1
104	1
105	3
106	1
107	10
109	779
110	41
111	51
113	84
114	67
115	51
116	3
117	2
119	7
121	69
123	27
124	11
125	30
126	30
127	43
128	3
129	1
130	1
135	9
137	259
138	168
139	21
141	692
142	90
143	67
144	5
146	25
148	1
149	2
152	21
153	18
154	8
155	30
156	2
157	4
163	10
164	1
169	281
170	80
171	27
172	4
173	2
174	3
185	1
189	3
197	780
198	50
199	30
200	2
205	1
217	6
235	1
245	12
246	1
247	1
263	1
291	31
292	3
293	2
