Mass Spectrum: Phthalimide, N,N'-azodi-
Formula: C16H8N4O4
CAS: 24965-34-2
Molecular weight: 320
m/z	intensity
33	4
34	2
35	4
37	64
38	74
39	130
41	27
42	11
43	16
44	7
46	5
50	616
52	19
53	13
54	2
55	4
56	5
57	1
60	4
61	14
62	30
63	80
64	65
66	18
68	3
70	18
74	194
76	885
78	43
82	1
84	6
85	2
86	6
90	999
92	41
99	1
104	523
106	22
115	0
118	78
119	5
127	0
129	0
130	13
131	2
132	5
143	1
146	385
147	71
148	6
149	0
151	0
152	0
164	2
165	0
166	2
174	143
175	10
176	0
204	2
220	0
248	4
250	8
251	0
278	26
279	3
317	2
320	156
321	25
322	3
