Mass Spectrum: Methanone, cyclopropyl-3-pyridinyl-
Formula: C9H9NO
CAS: 24966-13-0
Molecular weight: 147
m/z	intensity
37	25
38	61
39	288
40	37
41	306
42	21
43	16
49	22
50	180
51	455
52	82
53	40
55	13
61	10
62	22
63	43
64	18
65	28
66	6
68	9
69	306
70	15
74	12
75	20
76	24
77	30
78	685
79	89
80	7
89	14
90	16
91	36
92	16
93	14
104	8
105	9
106	999
107	70
116	5
117	36
118	67
119	17
120	14
130	9
132	9
145	5
146	153
147	414
148	45
