Mass Spectrum: 2,4,6-Tri-t-butyl-nitrosobenzene
Formula: C18H29NO
CAS: 24973-59-9
Molecular weight: 275
m/z	intensity
15	1
27	7
29	52
30	6
39	17
40	2
41	134
42	8
43	36
50	1
51	7
52	2
53	12
54	2
55	32
57	999
58	46
59	3
62	1
63	4
64	3
65	11
66	2
67	7
68	1
69	6
70	2
71	4
73	2
74	1
75	2
76	3
77	22
78	7
79	12
81	3
82	2
83	5
87	5
88	1
89	4
90	3
91	40
92	5
93	7
94	3
95	2
96	1
98	1
101	6
102	4
103	8
104	4
105	21
106	6
107	5
108	3
109	2
115	32
116	12
117	23
118	6
119	13
120	4
121	4
122	2
123	1
124	1
126	1
127	10
128	30
129	24
130	21
131	34
132	28
133	16
134	6
135	2
136	1
139	2
140	2
141	16
142	13
143	19
144	22
145	18
146	64
147	32
148	8
149	1
150	1
151	1
152	4
153	6
154	10
155	9
156	13
157	14
158	16
159	9
160	9
161	8
162	5
163	2
164	1
165	3
166	2
167	5
168	7
169	5
170	12
171	9
172	19
173	16
174	7
175	3
176	4
177	1
178	1
179	1
180	2
181	2
182	3
183	3
184	5
185	4
186	13
187	8
188	10
189	8
190	3
191	1
192	1
194	1
195	1
196	2
197	1
198	4
199	2
200	7
201	4
202	22
203	102
204	21
205	2
210	1
211	1
212	3
213	1
214	7
215	6
216	4
217	8
218	10
219	2
227	1
228	8
229	6
230	5
231	38
232	11
233	2
240	1
242	7
243	2
244	54
245	11
257	2
258	16
259	17
260	17
261	5
275	99
276	20
277	2
