Mass Spectrum: 4-Oxo-trans-2-octenal
Formula: C8H12O2
CAS: 2497-14-5
Molecular weight: 140
m/z	intensity
37	150
38	269
39	265
40	276
41	499
42	999
53	93
55	523
56	347
57	313
59	267
67	49
68	60
69	188
70	203
71	60
72	99
81	75
82	38
83	545
84	126
85	102
96	62
97	102
98	35
110	15
111	141
112	49
140	117
