Mass Spectrum: l-Histidine, N-acetyl-
Formula: C8H11N3O3
CAS: 2497-02-1
Molecular weight: 197
m/z	intensity
12	2
13	2
14	17
15	87
16	4
17	3
18	10
25	2
26	30
27	61
28	79
29	23
30	39
31	3
36	4
37	10
38	28
39	76
40	49
41	82
42	64
43	479
44	73
45	31
46	8
47	1
49	1
50	4
51	13
52	50
53	41
54	204
55	88
56	60
57	19
58	2
59	4
60	89
61	3
62	1
63	4
64	9
65	16
66	35
67	23
68	44
69	46
70	5
71	6
72	3
73	3
74	55
75	5
76	2
77	3
78	5
79	17
80	17
81	999
82	764
83	182
84	12
85	7
86	1
88	1
90	1
91	3
92	16
93	129
94	544
95	69
96	6
97	5
98	4
99	9
100	4
103	2
104	1
105	9
106	12
107	18
108	37
109	106
110	877
111	60
112	3
113	1
115	1
116	2
117	1
118	7
119	3
120	155
121	46
122	7
123	2
124	3
125	1
126	1
127	1
128	1
129	1
132	9
133	64
134	36
135	17
136	33
137	32
138	321
139	54
140	5
141	1
143	1
146	1
147	1
149	1
150	1
151	56
152	159
153	102
154	41
155	7
158	1
161	4
162	1
164	1
177	4
178	2
179	47
180	9
181	2
182	6
197	261
198	25
199	2
