Mass Spectrum: 3-Octen-2-one, 4-methoxy-
Formula: C9H16O2
CAS: 24985-52-2
Molecular weight: 156
m/z	intensity
31	10
33	10
37	10
38	90
39	30
41	170
42	20
43	999
44	20
45	30
50	10
51	10
52	10
53	60
54	10
55	70
56	10
57	40
58	10
59	90
65	10
66	10
67	80
68	30
69	60
70	10
71	50
72	90
73	20
74	20
76	20
78	30
79	10
81	100
82	20
83	20
84	10
85	100
86	10
95	90
96	10
97	20
98	10
99	130
100	10
109	40
110	10
111	20
112	10
113	20
114	100
115	10
124	10
125	10
126	10
127	970
128	80
129	10
139	30
141	530
142	50
156	480
157	50
