Mass Spectrum: p-Dioxane-2,5-dione, 3,6-dipropyl-
Formula: C10H16O4
CAS: 24985-61-3
Molecular weight: 200
m/z	intensity
27	400
28	200
29	80
39	130
41	240
43	260
44	150
55	999
56	200
57	70
71	60
72	60
73	120
82	30
83	30
84	250
85	70
158	210
159	20
