Mass Spectrum: 2-Octen-4-one, 2-methoxy-
Formula: C9H16O2
CAS: 24985-48-6
Molecular weight: 156
m/z	intensity
39	50
40	20
41	60
42	10
43	80
53	20
55	20
56	20
57	20
59	100
67	10
68	10
69	10
71	10
72	20
85	20
97	10
99	999
100	50
101	10
113	10
114	190
115	10
127	20
141	20
155	10
156	10
