Mass Spectrum: 3-Octen-2-one, 4-(methylamino)-
Formula: C9H17NO
CAS: 24985-58-8
Molecular weight: 155
m/z	intensity
31	40
32	80
36	20
37	20
38	30
39	180
40	50
41	300
42	300
43	790
44	160
45	20
50	30
51	50
52	50
53	90
54	150
55	230
56	490
57	60
58	130
59	10
60	10
62	10
63	20
64	10
65	40
66	40
67	70
68	160
69	80
70	600
71	999
72	70
73	10
74	10
75	20
76	10
77	40
78	20
79	40
80	40
81	50
82	180
83	40
84	300
85	40
86	10
91	10
92	10
93	20
94	40
95	30
96	80
97	70
98	610
99	50
100	20
104	10
105	10
106	20
107	10
108	20
109	10
110	60
111	120
112	130
113	840
114	70
115	10
120	10
121	10
122	30
123	10
124	70
125	10
126	580
127	50
128	10
134	10
135	10
136	10
137	10
138	50
139	10
140	610
141	70
142	10
146	10
147	10
148	10
149	10
150	10
151	10
152	10
153	20
154	20
155	500
156	60
157	10
