Mass Spectrum: 2-[2-[2-[2-[2-(2-Acetyloxyethoxy)ethoxy]ethoxy]ethoxy]ethoxy]ethyl acetate
Formula: C16H30O9
CAS: 24997-24-8
Molecular weight: 366
m/z	intensity
14	1
15	11
19	2
26	2
27	9
28	27
29	19
30	4
31	12
41	7
42	16
43	337
44	25
45	73
46	2
55	1
56	1
57	10
58	18
59	23
60	2
61	4
69	2
70	19
71	14
72	9
73	38
74	2
75	3
83	1
84	1
85	1
86	28
87	999
88	54
89	21
90	1
99	9
100	3
101	18
102	3
103	13
104	1
105	3
113	1
114	5
115	5
116	1
117	9
118	1
119	1
129	1
130	3
131	28
132	3
133	3
145	1
147	1
149	1
159	2
163	1
174	3
175	8
176	2
205	2
219	3
249	1
