Mass Spectrum: Phenethylamine, N-hexyl-
Formula: C14H23N
CAS: 24997-83-9
Molecular weight: 205
m/z	intensity
26	10
27	50
28	28
29	80
30	270
31	20
39	50
40	30
41	130
42	120
43	360
44	999
45	70
50	10
51	30
52	10
53	10
54	10
55	70
56	70
57	60
58	20
60	50
63	10
64	10
65	30
66	10
67	20
68	10
69	20
70	40
71	20
72	10
73	10
74	10
76	10
77	50
78	20
79	50
80	10
81	10
82	10
83	20
84	20
85	20
89	10
90	10
91	70
92	20
93	10
95	10
96	10
97	10
102	10
103	20
105	190
106	20
109	10
111	10
112	50
113	10
114	760
115	60
117	20
118	10
119	10
120	20
126	10
128	20
130	10
132	20
134	60
135	10
