Mass Spectrum: Dioctadecyl disulfide
Formula: C36H74S2
CAS: 2500-88-1
Molecular weight: 570
m/z	intensity
41	389
42	29
43	999
44	47
45	40
47	35
53	30
54	26
55	508
56	115
57	818
58	33
59	19
60	47
61	37
67	97
68	55
69	413
70	74
71	429
72	16
73	40
77	5
79	28
81	82
82	57
83	216
84	17
85	298
87	272
88	25
89	31
93	16
95	59
96	39
97	146
98	28
99	67
100	8
101	145
102	10
103	5
109	31
110	6
111	61
112	12
113	49
114	10
115	52
119	11
123	17
125	29
127	25
129	44
131	51
139	5
141	5
143	25
152	13
157	19
169	5
171	22
181	10
185	23
199	21
213	24
219	74
224	7
227	22
241	21
252	23
254	5
255	22
256	5
257	25
264	23
283	77
284	33
285	124
286	40
318	45
332	27
502	11
514	41
515	12
542	173
543	68
544	30
570	541
571	227
572	95
573	26
