Mass Spectrum: Methyl 4-O-benzyl-.alpha.-L-rhamnopyranoside
Formula: C14H20O5
CAS: 25019-69-6
Molecular weight: 268
m/z	intensity
26	6
27	32
28	12
29	35
30	5
31	40
33	20
34	0
36	4
37	1
38	3
39	36
40	41
41	34
42	7
43	40
44	6
45	107
46	3
47	1
49	0
50	6
51	18
52	5
53	9
54	2
55	13
56	4
57	47
58	6
59	17
60	36
61	36
62	3
63	10
64	3
65	78
66	4
67	0
68	8
69	6
70	2
71	35
72	4
73	76
74	104
75	45
76	2
77	20
78	5
79	22
80	3
81	2
82	3
83	13
84	15
85	7
86	2
87	78
88	6
89	14
90	8
91	999
92	99
93	5
94	0
95	0
96	0
97	1
98	0
99	6
100	2
101	2
102	0
103	5
104	1
105	14
106	3
107	30
108	13
109	2
110	1
111	2
112	1
113	0
114	0
115	3
116	1
117	11
118	2
119	31
120	8
121	18
122	1
123	0
126	0
127	1
128	1
129	3
130	3
131	2
132	3
133	16
134	6
135	8
136	0
139	0
143	1
144	5
145	3
146	2
147	2
148	42
149	9
150	34
151	4
152	0
156	0
157	0
159	0
160	0
161	2
162	0
163	13
164	5
165	0
166	0
174	0
175	1
176	0
177	2
178	0
179	1
180	0
181	0
189	0
190	0
193	2
194	0
201	0
206	0
218	0
236	2
237	2
238	0
268	12
269	1
270	0
