Mass Spectrum: Pyrazole-4-carboxaldehyde, 1-methyl-
Formula: C5H6N2O
CAS: 25016-11-9
Molecular weight: 110
m/z	intensity
33	7
34	21
36	8
37	26
38	73
39	51
40	42
41	46
42	203
43	51
44	128
45	7
50	14
51	51
52	79
53	112
54	54
55	29
56	14
57	21
58	17
60	2
62	0
63	6
65	12
66	35
67	20
68	23
69	13
70	7
71	9
72	3
81	39
82	51
83	14
84	3
85	2
94	7
95	81
96	9
109	999
110	700
111	38
112	5
