Mass Spectrum: Benzene, 1-(2-bromoethyl)-3-fluoro-
Formula: C8H8BrF
CAS: 25017-13-4
Molecular weight: 202
m/z	intensity
50	80
51	90
63	70
75	110
77	60
83	140
96	110
101	60
103	110
109	999
110	370
122	110
123	210
202	130
203	11
204	130
205	11
