Mass Spectrum: s-Acetylthiocholine bromide
Formula: C7H16BrNOS
CAS: 25025-59-6
Molecular weight: 241
m/z	intensity
13	2
14	11
15	70
16	1
25	1
26	5
27	18
28	20
29	13
30	51
31	1
32	2
33	1
34	3
35	2
39	2
40	5
41	15
42	118
43	120
44	53
45	36
46	5
47	5
48	1
54	3
55	5
56	28
57	27
58	999
59	83
60	50
61	16
62	2
68	1
69	2
70	12
71	60
72	31
73	2
75	2
76	1
79	19
80	36
81	19
82	35
85	1
86	1
87	2
91	8
92	5
93	24
94	133
95	17
96	127
97	1
98	1
100	1
102	10
103	9
104	13
105	1
126	1
146	6
147	15
148	1
149	1
168	1
