Mass Spectrum: t-Butyl cyclopentaneperoxycarboxylate
Formula: C10H18O3
CAS: 25023-14-7
Molecular weight: 186
m/z	intensity
41	999
43	398
55	49
57	210
59	80
69	529
73	249
86	59
97	189
114	30
141	9
186	9
