Mass Spectrum: Imidazol-1-yl-acetic acid, methyl ester
Formula: C6H8N2O2
CAS: 25023-22-7
Molecular weight: 140
m/z	intensity
25	4
26	90
27	133
28	237
29	38
30	13
31	19
33	0
36	1
37	1
38	9
39	22
40	85
41	58
42	55
43	19
44	4
45	40
50	1
51	17
52	87
53	60
54	330
55	34
56	4
57	9
58	1
59	65
60	2
64	0
65	1
66	4
67	5
68	32
69	14
70	2
71	4
72	4
73	4
74	1
77	1
79	10
80	9
81	999
82	94
83	4
84	3
85	2
86	0
87	1
91	1
92	0
93	0
94	0
95	45
96	6
97	5
98	3
99	1
100	1
105	0
107	0
108	2
109	1
110	0
111	1
112	9
113	11
114	0
119	1
125	2
126	1
127	1
138	1
139	5
140	840
141	80
142	6
