Mass Spectrum: 1-Chloro-2-(ethanesulfonyl)ethane
Formula: C4H9ClO2S
CAS: 25027-40-1
Molecular weight: 156
m/z	intensity
28	31
29	189
33	16
34	9
35	35
36	23
37	12
38	7
39	12
40	7
41	78
42	11
43	55
44	14
45	140
46	30
47	33
48	180
49	103
50	28
51	33
55	15
56	70
57	50
58	44
59	31
60	20
61	59
62	133
63	999
64	128
65	476
66	181
67	5
68	5
75	6
76	7
77	21
78	4
83	20
84	1
85	5
92	22
93	88
94	12
95	7
96	1
127	10
128	323
129	16
130	120
131	4
132	4
155	5
156	98
157	5
158	36
159	2
