Mass Spectrum: 7-Azabicyclo[4.1.0]heptane, 1-methyl-
Formula: C7H13N
CAS: 25022-25-7
Molecular weight: 111
m/z	intensity
26	14
27	127
28	208
29	42
30	83
32	9
35	7
36	10
38	14
39	163
40	52
41	260
42	458
43	108
44	42
46	10
47	9
50	14
51	36
52	28
53	80
54	87
55	146
56	94
57	59
58	12
60	7
62	7
63	9
64	9
65	28
66	26
67	156
68	295
69	59
70	95
71	10
77	71
78	21
79	118
80	64
81	154
82	999
83	347
84	35
85	9
89	12
91	45
92	12
93	49
94	66
95	24
96	763
97	56
98	7
99	9
103	13
106	45
107	35
108	38
109	31
110	208
111	101
112	14
