Mass Spectrum: Phosphine, bis(1,1-dimethylethyl)(1-methylethyl)-
Formula: C11H25P
CAS: 25032-49-9
Molecular weight: 188
m/z	intensity
31	9
32	0
33	0
34	1
35	4
37	3
38	4
39	51
40	12
41	231
42	44
43	98
44	4
45	20
46	4
47	13
48	5
49	2
50	2
51	3
52	1
53	6
54	1
55	29
56	32
57	999
58	46
59	15
60	1
61	31
62	4
63	4
64	2
65	0
67	1
68	0
69	9
70	1
71	11
72	8
73	6
74	6
75	25
76	135
77	82
78	3
79	1
80	0
81	1
83	4
84	1
85	1
87	3
88	1
89	15
90	16
91	3
92	12
93	2
95	1
97	0
99	1
103	0
105	1
106	4
107	1
108	1
112	0
113	0
116	0
117	11
118	2
119	0
121	6
122	0
131	3
132	88
133	8
134	0
136	0
137	0
146	0
147	0
148	2
149	0
162	0
174	0
181	1
188	40
189	5
190	0
