Mass Spectrum: 4-Methyl-3-(2-methylpropyl)-6-isopropyl-2,5-dioxomorpholine
Formula: C12H21NO3
CAS: 2503-11-9
Molecular weight: 227
m/z	intensity
29	106
30	24
39	88
40	17
41	303
42	999
43	261
44	219
45	24
55	155
56	127
57	501
58	176
69	233
70	42
71	106
72	17
83	314
84	187
85	74
88	45
89	28
98	88
99	28
100	604
101	60
112	137
113	24
114	56
115	31
126	42
127	84
128	31
129	636
130	21
140	74
141	28
142	469
143	42
155	56
156	28
157	21
169	24
170	24
171	162
172	70
184	74
185	452
186	38
212	31
227	74
