Mass Spectrum: 1-Penten-3-one, 2-methyl-
Formula: C6H10O
CAS: 25044-01-3
Molecular weight: 98
m/z	intensity
24	2
26	13
27	67
28	5
29	140
30	1
36	3
37	9
38	11
39	156
40	18
41	781
42	42
43	21
46	0
47	0
52	6
53	13
54	6
55	16
56	23
57	161
58	11
60	1
67	0
68	5
69	999
70	56
71	6
75	0
76	2
77	2
80	17
83	12
86	2
97	5
98	392
99	26
100	3
