Mass Spectrum: Bicyclo[3.1.0]hexan-2-one, 4-methyl-1-(1-methylethyl)-, (1.alpha.,4.beta.,5.alpha.)-
Formula: C10H16O
CAS: 2506-61-8
Molecular weight: 152
m/z	intensity
39	380
40	80
41	880
42	70
43	270
44	10
50	20
51	70
52	40
53	220
54	60
55	420
56	40
57	20
58	10
59	130
63	20
65	90
66	50
67	630
68	170
69	870
70	70
71	20
77	130
78	20
79	150
80	110
81	630
82	220
83	530
84	40
85	20
91	100
92	20
93	90
94	30
95	999
96	130
97	770
98	70
99	10
105	20
107	40
108	30
109	280
110	520
111	70
119	50
121	20
123	150
124	80
137	330
138	30
139	10
151	20
152	460
153	50
