Mass Spectrum: Benzenesulfonic acid, 2,4,6-trinitro-
Formula: C6H3N3O9S
CAS: 2508-19-2
Molecular weight: 293
m/z	intensity
30	999
36	1
37	34
38	39
39	20
40	1
41	3
44	7
45	24
46	514
47	4
48	107
49	20
50	87
51	69
52	19
53	59
54	11
55	22
56	8
57	7
59	4
60	17
61	119
62	348
63	235
64	107
65	169
66	121
67	27
68	12
69	51
70	2
71	6
72	4
73	127
74	647
75	491
76	48
77	53
78	35
79	78
80	203
81	36
82	18
83	16
84	12
85	7
86	8
87	22
88	8
89	11
90	78
91	158
92	32
93	31
94	28
95	16
96	17
97	9
98	11
101	3
103	2
104	7
105	8
106	6
107	5
108	11
111	2
112	2
113	2
115	3
116	1
119	2
120	108
121	10
122	42
123	2
124	3
125	3
127	1
129	2
131	1
133	5
136	3
137	12
138	2
139	1
143	18
145	1
147	1
151	1
152	2
155	2
157	2
159	14
166	4
167	35
168	4
171	5
185	3
196	7
197	8
199	3
207	3
212	60
213	216
214	22
215	5
229	8
230	5
247	1
255	1
256	3
276	32
277	9
278	1
281	1
293	35
294	4
295	1
