Mass Spectrum: Benzenepropanoic acid, .beta.,.beta.-dimethyl-, methyl ester
Formula: C12H16O2
CAS: 25080-84-6
Molecular weight: 192
m/z	intensity
41	140
42	10
43	20
50	10
51	50
52	10
53	10
55	10
59	40
63	10
65	30
74	20
77	70
78	20
79	40
91	360
92	20
93	10
102	10
103	40
105	20
115	50
116	10
117	150
118	50
119	999
120	90
135	22
136	2
145	40
160	10
177	10
192	70
