Mass Spectrum: 9,19-Cyclocholan-24-al, 3-(acetyloxy)-4,4,14-trimethyl-, (3.beta.,5.alpha.)-
Formula: C29H46O3
CAS: 25089-90-1
Molecular weight: 442
m/z	intensity
26	4
27	37
28	11
29	161
30	4
31	8
38	3
39	44
40	10
41	427
42	29
43	999
44	101
45	12
50	3
51	9
52	5
53	74
54	15
55	423
56	31
57	161
58	9
59	14
60	4
61	9
63	4
65	35
66	13
67	321
68	57
69	366
70	29
71	75
72	12
73	4
77	108
78	31
79	301
80	45
81	386
82	70
83	100
84	11
85	170
86	12
87	3
90	304
91	69
92	401
94	94
95	486
96	62
97	59
98	7
99	15
100	6
103	19
104	19
105	363
106	86
107	433
108	96
109	262
110	30
111	40
112	5
113	11
115	25
116	15
117	88
118	38
119	393
120	130
121	341
123	200
124	165
125	20
126	20
127	15
128	21
129	41
130	22
131	131
132	50
133	278
134	221
135	323
136	81
137	58
138	9
139	10
141	14
142	14
143	47
144	22
145	160
146	51
147	232
148	106
149	143
150	32
151	20
153	10
155	13
156	9
157	46
158	20
159	165
160	54
161	280
162	82
163	139
164	25
165	26
166	6
167	7
169	12
170	6
171	47
172	19
173	130
174	55
175	347
176	68
177	103
178	54
179	40
180	9
181	6
183	11
184	5
185	42
186	18
187	128
188	50
189	90
190	54
191	37
192	33
193	14
195	6
197	9
199	35
200	16
201	84
202	92
203	214
204	64
205	37
206	14
207	6
211	9
212	4
213	32
214	14
215	50
216	22
217	29
218	45
219	19
220	7
221	10
225	9
227	70
228	18
229	25
230	7
231	18
232	22
233	19
234	6
239	9
241	20
242	11
243	17
244	6
245	47
246	21
247	10
248	11
253	8
255	25
256	8
257	13
258	5
259	8
260	164
261	37
262	6
267	5
269	10
270	11
271	12
279	4
281	5
283	6
285	6
287	5
295	27
296	8
297	99
298	25
299	10
301	4
302	5
311	6
312	4
313	74
314	19
315	9
323	4
325	10
326	8
327	3
338	4
339	99
340	28
341	6
349	17
350	5
353	8
354	9
355	6
357	18
358	5
364	3
365	4
367	217
368	69
369	11
381	5
382	212
383	81
384	16
385	4
398	2
399	3
409	8
410	2
424	8
425	4
427	26
428	8
442	14
443	4
