Mass Spectrum: 2-Benzimidazolinone, 1-benzyl-5-methoxy-
Formula: C15H14N2O2
CAS: 2509-28-6
Molecular weight: 254
m/z	intensity
75	170
76	10
91	999
92	170
136	90
137	10
163	300
164	40
176	50
254	500
255	80
