Mass Spectrum: 3-Dodecen-1-yne, (E)-
Formula: C12H20
CAS: 25091-25-2
Molecular weight: 164
m/z	intensity
27	460
28	95
29	570
30	13
32	3
36	1
37	10
38	35
39	547
40	80
41	828
42	242
43	856
44	31
45	1
48	2
49	6
50	60
51	111
52	135
53	139
54	139
55	566
56	265
57	457
58	21
59	1
61	3
62	12
63	54
64	23
65	367
66	250
67	436
68	146
69	247
70	170
71	29
72	5
73	1
74	4
75	7
76	6
77	255
78	157
79	999
80	382
81	323
82	105
83	79
84	37
85	4
86	1
87	1
88	0
89	7
90	2
91	174
92	42
93	631
94	255
95	161
96	51
97	12
98	5
101	1
102	1
103	5
104	0
105	30
106	5
107	286
108	83
109	45
110	45
111	4
112	3
115	3
117	2
119	4
120	2
121	205
122	46
123	24
124	3
126	0
128	0
129	1
133	1
135	133
136	25
137	2
138	0
149	28
150	4
162	1
163	1
164	23
165	4
166	1
