Mass Spectrum: 5H-Cyclopropa(3,4)benz(1,2-e)azulen-5-one, 1,1a-.alpha.,1b-.beta.,4,4a,7a-.alpha.,7b,8,9,9a-decahydro-4a-.beta.,7b-.alpha.,9a-.alpha.-trihydroxy-3-(hydroxymethyl)-1,1,6,8-.alpha.-tetramethyl-, 9a-isobutyrate
Formula: C24H34O6
CAS: 25090-74-8
Molecular weight: 418
m/z	intensity
24	3
25	3
26	20
27	371
28	180
29	215
30	8
31	88
32	10
33	3
36	3
37	11
38	23
39	31
40	70
41	995
42	168
43	995
44	108
45	68
47	3
48	3
49	3
50	20
51	96
52	50
53	591
54	88
55	440
56	48
57	228
58	60
59	200
60	20
61	8
62	8
63	40
64	20
65	220
66	71
67	280
68	36
69	543
70	90
71	999
72	91
73	60
74	8
75	23
76	10
77	391
78	115
79	483
80	83
81	200
82	150
83	995
84	120
85	71
86	16
87	36
88	20
89	48
90	16
91	587
92	103
93	340
94	80
95	340
96	91
97	88
98	68
99	63
101	91
102	23
103	71
104	43
105	375
106	100
107	400
108	128
109	519
110	123
111	188
112	120
113	420
114	76
115	163
116	71
117	148
118	40
119	251
120	83
121	403
122	151
123	255
124	100
125	128
126	28
127	51
128	115
129	135
130	60
131	203
132	71
133	188
134	88
135	168
136	50
137	183
138	420
139	183
140	48
141	83
142	50
143	115
144	60
145	355
146	151
147	260
148	70
149	160
150	103
151	120
152	91
153	100
154	20
155	103
156	48
157	108
158	71
159	183
160	70
161	128
162	83
163	243
164	96
165	80
166	100
167	83
168	275
169	88
170	48
171	115
172	60
173	183
174	83
175	36
176	60
177	71
178	30
179	148
180	48
181	88
182	48
183	88
184	120
185	128
186	83
187	175
188	188
189	148
190	60
191	96
192	51
193	43
194	48
195	63
196	40
197	155
198	63
199	111
200	60
201	135
202	100
203	71
204	43
205	80
206	28
207	71
208	90
209	100
210	103
211	355
212	235
213	195
214	340
215	387
216	88
217	60
218	36
219	96
220	20
221	23
222	20
223	88
224	83
225	188
226	50
227	100
228	56
229	76
230	63
231	40
232	40
233	51
234	16
235	28
236	20
237	51
238	50
239	88
240	31
241	103
242	83
243	88
244	20
245	68
246	31
247	28
248	11
249	16
250	10
251	120
252	43
253	48
254	23
255	63
256	50
257	31
258	11
259	36
260	20
261	28
263	16
264	11
265	40
266	31
267	31
268	10
269	123
270	56
271	31
272	23
273	28
274	10
275	8
276	11
277	20
278	11
279	71
280	10
281	96
282	36
283	63
284	51
285	23
287	43
288	16
289	11
290	3
291	3
293	28
294	291
295	88
296	23
297	71
298	10
299	28
300	11
301	20
302	11
303	3
305	3
306	3
307	3
308	3
309	3
310	10
311	140
312	723
313	195
314	36
315	91
316	20
317	3
318	3
319	8
320	3
321	3
323	3
324	3
325	3
326	8
327	3
328	20
329	76
330	163
331	36
332	8
333	3
335	3
336	3
337	3
338	3
339	11
341	3
342	3
343	3
344	16
345	3
347	3
348	3
349	3
351	3
352	3
354	3
355	3
356	3
357	31
358	8
360	3
361	3
362	8
363	3
364	3
367	3
368	3
369	3
370	3
371	3
373	3
374	3
375	20
376	3
377	3
383	3
384	3
385	3
386	3
387	3
389	3
390	3
391	3
398	3
399	3
400	20
401	8
402	3
403	3
404	3
405	3
416	3
417	3
418	8
419	3
420	3
