Mass Spectrum: 4-[p-n-Hexyloxybenzylamino]-1,2-naphthoquinone
Formula: C23H25NO3
CAS: 25107-54-4
Molecular weight: 363
m/z	intensity
41	65
42	5
43	133
44	4
50	3
51	11
52	6
53	6
55	26
56	3
57	12
62	0
63	8
64	2
65	5
67	0
68	1
69	3
74	2
75	7
76	13
77	51
78	24
79	8
81	1
83	3
85	6
87	0
88	3
89	35
90	17
91	10
92	2
93	2
94	5
95	13
101	14
102	66
103	18
104	9
105	13
107	999
108	73
109	5
113	3
114	3
115	5
116	12
117	3
118	1
119	3
120	9
121	16
122	2
127	2
128	5
129	45
130	36
131	10
132	1
133	4
137	1
138	0
139	3
140	2
141	2
144	3
145	3
146	3
147	3
151	2
152	3
156	8
157	6
158	27
159	5
160	13
161	2
163	2
164	1
165	8
166	2
167	2
168	0
172	94
173	12
174	4
175	2
176	3
177	3
178	3
179	5
184	10
185	70
186	21
187	2
189	3
191	378
192	55
193	6
194	2
203	3
204	13
205	75
206	11
207	1
219	1
220	8
221	3
222	4
223	2
232	8
233	4
234	2
248	12
249	4
250	15
251	4
260	1
261	8
262	5
263	0
277	1
278	15
279	12
280	2
334	1
335	2
345	12
346	3
362	10
363	64
364	20
365	4
