Mass Spectrum: Thiazole, 2-(4-chlorophenyl)-4-methyl-
Formula: C10H8ClNS
CAS: 25100-91-8
Molecular weight: 209
m/z	intensity
45	170
50	56
51	37
69	37
71	611
72	999
73	93
74	56
75	93
76	37
102	56
111	37
137	37
138	74
139	17
140	28
209	833
210	111
211	333
212	37
