Mass Spectrum: .delta.1,.alpha.-Indanmalononitrile
Formula: C12H8N2
CAS: 2510-01-2
Molecular weight: 180
m/z	intensity
41	10
43	1
44	1
47	2
49	32
50	136
51	171
52	50
53	8
55	2
57	10
58	29
61	34
62	97
63	262
64	46
65	44
66	4
73	10
74	70
75	118
76	142
77	113
78	22
79	1
84	14
85	11
86	34
87	43
88	35
89	76
90	50
91	26
97	1
98	18
99	56
100	49
101	44
102	46
103	14
110	4
111	8
112	10
113	20
114	11
115	999
116	105
117	4
123	12
124	24
125	89
126	126
127	72
128	14
129	3
138	11
139	4
140	74
141	10
150	13
151	70
152	206
153	511
154	93
155	7
165	30
166	4
177	9
178	22
179	208
180	699
181	110
182	8
