Mass Spectrum: 4-[Ethylethanolamino]-1,2-naphthoquinone
Formula: C14H15NO3
CAS: 25107-75-9
Molecular weight: 245
m/z	intensity
41	38
42	146
43	72
44	411
45	60
46	7
48	2
49	21
50	215
51	46
52	36
53	15
54	9
55	9
56	136
57	29
58	999
59	50
60	15
61	10
62	11
63	21
64	7
65	28
66	11
67	2
68	5
69	8
70	38
71	48
72	95
73	23
74	98
75	54
76	287
77	81
78	10
79	3
80	2
81	2
82	1
83	1
84	15
85	5
86	23
87	7
88	34
89	79
90	91
91	19
92	7
93	10
94	3
95	2
96	1
97	1
98	3
99	11
100	35
101	14
102	36
103	9
104	302
105	93
106	8
107	1
108	1
110	1
111	0
112	1
113	4
114	6
115	13
116	9
117	7
118	12
119	4
120	4
121	7
122	8
123	1
126	2
127	4
128	4
129	21
130	19
131	13
132	30
133	23
134	10
135	5
136	1
137	1
140	1
141	2
142	4
143	5
144	6
145	5
146	29
147	42
148	84
149	65
150	7
151	2
152	1
154	1
155	1
156	2
157	3
158	9
160	68
161	17
162	6
163	16
164	3
165	1
166	1
168	1
169	1
170	2
171	2
172	8
173	11
174	22
175	24
176	13
177	3
178	2
180	0
182	1
183	1
184	2
185	1
186	10
187	4
188	5
189	5
190	5
191	2
192	6
193	1
194	4
195	2
199	1
200	6
201	5
202	8
203	3
204	1
213	0
214	2
215	2
216	2
217	3
218	1
219	0
226	1
227	1
228	3
229	1
230	0
243	1
244	2
245	4
246	1
247	0
