Mass Spectrum: Phosphoric acid, diethyl phenyl ester
Formula: C10H15O4P
CAS: 2510-86-3
Molecular weight: 230
m/z	intensity
25	0
26	4
27	47
28	33
30	2
31	2
37	3
38	11
39	103
40	17
42	0
43	12
44	4
45	26
47	16
48	0
49	0
50	20
51	68
52	8
53	9
54	2
55	6
57	1
58	0
61	1
62	5
63	26
64	13
65	164
66	60
67	3
68	1
69	1
70	1
73	1
74	7
75	9
76	13
77	207
78	51
79	7
80	2
81	139
82	4
83	2
84	2
85	0
87	0
89	4
90	0
91	48
92	8
93	28
94	932
95	64
96	3
98	0
99	121
100	11
101	2
102	2
103	44
104	999
105	105
106	5
107	70
108	5
109	93
110	4
111	2
112	2
113	1
115	0
117	7
118	1
119	0
120	1
121	39
122	8
123	1
124	1
125	1
126	0
127	80
128	7
129	13
130	1
131	1
132	3
133	0
136	0
137	1
139	9
140	6
141	1
142	0
145	1
149	0
155	4
156	30
157	37
158	2
159	1
163	1
165	6
167	6
169	4
171	0
173	6
174	120
175	73
176	4
177	1
183	7
185	2
186	1
187	115
188	8
189	2
201	108
202	111
203	16
204	2
205	0
207	0
215	32
216	3
217	0
229	2
230	277
231	35
232	3
