Mass Spectrum: Quinoline, 7-(phenylazo)-
Formula: C15H11N3
CAS: 25117-48-0
Molecular weight: 233
m/z	intensity
63	40
64	70
74	40
75	110
76	60
77	999
78	90
83	40
101	230
102	110
105	320
127	50
128	999
129	200
156	110
204	250
205	60
233	899
234	160
