Mass Spectrum: Quinoline, 5-(phenylazo)-
Formula: C15H11N3
CAS: 25117-46-8
Molecular weight: 233
m/z	intensity
63	140
64	100
74	170
75	340
76	130
77	999
78	80
100	40
101	270
102	150
105	70
127	40
128	400
129	60
156	10
233	200
234	60
