Mass Spectrum: 2,6-Piperidinedione, 3-ethyl-
Formula: C7H11NO2
CAS: 25115-69-9
Molecular weight: 141
m/z	intensity
39	157
40	54
41	333
42	242
55	327
56	151
69	115
70	203
84	60
85	330
86	90
98	90
113	999
114	90
126	84
