Mass Spectrum: N-[2-Acetamidoethylthio]-p-carbomethoxyaniline
Formula: C12H16N2O3S
CAS: 25116-48-7
Molecular weight: 268
m/z	intensity
41	28
42	90
43	781
44	479
45	54
46	30
47	16
48	8
49	9
50	6
51	8
52	13
53	3
54	7
56	5
57	2
58	13
59	57
60	159
61	15
62	11
63	22
64	31
65	78
66	10
68	2
69	1
70	1
72	173
74	51
75	32
76	200
77	4
78	25
79	7
80	3
84	11
86	465
87	54
88	8
89	2
90	9
91	24
92	91
93	9
95	1
97	1
100	1
102	1
106	8
107	7
108	36
109	53
110	1
111	8
116	14
118	999
119	82
120	309
121	23
122	7
124	2
135	3
146	3
147	1
150	7
151	282
152	35
153	12
162	1
164	1
177	6
178	5
179	2
183	2
193	3
236	5
237	15
239	1
267	18
268	27
269	3
