Mass Spectrum: Lanostan-3-one, 11.beta.,18-epoxy-
Formula: C30H50O2
CAS: 25116-73-8
Molecular weight: 442
m/z	intensity
41	680
42	80
43	999
44	30
45	10
53	100
54	20
55	770
56	70
57	590
58	20
59	20
65	30
66	20
67	450
68	70
69	690
70	50
71	240
72	10
77	110
78	20
79	330
80	50
81	620
82	280
83	210
84	10
85	40
91	280
92	50
93	480
94	110
95	610
96	80
97	110
98	40
99	20
103	10
104	10
105	310
106	70
107	470
108	110
109	380
110	50
111	70
112	10
115	20
116	10
117	80
118	20
119	230
120	60
121	270
122	50
123	210
124	60
125	220
126	30
127	20
128	10
129	30
130	20
131	140
132	40
133	190
134	50
135	200
136	40
137	160
138	230
139	50
141	10
142	10
143	50
144	20
145	140
146	40
147	160
148	40
149	100
150	30
151	60
152	60
153	10
155	10
156	10
157	40
158	10
159	100
160	20
161	170
162	20
163	60
164	10
165	30
167	10
169	10
171	40
172	10
173	80
174	20
175	70
176	20
177	60
178	10
179	30
183	20
185	40
186	20
187	50
188	10
189	50
190	10
191	70
192	20
193	140
194	230
195	40
197	10
199	30
201	30
203	30
204	10
205	30
207	20
209	20
210	10
211	40
212	10
213	10
214	20
215	10
217	10
219	20
221	20
223	60
224	10
225	10
227	10
241	20
243	30
244	10
245	30
246	10
247	10
249	120
250	40
255	20
257	50
258	20
259	20
260	10
261	10
269	30
270	10
271	40
272	10
273	10
283	20
285	30
286	20
287	20
297	50
298	20
299	90
300	30
301	20
302	20
311	100
312	30
313	20
315	20
326	20
328	20
329	150
330	250
331	70
339	40
357	80
358	30
367	30
369	20
386	20
387	30
395	30
397	90
398	30
409	240
410	90
411	110
412	50
424	30
427	240
428	80
429	30
442	850
443	300
444	70
