Mass Spectrum: Quinoline, 3-(phenylazo)-
Formula: C15H11N3
CAS: 25117-44-6
Molecular weight: 233
m/z	intensity
63	30
75	130
76	20
77	999
78	50
98	10
101	190
102	20
105	250
128	599
129	70
156	20
204	90
205	20
233	380
234	70
