Mass Spectrum: N-[2-Acetamidoethanethio]-p-tolylsulfonamide
Formula: C11H16N2O3S2
CAS: 25116-54-5
Molecular weight: 288
m/z	intensity
41	31
42	20
43	166
44	147
45	19
46	14
47	5
48	13
49	4
50	39
51	63
52	24
53	26
54	7
55	5
56	3
57	2
58	5
59	16
60	89
61	13
62	39
63	157
64	59
65	375
66	21
67	8
69	13
70	3
71	4
72	46
73	1
74	22
75	16
76	59
77	68
78	30
79	47
80	43
81	15
82	3
83	1
84	5
85	2
86	373
87	40
89	165
90	20
91	999
92	79
93	11
94	3
95	4
96	1
97	2
98	1
99	0
100	1
101	1
102	4
103	1
104	3
105	3
106	125
107	489
108	281
109	29
110	3
111	5
112	0
113	0
115	2
116	3
117	27
118	285
119	38
120	19
121	8
122	14
123	8
124	3
125	1
127	0
128	1
129	8
130	13
131	5
132	1
134	5
135	0
136	1
138	7
139	87
140	9
141	5
142	1
143	2
145	1
146	0
147	0
148	1
150	19
151	22
152	8
153	8
154	43
155	541
156	133
157	40
158	7
159	1
162	0
165	0
166	1
167	1
168	2
169	4
171	628
172	305
173	46
174	14
175	1
176	0
177	7
178	9
179	1
180	1
181	1
182	14
183	3
184	4
185	1
186	2
189	0
192	0
194	0
195	3
196	1
197	1
198	1
199	1
201	4
203	1
208	2
210	6
211	0
212	1
214	2
215	0
217	1
219	3
223	0
225	1
227	1
230	0
231	1
234	1
235	2
236	11
237	114
238	14
239	13
240	1
241	1
242	1
247	1
248	0
251	1
257	0
260	0
261	0
262	0
263	0
264	0
266	0
268	0
269	6
270	49
271	1
272	0
273	0
274	0
287	0
288	2
289	0
