Mass Spectrum: Quinoline, 8-(phenylazo)-
Formula: C15H11N3
CAS: 25117-49-1
Molecular weight: 233
m/z	intensity
63	172
64	107
74	118
75	290
76	86
77	999
78	86
100	43
101	322
102	172
105	21
127	64
128	623
129	86
156	236
204	376
205	75
233	10
