Mass Spectrum: Pyridine, 2-[(p-bromophenyl)azo]-
Formula: C11H8BrN3
CAS: 25117-50-4
Molecular weight: 261
m/z	intensity
50	639
51	679
52	270
55	90
62	70
63	200
64	120
74	200
75	639
76	679
77	90
78	999
83	90
90	90
98	50
127	160
128	50
153	50
154	270
155	879
156	70
157	879
158	70
183	120
185	120
233	749
234	80
235	749
236	80
