Mass Spectrum: Propan-2-one, 1-(1-methyl-4-nitroimidazol-5-yl)-
Formula: C7H9N3O3
CAS: 251297-90-2
Molecular weight: 183
m/z	intensity
33	0
34	0
37	27
38	43
39	61
40	52
42	999
43	613
44	93
46	11
47	0
48	0
49	2
50	8
51	30
52	101
53	51
54	126
55	109
56	133
58	24
59	0
60	0
61	1
62	2
63	5
64	9
65	9
66	31
67	66
68	43
69	14
70	13
72	124
73	3
74	0
75	1
76	2
77	5
78	4
79	24
80	7
81	17
82	19
83	50
84	5
85	0
86	0
88	0
89	0
90	0
91	1
93	52
94	145
95	56
96	8
97	8
98	1
99	0
104	0
105	0
106	0
107	1
108	3
109	14
110	10
111	44
112	3
113	0
114	0
119	0
121	0
122	2
124	40
125	14
126	1
127	0
133	0
134	0
135	1
136	2
137	3
141	578
142	26
143	2
149	0
151	0
152	0
153	0
160	0
161	0
165	0
167	0
171	0
181	0
183	18
184	1
185	0
