Mass Spectrum: Diehtylamino-3-benzenesulfonamidopentane
Formula: C15H26N2O2S
CAS: 25132-10-9
Molecular weight: 298
m/z	intensity
41	17
42	39
43	8
44	33
45	1
47	1
49	6
50	4
51	24
52	2
53	1
54	4
55	4
56	45
57	19
58	126
59	4
65	2
67	1
68	1
69	6
70	11
71	9
72	170
73	43
74	3
75	0
76	2
77	125
78	10
79	0
82	1
83	0
84	70
85	4
86	999
87	63
88	2
91	1
92	0
96	0
97	2
98	2
99	6
100	31
101	5
109	0
112	2
113	1
118	0
125	1
126	0
127	3
128	1
129	3
140	1
141	25
142	18
143	3
157	33
158	3
170	1
198	7
269	3
283	6
298	2
299	0
