Mass Spectrum: 2,4,6,8-Tetraselenaadamantane, 1,3,5,7-tetramethyl-
Formula: C10H16Se4
CAS: 25133-47-5
Molecular weight: 456
m/z	intensity
12	0
13	0
14	1
15	20
16	0
18	1
20	0
26	13
27	157
28	12
29	16
30	0
31	1
32	0
36	1
37	13
38	41
39	785
40	142
41	935
42	46
43	114
44	2
45	0
49	2
50	22
51	75
52	25
53	192
54	10
55	18
56	1
57	1
58	0
59	5
60	0
61	5
62	15
63	65
64	17
65	364
66	285
67	978
68	82
69	35
70	2
74	1
75	2
76	10
77	26
78	36
79	33
80	61
81	53
82	27
83	12
84	3
85	1
87	2
88	0
89	22
90	22
91	65
92	20
93	142
94	32
95	43
96	5
97	5
98	0
99	1
100	1
101	20
102	17
103	200
104	192
105	485
106	100
107	999
108	47
109	185
110	6
111	2
112	0
113	4
114	4
115	14
116	8
117	33
118	15
119	48
120	15
121	40
122	11
123	8
124	2
125	2
126	3
127	8
128	9
129	34
130	32
131	70
132	27
133	142
134	121
135	85
136	19
137	2
138	0
139	2
140	1
141	15
142	18
143	72
144	75
145	192
146	90
147	278
148	114
149	69
150	17
151	5
152	2
153	4
154	13
155	15
156	37
157	37
158	60
159	50
160	67
161	25
162	27
163	7
164	10
165	2
166	2
167	4
168	6
169	20
170	51
171	82
172	114
173	135
174	200
175	107
176	38
177	15
178	2
179	2
180	1
181	6
182	4
183	3
184	33
185	85
186	15
187	178
188	18
189	34
190	4
191	2
193	2
194	2
195	4
196	5
197	8
198	7
199	12
200	7
201	7
202	7
203	4
204	4
205	19
206	22
207	80
208	57
209	228
210	135
211	385
212	56
213	428
214	43
215	150
216	10
217	17
218	5
219	30
220	42
221	150
222	121
223	378
224	257
225	642
226	142
227	707
228	94
229	228
230	27
231	23
232	2
233	1
234	1
235	1
236	2
237	2
238	2
239	2
240	1
241	0
242	0
243	0
244	0
245	2
246	2
247	8
248	8
249	20
250	19
251	38
252	24
253	48
254	19
255	32
256	6
257	8
258	1
259	1
260	0
261	1
262	0
263	2
264	1
265	3
266	0
267	3
269	1
287	2
288	3
289	9
290	9
291	22
292	15
293	35
294	9
295	35
296	5
297	10
298	2
299	2
300	2
301	2
302	5
303	5
304	9
305	7
306	11
307	5
308	10
309	4
310	4
311	2
312	0
322	0
323	0
324	1
325	2
326	3
327	3
328	5
329	6
330	5
331	9
332	5
333	12
334	2
335	10
336	1
337	3
363	1
364	2
365	6
366	7
367	18
368	20
369	45
370	35
371	74
372	43
373	91
374	25
375	78
376	12
377	29
378	3
379	5
380	0
381	0
382	0
383	0
384	1
385	0
386	2
387	1
388	2
389	1
390	3
391	0
392	2
394	1
400	0
402	0
403	0
404	1
405	0
406	2
408	1
410	0
443	14
444	28
445	35
446	71
447	78
448	171
449	150
450	307
451	207
452	414
453	200
454	428
455	114
456	314
457	50
458	135
459	21
460	28
461	3
462	2
