Mass Spectrum: 2,4,6,8,9,10-Hexaselenaadamantane, 1,3,5,7-tetramethyl-
Formula: C8H12Se6
CAS: 25133-48-6
Molecular weight: 588
m/z	intensity
14	0
15	3
16	0
17	0
18	3
20	0
24	0
25	1
26	5
27	20
28	4
29	1
32	0
36	0
37	0
38	0
39	5
40	0
41	2
42	0
43	2
44	1
45	0
49	0
50	1
51	2
52	1
53	22
54	4
55	4
56	0
57	0
58	0
59	0
63	0
65	0
66	0
67	0
68	0
69	0
74	0
75	0
76	4
77	9
78	15
79	15
80	24
81	30
82	8
83	5
84	0
85	0
87	0
88	0
89	2
90	2
91	5
92	2
93	10
94	2
95	2
96	0
97	0
98	0
99	0
100	0
101	18
102	10
103	200
104	176
105	492
106	67
107	999
108	36
109	176
110	5
113	0
114	0
115	0
116	0
117	2
118	0
119	1
120	0
121	0
127	0
128	0
129	1
130	3
131	5
132	5
133	6
134	10
135	2
136	1
137	0
143	0
144	0
145	0
146	0
147	0
152	1
153	2
154	8
155	6
156	20
157	13
158	35
159	9
160	40
161	8
162	13
163	2
164	1
165	0
166	1
167	1
168	4
169	2
170	7
171	1
172	8
173	1
174	2
175	0
176	0
177	0
178	0
179	1
180	1
181	5
182	5
183	13
184	10
185	24
186	8
187	27
188	6
189	12
190	1
191	2
192	0
193	0
194	0
195	1
196	1
197	3
198	0
199	3
200	0
201	1
202	0
203	0
204	0
205	4
206	6
207	19
208	20
209	49
210	46
211	85
212	43
213	87
214	45
215	28
216	13
217	3
218	1
223	0
224	0
225	0
226	0
227	0
229	0
231	0
232	0
233	4
234	5
235	20
236	16
237	53
238	33
239	86
240	13
241	98
242	7
243	30
244	2
245	2
246	0
257	0
258	0
259	1
260	1
261	2
262	1
263	5
264	2
265	6
266	1
267	6
268	1
269	3
270	0
271	0
273	0
275	0
277	0
279	0
281	0
282	1
283	2
284	5
285	10
286	19
287	27
288	43
289	48
290	69
291	61
292	78
293	46
294	63
295	21
296	24
297	5
298	4
299	0
300	0
312	0
313	0
314	0
315	1
316	1
317	2
318	1
319	3
320	0
321	2
322	0
323	1
341	0
342	0
343	0
344	0
345	0
347	0
369	0
371	0
373	0
375	0
385	0
386	0
387	1
388	3
389	8
390	10
391	25
392	26
393	58
394	49
395	105
396	64
397	161
398	60
399	176
400	30
401	130
402	11
403	49
404	3
405	11
406	0
407	1
468	0
469	0
470	0
471	1
472	1
473	2
474	1
475	3
476	1
477	3
478	1
479	3
480	0
481	2
482	0
483	1
485	0
568	0
569	0
570	1
571	2
572	5
573	6
574	13
575	16
576	30
577	30
578	53
579	48
580	81
581	60
582	102
583	60
584	115
585	44
586	90
587	23
588	59
589	9
590	26
591	3
592	8
593	0
594	1
