Mass Spectrum: 4H-Pyran-4-one, 2,6-bis(4-dimethylaminobuta-1,3-dienyl)-
Formula: C17H22N2O2
CAS: 251345-22-9
Molecular weight: 286
m/z	intensity
33	2
34	4
35	3
37	11
38	28
39	236
40	64
41	209
42	999
43	170
44	321
45	85
46	20
47	5
49	4
50	50
51	147
52	97
53	155
54	52
55	174
56	57
57	48
58	253
59	18
60	10
61	8
62	18
63	60
64	31
65	215
66	75
67	98
68	129
69	125
70	87
71	71
72	184
73	22
74	28
75	15
76	33
77	228
78	334
79	153
80	131
81	14
82	421
83	39
84	194
85	21
86	18
87	14
88	9
89	28
90	24
91	90
92	48
93	79
94	864
96	66
97	135
98	59
99	23
100	8
101	7
102	12
103	25
104	48
105	57
106	80
107	79
108	114
109	96
110	25
111	17
112	7
113	7
114	10
115	41
116	20
117	39
118	65
119	41
120	231
121	313
122	91
123	26
124	218
125	21
126	7
127	22
128	48
129	341
131	30
132	42
133	28
134	59
135	15
136	30
137	39
138	70
139	11
140	8
141	41
142	15
143	18
144	30
145	17
146	28
147	35
148	202
149	63
150	35
151	6
152	7
153	16
154	8
155	8
156	10
157	15
158	21
159	13
160	28
161	24
162	22
163	10
164	20
165	10
166	10
167	5
168	12
169	24
170	32
171	30
172	31
173	26
174	15
175	5
176	14
177	8
178	4
179	2
180	2
181	9
182	6
183	7
184	20
185	14
186	19
187	13
188	13
189	26
190	11
191	3
192	2
193	2
194	1
195	2
196	10
197	48
198	34
199	31
200	16
201	5
202	7
203	3
204	5
205	17
206	3
207	1
208	0
209	1
210	4
211	5
212	15
213	12
214	17
215	15
216	6
217	6
218	2
221	0
222	2
223	1
224	7
225	5
226	23
227	6
228	6
229	3
230	3
231	1
236	0
237	1
239	9
240	33
241	64
242	392
243	70
244	10
245	1
249	1
253	0
254	1
255	0
256	2
258	15
259	2
260	0
267	0
268	1
269	5
270	1
271	10
272	2
274	0
281	2
282	6
283	8
285	113
286	317
287	61
288	7
289	0
