Mass Spectrum: 4-Chloro-5-methoxy-2-phenyl-2,3-dihydropyridazinone
Formula: C11H9ClN2O2
CAS: 2514-18-3
Molecular weight: 236
m/z	intensity
15	24
26	2
27	19
28	9
29	4
36	2
37	9
38	16
39	32
40	5
41	9
42	1
43	25
44	1
47	8
49	11
50	19
51	98
52	14
53	24
54	3
55	1
56	1
57	1
59	1
60	16
61	4
62	9
63	29
64	55
65	20
66	2
67	1
68	9
69	4
70	2
71	1
72	7
73	7
74	9
75	13
76	17
77	999
78	70
79	3
83	5
85	1
86	4
87	3
88	15
89	4
90	10
91	69
92	7
93	3
100	1
101	9
102	19
103	146
104	12
105	308
106	21
107	1
108	2
111	1
113	1
114	2
115	5
116	2
117	2
118	22
119	18
120	1
129	2
130	7
131	6
132	3
133	1
137	14
138	27
139	7
140	9
141	1
143	2
144	2
145	9
146	4
149	5
150	1
151	1
157	2
158	3
159	2
165	33
166	7
167	10
168	2
173	1
179	1
186	1
193	8
194	2
195	2
201	13
202	3
205	1
207	1
208	9
209	1
210	3
220	2
221	4
222	1
223	1
235	292
236	767
237	188
238	251
239	31
240	3
