Mass Spectrum: N-[2-Acetamidoethylthio]phthalimide
Formula: C12H12N2O3S
CAS: 25158-14-9
Molecular weight: 264
m/z	intensity
41	8
42	16
43	100
44	55
45	42
46	20
48	7
49	60
50	594
51	49
52	62
53	27
54	1
55	2
56	1
59	19
60	38
61	26
62	26
63	48
64	37
65	6
66	57
70	21
72	14
73	66
74	235
75	164
76	999
77	78
78	3
84	7
86	44
87	5
88	2
89	1
90	40
91	3
92	28
98	1
99	4
101	3
103	354
104	746
105	49
106	1
117	1
118	23
119	9
130	16
140	1
145	9
147	918
148	108
149	11
151	1
169	1
171	2
179	6
197	1
222	8
224	1
264	1
