Mass Spectrum: Methanesulfonylacetic acid
Formula: C3H6O4S
CAS: 2516-97-4
Molecular weight: 138
m/z	intensity
12	7
13	4
14	15
15	409
16	26
22	3
26	10
27	39
28	20
29	73
30	5
31	60
32	12
33	18
34	14
35	6
39	3
41	4
42	148
43	16
44	668
45	112
46	38
47	24
48	77
49	23
50	10
51	7
57	3
58	4
59	19
60	11
61	7
62	18
63	79
64	40
65	29
66	4
77	5
78	11
79	999
80	28
81	53
94	601
95	20
96	30
105	8
120	2
121	4
123	6
138	3
