Mass Spectrum: 1H-Indene-2-carboxylic acid, 2,3-dihydro-
Formula: C10H10O2
CAS: 25177-85-9
Molecular weight: 162
m/z	intensity
33	0
34	0
35	1
36	2
37	5
38	16
39	95
40	20
41	15
42	2
43	10
44	12
45	36
46	3
47	14
48	1
49	3
50	27
51	50
52	12
53	6
54	2
55	12
56	4
58	109
60	4
61	8
62	29
63	75
64	16
65	54
66	5
67	2
68	1
69	3
70	1
71	6
72	6
73	4
74	13
75	15
76	10
77	29
78	11
79	8
80	4
82	3
83	9
84	3
85	10
86	10
87	13
88	10
89	67
90	16
91	125
92	9
93	1
95	1
96	0
97	2
98	3
99	1
100	0
102	17
103	15
104	3
105	12
106	2
107	2
108	0
109	1
110	2
111	1
113	12
115	594
116	999
117	716
118	67
119	10
120	3
121	1
122	1
126	0
127	5
128	2
129	0
131	2
132	1
133	11
134	2
135	0
137	0
138	0
139	0
142	0
143	13
144	18
145	32
146	5
147	24
148	3
149	3
155	0
160	0
161	37
162	501
163	53
164	5
165	0
