Mass Spectrum: Aspidofractinine-3-carboxylic acid, 1-formyl-17-methoxy-, methyl ester, (2.alpha.,3.beta.,5.alpha.)-
Formula: C23H28N2O4
CAS: 2517-52-4
Molecular weight: 396
m/z	intensity
102	10
103	20
104	10
105	10
106	10
107	10
108	70
109	999
111	10
113	10
114	40
115	20
116	20
117	10
118	10
120	10
122	60
123	10
124	860
125	40
126	10
127	10
128	20
129	10
130	20
131	10
132	20
133	20
134	10
136	40
137	10
138	10
139	20
140	40
142	10
143	20
144	10
145	10
146	10
147	20
148	10
152	10
153	30
154	110
155	20
156	20
157	10
158	20
159	10
160	30
165	10
166	20
167	40
168	60
169	20
170	30
171	20
172	20
173	20
174	20
178	10
180	20
181	10
182	40
183	10
184	80
185	30
186	40
187	20
188	10
190	10
191	10
192	10
193	20
194	10
195	20
196	20
197	20
198	40
199	20
200	10
206	10
207	10
208	20
209	20
210	30
211	30
212	20
213	20
214	10
220	10
221	10
222	20
223	30
224	20
225	10
226	10
230	10
231	20
232	20
233	20
234	20
245	10
246	10
247	10
248	10
250	10
251	10
252	10
253	10
263	10
265	10
266	10
281	10
295	20
307	10
309	50
310	10
340	20
353	10
363	110
364	80
365	110
366	10
367	60
368	100
379	20
381	50
394	40
395	320
396	870
