Mass Spectrum: 2-Butenal, diethylhydrazone
Formula: C8H16N2
CAS: 25186-07-6
Molecular weight: 140
m/z	intensity
26	28
27	269
28	538
29	200
30	315
39	246
40	55
41	385
42	338
43	65
44	211
51	18
52	18
53	100
54	81
55	77
56	296
57	39
58	331
59	21
67	37
68	269
69	115
70	146
71	32
72	77
80	69
81	43
82	108
83	208
84	50
94	19
95	58
96	277
97	41
110	36
111	177
112	20
125	999
126	61
139	31
140	923
141	73
142	5
