Mass Spectrum: Butanal, 3-methyl-2-methylene-, diethylhydrazone
Formula: C10H20N2
CAS: 25186-15-6
Molecular weight: 168
m/z	intensity
30	272
39	172
40	39
41	543
42	357
43	272
44	315
52	19
53	100
54	64
55	122
56	293
57	86
58	480
59	50
65	28
67	100
68	64
69	393
70	100
71	46
72	193
73	38
74	57
77	13
79	31
80	57
81	136
82	93
83	64
84	64
85	26
86	32
87	64
93	12
94	86
95	114
96	321
97	999
98	107
99	19
108	34
109	72
110	72
111	207
112	100
122	64
123	86
124	114
125	16
136	16
137	14
138	68
139	642
140	79
153	465
154	57
167	19
168	579
169	79
