Mass Spectrum: 1-Cyclohexyl-2-methyl-prop-2-en-1-one
Formula: C10H16O
CAS: 25183-82-8
Molecular weight: 152
m/z	intensity
26	17
27	150
28	66
29	133
38	23
39	389
40	80
41	963
42	165
43	188
44	54
45	18
51	29
52	18
53	104
54	118
55	900
56	64
57	40
65	33
66	22
67	317
68	58
69	999
70	277
71	122
72	18
77	38
78	16
79	71
80	47
81	163
82	204
83	596
84	190
85	39
91	29
92	15
93	31
94	89
95	117
96	72
97	209
98	30
105	23
106	15
107	22
108	21
109	160
110	467
111	212
112	30
119	32
121	19
123	145
124	112
125	29
126	20
134	21
137	155
138	33
139	24
151	40
152	566
153	73
154	15
