Mass Spectrum: Celesticetin
Formula: C24H36N2O9S
CAS: 2520-21-0
Molecular weight: 528
m/z	intensity
59	45
84	999
92	40
120	85
121	40
138	40
229	25
313	1
331	20
389	0
408	1
427	0
469	0
472	0
497	0
510	0
513	0
528	5
