Mass Spectrum: Benzyl(but-3-yn-2-yl)methylamine
Formula: C12H15N
CAS: 2520-98-1
Molecular weight: 173
m/z	intensity
27	14
39	13
41	9
42	57
44	50
51	9
53	30
56	11
65	73
66	17
77	15
78	5
79	13
82	12
89	10
90	8
91	999
92	91
96	40
104	3
115	9
118	15
120	13
146	8
148	6
158	632
159	82
172	8
173	52
174	6
