Mass Spectrum: Divinylmethyl(chloromethyl)silane
Formula: C6H11ClSi
CAS: 25202-02-2
Molecular weight: 146
m/z	intensity
43	97
44	8
45	110
55	72
63	111
64	8
65	80
67	31
71	520
72	39
73	22
79	114
81	42
95	53
96	8
97	999
98	112
99	41
105	31
107	7
118	20
119	4
120	3
131	15
133	5
