Mass Spectrum: 2-Methyl-1-phenylbut-3-en-1-ol
Formula: C11H14O
CAS: 25201-44-9
Molecular weight: 162
m/z	intensity
26	2
27	37
28	3
29	25
30	0
31	2
37	1
38	3
39	35
40	4
41	20
42	1
43	11
44	1
49	0
50	15
51	55
52	15
53	20
54	4
55	25
56	30
57	4
61	0
62	3
63	10
64	3
65	8
66	1
67	2
68	1
69	2
70	0
71	1
72	0
73	0
74	4
75	5
76	5
77	206
78	36
79	463
80	39
81	3
82	1
83	1
84	1
85	1
86	0
87	1
88	0
89	4
90	1
91	14
92	1
93	0
94	0
95	1
96	0
97	0
99	0
100	0
101	0
102	2
103	3
104	1
105	52
106	10
107	999
108	92
109	5
110	1
111	0
112	0
114	0
115	9
116	2
117	4
118	2
119	0
120	0
121	0
126	0
127	3
128	7
129	7
130	1
131	1
133	1
139	0
140	1
141	2
142	0
143	0
144	1
145	3
146	0
147	0
157	0
158	0
159	0
160	0
161	0
162	0
