Mass Spectrum: Trivinyl(chloromethyl)silane
Formula: C7H11ClSi
CAS: 25202-05-5
Molecular weight: 158
m/z	intensity
43	71
55	212
56	8
57	132
63	200
65	111
67	70
81	97
82	10
83	445
84	50
85	19
109	999
110	123
111	49
130	6
131	8
132	1
133	2
