Mass Spectrum: l-Methionyl-l-glutamic acid, N-carbobenzyloxy-
Formula: C18H24N2O7S
CAS: 252253-23-9
Molecular weight: 412
m/z	intensity
41	98
42	45
43	96
44	203
45	55
46	16
47	20
48	9
49	7
50	15
51	33
52	13
53	13
54	18
55	89
56	89
57	68
58	17
59	7
60	13
61	126
62	14
63	29
64	10
65	91
66	7
67	13
68	14
69	32
70	14
71	38
72	12
73	18
74	30
75	31
76	7
77	60
78	32
79	56
80	8
81	13
82	27
83	32
84	83
85	51
86	27
87	43
88	31
89	76
90	94
91	999
92	86
93	4
95	13
96	3
97	19
98	16
99	9
100	35
101	11
102	57
103	11
104	24
105	12
106	15
107	51
108	52
109	10
110	10
111	12
112	8
113	65
114	19
115	1
116	4
117	4
118	1
120	14
121	3
124	13
125	1
126	9
127	5
128	6
129	12
130	83
131	248
132	21
133	2
137	2
138	23
139	19
140	7
141	4
142	11
143	1
144	46
145	8
146	30
147	7
148	70
149	7
151	1
157	16
158	13
159	4
160	1
163	3
164	37
165	7
166	38
167	10
168	7
174	1
181	6
183	13
185	81
186	18
192	10
194	48
195	5
203	48
204	2
208	10
209	2
211	12
212	5
214	11
227	3
229	14
233	24
238	18
243	2
246	14
247	4
259	1
260	6
271	5
277	19
283	5
292	4
294	17
320	13
338	232
339	45
340	9
351	6
366	6
412	7
