Mass Spectrum: 4,4,4-Trichloro-2-methylbutyramide
Formula: C5H8Cl3NO
CAS: 25236-73-1
Molecular weight: 203
m/z	intensity
15	5
16	7
17	1
25	2
26	27
27	120
28	69
29	32
30	7
35	10
36	109
37	10
38	35
39	52
40	8
41	69
42	21
43	97
44	919
45	33
46	9
47	7
48	2
49	17
50	23
51	97
52	19
53	137
54	26
55	59
56	39
57	7
58	3
59	14
60	12
61	67
62	21
63	274
64	13
65	79
66	5
67	3
68	120
69	24
70	4
71	4
72	114
73	194
74	9
75	14
76	3
77	9
78	11
79	3
80	34
81	1
82	14
83	30
84	8
85	29
86	538
87	130
88	17
89	999
90	55
91	336
92	16
93	1
94	2
95	10
96	152
97	17
98	61
99	8
100	11
101	1
102	2
103	1
104	83
105	5
106	27
107	4
108	2
109	175
110	8
111	111
112	6
113	19
114	34
115	9
116	12
117	26
118	2
119	26
121	9
122	6
123	152
124	457
125	115
126	291
127	28
128	45
129	2
130	1
131	4
132	210
133	13
134	79
135	6
136	20
137	1
138	9
140	1
143	3
144	2
145	1
149	9
150	24
151	11
152	15
153	10
154	6
155	5
156	2
157	1
159	7
161	7
163	2
167	1
168	788
169	46
170	513
171	30
172	85
173	7
174	1
187	22
188	1
189	20
190	1
191	7
203	9
204	7
205	9
206	6
207	3
208	2
