Mass Spectrum: 2,5-Hexanedione, 3,4-dimethyl-
Formula: C8H14O2
CAS: 25234-79-1
Molecular weight: 142
m/z	intensity
14	1
15	22
26	3
27	29
28	6
29	37
30	1
31	3
37	1
38	2
39	30
40	5
41	45
42	11
43	999
44	31
45	20
50	3
51	6
52	2
53	17
54	9
55	31
56	18
57	85
58	15
59	3
60	8
61	2
63	1
65	5
66	2
67	51
68	5
69	9
70	2
71	38
72	117
73	10
74	1
77	6
78	1
79	19
80	2
81	31
82	54
83	14
84	5
85	441
86	27
87	3
88	1
91	2
93	2
94	1
95	12
96	6
97	4
98	2
99	74
100	272
101	17
102	1
105	1
107	2
108	1
109	62
110	6
111	3
113	42
114	6
115	4
121	1
122	4
123	41
124	64
125	15
126	3
127	15
128	2
141	3
142	25
143	5
