Mass Spectrum: 2-(2,2,2-Trichloroethyl)hexanamide
Formula: C8H14Cl3NO
CAS: 25236-78-6
Molecular weight: 245
m/z	intensity
15	1
26	2
27	31
28	9
29	34
30	3
35	1
36	13
37	1
38	5
39	27
40	4
41	76
42	47
43	42
44	139
45	4
46	2
49	3
50	2
51	10
52	2
53	10
54	10
55	85
56	10
57	17
58	2
59	9
61	6
62	2
63	8
64	1
65	11
66	2
67	9
68	12
69	32
70	48
71	4
72	999
73	49
74	3
75	12
76	2
77	8
78	2
79	2
80	3
81	3
82	3
83	13
84	2
85	14
86	25
87	10
88	3
89	9
90	7
91	5
92	2
93	14
94	4
95	13
96	7
97	3
98	6
99	3
100	2
101	5
102	2
103	4
104	4
105	1
106	1
108	1
109	39
110	6
111	24
112	3
113	5
114	61
115	6
116	1
117	3
118	1
119	2
120	1
121	2
122	3
123	8
124	4
125	5
126	2
127	1
128	168
129	17
130	2
131	3
132	2
135	4
136	6
137	8
138	5
139	4
140	1
146	1
149	1
151	1
153	9
154	1
155	6
156	1
157	1
165	2
166	8
167	1
168	5
170	1
174	9
176	3
180	3
182	2
189	123
190	6
191	120
192	6
193	38
194	2
195	4
202	11
203	3
204	10
205	3
206	4
207	1
208	1
209	1
210	49
211	6
212	32
213	3
214	5
216	5
218	5
220	1
229	1
231	1
245	4
246	1
247	4
249	1
