Mass Spectrum: Ethanone, 1-(4-methyl-1H-imidazol-2-yl)-
Formula: C6H8N2O
CAS: 2524-90-5
Molecular weight: 124
m/z	intensity
40	351
41	153
42	65
43	538
44	192
45	76
50	120
51	796
52	653
53	543
54	967
55	395
56	395
57	54
63	54
64	98
65	87
66	417
67	423
68	758
69	93
77	76
78	54
79	208
80	285
81	631
82	395
83	384
95	549
96	999
97	340
108	54
109	615
110	50
122	54
123	87
124	714
125	70
