Mass Spectrum: Acetamide, N-[3-(methylthio)phenyl]-
Formula: C9H11NOS
CAS: 2524-78-9
Molecular weight: 181
m/z	intensity
41	11
42	28
43	756
44	18
45	110
46	6
47	11
48	0
50	16
51	27
52	36
53	22
54	4
57	2
58	3
61	3
62	14
63	97
64	64
65	107
66	31
67	19
69	40
70	24
71	5
74	2
75	1
76	3
77	44
78	25
79	14
80	155
81	5
82	5
83	1
84	1
85	1
90	14
91	33
92	22
93	117
94	62
95	22
96	45
97	27
98	0
104	5
106	999
107	73
108	8
109	1
110	1
111	42
112	2
119	0
121	1
122	9
123	8
124	41
125	0
132	3
133	2
136	1
138	27
139	692
140	54
141	22
165	2
166	0
181	716
182	68
183	25
