Mass Spectrum: Pyridinium, 1,2,6-trimethyl-, iodide
Formula: C8H12IN
CAS: 2525-19-1
Molecular weight: 249
m/z	intensity
36	340
38	130
39	240
50	40
51	60
52	40
53	50
63	70
65	200
66	240
77	110
78	40
79	180
80	50
91	30
92	200
93	30
106	400
107	999
108	90
120	70
121	260
122	30
127	360
128	160
141	90
142	639
