Mass Spectrum: 1,2,3-Oxadiazol-3-ium, 5-trifluoroacetylamidato-3-(1-benzylethyl)-
Formula: C13H12F3N3O2
CAS: 252551-32-9
Molecular weight: 299
m/z	intensity
33	0
37	2
39	110
40	42
41	108
42	17
43	6
45	45
47	3
48	1
50	59
51	73
52	17
53	15
54	41
55	21
56	13
57	4
58	2
59	0
61	3
62	13
63	36
65	137
66	10
67	17
69	203
70	15
71	1
72	0
73	1
74	6
75	8
76	11
77	55
78	32
79	13
81	27
82	2
83	1
85	2
86	2
87	3
89	40
91	999
92	58
93	2
95	4
97	17
98	1
99	0
100	0
101	1
102	9
103	25
104	15
105	4
106	0
107	0
108	0
109	0
112	9
113	1
115	42
116	11
117	48
119	169
120	8
121	0
123	0
124	0
125	2
126	0
128	2
129	1
130	4
131	1
132	1
133	0
134	0
135	0
136	0
138	1
139	10
140	0
141	0
142	0
143	0
144	1
145	1
146	4
147	0
149	0
151	0
152	0
153	0
155	1
157	2
158	0
159	0
160	0
161	0
169	0
171	1
172	2
173	16
174	1
175	0
178	0
183	0
185	0
187	0
195	0
201	0
202	0
203	2
204	0
227	0
228	0
230	88
231	10
232	0
252	1
253	0
255	0
295	0
297	0
299	20
300	2
301	0
