Mass Spectrum: 1,2,3-Triazol-4-amine, 2-isopropyl-5-nitro-, 1-oxide
Formula: C5H9N5O3
CAS: 252555-86-5
Molecular weight: 187
m/z	intensity
37	2
38	35
39	243
41	557
43	999
44	63
46	29
53	164
54	78
55	39
56	16
67	7
68	48
69	180
70	240
71	682
72	15
82	3
87	12
129	15
141	338
142	11
171	14
187	230
188	7
