Mass Spectrum: Phenyl propargyl sulfone
Formula: C9H8O2S
CAS: 2525-40-8
Molecular weight: 180
m/z	intensity
37	55
38	123
39	325
40	24
43	2
44	6
45	19
48	9
50	170
51	497
52	24
53	16
55	18
57	3
58	1
61	2
62	9
63	21
64	9
65	19
69	15
70	1
71	1
73	7
74	38
75	26
77	999
78	79
79	1
81	5
82	2
89	15
97	40
103	1
104	25
105	1
108	1
109	9
110	2
115	75
116	211
117	22
123	1
125	37
126	4
131	1
132	8
135	13
136	1
141	270
142	22
143	13
180	127
181	12
182	8
