Mass Spectrum: 2H-1,2,3-Triazol-4-amine, 2-cyclohexyl-5-nitro-, 1-oxide
Formula: C8H13N5O3
CAS: 252555-91-2
Molecular weight: 227
m/z	intensity
33	76
34	29
36	4
37	10
39	352
40	461
41	708
42	149
43	211
44	177
45	14
46	19
48	2
50	20
51	45
52	50
53	180
54	202
55	999
56	74
57	38
58	4
63	14
64	9
65	30
67	222
68	45
69	104
70	112
71	514
72	15
74	4
75	1
76	5
77	35
78	16
79	42
80	27
81	132
82	139
83	441
84	42
85	10
87	39
90	2
91	17
92	6
93	14
94	40
95	21
96	19
97	15
98	4
99	13
100	4
105	11
106	8
107	7
108	17
109	12
110	12
111	12
112	13
113	32
114	2
117	1
119	7
120	11
121	15
122	10
123	4
124	2
125	3
126	8
127	8
129	15
130	40
131	4
134	3
135	4
136	7
137	3
140	2
145	1
146	52
148	7
151	2
152	2
153	14
154	9
155	2
156	30
162	1
165	5
166	7
168	2
171	5
176	1
179	3
180	2
181	34
182	4
193	2
194	29
195	4
196	4
210	2
211	33
225	1
227	49
228	4
