Mass Spectrum: Erythritol, 4TMS derivative
Formula: C16H42O4Si4
CAS: 25258-02-0
Molecular weight: 410
m/z	intensity
29	10
31	30
41	10
43	10
44	10
45	70
59	50
69	20
72	20
73	999
74	90
75	70
89	20
101	40
103	360
104	30
105	20
115	10
116	90
117	190
118	20
119	10
129	80
130	10
131	30
133	70
134	10
147	370
148	60
149	30
189	120
190	20
191	100
192	20
204	130
205	390
206	80
207	40
217	370
218	80
219	30
221	10
231	30
277	20
293	30
305	20
307	100
308	30
309	10
320	20
395	2
