Mass Spectrum: 1,3-Dioxolane-4,5-dione
Formula: C3H2O4
CAS: 25260-20-2
Molecular weight: 102
m/z	intensity
12	15
13	6
14	26
16	26
18	13
28	248
29	431
30	999
31	15
43	11
44	437
45	33
56	37
58	13
59	4
102	84
