Mass Spectrum: 1H-1,2,3-Triazole-4-carboxylic acid, 5-(2-chloro-6-fluorobenzylthio)-1-(3-chloro-4-fluorophenyl)-, methyl ester
Formula: C17H11Cl2F2N3O2S
CAS: 252725-38-5
Molecular weight: 429
m/z	intensity
33	4
34	1
35	2
36	12
37	3
38	7
39	13
40	13
41	4
42	6
43	18
44	13
45	76
46	3
47	7
48	0
49	3
50	20
51	11
52	2
53	1
54	2
55	4
56	9
57	55
58	89
59	657
60	24
61	28
62	15
63	33
64	4
65	1
67	9
68	17
69	23
70	25
71	5
72	8
73	14
74	22
75	38
76	6
77	4
78	2
79	3
80	5
81	36
82	13
83	30
84	8
85	7
86	5
87	12
88	5
89	8
90	1
91	12
92	6
93	60
94	53
95	16
96	7
97	6
98	2
99	5
100	14
101	4
103	999
104	51
105	63
106	12
107	157
108	79
109	60
110	6
111	21
112	4
113	2
114	1
115	3
117	53
118	6
119	25
120	37
121	5
122	1
123	7
124	1
125	3
126	5
127	3
128	15
129	239
130	25
131	77
132	34
133	8
134	6
135	8
136	3
137	4
138	6
139	15
140	8
141	13
143	704
144	64
145	220
146	18
147	2
148	3
149	5
151	7
152	24
153	5
155	131
156	26
157	42
158	8
159	2
160	2
161	3
162	2
163	3
164	6
165	6
166	3
167	23
168	15
169	19
170	145
171	33
172	47
173	29
174	16
175	18
176	7
177	6
178	3
179	5
180	6
181	3
182	22
183	4
184	8
186	64
187	34
188	22
189	13
190	3
191	1
192	2
193	3
194	2
195	21
196	66
197	14
198	33
199	30
200	10
201	15
202	8
203	3
204	4
205	1
206	1
207	0
208	1
210	7
211	57
212	14
213	6
214	36
215	5
216	12
217	3
218	3
219	1
220	1
221	0
222	1
223	8
224	1
225	2
226	23
227	27
228	13
229	13
230	42
231	6
232	17
233	2
234	1
235	1
236	0
237	0
238	0
239	1
240	4
241	0
242	1
243	0
244	0
245	0
246	0
247	0
248	0
249	0
250	0
251	0
252	0
254	18
255	3
256	8
258	493
259	61
260	181
261	21
262	9
263	2
264	0
265	0
266	0
267	0
268	0
269	0
271	19
272	6
273	10
274	4
275	2
276	1
277	0
278	0
279	0
280	0
281	0
282	0
283	0
284	0
285	2
286	3
287	4
288	2
289	3
290	1
291	1
293	0
294	0
295	0
296	1
297	2
298	27
299	5
300	17
301	3
302	3
303	1
304	0
305	1
306	10
307	6
308	4
309	3
310	2
311	0
312	1
313	0
314	0
315	0
316	0
317	0
318	0
320	0
321	0
322	1
323	0
324	1
325	0
326	0
327	0
329	0
330	0
331	1
332	0
333	0
334	10
335	2
336	28
337	5
338	9
339	1
340	1
341	1
342	10
343	2
344	7
345	1
346	1
347	0
348	0
349	0
350	0
351	0
352	0
353	0
354	0
355	0
356	0
357	0
358	0
359	0
360	0
361	0
362	0
363	0
364	1
366	70
367	14
368	29
369	7
370	12
371	68
372	19
373	44
374	9
375	8
376	2
377	0
380	0
381	0
382	0
383	0
384	0
385	0
386	0
387	0
388	0
390	0
393	0
394	8
396	5
397	0
398	3
399	1
400	3
401	7
402	2
403	5
404	1
405	1
406	0
413	0
416	0
427	0
429	20
430	5
431	13
432	3
433	3
434	0
435	0
436	0
