Mass Spectrum: 4H-Furo[2,3-d]pyrido[1,2-a]pyrimidin-4-one, 2,3-dihydro-2,2,8-methyl-
Formula: C13H14N2O2
CAS: 252950-70-2
Molecular weight: 230
m/z	intensity
63	49
64	125
65	922
66	249
67	274
68	153
69	55
71	11
76	33
77	35
78	44
79	66
80	216
82	8
84	4
85	5
86	5
89	10
90	14
91	98
92	999
93	609
94	65
95	53
96	338
97	28
100	9
101	5
105	22
106	19
107	254
108	102
109	21
114	28
115	4
116	4
117	7
118	18
119	94
121	26
122	23
123	13
124	4
133	31
134	38
135	640
136	55
143	14
144	312
145	36
146	7
148	9
150	9
159	26
160	5
161	43
171	12
172	206
173	39
174	8
176	5
185	14
186	5
187	52
188	9
189	204
190	34
201	53
202	27
203	7
215	203
216	22
229	45
230	781
231	109
