Mass Spectrum: Estra-1,3,5(10)-trien-17.beta.-ol
Formula: C18H24O
CAS: 2529-64-8
Molecular weight: 256
m/z	intensity
41	556
42	125
43	999
45	391
50	18
51	33
52	4
53	57
54	79
55	710
56	245
57	998
59	143
60	275
61	115
63	32
64	25
65	30
66	12
67	166
68	88
69	340
70	142
71	447
73	475
74	63
75	81
76	43
77	129
79	77
80	34
81	150
82	127
83	353
84	136
85	359
87	182
88	15
89	59
91	42
92	63
93	56
94	60
95	190
96	121
97	315
98	110
99	84
100	30
101	113
103	154
104	11
105	48
106	21
107	220
109	136
110	52
111	142
112	55
113	73
115	105
116	27
117	32
118	9
119	39
120	28
121	29
122	130
123	75
124	45
125	100
126	43
127	70
128	7
129	133
131	36
132	14
133	54
134	32
135	50
136	15
137	70
138	48
139	43
140	21
141	39
143	44
144	35
145	60
146	49
147	29
148	4
149	57
150	37
151	82
152	26
153	31
154	27
155	36
157	88
158	18
159	72
160	29
161	32
162	3
163	30
165	49
166	31
167	26
168	18
169	22
171	43
172	29
173	20
174	4
175	41
176	3
177	12
178	16
179	15
180	3
181	19
182	14
183	25
185	95
186	24
187	4
189	3
191	22
192	5
193	14
194	14
195	16
196	16
197	21
199	33
200	4
201	3
203	3
205	12
207	9
211	13
213	51
217	4
218	4
219	4
222	3
223	8
224	13
225	9
227	27
228	26
229	4
231	4
235	0
236	0
238	4
239	19
241	23
242	12
243	4
252	3
253	15
254	9
255	20
256	343
257	75
258	9
