Mass Spectrum: 1,2,4-1H-Triazole, 5-dimethylaminomethylenamino-3-methylthio-1-phenyl-
Formula: C12H15N5S
CAS: 252914-89-9
Molecular weight: 261
m/z	intensity
33	2
34	2
36	1
37	3
38	11
39	27
40	31
41	43
42	205
43	29
44	145
45	19
46	34
47	10
48	2
49	2
50	14
51	77
52	13
53	10
54	5
55	15
56	14
57	29
58	10
59	4
60	1
61	2
62	4
63	29
64	111
65	44
66	4
67	10
68	4
69	12
70	11
71	14
72	6
73	13
74	9
75	4
76	12
77	198
78	16
79	2
80	3
81	3
82	13
83	83
84	9
85	7
86	1
87	2
88	2
89	5
91	999
92	76
93	15
94	3
95	3
96	5
97	9
98	35
99	4
100	1
101	2
102	3
103	7
104	15
105	25
106	8
107	4
108	41
109	4
110	2
111	3
112	2
113	3
114	1
115	5
116	4
117	17
118	59
119	13
120	18
121	17
122	19
123	14
124	12
125	3
126	2
127	1
128	1
129	12
131	57
132	7
133	3
134	2
135	4
136	3
137	3
138	1
139	3
140	13
141	4
142	2
143	9
144	11
145	5
146	6
147	3
148	3
149	48
150	6
151	3
152	5
154	143
155	12
156	9
157	3
158	10
159	4
160	3
161	2
162	3
163	44
164	86
165	11
166	4
167	1
168	2
169	7
170	13
171	14
172	24
173	17
174	58
175	7
176	1
177	2
178	0
179	0
180	0
181	0
182	0
183	2
184	6
185	2
186	1
187	5
188	3
189	3
190	2
191	1
192	6
193	1
194	0
195	0
196	0
197	2
198	3
199	2
200	1
201	1
202	2
203	2
204	15
205	57
206	10
207	4
208	1
209	0
210	0
211	1
212	6
213	134
214	37
215	6
216	13
217	68
218	11
219	21
220	5
221	1
222	0
223	0
225	0
228	24
229	5
230	4
231	2
232	2
233	7
234	4
235	0
236	0
243	0
244	2
246	38
247	6
248	3
249	0
258	0
259	5
260	85
261	905
262	136
263	49
264	6
265	1
266	0
