Mass Spectrum: Silane, trimethyl-7-octenyl-
Formula: C11H24Si
CAS: 252991-06-3
Molecular weight: 184
m/z	intensity
25	0
26	1
27	15
28	12
29	16
30	0
31	14
32	3
33	0
38	1
39	22
40	4
41	39
42	10
43	41
44	19
45	71
46	4
47	2
50	0
51	1
52	1
53	6
54	6
55	15
56	2
57	8
58	19
59	266
60	21
61	9
62	0
63	0
65	0
66	1
67	9
68	2
69	3
70	2
71	8
72	15
73	999
74	86
75	34
76	1
77	0
79	2
80	0
81	4
82	2
83	2
84	0
85	12
86	3
87	46
88	4
89	1
91	0
93	0
95	1
96	0
97	2
98	0
99	42
100	4
101	20
102	2
103	0
107	0
108	0
109	23
110	14
111	2
112	0
113	16
114	2
115	0
116	0
118	0
125	2
126	0
127	4
128	0
129	0
139	13
140	1
141	10
142	1
143	0
155	0
165	1
166	0
167	4
168	1
169	38
170	6
171	1
184	2
185	0
