Mass Spectrum: 1H-Pyrazolo[1,2-b]phtalazine-5,10(4H,11H)-dione, 2,3-dihydro-1-phenyl-3-spirocyclopropane-
Formula: C19H16N2O2
CAS: 252921-98-5
Molecular weight: 304
m/z	intensity
33	13
34	2
35	2
36	4
37	4
39	87
40	40
41	28
42	11
43	20
44	7
45	2
47	3
50	148
51	90
52	25
53	34
54	26
55	15
57	8
61	1
63	41
64	19
65	34
66	10
68	33
69	7
70	5
71	2
73	3
74	31
76	527
77	238
78	65
79	8
80	13
81	3
82	3
84	29
86	13
87	4
88	11
89	38
90	94
91	56
92	8
93	2
94	1
95	4
96	0
97	0
98	0
99	0
102	127
104	999
105	148
106	11
107	2
109	1
111	1
112	2
113	11
115	165
116	39
117	34
118	23
119	6
120	3
121	2
122	1
124	0
125	2
128	244
129	126
130	282
131	67
132	55
133	47
134	5
135	2
136	0
137	1
138	1
139	4
141	72
142	95
143	132
144	26
146	19
148	108
149	11
151	6
152	27
153	10
154	8
156	388
157	241
158	137
159	20
160	19
161	5
162	6
163	8
164	3
165	10
166	2
167	1
168	0
169	2
170	4
171	25
172	18
173	21
174	5
175	5
176	3
177	2
178	6
179	3
180	4
181	6
182	8
183	9
184	3
185	3
186	15
187	1
189	3
190	2
191	0
192	2
193	5
194	1
195	0
197	2
199	67
200	131
201	17
202	3
203	0
204	3
205	1
206	1
208	4
209	3
211	1
212	4
213	10
214	1
215	0
217	0
218	0
219	2
221	14
222	6
223	1
224	0
225	2
227	78
228	10
229	1
230	0
231	3
232	8
233	4
234	3
236	148
237	22
238	0
245	2
246	1
247	3
248	6
249	14
250	5
251	7
252	1
255	0
256	0
257	1
259	18
260	6
261	2
262	3
263	1
271	8
272	1
273	0
274	0
275	5
276	1
284	0
285	4
286	1
287	5
289	7
290	0
299	2
300	6
304	971
305	165
306	19
307	1
