Mass Spectrum: Phthalazine
Formula: C8H6N2
CAS: 253-52-1
Molecular weight: 130
m/z	intensity
26	7
27	9
28	15
36	2
37	17
38	18
39	35
40	1
41	3
48	2
49	13
50	178
51	91
52	57
53	3
60	2
61	9
62	16
63	49
64	5
65	7
73	9
74	59
75	88
76	383
77	30
78	1
98	4
99	5
100	4
101	12
102	139
103	260
104	19
128	1
129	73
130	999
131	98
132	4
