Mass Spectrum: 2-Chloro-6-methylbenzenesulfonyl chloride
Formula: C7H6Cl2O2S
CAS: 25300-37-2
Molecular weight: 224
m/z	intensity
15	2
16	1
24	1
26	8
27	16
29	3
31	1
32	9
33	1
34	1
35	12
36	14
37	23
38	46
39	167
40	11
41	8
42	1
43	21
45	53
46	2
47	6
48	98
49	24
50	81
51	110
52	17
53	9
54	3
55	1
57	3
58	4
59	4
60	14
61	52
62	149
63	423
64	172
65	95
66	13
67	2
68	3
69	42
70	6
71	6
72	11
73	103
74	49
75	93
76	12
77	83
78	16
79	7
80	1
81	9
82	8
83	7
84	21
85	36
86	46
87	46
88	18
89	871
90	155
91	214
92	19
93	13
94	14
96	8
97	29
98	5
99	217
100	14
101	70
102	5
103	2
104	1
105	8
106	2
107	8
108	87
109	39
110	19
111	16
112	25
113	8
114	8
115	1
116	1
117	2
118	1
119	2
120	4
121	28
122	6
123	46
124	384
125	999
126	273
127	326
128	49
129	3
130	1
131	2
133	4
135	2
137	1
138	1
139	2
140	129
141	42
142	48
143	123
144	12
145	44
146	4
147	3
153	7
155	13
156	2
157	8
158	24
159	25
160	16
161	15
162	6
163	2
170	14
171	151
172	18
173	58
174	8
175	4
176	1
188	4
189	348
190	29
191	121
192	10
193	5
224	161
225	14
226	112
227	9
228	22
229	1
230	1
