Mass Spectrum: 1,3-Diethoxy-2-methylenepropane
Formula: C8H16O2
CAS: 25307-84-0
Molecular weight: 144
m/z	intensity
15	21
17	15
18	15
24	2
25	6
26	29
27	95
28	148
29	531
30	31
31	447
32	58
33	2
35	2
36	2
37	9
38	12
39	20
40	50
41	232
42	271
43	199
44	110
45	71
46	9
47	29
48	1
49	12
50	11
51	12
52	9
53	54
54	124
55	385
56	52
57	999
58	39
59	196
60	7
63	1
64	4
65	2
67	2
68	9
69	226
70	321
71	96
72	152
73	23
74	1
75	13
77	1
78	1
79	6
80	9
81	4
82	9
83	121
84	14
85	63
86	32
87	23
88	2
89	1
90	1
91	1
92	1
93	2
94	1
95	2
96	3
97	53
98	596
99	67
100	10
103	19
104	2
105	2
106	1
107	1
109	1
111	1
115	5
117	1
119	1
128	2
129	9
130	1
143	3
144	2
