Mass Spectrum: 2(1H)-Naphthalenone, octahydro-8a-methyl-, cis-
Formula: C11H18O
CAS: 2530-17-8
Molecular weight: 166
m/z	intensity
41	999
42	160
43	180
50	10
51	80
52	60
53	340
54	190
55	700
56	120
57	40
63	20
65	90
66	60
67	640
68	290
69	370
70	60
71	70
77	110
78	30
79	190
80	70
81	480
82	320
83	90
84	30
91	90
92	20
93	220
94	50
95	640
96	210
97	60
98	20
105	30
106	20
107	60
108	540
109	340
110	130
111	70
122	50
123	110
124	190
125	20
133	100
137	20
138	20
148	50
151	190
152	10
166	280
167	40
