Mass Spectrum: 3-Buten-2-ol, 4-(2,6,6-trimethyl-2-cyclohexen-1-yl)-, (3E)-
Formula: C13H22O
CAS: 25312-34-9
Molecular weight: 194
m/z	intensity
26	10
27	87
29	126
30	7
31	98
39	90
40	24
41	263
42	26
43	999
44	68
45	126
46	7
50	5
51	26
52	15
53	96
54	18
55	190
56	37
57	52
58	22
59	66
60	17
61	5
63	9
64	8
65	61
66	25
67	146
68	90
69	96
70	15
71	61
72	11
73	12
74	43
75	6
76	7
77	155
78	45
79	212
80	175
81	226
82	52
83	41
84	20
85	13
86	4
89	7
90	6
91	187
92	71
93	242
94	139
95	574
96	245
97	38
98	12
99	8
102	13
103	22
104	14
105	184
106	40
107	130
108	54
109	202
110	46
111	22
112	7
113	4
115	19
116	8
117	19
118	6
119	61
120	141
121	154
122	47
123	229
124	32
125	11
126	7
127	5
128	9
129	10
130	5
131	10
132	5
133	25
134	10
135	33
136	55
137	22
138	781
139	110
140	12
147	10
148	6
149	32
150	27
151	9
152	2
153	3
155	5
161	49
162	15
163	4
164	4
165	12
166	5
167	4
176	41
177	12
178	6
179	19
180	5
191	15
192	9
193	5
194	76
195	13
196	2
