Mass Spectrum: Benzoic acid, 2-[[ethoxy[(1-methylethyl)amino]phosphinothioyl]oxy]-, 1-methylethyl ester
Formula: C15H24NO4PS
CAS: 25311-71-1
Molecular weight: 345
m/z	intensity
26	2
27	30
28	1
29	20
30	2
31	0
34	0
38	1
39	10
40	2
41	35
42	17
43	75
44	20
45	3
46	5
47	5
48	0
49	0
50	1
51	1
52	0
53	1
54	0
55	0
56	6
57	13
58	999
59	34
60	0
61	0
63	7
64	40
65	20
66	2
69	0
70	0
73	1
74	1
75	1
76	3
77	7
78	0
79	0
80	8
81	1
86	0
87	1
88	3
89	0
90	5
91	2
92	30
93	20
94	6
95	2
96	104
97	3
98	5
100	0
102	0
104	7
105	2
106	15
107	1
108	3
109	4
110	1
118	1
119	2
120	54
121	188
122	23
123	4
124	3
125	3
126	1
127	1
131	0
132	4
133	0
134	4
135	2
136	52
137	10
138	54
139	12
140	3
141	2
147	0
148	1
149	4
150	10
151	1
152	1
153	1
154	2
155	5
156	1
157	2
163	1
164	1
165	12
166	10
167	16
168	2
169	4
170	0
171	10
172	1
173	5
177	1
178	1
180	1
182	10
183	4
184	3
185	117
186	8
187	1
188	4
189	0
197	5
198	7
199	9
200	15
201	2
202	0
213	308
214	33
215	4
216	41
217	54
218	6
219	3
224	2
226	4
227	1
228	3
229	0
230	1
231	0
232	9
233	0
237	3
238	0
242	2
243	1
244	34
245	45
246	6
247	2
252	0
253	1
254	0
255	130
256	19
257	2
258	4
259	0
260	1
270	0
286	22
287	8
288	2
289	0
300	0
302	8
303	1
312	3
345	69
346	12
347	4
348	0
