Mass Spectrum: Thiochromone, 2,3-dihydro-6-chloro-3-(1-oxido-2-pyridylthio)-
Formula: C14H10ClNO2S2
CAS: 253122-75-7
Molecular weight: 323
m/z	intensity
33	5
34	4
35	1
36	8
37	8
38	19
39	93
40	57
41	22
42	9
43	21
44	32
45	65
46	7
47	5
48	4
49	7
50	36
51	92
52	48
53	20
54	10
55	52
56	9
57	40
58	29
59	20
60	14
61	12
62	27
63	68
64	10
65	7
67	195
68	13
69	86
70	29
71	25
72	10
73	21
74	26
75	41
76	11
77	20
78	182
79	155
80	60
81	21
82	30
83	61
84	25
85	17
86	7
87	12
89	64
90	16
91	9
92	10
93	18
94	6
95	23
96	12
97	16
98	10
99	21
100	7
101	11
102	7
103	8
104	6
105	10
106	15
107	66
108	47
109	17
110	75
111	999
112	112
113	55
114	7
115	4
116	3
117	5
118	4
119	5
120	7
121	14
122	8
123	18
124	14
125	31
127	639
128	49
129	34
130	4
131	6
132	17
133	58
134	143
135	28
136	142
137	20
138	15
139	8
140	6
142	121
143	38
144	43
145	16
146	4
147	3
148	0
149	28
150	15
151	6
152	6
153	3
154	6
155	24
156	4
157	10
158	2
159	3
160	1
161	3
162	6
163	4
164	3
165	6
166	4
167	8
168	70
169	23
170	169
171	31
172	51
173	9
174	5
175	1
176	0
177	1
178	2
179	2
180	1
181	6
182	1
183	9
184	20
185	15
186	8
187	7
188	1
189	2
191	3
193	0
194	5
196	78
197	412
198	112
199	162
200	35
201	10
202	4
203	2
205	2
207	1
209	2
210	1
211	5
212	13
213	6
214	7
215	3
216	3
217	1
219	1
220	5
221	2
222	1
223	1
227	2
228	5
229	5
230	3
232	4
233	4
234	1
237	1
239	0
240	1
241	5
242	5
243	0
244	7
245	3
246	6
247	2
248	3
260	1
261	2
262	4
263	1
264	1
265	0
270	1
271	1
272	5
273	6
274	12
275	9
276	74
277	31
278	33
279	12
280	4
281	1
288	1
294	0
303	0
305	26
306	99
307	29
308	38
309	8
310	4
