Mass Spectrum: Carbamic acid, N-[1-(3-acetylaminophenyl)ethylidenamino]-, ethyl ester
Formula: C13H17N3O3
CAS: 253122-74-6
Molecular weight: 263
m/z	intensity
33	3
34	4
36	2
37	5
38	24
39	107
40	52
41	62
42	149
43	999
44	95
45	60
46	19
47	2
49	1
50	28
51	61
52	56
53	38
54	24
55	18
56	13
57	28
58	5
59	21
60	8
61	6
62	20
63	89
64	85
65	206
66	39
67	18
68	12
69	15
70	6
71	8
72	1
73	6
74	9
75	19
76	32
77	119
78	58
79	64
80	139
81	30
82	14
83	18
84	5
85	5
86	2
87	6
88	8
89	55
90	95
91	261
92	185
93	100
94	48
95	10
96	5
97	5
98	2
99	3
100	1
101	17
102	26
103	95
104	94
105	81
106	83
107	349
108	254
109	27
110	3
111	6
112	2
113	2
114	3
115	7
116	32
117	85
118	279
119	774
120	295
121	112
122	16
123	3
125	2
127	0
128	2
129	8
130	13
131	185
132	247
133	185
134	255
135	64
136	12
137	5
138	2
140	0
141	1
142	2
143	6
144	10
145	29
146	53
147	125
148	664
149	143
150	21
151	4
152	1
154	0
155	1
156	3
157	14
158	19
159	49
160	59
161	155
162	39
163	12
164	3
169	1
170	2
171	8
172	186
173	62
174	242
175	781
176	255
177	67
178	17
179	7
180	5
181	0
183	1
185	2
186	3
187	5
188	14
189	45
190	576
191	99
192	16
193	4
199	2
200	18
201	5
202	35
203	19
204	70
205	96
206	21
207	4
208	1
216	38
217	148
218	103
220	371
221	74
222	9
223	1
230	0
231	1
234	41
235	6
236	0
244	1
245	3
246	24
247	7
248	58
249	8
250	1
253	0
259	2
260	2
262	439
263	369
264	56
265	7
266	0
