Mass Spectrum: Pyramat
Formula: C11H17N3O2
CAS: 2532-49-2
Molecular weight: 223
m/z	intensity
39	49
41	78
42	93
43	49
54	29
55	24
56	24
66	39
67	24
68	29
70	24
72	999
73	49
124	39
138	39
151	221
152	34
153	49
164	44
179	29
180	24
195	197
196	32
208	36
222	4
223	19
224	4
