Mass Spectrum: Cholestan-3-one, cyclic 1,2-ethanediyl aetal, (5.beta.)-
Formula: C29H50O2
CAS: 25328-53-4
Molecular weight: 430
m/z	intensity
40	60
41	220
42	80
43	270
44	90
45	40
46	10
50	10
51	20
52	10
53	40
54	20
55	270
56	70
57	230
58	20
59	10
60	20
61	10
63	10
64	10
65	20
66	10
67	90
68	30
69	150
70	50
71	130
72	10
73	40
74	10
75	10
76	10
77	40
78	20
79	60
80	20
81	130
82	30
83	110
84	30
85	80
86	50
87	20
89	10
91	100
92	20
93	70
94	30
95	120
96	40
97	90
98	20
99	999
100	120
101	20
102	10
103	10
104	10
105	60
106	20
107	60
108	50
109	80
110	30
111	60
112	120
113	30
114	10
115	20
116	10
117	20
118	10
119	40
120	20
121	40
122	40
123	50
124	20
125	500
126	60
127	30
128	20
129	20
130	10
131	20
132	10
133	40
134	20
135	50
136	20
137	30
138	10
139	20
140	10
141	20
142	10
143	20
144	10
145	30
146	20
147	30
148	10
149	60
150	10
151	20
152	20
153	20
154	20
155	20
156	10
157	20
158	10
159	30
160	10
161	30
162	10
163	30
164	10
165	30
166	10
167	30
168	20
169	20
170	10
171	10
172	10
173	20
174	10
175	20
176	10
177	20
178	10
179	20
180	20
181	20
182	20
183	20
184	10
185	10
187	10
189	20
190	10
191	20
192	10
193	20
194	30
195	20
196	10
197	10
198	10
199	10
200	10
201	10
202	10
203	20
204	10
205	10
206	10
207	30
208	20
209	30
210	10
211	10
212	10
213	10
214	10
215	10
216	10
217	10
218	20
219	10
220	10
221	10
222	10
223	10
224	10
225	10
226	10
227	10
228	10
229	10
230	10
231	10
232	20
233	20
234	10
235	20
236	10
237	20
238	10
239	10
240	10
241	10
243	10
245	10
246	10
247	10
248	10
249	10
250	10
251	10
252	10
253	20
254	10
255	10
256	10
257	10
259	10
261	10
262	10
263	20
264	10
265	10
266	10
267	10
275	10
279	10
280	10
281	20
282	30
283	10
295	10
301	10
307	10
309	10
310	10
311	10
312	10
315	10
316	10
317	10
322	10
323	10
325	10
326	10
327	10
331	10
337	10
338	10
339	10
340	60
341	20
342	10
343	10
352	10
353	10
354	10
355	10
368	10
369	10
370	10
373	10
384	40
385	10
405	10
415	10
430	90
431	30
432	10
