Mass Spectrum: Trichloroacetamidoxime
Formula: C2H3Cl3N2O
CAS: 2533-67-7
Molecular weight: 176
m/z	intensity
41	13
42	21
43	29
44	26
45	162
47	85
48	169
49	371
50	51
51	33
52	1
53	5
54	2
55	2
56	5
57	0
58	1
59	15
60	4
61	1
62	15
63	139
64	1
65	57
66	3
67	0
68	0
70	8
72	5
73	1
74	3
75	1
76	1
77	0
78	1
80	2
82	999
83	397
84	688
85	167
86	109
87	67
88	2
89	0
90	1
94	1
98	6
99	164
101	113
103	18
104	12
105	5
106	3
108	0
110	26
112	16
114	4
117	210
118	1
119	202
120	1
121	61
122	5
123	10
175	0
176	18
177	6
178	18
179	4
180	5
181	0
