Mass Spectrum: Isocalamenediol
Formula: C15H26O2
CAS: 25330-21-6
Molecular weight: 238
m/z	intensity
27	56
28	9
29	65
30	2
31	12
38	3
39	129
40	32
41	452
42	42
43	999
44	28
45	47
50	4
51	28
52	17
53	164
54	34
55	810
56	60
57	126
58	143
59	57
60	4
61	6
63	9
64	4
65	73
66	27
67	189
68	58
69	576
70	71
71	672
72	35
73	10
74	1
75	2
76	2
77	206
78	47
79	320
80	113
81	449
82	85
83	531
84	56
85	156
86	18
87	13
88	1
89	6
90	6
91	312
92	55
93	240
94	59
95	408
96	56
97	215
98	60
99	57
100	74
101	16
102	6
103	24
104	14
105	178
106	28
107	283
108	75
109	560
110	178
111	922
112	93
113	366
114	29
115	30
116	11
117	41
118	15
119	82
120	25
121	224
122	97
123	140
124	32
125	114
126	31
127	112
128	139
129	27
130	8
131	65
132	17
133	27
134	16
135	66
136	25
137	180
138	32
139	54
140	40
141	28
142	12
144	7
145	32
146	8
147	118
148	14
149	70
150	32
151	28
152	47
153	231
154	23
155	566
156	55
157	15
158	5
159	63
160	13
161	15
162	18
163	51
164	12
165	357
166	44
167	78
168	83
169	12
170	39
175	2
176	2
177	148
178	34
179	8
180	18
182	12
183	78
184	8
185	1
187	31
188	5
191	5
192	20
193	4
195	25
196	29
197	3
202	6
203	6
205	95
206	13
207	2
220	46
221	39
222	7
223	782
224	113
225	11
238	23
239	5
