Mass Spectrum: Tetrabutoxymethane
Formula: C17H36O4
CAS: 25335-30-2
Molecular weight: 304
m/z	intensity
15	2
18	1
19	1
26	3
27	40
28	29
29	177
30	5
31	33
32	1
33	2
38	1
39	23
40	5
41	246
42	23
43	44
44	8
45	9
51	1
53	4
54	4
55	68
56	151
57	999
58	44
59	2
63	522
64	6
65	3
69	2
70	1
71	4
72	2
73	24
74	1
75	2
76	3
77	2
79	2
81	1
83	1
85	2
87	3
88	1
89	6
90	6
91	4
95	1
97	1
101	1
103	3
117	1
118	10
119	420
120	23
121	3
133	1
135	2
147	1
175	165
176	16
177	2
231	396
232	57
233	6
