Mass Spectrum: 2-Tridecylfuran
Formula: C17H30O
CAS: 25346-22-9
Molecular weight: 250
m/z	intensity
27	12
29	33
31	4
39	49
40	8
41	194
42	16
43	213
45	14
51	10
52	12
53	128
54	19
55	123
56	23
57	84
65	27
66	26
67	93
68	64
69	63
70	18
71	25
72	20
73	51
75	39
77	41
78	18
79	39
80	43
81	999
82	460
83	99
84	39
85	21
87	11
92	12
93	39
94	148
95	628
96	119
97	72
98	18
103	16
104	17
105	27
106	6
107	48
108	21
109	82
110	19
111	33
113	7
114	7
115	10
116	9
119	27
120	29
122	38
123	227
124	100
125	18
126	10
128	18
131	19
132	10
133	23
134	12
135	28
137	91
138	33
139	17
151	81
152	10
165	14
166	9
179	10
207	37
209	8
221	10
235	6
250	156
251	25
252	6
