Mass Spectrum: Acetamide, N-(2-hydroxy-4-nitrophenyl)-
Formula: C8H8N2O4
CAS: 25351-89-7
Molecular weight: 196
m/z	intensity
28	50
29	36
30	85
39	38
42	63
43	999
50	80
51	143
52	164
53	147
62	25
63	46
64	8
67	10
76	15
77	18
78	54
79	70
80	128
81	8
90	5
96	29
106	4
107	20
108	61
124	118
125	7
137	7
138	10
154	260
155	18
156	1
196	30
197	3
