Mass Spectrum: Bicyclo[3.2.1]octane-2,3,4-trione
Formula: C8H8O3
CAS: 25352-00-5
Molecular weight: 152
m/z	intensity
25	4
26	32
27	209
29	3
31	5
33	4
34	4
36	0
37	17
38	39
39	192
40	26
41	72
42	26
47	0
48	1
49	4
50	14
51	14
52	8
53	75
54	5
55	999
56	31
61	4
62	6
63	8
64	1
65	20
66	17
67	275
68	278
69	12
74	0
76	0
78	6
96	235
97	8
124	108
125	4
152	42
153	2
