Mass Spectrum: 2-Nonanone, 9-hydroxy-
Formula: C9H18O2
CAS: 25368-56-3
Molecular weight: 158
m/z	intensity
41	360
42	90
43	999
44	40
45	10
53	10
54	30
55	450
56	60
57	40
58	850
59	660
60	10
67	70
68	10
69	60
70	10
71	190
72	10
81	20
82	170
83	80
85	10
97	10
