Mass Spectrum: Bis(3-methylbutyl) fluorene-2,7-disulfonate
Formula: C23H30O6S2
CAS: 253664-95-8
Molecular weight: 466
m/z	intensity
37	119
38	242
39	999
40	207
41	835
42	321
43	328
44	18
45	7
46	1
48	38
50	160
51	153
52	73
53	229
55	837
56	63
57	88
58	5
59	3
60	4
61	7
62	18
63	32
64	15
65	42
66	11
67	64
69	146
70	245
71	38
72	3
73	2
74	5
75	6
77	28
78	7
79	19
81	29
82	11
83	41
84	13
85	5
86	3
87	4
88	2
89	5
91	28
93	12
95	12
96	6
97	15
98	6
99	2
101	1
102	2
103	3
104	1
105	9
106	3
107	7
108	3
109	6
110	2
111	8
112	2
113	2
115	4
116	1
117	3
119	5
121	9
122	3
123	7
124	1
125	2
126	5
127	2
128	2
129	2
133	2
134	1
135	3
136	2
137	4
138	2
139	4
140	4
147	1
149	2
150	5
151	9
152	22
153	5
154	2
161	2
163	38
164	20
165	15
166	3
178	1
179	2
180	3
181	4
245	13
246	3
261	3
326	2
