Mass Spectrum: Pyridine 1-oxide, 2,6-dibromo-
Formula: C5H3Br2NO
CAS: 25373-69-7
Molecular weight: 251
m/z	intensity
36	8
37	85
38	157
39	192
40	17
41	5
42	3
43	5
44	10
48	7
49	40
50	166
51	78
52	21
53	5
54	1
55	4
56	2
57	5
60	7
61	54
62	128
63	236
64	140
65	117
66	9
67	8
68	2
69	1
70	3
71	6
72	5
73	6
74	6
75	53
76	164
77	53
79	50
81	46
82	8
83	2
84	2
85	1
91	8
93	999
95	130
96	1
97	1
100	1
104	13
105	9
106	19
107	15
108	7
109	7
112	2
115	2
116	17
117	73
118	28
119	67
120	13
121	1
122	1
125	15
126	31
127	16
129	13
130	5
131	13
132	4
133	3
140	2
141	19
142	19
143	23
144	218
146	225
147	11
148	19
149	1
154	1
156	98
158	97
159	5
171	5
172	3
173	6
174	2
175	3
195	4
197	6
198	1
199	3
207	1
209	1
221	7
223	12
224	1
225	5
235	8
237	17
239	10
248	2
249	3
251	233
253	475
254	31
255	216
256	12
