Mass Spectrum: 4-Trifluoromethylbenzoic acid, dodecyl ester
Formula: C20H29F3O2
CAS: 253882-70-1
Molecular weight: 358
m/z	intensity
25	8
26	32
27	274
28	38
29	549
30	13
31	18
36	12
37	12
38	15
39	175
40	45
41	965
42	335
43	999
44	72
45	9
50	52
51	34
53	49
54	165
55	883
56	661
57	582
58	29
62	8
63	8
65	8
66	19
67	125
68	211
69	582
70	519
71	165
75	52
76	13
77	13
79	13
80	7
81	61
82	203
83	539
84	334
85	99
86	8
91	8
93	8
94	8
95	72
96	92
97	338
98	159
99	19
110	23
111	143
112	86
113	7
125	79
126	41
127	25
138	8
139	25
140	99
141	8
143	11
144	11
145	352
146	33
167	7
168	158
169	15
171	8
172	15
173	659
174	55
175	8
190	22
191	283
192	32
339	3
340	1
