Mass Spectrum: Benzeneacetamide, N-(aminocarbonyl)-.alpha.-chloro-
Formula: C9H9ClN2O2
CAS: 25395-28-2
Molecular weight: 212
m/z	intensity
14	4
16	47
26	31
27	39
28	8
29	61
35	10
36	45
37	15
38	82
39	172
40	30
41	48
42	56
43	189
44	999
45	38
49	3
50	86
51	129
52	43
53	9
55	43
56	13
57	80
61	34
62	87
63	197
64	65
65	69
69	20
70	24
71	46
73	33
76	27
77	103
78	30
79	62
83	11
85	27
86	5
87	91
88	6
89	305
90	232
91	777
92	88
97	3
99	52
101	9
104	28
105	27
106	54
107	22
118	105
119	7
124	2
125	337
126	470
127	144
128	152
129	14
152	32
154	2
163	12
169	62
171	17
176	2
212	131
213	9
214	47
