Mass Spectrum: 1-(2-Hydroxy-3-phenoxypropyl)-3-phenylurea
Formula: C16H18N2O3
CAS: 25409-58-9
Molecular weight: 286
m/z	intensity
15	3
17	1
18	7
26	3
27	13
28	29
29	17
30	333
31	12
37	10
38	24
39	73
40	16
41	18
42	33
43	20
44	19
45	6
46	4
47	1
49	3
50	26
51	77
52	18
53	5
54	9
55	12
56	141
57	15
58	9
59	8
60	158
61	9
62	12
63	43
64	79
65	118
66	107
67	11
68	2
69	1
70	4
71	4
72	8
73	6
74	56
75	8
76	10
77	243
78	41
79	35
80	3
81	1
82	5
83	1
86	18
87	2
88	1
89	2
90	9
91	173
92	89
93	999
94	510
95	68
96	4
97	1
99	8
100	11
103	2
104	3
105	14
106	21
107	89
108	47
109	4
110	1
115	1
117	1
118	4
119	385
120	67
121	8
122	1
123	91
124	7
130	2
131	4
132	10
133	19
134	3
135	5
136	12
137	6
143	6
147	5
148	21
149	51
150	22
151	2
158	1
161	1
162	1
163	1
164	1
167	19
168	3
173	2
174	19
175	207
176	23
177	3
178	5
179	179
180	24
181	2
191	3
192	2
193	301
194	35
195	3
268	149
269	27
270	3
285	1
286	22
287	4
