Mass Spectrum: 2-Oxazolamine, 4,5-dihydro-5-(phenoxymethyl)-N-phenyl-
Formula: C16H16N2O2
CAS: 25409-59-0
Molecular weight: 268
m/z	intensity
26	23
27	100
28	150
29	124
30	395
31	21
39	155
40	42
41	227
42	62
43	259
44	83
45	119
46	3
50	32
51	157
52	31
53	24
54	65
55	277
56	999
57	304
58	30
59	15
60	60
61	24
62	13
63	34
64	42
65	200
66	55
67	89
68	66
69	212
70	92
71	161
72	24
73	78
74	18
75	19
76	22
77	522
78	81
79	81
80	44
81	95
82	162
83	161
84	89
85	88
86	10
87	22
89	5
90	13
91	145
92	176
93	224
94	118
95	91
96	83
97	150
98	75
99	41
100	13
101	24
102	15
103	28
104	261
105	116
106	57
107	101
108	29
109	55
110	48
111	90
112	30
113	27
114	16
115	29
116	18
117	34
118	80
119	503
120	153
121	40
122	17
123	38
124	31
125	41
126	15
127	25
128	13
129	40
130	24
131	317
132	174
133	224
134	62
135	37
136	13
137	34
138	29
139	31
140	13
141	22
142	4
143	15
144	11
145	39
146	29
147	113
148	38
149	27
150	6
151	18
152	30
153	19
154	14
155	13
157	19
158	13
159	16
160	243
161	222
162	34
163	12
164	6
165	14
166	20
167	18
168	16
169	10
171	16
172	10
173	92
174	82
175	303
176	37
177	11
178	3
179	18
180	15
181	13
182	3
183	12
184	4
185	50
186	11
187	13
188	32
189	15
190	12
191	10
192	10
193	13
194	18
195	14
196	9
197	11
199	12
201	13
203	50
204	12
205	4
207	13
208	13
209	12
210	4
211	12
213	14
217	3
218	3
219	9
220	4
221	3
222	13
223	11
225	11
227	12
228	4
229	17
234	4
235	4
236	34
237	18
238	4
239	14
241	9
247	5
250	12
252	3
255	20
256	24
257	29
258	8
260	9
262	3
264	13
265	10
266	8
267	139
268	819
269	168
270	23
