Mass Spectrum: Ethyl 2-acetoxy-2-methylacetoacetate
Formula: C9H14O5
CAS: 25409-39-6
Molecular weight: 202
m/z	intensity
14	4
15	44
16	1
26	8
27	42
28	20
29	68
30	2
31	8
39	4
40	1
41	7
42	23
43	999
44	52
45	38
46	1
47	7
51	1
53	3
54	2
55	14
56	7
57	2
59	10
60	18
61	31
62	1
69	4
70	8
71	2
72	18
73	10
74	3
75	1
83	8
85	1
86	11
87	42
88	38
89	89
90	288
91	10
92	2
97	3
98	4
99	3
100	1
101	1
102	2
104	4
113	1
114	19
115	6
116	3
117	48
118	872
119	49
120	6
127	1
129	59
130	5
131	2
146	1
157	42
158	3
159	18
160	247
161	20
162	3
