Mass Spectrum: Phenol, 4-tetradecyl-
Formula: C20H34O
CAS: 25401-89-2
Molecular weight: 290
m/z	intensity
41	52
42	8
43	74
44	2
49	2
51	3
52	1
53	6
54	2
55	29
56	5
57	22
58	0
63	1
65	5
66	1
67	4
68	1
69	8
70	2
71	5
77	32
78	10
79	6
80	0
81	3
82	1
83	3
84	2
85	2
86	0
89	0
91	11
92	1
93	2
94	12
95	3
96	2
97	2
103	6
105	5
107	999
108	106
109	8
110	0
114	0
115	4
116	0
117	0
119	3
120	37
121	12
122	2
131	1
133	19
134	4
135	2
141	1
142	7
143	2
144	1
147	1
148	1
149	2
156	1
168	17
169	2
170	10
171	2
176	0
181	2
184	2
185	3
186	1
190	0
196	1
198	1
204	1
262	2
263	0
289	2
290	768
291	157
292	18
293	2
