Mass Spectrum: Phenol, 2-hexadecyl-
Formula: C22H38O
CAS: 25401-86-9
Molecular weight: 318
m/z	intensity
27	5
28	2
29	14
39	6
40	1
41	31
42	4
43	49
44	2
51	2
52	1
53	3
54	2
55	27
56	6
57	38
58	2
65	3
66	1
67	5
68	2
69	13
70	4
71	19
72	1
77	24
78	5
79	24
80	4
81	6
82	8
83	9
84	2
85	10
90	1
91	9
92	3
93	3
94	73
95	14
96	22
97	8
98	2
99	3
103	4
104	3
105	4
106	2
107	999
108	260
109	38
110	5
111	5
112	1
113	1
115	2
117	2
118	1
119	5
120	26
121	29
122	26
123	4
124	2
125	2
127	1
131	2
132	1
133	9
134	4
135	11
136	5
137	2
138	1
139	1
141	1
145	1
147	2
148	1
149	13
150	8
151	1
152	1
159	1
163	7
164	2
173	1
177	2
178	1
191	1
192	1
205	1
236	1
290	2
316	1
317	1
318	498
319	119
320	13
321	1
