Mass Spectrum: 1,3,5-Triazine, 2-dimethylamino-4,6-bis(nonafluoro-tert-butyl)-
Formula: C13H6F18N4
CAS: 254118-18-8
Molecular weight: 560
m/z	intensity
33	7
34	1
39	2
40	40
41	97
42	367
43	239
44	863
45	24
46	11
50	7
51	1
53	114
54	19
55	313
56	17
57	3
58	0
60	7
66	2
67	21
69	999
70	108
71	11
72	4
75	0
76	2
78	5
80	27
81	14
82	3
83	0
85	0
86	0
88	2
89	2
90	2
91	27
93	10
94	4
95	12
96	228
97	11
98	0
100	4
101	0
102	1
105	22
106	0
107	7
108	3
112	10
114	15
115	6
116	3
117	2
119	0
120	1
121	1
122	2
123	0
126	1
127	0
129	0
131	5
133	1
134	1
136	0
138	78
139	10
140	2
141	0
143	1
145	0
150	7
152	1
155	2
157	29
158	73
159	4
162	2
164	1
165	0
169	0
171	2
172	7
173	0
176	2
177	5
178	0
179	0
180	0
181	15
182	4
183	68
184	18
185	0
188	0
190	26
191	3
192	2
196	2
197	0
198	0
200	5
202	5
203	45
204	3
205	2
207	0
208	0
212	0
217	12
218	0
224	1
225	0
226	43
227	3
228	0
230	0
236	1
238	0
246	127
247	9
250	1
253	5
259	2
260	3
262	1
266	3
267	0
271	31
272	18
273	1
280	4
283	2
286	0
296	7
297	1
300	0
302	0
309	0
326	2
328	0
333	13
334	1
338	0
340	0
352	5
353	0
378	2
381	0
382	0
383	8
384	1
390	0
402	9
403	1
407	1
421	40
422	5
423	2
426	0
437	10
438	1
440	6
441	0
443	4
452	5
453	2
457	7
458	0
462	5
463	0
471	142
472	30
473	2
476	1
490	23
491	41
492	5
505	1
511	0
525	7
526	1
531	127
532	20
533	1
541	421
542	67
543	5
545	424
546	73
547	3
559	134
560	587
561	83
562	5
