Mass Spectrum: 1,3,5-Triazine, 2-amino-4,6-bis(nonafluoro-tert-butyl)-
Formula: C11H2F18N4
CAS: 254118-15-5
Molecular weight: 532
m/z	intensity
34	1
36	0
38	0
39	1
40	16
41	15
42	508
43	10
44	2
46	12
47	1
50	8
51	1
52	0
53	9
54	1
55	0
57	0
58	0
61	0
62	0
66	5
67	17
68	494
69	999
70	15
71	3
72	1
73	0
74	1
76	5
77	1
78	0
81	2
83	0
86	1
88	6
89	3
90	1
91	43
92	7
93	26
94	2
95	3
96	0
98	1
100	9
101	0
103	1
104	0
107	7
108	2
111	11
112	10
113	2
114	12
115	2
116	0
119	1
120	1
121	6
122	2
123	0
124	0
126	3
127	0
128	0
131	7
133	0
134	0
135	0
136	0
138	60
139	3
141	14
142	0
143	0
146	0
148	0
150	12
151	0
152	1
153	1
155	0
157	60
158	88
159	5
160	1
162	1
166	0
168	3
169	0
171	1
172	0
176	7
177	5
178	1
179	0
180	1
181	19
183	36
184	2
186	1
188	0
190	1
191	22
192	1
198	3
199	0
200	2
202	4
203	2
207	1
208	0
217	3
218	9
219	0
226	21
227	1
228	0
233	0
236	6
237	0
244	0
245	2
246	82
247	5
248	0
260	1
264	0
267	0
268	9
269	1
270	0
271	96
272	7
283	0
286	40
287	3
288	0
312	0
313	6
314	1
326	2
333	3
334	0
375	1
383	0
394	0
417	5
418	0
421	6
422	0
425	1
436	4
437	0
444	11
445	1
463	0
490	21
491	2
505	1
513	272
514	35
515	2
530	0
532	418
533	55
534	3
