Mass Spectrum: 2-(4-Bromoanilino)-4,6-bis[2,2,2-trifluoro-1,1-bis(trifluoromethyl)ethyl]-1,3,5-triazine
Formula: C17H5BrF18N4
CAS: 254118-32-6
Molecular weight: 686
m/z	intensity
34	7
36	5
37	18
38	32
39	57
40	78
41	24
42	8
43	13
44	47
46	58
47	3
50	87
51	25
52	24
53	21
55	22
56	5
57	21
58	22
61	8
62	43
63	145
64	86
65	66
66	15
67	7
69	999
70	23
71	14
72	6
74	30
75	75
76	75
77	15
78	4
79	19
80	15
81	12
82	21
83	14
84	7
85	9
87	7
88	22
90	378
91	96
92	13
93	10
94	3
95	6
97	5
98	7
99	6
100	10
102	25
103	6
106	3
107	3
108	12
111	4
112	13
113	8
114	19
115	31
116	123
117	241
118	26
119	17
120	3
121	4
125	3
126	6
128	8
131	9
135	7
138	97
139	4
140	5
141	6
142	9
143	64
144	10
145	31
147	5
150	12
152	6
153	4
155	52
157	72
158	201
159	13
162	6
165	5
166	4
168	18
169	39
170	34
171	40
172	17
176	4
177	9
178	4
181	35
183	49
184	5
186	3
193	5
196	825
197	118
198	704
199	51
200	9
201	3
202	3
203	4
204	9
205	3
207	4
219	3
221	52
222	54
223	29
224	83
225	11
226	23
227	3
228	3
243	5
244	4
246	210
247	19
250	3
253	4
254	4
258	3
271	11
272	13
273	77
274	32
275	4
283	3
285	4
292	31
293	70
294	9
302	4
303	4
304	3
311	3
324	3
326	6
332	3
333	11
334	4
342	3
343	4
347	4
351	9
352	26
354	49
361	50
362	45
363	6
371	8
372	9
373	4
374	9
400	3
421	10
422	3
424	3
440	13
441	3
442	14
467	3
469	4
538	9
597	6
598	10
599	5
600	9
606	5
607	7
619	8
663	4
665	5
667	95
668	27
669	95
670	17
679	4
681	12
682	32
686	700
688	701
689	101
