Mass Spectrum: 2-Piperidino-4,6-bis[2,2,2-trifluoro-1,1-bis(trifluoromethyl)ethyl]-1,3,5-triazine
Formula: C16H10F18N4
CAS: 254118-24-6
Molecular weight: 600
m/z	intensity
33	6
39	171
40	51
41	551
42	322
43	77
44	9
46	25
50	7
51	9
53	392
54	236
55	863
56	307
57	57
58	3
65	26
66	35
67	268
68	241
69	999
70	51
71	9
72	9
76	3
77	3
78	19
79	29
80	127
81	221
82	121
83	158
84	429
85	22
90	4
91	38
92	62
93	34
94	27
95	14
96	4
100	4
104	5
105	8
106	14
107	39
108	31
109	69
110	14
112	11
113	4
114	12
115	8
116	2
117	5
118	2
119	3
120	7
126	2
131	4
132	3
133	4
134	19
135	9
136	97
138	103
139	5
150	7
152	2
155	3
157	31
158	100
159	7
164	2
171	3
176	2
177	8
178	2
179	2
181	18
183	79
184	17
188	3
190	9
200	7
201	5
202	7
203	46
204	5
206	2
217	3
218	5
223	2
224	12
226	33
227	2
230	3
232	4
236	3
237	2
238	8
243	2
244	5
246	91
247	6
253	4
256	6
257	3
258	2
259	5
260	2
264	2
268	4
269	2
271	49
272	31
273	2
280	5
286	17
287	3
312	9
326	18
327	3
333	2
334	2
336	7
352	2
353	3
381	3
395	2
401	2
403	3
407	3
421	15
422	4
423	10
424	2
425	4
437	10
438	2
440	2
442	2
443	2
445	9
456	5
457	10
463	4
469	8
470	2
471	5
482	3
483	22
484	4
488	5
489	10
490	8
491	26
492	4
497	4
503	4
504	2
505	2
506	4
507	5
509	12
511	269
512	30
513	3
527	2
528	2
529	4
531	85
532	10
533	4
543	2
545	23
546	2
556	2
557	2
558	6
559	24
560	3
568	2
569	2
571	62
572	9
577	3
578	3
581	110
582	16
583	6
585	73
586	9
595	4
596	4
597	9
599	65
600	153
601	19
602	2
