Mass Spectrum: 1-Propanamine, N-ethyl-N-nitroso-
Formula: C5H12N2O
CAS: 25413-61-0
Molecular weight: 116
m/z	intensity
30	394
31	18
32	550
37	18
38	27
39	210
40	64
41	486
42	999
43	495
44	321
45	27
51	9
52	27
53	9
54	73
55	45
56	843
57	733
58	366
59	36
67	9
68	18
69	9
70	293
71	55
72	36
73	45
74	18
75	9
82	9
83	9
84	27
85	55
86	36
87	330
88	36
99	64
100	36
101	36
116	880
117	64
