Mass Spectrum: 2,5-Pyrrolidinedione, 1-(phenylsulfonyl)-
Formula: C10H9NO4S
CAS: 25417-45-2
Molecular weight: 239
m/z	intensity
15	0
16	0
26	19
27	40
28	92
29	4
30	0
37	1
38	6
39	18
40	4
41	3
42	19
43	2
44	2
45	4
46	2
48	6
49	3
50	76
51	252
52	16
53	8
54	13
55	42
56	81
57	4
58	1
59	0
60	0
61	1
62	4
63	10
64	10
65	22
66	4
67	0
68	0
69	8
70	116
71	5
72	1
73	4
74	33
75	24
77	999
78	70
79	4
80	1
81	3
82	18
83	1
84	0
85	0
90	10
91	23
92	12
93	28
94	90
95	6
96	2
97	16
98	7
99	1
100	0
101	1
102	1
103	5
104	67
105	30
106	9
107	1
108	2
109	3
110	0
117	0
118	10
119	110
120	22
121	2
125	14
126	1
127	0
128	0
130	9
131	5
132	2
133	1
134	0
141	129
142	8
143	6
144	0
146	15
147	42
148	4
153	0
157	0
174	15
175	158
176	16
177	1
183	4
184	4
185	0
186	0
222	0
223	0
240	2
241	0
242	0
