Mass Spectrum: 2-(Hexahydroazepin-1-yl)-4,6-bis[2,2,2-trifluoro-1,1-bis(trifluoromethyl)ethyl]-1,3,5-triazine
Formula: C17H12F18N4
CAS: 254118-25-7
Molecular weight: 614
m/z	intensity
33	3
34	2
38	6
39	160
40	114
41	679
42	477
43	113
44	47
45	3
46	17
47	1
50	11
51	9
52	9
53	182
54	132
55	645
56	299
57	118
58	7
59	1
63	1
64	1
65	18
66	26
67	165
68	286
69	999
70	117
71	80
72	8
76	2
77	11
78	44
79	53
80	86
81	303
82	150
83	138
84	151
85	10
87	2
88	1
89	1
90	2
91	36
92	11
93	44
94	52
95	44
96	47
97	19
98	67
99	5
100	5
102	2
104	6
105	6
106	15
107	17
108	24
109	7
110	1
112	11
113	3
114	16
115	6
116	3
117	7
118	5
119	5
120	18
121	15
122	9
123	23
124	4
126	2
131	8
133	2
134	3
135	1
138	134
139	8
140	1
143	1
145	1
148	2
149	2
150	68
151	5
152	2
155	1
157	27
158	150
159	9
162	1
164	2
171	5
174	1
175	1
176	1
177	10
178	2
179	1
180	3
181	25
183	101
184	19
185	1
188	3
190	24
191	2
192	2
197	2
200	6
202	9
203	41
204	10
205	1
206	1
207	1
217	3
218	2
223	3
224	41
225	4
226	43
227	2
230	3
236	2
238	5
239	1
243	1
244	8
246	89
247	5
250	2
252	1
253	9
257	2
259	12
260	3
263	1
268	5
271	54
272	21
273	2
280	7
282	1
300	4
312	13
313	2
326	17
327	2
333	1
338	1
339	1
340	2
350	2
353	2
381	4
383	2
395	2
407	2
421	10
422	1
425	2
437	17
438	2
445	7
451	2
456	2
457	18
458	2
463	1
469	16
470	3
471	45
472	5
476	1
477	2
482	1
483	18
484	2
489	28
490	13
491	13
492	1
495	3
496	1
497	17
498	3
502	1
503	3
505	7
509	2
511	2
517	4
523	1
525	235
526	41
527	3
531	3
532	1
533	12
544	4
545	225
546	38
547	4
557	3
558	6
559	68
560	14
571	63
572	14
573	7
585	31
586	10
595	93
596	17
597	3
599	69
600	11
613	8
614	91
615	16
616	1
