Mass Spectrum: 2-Anilino-4,6-bis[2,2,2-trifluoro-1,1-bis(trifluoromethyl)ethyl]-1,3,5-triazine
Formula: C17H6F18N4
CAS: 254118-27-9
Molecular weight: 608
m/z	intensity
37	4
38	10
39	50
40	9
41	9
42	3
43	3
44	2
46	25
49	1
50	25
51	67
52	14
53	6
54	1
55	3
56	2
57	5
58	2
59	2
61	3
63	36
64	37
65	121
66	15
67	6
69	439
70	9
71	6
72	1
74	6
75	10
77	207
78	18
79	4
81	1
83	3
84	1
85	2
87	1
88	4
89	9
90	106
91	187
92	29
93	7
95	3
96	1
100	2
102	4
103	11
104	5
105	1
107	3
108	4
112	4
113	1
114	8
116	28
117	151
118	999
119	83
120	2
121	1
122	3
126	1
128	3
129	1
131	2
133	2
136	2
137	7
138	31
139	2
140	1
141	2
143	33
144	75
145	9
146	1
147	1
148	1
150	7
156	5
158	90
159	6
162	3
165	2
167	14
168	2
169	1
171	2
176	1
177	5
178	1
181	13
182	6
183	12
184	1
185	1
192	2
203	1
204	3
205	7
206	2
207	1
209	1
223	1
224	10
225	9
226	11
231	1
234	1
243	3
244	2
246	87
247	7
253	4
254	7
255	1
256	1
267	7
268	2
271	6
272	4
273	19
274	125
275	14
276	1
279	2
291	1
292	3
293	15
294	20
295	4
299	1
319	1
322	3
324	3
326	3
333	3
342	2
343	2
344	3
345	1
361	5
362	49
363	7
381	1
389	8
390	2
421	6
431	3
450	1
470	1
499	1
500	1
518	1
519	10
520	13
521	3
536	1
537	1
538	2
539	28
540	4
583	2
584	3
585	4
586	6
589	168
590	23
591	3
602	3
603	9
604	25
605	20
606	36
608	776
609	115
610	10
611	1
