Mass Spectrum: 2-Morpholino-4,6-bis[2,2,2-trifluoro-1,1-bis(trifluoromethyl)ethyl]-1,3,5-triazine
Formula: C15H8F18N4O
CAS: 254118-23-5
Molecular weight: 602
m/z	intensity
33	4
34	2
38	1
39	5
40	60
41	52
42	166
43	37
44	22
45	16
46	12
47	2
50	8
51	2
52	6
53	490
54	165
55	234
56	276
57	31
58	13
59	2
65	1
66	6
67	19
68	56
69	999
70	25
71	11
72	19
73	1
74	1
76	3
77	3
78	6
79	5
80	50
81	68
82	131
83	11
84	15
85	6
86	18
87	1
88	2
89	2
90	1
91	44
92	4
93	33
94	49
95	9
96	2
97	2
99	1
100	6
101	1
102	1
104	9
105	1
106	4
107	8
108	63
109	5
110	7
111	8
112	18
113	4
114	21
115	16
116	4
117	8
118	3
120	33
121	1
123	1
126	1
129	1
131	9
133	2
134	3
136	4
138	229
139	15
140	2
141	1
142	3
143	1
150	11
152	2
153	0
157	56
158	118
159	8
160	1
161	1
162	3
164	40
165	1
170	1
171	2
174	1
177	22
178	1
179	0
180	3
181	29
183	161
184	43
185	3
188	6
190	14
191	2
192	2
200	15
201	1
202	12
203	164
204	17
207	2
212	2
215	3
216	1
217	3
218	1
222	1
223	1
224	8
226	39
227	1
229	0
230	3
231	1
236	1
237	2
238	7
239	1
242	8
243	1
244	1
246	80
247	6
248	1
250	1
253	2
256	2
257	3
258	67
259	11
271	67
272	289
273	22
274	1
277	12
280	6
284	1
286	1
288	4
300	1
312	12
313	1
326	15
327	6
333	1
338	4
340	1
353	4
395	3
415	6
416	0
421	4
425	1
437	5
456	22
457	8
463	4
464	0
469	6
470	1
471	4
476	2
483	77
484	13
485	6
489	23
490	3
491	3
493	24
494	4
495	2
497	1
499	1
503	17
504	3
505	5
513	173
514	30
515	2
517	5
518	1
525	5
531	8
532	3
533	78
534	12
535	1
545	177
546	26
547	2
557	4
558	10
559	109
560	16
561	1
571	48
572	45
573	16
574	1
583	177
584	31
585	6
587	61
588	9
600	2
601	14
602	186
603	32
604	3
