Mass Spectrum: 2-(Allylamino)-4,6-bis[2,2,2-trifluoro-1,1-bis(trifluoromethyl)ethyl]-1,3,5-triazine
Formula: C14H6F18N4
CAS: 254118-19-9
Molecular weight: 572
m/z	intensity
33	1
34	1
36	1
37	3
38	13
39	187
40	53
41	374
42	55
43	10
44	5
46	23
47	1
50	10
51	4
52	16
53	136
54	213
55	419
56	528
57	19
58	0
59	2
64	1
65	2
66	8
67	32
68	47
69	999
70	16
71	9
72	4
73	1
74	1
76	4
77	3
78	6
79	52
80	154
81	588
82	200
83	9
84	1
85	1
86	0
88	4
89	4
91	75
92	4
93	33
94	3
95	4
96	1
98	1
100	11
101	1
102	1
103	1
104	3
105	1
106	32
107	20
108	338
109	25
111	1
112	19
113	4
114	18
115	10
116	5
117	1
119	4
120	2
121	4
122	1
123	1
126	3
127	1
128	1
129	1
130	2
131	19
132	1
133	4
134	2
135	1
136	1
138	237
139	14
140	1
141	2
143	2
145	1
146	1
148	0
150	24
151	1
152	2
153	0
157	45
158	299
159	18
160	2
162	2
163	0
164	3
165	1
168	2
169	3
170	1
171	2
172	0
174	4
176	2
177	18
178	10
179	1
181	38
183	115
184	22
185	1
186	1
187	0
188	16
189	6
190	6
191	5
192	2
195	0
196	0
197	1
198	3
199	0
200	9
201	0
202	8
203	42
204	4
205	1
207	1
210	1
211	1
215	1
216	3
217	3
218	16
219	2
222	1
223	2
224	14
225	1
226	47
227	2
228	1
229	1
230	1
231	2
232	6
236	14
237	7
238	55
239	5
241	1
242	2
243	4
244	1
245	2
246	125
247	9
248	1
250	1
253	0
256	3
257	5
258	11
259	1
263	2
264	2
265	1
268	1
271	50
272	17
273	1
275	0
280	3
283	1
286	3
291	0
292	2
306	1
308	1
310	2
311	3
312	127
313	12
324	0
325	2
326	22
327	5
333	2
338	1
345	1
353	50
354	5
375	1
395	7
396	0
413	1
415	1
437	1
456	6
457	1
463	9
464	1
469	3
476	0
483	63
484	9
503	10
504	1
531	0
545	6
546	0
553	27
554	4
557	3
571	2
572	29
573	4
