Mass Spectrum: 2-Butanone, 4-(dimethylamino)-
Formula: C6H13NO
CAS: 2543-57-9
Molecular weight: 115
m/z	intensity
26	0
27	0
29	28
30	94
39	3
40	6
41	14
42	136
43	135
44	29
56	15
57	27
58	999
59	22
71	5
72	38
115	26
