Mass Spectrum: Heptadecane, 9-(2-cyclohexylethyl)-
Formula: C25H50
CAS: 25446-35-9
Molecular weight: 350
m/z	intensity
36	1
37	4
38	7
39	113
40	25
41	794
42	136
43	956
44	61
45	2
46	1
47	1
49	1
50	4
51	7
52	5
53	5
54	96
55	999
56	196
57	824
58	39
59	2
60	1
61	1
62	1
63	2
64	1
65	8
66	10
67	166
68	67
69	411
70	137
71	447
72	30
73	1
74	1
75	1
76	1
77	8
78	3
79	20
80	14
81	119
82	124
83	735
84	90
85	301
86	20
87	1
91	7
92	3
93	6
94	4
95	45
96	176
97	494
98	58
99	75
100	6
101	1
102	1
103	1
104	1
105	2
106	1
107	2
108	3
109	32
110	24
111	216
112	35
113	42
114	4
115	1
116	1
117	1
118	1
119	2
120	1
121	2
122	1
123	7
124	8
125	107
126	19
127	28
128	3
129	1
130	1
131	1
132	1
133	1
134	1
135	1
136	1
137	5
138	9
139	56
140	13
141	25
142	3
143	1
145	1
146	1
147	1
148	1
149	1
150	1
151	3
152	6
153	35
154	15
155	23
156	3
157	1
159	1
160	1
161	1
162	1
163	1
164	1
165	2
166	3
167	22
168	5
169	11
170	2
171	1
179	1
180	2
181	15
182	3
183	7
184	1
185	1
193	1
194	3
195	7
196	2
197	3
198	1
205	1
206	1
207	1
208	7
209	4
210	4
211	1
221	1
222	3
223	5
224	2
225	1
226	1
233	1
234	1
235	1
236	119
237	157
238	73
239	44
240	7
241	1
247	1
248	1
249	1
250	3
251	3
252	2
253	1
254	1
264	1
265	1
266	1
267	1
279	1
280	1
281	1
282	1
293	1
294	1
295	1
308	1
322	1
346	1
348	1
349	1
350	1
