Mass Spectrum: Ergotaman-3',6',18-trione, 9,10-dihydro-12'-hydroxy-2',5'-bis(1-methylethyl)-, (5'.alpha.,10.alpha.)-
Formula: C31H41N5O5
CAS: 25447-65-8
Molecular weight: 563
m/z	intensity
50	30
51	30
52	20
53	50
54	50
55	390
56	140
57	270
59	340
60	80
69	260
70	999
71	820
72	120
73	80
74	210
75	30
76	30
77	50
81	80
82	70
83	180
84	50
85	90
86	10
91	250
92	60
93	30
94	50
95	70
96	50
97	110
98	160
99	50
102	50
105	30
107	30
109	40
110	60
111	90
112	40
113	50
115	50
121	30
122	30
123	40
124	20
125	110
126	60
127	100
128	30
129	40
130	20
135	20
136	70
137	40
138	40
139	50
140	30
141	50
144	190
145	30
150	30
151	40
152	60
153	140
154	570
155	150
156	40
157	30
163	20
165	20
166	30
167	210
168	110
169	50
170	20
177	10
178	10
179	20
180	40
181	60
182	80
183	40
184	20
191	10
192	20
193	30
194	50
195	440
196	190
197	130
198	30
205	20
206	20
207	30
208	40
209	100
210	40
211	20
221	20
222	20
223	180
224	200
225	210
226	40
233	10
251	60
252	40
253	10
254	10
266	50
267	20
268	40
269	640
270	120
271	20
294	50
295	10
