Mass Spectrum: Clamoxyquin
Formula: C17H24ClN3O
CAS: 2545-39-3
Molecular weight: 321
m/z	intensity
27	30
29	60
30	280
39	20
41	30
42	60
43	20
44	80
50	50
51	50
56	60
57	40
58	280
59	10
62	10
63	20
64	30
68	20
70	20
71	10
72	370
73	20
74	30
75	60
76	20
77	30
78	10
81	20
84	20
85	20
86	999
87	50
98	40
99	20
100	50
101	70
102	30
113	50
126	10
127	30
128	270
129	40
130	60
136	20
162	10
163	150
164	30
165	50
191	340
192	100
193	170
194	40
195	20
