Mass Spectrum: dl-Aspartic acid, N-acetyl-
Formula: C6H9NO5
CAS: 2545-40-6
Molecular weight: 175
m/z	intensity
14	38
15	209
24	1
25	4
26	32
27	77
28	128
29	28
30	8
31	5
37	2
38	6
39	11
40	38
41	67
42	159
43	999
44	55
45	18
46	2
51	2
52	3
53	4
54	4
55	9
56	4
57	8
58	2
59	2
60	11
67	1
68	6
69	3
70	20
71	7
72	5
73	1
74	4
84	5
85	217
86	13
87	3
88	19
89	1
96	1
97	1
98	1
99	6
100	1
102	1
111	2
112	3
113	3
114	3
115	1
116	7
117	1
128	1
129	1
130	14
131	1
139	2
140	2
157	2
158	8
159	1
160	1
