Mass Spectrum: 17.beta.-Acetoxy-5.alpha.-androstane-3,6-dione
Formula: C21H30O4
CAS: 25469-53-8
Molecular weight: 346
m/z	intensity
27	60
29	70
39	60
41	240
43	999
44	30
53	90
55	280
57	40
67	200
68	80
69	60
77	100
79	240
81	200
83	50
91	180
93	220
94	140
95	120
97	50
105	140
106	70
107	130
108	60
109	80
110	50
111	50
119	80
120	40
121	70
122	40
123	50
131	60
133	180
134	90
135	60
137	100
138	140
139	110
147	70
148	220
149	90
159	40
161	40
173	40
175	50
176	40
177	40
215	50
229	40
231	30
245	70
257	40
258	30
261	50
271	90
286	200
287	30
304	50
317	260
318	60
346	290
347	60
