Mass Spectrum: N-[2-Phenylethylamino]benzo-1,2,3-triazine
Formula: C15H14N4
CAS: 25465-47-8
Molecular weight: 250
m/z	intensity
41	94
42	28
43	9
44	4
49	11
50	228
51	435
52	135
53	58
54	10
55	24
59	2
61	9
62	51
63	198
64	129
65	393
66	47
67	9
73	2
74	48
75	156
76	272
77	999
78	228
79	509
80	33
82	4
84	14
86	5
87	7
88	13
89	96
90	174
91	904
92	140
93	23
96	4
97	15
99	4
100	2
101	12
102	617
103	517
104	609
105	719
106	62
110	21
111	12
115	8
116	23
117	556
118	758
119	309
120	147
121	11
127	3
128	12
129	23
130	133
131	167
132	18
139	5
140	5
141	1
143	5
144	4
145	264
146	40
147	1
151	6
152	11
153	3
154	3
159	16
164	3
165	44
166	21
167	77
168	21
169	3
177	7
178	26
179	15
180	16
181	8
190	5
191	8
192	50
193	319
194	87
195	25
196	2
203	4
204	26
205	20
206	32
207	30
208	5
218	3
219	28
220	29
221	237
222	75
223	12
232	1
248	3
249	7
250	125
251	34
252	17
