Mass Spectrum: Furo[2,3,4-gh]pyrrolizin-2(2aH)-one, hexahydro-, (2a.alpha.,7a.alpha.,7b.alpha.)-
Formula: C8H11NO2
CAS: 25471-69-6
Molecular weight: 153
m/z	intensity
26	42
27	166
28	221
29	66
39	175
40	53
41	281
42	188
53	66
54	52
55	118
67	40
68	55
69	69
80	81
81	58
82	999
83	62
106	58
107	21
108	37
125	50
133	29
152	342
153	343
154	29
