Mass Spectrum: Oxazole-4-carboxamide, N-methyl-5-phenyl-
Formula: C11H10N2O2
CAS: 254880-14-3
Molecular weight: 202
m/z	intensity
33	0
34	1
37	24
38	49
39	179
40	66
41	25
42	213
43	19
44	29
45	3
49	13
50	145
51	386
52	48
53	22
54	11
55	6
56	11
58	209
59	11
60	4
61	32
62	108
63	217
64	57
65	38
66	18
67	26
68	26
69	33
70	4
71	1
73	18
74	46
75	56
76	122
77	999
78	93
79	9
80	3
81	7
82	4
84	1
85	8
86	24
87	44
88	80
89	384
90	138
91	31
92	9
93	6
94	5
95	3
96	4
97	4
98	3
99	4
100	9
101	58
102	20
103	28
104	66
105	839
106	96
107	8
111	1
112	0
114	32
115	45
116	480
117	434
118	61
119	28
120	5
121	12
122	1
123	0
124	1
125	6
126	1
127	4
128	8
129	30
130	22
131	9
132	17
133	42
134	8
135	0
141	2
142	8
144	325
145	431
146	64
147	8
149	2
155	3
156	17
157	5
158	5
159	54
160	7
161	1
169	3
170	6
172	395
173	145
174	24
175	2
183	6
184	10
185	6
186	4
187	10
188	1
197	2
198	3
201	858
202	903
203	112
204	10
