Mass Spectrum: 2-Oxepanone, 4-methyl-
Formula: C7H12O2
CAS: 2549-60-2
Molecular weight: 128
m/z	intensity
26	32
27	262
28	188
29	183
30	8
31	20
37	5
38	14
39	183
40	45
41	527
42	296
43	175
44	17
45	9
50	12
51	18
52	8
53	47
54	31
55	599
56	999
57	74
58	7
59	7
60	3
65	4
66	3
67	39
68	17
69	685
70	114
71	28
73	7
74	22
79	6
80	3
81	30
82	28
83	79
84	36
85	7
87	8
95	5
97	15
98	165
99	21
100	12
101	4
109	3
110	3
111	3
128	83
129	12
