Mass Spectrum: 2-Oxepanone, 7-methyl-
Formula: C7H12O2
CAS: 2549-59-9
Molecular weight: 128
m/z	intensity
26	20
27	133
28	87
29	55
30	3
31	5
36	0
37	3
38	9
39	119
40	28
41	429
42	174
43	197
44	11
45	27
47	0
49	1
50	6
51	9
52	3
53	20
54	17
55	999
56	795
57	60
58	5
60	1
63	0
65	3
66	2
67	71
68	12
69	51
70	5
71	5
73	1
77	0
78	0
79	1
81	12
82	1
83	25
84	596
85	263
86	13
91	0
94	0
95	5
99	4
109	1
110	1
113	14
114	2
128	6
129	1
