Mass Spectrum: Cyclohexadecanone
Formula: C16H30O
CAS: 2550-52-9
Molecular weight: 238
m/z	intensity
25	0
26	7
27	205
28	22
29	420
30	8
31	9
37	2
38	2
39	150
40	38
41	999
42	242
43	524
44	12
45	9
46	1
47	1
48	3
49	0
50	1
51	6
52	5
53	77
54	117
55	935
56	206
57	195
58	861
59	379
60	14
61	1
62	0
63	2
64	1
65	12
66	17
67	180
68	172
69	337
70	150
71	884
72	76
73	11
74	0
75	0
76	0
77	11
78	11
79	52
80	112
81	187
82	258
83	242
84	197
85	111
86	16
87	2
90	0
91	5
92	3
93	40
94	90
95	144
96	246
97	189
98	224
99	39
100	32
101	3
105	2
106	2
107	33
108	54
109	69
110	95
111	119
112	39
113	33
114	21
115	2
119	0
120	1
121	52
122	35
123	31
124	55
125	120
126	19
127	28
128	7
129	0
133	0
134	1
135	57
136	26
137	18
138	43
139	23
140	5
141	8
142	16
143	2
147	0
148	0
149	38
150	13
151	9
152	18
153	10
154	3
155	8
156	17
157	2
163	15
164	10
165	4
166	3
167	5
168	5
169	4
170	10
171	1
177	8
178	23
179	3
180	43
181	11
182	2
183	7
184	1
191	6
192	3
193	1
194	2
195	11
196	6
197	4
203	2
204	1
205	5
206	1
207	1
208	0
209	8
210	2
216	0
220	33
221	5
222	0
223	9
224	1
236	1
238	121
239	19
240	1
