Mass Spectrum: Dicyclohexyldisulphide
Formula: C12H22S2
CAS: 2550-40-5
Molecular weight: 230
m/z	intensity
29	162
30	3
32	6
33	4
34	9
35	3
36	1
37	2
39	205
41	684
42	31
43	40
45	108
47	60
48	1
49	3
50	8
51	18
53	143
54	2
55	904
56	50
58	29
59	28
60	20
61	53
62	2
63	5
64	12
65	27
66	1
67	120
68	8
69	12
71	30
73	37
74	3
75	2
77	31
78	1
79	129
80	1
81	187
83	999
84	154
85	21
86	5
87	9
89	2
91	2
92	2
93	1
95	1
97	3
99	2
103	3
105	4
107	1
109	3
110	1
111	1
113	28
114	9
115	7
116	8
117	1
118	1
142	9
143	1
145	2
148	721
149	86
150	102
151	6
152	3
171	3
230	369
231	53
232	36
233	5
