Mass Spectrum: 4-[[3-[Dimethylamino]propyl]amino]-2-methylpyrimido[1,2-a]benzimidazole
Formula: C16H21N5
CAS: 25514-05-0
Molecular weight: 283
m/z	intensity
41	39
42	185
43	52
44	85
45	23
47	4
48	1
49	2
50	5
51	1
52	12
53	6
54	11
55	4
56	37
57	35
58	999
59	34
62	3
63	16
64	15
65	13
66	21
67	6
68	3
70	77
71	27
72	39
73	0
75	5
76	9
77	22
78	11
79	3
80	2
82	2
83	2
84	22
85	139
86	18
87	0
88	2
89	5
90	47
91	9
92	11
93	1
99	1
101	2
102	22
103	13
104	6
105	13
106	2
114	3
115	2
116	4
117	6
118	16
119	3
122	6
128	3
129	16
130	3
131	6
132	5
133	6
134	2
135	0
142	13
143	6
144	10
145	1
146	0
150	2
154	0
155	25
156	10
157	6
158	9
169	0
170	14
171	5
181	8
182	50
183	42
184	11
185	1
195	3
196	3
197	19
198	8
199	12
201	1
208	1
209	15
210	28
211	255
212	236
213	28
214	0
222	1
223	8
224	13
225	202
226	29
227	1
237	5
238	5
239	14
240	12
241	0
268	4
283	277
284	62
285	26
286	0
