Mass Spectrum: 2-Cyclopenten-1-one, 3,4-dihydroxy-5-(3-methyl-2-butenyl)-2-(3-methyl-1-oxobutyl)-4-(4-methyl-1-oxo-3-pentenyl)-
Formula: C21H30O5
CAS: 25522-96-7
Molecular weight: 362
m/z	intensity
26	15
27	132
28	126
29	108
30	8
31	20
32	9
37	12
38	25
39	200
40	47
41	640
42	108
43	436
44	423
45	92
46	6
50	24
51	47
52	22
53	117
54	35
55	207
56	80
57	349
58	60
59	60
61	23
62	8
63	16
64	10
65	46
66	25
67	136
68	81
69	999
70	158
71	68
72	17
73	26
74	16
75	7
77	62
78	19
79	72
80	23
81	82
82	66
83	82
84	42
85	165
86	20
87	81
88	10
89	9
90	5
91	83
92	20
93	54
94	32
95	107
96	72
97	152
98	40
99	23
100	29
101	13
102	11
103	14
104	10
105	51
106	17
107	65
108	24
109	97
110	39
111	55
112	27
113	30
114	41
115	40
116	11
117	20
118	11
119	46
120	21
121	78
122	58
123	82
124	44
125	43
126	28
127	65
128	23
129	19
130	9
131	25
132	11
133	34
134	18
135	52
136	53
137	65
138	50
139	54
140	56
141	21
142	20
143	16
144	9
145	27
146	17
147	38
148	20
149	97
150	29
151	44
152	27
153	47
154	32
155	24
156	8
157	16
158	8
159	24
160	14
161	34
162	27
163	49
164	50
165	48
166	59
167	57
168	20
169	26
170	8
171	15
172	8
173	36
174	16
175	40
176	31
177	54
178	25
179	47
180	31
181	89
182	152
183	62
184	73
185	22
186	7
187	28
188	19
189	55
190	47
191	128
192	66
193	51
194	26
195	60
196	17
197	620
198	98
199	23
200	10
201	17
202	13
203	24
204	25
205	36
206	30
207	32
208	27
209	86
210	79
211	24
212	5
213	10
214	5
215	35
216	9
217	18
218	5
219	30
220	18
221	35
222	20
223	68
224	19
225	10
226	16
227	9
228	5
229	13
230	12
231	20
232	10
233	129
234	51
235	38
236	17
237	28
238	71
239	48
240	10
241	6
242	5
243	10
244	10
245	16
246	20
247	26
248	174
249	47
250	30
251	16
252	27
253	7
257	12
259	21
260	17
261	20
262	12
263	15
264	28
265	16
266	174
267	34
268	6
271	5
273	9
274	5
275	32
276	16
277	58
278	25
279	15
280	7
283	5
285	6
287	6
288	9
289	8
290	5
291	11
292	20
293	139
294	132
295	23
300	5
301	13
302	6
303	5
304	5
316	5
317	5
318	6
319	5
320	5
329	9
344	26
345	10
346	8
360	8
362	30
363	8
