Mass Spectrum: 3,3-Dichloropropyne
Formula: C3H2Cl2
CAS: 25523-14-2
Molecular weight: 108
m/z	intensity
26	18
28	6
29	1
32	2
35	290
36	320
37	657
38	547
39	20
41	1
47	249
48	23
49	76
50	7
53	6
54	5
55	1
57	1
59	6
60	9
61	3
62	3
70	7
72	181
73	999
74	64
75	332
76	16
82	3
83	3
84	2
85	2
106	1
107	15
108	2
109	10
110	1
111	2
