Mass Spectrum: Octa-2,6-dienal, 3,7-dimethyl-, 2,4-dinitrophenylhydrazone
Formula: C16H20N4O4
CAS: 2553-67-5
Molecular weight: 332
m/z	intensity
33	3
34	5
37	3
38	17
39	163
40	128
41	978
42	49
43	129
44	47
45	4
46	2
50	13
51	40
52	37
53	130
54	37
55	61
56	9
57	9
58	2
59	3
60	0
61	1
62	15
63	47
64	29
65	49
66	20
67	69
69	999
70	63
71	6
72	1
74	10
75	27
76	18
77	48
78	33
79	52
80	172
81	348
82	171
83	40
84	6
85	0
87	1
88	3
89	7
90	20
91	51
92	20
93	144
94	57
95	14
96	28
97	12
98	6
99	0
100	0
101	2
102	4
103	10
104	6
105	18
106	15
107	46
108	11
109	6
111	1
112	1
113	1
114	1
115	13
116	5
117	10
118	9
119	13
120	5
121	8
122	9
123	3
126	1
127	4
128	6
129	7
130	15
131	9
132	6
133	8
134	14
135	160
136	24
137	6
138	3
139	2
140	1
141	4
142	6
143	10
144	8
145	3
146	2
147	1
148	4
149	3
150	4
151	1
152	6
153	5
154	3
155	9
156	12
157	6
158	2
159	1
160	0
164	2
165	1
166	4
167	15
168	12
169	14
170	15
171	18
172	6
173	1
176	2
177	1
178	0
180	0
181	2
182	7
183	18
184	10
185	2
186	0
187	0
189	2
190	1
192	0
196	0
198	2
199	4
200	3
201	1
202	4
203	3
204	2
214	1
215	3
216	6
217	14
218	3
219	1
227	1
228	7
229	14
230	3
231	3
236	1
239	0
245	0
246	2
247	26
248	3
249	4
263	99
264	29
265	3
332	34
333	5
