Mass Spectrum: D-Fructofuranoside, methyl 1,3,4-tri-O-methyl-6-O-(2,3,4,6-tetra-O-methyl-.alpha.-D-glucopyranosyl)-
Formula: C20H38O11
CAS: 25531-74-2
Molecular weight: 454
m/z	intensity
45	669
59	569
71	499
75	589
88	999
99	190
101	999
111	133
115	124
127	95
129	238
131	95
143	93
145	84
155	76
187	200
205	49
219	82
235	26
249	16
279	143
293	10
409	74
