Mass Spectrum: Benz[e]azulene-3,8-dione, 5-[(acetyloxy)methyl]-3a,4,6a,7,9,10,10a,10b-octahydro-3a,10a-dihydroxy-2,10-dimethyl-, (3a.alpha.,6a.alpha.,10.beta.,10a.beta.,10b.beta.)-(+)-
Formula: C19H24O6
CAS: 25536-74-7
Molecular weight: 348
m/z	intensity
12	4
13	3
15	96
16	5
17	7
18	13
24	1
25	2
26	19
27	297
28	62
29	94
30	9
31	40
32	2
35	15
36	28
37	7
38	20
39	333
40	94
41	619
42	154
43	999
44	78
45	119
46	3
47	21
48	0
49	9
50	25
51	130
52	108
53	642
54	119
55	357
56	52
57	85
58	29
59	33
60	77
61	41
62	13
63	54
64	28
65	202
66	119
67	214
68	38
69	559
70	44
71	112
72	13
73	16
74	10
75	16
76	15
77	333
78	107
79	464
80	202
81	285
82	380
83	107
84	34
85	23
86	9
87	35
88	7
89	25
90	14
91	297
92	58
93	76
94	59
95	238
96	67
97	50
98	26
99	79
100	9
101	22
102	17
103	51
104	32
105	142
106	34
107	154
108	119
109	476
110	107
111	107
112	38
113	32
114	6
115	130
116	40
117	202
118	27
119	190
120	33
121	89
122	52
123	178
124	97
125	61
126	20
127	34
128	78
129	85
130	32
131	71
132	35
133	76
134	75
135	75
136	27
137	202
138	72
139	44
140	8
141	35
142	21
143	39
144	32
145	92
146	67
147	73
148	59
149	80
150	55
151	83
152	47
153	29
154	11
155	29
156	16
157	45
158	71
159	110
160	46
161	77
162	46
163	65
164	42
165	45
166	38
167	23
168	11
169	17
170	9
171	57
172	83
173	110
174	64
175	59
176	69
177	72
178	83
179	494
180	69
181	36
182	14
183	42
184	17
185	33
186	25
187	45
188	36
189	58
190	29
191	28
192	23
193	11
194	16
195	25
196	13
197	29
198	16
199	33
200	42
201	54
202	22
203	29
204	45
205	22
206	85
207	869
208	130
209	54
210	13
211	27
212	10
213	19
214	15
215	23
216	9
217	29
218	14
219	15
220	9
221	4
222	3
223	5
224	5
225	30
226	8
227	29
228	22
229	16
230	35
231	21
232	10
233	7
234	2
235	3
236	1
237	8
238	8
239	11
240	82
241	28
242	22
243	23
244	7
245	11
246	10
247	7
248	1
249	1
250	0
251	2
252	10
253	4
254	4
255	19
256	10
257	15
258	23
259	10
260	26
261	5
262	2
263	1
264	1
265	1
266	0
267	0
268	1
269	7
270	64
271	15
272	5
273	4
274	17
275	4
276	2
277	1
278	0
279	1
280	0
281	0
282	0
283	2
284	2
285	1
286	2
287	1
288	160
289	33
290	5
291	1
292	0
293	0
294	0
295	0
296	0
297	1
298	14
299	4
300	34
301	5
302	2
303	0
304	1
305	0
306	0
307	0
308	0
309	0
310	0
311	0
312	1
313	0
314	0
315	0
316	1
317	0
318	1
319	0
320	0
322	0
323	0
324	0
326	0
327	0
328	0
329	0
330	1
331	0
332	0
333	0
344	0
346	0
347	0
348	8
349	2
350	0
