Mass Spectrum: Urea, N-(4-hydroxy-2-methylcyclohexyl)-N'-(4-hydroxyphenyl)-
Formula: C14H20N2O3
CAS: 25546-04-7
Molecular weight: 264
m/z	intensity
15	36
27	189
29	118
30	86
31	26
39	171
40	47
41	184
42	92
43	342
44	152
51	73
52	184
53	189
54	131
55	157
56	310
57	210
68	157
69	57
70	100
71	42
72	78
79	73
80	321
81	142
82	139
83	65
93	163
94	47
98	157
107	52
108	173
109	999
110	121
111	31
112	52
129	89
135	184
136	21
137	42
155	97
171	18
264	5
