Mass Spectrum: Urea, N-(4-hydroxy-2-methylcyclohexyl)-N'-phenyl-
Formula: C14H20N2O2
CAS: 25546-05-8
Molecular weight: 248
m/z	intensity
15	30
27	60
29	120
30	40
31	30
39	70
40	30
41	130
42	50
43	180
55	130
56	90
57	160
58	60
65	40
66	60
77	70
92	90
93	999
94	150
119	70
135	50
248	90
