Mass Spectrum: 1-Hexanone, 5-methyl-1-phenyl-
Formula: C13H18O
CAS: 25552-17-4
Molecular weight: 190
m/z	intensity
41	101
42	14
43	59
44	6
51	140
57	7
77	461
78	34
105	999
106	70
120	713
121	56
189	3
190	56
191	8
