Mass Spectrum: 2H-Pyran-2-carboxylic acid, 3,6-dihydro-6-methoxy-, butyl ester
Formula: C11H18O4
CAS: 25556-21-2
Molecular weight: 214
m/z	intensity
41	480
42	70
43	150
44	70
45	100
53	220
54	110
55	330
56	120
57	250
58	80
67	70
69	150
70	70
71	520
73	50
81	999
82	130
83	90
84	110
85	130
97	70
98	50
99	200
108	215
109	210
112	50
113	960
114	70
126	120
127	280
140	150
141	30
154	60
155	150
157	20
182	20
183	150
213	5
214	5
