Mass Spectrum: Carbazic acid, 2-phenyldithio-, methyl ester
Formula: C8H10N2S2
CAS: 25554-73-8
Molecular weight: 198
m/z	intensity
41	70
42	29
43	146
44	8
45	96
46	8
50	73
51	222
52	58
53	23
57	23
58	29
59	26
60	29
63	93
64	105
65	513
66	102
67	14
69	35
74	35
75	26
76	73
77	548
78	58
79	35
80	52
81	23
91	545
92	466
93	316
94	23
105	178
106	32
107	999
108	79
109	14
118	14
121	8
122	29
123	14
124	23
149	58
150	263
151	29
152	14
198	821
199	88
200	64
