Mass Spectrum: Bis(dipropylthiocarbamoyl) disulfide
Formula: C14H28N2S4
CAS: 2556-42-5
Molecular weight: 352
m/z	intensity
41	587
42	163
43	999
44	57
45	53
46	15
47	87
54	34
55	23
56	53
57	11
58	341
59	19
60	303
61	19
62	23
64	27
68	30
69	11
70	189
71	11
72	133
73	38
74	49
75	121
76	114
77	133
78	11
79	11
80	15
82	8
84	34
85	8
86	27
92	68
98	8
100	64
101	27
102	542
103	38
104	38
109	4
110	4
111	4
112	38
114	19
116	8
123	27
124	27
125	8
126	23
127	8
133	4
134	8
144	856
145	170
146	53
153	8
154	8
155	4
175	30
176	693
177	265
178	91
179	15
194	11
195	19
224	68
352	189
353	38
354	42
