Mass Spectrum: Ethyl 2-(3-chlorobenzamido)-3,3,3-trifluoro-2-[(4-fluorobenzyl)amino]propionate
Formula: C19H17ClF4N2O3
CAS: 255714-70-6
Molecular weight: 432
m/z	intensity
33	2
35	1
36	7
37	3
38	6
39	11
40	8
41	3
42	1
43	7
44	19
45	3
46	1
47	1
48	1
50	32
51	23
52	4
53	2
55	5
57	18
59	8
60	1
61	3
62	6
63	9
64	2
65	3
67	1
68	3
69	10
70	5
71	2
73	5
74	14
75	95
76	38
77	20
78	2
79	1
81	6
83	65
84	7
85	6
86	2
87	4
88	2
89	9
90	2
91	1
92	2
93	1
94	3
95	14
96	14
97	33
98	3
99	1
101	2
102	4
103	5
104	16
105	11
107	34
109	999
110	92
111	219
112	24
113	73
114	5
115	1
120	3
121	6
122	22
124	721
125	58
126	4
127	4
129	1
132	1
133	2
134	5
135	8
136	6
137	13
139	650
140	56
141	185
142	15
143	1
145	1
149	2
150	1
151	3
152	2
153	3
154	1
155	7
156	23
157	5
158	9
159	1
163	1
164	1
165	1
166	1
168	1
171	2
177	1
180	2
181	1
183	16
184	7
185	1
198	1
199	1
200	2
201	3
202	4
203	82
204	19
205	5
206	1
208	1
212	1
217	1
218	1
219	15
220	4
221	4
222	5
223	2
226	1
228	2
230	1
231	6
232	10
233	2
236	1
243	1
245	1
246	1
247	2
248	9
249	2
251	2
253	1
262	2
263	7
264	1
265	2
276	2
277	21
278	3
309	2
310	1
311	1
355	1
356	1
359	99
360	16
361	28
362	5
363	4
