Mass Spectrum: Benzoic acid, [1-amino-2-(2,4-dichlorophenoxy)ethylidenamino] ester
Formula: C15H12Cl2N2O3
CAS: 255728-40-6
Molecular weight: 338
m/z	intensity
33	0
34	0
35	1
36	6
37	9
38	15
39	16
40	9
41	22
42	66
43	45
44	7
45	4
46	0
47	2
48	1
49	8
50	41
51	94
52	10
53	7
54	1
55	11
56	7
57	32
58	4
60	3
61	8
62	14
63	42
64	4
65	4
66	3
67	0
68	0
69	0
70	0
71	1
72	5
73	22
74	23
75	26
76	24
77	262
78	22
79	2
81	2
82	1
83	4
84	3
85	6
86	1
87	2
88	1
89	1
90	1
91	2
92	1
93	1
94	3
95	1
96	1
97	7
98	17
99	8
100	7
101	3
102	2
103	9
105	999
106	97
107	10
108	2
109	24
110	6
111	23
112	5
113	5
114	2
115	1
116	0
117	1
118	0
119	2
120	1
122	90
123	8
124	3
125	1
126	8
127	2
128	4
129	14
130	2
131	0
133	32
134	2
135	19
136	2
137	3
138	1
139	1
140	2
141	1
142	2
143	1
145	27
146	5
147	22
148	6
149	5
150	1
151	1
152	1
153	2
154	7
155	3
156	2
157	0
158	0
159	9
160	6
161	41
162	58
163	45
164	36
165	8
166	10
167	2
168	3
169	1
170	0
171	0
172	3
173	1
174	3
175	13
176	4
177	11
178	2
179	1
181	54
182	18
183	62
184	10
185	14
186	5
187	12
188	5
189	8
190	2
191	1
192	0
193	0
194	0
195	0
197	0
198	1
199	1
200	1
201	10
202	1
203	7
204	1
205	1
206	0
207	0
208	0
209	0
210	0
211	0
212	0
213	0
214	0
215	1
216	5
217	5
218	6
219	3
220	2
221	1
222	0
223	0
224	0
225	0
227	0
229	0
230	0
231	0
232	0
233	0
234	0
235	0
236	0
237	0
241	0
242	0
244	0
245	0
246	0
247	0
248	0
249	0
250	0
251	0
252	0
254	0
255	0
256	0
257	0
258	0
259	0
260	0
263	0
265	0
266	0
267	0
268	0
269	0
270	0
271	0
273	0
274	0
275	0
278	0
279	0
281	0
284	0
285	7
286	1
287	3
288	0
289	0
291	0
293	0
294	0
303	60
304	9
305	18
306	3
307	0
309	0
310	0
312	0
320	1
321	0
322	1
323	0
324	0
325	0
335	0
336	0
338	1
339	0
340	1
341	0
