Mass Spectrum: Ethyl 2-benzylamino-2-(3-chlorobenzamido)-3,3,3-trifluoropropionate
Formula: C19H18ClF3N2O3
CAS: 255714-69-3
Molecular weight: 414
m/z	intensity
35	4
36	12
37	11
38	26
39	63
40	20
41	19
42	5
43	16
44	49
45	8
46	2
47	3
48	1
50	107
51	86
52	20
53	10
54	5
55	7
56	5
57	5
59	1
61	11
62	11
63	34
65	154
66	8
67	1
69	23
70	6
71	3
73	13
74	41
75	183
76	68
77	73
78	26
79	78
80	6
81	1
83	3
84	6
85	17
86	3
87	7
88	3
89	45
91	999
92	72
93	3
96	9
97	4
99	2
100	1
101	1
102	4
103	8
104	41
106	628
107	86
108	6
109	8
111	364
112	27
113	108
114	9
116	10
117	17
118	5
119	2
124	1
125	1
127	1
131	2
132	2
133	5
134	1
135	5
137	11
139	876
140	71
141	252
142	20
143	2
146	2
148	1
155	36
156	12
157	12
158	4
159	3
162	2
164	1
165	33
166	12
167	2
168	1
171	1
184	4
185	103
186	40
187	9
190	2
194	1
200	1
201	17
202	4
204	7
205	1
210	1
213	2
214	17
215	2
221	4
230	9
259	10
260	2
341	75
342	13
343	20
344	3
345	3
