Mass Spectrum: Ethane-1,1-diol dibutanoate
Formula: C10H18O4
CAS: 25572-25-2
Molecular weight: 202
m/z	intensity
39	78
41	149
42	90
43	428
44	39
45	40
55	59
60	119
69	9
70	40
71	999
72	39
73	40
77	10
89	10
115	219
116	10
