Mass Spectrum: Ethyl N-[3,3,3-trifluoro-2-(trifluoromethyl)propionyl]carbamate
Formula: C7H7F6NO3
CAS: 255714-96-6
Molecular weight: 267
m/z	intensity
33	19
34	5
36	2
38	1
40	65
41	13
42	29
43	132
44	762
45	999
46	48
47	44
48	3
50	11
51	26
52	1
53	2
54	3
55	7
56	5
57	5
58	4
59	2
61	33
62	73
63	25
64	5
66	27
67	4
69	707
70	178
71	28
72	58
73	9
74	20
75	3
76	2
77	3
78	3
79	2
82	85
83	4
84	3
85	2
87	1
88	13
89	5
91	364
92	61
93	15
94	5
95	2
96	3
97	1
99	1
100	8
101	2
105	2
107	2
109	3
110	39
111	4
112	10
113	125
114	4
115	1
116	2
118	2
119	1
120	1
123	2
124	2
126	1
127	3
128	1
132	56
134	6
136	23
137	9
138	3
141	1
147	9
149	1
150	8
151	1
154	9
155	7
156	24
157	6
158	62
159	131
160	6
168	1
170	2
171	1
173	1
175	14
177	51
179	625
180	18
181	1
182	1
189	7
191	6
195	29
196	62
197	3
199	2
200	7
202	17
203	1
208	6
219	6
220	44
222	138
223	6
224	2
229	1
239	24
240	339
241	14
242	3
267	12
268	1
