Mass Spectrum: Thieno[3,2-b]thiophene, 2-(5-trifluoromethyl-1,3,4-oxadiazol-2-yl)-
Formula: C9H3F3N2OS2
CAS: 255872-55-0
Molecular weight: 276
m/z	intensity
33	6
34	4
36	7
37	47
38	31
39	21
40	43
41	11
42	8
43	18
44	59
45	350
46	13
47	23
48	5
49	17
50	64
51	55
52	8
53	13
55	8
56	17
57	54
58	38
59	8
60	10
61	43
62	96
63	123
64	22
65	4
66	2
69	999
70	109
71	51
72	10
73	15
74	27
75	81
76	27
77	12
78	4
80	28
81	102
82	46
83	36
84	13
85	9
86	11
87	11
88	39
89	20
90	11
91	6
92	35
93	223
94	82
95	188
96	20
97	21
99	6
100	25
101	59
102	14
103	7
104	9
105	25
106	49
107	54
108	14
109	30
110	3
111	2
112	8
113	3
114	4
116	3
117	19
118	7
119	8
120	18
121	38
122	5
123	2
124	12
125	23
126	15
127	11
128	1
131	1
133	3
136	2
137	6
138	21
139	168
140	16
141	16
148	2
149	14
151	355
152	54
153	38
154	5
162	2
163	8
165	357
166	57
167	841
168	77
169	74
170	7
171	2
179	7
207	23
208	2
257	23
258	2
259	1
274	7
276	778
277	95
278	72
279	9
280	1
