Mass Spectrum: Bicyclo[2.2.2]hept-2-ene-5-thiocarboxylic acid, S-(2-thienyl) ester
Formula: C13H14OS2
CAS: 255820-14-5
Molecular weight: 250
m/z	intensity
34	0
37	4
38	15
39	111
40	12
41	64
42	3
43	0
44	2
45	57
46	2
47	2
49	0
50	18
51	53
52	27
53	42
54	0
55	239
56	9
57	18
58	12
59	2
60	0
61	0
62	2
63	9
64	3
65	35
66	10
67	13
68	3
69	27
70	11
71	187
72	10
73	9
74	2
75	1
76	0
77	206
78	65
79	999
80	78
81	12
82	13
83	2
84	2
85	0
86	0
88	2
89	3
91	68
92	10
93	1
97	1
102	1
103	5
104	1
105	18
107	513
108	46
109	2
111	0
112	0
115	64
116	49
117	10
118	4
119	0
121	0
127	0
129	0
133	0
135	314
136	32
137	2
141	0
142	1
143	0
170	0
250	11
251	1
252	1
