Mass Spectrum: 4-(3-Fluoroanilino)-4-oxobutanoic acid
Formula: C10H10FNO3
CAS: 25589-40-6
Molecular weight: 211
m/z	intensity
33	11
34	1
36	0
37	4
38	13
39	20
40	21
41	9
42	11
43	29
44	32
45	128
46	4
47	1
48	0
49	1
50	9
51	10
52	10
53	6
55	155
56	21
57	57
58	4
59	1
60	1
61	4
62	10
63	23
64	16
65	9
66	1
67	1
68	5
69	9
70	5
71	2
73	88
74	12
75	32
76	4
77	3
78	1
79	1
81	18
82	30
83	98
84	50
85	4
86	0
87	1
88	1
89	6
90	5
91	9
92	4
93	6
94	8
95	46
96	7
97	3
98	1
101	113
102	4
103	1
104	0
106	2
107	3
108	7
109	32
111	999
112	61
113	2
117	0
118	0
120	3
121	7
122	4
123	1
124	3
125	0
135	2
136	4
137	14
138	16
139	1
146	1
147	0
148	1
149	1
150	2
151	0
163	1
164	2
165	1
166	2
167	0
174	1
191	1
192	2
193	6
194	7
195	1
208	2
211	115
212	10
213	1
