Mass Spectrum: 1H-1,2,4-Triazol-3-amine, 5-(2-trifluoromethoxybenzylamino)-
Formula: C10H10F3N5O
CAS: 255872-85-6
Molecular weight: 273
m/z	intensity
35	0
36	3
37	5
38	19
39	82
40	12
41	54
42	134
43	503
44	49
45	0
46	0
47	6
49	1
50	47
51	104
52	57
53	34
54	7
55	32
56	9
57	47
58	17
59	242
60	21
61	12
62	14
63	59
64	24
65	27
66	11
67	6
68	120
69	265
70	27
71	4
72	65
73	15
74	9
75	18
76	24
77	99
78	101
79	10
80	4
81	3
82	5
83	246
84	32
85	162
86	28
87	7
88	6
89	58
90	27
91	19
92	10
94	2
95	10
96	5
97	4
98	17
99	8
100	5
101	7
102	31
103	14
104	16
105	13
106	15
107	52
109	999
110	99
111	9
112	88
113	7
114	10
115	9
116	15
117	19
118	13
119	18
120	9
121	5
122	3
124	0
125	8
126	0
127	7
128	10
129	10
130	2
131	9
132	12
133	6
134	8
135	2
139	3
140	0
141	1
142	1
143	5
144	11
145	19
146	13
147	8
148	33
149	3
150	20
151	4
155	0
156	2
157	2
158	4
159	6
161	2
162	5
163	0
164	0
168	6
169	6
170	15
171	6
172	5
173	5
175	290
176	30
177	3
182	1
185	1
186	71
187	101
188	591
189	73
190	49
191	7
198	0
200	2
201	6
202	8
203	1
204	4
207	1
212	4
213	0
214	2
215	0
217	2
226	1
228	11
230	10
242	0
244	3
245	6
252	0
255	7
256	0
273	301
274	38
275	0
