Mass Spectrum: 5.alpha.-Androstan-12-one, cyclic ethylene mercaptole
Formula: C21H34S2
CAS: 25597-02-8
Molecular weight: 350
m/z	intensity
38	75
39	268
40	156
41	712
42	143
43	487
44	999
45	418
46	56
47	62
48	50
50	18
51	31
52	18
53	187
54	56
55	625
56	50
57	75
58	43
59	143
60	87
61	181
62	18
63	18
64	25
65	93
66	43
67	537
68	68
69	181
70	25
71	56
72	6
73	25
74	6
75	12
76	12
77	175
78	43
79	331
80	68
81	418
82	43
83	131
84	18
85	87
86	6
87	31
88	6
89	12
90	12
91	312
92	81
93	293
94	62
95	262
96	31
97	75
98	25
99	37
100	12
101	18
102	12
103	31
104	18
105	343
106	68
107	156
108	75
109	268
110	37
111	37
112	18
113	18
114	6
115	31
116	25
117	62
118	162
119	168
120	50
121	106
122	81
123	75
124	18
125	31
126	31
127	37
128	25
129	43
130	37
131	381
132	75
133	137
134	43
135	137
136	25
137	25
138	6
139	12
140	12
141	18
142	12
143	25
144	25
145	193
146	75
147	225
148	131
149	212
150	37
151	25
152	6
153	6
154	6
155	6
156	6
157	25
158	6
159	50
160	25
161	143
162	37
163	25
164	12
165	25
166	6
167	6
168	6
169	12
170	6
171	18
172	12
173	37
174	12
175	31
176	12
177	12
178	12
179	18
180	6
181	12
182	6
183	6
184	6
185	43
186	12
187	25
188	12
189	18
190	6
191	12
193	6
194	6
195	6
197	6
198	18
199	43
200	50
201	31
202	43
203	6
204	6
205	6
207	6
211	6
212	6
213	6
214	6
215	25
216	6
217	18
218	6
225	12
226	6
227	18
228	12
229	6
230	31
231	12
232	6
233	6
237	6
239	25
240	18
241	62
242	12
243	37
244	12
245	6
249	6
253	18
254	6
255	56
256	168
257	331
258	87
259	12
267	12
268	6
273	12
274	6
275	6
288	31
289	275
290	87
291	25
292	6
317	12
322	181
323	37
324	25
325	6
335	12
336	6
350	206
351	50
352	25
353	6
