Mass Spectrum: 1,3-Dioxolane, 2-(6-heptynyl)-
Formula: C10H16O2
CAS: 25595-82-8
Molecular weight: 168
m/z	intensity
26	2
27	32
28	3
29	16
31	6
38	2
39	37
40	5
41	42
42	5
43	14
44	6
45	153
46	2
50	2
51	6
52	4
53	15
54	4
55	20
56	2
57	6
58	1
62	1
63	2
65	6
66	4
67	19
68	1
69	2
71	3
73	999
74	35
75	5
77	10
78	2
79	22
80	8
81	10
82	1
83	2
85	1
86	4
87	1
88	0
91	6
93	7
95	5
96	1
99	7
105	1
107	1
113	1
123	1
125	1
141	1
149	2
167	21
168	2
