Mass Spectrum: Boron, (1-azabicyclo[2.2.2]octane)trihydro-, (t-4)-
Formula: C7H16BN
CAS: 25605-09-8
Molecular weight: 125
m/z	intensity
22	0
25	3
26	15
27	68
28	25
29	52
30	10
36	2
37	13
38	8
39	86
40	164
41	124
42	261
43	22
44	4
45	1
46	1
47	1
48	1
49	0
50	4
51	14
52	18
53	125
54	369
55	132
56	37
57	29
58	2
59	0
60	0
61	1
62	1
63	3
64	6
65	29
66	63
67	59
68	94
69	101
70	15
71	2
73	0
75	0
76	0
77	4
78	10
79	22
80	57
81	39
82	209
83	52
84	16
85	1
89	1
90	1
91	6
92	13
93	51
94	195
95	52
96	150
97	10
98	0
104	0
105	1
106	2
107	4
108	16
109	3
110	50
111	295
112	23
113	1
115	0
116	0
118	0
119	1
120	3
121	8
122	43
123	320
124	999
125	84
126	2
