Mass Spectrum: 1-Butanone, 1-(4-fluorophenyl)-4-(1-piperazinyl)-
Formula: C14H19FN2O
CAS: 2560-31-8
Molecular weight: 250
m/z	intensity
33	3
40	29
41	82
42	191
43	75
44	110
45	6
46	0
48	0
49	3
50	6
51	5
53	6
54	28
55	95
56	409
57	141
58	121
59	5
60	0
62	1
63	3
64	0
65	1
67	6
68	25
69	53
70	257
71	31
72	10
75	37
76	3
77	2
78	0
79	0
80	2
81	4
82	18
83	43
84	119
85	47
86	4
87	1
88	0
89	0
90	0
91	0
95	162
96	26
97	92
99	890
100	45
101	3
102	0
103	0
104	1
105	0
107	2
108	4
109	15
112	999
113	83
114	4
115	1
116	0
118	0
120	1
121	11
123	364
124	25
125	7
127	14
128	0
130	0
132	0
133	3
135	5
136	1
137	2
138	18
139	1
145	1
146	1
147	1
148	0
149	1
150	1
151	8
152	0
153	0
160	0
161	1
163	18
165	464
166	43
167	3
174	0
175	1
176	1
177	0
178	3
179	0
180	0
181	0
188	0
190	3
191	0
192	1
193	2
194	7
195	1
205	1
206	7
208	102
209	12
210	0
218	0
220	9
221	1
222	0
231	0
232	1
247	0
248	2
250	38
251	4
