Mass Spectrum: Diethyl 4-chlorophenyl orthoformate
Formula: C11H15ClO3
CAS: 25604-54-0
Molecular weight: 230
m/z	intensity
27	200
28	26
29	396
30	11
31	88
33	1
35	4
36	6
37	22
38	47
39	113
40	8
41	7
42	9
43	32
44	10
45	67
47	999
48	14
49	15
50	45
51	25
52	3
53	20
54	2
55	9
56	2
57	2
59	3
60	6
61	19
62	32
63	93
64	63
65	175
66	17
67	5
71	1
72	7
73	68
74	28
75	561
76	33
77	12
78	1
79	2
84	2
85	5
86	2
87	4
88	1
89	5
91	3
92	10
93	52
94	36
95	3
96	1
97	3
98	2
99	78
100	38
101	29
102	15
103	683
104	40
105	4
106	2
107	2
110	2
111	53
112	4
113	16
114	1
117	1
119	1
121	1
127	21
128	330
129	208
130	110
131	70
132	4
133	3
134	1
135	1
138	1
139	2
141	2
155	1
156	6
157	150
158	14
159	54
160	3
173	1
185	141
186	13
187	44
188	3
