Mass Spectrum: Dodecylsuccinic anhydride
Formula: C16H28O3
CAS: 2561-85-5
Molecular weight: 268
m/z	intensity
12	1
14	2
15	10
17	1
18	1
26	13
27	279
28	75
29	464
30	10
31	2
37	2
38	5
39	259
40	58
41	999
42	215
43	563
44	19
45	7
50	4
51	13
52	10
53	95
54	141
55	563
56	171
57	208
58	9
59	5
60	6
61	2
63	3
64	1
65	15
66	12
67	145
68	88
69	230
70	98
71	63
72	12
73	30
74	14
75	1
77	14
78	5
79	35
80	16
81	110
82	72
83	190
84	60
85	27
86	11
87	19
88	4
91	12
92	5
93	22
94	14
95	68
96	63
97	215
98	79
99	18
100	47
101	9
102	9
103	1
104	2
105	8
106	4
107	13
108	9
109	45
110	43
111	67
112	39
113	22
114	10
115	7
116	7
117	2
118	7
119	12
120	6
121	12
122	8
123	26
124	34
125	27
126	20
127	10
128	62
129	8
130	8
131	2
132	2
133	12
134	7
135	9
136	9
137	24
138	64
139	19
140	12
141	21
142	156
143	17
144	9
145	2
146	1
147	9
148	6
149	7
150	9
151	27
152	41
153	13
154	14
155	22
156	162
157	18
158	5
159	1
160	1
161	7
162	7
163	4
164	9
165	20
166	30
167	8
168	9
169	9
170	20
171	4
172	4
175	4
176	4
177	2
178	7
179	13
180	28
181	7
182	4
183	5
184	7
185	2
186	1
189	2
190	8
191	6
192	1
193	8
194	15
195	4
196	50
197	9
198	9
199	2
203	2
204	4
205	4
206	3
207	6
208	10
209	3
210	1
211	3
212	15
213	3
221	4
222	17
223	10
224	2
225	3
226	17
227	4
232	3
235	1
239	3
240	6
241	1
249	1
250	32
251	7
252	1
267	3
268	20
269	6
270	1
