Mass Spectrum: Perfluorobutanesulfonic acid, phenyl ester
Formula: C10H5F9O3S
CAS: 25628-11-9
Molecular weight: 376
m/z	intensity
26	8
27	13
29	3
31	23
37	16
38	67
39	384
40	16
41	7
42	1
43	3
44	2
45	3
47	1
48	17
49	3
50	31
51	57
52	8
53	8
54	2
55	6
56	1
57	5
61	10
62	32
63	102
64	58
65	999
66	74
67	4
69	429
70	6
71	1
73	2
74	8
75	6
76	8
77	873
78	69
79	4
80	4
81	7
82	2
83	2
84	1
89	3
90	2
91	50
92	43
93	808
94	73
95	9
96	5
97	2
100	93
101	3
104	2
105	4
107	2
108	2
109	1
112	2
115	7
118	2
119	58
121	2
123	6
128	2
129	2
130	3
131	105
132	5
133	1
141	29
142	3
143	51
144	4
145	3
149	8
150	8
156	2
157	1
167	4
168	1
169	8
170	1
171	6
175	4
181	2
186	2
195	1
204	1
205	7
206	1
207	3
219	42
221	2
224	1
265	2
273	1
286	1
288	1
290	1
293	3
312	145
313	19
314	2
328	2
376	320
377	45
378	22
379	2
