Mass Spectrum: 1,3-Dimethyl-4-[3-diethylaminopropylamino]-1H-pyrazolo[3,4-b]quinoline
Formula: C19H27N5
CAS: 25627-80-9
Molecular weight: 325
m/z	intensity
41	42
42	104
43	46
44	96
45	4
46	0
47	2
48	0
49	9
50	9
51	19
52	9
53	5
54	9
55	7
56	72
57	33
58	209
59	13
60	1
61	1
62	4
63	11
64	7
65	8
66	8
67	5
68	4
69	3
70	35
71	50
72	389
73	28
74	8
75	16
76	19
77	23
78	9
79	4
80	2
81	2
82	2
83	1
84	72
85	61
86	999
87	58
88	7
89	9
90	6
91	5
92	3
93	2
94	0
95	0
96	1
98	105
99	156
100	118
101	22
102	25
103	12
104	7
105	6
106	3
107	0
108	0
109	0
110	0
111	7
112	34
113	51
114	38
115	16
116	14
117	6
118	4
119	4
120	14
122	0
123	0
124	0
125	4
126	11
127	20
128	35
129	22
130	6
131	2
132	0
133	0
134	0
135	0
136	0
137	0
138	0
139	3
140	26
141	20
142	13
143	7
144	9
145	1
146	0
148	4
149	0
151	1
152	5
153	10
154	12
155	54
156	12
157	5
158	1
159	0
160	0
162	6
164	0
165	1
166	3
167	18
168	15
169	12
170	6
171	4
172	0
173	0
174	0
177	0
178	0
179	3
180	6
181	12
182	13
183	15
184	10
185	2
186	0
187	0
189	0
190	0
191	0
192	4
193	2
194	6
195	8
196	19
197	42
198	49
199	7
200	0
201	0
204	0
205	0
206	1
207	3
208	7
209	18
210	12
211	41
212	30
213	11
214	2
215	0
217	0
218	0
219	0
220	10
221	4
222	8
223	33
224	40
225	130
226	42
227	4
228	0
231	0
232	0
234	17
235	47
236	13
237	24
238	12
239	74
240	186
241	32
242	2
243	0
244	0
247	0
249	0
250	0
251	8
252	14
253	8
254	2
255	0
259	0
261	0
262	0
263	0
264	0
265	0
266	0
267	2
268	0
269	0
270	0
273	0
274	0
279	1
280	1
281	4
282	1
283	0
293	1
294	0
296	14
297	7
298	1
299	0
307	0
308	1
309	1
310	24
311	6
312	0
324	0
325	164
326	32
327	5
328	0
