Mass Spectrum: 2-Acetonyl-7-chloro-3,1-benzoxazen-4-one
Formula: C11H8ClNO3
CAS: 25628-02-8
Molecular weight: 237
m/z	intensity
41	20
42	28
43	999
44	28
45	3
47	1
49	18
50	25
51	17
52	18
53	15
55	26
56	1
57	1
58	2
59	8
61	17
62	42
63	94
64	22
65	8
66	4
68	8
69	78
70	1
71	1
72	1
73	29
74	32
75	61
76	13
77	6
83	6
84	11
85	45
86	4
87	11
88	14
89	17
90	32
91	10
97	10
98	26
99	23
100	12
101	8
102	8
103	1
104	5
110	10
111	15
112	5
113	5
114	4
116	2
118	5
119	4
120	1
123	9
124	49
125	14
126	128
127	14
128	31
129	1
138	9
139	15
140	1
141	8
150	9
151	6
152	5
153	195
154	60
155	64
156	18
166	11
167	28
168	6
169	9
171	38
172	2
173	12
177	3
178	80
179	3
180	91
181	6
182	22
185	19
187	7
194	2
195	284
196	22
197	95
198	11
204	10
206	1
222	160
223	10
224	56
225	3
233	1
237	179
238	15
239	60
240	11
