Mass Spectrum: N-[2,2,2-Trifluoro-1-(p-toluidino)-1-(trifluoromethyl)ethyl]nicotinamide
Formula: C16H13F6N3O
CAS: 256326-10-0
Molecular weight: 377
m/z	intensity
33	1
34	1
36	3
38	24
39	61
40	17
41	18
42	4
43	7
44	12
45	2
47	1
48	1
49	11
50	110
51	303
52	69
53	56
54	14
55	4
56	3
57	5
59	1
60	1
61	4
62	8
63	23
64	10
65	79
66	9
67	3
69	33
70	3
71	3
72	1
74	6
75	10
76	25
77	144
78	561
79	84
80	12
81	2
82	1
83	2
84	1
85	1
87	3
88	3
89	26
90	26
91	221
92	20
93	3
94	1
95	1
96	8
97	2
99	1
100	2
101	1
102	2
104	26
106	999
107	214
108	19
109	3
110	1
111	1
112	2
114	2
115	1
116	7
117	4
118	2
119	1
121	2
122	20
123	32
124	3
125	1
126	2
127	1
128	1
129	1
130	1
131	2
132	2
133	6
134	2
135	1
140	1
141	2
142	4
143	3
144	1
145	1
147	1
148	1
151	1
152	1
153	1
154	2
159	1
164	1
165	1
166	2
167	2
169	1
171	2
172	1
174	1
179	1
181	2
182	2
184	4
186	291
187	28
188	4
189	1
192	1
193	1
196	1
199	1
201	17
202	3
204	5
211	2
212	1
213	1
216	2
217	1
222	1
223	2
229	2
232	2
233	1
234	1
236	6
237	1
238	1
251	3
252	2
253	4
255	504
256	52
257	3
270	2
271	2
272	2
289	1
308	13
309	2
374	1
375	1
377	94
378	14
379	2
