Mass Spectrum: N-[2,2,2-trifluoro-1-(trifluoromethyl)-1-[3-(trifluoromethyl)anilino]ethyl]nicotinamide
Formula: C16H10F9N3O
CAS: 256325-86-7
Molecular weight: 431
m/z	intensity
33	4
34	3
36	3
37	11
38	23
39	53
40	40
41	21
42	7
43	17
44	41
45	5
46	3
48	5
49	17
50	115
51	290
52	59
53	21
54	7
55	11
56	11
57	28
58	3
61	9
62	13
63	31
64	14
65	26
66	7
67	6
69	66
70	9
71	14
73	4
74	6
75	41
76	31
78	680
79	36
81	17
82	7
83	14
84	9
85	3
87	7
88	7
89	5
90	7
91	11
92	10
93	8
94	12
95	29
96	18
97	3
99	5
100	3
101	3
102	5
103	5
104	19
106	999
107	69
108	5
109	5
111	36
112	9
113	18
114	62
115	6
116	1
118	2
119	8
120	8
121	5
122	36
123	7
124	3
125	21
126	15
127	3
129	3
131	1
132	4
133	9
134	6
135	2
139	4
140	22
141	13
142	44
143	8
144	12
145	183
146	13
150	1
151	3
152	5
153	1
158	3
160	20
161	181
162	18
167	2
170	3
171	10
172	1
178	1
187	4
195	3
202	1
206	2
210	3
213	2
215	4
216	1
217	1
220	1
221	1
223	3
232	1
235	6
236	2
237	3
238	8
240	241
241	24
247	2
251	2
252	1
255	9
258	1
265	1
266	1
267	1
269	1
270	1
271	3
283	1
284	1
289	2
290	22
291	2
294	1
306	4
308	6
309	221
310	26
311	1
336	1
353	1
361	1
362	36
363	7
364	1
400	1
410	1
412	7
413	1
430	2
431	65
432	10
433	1
