Mass Spectrum: N-(2,2,2-Trifluoro-1-(trifluoromethyl)-1-[3-(trifluoromethyl)anilino]ethyl)-p-toluamide
Formula: C18H13F9N2O
CAS: 256326-12-2
Molecular weight: 444
m/z	intensity
33	2
34	2
36	1
37	3
39	57
40	35
41	53
42	12
43	31
44	23
45	7
46	1
49	1
50	13
51	18
52	9
53	6
54	6
55	46
56	17
57	37
58	4
60	4
61	2
62	7
63	29
64	12
65	100
66	8
67	8
68	6
69	37
70	22
71	17
72	3
73	2
74	4
75	14
76	5
77	7
78	3
79	4
81	8
82	7
83	17
84	9
85	4
86	2
87	3
89	34
90	35
91	252
92	21
93	4
95	19
96	6
97	5
98	3
99	2
100	2
101	2
102	1
104	3
105	2
106	7
107	3
108	1
109	2
110	2
111	9
112	9
113	9
114	11
115	3
116	7
119	999
120	85
121	7
122	3
123	1
124	1
125	9
126	6
127	2
128	1
129	3
131	1
132	2
133	7
134	8
135	104
136	10
137	2
138	1
139	1
140	7
141	3
142	7
143	3
145	86
146	7
147	1
149	2
150	1
152	4
153	2
155	1
157	2
159	1
160	9
161	45
162	4
163	1
167	3
168	1
169	1
170	3
171	16
172	3
181	1
185	1
186	2
187	3
189	1
190	1
195	1
197	1
209	1
210	1
212	3
213	2
214	1
216	1
220	1
221	1
222	4
235	6
236	1
237	2
238	1
240	89
241	9
255	10
256	2
258	1
264	2
269	1
270	1
277	1
278	1
279	1
282	1
283	6
284	6
285	1
290	9
291	2
301	1
309	33
310	5
375	22
376	4
425	2
440	1
442	2
443	3
444	52
445	9
446	1
