Mass Spectrum: Ethanone, 1-(5-trifluoromethyl-4-phenyl-2-thienyl)-, semicarbazone
Formula: C14H12F3N3OS
CAS: 256370-19-1
Molecular weight: 327
m/z	intensity
33	2
34	1
36	0
37	0
38	5
39	41
40	12
41	10
42	52
43	56
44	320
45	55
46	6
47	3
48	0
49	1
50	18
51	58
52	14
53	11
54	2
55	14
56	275
57	65
58	14
59	16
60	5
61	3
62	12
63	38
64	5
65	11
66	3
67	1
69	52
70	9
71	20
72	14
73	85
74	31
75	24
76	12
77	34
78	7
79	14
80	3
81	12
82	12
83	20
84	9
85	9
86	11
87	43
88	14
89	29
90	4
91	10
92	9
93	13
94	7
95	7
96	3
97	3
98	5
99	13
100	7
101	11
102	15
103	11
104	7
105	5
106	10
107	12
108	7
109	8
110	5
111	7
113	68
114	999
115	116
116	55
117	7
118	3
119	5
120	11
121	21
122	6
123	4
124	5
125	8
126	9
127	17
128	13
129	5
130	8
131	8
132	10
133	43
134	17
135	6
136	1
137	4
138	8
139	45
140	25
141	31
142	34
143	11
144	5
145	12
146	6
147	9
148	2
149	5
150	8
151	38
152	41
153	15
154	11
155	3
156	4
157	17
158	61
159	14
160	5
161	2
162	3
163	8
164	10
165	7
166	3
167	2
168	4
169	25
170	27
171	39
172	22
173	39
174	12
175	9
176	8
177	8
178	6
179	3
180	2
181	8
182	20
183	92
184	113
185	64
186	25
187	22
188	14
189	28
190	7
191	3
192	1
193	2
194	2
195	10
196	8
197	7
198	10
199	5
200	12
201	25
202	28
203	22
204	11
205	4
206	7
207	70
208	13
209	8
210	2
211	3
212	3
213	15
214	28
215	35
216	10
217	4
218	1
219	6
220	13
221	10
222	18
223	9
224	3
225	5
226	6
227	13
228	30
229	7
230	2
231	5
232	14
233	31
234	10
235	7
236	2
237	1
238	6
239	25
240	6
241	17
242	56
243	82
244	13
245	5
246	2
247	1
248	2
249	4
250	2
251	5
252	13
253	63
254	74
255	23
256	7
257	1
263	15
264	3
265	7
266	10
267	43
268	16
269	53
270	10
271	3
281	2
283	115
284	250
285	44
286	14
287	1
291	7
292	1
294	0
308	12
309	3
310	45
311	7
312	3
324	1
327	320
328	54
329	19
330	2
