Mass Spectrum: 2-Piperidino-6-(p-tolyl)-4,4-bis(trifluoromethyl)-4H-1,3,5-oxadiazine
Formula: C17H17F6N3O
CAS: 256325-98-1
Molecular weight: 393
m/z	intensity
33	2
34	3
37	2
38	6
39	53
40	49
41	302
42	125
43	34
44	17
45	3
47	3
50	9
51	12
52	6
53	15
54	37
55	170
56	119
57	13
58	2
59	2
62	6
63	19
64	10
65	50
66	5
67	28
68	54
69	407
70	43
71	4
72	1
73	1
74	3
75	4
76	5
77	4
78	2
79	3
80	8
81	9
82	71
83	338
84	70
85	5
86	1
88	5
89	46
90	53
91	86
92	43
93	2
94	2
95	3
96	4
97	2
101	1
102	1
103	1
104	1
105	2
106	1
107	1
108	2
109	4
110	23
112	999
113	64
114	7
116	50
117	68
118	66
119	93
120	9
121	1
122	2
123	2
124	2
125	2
128	2
129	1
132	1
136	1
138	2
140	2
142	49
143	3
144	2
145	2
148	1
149	1
150	2
151	2
152	4
154	1
157	1
159	1
162	9
163	3
165	5
167	1
171	3
172	1
173	1
177	1
178	7
179	2
180	1
183	1
184	2
187	5
190	1
191	3
192	45
193	4
194	1
197	2
204	4
205	3
207	150
208	13
209	1
221	1
232	2
235	5
236	1
240	4
241	1
248	2
254	1
255	2
256	26
257	3
261	2
267	1
273	1
274	5
275	13
276	50
277	11
278	1
282	5
283	1
309	3
310	1
321	1
322	3
323	9
324	307
325	52
326	6
391	1
392	3
393	25
394	5
395	1
