Mass Spectrum: N-[1-(4-Chloroanilino)-2,2,2-trifluoro-1-(trifluoromethyl)ethyl]nicotinamide
Formula: C15H10ClF6N3O
CAS: 256325-85-6
Molecular weight: 397
m/z	intensity
33	6
34	6
35	3
36	15
37	22
38	44
39	82
40	94
41	33
42	9
43	18
44	69
45	45
46	4
47	3
48	2
49	26
50	194
51	434
52	81
53	38
54	8
55	16
56	11
57	21
60	4
61	15
62	26
63	67
64	57
65	110
66	17
67	7
68	1
69	76
70	9
71	10
72	8
73	28
75	130
76	53
78	849
79	53
81	7
82	5
84	9
85	16
87	4
88	4
89	7
91	48
92	70
93	9
94	4
95	5
96	12
97	8
98	9
99	46
100	43
101	19
102	16
103	9
104	29
106	999
107	60
108	7
109	9
111	185
112	19
113	59
114	7
117	2
118	2
119	3
120	2
122	45
123	12
124	7
125	12
126	39
127	291
128	29
129	87
130	8
131	2
137	8
138	4
139	2
141	1
142	8
143	3
144	2
149	3
150	3
152	5
153	12
155	6
157	2
161	3
164	1
165	2
167	2
170	4
171	13
172	2
179	1
181	1
182	2
186	1
190	2
199	4
201	4
202	2
204	8
206	264
207	28
208	74
209	9
210	1
215	1
219	1
220	3
221	9
222	3
223	7
224	2
226	1
228	1
232	4
238	1
240	2
256	4
258	2
266	1
270	3
271	4
272	7
274	7
275	450
276	47
277	129
278	12
279	1
283	1
310	1
313	1
328	11
330	4
333	1
339	1
362	6
363	1
378	2
393	2
396	1
397	66
398	9
399	20
400	4
