Mass Spectrum: Ethyl 2-(4-chloroanilino)-3,3,3-trifluoro-2-nicotinamidopropionate
Formula: C17H15ClF3N3O3
CAS: 256325-76-5
Molecular weight: 401
m/z	intensity
33	1
35	1
36	5
37	5
38	10
39	19
40	9
41	8
42	3
43	9
44	12
45	5
46	8
47	2
49	6
50	47
51	159
52	29
53	9
54	3
55	2
56	2
57	3
60	1
61	4
62	6
63	19
64	12
65	32
66	4
67	2
69	9
70	2
71	3
72	3
74	13
75	34
76	17
78	449
79	29
80	2
81	1
83	1
84	2
85	2
86	1
87	1
88	1
89	2
90	6
91	9
92	18
93	2
94	1
96	5
97	1
99	16
100	11
101	6
102	7
103	3
106	999
107	58
108	3
109	1
111	64
112	6
113	17
114	2
115	1
117	1
118	2
121	2
122	12
123	5
124	1
125	3
126	10
127	97
128	10
129	28
130	2
131	1
132	1
133	1
137	4
138	32
139	4
140	9
141	1
142	1
151	1
152	2
153	9
154	2
155	3
156	1
164	1
165	1
166	8
167	2
168	3
169	1
171	1
179	1
181	1
183	1
187	1
188	1
189	1
200	3
201	2
202	1
203	1
204	1
206	59
207	6
208	16
209	2
210	2
212	1
215	1
219	1
221	15
222	3
223	6
224	2
225	1
226	1
228	1
229	1
230	2
231	1
232	1
235	1
249	1
251	1
258	1
260	1
274	1
275	1
276	1
277	1
279	57
280	8
281	14
282	2
292	1
293	1
294	1
311	1
325	1
326	2
327	3
328	95
329	15
330	27
331	5
332	7
333	1
334	2
335	1
398	1
399	1
401	34
402	7
403	9
404	2
