Mass Spectrum: N-(2,2,2-Trifluoro-1-(trifluoromethyl)-1-[2-(trifluoromethyl)anilino]ethyl)nicotinamide
Formula: C16H10F9N3O
CAS: 256325-87-8
Molecular weight: 431
m/z	intensity
33	5
36	2
37	8
38	17
39	45
40	53
41	22
42	9
43	19
44	45
45	7
46	3
47	5
48	2
49	11
50	110
51	282
52	53
53	17
55	20
56	11
57	26
58	1
61	7
62	9
63	28
64	12
65	11
66	9
67	2
68	10
69	64
70	15
71	13
72	2
73	2
74	6
75	28
76	29
78	684
79	32
81	12
82	4
83	11
84	4
85	4
87	4
88	11
89	3
90	5
91	8
92	9
93	6
94	9
95	30
96	12
97	7
98	4
99	9
101	8
102	11
103	6
104	15
106	999
107	64
108	6
109	1
110	2
112	12
113	23
114	107
115	9
116	2
118	1
119	3
120	12
122	37
123	9
124	1
125	15
126	15
127	2
128	2
130	1
131	3
132	5
133	3
135	1
139	5
140	16
141	78
142	22
143	6
145	160
146	9
147	8
149	3
150	2
152	11
153	2
156	1
157	2
159	2
160	14
161	121
162	10
167	7
168	2
170	4
171	9
172	3
173	1
185	2
187	9
190	2
195	1
197	7
201	2
202	2
206	5
213	1
215	5
216	2
217	2
218	4
219	2
223	3
225	1
232	2
235	8
236	1
238	8
240	317
241	34
242	1
245	1
251	3
255	3
256	1
258	3
265	2
266	2
267	1
270	2
271	6
272	1
288	1
289	1
290	34
291	4
306	2
307	4
309	296
310	35
311	2
327	1
362	26
363	4
412	2
430	1
431	63
432	10
433	1
