Mass Spectrum: N-[1-Anilino-2,2,2-trifluoro-1-(trifluoromethyl)ethyl]nicotinamide
Formula: C15H11F6N3O
CAS: 256326-07-5
Molecular weight: 363
m/z	intensity
33	3
34	2
36	3
37	11
38	29
39	94
40	48
41	17
42	6
43	6
44	22
45	5
47	14
49	10
50	140
51	411
52	65
53	25
54	12
55	4
56	4
57	7
60	1
61	5
62	10
63	23
64	18
65	101
66	93
67	10
69	38
70	4
71	3
73	2
74	7
75	16
76	51
77	408
78	711
79	44
80	3
81	1
82	1
83	2
84	2
87	1
88	1
89	1
90	3
91	10
92	59
93	219
94	15
95	5
96	9
97	2
99	1
100	1
101	2
102	2
103	7
106	999
107	60
108	5
109	2
111	1
112	1
113	1
114	1
115	2
116	1
118	2
119	7
120	3
122	22
123	7
124	1
125	1
126	2
127	5
128	1
129	3
130	1
135	1
140	2
141	1
142	5
145	2
147	2
149	1
151	1
152	3
153	2
154	1
165	1
167	4
168	2
169	3
170	4
172	364
173	30
174	2
179	1
182	6
183	1
184	1
185	1
187	18
188	2
190	5
195	1
197	3
198	1
199	1
202	1
215	3
217	1
218	1
219	1
220	2
222	4
223	3
224	1
232	1
237	1
238	3
239	6
241	503
242	50
243	2
251	2
258	2
270	1
271	1
294	42
295	6
296	1
361	1
363	116
364	15
365	2
