Mass Spectrum: N-(1-[4-Chloro-2-(trifluoromethyl)anilino]-2,2,2-trifluoro-1-(trifluoromethyl)ethyl)-p-toluamide
Formula: C18H12ClF9N2O
CAS: 256326-14-4
Molecular weight: 478
m/z	intensity
33	4
34	3
36	7
37	3
38	8
39	39
40	43
41	17
42	3
43	8
44	28
45	6
47	2
50	13
51	16
52	5
53	6
54	2
55	6
56	4
57	9
59	1
60	1
61	4
62	10
63	31
65	116
66	7
67	3
69	42
70	6
71	2
72	2
73	4
74	7
75	12
76	4
77	6
78	3
79	2
80	2
81	4
82	1
83	3
84	3
85	3
86	3
87	4
88	6
89	36
90	37
91	300
92	23
93	6
94	2
95	3
96	5
97	2
98	2
99	4
100	3
101	2
104	3
105	1
106	5
107	2
108	3
109	2
110	2
111	4
112	4
113	7
114	2
116	5
117	12
119	999
120	73
121	5
123	1
124	3
125	9
126	2
127	1
128	1
129	5
130	2
131	3
132	7
133	3
135	151
136	16
137	2
138	3
139	4
141	3
143	10
144	12
145	3
147	3
148	14
149	3
150	5
151	3
155	2
156	1
157	1
158	2
159	4
160	4
161	1
162	2
163	1
166	1
167	2
168	1
169	1
170	4
171	4
173	2
175	19
176	3
177	5
179	66
180	5
181	20
182	3
183	2
185	1
186	10
187	2
188	4
193	1
194	10
195	56
196	8
197	17
198	2
200	1
201	4
202	1
203	2
204	1
205	2
206	1
219	1
220	1
221	9
223	3
224	2
228	1
229	4
231	2
236	1
238	1
239	4
240	3
241	2
251	1
255	1
256	1
258	3
264	1
269	3
270	1
271	2
272	2
274	127
275	13
276	37
277	5
284	9
285	2
289	2
312	1
313	3
314	2
317	1
322	2
324	16
325	2
326	6
340	1
341	1
343	80
344	11
345	23
346	3
409	5
410	1
411	1
443	7
444	2
476	2
478	38
479	8
480	12
481	2
