Mass Spectrum: N-[2,2,2-Trifluoro-1-(2-pyrimidinylamino)-1-(trifluoromethyl)ethyl]-p-toluamide
Formula: C15H12F6N4O
CAS: 256325-97-0
Molecular weight: 378
m/z	intensity
33	1
34	1
37	3
38	8
39	51
40	30
41	26
42	10
43	9
44	11
45	6
50	15
51	24
52	36
53	49
54	4
55	3
56	2
57	3
59	2
61	2
62	9
63	27
64	12
65	121
66	9
67	9
68	34
69	35
70	2
71	3
74	3
75	3
76	6
77	8
79	184
80	12
81	2
82	1
83	2
84	1
85	1
86	1
87	2
88	2
89	39
90	43
91	311
92	26
93	3
95	120
96	9
97	2
98	1
99	1
100	1
101	1
102	2
103	1
104	1
105	1
106	3
107	1
108	1
109	1
111	1
112	1
113	1
115	2
116	6
117	14
119	999
120	78
121	20
122	2
124	1
126	2
127	1
129	1
132	1
133	1
135	36
136	4
141	2
142	2
143	1
144	1
152	1
154	1
155	2
156	2
169	1
170	1
171	3
172	1
174	36
175	3
176	2
183	1
184	8
185	2
186	1
189	1
190	2
192	2
194	1
196	1
197	1
211	1
212	3
213	1
214	1
222	1
224	11
225	3
240	1
241	2
242	5
243	29
244	25
245	2
260	1
282	1
283	1
284	1
287	1
306	1
307	2
309	136
310	21
311	2
378	20
379	4
