Mass Spectrum: Ethyl 3,3,3-trifluoro-2-(2-phenylacetamido)-2-[3-(trifluoromethyl)anilino]propionate
Formula: C20H18F6N2O3
CAS: 256326-00-8
Molecular weight: 448
m/z	intensity
33	1
34	1
36	2
37	2
38	6
39	38
40	21
41	14
42	4
43	12
44	25
45	7
46	1
47	1
50	13
51	17
52	7
53	2
54	2
55	7
56	3
57	8
58	2
60	2
61	1
62	5
63	24
64	13
65	106
66	8
67	2
69	15
70	4
71	4
73	2
74	4
75	12
76	5
77	7
78	3
79	3
81	3
82	1
83	4
84	2
85	1
87	3
89	45
91	999
92	108
93	9
94	3
95	17
96	10
97	2
98	1
99	3
101	2
102	3
104	1
105	3
106	4
107	2
109	2
110	1
111	7
112	1
113	6
114	11
115	3
116	3
117	9
118	61
119	22
120	4
121	4
122	2
123	2
124	1
125	9
126	9
127	3
129	1
132	2
133	3
134	4
135	7
136	7
138	1
139	2
140	5
141	4
142	12
143	5
145	140
146	11
147	1
149	1
151	1
152	5
159	2
160	9
161	66
162	9
163	1
167	4
168	1
170	6
171	5
172	44
173	5
174	1
185	1
186	3
187	12
188	2
189	3
190	1
192	1
195	2
197	2
199	1
200	13
201	3
204	1
213	5
214	3
215	1
216	2
217	3
221	4
222	1
231	2
232	2
233	9
234	1
235	13
236	4
237	7
238	6
240	109
241	12
242	3
243	2
244	2
250	3
251	1
255	29
257	581
258	59
259	4
261	34
262	5
266	1
267	1
268	1
269	1
283	12
284	2
286	7
287	3
290	1
291	6
292	2
294	5
295	1
311	2
313	26
314	10
315	1
372	4
375	160
376	28
377	3
379	3
429	3
448	35
449	8
450	1
