Mass Spectrum: 1-[3,3-Di(trifluoromethyl)-2-azabicyclo[2.2.1]hept-5-en-2-yl]propan-1-one
Formula: C11H11F6NO
CAS: 256325-70-9
Molecular weight: 287
m/z	intensity
33	3
34	0
35	0
37	3
38	19
39	95
40	36
41	15
42	11
43	9
44	6
45	2
46	1
47	2
48	0
50	7
51	25
52	11
53	16
54	13
55	45
57	999
59	7
61	1
62	2
63	15
66	502
67	101
69	60
71	6
72	8
73	17
74	7
75	7
77	17
78	8
79	9
80	7
81	3
82	2
83	6
84	2
85	2
87	1
88	4
89	4
90	2
91	7
92	25
93	54
94	17
95	10
96	10
97	2
98	1
99	2
100	2
101	4
102	1
103	0
104	1
105	1
106	1
107	2
108	3
109	1
110	2
112	3
113	4
114	6
115	11
116	7
117	0
118	0
119	4
120	8
121	4
122	6
124	5
125	2
127	22
128	4
129	0
130	0
131	1
132	2
133	4
134	2
135	4
136	10
137	2
138	1
139	1
140	5
141	7
142	43
143	4
145	30
146	4
147	3
148	1
149	0
150	1
151	2
152	6
153	1
154	1
155	0
156	0
157	1
158	6
159	3
160	4
162	563
163	46
164	6
165	4
166	9
167	0
168	1
169	2
170	2
171	0
172	1
173	2
174	1
175	1
176	1
177	2
178	2
179	0
180	0
181	1
183	2
184	2
185	0
186	0
188	2
189	1
190	5
191	2
192	18
193	4
195	39
198	2
199	0
200	2
201	1
202	1
203	0
204	3
205	3
206	0
207	0
208	0
210	8
212	53
213	6
214	23
215	56
216	5
218	78
219	7
220	3
221	3
222	17
223	1
224	0
228	0
229	1
230	14
231	58
232	26
233	3
236	0
238	0
242	0
243	0
244	1
245	0
246	1
247	0
248	0
256	0
258	6
259	1
260	0
264	0
265	0
266	0
268	1
269	0
270	1
272	86
273	9
274	0
284	0
287	294
288	37
289	3
290	0
