Mass Spectrum: Ethyl 3,3,3-trifluoro-2-[(6-methyl-2-pyridyl)amino]-2-nicotinamidopropionate
Formula: C17H17F3N4O3
CAS: 256325-77-6
Molecular weight: 382
m/z	intensity
33	1
34	1
37	7
38	15
39	62
40	23
41	25
42	21
43	11
44	15
45	3
46	1
48	1
49	5
50	53
51	200
52	40
53	26
54	9
55	5
56	3
57	5
58	1
60	1
61	2
62	4
63	8
64	17
65	65
66	28
67	7
68	6
69	9
70	3
71	3
73	1
74	1
75	4
76	11
78	479
79	38
80	93
81	64
82	4
83	3
84	1
87	1
88	1
89	1
90	3
91	27
92	119
93	27
94	3
96	3
97	1
99	1
103	5
106	999
107	79
108	151
109	13
110	3
111	1
112	2
113	1
114	2
117	1
118	2
119	10
120	4
122	13
123	4
127	1
129	1
131	1
132	1
133	3
134	9
135	5
136	1
147	1
149	1
157	1
162	1
169	1
170	1
171	2
182	2
183	2
184	3
185	1
187	5
188	3
189	4
195	1
196	3
199	1
201	1
202	3
203	2
204	6
205	29
206	3
210	1
212	2
213	1
214	2
215	4
216	1
229	1
230	3
231	5
232	1
239	3
240	1
241	1
260	6
261	3
274	1
276	2
306	1
307	3
308	6
309	218
310	33
311	4
313	4
337	2
382	12
383	2
