Mass Spectrum: Ethyl 2-morpholino-6-(3-pyridyl)-4-(trifluoromethyl)-4H-1,3,5-oxadiazine-4-carboxylate
Formula: C16H17F3N4O4
CAS: 256325-79-8
Molecular weight: 386
m/z	intensity
37	1
39	4
40	13
41	15
42	176
43	17
44	17
45	38
46	1
47	1
49	2
50	19
51	52
52	8
53	7
54	19
55	28
56	75
57	12
58	3
59	1
60	1
62	1
63	2
64	3
65	1
67	2
68	3
70	457
71	17
72	4
73	1
74	2
75	3
76	12
77	33
78	90
79	7
81	1
82	2
84	10
85	8
86	14
87	2
90	1
91	1
92	1
93	1
94	1
96	13
97	1
98	1
100	1
101	1
102	3
104	88
105	18
106	74
107	5
108	1
109	2
110	1
112	15
114	999
115	54
116	5
117	1
118	1
122	1
123	4
124	2
128	1
129	1
130	1
131	1
133	1
142	1
149	2
150	1
151	3
152	1
160	1
168	2
169	1
171	2
177	1
179	1
188	1
189	1
199	1
209	1
217	1
227	15
228	2
235	1
242	4
255	1
280	1
282	1
309	1
310	3
311	4
312	10
313	361
314	54
315	6
316	1
