Mass Spectrum: Ethyl 2-(3-chloroanilino)-3,3,3-trifluoro-2-nicotinamidopropionate
Formula: C17H15ClF3N3O3
CAS: 256325-74-3
Molecular weight: 401
m/z	intensity
35	2
36	5
37	5
38	9
39	18
40	11
41	9
42	4
43	9
44	14
45	5
46	6
47	2
48	1
49	4
50	41
51	142
52	24
53	9
54	3
55	5
56	3
57	7
59	1
60	2
61	4
62	6
63	17
64	14
65	31
66	5
67	2
69	11
70	3
71	4
72	2
73	6
75	40
76	15
78	397
79	30
80	2
81	1
83	3
84	3
85	4
86	1
87	1
88	1
89	2
90	6
91	7
92	17
93	3
94	2
96	5
97	2
98	1
99	10
100	9
101	5
102	6
103	4
106	999
107	60
108	5
110	5
111	67
112	9
113	20
114	2
115	1
116	1
118	6
119	1
122	12
123	6
125	3
126	9
127	78
128	8
129	22
130	2
131	1
133	1
137	3
138	24
139	3
140	8
142	1
149	1
152	3
153	4
154	1
155	2
156	1
157	1
165	1
166	7
167	1
168	3
171	4
172	1
179	1
181	1
184	1
186	1
187	1
188	1
198	1
199	1
200	1
201	3
202	1
203	1
204	1
206	44
207	6
208	13
209	2
210	2
212	1
215	1
220	1
221	16
222	3
223	6
224	3
225	1
226	1
228	1
229	1
230	1
231	1
232	1
235	1
258	1
274	1
275	2
276	1
277	1
279	21
280	4
281	7
282	1
301	1
310	1
311	1
325	1
326	3
328	115
329	18
330	34
331	6
332	5
333	1
334	1
335	1
399	1
401	25
402	4
403	8
404	1
