Mass Spectrum: 1,1-(Diethylcarbamoyl)phthalimide
Formula: C13H14N2O3
CAS: 25643-08-7
Molecular weight: 246
m/z	intensity
43	70
45	67
50	37
56	86
70	49
71	55
72	999
73	47
76	65
90	195
104	89
147	64
148	33
174	596
175	72
246	140
