Mass Spectrum: Benzothiazole-2-carboxaldehyde, o-(4-chlorobenzyl)oxime
Formula: C15H11ClN2OS
CAS: 256471-04-2
Molecular weight: 302
m/z	intensity
35	0
37	7
38	16
39	54
40	3
41	1
43	0
45	64
46	1
47	3
49	5
50	57
51	58
52	12
53	3
54	0
55	0
56	0
57	6
58	9
59	1
60	1
61	7
62	17
63	82
64	26
65	12
66	0
67	0
69	49
70	11
71	4
72	1
73	13
74	20
75	62
76	36
77	59
78	9
79	3
80	1
81	8
82	18
83	3
84	4
85	6
86	3
87	4
89	113
90	88
91	8
92	0
93	5
94	6
95	6
96	2
97	1
99	36
100	2
101	12
102	6
103	38
104	3
105	3
106	14
107	19
108	22
109	6
111	35
112	5
113	12
114	2
115	0
116	0
118	0
119	2
120	24
121	4
122	9
123	2
125	999
126	81
127	332
128	25
129	1
133	9
134	46
135	31
136	5
137	1
139	14
140	3
141	6
142	1
143	0
144	0
146	34
147	13
148	4
150	8
151	0
152	0
160	9
161	4
162	9
163	8
164	1
165	0
166	0
175	0
177	20
178	3
179	1
190	0
204	0
208	0
209	0
210	0
222	0
223	0
224	0
234	0
235	0
236	2
237	1
238	0
249	0
250	0
270	0
272	6
273	1
274	2
275	0
285	61
286	11
287	23
288	3
289	1
302	126
303	23
304	48
305	8
306	2
307	0
