Mass Spectrum: N,N-Dimethylsuccinamic acid
Formula: C6H11NO3
CAS: 2564-95-6
Molecular weight: 145
m/z	intensity
15	12
18	9
26	15
27	64
29	79
30	17
31	10
39	8
40	4
41	26
42	225
43	104
44	999
45	846
46	90
53	13
54	10
55	363
56	93
57	35
58	86
63	7
68	7
70	6
71	8
72	531
73	189
74	15
83	6
84	6
86	16
90	5
98	85
99	35
100	240
101	228
102	16
113	8
114	31
115	17
117	65
127	114
128	42
137	15
142	22
143	6
144	6
145	291
146	20
