Mass Spectrum: 1-Methylbarbituric acid
Formula: C5H6N2O3
CAS: 2565-47-1
Molecular weight: 142
m/z	intensity
27	402
29	72
41	71
42	133
43	360
44	335
53	49
54	64
55	266
56	999
57	48
67	13
69	23
70	89
71	76
72	171
77	19
83	19
86	20
87	17
97	13
99	118
100	14
113	25
114	62
115	50
128	22
142	387
143	32
144	5
