Mass Spectrum: 2,6-Octadiene, 1-methoxy-3,7-dimethyl-, (E)-
Formula: C11H20O
CAS: 2565-82-4
Molecular weight: 168
m/z	intensity
26	1
27	42
28	9
29	48
30	2
33	11
37	1
38	4
39	120
40	28
41	588
42	27
43	35
45	111
46	3
50	7
51	23
52	12
53	111
54	12
55	46
57	24
58	10
59	36
60	1
62	2
63	6
64	1
65	45
66	11
67	281
68	294
69	999
70	49
71	16
72	2
73	69
74	2
75	1
77	36
78	7
79	46
80	80
81	47
83	36
84	6
85	161
86	29
87	2
89	1
91	29
92	35
93	166
94	32
97	20
98	76
99	54
100	4
103	2
104	1
105	11
106	3
107	40
108	12
111	46
112	10
113	3
115	1
117	1
119	4
120	1
121	129
122	15
123	111
124	11
125	43
135	1
136	48
137	7
153	19
154	2
167	1
168	15
169	2
