Mass Spectrum: Isothiazol-3(2H)-one, 4,5-dichloro-
Formula: C3HCl2NOS
CAS: 25658-72-4
Molecular weight: 169
m/z	intensity
33	454
35	288
36	120
37	91
38	212
40	564
42	101
44	625
46	744
47	999
49	205
50	29
51	13
52	54
53	40
54	42
56	311
57	45
59	186
60	73
62	699
64	266
65	15
67	37
68	21
70	245
72	58
73	54
74	38
75	108
76	16
77	19
79	537
80	407
81	174
82	296
84	112
85	57
87	401
89	141
91	691
93	257
94	94
95	36
96	53
97	17
98	3
99	5
102	6
106	280
108	103
109	1
110	10
114	2
117	14
119	7
123	20
126	452
128	289
130	45
134	29
135	25
141	9
167	12
169	554
171	365
173	79
