Mass Spectrum: 1-Cyclopentene-1-carboxylic acid, methyl ester
Formula: C7H10O2
CAS: 25662-28-6
Molecular weight: 126
m/z	intensity
24	0
25	1
26	13
27	56
28	5
29	36
30	7
31	13
33	2
36	0
37	18
38	51
39	313
40	69
41	313
42	17
43	11
44	2
45	14
46	0
47	0
49	2
50	15
51	29
52	12
53	36
54	8
55	24
56	2
57	2
58	0
59	86
60	3
61	8
62	16
63	32
64	10
65	223
66	271
67	999
68	79
69	9
70	2
71	5
72	1
73	0
74	0
77	6
78	2
79	12
80	3
81	10
82	3
83	26
84	4
85	1
87	4
88	0
89	0
91	1
92	3
93	36
94	71
95	550
96	47
97	15
98	19
99	1
100	0
105	0
106	0
107	0
108	0
109	1
111	73
112	5
113	0
115	0
120	0
124	1
125	12
126	371
127	32
128	3
129	0
