Mass Spectrum: 2-Methylamino-3-methylbutanoic acid
Formula: C6H13NO2
CAS: 2566-32-7
Molecular weight: 131
m/z	intensity
27	70
29	53
30	216
31	37
39	68
41	98
42	474
43	76
44	66
45	26
54	19
55	205
56	59
57	27
58	11
60	29
70	163
71	172
72	79
74	51
80	56
82	55
86	999
87	73
88	687
89	47
98	5
116	6
119	7
131	13
132	21
133	2
