Mass Spectrum: 1-Methyl-2-carbomethoxyaziridine
Formula: C5H9NO2
CAS: 25662-13-9
Molecular weight: 115
m/z	intensity
27	238
28	946
29	182
30	126
31	14
40	28
41	137
42	999
43	73
44	36
45	476
46	19
54	56
55	59
56	272
57	101
58	14
59	42
60	7
70	56
71	9
72	28
73	4
84	70
85	17
87	50
88	15
100	224
101	14
114	11
115	93
116	6
117	1
