Mass Spectrum: N-Methyl-dl-leucine
Formula: C7H15NO2
CAS: 2566-33-8
Molecular weight: 145
m/z	intensity
33	4
39	77
40	38
41	190
42	391
43	228
44	470
45	43
46	6
47	2
48	0
49	3
50	4
51	6
52	4
53	15
54	14
55	35
56	96
57	86
58	619
59	25
60	15
61	2
62	0
63	1
64	0
65	2
66	1
67	8
68	16
69	20
70	58
71	13
72	2
73	13
74	34
75	3
77	1
78	0
79	0
80	2
81	2
82	6
83	6
84	29
85	5
86	14
88	341
89	46
90	3
91	1
93	2
95	2
96	1
97	3
98	10
100	999
101	66
102	5
103	0
104	1
105	1
107	0
109	0
110	1
111	1
112	0
114	1
115	2
116	1
118	1
121	0
129	2
130	2
131	1
132	0
141	0
143	0
144	0
145	12
146	0
147	0
