Mass Spectrum: 1,2,3-Selenadiazole, 4-phenyl-
Formula: C8H6N2Se
CAS: 25660-64-4
Molecular weight: 210
m/z	intensity
26	12
27	20
28	57
36	0
37	16
38	24
39	67
40	3
44	0
49	10
50	104
51	127
52	51
53	3
57	1
58	1
60	2
61	20
62	31
63	76
64	8
65	2
73	10
74	79
75	68
76	120
77	31
78	7
79	1
80	12
81	1
82	2
85	3
86	5
87	10
88	2
89	54
90	16
91	19
92	3
93	11
95	2
97	2
98	11
99	5
100	3
101	19
102	999
103	80
104	3
105	2
106	3
107	1
113	2
114	2
115	7
116	1
117	14
118	2
119	3
125	1
126	2
127	4
128	3
129	9
130	6
131	2
132	1
137	1
138	1
139	4
141	10
142	1
143	2
151	1
152	2
153	3
154	3
155	1
156	3
157	1
158	2
160	2
176	7
177	2
178	76
179	70
180	199
181	22
182	420
183	37
184	74
185	6
206	3
207	3
208	9
210	18
211	1
212	3
