Mass Spectrum: Cyclodecylamine
Formula: C10H21N
CAS: 2567-87-5
Molecular weight: 155
m/z	intensity
29	100
30	160
39	130
41	220
42	60
43	130
44	80
53	60
54	90
55	170
56	430
57	120
67	110
68	220
69	160
70	150
80	50
81	60
82	410
83	70
84	100
94	20
96	510
97	100
98	50
110	999
111	110
112	100
124	130
138	50
152	60
153	30
154	20
155	10
