Mass Spectrum: Tetraethylammonium perchlorate
Formula: C8H20ClNO4
CAS: 2567-83-1
Molecular weight: 229
m/z	intensity
12	1
13	1
14	5
15	24
16	7
17	2
18	7
24	2
25	8
26	67
27	143
28	256
29	140
30	283
31	14
32	7
35	9
36	101
37	3
38	32
39	6
40	5
41	25
42	88
43	25
44	200
45	10
46	4
48	1
49	1
51	9
52	10
53	3
54	12
55	9
56	95
57	18
58	314
59	11
64	8
66	2
67	26
68	5
69	9
70	42
71	23
72	50
73	4
74	2
77	1
79	1
80	4
81	1
82	4
83	1
84	34
85	4
86	999
87	60
88	1
91	1
93	1
95	1
96	1
97	2
98	3
99	35
100	155
101	191
102	19
103	1
108	14
110	13
113	5
114	1
115	2
128	1
129	3
130	655
131	60
132	2
