Mass Spectrum: Propane, 2,2'-[methylenebis(oxy)]bis[2-methyl-
Formula: C9H20O2
CAS: 2568-93-6
Molecular weight: 160
m/z	intensity
25	1
26	14
27	67
28	150
29	142
30	14
31	62
32	1
33	0
35	0
36	0
37	6
38	16
39	111
40	34
41	493
42	51
43	75
44	4
45	4
47	0
48	0
49	4
50	13
51	15
52	3
53	16
54	6
55	55
56	161
57	999
58	49
59	545
60	19
61	2
64	1
65	41
66	0
67	0
69	0
70	0
71	0
72	4
73	3
75	1
79	0
83	0
85	0
87	18
88	1
89	36
90	1
91	0
97	0
98	0
103	11
104	0
105	0
112	0
113	1
115	199
116	15
117	0
145	17
146	1
159	3
160	0
