Mass Spectrum: 1,3-Dioxolane, 2-(1,1-dimethylethyl)-
Formula: C7H14O2
CAS: 2568-29-8
Molecular weight: 130
m/z	intensity
26	10
27	40
28	130
29	40
32	30
39	30
40	10
41	60
42	10
43	50
44	10
45	140
46	10
51	10
52	10
53	10
55	30
56	15
57	60
58	10
69	10
70	30
71	20
73	999
74	40
75	10
77	10
78	30
79	10
85	10
86	10
91	10
99	10
100	10
115	30
116	10
129	20
130	10
