Mass Spectrum: 3-(1-Methylpropyl)-2-hydroxy-2-cyclopenten-1-one
Formula: C9H14O2
CAS: 25684-05-3
Molecular weight: 154
m/z	intensity
39	174
41	249
42	14
43	181
45	60
53	71
55	181
56	3
57	113
65	3
66	14
67	74
68	3
69	142
70	17
77	10
79	28
80	3
81	3
83	39
95	3
97	135
98	14
99	74
111	17
112	3
125	999
126	46
139	181
154	370
155	3
