Mass Spectrum: Bicyclo[3.3.1]nonan-2-one
Formula: C9H14O
CAS: 2568-17-4
Molecular weight: 138
m/z	intensity
26	14
27	238
28	125
29	124
38	13
39	247
40	60
41	401
42	43
43	27
44	52
50	20
51	58
52	32
53	163
54	273
55	271
56	25
57	27
63	12
65	43
66	58
67	622
68	141
69	64
70	19
71	8
77	59
78	38
79	296
80	72
81	377
82	152
83	88
84	9
85	10
91	58
92	46
93	29
94	999
95	163
96	120
97	30
108	7
109	71
110	21
111	2
120	44
121	4
138	305
139	30
140	1
