Mass Spectrum: 2-Propyn-1-amine, N,N-dimethyl-3-phenyl-
Formula: C11H13N
CAS: 2568-65-2
Molecular weight: 159
m/z	intensity
27	22
28	23
29	43
30	21
31	10
39	37
40	4
41	29
42	49
43	3
44	63
45	31
50	6
51	17
52	7
53	4
54	3
55	14
56	7
57	66
58	145
59	46
60	3
62	5
63	56
64	9
65	74
66	7
67	18
68	4
69	2
70	1
71	1
73	2
74	24
75	14
76	12
77	27
78	17
79	7
80	11
81	56
82	517
83	26
84	4
85	1
86	0
87	7
88	19
89	143
90	13
91	67
92	7
93	1
94	1
95	1
96	1
97	1
98	1
100	1
101	2
102	24
103	26
104	11
105	11
106	1
110	0
111	1
113	25
114	42
115	999
116	188
117	61
118	32
119	3
120	2
142	14
143	80
144	37
145	4
146	0
154	1
156	7
157	28
158	851
159	516
160	60
161	5
