Mass Spectrum: Pyridine, 3-(phenylazo)-
Formula: C11H9N3
CAS: 2569-55-3
Molecular weight: 183
m/z	intensity
50	529
51	559
52	80
62	20
63	50
64	90
65	60
77	999
78	490
79	50
105	420
106	50
154	130
155	20
183	629
184	90
