Mass Spectrum: 3-Benzyl-2-(2-furyl)-3,4-dihydro-4-quinazolinone
Formula: C19H14N2O2
CAS: 256954-79-7
Molecular weight: 302
m/z	intensity
38	21
39	154
40	25
41	27
44	12
50	61
51	78
52	19
62	16
63	75
64	54
65	288
66	21
68	57
70	13
74	11
75	34
76	86
77	133
78	31
79	13
85	21
88	12
89	77
90	132
91	999
92	89
93	25
94	17
95	13
99	91
101	11
102	54
103	59
104	68
105	29
113	12
114	25
115	49
116	16
119	10
120	10
127	18
128	30
129	19
130	41
136	17
140	37
141	19
142	36
143	12
151	17
152	16
154	11
157	25
165	11
168	29
169	59
170	47
180	25
195	61
196	347
197	170
198	123
199	16
208	13
225	36
233	11
234	11
247	10
271	22
273	530
274	113
275	14
285	33
301	90
302	717
303	152
304	19
