Mass Spectrum: Pyridine, 4-(phenylazo)-
Formula: C11H9N3
CAS: 2569-58-6
Molecular weight: 183
m/z	intensity
50	559
51	559
52	110
62	20
63	40
64	40
77	999
78	290
79	30
105	420
106	30
154	70
183	559
184	70
