Mass Spectrum: 4'-Acetamido-3',4-dinitrodiphenylsulfide
Formula: C14H11N3O5S
CAS: 256921-79-6
Molecular weight: 333
m/z	intensity
43	999
45	81
47	14
48	4
49	43
50	44
51	50
52	35
53	7
54	4
55	3
57	6
58	6
59	2
60	2
61	3
62	20
63	64
64	25
65	13
66	2
67	2
69	54
70	18
71	9
72	3
74	12
75	13
76	27
77	20
78	31
79	10
80	3
81	3
82	15
83	4
84	32
86	25
87	3
88	8
89	11
90	11
91	45
92	4
93	6
94	5
95	35
96	42
97	7
98	3
99	2
100	1
101	2
102	5
103	2
104	5
105	4
106	3
107	6
108	16
109	6
110	3
111	2
112	1
113	3
114	4
115	14
116	2
117	1
118	1
119	2
120	3
121	4
122	24
123	25
124	5
125	6
126	10
127	16
128	4
129	1
130	1
132	2
133	10
134	5
135	1
136	3
137	3
138	5
139	15
140	13
141	3
142	0
143	1
144	1
145	5
146	4
147	4
148	1
149	1
150	1
151	1
152	7
153	9
154	10
155	3
156	0
157	1
158	5
159	5
160	3
161	0
162	0
164	6
165	14
166	6
167	6
169	35
170	16
171	64
172	19
173	4
174	1
178	1
179	1
181	0
182	4
183	7
184	14
185	11
186	18
187	13
188	5
189	2
194	0
196	35
197	26
198	67
199	37
200	5
201	33
202	4
203	1
209	1
210	12
211	6
212	2
213	5
214	3
215	4
216	3
218	87
219	9
220	5
226	1
227	2
228	26
229	6
230	3
231	1
233	8
234	0
239	0
240	0
241	12
242	2
243	3
244	4
245	81
246	14
247	6
248	0
256	0
257	2
259	1
260	4
261	6
262	1
273	1
274	2
275	12
276	2
277	0
286	0
287	27
288	9
289	0
290	1
291	665
292	112
293	53
294	5
303	2
304	0
317	2
333	400
334	56
335	21
336	3
