Mass Spectrum: Veratryl alcohol, .alpha.-[(methylnitrosamino)methyl-6-nitro-], (-)-
Formula: C11H15N3O6
CAS: 25696-28-0
Molecular weight: 285
m/z	intensity
30	214
31	146
32	150
38	60
39	210
40	37
41	195
42	879
43	676
44	999
45	188
46	48
50	150
51	312
52	184
53	161
54	75
55	112
56	82
57	157
58	308
59	90
60	45
62	60
63	165
64	90
65	203
66	112
67	94
68	78
69	135
70	63
71	63
72	26
73	300
74	105
75	112
76	112
77	338
78	146
79	289
80	142
88	105
89	82
90	75
91	109
92	142
93	233
94	157
95	244
103	52
104	60
105	105
106	90
107	195
108	210
109	142
110	97
119	86
120	86
121	176
122	157
123	150
124	86
125	97
133	45
134	48
135	188
136	996
137	233
138	199
139	101
149	214
150	263
151	236
161	48
164	999
165	548
166	188
167	289
168	82
179	86
180	150
181	135
182	67
192	63
194	244
195	67
196	63
211	999
212	597
213	105
238	165
239	18
240	105
241	37
285	330
