Mass Spectrum: 3-Methylbenzyl mercaptan
Formula: C8H10S
CAS: 25697-56-7
Molecular weight: 138
m/z	intensity
15	4
18	1
26	4
27	41
29	1
32	1
33	12
34	2
35	1
36	1
37	6
38	17
39	87
40	6
41	9
45	86
46	4
47	9
49	2
50	34
51	73
52	23
53	19
54	2
55	1
57	1
58	3
59	5
60	1
61	7
62	20
63	53
64	11
65	48
66	6
67	15
68	28
69	16
70	2
71	4
73	2
74	13
75	10
76	11
77	168
78	57
79	176
80	11
81	1
82	2
83	1
84	1
85	2
86	4
87	3
88	1
89	21
90	6
91	57
92	9
93	14
94	1
95	2
97	7
98	2
99	1
101	2
102	14
103	105
105	999
106	91
107	4
108	1
109	3
111	1
121	10
122	3
123	5
134	9
135	17
136	4
138	504
139	49
140	26
141	2
