Mass Spectrum: 7-Methylenecycloocta-1,3,5-triene
Formula: C9H10
CAS: 2570-13-0
Molecular weight: 118
m/z	intensity
33	5
34	7
35	2
36	4
37	12
38	36
39	282
40	41
41	30
42	3
43	4
44	4
45	4
46	5
47	4
48	4
49	4
50	77
51	162
52	71
53	39
54	2
55	1
56	2
57	20
58	43
59	19
60	1
61	9
62	42
63	122
64	26
65	132
66	22
67	2
68	1
69	6
70	3
71	3
72	2
73	2
74	19
75	22
76	19
77	135
78	362
79	53
80	2
81	3
82	3
83	3
84	1
85	2
86	10
87	10
88	6
89	71
90	41
91	392
92	43
93	2
94	3
95	1
96	2
98	1
99	1
100	1
101	4
102	29
103	139
104	17
105	2
113	33
114	11
115	332
116	144
117	999
118	622
119	53
120	2
