Mass Spectrum: Heptanoic acid, 2-methyl-6-oxo-, methyl ester
Formula: C9H16O3
CAS: 2570-90-3
Molecular weight: 172
m/z	intensity
26	15
27	102
29	109
30	8
31	27
33	6
36	4
37	5
38	5
39	103
40	28
41	216
42	117
43	999
44	73
45	75
46	5
47	5
48	8
49	7
50	7
51	12
52	8
53	32
54	17
55	239
56	79
57	112
58	188
59	396
60	29
61	19
62	3
63	6
64	4
65	9
66	4
67	22
68	14
69	264
70	48
71	73
72	18
73	92
74	21
75	12
76	9
77	15
78	23
79	11
80	6
81	14
82	48
83	67
84	50
85	81
86	13
87	263
88	479
89	38
90	5
91	16
92	5
93	6
94	15
95	64
96	14
97	244
98	114
99	18
100	5
101	167
102	51
103	8
104	8
105	10
111	12
112	125
113	170
114	44
115	504
116	52
117	10
122	9
123	12
125	13
126	3
127	5
128	22
129	55
130	29
131	8
139	3
140	230
141	191
142	21
143	3
144	9
145	2
154	4
157	5
172	45
173	6
