Mass Spectrum: Bicyclo[6.1.0]non-1-ene
Formula: C9H14
CAS: 2570-06-1
Molecular weight: 122
m/z	intensity
53	290
54	150
55	160
65	140
66	210
67	540
68	430
77	360
78	150
79	999
80	650
81	590
91	380
92	120
93	890
94	610
107	640
122	250
