Mass Spectrum: Molsidomine
Formula: C9H14N4O4
CAS: 25717-80-0
Molecular weight: 242
m/z	intensity
42	200
43	70
44	68
45	16
48	2
49	1
52	3
53	20
54	79
55	162
56	999
57	220
58	37
67	12
68	25
69	43
70	140
71	5
72	5
73	6
81	19
83	9
84	14
85	71
86	407
87	166
88	16
97	1
99	1
100	3
101	51
102	17
111	3
113	65
129	10
139	7
140	413
141	40
168	16
197	25
198	2
207	1
212	10
242	63
