Mass Spectrum: Benzoic acid, 2-(diethylamino)ethyl ester
Formula: C13H19NO2
CAS: 2572-39-6
Molecular weight: 221
m/z	intensity
26	6
27	70
28	136
29	188
30	385
31	7
39	18
41	36
42	184
43	50
44	110
45	6
50	38
51	176
52	12
53	5
54	21
55	28
56	194
57	58
58	447
59	23
65	5
67	4
68	7
69	10
70	75
71	129
72	55
74	12
75	11
76	29
77	620
78	40
79	7
83	4
84	152
85	22
86	999
87	395
88	10
91	7
97	5
98	15
99	604
100	97
101	5
103	17
104	11
105	617
106	54
114	8
122	6
149	581
150	67
151	6
176	3
192	4
206	65
207	11
220	16
221	31
222	13
