Mass Spectrum: 1,3-Dioxane-4,6-dione, 5-[5-(2,4-difluorophenyl)-2-furfurylideno]-2,2-dimethyl-
Formula: C17H12F2O5
CAS: 257295-16-2
Molecular weight: 334
m/z	intensity
37	8
38	20
39	64
40	54
41	48
43	999
44	111
45	12
50	16
51	37
53	216
54	14
55	29
56	23
57	80
58	44
59	15
62	89
63	313
64	15
66	13
68	18
69	35
70	19
71	19
74	18
75	30
77	12
78	25
79	19
81	33
82	18
83	14
84	26
85	18
86	11
87	17
88	7
90	8
91	8
93	11
94	7
99	18
101	71
102	72
103	7
105	14
106	7
107	16
110	21
112	27
113	145
114	13
119	7
124	21
125	63
126	14
127	14
131	33
138	31
139	14
141	204
142	12
149	36
150	106
151	599
152	63
155	14
156	111
157	73
163	13
164	30
167	26
171	13
175	422
176	55
177	21
180	215
181	23
195	21
204	571
205	82
206	11
208	554
209	67
220	12
232	817
233	118
234	10
248	59
249	19
276	342
277	155
278	20
319	8
334	350
335	50
336	9
