Mass Spectrum: 1H-Tetrazole, 5,5'-[methylenebis(thio)]bis[1-phenyl-
Formula: C15H12N8S2
CAS: 25746-68-3
Molecular weight: 368
m/z	intensity
50	100
51	430
63	100
64	150
65	630
76	130
77	999
91	270
117	520
118	390
119	80
131	170
135	120
149	910
150	70
151	420
223	210
339	50
367	60
368	10
