Mass Spectrum: 5(4H)-Oxazolone, 4,4'-(1,4-phenylenedimethylidyne)bis[2-phenyl-
Formula: C26H16N2O4
CAS: 25744-09-6
Molecular weight: 420
m/z	intensity
34	8
36	10
37	11
38	21
39	44
40	116
41	99
43	999
45	734
47	5
50	87
51	138
53	6
54	6
55	14
56	9
57	17
60	326
62	10
63	12
64	5
65	6
69	6
70	6
71	7
73	9
74	22
75	30
77	460
78	24
83	4
87	6
88	4
89	4
91	5
101	6
102	11
103	35
105	846
106	53
115	4
121	22
122	6
127	5
263	6
277	5
420	35
421	7
