Mass Spectrum: 5-(4-Methoxyphenyl)-1,3-diphenyl-2-imidazoline
Formula: C22H20N2O
CAS: 2574-33-6
Molecular weight: 328
m/z	intensity
38	64
39	109
40	34
41	70
43	11
44	7
51	316
52	40
53	10
55	9
63	177
64	233
65	126
66	20
74	21
77	433
78	47
79	12
82	4
87	14
89	107
91	999
92	83
93	12
101	13
102	29
103	40
104	44
105	12
106	4
107	9
108	6
113	8
115	62
116	17
117	36
118	33
119	41
121	99
122	8
126	7
127	6
128	8
129	4
130	5
131	5
133	65
134	110
139	11
140	5
142	8
145	17
149	5
150	5
151	10
152	15
153	6
154	4
156	4
164	83
165	27
166	14
167	24
168	8
176	10
177	9
178	29
179	15
180	10
181	5
189	6
190	7
191	14
192	27
193	87
194	126
195	17
204	5
205	4
206	5
207	11
208	9
209	7
210	26
211	6
219	23
220	31
221	110
222	21
223	12
224	15
225	9
235	9
236	26
237	4
325	49
327	121
328	322
329	81
330	8
