Mass Spectrum: Phosphorochloridic acid, diisopropyl ester
Formula: C6H14ClO3P
CAS: 2574-25-6
Molecular weight: 200
m/z	intensity
34	0
35	0
36	0
37	8
38	23
39	211
40	39
41	315
42	127
43	583
44	71
45	157
47	49
48	2
49	1
50	0
51	0
52	0
53	0
54	0
55	2
56	1
57	6
58	12
59	130
60	4
61	1
62	1
63	10
64	2
65	24
66	0
67	0
68	1
69	20
70	1
71	0
72	0
73	0
74	0
75	0
77	0
78	0
79	2
81	88
82	5
83	4
84	0
85	2
86	0
87	0
89	0
91	5
92	0
93	0
94	0
95	0
96	1
97	0
99	31
100	9
101	12
102	3
103	0
105	3
106	0
107	3
108	2
109	0
110	0
113	1
114	1
117	999
119	333
121	2
123	74
124	2
125	1
126	0
127	1
128	0
129	0
131	0
135	0
140	0
143	720
144	23
145	241
146	5
147	1
149	0
155	0
157	25
158	12
159	29
160	4
161	6
162	0
163	0
165	0
185	18
186	1
187	6
188	0
199	0
201	0
203	0
