Mass Spectrum: 3-Thiophenecarboxylic acid, 4-(hydroxymethyl)-
Formula: C6H6O3S
CAS: 25744-97-2
Molecular weight: 158
m/z	intensity
24	2
26	9
27	31
29	58
30	4
31	54
34	3
37	23
38	57
39	525
40	3
41	26
42	6
45	814
46	14
47	16
49	8
50	56
51	61
52	9
53	27
55	14
56	4
57	28
58	61
59	18
60	3
61	4
62	4
66	4
67	4
68	4
69	43
70	22
71	7
73	5
79	4
81	33
82	45
83	102
84	96
85	239
86	15
87	11
93	7
95	13
96	18
97	7
110	7
111	999
112	119
113	71
114	8
125	23
127	4
128	6
129	242
130	25
131	11
139	242
140	118
141	61
142	8
157	23
158	649
159	25
160	16
