Mass Spectrum: 3-Hydroxy-3-phenyl-2-fluoropropene
Formula: C9H9FO
CAS: 257610-50-7
Molecular weight: 152
m/z	intensity
27	276
29	181
31	33
32	4
33	9
36	5
37	38
38	88
39	228
40	14
41	8
42	7
43	19
44	40
45	190
46	55
47	26
49	83
50	347
51	597
52	128
53	97
54	20
55	61
56	16
57	66
59	11
60	7
61	39
62	84
63	148
64	27
65	42
66	43
68	13
69	11
70	16
71	9
73	428
74	277
75	156
76	134
77	999
78	430
79	650
80	48
81	18
83	40
84	6
85	10
86	17
87	18
88	11
89	62
90	66
91	213
92	19
93	4
94	7
95	11
96	22
97	11
98	5
99	4
100	5
101	34
102	64
103	393
104	232
105	406
106	66
107	238
109	215
110	265
111	21
113	11
115	125
116	12
117	2
118	1
119	2
120	9
121	9
122	12
123	97
124	11
125	7
128	1
131	276
132	99
133	201
134	77
135	41
136	6
137	10
138	1
149	17
151	336
152	675
153	63
