Mass Spectrum: L-Isoleucine, methyl ester
Formula: C7H15NO2
CAS: 2577-46-0
Molecular weight: 145
m/z	intensity
27	60
28	49
29	121
30	316
31	13
33	110
39	49
40	8
41	159
42	33
43	22
44	170
45	11
46	19
51	13
53	22
54	22
55	22
56	101
57	124
58	22
59	11
60	41
67	11
68	11
69	137
70	44
71	11
72	22
74	154
75	11
84	22
86	999
87	63
88	454
89	71
90	11
145	13
