Mass Spectrum: Cyclopentaneundecanoic acid, methyl ester
Formula: C17H32O2
CAS: 25779-85-5
Molecular weight: 268
m/z	intensity
39	220
40	46
41	999
42	180
43	320
44	24
45	33
51	15
52	10
53	98
54	110
55	800
56	120
57	150
58	17
59	190
60	10
65	25
66	16
67	230
68	120
69	520
70	63
71	59
73	43
74	999
75	190
76	12
77	22
79	45
80	20
81	98
82	56
83	170
84	54
85	26
87	520
88	55
91	13
93	19
95	46
96	30
97	73
98	30
101	44
107	10
109	16
110	11
111	22
115	14
123	20
124	10
125	10
127	15
129	28
130	10
135	10
137	10
143	60
144	10
157	10
185	10
199	37
225	18
268	10
