Mass Spectrum: 1,3-Dithiane-4-carboxylic acid, 2-methyl-5-oxo-, methyl ester
Formula: C7H10O3S2
CAS: 25785-58-4
Molecular weight: 206
m/z	intensity
41	246
42	152
43	231
44	213
45	871
46	345
47	123
54	27
55	79
57	38
58	130
59	999
60	474
61	159
62	11
69	206
70	57
71	77
72	424
73	205
74	185
75	46
85	55
87	323
89	43
100	168
101	137
103	84
104	164
105	13
113	10
114	490
115	48
118	17
133	23
141	20
146	512
147	71
148	105
149	11
173	98
174	241
175	26
206	736
207	58
208	55
