Mass Spectrum: 4,5-Dihydro[1,2,5]oxadiazolo[3,4-f]cinnolin, 3-oxide
Formula: C8H6N4O2
CAS: 257869-90-2
Molecular weight: 190
m/z	intensity
30	403
36	17
37	273
38	201
39	504
40	97
43	114
44	164
50	472
51	422
52	204
56	44
61	89
62	306
63	999
64	315
65	37
74	174
75	238
76	723
77	288
87	27
88	77
89	92
90	206
102	201
103	27
105	119
110	79
111	52
112	221
114	363
117	67
128	17
130	238
142	146
143	176
144	17
157	102
172	350
173	213
174	606
190	873
