Mass Spectrum: (1-Methyl-2,6-dioxocyclohexyl)acetic acid, methyl ester
Formula: C10H14O4
CAS: 257941-63-2
Molecular weight: 198
m/z	intensity
25	18
27	127
28	17
29	51
30	5
31	30
33	4
37	4
38	15
39	287
40	72
41	715
42	296
43	228
44	8
45	22
50	7
51	15
52	7
53	34
54	21
55	859
56	32
57	12
58	6
59	116
60	5
61	3
62	4
63	5
64	3
65	16
66	9
67	57
68	77
69	827
70	67
71	15
72	7
73	5
74	29
75	5
77	16
78	6
79	18
80	4
81	22
83	51
84	40
85	19
86	21
87	3
88	6
92	9
93	7
94	52
95	9
96	36
97	68
98	227
99	31
100	33
101	162
102	29
103	5
107	4
109	13
110	299
111	999
112	65
113	15
114	9
120	12
122	9
123	6
124	49
125	288
126	59
127	10
128	34
129	75
130	12
137	13
138	788
139	569
140	46
141	8
142	42
143	5
148	5
149	5
151	5
152	6
155	24
156	36
157	4
165	8
166	332
167	252
168	23
169	5
170	37
183	7
198	551
199	55
200	8
