Mass Spectrum: Phenylpropynal
Formula: C9H6O
CAS: 2579-22-8
Molecular weight: 130
m/z	intensity
27	33
28	17
29	57
30	0
36	10
37	58
38	53
39	85
40	3
41	0
42	0
43	11
44	1
48	6
49	48
50	241
51	328
52	103
53	12
55	6
56	1
57	2
58	0
60	11
61	65
62	90
63	117
64	12
65	8
66	0
72	4
73	45
74	238
75	324
76	241
77	54
78	7
79	3
80	2
81	2
84	6
85	15
86	21
87	31
88	8
89	1
90	3
91	2
96	1
97	11
98	42
99	15
100	9
101	122
102	999
103	85
104	5
108	1
109	2
110	2
111	1
113	8
114	5
115	5
116	1
117	1
127	2
128	7
129	881
130	975
131	85
132	7
133	0
