Mass Spectrum: Butanedial, dioxime
Formula: C4H8N2O2
CAS: 2580-71-4
Molecular weight: 116
m/z	intensity
41	759
42	181
43	413
44	999
45	64
46	42
51	66
52	169
53	129
54	581
55	176
56	120
57	67
58	88
59	217
67	125
68	278
69	31
70	132
71	74
72	87
79	36
81	332
82	175
83	33
84	450
85	175
99	469
100	9
116	14
