Mass Spectrum: Androst-2-en-1-one, (5.alpha.)-
Formula: C19H28O
CAS: 25824-61-7
Molecular weight: 272
m/z	intensity
40	140
41	760
42	80
43	190
44	10
50	10
51	60
52	30
53	250
54	50
55	440
56	30
57	20
63	10
65	110
66	60
67	340
68	400
69	100
70	10
71	10
77	240
78	60
79	390
80	90
81	330
82	60
83	30
91	320
92	60
93	270
94	130
95	370
96	50
97	10
103	20
104	10
105	170
106	50
107	240
108	999
109	640
110	90
111	60
115	40
116	20
117	50
118	20
119	80
120	60
121	150
122	660
123	90
124	70
128	20
129	30
131	50
132	10
133	100
134	50
135	110
136	30
137	20
143	20
145	40
146	10
147	70
148	60
149	110
150	20
157	20
159	30
160	10
161	110
162	70
163	50
164	10
165	10
171	10
173	20
174	10
175	100
176	30
177	10
185	10
187	40
188	10
189	240
190	40
200	10
201	30
202	20
203	20
204	70
205	10
213	10
215	10
229	30
230	10
239	20
257	120
258	10
272	200
273	50
274	10
