Mass Spectrum: Cyclohexanecarboxylic acid, 2-[(2-aminoethyl)dithio]-
Formula: C9H17NO2S2
CAS: 25828-46-0
Molecular weight: 235
m/z	intensity
41	196
42	133
43	999
44	275
45	7
46	30
47	36
48	12
50	7
51	20
52	11
53	123
54	33
55	98
56	6
57	19
58	16
59	31
60	10
61	18
62	15
63	5
64	12
65	12
67	42
68	5
69	11
71	28
72	3
73	15
74	7
75	78
76	30
77	69
78	82
79	109
81	492
82	35
83	4
85	11
86	6
87	3
88	1
89	0
92	39
93	3
94	2
95	1
97	8
98	3
99	8
100	0
101	0
102	0
103	1
104	0
105	0
106	0
107	3
109	140
110	5
111	5
112	2
113	4
114	2
115	1
116	1
117	0
118	1
120	1
121	0
123	0
124	0
125	1
127	32
128	2
130	1
131	0
133	1
134	1
135	0
136	0
138	0
140	1
141	1
142	6
143	3
145	6
146	1
147	0
150	0
152	8
153	6
154	0
156	3
157	2
158	2
159	1
160	6
161	1
162	0
168	0
170	0
172	3
173	5
174	3
175	2
176	1
177	0
184	10
185	6
186	2
187	2
189	11
191	57
192	3
193	4
194	0
199	0
201	0
202	0
203	0
204	0
206	51
207	4
208	3
216	0
219	45
220	5
221	5
223	1
232	0
234	69
235	110
236	12
237	2
238	0
