Mass Spectrum: Thiophene-2-carboxamide, N-(5-chloropyrid-2-yl)-
Formula: C10H7ClN2OS
CAS: 258338-51-1
Molecular weight: 238
m/z	intensity
35	15
37	38
38	98
39	329
40	64
41	19
43	13
44	4
45	132
47	9
49	37
50	68
51	33
52	14
53	37
56	4
57	107
58	21
60	9
62	16
63	22
64	89
65	21
66	8
68	6
69	10
72	5
73	156
74	24
75	42
76	38
77	16
78	6
81	58
82	67
83	140
84	7
85	13
92	38
100	60
101	14
102	13
111	999
112	100
113	60
114	4
118	3
127	42
129	3
205	61
207	18
210	83
211	4
212	28
238	85
239	8
240	32
