Mass Spectrum: N-(4-(p-Nitrophenoxy)butyl)aniline
Formula: C16H18N2O3
CAS: 25836-94-6
Molecular weight: 286
m/z	intensity
27	1
28	3
29	1
30	2
38	1
39	5
41	2
42	1
43	1
50	2
51	8
52	2
53	2
55	5
63	3
64	3
65	12
66	3
71	1
75	3
76	5
77	49
78	9
79	18
80	2
81	1
89	1
90	1
91	15
92	8
93	17
94	4
103	2
104	19
105	9
106	999
107	83
108	4
109	6
115	6
116	3
117	6
118	18
119	22
120	7
122	2
123	2
128	3
130	4
131	5
132	3
133	1
134	1
135	1
139	10
140	1
142	1
143	19
144	9
145	8
146	49
147	41
148	51
149	6
152	2
163	1
164	1
256	3
285	3
286	471
287	93
288	10
289	1
