Mass Spectrum: Thiophene-2-carboxamide, N-(3-quinolinyl)-
Formula: C14H10N2OS
CAS: 258338-63-5
Molecular weight: 254
m/z	intensity
33	2
34	3
35	14
36	77
37	10
38	44
39	212
40	55
41	6
42	1
43	4
44	14
45	15
50	12
51	12
52	5
53	6
55	2
56	1
57	15
58	8
60	0
61	3
62	22
63	43
64	9
65	5
66	1
67	0
69	3
70	1
71	1
74	3
75	10
76	5
77	3
81	3
82	10
83	87
84	7
85	6
86	2
87	6
88	18
89	57
90	10
91	1
101	8
102	0
111	999
112	66
113	47
114	13
115	15
116	40
117	7
127	1
128	6
142	3
143	5
144	5
145	2
149	1
170	0
254	83
255	12
256	4
