Mass Spectrum: Furo[2,3-d]pyrimidine-4-amine, 2,3-dihydro-2,2,N-trimethyl-3-phenyl-
Formula: C15H17N3O
CAS: 25844-53-5
Molecular weight: 255
m/z	intensity
41	999
42	335
43	686
44	9
47	74
48	30
49	21
50	90
51	342
52	120
53	81
55	72
56	36
57	157
58	85
59	40
62	7
63	91
64	18
65	79
66	63
67	41
68	28
69	25
71	31
74	27
75	55
76	79
77	341
78	82
79	29
82	24
83	9
84	4
86	11
88	18
89	53
91	136
92	7
98	10
99	9
101	83
102	161
103	79
106	43
113	44
114	77
115	186
116	50
117	17
127	95
128	195
129	86
130	30
133	8
136	7
140	156
141	152
142	69
143	43
144	40
153	28
155	98
156	27
164	132
168	118
169	178
170	35
182	52
190	11
196	60
197	32
211	15
212	67
214	43
226	81
238	68
240	658
241	89
254	89
255	365
256	57
257	14
