Mass Spectrum: 6,8-Dichloro-3'-iodo-2-phenyl-.alpha.-piperidinomethyl-4-quinolinemethanol
Formula: C22H21Cl2IN2O
CAS: 25840-32-8
Molecular weight: 526
m/z	intensity
41	27
42	28
43	8
44	18
51	1
53	2
54	1
55	26
56	3
57	1
67	0
68	2
69	13
70	16
75	0
76	1
77	1
82	1
84	4
86	0
96	9
98	999
99	51
100	2
133	0
137	0
151	0
163	0
175	2
176	1
196	0
200	0
201	5
202	4
203	5
214	0
236	0
237	4
238	7
239	3
240	3
266	3
268	1
271	0
272	4
273	4
274	4
275	3
276	0
300	2
302	1
400	2
401	0
402	1
427	2
429	2
