Mass Spectrum: Androst-5-en-7-one, 3-(acetyloxy)-, (3.beta.)-
Formula: C21H30O3
CAS: 25845-92-5
Molecular weight: 330
m/z	intensity
41	329
42	41
43	999
44	41
45	58
51	29
52	12
53	112
54	16
55	229
56	12
57	16
60	16
65	62
66	25
67	187
68	20
69	62
77	141
78	41
79	204
80	33
81	162
82	16
83	25
91	295
92	37
93	162
94	29
95	145
96	12
97	12
102	4
103	29
104	16
105	158
106	62
107	133
108	37
109	50
110	4
111	12
115	50
116	20
117	58
118	16
119	95
120	37
121	66
122	20
123	20
127	12
128	29
129	37
130	12
131	58
132	16
133	66
134	108
135	154
136	29
137	8
141	16
142	8
143	20
144	8
145	70
146	29
147	70
148	70
149	33
153	4
154	4
155	8
156	4
157	20
158	8
159	216
160	45
161	166
162	41
163	20
164	4
165	4
169	8
171	16
172	4
173	54
174	154
175	50
176	8
183	8
185	20
186	4
187	137
188	25
189	4
199	12
200	4
201	12
202	4
213	16
214	8
215	4
227	25
228	54
229	12
232	4
241	41
242	29
243	4
255	137
256	108
257	16
269	4
270	412
271	112
272	8
