Mass Spectrum: D-Proline, 4-hydroxy-, cis-
Formula: C5H9NO3
CAS: 2584-71-6
Molecular weight: 131
m/z	intensity
13	1
14	7
15	31
16	2
17	7
18	23
19	1
24	1
25	2
26	19
27	75
28	183
29	62
30	216
31	40
32	4
33	4
34	2
36	1
37	9
38	16
39	63
40	33
41	443
42	129
43	163
44	29
45	44
46	7
47	5
50	2
51	4
52	7
53	8
54	16
55	57
56	112
57	49
58	109
59	19
60	3
63	2
64	2
65	4
66	9
67	40
68	403
69	262
70	21
71	3
72	2
73	35
74	5
75	1
77	2
78	1
79	1
80	1
81	2
82	2
83	5
84	21
85	8
86	999
87	176
88	11
89	2
91	6
92	1
93	3
94	8
95	7
96	2
97	1
99	1
100	1
101	2
102	4
103	1
104	1
105	5
106	1
111	5
112	2
113	3
115	1
130	2
131	9
132	3
