Mass Spectrum: 4-[.gamma.-Diethylaminopropylamino]-5-[.beta.,.beta.-dimethyl-.alpha.-styryl]-6-chloropyrimidine
Formula: C21H29ClN4
CAS: 25844-60-4
Molecular weight: 372
m/z	intensity
41	110
42	136
43	73
44	72
45	9
49	3
50	9
51	32
52	11
53	13
54	14
55	16
56	92
57	33
58	191
59	13
62	5
63	15
64	6
65	17
66	5
67	5
68	7
69	20
70	28
71	20
72	235
73	15
74	7
75	7
76	9
77	41
78	14
79	9
80	2
81	2
82	5
83	3
84	144
86	999
87	84
88	5
89	12
90	6
91	90
92	13
93	6
94	2
96	3
97	5
98	48
99	8
100	70
101	13
102	14
103	18
104	25
105	31
106	5
107	2
110	3
111	8
112	34
113	30
114	17
115	44
116	12
117	11
118	5
119	14
120	5
121	3
122	3
125	6
126	6
127	25
128	35
129	23
130	9
131	9
132	5
133	2
134	4
135	2
138	3
139	14
140	45
141	23
142	10
143	10
144	4
145	2
146	3
147	5
148	6
149	5
150	7
151	8
152	16
153	20
154	17
155	18
156	8
157	4
158	2
161	2
162	4
164	7
165	5
166	19
167	21
168	20
169	13
170	6
171	6
172	2
174	2
176	3
177	3
178	11
179	11
180	21
181	15
182	16
183	7
184	3
185	2
186	4
190	3
191	3
192	15
193	9
194	13
195	11
196	9
197	7
198	3
202	5
203	2
204	3
205	4
206	9
207	10
208	12
209	11
210	6
211	2
212	2
216	2
217	3
218	3
219	4
220	8
221	6
222	14
223	9
224	32
225	23
226	10
227	2
229	2
230	6
231	3
232	2
234	3
235	3
236	7
237	5
238	11
239	5
240	10
241	7
242	13
243	13
244	19
245	12
246	7
247	2
248	2
250	7
252	2
253	2
254	13
255	3
256	6
258	59
259	39
260	62
261	25
262	17
263	4
264	8
265	2
266	8
267	3
268	24
269	9
270	8
272	5
273	8
274	3
275	2
282	9
283	3
284	33
285	9
286	43
287	11
288	12
289	2
296	2
297	10
298	15
299	6
300	41
301	13
302	14
303	3
325	3
343	12
344	4
345	4
355	3
357	61
358	18
359	21
360	6
371	5
372	59
373	15
374	19
375	5
