Mass Spectrum: N-[1-Benzyl-4-(1,2,4-triazolio)]acetamidate
Formula: C11H12N4O
CAS: 25857-78-7
Molecular weight: 216
m/z	intensity
26	2
27	14
28	22
29	2
38	7
39	53
40	8
41	19
42	2
43	40
44	2
45	3
50	14
51	38
52	8
53	1
54	1
55	2
56	5
57	12
62	7
63	34
64	11
65	134
66	6
74	2
75	2
76	5
77	25
78	8
85	10
89	27
90	14
91	999
92	66
99	28
100	106
101	26
102	6
103	24
104	126
105	46
106	11
116	22
117	62
118	19
119	6
131	79
132	197
133	19
147	4
157	13
158	177
159	171
160	17
173	26
187	28
201	188
202	22
215	8
216	144
217	17
