Mass Spectrum: 1-[p-Tolylsulfonyl]-2-methylaziridine
Formula: C10H13NO2S
CAS: 25856-77-3
Molecular weight: 211
m/z	intensity
41	35
42	4
43	1
44	0
45	3
47	1
48	1
49	8
50	7
51	18
52	5
53	3
54	15
56	999
57	25
58	0
59	1
61	0
62	5
63	21
64	3
65	65
66	4
68	0
69	1
70	0
71	0
74	1
75	1
76	1
77	7
78	3
79	2
84	6
86	5
87	1
89	19
91	87
92	5
93	0
95	0
97	0
103	1
104	1
105	12
106	1
107	1
111	1
116	1
117	1
119	2
121	1
123	0
130	1
139	5
141	0
146	0
153	0
155	6
211	3
212	0
