Mass Spectrum: N-[1-Benzyl-4-(1,2,4-triazolio)]benzamidate
Formula: C16H14N4O
CAS: 25857-87-8
Molecular weight: 278
m/z	intensity
91	999
104	50
105	110
117	20
118	60
119	120
131	40
132	100
158	110
159	110
173	20
187	20
201	30
278	140
