Mass Spectrum: 3-Butenoic acid, 3-methyl-, methyl ester
Formula: C6H10O2
CAS: 25859-52-3
Molecular weight: 114
m/z	intensity
26	27
27	219
29	289
30	19
31	34
33	2
34	0
35	0
36	3
37	40
38	79
39	570
40	79
41	118
42	105
43	143
44	13
45	28
46	1
48	2
49	15
50	63
51	65
52	24
53	189
54	133
55	999
56	64
57	6
58	1
59	451
60	11
61	2
62	0
63	0
64	0
65	0
66	1
67	7
68	1
69	7
70	0
71	193
72	52
73	3
74	34
75	0
76	0
77	0
79	0
81	4
82	233
83	149
84	10
85	6
86	85
87	5
88	0
91	0
92	0
95	0
97	0
99	33
100	1
111	0
112	0
113	27
114	232
115	15
116	1
