Mass Spectrum: Isoxazole, 3-(m-methoxyphenyl)-5-phenyl-
Formula: C16H13NO2
CAS: 25856-12-6
Molecular weight: 251
m/z	intensity
77	470
78	30
89	30
92	40
103	20
105	999
106	80
107	10
119	20
133	20
135	120
136	10
146	70
149	110
150	10
174	130
175	10
208	30
210	20
220	30
236	60
250	50
251	760
252	110
253	10
