Mass Spectrum: Isourea, N-benzyl-N'-cyclohexyl-
Formula: C14H20N2O
CAS: 25855-24-7
Molecular weight: 232
m/z	intensity
33	8
34	0
35	1
36	0
37	1
39	100
41	200
43	232
44	33
45	3
46	1
47	1
51	63
52	14
53	26
56	999
57	41
58	4
60	0
61	4
63	20
65	110
67	33
68	7
70	102
71	6
73	38
74	3
75	3
77	71
79	92
81	35
82	18
83	23
84	7
85	2
87	4
89	19
91	443
92	29
93	11
94	4
95	4
98	242
99	84
100	18
102	0
104	37
106	358
107	90
108	11
109	0
111	1
112	1
114	0
115	0
117	6
119	5
120	1
121	1
125	0
126	3
127	0
129	0
130	1
132	15
133	8
134	1
135	0
139	0
140	0
141	18
142	1
143	1
144	0
146	6
147	1
149	66
150	34
151	96
152	6
153	0
158	0
159	0
161	5
162	0
163	1
164	1
165	0
172	0
175	6
176	1
177	0
178	0
187	0
188	0
189	9
191	2
192	0
203	3
204	0
217	0
224	0
229	2
232	393
233	54
234	4
235	0
