Mass Spectrum: Bicyclo[2.2.2]octane-2,3-dicarboxylic acid, 1-hydroxy-8,8-dimethyl-5-oxo-, dimethyl ester
Formula: C14H20O6
CAS: 25864-66-8
Molecular weight: 284
m/z	intensity
41	330
43	410
53	190
55	290
59	370
69	330
81	290
83	400
95	380
109	370
113	690
119	200
125	999
126	160
127	240
137	250
140	870
141	230
145	450
165	150
168	150
169	600
192	110
193	150
206	90
209	110
221	250
224	160
237	110
252	190
253	440
284	370
