Mass Spectrum: 17.beta.-Propanoyloxyandrosta-4,6-dien-3-one
Formula: C22H30O3
CAS: 25862-97-9
Molecular weight: 342
m/z	intensity
26	4
27	40
28	45
29	432
30	8
31	2
32	10
39	23
40	4
41	92
42	6
43	57
44	4
45	5
50	1
51	7
52	3
53	30
54	3
55	127
56	5
57	999
58	34
59	2
60	1
63	3
64	1
65	19
66	5
67	40
68	4
69	14
70	2
71	8
73	1
74	1
75	1
76	1
77	47
78	16
79	59
80	11
81	52
82	4
83	8
84	1
85	2
89	3
90	2
91	118
92	17
93	54
94	17
95	33
96	3
97	12
98	2
99	1
102	3
103	16
104	19
105	70
106	16
107	51
108	15
109	25
110	7
111	5
113	1
115	42
116	19
117	55
118	25
119	26
120	7
121	20
122	13
123	13
124	26
125	4
126	1
127	9
128	35
129	47
130	20
131	66
132	28
133	645
134	63
135	11
136	500
137	45
138	6
139	1
141	22
142	16
143	40
144	46
145	60
146	23
147	24
148	8
149	8
150	3
151	37
152	4
153	8
154	6
155	27
156	11
157	22
158	14
159	37
160	43
161	61
162	26
163	10
164	2
165	6
166	3
167	8
168	6
169	18
170	8
171	17
172	27
173	42
174	57
175	31
176	8
177	2
178	2
179	5
180	3
181	8
182	5
183	26
184	8
185	14
186	11
187	12
188	6
189	4
190	1
191	1
192	4
193	5
194	3
195	10
196	6
197	17
198	11
199	8
200	3
201	5
202	1
206	1
207	24
208	7
209	22
210	7
211	20
212	9
213	14
214	9
215	7
216	4
217	2
221	2
222	3
223	6
224	25
225	18
226	16
227	14
228	4
229	9
230	3
235	17
236	3
237	1
238	1
239	7
240	13
241	6
242	6
243	3
244	1
249	3
250	9
251	10
252	3
253	93
254	17
255	2
257	2
258	3
266	1
267	8
268	215
269	50
270	7
271	25
272	5
284	3
285	12
286	383
287	69
288	8
298	30
299	7
300	2
313	1
314	5
315	1
324	3
325	2
327	3
340	1
342	195
343	49
