Mass Spectrum: 2H-Pyran-3-ol, 3,6-dihydro-6-methoxy-, acetate, (3S-trans)-
Formula: C8H12O4
CAS: 25878-56-2
Molecular weight: 172
m/z	intensity
25	1
26	11
27	92
28	76
29	68
30	5
31	23
32	4
33	6
36	1
37	2
38	7
39	95
40	18
41	111
42	31
43	999
44	29
45	47
46	1
49	1
50	9
51	18
52	14
53	79
54	23
55	47
56	9
57	44
58	9
59	43
60	2
61	6
63	1
65	1
66	1
67	2
68	23
69	58
70	63
71	253
72	13
73	17
74	6
75	2
76	1
77	1
78	1
79	2
80	1
81	570
82	52
83	10
84	19
85	59
86	6
87	26
88	2
89	1
91	1
93	1
94	1
95	1
96	1
97	10
98	79
99	17
100	657
101	42
102	6
103	2
104	1
105	1
107	1
110	1
111	52
112	58
113	68
114	5
115	6
116	1
127	1
128	1
129	11
130	74
131	5
139	1
140	1
141	52
142	100
143	7
144	1
145	1
170	1
171	4
172	1
