Mass Spectrum: Stigmast-5-ene, 3.beta.-(trimethylsiloxy)-, (24S)-
Formula: C32H58OSi
CAS: 25873-56-7
Molecular weight: 486
m/z	intensity
27	3
29	8
39	6
40	2
41	69
42	11
43	218
44	9
45	12
46	1
47	6
50	1
51	1
52	1
53	11
54	3
55	157
56	15
57	216
58	11
59	12
60	3
61	15
62	1
63	1
65	8
66	3
67	102
68	15
69	162
70	14
71	158
72	13
73	371
74	33
75	249
76	18
77	36
78	8
79	104
80	15
81	212
82	21
83	83
84	10
85	133
86	9
87	3
88	2
89	14
90	2
91	135
92	28
93	151
94	35
95	268
96	24
97	81
98	8
99	37
100	3
101	22
102	3
103	22
104	14
105	224
106	56
107	264
108	52
109	180
110	28
111	86
112	8
113	17
114	3
115	36
116	24
117	89
118	36
119	281
120	160
121	294
122	47
123	93
124	12
125	39
126	4
127	13
128	18
129	999
130	159
131	180
132	57
133	195
134	53
135	131
136	27
137	47
138	8
139	17
140	3
141	18
142	18
143	138
144	46
145	243
146	70
147	151
148	49
149	85
150	12
151	30
152	5
153	9
154	5
155	64
156	18
157	63
158	38
159	170
160	109
161	144
162	33
163	104
164	16
165	21
166	4
167	9
168	9
169	28
170	8
171	45
172	19
173	100
174	33
175	61
176	10
177	50
178	13
179	18
180	5
181	19
182	14
183	17
184	6
185	41
186	14
187	34
188	12
189	49
190	9
191	27
192	5
193	13
194	6
195	15
196	19
197	28
198	9
199	50
200	20
201	44
202	11
203	64
204	13
205	18
206	4
207	10
208	4
209	7
210	3
211	10
212	6
213	113
214	38
215	69
216	17
217	81
218	14
219	17
220	4
221	20
222	6
223	3
224	2
225	6
226	3
227	27
228	24
229	31
230	7
231	22
232	5
233	19
234	15
235	20
236	5
237	2
239	10
240	4
241	23
242	7
243	8
244	3
245	29
246	7
247	31
248	9
249	6
250	8
251	3
252	1
253	13
254	8
255	166
256	35
257	10
258	2
259	30
260	7
261	31
262	8
263	3
264	1
267	3
268	1
269	5
270	1
271	4
272	2
273	23
274	22
275	115
276	26
277	4
278	1
282	2
283	16
284	5
285	5
286	2
287	22
288	16
289	11
290	4
291	3
292	1
295	1
297	4
298	2
299	3
300	2
301	12
302	23
303	47
304	12
305	2
310	1
311	3
312	1
313	4
314	4
315	8
316	3
317	1
318	2
325	2
326	1
327	6
328	6
329	42
330	12
331	2
337	1
339	9
340	3
341	8
342	7
343	6
344	3
345	7
346	2
347	1
352	1
353	10
354	29
355	35
356	137
357	543
358	147
359	20
360	2
367	11
368	22
369	6
370	4
371	2
372	1
373	1
374	1
379	1
380	1
381	205
382	61
383	10
384	1
387	1
394	1
395	10
396	481
397	152
398	24
399	4
400	1
414	5
415	2
429	1
443	1
444	4
445	1
453	2
454	1
455	1
457	3
458	3
459	1
470	1
471	51
472	20
473	5
474	1
483	1
484	3
485	3
486	168
487	67
488	19
489	4
490	1
