Mass Spectrum: Spiro[bicyclo[3.1.0]hexane-6,3'(2'H)-as-indacen]-2-one, decahydro-6'-hydroxy-5,5'a-dimethyl-, acetate, stereoisomer
Formula: C21H30O3
CAS: 2587-18-0
Molecular weight: 330
m/z	intensity
97	999
117	100
119	108
131	97
132	83
133	197
145	131
146	112
147	141
148	131
159	166
174	222
234	89
288	6
330	6
