Mass Spectrum: 2-Methyl-3-bromo-2-butanol
Formula: C5H11BrO
CAS: 2588-77-4
Molecular weight: 166
m/z	intensity
43	104
44	12
45	43
46	1
50	5
51	8
52	2
53	25
54	4
55	20
56	2
57	30
58	19
59	999
60	69
61	5
62	1
63	1
65	1
67	4
69	107
70	9
71	117
72	17
79	1
80	3
81	2
82	2
87	46
88	2
95	1
107	8
108	1
109	8
149	6
150	1
151	151
152	7
153	140
154	6
