Mass Spectrum: Phorate sulfone
Formula: C7H17O4PS3
CAS: 2588-04-7
Molecular weight: 292
m/z	intensity
25	3
26	54
27	448
28	147
29	999
30	25
31	23
32	18
33	9
34	16
35	7
36	1
39	5
41	17
42	7
43	50
44	15
45	203
46	161
47	195
48	34
49	12
50	4
51	1
55	2
57	11
58	5
59	28
60	21
61	28
62	8
63	58
64	26
65	297
66	19
67	5
68	1
69	1
71	1
73	4
74	2
75	23
76	10
77	100
78	30
79	33
80	49
81	39
82	5
83	2
91	10
92	3
93	132
94	14
95	45
97	807
98	9
99	42
105	1
107	5
108	10
109	44
110	8
111	7
112	13
113	7
114	10
115	24
117	1
121	68
122	4
123	12
125	566
126	29
127	37
129	58
130	1
131	5
137	6
139	11
140	3
141	25
142	13
143	80
144	3
145	6
149	1
151	2
153	500
154	29
155	36
156	3
157	7
158	2
159	5
162	2
169	19
170	17
171	101
172	6
173	8
183	7
185	3
186	6
187	6
199	286
200	21
201	29
202	2
203	1
215	32
216	2
217	3
218	1
231	1
246	2
247	4
292	10
293	1
294	1
