Mass Spectrum: cis-4,5-Bis(cyanomethyl)cyclohexene
Formula: C10H12N2
CAS: 25886-61-7
Molecular weight: 160
m/z	intensity
26	20
27	130
29	30
38	20
39	210
40	40
41	210
42	700
43	300
44	10
46	20
50	30
51	80
52	50
53	110
54	140
55	40
56	10
57	20
63	30
64	20
65	70
66	110
67	40
68	10
69	10
70	5
71	10
76	10
77	190
78	80
79	999
80	150
81	30
89	10
91	170
92	190
93	420
94	50
95	10
102	20
103	10
104	20
105	30
106	40
107	10
116	20
117	10
118	20
119	50
120	200
121	20
132	50
133	130
134	20
160	70
161	10
