Mass Spectrum: trans-Cyclohexene-4,5-diacetic acid
Formula: C10H14O4
CAS: 25886-62-8
Molecular weight: 198
m/z	intensity
26	20
27	110
29	60
38	10
39	130
40	20
41	120
42	30
43	70
44	70
45	50
46	80
50	10
51	40
52	20
53	60
54	90
55	60
56	20
57	30
60	999
61	100
62	10
63	10
65	40
66	20
67	60
68	20
69	20
70	30
71	20
74	20
77	100
78	70
79	330
80	40
81	20
82	10
83	10
88	60
91	150
92	100
93	170
94	40
95	30
96	40
97	30
98	20
102	100
103	10
104	10
105	20
107	20
113	10
114	10
115	20
117	20
119	15
120	20
121	50
135	10
136	20
137	30
138	240
139	40
152	20
180	180
181	30
198	3
