Mass Spectrum: Phorate sulfoxide
Formula: C7H17O3PS3
CAS: 2588-03-6
Molecular weight: 276
m/z	intensity
14	1
15	5
25	1
26	16
27	143
28	24
29	260
30	7
31	4
32	3
33	3
34	3
35	9
39	2
41	10
42	3
43	22
44	4
45	123
46	98
47	130
48	20
49	11
50	12
51	3
57	2
58	6
59	25
60	27
61	57
62	9
63	92
64	17
65	206
66	6
67	1
72	1
73	3
74	5
75	71
76	9
77	48
78	69
79	38
80	42
81	43
82	4
83	2
90	2
91	20
92	3
93	83
94	18
95	29
96	2
97	999
98	13
99	52
105	1
106	2
107	15
108	10
109	78
110	9
111	5
112	22
113	12
114	13
115	31
116	1
117	1
121	44
122	3
123	8
124	1
125	708
126	37
127	45
128	5
129	68
130	4
131	8
137	6
138	1
139	4
140	3
141	4
142	17
143	93
144	5
145	8
146	2
147	2
151	1
153	671
154	40
155	50
156	5
157	16
158	3
159	3
169	1
170	13
171	141
172	8
173	13
174	1
175	3
183	2
185	3
186	9
187	2
188	1
191	2
199	587
200	44
201	57
202	4
203	3
215	1
230	1
231	5
246	12
247	2
248	2
259	1
260	2
