Mass Spectrum: Phenol, 4-hexadecyl-
Formula: C22H38O
CAS: 2589-78-8
Molecular weight: 318
m/z	intensity
17	9
18	53
27	2
28	1
29	9
39	3
41	20
42	2
43	32
44	1
51	1
53	2
54	1
55	17
56	4
57	20
65	2
67	3
68	1
69	8
70	2
71	9
77	11
78	2
79	4
80	1
81	5
82	3
83	6
84	2
85	5
91	4
93	2
94	9
95	5
96	8
97	7
98	1
99	2
103	2
105	2
106	1
107	999
108	100
109	9
110	2
111	4
112	1
113	1
119	1
120	15
121	6
122	3
123	1
124	1
125	2
126	1
127	1
133	9
134	1
135	4
136	1
138	1
139	1
141	1
147	1
149	6
150	2
151	1
153	1
163	1
179	1
278	1
290	3
317	1
318	411
319	97
320	11
321	1
