Mass Spectrum: Methanesulfonic acid, (benzylsulfonyl)phenyl-, 4-bromophenyl ester
Formula: C20H17BrO5S2
CAS: 25894-35-3
Molecular weight: 480
m/z	intensity
41	12
42	0
43	1
44	0
45	5
48	1
50	7
51	20
52	4
53	2
55	1
57	0
61	0
62	9
63	60
64	32
65	102
66	6
67	0
69	1
71	1
73	0
74	0
75	6
76	7
77	18
78	11
79	4
82	0
84	1
86	1
87	1
89	68
90	89
91	999
92	80
93	4
94	1
95	0
97	1
102	1
103	6
105	14
106	1
107	2
108	1
109	2
110	1
112	0
115	2
117	4
119	4
121	3
123	1
126	4
127	1
128	1
129	0
131	0
133	0
137	2
139	10
140	0
141	1
143	15
145	14
146	0
151	1
152	4
153	11
154	34
155	9
157	6
158	0
160	0
165	15
166	10
167	2
169	0
171	8
172	33
174	33
175	1
178	5
179	50
180	257
181	288
182	35
183	3
195	0
197	1
219	0
233	0
235	0
236	0
245	2
261	35
263	35
264	6
265	0
293	0
480	1
481	0
482	1
483	0
