Mass Spectrum: 4-Hexen-1-ol, 5-methyl-2-(1-methylethenyl)-, acetate
Formula: C12H20O2
CAS: 25905-14-0
Molecular weight: 196
m/z	intensity
14	1
15	10
26	2
27	39
28	8
29	35
30	1
31	3
37	1
38	3
39	95
40	24
41	424
42	32
43	570
44	15
45	3
50	5
51	18
52	11
53	90
54	10
55	49
56	9
57	12
58	1
59	1
60	1
61	4
62	1
63	5
64	1
65	36
66	14
67	207
68	413
69	999
70	58
71	9
72	2
73	5
74	1
75	1
77	74
78	13
79	100
80	125
81	87
82	35
83	16
84	24
85	68
86	18
87	1
89	1
91	110
92	110
93	763
94	96
95	31
96	5
97	5
98	3
99	2
102	1
103	6
104	2
105	54
106	11
107	87
108	24
109	14
110	2
111	5
112	1
113	1
114	4
115	2
117	2
119	14
120	5
121	274
122	29
123	36
124	4
125	1
126	2
127	20
128	3
134	1
135	5
136	171
137	20
138	1
139	3
153	2
154	4
