Mass Spectrum: p-Dihydroxybenzene, 2,5-bis(ethoxycarbonyl)-, bis(dimethylthiocarbamate)
Formula: C18H24N2O6S2
CAS: 25906-63-2
Molecular weight: 428
m/z	intensity
42	72
44	33
45	9
47	25
49	9
50	0
51	5
53	8
54	1
56	35
58	2
59	1
61	12
62	1
63	5
64	0
65	0
69	2
72	991
73	63
74	6
75	0
76	0
77	1
78	0
79	2
82	0
84	4
86	2
88	999
90	79
91	2
92	0
93	0
95	1
107	2
119	0
123	0
124	0
132	0
133	0
135	0
136	0
140	0
141	1
142	0
151	0
152	0
155	1
163	0
167	0
177	0
178	1
179	3
180	0
186	1
195	4
196	0
211	3
214	1
222	2
223	1
238	1
239	3
240	0
264	1
267	2
268	0
280	5
281	0
283	0
284	1
294	0
296	2
299	0
311	9
312	2
313	1
324	2
340	0
355	5
356	3
357	1
367	2
368	0
383	19
384	5
385	3
386	0
396	2
397	0
399	0
413	0
414	0
427	16
428	182
429	54
430	26
431	5
432	0
