Mass Spectrum: 2-[2-Aminoethyldithio]terephthalic acid
Formula: C10H11NO4S2
CAS: 25906-76-7
Molecular weight: 273
m/z	intensity
41	61
42	263
43	199
44	999
45	390
46	83
47	51
48	34
49	11
50	29
51	32
52	10
53	91
54	11
55	56
56	46
57	48
58	63
59	55
60	29
61	35
62	46
63	135
64	39
65	59
66	11
67	7
68	20
69	137
70	31
71	15
72	22
73	44
74	58
75	103
76	59
77	173
78	28
79	25
80	10
81	48
82	28
83	9
84	22
85	17
86	6
88	735
89	43
90	51
91	31
92	21
93	15
94	12
95	30
96	20
97	23
98	7
99	5
101	7
102	20
103	23
104	6
105	12
106	31
107	35
108	28
109	121
111	43
112	28
113	24
114	3
115	3
118	3
119	15
120	19
121	9
123	41
124	20
125	16
126	3
127	5
134	6
135	292
136	47
137	20
138	6
139	9
140	14
141	6
143	1
148	28
149	16
150	1
151	11
152	38
153	7
163	7
165	4
166	7
167	5
169	5
170	1
171	4
172	4
178	3
179	18
180	592
181	61
182	35
183	6
194	18
196	224
197	81
198	95
199	9
200	4
202	1
208	5
211	7
212	17
213	4
226	4
227	96
228	10
229	7
240	5
241	3
244	9
272	1
273	27
274	3
275	1
