Mass Spectrum: 3-Oxetanol, 2,2,3-trimethyl-
Formula: C6H12O2
CAS: 25910-96-7
Molecular weight: 116
m/z	intensity
21	0
25	1
26	13
27	107
28	85
29	158
30	101
31	59
32	4
35	0
36	0
37	6
38	12
39	109
40	25
41	219
42	60
43	999
44	28
45	26
46	0
49	1
50	3
51	6
52	2
53	20
54	5
55	45
56	72
57	60
58	387
59	107
60	4
61	3
62	0
63	0
65	3
66	1
67	24
68	3
69	20
70	4
71	207
72	11
73	18
74	1
75	1
77	0
79	0
81	1
82	6
83	7
84	12
85	34
86	138
87	8
96	0
97	0
98	6
99	0
101	0
