Mass Spectrum: .alpha.-l-Talopyranoside, methyl 6-deoxy-, triacetate
Formula: C13H20O8
CAS: 2592-54-3
Molecular weight: 304
m/z	intensity
27	19
28	12
29	28
31	12
33	14
39	15
40	3
41	30
42	19
43	999
44	60
45	50
53	10
54	9
55	30
56	11
57	37
58	47
59	13
60	30
61	39
65	2
67	3
68	3
69	23
70	9
71	247
72	25
73	54
74	218
75	11
81	9
82	78
83	210
84	34
85	32
86	6
87	155
88	11
89	4
95	3
96	48
97	9
98	13
99	119
100	203
101	70
102	288
103	172
104	9
110	4
111	25
112	3
113	222
114	24
115	351
116	109
117	19
118	2
125	12
126	25
127	14
128	4
129	31
130	3
131	4
140	49
141	14
142	158
143	37
144	190
145	60
146	5
149	5
153	16
156	3
157	525
158	58
159	12
171	4
184	107
185	81
186	8
187	10
200	7
201	10
213	0
217	2
230	0
244	3
273	6
274	0
303	1
