Mass Spectrum: Piperazine-2,5-dione, 4-(4-methylbenzoyl)-
Formula: C12H12N2O3
CAS: 259228-04-1
Molecular weight: 232
m/z	intensity
39	34
40	13
41	37
42	93
43	6
44	2
46	1
50	7
51	20
55	2
56	3
62	6
63	25
65	137
66	3
70	1
75	3
76	3
77	14
79	3
89	39
91	330
92	14
105	41
106	2
118	4
119	999
120	63
121	3
146	3
232	92
233	11
