Mass Spectrum: .beta.-d-Allopyranose, pentabenzoate
Formula: C41H32O11
CAS: 2592-58-7
Molecular weight: 700
m/z	intensity
26	0
27	3
28	2
29	1
37	1
38	2
39	4
40	0
41	1
42	0
43	1
44	0
45	1
49	1
50	13
51	40
52	4
53	1
54	0
55	1
62	0
63	1
64	0
65	1
66	1
67	0
68	0
69	0
70	0
71	0
73	0
74	4
75	3
76	10
77	170
78	16
79	1
80	0
81	1
91	0
92	0
93	0
94	1
95	0
97	1
98	0
103	0
104	3
105	999
106	80
107	5
108	0
109	1
120	0
121	0
122	21
123	2
125	0
126	0
127	0
128	0
129	0
139	0
140	0
141	1
142	0
145	0
146	0
147	0
148	0
149	1
150	0
151	0
152	1
153	1
154	0
155	0
156	0
174	0
175	0
176	0
177	0
178	0
179	0
180	0
181	1
182	0
183	0
184	0
185	0
198	0
199	0
201	4
202	6
203	1
209	0
214	1
215	0
217	0
218	0
225	0
226	0
227	0
229	0
230	4
231	1
232	0
281	9
282	2
306	4
307	0
321	6
322	1
323	22
324	4
325	0
331	14
332	3
333	0
334	11
335	4
336	0
339	0
351	0
352	4
353	0
354	0
369	0
428	30
429	9
430	1
431	0
456	0
457	0
473	0
474	1
475	0
565	0
566	0
567	0
578	0
579	1
580	0
595	1
596	0
597	0
