Mass Spectrum: Benzene, 1,2-di(decyloxy)-
Formula: C26H46O2
CAS: 25934-47-8
Molecular weight: 390
m/z	intensity
33	1
34	0
35	0
36	0
37	0
38	1
39	15
40	11
41	163
42	27
43	321
44	15
45	1
46	0
48	0
50	1
51	2
52	8
53	9
54	9
55	163
56	24
57	211
58	9
59	1
60	0
61	0
62	0
63	2
64	3
65	9
66	2
67	11
68	6
69	67
70	12
71	77
72	4
73	0
74	0
75	0
76	1
77	6
78	1
79	3
80	5
81	17
82	6
83	34
84	5
85	61
86	4
87	0
89	0
90	0
91	2
92	2
93	7
94	5
95	13
96	2
97	14
98	1
99	5
100	0
101	0
102	0
103	1
104	0
105	1
106	0
107	3
108	5
110	999
111	66
112	5
113	0
115	0
117	0
119	1
121	20
122	4
123	7
124	1
125	1
126	0
127	0
128	0
129	0
131	0
133	1
134	0
135	1
136	1
137	1
138	0
139	0
141	0
145	0
147	0
148	0
149	4
150	1
151	1
152	0
153	0
159	0
161	0
162	0
163	0
164	0
165	0
166	0
167	0
168	0
171	0
176	0
177	0
178	0
179	0
180	0
189	0
190	0
191	0
193	0
206	0
207	0
219	0
220	0
222	0
234	0
235	0
238	0
239	0
246	0
248	0
250	60
251	11
252	1
253	0
263	0
266	0
267	0
276	0
277	0
292	0
295	0
304	0
318	0
320	0
332	0
338	0
346	0
348	0
362	0
388	0
390	136
391	35
392	6
393	1
