Mass Spectrum: Benzoyl chloride, (p-nitrophenyl)hydrazone
Formula: C13H10ClN3O2
CAS: 25939-13-3
Molecular weight: 275
m/z	intensity
16	5
17	7
18	22
26	21
27	29
28	43
30	999
31	7
35	6
36	16
37	28
38	94
39	187
40	25
41	41
42	13
43	10
44	12
45	6
46	15
49	7
50	129
51	174
52	153
53	57
54	7
55	5
61	17
62	92
63	489
64	316
65	73
66	10
73	12
74	24
75	63
76	152
77	188
78	50
79	38
80	153
81	21
84	5
85	3
86	5
87	9
88	13
89	139
90	427
91	120
92	15
97	7
99	12
100	5
101	5
102	16
103	116
104	110
105	386
106	82
107	13
108	5
109	4
115	5
116	3
117	36
118	8
120	26
121	5
122	8
123	4
124	4
125	3
126	5
127	5
128	3
136	136
137	24
138	11
139	12
140	11
141	3
145	223
146	25
149	2
152	3
153	3
154	5
155	3
163	5
164	18
165	24
166	24
167	14
181	12
182	4
191	6
192	57
193	167
194	119
195	17
207	3
208	4
209	43
210	9
222	9
223	31
224	7
227	4
228	11
229	5
230	5
239	412
240	77
241	8
245	3
257	2
259	4
275	806
276	127
277	270
278	42
279	4
