Mass Spectrum: 2-Oxazoline, 4,5-diethyl-2-phenyl-, cis-
Formula: C13H17NO
CAS: 25943-05-9
Molecular weight: 203
m/z	intensity
71	160
72	10
77	999
78	60
104	960
105	400
106	30
117	80
118	10
130	930
131	90
145	400
146	40
174	860
175	90
186	150
187	20
201	80
202	10
203	40
204	5
