Mass Spectrum: 8-Benzylamino-7-chloro-5,6-quinolinedione
Formula: C16H11ClN2O2
CAS: 25943-56-0
Molecular weight: 298
m/z	intensity
41	30
47	4
49	25
50	44
51	98
52	36
53	15
61	3
62	26
63	62
64	11
65	316
66	9
73	13
74	37
75	56
76	62
77	77
78	44
79	11
84	25
86	29
88	15
89	49
91	999
92	56
97	10
99	5
100	20
102	68
103	30
104	183
105	9
106	35
108	8
109	3
110	7
112	9
114	4
115	8
116	42
117	34
124	30
126	20
127	8
128	12
129	3
130	15
132	4
134	3
136	20
137	34
138	22
139	18
141	3
151	34
152	26
153	7
164	4
165	23
166	17
167	9
168	5
177	11
178	19
179	24
180	11
183	25
191	5
193	20
195	23
197	4
202	16
205	30
207	409
209	76
233	59
234	37
235	157
236	17
241	46
242	4
243	25
262	25
263	171
264	33
269	62
270	57
271	23
272	17
297	14
298	329
299	47
300	108
301	13
303	6
