Mass Spectrum: 3-(Benzyloxy)-2,2-dimethyl-1H-quinazolin-4-one
Formula: C17H18N2O2
CAS: 25940-22-1
Molecular weight: 282
m/z	intensity
35	2
36	4
37	21
38	53
39	209
40	41
41	94
42	260
43	17
44	15
48	2
49	11
50	145
51	279
52	96
53	29
54	7
55	5
56	97
57	5
58	3
61	10
62	32
63	129
64	121
65	280
66	41
67	3
73	8
74	40
75	29
76	62
77	447
78	91
79	87
80	10
88	4
89	40
90	75
91	999
92	393
93	33
102	7
103	8
104	14
105	125
106	89
107	155
108	26
111	3
115	5
116	7
117	136
118	51
119	174
120	119
121	5
130	26
131	23
132	421
133	133
134	16
135	21
136	3
144	8
145	5
146	32
147	8
158	1
159	50
160	301
161	597
162	69
163	2
164	2
173	4
174	4
175	46
176	24
177	10
191	2
197	2
210	3
239	2
254	2
267	219
268	34
269	4
282	38
283	6
