Mass Spectrum: 2-Oxazoline, 4,5-dioctyl-2-phenyl-, trans-
Formula: C25H41NO
CAS: 25943-12-8
Molecular weight: 371
m/z	intensity
67	170
68	10
69	300
70	20
71	40
77	450
78	30
81	120
82	10
104	600
105	999
106	70
122	180
123	20
130	180
131	20
258	650
259	150
260	20
371	20
