Mass Spectrum: .alpha.-d-Allofuranose, 1,2:5,6-bis-O-(1-methylethylidene)-
Formula: C12H20O6
CAS: 2595-05-3
Molecular weight: 260
m/z	intensity
40	3
41	203
42	76
43	759
44	81
45	60
55	385
56	12
57	123
58	87
59	723
60	3
61	69
62	9
70	160
71	32
72	229
73	367
74	352
97	72
98	12
99	178
100	105
101	999
102	94
103	29
127	830
128	21
129	141
159	503
160	18
186	25
187	123
245	119
246	18
247	14
