Mass Spectrum: Mecarbam
Formula: C10H20NO5PS2
CAS: 2595-54-2
Molecular weight: 329
m/z	intensity
14	4
15	21
16	2
25	2
26	23
27	219
28	74
29	733
30	84
31	43
32	27
33	2
34	1
35	3
39	2
40	2
41	16
42	276
43	95
44	71
45	184
46	128
47	158
48	23
49	7
54	12
55	76
56	129
57	25
58	411
59	42
60	26
61	29
62	10
63	94
64	20
65	454
66	4
67	3
68	1
69	2
70	6
71	3
72	26
73	61
74	97
75	63
76	133
77	12
78	19
79	28
80	47
81	33
82	7
83	3
84	3
85	1
86	319
87	123
88	71
89	17
90	10
91	27
92	5
93	265
94	15
95	35
96	3
97	999
98	13
99	52
100	11
101	8
102	59
103	24
104	148
105	14
106	16
107	8
108	11
109	31
110	15
111	7
112	44
113	25
114	19
115	93
116	354
117	26
118	8
119	6
120	22
121	318
122	18
123	13
124	6
125	532
126	28
127	39
128	121
129	330
130	11
131	964
132	189
133	57
134	17
135	2
136	2
137	9
138	9
139	11
140	13
141	15
142	35
143	130
144	129
145	104
146	17
147	8
148	85
149	20
150	9
151	3
152	2
153	319
154	30
155	27
156	11
157	92
158	14
159	517
160	403
161	59
162	24
163	4
164	2
165	3
166	5
167	3
168	10
169	7
170	27
171	114
172	10
173	8
174	5
175	3
176	22
177	70
178	10
179	5
180	5
182	9
183	9
184	17
185	36
186	23
187	8
188	4
191	3
192	3
193	1
195	3
196	19
197	2
198	105
199	53
200	14
201	5
202	5
206	110
207	9
208	6
209	1
210	2
211	4
212	7
224	7
225	1
226	107
227	84
228	17
229	8
240	1
252	25
253	3
254	2
255	1
256	5
268	7
282	3
283	12
284	17
285	3
286	2
296	124
297	14
298	7
328	1
329	214
330	27
331	22
332	3
