Mass Spectrum: 1-Triethylsilyloxyundec-10-ene
Formula: C17H36OSi
CAS: 259684-18-9
Molecular weight: 284
m/z	intensity
27	131
28	25
29	198
30	4
31	35
36	15
37	4
38	9
39	129
40	25
41	419
42	114
43	129
44	37
45	136
46	9
47	228
48	9
49	8
50	8
51	19
52	15
53	45
54	47
55	307
56	55
57	79
58	41
59	186
60	15
61	49
62	4
63	6
64	4
65	6
66	6
67	79
68	28
69	118
70	28
71	35
72	8
73	63
74	19
75	651
76	48
77	29
78	8
79	21
80	4
81	56
82	21
83	53
84	13
85	29
86	11
87	195
88	21
89	85
90	7
91	6
92	4
93	13
94	4
95	52
96	7
97	18
98	6
99	28
100	4
101	58
102	7
103	999
104	91
105	39
106	4
107	6
109	18
110	4
111	9
112	4
113	24
114	4
115	97
116	8
117	65
118	7
119	6
121	12
123	7
124	4
125	6
126	4
127	18
128	4
129	41
130	4
131	4
139	4
141	6
143	17
144	4
145	4
149	4
153	4
155	4
157	9
167	4
169	4
171	6
185	6
197	4
199	4
202	8
203	4
213	7
225	4
226	4
227	58
228	13
229	6
253	15
255	441
256	89
257	21
258	4
