Mass Spectrum: 1,2,4-Triazole, 3-heptafluoropropyl-5-amino-
Formula: C5H3F7N4
CAS: 25979-02-6
Molecular weight: 252
m/z	intensity
33	7
34	11
36	6
38	10
39	27
41	63
43	999
44	64
45	22
46	23
47	4
48	1
50	80
51	25
53	180
54	32
55	61
57	228
58	24
59	4
60	6
61	6
63	19
64	2
65	5
66	23
67	15
69	518
70	22
71	20
72	6
73	6
74	11
75	8
76	61
77	60
78	39
79	8
80	5
81	18
82	7
83	10
84	11
85	20
86	2
88	13
89	9
91	260
93	41
94	7
95	6
96	4
97	5
98	3
100	83
101	2
102	1
103	2
104	16
105	48
107	33
108	38
109	7
110	3
111	4
112	9
113	13
114	2
115	4
116	9
117	2
118	3
119	57
120	4
122	9
123	4
124	2
125	2
126	3
127	2
128	3
129	2
131	13
133	910
134	34
135	6
136	2
137	1
138	4
139	1
140	1
141	3
142	0
143	2
144	0
150	7
151	1
152	5
153	5
154	0
157	1
158	14
159	1
160	0
163	1
164	34
165	4
166	0
169	46
171	7
172	1
174	0
175	0
176	2
177	2
178	3
179	0
183	21
184	1
185	3
186	0
190	0
191	3
192	0
196	11
197	0
202	6
203	5
204	2
205	1
206	1
207	0
221	0
233	152
234	10
235	0
251	2
252	385
253	27
254	1
255	0
256	0
