Mass Spectrum: Carbamimidothioic acid, 2-sulfoethyl ester
Formula: C3H8N2O3S2
CAS: 25985-57-3
Molecular weight: 184
m/z	intensity
12	4
13	13
14	6
15	12
16	114
17	165
18	96
19	7
25	7
26	81
27	398
28	168
29	28
30	3
31	5
32	74
33	33
34	75
35	100
36	4
37	5
38	6
39	3
40	6
41	36
42	328
43	286
44	82
45	256
46	27
47	70
48	104
49	9
50	7
51	1
52	1
53	3
54	1
55	3
56	5
57	30
58	110
59	482
60	999
61	260
62	66
63	15
64	320
65	101
66	27
67	8
68	29
69	6
70	2
71	1
72	4
73	4
74	17
75	2
76	237
77	8
78	20
79	4
80	4
81	25
82	11
83	9
84	30
85	98
86	39
87	6
88	2
89	1
90	5
91	10
92	7
93	2
94	2
96	7
97	1
98	1
99	2
100	6
101	15
102	6
103	2
105	4
106	1
107	7
108	6
109	6
110	8
111	6
116	4
117	2
118	2
119	3
120	5
122	1
124	20
125	5
126	76
127	41
128	4
129	2
138	3
142	58
143	16
144	7
145	2
149	1
151	12
152	4
153	3
156	1
166	16
167	7
168	9
169	2
