Mass Spectrum: Oxazol-5(4H)-one, 2-phenyl-4-(4-tolylamino)methylene-
Formula: C17H14N2O2
CAS: 259810-98-5
Molecular weight: 278
m/z	intensity
33	0
37	0
39	43
41	16
42	0
43	1
44	2
45	1
50	23
51	128
52	15
53	6
54	1
55	0
57	0
58	0
62	28
65	117
66	5
67	0
69	0
70	0
71	0
72	0
74	9
77	491
78	29
79	2
80	0
87	2
89	52
91	204
92	15
93	0
100	0
101	2
102	5
103	24
105	999
106	62
107	4
108	0
113	0
114	2
116	17
118	66
119	3
128	11
130	58
131	34
132	4
133	0
139	15
140	1
141	0
142	6
145	112
146	6
147	0
152	0
155	2
156	1
157	2
158	0
165	1
171	0
173	0
178	0
179	0
187	0
190	0
191	0
192	1
194	14
195	2
204	1
206	4
207	17
208	2
216	0
218	3
219	9
220	1
221	0
222	0
229	0
231	1
233	151
234	57
235	8
248	0
249	1
250	1
259	21
260	4
261	0
273	0
274	1
275	3
276	5
278	795
279	144
280	14
281	1
