Mass Spectrum: Sulfur, pentafluoro(2-oxopropyl)-, (OC-6-21)-
Formula: C3H5F5OS
CAS: 2599-72-6
Molecular weight: 184
m/z	intensity
15	20
27	80
29	80
42	120
43	999
61	150
89	340
127	80
169	130
184	70
