Mass Spectrum: Methyl phenethylcarbamate
Formula: C10H13NO2
CAS: 26011-68-7
Molecular weight: 179
m/z	intensity
27	9
29	5
32	9
37	2
38	7
39	36
41	12
42	20
43	17
44	236
46	5
50	21
51	50
52	14
53	14
56	8
59	108
63	44
64	18
65	168
66	10
69	8
70	5
73	5
74	5
77	73
78	38
79	34
80	11
81	7
88	999
89	75
90	20
91	330
92	77
93	4
96	5
98	4
102	17
103	48
104	555
105	169
106	15
116	6
117	12
118	33
119	34
120	9
123	4
124	3
130	3
134	3
141	5
144	3
146	5
147	25
148	29
164	34
179	188
180	23
181	5
