Mass Spectrum: 2-Oxazoline, 4,5-dioctyl-2-phenyl-, cis-
Formula: C25H41NO
CAS: 26015-58-7
Molecular weight: 371
m/z	intensity
67	120
68	10
69	200
70	10
71	80
77	350
78	20
81	100
82	10
104	450
105	999
106	70
122	200
123	20
130	220
131	20
258	300
259	70
260	10
371	30
