Mass Spectrum: Propanethioic acid, S-pentyl ester
Formula: C8H16OS
CAS: 2602-64-4
Molecular weight: 160
m/z	intensity
28	15
29	214
30	6
39	25
40	3
41	95
42	30
43	76
44	2
45	17
46	9
47	23
53	7
55	30
56	38
57	999
58	41
59	12
60	10
61	17
67	5
68	4
69	31
70	25
71	24
72	6
73	4
75	4
86	31
87	6
90	16
91	52
100	27
102	22
103	35
131	21
142	2
160	58
161	4
162	2
