Mass Spectrum: 1,3,5-Triazine, 1,3,5-triacetylhexahydro-
Formula: C9H15N3O3
CAS: 26028-46-6
Molecular weight: 213
m/z	intensity
36	1
38	6
39	15
40	48
41	98
42	662
43	999
44	25
45	101
46	7
47	2
51	1
52	4
53	6
54	9
55	32
56	67
57	207
58	103
59	11
60	49
61	1
67	3
68	4
69	22
70	66
71	45
72	279
73	31
79	1
81	3
82	26
83	13
84	84
85	287
86	30
87	422
88	16
99	123
100	484
101	41
102	6
110	2
111	7
112	20
113	9
114	9
115	2
126	2
127	19
128	46
129	240
130	17
141	2
142	65
143	5
154	278
155	22
156	10
170	50
171	37
172	4
213	163
214	16
215	2
