Mass Spectrum: 1-(2-Chlorobenzoyl)-4-(phenyl)thiosemicarbazide
Formula: C14H12ClN3OS
CAS: 26036-04-4
Molecular weight: 305
m/z	intensity
33	6
34	7
35	13
37	152
38	181
39	262
40	32
41	26
42	15
43	30
44	64
45	29
46	9
47	9
49	220
50	528
51	536
52	86
53	20
54	10
55	7
56	7
57	11
58	24
59	39
60	65
61	55
62	72
63	134
64	153
65	226
66	42
67	10
68	14
69	20
70	31
71	8
72	24
74	321
75	487
77	999
78	74
79	11
80	9
81	5
82	10
83	15
84	32
85	46
86	12
87	25
88	7
90	58
91	66
92	114
93	235
94	14
95	9
97	20
99	16
100	3
101	7
102	27
103	24
104	34
105	19
106	1
107	16
109	158
111	455
113	172
114	6
117	11
118	27
119	17
120	14
121	17
123	12
124	9
125	10
126	5
131	1
132	2
135	234
136	186
137	44
139	839
141	296
142	6
149	34
150	15
151	9
152	20
153	2
154	4
155	6
166	10
167	2
170	113
171	11
172	31
179	2
180	2
212	6
214	2
270	6
272	8
305	36
306	7
307	12
