Mass Spectrum: 2,3-Benzo-11,12-cyclohexano-1,4,7,10,13,16-hexaoxacyclooctadecane
Formula: C20H30O6
CAS: 26030-69-3
Molecular weight: 366
m/z	intensity
50	3
51	4
52	18
53	14
54	12
55	37
56	12
57	53
58	999
59	59
60	5
64	7
65	18
66	4
67	20
68	5
69	24
70	14
71	26
72	8
73	78
74	5
75	3
79	16
80	47
81	77
82	14
83	14
84	4
87	16
88	3
89	33
90	3
91	10
92	4
93	10
94	4
95	8
96	5
97	18
98	8
99	24
100	3
107	12
108	18
109	24
110	29
111	11
112	5
113	6
114	2
120	3
121	63
122	10
123	4
124	3
133	5
134	2
135	9
136	196
137	51
138	6
141	7
142	4
143	11
144	2
149	88
150	10
151	3
167	1
168	3
169	6
170	1
180	18
181	12
182	2
198	41
199	7
200	1
205	4
206	1
223	5
224	4
225	3
226	1
242	4
243	1
278	7
279	6
280	1
366	33
367	9
368	2
