Mass Spectrum: Carbamic acid, [3-chloro-2-oxo-1-(phenylmethyl)propyl]-, phenylmethyl ester, (S)-
Formula: C18H18ClNO3
CAS: 26049-94-5
Molecular weight: 331
m/z	intensity
15	2
16	2
26	1
27	6
28	7
29	1
30	1
35	2
36	28
37	1
38	9
39	22
40	3
41	8
42	4
43	59
44	8
45	1
49	5
50	9
51	26
52	7
53	5
54	1
55	4
56	1
57	3
58	1
61	1
62	4
63	14
64	5
65	60
66	4
67	1
68	1
69	2
70	1
71	2
73	1
74	3
75	4
76	4
77	58
78	13
79	87
80	8
81	1
82	1
83	3
85	1
86	1
87	1
88	2
89	25
90	22
91	999
92	89
93	5
95	1
96	1
97	1
98	1
99	1
101	1
102	2
103	8
104	5
105	9
106	5
107	59
108	93
109	8
110	1
111	3
113	1
114	1
115	8
116	20
117	21
118	16
119	7
120	8
121	1
125	1
127	2
128	37
129	9
130	3
131	13
132	7
133	3
134	2
139	7
140	1
141	3
142	1
143	15
144	10
145	9
146	31
147	3
149	1
150	1
151	3
152	1
155	1
158	2
159	5
160	2
161	1
162	1
163	1
164	2
165	1
167	1
168	1
172	1
174	2
176	1
177	1
178	3
179	1
180	18
181	10
182	8
183	2
186	22
187	57
188	26
189	6
193	4
194	1
196	1
204	6
205	1
208	1
209	1
210	172
211	28
212	2
213	1
223	4
225	1
240	1
248	1
250	1
251	9
252	6
253	6
254	192
255	35
256	3
266	1
270	1
278	1
295	2
