Mass Spectrum: 1-Pentacosanol
Formula: C25H52O
CAS: 26040-98-2
Molecular weight: 368
m/z	intensity
25	0
26	2
27	94
29	368
30	5
31	153
33	0
39	57
41	885
42	221
43	999
44	30
45	10
47	0
53	22
54	86
55	909
56	372
57	911
58	37
59	3
66	17
67	147
68	251
69	894
70	348
71	471
72	27
73	12
79	8
80	13
81	172
82	464
83	954
84	243
85	375
86	21
87	0
93	1
94	9
95	112
96	266
97	955
98	162
99	144
100	10
109	67
110	156
111	613
112	146
113	95
114	5
118	0
121	2
122	9
123	62
124	141
125	392
126	105
127	63
128	4
132	0
135	2
136	6
137	45
138	92
139	237
140	94
141	42
142	4
148	14
149	13
150	12
151	10
152	68
153	148
154	68
155	25
156	3
162	8
163	0
164	7
165	4
166	44
167	99
168	44
169	16
170	2
171	0
177	0
178	0
179	2
180	35
181	69
182	37
183	14
184	0
186	0
191	0
193	2
194	25
195	42
196	27
197	8
198	1
201	0
205	0
206	1
207	1
208	25
209	37
210	23
211	7
219	0
220	0
222	20
223	25
224	16
225	4
226	1
232	1
234	0
236	15
237	21
238	13
239	3
240	0
250	14
251	13
252	11
253	1
260	1
264	9
265	10
266	13
267	5
268	0
270	0
277	1
278	9
279	8
280	7
281	3
282	0
290	0
292	5
293	6
294	6
295	2
296	0
303	0
305	0
306	5
307	5
308	2
309	1
311	0
319	0
320	2
321	2
322	24
323	5
324	0
331	0
335	0
348	6
349	2
350	91
351	24
352	3
