Mass Spectrum: Cholest-7-en-3-one, 4,4-dimethyl-, (5.alpha.)-
Formula: C29H48O
CAS: 2604-90-2
Molecular weight: 412
m/z	intensity
40	20
41	767
42	121
43	999
44	50
45	161
53	90
54	30
55	797
56	171
57	686
58	30
60	20
65	40
66	10
67	323
68	90
69	515
70	121
71	383
72	30
73	20
77	121
78	40
79	262
80	60
81	444
82	101
83	353
84	50
85	131
91	323
92	90
93	292
94	101
95	535
96	151
97	202
98	30
99	40
100	20
103	30
104	30
105	373
106	90
107	292
108	101
109	292
110	50
111	101
112	20
113	20
115	30
116	20
117	101
118	40
119	282
120	90
121	262
122	90
123	242
124	90
125	141
126	20
127	30
128	40
129	60
130	30
131	151
132	40
133	212
134	121
135	262
136	80
137	101
138	50
139	60
140	10
141	20
142	20
143	50
144	30
145	161
146	60
147	232
148	70
149	161
150	40
151	60
152	40
153	30
155	20
156	20
157	60
158	30
159	131
160	40
161	212
162	50
163	90
164	20
165	50
166	20
167	20
169	30
170	20
171	60
172	30
173	101
174	20
175	60
176	20
177	60
178	10
179	30
183	20
185	30
186	30
187	111
188	30
189	70
190	20
191	50
193	10
197	20
199	40
200	10
201	60
202	30
203	90
204	40
205	40
206	20
207	20
211	10
213	50
214	10
215	50
216	20
217	20
218	10
219	10
220	10
221	10
225	20
227	20
229	50
230	10
231	20
233	10
234	10
239	30
241	10
243	30
244	80
245	70
246	10
247	60
248	20
255	30
257	373
258	90
259	70
260	30
261	70
262	30
271	20
272	60
273	80
274	30
275	20
277	50
281	40
285	20
286	20
287	20
298	20
299	454
300	111
301	30
313	40
314	20
326	20
327	40
369	20
397	252
398	80
412	838
413	303
414	50
