Mass Spectrum: Cyclopropanecarboxylic acid, 2,2-dimethyl-3-(2-methyl-1-propenyl)-, (3-phenoxyphenyl)methyl ester, (1R-trans)-
Formula: C23H26O3
CAS: 26046-85-5
Molecular weight: 350
m/z	intensity
51	34
52	7
53	26
54	3
55	42
56	2
57	12
58	1
59	2
61	1
62	2
63	11
64	8
65	23
66	6
67	34
68	3
69	27
70	2
71	3
72	1
75	2
76	5
77	80
78	19
79	41
80	7
81	160
82	13
83	17
84	1
85	4
86	1
89	47
90	29
91	40
92	6
93	29
94	7
95	32
96	4
97	5
98	1
102	2
103	3
104	1
105	11
106	4
107	33
108	10
109	16
110	2
111	3
112	1
113	1
115	32
116	5
117	1
118	1
119	2
121	40
123	999
124	96
125	11
126	2
127	18
128	23
129	18
130	2
131	2
132	1
139	15
140	3
141	12
142	3
143	1
144	2
145	1
149	9
150	2
151	8
152	19
153	37
154	21
155	17
156	3
157	2
158	1
164	2
165	31
166	7
167	13
168	44
169	10
170	1
181	34
182	25
183	545
184	103
185	11
186	1
197	2
198	2
199	1
200	2
201	1
223	2
224	1
235	2
236	1
250	8
251	8
252	1
294	3
295	1
307	4
308	1
350	53
351	14
352	2
353	1
