Mass Spectrum: Bicyclo[2.2.2]octanone, 3-methyl-
Formula: C9H14O
CAS: 26051-25-2
Molecular weight: 138
m/z	intensity
41	210
42	20
43	40
50	10
51	20
52	10
53	60
54	170
55	130
56	30
57	20
58	20
59	10
60	10
65	10
66	20
67	210
68	230
69	110
70	10
77	20
78	50
79	80
80	999
81	410
82	80
83	10
84	20
91	20
94	10
95	190
96	30
97	10
105	10
107	10
109	40
110	20
120	10
123	20
138	380
139	40
140	10
