Mass Spectrum: Phosphine, acetylbis(1,1-dimethylethyl)-
Formula: C10H21OP
CAS: 26058-95-7
Molecular weight: 188
m/z	intensity
39	17
41	146
43	284
55	25
56	25
57	999
58	69
61	51
76	150
89	64
90	34
91	25
92	25
132	120
133	30
146	38
147	8
188	43
189	8
