Mass Spectrum: Cyclopropanecarboxylic acid, 2-chlorophenyl ester
Formula: C10H9ClO2
CAS: 26051-09-2
Molecular weight: 196
m/z	intensity
26	23
27	39
28	1
29	7
39	370
40	53
41	875
42	44
43	4
50	35
51	29
52	24
53	20
55	27
60	6
61	24
62	37
63	114
64	72
65	28
66	4
67	4
68	25
69	999
70	129
71	11
72	10
73	85
74	16
75	61
76	10
77	11
78	8
82	3
83	4
84	3
85	9
91	7
92	21
93	8
94	4
99	105
100	9
101	35
102	5
103	3
105	7
107	4
111	23
113	7
127	14
128	88
129	12
130	30
131	5
161	3
196	118
197	13
198	40
199	4
