Mass Spectrum: 2-Cyclohexene-1-carboxylic acid, 2-(7-hydroxy-3-methyl-1,3-octadienyl)-1,3-dimethyl-4-oxo-, methyl ester, [R-[R*,S*-(E,E)]]-
Formula: C19H28O4
CAS: 26055-31-2
Molecular weight: 320
m/z	intensity
15	100
17	20
18	110
19	10
26	5
27	120
28	105
29	160
30	20
31	130
32	12
39	140
40	30
41	360
42	30
43	999
44	90
45	310
46	10
47	20
48	10
49	100
50	10
51	50
52	25
53	120
54	25
55	410
56	90
57	110
58	40
59	100
60	10
63	10
64	10
65	80
66	20
67	120
68	20
69	130
70	10
71	50
72	15
73	20
74	10
77	150
78	50
79	140
80	40
81	160
82	20
83	60
84	70
85	390
86	40
87	20
88	10
91	270
92	50
93	140
94	50
95	90
96	30
97	40
98	10
99	40
100	10
101	30
102	10
103	30
104	15
105	160
106	40
107	130
108	50
109	70
110	10
111	30
112	50
113	25
114	25
115	70
116	30
117	70
118	25
119	170
120	50
121	110
122	120
123	90
124	20
125	80
126	10
127	20
128	60
129	70
130	40
131	110
132	40
133	100
134	50
135	190
136	50
137	100
138	40
139	20
141	30
142	20
143	80
144	50
145	140
146	50
147	220
148	60
149	120
150	40
151	40
152	30
153	10
154	20
155	20
156	20
157	60
158	40
159	170
160	70
161	90
162	110
163	260
164	50
165	20
166	5
167	10
168	5
169	20
170	10
171	70
172	30
173	130
174	40
175	110
176	40
177	70
178	30
179	30
180	10
181	20
182	10
183	40
184	20
185	60
186	20
187	110
188	30
189	40
190	10
191	70
192	30
193	20
194	50
195	30
196	20
197	20
198	10
199	40
200	20
201	50
202	50
203	40
204	10
205	30
206	35
207	120
208	15
209	60
210	20
211	35
212	35
213	20
214	10
215	30
216	10
217	30
218	10
219	10
220	140
221	40
222	20
223	10
224	5
225	16
227	40
228	10
229	10
230	10
231	10
232	10
233	10
234	10
235	10
236	10
243	30
244	10
245	10
246	5
247	15
248	5
249	10
250	40
251	20
252	90
253	10
259	10
260	10
261	20
262	10
271	10
272	5
273	10
274	5
275	10
276	10
277	5
287	30
288	10
289	5
305	30
306	5
320	190
321	30
322	10
