Mass Spectrum: Acetophenone o-benzoyloxime
Formula: C15H13NO2
CAS: 26060-56-0
Molecular weight: 239
m/z	intensity
27	2
28	1
38	2
39	5
41	1
42	4
43	1
50	12
51	52
52	6
62	1
63	3
64	1
65	5
66	1
74	3
75	4
76	10
77	228
78	25
79	2
89	1
91	2
93	4
94	1
102	1
103	12
104	30
105	999
106	83
107	5
117	7
118	15
119	20
120	2
122	20
123	1
135	1
139	1
197	10
198	2
239	32
240	6
