Mass Spectrum: N-Fluoro-2,2-bis(trifluoromethyl)aziridine
Formula: C4H2F7N
CAS: 26071-21-6
Molecular weight: 197
m/z	intensity
28	64
33	739
34	8
40	48
44	9
64	93
65	15
69	999
70	42
71	11
78	192
79	7
90	38
91	8
95	58
96	9
108	26
109	227
110	8
128	765
129	29
148	4
158	38
159	122
160	5
178	486
179	24
197	83
198	4
