Mass Spectrum: N-Methyl-2,2-bis(trifluoromethyl)aziridine
Formula: C5H5F6N
CAS: 26071-19-2
Molecular weight: 193
m/z	intensity
28	999
29	202
30	22
32	80
33	214
34	2
42	131
43	10
45	42
55	42
69	240
70	3
78	35
79	11
90	42
91	9
95	80
96	11
109	35
110	99
111	12
124	48
125	8
128	640
129	24
158	42
159	125
160	19
174	96
175	21
178	669
179	33
193	416
194	25
