Mass Spectrum: .alpha.-Bromobutyryl bromide
Formula: C4H6Br2O
CAS: 26074-52-2
Molecular weight: 228
m/z	intensity
12	1
13	3
14	7
15	21
16	1
18	1
24	1
25	8
26	52
27	174
28	9
29	16
36	4
37	24
38	43
39	253
40	36
41	999
42	61
43	7
44	3
45	1
47	6
49	2
50	4
51	2
53	7
54	5
55	172
56	7
57	1
60	1
68	3
69	16
70	25
71	5
79	36
80	29
81	34
82	28
91	3
92	7
93	29
94	8
95	25
96	1
104	2
105	10
106	6
107	22
108	4
109	10
117	1
119	6
120	14
121	500
122	26
123	495
124	15
126	1
128	2
133	4
135	5
137	1
140	1
148	5
149	321
150	19
151	317
152	13
158	1
160	2
162	1
169	1
171	1
173	1
202	1
