Mass Spectrum: 8-Pentadecanone, oxime
Formula: C15H31NO
CAS: 26077-65-6
Molecular weight: 241
m/z	intensity
54	20
55	180
56	20
57	140
67	20
69	100
73	999
74	30
81	10
82	10
83	40
86	250
87	50
114	10
115	10
124	60
125	200
126	10
140	50
142	200
157	300
158	20
170	130
184	20
224	20
240	10
241	50
242	10
