Mass Spectrum: Bis(4-methyl-1-homopiperazinylthiocarbonyl) disulfide
Formula: C14H26N4S4
CAS: 26087-98-9
Molecular weight: 378
m/z	intensity
12	9
14	5
15	97
16	1
17	1
18	3
25	2
26	19
27	74
28	147
29	33
30	83
31	3
32	107
33	5
34	9
37	3
38	31
39	49
40	19
41	175
42	549
43	277
44	296
45	21
46	11
47	3
50	2
51	3
52	9
53	6
54	38
55	30
56	96
57	276
58	579
59	25
60	13
61	5
63	1
64	31
65	2
66	4
67	12
68	37
69	54
70	369
71	155
72	228
73	13
74	13
75	4
76	999
77	34
78	91
79	3
80	6
81	8
82	66
83	82
84	173
85	71
86	34
87	6
88	13
89	3
90	4
91	1
92	1
93	1
94	7
95	8
96	30
97	60
98	43
99	26
100	42
101	9
102	20
103	2
104	5
105	4
106	1
107	2
108	3
109	12
110	21
111	34
112	84
113	119
114	193
115	22
116	16
117	8
118	2
119	2
120	4
121	1
122	1
123	11
124	5
125	7
126	9
127	18
128	7
129	138
130	15
131	9
132	4
133	3
134	1
135	1
136	1
138	2
139	1
140	2
141	9
142	9
143	9
144	6
145	22
146	7
147	2
148	1
149	1
150	1
151	1
152	1
153	2
154	5
155	22
156	14
157	227
158	28
159	15
160	3
161	1
167	1
169	1
170	2
171	1
172	6
173	1
174	3
175	2
176	1
177	2
178	1
179	1
180	1
182	1
183	1
184	2
185	3
186	11
187	6
188	27
189	55
190	43
191	9
192	3
193	1
194	1
195	1
196	1
198	2
199	1
200	2
204	1
209	1
211	1
213	3
214	1
218	23
219	5
220	4
221	2
222	1
223	1
224	1
228	1
235	1
236	2
237	3
241	1
242	1
251	7
252	1
253	5
254	1
255	2
256	1
270	11
271	3
272	1
282	1
297	2
298	1
312	1
314	3
346	8
347	2
348	2
378	1
