Mass Spectrum: 3,3'-Azoxyfurazan-4,4'-diol
Formula: C4H2N6O5
CAS: 260963-75-5
Molecular weight: 214
m/z	intensity
33	11
36	2
38	89
40	112
41	156
42	234
43	139
44	68
45	33
46	9
47	2
49	0
50	9
52	119
54	999
55	139
57	181
58	13
59	3
60	5
64	0
66	7
68	79
69	166
70	62
71	22
72	26
73	20
80	3
81	6
82	10
83	3
84	8
85	13
86	4
94	5
96	37
97	12
98	10
99	0
101	0
108	1
109	3
110	7
113	810
115	46
116	0
125	1
126	8
127	2
129	2
130	3
140	34
141	1
152	1
153	7
156	867
158	5
198	1
214	1
