Mass Spectrum: N-Cyclododecylacetamide
Formula: C14H27NO
CAS: 26093-81-2
Molecular weight: 225
m/z	intensity
33	22
34	3
36	14
38	9
39	86
40	80
41	316
43	789
44	142
45	9
49	1
50	3
51	9
53	46
54	57
55	219
56	908
57	123
58	21
60	999
61	23
62	2
63	2
64	1
65	13
66	12
67	121
68	54
69	82
70	112
71	38
72	38
73	74
74	7
77	15
78	2
79	27
81	124
82	124
83	48
84	52
85	49
86	51
87	26
88	2
91	8
92	2
93	8
95	81
96	156
98	209
99	31
100	24
101	17
102	1
103	1
105	5
106	2
107	3
108	6
109	34
110	36
112	113
113	14
114	21
115	6
120	1
121	5
122	4
123	14
124	17
125	6
126	41
127	10
128	12
129	5
133	1
135	6
137	9
138	17
140	65
141	11
142	9
143	2
149	2
151	3
153	4
154	35
155	5
156	6
164	1
166	32
167	7
168	22
169	4
170	1
171	11
177	1
182	31
183	4
184	5
185	1
196	4
208	1
210	11
225	45
226	7
