Mass Spectrum: 1-(1,3-Dioxo-1,3-dihydro-isoindol-2-yl)-2-methyl-aziridine-2-carboxylic acid methyl ester
Formula: C13H12N2O4
CAS: 26107-17-5
Molecular weight: 260
m/z	intensity
33	1
34	1
35	3
36	9
37	15
38	37
39	157
40	64
41	273
42	42
43	67
44	31
45	322
46	7
47	3
48	1
49	15
50	287
51	34
52	34
53	19
54	72
55	73
56	40
57	26
58	4
59	31
60	13
61	4
62	5
63	13
64	12
65	5
66	45
67	9
68	12
69	89
70	18
71	13
72	6
73	18
74	64
75	93
76	628
77	67
78	4
79	2
81	28
82	17
83	11
84	9
85	18
86	45
87	5
88	4
90	31
91	5
92	1
93	1
94	0
95	3
96	2
97	5
98	7
99	6
100	5
101	3
102	26
103	99
104	999
105	346
106	24
107	1
109	1
110	1
111	3
113	15
114	114
115	10
117	14
118	2
119	6
121	1
123	0
125	0
127	1
128	2
129	7
130	108
131	16
132	36
133	9
134	0
135	0
137	0
143	0
144	1
145	6
147	151
148	59
149	15
150	1
152	0
155	0
157	0
158	1
160	34
161	4
162	3
163	0
167	2
168	0
171	5
172	12
173	25
174	5
175	2
185	1
187	13
188	1
189	2
198	0
199	6
200	39
201	36
202	4
221	0
226	2
228	123
229	29
230	3
232	0
245	2
256	0
257	0
258	2
260	93
261	12
262	0
