Mass Spectrum: 2(3H)-Furanone, 5-ethyldihydro-3-methyl-
Formula: C7H12O2
CAS: 2610-98-2
Molecular weight: 128
m/z	intensity
15	26
16	45
17	150
20	30
26	23
27	149
39	73
40	144
41	152
42	48
43	591
44	42
53	28
55	182
56	235
57	158
67	38
69	109
71	172
73	237
81	31
84	44
85	34
95	43
99	999
100	58
113	144
