Mass Spectrum: 6-Hepten-3-one, 4-methyl-
Formula: C8H14O
CAS: 26118-97-8
Molecular weight: 126
m/z	intensity
12	2
14	2
15	14
16	4
17	45
18	190
26	35
27	246
28	59
29	388
30	9
31	6
37	7
38	20
39	273
40	35
41	690
42	50
43	59
44	1
45	4
50	11
51	20
52	8
53	61
54	23
55	61
56	33
57	999
58	35
59	7
61	1
62	3
63	6
65	9
66	3
67	41
68	33
69	409
70	26
71	1
72	1
77	4
79	4
81	2
83	7
84	6
85	6
86	1
91	1
93	1
97	55
98	3
126	8
