Mass Spectrum: 3,6-Heptadien-2-ol, 2,5,5-trimethyl-, (E)-
Formula: C10H18O
CAS: 26127-98-0
Molecular weight: 154
m/z	intensity
26	7
27	126
30	2
31	57
38	6
39	159
40	6
41	229
42	16
43	999
44	33
45	29
46	1
50	13
51	50
52	26
53	107
54	25
55	181
56	9
57	85
58	15
59	486
60	14
61	12
62	4
63	14
64	1
65	47
66	13
67	222
68	20
69	79
70	21
71	42
72	91
73	4
74	1
76	1
77	148
78	48
79	220
80	38
81	268
82	88
83	90
84	29
85	297
86	19
89	0
91	157
92	19
93	265
94	44
95	177
96	175
97	165
98	10
99	0
103	25
104	3
105	137
106	30
107	108
108	49
109	32
110	13
111	45
112	6
113	0
115	0
119	26
120	2
121	250
122	26
123	8
124	5
125	1
136	36
137	14
138	2
139	235
140	21
141	1
