Mass Spectrum: 4,5-Dimethyl-2-isobutyloxazole
Formula: C9H15NO
CAS: 26131-91-9
Molecular weight: 153
m/z	intensity
25	2
26	18
27	94
28	104
29	26
30	3
34	2
36	2
37	11
38	17
39	88
40	33
41	178
42	154
43	249
44	4
45	6
46	3
47	1
50	3
51	13
52	10
53	21
54	16
55	48
56	5
57	8
60	1
64	2
65	6
66	18
67	28
68	100
69	61
70	39
71	6
72	1
80	2
81	1
82	20
83	3
84	5
87	2
94	4
96	7
97	1
98	2
99	2
100	2
101	2
102	2
103	2
104	2
105	2
106	2
107	2
108	2
109	9
110	846
111	999
112	45
113	2
114	3
116	2
117	2
118	1
121	1
122	2
123	3
124	10
125	2
126	2
128	2
130	2
131	2
134	2
136	3
137	5
138	100
139	6
140	1
152	32
153	99
154	10
