Mass Spectrum: Propanedioic acid, phenyl-
Formula: C9H8O4
CAS: 2613-89-0
Molecular weight: 180
m/z	intensity
12	4
15	1
16	13
17	3
18	10
26	4
27	11
28	24
29	4
31	1
32	1
36	3
37	7
38	17
39	85
40	9
41	19
42	2
43	8
44	309
45	20
46	2
49	3
50	26
51	42
52	10
53	8
54	2
55	2
57	2
59	5
60	1
61	9
62	25
63	58
64	18
65	137
66	10
73	2
74	6
75	5
76	3
77	23
78	5
79	14
80	2
84	1
85	3
86	5
87	4
88	1
89	60
90	62
91	999
92	194
93	13
94	5
105	2
107	8
108	2
118	55
119	6
135	3
136	321
137	30
138	3
180	4
