Mass Spectrum: Acetic acid, trifluoro-, 1,2-ethanediyl ester
Formula: C6H4F6O4
CAS: 2613-44-7
Molecular weight: 254
m/z	intensity
42	10
43	50
45	20
47	40
50	10
59	10
69	999
70	10
78	10
95	10
97	60
99	150
112	10
113	140
115	10
127	70
128	40
140	90
141	170
142	10
196	7
253	3
