Mass Spectrum: trans-Cinnamyl bromide
Formula: C9H9Br
CAS: 26146-77-0
Molecular weight: 196
m/z	intensity
15	1
26	3
27	10
28	1
37	4
38	11
39	68
40	6
41	6
43	3
44	1
45	1
49	2
50	32
51	57
52	14
53	3
55	1
57	51
58	39
61	6
62	20
63	50
64	10
65	38
66	3
71	4
73	2
74	12
75	10
76	11
77	32
78	14
79	5
80	6
81	4
82	6
85	3
86	6
87	9
88	5
89	39
90	9
91	170
92	13
98	1
101	1
102	19
103	6
104	2
105	15
106	8
107	3
108	2
113	5
114	7
115	347
116	138
117	999
118	105
119	6
127	1
128	2
129	3
130	1
131	3
132	2
133	3
134	1
169	1
170	1
171	1
196	17
197	2
198	17
199	2
