Mass Spectrum: Pregn-4-ene-3,20-dione, dioxime
Formula: C21H32N2O2
CAS: 26144-38-7
Molecular weight: 344
m/z	intensity
41	225
42	93
43	999
44	48
45	29
47	8
52	13
53	108
54	31
55	180
56	12
57	30
58	13
60	15
65	57
66	23
67	150
68	33
69	52
70	91
71	68
73	34
77	161
78	45
79	255
80	61
81	145
82	20
83	37
84	60
85	46
86	130
87	8
89	8
91	254
92	14
93	190
94	67
95	119
96	40
97	24
98	34
99	17
100	9
103	29
104	30
105	177
106	66
107	136
108	66
109	54
110	34
111	172
112	214
113	17
115	50
116	25
117	72
118	35
119	85
120	86
121	91
122	94
123	256
124	325
125	131
126	18
127	6
128	26
129	36
130	29
131	89
132	48
133	114
134	69
135	61
136	58
137	158
138	81
139	313
141	43
142	18
143	52
144	29
145	68
146	40
147	88
148	42
149	43
150	21
151	24
152	39
153	7
154	10
155	21
156	16
157	40
158	30
159	49
160	50
161	35
162	21
163	24
164	14
165	9
166	6
167	9
168	7
169	21
170	18
171	33
172	33
173	42
174	38
175	28
176	23
177	15
178	15
179	8
180	6
181	8
182	7
183	15
184	13
185	24
186	20
187	28
188	24
189	18
190	19
191	22
192	18
193	8
194	6
195	12
196	10
197	19
198	13
199	15
200	13
201	12
202	8
203	7
204	9
205	5
206	27
208	10
209	11
210	8
211	20
212	15
213	19
214	12
215	8
216	9
217	5
218	6
221	9
222	10
223	9
224	11
225	19
226	23
227	17
228	12
229	37
230	13
231	6
232	11
234	7
237	9
238	9
239	12
240	16
241	12
242	23
243	11
244	50
245	11
251	11
252	16
253	15
254	17
255	13
256	9
257	22
258	12
259	72
260	14
266	11
268	58
269	22
270	22
271	10
272	42
273	9
281	5
282	5
283	5
284	18
286	55
287	14
292	6
294	16
295	17
296	34
297	14
299	7
300	6
309	14
310	37
311	35
312	290
313	81
314	93
315	31
316	7
325	17
326	9
327	148
328	64
329	369
330	91
331	35
332	11
342	22
343	39
344	121
345	35
346	4
