Mass Spectrum: threo-4-Hydroxy-l-homoarginine lactone
Formula: C7H14N4O2
CAS: 2614-67-7
Molecular weight: 186
m/z	intensity
42	661
43	999
44	674
45	36
52	43
53	51
54	90
55	154
56	115
57	88
58	13
59	35
60	50
63	7
64	12
65	55
66	81
67	70
68	79
69	138
70	87
71	58
72	55
73	38
74	12
77	27
78	23
79	57
80	59
81	68
82	96
83	83
90	14
91	161
92	63
93	65
94	39
95	44
96	120
97	106
98	56
99	60
100	6
105	30
107	13
108	15
109	43
110	37
111	47
112	58
113	21
121	12
122	21
123	23
124	40
125	31
126	13
127	7
129	6
133	6
135	22
136	13
137	21
138	12
139	13
149	23
150	23
151	102
152	45
153	7
168	9
169	76
170	36
185	57
186	29
187	27
