Mass Spectrum: 1-Pentanamine, N,N-dimethyl-
Formula: C7H17N
CAS: 26153-88-8
Molecular weight: 115
m/z	intensity
26	1
27	22
28	5
29	20
30	26
31	0
38	0
39	12
40	1
41	24
42	60
43	20
44	32
45	10
46	2
51	0
52	0
53	1
54	1
55	3
56	9
57	13
58	999
59	33
60	0
63	0
65	0
66	0
67	0
68	1
69	1
70	4
71	5
72	3
81	0
82	1
83	0
84	6
85	0
86	0
95	0
98	0
100	0
112	1
113	0
114	4
115	42
116	3
117	0
