Mass Spectrum: Butanamide, N,N,3,3-tetramethyl-
Formula: C8H17NO
CAS: 26153-90-2
Molecular weight: 143
m/z	intensity
26	3
27	45
29	67
30	33
31	3
33	0
34	0
35	1
36	3
37	1
38	5
39	60
40	12
41	148
42	105
43	133
44	315
45	813
46	67
47	2
48	0
49	0
50	4
51	7
52	3
53	26
54	9
55	71
56	50
57	523
58	44
59	4
60	1
61	0
62	1
63	2
64	5
65	2
66	2
67	11
68	7
69	25
70	14
71	53
72	674
73	37
74	3
75	1
76	1
77	3
78	2
79	5
80	7
81	13
82	9
83	62
84	7
85	9
86	34
87	999
88	59
89	5
90	0
91	4
92	4
93	6
94	4
95	12
96	5
97	10
98	4
99	21
100	5
101	1
102	0
103	1
104	2
105	3
106	2
107	4
108	3
109	8
110	4
111	7
112	5
113	3
127	2
128	62
129	7
142	2
143	69
144	11
145	3
