Mass Spectrum: Eicosanoic acid, 2-hydroxyethyl ester
Formula: C22H44O3
CAS: 26158-80-5
Molecular weight: 356
m/z	intensity
27	100
28	50
29	280
30	10
31	30
39	40
40	10
41	520
42	140
43	999
44	260
45	260
46	10
53	20
54	50
55	610
56	160
57	620
58	60
59	40
60	150
61	260
62	10
67	80
68	60
69	340
70	90
71	270
72	20
73	200
74	30
75	10
79	10
80	10
81	70
82	60
83	220
84	240
85	130
86	180
87	70
88	10
93	10
94	10
95	70
96	50
97	180
98	530
99	180
100	20
101	30
102	10
104	700
105	70
106	10
107	10
108	10
109	30
110	20
111	100
112	160
113	30
114	10
115	30
117	350
118	20
121	20
122	10
123	20
124	10
125	40
126	40
127	10
129	30
131	10
135	20
137	10
138	10
139	20
140	20
141	10
143	10
149	10
153	10
154	40
155	20
159	10
167	10
168	20
169	10
173	20
174	10
181	10
182	20
185	10
195	10
196	20
209	10
210	20
223	10
224	10
238	20
251	20
252	10
269	10
294	30
295	120
296	30
312	20
313	40
314	10
356	50
357	20
