Mass Spectrum: 5-[2-(4-Methoxyphenyl)diaz-1-enyl]-4-phenyl-1,3-thiazol-2-amine
Formula: C16H14N4OS
CAS: 26179-14-6
Molecular weight: 310
m/z	intensity
33	10
34	13
36	3
37	15
38	47
39	134
40	58
41	98
42	38
43	93
44	50
45	47
46	7
47	5
48	4
49	7
50	95
51	230
52	145
53	70
54	21
55	71
56	28
57	79
58	12
59	34
60	336
61	22
62	58
63	194
64	250
65	62
66	41
67	29
68	14
69	68
70	44
71	61
72	39
73	23
74	26
75	41
76	117
77	783
78	213
79	75
80	166
81	34
82	20
83	34
84	21
85	18
86	10
87	16
88	35
89	490
90	59
91	65
92	290
93	64
94	11
95	24
96	9
97	16
98	12
99	8
100	4
101	10
102	28
103	105
104	402
105	109
106	149
107	999
108	123
109	15
110	8
111	11
112	20
113	13
114	12
115	19
116	9
117	13
118	8
119	11
120	34
121	145
122	45
123	23
124	6
125	13
126	9
127	9
128	10
129	38
131	158
132	40
133	458
134	106
135	145
136	18
137	4
138	4
139	15
140	5
141	8
142	8
143	3
144	5
145	5
146	20
147	44
148	25
149	32
150	7
151	10
152	24
153	19
154	12
155	60
156	11
157	5
159	4
160	1
161	13
162	14
163	8
164	8
165	20
166	5
167	5
168	1
170	3
171	32
172	4
173	3
174	10
175	20
176	35
177	15
178	7
179	6
180	5
181	11
182	2
185	2
188	11
189	17
190	7
191	5
192	6
193	1
195	10
196	5
197	20
198	4
202	15
203	9
204	4
205	8
206	6
207	8
208	9
209	8
210	3
220	2
221	2
222	4
223	10
224	5
225	17
226	4
233	1
234	4
235	7
236	4
237	8
238	6
239	8
240	10
241	3
249	2
250	27
251	8
253	4
266	6
267	15
268	3
277	14
278	7
279	4
281	9
282	8
283	7
294	11
295	23
296	7
301	1
307	8
309	893
310	734
311	168
312	43
313	8
314	1
