Mass Spectrum: 3,4-Dihydroxycinnamyl alcohol,tris(O-trimethylsilyl)-
Formula: C18H34O3Si3
CAS: 261778-46-5
Molecular weight: 382
m/z	intensity
14	11
15	32
16	7
17	6
18	23
26	8
27	8
28	29
29	6
32	6
39	6
41	9
42	6
43	24
44	26
45	150
46	10
47	10
52	6
55	8
57	7
58	7
59	38
61	6
72	10
73	999
74	85
75	93
76	6
77	10
79	9
91	6
103	23
105	5
113	7
115	15
117	7
119	6
128	11
129	40
130	7
131	20
133	19
135	5
143	5
147	48
148	8
149	10
174	7
179	53
180	9
184	7
189	10
191	7
193	7
203	25
205	162
206	32
207	17
219	10
223	10
263	7
267	8
268	3
279	12
281	6
293	163
294	49
295	18
309	4
355	32
356	12
367	7
382	285
383	105
385	12
