Mass Spectrum: (1H)Pyrrole-2-carbonitrile, 5-methyl-
Formula: C6H6N2
CAS: 26173-92-2
Molecular weight: 106
m/z	intensity
25	3
26	26
27	82
28	40
29	3
36	3
37	36
38	29
39	29
40	16
41	24
42	28
43	3
49	12
50	53
51	118
52	92
53	98
54	14
62	7
63	21
64	31
65	8
66	4
75	9
76	15
77	19
78	213
79	27
80	26
104	13
105	999
106	609
107	42
