Mass Spectrum: 1,3-Dimethyldiaziridine
Formula: C3H8N2
CAS: 26177-36-6
Molecular weight: 72
m/z	intensity
28	405
29	338
30	612
31	145
40	279
41	748
42	999
43	406
44	339
45	138
56	901
57	863
58	35
71	403
72	174
73	7
