Mass Spectrum: 1-Methyl-3,3-pentamethylenediaziridine
Formula: C7H14N2
CAS: 26177-34-4
Molecular weight: 126
m/z	intensity
28	160
29	120
30	999
31	80
32	50
39	120
40	300
41	480
42	310
43	120
44	100
45	200
46	220
47	19
53	100
54	380
55	400
56	120
57	100
58	9
67	200
68	140
69	11
94	40
95	20
96	120
97	440
98	250
99	19
110	130
111	110
112	10
125	160
126	110
127	10
