Mass Spectrum: 4(1H)-Quinazolinone, 2-phenyl-1-(2-propynyl)-
Formula: C17H12N2O
CAS: 26197-90-0
Molecular weight: 260
m/z	intensity
51	160
52	90
63	110
64	90
75	100
76	190
77	200
78	100
90	160
91	30
92	40
101	140
102	500
103	250
104	50
105	40
119	50
120	10
128	300
129	999
130	280
156	300
157	250
158	100
201	30
202	50
211	50
259	320
260	860
261	30
