Mass Spectrum: N-(2-Cyano-ethyl)-benzenesulfonamide
Formula: C9H10N2O2S
CAS: 2619-21-8
Molecular weight: 210
m/z	intensity
12	1
13	2
14	11
15	26
16	2
17	2
18	7
24	0
25	1
26	10
27	47
28	141
29	47
30	17
31	0
32	1
33	0
34	0
36	0
37	3
38	14
39	44
40	44
41	44
42	22
43	4
44	10
45	8
46	1
47	1
48	6
49	5
50	100
51	356
52	27
53	10
54	11
55	2
56	0
57	1
58	1
59	2
60	1
61	2
62	4
63	11
64	9
65	19
66	6
67	4
68	1
69	12
70	5
71	2
72	1
73	4
74	30
75	24
77	999
78	84
79	8
80	1
81	3
82	2
83	1
84	0
85	2
86	0
87	11
88	1
89	2
90	1
91	6
92	3
93	3
94	5
95	1
97	16
98	1
99	0
102	0
103	0
104	5
105	2
106	4
107	0
108	1
109	3
110	0
111	0
116	1
117	3
118	4
119	0
120	0
125	11
126	1
127	0
130	1
133	0
138	0
141	473
142	37
143	24
144	1
145	0
146	0
153	0
154	0
168	0
170	312
171	25
172	16
173	1
193	0
210	9
211	4
212	0
