Mass Spectrum: 3,4,4,6-Tetramethyltetrahydro-1,3-oxazin-2-one
Formula: C8H15NO2
CAS: 26199-72-4
Molecular weight: 157
m/z	intensity
12	1
13	1
14	5
15	90
16	11
17	79
18	353
19	1
25	2
26	28
27	87
28	148
29	89
30	63
31	2
32	16
37	2
38	10
39	84
40	14
41	163
42	140
43	111
44	43
45	28
47	1
50	5
51	4
52	3
53	17
54	22
55	68
56	999
57	62
58	18
59	2
60	1
63	2
65	3
66	2
67	20
68	9
69	40
70	27
71	19
72	22
73	1
74	1
75	1
77	1
79	2
80	1
81	4
82	16
83	16
84	51
85	33
86	1
88	1
94	1
95	1
96	6
97	2
98	349
99	39
100	1
101	1
112	1
114	1
115	1
116	15
141	1
142	337
143	30
144	2
157	87
158	15
159	1
