Mass Spectrum: Carbamic acid, dimethyl-, 1-naphthalenyl ester
Formula: C13H13NO2
CAS: 2619-00-3
Molecular weight: 215
m/z	intensity
15	70
28	20
39	20
42	30
51	10
72	999
115	90
127	20
215	100
