Mass Spectrum: 1,4-Dioxane-2,5-diol, 2TMS derivative
Formula: C10H24O4Si2
CAS: 26205-45-8
Molecular weight: 264
m/z	intensity
15	1
27	3
28	2
29	8
30	1
31	7
39	1
41	4
42	4
43	36
44	17
45	104
46	7
47	37
48	2
49	1
53	2
54	1
55	7
56	2
57	10
58	28
59	175
60	20
61	38
62	2
63	2
66	1
67	1
69	1
70	4
71	17
72	26
73	480
74	48
75	232
76	17
77	14
78	1
84	1
85	14
86	5
87	12
88	12
89	161
90	14
91	7
98	1
99	10
101	956
102	99
103	105
104	9
105	7
106	1
113	1
115	18
116	823
117	999
118	128
119	46
120	3
121	1
129	7
130	2
131	17
132	13
133	48
134	6
135	5
136	1
143	1
145	3
146	9
147	45
148	7
149	5
150	1
157	1
159	3
163	2
165	1
174	24
175	6
176	1
177	1
189	11
191	422
192	76
193	35
194	4
195	1
204	3
205	2
206	1
207	1
263	2
264	5
265	1
