Mass Spectrum: 4H-Pyran-4-one, 5-(acetyloxy)-2-((acetyloxy)methyl)-
Formula: C10H10O6
CAS: 26209-93-8
Molecular weight: 226
m/z	intensity
41	56
42	42
43	999
44	13
45	4
47	1
49	6
50	4
51	11
52	2
53	16
54	4
55	28
56	5
57	13
58	9
59	2
60	1
61	8
66	11
67	89
68	27
69	51
70	4
71	6
72	1
73	2
74	4
77	1
78	1
79	1
80	1
81	0
82	2
83	4
84	14
85	20
86	6
87	4
88	0
95	26
96	23
97	27
98	2
99	1
100	10
101	7
105	0
110	1
111	3
112	9
113	223
114	25
115	2
123	0
124	4
125	45
126	5
127	3
131	0
138	0
139	0
140	2
141	33
142	385
143	26
144	4
149	0
153	1
155	9
156	1
165	2
166	3
167	1
169	0
184	485
185	57
186	7
187	0
224	1
225	1
226	15
227	10
228	1
