Mass Spectrum: 2-Methano-3-benzazocin-8-amine, 3-(cyclopropylmethyl)-N-(diphenylmethylene)-1,2,3,4,5,6-hexahydro-6,11-dimethyl
Formula: C31H34N2
CAS: 262273-53-0
Molecular weight: 434
m/z	intensity
29	382
30	119
31	27
32	27
36	14
38	7
39	96
40	9
41	133
42	139
43	165
44	30
45	21
46	4
50	2
51	20
52	2
53	60
54	6
55	999
56	97
57	57
58	32
59	3
60	12
61	6
63	7
65	14
67	36
68	57
69	41
70	151
71	140
72	9
73	17
75	4
76	7
77	145
78	17
79	15
80	12
81	29
82	49
83	20
84	52
85	15
86	2
87	2
89	18
90	17
91	48
92	4
93	10
94	17
95	40
96	29
97	19
98	12
99	23
101	6
102	10
103	22
104	15
105	8
106	2
108	17
109	11
110	40
111	9
113	3
114	13
115	145
116	35
117	10
118	3
119	3
120	2
122	60
123	7
124	156
125	18
126	5
127	71
128	131
129	83
130	24
131	6
132	3
133	2
134	4
135	3
136	17
137	2
139	19
140	13
141	87
142	35
143	22
144	12
145	4
146	4
147	3
148	3
149	3
150	7
151	8
152	31
153	40
154	23
155	36
156	21
157	9
158	70
159	13
160	5
161	5
162	6
163	2
164	234
165	165
166	33
167	49
168	18
169	9
170	8
171	4
172	4
173	2
178	21
179	4
180	32
181	8
182	8
183	4
184	5
185	3
189	3
190	8
191	8
192	6
193	5
194	4
196	27
197	8
198	4
199	4
200	4
202	6
203	7
204	8
205	3
206	8
207	2
215	5
217	12
218	18
219	6
220	7
228	11
229	2
230	18
231	8
232	27
233	7
234	6
241	2
243	3
244	40
245	10
246	17
247	3
254	3
256	3
258	46
259	11
260	7
268	3
269	3
270	46
271	13
272	7
273	2
284	5
285	2
292	3
293	5
294	8
295	5
296	6
297	6
298	2
301	3
306	5
307	3
308	17
309	11
310	28
311	9
312	2
319	2
320	8
321	3
322	50
323	30
324	16
325	5
334	4
335	28
336	769
337	244
338	46
339	6
348	3
349	5
350	14
351	8
352	2
362	2
363	8
364	5
365	4
378	2
379	22
380	10
392	2
393	121
394	42
395	5
405	8
406	6
419	75
420	23
421	5
433	39
434	237
435	83
436	11
437	4
