Mass Spectrum: Butanoic acid, 2-amino-, (R)-
Formula: C4H9NO2
CAS: 2623-91-8
Molecular weight: 103
m/z	intensity
41	262
42	99
43	124
44	44
45	167
46	73
47	31
52	4
53	4
54	25
55	79
56	82
58	999
59	34
60	26
67	18
68	14
69	37
70	10
71	20
73	14
74	182
77	1
81	17
82	16
83	15
85	13
86	84
88	12
101	4
102	10
103	18
104	4
105	1
