Mass Spectrum: 3-Bromobutyric acid
Formula: C4H7BrO2
CAS: 2623-86-1
Molecular weight: 166
m/z	intensity
41	989
42	405
43	839
44	61
45	999
46	19
47	22
48	8
52	1
53	13
54	2
55	17
56	3
57	18
58	8
59	23
60	19
61	1
65	0
66	1
67	4
68	29
69	130
70	8
71	15
72	0
73	1
77	3
78	2
79	39
80	24
81	40
82	25
83	6
84	3
85	13
86	68
87	947
88	47
89	6
91	3
92	0
93	10
94	0
95	9
96	0
97	3
98	0
99	4
103	13
104	1
105	11
106	6
107	19
108	3
109	13
111	1
113	0
119	3
120	3
121	24
122	3
123	23
124	0
125	0
126	0
131	4
133	2
135	0
139	0
149	18
151	16
152	0
165	0
166	18
167	11
168	17
169	10
