Mass Spectrum: Heptanedioic acid, 2,4-dimethyl-
Formula: C9H16O4
CAS: 2624-26-2
Molecular weight: 188
m/z	intensity
26	20
27	355
28	120
29	410
30	38
31	80
35	4
36	25
37	4
38	13
39	300
40	48
41	857
42	186
43	397
44	96
45	500
46	17
47	10
49	2
50	10
51	23
52	10
53	102
54	37
55	999
56	306
57	182
58	23
59	230
60	135
61	10
62	3
63	6
64	5
65	18
66	7
67	88
68	40
69	982
70	108
71	68
72	15
73	377
74	709
75	30
76	7
77	16
78	5
79	24
80	5
81	100
82	144
83	441
84	55
85	57
86	9
87	129
88	16
89	4
91	7
92	4
93	10
94	4
95	37
96	74
97	874
98	87
99	34
100	79
101	129
102	11
104	3
105	7
106	2
107	15
108	6
109	47
110	41
111	130
112	13
113	26
114	32
115	862
116	61
117	8
121	3
122	3
123	14
124	100
125	40
126	11
127	55
128	95
129	88
130	9
131	2
134	2
136	2
137	31
138	5
139	2
141	12
142	193
143	34
144	9
145	2
146	4
148	2
151	6
152	93
153	11
155	31
156	4
157	3
158	2
167	2
169	4
170	23
171	26
172	3
189	2
