Mass Spectrum: .beta.-d-Mannofuranoside, methyl 2,3:5,6-bis-O-(1-methylethylidene)-
Formula: C13H22O6
CAS: 26255-72-1
Molecular weight: 274
m/z	intensity
26	11
27	71
28	84
29	64
30	4
31	70
33	25
37	1
38	1
39	67
40	22
41	160
42	69
43	999
44	33
45	158
46	3
47	1
50	2
51	3
52	3
53	28
54	23
55	67
56	14
57	75
58	44
59	295
60	18
61	62
62	2
63	1
65	2
67	5
68	156
69	98
70	59
71	68
72	145
73	173
74	16
75	18
77	2
78	6
79	2
80	6
81	135
82	12
83	47
84	18
85	207
86	29
87	72
88	5
89	3
91	2
92	10
93	1
95	24
96	3
97	40
98	129
99	129
100	33
101	661
102	37
103	19
104	1
107	5
108	2
109	33
110	4
111	18
112	4
113	92
114	12
115	61
116	6
117	4
119	16
121	2
122	28
123	6
125	17
126	82
127	46
128	6
129	22
130	4
131	11
132	2
137	1
138	1
139	6
141	207
142	17
143	15
144	2
145	50
146	4
149	10
155	2
156	23
157	5
158	3
159	16
161	2
167	33
168	3
169	5
171	1
173	19
174	1
179	1
184	5
185	55
186	7
187	3
199	10
200	1
201	35
202	4
213	2
214	9
215	2
216	14
217	2
229	2
243	5
245	1
259	447
260	58
261	10
