Mass Spectrum: Ergosterol, TMS derivative
Formula: C31H52OSi
CAS: 2625-45-8
Molecular weight: 468
m/z	intensity
61	30
65	30
67	230
68	20
69	999
70	80
71	100
73	970
74	110
75	230
77	80
78	30
79	150
80	20
81	430
82	50
83	250
84	20
85	20
91	200
92	30
93	180
94	30
95	200
96	30
97	70
101	20
103	30
105	170
106	30
107	140
108	20
109	140
111	30
115	90
116	40
117	110
118	50
119	370
120	50
121	60
123	50
125	130
126	20
127	30
128	100
129	250
130	80
131	360
132	70
133	110
134	20
137	40
141	120
142	90
143	340
144	240
145	270
146	50
147	90
148	20
153	30
154	30
155	140
156	60
157	280
158	110
159	230
160	40
161	20
163	20
165	20
166	20
167	40
168	50
169	170
170	70
171	150
172	40
173	50
179	20
180	20
181	60
182	50
183	140
184	50
185	150
186	40
187	20
193	20
194	20
195	70
196	50
197	120
198	70
199	130
200	30
201	30
209	70
210	40
211	250
212	70
213	110
214	20
223	30
224	30
225	60
226	70
227	70
228	20
237	70
238	40
239	60
251	100
252	40
253	290
254	70
255	20
265	20
267	30
279	20
280	20
293	20
335	20
336	30
337	550
338	180
341	40
342	20
343	20
362	40
363	760
364	220
365	50
377	40
378	200
379	70
453	20
468	170
469	80
470	20
