Mass Spectrum: 1-[3'-Diethylaminopropyl]-2-styrylnaphth[1,2-d]imidazole-4,5-dione
Formula: C26H27N3O2
CAS: 26261-07-4
Molecular weight: 413
m/z	intensity
41	46
42	56
43	37
44	24
49	34
51	31
55	16
56	78
57	7
58	140
60	7
70	43
71	15
72	59
74	11
76	9
77	43
84	138
86	999
87	67
88	19
89	46
91	7
98	99
99	7
100	12
101	17
102	41
103	27
104	7
110	8
111	11
112	460
114	707
115	121
116	24
117	7
122	10
127	8
128	33
129	18
130	54
140	24
144	16
175	18
199	26
200	24
208	8
242	25
271	110
272	34
300	55
301	54
313	7
398	15
412	138
413	190
414	54
