Mass Spectrum: Acetate, [1-(5,5-dimethylperhydro[1,3]dioxolo[4,5-d]oxireno[2,3-b]pyran-1-yl)-1-methylethoxy]methyl ester
Formula: C14H22O7
CAS: 26289-49-6
Molecular weight: 302
m/z	intensity
27	25
28	2
29	42
30	2
31	31
39	27
40	6
41	64
42	25
43	999
44	27
45	10
52	2
53	12
54	6
55	40
56	7
57	56
58	20
59	171
60	9
61	6
67	3
68	68
69	95
70	15
71	28
72	4
73	136
74	6
81	30
82	4
83	30
84	36
85	90
86	11
87	5
89	2
95	24
96	10
97	49
98	15
99	27
100	10
101	308
102	16
103	12
109	105
110	9
111	12
112	3
113	61
114	13
115	15
116	3
117	3
119	2
125	8
126	42
127	177
128	16
129	6
130	3
131	3
136	3
137	2
139	5
141	13
142	3
143	15
144	7
145	6
149	2
153	7
154	2
155	2
156	2
157	8
167	26
168	3
169	135
170	13
171	106
172	37
173	7
184	17
185	30
186	14
187	7
211	7
227	12
229	73
231	9
232	2
244	8
245	3
287	356
288	55
289	9
