Mass Spectrum: N-Methyl-N-phenylbenzenecarbothioamide
Formula: C14H13NS
CAS: 2628-58-2
Molecular weight: 227
m/z	intensity
51	130
77	370
91	70
118	999
119	90
121	670
122	60
226	240
227	130
228	60
229	20
