Mass Spectrum: 4-Pyridinepropanol
Formula: C8H11NO
CAS: 2629-72-3
Molecular weight: 137
m/z	intensity
15	2
17	3
18	9
26	9
27	31
28	24
29	12
30	2
31	63
32	1
37	4
38	11
39	92
40	13
41	18
42	4
43	9
44	3
45	16
49	2
50	33
51	101
52	57
53	40
54	37
55	4
57	5
58	1
59	1
61	2
62	7
63	26
64	15
65	112
66	69
67	35
68	5
74	3
75	5
76	7
77	95
78	81
79	74
80	58
81	5
82	1
89	4
90	5
91	91
92	235
93	999
94	80
95	4
102	2
104	39
105	16
106	199
107	20
108	10
109	6
115	2
116	3
117	38
118	534
119	555
120	54
121	3
134	1
135	4
136	5
137	144
138	13
139	1
