Mass Spectrum: dl-o-Fluorophenylalanine
Formula: C9H10FNO2
CAS: 2629-55-2
Molecular weight: 183
m/z	intensity
12	4
14	3
15	9
16	5
17	4
18	11
20	10
26	9
27	27
28	463
29	19
30	21
31	7
32	2
33	3
36	6
37	5
38	8
39	44
40	6
41	17
42	40
43	25
44	71
45	10
46	77
47	1
48	1
49	2
50	22
51	31
52	7
53	4
54	4
55	6
56	17
57	45
58	9
59	15
60	3
61	8
62	18
63	41
64	9
65	15
66	3
67	8
68	21
69	31
70	7
71	4
72	1
73	2
74	999
75	50
76	11
77	8
78	6
79	2
80	3
81	15
82	6
83	102
84	8
85	4
86	5
87	6
88	5
89	41
90	25
91	71
92	9
93	3
94	6
95	10
96	15
97	4
98	3
99	3
100	3
101	42
102	9
103	8
104	2
105	3
106	2
107	43
108	40
109	443
110	127
111	15
112	2
113	1
114	3
115	16
116	12
117	63
118	77
119	10
120	9
121	28
122	45
123	7
124	1
125	1
127	1
128	1
129	3
130	3
131	3
132	2
133	6
134	31
135	77
136	60
137	100
138	387
139	36
140	2
142	1
145	5
146	3
147	5
148	5
149	5
150	7
151	2
152	1
163	7
164	4
165	8
166	2
167	1
168	2
181	3
183	5
184	1
