Mass Spectrum: d-Homo-24-nor-17-oxachola-20,22-diene-3,16-dione, 7-(acetyloxy)-14,15:21,23-diepoxy-4,4,8-trimethyl-, (5.alpha.,7.alpha.,13.alpha.,14.beta.,15.beta.,17a.alpha.)-
Formula: C28H36O7
CAS: 2629-11-0
Molecular weight: 484
m/z	intensity
27	49
28	82
29	127
30	11
31	8
36	2
37	10
38	18
39	113
40	16
41	321
42	49
43	763
44	999
45	33
46	6
48	1
49	2
50	7
51	18
52	10
53	84
54	14
55	321
56	25
57	50
58	4
59	13
60	6
61	4
62	1
63	6
64	3
65	40
66	13
67	147
68	19
69	123
70	22
71	44
72	5
73	2
74	2
75	2
76	2
77	106
78	26
79	118
80	29
81	164
82	31
83	67
84	16
85	23
86	5
87	2
88	1
89	5
90	3
91	158
92	29
93	140
94	29
95	288
96	87
97	49
98	17
99	14
100	4
101	4
102	3
103	20
104	10
105	140
106	33
107	120
108	37
109	133
110	20
111	34
112	7
113	5
114	3
115	28
116	15
117	39
118	17
119	148
120	47
121	174
122	59
123	141
124	21
125	44
126	8
127	11
128	27
129	36
130	17
131	57
132	30
133	119
134	57
135	99
136	27
137	101
138	23
139	28
140	5
141	19
142	21
143	37
144	19
145	81
146	29
147	116
148	42
149	344
150	59
151	94
152	22
153	17
154	8
155	20
156	15
157	46
158	20
159	71
160	25
161	83
162	42
163	63
164	16
165	51
166	17
167	12
168	7
169	21
170	12
171	46
172	18
173	73
174	23
175	57
176	18
177	36
178	22
179	30
180	8
181	12
182	8
183	23
184	11
185	43
186	21
187	53
188	17
189	41
190	20
191	35
192	12
193	15
194	8
195	13
196	7
197	26
198	12
199	42
200	15
201	42
202	16
203	35
204	13
205	15
206	12
207	9
208	5
209	12
210	5
211	21
212	9
213	44
214	16
215	47
216	14
217	19
218	12
219	9
220	5
221	7
222	4
223	12
224	8
225	19
226	35
227	37
228	20
229	29
230	10
231	14
232	6
233	6
234	7
235	6
236	3
237	8
238	4
239	14
240	7
241	39
242	13
243	24
244	8
245	14
246	5
247	5
248	3
249	5
250	3
251	7
252	3
253	10
254	7
255	21
256	10
257	40
258	11
259	17
260	6
261	9
262	4
263	6
264	3
265	14
266	9
267	12
268	6
269	13
270	7
271	19
272	21
273	21
274	7
275	4
276	2
277	3
278	2
279	5
280	2
281	8
282	6
283	74
284	33
285	28
286	11
287	6
288	5
289	8
290	3
291	3
292	1
293	4
294	3
295	6
296	3
297	9
298	6
299	71
300	57
301	868
302	205
303	49
304	9
305	3
306	2
307	3
308	2
309	3
310	3
311	5
312	6
313	9
314	4
315	9
316	5
317	39
318	12
319	4
320	2
321	3
322	2
323	4
324	2
325	3
326	3
327	2
328	21
329	8
330	160
331	40
332	12
333	4
334	2
335	4
336	2
337	6
338	3
339	4
340	2
341	1
342	1
343	2
344	2
345	2
346	7
347	5
348	2
349	5
350	4
351	8
352	4
353	6
354	2
355	2
356	1
357	1
358	1
359	2
360	1
361	9
362	5
363	7
364	3
365	22
366	7
367	9
368	6
369	2
370	3
371	1
372	12
373	4
374	2
375	1
376	2
377	4
378	6
379	38
380	16
381	24
382	8
383	3
384	1
385	1
386	1
387	1
388	2
389	2
390	1
391	9
392	3
393	2
394	2
395	3
396	11
397	8
398	4
399	1
400	1
405	1
406	2
407	5
408	4
409	47
410	13
411	4
412	1
413	1
414	1
420	1
422	2
423	2
424	13
425	11
426	4
427	1
438	2
439	1
440	13
441	9
442	3
443	1
450	1
452	2
453	1
454	1
456	1
466	1
467	1
468	1
469	2
470	1
482	3
483	1
484	41
485	13
486	4
487	1
