Mass Spectrum: L-Mannitol, 1-deoxy-, pentakis(trifluoroacetate)
Formula: C16H9F15O10
CAS: 26293-33-4
Molecular weight: 646
m/z	intensity
69	999
70	50
81	680
82	30
95	170
96	10
100	800
101	40
113	170
114	10
141	85
142	50
153	130
191	150
192	10
209	70
253	70
265	80
278	70
305	150
306	20
323	5
379	20
393	15
419	15
519	10
533	36
646	3
