Mass Spectrum: .beta.-d-Mannofuranoside, methyl
Formula: C7H14O6
CAS: 26295-70-5
Molecular weight: 194
m/z	intensity
23	1
24	0
25	2
26	34
27	182
28	111
29	349
30	51
31	468
32	24
33	153
34	1
36	1
37	1
38	4
39	72
40	17
41	125
42	93
43	335
44	149
45	527
46	14
47	17
49	2
50	1
51	5
52	2
53	16
54	26
55	100
56	159
57	289
58	36
59	91
60	181
61	478
62	13
63	2
65	5
66	2
67	2
68	29
69	133
70	69
71	372
72	37
73	999
74	203
75	165
76	10
77	4
81	4
82	0
83	20
84	20
85	183
86	81
87	482
88	25
89	5
91	12
92	2
94	6
97	19
98	14
99	7
100	1
101	48
102	13
103	57
104	8
105	27
106	1
109	3
111	1
112	0
113	5
114	1
115	20
116	472
117	35
118	3
119	15
120	0
121	1
126	4
127	9
129	1
131	34
132	3
133	47
134	4
144	2
145	41
146	1
159	0
162	0
163	15
164	0
189	0
