Mass Spectrum: 6-Chlorohexanoic acid, TMS derivative
Formula: C9H19ClO2Si
CAS: 26305-94-2
Molecular weight: 222
m/z	intensity
41	191
42	142
43	62
44	26
45	140
46	10
47	82
49	15
53	14
55	245
56	12
57	14
58	30
59	27
60	17
61	68
63	13
67	13
68	10
69	697
70	67
72	39
73	999
74	103
75	598
76	42
77	27
93	520
94	38
95	197
96	14
97	250
98	18
99	19
101	14
108	12
116	26
117	321
118	31
119	15
123	14
129	48
132	148
133	19
137	16
145	38
165	20
171	18
187	39
207	80
208	11
209	21
221	1
222	3
223	1
224	1
225	1
