Mass Spectrum: (2S,6R,7S,8S)-2-Allyl-7-((Z)-buta-1,3-dien-1-yl)-1-azaspiro[5.5]undecan-8-ol
Formula: C17H27NO
CAS: 263009-09-2
Molecular weight: 261
m/z	intensity
53	41
55	60
56	47
66	24
67	109
68	23
69	25
77	34
78	23
79	101
80	51
81	54
82	35
83	33
91	90
93	43
95	40
96	999
97	92
105	38
108	74
109	43
110	36
119	30
123	16
126	19
131	24
136	20
137	97
138	35
149	16
150	101
152	20
162	36
174	22
176	88
192	33
202	140
220	477
221	76
228	23
246	26
260	8
261	91
