Mass Spectrum: 6-Iodohexanoic acid, TMS derivative
Formula: C9H19IO2Si
CAS: 26305-95-3
Molecular weight: 314
m/z	intensity
41	206
42	42
43	63
44	32
45	132
46	10
47	78
53	12
55	204
56	11
57	17
58	34
59	30
60	16
61	66
67	14
68	10
69	701
70	44
72	38
73	999
74	109
75	783
76	58
77	33
85	11
86	23
97	247
98	17
99	47
101	16
116	24
117	198
118	20
127	11
129	86
130	11
132	102
133	12
143	18
145	32
155	37
171	160
172	22
173	12
185	205
186	15
187	537
188	83
189	26
299	260
300	36
301	11
314	31
