Mass Spectrum: Silane, [(11-iodoundecyl)oxy]trimethyl-
Formula: C14H31IOSi
CAS: 26305-84-0
Molecular weight: 370
m/z	intensity
41	288
42	44
43	208
44	19
45	78
47	49
53	20
54	20
55	653
56	45
57	216
58	42
59	85
60	14
61	92
67	65
68	15
69	726
70	47
71	214
72	36
73	581
74	60
75	752
76	52
77	30
81	56
82	11
83	960
84	68
85	67
87	26
88	13
89	70
91	34
95	58
97	999
98	78
99	31
101	70
103	398
104	37
105	14
109	20
111	278
112	23
113	14
115	41
129	32
143	15
153	22
155	40
185	90
187	12
213	10
215	148
216	12
227	35
229	24
243	10
355	360
356	72
357	20
369	3
370	7
371	3
