Mass Spectrum: 10-Iododecanoic acid, TMS derivative
Formula: C13H27IO2Si
CAS: 26305-96-4
Molecular weight: 370
m/z	intensity
41	304
42	50
43	127
44	24
45	115
47	63
53	22
54	15
55	350
56	39
57	89
58	34
59	31
60	16
61	67
67	78
68	14
69	448
70	34
71	30
72	42
73	999
74	108
75	973
76	75
77	39
79	33
81	51
83	166
84	18
85	17
89	16
91	10
93	63
95	39
97	115
98	12
99	16
101	13
105	11
107	45
109	41
111	101
116	44
117	375
118	37
119	15
125	28
129	182
130	22
131	49
132	180
133	25
135	182
136	20
143	16
145	96
146	12
153	102
154	10
155	62
157	31
159	12
171	24
185	87
227	144
228	24
229	15
243	364
244	73
245	20
355	380
356	72
357	20
370	49
371	12
