Mass Spectrum: Pregnan-18-oic acid, 3,3-[1,2-ethanediylbis(oxy)]-20-hydroxy-, .gamma.-lactone, (5.alpha.,20R)-
Formula: C23H34O4
CAS: 26302-63-6
Molecular weight: 374
m/z	intensity
25	11
26	24
27	23
31	5
39	10
40	3
41	62
42	29
43	57
44	5
45	15
51	1
52	1
53	19
54	4
55	99
56	15
57	18
58	1
59	1
60	1
65	9
66	5
67	38
68	15
69	26
70	3
71	9
72	1
73	14
74	1
77	23
78	7
79	50
80	12
81	48
82	7
83	9
84	2
85	5
86	64
87	33
88	2
91	50
92	9
93	36
94	8
95	24
96	4
97	7
98	1
99	999
100	251
101	100
102	8
103	4
104	3
105	37
106	8
107	23
108	8
109	17
110	3
111	4
112	104
113	22
114	7
115	10
116	4
117	16
118	4
119	22
120	5
121	15
122	5
123	10
124	2
125	278
126	28
127	14
128	8
129	10
130	4
131	17
132	4
133	15
134	3
135	9
136	3
137	4
138	2
139	9
140	2
141	6
142	3
143	8
144	3
145	14
146	4
147	12
148	3
149	8
150	4
151	3
152	2
153	8
154	5
155	4
156	1
157	6
158	2
159	12
160	3
161	11
162	3
163	4
164	2
165	3
166	1
167	3
168	1
169	3
170	1
171	5
172	1
173	8
174	2
175	6
176	1
177	2
178	1
179	1
180	0
181	1
182	0
183	2
184	1
185	4
186	2
187	6
188	1
189	3
190	1
191	2
192	1
193	2
194	0
195	1
196	1
197	2
198	0
199	3
200	1
201	4
202	1
203	5
204	1
205	3
206	1
207	2
208	0
209	1
210	0
211	3
212	1
213	3
214	1
215	4
216	1
217	2
218	1
219	1
220	1
221	0
222	0
223	0
224	0
225	1
226	1
227	2
228	0
229	7
230	3
231	6
232	1
233	1
234	0
235	0
237	0
238	0
239	2
240	0
241	1
242	0
243	3
244	1
245	3
246	4
247	2
248	0
249	1
250	0
251	2
252	0
253	1
254	0
255	1
256	1
257	6
258	3
259	5
260	3
261	1
262	0
263	0
264	0
265	1
266	0
267	1
268	1
269	2
270	1
271	2
272	1
273	3
274	3
275	9
276	2
277	1
278	1
279	0
283	5
284	2
285	1
286	5
287	2
288	1
289	0
291	0
292	0
293	0
297	3
298	0
299	2
300	0
301	0
302	2
303	0
305	0
311	0
312	6
313	2
314	1
315	1
316	0
317	12
318	3
319	1
320	0
328	0
329	1
330	1
331	5
332	2
333	0
344	0
345	5
346	1
359	3
373	0
374	105
375	31
376	4
377	0
