Mass Spectrum: 11-Fluoroundecan-1-ol, TMS derivative
Formula: C14H31FOSi
CAS: 26305-81-7
Molecular weight: 262
m/z	intensity
41	282
42	39
43	300
44	16
45	66
47	55
53	16
54	24
55	999
56	72
57	207
58	26
59	61
60	11
61	57
63	10
67	50
68	25
69	926
70	67
71	135
72	22
73	460
74	49
75	247
76	21
77	170
78	14
79	28
81	34
82	16
83	750
84	57
85	52
87	18
88	13
89	20
91	40
93	10
95	29
97	598
98	50
99	17
101	33
103	314
104	30
105	15
107	321
108	27
109	16
111	129
112	12
115	21
129	12
157	5
172	3
