Mass Spectrum: N,N-Dimethyl-2-ethoxyethylamine
Formula: C6H15NO
CAS: 26311-17-1
Molecular weight: 117
m/z	intensity
30	38
31	91
32	20
42	61
43	24
44	27
45	63
46	28
56	14
57	20
58	999
59	41
70	5
71	5
72	33
73	20
116	2
117	64
118	6
