Mass Spectrum: 1-Chloro-1-ethyl-2-methyl-1-germacyclopent-3-ene
Formula: C7H13ClGe
CAS: 26311-85-3
Molecular weight: 206
m/z	intensity
39	250
41	330
42	50
51	40
54	20
56	70
57	20
66	80
67	40
68	310
69	610
71	120
72	30
73	30
74	50
75	40
99	70
100	50
101	20
103	100
104	85
105	560
107	780
108	180
109	999
110	60
111	490
113	80
115	30
129	40
131	60
132	20
133	50
134	100
135	30
136	150
137	320
138	220
139	70
140	100
141	40
142	40
143	40
157	30
159	40
160	20
161	50
163	20
165	20
166	35
167	50
168	20
169	50
170	20
171	50
173	360
174	20
175	550
176	160
177	800
178	90
179	330
180	30
181	50
202	200
204	300
205	90
206	410
207	55
208	170
210	20
