Mass Spectrum: 1-Chloro-2-methyl-1-phenyl-1-germacyclopent-3-ene
Formula: C11H13ClGe
CAS: 26311-86-4
Molecular weight: 254
m/z	intensity
39	120
40	60
41	160
42	40
50	40
51	120
52	20
53	100
65	20
67	210
68	999
69	150
77	100
78	260
99	40
101	30
103	30
105	210
107	300
108	70
109	390
110	20
111	180
113	30
144	70
145	110
147	40
149	60
150	20
151	70
159	20
165	30
167	50
169	100
171	120
172	30
173	150
174	20
175	90
177	30
182	160
183	20
184	265
185	90
186	340
187	60
188	150
189	20
190	20
214	40
216	150
218	160
220	30
250	90
252	150
253	50
254	200
255	30
256	90
