Mass Spectrum: 1-Ethyl-1-methoxy-3,4-dimethyl-1-germacyclopent-3-ene
Formula: C9H18GeO
CAS: 26311-79-5
Molecular weight: 216
m/z	intensity
29	805
30	150
31	999
32	600
39	105
41	155
42	50
43	40
54	60
65	40
67	100
78	50
79	70
98	115
100	140
101	45
102	220
104	200
105	45
106	240
107	30
108	106
110	40
159	60
180	30
181	35
182	40
184	105
186	110
187	32
188	140
189	25
190	60
212	60
214	65
215	20
216	85
217	10
218	30
