Mass Spectrum: Phosphoramidic acid, N,N-dimethyl-, monoethyl ester
Formula: C4H12NO3P
CAS: 2632-86-2
Molecular weight: 153
m/z	intensity
26	15
27	55
29	49
30	59
40	13
41	28
42	180
43	105
44	999
45	123
46	10
47	29
63	10
65	33
81	60
82	68
83	48
92	13
106	48
107	15
108	165
109	34
110	96
124	263
125	52
126	56
127	7
138	34
152	33
153	221
154	55
155	7
