Mass Spectrum: 1,2-Ethenediol, 2TMS derivative
Formula: C8H20O2Si2
CAS: 26327-98-0
Molecular weight: 204
m/z	intensity
28	22
29	11
43	43
44	23
45	177
46	10
47	10
52	10
59	26
66	26
72	11
73	999
74	125
75	61
101	20
116	8
131	8
133	14
144	23
189	50
190	9
191	7
204	132
205	26
206	11
