Mass Spectrum: Urea, N-phenyl-N'-1H-purin-6-yl-
Formula: C12H10N6O
CAS: 26325-06-4
Molecular weight: 254
m/z	intensity
38	40
39	77
40	28
41	28
42	10
43	38
44	44
45	3
46	3
47	3
49	3
50	22
51	28
52	32
53	48
54	62
55	13
56	3
57	3
58	7
60	3
61	6
62	12
63	32
64	54
65	87
66	259
67	25
68	3
69	7
70	7
71	3
73	3
74	7
75	7
76	7
77	18
78	15
79	26
80	14
81	22
82	3
83	3
90	3
91	68
92	67
93	999
94	29
95	3
97	3
105	3
106	17
107	19
108	89
109	8
111	3
118	13
119	164
120	16
128	4
133	7
134	16
135	276
136	27
137	2
160	253
161	30
162	4
163	4
254	56
255	10
