Mass Spectrum: Cyclohexane, (1-ethylpropyl)-
Formula: C11H22
CAS: 26321-98-2
Molecular weight: 154
m/z	intensity
25	0
26	4
27	108
28	3
29	159
30	3
31	0
33	0
34	0
35	0
36	1
37	2
38	2
39	102
40	16
41	412
42	97
43	358
44	3
45	0
46	0
47	0
48	0
49	0
50	2
51	10
52	5
53	49
54	83
55	994
56	64
57	133
58	6
59	0
60	0
61	0
62	0
63	2
64	0
65	10
66	10
67	334
68	32
69	648
70	551
71	121
72	5
73	1
75	0
76	0
77	13
78	3
79	16
80	5
81	51
82	627
83	999
84	74
85	4
86	0
87	0
90	0
91	3
92	0
93	1
94	0
95	11
96	4
97	15
98	2
100	1
102	1
103	0
104	0
105	0
107	0
108	0
109	2
110	2
111	10
112	1
113	0
114	0
115	0
117	1
118	0
119	1
120	0
121	0
122	0
123	2
124	142
125	459
126	45
127	2
128	0
135	0
141	0
142	0
148	1
152	0
153	0
154	89
155	10
157	0
