Mass Spectrum: Bicyclo[2.2.1]heptane, 2-(2-propenyl)-
Formula: C10H16
CAS: 2633-80-9
Molecular weight: 136
m/z	intensity
26	8
27	77
28	13
29	31
30	1
31	0
37	2
38	7
39	133
40	23
41	176
42	11
43	4
47	1
48	0
49	0
50	7
51	21
52	12
53	59
54	24
55	58
56	2
57	2
58	0
59	0
61	0
62	1
63	5
64	1
65	36
66	44
67	299
68	29
69	5
70	0
71	0
73	0
74	0
75	1
76	0
77	39
78	10
79	64
80	21
81	14
82	3
83	2
84	0
89	0
90	0
91	24
92	4
93	41
94	14
95	999
96	79
97	2
102	0
103	0
104	0
105	2
106	0
107	5
108	5
109	0
115	0
117	0
121	3
122	0
136	5
137	0
