Mass Spectrum: 1-(tert-Butyl)-3-methyl-1H-pyrazole-5-carbohydrazide
Formula: C9H16N4O
CAS: 263336-21-6
Molecular weight: 196
m/z	intensity
37	6
39	118
40	87
41	132
42	34
44	36
45	7
50	13
51	24
52	32
53	59
54	36
55	25
56	50
57	83
58	5
66	32
67	3
69	0
73	4
79	7
80	7
81	25
82	25
83	34
107	8
109	999
111	145
112	8
113	1
123	13
124	0
125	7
126	8
127	6
128	11
138	7
140	126
141	7
142	1
149	5
151	2
165	171
166	23
181	2
196	57
197	3
