Mass Spectrum: Benzene, 2-azido-1,3-dimethyl-
Formula: C8H9N3
CAS: 26334-20-3
Molecular weight: 147
m/z	intensity
14	50
15	160
26	170
27	680
28	470
29	60
37	110
38	230
39	999
40	150
41	190
49	30
50	280
51	180
52	370
53	180
61	50
62	120
63	290
64	180
65	500
66	160
69	40
74	40
75	70
76	100
77	480
78	170
79	90
90	90
91	890
92	200
93	540
94	40
102	50
103	60
104	460
105	90
106	30
116	70
117	110
118	780
119	830
120	100
121	50
147	120
148	30
