Mass Spectrum: p-Vinylbenzenesulfonamide
Formula: C8H9NO2S
CAS: 2633-64-9
Molecular weight: 183
m/z	intensity
16	1
17	2
18	10
27	9
37	1
38	3
39	19
40	1
41	3
44	1
45	3
46	1
48	1
49	1
50	36
51	95
52	19
53	11
54	1
55	1
58	3
59	4
61	2
62	9
63	34
64	19
65	32
66	4
67	1
69	3
73	2
74	26
75	39
76	54
77	448
78	34
79	7
80	2
81	1
82	1
86	2
87	4
88	1
89	9
90	5
91	79
92	12
93	4
94	6
95	1
97	1
98	5
99	2
100	1
101	31
102	157
103	999
104	93
105	7
106	1
107	1
108	1
116	2
117	8
118	43
119	213
120	406
121	35
122	2
123	1
134	2
135	2
136	1
137	10
138	1
139	3
151	9
152	1
153	3
154	3
155	1
156	1
166	1
167	317
168	30
169	16
170	2
182	2
183	609
184	62
185	32
186	3
