Mass Spectrum: 1-Benzyl-3-(tert-butyl)-1H-pyrazole-5-carbohydrazide
Formula: C15H20N4O
CAS: 263385-00-8
Molecular weight: 272
m/z	intensity
33	29
34	4
36	2
39	101
40	81
41	87
42	15
43	12
44	20
45	3
50	7
51	37
52	17
53	57
55	21
57	219
58	9
59	3
62	5
63	31
65	156
66	12
67	15
68	5
69	4
71	3
72	2
73	0
74	0
75	3
77	65
79	26
80	5
81	5
82	1
83	0
85	0
86	0
89	39
91	999
92	61
93	5
94	2
95	3
96	0
98	0
99	2
101	1
102	7
103	6
104	8
106	53
107	8
108	9
109	3
110	4
112	1
114	8
115	8
116	2
117	1
119	3
120	1
121	4
122	0
124	4
125	0
128	16
129	13
130	9
131	2
135	38
136	6
145	0
147	0
148	0
149	8
150	6
151	35
152	7
153	1
154	1
155	5
156	3
157	7
158	4
162	2
164	0
165	1
166	3
167	2
168	4
169	2
170	3
179	1
180	9
181	2
182	4
185	166
186	16
187	1
189	6
194	2
195	8
197	14
198	7
199	6
209	0
211	5
212	2
213	16
214	5
215	7
216	0
224	3
225	8
226	7
227	5
238	5
239	18
241	606
242	92
243	7
254	3
255	16
256	13
257	16
258	0
269	2
270	15
272	344
273	49
274	4
