Mass Spectrum: Benzene, 1,1'-sulfinilbis(2,3,4,5,6-pentafluoro)-
Formula: C12F10OS
CAS: 26346-84-9
Molecular weight: 382
m/z	intensity
33	20
34	77
36	23
43	39
44	19
45	6
48	58
50	4
53	6
55	31
56	5
63	195
64	6
65	6
67	49
69	156
74	53
75	9
76	3
79	127
86	57
87	159
89	4
93	459
94	19
97	4
98	282
99	34
105	78
106	3
110	10
111	96
116	4
117	999
118	81
124	26
125	29
130	34
131	26
136	23
137	36
141	6
143	183
147	10
148	107
149	160
150	13
155	568
156	28
158	6
165	11
167	312
168	28
180	11
183	261
187	56
197	13
198	6
199	779
200	48
201	34
204	5
213	15
215	979
216	78
217	20
292	5
297	17
334	33
335	4
347	6
366	40
382	79
