Mass Spectrum: 2-Pyrazolin-5-ol, 5-trifluoromethyl-3-methyl-1-(3-pyridylcarbonyl)-
Formula: C11H10F3N3O2
CAS: 263699-79-2
Molecular weight: 273
m/z	intensity
33	1
34	0
37	4
38	12
39	51
40	18
41	54
42	43
43	11
44	4
45	1
47	2
50	75
51	197
52	29
53	16
54	10
55	15
56	6
57	2
58	0
59	1
60	0
61	0
62	1
63	2
64	6
65	5
66	3
67	5
68	6
69	32
70	8
71	1
72	0
73	0
75	6
76	11
78	456
79	28
80	2
81	1
82	2
83	2
84	0
87	0
89	0
90	1
91	2
92	3
93	2
94	0
95	0
97	0
98	3
99	6
100	0
101	1
102	1
103	2
106	999
107	59
108	2
109	0
112	0
117	0
118	0
119	0
120	1
121	1
122	0
124	0
125	0
126	2
129	4
130	0
131	1
132	0
133	0
134	0
135	0
136	0
137	0
139	0
146	0
147	0
149	0
150	0
152	0
158	0
159	0
161	5
162	25
163	2
164	0
167	0
186	0
201	1
204	79
205	8
206	0
254	2
258	0
269	0
270	0
271	1
273	73
274	8
275	0
