Mass Spectrum: Phenylacetic acid, 2-(4-hydroxy-1,2,5-trimethylpiperidin-4-yl)-, methyl ester
Formula: C17H25NO3
CAS: 26363-79-1
Molecular weight: 291
m/z	intensity
33	4
34	3
37	2
38	9
39	100
40	84
41	208
42	501
43	289
44	587
45	35
49	1
50	12
51	35
52	13
53	45
54	23
55	107
56	248
57	210
58	302
59	58
60	2
61	4
62	11
63	49
64	19
65	78
67	34
68	22
70	999
71	123
72	56
73	0
74	3
75	4
77	69
78	102
79	102
81	80
82	31
84	152
85	27
86	4
87	4
89	101
90	149
91	358
92	26
94	15
95	4
96	13
98	145
99	36
100	8
101	2
102	6
103	20
104	13
105	40
107	22
108	60
110	18
111	3
112	6
113	3
115	40
116	15
117	15
118	119
119	16
121	113
122	21
124	85
126	178
127	28
128	24
129	19
130	4
131	13
132	8
133	3
134	1
135	8
136	0
140	30
141	47
142	785
143	69
144	7
145	2
146	2
147	3
148	0
149	18
150	58
151	7
152	0
155	2
156	0
157	3
158	0
159	3
160	1
165	0
166	1
167	0
168	2
171	2
183	2
184	2
186	0
198	4
199	3
200	3
207	2
210	0
212	0
213	1
214	1
216	2
217	0
219	0
232	0
244	1
249	1
256	2
258	141
259	22
260	17
261	1
271	0
272	4
274	4
275	7
276	231
277	43
278	5
286	0
288	0
290	6
291	57
292	11
293	0
