Mass Spectrum: Phosphonic acid, (3,4-dimethyl-2-pyridyl)-, diethyl ester
Formula: C11H18NO3P
CAS: 26384-82-7
Molecular weight: 243
m/z	intensity
27	110
28	70
29	140
31	70
39	80
41	40
43	30
45	50
47	40
51	50
52	40
53	50
65	70
66	30
77	140
78	80
79	240
80	40
81	50
105	20
106	240
107	999
108	130
109	30
121	40
133	40
134	110
135	320
136	40
142	30
170	170
171	40
199	80
214	50
228	30
229	20
243	100
