Mass Spectrum: Isoxazole-3-carboxylic acid, 5-[1-(4-methylbenzoyloxyimino)ethyl]-, ethyl ester
Formula: C16H16N2O5
CAS: 263897-29-6
Molecular weight: 316
m/z	intensity
33	0
34	0
36	0
37	1
38	7
39	48
40	21
41	24
42	20
43	7
44	11
45	5
46	0
49	0
50	7
51	13
52	6
53	5
54	3
55	2
56	1
57	2
58	1
59	1
60	0
61	1
62	5
63	21
64	12
65	105
66	9
67	33
68	20
69	2
70	0
71	0
72	0
73	0
74	1
75	1
76	2
77	3
78	2
79	1
80	0
81	0
82	0
83	0
84	1
85	0
86	1
87	1
89	32
90	36
91	303
92	28
93	1
94	2
95	0
96	1
97	0
98	0
99	0
101	0
102	0
103	0
104	0
105	1
106	0
107	2
108	0
109	0
110	0
111	0
112	0
113	0
114	0
115	1
119	999
120	148
121	12
122	0
123	0
124	0
125	0
126	0
127	0
128	0
129	0
130	0
131	0
132	0
133	0
134	0
135	2
136	13
137	2
138	0
139	0
140	0
142	0
143	0
145	0
149	0
150	0
152	2
153	0
154	0
155	0
156	0
158	0
165	0
167	0
169	0
170	0
171	0
181	0
182	0
183	0
187	0
189	0
197	0
198	0
199	0
217	0
245	0
268	0
269	0
271	37
272	5
273	0
274	0
301	0
315	0
316	1
317	0
318	0
