Mass Spectrum: D-Arabino-Hexitol, 2-deoxy-, pentakis(trifluoroacetate)
Formula: C16H9F15O10
CAS: 26388-40-9
Molecular weight: 646
m/z	intensity
69	950
70	50
81	600
82	30
85	300
86	20
95	160
96	10
100	999
101	70
112	60
125	60
143	90
153	300
154	20
183	120
184	10
191	50
209	50
253	40
267	40
279	11
295	5
305	7
323	3
379	3
393	4
419	3
519	2
533	5
