Mass Spectrum: 3,4-Dimethyl-1-phenyl-1-germacyclopent-3-ene
Formula: C12H16Ge
CAS: 26393-21-5
Molecular weight: 234
m/z	intensity
39	220
41	320
42	70
43	999
44	50
51	50
53	60
54	50
55	300
58	490
67	160
72	100
73	70
74	160
78	100
79	50
81	40
83	90
85	80
87	120
89	150
91	30
95	40
97	80
99	120
100	20
101	70
111	90
112	130
113	120
114	170
115	165
116	190
117	30
118	50
121	30
123	40
125	50
127	20
139	50
141	60
143	70
145	20
147	380
148	65
149	550
150	260
151	785
152	150
153	250
154	140
155	170
156	180
157	90
158	150
159	130
160	50
188	15
190	20
192	25
194	15
216	10
218	15
220	20
230	190
231	25
232	210
233	90
234	290
235	40
236	70
