Mass Spectrum: 2-Propenoic acid, 3,3-bis(dimethylamino)-, methyl ester
Formula: C8H16N2O2
CAS: 26394-95-6
Molecular weight: 172
m/z	intensity
41	60
42	310
43	60
44	250
45	60
52	30
53	30
54	60
55	200
56	90
57	30
59	40
68	160
69	160
70	250
71	90
72	669
82	220
83	30
85	30
98	370
114	999
115	60
128	190
129	230
141	200
157	30
172	480
