Mass Spectrum: Pregn-4-ene-3,20-dione, 7-methyl-, (7.alpha.)-
Formula: C22H32O2
CAS: 2640-71-3
Molecular weight: 328
m/z	intensity
40	10
41	234
43	999
45	16
51	12
52	7
53	73
54	8
55	268
57	12
65	50
66	16
67	176
69	73
71	127
77	133
78	30
79	213
80	31
81	170
83	36
84	118
85	129
91	186
92	32
93	179
94	66
95	207
96	11
97	44
103	13
105	156
106	36
107	153
108	48
109	88
110	13
111	16
115	24
116	11
117	47
118	18
119	132
120	34
121	144
122	71
123	166
124	595
125	71
128	21
129	21
130	8
131	61
132	8
133	147
134	69
135	109
136	42
137	34
138	8
141	7
142	7
143	19
144	6
145	70
146	40
147	126
148	108
149	114
150	32
151	78
152	13
155	12
157	25
158	9
159	75
160	25
161	160
162	18
163	122
164	12
169	9
171	14
172	8
173	53
174	6
175	56
176	24
177	44
178	9
183	9
185	23
186	22
187	75
188	41
189	21
190	11
191	17
197	11
199	18
201	53
202	6
203	17
204	103
205	171
206	45
207	7
213	7
215	25
216	8
217	11
225	22
226	6
227	12
228	6
229	15
230	11
232	8
239	6
240	6
241	7
243	183
244	29
245	53
253	9
257	18
258	21
267	14
268	7
270	21
271	31
272	7
283	10
284	10
285	33
286	359
295	8
300	8
310	42
313	63
328	604
