Mass Spectrum: Orotyl hydrazide
Formula: C5H6N4O3
CAS: 26409-12-1
Molecular weight: 170
m/z	intensity
41	276
42	141
43	208
44	261
45	11
51	15
52	21
53	100
54	27
55	31
56	22
58	14
59	9
65	12
67	109
68	999
69	80
70	59
71	17
84	129
85	8
97	8
99	41
111	17
112	115
113	9
127	437
128	12
139	31
140	34
141	19
155	7
170	190
171	16
