Mass Spectrum: (1-Acetylamino-2,2,2-trichloro-ethyl)-phosphonic acid diethyl ester
Formula: C8H15Cl3NO4P
CAS: 26404-47-7
Molecular weight: 325
m/z	intensity
35	0
36	1
39	0
41	15
42	52
43	999
44	54
45	33
46	5
47	24
48	8
49	11
50	0
51	2
52	0
54	0
55	0
56	4
57	1
60	1
61	3
62	0
63	4
64	5
65	109
66	5
67	0
70	0
72	0
74	2
75	5
76	13
77	5
78	6
79	0
80	3
81	111
82	87
83	88
84	4
85	6
87	0
88	0
89	0
90	0
91	19
92	8
93	7
94	7
95	2
96	0
97	2
99	12
100	1
101	0
102	0
103	0
104	2
105	0
107	0
108	2
109	39
110	88
111	214
112	12
113	55
114	6
115	9
116	1
117	15
118	2
119	11
120	0
121	6
122	6
123	5
124	3
125	6
126	1
127	9
128	1
129	0
130	0
134	4
135	6
136	244
137	26
138	365
139	41
140	56
141	11
142	1
143	0
144	0
145	57
146	109
147	16
148	105
149	6
150	37
151	21
152	76
153	71
154	58
155	128
156	47
157	12
158	13
159	5
160	2
161	2
162	14
163	2
164	3
165	25
166	772
167	49
168	6
169	0
170	3
172	0
173	33
174	7
175	14
176	7
177	7
178	4
179	5
180	14
181	1
182	0
184	0
188	2
190	2
191	3
192	43
193	7
194	23
195	0
196	3
198	6
199	0
208	45
209	4
210	0
212	2
213	0
216	1
218	2
219	0
220	4
221	0
222	1
226	19
227	0
228	5
244	0
246	0
247	11
248	13
249	5
250	13
251	1
252	7
253	0
254	7
255	1
256	4
257	0
258	0
280	4
282	6
283	0
284	63
285	4
286	44
287	3
288	15
289	1
290	45
291	6
292	35
293	3
294	6
308	7
310	7
312	1
325	8
326	608
327	67
328	488
329	65
330	176
331	18
332	21
