Mass Spectrum: 1H-Pyrrolizine-7-methanol, 2,3-dihydro-1-hydroxy-
Formula: C8H11NO2
CAS: 26400-45-3
Molecular weight: 153
m/z	intensity
87	227
90	294
92	88
94	51
104	514
106	294
107	220
108	110
109	80
116	139
117	999
118	330
119	110
120	73
121	58
122	95
123	36
133	44
134	345
135	573
136	647
137	73
150	36
151	73
152	44
153	727
154	73
