Mass Spectrum: (2S,6R)-2-Methyl-6-nonylpiperidin-4-one
Formula: C15H29NO
CAS: 264149-06-6
Molecular weight: 239
m/z	intensity
53	3
54	8
55	27
56	23
57	11
58	6
67	9
68	14
69	26
70	282
71	24
72	3
80	2
82	16
83	11
84	21
85	5
86	3
95	7
98	16
99	5
100	5
112	999
113	100
114	10
125	2
126	5
127	9
140	35
141	4
154	9
166	3
168	4
182	47
183	8
196	25
197	5
210	3
224	15
225	2
238	5
239	9
