Mass Spectrum: 1,4,7,10-Tetraoxa-13-azacyclopentadecane-13-butanoic acid, .gamma.-oxo-
Formula: C14H25NO7
CAS: 264132-10-7
Molecular weight: 319
m/z	intensity
54	62
55	460
56	913
57	999
58	357
59	219
60	75
67	31
68	73
69	179
70	434
71	242
72	416
73	407
74	359
75	53
81	32
82	32
83	66
84	70
85	78
86	447
87	319
88	257
89	393
90	23
97	37
98	132
99	74
100	410
101	442
102	116
103	55
110	24
111	31
112	106
113	61
114	166
115	62
116	68
117	53
118	73
126	161
127	43
128	57
129	27
130	74
131	72
132	187
133	114
142	49
143	103
144	415
145	86
146	31
156	48
157	83
158	122
159	32
160	46
162	77
170	63
171	87
172	71
173	38
174	64
175	20
176	39
177	20
185	22
186	95
187	39
188	138
189	28
190	23
214	27
218	104
219	24
220	25
230	21
231	90
232	24
257	27
258	29
276	69
277	8
302	165
303	28
319	26
320	4
