Mass Spectrum: (2S,4R,6R)-2-Methyl-6-nonylpiperidin-4-ol
Formula: C15H31NO
CAS: 264149-05-5
Molecular weight: 241
m/z	intensity
53	10
55	40
56	27
57	23
58	12
67	14
68	15
69	32
70	182
71	21
81	13
82	15
83	12
84	17
94	10
96	52
98	14
107	46
110	8
114	999
115	88
120	12
152	7
182	21
196	8
226	19
241	7
