Mass Spectrum: 2-Pentenoic acid, 5-phenyl-, methyl ester, (E)-
Formula: C12H14O2
CAS: 26429-97-0
Molecular weight: 190
m/z	intensity
41	180
42	30
43	190
44	150
45	10
50	90
51	270
52	80
53	80
55	80
58	70
59	40
62	20
63	180
64	150
65	400
66	40
67	10
68	210
69	20
71	20
74	20
75	30
76	20
77	210
78	150
79	50
80	10
81	60
85	10
86	40
89	130
90	60
91	999
92	560
93	30
99	60
100	10
101	10
102	50
103	90
104	200
105	70
106	20
107	10
114	10
115	180
116	280
117	290
118	30
121	10
126	10
127	60
128	190
129	280
130	800
131	390
132	40
133	10
141	30
142	20
144	10
145	10
146	10
147	10
149	10
157	20
158	620
159	560
160	60
176	10
190	360
191	30
