Mass Spectrum: 2-Benzyloxy-1-oxiran-2-yl-ethanol
Formula: C11H14O3
CAS: 264234-31-3
Molecular weight: 194
m/z	intensity
26	4
27	28
29	26
30	2
31	37
38	5
39	57
40	7
41	35
42	29
43	52
44	10
45	45
47	2
50	13
51	42
52	13
53	5
54	4
55	16
56	2
57	30
58	10
59	2
60	2
61	3
62	6
63	30
64	11
65	153
66	9
67	1
68	1
69	10
70	22
71	7
73	52
74	6
75	4
76	3
77	57
78	19
79	78
80	7
81	2
83	2
85	3
86	6
87	4
88	7
89	45
90	31
91	999
92	253
93	15
94	1
95	2
97	1
103	5
104	8
105	65
106	12
107	231
108	35
109	3
111	1
115	3
116	3
117	8
118	3
119	8
120	13
121	8
122	2
123	2
129	1
131	3
132	10
133	159
134	17
135	3
145	33
146	7
147	1
149	3
150	7
151	1
158	2
159	23
160	3
175	9
176	3
193	17
194	19
195	3
