Mass Spectrum: 5Alpha-cholestan-3-one tosylhydrazone
Formula: C34H54N2O2S
CAS: 26430-35-3
Molecular weight: 554
m/z	intensity
16	3
17	16
18	67
26	3
27	24
28	60
29	45
30	7
31	36
32	3
37	6
38	14
39	112
40	12
41	165
42	16
43	187
44	9
45	25
46	2
48	14
49	4
50	37
51	57
52	14
53	43
54	13
55	216
56	32
57	165
58	9
59	3
60	5
61	12
62	30
63	90
64	38
65	332
66	29
67	171
68	38
69	187
70	36
71	89
72	11
73	3
74	10
75	8
76	6
77	142
78	40
79	245
80	68
81	264
82	48
83	117
84	27
85	28
86	11
87	9
88	4
89	77
90	41
91	999
92	607
93	275
94	101
95	288
96	47
97	88
98	17
99	8
100	3
101	5
102	2
103	7
104	21
105	196
106	151
107	342
108	235
109	167
110	35
111	132
112	12
113	9
114	2
115	14
116	6
117	37
118	26
119	122
120	75
121	191
122	91
123	132
124	55
125	21
126	5
127	8
128	11
129	15
130	10
131	53
132	21
133	104
134	75
135	142
136	49
137	43
138	19
139	200
140	78
141	21
142	9
143	14
144	13
145	81
146	34
147	182
148	61
149	97
150	20
151	22
152	12
153	6
154	4
155	26
156	369
157	149
158	34
159	61
160	43
161	176
162	96
163	60
164	10
165	15
166	4
167	4
168	2
169	4
170	5
171	16
172	12
173	51
174	31
175	72
176	107
177	50
178	10
179	11
180	4
181	5
182	3
183	5
184	5
185	9
186	35
187	42
188	31
189	46
190	21
191	17
192	7
193	27
194	7
195	4
196	6
197	7
198	5
199	11
200	8
201	87
202	39
203	148
204	30
205	13
206	17
207	15
208	8
209	3
210	2
211	6
212	5
213	9
214	13
215	368
216	224
217	111
218	26
219	15
220	7
221	5
222	2
225	2
226	7
227	8
228	11
229	33
230	105
231	67
232	26
233	14
234	4
235	4
239	3
240	3
241	9
242	7
243	34
244	16
245	22
246	13
247	26
248	9
249	4
250	4
251	3
252	3
253	4
254	4
255	18
256	25
257	155
258	38
259	15
260	18
261	16
262	27
263	9
267	2
268	10
269	8
270	9
271	10
272	7
273	10
274	20
275	35
276	9
277	3
278	5
283	4
284	4
285	24
286	11
287	22
288	11
289	8
290	2
296	3
297	3
298	6
299	9
300	10
301	46
302	13
303	4
310	2
311	2
312	3
313	17
314	20
315	39
316	360
317	93
318	11
324	2
325	3
326	3
327	9
328	20
329	18
330	12
331	3
339	3
340	3
341	9
342	6
343	2
345	3
346	2
348	2
350	2
351	2
352	5
353	7
354	6
355	213
356	66
357	15
358	4
362	2
363	2
364	3
365	3
366	13
367	9
368	28
369	45
370	717
371	216
372	38
373	5
380	4
381	15
382	21
383	142
384	59
385	40
386	20
387	6
388	3
397	54
398	254
399	241
400	99
401	21
402	6
410	7
411	5
412	5
413	2
424	2
437	5
438	2
439	3
449	2
450	2
452	2
490	2
539	2
554	4
