Mass Spectrum: Octan-8-ol, 2,5-diaza-2,5-dimethyl-
Formula: C8H20N2O
CAS: 26439-05-4
Molecular weight: 160
m/z	intensity
26	2
27	19
28	30
29	14
30	50
31	6
34	0
38	0
39	3
40	3
41	13
42	134
43	47
44	362
45	92
46	2
47	0
49	0
50	0
51	0
52	1
53	1
54	7
55	8
56	39
57	37
58	999
59	35
60	0
65	0
66	0
67	2
68	1
69	2
70	40
71	139
72	93
73	7
74	0
75	1
77	2
78	0
79	2
80	0
81	2
82	2
83	3
84	4
85	3
86	6
87	3
88	741
89	35
90	2
91	2
92	0
93	1
94	0
95	1
96	0
97	2
98	1
99	4
100	4
101	3
102	5
103	0
105	0
107	0
108	0
109	0
110	0
111	0
112	0
113	29
114	6
115	2
116	13
117	1
119	0
121	0
126	0
127	0
128	22
129	4
130	0
136	1
137	0
138	0
143	0
144	0
145	0
