Mass Spectrum: Ether, p-methylbenzyl vinyl
Formula: C10H12O
CAS: 26437-10-5
Molecular weight: 148
m/z	intensity
27	101
28	5
29	15
30	0
31	3
37	1
38	8
39	77
40	6
41	13
42	14
43	4
44	1
45	0
50	23
51	70
52	25
53	29
54	1
55	1
57	1
60	0
61	1
62	10
63	35
64	10
65	49
66	6
67	0
73	0
74	5
75	6
76	8
77	175
78	66
79	131
80	9
86	1
87	2
89	18
90	7
91	40
92	3
93	4
101	1
102	9
103	86
104	47
105	999
106	89
107	4
115	2
117	3
119	11
120	1
121	0
130	0
133	0
134	0
148	22
149	3
