Mass Spectrum: Benzene, 3-heptenyl-
Formula: C13H18
CAS: 26447-64-3
Molecular weight: 174
m/z	intensity
41	148
42	9
43	9
51	19
52	9
53	19
54	9
55	217
56	9
63	9
65	69
66	9
67	39
77	19
78	9
81	9
82	69
83	69
89	9
90	19
91	999
92	138
93	9
103	9
104	247
105	29
115	9
117	49
118	9
131	39
132	9
145	9
174	99
175	9
