Mass Spectrum: Benzene, 2-heptenyl-
Formula: C13H18
CAS: 26447-63-2
Molecular weight: 174
m/z	intensity
41	120
42	10
43	30
50	20
51	40
52	10
53	30
54	70
55	140
56	20
57	10
58	10
59	30
60	10
62	10
63	20
64	10
65	70
66	10
67	40
68	10
69	10
70	10
73	10
74	10
75	10
76	10
77	50
78	40
79	20
81	50
82	30
83	40
89	30
90	10
91	680
92	110
93	20
96	30
97	10
102	10
103	40
104	999
105	110
106	10
115	150
116	80
117	940
118	140
119	10
127	20
128	50
129	60
130	20
131	110
132	30
133	10
141	10
143	10
145	20
146	10
174	490
175	70
176	10
