Mass Spectrum: Benzene, 5-heptenyl-
Formula: C13H18
CAS: 26447-66-5
Molecular weight: 174
m/z	intensity
41	170
42	30
43	30
45	10
50	10
51	60
52	30
53	50
54	30
55	230
56	20
57	20
58	30
64	40
65	10
66	130
67	10
68	60
69	40
70	20
72	10
77	80
78	50
79	60
81	40
82	20
83	30
89	20
90	10
91	900
92	300
93	40
102	10
103	40
104	999
105	200
106	40
115	50
116	10
117	390
118	120
119	10
129	10
131	80
132	30
145	30
174	280
175	50
