Mass Spectrum: 1-Hexanone, 1-(2-thienyl)-
Formula: C10H14OS
CAS: 26447-67-6
Molecular weight: 182
m/z	intensity
26	2
27	50
28	9
29	37
38	10
39	168
40	8
41	35
42	7
43	33
45	16
50	5
51	6
52	2
53	8
55	27
57	14
58	6
59	2
63	2
65	4
69	3
70	1
71	2
75	1
76	1
78	2
81	3
82	8
83	49
84	27
85	6
87	2
89	2
90	2
92	2
94	2
96	2
97	19
98	1
99	3
110	3
111	999
112	44
113	32
114	3
121	2
123	1
126	841
127	42
128	26
139	52
140	9
149	4
153	3
182	43
183	3
