Mass Spectrum: 5-Hydroxypyrimidine
Formula: C4H4N2O
CAS: 26456-59-7
Molecular weight: 96
m/z	intensity
36	4
37	5
38	29
39	51
40	130
41	73
42	409
43	88
44	8
50	7
51	25
52	14
53	6
54	6
55	77
56	33
57	128
58	6
60	4
65	7
66	3
67	26
68	42
69	63
70	23
76	5
77	9
78	3
79	9
80	5
81	36
82	19
91	8
92	3
93	8
94	5
95	78
96	999
97	51
