Mass Spectrum: Methanone, 2-thienyl-3-thienyl-
Formula: C9H6OS2
CAS: 26453-84-9
Molecular weight: 194
m/z	intensity
25	3
26	7
29	2
37	20
38	47
39	584
43	4
44	7
45	81
46	2
47	6
49	6
50	18
51	13
53	20
57	31
58	23
59	3
61	6
62	6
63	9
68	3
69	24
70	2
71	6
73	1
74	6
75	5
77	11
81	22
82	31
83	200
84	22
85	8
89	2
90	3
93	5
97	2
108	4
110	2
111	999
112	61
113	51
121	24
122	4
127	2
134	8
150	2
161	3
165	3
166	41
167	5
168	2
193	13
194	372
195	46
196	40
197	3
