Mass Spectrum: 4-(Bromomethyl)-1-azabicyclo[2.2.2]octane
Formula: C8H14BrN
CAS: 26458-73-1
Molecular weight: 203
m/z	intensity
27	131
28	105
39	136
41	237
42	559
44	115
53	69
55	62
56	66
67	88
70	76
81	76
96	105
110	125
124	999
125	85
203	80
205	80
