Mass Spectrum: 1-Acetoxyindane
Formula: C11H12O2
CAS: 26452-98-2
Molecular weight: 176
m/z	intensity
74	9
75	11
76	15
77	51
78	22
79	20
89	26
90	10
91	68
92	10
102	19
103	32
104	25
105	38
115	240
116	999
117	350
118	35
130	9
131	20
132	29
133	140
134	140
135	19
176	4
177	0
