Mass Spectrum: 2-Hydroperfluoroisobutanoic acid-N,N-di(2-propenyl)amide
Formula: C10H11F6NO
CAS: 26457-86-3
Molecular weight: 275
m/z	intensity
39	100
40	17
41	999
42	75
43	28
56	781
57	71
58	5
69	51
70	52
82	65
83	7
96	14
110	19
124	17
179	14
234	43
235	5
275	23
276	3
