Mass Spectrum: N,N'-Bis-(4-octyloxybenzylidene)-2-chloro-1,4-phenylenediamine
Formula: C36H47ClN2O2
CAS: 26456-28-0
Molecular weight: 574
m/z	intensity
41	549
42	57
43	999
44	54
45	10
47	59
48	31
52	6
53	30
54	11
55	273
56	62
57	492
58	21
60	6
63	8
65	49
67	36
68	25
69	184
70	70
71	241
72	25
73	22
75	9
76	15
77	76
78	33
79	22
81	6
83	25
84	10
93	22
95	11
97	11
105	6
106	12
107	8
109	7
111	10
112	10
113	5
120	8
121	31
122	29
123	45
124	10
125	5
166	25
167	17
192	6
194	5
195	6
200	11
201	23
202	6
203	6
230	7
255	56
256	16
257	28
258	6
285	28
286	22
287	8
313	15
314	10
315	6
321	8
349	105
350	115
351	55
352	35
353	7
361	5
362	6
363	7
461	17
462	24
463	14
464	10
475	7
574	180
575	66
576	67
577	18
