Mass Spectrum: N-(2-Hydroperfluoroisobutyl)-N,N-di(2-propynyl)amine
Formula: C10H7F8N
CAS: 26457-87-4
Molecular weight: 293
m/z	intensity
38	30
39	999
40	45
51	40
57	63
58	3
64	130
65	40
69	125
70	1
77	44
78	25
102	155
103	7
135	63
136	4
205	655
206	44
235	105
236	10
255	53
256	4
274	72
275	8
293	5
294	1
