Mass Spectrum: Acetic acid, 2-(4-methylphenylsulfonylamino)-, methyl ester
Formula: C10H13NO4S
CAS: 2645-02-5
Molecular weight: 243
m/z	intensity
33	18
34	12
39	96
40	233
41	37
42	9
43	15
44	62
45	15
48	9
50	20
51	36
52	10
53	7
55	4
56	2
57	5
58	0
59	41
60	0
62	14
63	57
64	32
65	264
66	14
67	4
69	6
70	2
71	1
74	3
75	4
76	12
77	30
78	11
79	11
80	4
81	2
82	4
87	3
89	74
90	48
91	999
92	78
93	5
94	0
95	1
103	1
104	2
105	3
106	2
107	9
108	4
109	1
111	1
118	5
119	3
120	4
121	3
124	3
139	28
140	0
155	698
156	51
157	33
171	1
184	610
185	51
186	29
187	1
243	84
244	7
245	2
