Mass Spectrum: 4,4-Dimethyl-1,1a,3a,4,5,6-hexahydrocyclopropa[c]pentalene
Formula: C11H16
CAS: 264628-27-5
Molecular weight: 148
m/z	intensity
33	1
34	0
37	1
38	10
39	233
40	34
41	302
42	56
43	60
44	2
46	1
49	1
50	26
51	103
52	51
53	76
54	8
55	208
56	28
57	59
58	17
59	4
61	1
62	10
63	45
64	22
65	154
66	20
67	27
68	2
69	17
70	154
71	28
72	1
73	1
74	3
75	10
76	8
77	165
78	162
79	206
80	22
81	5
82	3
83	8
84	1
85	1
86	1
87	2
88	1
89	21
90	30
91	946
92	999
93	132
94	21
95	3
96	0
97	1
98	1
100	5
101	3
102	8
103	37
104	17
105	417
106	61
107	45
108	3
111	0
113	1
114	1
115	51
116	21
117	43
118	16
119	38
120	20
121	2
123	1
126	1
127	5
128	11
129	8
130	2
131	26
132	5
133	547
134	57
135	3
145	1
147	2
148	125
149	14
150	1
