Mass Spectrum: 1-(4-Nitrophenyl)-3-phenyl-3,4-di(carboxyethyl)-pyrazolin
Formula: C21H21N3O6
CAS: 26463-47-8
Molecular weight: 411
m/z	intensity
12	3
14	3
15	11
16	7
17	27
18	97
19	2
26	12
27	117
28	76
29	999
30	48
31	10
32	9
38	6
39	32
40	4
41	13
42	7
43	26
44	39
45	16
46	5
50	33
51	41
52	12
53	8
54	5
55	11
56	4
57	10
58	2
60	3
61	2
62	7
63	48
64	19
65	15
66	3
67	4
68	2
69	7
70	2
71	5
73	6
74	4
75	21
76	59
77	97
78	14
79	6
80	5
81	4
82	2
83	4
84	2
85	3
87	3
88	10
89	62
90	70
91	22
92	9
93	3
94	1
95	3
96	3
97	3
98	2
99	3
101	3
102	12
103	46
104	40
105	14
106	4
107	1
108	1
109	3
110	1
111	2
113	4
114	15
115	32
116	81
117	64
118	13
119	5
120	3
122	3
123	1
125	2
126	2
127	5
128	23
129	11
130	15
131	12
132	8
133	3
134	4
138	2
139	4
140	5
141	4
142	6
143	8
144	11
145	4
146	7
147	1
149	6
150	2
151	4
152	6
153	3
154	2
155	1
156	3
157	3
158	3
159	2
160	1
161	1
162	4
163	4
164	6
165	29
166	7
167	3
168	1
169	1
170	1
171	2
172	1
175	1
176	1
177	3
178	4
179	3
180	4
181	2
182	1
187	1
188	1
189	6
190	12
191	24
192	16
193	6
194	1
195	1
202	1
203	1
204	2
205	4
206	7
207	10
208	4
209	1
215	0
216	4
217	12
218	34
219	54
220	131
221	22
222	2
230	0
231	1
232	4
233	10
234	9
235	24
236	11
237	2
245	2
246	11
247	12
248	155
249	65
250	14
251	2
260	0
261	1
262	3
263	4
264	13
265	81
266	420
267	77
268	8
269	1
276	1
277	0
278	1
279	1
280	0
281	0
290	1
292	97
293	20
294	394
295	79
296	9
297	0
306	0
307	1
308	3
309	3
310	18
311	3
312	0
320	1
321	0
322	0
334	0
336	6
337	19
338	72
339	14
340	2
364	2
365	16
366	4
367	0
379	3
380	1
381	7
382	1
383	0
395	4
396	1
409	6
411	217
412	53
413	9
414	1
