Mass Spectrum: 3-(4-Pyridyl)-5-phenylisoxazoline
Formula: C14H12N2O
CAS: 264607-23-0
Molecular weight: 224
m/z	intensity
50	53
51	141
52	31
62	16
63	42
64	24
65	39
66	5
73	4
74	18
75	23
76	24
77	211
78	241
79	22
80	2
89	21
90	8
91	112
92	20
102	24
103	121
104	999
105	258
106	56
107	5
116	26
117	13
118	163
119	28
120	39
121	4
146	59
147	69
148	5
165	29
166	15
191	10
192	19
193	55
194	154
195	28
196	4
206	14
207	44
208	10
221	3
222	21
223	144
224	253
225	39
226	6
