Mass Spectrum: Methyl 4-(prop-1-en-2-yl)cyclohex-1-enecarboxylate
Formula: C11H16O2
CAS: 26460-67-3
Molecular weight: 180
m/z	intensity
15	24
26	5
27	79
28	13
29	41
30	3
31	8
33	3
37	2
38	11
39	203
40	60
41	195
42	31
43	67
44	5
45	30
46	2
49	1
50	35
51	122
52	72
53	405
54	40
55	115
56	11
57	11
58	14
59	196
60	10
61	5
62	8
63	33
64	8
65	110
66	52
67	596
68	999
69	74
70	3
71	8
72	2
73	6
74	8
75	11
76	11
77	359
78	114
79	443
80	65
81	198
82	42
83	15
84	2
85	6
86	2
87	23
88	22
89	12
91	357
92	128
93	458
94	89
95	17
96	10
97	21
98	5
99	9
100	16
101	3
102	8
103	54
104	22
105	541
106	115
107	74
108	9
109	16
110	10
111	15
112	30
113	27
114	4
115	25
116	5
117	26
118	10
119	96
120	291
121	843
122	88
123	22
124	56
125	31
126	7
127	1
129	3
130	5
131	10
132	6
133	93
134	10
135	18
136	180
137	397
138	126
139	27
140	2
145	3
146	1
147	20
148	129
149	188
150	23
151	56
152	83
153	9
154	1
162	1
163	2
165	91
166	11
167	1
179	7
180	207
181	23
