Mass Spectrum: 6-Methylenecycloocta-1,3-diene
Formula: C9H12
CAS: 264628-16-2
Molecular weight: 120
m/z	intensity
25	2
26	34
27	286
28	44
29	33
32	2
36	2
37	10
38	46
39	482
40	81
41	214
42	10
43	7
44	2
45	4
46	1
49	4
50	73
51	185
52	104
53	141
54	24
55	38
56	2
57	8
58	28
59	19
60	2
61	6
62	24
63	79
64	18
65	160
66	128
67	48
68	5
69	8
70	9
71	4
73	2
74	11
75	23
76	15
77	390
78	210
79	672
80	84
81	8
83	1
85	2
86	3
87	4
88	1
89	23
90	29
91	859
92	999
93	110
94	6
95	1
97	1
98	1
101	5
102	9
103	72
104	28
105	476
106	41
107	2
113	1
114	1
115	32
116	7
117	33
118	6
119	72
120	147
121	15
