Mass Spectrum: Pyrazole, 4-(4-chlorophenoxy)-1-(4-chlorophenylsulfonyl)-3,5-dimethyl-
Formula: C17H14Cl2N2O3S
CAS: 264626-27-9
Molecular weight: 396
m/z	intensity
34	1
35	6
36	21
38	16
39	193
40	147
41	55
42	251
43	113
44	24
45	7
47	1
48	8
50	161
51	101
52	13
53	74
54	39
55	26
56	5
57	7
58	1
59	1
61	18
62	14
63	51
64	38
65	278
66	73
67	10
68	3
69	13
70	4
71	4
73	43
74	76
75	518
76	116
77	28
78	4
79	4
81	14
82	6
83	8
84	13
85	43
86	7
87	18
88	3
89	11
90	5
91	6
92	2
93	2
94	2
95	6
96	3
97	2
98	4
99	33
100	9
101	15
102	10
103	7
104	2
105	2
107	4
108	11
109	15
111	999
112	98
113	296
114	28
115	40
116	15
117	16
118	3
123	4
125	87
126	12
127	53
128	69
129	61
130	77
131	26
132	2
133	4
136	0
137	6
138	14
139	37
140	10
141	14
142	4
143	5
144	9
145	4
146	2
147	2
149	7
150	10
152	313
153	33
154	90
155	11
157	26
158	65
159	26
160	3
161	6
162	2
163	3
164	17
165	11
166	8
167	3
168	0
169	3
170	5
171	3
173	3
175	83
176	8
177	31
178	13
179	10
180	16
181	4
182	5
183	0
184	0
185	18
186	54
187	7
188	0
190	3
191	2
192	3
193	7
194	0
195	1
204	1
205	6
206	0
207	2
219	2
220	5
221	51
222	20
223	19
224	6
228	3
248	6
250	3
256	1
262	5
263	0
264	2
289	1
291	1
297	1
329	0
331	19
332	163
333	40
334	98
335	19
336	18
337	3
361	0
396	159
397	37
398	102
399	20
400	20
401	4
402	0
