Mass Spectrum: 4-Heptanone, 2-methyl-6-(4-methyl-3-cyclohexen-1-yl)-, [S-(R*,S*)]-
Formula: C15H26O
CAS: 26462-77-1
Molecular weight: 222
m/z	intensity
40	100
41	670
42	140
43	560
44	60
51	60
53	300
55	350
56	270
57	730
58	100
65	70
67	420
68	220
69	230
70	60
71	300
73	50
77	140
78	70
79	390
80	130
81	400
83	120
84	60
85	570
86	80
91	300
92	250
93	999
94	410
95	420
96	70
97	70
101	70
105	450
106	200
107	610
108	50
109	50
111	50
113	60
119	700
120	660
121	630
122	999
123	280
124	100
127	960
128	230
133	130
134	50
137	110
147	570
148	650
149	160
161	200
162	60
165	190
166	60
189	100
205	370
206	70
222	790
223	160
