Mass Spectrum: 2,4-Cyclohexadien-1-one, 3,5,6-trihydroxy-2-isovaleryl-4,6-bis(3-methyl-2-butenyl)-, (R)-(-)-
Formula: C21H30O5
CAS: 26472-41-3
Molecular weight: 362
m/z	intensity
15	12
16	6
17	102
18	485
26	10
27	112
28	40
29	73
30	12
31	12
32	12
36	8
37	6
38	16
39	173
40	53
41	681
42	65
43	126
44	81
45	14
50	16
51	36
52	16
53	134
54	24
55	140
56	53
57	57
58	4
59	8
60	20
61	12
62	4
63	12
65	30
66	16
67	142
68	97
69	999
70	204
71	30
73	14
74	14
75	2
77	38
78	36
79	38
80	12
81	40
82	77
83	36
84	14
85	24
86	14
87	14
88	4
89	4
91	32
92	6
93	18
94	24
95	75
96	24
97	24
98	6
101	2
103	6
104	2
105	14
107	14
108	4
109	18
110	16
111	12
112	2
113	2
114	2
115	6
117	2
119	6
121	12
122	6
123	6
124	6
125	6
126	2
127	4
129	6
135	4
137	6
138	69
139	12
149	12
151	6
152	4
153	4
154	16
155	2
163	4
165	4
167	4
168	4
169	4
177	4
179	10
180	14
181	77
182	108
183	20
189	2
191	10
192	8
193	26
194	6
195	16
196	10
197	10
199	6
200	6
201	6
202	6
203	2
204	2
205	16
206	8
207	14
208	8
209	12
210	4
217	12
219	16
220	14
221	32
222	8
223	59
224	18
225	6
231	4
233	6
234	2
235	42
236	14
237	44
238	97
239	57
240	10
245	10
248	10
249	6
259	40
260	14
261	8
263	16
264	6
275	6
276	6
277	55
278	44
279	14
280	14
291	4
292	73
293	28
294	100
295	18
344	4
362	2
