Mass Spectrum: Thiophene, 2-(2-bromoethyl)-
Formula: C6H7BrS
CAS: 26478-16-0
Molecular weight: 190
m/z	intensity
20	24
22	5
25	6
26	15
27	61
29	5
30	0
31	6
33	7
36	1
37	16
38	27
39	142
40	16
41	12
45	211
46	11
47	16
49	11
50	31
51	59
52	19
53	70
54	10
55	1
56	5
57	38
58	45
59	17
60	11
61	4
62	9
63	23
65	33
66	40
67	53
68	4
69	45
70	2
71	23
72	0
73	1
74	6
75	3
77	108
78	30
79	5
80	2
81	16
82	7
83	0
84	19
85	24
86	0
93	7
95	6
96	2
97	999
98	60
99	55
107	3
108	4
109	27
110	46
111	180
112	19
113	10
190	115
191	8
192	103
193	5
194	17
