Mass Spectrum: Butanedioic acid, 2,3-diethyl-, dimethyl ester, (R*,R*)-(.+-.)-
Formula: C10H18O4
CAS: 26474-33-9
Molecular weight: 202
m/z	intensity
26	13
27	180
29	210
30	11
31	41
33	9
37	3
38	7
39	166
40	24
41	359
42	109
43	80
44	9
45	79
46	1
47	3
50	4
51	13
52	8
53	87
54	26
55	497
56	74
57	25
58	4
59	395
60	14
61	4
65	9
66	4
67	47
68	18
69	348
70	166
71	42
72	9
73	273
74	47
75	8
77	6
78	1
79	11
80	2
81	47
82	52
83	485
84	60
85	29
86	4
87	792
88	112
89	8
91	1
93	1
95	21
97	5
98	2
99	11
100	6
101	999
102	735
103	50
104	3
109	8
110	29
111	76
112	9
113	212
114	64
115	93
116	7
120	3
127	45
128	5
129	20
130	1
138	1
141	63
142	142
143	146
144	11
145	50
146	7
155	2
160	1
170	21
171	226
172	24
173	5
174	13
175	2
