Mass Spectrum: 3,5-Pyrazolidinedione, 1,2-diphenyl-4-isopropylidene-
Formula: C18H16N2O2
CAS: 26485-81-4
Molecular weight: 292
m/z	intensity
39	72
51	213
64	69
67	308
77	999
82	100
91	80
92	58
93	158
105	121
119	39
129	20
130	70
143	49
144	140
157	20
158	60
170	60
171	59
172	131
182	59
183	99
198	99
199	181
200	403
275	19
292	652
