Mass Spectrum: 2-(2-Nitro-4-trifluoromethyl-phenylsulfanyl)-N-phenyl-acetamide
Formula: C15H11F3N2O3S
CAS: 2648-08-0
Molecular weight: 356
m/z	intensity
33	1
34	2
37	3
38	15
39	100
40	39
41	16
42	17
43	18
44	13
45	83
46	15
47	8
48	2
49	1
50	19
51	70
52	21
53	8
54	5
55	4
56	2
57	13
58	4
59	1
60	2
61	2
62	11
63	61
64	49
65	247
66	68
67	7
68	2
69	66
70	10
71	5
72	1
73	2
74	9
75	32
76	15
77	316
78	41
79	47
80	8
81	9
82	9
83	5
84	2
85	1
86	0
87	4
88	4
89	8
90	8
91	68
92	198
93	999
94	92
95	45
96	17
97	6
98	1
99	4
100	2
101	7
102	2
103	2
104	25
105	24
106	209
107	31
108	16
109	9
110	15
111	3
112	3
113	10
114	14
115	4
116	5
117	30
118	14
119	78
120	132
121	28
122	7
123	6
124	11
125	15
126	67
127	20
128	3
129	1
130	2
131	5
132	43
133	21
134	14
135	8
136	3
137	5
138	16
139	23
140	11
141	2
142	1
143	5
144	7
145	26
146	52
147	6
148	8
149	8
150	23
151	5
152	11
153	2
154	1
155	3
156	2
157	47
158	27
159	19
160	5
161	9
162	2
163	6
164	31
165	15
166	16
167	4
168	2
169	2
170	4
171	8
172	7
173	5
174	132
175	17
176	34
177	10
178	7
179	40
180	6
181	3
182	2
183	1
184	4
185	1
186	1
187	3
188	7
189	57
190	51
191	11
192	17
193	2
194	1
195	0
198	0
199	2
200	2
201	1
202	1
203	5
204	8
205	14
206	128
207	200
208	41
209	11
210	1
215	0
216	1
217	1
218	0
219	1
220	14
221	2
222	3
223	2
224	0
233	1
234	0
235	2
236	5
237	4
238	0
244	0
248	2
249	2
250	1
252	0
263	19
264	3
265	0
266	0
267	1
268	0
275	2
277	0
278	0
280	0
281	0
282	13
283	2
288	0
290	0
291	53
292	11
293	1
294	1
307	0
308	1
310	96
311	14
312	5
313	0
337	10
338	2
339	0
354	5
356	269
357	49
358	17
359	2
