Mass Spectrum: 2,2,3,3,4,4,5,5-Octafluoropentanal
Formula: C5H2F8O
CAS: 2648-47-7
Molecular weight: 230
m/z	intensity
44	242
45	69
51	999
52	11
69	278
70	3
82	178
83	11
93	40
100	181
101	303
102	19
113	274
114	19
131	577
132	30
151	107
152	11
163	56
164	9
182	285
183	19
