Mass Spectrum: 4-Pyridinamine, N-nitro-
Formula: C5H5N3O2
CAS: 26482-55-3
Molecular weight: 139
m/z	intensity
30	140
37	70
38	180
39	880
40	310
41	200
42	390
43	80
44	150
50	180
51	360
52	390
53	100
65	80
66	490
67	180
78	290
79	280
93	999
94	230
95	150
106	110
109	210
123	130
139	270
