Mass Spectrum: Acetic acid 1-acetyl-5-iodo-1H-indol-3-yl ester
Formula: C12H10INO3
CAS: 26490-98-2
Molecular weight: 343
m/z	intensity
37	0
38	1
39	2
41	0
42	41
43	999
44	70
45	2
46	0
49	0
50	38
51	25
52	7
53	5
54	0
61	1
62	4
63	7
64	2
65	0
68	0
69	0
71	0
73	3
74	48
75	72
76	66
77	63
78	6
79	0
81	0
84	0
86	0
87	1
88	1
89	1
90	0
91	0
100	0
101	0
102	4
103	22
104	17
105	8
106	0
108	0
113	0
114	1
115	1
116	0
117	0
118	0
126	0
127	3
128	0
129	0
130	2
131	42
132	126
133	18
134	1
138	0
143	0
144	0
145	0
146	1
147	0
152	0
153	0
154	0
156	0
159	3
161	0
163	0
166	0
167	2
168	0
169	2
170	0
173	0
174	58
175	6
176	0
183	0
184	0
185	2
192	0
195	0
198	0
201	1
202	23
203	11
204	0
205	0
209	0
211	1
213	0
214	0
215	0
216	1
217	0
218	0
228	0
229	5
230	7
231	5
232	0
242	1
243	0
245	0
251	0
253	0
254	0
256	0
257	1
258	41
259	374
260	39
261	1
263	0
264	0
272	0
273	0
274	0
275	0
283	0
284	0
293	0
299	0
300	7
301	379
302	55
303	4
304	0
305	0
306	0
312	0
313	0
328	0
342	4
343	224
344	38
345	5
346	0
