Mass Spectrum: (3Alpha,3aalpha,6aalpha)-2,5-diphenyl-3-(2-thienyl)-2,3,3a,6a-tetrahydropyrrolo(3,4-d)isoxazole-4,6(5H)-dione
Formula: C21H16N2O3S
CAS: 26505-54-4
Molecular weight: 376
m/z	intensity
25	1
26	32
27	10
28	8
29	1
32	3
34	1
37	6
38	16
39	64
40	9
41	18
42	3
43	1
44	5
45	31
46	1
47	1
49	2
50	24
51	114
52	30
53	12
54	86
55	9
57	3
58	12
59	2
60	1
61	3
62	7
63	39
64	129
65	54
66	17
67	2
68	1
69	19
70	25
71	8
72	7
73	2
74	8
75	8
76	14
77	345
78	58
79	5
80	11
81	2
82	15
83	11
84	27
85	4
86	5
87	2
88	2
89	9
90	24
91	999
92	81
93	45
94	51
95	19
96	33
97	20
98	4
99	2
100	4
101	6
102	9
103	63
104	79
105	8
106	1
107	16
108	14
109	29
110	54
111	92
112	10
113	6
114	2
115	18
116	12
117	55
118	8
119	70
120	17
121	32
122	58
123	7
124	4
125	1
126	6
127	4
128	24
129	83
130	23
131	7
132	3
133	1
134	4
135	5
136	9
137	41
138	16
139	9
140	5
141	3
142	7
143	4
144	22
145	34
146	9
147	5
148	4
149	3
150	113
151	12
152	8
153	8
154	8
155	1
156	2
158	4
159	4
160	8
161	2
162	1
164	1
165	3
166	4
167	9
168	4
169	1
170	3
171	5
172	13
173	453
174	176
175	109
176	17
177	6
178	3
179	2
180	1
183	1
184	4
185	8
186	283
187	211
188	69
189	40
190	5
191	2
196	3
197	1
198	3
199	9
200	18
202	134
203	285
204	43
205	15
206	2
209	7
210	19
211	45
212	41
213	9
214	3
223	1
225	1
226	23
227	9
228	48
229	9
230	4
235	1
237	2
238	23
239	11
240	7
241	3
242	1
247	4
248	1
254	1
255	2
256	9
257	4
258	1
266	2
268	2
269	3
282	1
283	4
284	3
285	1
286	1
293	1
297	2
301	1
311	1
312	1
313	2
314	1
317	3
327	4
328	2
329	3
330	2
331	1
341	1
347	2
356	15
357	9
358	68
359	18
360	22
361	5
362	1
374	5
376	520
377	128
378	47
379	8
380	1
