Mass Spectrum: L-Glutamine, N2-[(phenylmethoxy)carbonyl]-
Formula: C13H16N2O5
CAS: 2650-64-8
Molecular weight: 280
m/z	intensity
15	2
26	18
27	52
29	53
30	40
31	23
36	14
37	17
38	37
39	138
41	100
42	82
43	90
44	345
45	53
46	8
49	9
50	82
51	174
52	61
53	52
54	51
55	76
56	177
57	74
58	6
59	134
60	9
61	11
62	25
63	68
64	19
65	222
66	18
67	2
68	8
69	11
70	9
71	36
72	45
73	49
74	27
75	12
76	12
77	281
78	64
79	491
80	49
81	6
82	26
83	114
84	222
85	50
86	11
87	5
88	3
89	72
90	72
91	999
92	84
93	5
95	4
96	3
97	3
98	5
99	12
100	61
101	59
102	6
104	2
105	20
106	11
107	316
108	554
109	46
110	9
111	7
112	3
113	33
114	5
117	3
118	4
126	4
127	9
128	43
129	15
130	42
131	5
132	7
134	3
143	2
144	2
145	18
146	8
147	2
151	3
155	7
157	1
173	44
174	17
175	1
235	3
262	16
263	6
