Mass Spectrum: (3Alpha,3aalpha,6aalpha)-2,3,5-triphenyl-2,3,3a,6a-tetrahydropyrrolo(3,4-d)isoxazole-4,6(5H)-dione
Formula: C23H18N2O3
CAS: 26505-53-3
Molecular weight: 370
m/z	intensity
26	14
27	7
28	9
29	1
37	2
38	8
39	23
40	6
41	10
42	2
44	1
50	13
51	73
52	14
53	6
54	40
55	4
58	3
61	1
62	5
63	23
64	73
65	31
66	15
67	1
68	1
69	3
70	1
71	1
72	2
74	4
75	6
76	13
77	290
78	47
79	4
80	5
82	6
83	2
86	2
87	1
88	1
89	20
90	20
91	999
92	78
93	31
94	49
95	3
101	2
102	9
103	60
104	106
105	154
106	13
107	9
108	1
114	1
115	44
116	41
117	32
118	8
119	56
120	15
121	1
126	1
127	2
128	10
129	41
130	13
131	53
132	10
133	2
139	1
140	1
141	3
142	2
143	4
144	71
145	25
146	21
147	2
151	5
152	12
153	5
154	3
158	1
159	2
160	1
165	7
166	3
167	12
168	62
169	39
170	5
172	6
173	219
174	26
175	2
176	1
177	2
178	6
179	8
180	241
181	174
182	74
183	9
185	3
189	13
190	2
191	2
192	2
193	12
194	26
195	9
196	156
197	98
198	12
199	1
203	1
204	9
205	8
206	34
207	6
219	1
220	16
221	6
222	72
223	13
224	1
232	7
233	5
234	4
235	1
247	1
248	1
249	1
250	9
251	4
252	1
262	2
263	2
277	2
278	1
279	1
293	13
294	3
295	1
311	1
321	1
323	2
341	3
342	1
350	3
351	2
352	17
353	7
354	10
355	3
368	4
370	788
371	204
372	36
373	5
