Mass Spectrum: Methyl N'-tosylcarbamimidothioate
Formula: C9H12N2O2S2
CAS: 2651-16-3
Molecular weight: 244
m/z	intensity
14	1
15	3
26	1
27	7
28	11
29	1
30	2
32	2
34	1
37	1
38	6
39	65
40	5
41	24
42	16
43	104
44	7
45	36
46	12
47	57
48	21
49	4
50	18
51	33
52	13
53	5
55	2
57	2
58	1
59	1
60	5
61	3
62	13
63	46
64	15
65	217
66	13
67	4
69	3
70	1
71	1
73	2
74	12
75	5
76	5
77	22
78	47
79	9
80	2
81	1
82	2
83	1
85	1
86	2
87	3
88	4
89	79
90	33
91	999
92	108
93	6
94	1
95	5
97	1
104	2
105	7
106	5
107	9
108	4
109	1
111	2
118	1
120	2
121	5
122	3
123	10
124	8
125	1
131	2
132	2
133	9
134	1
137	10
138	10
139	23
140	5
141	1
147	9
148	1
149	4
155	868
156	84
157	46
158	4
163	1
164	1
165	2
170	1
171	1
179	4
180	53
181	6
182	2
197	138
198	16
199	8
202	25
203	2
204	2
228	2
242	1
244	464
245	57
246	45
247	5
248	1
