Mass Spectrum: Cyclohexanol, 5-methyl-2-(1-methylethyl)-, sulfite (2:1), [1R-[1.alpha.(1R*,2S*,5R*),2.beta.,5.alpha.]]-
Formula: C20H38O3S
CAS: 26510-92-9
Molecular weight: 358
m/z	intensity
26	20
27	83
28	11
29	103
30	2
31	8
33	1
34	2
37	2
38	2
39	63
40	13
41	314
42	34
43	259
44	11
45	4
46	0
47	1
48	23
49	1
50	8
51	8
52	4
53	45
54	41
55	374
56	51
57	304
58	13
59	6
62	1
63	3
64	34
65	12
66	5
67	110
68	45
69	344
70	36
71	110
72	6
73	3
74	1
75	0
76	1
77	16
78	5
79	28
80	24
81	285
82	82
83	999
84	71
85	13
86	4
90	0
91	9
92	2
93	12
94	17
95	212
96	61
97	161
98	15
99	6
100	0
104	0
105	2
106	0
107	4
108	1
109	19
110	11
111	9
112	7
113	3
114	1
118	0
119	1
121	2
122	1
123	62
124	6
125	1
127	0
136	1
137	21
138	185
139	666
140	74
141	9
142	0
154	1
155	4
156	10
157	1
164	0
165	1
166	1
167	0
177	0
178	0
194	2
195	0
205	1
219	0
279	1
294	0
358	0
