Mass Spectrum: S,S'-Dimethyl N-(p-tolylsulfonyl)dithiocarbonimidate
Formula: C10H13NO2S3
CAS: 2651-15-2
Molecular weight: 275
m/z	intensity
15	6
27	5
28	2
32	1
38	4
39	57
40	5
41	21
42	2
44	5
45	36
46	16
47	52
48	5
49	2
50	11
51	24
52	7
53	3
58	1
59	3
61	3
62	9
63	39
64	12
65	212
66	11
67	3
69	2
70	1
71	1
72	5
73	8
74	43
75	5
76	4
77	10
78	5
79	5
85	1
86	1
87	2
88	1
89	45
90	26
91	999
92	90
93	4
94	2
95	3
97	1
104	1
105	5
106	1
107	2
108	2
111	2
116	2
117	2
118	1
120	7
121	5
122	3
123	6
124	2
136	1
137	4
138	50
139	20
140	4
141	1
148	8
149	19
150	2
151	1
155	969
156	84
157	51
158	4
164	1
202	210
203	20
204	19
205	2
211	1
228	311
229	39
230	30
231	3
232	1
275	43
276	6
277	6
