Mass Spectrum: 3,5-Pyrazolidinedione, 4,4'-(phenylmethylene)bis[1,2-diphenyl-
Formula: C37H28N4O4
CAS: 2652-72-4
Molecular weight: 592
m/z	intensity
51	160
64	80
77	999
84	90
91	100
102	210
105	330
130	290
183	240
184	80
252	180
271	160
272	50
340	600
592	5
