Mass Spectrum: 9,19-Cyclo-9.beta.-lanostane-3.beta.,25-diol
Formula: C30H52O2
CAS: 26525-84-8
Molecular weight: 444
m/z	intensity
41	440
42	30
43	390
44	10
45	50
50	10
53	80
54	20
55	750
56	60
57	150
58	20
59	510
60	20
65	30
66	10
67	320
68	50
69	860
70	60
71	130
72	20
73	10
75	20
77	90
78	20
79	300
80	60
81	680
82	130
83	230
84	20
85	40
91	270
92	80
93	480
94	190
95	999
96	130
97	140
98	20
99	30
100	10
103	10
104	20
105	350
106	120
107	600
108	150
109	700
110	100
111	130
112	10
113	20
114	10
115	10
116	10
117	80
118	50
119	380
120	170
121	520
122	200
123	330
124	40
125	30
127	20
128	10
129	40
130	20
131	130
132	80
133	350
134	280
135	450
136	130
137	160
138	30
139	10
141	10
142	10
143	50
144	20
145	180
146	70
147	330
148	190
149	320
150	80
151	50
152	20
153	10
155	10
156	10
157	40
158	20
159	200
160	60
161	270
162	100
163	250
164	50
165	40
170	10
171	40
172	30
173	210
174	70
175	490
176	100
177	160
178	40
179	30
184	20
185	40
186	20
187	170
188	70
189	150
190	40
191	60
192	10
193	30
198	10
199	30
200	10
201	130
202	70
203	280
204	110
205	130
206	50
207	20
213	20
214	10
215	90
216	30
217	60
218	60
219	60
220	30
221	20
223	10
227	60
228	20
229	60
230	30
231	60
232	30
233	20
241	30
243	50
244	10
245	40
247	30
253	10
255	40
257	40
259	70
260	20
261	10
262	40
263	10
269	20
270	20
271	150
272	40
273	40
274	30
275	20
276	10
281	20
283	20
285	10
286	90
287	30
288	20
289	10
295	10
297	140
298	30
299	20
304	240
305	50
313	30
314	10
315	130
316	30
323	10
325	10
326	10
327	10
337	10
339	70
340	20
341	10
342	10
343	10
344	10
355	10
357	50
358	10
365	30
370	10
383	90
384	30
393	170
394	60
395	10
408	50
409	20
411	370
412	120
413	30
426	250
427	80
428	20
429	60
430	30
444	70
445	20
