Mass Spectrum: Benzo[b]selenophene-2-carboxylic acid, 3-bromo-
Formula: C9H5BrO2Se
CAS: 26526-47-6
Molecular weight: 304
m/z	intensity
39	120
42	55
44	129
45	392
48	29
49	71
50	279
51	228
58	16
60	81
61	289
62	227
63	248
64	32
65	34
66	27
67	49
68	18
69	35
70	38
71	17
72	14
73	118
74	451
75	195
76	65
77	205
78	51
79	45
80	116
81	58
82	91
83	46
84	80
85	86
86	62
87	142
88	161
89	999
90	376
93	67
94	14
95	17
96	12
97	70
98	177
99	144
100	84
101	80
102	45
103	40
104	44
105	71
106	35
107	13
108	5
109	6
110	7
111	33
112	38
113	45
114	37
115	96
116	30
117	195
118	24
119	43
120	13
121	8
122	1
123	4
124	7
125	20
126	35
127	74
128	107
129	114
130	153
131	65
132	25
133	6
134	1
135	5
137	84
138	77
139	118
140	29
141	184
142	33
143	66
145	23
147	1
148	3
149	12
150	22
151	50
152	66
153	75
154	66
155	30
156	16
157	29
159	7
160	0
161	4
162	3
163	7
164	14
165	45
166	51
167	77
168	69
169	118
170	20
171	30
172	2
173	2
174	11
175	10
176	75
177	106
178	217
179	106
180	377
181	175
182	81
183	40
184	4
185	5
187	0
203	0
205	7
206	7
207	16
208	6
209	31
211	4
219	0
221	2
222	6
223	9
224	17
225	10
226	28
227	4
228	5
245	1
247	2
249	1
253	0
255	14
256	15
257	46
258	24
259	90
260	31
261	72
262	19
263	10
264	3
281	2
283	32
284	29
285	111
286	36
287	234
288	26
289	167
290	15
291	26
292	1
298	4
300	56
301	47
302	151
303	54
304	326
305	38
306	265
307	22
308	40
309	3
