Mass Spectrum: 3,5-Pyrazolidinedione, 4-(2-furanylmethylene)-1,2-diphenyl-
Formula: C20H14N2O3
CAS: 2652-80-4
Molecular weight: 330
m/z	intensity
39	60
51	180
63	130
64	160
77	999
92	140
105	360
120	810
121	100
182	60
183	60
261	40
262	40
330	820
