Mass Spectrum: 8-Octadecenoic acid, methyl ester, (E)-
Formula: C19H36O2
CAS: 26528-50-7
Molecular weight: 296
m/z	intensity
14	2
15	41
16	9
17	70
18	328
19	1
20	1
24	1
25	2
26	7
27	73
28	25
29	237
30	7
31	14
32	5
33	3
37	3
38	2
39	58
40	15
41	631
42	115
43	683
44	52
45	32
46	5
48	4
50	3
51	4
52	3
53	52
54	255
55	999
56	233
57	441
58	29
59	178
60	7
61	4
62	6
63	2
64	6
65	13
66	18
67	385
68	264
69	710
70	182
71	188
72	19
73	56
74	71
75	113
76	8
77	14
78	11
79	74
80	60
81	332
82	229
83	526
84	476
85	149
86	12
87	485
88	49
89	5
90	1
91	37
92	12
93	56
94	62
95	267
96	451
97	494
98	405
99	70
100	16
101	90
102	12
103	3
104	4
105	28
106	13
107	47
108	45
109	200
110	240
111	235
112	100
113	53
114	61
115	105
116	18
117	6
118	4
119	12
120	18
121	45
122	25
123	176
124	120
125	126
126	34
127	50
128	73
129	68
130	23
131	7
132	3
133	45
134	36
135	41
136	17
137	112
138	97
139	78
140	19
141	24
142	64
143	64
144	11
145	5
146	3
147	24
148	24
149	41
150	17
151	78
152	86
153	49
154	13
155	29
156	9
157	26
158	6
159	4
160	1
161	17
162	8
163	16
164	15
165	47
166	71
167	34
168	10
169	42
170	9
171	22
172	5
173	4
174	2
175	13
176	7
177	9
178	9
179	29
180	156
181	42
182	10
183	26
184	7
185	20
186	6
187	4
188	2
189	9
190	4
191	6
192	5
193	22
194	30
195	12
196	6
197	11
198	2
199	19
200	6
201	2
202	3
204	2
205	5
206	4
207	22
208	19
209	11
210	7
211	7
212	3
213	18
214	10
215	3
216	2
217	4
218	3
219	2
220	63
221	46
222	209
223	50
224	9
225	6
226	3
227	9
228	7
229	2
230	1
231	2
232	1
233	2
234	2
235	27
236	29
237	7
238	3
239	7
240	3
241	5
242	3
243	2
244	1
245	4
246	34
247	15
248	3
249	6
250	4
251	2
252	3
253	16
254	5
255	8
256	3
257	2
258	1
259	1
260	2
261	2
262	3
263	8
264	582
265	300
266	53
267	15
268	4
269	2
270	7
271	2
272	1
273	1
274	1
275	2
276	1
277	1
278	1
279	8
280	4
281	2
282	3
283	3
284	1
285	2
286	1
287	1
288	1
289	1
290	1
291	1
292	1
293	1
294	8
295	8
296	150
297	42
298	26
299	6
300	2
