Mass Spectrum: 3,3-Dimethyl-7-oxo-4-thia-2,6-diaza-bicyclo[3.2.0]heptane-2-carboxylic acid, t-butyl ester
Formula: C11H18N2O3S
CAS: 26532-35-4
Molecular weight: 258
m/z	intensity
26	3
27	31
28	38
29	109
30	14
31	2
33	1
34	1
35	0
36	0
37	2
38	3
39	65
40	14
41	314
42	48
43	15
44	19
45	34
46	4
47	7
48	0
49	1
50	3
51	4
52	2
53	7
54	6
55	22
56	44
57	999
58	75
59	43
60	3
61	2
62	2
63	0
64	0
65	4
66	1
67	1
68	4
69	14
70	8
71	2
72	1
73	13
74	18
75	34
76	4
77	3
78	0
79	0
80	2
81	3
82	4
83	19
84	5
85	2
86	0
87	4
88	1
89	0
90	0
91	0
92	0
93	2
94	1
95	0
96	0
97	4
98	2
99	5
100	142
101	13
102	18
103	2
104	2
105	2
106	0
107	0
108	0
109	1
110	1
111	2
112	1
113	4
114	32
115	63
117	2
118	1
119	1
120	1
121	2
122	1
124	1
125	1
126	9
127	0
128	0
129	2
130	0
132	0
133	0
134	0
135	2
136	0
137	0
138	0
139	0
140	0
141	1
142	3
143	19
144	105
145	8
146	4
155	0
156	1
157	1
158	3
159	464
160	39
161	26
162	1
163	0
164	0
165	0
166	0
168	0
169	0
170	0
171	0
172	0
173	1
174	0
175	0
176	0
177	0
178	0
179	0
180	1
181	0
182	0
183	0
184	0
185	50
186	5
187	2
188	0
189	0
190	0
191	0
192	0
193	0
194	0
195	0
196	0
197	0
198	0
199	2
200	0
201	0
202	0
203	4
204	0
210	2
211	0
212	0
213	0
214	0
215	111
216	13
217	6
218	0
219	0
222	3
243	1
259	1
260	0
