Mass Spectrum: 1,3,2-Oxazaborolidine, 2,4-dimethyl-5-phenyl-
Formula: C10H14BNO
CAS: 26535-23-9
Molecular weight: 175
m/z	intensity
38	20
39	120
40	40
41	70
42	130
43	50
44	150
50	40
51	120
52	80
53	30
54	70
56	20
62	20
63	100
64	50
65	70
66	20
67	50
68	130
69	20
70	40
77	100
78	30
79	110
80	20
84	20
88	20
89	260
90	910
91	999
92	110
96	30
97	70
103	30
104	20
105	50
114	20
115	30
116	100
117	270
118	20
130	20
131	20
132	100
159	230
160	820
161	170
173	30
174	200
175	330
176	40
