Mass Spectrum: Ether, 1-dodecenyl methyl
Formula: C13H26O
CAS: 26537-04-2
Molecular weight: 198
m/z	intensity
27	66
28	19
29	86
31	5
39	50
40	10
41	280
42	31
43	90
44	6
45	42
53	25
54	35
55	82
56	30
57	35
58	81
59	16
66	16
67	74
68	87
69	40
70	12
71	999
72	55
79	7
80	7
81	58
82	180
83	40
84	18
85	68
86	6
94	5
95	62
96	80
97	23
98	10
99	6
109	34
110	33
111	7
112	1
113	16
123	16
124	14
127	17
137	8
138	17
141	6
155	6
166	24
167	4
198	45
199	7
