Mass Spectrum: Sydnone, 3-(carboxymethyl)-
Formula: C4H4N2O4
CAS: 26537-53-1
Molecular weight: 144
m/z	intensity
41	250
42	110
43	10
44	999
45	180
46	10
58	490
59	470
60	20
69	60
86	430
87	20
100	220
101	10
114	300
115	10
144	830
145	40
