Mass Spectrum: Sydnone, 3-(p-chlorophenethyl)-
Formula: C10H9ClN2O2
CAS: 26537-55-3
Molecular weight: 224
m/z	intensity
53	290
54	20
66	100
75	160
76	10
77	600
78	110
101	110
102	120
103	999
104	240
105	20
125	160
126	10
127	50
139	990
140	160
141	560
142	50
166	90
168	30
194	20
196	20
224	290
225	30
226	110
227	10
