Mass Spectrum: .beta.-d-Erythro-hexopyranoside, methyl 2,3-dideoxy-4,6-O-(phenylmethylene)-
Formula: C14H18O4
CAS: 26532-08-1
Molecular weight: 250
m/z	intensity
59	69
69	280
77	70
79	22
83	16
91	80
96	2
101	999
105	110
106	34
107	21
114	19
127	8
144	11
149	22
173	2
190	1
207	58
218	6
219	2
249	20
250	37
251	5
