Mass Spectrum: Sydnone, 3-(3,3-dimethylbutyl)-
Formula: C8H14N2O2
CAS: 26537-49-5
Molecular weight: 170
m/z	intensity
55	180
56	100
57	999
58	50
69	320
70	80
85	320
86	20
112	130
113	10
127	50
155	50
170	350
171	20
