Mass Spectrum: Cyclopropane-1,1,2,2-tetracarbonitrile, 3-acetyl-
Formula: C9H4N4O
CAS: 26530-56-3
Molecular weight: 184
m/z	intensity
36	4
37	18
38	45
39	10
40	8
43	999
45	0
48	3
50	28
51	67
52	12
53	6
55	7
56	1
60	3
62	75
63	41
64	103
65	78
66	7
67	1
68	0
70	0
73	0
74	10
76	140
77	199
78	17
79	2
80	1
81	1
86	2
88	79
89	26
90	28
91	4
92	3
93	0
100	7
101	7
102	8
103	3
105	100
106	3
107	0
109	0
110	0
112	0
114	17
115	9
116	1
117	1
119	0
120	2
121	0
123	1
126	0
128	7
129	0
130	0
132	0
139	1
141	160
142	11
143	1
144	0
145	0
147	0
156	0
157	0
160	1
162	0
169	30
170	2
184	1
186	0
188	0
