Mass Spectrum: 2-Naphtol, 1-[(4-phenylazo)phenyliminomethyl]-
Formula: C23H17N3O
CAS: 2653-78-3
Molecular weight: 351
m/z	intensity
33	1
34	1
36	2
37	7
38	26
39	102
40	34
41	19
42	3
43	12
44	14
45	4
50	170
51	455
52	44
53	11
54	4
55	15
56	3
57	8
58	1
59	0
60	1
61	3
62	22
63	101
64	53
65	64
66	7
67	2
68	1
69	4
70	4
71	3
72	1
73	5
74	28
75	89
76	210
77	999
78	120
79	94
80	6
81	3
82	8
83	6
84	2
85	2
86	5
87	15
88	25
89	41
90	16
91	12
92	11
93	5
94	20
96	19
97	2
98	4
99	5
100	11
101	43
102	40
103	29
104	13
105	101
106	8
107	5
108	16
109	21
110	6
111	2
112	2
113	34
114	92
115	181
116	25
117	2
118	5
119	1
120	2
122	22
123	26
125	13
126	58
127	166
128	68
129	8
130	1
131	0
132	0
135	0
137	2
138	4
139	26
140	41
141	47
142	11
143	15
144	11
145	2
146	0
149	5
150	6
151	22
152	61
153	19
154	9
155	4
156	0
157	0
161	1
162	1
163	11
164	12
165	30
166	9
167	18
168	10
169	70
170	24
171	4
172	1
174	1
175	29
177	21
178	12
179	4
180	4
181	3
182	23
183	4
184	0
186	0
187	5
188	9
189	76
190	49
191	53
192	10
193	2
194	2
195	0
196	0
197	1
198	0
199	1
200	11
201	35
202	28
203	22
204	24
205	13
206	7
207	3
208	1
212	0
213	0
214	7
215	19
216	48
217	99
218	61
219	21
220	11
221	1
223	0
225	0
226	4
227	12
228	51
229	251
230	53
231	10
232	1
233	0
241	0
242	0
243	5
244	60
245	137
246	508
247	99
248	10
249	0
252	0
257	0
258	0
259	3
260	0
261	0
274	3
275	0
294	0
322	1
323	0
334	2
335	0
350	16
351	143
352	39
353	4
354	0
