Mass Spectrum: Sydnone, 3-neopentyl-
Formula: C7H12N2O2
CAS: 26537-48-4
Molecular weight: 156
m/z	intensity
53	70
55	590
56	370
57	740
58	50
68	80
69	50
70	60
71	999
72	70
82	70
83	60
98	150
99	10
100	150
101	10
156	660
157	50
