Mass Spectrum: 1,5-Anhydro-4,6-O-benzylidene-2,3-dideoxy-d-erythro-hex-1-enitol
Formula: C13H14O3
CAS: 26532-06-9
Molecular weight: 218
m/z	intensity
69	72
77	270
79	80
82	95
83	999
91	78
95	72
105	650
106	110
107	150
112	370
141	15
149	21
175	1
217	90
218	600
219	80
