Mass Spectrum: Sydnone, 3-isopentyl-
Formula: C7H12N2O2
CAS: 26537-51-9
Molecular weight: 156
m/z	intensity
39	210
40	10
41	440
42	20
43	999
44	80
55	320
56	50
69	90
70	200
71	930
72	90
156	280
157	20
