Mass Spectrum: 10-Octadecynoic acid, methyl ester
Formula: C19H34O2
CAS: 26543-36-2
Molecular weight: 294
m/z	intensity
39	149
40	40
41	724
42	102
43	520
44	27
45	37
50	7
51	24
52	57
53	166
54	622
55	867
56	102
57	112
58	10
59	200
60	11
61	7
63	9
64	7
65	71
66	85
67	959
68	673
69	377
70	40
71	51
72	8
73	44
74	210
75	27
76	6
77	112
78	40
79	302
80	176
81	999
82	581
83	289
84	54
85	57
86	8
87	119
88	16
89	7
91	102
92	25
93	190
94	170
95	744
96	530
97	210
98	40
99	22
100	9
101	33
102	5
103	6
104	6
105	37
106	22
107	125
108	132
109	401
110	326
111	88
112	14
113	17
114	8
115	37
116	6
117	11
118	6
119	35
120	16
121	146
122	74
123	200
124	112
125	91
126	15
127	18
128	7
129	17
130	4
131	23
132	8
133	29
134	21
135	129
136	142
137	85
138	343
139	54
140	19
141	18
143	17
145	20
146	5
147	14
148	13
149	102
150	166
151	51
152	81
153	18
154	17
155	10
157	25
159	11
161	10
163	57
164	44
165	27
166	11
167	13
168	12
173	5
177	21
178	88
179	25
180	7
181	14
182	7
192	105
193	18
195	11
209	6
210	32
211	5
219	6
220	9
223	81
224	12
245	11
263	64
264	12
294	4
