Mass Spectrum: 3-Pyrazolidinone, 4-methyl-1-phenyl-
Formula: C10H12N2O
CAS: 2654-57-1
Molecular weight: 176
m/z	intensity
33	0
34	2
35	2
36	5
37	10
38	30
39	155
40	50
41	193
42	82
43	87
44	37
45	13
46	2
47	5
48	2
50	93
51	314
52	62
53	15
54	14
55	43
56	17
57	30
58	5
59	6
60	11
61	4
62	10
63	38
64	44
65	70
66	17
67	15
69	255
70	23
71	32
72	7
73	13
74	15
75	17
77	999
78	124
79	29
80	8
81	10
82	8
83	20
84	9
85	13
86	3
87	5
88	3
89	5
90	12
91	125
92	197
93	54
94	8
95	8
96	7
97	11
98	9
99	6
101	2
102	5
103	11
104	89
105	395
106	245
107	177
108	18
109	5
110	4
111	6
112	3
113	4
115	6
116	7
117	17
118	20
119	174
120	63
121	12
122	3
123	3
125	5
126	3
127	3
128	3
129	7
130	22
131	9
132	11
133	13
134	5
135	1
136	2
137	2
138	1
139	2
141	1
143	3
144	2
145	8
146	3
147	8
148	3
149	2
150	0
151	2
152	2
154	1
156	1
157	1
158	4
159	3
160	5
161	37
162	5
165	2
166	1
167	0
168	0
169	1
171	2
172	1
173	17
174	39
175	62
176	759
177	82
178	8
