Mass Spectrum: Butanediamide, 2,3-dihydroxy-N,N,N',N'-tetramethyl-, [R-(R*,R*)]-
Formula: C8H16N2O4
CAS: 26549-65-5
Molecular weight: 204
m/z	intensity
27	8
28	9
29	11
30	18
39	1
40	2
41	4
42	44
43	18
44	124
45	106
46	232
47	6
55	2
56	17
57	10
58	19
59	3
60	25
69	3
70	3
71	12
72	999
73	44
74	30
75	2
85	4
86	10
87	3
88	13
89	2
90	3
98	25
99	2
100	1
101	5
102	38
103	220
104	11
105	1
113	1
114	93
115	12
116	14
126	3
127	4
130	1
131	3
132	453
133	27
134	3
142	6
143	2
158	4
159	1
160	19
161	1
168	1
176	6
186	9
187	2
204	4
205	4
