Mass Spectrum: Acetic acid, [(2-methyl-5-nitro-1H-imidazol-4-yl)thio]-
Formula: C6H7N3O4S
CAS: 2654-21-9
Molecular weight: 217
m/z	intensity
33	12
36	1
39	17
40	33
41	105
42	999
43	206
44	211
45	87
46	66
47	32
48	11
51	22
52	68
54	56
55	24
56	6
57	37
58	118
59	133
60	32
61	3
65	1
66	15
67	173
69	53
70	91
71	87
72	48
73	18
74	54
75	10
77	9
79	10
80	7
81	1
83	89
85	49
86	45
87	6
88	7
89	3
90	4
91	1
93	3
94	17
95	10
97	2
100	12
101	10
102	46
107	8
108	2
109	5
110	13
111	32
112	8
113	5
114	2
115	4
123	0
124	6
126	64
127	6
128	15
129	22
140	9
141	4
142	33
143	42
144	20
151	10
153	1
169	15
170	98
171	11
198	2
199	22
200	1
216	47
217	7
218	1
