Mass Spectrum: Carboethoxy phenylcarbamoyl disulfide
Formula: C10H11NO3S2
CAS: 26555-43-1
Molecular weight: 257
m/z	intensity
41	16
42	4
43	2
44	2
45	2
46	0
47	0
49	4
50	19
51	84
52	23
53	4
54	9
60	1
61	3
62	8
63	36
64	56
65	127
66	102
67	10
69	0
74	3
75	3
77	120
78	10
79	2
80	1
84	3
86	1
88	1
90	1
91	32
92	55
93	999
94	57
95	0
96	8
97	1
98	0
104	0
105	0
106	22
107	0
108	0
115	1
118	0
119	28
120	12
121	0
124	1
128	10
130	2
132	0
134	0
135	3
137	1
139	0
141	0
160	10
162	2
165	12
166	1
167	3
168	1
169	0
170	0
182	1
183	0
185	0
192	4
194	2
195	0
210	0
211	5
212	167
213	13
214	0
256	0
257	9
258	3
260	0
