Mass Spectrum: Arabino-Hex-1-enitol, 1,5-anhydro-2-deoxy-
Formula: C6H10O4
CAS: 26566-29-0
Molecular weight: 146
m/z	intensity
39	116
40	21
41	158
42	75
43	280
44	76
45	154
46	14
47	42
51	16
53	47
54	9
55	320
56	344
57	191
58	37
59	6
60	40
61	19
69	221
70	20
71	152
72	18
73	999
74	257
75	23
81	35
83	22
85	39
86	74
87	8
97	83
98	12
99	12
146	119
147	16
