Mass Spectrum: Hydrazine, heptyl-
Formula: C7H18N2
CAS: 2656-72-6
Molecular weight: 130
m/z	intensity
26	6
27	87
28	67
29	107
30	93
31	57
32	100
39	35
40	7
41	127
42	32
43	93
44	38
45	999
46	53
53	8
54	7
55	42
56	21
57	37
58	13
59	7
69	8
70	12
71	8
73	9
83	6
85	3
87	4
101	4
114	3
115	2
129	5
130	150
131	22
