Mass Spectrum: 1,3-Adamantanediamine
Formula: C10H18N2
CAS: 26562-81-2
Molecular weight: 166
m/z	intensity
41	7
42	261
43	43
44	15
45	13
46	4
48	4
51	15
52	11
53	27
54	31
55	34
56	28
57	76
58	19
59	5
60	3
63	4
64	4
65	27
66	16
67	34
68	29
69	15
70	14
71	3
73	4
77	50
78	15
79	23
80	32
81	38
82	49
83	30
84	41
85	3
89	4
91	50
92	41
93	77
94	236
95	38
96	22
97	32
98	5
105	5
106	54
107	79
108	165
109	999
110	210
111	14
115	4
120	5
121	7
122	13
123	52
124	19
125	9
132	3
134	29
135	4
137	4
148	19
149	77
150	32
151	61
152	7
165	14
166	256
167	33
