Mass Spectrum: DL-Glucitol
Formula: C6H14O6
CAS: 26566-34-7
Molecular weight: 182
m/z	intensity
25	0
26	10
27	85
28	136
29	121
30	14
31	265
32	8
33	1
36	5
37	0
38	1
39	20
40	15
41	56
42	68
43	421
44	261
45	278
46	14
47	16
49	6
50	0
51	2
52	0
53	4
54	5
55	88
56	278
57	205
58	13
59	15
60	145
61	792
62	29
63	4
65	0
66	0
67	2
68	2
69	34
70	3
71	60
72	13
73	999
74	495
75	38
76	3
77	5
78	0
79	2
81	3
82	0
83	2
84	1
85	105
86	23
87	14
88	0
89	10
90	2
91	71
92	4
93	0
95	0
97	21
98	3
99	5
100	0
101	1
102	7
103	493
104	58
105	5
107	0
111	1
115	48
116	12
117	2
118	3
121	10
122	0
127	1
128	2
129	3
133	151
134	9
135	1
141	0
145	0
146	22
147	3
148	0
151	1
163	0
165	1
166	0
181	0
183	5
