Mass Spectrum: 9,12,15-Octadecatrienal, dimethyl acetal
Formula: C20H36O2
CAS: 26574-38-9
Molecular weight: 308
m/z	intensity
27	8
29	10
33	12
39	23
41	39
43	17
45	7
51	10
52	5
53	19
54	5
55	26
56	10
57	18
58	4
59	17
65	35
66	22
67	90
68	27
69	35
70	16
71	74
72	21
73	12
77	65
78	90
79	240
80	220
81	200
82	80
83	52
84	100
85	27
86	54
87	17
89	7
91	260
92	150
93	200
94	450
95	230
96	58
97	110
98	54
99	21
100	26
101	7
102	5
103	18
104	51
105	250
106	150
107	280
108	999
109	290
110	61
111	47
112	120
113	25
114	16
115	40
116	14
117	210
118	110
119	370
120	210
121	310
122	270
123	90
124	39
125	41
126	100
127	19
128	15
129	27
130	11
131	360
132	110
133	480
134	360
135	240
136	350
137	140
138	45
139	24
140	27
141	13
142	5
143	14
144	7
145	150
146	80
147	390
148	320
149	160
150	61
151	41
152	37
153	25
154	13
155	8
157	12
158	6
159	110
160	55
161	250
162	210
163	80
164	32
165	35
166	27
167	18
168	60
169	90
171	10
172	6
174	240
176	110
177	35
178	20
179	25
180	21
181	15
183	6
185	9
186	5
187	110
188	41
189	110
190	29
191	18
192	14
193	11
194	17
195	8
196	4
197	5
199	8
201	77
202	24
203	40
204	9
205	19
206	8
207	44
208	22
209	6
211	5
212	5
213	8
214	5
215	63
216	21
217	12
218	9
219	26
220	26
221	13
222	7
223	5
229	12
230	5
231	19
232	14
233	31
234	11
235	6
242	5
243	6
244	35
245	12
246	7
247	56
248	15
250	17
260	8
261	13
262	7
274	29
275	10
276	340
277	73
278	10
280	14
282	6
