Mass Spectrum: Sydnone, 3-(2-carboxyethyl)-
Formula: C5H6N2O4
CAS: 26574-32-3
Molecular weight: 158
m/z	intensity
41	220
42	110
43	450
44	600
45	840
46	30
55	530
56	20
58	110
72	240
73	999
74	60
100	450
101	10
128	50
158	420
159	10
