Mass Spectrum: Propionic acid, 3-[[2-(carboxyamino)ethyl]dithio]-, N-benzyl methyl ester
Formula: C14H19NO4S2
CAS: 26599-16-6
Molecular weight: 329
m/z	intensity
42	999
55	206
58	303
59	303
65	242
74	103
77	169
79	133
91	412
92	290
105	30
106	42
107	12
108	78
109	72
118	72
119	175
120	72
121	36
122	12
123	42
124	42
125	12
148	36
149	42
178	193
179	24
209	24
210	24
211	12
222	18
238	12
297	24
329	121
330	18
331	12
