Mass Spectrum: Acetic acid, 1-methylcyclopentyl ester
Formula: C8H14O2
CAS: 26600-59-9
Molecular weight: 142
m/z	intensity
43	999
44	19
45	25
50	5
51	10
52	6
53	33
54	30
55	167
56	12
57	32
58	356
59	29
60	23
61	6
65	13
66	8
67	483
68	28
69	12
71	421
72	104
73	5
77	10
79	25
80	6
81	91
82	409
83	198
84	487
85	340
86	19
99	21
100	81
101	6
109	12
114	9
124	34
129	3
