Mass Spectrum: N-Carbobenzyloxy-d-alanine
Formula: C11H13NO4
CAS: 26607-51-2
Molecular weight: 223
m/z	intensity
42	111
43	101
44	240
45	120
51	25
61	70
63	50
65	104
72	15
74	16
77	55
79	86
84	25
88	107
89	48
90	36
91	999
92	90
107	159
108	650
109	62
134	56
223	83
