Mass Spectrum: 4-Bromopregnane-3,20-dione
Formula: C21H31BrO2
CAS: 26614-36-8
Molecular weight: 394
m/z	intensity
41	211
43	999
44	6
45	27
47	10
48	5
49	7
51	3
52	1
53	106
54	13
55	286
57	26
58	4
59	3
65	34
66	15
67	188
68	78
69	100
71	223
77	97
78	23
79	236
80	60
81	232
82	18
83	12
84	365
85	148
86	8
87	1
88	7
91	150
92	22
93	148
94	46
95	212
96	6
97	47
98	10
99	10
102	1
103	10
104	2
105	130
106	27
107	164
108	30
109	92
110	9
111	31
113	9
115	17
116	6
117	35
118	2
119	91
120	24
121	145
122	31
123	81
124	19
125	10
127	1
128	7
129	14
130	5
131	51
132	16
133	85
134	23
135	81
136	12
137	20
138	3
139	2
141	7
142	5
143	22
144	4
145	62
146	4
147	75
148	14
149	47
150	6
151	8
155	5
157	34
158	5
159	49
160	7
161	60
162	10
163	28
164	2
165	3
169	12
170	4
171	33
172	8
173	69
174	10
175	65
176	11
177	12
183	10
184	4
185	23
186	4
187	56
188	3
189	34
190	3
191	9
193	1
197	15
198	6
199	17
200	3
201	22
202	4
203	37
204	5
205	7
209	2
211	15
212	3
213	21
214	2
215	29
216	4
217	21
218	3
223	8
225	9
226	1
227	89
228	18
229	18
230	4
231	17
232	1
237	4
239	39
240	8
241	22
242	3
243	11
244	19
245	175
246	39
247	5
249	6
251	2
253	21
254	6
255	11
256	3
257	47
258	11
259	4
267	8
269	8
270	9
271	28
272	6
273	2
279	36
280	7
281	6
283	2
295	8
296	2
297	292
298	55
299	9
309	10
310	4
311	14
312	4
313	8
314	20
315	326
316	67
317	9
321	5
323	6
324	20
325	3
326	16
327	1
333	10
334	1
335	8
336	10
337	1
338	9
339	3
347	8
348	5
349	13
350	18
351	13
352	11
353	6
361	3
363	5
376	45
377	11
378	44
379	13
381	5
394	25
395	11
396	26
397	6
