Mass Spectrum: 2(3H)-Furanone, dihydro-3-methylene-5-phenyl-
Formula: C11H10O2
CAS: 26613-71-8
Molecular weight: 174
m/z	intensity
25	0
26	3
27	12
28	1
29	4
37	2
38	7
39	58
40	339
41	25
42	0
43	0
44	0
45	0
49	1
50	21
51	61
52	12
53	2
54	0
55	0
57	0
58	3
59	0
60	0
61	1
62	4
63	15
64	6
65	12
66	0
67	0
68	999
69	48
70	2
71	0
72	2
73	1
74	7
75	5
76	7
77	81
78	20
79	13
80	0
85	0
86	1
87	3
88	0
89	7
90	1
91	14
92	1
94	0
96	0
97	4
98	0
99	0
101	1
102	6
103	5
104	2
105	68
106	6
107	5
108	0
113	0
114	1
115	26
116	3
117	5
118	0
126	1
127	10
128	23
129	24
130	3
131	1
133	0
144	0
145	3
146	1
157	0
173	17
174	741
175	83
176	7
177	0
