Mass Spectrum: (1R,1aR,2aS,6R,6aS,7aS)-1,6,6a-Trimethyldecahydro-1,2a-methanocyclopropa[b]naphthalene
Formula: C15H24
CAS: 26620-70-2
Molecular weight: 204
m/z	intensity
26	1
27	40
28	8
29	61
30	1
37	1
38	3
39	127
40	23
41	336
42	25
43	77
44	2
50	7
51	45
52	21
53	130
54	15
55	291
56	30
57	65
58	7
59	3
60	1
62	2
63	20
64	13
65	127
66	32
67	210
68	26
69	155
70	26
71	38
72	5
73	2
74	2
75	3
76	5
77	307
78	70
79	317
80	87
81	400
82	56
83	24
84	7
85	2
86	1
87	1
88	1
89	9
90	3
91	546
92	177
93	684
94	153
95	137
96	51
97	83
98	7
99	1
101	1
102	8
103	50
104	25
105	999
106	739
107	572
109	257
110	30
111	12
112	1
113	1
114	1
115	73
116	28
117	103
118	42
119	451
120	152
121	128
122	255
123	845
124	85
125	5
126	1
127	9
128	27
129	25
130	11
131	50
132	22
133	420
134	117
135	63
136	37
137	7
138	1
139	1
141	6
142	3
143	5
144	2
145	23
146	7
147	242
148	427
149	111
150	24
151	2
152	1
153	1
155	1
157	1
159	4
160	5
161	221
162	148
163	69
164	7
165	1
173	2
174	1
175	47
176	25
177	3
187	1
188	1
189	378
190	57
191	4
203	2
204	875
205	136
206	11
207	1
