Mass Spectrum: Aristolochene
Formula: C15H24
CAS: 26620-71-3
Molecular weight: 204
m/z	intensity
26	1
27	21
28	3
29	37
30	1
38	1
39	81
40	16
41	213
42	17
43	50
44	2
50	4
51	33
52	15
53	100
54	10
55	183
56	15
57	14
58	4
59	1
62	2
63	14
64	9
65	95
66	26
67	146
68	24
69	88
70	7
71	9
72	3
74	2
75	3
76	5
77	222
78	54
79	283
80	320
81	209
82	32
83	14
88	1
89	7
90	2
91	474
92	87
93	394
94	171
95	145
96	20
97	10
102	6
103	45
104	24
105	999
106	210
107	463
108	136
109	183
110	19
111	13
112	1
114	1
115	72
116	26
117	100
118	26
119	282
120	73
121	493
122	146
123	180
124	189
125	18
126	2
127	9
128	27
129	27
130	12
131	64
132	19
133	334
134	54
135	29
136	171
137	19
141	5
142	2
145	40
146	13
147	167
148	61
149	56
152	1
154	1
159	10
160	4
161	184
162	68
163	93
164	11
175	27
176	8
189	778
190	125
191	8
204	89
205	12
