Mass Spectrum: Propanethioic acid, 3-(1,2-dihydro-5-trifluoromethyl-2-oxopyridinyl)-, S-phenyl ester
Formula: C15H12F3NO2S
CAS: 266303-43-9
Molecular weight: 327
m/z	intensity
33	1
34	0
36	0
37	3
38	11
39	47
40	8
41	11
42	7
43	6
44	7
45	15
46	0
47	1
48	0
49	1
50	16
51	40
52	9
53	6
55	999
56	40
57	33
58	7
59	4
60	2
61	1
62	3
63	10
64	9
65	70
66	15
67	3
68	2
69	42
70	6
71	8
72	1
73	2
74	5
75	14
76	4
77	16
78	10
79	8
80	1
81	4
82	9
83	7
84	6
85	4
86	1
87	3
88	12
89	4
90	1
91	4
92	3
93	5
94	2
95	6
96	2
97	2
98	4
99	1
100	2
101	26
102	3
103	1
104	0
105	1
106	2
107	22
108	17
109	106
110	27
111	7
112	2
113	2
114	12
115	10
116	11
117	1
118	0
119	3
120	2
121	4
122	2
123	3
124	1
125	1
126	11
127	2
128	14
129	1
130	1
131	0
132	0
133	3
134	6
135	19
136	3
137	1
138	0
139	0
140	1
141	0
142	5
143	2
144	11
145	2
146	49
147	6
148	38
149	4
150	0
151	0
152	1
153	0
154	0
156	0
157	0
158	0
159	0
160	1
161	4
162	6
163	9
164	45
165	3
166	0
170	0
171	2
172	6
173	0
176	3
177	0
180	0
181	0
186	0
188	7
189	2
190	9
191	1
192	0
198	0
199	4
200	0
206	0
207	0
212	0
213	0
214	0
215	1
216	2
218	393
219	42
220	3
221	0
222	0
234	1
235	0
238	0
252	0
254	1
255	0
266	0
308	14
309	2
310	1
