Mass Spectrum: Propanamide, 3,3',3''-nitrilotris-
Formula: C9H18N4O3
CAS: 2664-61-1
Molecular weight: 230
m/z	intensity
12	2
13	3
14	7
15	44
16	19
17	54
18	59
24	2
25	9
26	71
27	219
28	165
29	40
30	218
31	6
32	6
33	1
34	3
36	1
37	3
38	7
39	17
40	21
41	70
42	461
43	109
44	592
45	34
46	6
50	6
51	14
52	36
53	49
54	77
55	228
56	327
57	49
58	15
59	85
60	15
61	2
64	1
65	2
66	3
67	8
68	26
69	17
70	91
71	157
72	342
73	66
74	5
76	1
77	3
78	3
79	3
80	11
81	11
82	39
83	41
84	386
85	28
86	13
87	252
88	15
89	3
91	3
92	2
93	2
94	2
95	8
96	18
97	15
98	78
99	97
100	18
101	999
102	55
103	4
104	1
105	2
106	4
107	2
108	2
109	11
110	10
111	6
112	9
113	91
114	25
115	23
116	15
117	2
118	2
119	3
120	2
121	2
122	3
123	11
124	45
125	11
126	54
127	138
128	14
129	4
130	1
132	1
133	1
134	2
135	1
136	13
137	6
138	3
139	3
140	11
141	355
142	29
143	44
144	4
145	1
147	2
148	1
149	1
150	3
151	3
152	3
153	3
154	36
155	11
156	2
157	3
158	448
159	67
160	6
161	1
163	1
165	4
166	7
167	17
168	7
169	7
170	5
171	5
172	933
173	86
174	8
175	1
179	2
180	1
185	10
186	38
187	7
193	2
194	5
195	3
196	1
212	18
213	9
214	1
230	105
231	13
232	2
