Mass Spectrum: 1-Iodo-2-trifluoromethylpropane
Formula: C4H6F3I
CAS: 26653-47-4
Molecular weight: 238
m/z	intensity
33	21
37	33
38	71
39	338
41	372
42	48
43	5
44	5
45	17
47	999
48	19
51	150
52	4
53	1
55	5
56	8
57	21
59	68
60	13
61	53
62	2
64	69
65	267
66	5
67	1
69	178
71	190
72	24
73	2
75	41
77	94
78	4
82	4
83	13
85	2
87	2
89	59
91	939
92	44
93	2
95	49
96	4
97	1
99	1
101	1
107	1
109	18
111	865
112	30
113	1
121	1
124	3
125	1
127	250
128	59
129	2
139	8
141	113
142	7
146	1
151	1
152	2
153	5
154	1
155	9
159	9
161	9
165	1
167	1
168	2
169	7
173	6
177	4
191	3
199	14
203	4
219	7
222	1
238	596
239	22
