Mass Spectrum: Tricyclodecanedimethanamine-
Formula: C12H22N2
CAS: 26655-37-8
Molecular weight: 194
m/z	intensity
15	2
16	2
26	1
27	29
28	90
29	24
30	999
31	46
32	44
38	1
39	48
40	10
41	128
42	20
43	35
44	20
45	9
47	59
48	1
50	2
51	13
52	9
53	38
54	21
55	38
56	168
57	19
58	26
59	13
61	5
63	5
64	2
65	50
66	208
67	370
68	48
69	51
70	35
71	5
72	2
73	5
75	1
76	1
77	94
78	64
79	316
80	666
81	670
82	174
83	20
84	9
85	2
86	9
87	1
88	1
89	2
90	1
91	216
92	133
93	204
94	139
95	39
96	252
97	201
98	101
99	36
100	5
101	1
102	1
103	11
104	31
105	140
106	146
107	153
108	34
109	10
110	9
111	10
112	1
115	9
116	6
117	53
118	52
119	199
120	130
121	26
122	18
123	6
124	5
125	1
127	1
128	4
129	5
130	4
131	48
132	32
133	94
134	55
135	28
136	41
137	7
138	5
139	2
141	1
143	1
144	2
145	25
146	48
147	123
148	490
149	64
150	13
151	3
152	5
153	3
154	1
155	3
159	6
160	209
161	30
162	18
163	17
164	52
165	98
166	14
167	10
168	1
174	1
175	1
176	29
177	360
178	56
179	9
180	2
191	1
193	4
194	32
195	22
196	4
197	1
