Mass Spectrum: 24-Nor-5.alpha.-cholan-22-one, 3.beta.-hydroxy-, acetate, (20S)-
Formula: C25H40O3
CAS: 26654-77-3
Molecular weight: 388
m/z	intensity
41	210
42	10
43	999
44	10
45	10
53	60
54	10
55	460
56	10
57	20
60	10
65	10
67	300
68	80
69	180
71	10
72	360
73	10
77	80
78	10
79	310
80	50
81	570
82	60
83	80
85	110
91	240
92	60
93	460
94	350
95	460
96	40
97	70
98	70
99	40
104	10
105	290
106	160
107	590
108	230
109	270
110	10
111	30
112	20
113	30
117	30
118	20
119	240
120	110
121	310
122	130
123	170
124	10
131	70
132	40
133	190
134	110
135	200
136	40
137	20
143	10
145	210
146	60
147	500
148	170
149	190
150	20
151	10
159	100
160	70
161	170
162	80
163	80
165	10
173	80
174	30
175	70
176	30
177	30
185	10
187	50
188	30
189	40
191	50
199	10
201	120
202	50
203	30
213	30
214	10
215	920
216	260
217	110
218	10
220	20
221	10
227	10
228	10
229	50
230	270
231	70
232	10
233	10
241	100
242	30
243	10
245	10
246	10
247	10
248	10
255	40
256	90
257	290
258	60
259	10
269	10
273	20
274	40
275	120
276	50
285	130
286	50
287	20
290	130
291	20
295	20
300	10
301	40
302	50
303	10
310	20
313	190
314	80
315	50
316	240
317	70
318	10
328	430
329	120
330	30
344	20
345	10
355	20
370	170
371	30
373	10
388	220
389	50
