Mass Spectrum: L-Leucine, methyl ester
Formula: C7H15NO2
CAS: 2666-93-5
Molecular weight: 145
m/z	intensity
27	27
28	49
29	22
30	212
31	13
33	41
39	19
41	60
42	41
43	105
44	323
45	11
53	8
54	8
55	19
56	19
57	19
59	19
60	8
68	8
69	22
70	44
71	8
72	8
74	33
84	11
86	999
87	69
88	270
89	19
