Mass Spectrum: Isoflurane
Formula: C3H2ClF5O
CAS: 26675-46-7
Molecular weight: 184
m/z	intensity
29	119
31	25
44	4
47	8
48	13
50	17
51	999
52	10
67	106
69	73
79	70
80	14
87	55
89	19
95	12
97	6
98	3
115	151
116	4
117	212
118	3
119	50
149	250
150	7
