Mass Spectrum: 1,3-Cyclohexanediol, diacetate, trans-
Formula: C10H16O4
CAS: 26688-53-9
Molecular weight: 200
m/z	intensity
25	0
26	6
27	61
28	0
29	25
30	1
31	13
37	1
38	2
39	69
40	11
41	136
42	54
43	999
44	50
45	8
49	0
50	3
51	8
52	4
53	30
54	173
55	64
56	29
57	36
58	8
59	2
60	3
61	56
62	1
63	1
64	0
65	6
66	4
67	21
68	13
69	85
70	52
71	8
72	2
73	1
74	0
75	0
76	1
77	14
78	11
79	153
80	956
81	227
82	14
83	60
84	6
85	1
86	10
87	2
91	0
93	0
94	0
95	3
96	5
97	55
98	195
99	26
100	3
101	2
103	8
104	2
105	0
107	1
108	0
109	0
111	0
112	8
113	0
114	2
115	9
116	0
121	1
122	2
123	0
125	3
126	0
135	0
139	2
140	29
141	3
142	0
143	0
157	1
158	0
