Mass Spectrum: Benzeneacetic acid, .alpha.-amino-, methyl ester
Formula: C9H11NO2
CAS: 26682-99-5
Molecular weight: 165
m/z	intensity
17	26
18	136
30	24
39	17
43	14
44	15
50	18
51	63
52	16
65	15
66	10
77	149
78	32
79	63
91	11
93	32
104	128
105	24
106	999
107	82
120	12
165	297
166	32
