Mass Spectrum: Cyclopentane, 1,3-dichloro-, trans-
Formula: C5H8Cl2
CAS: 26688-50-6
Molecular weight: 138
m/z	intensity
38	30
39	170
40	35
41	180
42	10
49	15
51	15
53	10
55	10
62	50
63	15
64	15
65	45
66	30
67	999
68	55
75	45
76	45
77	15
78	15
101	10
102	25
103	6
104	7
