Mass Spectrum: (-)-cis-2-Benzamidocyclohexanecarboxylic acid
Formula: C14H17NO3
CAS: 26693-55-0
Molecular weight: 247
m/z	intensity
41	31
42	9
43	17
44	7
45	15
46	0
50	13
51	56
52	6
53	12
54	12
55	26
56	15
57	3
65	4
66	3
67	10
68	7
69	13
70	7
71	0
73	13
74	4
75	7
76	20
77	379
78	31
79	33
80	13
81	26
82	9
83	2
86	1
91	2
94	0
95	0
96	15
97	7
98	6
100	1
103	3
104	17
105	999
106	76
107	7
108	17
109	6
111	0
121	9
122	467
123	35
124	97
125	10
126	8
127	3
133	2
134	10
135	6
139	3
141	1
142	204
143	16
144	1
146	25
147	9
148	3
156	3
158	2
159	0
160	78
161	19
162	4
170	0
172	7
173	26
174	16
175	7
184	3
185	0
186	2
187	4
188	12
200	8
201	121
202	81
203	13
204	20
205	2
228	3
229	8
230	19
231	3
246	30
247	496
248	98
249	12
