Mass Spectrum: 2-(E)-Hexenoic acid, (4S)-amino-5-methyl-
Formula: C7H13NO2
CAS: 267008-79-7
Molecular weight: 143
m/z	intensity
26	3
27	26
28	33
29	12
30	12
31	0
37	0
38	1
39	18
40	2
41	24
42	13
43	16
44	11
45	4
46	1
47	0
50	0
51	2
52	5
53	6
54	90
55	58
56	36
57	4
58	0
59	0
60	0
63	0
64	0
65	2
66	1
67	4
68	2
69	2
70	4
71	1
72	27
73	2
74	0
76	0
77	2
78	0
79	2
80	3
81	5
82	72
83	35
84	3
85	0
86	0
87	0
88	0
92	2
93	0
94	0
95	0
96	3
97	0
98	12
99	1
100	999
101	55
102	5
105	2
106	1
107	0
108	0
109	1
110	9
111	1
112	0
115	0
120	0
122	1
123	0
124	2
125	1
126	3
127	1
128	5
129	0
142	2
143	3
144	3
