Mass Spectrum: 2-(E)-Pentenoic acid, (4S)-amino-5-phenyl-
Formula: C11H13NO2
CAS: 267008-78-6
Molecular weight: 191
m/z	intensity
26	1
27	7
28	14
29	3
30	4
31	1
39	12
41	5
42	3
43	2
44	5
45	1
46	0
49	0
50	2
51	8
52	4
53	1
54	64
55	32
56	2
57	0
58	1
59	0
60	4
62	1
63	6
64	2
65	31
66	2
67	0
68	1
69	0
70	0
71	0
72	17
73	1
74	0
75	1
76	1
77	7
78	2
79	0
80	0
82	62
83	11
84	0
86	0
87	0
88	1
89	6
90	3
91	84
92	13
93	1
96	0
98	0
100	999
101	43
102	5
103	4
104	1
105	0
114	4
115	3
116	1
117	3
118	7
119	0
120	6
121	0
126	0
127	3
128	9
129	3
130	2
131	0
132	0
136	7
138	2
143	1
144	6
145	2
146	1
147	0
157	0
171	0
172	0
173	9
174	3
175	0
191	0
192	1
