Mass Spectrum: Dodecanoic acid 3-dodecanoyloxy-propyl ester
Formula: C27H52O4
CAS: 26719-54-0
Molecular weight: 440
m/z	intensity
35	0
36	0
37	0
38	0
39	37
40	7
41	442
42	158
43	999
44	41
45	22
46	0
47	0
53	16
54	40
55	446
56	125
57	649
58	64
59	30
60	39
61	10
62	0
66	2
67	61
68	35
69	151
70	48
71	200
72	20
73	33
74	2
75	3
77	8
78	1
79	9
80	5
81	54
82	21
83	104
84	200
85	97
86	9
87	6
88	2
89	1
92	0
93	6
94	4
95	52
96	13
97	56
98	157
99	23
100	313
101	209
102	12
103	1
107	5
108	2
109	31
110	7
111	21
112	62
113	202
114	22
115	5
117	1
118	6
119	9
120	0
121	8
122	1
123	13
124	3
125	11
126	30
127	34
128	4
129	2
130	0
131	2
132	0
133	0
135	4
136	2
137	2
138	6
139	9
140	9
141	24
142	6
143	1
145	0
151	1
152	1
153	5
154	6
155	49
156	8
157	4
158	0
159	0
160	18
161	0
163	14
164	3
165	5
166	1
167	2
168	2
169	78
170	15
171	1
172	0
173	1
174	3
175	0
176	0
178	0
179	0
180	4
181	13
182	64
183	373
184	49
185	4
186	0
187	2
188	15
194	0
195	0
196	1
197	48
198	7
199	2
200	0
201	10
202	10
203	1
206	0
208	0
209	1
210	0
211	16
212	6
213	1
214	0
215	1
216	2
217	0
218	0
224	7
225	3
226	0
227	2
228	0
229	0
230	0
237	0
238	1
239	9
240	112
241	472
242	81
243	8
244	1
248	0
252	1
253	0
254	0
257	4
258	3
259	53
260	9
261	1
265	0
267	0
268	0
269	0
270	0
271	0
282	1
283	0
285	4
286	0
296	0
297	0
300	11
301	2
302	0
306	0
310	0
328	0
337	0
342	0
355	0
356	0
364	0
365	0
439	0
440	15
441	6
442	1
