Mass Spectrum: Cyclopentene, 3-ethenyl-
Formula: C7H10
CAS: 26727-45-7
Molecular weight: 94
m/z	intensity
26	66
27	208
28	23
29	14
30	0
31	1
36	1
37	23
38	46
39	268
40	65
41	109
42	9
43	2
44	1
45	4
46	2
48	0
49	7
50	52
51	75
52	32
53	68
54	20
55	8
56	1
57	0
60	2
61	12
62	25
63	49
64	7
65	107
66	110
67	107
68	7
69	0
70	0
71	0
72	0
73	1
74	6
75	2
76	2
77	394
78	63
79	999
80	68
81	4
82	1
83	2
84	0
85	1
86	3
87	1
88	0
89	4
90	1
91	198
92	23
93	125
94	232
95	18
96	1
97	0
