Mass Spectrum: Propanoic acid, 3-hydroxy-2-methyl-3-phenyl-, tert-butyl ester
Formula: C14H20O3
CAS: 26735-95-5
Molecular weight: 236
m/z	intensity
37	0
39	22
41	85
42	5
43	35
44	0
45	0
50	7
51	27
52	7
53	5
55	16
56	67
57	574
58	32
59	43
60	2
62	2
63	3
64	1
65	7
66	0
69	0
70	0
74	201
75	10
77	129
78	31
79	204
80	8
85	1
86	0
88	0
89	5
91	40
92	4
93	3
94	0
95	0
101	1
102	2
103	6
105	184
107	999
108	89
109	2
110	0
115	20
116	7
117	38
118	28
119	20
120	3
121	0
123	1
130	86
131	8
132	1
133	9
134	9
135	5
136	0
137	0
144	1
145	4
146	1
147	2
161	50
162	16
163	172
164	21
165	7
166	0
179	118
180	235
181	37
182	4
183	1
198	0
201	0
219	0
236	7
237	2
238	0
