Mass Spectrum: 3-Amino-2,2-dimethyl-1-propanol
Formula: C5H13NO
CAS: 26734-09-8
Molecular weight: 103
m/z	intensity
15	7
18	61
19	1
26	4
27	48
28	71
29	80
30	999
31	79
32	13
37	2
38	8
39	71
40	17
41	199
42	25
43	44
44	23
45	22
46	7
48	41
50	3
51	5
52	5
53	19
54	14
55	149
56	360
57	68
58	23
59	1
60	1
61	1
67	2
68	4
69	1
70	37
71	19
72	54
73	22
74	1
84	2
85	31
86	8
99	1
103	5
