Mass Spectrum: 5-Phenyl rhodanine
Formula: C9H7NOS2
CAS: 26738-28-3
Molecular weight: 209
m/z	intensity
41	5
43	16
45	116
46	6
47	5
49	2
50	62
51	143
52	25
53	2
55	4
56	0
57	1
58	7
59	50
60	27
61	26
62	62
63	161
64	71
65	7
66	3
67	1
69	40
70	4
71	10
73	6
74	12
76	28
77	138
78	122
79	9
81	4
82	6
83	3
84	1
85	2
86	61
87	10
89	326
90	437
91	54
93	11
94	3
95	5
96	2
97	2
98	1
99	0
100	0
102	6
104	15
105	9
106	3
107	3
109	2
111	0
114	0
115	0
118	999
119	66
121	722
122	616
123	121
124	34
125	4
127	0
129	1
131	1
132	6
134	25
135	2
136	1
148	2
150	17
151	2
153	5
155	0
165	7
166	20
167	3
168	1
181	0
193	1
208	9
209	813
210	95
211	95
212	10
