Mass Spectrum: Acrylic acid, 3-amino-3-cyano-, methyl ester
Formula: C5H6N2O2
CAS: 26740-50-1
Molecular weight: 126
m/z	intensity
26	9
27	21
28	89
29	88
30	18
31	16
33	8
38	43
39	79
40	318
41	116
42	34
43	112
44	17
45	7
50	12
51	43
52	29
53	219
54	13
55	8
59	18
65	13
66	139
67	65
68	151
69	21
70	13
78	32
79	4
83	5
94	75
95	999
96	63
97	6
99	6
100	10
126	270
127	18
128	7
