Mass Spectrum: Ethanedial, bis(dimethylhydrazone)
Formula: C6H14N4
CAS: 26757-28-8
Molecular weight: 142
m/z	intensity
26	31
27	89
28	311
29	123
30	65
31	9
32	3
37	0
38	4
39	11
40	27
41	39
42	411
43	327
44	999
45	285
46	15
47	0
48	0
49	0
50	1
51	3
52	3
53	7
54	12
55	15
56	134
57	85
58	80
59	55
60	9
63	0
66	0
67	2
68	3
69	66
70	27
71	94
72	34
73	2
74	0
77	0
81	0
82	7
83	116
84	43
85	4
86	0
87	0
95	0
96	13
97	10
98	35
99	9
100	7
112	1
121	0
127	0
141	0
142	400
143	35
144	1
