Mass Spectrum: 2-Propenamide, N,N-diethyl-
Formula: C7H13NO
CAS: 2675-94-7
Molecular weight: 127
m/z	intensity
23	0
25	3
26	53
27	469
28	106
29	195
30	75
31	1
36	0
37	1
38	2
39	9
40	9
41	45
42	89
43	15
44	247
45	6
46	0
50	1
51	2
52	4
53	12
54	17
55	999
56	65
57	8
58	782
59	25
62	0
63	1
65	0
66	0
67	3
68	3
69	18
70	11
71	4
72	70
73	3
74	1
75	0
77	0
78	0
80	1
81	2
82	2
83	5
84	70
85	6
86	6
87	0
89	0
90	1
91	0
94	1
95	1
96	1
97	0
98	16
99	2
100	8
101	0
105	0
108	0
109	0
110	0
111	0
112	297
113	19
114	2
115	2
116	0
117	4
118	0
119	0
124	0
126	58
127	148
128	17
129	0
