Mass Spectrum: Propanamide, 3-chloro-N-(2-thiazolyl)-
Formula: C6H7ClN2OS
CAS: 26774-38-9
Molecular weight: 190
m/z	intensity
35	0
39	1
40	0
41	2
42	1
45	35
46	3
48	2
49	8
50	0
51	2
52	1
53	6
55	45
57	23
58	36
59	8
60	3
61	6
63	122
65	46
66	0
70	5
71	9
72	9
73	28
75	3
83	4
84	0
85	1
86	2
87	0
88	4
89	0
91	51
93	18
94	1
97	0
98	7
100	999
102	37
103	0
113	2
125	4
127	33
128	1
129	0
154	0
155	1
188	1
189	12
190	100
192	46
193	2
194	1
