Mass Spectrum: D-tert-Leucine
Formula: C6H13NO2
CAS: 26782-71-8
Molecular weight: 131
m/z	intensity
26	14
27	113
28	249
29	415
30	108
31	3
33	0
34	1
35	1
36	2
37	6
38	17
39	183
41	433
42	75
43	116
44	26
45	61
46	49
47	1
48	1
49	1
50	8
51	15
52	10
53	29
54	31
55	50
56	109
57	684
58	18
59	4
60	1
61	0
62	0
63	0
64	1
65	2
66	1
67	8
68	16
69	115
70	269
71	71
72	57
73	4
74	74
75	999
76	30
77	6
78	0
79	1
80	0
81	1
82	3
83	4
84	10
85	3
86	268
87	16
88	2
89	0
90	1
91	0
92	1
95	0
96	0
97	0
98	43
99	4
100	1
101	1
102	1
103	1
106	0
107	1
108	0
109	1
110	0
111	0
112	1
113	3
114	0
115	1
116	6
117	1
120	0
125	0
126	0
128	1
130	2
131	1
132	5
