Mass Spectrum: Bicyclo[3.2.2]nona-6,8-dien-3-one
Formula: C9H10O
CAS: 26788-91-0
Molecular weight: 134
m/z	intensity
43	250
65	60
77	260
78	120
91	999
92	620
93	60
105	420
115	60
116	120
133	60
134	400
135	20
