Mass Spectrum: (S)-2-Chloro-3-methylbutyric acid
Formula: C5H9ClO2
CAS: 26782-74-1
Molecular weight: 136
m/z	intensity
14	1
15	6
26	8
27	111
28	22
29	67
30	2
31	5
35	3
36	28
37	6
38	17
39	111
40	16
41	303
42	22
43	459
44	33
45	35
46	1
47	1
48	3
49	10
50	9
51	10
52	3
53	21
54	9
55	102
56	36
57	18
58	3
59	23
60	6
61	3
62	1
63	14
64	1
65	6
67	2
68	6
69	8
71	3
72	8
73	7
74	2
75	9
76	89
77	9
78	28
79	2
81	1
82	15
83	22
84	2
85	38
86	5
87	1
89	1
90	1
91	15
92	1
93	6
94	999
95	25
96	361
97	8
98	1
99	3
100	19
101	45
102	3
103	1
105	2
119	2
121	2
136	1
137	8
138	1
139	2
