Mass Spectrum: 6-Hepten-1-ol, 5-methyl-
Formula: C8H16O
CAS: 26799-28-0
Molecular weight: 128
m/z	intensity
24	0
25	0
26	18
27	297
29	286
30	8
31	302
36	0
37	3
38	12
39	289
40	45
41	673
42	105
43	244
44	49
45	40
46	1
47	0
49	0
50	13
51	30
52	15
53	140
54	143
55	999
56	308
57	112
58	18
59	3
60	0
61	0
62	2
63	5
64	1
65	20
66	17
67	434
68	308
69	182
70	89
71	49
72	9
73	37
74	1
75	0
76	0
77	15
78	3
79	31
80	13
81	251
82	233
83	40
84	27
85	18
86	1
87	0
89	0
91	7
92	1
93	14
94	2
95	324
96	28
97	8
98	2
99	14
100	4
101	0
105	0
106	0
107	0
108	2
109	6
110	103
111	11
112	0
113	0
124	0
126	0
127	0
128	5
129	0
