Mass Spectrum: 1,4-Methanoazulen-7-ol, decahydro-1,5,5,8a-tetramethyl-, [1s-(1.alpha.,3a.beta.,4.alpha.,7.beta.,8a.beta.)]-
Formula: C15H26O
CAS: 26804-55-7
Molecular weight: 222
m/z	intensity
25	20
27	561
28	95
29	781
30	31
31	118
37	14
38	25
39	671
40	159
41	999
42	168
43	870
44	164
45	78
50	32
51	153
52	85
53	577
54	141
55	936
56	220
57	482
58	41
59	58
60	14
61	14
62	17
63	52
64	29
65	240
66	118
67	804
68	240
69	599
70	122
71	301
72	32
73	20
74	17
75	31
76	23
77	471
78	121
79	709
80	177
81	609
82	208
83	231
84	75
85	255
86	35
87	17
89	32
90	27
91	613
92	265
93	706
94	748
95	763
96	162
97	120
98	99
99	74
100	17
101	18
102	22
103	55
104	32
105	337
106	254
107	608
108	125
109	477
110	263
111	202
112	56
113	24
115	61
116	35
117	64
118	35
119	401
120	173
121	454
122	374
123	333
124	111
125	257
126	49
127	44
128	26
129	24
130	20
131	37
132	27
133	322
134	111
135	265
136	369
137	258
138	295
139	68
140	35
141	16
142	12
143	17
144	15
145	34
146	22
147	187
148	799
149	261
150	53
151	131
152	42
153	84
154	26
159	14
160	16
161	151
162	106
163	53
164	78
165	191
166	175
167	37
175	30
176	35
177	15
178	12
179	56
180	33
181	14
189	116
190	26
191	12
192	12
193	33
194	47
195	15
203	13
204	96
205	37
206	11
207	74
208	17
222	150
223	28
