Mass Spectrum: Diethyl docosanedioate
Formula: C26H50O4
CAS: 26818-50-8
Molecular weight: 426
m/z	intensity
26	2
27	21
28	16
29	113
30	2
31	6
37	2
39	18
40	5
41	248
42	77
43	422
44	16
45	81
46	5
47	6
50	9
52	7
53	12
54	39
55	756
56	100
57	392
58	37
59	40
60	242
61	212
65	20
66	16
67	194
68	64
69	887
70	312
71	241
72	10
73	279
74	31
78	7
79	88
80	37
81	258
82	88
83	535
84	299
85	142
86	13
87	50
88	677
89	107
90	5
91	51
93	52
94	69
95	220
96	97
97	413
98	999
99	103
100	17
101	477
102	32
103	8
105	31
106	11
107	67
108	51
109	183
110	64
111	230
112	421
113	44
114	17
115	97
116	35
119	40
121	114
122	58
123	97
124	41
125	181
126	133
127	30
128	54
129	98
130	44
131	22
135	134
136	35
137	51
138	27
139	78
140	98
141	69
142	22
143	105
144	49
145	19
149	62
150	11
151	26
152	50
153	64
154	151
155	54
156	25
157	144
158	73
159	18
161	23
162	16
163	47
164	22
165	88
166	49
167	69
168	75
169	29
170	22
171	36
172	55
173	14
177	52
178	57
179	114
180	50
181	42
182	65
183	50
185	28
186	43
187	23
190	11
191	41
192	26
193	88
194	62
195	123
196	78
197	67
198	23
199	38
200	22
202	13
203	26
205	15
206	10
207	153
208	38
209	141
210	79
213	18
214	12
215	17
219	37
220	9
221	57
222	24
223	50
224	72
225	26
227	33
228	21
231	9
232	9
233	32
235	108
236	54
237	49
238	49
241	55
242	24
247	24
248	18
249	29
250	35
251	103
252	78
255	58
256	19
263	21
264	15
266	14
268	10
269	20
274	10
275	51
277	36
278	15
279	19
282	28
283	86
284	46
288	18
289	15
290	9
291	32
292	117
293	131
294	25
296	11
297	89
298	20
302	7
305	5
306	57
307	16
308	7
310	5
311	14
313	10
315	15
316	8
324	35
325	26
326	52
327	14
328	10
332	7
333	20
334	47
335	29
336	9
338	44
339	408
340	85
342	8
348	6
353	13
354	44
355	12
370	5
379	6
380	66
381	558
382	141
383	17
385	4
