Mass Spectrum: Ethyl 2-benzylamino-3-cyano-4-oxo-1,6,7,8,9,9a-hexahydro-4H-quinolizine-1-carboxylate
Formula: C20H23N3O3
CAS: 26814-58-4
Molecular weight: 353
m/z	intensity
15	1
26	3
27	13
28	21
29	40
30	8
31	14
32	1
39	15
40	2
41	24
42	9
43	6
44	8
45	10
46	4
50	2
51	8
52	5
53	8
54	9
55	62
56	27
57	15
58	2
59	1
63	7
64	7
65	86
66	8
67	9
68	11
69	6
70	9
71	3
73	1
75	1
76	3
77	14
78	8
79	10
80	9
81	9
82	112
83	40
84	608
85	38
86	1
88	1
89	12
90	9
91	999
92	90
93	9
94	4
95	6
96	8
97	8
98	2
99	1
101	1
102	2
103	7
104	20
105	17
106	41
107	7
108	3
109	3
110	3
111	2
112	2
113	1
114	1
115	3
116	3
117	5
118	7
119	8
120	6
121	6
122	5
123	9
124	6
125	1
126	1
127	2
128	4
129	7
130	9
131	4
132	7
133	6
134	3
135	8
136	6
137	2
138	1
139	5
140	7
141	3
142	4
143	3
144	3
145	4
146	6
147	15
148	10
149	12
150	2
151	2
152	2
153	8
154	4
155	5
156	6
157	2
158	4
159	2
160	4
161	6
162	8
163	5
164	2
165	3
166	3
167	10
168	13
169	41
170	16
171	5
172	5
173	7
174	9
175	15
176	5
177	24
178	4
179	3
180	2
181	9
182	3
183	3
184	2
185	2
186	2
187	1
188	12
189	7
190	80
191	11
192	3
193	4
194	6
195	22
196	23
197	46
198	22
199	8
200	5
201	3
202	14
203	5
204	6
205	2
206	2
207	4
208	4
209	6
210	3
211	9
212	5
213	23
214	10
215	3
216	17
217	5
218	4
219	9
220	4
221	6
222	4
223	10
224	20
225	21
226	17
227	4
228	5
229	2
230	6
231	2
232	2
233	1
234	20
235	6
236	8
237	12
238	8
239	4
240	2
241	47
242	39
243	10
244	3
245	2
246	2
247	2
248	6
249	23
250	15
251	11
252	55
253	14
254	2
255	2
256	1
257	1
258	3
259	1
260	1
261	2
262	155
263	27
264	39
265	9
266	5
267	1
268	2
269	7
270	41
271	18
272	4
273	1
274	1
275	1
276	18
277	11
278	38
279	27
280	310
281	69
282	9
283	2
284	20
285	5
286	20
287	4
288	1
289	1
290	4
291	1
292	1
296	5
297	206
298	42
299	7
300	1
303	14
304	9
305	13
306	24
307	13
308	23
309	5
310	35
311	16
312	4
313	2
314	2
316	2
322	1
323	1
324	33
325	11
326	2
327	1
330	1
335	1
336	7
337	2
338	15
339	5
340	1
351	12
352	73
353	433
354	132
355	20
356	2
