Mass Spectrum: 3(2H)-Isothiazolone, 2-methyl-
Formula: C4H5NOS
CAS: 2682-20-4
Molecular weight: 115
m/z	intensity
33	20
34	12
36	2
37	10
38	9
39	11
40	11
41	19
42	532
43	38
44	12
45	154
46	126
47	10
48	5
50	0
51	5
52	13
53	237
54	58
55	50
56	74
57	364
58	650
59	237
60	130
61	431
62	21
63	24
64	1
66	12
67	2
68	2
69	5
70	9
71	58
72	22
73	4
74	4
81	0
82	117
83	8
84	5
85	111
86	327
87	738
88	46
89	41
90	0
98	5
99	0
100	4
114	51
115	999
116	57
117	45
118	0
