Mass Spectrum: 3,7,14,18-Tetrathiatricyclo[18.2.2.2(9,12)]hexacosa-9,11,20,22,23,25-hexaene
Formula: C22H28S4
CAS: 26822-25-3
Molecular weight: 420
m/z	intensity
26	0
27	6
28	1
29	1
32	0
34	0
37	0
38	1
39	14
40	1
41	51
42	4
43	2
44	0
45	23
46	3
47	9
48	0
49	0
50	3
51	8
52	5
53	2
54	0
55	1
56	0
57	1
58	1
59	6
60	2
61	5
62	1
63	5
64	14
65	13
66	1
67	0
68	0
69	1
70	0
71	2
72	4
73	13
74	2
75	9
76	2
77	20
78	56
79	6
80	0
81	1
82	0
83	0
84	0
85	1
87	1
88	0
89	8
90	6
91	143
92	29
93	2
95	0
97	1
99	0
101	0
102	6
103	55
104	999
105	117
106	297
107	18
108	28
109	1
110	0
115	2
116	1
117	4
118	2
119	2
120	0
121	4
122	1
123	3
127	0
128	2
129	2
130	1
131	1
132	0
133	0
134	9
135	46
136	51
137	13
138	3
139	1
140	0
141	0
142	0
143	1
144	0
145	1
147	1
148	1
149	4
150	0
151	0
154	0
156	0
157	9
158	10
159	2
161	0
162	0
163	4
164	0
165	0
166	1
167	2
168	1
169	0
175	0
176	0
177	2
178	2
179	1
180	0
181	0
182	0
183	0
189	0
194	0
195	0
202	0
205	0
206	3
207	2
208	183
209	43
210	143
211	22
212	14
213	2
214	0
234	0
235	0
236	1
237	1
238	1
239	1
240	1
241	1
242	0
243	0
280	0
312	0
313	0
314	18
315	6
316	58
317	11
318	11
319	2
320	0
418	0
420	106
421	31
422	23
423	5
424	2
425	0
