Mass Spectrum: Benzenamine, 4-chloro-N-(2-pyridinylmethylene)-
Formula: C12H9ClN2
CAS: 26825-34-3
Molecular weight: 216
m/z	intensity
50	460
51	619
52	609
62	80
63	210
64	90
74	140
75	819
76	220
78	380
79	999
105	260
111	579
113	180
138	160
154	370
189	340
191	90
215	519
216	589
217	230
218	190
