Mass Spectrum: Decanoic acid, 10-bromo-, methyl ester
Formula: C11H21BrO2
CAS: 26825-94-5
Molecular weight: 264
m/z	intensity
33	23
34	2
35	1
36	4
37	1
38	2
39	72
40	15
41	270
42	63
43	198
44	12
45	35
46	26
47	36
48	162
49	648
50	2
51	4
52	3
53	27
54	22
55	279
56	29
57	58
58	8
59	135
60	72
61	216
62	4
63	3
64	1
65	5
66	9
67	38
68	31
69	148
70	13
71	17
72	5
73	27
74	999
75	85
76	5
77	18
78	27
79	109
80	23
81	28
82	9
83	54
84	31
85	63
86	4
87	427
88	42
89	4
90	5
91	24
92	20
93	6
94	2
95	10
96	8
97	26
98	22
99	4
100	2
101	36
102	3
103	1
104	1
105	1
106	1
107	12
108	3
109	12
110	9
111	15
112	3
113	2
114	2
115	9
116	3
117	1
118	1
119	1
121	3
122	1
123	5
124	3
125	7
126	2
127	4
128	1
129	15
130	2
131	1
132	1
133	1
134	1
135	12
136	1
137	6
138	1
139	1
140	1
141	1
142	1
143	27
144	2
145	1
147	1
148	1
149	3
150	2
151	3
152	6
153	27
154	3
155	1
156	1
157	2
158	1
161	1
162	1
163	1
164	1
165	1
166	1
167	1
169	1
170	1
171	1
173	1
177	1
179	1
180	1
181	1
183	1
184	1
185	36
186	4
187	1
188	1
189	1
190	2
191	1
192	2
193	1
194	1
195	1
207	1
208	1
209	1
211	1
215	1
217	1
233	22
234	2
235	22
236	3
237	2
253	1
264	10
265	1
266	9
267	1
