Mass Spectrum: Imidazole-4-carboxamide
Formula: C4H5N3O
CAS: 26832-08-6
Molecular weight: 111
m/z	intensity
41	205
43	8
44	176
45	2
46	5
51	7
52	10
53	32
55	34
56	24
57	5
68	999
69	27
71	3
83	8
94	11
95	718
96	25
97	1
111	897
112	81
113	5
