Mass Spectrum: Methyl 9,10-dibromo-9,10-dihydrophenanthrene-4-carboxylate
Formula: C16H12Br2O2
CAS: 26847-76-7
Molecular weight: 394
m/z	intensity
41	6
42	1
43	6
45	1
47	8
49	58
50	17
51	42
52	4
54	2
55	4
57	4
59	19
62	36
63	34
64	2
65	1
67	5
69	3
70	7
74	35
75	120
76	30
77	15
79	5
80	9
81	12
82	38
83	7
84	36
86	42
88	999
94	3
95	1
96	9
98	22
99	20
100	8
101	7
103	151
105	7
110	9
111	10
113	4
115	4
118	157
122	6
123	7
124	1
125	13
126	18
127	6
128	1
129	1
137	5
139	5
142	12
143	12
149	13
150	102
151	146
152	20
158	2
162	5
163	30
164	9
165	25
173	1
174	45
175	56
176	415
177	501
178	73
179	6
189	6
190	5
191	8
192	92
193	14
203	2
204	94
205	515
206	66
207	7
219	8
220	62
221	70
222	10
233	3
235	218
236	766
237	116
238	12
250	4
256	10
258	13
283	125
285	126
286	14
315	351
317	350
318	40
319	4
363	7
365	17
366	1
367	10
394	29
395	2
396	59
397	6
398	28
399	4
