Mass Spectrum: 2-Benzyloxy-6-methoxy-8-[4-phthalimidobutyl-amino]quinoline
Formula: C29H27N3O4
CAS: 26866-14-8
Molecular weight: 481
m/z	intensity
41	94
42	16
43	25
44	5
45	7
47	10
48	4
49	53
50	26
51	60
52	16
53	33
54	8
55	42
56	15
57	4
62	4
63	29
64	18
65	153
66	4
67	5
68	18
69	9
70	16
71	6
73	3
74	3
75	11
76	60
77	108
78	21
79	13
82	3
84	35
86	21
88	6
89	36
91	999
92	61
94	3
95	3
102	33
103	31
104	73
105	47
106	3
107	8
114	9
115	13
116	21
117	27
118	17
119	17
127	12
128	13
129	11
130	115
131	59
132	50
133	60
134	14
142	16
143	16
144	16
145	17
146	37
147	22
148	14
150	5
154	9
155	11
157	9
158	49
159	21
160	248
161	44
162	6
163	5
167	7
168	6
169	3
170	19
171	6
172	288
173	60
174	18
175	106
176	16
177	3
178	4
182	26
183	34
184	12
185	31
186	40
187	36
188	18
189	31
190	37
191	25
197	18
198	7
199	27
200	46
201	584
202	174
203	55
205	4
211	10
213	57
214	26
215	48
216	16
217	4
226	3
227	32
228	29
229	20
235	3
241	28
243	310
244	45
279	21
280	3
281	4
293	47
294	3
295	4
303	18
390	345
391	82
392	14
481	425
482	129
483	33
