Mass Spectrum: 2-Benzyloxy-6-methoxy-8-[p-nitrobenzylideneamino]quinoline
Formula: C24H19N3O4
CAS: 26866-31-9
Molecular weight: 413
m/z	intensity
41	35
43	10
49	8
50	25
51	60
52	28
53	19
62	14
63	50
64	21
65	160
66	5
68	4
75	17
76	48
77	45
78	18
79	18
84	3
88	13
89	49
91	999
92	57
102	23
103	56
104	21
105	13
106	13
108	11
114	3
115	12
116	20
117	19
118	41
119	20
120	35
127	3
128	4
129	14
130	17
131	37
132	9
134	42
136	3
142	4
143	4
145	15
146	61
147	5
151	4
158	7
159	31
161	61
162	28
166	57
173	4
174	31
175	18
178	8
185	5
187	3
189	600
190	22
201	17
203	20
205	35
206	9
207	4
219	3
232	8
233	28
234	15
246	8
248	17
250	17
260	8
261	33
262	7
263	16
264	10
265	47
275	26
276	170
277	40
278	3
279	26
280	280
281	33
291	31
292	8
321	31
322	416
323	79
324	3
413	215
414	56
415	13
