Mass Spectrum: N-(1,3,4-Thiadiazol-2-yl)formamide
Formula: C3H3N3OS
CAS: 26861-89-2
Molecular weight: 129
m/z	intensity
12	1
13	3
14	2
15	1
16	3
26	13
27	78
28	204
29	119
30	5
32	145
33	19
34	11
35	1
38	2
39	1
40	5
41	30
42	347
43	133
44	35
45	163
46	48
47	50
48	6
49	3
50	1
52	4
53	5
54	1
55	2
56	1
57	4
58	67
59	490
60	144
61	23
62	6
64	7
66	1
67	1
68	11
69	6
70	7
71	3
72	3
73	4
74	338
75	9
76	16
81	1
82	1
83	1
84	2
85	2
86	3
88	1
95	1
96	1
97	1
100	1
101	999
102	42
103	46
104	2
109	1
111	2
128	16
129	371
130	23
131	18
132	1
