Mass Spectrum: Propionamide, 3-[1-cycloazapropyl]-N-[2-thiazolyl]-
Formula: C8H11N3OS
CAS: 26865-80-5
Molecular weight: 197
m/z	intensity
41	152
42	478
43	327
44	92
45	164
46	13
47	6
51	2
52	7
53	17
54	27
55	319
56	999
57	22
58	131
59	40
60	8
61	2
66	2
68	19
69	86
70	131
71	52
72	10
73	13
74	2
80	2
81	3
82	1
83	4
84	4
85	5
86	12
87	0
97	162
98	229
100	185
101	98
102	9
103	4
111	3
112	5
113	50
114	6
115	4
124	6
125	11
127	110
128	6
129	2
136	1
137	2
139	0
140	3
142	136
143	8
144	5
153	8
155	30
156	2
158	0
168	7
169	36
170	2
171	2
178	1
180	1
196	1
197	72
198	7
199	0
