Mass Spectrum: Spiro[5.6]dodecane-7,12-dione
Formula: C12H18O2
CAS: 26870-39-3
Molecular weight: 194
m/z	intensity
27	512
28	585
29	317
39	512
40	220
41	902
42	171
43	268
51	98
52	73
53	341
54	317
55	999
56	195
57	73
65	73
66	73
67	951
68	244
69	122
70	73
71	73
77	146
78	49
79	268
80	146
81	659
82	268
83	463
84	488
85	122
91	122
92	49
93	122
94	98
95	171
96	73
97	146
98	98
99	12
105	49
106	24
107	146
108	49
109	293
110	585
111	268
112	49
119	49
120	49
121	49
122	49
123	537
124	171
125	49
133	49
134	49
135	24
136	7
137	268
138	73
139	49
140	12
147	49
148	512
149	317
150	49
151	49
152	24
153	24
165	49
166	610
167	73
176	24
194	951
195	122
