Mass Spectrum: Spiro[benzofuran-2(3H),1'-[3]cyclohexene]-2',3-dione, 7-chloro-4,4',6-trimethoxy-3',6'-dimethyl-
Formula: C18H19ClO6
CAS: 26881-71-0
Molecular weight: 366
m/z	intensity
39	90
41	180
42	10
43	330
44	20
45	80
53	110
54	240
55	130
57	80
59	80
69	100
70	80
77	60
81	50
83	200
84	180
85	20
112	999
113	100
114	10
150	80
152	80
178	270
179	450
180	70
188	50
214	160
215	480
216	110
217	170
218	20
223	50
225	100
226	10
227	50
228	50
236	60
239	80
253	50
254	210
255	140
256	80
257	50
323	80
335	110
336	20
337	50
338	100
339	50
349	50
351	170
352	30
353	70
354	10
366	350
367	90
368	130
369	30
