Mass Spectrum: Ethane-1,1-diol dipropanoate
Formula: C8H14O4
CAS: 26880-30-8
Molecular weight: 174
m/z	intensity
42	10
43	70
44	30
45	29
55	19
56	40
57	999
58	30
73	10
74	9
101	210
102	9
131	10
