Mass Spectrum: Spiro[benzofuran-2(3H),1'-[3]cyclohexene]-2',3-dione, 7-chloro-6-hydroxy-4'-methoxy-4,6'-dimethyl-
Formula: C16H15ClO5
CAS: 26881-78-7
Molecular weight: 322
m/z	intensity
39	180
40	190
41	150
42	10
43	100
44	180
45	10
51	100
53	80
55	80
59	50
63	130
64	10
67	50
68	400
69	390
70	30
77	120
98	999
99	100
100	10
107	100
129	80
138	180
139	20
140	80
149	80
157	60
172	280
173	30
174	100
175	10
184	120
185	280
186	70
187	100
188	10
198	220
199	60
200	80
223	70
224	200
225	420
226	130
227	150
228	20
267	70
280	150
281	30
282	80
283	10
307	80
309	30
322	210
323	30
324	80
325	10
