Mass Spectrum: Pyridine, 3-(butylthio)-
Formula: C9H13NS
CAS: 26891-65-6
Molecular weight: 167
m/z	intensity
29	599
38	40
39	466
41	366
45	66
50	40
51	133
55	53
56	53
57	200
67	133
78	133
80	53
82	80
83	106
110	66
111	999
112	120
113	53
124	200
126	40
167	533
168	53
