Mass Spectrum: Pyridine, 4-(butylthio)-
Formula: C9H13NS
CAS: 26891-64-5
Molecular weight: 167
m/z	intensity
29	637
39	413
41	465
45	86
50	69
51	310
52	69
53	51
55	69
56	172
57	224
59	51
68	120
78	120
80	103
83	51
84	69
97	51
110	69
111	999
112	301
113	69
124	224
125	155
138	69
167	689
168	86
