Mass Spectrum: Tricyclo(5.2.1.0(2,6))decanedimethanol
Formula: C12H20O2
CAS: 26896-48-0
Molecular weight: 196
m/z	intensity
29	96
31	558
39	194
40	25
41	426
42	14
43	63
44	7
45	6
51	60
52	29
53	163
54	37
55	198
56	16
57	132
58	4
63	14
64	3
65	267
66	297
67	985
68	84
69	100
70	33
71	10
77	477
78	170
79	999
80	425
81	547
82	53
83	46
84	9
89	1
91	842
92	185
93	269
94	49
95	125
96	86
97	73
98	12
99	3
103	53
104	51
105	431
106	96
107	162
108	14
109	47
110	19
111	4
115	40
116	15
117	111
118	47
119	448
120	136
121	63
122	15
123	26
124	9
125	6
128	11
129	18
130	8
131	67
132	42
133	26
134	21
135	52
136	20
137	56
138	14
145	85
146	12
147	450
148	78
149	25
150	18
155	8
159	1
160	37
161	6
163	12
165	147
166	44
167	4
178	7
