Mass Spectrum: Pyridine, 2-(octylthio)-
Formula: C13H21NS
CAS: 26891-70-3
Molecular weight: 223
m/z	intensity
29	114
32	85
39	142
41	185
43	285
51	42
55	142
56	71
57	200
67	71
69	85
71	114
78	85
79	128
80	85
83	71
110	71
111	999
112	228
113	71
124	178
125	142
138	57
167	57
176	85
180	42
190	71
223	357
224	85
225	42
