Mass Spectrum: 2-Pyridinecarboxylic acid, 6-methoxy-
Formula: C7H7NO3
CAS: 26893-73-2
Molecular weight: 153
m/z	intensity
45	94
50	122
51	122
52	103
53	83
64	158
65	217
66	150
76	72
77	534
78	161
79	208
80	100
93	402
94	194
105	999
106	275
107	258
108	289
109	332
123	226
124	108
152	844
153	874
154	77
