Mass Spectrum: s-Triazole-3-carboxaldehyde, 5-phenyl-
Formula: C9H7N3O
CAS: 26899-64-9
Molecular weight: 173
m/z	intensity
50	60
51	70
61	60
62	140
63	330
64	60
74	80
75	130
76	390
77	520
78	60
86	60
87	60
88	80
89	320
90	999
91	350
92	130
93	50
104	320
105	70
116	80
117	280
118	100
128	50
145	150
173	470
174	60
