Mass Spectrum: Methanone, 2-furanylphenyl-
Formula: C11H8O2
CAS: 2689-59-0
Molecular weight: 172
m/z	intensity
24	2
26	3
27	20
28	10
29	10
37	19
38	50
39	182
40	7
41	2
50	97
51	268
52	14
53	12
58	33
61	6
62	17
63	37
64	4
65	12
66	6
67	28
72	55
74	35
75	26
77	685
78	46
86	6
87	6
88	5
89	28
90	4
95	612
96	33
105	999
106	75
107	1
113	4
115	152
116	147
117	10
130	55
131	3
142	2
143	10
144	174
145	16
155	10
156	1
171	89
172	905
173	110
174	8
