Mass Spectrum: 1,3-Dioxolane, 2-(o-aminophenyl)-
Formula: C9H11NO2
CAS: 26908-34-9
Molecular weight: 165
m/z	intensity
25	0
26	10
27	53
29	12
30	21
31	13
33	4
37	15
38	37
39	158
40	10
41	35
42	19
43	19
44	2
45	204
46	8
47	0
49	3
50	51
51	92
52	96
53	26
54	24
55	1
56	0
59	0
60	2
61	6
62	20
63	51
64	47
65	285
66	224
67	25
68	2
73	234
74	22
75	16
76	60
77	131
78	77
79	25
80	11
81	1
82	10
86	1
87	1
88	1
89	7
90	17
91	43
92	311
93	999
94	93
95	2
102	4
103	4
104	233
105	29
106	342
107	86
108	8
109	0
116	3
117	8
118	41
119	536
120	503
121	72
122	117
123	6
129	1
130	2
132	2
133	0
134	29
135	5
136	1
137	403
138	34
139	2
146	1
147	1
148	29
149	4
163	2
164	361
165	832
166	86
167	8
