Mass Spectrum: N-Acetyl-L-alanyl-L-alanyl-L-alanine methyl ester
Formula: C12H21N3O5
CAS: 26910-17-8
Molecular weight: 287
m/z	intensity
14	1
15	22
26	1
27	12
28	43
29	9
30	18
31	3
39	1
40	2
41	7
42	43
43	82
44	999
45	44
46	2
54	1
55	16
56	17
57	7
58	6
59	12
60	6
68	2
69	2
70	36
71	25
72	50
73	8
83	1
84	3
85	3
86	186
87	165
88	9
97	5
98	4
99	45
100	9
102	11
103	1
104	29
105	1
113	10
114	179
115	11
116	2
126	1
127	9
129	1
130	6
131	1
140	1
141	46
142	4
143	12
144	15
145	1
149	1
156	1
157	167
158	157
159	56
160	4
169	9
170	1
171	4
174	3
175	1
184	1
185	68
186	7
187	1
201	51
202	8
203	1
213	2
214	3
228	26
229	3
256	3
287	3
288	1
