Mass Spectrum: 3H-Naphth[1,8a-b]oxiren-2(1aH)-one, hexahydro-
Formula: C10H14O2
CAS: 26923-55-7
Molecular weight: 166
m/z	intensity
26	46
27	483
28	395
29	273
30	9
31	16
34	3
35	22
36	4
37	15
38	41
39	593
40	135
41	669
42	134
43	201
44	21
45	10
47	41
48	18
49	127
50	55
51	157
52	82
53	305
54	117
55	528
56	72
57	45
58	6
59	3
60	3
61	5
62	13
63	38
64	12
65	116
66	80
67	999
68	124
69	164
70	27
71	12
72	1
73	2
74	8
75	10
76	5
77	185
78	55
79	326
80	108
81	375
82	62
83	65
84	85
85	8
86	39
87	2
88	7
89	6
90	4
91	180
92	50
93	348
94	132
95	596
96	204
97	66
98	15
99	3
103	6
104	5
105	23
106	14
107	34
108	50
109	284
110	86
111	456
112	42
113	3
115	4
117	8
118	4
119	122
120	49
121	44
122	47
123	44
124	20
125	3
127	2
129	3
131	3
133	5
135	9
136	25
137	214
138	164
139	17
147	3
148	15
149	4
150	9
151	7
164	3
165	5
166	260
167	34
168	3
