Mass Spectrum: 1,3-Dioxolane, 2-ethenyl-2-methyl-
Formula: C6H10O2
CAS: 26924-35-6
Molecular weight: 114
m/z	intensity
12	6
13	15
14	64
15	240
16	7
17	7
18	24
19	4
24	1
25	10
26	89
27	358
28	109
29	108
30	14
31	12
36	1
37	10
38	17
39	166
40	10
41	44
42	61
43	999
44	31
45	24
49	4
50	24
51	29
52	17
53	80
54	95
55	509
56	18
57	2
58	7
61	3
69	17
70	15
71	15
78	1
83	34
84	3
85	1
86	3
87	563
88	25
89	2
99	303
100	17
101	1
113	4
