Mass Spectrum: Hexadecanoic acid, 1,5-pentanediyl ester
Formula: C37H72O4
CAS: 26933-79-9
Molecular weight: 580
m/z	intensity
26	12
27	60
28	192
29	166
30	6
31	7
32	17
35	3
36	8
37	4
38	5
39	47
40	17
41	442
42	115
43	666
44	58
45	19
50	5
51	5
52	3
53	24
54	43
55	416
56	166
57	628
58	41
59	19
60	68
61	24
62	3
63	5
64	3
65	5
66	10
67	134
68	929
69	999
70	134
71	352
72	275
73	102
74	8
75	7
76	3
77	7
78	6
79	23
80	16
81	96
82	52
83	224
84	314
85	346
86	53
87	647
88	36
89	7
90	2
91	10
92	5
93	21
94	16
95	112
96	47
97	185
98	564
99	102
100	64
101	57
102	7
103	8
104	3
105	17
106	5
107	18
108	10
109	60
110	26
111	102
112	211
113	66
114	14
115	26
116	10
117	6
118	2
119	5
120	3
121	26
122	8
123	36
124	17
125	43
126	55
127	24
128	63
129	70
130	10
131	6
132	2
133	5
134	3
135	23
136	8
137	22
138	16
139	29
140	33
141	66
142	16
143	12
144	6
145	6
146	10
147	115
148	12
149	17
150	7
151	10
152	14
153	19
154	58
155	20
156	8
157	10
158	3
159	5
160	2
161	3
162	2
163	8
164	3
165	7
166	9
167	14
168	29
169	13
170	6
171	8
172	3
173	5
174	3
175	3
176	3
177	7
178	4
179	5
180	5
181	13
182	42
183	16
184	7
185	10
186	3
187	4
188	30
189	5
190	1
191	5
192	5
193	5
194	11
195	14
196	19
197	13
198	5
199	7
200	3
201	17
202	10
203	7
204	5
205	5
206	3
207	9
208	4
209	9
210	8
211	5
212	3
213	9
214	3
215	7
216	14
217	5
218	4
219	14
220	8
221	6
222	3
223	5
224	3
225	8
226	3
227	4
228	3
229	9
230	16
231	4
232	2
233	1
234	3
235	3
236	19
237	25
238	205
239	442
240	83
241	12
242	3
243	7
244	10
245	3
246	1
247	1
248	1
249	1
250	1
251	2
252	3
253	5
254	10
255	17
256	26
257	115
258	23
259	4
260	1
261	1
262	1
263	1
264	2
265	3
266	3
267	8
268	4
269	1
270	1
271	5
272	6
273	2
274	1
278	1
279	2
280	15
281	11
282	5
283	7
284	3
285	5
286	7
287	2
292	2
293	3
294	8
295	7
296	6
297	3
298	3
299	5
300	7
301	2
302	1
304	1
305	2
306	1
307	2
308	4
309	3
310	4
311	3
312	3
313	5
314	6
315	2
316	1
317	1
321	3
322	3
323	7
324	83
325	67
326	14
327	5
328	5
329	2
330	1
331	1
332	1
336	2
337	2
338	3
339	3
340	2
341	7
342	17
343	185
344	36
345	8
346	1
347	1
348	1
349	1
350	1
351	2
352	4
353	1
354	2
355	2
356	1
357	1
363	1
364	1
365	1
366	3
367	1
368	1
369	4
370	2
371	1
378	1
379	1
380	1
384	147
385	39
386	8
387	2
388	1
390	1
391	1
392	1
393	1
394	1
395	1
397	17
398	6
399	1
407	1
408	1
409	1
410	1
411	1
412	3
413	1
421	1
422	1
423	1
425	2
426	3
427	1
428	1
435	1
440	2
441	1
445	1
446	1
447	1
448	1
454	1
455	1
460	1
461	1
468	2
469	1
470	1
476	2
477	1
478	1
482	3
483	1
496	2
497	1
498	1
510	2
523	1
524	1
525	1
538	1
551	1
552	1
553	1
580	32
581	14
582	5
583	2
