Mass Spectrum: 4-(3-Dimethylaminopropoxy)benzaldehyde
Formula: C12H17NO2
CAS: 26934-35-0
Molecular weight: 207
m/z	intensity
15	11
17	0
18	2
20	1
26	2
27	9
28	11
29	13
30	29
31	1
32	0
36	1
37	1
38	6
39	29
40	4
41	20
42	63
43	14
44	20
45	12
50	6
51	16
52	1
53	2
54	1
55	2
56	11
58	999
59	36
62	3
63	9
64	7
65	26
66	3
67	1
68	3
70	8
71	5
72	1
73	11
74	2
75	2
76	4
77	15
78	2
79	2
83	1
84	14
85	4
86	3
91	2
92	6
93	5
103	3
105	6
120	1
121	8
122	4
147	1
207	16
208	2
