Mass Spectrum: Cyclohexanone, 2-(3-oxobutyl)-
Formula: C10H16O2
CAS: 26942-62-1
Molecular weight: 168
m/z	intensity
26	9
27	64
28	28
29	97
30	3
31	8
38	9
39	158
40	34
41	283
42	73
43	999
44	57
45	17
46	3
50	10
51	28
52	12
53	70
54	77
55	687
56	48
57	76
58	275
59	35
60	6
61	2
62	4
63	7
64	6
65	30
66	24
67	194
68	66
69	145
70	214
71	164
72	21
73	8
74	3
75	5
76	5
77	60
78	18
79	160
80	54
81	162
82	137
83	370
84	115
85	35
86	3
87	5
89	6
91	59
92	22
93	124
94	40
95	85
96	28
97	326
98	791
99	74
100	6
103	7
104	8
105	22
106	15
107	77
108	49
109	36
110	212
111	858
112	91
113	17
114	6
115	13
116	7
117	11
119	12
120	7
121	104
122	90
123	22
124	11
125	153
126	20
127	7
128	7
129	10
130	4
131	8
132	5
133	11
134	7
135	117
136	15
137	8
138	5
139	12
140	20
141	19
142	4
145	6
146	3
147	13
148	7
149	106
150	140
151	34
152	9
153	15
154	6
158	0
167	19
168	297
169	48
170	7
