Mass Spectrum: 3-Ethyl-benzotriazin-4-one
Formula: C9H9N3O
CAS: 26944-60-5
Molecular weight: 175
m/z	intensity
42	425
50	827
51	441
63	332
64	341
65	178
74	257
75	278
76	679
77	999
78	260
90	198
91	657
92	358
104	328
105	410
106	200
118	357
119	397
132	490
146	250
175	389
176	100
