Mass Spectrum: Glibornuride
Formula: C18H26N2O4S
CAS: 26944-48-9
Molecular weight: 366
m/z	intensity
38	20
39	150
40	90
41	130
42	20
43	40
44	40
45	10
50	30
51	50
52	20
53	30
54	10
55	40
56	110
57	20
58	10
59	30
60	10
61	10
62	20
63	70
64	20
65	220
66	20
67	30
68	10
69	30
70	20
71	30
73	10
77	50
78	20
79	30
80	10
81	30
82	30
83	30
84	200
85	20
86	20
89	50
90	30
91	999
92	80
93	20
94	10
95	130
96	20
97	10
98	80
99	10
105	10
106	10
107	40
108	40
109	50
110	20
119	10
121	10
122	10
123	20
124	20
134	20
136	20
137	10
139	10
140	30
141	10
152	20
154	10
155	510
156	40
157	20
168	20
169	10
171	30
195	10
197	240
198	20
199	10
211	10
