Mass Spectrum: Thiophene, 2-ethyl-5-isopentyl-
Formula: C11H18S
CAS: 26963-39-3
Molecular weight: 182
m/z	intensity
37	3
38	8
39	80
40	10
41	85
42	12
43	26
44	1
45	59
46	2
47	9
49	1
50	9
51	22
52	8
53	21
54	2
55	9
56	2
57	14
58	13
59	20
60	2
61	3
62	4
63	11
64	3
65	24
66	14
67	10
68	2
69	17
70	7
71	21
72	2
73	7
74	3
75	3
76	2
77	31
78	10
79	18
80	2
81	9
82	4
83	3
84	7
85	12
86	2
87	2
88	1
89	4
90	3
91	57
92	18
93	6
94	1
95	8
96	4
97	94
98	8
99	7
100	1
101	1
102	1
103	3
104	2
105	4
106	1
107	1
108	2
109	12
110	62
111	55
112	22
113	26
114	4
115	4
116	1
117	2
118	1
119	1
121	5
122	3
123	49
124	15
125	999
126	189
127	65
128	11
129	1
133	1
134	3
135	4
136	2
137	9
138	3
139	16
140	2
141	1
147	1
148	1
149	2
150	1
151	2
152	1
153	6
154	1
155	1
165	1
166	1
167	32
168	7
169	2
170	1
180	1
181	3
182	213
183	28
184	13
185	1
186	1
