Mass Spectrum: 1H-Pyrazole, 4,5-dihydro-3-methyl-1-propyl-
Formula: C7H14N2
CAS: 26964-49-8
Molecular weight: 126
m/z	intensity
26	13
27	93
28	35
29	38
30	18
39	40
41	88
42	333
43	27
52	5
53	9
54	27
55	22
56	70
57	7
58	4
68	33
69	200
70	13
81	5
82	7
83	50
84	9
95	17
96	15
97	999
98	73
124	5
125	13
126	215
127	18
