Mass Spectrum: 1-Buten-3-yne,4-trimethylsilyl
Formula: C7H12Si
CAS: 2696-32-4
Molecular weight: 124
m/z	intensity
38	15
39	70
41	11
43	556
44	40
45	58
50	23
51	52
53	369
55	269
56	13
57	34
58	43
59	21
63	17
65	53
66	94
67	204
68	25
69	102
73	17
77	92
79	181
80	18
81	92
82	13
83	210
84	17
93	71
94	12
95	21
97	20
107	22
109	999
110	159
111	58
124	295
125	31
126	11
