Mass Spectrum: Thiophene, 2-(3-methylbutyl)-
Formula: C9H14S
CAS: 26963-33-7
Molecular weight: 154
m/z	intensity
36	1
37	8
38	20
39	126
40	12
41	100
42	15
43	27
44	2
45	137
46	5
47	12
49	2
50	15
51	29
52	10
53	58
54	4
55	14
56	3
57	46
58	26
59	9
60	2
61	3
62	6
63	17
64	3
65	17
66	7
67	11
68	2
69	24
70	22
71	20
72	2
73	2
74	3
75	2
76	2
77	21
78	9
79	7
80	1
81	5
82	7
83	4
84	36
85	37
86	5
87	2
88	1
89	1
90	1
91	6
92	1
93	4
94	1
95	7
96	9
97	999
98	411
99	70
100	18
101	2
102	1
103	1
104	1
105	2
106	1
107	1
108	2
109	11
110	14
111	44
112	5
113	3
114	1
115	1
116	1
121	3
122	1
123	6
124	2
125	5
126	1
127	1
132	1
134	1
135	1
137	2
138	1
139	2
140	3
141	1
153	2
154	188
155	21
156	9
157	1
