Mass Spectrum: N,N-Dimethyl-4-oxo-4-phenyl-butyramide
Formula: C12H15NO2
CAS: 26976-88-5
Molecular weight: 205
m/z	intensity
12	4
13	4
15	432
16	11
18	412
19	5
26	44
27	258
28	275
29	112
30	49
31	17
32	2
37	5
38	17
39	57
40	20
41	50
42	340
43	114
44	888
45	209
46	233
47	6
50	124
51	401
52	31
53	18
55	241
56	78
57	84
58	63
59	3
61	3
62	7
63	18
64	3
65	18
66	4
67	3
68	7
69	5
70	9
72	435
73	29
74	29
75	23
77	739
78	64
79	16
80	2
81	2
82	6
83	3
84	3
85	4
86	7
88	25
89	33
90	5
91	33
92	4
98	14
100	434
101	28
102	7
103	24
105	999
106	81
107	8
115	98
116	13
117	56
118	11
119	3
120	16
121	3
122	2
128	20
129	3
130	3
131	14
133	233
134	25
135	3
143	3
149	3
150	6
161	368
162	43
163	3
177	5
188	2
205	77
206	28
207	4
