Mass Spectrum: Phosphoramidic acid, dimethyl ester
Formula: C2H8NO3P
CAS: 2697-42-9
Molecular weight: 125
m/z	intensity
46	180
47	56
63	20
64	74
65	60
79	140
80	186
94	374
95	999
96	20
109	34
125	334
126	30
