Mass Spectrum: 4,5-Secoakuammilan-17-oic acid, 2,5-epoxy-1,2-dihydro-16-(hydroxymethyl)-, methyl ester, (2.alpha.,16S)-
Formula: C21H26N2O4
CAS: 26988-11-4
Molecular weight: 370
m/z	intensity
61	30
62	18
63	12
64	6
65	18
66	6
67	18
68	24
69	9
70	3
71	30
72	24
73	18
74	9
75	6
76	18
77	42
78	24
79	33
80	45
81	27
82	27
83	12
84	9
85	6
88	6
89	21
90	6
91	30
92	21
93	51
94	42
95	18
96	9
97	9
98	9
101	6
102	21
103	21
104	21
105	21
106	81
107	81
108	999
109	142
110	27
111	15
112	3
113	12
114	15
115	36
116	24
117	33
118	21
119	6
120	24
121	18
122	75
123	30
124	21
125	9
126	6
127	21
128	30
129	27
130	78
131	36
132	21
133	3
134	6
135	3
140	6
141	6
142	9
143	24
144	63
145	12
146	24
147	6
148	6
151	9
152	6
153	18
154	30
155	21
156	66
157	21
158	21
159	60
160	24
161	6
162	9
163	9
164	3
165	12
166	24
167	39
168	30
169	27
170	21
171	9
172	42
173	6
174	21
175	6
176	18
177	3
178	24
179	6
180	48
181	9
182	21
183	6
184	30
185	24
186	24
187	24
188	9
189	6
190	18
191	9
192	27
193	12
194	27
195	3
196	9
200	6
201	6
202	24
203	6
204	36
205	6
226	3
227	18
228	21
229	15
230	15
231	24
232	54
233	18
234	9
235	6
236	21
237	15
238	6
243	6
244	9
245	24
246	18
247	6
248	12
249	24
250	6
251	12
252	3
261	6
262	18
263	27
264	24
265	9
266	18
267	39
268	12
269	6
277	6
278	12
279	18
280	3
281	3
286	9
287	15
288	3
289	21
290	3
291	6
292	12
293	24
294	18
295	6
296	3
306	6
307	9
308	9
309	18
310	24
311	30
312	3
313	6
320	18
321	3
322	15
323	15
324	24
325	6
326	6
327	6
328	21
329	6
339	36
340	12
341	21
342	3
343	3
349	3
350	9
351	3
352	6
353	21
354	6
355	3
367	6
368	9
369	36
370	193
371	48
372	15
373	3
