Mass Spectrum: Cholestanone oxime acetate
Formula: C29H49NO2
CAS: 26988-10-3
Molecular weight: 443
m/z	intensity
41	198
43	999
44	34
45	5
49	5
51	2
53	37
55	237
57	150
58	8
60	11
65	7
67	116
69	240
70	34
71	90
72	2
73	5
77	31
79	134
81	207
83	77
84	6
85	13
86	3
87	3
91	58
93	89
95	186
96	31
97	49
98	5
99	3
103	2
105	74
107	127
108	40
109	60
110	5
112	135
113	9
114	2
115	3
117	16
119	43
121	79
122	24
123	64
124	20
125	12
126	4
127	3
128	1
129	5
131	23
133	53
134	33
135	31
136	14
137	5
138	10
139	14
140	2
141	3
143	11
144	1
145	21
146	6
147	30
148	21
149	17
150	4
151	3
152	14
154	8
155	1
157	8
158	9
159	23
160	24
161	29
162	16
163	9
164	1
165	2
166	1
167	3
169	5
171	8
172	11
173	12
174	15
175	12
176	13
178	17
179	5
180	4
181	1
183	3
185	6
186	15
187	29
188	14
189	13
190	3
191	1
192	1
193	3
194	2
197	4
198	1
200	18
201	8
202	8
203	6
204	3
205	1
206	2
208	1
211	7
212	2
213	4
214	48
215	14
216	8
217	5
218	1
219	4
220	3
226	2
227	0
228	91
229	22
230	35
231	19
232	19
233	4
242	12
244	20
246	34
247	19
248	8
250	0
256	5
257	5
258	5
260	6
261	16
262	5
270	9
272	3
274	3
275	3
286	5
287	1
288	35
289	52
290	8
298	3
300	0
301	5
303	10
304	1
312	1
314	1
315	0
326	0
327	2
328	3
329	3
330	0
340	2
354	2
356	2
367	2
368	37
369	9
370	3
382	5
383	15
384	20
385	15
386	15
387	3
400	4
401	20
402	6
426	3
443	63
444	22
445	4
