Mass Spectrum: Sulfuryl fluoride
Formula: F2O2S
CAS: 2699-79-8
Molecular weight: 102
m/z	intensity
16	39
19	14
32	126
34	3
48	79
49	1
50	3
51	28
53	1
64	76
65	1
66	3
67	290
68	3
69	14
70	20
72	1
83	999
84	8
85	50
86	18
87	3
88	3
102	742
103	5
104	38
