Mass Spectrum: 2H-Cyclopenta[d]pyridazine
Formula: C7H6N2
CAS: 270-64-4
Molecular weight: 118
m/z	intensity
37	30
38	110
39	80
40	10
50	20
51	20
52	30
59	11
61	30
62	60
63	170
64	150
65	30
89	60
90	130
91	190
92	20
117	90
118	999
119	80
