Mass Spectrum: 5H-1-Pyrindine
Formula: C8H7N
CAS: 270-91-7
Molecular weight: 117
m/z	intensity
26	19
27	29
28	11
29	2
31	2
36	2
37	34
38	57
39	126
40	41
41	12
42	1
43	12
44	3
45	3
48	2
49	9
50	57
51	69
52	28
53	5
54	5
55	2
57	2
58	3
59	3
60	4
61	29
62	71
63	163
64	84
65	23
66	5
67	4
69	2
71	1
73	10
74	16
75	14
76	15
77	12
78	16
79	1
84	2
85	6
86	11
87	17
88	21
89	413
90	675
91	71
92	5
97	1
102	1
103	2
104	2
105	1
111	1
114	8
115	10
116	104
117	999
118	99
119	5
