Mass Spectrum: Acetamide, 2-benzylthio-N-(2,4-difluorophenyl)-
Formula: C15H13F2NOS
CAS: 270086-87-8
Molecular weight: 293
m/z	intensity
33	3
34	1
35	0
36	0
37	3
38	11
39	89
40	13
41	27
42	15
43	12
44	40
45	133
46	31
47	33
48	2
49	2
50	22
51	62
52	15
53	4
54	0
55	3
56	4
57	14
58	3
59	5
60	2
61	4
62	14
63	58
64	19
65	197
66	11
67	1
68	2
69	7
70	3
71	2
72	1
73	1
74	6
75	23
76	8
77	35
78	11
79	9
80	2
81	10
82	13
83	4
84	1
85	1
86	1
87	2
88	3
89	39
91	999
92	80
93	5
94	2
95	15
96	3
97	2
98	1
99	5
100	14
101	92
102	15
103	2
104	2
105	1
106	0
107	4
108	12
109	7
110	2
111	0
112	2
113	9
114	5
115	3
116	5
117	0
118	0
119	0
120	3
121	21
122	14
123	117
124	14
125	5
126	5
127	50
128	210
129	124
130	11
131	1
133	7
134	2
135	5
136	1
137	8
138	1
139	2
140	10
141	5
142	54
143	4
145	0
146	2
151	138
152	98
153	12
154	5
155	9
156	4
157	0
158	0
159	2
160	36
161	3
162	1
164	1
168	1
169	3
170	28
171	651
172	60
173	4
174	5
175	0
183	0
185	0
187	0
189	0
201	0
202	0
203	1
218	3
219	0
293	58
294	9
295	3
296	0
