Mass Spectrum: Butane-1,2,3,4-tetraone, 1-(4-methylphenyl)-4-(1-piperidyl)-, 2-phenylhydrazone
Formula: C22H23N3O3
CAS: 270069-73-3
Molecular weight: 377
m/z	intensity
33	13
34	0
36	1
39	240
41	775
42	108
43	72
44	19
45	1
46	0
50	19
51	79
52	19
53	26
54	29
55	73
56	202
57	11
58	1
59	0
61	3
63	73
65	586
67	47
69	639
70	65
73	0
74	4
75	8
77	306
78	14
79	2
81	3
82	9
84	190
85	70
86	7
89	64
91	584
92	352
93	45
95	3
96	0
98	2
99	1
100	1
101	2
102	4
103	7
105	257
106	14
107	0
109	0
112	715
113	34
114	4
115	5
116	6
119	999
120	55
121	3
122	0
123	1
125	0
126	1
127	1
128	2
129	1
130	1
131	4
132	2
133	1
134	0
135	0
136	0
137	2
138	1
139	2
140	0
141	0
143	4
144	5
145	21
146	16
147	2
148	0
149	1
150	1
151	2
152	5
153	9
154	1
155	0
158	0
159	5
160	12
161	5
162	0
163	0
164	0
165	8
166	4
167	4
168	0
172	0
173	2
174	0
175	1
176	0
177	0
178	1
179	0
180	1
181	1
182	4
183	5
184	0
186	0
187	2
188	0
189	1
190	0
191	1
192	1
193	0
194	4
195	6
196	0
200	0
201	1
202	3
203	9
204	13
205	2
206	0
207	1
208	0
210	4
211	0
213	0
214	0
215	0
220	0
221	0
224	0
225	0
226	2
227	1
228	2
229	1
230	2
231	0
235	1
236	14
237	23
238	4
239	0
241	0
244	0
249	0
250	0
252	0
256	0
257	1
258	12
259	3
260	0
262	1
263	5
265	212
266	35
267	3
268	0
272	0
276	0
277	0
278	0
285	7
286	1
287	0
289	1
290	0
291	0
292	2
293	1
294	1
300	0
302	1
303	0
304	0
306	38
307	9
308	0
336	1
374	0
375	1
377	132
378	31
379	4
380	0
