Mass Spectrum: 3-Decanynoic acid
Formula: C10H16O2
CAS: 27007-78-9
Molecular weight: 168
m/z	intensity
41	431
42	67
43	118
44	14
45	128
46	6
47	13
48	6
49	8
50	23
51	7
52	42
53	137
54	57
55	290
56	41
57	32
58	5
59	17
60	76
61	8
62	5
63	19
64	9
65	93
66	53
67	806
68	999
69	209
70	23
71	29
72	4
73	45
74	7
75	3
76	3
77	121
78	59
79	265
80	80
81	412
82	857
83	159
84	54
85	42
86	23
87	23
88	5
89	4
91	99
92	18
93	194
94	104
95	366
96	64
97	35
98	16
99	17
100	6
101	8
102	3
103	5
104	3
105	50
106	27
107	183
108	45
109	210
110	41
111	50
112	11
113	14
114	4
115	9
116	2
117	9
118	3
119	22
120	6
121	125
122	51
123	51
124	35
125	25
126	29
127	20
128	5
129	17
130	2
131	29
132	4
133	10
134	12
135	108
136	177
137	49
139	20
140	30
141	8
142	1
143	2
144	1
145	10
146	1
147	3
149	9
150	2
151	1
152	3
153	42
154	35
155	6
156	1
157	1
166	2
167	10
168	39
169	5
170	1
