Mass Spectrum: Acetamide, N-tricyclo[4.3.1.1(3,8)]undec-3-yl-
Formula: C13H21NO
CAS: 27011-43-4
Molecular weight: 207
m/z	intensity
39	50
40	80
41	170
42	100
43	999
44	350
45	20
51	20
52	20
53	40
54	40
55	80
56	50
57	100
58	260
59	30
60	130
61	20
65	40
66	50
67	110
68	30
69	100
70	230
71	50
72	20
73	10
76	30
77	30
78	80
79	70
80	320
81	280
82	90
83	80
84	30
85	10
87	10
91	250
92	280
93	210
94	840
95	90
96	50
97	20
98	20
99	40
100	50
101	20
103	20
105	20
106	320
107	200
108	120
109	180
110	60
111	20
112	20
113	10
114	20
115	10
117	10
118	20
119	80
120	60
121	30
122	50
123	20
124	30
125	20
131	20
133	150
134	30
135	70
136	540
137	70
138	20
146	20
147	30
148	999
149	130
150	240
151	70
152	10
163	10
164	80
165	40
166	20
178	30
179	10
190	10
192	60
193	10
206	30
207	740
208	120
209	10
