Mass Spectrum: Acetamide, N-tricyclo[4.3.1.1(3,8)]undec-1-yl-
Formula: C13H21NO
CAS: 27011-42-3
Molecular weight: 207
m/z	intensity
39	50
40	70
41	80
42	80
43	999
44	330
45	20
53	20
54	20
55	50
56	20
57	60
58	50
59	20
60	40
65	30
66	30
67	60
68	30
69	30
70	30
77	40
78	30
79	80
80	60
81	60
82	30
83	30
91	90
92	110
93	90
94	300
95	90
96	20
100	20
101	20
105	60
106	50
107	50
108	80
109	40
110	20
119	40
120	30
121	10
122	20
123	10
124	40
125	10
133	40
134	10
135	20
136	999
137	100
138	20
148	160
149	40
150	50
151	20
164	40
165	20
166	20
192	40
206	20
207	280
208	50
209	20
