Mass Spectrum: Propanamide, 2-benzyloxycarbonylamino-3-(3-indolyl)-
Formula: C19H19N3O3
CAS: 27018-75-3
Molecular weight: 337
m/z	intensity
36	0
37	1
38	5
39	33
40	6
41	19
42	6
43	20
44	73
45	12
46	1
49	0
50	14
51	34
52	14
53	5
54	2
55	6
56	3
57	16
58	1
59	2
60	0
61	2
62	6
63	23
64	8
65	99
66	6
67	1
68	1
69	3
70	5
71	2
72	3
73	4
74	5
75	8
76	13
77	106
78	17
79	32
80	3
81	0
82	0
83	1
84	1
85	1
86	2
87	4
88	2
89	40
90	41
91	493
92	42
93	2
94	0
95	0
96	1
97	1
98	1
99	2
100	5
101	9
102	37
103	63
104	8
105	8
106	1
107	18
108	12
109	1
110	0
111	0
112	1
113	3
114	3
115	17
116	6
117	15
118	4
119	1
120	1
121	0
122	0
123	0
124	0
125	0
126	0
127	2
128	30
129	35
130	999
131	113
132	19
133	2
134	1
135	0
136	0
139	0
140	4
141	9
142	8
143	7
144	8
145	4
146	4
147	1
149	0
150	0
151	0
152	0
153	0
154	0
155	8
156	8
157	20
158	24
159	14
160	1
161	0
163	0
164	1
165	0
167	3
168	1
169	4
170	11
171	3
173	0
174	0
175	1
177	1
178	0
179	0
180	0
181	0
183	1
184	3
185	25
186	263
187	34
188	3
189	0
190	0
191	0
192	0
193	0
194	0
195	0
196	0
199	0
200	0
201	4
202	4
203	2
204	1
205	1
206	6
207	1
208	1
210	0
211	0
213	0
214	0
217	1
218	2
219	1
220	3
221	0
222	0
224	0
225	0
228	0
229	5
230	2
231	0
232	2
233	0
236	0
238	0
239	0
242	0
244	0
246	0
247	1
248	0
249	3
250	0
259	0
261	0
262	0
264	0
275	0
276	0
283	0
284	0
292	2
293	4
294	0
295	0
305	0
308	0
309	0
310	1
336	1
337	44
338	9
339	1
