Mass Spectrum: 1-Benzoylimidazolidin-2-one
Formula: C10H10N2O2
CAS: 27034-77-1
Molecular weight: 190
m/z	intensity
50	41
51	187
52	6
56	19
58	12
74	5
75	10
76	28
77	597
78	41
84	2
85	214
86	50
87	2
104	4
105	999
106	86
107	1
162	45
163	2
189	18
190	205
191	21
