Mass Spectrum: 2,2'-Dithiodicyclohexanol
Formula: C12H22O2S2
CAS: 27040-92-2
Molecular weight: 262
m/z	intensity
41	123
42	13
43	67
45	50
46	2
47	23
49	15
50	0
51	7
52	0
53	31
54	8
55	85
57	46
58	1
59	15
60	8
61	7
63	2
64	2
65	7
66	3
67	31
68	4
69	26
70	12
71	9
73	10
74	2
75	1
77	8
79	67
81	999
82	59
83	2
84	11
85	8
86	9
87	5
88	1
91	1
92	0
93	0
95	2
96	1
97	20
98	13
99	87
101	5
102	1
103	1
105	2
111	3
112	0
113	18
114	8
115	5
117	0
119	0
129	2
130	12
131	8
132	2
133	0
139	0
144	2
145	1
146	96
147	8
148	8
162	0
163	1
164	8
165	0
179	0
195	1
212	0
213	2
215	0
228	0
244	0
245	6
246	0
247	0
260	1
262	85
263	10
264	7
