Mass Spectrum: 3-(3,5-Dimethyl-1H-pyrozol-1-yl)-6-(4-morpholinyl)-1,2,4,5-tetrazine
Formula: C11H15N7O
CAS: 270588-64-2
Molecular weight: 261
m/z	intensity
40	54
41	126
42	343
43	91
44	47
45	21
46	1
50	2
51	13
52	31
53	24
54	286
55	588
56	52
57	162
65	31
66	42
67	151
68	32
69	83
72	37
73	2
79	44
80	91
81	68
82	101
83	11
84	15
85	56
86	81
87	2
91	4
92	3
93	17
94	22
95	36
96	13
97	5
98	1
99	1
100	1
104	1
105	1
106	113
107	14
108	3
109	5
110	2
111	49
112	999
113	124
114	10
115	1
116	1
119	2
120	72
121	245
122	285
123	22
124	1
125	1
128	1
149	2
190	1
197	1
233	100
252	5
253	1
259	1
260	4
261	280
262	43
263	8
264	1
