Mass Spectrum: L-Phenylalaninamide, 5-oxo-L-prolyl-L-histidyl-
Formula: C20H24N6O4
CAS: 27058-75-9
Molecular weight: 412
m/z	intensity
43	190
44	180
51	50
54	60
55	190
56	150
57	80
71	30
73	150
77	60
81	450
82	480
83	80
84	999
91	500
92	50
100	210
102	70
104	60
110	40
120	370
121	60
122	40
128	40
145	50
147	30
175	40
180	170
186	60
190	100
262	250
263	50
265	60
266	210
272	320
273	70
284	30
353	20
412	91
413	1
