Mass Spectrum: Ethanamine, N,N-dimethyl-2-(phenylmethoxy)-
Formula: C11H17NO
CAS: 27058-12-4
Molecular weight: 179
m/z	intensity
30	23
39	14
41	7
42	52
43	14
44	15
45	51
51	12
56	11
57	15
58	999
59	39
63	6
65	29
71	5
72	13
73	161
74	8
77	11
89	5
91	87
92	10
179	14
180	2
