Mass Spectrum: 4,4,6-Trimethyl-2-phenylimino-4H-1,3-thiazine
Formula: C13H16N2S
CAS: 27058-61-3
Molecular weight: 232
m/z	intensity
37	19
38	37
39	224
41	204
42	64
43	31
44	44
45	91
47	29
48	9
49	9
50	62
51	164
52	45
53	115
54	18
55	69
56	18
57	15
58	60
59	284
60	34
61	38
62	23
63	50
64	49
65	184
66	59
67	51
68	9
69	36
70	21
71	46
72	22
73	31
74	22
75	21
76	36
77	319
78	52
79	152
80	39
81	80
82	17
83	24
84	29
85	26
86	11
90	24
91	229
92	53
93	66
94	18
95	27
96	10
97	80
98	40
99	581
100	81
101	41
102	8
103	18
104	15
105	6
106	10
107	16
108	90
109	36
111	38
112	54
113	699
114	999
115	266
116	76
117	28
118	339
119	94
120	15
128	29
135	28
217	999
218	152
232	215
233	36
