Mass Spectrum: Carbamic acid, N-phenyl-, oxiranylmethyl ester
Formula: C10H11NO3
CAS: 27087-14-5
Molecular weight: 193
m/z	intensity
33	13
34	6
37	75
38	196
39	697
40	163
41	208
42	147
43	423
44	249
45	65
47	3
48	2
50	126
51	276
52	98
53	28
54	26
55	97
56	58
57	270
58	13
59	8
61	128
62	60
63	181
64	211
65	672
66	186
67	26
68	8
69	34
70	40
71	50
72	12
73	19
74	42
75	18
77	523
78	51
79	74
80	12
81	8
82	9
83	26
84	17
85	5
86	9
87	20
88	18
89	12
91	254
92	386
93	735
94	60
95	7
96	3
97	11
98	7
99	2
100	1
101	2
102	1
103	6
104	23
106	501
107	37
108	5
109	2
110	3
111	7
112	24
113	11
114	1
115	2
116	2
119	999
120	211
121	26
122	2
123	2
124	2
125	6
126	2
127	2
128	2
129	8
130	3
131	1
132	6
133	1
134	3
135	3
137	74
138	6
139	1
140	1
141	0
142	0
143	3
144	2
145	0
146	0
147	0
148	2
149	1
150	1
151	1
152	7
153	2
154	1
155	1
156	0
157	4
158	0
159	0
160	0
162	9
163	0
164	0
165	0
167	0
168	0
169	1
170	3
177	4
178	0
193	665
194	64
195	7
196	0
197	0
199	0
