Mass Spectrum: Carbonic acid, p-chlorophenyl phenyl ester
Formula: C13H9ClO3
CAS: 27087-46-3
Molecular weight: 248
m/z	intensity
41	20
43	10
44	170
46	10
47	20
49	20
50	130
51	230
52	10
53	20
55	40
57	10
60	10
61	30
62	50
63	140
64	70
65	240
66	90
67	10
68	10
72	10
73	100
74	40
75	150
76	40
77	999
78	70
85	10
92	10
93	20
94	290
95	20
99	90
100	20
101	30
102	10
111	140
112	10
113	40
115	40
121	20
127	30
128	150
129	20
130	50
139	10
140	10
141	350
142	50
168	40
169	80
170	10
175	20
176	60
177	10
178	20
223	20
224	270
225	40
226	90
227	10
248	320
249	50
250	110
251	20
