Mass Spectrum: Tridecylamine, N-(2,4-dinitrophenyl)-2-methoxy-1-(methoxymethyl)-3,4-bis(trimethylsiloxy)-, erythro-
Formula: C28H53N3O8Si2
CAS: 27089-69-6
Molecular weight: 615
m/z	intensity
40	3
41	93
42	21
43	90
44	25
45	674
46	9
47	15
49	6
50	46
51	59
52	137
53	21
54	9
55	90
56	18
57	56
58	9
59	43
60	6
61	28
66	6
67	28
68	12
69	90
70	15
71	40
72	18
73	999
74	87
75	275
76	25
77	40
78	31
79	212
80	15
81	31
82	9
83	103
84	6
85	12
87	28
89	75
90	15
91	25
101	37
102	9
103	103
104	21
105	25
106	6
109	6
115	9
116	31
117	37
118	18
119	12
129	62
130	15
131	46
132	25
133	50
134	53
135	6
143	18
145	6
146	81
147	109
148	37
149	25
159	540
160	65
161	40
162	6
163	18
164	46
176	9
177	9
178	25
179	18
180	25
191	6
192	9
193	3
194	12
196	3
197	6
210	56
211	6
213	28
214	6
215	6
219	15
229	631
230	118
231	28
233	6
239	18
240	156
241	28
243	21
247	6
252	18
254	25
268	56
269	6
271	6
282	6
285	687
286	162
287	46
297	9
310	15
312	46
313	181
314	34
315	9
327	6
330	15
331	84
332	25
333	6
369	9
390	12
436	9
528	6
552	0
554	1
555	2
556	1
568	1
569	0
570	2
571	0
584	1
585	7
586	4
587	0
597	0
599	0
600	9
601	4
602	1
615	0
616	0
