Mass Spectrum: Trifluoromethyl t-butyl sulfide
Formula: C5H9F3S
CAS: 2708-84-1
Molecular weight: 158
m/z	intensity
45	42
47	21
53	30
55	56
56	29
57	999
58	65
59	87
61	69
63	20
69	124
71	16
72	8
73	8
74	29
75	4
101	8
115	36
143	67
144	3
158	58
