Mass Spectrum: 1H-Pyrrolo(2,3-c)pyridine
Formula: C7H6N2
CAS: 271-29-4
Molecular weight: 118
m/z	intensity
24	2
26	10
27	13
28	71
29	1
31	2
36	2
37	43
38	73
39	69
41	42
42	1
43	0
44	1
45	1
46	1
48	1
49	7
50	28
51	30
52	28
53	12
54	3
55	0
58	0
59	54
60	4
61	27
62	46
63	165
64	167
65	44
66	9
67	41
68	2
73	1
74	7
75	7
76	8
77	5
78	25
79	4
86	1
87	4
88	7
89	7
90	57
91	438
92	59
93	2
101	0
103	0
104	1
105	0
116	4
117	66
118	999
119	68
120	2
