Mass Spectrum: 1H-Indazole
Formula: C7H6N2
CAS: 271-44-3
Molecular weight: 118
m/z	intensity
25	1
26	5
27	8
28	27
29	3
30	0
35	2
36	29
38	50
39	62
40	13
41	35
42	2
43	5
44	2
45	1
46	1
48	1
49	6
50	22
51	20
52	50
53	4
54	3
55	2
56	0
57	0
58	1
59	40
60	3
61	24
62	52
63	146
64	150
65	40
66	7
67	5
68	1
69	0
70	1
71	0
72	1
73	2
74	5
75	4
76	7
77	3
78	11
79	3
80	0
81	1
82	0
83	1
84	2
85	4
86	8
87	8
88	8
89	40
90	55
91	362
92	29
93	1
96	0
101	1
102	1
103	1
104	0
116	2
117	35
118	999
119	87
120	3
