Mass Spectrum: Trifluoroacetic acid, heptyl ester
Formula: C9H15F3O2
CAS: 2710-89-6
Molecular weight: 212
m/z	intensity
15	5
20	1
26	12
27	181
28	60
29	295
30	9
31	7
33	6
36	1
37	2
38	6
39	183
40	42
41	853
42	336
43	510
44	24
45	5
46	1
47	10
48	1
50	19
51	14
52	5
53	51
54	79
55	664
56	905
57	528
58	22
59	5
60	1
61	3
62	1
63	2
64	1
65	8
66	4
67	57
68	183
69	999
70	903
71	57
72	2
77	5
78	13
79	6
80	3
81	13
82	7
83	104
84	7
85	2
91	1
93	1
95	4
96	5
97	59
98	49
99	74
100	2
101	2
112	2
113	3
115	3
125	4
127	13
128	1
137	1
138	1
140	1
141	4
142	1
143	39
144	3
151	1
153	1
155	10
156	1
