Mass Spectrum: Phosphonic acid, (2-hydroxybicyclo[2.2.1]hept-2-yl)-, dimethyl ester, exo-
Formula: C9H17O4P
CAS: 27109-26-8
Molecular weight: 220
m/z	intensity
55	210
56	10
66	170
67	310
68	20
79	300
80	210
93	170
94	10
95	150
96	10
109	140
110	999
111	390
112	30
220	30
