Mass Spectrum: .beta.-D-Allofuranose, 2,3:5,6-bis-O-(1-methylethylidene)-
Formula: C12H20O6
CAS: 27108-13-0
Molecular weight: 260
m/z	intensity
39	242
40	109
41	393
42	218
43	842
44	124
45	86
53	157
54	27
55	613
56	57
57	240
58	84
59	718
67	33
68	310
69	316
70	300
71	354
72	366
73	780
74	27
94	45
95	27
96	295
97	321
99	345
100	271
101	999
102	336
103	119
123	42
124	156
125	392
126	31
127	422
128	51
129	63
159	181
160	21
161	40
162	53
163	66
184	24
185	68
186	53
187	47
188	89
189	13
243	66
245	960
246	321
247	42
