Mass Spectrum: Phosphonic acid, (2-hydroxybicyclo[2.2.1]hept-2-yl)-, dimethyl ester, endo-
Formula: C9H17O4P
CAS: 27109-27-9
Molecular weight: 220
m/z	intensity
55	150
56	10
66	170
67	250
79	230
80	170
93	170
94	10
95	130
96	10
110	999
111	430
112	30
153	130
154	10
220	30
