Mass Spectrum: 7-[2-Hexamethyleneimino-1-hydroxyethyl]-2-p-chlorophenylquinoline
Formula: C23H25ClN2O
CAS: 27115-76-0
Molecular weight: 380
m/z	intensity
41	52
42	51
43	11
44	58
45	1
49	3
50	1
51	4
52	0
53	4
55	59
56	8
58	82
59	2
63	2
67	3
68	2
69	12
70	7
71	1
75	5
77	14
79	1
82	14
83	8
84	6
86	0
87	0
88	3
96	12
97	2
98	4
99	1
101	9
102	4
103	1
107	0
108	0
109	0
112	999
113	61
114	7
115	5
123	3
125	1
126	6
127	5
128	23
129	2
132	0
133	3
139	0
140	3
141	1
149	0
150	1
151	1
152	2
154	0
156	0
174	1
175	0
176	7
177	2
188	0
189	1
200	0
201	2
202	6
203	18
204	6
214	0
216	3
217	1
218	1
219	0
227	0
228	2
229	1
230	3
232	1
238	11
240	20
242	6
248	2
252	5
253	5
254	1
255	3
264	9
265	28
266	17
267	12
268	17
269	3
270	4
277	1
278	1
279	1
280	2
281	2
282	4
283	6
284	0
285	3
291	0
293	3
307	0
321	0
349	10
350	1
351	4
378	3
379	2
380	4
382	1
383	0
