Mass Spectrum: Heptane, 4-azido-
Formula: C7H15N3
CAS: 27126-22-3
Molecular weight: 141
m/z	intensity
39	90
41	410
42	120
43	999
44	50
55	60
56	100
57	340
70	220
84	40
85	40
98	40
99	10
112	4
141	3
