Mass Spectrum: 2-Aziridinone, 1-tert-butyl-3-cyclohexyl-3-methyl-
Formula: C13H23NO
CAS: 27147-96-2
Molecular weight: 209
m/z	intensity
29	40
39	130
41	570
42	190
43	430
53	130
55	920
56	150
57	999
58	170
67	530
68	580
69	150
70	250
71	390
77	50
79	80
81	200
82	150
83	550
84	150
95	70
96	50
97	50
109	480
110	180
111	130
124	30
126	300
137	120
152	200
153	150
163	30
165	30
166	30
167	30
168	30
180	30
181	40
194	30
209	200
210	30
