Mass Spectrum: Hexadecanoic acid, 2-methyl-
Formula: C17H34O2
CAS: 27147-71-3
Molecular weight: 270
m/z	intensity
17	1
18	4
26	1
27	25
28	10
29	80
30	4
31	3
39	19
40	4
41	188
42	41
43	253
44	9
45	29
47	1
53	10
54	11
55	196
56	53
57	177
58	9
59	15
60	3
61	1
65	2
66	1
67	17
68	9
69	127
70	26
71	74
72	4
73	41
74	999
75	48
76	7
77	1
79	3
80	1
81	13
82	8
83	71
84	14
85	38
86	3
87	533
88	38
89	3
91	1
93	2
94	1
95	9
96	6
97	48
98	25
99	10
100	2
101	43
102	86
103	5
107	2
109	5
110	3
111	21
112	12
113	7
114	1
115	47
116	16
117	1
121	1
123	2
124	2
125	8
126	4
127	5
128	1
129	112
130	22
131	2
135	2
137	1
138	1
139	4
140	1
141	3
143	124
144	16
145	1
147	1
149	1
152	1
153	3
154	1
155	1
157	52
158	9
159	1
163	1
166	1
167	2
168	1
171	48
172	8
173	1
174	1
181	1
182	1
185	42
186	7
194	2
195	1
196	16
197	8
198	1
199	42
200	7
213	86
214	12
215	1
224	1
225	2
227	47
228	9
229	1
241	10
242	2
251	2
252	1
253	4
254	1
255	2
270	446
271	86
272	9
