Mass Spectrum: Benzylpenillic acid, dimethyl ester
Formula: C18H22N2O4S
CAS: 27147-93-9
Molecular weight: 362
m/z	intensity
53	117
54	60
55	123
56	37
57	63
58	26
59	133
65	150
66	33
69	76
70	28
71	94
73	117
74	26
75	146
83	130
84	31
85	36
86	56
87	227
88	53
89	53
90	59
91	999
92	260
93	46
113	130
114	111
115	75
128	79
129	113
130	82
139	94
140	43
146	139
147	33
155	53
156	249
157	75
158	33
165	28
166	20
167	30
168	14
169	18
183	118
184	65
185	84
205	26
215	98
216	201
217	62
227	21
228	155
229	100
230	26
237	101
238	26
239	56
253	34
254	15
255	52
256	95
269	97
270	26
271	57
281	53
282	7
285	24
286	13
287	69
288	149
289	47
296	13
297	57
298	15
303	39
304	13
313	18
327	15
328	171
329	124
330	24
331	10
362	86
363	24
