Mass Spectrum: Quinoxaline-2-ethanamine, 6-chloro-N,N-diethyl-.beta.-hydroxy-
Formula: C14H18ClN3O
CAS: 27158-67-4
Molecular weight: 279
m/z	intensity
41	7
42	50
43	17
44	11
45	1
47	2
48	1
49	1
50	5
51	0
52	3
53	1
54	4
55	4
56	32
57	14
58	139
59	5
60	1
61	1
62	1
63	2
64	1
65	0
67	0
68	0
69	0
70	7
71	3
72	6
73	3
74	3
75	11
76	4
77	1
78	1
79	0
80	0
81	0
84	0
85	19
86	999
88	3
89	1
90	0
97	0
98	0
99	1
100	8
101	1
102	4
103	1
104	0
109	1
110	6
111	5
112	2
113	1
114	1
115	0
116	15
117	1
123	0
124	0
125	0
126	0
127	0
128	0
129	1
130	0
136	6
137	4
138	3
139	1
140	0
142	0
143	0
144	0
151	1
152	0
153	0
155	0
163	9
164	2
165	4
166	1
167	0
177	1
178	3
179	3
180	1
181	1
189	0
190	0
191	1
192	1
193	2
194	1
195	1
196	0
203	0
204	0
205	0
206	1
207	2
208	0
209	0
217	0
218	0
220	0
221	0
222	0
232	1
233	0
234	1
235	0
246	0
248	0
262	1
264	0
278	0
279	1
281	0
