Mass Spectrum: Pentanedioic acid, 3,3-dimethyl-, monomethyl ester
Formula: C8H14O4
CAS: 27151-66-2
Molecular weight: 174
m/z	intensity
25	7
27	152
28	18
29	236
30	9
31	63
33	7
34	1
37	4
38	11
39	226
40	30
41	374
42	127
43	784
44	41
45	121
46	3
47	2
48	2
49	2
50	10
51	22
52	9
53	95
54	35
55	611
56	158
57	56
58	17
59	999
60	89
61	8
62	1
63	3
65	7
66	4
67	30
68	44
69	156
70	43
71	82
72	40
73	948
74	871
75	57
76	6
77	3
79	3
80	2
81	87
82	71
83	877
84	46
85	43
86	18
87	12
88	2
95	8
96	79
97	64
98	13
99	115
100	39
101	297
102	17
103	3
104	2
105	2
107	1
108	2
109	85
110	8
111	4
112	5
113	104
114	179
115	414
116	27
117	11
118	1
119	1
120	1
121	1
123	2
124	2
125	3
126	3
127	167
128	380
129	34
130	5
131	2
141	150
142	245
143	429
144	31
145	4
149	2
156	47
157	21
158	4
159	2
175	2
