Mass Spectrum: Azocine, 2-methoxy-4,6,8-trimethyl-
Formula: C11H15NO
CAS: 27153-35-1
Molecular weight: 177
m/z	intensity
39	430
41	190
57	110
63	150
65	170
77	400
78	140
79	150
91	400
93	190
103	120
105	999
106	130
119	200
120	430
121	120
134	100
135	10
147	100
148	10
162	280
163	30
177	70
178	10
