Mass Spectrum: Azocine, 2-methoxy-8-methyl-
Formula: C9H11NO
CAS: 27153-33-9
Molecular weight: 149
m/z	intensity
39	560
40	100
41	130
50	120
51	240
52	100
63	190
64	100
65	910
66	50
77	230
78	360
79	220
91	999
92	730
93	280
106	660
107	60
108	340
109	30
134	999
135	90
149	610
150	60
