Mass Spectrum: Aziridinone, 1-(1,1-dimethylethyl)-3-phenyl-
Formula: C12H15NO
CAS: 27151-60-6
Molecular weight: 189
m/z	intensity
29	5
39	5
41	20
51	50
57	999
58	50
63	40
68	30
77	150
83	5
89	80
90	70
91	30
104	70
105	70
106	80
107	20
132	250
146	140
161	30
188	10
189	10
