Mass Spectrum: 2-Hydroxy-6-isopropyl-3-piperidinomethyl-2,4,6-cycloheptatrien-1-one
Formula: C16H23NO2
CAS: 27168-13-4
Molecular weight: 261
m/z	intensity
15	2
17	2
18	8
26	1
27	13
28	24
29	25
30	27
38	1
39	15
40	3
41	40
42	38
43	28
44	34
45	1
50	3
51	10
52	4
53	9
54	6
55	35
56	56
57	28
58	2
60	1
63	3
64	1
65	7
66	2
67	9
68	4
69	8
70	15
71	1
74	1
75	1
76	1
77	19
78	7
79	14
80	4
81	3
82	8
83	6
84	999
85	129
86	7
88	2
89	2
90	1
91	19
92	3
93	4
94	3
95	2
96	4
97	2
98	40
99	3
101	1
102	1
103	7
104	2
105	41
106	8
107	7
108	3
109	7
110	3
115	6
116	3
117	6
118	2
119	4
120	4
121	6
122	4
123	3
128	1
129	1
130	3
131	4
132	1
133	20
134	10
135	79
136	9
137	1
138	4
144	2
145	2
146	2
147	3
148	21
149	21
150	12
151	1
158	1
159	1
160	2
161	3
162	9
163	9
164	4
165	1
172	1
173	2
174	1
175	2
176	5
177	28
178	157
179	18
180	2
186	1
188	1
189	4
190	20
191	5
192	3
200	2
201	2
202	1
203	1
204	15
205	9
206	1
214	1
216	2
217	1
218	45
219	7
232	9
233	2
244	3
246	5
260	3
261	76
262	19
263	2
