Mass Spectrum: cis-Octahydro-1,4-naphthalenedione
Formula: C10H14O2
CAS: 2717-36-4
Molecular weight: 166
m/z	intensity
15	2
26	9
27	97
28	188
29	41
30	1
31	2
37	1
38	6
39	119
40	31
41	143
42	20
43	37
44	1
45	2
47	1
50	10
51	28
52	20
53	95
54	158
55	162
56	466
57	215
58	9
59	2
60	18
61	1
62	2
63	7
64	2
65	21
66	49
67	387
68	77
69	26
70	11
71	5
72	3
73	1
74	2
75	1
76	1
77	46
78	19
79	138
80	88
81	457
82	203
83	125
84	32
85	152
86	7
87	2
88	8
89	1
91	35
92	14
93	51
94	48
95	95
96	78
97	29
98	30
99	73
100	4
102	1
103	2
104	20
105	21
106	47
107	38
108	9
109	999
110	135
111	148
112	77
113	5
115	2
117	1
119	7
120	20
121	30
122	8
123	29
124	171
125	31
126	3
127	1
128	8
129	3
130	4
131	1
133	7
135	1
137	108
138	125
139	11
144	2
147	9
148	11
149	9
150	1
151	299
152	28
153	2
164	1
165	20
166	953
167	106
168	9
