Mass Spectrum: DL-Threonine, N-glycyl-
Formula: C6H12N2O4
CAS: 27174-15-8
Molecular weight: 176
m/z	intensity
12	5
13	2
14	9
15	26
16	18
17	48
18	181
25	3
26	11
27	45
28	161
29	90
30	363
31	20
32	6
36	9
37	1
38	4
39	21
40	14
41	39
42	69
43	82
44	213
45	102
46	7
51	2
52	6
53	5
54	19
55	26
56	42
57	232
58	27
59	23
60	4
66	2
67	8
68	11
69	19
70	8
71	41
72	12
73	13
74	20
75	32
80	1
81	3
82	5
83	8
84	8
85	45
86	32
87	4
93	1
94	3
95	5
96	6
97	13
98	4
99	5
100	3
101	2
104	2
105	1
106	1
107	3
108	3
109	3
110	5
111	7
112	5
113	15
114	999
115	54
116	6
120	1
121	2
122	4
123	3
124	3
125	3
126	1
132	2
134	2
135	2
136	3
137	2
138	2
139	2
140	48
141	5
142	4
143	5
147	1
148	1
149	2
150	5
151	4
152	3
153	2
154	2
156	1
158	2
175	1
176	1
177	1
