Mass Spectrum: 1H-Benzimidazol-2-amine, N-(phenylmethyl)-
Formula: C14H13N3
CAS: 27185-21-3
Molecular weight: 223
m/z	intensity
34	15
36	4
37	8
39	115
40	249
41	38
43	52
44	75
45	5
46	0
48	1
50	49
51	94
52	29
53	15
54	7
55	9
57	12
58	2
59	0
60	5
61	5
63	80
64	34
65	159
66	10
67	2
68	0
69	11
70	2
71	5
72	1
73	4
74	10
75	15
76	26
77	55
78	28
79	8
80	5
81	2
82	4
83	3
84	1
85	2
86	0
87	2
88	2
89	22
91	999
92	71
95	0
97	1
99	1
100	0
101	0
102	5
103	4
104	12
105	81
106	8
107	2
109	0
110	2
111	1
112	0
115	1
117	5
118	8
119	6
120	1
127	1
128	0
129	0
130	0
132	128
133	8
134	0
135	0
140	0
144	3
145	1
146	3
149	0
150	0
151	2
152	5
153	0
178	0
179	1
180	3
181	0
195	0
223	371
224	49
225	2
