Mass Spectrum: Cyclohexanecarboxanilide
Formula: C13H17NO
CAS: 2719-26-8
Molecular weight: 203
m/z	intensity
33	1
38	65
39	500
41	614
42	43
43	37
44	9
50	64
51	130
52	66
53	108
55	741
56	31
57	4
64	62
65	314
66	137
67	82
68	15
69	13
70	2
71	1
72	1
77	153
78	22
79	36
83	462
84	26
85	1
86	1
87	1
88	1
89	2
92	54
93	999
94	92
95	8
96	1
97	0
98	0
103	2
104	7
105	3
106	13
107	2
108	1
110	17
111	18
112	1
113	0
115	2
117	13
118	10
119	22
120	18
121	3
123	7
124	0
125	0
126	0
127	1
128	1
130	6
132	18
133	2
134	2
135	6
136	0
146	4
148	23
149	2
150	0
158	0
159	0
160	0
161	2
162	2
163	0
174	3
175	0
185	0
186	0
203	129
204	16
205	1
206	0
