Mass Spectrum: L-Talose, 6-deoxy-3-C-methyl-2-O-methyl-
Formula: C8H16O5
CAS: 27208-98-6
Molecular weight: 192
m/z	intensity
25	19
26	43
27	101
28	56
29	456
30	165
31	736
32	27
33	21
36	13
37	13
38	16
39	45
40	19
41	61
42	88
43	999
44	184
45	461
46	19
47	13
49	8
50	5
51	13
52	5
53	24
54	21
55	35
56	11
57	59
58	107
59	35
60	3
61	3
67	24
68	13
69	24
71	16
72	29
73	19
74	104
75	56
76	8
77	8
81	5
82	5
83	16
85	64
86	11
87	13
88	35
97	8
98	11
99	24
100	29
101	53
109	18
110	4
111	4
112	13
113	17
114	5
115	7
116	5
117	13
123	9
124	25
125	9
126	5
127	8
128	8
129	3
130	3
131	9
138	8
139	2
140	2
141	5
142	12
143	18
144	3
145	3
156	11
157	3
158	2
161	5
174	7
