Mass Spectrum: Tramadol
Formula: C16H25NO2
CAS: 27203-92-5
Molecular weight: 263
m/z	intensity
27	7
28	13
29	9
30	33
39	2
40	18
41	23
42	26
43	8
44	48
45	68
46	102
47	0
51	0
53	0
55	21
56	2
57	9
58	999
59	60
63	0
64	1
65	2
67	2
68	0
69	2
70	2
71	1
72	7
74	10
76	0
77	17
78	2
79	2
81	0
82	0
84	9
91	7
92	7
93	0
94	0
98	0
101	0
103	0
105	0
107	14
108	2
109	0
110	1
114	13
115	1
121	7
122	0
128	0
129	0
131	0
133	0
134	0
135	31
136	1
145	0
147	0
150	10
151	0
155	0
156	0
159	0
160	0
163	2
164	0
173	0
176	0
187	0
188	2
189	0
218	9
219	0
220	7
245	0
248	0
262	7
263	154
264	25
265	0
