Mass Spectrum: 5-Aminopentanoic acid, N-t-butoxycarbonyl-
Formula: C10H19NO4
CAS: 27219-07-4
Molecular weight: 217
m/z	intensity
41	356
42	70
43	155
44	59
45	151
46	4
47	1
48	0
49	1
50	2
51	6
52	2
53	16
54	17
55	165
56	175
57	999
58	19
59	412
60	71
61	3
62	5
63	0
64	0
65	1
66	0
67	3
68	6
69	14
70	16
71	10
72	13
73	19
74	33
75	5
76	1
77	4
78	3
79	1
80	1
81	5
82	45
83	27
84	5
85	4
86	7
87	35
88	23
89	13
90	0
91	1
92	0
93	1
94	1
95	2
96	3
97	5
98	92
99	18
100	193
101	47
102	13
103	1
104	0
105	5
106	2
107	1
108	1
109	1
110	1
111	2
112	2
113	1
114	1
115	30
116	204
117	36
118	29
119	2
120	1
121	2
122	1
123	1
124	3
125	2
126	128
127	9
128	2
129	3
130	14
131	1
132	0
133	0
134	1
135	1
136	1
137	1
138	0
139	1
140	2
141	1
142	3
143	184
144	80
145	6
146	1
147	0
148	0
149	2
150	0
151	1
152	1
153	0
154	0
155	0
156	0
157	1
158	19
159	2
160	90
161	222
162	28
163	3
164	1
165	1
166	0
167	1
168	0
169	0
170	0
171	1
172	0
173	0
174	0
175	0
176	0
177	0
178	0
179	0
180	0
181	0
182	0
183	0
184	0
185	2
186	1
187	1
188	0
189	0
191	0
192	0
193	0
194	0
195	0
196	0
197	0
198	0
199	1
200	0
201	0
202	1
203	0
215	0
216	0
217	2
218	1
219	0
