Mass Spectrum: 2,6,6-Trimethyl-4-[6-diethylamino-.alpha.-methylbutylamino]-5-phenyl-5,6-dihydrofuro[2,3-d]pyrimidine
Formula: C24H36N4O
CAS: 27228-62-2
Molecular weight: 396
m/z	intensity
41	110
42	101
43	66
44	84
45	26
46	6
47	18
48	6
49	7
50	3
51	3
52	6
53	14
54	8
55	29
56	50
57	25
58	109
59	22
60	9
61	4
62	3
63	5
64	2
65	10
66	2
67	17
68	11
69	38
70	23
71	21
72	32
73	31
74	3
76	1
77	24
78	8
79	6
80	4
82	6
83	13
84	13
85	71
86	999
87	53
88	3
89	2
90	1
91	44
92	5
93	2
94	5
95	5
96	6
97	7
98	20
99	17
100	5
101	8
102	7
103	9
104	9
105	13
106	4
107	2
108	2
109	2
110	6
111	6
112	41
113	2
114	14
115	16
116	7
117	9
118	3
119	11
120	5
121	3
123	5
124	1
125	1
126	13
127	10
128	25
129	17
130	4
131	24
132	5
133	2
134	3
135	10
136	1
137	4
138	6
139	2
140	27
141	9
142	13
143	7
144	1
145	7
146	3
147	1
149	6
150	6
151	1
152	7
153	6
154	9
155	23
156	10
157	6
161	1
162	5
163	2
164	25
165	4
166	2
167	3
168	5
169	4
170	5
171	6
176	10
178	13
179	2
180	4
181	6
182	8
183	12
184	2
185	2
190	14
192	1
194	4
195	2
196	5
197	8
198	10
199	1
200	1
202	1
204	5
205	2
206	2
208	1
211	2
212	2
213	1
214	1
216	4
222	1
223	3
224	6
225	5
226	4
234	2
238	7
239	6
240	30
241	6
252	4
254	15
255	26
256	13
257	2
258	2
266	5
267	1
268	5
280	9
282	95
283	19
284	2
294	5
296	23
297	9
300	2
301	2
308	6
310	18
311	5
322	93
323	34
324	61
325	18
326	1
330	1
340	1
343	1
367	36
368	12
369	1
381	2
382	1
396	26
397	9
398	2
