Mass Spectrum: 4-Pentylamino-3-chloroacetamido-1,2-naphthoquinone
Formula: C17H19ClN2O3
CAS: 27223-76-3
Molecular weight: 334
m/z	intensity
41	999
42	428
43	716
44	44
49	433
50	80
51	247
52	67
53	85
54	40
55	142
56	32
57	38
61	8
62	55
63	98
64	32
65	19
67	8
68	8
69	40
71	11
74	35
75	74
76	195
77	455
78	12
79	149
86	8
87	42
88	117
89	274
90	79
91	14
100	13
101	53
102	152
103	207
104	149
105	12
113	13
114	162
115	137
116	146
117	113
118	14
126	13
127	50
128	70
129	72
130	168
131	53
132	163
133	11
140	38
141	7
142	70
143	60
144	105
145	47
146	26
153	10
154	35
155	67
156	26
157	28
158	38
159	124
160	36
161	9
167	9
168	12
169	22
170	38
171	115
172	24
173	36
181	10
182	9
183	64
184	41
185	61
186	13
187	26
195	7
196	10
197	71
198	51
199	48
200	32
201	88
211	8
212	23
213	55
214	25
215	40
227	8
229	83
230	10
241	44
245	10
249	20
253	106
255	15
257	28
263	19
265	8
277	23
285	92
286	18
288	15
298	61
299	24
306	30
308	8
316	37
317	18
318	20
334	69
335	18
336	23
337	8
