Mass Spectrum: Cyclobutene, 3,4-dibromo-
Formula: C4H4Br2
CAS: 27237-71-4
Molecular weight: 210
m/z	intensity
26	305
27	49
28	10
35	1
36	11
37	54
38	35
39	13
44	0
45	0
48	13
49	95
50	317
51	999
52	360
53	16
60	0
61	2
63	0
65	2
66	3
79	43
80	21
81	45
82	22
83	1
84	0
86	0
87	33
88	1
89	11
91	4
92	2
93	4
94	3
95	0
103	1
104	14
105	33
106	15
107	33
108	1
116	0
117	2
119	1
127	0
128	2
129	2
131	885
132	46
133	861
134	38
135	1
142	0
158	0
160	1
162	0
166	0
168	1
171	0
173	1
184	3
186	5
188	2
197	0
210	5
211	1
212	10
213	1
214	5
215	0
