Mass Spectrum: Allyl dithioacetate
Formula: C5H8S2
CAS: 27249-83-8
Molecular weight: 132
m/z	intensity
39	167
41	191
43	59
44	39
45	98
57	39
58	120
59	999
74	59
76	20
91	60
99	39
117	270
132	130
