Mass Spectrum: Pyrrolo[3,2-c]pyridine, 4,5,6,7-tetrahydro-5-benzyl-
Formula: C14H16N2
CAS: 272442-27-0
Molecular weight: 212
m/z	intensity
34	1
36	1
37	1
38	6
39	47
40	79
41	27
42	28
43	7
44	72
45	2
50	9
51	28
52	22
53	14
54	8
55	1
56	1
57	1
60	0
61	0
62	3
63	14
64	11
65	86
66	34
67	24
68	3
69	0
70	0
74	0
75	0
76	2
77	17
78	13
79	9
80	8
81	1
83	0
89	10
91	290
92	82
93	999
94	96
95	4
103	0
104	4
105	8
106	25
107	4
108	0
117	5
118	10
119	30
120	26
121	14
122	4
133	1
134	0
135	1
149	0
168	0
183	0
184	3
209	1
211	39
212	76
213	11
