Mass Spectrum: 1,2-Propanediamine, N,N'-dimethyl-, (S)-
Formula: C5H14N2
CAS: 27255-46-5
Molecular weight: 102
m/z	intensity
15	30
28	80
30	120
42	80
43	50
44	220
56	70
57	40
58	999
59	40
