Mass Spectrum: Methanol, (o-methoxyphenoxy)-, acetate
Formula: C10H12O4
CAS: 27257-11-0
Molecular weight: 196
m/z	intensity
38	10
39	30
41	20
42	10
43	380
50	20
51	40
52	50
53	20
63	30
64	30
65	30
77	90
80	20
81	70
92	30
93	10
95	20
109	310
110	20
121	20
122	80
123	10
124	999
125	80
137	130
138	10
166	12
196	120
197	10
