Mass Spectrum: 4-Hydrazinylpyridine
Formula: C5H7N3
CAS: 27256-91-3
Molecular weight: 109
m/z	intensity
37	8
38	4
39	127
40	78
41	37
42	29
43	7
44	24
49	12
50	99
51	203
52	149
53	46
54	21
55	12
64	10
65	45
66	44
67	12
78	66
79	175
80	29
81	13
92	16
93	27
108	53
109	999
110	55
