Mass Spectrum: 1-Benzenesulfonyl-2-benzoylhydrazine
Formula: C13H12N2O3S
CAS: 27271-19-8
Molecular weight: 276
m/z	intensity
14	2
16	1
26	4
27	11
28	142
29	4
32	2
34	2
36	6
37	9
38	18
39	39
40	2
41	3
42	1
43	3
44	14
45	17
47	3
48	6
49	7
50	72
51	183
52	31
53	16
54	6
55	9
56	1
57	4
58	7
59	1
60	1
61	5
62	7
63	14
64	17
65	42
66	75
67	5
68	1
69	22
70	3
71	4
73	7
74	29
75	19
76	41
77	614
78	217
79	14
80	1
81	7
82	7
83	3
84	30
85	2
86	1
89	1
91	2
92	3
93	6
94	20
95	4
96	1
97	25
98	2
99	2
102	1
103	51
104	8
105	999
106	148
107	11
108	12
109	86
110	258
111	23
112	11
113	1
115	1
119	2
121	8
122	156
123	12
124	1
125	150
126	46
127	9
128	2
134	1
135	9
136	8
137	1
139	1
140	1
141	12
142	57
143	10
144	3
149	1
151	1
152	3
153	2
154	7
155	1
157	4
165	4
166	2
181	1
182	3
184	5
185	11
186	12
187	2
218	21
219	3
220	2
222	9
223	1
225	1
240	4
246	97
247	13
248	6
250	15
251	2
252	1
276	85
277	13
278	5
