Mass Spectrum: Bis(ditrifluoromethylphosphino) oxide
Formula: C4F12OP2
CAS: 2728-67-8
Molecular weight: 354
m/z	intensity
31	129
32	2
47	465
49	1
50	56
51	1
62	30
69	999
70	11
81	53
82	1
97	23
100	162
101	2
116	46
119	89
120	1
131	30
135	119
136	1
150	50
151	1
169	73
170	2
185	30
186	1
235	102
236	2
285	79
286	3
354	125
355	6
