Mass Spectrum: N,N-Bis(p-toluenesulfonyl)methanamine
Formula: C15H17NO4S2
CAS: 27291-95-8
Molecular weight: 339
m/z	intensity
27	4
28	2
29	1
30	2
38	1
39	41
40	3
41	18
42	5
43	3
44	8
45	5
50	6
51	17
52	6
53	4
55	1
56	2
57	1
60	1
61	1
62	4
63	26
64	8
65	185
66	10
67	5
69	1
72	1
74	2
75	2
76	3
77	23
78	8
79	7
80	1
86	1
87	1
88	1
89	38
90	21
91	999
92	82
93	7
94	1
95	1
100	1
103	1
104	2
105	3
106	1
107	9
108	8
109	1
111	5
115	1
118	6
119	10
120	139
121	13
122	1
123	1
128	1
138	1
139	34
140	3
141	2
152	2
153	1
155	432
156	42
157	23
158	1
165	4
166	2
167	2
168	492
169	56
170	25
171	2
178	1
181	2
182	1
184	6
185	1
196	4
199	3
210	2
211	9
212	1
222	1
275	103
276	17
277	6
278	1
339	86
340	16
341	9
342	1
