Mass Spectrum: D-Glucitol, 1,4-anhydro-
Formula: C6H12O5
CAS: 27299-12-3
Molecular weight: 164
m/z	intensity
13	1
14	12
15	146
16	3
17	9
18	40
19	10
26	23
27	192
28	174
29	315
30	37
31	496
32	12
33	3
37	3
38	8
39	70
40	37
41	137
42	108
43	716
44	388
45	717
46	23
47	38
49	6
50	2
51	5
52	2
53	11
54	13
55	223
56	259
57	645
58	263
59	85
60	264
61	552
62	18
63	3
65	1
66	1
67	3
68	13
69	254
70	17
71	102
72	18
73	837
74	170
75	49
76	3
77	3
79	1
81	5
82	9
83	5
84	20
85	202
86	999
87	85
88	9
89	9
90	5
91	18
92	1
93	1
95	1
97	19
98	17
99	23
100	9
101	3
102	16
103	930
104	57
105	13
106	1
110	3
111	23
112	2
113	1
114	1
115	31
116	10
117	3
119	2
121	5
127	2
128	31
129	6
133	71
134	5
135	1
145	1
146	46
147	4
148	1
165	3
