Mass Spectrum: 1H-Imidazo[4,5-b]pyridine
Formula: C6H5N3
CAS: 273-21-2
Molecular weight: 119
m/z	intensity
40	36
41	34
49	7
50	11
51	17
52	44
53	20
60	16
62	6
63	23
64	135
65	130
66	27
73	5
77	3
79	2
91	21
92	436
93	17
118	26
119	999
120	43
