Mass Spectrum: 3-Acetyl-3-demethylthiocolchicine
Formula: C23H25NO6S
CAS: 2730-86-1
Molecular weight: 443
m/z	intensity
42	38
43	999
141	24
152	47
252	62
256	24
267	63
268	19
269	19
281	46
283	54
284	49
299	87
300	23
302	20
314	345
315	88
356	71
358	21
368	24
373	211
374	25
410	231
411	51
443	280
444	66
