Mass Spectrum: 3-(3,3-Dimethyl-2-oxobutyl)-3-hydroxy-2-indolinone
Formula: C14H17NO3
CAS: 27302-71-2
Molecular weight: 247
m/z	intensity
14	2
15	25
17	20
18	117
25	1
26	6
27	41
28	40
29	341
30	8
31	5
32	2
36	2
37	30
38	54
39	113
40	19
41	555
42	33
43	286
44	23
45	91
46	8
48	1
49	6
50	64
51	26
52	42
53	16
54	3
55	37
56	78
57	999
58	61
59	44
60	6
61	16
62	36
63	136
64	191
65	47
66	4
67	62
68	3
69	9
70	3
71	5
72	1
73	8
74	23
75	26
76	57
77	13
78	3
79	2
81	2
82	1
83	4
84	1
85	123
86	9
87	4
88	9
89	48
90	76
91	121
92	464
93	33
94	2
95	1
96	1
97	2
99	2
100	314
101	28
102	4
103	2
104	9
105	5
106	1
109	1
111	1
114	3
115	8
116	71
117	94
118	16
119	796
120	78
121	6
122	1
125	1
127	3
128	12
129	2
130	5
131	1
132	7
133	9
134	1
135	1
140	1
141	1
142	1
143	5
144	21
145	375
146	155
147	796
148	182
149	28
150	2
158	2
159	3
160	3
161	2
162	49
163	9
164	1
167	1
168	1
170	1
172	111
173	195
174	21
175	2
184	1
186	11
187	3
190	9
191	2
198	1
201	59
202	12
203	4
215	1
229	122
230	21
231	22
232	3
247	31
248	5
