Mass Spectrum: 1H-Indole-2(3H)-one, 3-(3,3-dimethyl-2-oxobutylidene)-
Formula: C14H15NO2
CAS: 27302-68-7
Molecular weight: 229
m/z	intensity
41	532
42	33
43	9
44	3
45	1
47	6
48	3
49	39
50	21
51	59
52	15
53	13
54	2
55	21
57	999
58	54
61	4
62	34
63	86
64	18
65	15
66	3
69	3
70	3
71	0
72	3
74	14
75	46
76	13
77	11
78	3
84	20
85	6
86	21
87	10
88	27
89	194
90	75
91	11
92	0
93	2
98	1
99	0
100	1
101	18
102	5
103	3
114	14
115	27
116	238
117	248
118	21
127	5
128	6
129	1
130	4
132	3
133	2
140	0
141	1
142	2
143	15
145	882
146	88
147	5
158	4
159	5
160	3
167	0
168	0
170	4
172	200
173	285
174	30
175	2
186	23
187	3
201	101
202	14
229	155
230	29
231	6
