Mass Spectrum: Benzenesulfonamide, 4-chloro-2-iodo-N-benzyl-
Formula: C13H11ClINO2S
CAS: 273208-01-8
Molecular weight: 407
m/z	intensity
33	0
34	0
35	1
36	4
37	3
38	8
39	29
40	10
41	9
42	1
43	4
44	6
45	3
46	0
47	0
48	3
49	4
50	46
51	78
52	20
53	6
54	1
55	2
56	1
57	2
58	0
59	0
60	2
61	3
62	7
63	26
64	9
65	55
66	4
67	1
68	0
69	5
70	1
71	3
72	1
73	8
74	46
75	91
76	24
77	131
78	61
79	95
80	6
81	1
82	1
83	2
84	10
85	3
86	4
87	1
88	1
89	12
90	12
91	238
92	18
93	2
94	1
95	9
96	1
97	2
98	4
99	4
100	2
101	2
102	2
103	7
104	132
105	71
106	999
107	90
108	5
109	7
110	87
111	51
112	36
113	17
114	3
115	1
116	0
117	0
119	1
120	1
121	0
122	1
123	0
124	1
125	4
126	5
127	17
128	11
129	2
130	8
131	1
132	3
133	1
134	0
136	1
137	1
138	1
139	1
140	1
141	0
142	2
143	0
144	1
145	0
146	0
147	1
148	0
149	5
150	3
151	7
152	32
153	6
154	1
155	0
156	0
158	0
159	2
160	0
161	0
162	0
163	1
164	2
165	10
166	2
167	0
168	0
169	0
170	0
171	0
172	0
173	0
174	1
175	13
176	3
177	8
178	2
179	2
180	6
181	2
182	0
184	1
185	0
186	2
187	2
188	1
189	1
190	0
193	0
195	0
199	2
200	1
201	2
202	2
203	1
204	0
205	0
206	0
213	1
214	12
215	3
216	4
217	1
218	0
219	0
220	0
225	2
227	0
230	0
232	0
234	0
236	1
237	87
238	31
239	27
240	10
241	0
246	0
247	0
251	0
252	0
253	13
254	39
255	7
256	13
257	1
262	0
264	1
265	0
266	0
268	0
270	0
272	0
278	0
279	1
280	0
281	0
282	0
284	0
285	30
286	3
287	10
288	1
289	0
291	0
301	19
302	7
303	31
304	4
305	9
306	1
308	0
318	0
330	0
332	0
341	2
342	6
343	1
344	2
345	0
372	0
406	2
407	4
408	1
409	1
410	0
