Mass Spectrum: Benzenesulfonamide, 2-bromo-4-nitro-N-methyl-
Formula: C7H7BrN2O4S
CAS: 273208-08-5
Molecular weight: 294
m/z	intensity
33	2
34	5
35	2
36	6
37	36
38	51
39	49
40	41
41	19
42	18
43	24
44	37
45	56
46	46
47	6
48	29
49	25
50	124
51	59
52	31
53	32
54	10
55	18
56	6
57	14
58	7
59	6
60	110
61	42
62	143
63	284
64	79
65	54
66	39
67	11
68	10
69	52
70	8
71	15
72	5
73	80
74	634
75	999
76	201
77	92
78	323
79	46
80	42
81	23
82	32
83	11
84	4
85	5
86	3
87	6
88	13
89	14
90	27
91	24
92	42
93	65
94	220
95	70
96	19
97	7
98	2
99	3
100	1
101	1
102	3
103	6
104	93
105	113
106	29
107	26
108	11
109	12
110	5
111	14
112	4
113	1
115	1
116	6
117	21
118	9
119	27
120	10
121	26
122	45
123	19
124	4
125	4
126	2
127	4
128	28
129	15
130	31
131	16
132	3
133	4
134	2
135	4
136	3
137	3
138	3
139	12
140	3
141	11
142	12
143	33
144	12
145	27
146	3
147	3
148	2
149	22
150	9
151	153
152	21
153	227
154	217
155	281
156	201
157	73
158	8
159	6
160	1
161	5
162	1
163	3
164	2
165	2
166	2
167	77
168	10
169	11
170	104
171	25
172	114
173	20
174	12
175	3
176	3
177	6
178	2
179	3
180	9
181	1
182	2
183	12
184	27
185	24
186	101
187	44
188	12
189	31
190	4
191	1
192	2
195	0
197	29
199	12
200	429
201	78
202	450
203	67
204	10
205	2
206	0
207	1
214	9
215	72
216	21
217	66
218	15
219	67
220	10
221	8
222	4
223	0
229	10
230	364
231	41
232	349
233	30
234	5
235	1
236	3
237	1
245	1
248	9
249	1
250	10
251	2
252	1
264	99
265	12
266	114
267	11
268	16
270	0
278	2
279	0
280	3
292	0
293	18
294	299
295	47
296	312
297	29
298	16
299	0
