Mass Spectrum: Isothiazole, 3,4-dimethyl-
Formula: C5H7NS
CAS: 27330-46-7
Molecular weight: 113
m/z	intensity
39	170
42	160
45	270
69	70
71	529
72	430
73	150
80	100
98	167
112	266
113	999
114	77
