Mass Spectrum: 7-Chloro-4-[4-diethylamino-1-methylbutylamino]-2-methoxyl-1,5-naphthyridine
Formula: C18H27ClN4O
CAS: 27330-40-1
Molecular weight: 350
m/z	intensity
41	75
42	75
43	31
44	30
46	2
48	0
49	4
50	1
51	3
52	4
53	6
54	7
55	15
56	52
57	20
58	108
59	4
62	0
63	2
64	5
65	3
66	2
67	10
68	10
69	23
70	21
71	25
72	39
73	45
74	3
75	1
76	2
77	1
78	2
79	1
80	2
81	1
82	6
83	1
84	32
86	999
87	55
88	3
89	0
90	2
91	1
94	1
95	1
96	4
97	2
98	13
99	33
100	6
101	3
102	4
103	3
104	1
105	1
108	0
110	4
112	41
113	23
114	7
115	4
116	3
117	3
118	2
119	0
123	1
124	3
125	1
126	17
127	3
128	1
129	2
130	1
131	3
132	2
136	1
137	3
138	3
139	8
140	8
141	1
142	14
143	2
144	0
145	2
150	3
151	5
152	4
153	4
154	2
155	1
156	0
157	1
158	1
159	1
160	3
161	0
162	0
163	6
164	3
165	7
166	3
167	5
168	3
169	2
170	0
171	1
175	2
176	1
177	1
178	4
179	10
180	5
181	4
182	1
185	0
186	1
190	0
191	2
192	2
193	5
194	7
195	9
196	3
197	3
199	0
200	1
202	0
204	2
205	1
206	2
207	2
208	5
209	3
210	10
211	1
212	3
218	1
219	1
220	4
221	8
222	12
223	3
224	4
232	1
233	1
234	9
235	6
236	36
237	6
238	13
239	2
240	1
242	2
246	1
248	6
249	2
250	6
251	1
252	1
260	1
262	7
263	1
264	3
266	1
274	1
276	35
277	102
278	42
279	36
280	10
281	1
321	4
322	0
323	1
335	3
337	1
349	2
350	35
351	9
352	12
353	4
354	1
