Mass Spectrum: Phosphoramidothioic difluoride, [(dimethylamino)difluorophosphoranylidene]-
Formula: C2H6F4N2P2S
CAS: 27352-02-9
Molecular weight: 228
m/z	intensity
42	999
44	262
50	38
69	999
88	16
96	70
101	33
107	76
115	33
120	15
133	16
146	8
152	57
165	29
184	41
213	31
228	70
