Mass Spectrum: Phosphoramidothioic difluoride, [difluoro[[(trimethylsilyl)imidocarbonyl]amino]phosphoranylidene]-
Formula: C4H9F4N3P2SSi
CAS: 27351-98-0
Molecular weight: 297
m/z	intensity
45	154
47	252
63	154
69	165
73	343
77	999
101	22
107	55
114	33
115	22
147	198
159	154
250	583
278	55
282	770
297	902
