Mass Spectrum: Pyridine, 2-butoxy-
Formula: C9H13NO
CAS: 27361-16-6
Molecular weight: 151
m/z	intensity
15	1
26	8
27	53
28	29
29	75
30	2
31	1
37	6
38	27
39	144
40	32
41	130
42	10
43	6
44	1
46	1
49	1
50	22
51	105
52	59
53	25
54	5
55	20
56	36
57	15
58	1
60	1
63	2
64	8
65	9
66	49
67	535
68	33
69	1
75	2
76	6
77	7
78	342
79	196
80	63
81	9
82	1
91	1
92	2
93	24
95	999
96	249
97	14
98	1
104	14
105	2
106	29
107	13
108	270
109	35
110	3
120	11
121	166
122	229
123	19
124	1
134	2
136	6
137	1
150	15
151	52
152	6
