Mass Spectrum: 2,5-Pyrrolidinedione, 1-[[bis(phenylmethyl)amino]methyl]-
Formula: C19H20N2O2
CAS: 27376-51-8
Molecular weight: 308
m/z	intensity
33	0
38	4
39	45
41	63
42	36
43	12
44	12
45	13
48	0
50	10
51	33
52	8
53	4
54	6
55	129
56	70
57	14
58	2
59	1
60	0
61	1
62	4
63	25
64	10
65	194
66	12
67	1
68	0
69	2
70	6
71	2
72	1
73	1
74	1
75	2
76	5
77	25
78	10
79	10
80	1
81	0
82	2
83	3
84	52
85	4
86	1
87	1
89	39
91	999
92	135
93	6
94	0
95	0
96	0
97	2
98	1
99	21
100	3
101	0
102	1
103	4
104	14
105	11
106	35
107	4
108	0
109	0
110	1
112	31
113	5
114	0
115	1
116	8
118	643
119	64
120	13
121	1
122	0
123	0
124	0
125	0
126	0
127	0
128	0
129	0
130	1
131	2
132	5
133	2
134	8
135	1
136	0
137	0
139	1
140	0
141	0
142	0
143	0
144	0
145	0
146	0
147	0
148	0
149	0
150	0
151	0
152	3
153	0
154	0
155	0
156	0
157	0
158	0
159	0
160	0
161	0
162	0
163	0
165	7
166	3
167	3
168	0
169	0
170	0
171	1
172	0
173	0
174	0
175	0
176	0
177	0
178	3
179	2
180	1
181	10
182	1
183	0
185	0
187	0
188	3
189	0
190	0
191	0
192	0
194	10
196	153
197	23
198	2
199	0
201	0
202	5
203	0
204	0
206	0
208	97
209	104
210	90
211	15
212	1
213	0
214	1
217	495
218	66
219	5
220	0
226	1
227	0
228	0
231	10
232	1
233	0
307	1
308	1
309	0
