Mass Spectrum: Propenone, 1-(2-benzyloxy-6-methoxyphenyl)-3-(4-methoxyphenyl)-
Formula: C24H22O4
CAS: 273920-65-3
Molecular weight: 374
m/z	intensity
33	0
37	1
39	116
40	12
41	28
42	2
43	6
44	3
45	3
46	0
50	25
51	53
52	19
53	14
55	15
56	0
57	1
59	0
60	0
61	2
62	12
63	56
65	219
66	9
67	2
68	1
69	2
70	0
71	1
73	0
74	4
75	10
76	30
77	52
78	12
79	21
80	3
81	1
83	1
84	0
85	0
86	1
87	2
89	72
91	999
92	84
93	6
95	5
96	0
97	0
98	1
99	0
101	4
102	10
103	22
104	6
105	10
107	32
108	12
109	1
110	0
113	2
115	27
116	9
117	14
118	25
119	12
121	225
122	25
123	4
124	0
126	2
127	5
128	2
129	2
130	1
131	5
132	23
133	44
134	27
135	8
136	6
137	2
139	7
141	7
142	1
143	0
145	5
146	5
147	9
148	6
151	121
152	18
153	9
154	2
155	1
156	0
157	1
159	1
161	33
162	4
163	2
164	2
165	10
167	2
168	2
169	5
170	1
171	0
175	1
177	10
178	3
179	2
180	1
181	7
182	2
183	2
184	1
185	0
189	0
190	0
191	1
192	2
193	20
195	4
196	4
197	11
198	2
199	0
206	0
207	2
208	3
209	16
210	8
211	13
212	3
213	0
219	0
221	4
222	11
223	27
224	48
225	14
226	4
227	21
228	3
235	0
236	1
237	5
238	2
239	3
240	6
241	2
242	0
243	1
249	1
250	3
251	3
253	63
254	15
255	87
256	14
257	1
265	2
266	2
267	11
268	17
269	3
270	0
281	4
283	106
284	18
285	2
297	3
298	0
343	3
344	0
346	0
356	1
357	2
358	0
371	0
372	1
374	49
375	11
376	1
