Mass Spectrum: Indolizine
Formula: C8H7N
CAS: 274-40-8
Molecular weight: 117
m/z	intensity
26	12
27	26
28	6
29	3
37	21
38	44
39	90
40	13
41	14
43	10
44	3
45	3
48	6
50	40
51	68
52	25
53	5
55	4
57	6
58	4
59	9
61	24
62	62
63	153
64	58
65	19
66	5
67	4
69	5
71	3
74	9
75	9
76	9
77	10
78	48
79	5
84	3
85	6
86	12
87	14
88	20
89	285
90	404
91	73
92	5
114	4
115	12
116	100
117	999
118	89
119	4
