Mass Spectrum: Imidazo[1,2-a]pyrimidine
Formula: C6H5N3
CAS: 274-95-3
Molecular weight: 119
m/z	intensity
37	73
38	216
39	220
40	294
41	91
52	106
53	106
59	66
64	91
65	330
66	128
79	73
92	349
118	69
119	999
120	73
