Mass Spectrum: Pyrazolo[1,5-a]pyridine
Formula: C7H6N2
CAS: 274-56-6
Molecular weight: 118
m/z	intensity
37	120
38	260
39	260
40	60
41	120
50	130
51	210
52	160
53	40
61	75
62	150
63	105
64	185
65	160
78	18
79	1
90	200
91	410
92	150
117	170
118	999
119	110
