Mass Spectrum: Imidazo(1,5-a)pyrimidine
Formula: C6H5N3
CAS: 274-67-9
Molecular weight: 119
m/z	intensity
37	91
39	71
40	59
51	49
53	89
64	89
65	171
66	168
79	40
92	89
93	70
117	90
118	321
119	999
