Mass Spectrum: [1,2,4]Triazolo[1,5-a]pyridine
Formula: C6H5N3
CAS: 274-85-1
Molecular weight: 119
m/z	intensity
38	200
39	100
40	50
41	70
50	30
51	80
52	60
63	60
64	110
65	260
66	70
78	300
79	20
91	40
92	160
119	999
120	140
