Mass Spectrum: Cyclopropane, 1,1-dibromo-2-ethyl-3-propyl-
Formula: C8H14Br2
CAS: 274266-03-4
Molecular weight: 268
m/z	intensity
36	0
37	5
38	24
39	239
40	38
41	387
42	105
43	115
44	4
45	3
46	0
49	1
50	34
51	99
52	42
53	211
54	24
55	279
56	72
57	24
58	0
61	3
62	9
63	24
65	201
66	97
67	883
68	68
69	122
70	10
71	5
73	0
74	4
75	2
77	104
78	24
79	164
80	72
81	151
82	18
83	9
84	129
85	11
86	0
89	0
91	30
92	4
93	19
94	9
95	11
96	0
97	6
98	1
99	0
103	0
104	1
105	9
106	2
107	34
109	999
110	93
111	5
116	0
117	19
119	70
120	12
121	52
122	9
123	3
129	1
130	1
131	23
133	233
134	19
135	206
136	13
137	1
143	1
144	2
145	18
146	14
147	141
148	18
149	120
150	7
159	9
160	2
161	9
162	1
170	0
171	0
172	1
173	2
174	0
175	1
184	25
185	2
186	46
187	3
188	25
189	75
190	7
191	70
192	6
197	38
198	7
199	73
200	13
201	35
202	6
210	2
211	4
212	81
213	11
214	151
215	10
216	69
217	3
225	6
226	21
227	13
228	40
229	8
230	20
231	0
239	1
241	3
243	0
268	3
270	6
272	3
