Mass Spectrum: 1-Acetamido-1,2,3-trideoxy-3-(N-methylacetamido)-dl-scyllo-inositol 4,5,6-triacetate
Formula: C17H26N2O8
CAS: 27425-84-9
Molecular weight: 386
m/z	intensity
13	2
14	23
15	41
16	2
17	1
18	3
25	2
26	5
27	18
28	112
29	12
30	48
31	6
32	22
38	4
39	14
40	16
41	67
42	183
43	999
44	156
45	36
46	2
50	3
51	7
52	7
53	13
54	18
55	37
56	382
57	140
58	139
59	49
60	144
61	7
62	2
63	5
64	5
65	14
66	12
67	27
68	66
69	25
70	53
71	18
72	73
73	79
74	378
75	13
76	3
77	13
78	17
79	9
80	32
81	42
82	60
83	56
84	132
85	143
86	146
87	14
88	15
89	2
90	3
91	6
92	12
93	36
94	83
95	29
96	62
97	34
98	264
99	100
100	140
101	85
102	51
103	7
104	6
105	9
106	19
107	18
108	44
109	150
110	322
111	74
112	44
113	17
114	87
115	52
116	68
117	9
118	5
119	4
120	5
121	40
122	153
123	174
124	397
125	58
126	110
127	630
128	226
129	21
130	8
131	3
132	3
133	42
134	20
135	15
136	40
137	18
138	72
139	71
140	131
141	107
142	46
143	33
144	17
145	4
146	12
147	19
148	71
149	20
150	18
151	466
152	573
153	83
154	36
155	12
156	18
157	24
158	9
159	2
160	2
161	1
162	4
163	33
164	451
165	408
166	445
167	66
168	55
169	733
170	138
171	19
172	3
173	1
175	1
176	1
177	1
178	1
179	4
180	16
181	172
182	158
183	49
184	33
185	20
186	8
187	1
188	3
189	20
190	3
191	16
192	6
193	271
194	211
195	34
196	25
197	7
198	4
199	19
200	9
201	2
202	1
204	1
205	5
206	411
207	477
208	171
209	32
210	19
211	28
212	28
213	6
214	1
217	2
222	7
223	77
224	75
225	208
226	53
227	16
228	8
229	1
230	2
239	2
240	2
241	52
242	24
243	7
244	1
245	4
251	1
252	1
253	22
254	138
255	20
256	9
257	1
258	1
259	12
260	2
262	1
264	1
265	5
266	80
267	196
268	276
269	45
270	10
271	3
272	5
283	110
284	85
285	51
286	8
287	3
299	1
301	43
302	7
303	2
311	5
312	1
313	5
314	49
315	9
316	1
325	4
326	57
327	54
328	10
329	12
330	2
343	82
344	23
345	11
346	2
384	2
386	208
387	113
388	20
389	3
