Mass Spectrum: N-.alpha.-Naphthyl-N',N'-dimethyl thiourea
Formula: C13H14N2S
CAS: 2742-61-2
Molecular weight: 230
m/z	intensity
41	14
42	133
43	23
44	165
45	56
46	8
47	37
48	3
49	48
50	35
51	70
52	12
53	4
54	1
55	8
56	44
57	10
58	7
59	7
60	6
61	18
62	24
63	59
64	12
65	15
66	2
67	2
69	10
70	8
71	210
72	43
73	93
74	44
75	62
76	31
77	79
78	3
79	28
82	3
83	0
84	23
85	1
86	29
87	23
88	999
89	76
90	48
91	15
93	29
98	11
99	12
100	14
101	41
102	13
103	2
106	4
107	14
108	3
111	1
113	25
114	44
115	217
116	24
117	3
125	9
126	74
127	163
128	57
129	12
134	2
139	3
140	38
141	48
142	16
143	5
145	1
152	9
153	31
154	45
155	7
156	11
157	1
158	20
159	17
160	305
161	34
162	14
166	1
167	8
168	4
169	1
170	12
172	10
173	5
174	1
181	11
182	22
183	4
185	142
186	28
187	8
197	68
198	12
199	5
213	4
214	7
228	6
229	10
230	219
231	38
232	13
