Mass Spectrum: 2-[2-[2-[2-[2-[2-[2-[2-[2-(2-Methoxyethoxy)ethoxy]ethoxy]ethoxy]ethoxy]ethoxy]ethoxy]ethoxy]ethoxy]ethanol
Formula: C21H44O11
CAS: 27425-92-9
Molecular weight: 472
m/z	intensity
15	6
19	5
25	1
26	3
27	16
28	44
29	79
30	11
31	80
32	2
33	2
39	1
40	1
41	28
42	32
43	174
44	120
45	999
46	25
47	3
54	1
55	4
56	8
57	40
58	251
59	960
60	38
61	12
62	1
63	1
67	1
68	2
69	10
70	39
71	56
72	143
73	228
74	14
75	32
76	3
77	10
78	1
80	10
81	1
83	3
84	3
85	7
86	49
87	458
88	137
89	777
90	38
91	10
92	1
95	1
96	2
97	2
98	1
99	10
100	10
101	93
102	66
103	604
104	40
105	17
106	1
107	4
112	2
113	20
114	12
115	30
116	20
117	85
118	11
119	13
120	1
121	17
122	1
124	2
127	1
128	1
129	4
130	3
131	140
132	15
133	400
134	28
135	7
136	1
139	1
141	1
143	1
144	1
145	12
146	3
147	142
148	12
149	3
151	3
157	6
158	3
159	18
160	2
161	8
162	2
163	10
164	1
165	5
171	1
173	1
174	1
175	59
176	6
177	80
178	7
179	2
187	1
189	4
190	1
191	10
192	1
195	2
201	6
202	2
203	7
204	1
205	1
207	9
208	1
209	4
210	1
219	13
220	2
221	13
222	2
233	1
235	2
239	1
245	1
247	2
251	4
252	1
253	3
263	2
264	1
265	4
266	1
279	1
283	1
295	2
297	1
309	1
339	1
353	1
385	1
429	1
