Mass Spectrum: 2-Hexanol, 3,3,5-trimethyl-2-(3-methylphenyl)-
Formula: C16H26O
CAS: 274266-33-0
Molecular weight: 234
m/z	intensity
38	0
39	26
40	16
41	103
43	999
44	20
45	3
50	1
51	5
52	1
53	7
55	23
56	10
57	83
59	9
63	4
64	0
65	23
66	1
67	5
68	0
69	8
70	2
71	5
73	1
76	0
77	14
78	3
79	5
81	0
83	9
84	1
85	7
86	0
89	3
91	65
92	16
93	10
94	0
98	0
99	2
102	0
103	2
104	1
105	24
106	2
107	0
109	0
115	9
116	2
117	8
118	4
119	45
120	11
121	4
127	1
128	5
129	5
130	2
131	4
132	2
133	12
135	871
136	89
137	4
141	1
142	2
143	2
144	2
145	16
146	2
147	0
148	4
149	1
156	0
157	0
158	0
159	13
160	26
161	4
173	2
177	3
191	1
201	0
216	0
