Mass Spectrum: N-Acetylglycylglycine methylamide
Formula: C7H13N3O3
CAS: 27439-99-2
Molecular weight: 187
m/z	intensity
14	6
15	66
16	2
26	3
27	14
28	131
29	38
30	912
31	102
32	117
33	1
39	1
40	5
41	12
42	77
43	383
44	47
45	52
46	2
52	1
53	1
54	7
55	9
56	49
57	25
58	135
59	61
60	76
61	2
68	1
69	7
70	6
71	86
72	374
73	641
74	28
75	4
82	1
83	7
84	3
85	12
86	5
87	27
88	109
89	42
90	2
97	4
98	2
99	12
100	462
101	27
102	3
111	1
112	4
113	14
114	17
115	302
116	18
117	4
126	1
127	1
128	1
129	88
130	999
131	63
132	5
141	5
144	2
145	2
156	15
157	8
158	3
169	3
172	1
187	95
188	9
189	1
