Mass Spectrum: 2-Hydroxy-4-methyl-5-phenyl-6-[2,2-diphenyl-2-hydroxyethyl]pyrimidine
Formula: C25H22N2O2
CAS: 27433-89-2
Molecular weight: 382
m/z	intensity
42	240
43	46
44	70
45	2
47	9
49	52
50	105
51	305
52	34
53	12
54	6
55	8
56	2
57	34
58	2
59	9
60	5
61	2
62	35
63	80
64	16
65	52
66	1
67	11
68	2
69	6
70	4
71	7
72	2
74	44
75	40
77	646
78	44
79	8
83	1
84	39
86	43
87	15
88	12
89	77
90	21
91	19
92	2
93	1
94	1
95	1
97	1
98	2
99	4
100	9
101	6
102	18
103	63
105	999
106	58
107	5
109	8
111	1
113	15
115	267
116	53
117	12
118	6
119	1
121	6
122	14
124	1
126	7
127	18
128	18
129	18
130	128
131	71
132	9
140	14
141	4
142	18
143	17
144	14
145	2
149	6
150	1
151	8
152	30
153	10
154	32
155	71
157	116
158	155
159	13
165	6
169	1
170	1
171	43
172	82
173	8
175	1
178	2
179	4
181	11
182	403
183	40
185	172
186	13
197	4
198	1
199	240
200	455
201	54
202	9
207	1
217	2
222	1
