Mass Spectrum: 1-Benzylbenzimidazole 3-oxide
Formula: C14H12N2O
CAS: 27430-55-3
Molecular weight: 224
m/z	intensity
39	150
40	440
41	120
43	100
44	220
51	70
55	90
57	90
63	90
65	190
69	60
71	50
73	90
77	70
90	50
91	999
92	110
119	10
208	100
209	56
223	12
224	24
