Mass Spectrum: 2-Diethoxymethyl-pyridine-1-oxide
Formula: C10H15NO3
CAS: 27443-43-2
Molecular weight: 197
m/z	intensity
25	1
26	14
27	87
28	28
29	127
30	7
31	21
36	1
37	3
38	11
39	60
40	8
41	13
42	5
43	18
44	7
45	23
46	4
47	96
48	2
49	3
50	25
51	131
52	123
53	44
54	3
55	5
56	1
57	2
58	1
59	2
60	1
61	5
62	6
63	21
64	10
65	19
66	9
67	6
68	4
69	2
70	1
71	1
73	3
74	5
75	69
76	9
77	19
78	999
79	398
80	75
81	4
82	1
83	1
84	1
85	2
86	3
87	2
88	1
89	2
90	1
91	3
92	9
93	7
94	5
95	66
96	77
97	6
98	1
99	1
100	1
101	3
102	2
103	69
104	7
105	5
106	668
107	61
108	718
109	60
110	7
111	9
112	2
113	3
114	1
115	1
117	5
118	3
119	1
120	8
121	4
122	165
123	22
124	948
125	66
126	7
127	1
130	1
131	1
132	0
133	0
134	4
135	5
136	627
137	93
138	8
139	21
140	100
141	14
142	2
143	0
147	1
148	1
149	1
150	2
151	2
152	726
153	449
154	41
155	4
156	4
157	1
158	2
167	1
168	51
169	4
170	7
171	1
172	2
173	1
174	0
175	1
180	105
181	13
182	2
183	1
198	11
199	1
