Mass Spectrum: Dasycarpidol
Formula: C17H22N2O
CAS: 2744-46-9
Molecular weight: 270
m/z	intensity
90	30
91	70
92	40
93	70
94	50
95	160
96	90
97	210
98	100
99	100
100	40
101	50
102	40
103	40
104	20
105	40
106	20
107	50
108	30
109	100
110	60
111	140
112	100
113	70
114	30
115	80
116	40
117	610
118	999
119	580
120	920
121	200
122	300
123	80
124	60
125	70
126	50
127	70
128	80
129	100
130	170
131	40
132	10
133	20
134	10
135	60
136	40
137	80
138	30
139	60
140	40
141	50
142	40
143	70
144	50
145	20
146	10
147	20
148	10
149	80
150	20
151	40
152	60
153	50
154	90
155	70
156	100
157	70
158	310
159	100
160	20
161	10
162	10
163	40
164	20
165	50
166	70
167	230
168	220
169	80
170	70
171	90
172	60
173	40
174	10
175	10
176	10
177	30
178	40
179	50
180	370
181	110
182	80
183	190
184	170
185	90
186	20
187	330
188	60
189	20
190	20
191	50
192	60
193	80
194	160
195	870
196	300
197	100
198	80
199	50
200	20
201	60
202	10
203	10
204	30
205	40
206	70
207	40
208	100
209	240
210	110
211	70
212	50
213	170
214	60
215	20
216	20
217	20
218	20
219	30
220	40
221	60
222	80
223	260
224	60
225	30
226	10
227	50
228	10
229	10
231	10
232	10
233	10
234	10
235	20
236	20
237	40
238	20
239	70
240	20
241	70
242	20
243	10
246	20
247	10
248	10
249	10
250	20
251	50
252	170
253	50
254	20
255	60
256	20
268	20
269	40
270	190
271	50
272	10
