Mass Spectrum: Pyridine, 2-(diethoxymethyl)-
Formula: C10H15NO2
CAS: 27443-37-4
Molecular weight: 181
m/z	intensity
25	0
26	8
27	59
28	17
29	72
30	3
31	5
33	0
34	0
35	1
36	0
37	1
38	4
39	14
40	2
41	5
42	2
43	6
44	8
45	7
46	0
47	260
48	3
49	5
50	16
51	61
52	78
53	55
54	3
55	3
56	1
57	3
58	0
59	0
60	0
61	0
62	1
63	7
64	7
65	29
66	4
67	2
68	1
69	1
70	1
71	1
72	0
73	1
74	1
75	256
76	10
77	6
78	208
79	142
80	64
81	5
82	0
83	1
84	37
85	0
86	21
87	0
88	3
89	0
90	0
91	4
92	14
93	9
94	3
95	1
96	1
97	1
98	0
99	0
100	0
101	0
102	2
103	323
104	21
105	3
106	53
107	13
108	999
109	71
110	4
111	1
112	0
113	0
114	0
115	0
116	0
117	2
118	1
119	1
120	2
121	0
122	0
123	0
124	4
125	0
126	0
127	0
128	1
129	0
130	0
131	0
132	0
133	0
134	1
135	1
136	206
137	200
138	18
139	1
140	0
141	1
142	0
143	0
144	0
145	0
146	0
147	0
148	0
151	0
152	10
153	1
154	0
155	0
156	1
157	0
158	0
159	0
160	0
161	0
165	0
166	0
167	0
168	0
169	0
170	0
171	0
172	0
173	0
179	0
180	1
181	2
182	0
