Mass Spectrum: Acetohydroxamic acid, N-(p-tolyl)-
Formula: C9H11NO2
CAS: 27451-21-4
Molecular weight: 165
m/z	intensity
24	30
25	155
26	268
27	211
28	68
29	28
31	3
32	3
36	11
37	91
38	211
39	569
40	91
41	140
42	320
43	999
44	83
45	10
46	3
48	8
49	71
50	480
51	467
52	360
53	163
54	48
55	8
56	3
57	3
59	3
60	20
61	83
62	151
63	331
64	140
65	467
66	71
67	23
68	3
69	3
71	3
72	3
73	20
74	80
75	91
76	140
77	527
78	579
79	455
80	71
81	8
83	3
84	3
85	20
86	28
87	23
88	20
89	115
90	83
91	431
92	380
93	68
94	20
95	3
96	3
97	3
98	3
99	8
101	3
102	31
103	43
104	420
105	407
106	959
107	987
108	128
109	8
110	3
111	3
114	3
115	3
116	11
117	8
118	23
119	20
120	43
121	83
122	315
123	999
124	280
125	10
126	3
128	3
129	3
130	3
131	3
132	140
133	128
134	20
135	3
136	3
137	3
142	3
143	3
144	3
145	3
146	3
148	16
149	375
150	43
151	3
152	3
160	3
161	3
162	3
163	3
164	3
165	460
166	56
167	3
