Mass Spectrum: Tetrazol, 5-[2-(4-methylphenylamino)ethenyl]-1-phenyl-
Formula: C16H15N5
CAS: 274690-46-9
Molecular weight: 277
m/z	intensity
36	12
37	24
38	91
39	378
40	74
41	176
42	31
43	69
44	89
45	14
48	16
49	6
50	127
51	491
52	178
53	68
54	31
55	72
56	20
57	36
58	28
59	6
60	8
61	9
62	45
63	227
64	268
65	678
66	65
67	24
68	11
69	42
70	17
71	16
73	17
74	24
75	34
76	106
77	845
78	176
79	85
80	23
81	11
82	8
83	30
85	17
87	10
88	15
89	170
90	153
91	999
92	159
93	32
95	9
96	3
97	8
98	10
101	13
102	50
103	171
104	292
105	74
106	39
107	5
110	20
111	9
112	2
113	4
114	13
115	77
116	86
117	178
118	396
119	61
120	3
123	27
124	9
125	3
127	9
128	37
129	56
130	221
131	305
132	92
133	17
139	9
140	6
141	12
142	86
143	119
144	53
145	107
146	13
150	3
152	4
153	3
155	25
156	35
157	151
158	179
159	16
160	2
165	22
166	9
167	20
168	9
169	5
170	20
171	11
172	47
173	6
178	7
179	16
180	34
181	14
182	6
184	3
190	6
191	13
192	47
193	34
194	69
195	13
204	10
205	13
206	122
207	63
208	25
209	11
218	21
219	23
220	20
221	89
222	22
231	16
232	44
233	586
234	126
235	40
246	13
247	38
248	735
249	202
250	25
266	12
267	11
275	6
277	580
278	104
279	7
