Mass Spectrum: Benzenecarboximidamide, N-hydroxy-4-[[[4-[4-[(hydroxyamino)iminomethyl]phenoxy]phenyl]methylene]hydrazino]-
Formula: C21H20N6O3
CAS: 274679-78-6
Molecular weight: 404
m/z	intensity
41	134
42	141
43	317
44	645
45	132
46	36
48	2
49	20
50	132
51	247
52	451
53	347
54	230
55	83
56	13
57	9
59	5
60	12
61	32
62	69
63	162
64	136
65	243
66	137
67	69
68	12
69	16
70	10
71	28
72	127
73	11
74	41
75	97
76	112
77	95
78	97
79	235
80	499
81	117
82	24
83	1
84	6
85	2
86	6
87	11
88	14
89	33
90	77
91	81
92	127
93	250
94	48
95	11
96	1
97	10
98	10
99	23
100	6
101	9
102	91
103	30
104	36
105	185
106	303
107	526
108	999
109	78
110	3
111	9
112	1
113	3
114	5
115	13
116	14
117	20
118	47
119	68
120	63
121	65
122	10
123	12
125	2
126	3
127	17
128	13
129	9
130	10
131	7
132	22
133	62
134	455
135	46
136	15
137	4
138	4
139	26
140	36
141	10
142	2
143	3
144	3
145	6
146	8
147	8
148	11
149	116
150	14
151	19
152	12
153	10
154	18
155	8
156	19
157	6
159	6
160	34
161	6
162	1
163	6
164	20
165	19
166	35
167	17
168	10
169	7
171	1
173	2
175	20
176	3
177	3
178	3
179	9
180	9
181	22
182	20
183	13
184	38
185	12
187	2
188	8
190	3
191	13
192	25
193	13
194	15
195	10
196	11
197	6
198	16
199	25
200	4
203	1
206	3
207	8
208	11
209	11
210	270
211	60
212	37
213	8
214	3
218	1
219	7
220	89
221	35
222	105
223	19
224	8
225	17
226	5
227	5
228	61
229	18
230	1
235	4
236	54
237	14
238	58
239	18
240	12
241	5
251	3
253	11
254	12
255	5
256	7
271	11
272	4
279	1
287	4
288	9
289	6
290	14
291	3
297	3
298	5
299	2
300	8
301	4
302	34
303	77
304	18
305	1
311	1
312	33
313	69
314	17
315	3
316	9
317	4
318	50
319	12
326	3
327	4
328	60
329	26
330	9
331	10
338	9
339	6
342	1
344	17
345	4
346	18
347	3
354	9
355	3
356	9
357	2
370	4
372	7
374	1
404	1
