Mass Spectrum: Adamantane, 1-benzylthio-3-chloro-
Formula: C17H21ClS
CAS: 274690-01-6
Molecular weight: 292
m/z	intensity
33	1
34	1
35	3
36	11
37	2
38	11
39	128
40	27
41	142
42	7
43	12
44	20
45	206
46	6
47	20
48	0
49	4
50	12
51	54
52	18
53	55
54	9
55	79
56	6
57	12
58	13
59	22
60	3
61	4
62	7
63	37
64	17
65	206
66	23
67	42
68	4
69	16
70	3
71	15
72	6
73	10
74	10
75	18
77	205
78	50
79	142
80	13
81	30
82	3
83	4
84	5
85	9
86	3
87	6
89	49
91	999
92	130
93	143
94	12
95	3
97	14
98	3
99	5
100	1
101	12
102	3
103	15
104	6
105	88
106	11
107	16
108	3
109	5
110	9
111	16
112	9
113	107
114	10
115	52
116	11
117	15
118	4
119	11
120	3
121	21
122	16
123	38
124	7
125	10
126	3
127	64
128	9
129	25
130	3
131	20
132	17
133	312
134	40
135	7
136	0
137	2
138	0
139	1
141	13
142	1
143	5
144	0
145	1
147	1
149	2
150	0
151	3
152	0
153	0
155	0
157	0
159	1
163	0
164	1
165	5
166	44
167	11
169	858
170	102
171	279
172	29
173	1
179	2
201	7
202	1
203	2
256	3
257	5
258	1
259	0
290	1
292	228
293	48
294	81
295	15
296	4
297	0
