Mass Spectrum: Tetrazole, 1-(4-fluorophenyl)-5-[2-(1-pyrrolidinyl)ethenyl]-
Formula: C13H14FN5
CAS: 274691-73-5
Molecular weight: 259
m/z	intensity
33	6
34	1
36	0
37	12
38	58
39	224
40	111
41	452
42	237
43	159
44	42
45	9
46	3
48	0
50	46
51	51
52	132
53	128
54	195
55	365
56	75
57	74
58	9
59	3
60	3
61	6
62	25
63	37
64	19
65	32
66	147
67	124
68	123
69	102
70	115
71	11
72	2
73	5
74	25
75	136
76	17
77	34
78	21
79	104
80	81
81	250
82	999
83	170
84	19
85	5
86	2
87	9
88	11
89	25
90	6
91	6
92	25
93	39
94	195
95	262
96	98
97	10
98	2
99	3
100	3
101	7
102	2
103	1
104	6
105	6
106	34
107	34
108	94
109	253
110	40
111	14
112	3
113	4
114	3
115	10
117	2
118	4
119	26
120	33
121	232
122	152
123	22
124	8
125	1
126	1
127	1
128	2
129	1
131	2
132	4
133	16
134	23
135	58
136	80
137	32
138	3
139	1
140	0
141	2
142	0
143	0
145	1
146	9
147	12
148	33
149	37
150	15
151	3
152	2
153	1
154	1
155	2
156	2
157	0
158	1
159	2
160	14
161	26
162	59
163	22
164	8
165	1
166	1
167	1
168	1
169	3
170	2
171	1
172	2
173	4
174	33
175	73
176	73
177	16
178	2
179	1
182	2
183	5
184	2
185	2
186	3
187	12
188	45
189	18
190	23
191	6
194	2
195	0
197	0
199	1
200	4
201	9
202	87
203	107
204	21
205	4
206	0
210	9
211	2
212	2
213	3
214	2
215	5
216	3
217	15
218	2
225	0
226	3
227	2
228	11
230	305
231	65
232	7
233	2
255	0
257	3
259	243
260	37
261	3
