Mass Spectrum: Benzenamine, N-[2-(1-phenyl)-5-tetrazolyl]ethenyl]-
Formula: C15H13N5
CAS: 274690-45-8
Molecular weight: 263
m/z	intensity
33	4
37	9
38	58
39	141
40	40
41	35
42	6
43	5
44	9
50	104
51	407
52	84
53	14
54	9
55	20
56	5
57	2
59	2
61	4
62	20
63	84
64	117
65	128
66	33
67	6
68	2
69	4
70	1
71	1
73	3
74	17
75	32
77	999
78	149
79	14
80	3
81	1
82	1
83	2
85	0
86	1
87	2
88	9
89	62
90	91
91	146
92	55
93	26
94	3
95	2
97	7
99	0
101	10
102	33
103	109
104	465
105	66
106	10
107	1
109	3
110	2
113	1
114	5
115	19
116	94
117	154
118	60
119	11
120	0
126	1
127	4
128	22
129	65
130	58
131	210
132	47
133	6
139	2
140	2
141	5
142	24
143	93
144	83
145	9
146	0
149	0
150	0
151	5
152	10
153	7
154	7
155	4
156	11
157	20
158	85
159	9
160	5
164	4
165	16
166	19
167	24
168	9
169	6
170	6
171	1
178	56
179	29
180	62
181	10
182	2
183	0
190	11
191	12
192	97
193	36
194	23
195	8
196	1
204	6
205	17
206	32
207	102
208	25
209	4
216	4
217	15
219	520
220	88
221	29
222	4
231	4
234	736
235	172
236	19
237	1
260	2
263	563
264	91
265	8
