Mass Spectrum: L-Proline, 1-acetyl-, methyl ester
Formula: C8H13NO3
CAS: 27460-51-1
Molecular weight: 171
m/z	intensity
15	56
28	70
41	84
42	34
43	120
68	80
69	36
70	999
71	80
112	360
113	40
127	34
171	116
172	20
