Mass Spectrum: Benzenamine, 4-methyl-N-[2-[1-(4-chlorophenyl)-5-tetrazolyl]ethenyl]-
Formula: C16H14ClN5
CAS: 274690-76-5
Molecular weight: 311
m/z	intensity
33	21
34	3
35	9
36	36
37	23
38	68
39	227
40	81
41	77
42	16
43	19
44	28
45	4
47	1
48	1
49	12
50	112
51	141
52	99
53	45
54	16
55	23
56	12
57	7
59	2
61	25
62	68
63	191
64	105
65	379
66	29
67	8
68	5
69	10
70	5
71	4
73	37
74	49
75	172
76	65
77	187
78	72
79	50
80	14
81	4
82	4
83	8
84	9
85	24
86	11
87	23
89	247
90	333
91	999
92	116
93	15
94	4
95	5
96	5
97	13
98	24
99	58
100	18
101	52
102	116
103	153
104	100
105	56
106	70
107	30
108	7
111	465
112	61
113	123
114	43
115	111
116	176
117	335
118	773
119	101
120	14
121	6
123	162
125	191
126	53
127	92
128	74
129	115
130	465
131	541
132	121
133	28
134	21
135	20
137	134
138	318
139	103
140	146
141	88
142	180
143	241
144	128
145	244
146	35
147	4
148	1
149	7
150	14
151	32
152	40
153	24
154	21
155	65
156	129
157	385
158	346
159	39
160	1
162	8
163	10
164	25
165	88
166	67
167	42
168	24
169	13
170	34
171	35
172	118
173	14
176	5
177	14
178	15
179	36
180	25
181	12
182	5
183	4
184	8
189	4
190	15
191	25
192	55
193	24
194	27
195	4
196	2
199	3
200	1
201	7
202	8
203	11
204	38
205	49
206	35
207	27
208	5
212	3
213	9
214	22
215	15
216	15
217	9
218	19
219	29
220	31
221	20
222	4
223	1
224	1
226	46
227	39
228	85
229	27
230	34
231	28
232	56
233	63
234	12
237	1
238	5
240	149
241	66
242	65
243	28
244	15
245	15
246	48
247	111
248	134
249	22
250	2
251	2
252	12
253	19
254	18
255	92
256	26
257	29
258	4
263	6
264	18
265	28
267	844
268	178
269	274
270	51
271	16
272	2
276	1
277	2
278	5
279	18
280	27
282	893
283	240
284	266
285	67
286	9
307	6
308	11
309	23
311	683
312	132
313	197
314	33
315	2
