Mass Spectrum: Ethenamine, 2-[1-(4-chlorophenyl)-5-tetrazolyl]-N,N-di(2-chloroethyl)-
Formula: C13H14Cl3N5
CAS: 274691-58-6
Molecular weight: 345
m/z	intensity
35	26
36	137
37	54
38	153
39	256
40	113
41	302
42	217
43	21
44	9
45	1
47	9
49	65
50	179
51	133
52	139
53	152
54	197
55	72
56	31
57	3
60	4
61	56
63	999
64	101
65	249
66	77
67	81
68	144
69	180
70	9
72	5
73	48
74	72
75	267
76	68
77	24
78	22
79	57
80	116
81	173
82	169
83	21
84	9
85	32
86	9
87	22
88	31
89	74
90	310
91	34
92	48
93	24
94	110
95	145
96	26
97	9
98	26
99	46
100	15
101	30
102	70
103	40
104	13
105	19
106	14
107	22
108	40
109	23
111	342
112	32
113	103
114	19
115	11
116	39
117	20
118	27
119	8
120	10
121	7
122	4
123	6
125	330
126	42
127	104
128	19
129	34
130	205
131	287
132	74
133	84
134	7
137	111
138	60
139	47
140	29
141	21
142	39
143	185
144	164
145	65
146	46
147	5
148	1
149	10
150	19
151	69
152	43
153	47
154	19
155	27
156	44
157	93
158	19
159	5
162	7
163	7
164	22
165	34
166	30
167	19
168	23
170	147
171	149
172	11
173	1
174	1
175	1
176	5
177	26
178	41
179	88
180	24
181	31
182	16
183	36
184	176
185	24
186	2
188	2
189	7
190	19
191	92
192	54
193	63
194	23
195	16
196	23
197	28
198	10
199	2
200	3
201	0
202	7
203	29
204	108
205	48
206	40
207	13
208	4
209	3
210	26
211	9
212	9
213	1
214	1
215	3
216	15
217	24
218	66
219	31
220	27
221	8
222	3
226	2
227	2
228	1
229	5
230	15
232	109
233	312
234	80
235	62
236	9
241	6
242	1
243	4
244	23
245	16
246	59
247	77
248	24
249	22
250	4
252	2
253	35
254	31
255	32
256	19
257	10
258	2
260	2
262	2
265	2
266	4
267	10
268	75
269	14
270	50
271	6
272	8
273	8
274	9
275	4
276	3
278	0
280	28
281	18
282	30
283	16
284	11
285	3
290	2
292	2
303	3
305	3
306	3
307	3
309	117
310	23
311	72
312	12
313	11
314	1
317	4
319	6
321	3
345	46
346	10
347	43
348	8
349	15
350	2
351	0
