Mass Spectrum: 1-Propene, 1-(ethylthio)-2-methyl-
Formula: C6H12S
CAS: 27482-14-0
Molecular weight: 116
m/z	intensity
25	1
26	16
27	185
29	134
30	4
34	9
35	14
37	5
38	10
39	140
40	4
41	113
42	8
43	54
45	443
46	38
47	163
48	8
49	12
50	15
51	23
52	8
53	343
54	128
55	370
56	36
57	20
58	30
59	279
60	98
61	84
62	17
63	7
64	1
65	12
66	2
67	90
68	7
69	31
70	8
71	94
72	18
73	105
74	10
75	16
77	3
78	1
79	9
81	22
82	12
83	18
84	4
85	93
86	130
87	973
88	118
89	47
90	3
97	1
99	11
101	89
102	8
103	5
115	8
116	999
117	87
118	51
