Mass Spectrum: Cyclohexanol, 4-amino-, trans-
Formula: C6H13NO
CAS: 27489-62-9
Molecular weight: 115
m/z	intensity
15	3
18	6
26	4
27	24
28	50
29	29
30	47
31	15
37	1
38	3
39	33
40	7
41	63
42	71
43	353
44	27
45	3
46	7
50	3
51	6
52	5
53	12
54	24
55	27
56	999
57	243
58	14
59	16
63	1
65	4
66	2
67	9
68	21
69	26
70	7
71	1
77	13
78	2
79	14
80	7
81	10
82	13
83	4
84	1
85	1
86	5
87	1
93	1
94	3
95	1
96	14
97	16
98	14
99	1
100	1
114	2
115	53
116	4
