Mass Spectrum: N-Acetylalanylalanine methylamide
Formula: C9H17N3O3
CAS: 27482-45-7
Molecular weight: 215
m/z	intensity
14	2
15	43
17	6
18	1
26	3
27	18
28	55
29	9
30	47
31	9
32	7
38	1
39	2
40	4
41	11
42	63
43	134
44	999
45	50
46	4
52	1
53	1
54	2
55	22
56	18
57	9
58	76
59	10
60	9
68	6
69	6
70	21
71	23
72	78
73	5
77	1
83	2
84	5
85	5
86	271
87	301
88	15
89	1
97	4
98	3
99	36
100	5
101	5
102	4
103	5
111	2
112	1
113	8
114	124
115	9
116	1
126	1
127	2
128	2
129	43
130	7
131	1
138	2
139	2
140	2
141	9
142	3
154	1
156	1
157	241
158	104
159	9
160	1
169	1
172	7
173	2
184	1
185	3
197	1
215	4
