Mass Spectrum: Benzene, 1,1'-[methylenebis(oxymethylene)]bis-
Formula: C15H16O2
CAS: 2749-70-4
Molecular weight: 228
m/z	intensity
41	20
51	50
63	20
65	110
77	70
78	20
79	70
89	30
90	60
91	950
92	999
93	80
105	20
106	20
107	220
108	30
119	70
120	60
121	20
137	30
