Mass Spectrum: Benzenesulfonic acid, 4-methyl-, (6-bromomethylbicyclo[2.2.1]hept-2-yl) ester
Formula: C15H19BrO3S
CAS: 274908-58-6
Molecular weight: 358
m/z	intensity
33	0
34	1
35	0
36	1
37	2
38	15
39	252
40	55
41	306
42	22
43	29
44	15
45	11
46	1
47	1
48	5
49	2
50	26
51	67
52	35
53	142
54	51
55	118
56	8
57	16
58	1
59	2
60	1
61	2
62	16
63	70
64	41
65	401
66	218
67	204
68	20
69	14
70	10
71	4
72	1
73	2
74	4
75	6
76	11
77	168
78	86
79	610
80	294
81	115
82	26
83	11
84	2
85	3
86	2
87	3
89	88
90	71
91	999
92	187
93	139
94	20
95	132
96	12
97	3
98	0
99	0
100	0
101	0
102	1
103	6
104	6
105	80
106	632
107	704
108	83
109	29
110	2
111	3
112	0
113	1
114	11
115	18
116	5
117	6
118	1
119	8
120	1
121	12
122	20
123	55
124	19
125	2
126	0
127	1
128	1
129	2
130	0
131	1
132	2
133	6
134	2
135	6
136	0
137	1
139	45
140	8
141	4
142	13
143	4
144	5
145	4
146	2
147	3
148	0
149	8
150	1
151	1
152	0
153	3
155	384
156	46
157	168
158	84
159	222
160	82
161	201
162	14
163	1
165	0
167	0
168	1
169	2
170	3
171	8
172	25
173	9
174	2
175	3
176	0
177	0
183	0
185	6
186	131
187	90
188	121
189	75
190	7
191	0
199	1
200	0
201	1
203	26
204	4
205	24
206	2
233	0
235	23
236	3
237	2
238	1
239	1
265	1
277	0
278	6
279	39
280	6
281	2
282	0
314	0
358	5
359	1
360	4
361	0
362	0
