Mass Spectrum: Bicyclo[2.2.1]heptan-2-ol, 6-tert-butyl-
Formula: C11H20O
CAS: 274907-06-1
Molecular weight: 168
m/z	intensity
33	0
34	0
35	1
36	1
37	2
38	14
39	179
40	60
41	478
42	51
43	196
44	35
45	11
46	1
47	2
48	1
49	1
50	5
51	22
52	15
53	77
54	31
55	239
56	102
57	472
58	25
59	18
60	2
61	1
62	2
63	6
64	4
65	65
66	332
67	999
68	105
69	114
70	58
71	22
72	1
73	1
74	0
75	1
76	5
77	104
78	24
79	154
80	58
81	161
82	30
83	114
84	28
85	11
86	1
87	3
88	0
89	1
90	4
91	112
92	30
93	256
94	181
95	107
96	17
97	28
98	4
99	2
100	1
101	1
102	0
103	2
104	1
105	16
106	8
107	168
108	27
109	213
110	252
111	486
112	101
113	10
114	1
115	1
116	0
117	2
118	0
119	7
120	2
121	11
122	41
123	248
124	38
125	15
126	1
127	1
128	0
129	0
131	0
132	0
133	2
134	5
135	158
136	17
137	2
138	0
139	0
144	1
145	0
147	0
148	0
149	2
150	70
151	10
152	1
153	11
154	1
155	0
159	0
161	0
165	0
166	2
167	0
168	5
169	0
