Mass Spectrum: 4-Aminocyclohexanone, N-acetyl-
Formula: C8H13NO2
CAS: 27514-08-5
Molecular weight: 155
m/z	intensity
41	195
42	192
43	999
44	75
45	8
47	6
48	1
49	29
50	5
51	18
52	14
53	38
54	178
55	88
56	539
57	352
58	40
60	630
61	13
65	12
66	11
67	57
68	99
69	25
70	36
71	9
72	1
73	19
77	3
78	2
79	6
80	10
81	19
82	9
83	10
84	83
85	69
86	18
91	5
94	12
95	50
96	638
97	48
98	34
99	29
101	21
112	13
113	8
114	1
139	2
156	31
157	5
