Mass Spectrum: Benzenesulfonic acid, 4-chloro-, hydrazide
Formula: C6H7ClN2O2S
CAS: 2751-25-9
Molecular weight: 206
m/z	intensity
31	375
50	375
51	250
75	924
77	375
111	874
112	999
113	400
114	325
115	50
127	75
128	150
129	25
130	50
142	12
144	20
159	325
161	125
175	75
176	150
177	549
178	100
179	200
206	275
208	100
