Mass Spectrum: 1,5-Anhydro-d-altritol
Formula: C6H12O5
CAS: 27518-98-5
Molecular weight: 164
m/z	intensity
42	656
43	846
44	406
45	554
46	18
47	56
48	0
49	5
50	7
51	14
52	5
53	26
54	20
55	238
56	174
57	713
58	102
59	83
60	370
61	202
62	13
63	4
64	0
65	2
66	2
67	4
68	14
69	32
70	39
71	211
72	33
73	999
74	449
75	49
76	5
77	10
78	22
79	2
81	9
82	8
83	12
84	12
85	142
86	107
87	102
88	9
89	20
90	1
91	19
92	0
93	0
95	1
96	0
97	37
98	9
99	67
100	95
101	6
102	31
103	335
104	18
105	12
106	9
107	2
109	0
110	1
111	8
112	0
113	0
114	1
115	185
116	47
117	9
118	0
121	2
122	0
124	9
125	1
127	1
128	8
129	15
130	0
132	9
133	310
134	16
135	3
145	1
146	144
147	35
148	3
149	0
163	5
164	36
165	2
166	0
