Mass Spectrum: N-Phenylacetyl-l-glutamic acid
Formula: C13H15NO5
CAS: 2752-33-2
Molecular weight: 265
m/z	intensity
15	2
16	1
17	27
18	156
26	4
27	17
28	72
29	33
30	7
31	3
32	2
37	1
38	6
39	57
40	8
41	91
42	14
43	29
44	110
45	26
46	3
50	9
51	27
52	8
53	4
54	10
55	26
56	54
57	58
58	6
59	7
60	10
61	4
62	9
63	40
64	14
65	186
66	13
67	3
68	3
69	9
70	6
71	9
72	6
73	10
74	15
75	5
76	3
77	12
78	6
79	4
80	2
81	3
82	105
83	23
84	456
85	282
86	20
87	24
88	8
89	98
90	176
91	999
92	903
93	68
94	4
95	4
96	2
97	4
98	1
99	2
100	17
101	23
102	501
103	26
104	9
105	4
106	4
107	7
108	2
109	2
110	112
111	40
112	36
113	7
114	1
115	3
116	5
117	11
118	766
119	84
120	7
121	1
123	1
124	1
125	2
126	1
127	1
128	54
129	111
130	101
131	9
132	3
133	3
134	3
135	9
136	53
137	6
138	1
139	1
140	1
141	3
142	1
143	1
144	5
145	2
146	105
147	10
148	3
149	6
150	1
153	1
154	1
155	2
156	87
157	9
158	5
159	2
160	4
161	14
162	40
163	5
164	1
167	1
168	2
169	1
172	2
173	1
174	51
175	25
176	6
177	2
178	2
181	1
183	1
184	2
185	2
186	1
187	3
188	13
189	3
190	1
191	2
192	1
193	9
194	1
200	4
201	11
202	8
203	6
204	1
205	1
206	2
209	2
210	1
218	1
219	6
220	50
221	140
222	18
223	2
229	22
230	4
231	1
233	1
247	132
248	22
249	3
265	35
266	11
267	2
