Mass Spectrum: (-)-cis-3-(3,5-Dinitrobenzoyloxy)-trans-p-menthane
Formula: C17H22N2O6
CAS: 27525-63-9
Molecular weight: 350
m/z	intensity
17	17
18	88
27	25
28	10
29	34
30	6
32	1
39	27
40	5
41	141
42	16
43	120
44	5
45	1
50	2
51	6
52	4
53	30
54	31
55	220
56	38
57	77
58	4
59	2
62	2
63	9
64	2
65	10
66	6
67	213
68	87
69	134
70	19
71	13
73	1
74	10
75	104
76	9
77	19
78	4
79	49
80	92
81	788
82	310
83	108
84	8
85	3
89	1
90	1
91	17
92	4
93	25
94	104
95	999
96	262
97	34
98	2
99	1
102	1
103	48
104	5
105	3
107	6
108	3
109	91
110	29
111	7
112	2
113	2
115	1
117	1
119	9
120	5
121	5
122	2
123	398
124	40
125	2
133	1
134	3
135	1
136	2
137	32
138	974
139	112
140	6
148	1
149	157
150	12
151	1
152	1
163	1
165	7
166	3
167	1
179	30
180	3
182	3
195	301
196	33
197	5
213	3
265	1
307	2
320	3
335	2
