Mass Spectrum: Ethanamine, 2,2'-oxybis-
Formula: C4H12N2O
CAS: 2752-17-2
Molecular weight: 104
m/z	intensity
12	2
13	2
14	13
15	82
16	54
17	183
18	820
19	5
24	1
25	5
26	48
27	152
28	395
29	56
30	999
31	37
32	2
33	1
39	41
40	115
41	230
42	395
43	461
44	634
45	761
46	20
47	10
51	2
52	4
53	3
54	23
55	55
56	39
57	16
58	11
59	36
60	12
61	4
62	336
63	9
64	1
65	1
66	1
67	20
68	6
69	10
70	10
71	9
72	5
73	2
74	27
75	652
76	25
77	2
78	1
79	1
80	2
81	1
82	1
83	1
84	4
85	66
86	23
87	36
88	8
89	1
100	2
101	5
103	1
104	1
105	13
106	1
