Mass Spectrum: Phosphoric acid, butyl diphenyl ester
Formula: C16H19O4P
CAS: 2752-95-6
Molecular weight: 306
m/z	intensity
15	1
26	3
27	40
29	154
30	4
31	1
37	2
38	14
39	169
40	18
41	188
42	9
43	9
44	1
45	1
47	27
49	1
50	39
51	152
52	14
53	23
54	5
55	69
56	25
57	73
58	4
61	2
62	8
63	49
64	31
65	359
66	111
67	6
68	3
69	1
71	1
73	1
74	11
75	14
76	25
77	447
78	37
79	6
80	3
81	26
82	2
83	2
84	3
86	1
89	4
90	4
91	27
92	18
93	67
94	999
95	86
96	6
99	6
100	30
101	4
102	4
103	7
104	13
105	4
106	1
107	13
108	2
109	32
110	3
111	1
112	8
113	2
114	1
115	32
116	5
117	60
118	7
119	2
120	1
121	5
122	1
125	1
126	2
127	5
128	15
129	13
130	2
131	7
132	41
133	8
134	1
137	1
139	50
140	55
141	96
142	36
143	4
144	1
149	1
150	3
151	23
152	64
153	41
154	6
155	9
156	66
157	29
158	4
159	2
164	1
165	31
166	8
167	4
168	82
169	183
170	459
171	60
172	7
173	7
174	16
175	33
176	2
177	1
178	5
179	4
180	1
181	3
182	1
183	9
184	3
185	7
186	6
187	5
188	1
195	1
197	1
201	1
202	1
203	2
204	1
205	2
213	3
214	1
215	35
216	5
217	1
222	1
223	4
231	13
232	78
233	27
234	4
235	1
245	2
246	1
247	1
248	8
249	568
250	703
251	722
252	94
253	11
254	1
259	1
263	70
264	11
265	1
277	53
278	9
279	1
291	2
305	12
306	364
307	66
308	8
309	1
