Mass Spectrum: 11-Methyltricosane
Formula: C24H50
CAS: 27538-41-6
Molecular weight: 338
m/z	intensity
29	29
39	15
40	4
41	169
42	45
43	458
44	13
45	16
53	15
54	16
55	263
56	136
57	999
58	43
59	12
67	59
68	22
69	195
70	138
71	896
72	49
81	47
82	54
83	143
84	76
85	605
86	39
95	49
96	34
97	168
98	64
99	245
100	15
109	36
110	29
111	129
113	167
114	12
123	32
124	24
125	101
126	18
127	108
128	8
137	14
138	9
139	24
141	58
142	11
153	13
154	11
155	38
156	6
161	5
167	8
168	178
169	88
170	10
181	4
182	7
183	13
184	2
196	133
197	78
198	9
210	5
211	8
217	3
238	8
239	9
252	9
253	6
266	5
267	8
268	2
280	6
281	5
294	6
295	9
302	3
308	5
309	13
322	2
323	22
324	5
338	3
