Mass Spectrum: 3,8a-Methano-8aH-furo[2'',3'':6',7']azonino[4',5':4,5]pyrrolo[1,2,3-de][1,4]benzoxazine-14,16(13H)-dione, 2,3,3a,4,5,6,7,8,15a,15b-decahydro-15a-hydroxy-13-methoxy-2,6-dimethyl-, [2R-(2R*,3R*,3aS*,8aR*,13S*,15aR*,15bR*)]-
Formula: C22H26N2O6
CAS: 27530-76-3
Molecular weight: 414
m/z	intensity
41	150
42	310
43	150
44	499
45	140
51	20
53	50
54	20
55	140
56	30
57	499
58	400
59	20
65	20
67	50
68	20
69	200
70	999
71	270
72	50
74	80
77	50
78	20
79	30
81	60
82	60
83	70
84	60
85	20
90	30
92	30
94	40
95	30
96	150
97	40
98	70
99	20
100	40
101	20
102	30
103	60
104	30
108	20
109	20
110	70
111	70
112	90
113	20
114	120
115	30
116	30
117	30
118	20
122	40
124	40
126	30
128	120
129	30
130	50
131	30
132	30
133	20
138	20
140	30
141	20
143	20
144	50
145	20
146	30
148	20
152	20
154	100
155	30
156	20
157	20
158	40
159	20
160	20
168	30
169	20
170	30
172	20
174	20
182	70
183	20
184	20
186	30
187	20
188	20
190	50
198	20
200	20
201	30
202	20
213	30
214	100
215	30
216	30
217	50
218	20
230	20
231	10
245	100
246	30
252	20
253	20
271	20
285	70
286	20
289	50
311	30
314	250
315	50
341	20
345	70
346	20
353	30
355	50
357	470
358	100
359	20
368	50
369	40
370	30
371	30
380	30
382	40
397	60
398	20
399	80
400	20
414	480
415	120
416	20
