Mass Spectrum: .alpha.-D-Glucopyranosiduronamide, methyl
Formula: C7H13NO6
CAS: 27531-18-6
Molecular weight: 207
m/z	intensity
45	80
59	44
60	65
61	44
71	139
73	139
74	148
75	999
85	78
86	89
87	499
88	53
100	37
101	27
103	241
104	379
105	258
112	58
115	75
116	86
117	65
129	44
130	23
131	44
133	719
145	16
149	20
157	47
158	71
160	25
175	18
176	27
189	5
207	16
