Mass Spectrum: Benzenamine, 4-bromo-N-[2-[1-(4-chlorophenyl)-5-tetrazolyl]ethenyl]-
Formula: C15H11BrClN5
CAS: 275370-33-7
Molecular weight: 375
m/z	intensity
33	20
34	3
35	12
36	42
37	59
38	172
39	288
40	144
41	101
42	45
43	53
44	54
45	5
47	7
48	1
50	539
51	337
52	181
53	44
54	32
55	93
56	46
57	29
58	17
60	13
61	57
62	176
63	545
64	238
65	174
66	28
67	21
68	12
69	27
70	18
71	16
72	27
73	91
74	204
75	999
76	707
77	495
78	77
79	40
80	37
81	26
82	42
83	26
84	14
85	50
86	18
87	45
88	96
89	428
90	539
91	200
92	46
93	10
94	9
95	9
96	8
97	13
98	47
99	109
100	44
101	107
102	291
103	231
104	130
105	320
106	34
107	11
108	8
109	19
111	639
112	92
113	197
114	102
115	195
116	554
117	421
118	48
119	80
120	18
121	7
122	6
123	18
125	363
126	110
127	160
128	126
129	176
130	93
131	415
132	47
134	124
135	52
137	142
138	406
139	112
140	141
141	63
142	265
143	196
144	25
145	28
146	3
147	1
149	12
150	22
151	50
152	72
153	40
155	613
156	186
157	727
158	84
159	5
162	10
163	13
164	21
165	105
166	71
167	47
168	31
169	29
170	19
171	36
172	13
173	17
174	5
175	4
176	13
177	31
178	28
179	34
182	567
183	97
184	441
185	57
186	11
187	9
188	11
190	62
191	46
192	72
193	22
194	69
195	92
196	53
197	87
198	17
199	26
200	20
201	19
202	12
203	14
204	32
205	76
206	80
207	82
208	42
209	122
210	43
211	76
212	31
213	44
214	25
215	21
216	19
217	20
218	65
219	16
220	12
221	47
222	136
223	56
224	127
225	50
226	17
227	39
228	11
229	13
230	12
231	38
232	127
233	255
234	69
235	63
236	52
237	11
238	47
239	26
240	45
241	42
242	21
243	20
244	5
245	8
246	2
247	5
248	5
249	25
250	10
251	15
252	84
253	39
254	33
255	12
256	2
258	5
259	1
260	3
261	2
264	2
266	40
267	193
268	84
269	68
270	26
271	8
272	3
277	1
279	5
281	8
283	5
284	14
285	14
286	14
287	11
290	17
291	15
292	50
293	27
294	48
295	12
296	29
297	13
298	17
299	8
304	73
305	30
306	95
307	40
308	36
309	15
310	15
311	60
312	77
313	47
314	60
315	14
317	4
319	60
320	21
321	58
322	13
323	17
324	2
328	6
329	11
331	636
332	140
333	757
334	132
335	191
336	33
337	6
338	1
342	3
343	10
346	634
347	230
348	732
349	236
350	198
351	48
352	7
354	10
371	1
372	8
375	684
377	943
378	144
379	191
380	34
