Mass Spectrum: Glycine, N-[N-[N-[N-(N-carboxy-L-threonyl)-L-alanyl]-L-leucyl]-L-leucyl]-, N-benzyl methyl ester
Formula: C30H47N5O9
CAS: 27545-13-7
Molecular weight: 621
m/z	intensity
41	290
42	60
43	200
50	200
51	300
52	200
53	70
54	20
55	200
56	150
57	370
63	60
65	150
67	50
68	40
69	230
70	150
71	350
72	40
73	20
74	50
75	20
76	20
77	600
78	260
79	850
80	220
81	70
82	80
83	180
84	100
85	240
86	950
87	180
89	150
90	230
91	450
92	30
94	30
95	40
96	180
97	50
98	80
106	250
107	200
108	999
109	150
110	20
111	100
112	50
113	50
114	20
125	30
126	20
127	110
130	30
138	20
140	20
142	50
143	10
150	10
154	20
155	10
156	50
157	10
158	10
167	20
168	20
169	40
170	20
171	30
180	10
182	20
186	30
199	30
200	10
205	30
209	10
210	20
212	10
214	10
225	30
226	10
227	20
228	10
240	120
241	40
242	10
255	10
257	10
259	10
266	2
267	1
268	17
269	3
280	1
281	2
282	17
283	5
284	32
285	22
286	2
287	3
289	4
294	53
295	6
296	6
300	12
301	2
307	15
308	4
309	2
312	65
313	10
323	2
324	15
325	9
326	10
327	3
337	2
342	4
353	62
354	12
355	2
364	1
368	5
371	14
372	2
379	5
380	4
381	14
382	2
392	4
393	1
395	2
397	47
398	11
399	2
408	1
413	17
414	4
420	22
421	4
425	4
426	1
440	2
441	2
454	3
457	10
458	1
463	1
469	1
470	2
471	1
481	1
482	2
483	1
488	2
489	1
491	1
495	1
496	1
498	2
499	1
505	1
513	1
514	2
520	1
521	1
532	1
533	2
534	1
550	1
551	1
565	1
566	1
575	1
577	2
578	1
579	1
589	1
590	1
591	1
606	1
607	1
