Mass Spectrum: (Z)-3-Hydroxy-3-methyl-1-((7-oxo-7H-furo[3,2-g]chromen-9-yl)oxy)butan-2-yl 2-methylbut-2-enoate
Formula: C21H22O7
CAS: 27542-14-9
Molecular weight: 386
m/z	intensity
27	4
31	28
39	15
44	3
49	1
53	17
54	24
55	423
59	130
62	11
63	48
67	21
68	4
71	13
75	8
81	13
82	24
83	999
84	52
87	2
88	8
89	117
90	44
95	10
97	6
101	56
109	3
111	3
117	10
118	20
119	5
120	1
123	3
125	1
129	23
133	21
135	12
137	6
145	41
146	25
147	10
148	3
149	3
150	3
151	2
157	19
166	3
167	42
168	3
169	6
170	1
173	44
174	122
175	7
176	2
185	867
186	34
201	41
202	624
203	90
204	10
205	1
207	2
215	16
216	8
217	3
235	1
239	1
252	1
258	1
259	1
269	10
270	3
271	20
272	3
278	1
279	8
280	3
283	1
284	1
285	1
286	10
289	6
290	1
327	6
368	4
369	2
371	3
372	1
386	10
387	2
