Mass Spectrum: Glycine, N-[N-[N-[(1,1-dimethylethoxy)carbonyl]-L-leucyl]-L-leucyl]-, methyl ester
Formula: C20H37N3O6
CAS: 27545-11-5
Molecular weight: 415
m/z	intensity
40	390
41	70
42	310
43	250
50	30
51	40
52	30
53	30
55	220
56	260
57	430
58	30
59	80
68	20
69	10
70	110
71	50
72	20
73	20
75	60
77	10
78	50
79	40
80	20
81	10
82	10
83	20
84	70
85	30
86	999
87	250
88	50
90	200
96	10
97	10
98	20
99	10
100	10
111	50
112	20
113	30
114	10
126	10
130	850
131	70
140	90
141	70
144	450
145	30
155	70
156	10
157	250
158	900
159	40
167	20
168	60
169	50
170	10
182	160
183	20
186	170
187	140
188	10
196	20
197	10
198	10
199	100
200	10
208	20
213	10
214	140
215	10
225	240
226	70
227	20
229	50
231	2
236	2
241	8
242	2
243	40
244	7
253	32
254	3
255	2
259	3
271	13
272	30
273	2
284	5
285	98
286	10
298	2
299	79
300	17
303	15
304	2
310	3
314	1
315	1
316	2
326	2
327	5
328	20
329	3
342	20
343	2
344	7
359	22
360	6
400	1
415	1
