Mass Spectrum: 2-Propenoic acid, chloromethyl ester
Formula: C4H5ClO2
CAS: 27550-72-7
Molecular weight: 120
m/z	intensity
39	2
41	69
43	5
48	5
49	89
51	30
55	999
56	119
57	10
58	0
65	2
70	8
74	1
75	2
76	2
78	3
84	6
85	60
86	3
90	9
91	15
92	2
102	50
104	15
119	1
120	2
