Mass Spectrum: 1,4-Methanoazulen-9-ol, decahydro-1,5,5,8a-tetramethyl-, [1R-(1.alpha. ..
Formula: C15H26O
CAS: 27551-75-3
Molecular weight: 222
m/z	intensity
27	126
31	66
32	24
34	11
39	135
40	82
41	561
42	28
43	269
44	13
45	46
53	168
55	409
56	63
57	80
65	65
67	263
68	57
69	429
70	68
71	143
77	124
78	43
79	199
80	69
81	406
82	253
83	175
84	172
85	999
86	54
91	176
92	94
93	172
94	223
95	786
96	128
97	143
98	104
105	132
106	39
107	257
108	201
109	429
110	92
111	110
112	60
119	438
120	109
121	170
122	99
123	160
125	52
126	33
127	64
133	172
134	80
135	145
136	141
137	203
138	63
147	65
148	59
149	60
151	94
152	45
153	53
161	127
163	45
189	315
190	58
191	52
204	378
205	56
207	285
208	54
