Mass Spectrum: Pregn-4-ene-3,20-dione, (9.beta.,10.alpha.)-
Formula: C21H30O2
CAS: 2755-10-4
Molecular weight: 314
m/z	intensity
43	680
45	10
51	8
52	8
53	58
55	156
57	8
65	51
67	97
68	16
69	40
71	51
77	104
78	24
79	165
80	22
81	107
82	8
83	24
85	78
91	172
92	27
93	105
94	35
95	133
96	13
97	19
103	10
105	120
106	30
107	119
108	41
109	105
110	17
111	29
115	10
117	38
118	11
119	74
120	60
121	103
122	121
123	82
124	999
125	101
128	9
129	17
130	11
131	48
132	25
133	163
134	59
135	104
136	52
137	116
138	19
143	21
144	15
145	45
146	20
147	198
148	29
149	106
150	19
157	24
159	24
161	33
162	13
163	27
171	18
172	10
173	104
174	10
175	33
176	9
177	27
178	20
185	10
187	18
188	8
189	8
190	30
191	142
192	24
202	7
211	16
213	9
227	9
228	8
229	77
244	11
253	16
257	6
271	16
272	48
296	8
299	18
314	154
315	36
