Mass Spectrum: 2-Butenedioic acid (E)-, monomethyl ester
Formula: C5H6O4
CAS: 2756-87-8
Molecular weight: 130
m/z	intensity
26	94
27	137
29	36
31	25
39	10
41	3
42	7
43	18
45	144
53	206
54	86
55	28
59	65
68	10
71	130
72	7
81	184
82	36
85	492
86	76
99	999
100	68
101	3
112	28
113	39
