Mass Spectrum: Disulfide, didodecyl
Formula: C24H50S2
CAS: 2757-37-1
Molecular weight: 402
m/z	intensity
25	1
26	7
27	89
29	199
30	5
33	2
34	1
35	4
36	1
37	0
38	1
39	48
40	78
41	440
42	73
43	684
44	60
45	30
46	9
47	53
48	2
49	2
50	1
51	3
52	2
53	27
54	33
55	534
56	166
57	999
58	55
59	21
60	53
61	72
62	5
63	4
64	2
65	6
66	6
67	95
68	66
69	386
70	146
71	620
72	31
73	24
74	16
75	16
76	3
77	7
78	2
79	17
80	3
81	66
82	82
83	248
84	90
85	378
86	25
87	215
88	27
89	50
90	5
92	1
93	6
94	2
95	40
96	61
97	178
98	55
99	113
100	9
101	91
102	16
103	21
104	4
105	4
106	0
107	2
108	1
109	21
110	19
111	86
112	32
113	70
114	6
115	44
116	7
117	7
118	2
119	3
120	1
121	4
122	1
123	8
124	9
125	30
126	13
127	19
128	3
129	36
130	4
131	5
132	1
133	1
134	0
135	2
136	1
137	3
138	6
139	13
140	23
141	2
142	3
143	24
144	2
146	0
147	0
149	7
150	1
151	1
152	1
153	1
154	0
155	2
156	1
157	26
158	3
159	4
160	0
161	0
164	1
165	1
166	4
167	3
168	49
169	10
170	1
171	18
172	2
173	2
177	1
178	0
179	0
180	0
181	0
182	0
183	0
184	1
185	4
186	0
187	0
191	1
192	0
193	0
194	0
197	0
198	0
199	39
200	26
201	338
202	99
203	25
204	5
205	0
207	0
208	0
209	0
212	0
213	1
216	5
217	1
218	0
219	0
220	0
221	0
223	0
225	0
226	0
227	0
228	0
229	4
230	1
231	0
232	0
233	3
234	299
235	46
236	32
237	3
238	0
239	0
241	1
242	0
243	1
244	4
245	2
247	0
250	0
253	0
255	0
256	0
257	2
258	1
259	0
260	0
261	0
262	0
263	0
267	0
268	1
269	0
271	0
274	0
275	0
277	0
278	0
279	0
285	1
286	6
287	1
288	1
289	0
297	0
298	0
300	0
301	0
302	0
304	0
310	1
313	1
314	0
316	0
317	1
325	0
330	0
331	0
341	0
344	0
345	0
355	0
359	0
360	0
369	3
370	5
371	1
372	0
373	0
387	0
388	0
400	0
401	2
402	585
403	158
404	73
405	15
406	3
