Mass Spectrum: Pentanedioic acid, 3-chloro-
Formula: C5H7ClO4
CAS: 27571-06-8
Molecular weight: 166
m/z	intensity
26	31
27	194
29	132
30	8
31	34
34	0
35	28
36	210
37	22
38	69
39	430
40	197
41	564
42	257
43	232
44	311
45	342
46	10
47	4
48	0
49	19
50	3
51	5
52	4
53	10
54	0
55	32
56	5
57	165
58	155
59	6
60	113
61	15
62	13
63	22
64	0
65	12
66	1
67	9
68	57
69	50
70	4
71	125
72	4
73	13
74	0
75	29
76	31
77	12
78	11
79	15
80	0
81	9
83	4
84	56
85	315
86	192
87	120
88	7
89	56
90	0
91	10
92	111
93	5
94	35
95	45
96	3
97	0
98	3
102	0
103	1
104	2
105	7
106	0
107	21
108	0
109	6
111	0
112	8
113	999
114	63
115	10
116	0
118	0
119	3
120	358
121	22
122	121
123	6
124	0
129	2
131	64
132	4
146	0
147	13
148	26
149	13
150	8
151	2
167	5
169	1
