Mass Spectrum: 2-Heptanamine, 2-methyl-
Formula: C8H19N
CAS: 27581-29-9
Molecular weight: 129
m/z	intensity
12	1
13	2
14	4
15	50
16	5
17	5
18	63
26	5
27	59
28	29
29	66
30	51
31	1
32	1
37	1
38	3
39	48
40	8
41	105
42	89
43	27
44	8
45	1
47	1
48	1
49	2
50	2
51	3
52	2
53	8
54	4
55	31
56	32
57	92
58	999
59	37
60	1
63	1
64	1
65	1
66	1
67	2
68	2
69	6
70	6
71	2
72	39
73	3
77	1
78	1
79	1
80	1
81	1
82	2
83	1
84	3
85	1
86	12
87	1
94	1
95	1
96	1
97	7
98	9
99	1
100	5
112	1
114	34
115	3
