Mass Spectrum: Propanamide, 2-hydroxy-2-methyl-N-phenyl-
Formula: C10H13NO2
CAS: 2760-38-5
Molecular weight: 179
m/z	intensity
26	2
27	15
28	13
29	11
31	62
37	2
38	7
39	60
40	14
41	62
42	12
43	58
44	3
50	8
51	32
52	9
53	1
54	3
55	1
57	4
58	5
59	999
60	16
61	0
62	2
63	13
64	12
65	50
66	33
67	5
69	4
70	2
74	3
75	1
76	5
77	72
78	9
91	8
92	38
93	889
94	60
95	2
103	1
104	3
105	1
117	0
118	10
119	14
120	17
121	218
122	12
123	0
128	1
132	0
133	1
134	9
135	0
141	1
146	1
155	0
157	1
160	0
161	1
162	2
163	0
164	3
179	253
180	28
181	3
