Mass Spectrum: Octanoic acid, 2-butyl-
Formula: C12H24O2
CAS: 27610-92-0
Molecular weight: 200
m/z	intensity
25	0
26	4
27	109
28	2
29	211
30	5
31	10
36	0
38	1
39	54
40	2
41	287
42	52
43	279
44	7
45	30
46	1
47	1
50	0
51	2
52	1
53	17
54	10
55	198
56	39
57	120
58	5
59	22
60	47
61	8
62	0
63	0
65	2
66	1
67	17
68	8
69	93
70	18
71	33
72	2
73	999
74	58
75	4
76	0
77	1
78	1
79	4
80	3
81	7
82	13
83	41
84	19
85	25
86	7
87	571
88	35
89	3
91	0
93	1
94	0
95	4
96	3
97	21
98	18
99	7
100	1
101	184
102	20
103	1
107	0
108	2
109	2
110	1
111	6
112	2
113	2
114	0
115	128
116	781
117	49
118	4
119	0
121	0
123	0
124	0
125	2
126	3
127	1
129	120
130	11
131	0
135	0
138	0
139	1
140	1
141	0
143	51
144	288
145	23
146	2
153	0
154	0
155	0
157	60
158	5
159	1
167	0
168	1
169	0
171	35
172	5
173	0
181	1
182	0
183	1
185	1
199	1
200	32
201	7
202	0
