Mass Spectrum: Muscimol
Formula: C4H6N2O2
CAS: 2763-96-4
Molecular weight: 114
m/z	intensity
25	5
26	27
27	70
28	426
29	200
30	999
31	93
32	1
36	2
37	7
38	27
39	106
40	61
41	98
42	223
43	228
44	79
45	22
46	4
50	1
51	8
52	29
53	21
54	69
55	73
56	81
57	41
58	26
59	22
60	1
66	13
67	32
68	49
69	81
70	128
71	370
72	14
73	1
80	3
82	42
83	230
84	15
85	14
86	37
87	16
91	5
95	0
97	153
98	36
99	6
112	2
113	65
114	67
115	4
