Mass Spectrum: 2-Benzothiazolyl benzyl disulfide
Formula: C14H11NS3
CAS: 27639-57-2
Molecular weight: 289
m/z	intensity
41	3
42	1
43	15
44	2
45	28
46	0
47	0
50	6
51	18
52	5
53	2
54	2
55	3
56	9
57	5
58	5
59	1
60	6
61	2
62	11
63	48
64	20
65	63
66	4
67	1
69	53
70	13
71	9
72	3
73	1
74	6
75	10
76	9
77	61
78	23
79	21
81	19
82	27
83	5
84	6
85	3
86	13
87	4
89	47
91	999
92	63
93	9
94	5
95	21
96	19
97	2
98	125
100	2
102	25
103	3
104	2
106	4
107	18
108	164
110	6
111	10
112	3
114	6
116	2
119	1
120	1
121	56
122	80
123	64
125	10
127	1
129	1
133	22
134	63
135	8
136	4
138	1
139	14
140	70
142	14
145	0
147	0
149	0
151	1
152	7
153	1
154	30
156	2
161	0
163	0
166	106
167	895
169	184
170	7
171	4
173	1
175	0
178	1
180	2
181	1
184	0
186	0
190	0
195	0
196	0
198	84
200	6
211	0
222	1
223	10
224	9
225	2
242	1
246	0
254	1
256	11
257	2
258	1
289	52
290	9
291	6
292	1
