Mass Spectrum: Rubratoxin B triacetate
Formula: C32H36O14
CAS: 27646-47-5
Molecular weight: 644
m/z	intensity
27	75
28	111
29	113
31	31
39	36
40	17
41	116
42	21
43	999
44	34
45	48
53	11
54	5
55	46
56	5
57	8
60	24
61	7
65	8
67	15
68	48
69	74
70	13
71	5
77	10
79	10
81	18
82	7
83	6
91	13
93	6
95	25
96	12
97	342
98	89
99	12
103	6
105	5
107	5
109	8
110	8
112	8
113	7
115	15
127	19
128	11
129	9
131	5
135	5
136	8
137	43
138	5
139	40
140	40
141	29
152	7
153	8
155	15
165	10
167	6
169	6
178	6
179	7
187	5
189	6
197	26
199	5
215	5
239	5
262	5
297	5
368	13
369	6
386	30
387	13
404	11
416	4
428	12
429	11
430	6
446	40
447	10
472	7
488	82
489	23
514	4
517	6
524	3
542	10
543	5
585	4
602	3
644	3
