Mass Spectrum: 2-Octanol, 3-methyl-
Formula: C9H20O
CAS: 27644-49-1
Molecular weight: 144
m/z	intensity
26	3
27	88
28	3
29	125
30	4
31	15
38	1
39	57
40	11
41	235
42	63
43	291
44	124
45	999
46	39
47	6
50	2
51	4
52	2
53	18
54	12
55	166
56	215
57	412
58	22
59	17
65	2
67	8
68	11
69	189
70	123
71	74
72	8
73	8
74	2
77	5
79	2
81	3
82	3
83	30
84	18
85	14
87	1
95	2
96	6
97	26
98	280
99	25
100	9
111	28
112	3
126	23
127	4
129	27
130	2
143	2
