Mass Spectrum: 1H-1,2,4-Triazole, 1-vinyl-
Formula: C4H5N3
CAS: 2764-83-2
Molecular weight: 95
m/z	intensity
25	13
26	65
27	163
28	124
38	71
39	112
40	296
41	634
42	47
51	15
52	15
53	43
54	19
68	542
69	35
95	999
96	58
