Mass Spectrum: Benzenemethanol, .alpha.-(3-methyl-2-butenyl)-
Formula: C12H16O
CAS: 27644-03-7
Molecular weight: 176
m/z	intensity
26	2
27	63
28	14
29	41
31	4
38	5
39	91
40	14
41	186
42	77
43	104
44	6
45	3
50	23
51	96
52	26
53	51
54	11
55	182
56	21
57	9
62	4
63	17
64	5
65	18
66	3
67	16
68	10
69	51
70	999
71	57
72	2
73	2
74	6
75	8
76	9
77	353
78	60
79	747
80	46
81	7
83	4
89	8
90	3
91	31
92	4
102	4
103	9
104	6
105	88
106	14
107	908
108	66
109	4
115	20
116	6
117	27
118	23
119	3
120	6
127	4
128	11
129	8
131	7
141	5
142	3
143	10
158	2
159	3
161	27
162	3
175	10
176	46
177	6
