Mass Spectrum: 1H-Benzotriazole, 1-ethenyl-
Formula: C8H7N3
CAS: 2764-84-3
Molecular weight: 145
m/z	intensity
39	120
41	80
43	100
50	100
51	90
52	80
63	190
64	300
65	60
77	240
89	350
90	520
91	999
92	50
116	50
117	860
118	70
145	610
146	80
