Mass Spectrum: cis-1-Nitro-1-propene
Formula: C3H5NO2
CAS: 27675-36-1
Molecular weight: 87
m/z	intensity
14	40
15	71
16	32
19	30
26	46
27	16
29	98
30	161
31	43
32	2
37	68
38	109
39	999
40	79
41	530
42	409
43	84
44	122
46	51
51	30
52	38
53	30
55	35
57	30
58	35
59	13
69	32
70	169
71	40
73	19
74	16
85	32
86	106
87	202
