Mass Spectrum: p-[2-Hydroxyhexafluoroisopropyl]cumene
Formula: C12H12F6O
CAS: 2768-84-5
Molecular weight: 286
m/z	intensity
41	281
43	999
44	30
45	22
47	22
49	10
50	46
51	175
52	27
53	26
55	17
57	34
58	42
59	30
62	5
63	36
65	91
66	152
68	5
69	121
71	20
72	44
73	38
74	55
75	38
76	38
77	156
78	71
79	66
82	5
83	18
84	10
86	5
88	6
89	18
90	23
91	194
92	18
95	6
97	15
99	12
101	34
102	33
103	108
104	182
105	271
106	23
108	9
109	14
115	49
116	14
117	36
118	40
119	439
120	44
127	19
131	71
132	69
133	41
134	12
145	29
147	123
148	13
151	6
153	18
164	50
165	12
175	48
183	20
188	17
201	30
202	53
203	25
213	35
217	208
218	23
233	26
253	110
254	13
267	30
271	466
272	50
285	74
286	195
287	39
