Mass Spectrum: 2-Butyne, 1-methoxy-
Formula: C5H8O
CAS: 2768-41-4
Molecular weight: 84
m/z	intensity
25	3
26	44
27	323
29	134
30	13
31	12
33	3
34	0
36	4
37	27
38	49
39	353
40	11
41	210
42	21
43	23
44	8
45	42
46	0
48	0
49	16
50	111
51	156
52	97
53	680
54	84
55	78
56	78
57	7
58	9
65	2
66	4
67	10
68	63
69	999
70	46
71	2
81	2
82	3
83	82
84	26
