Mass Spectrum: 1-p-Menthen-3-one 2,4-dinitrophenylhydrazone
Formula: C16H20N4O4
CAS: 27687-84-9
Molecular weight: 332
m/z	intensity
15	1
26	7
27	64
28	87
29	37
30	50
37	2
38	9
39	68
40	12
41	209
42	34
43	131
44	9
45	1
50	9
51	34
52	24
53	85
54	22
55	85
56	13
57	12
58	6
59	3
61	2
62	11
63	35
64	21
65	59
66	28
67	66
68	18
69	88
70	19
71	5
72	1
74	5
75	27
76	21
77	182
78	63
79	215
80	86
81	254
82	77
83	21
84	4
85	2
87	1
88	4
89	13
90	23
91	211
92	59
93	142
94	129
95	63
96	46
97	13
98	4
99	1
101	3
102	8
103	19
104	18
105	59
106	155
107	160
108	143
109	999
110	114
111	16
112	2
113	1
114	2
115	26
116	14
117	34
118	26
119	60
120	44
121	58
122	51
123	52
124	12
125	5
126	3
127	8
128	14
129	11
130	21
131	29
132	37
133	41
134	110
135	128
136	31
137	23
138	9
139	6
140	5
141	10
142	14
143	19
144	37
145	40
146	41
147	28
148	43
149	40
150	61
151	18
152	42
153	34
154	20
155	21
156	15
157	9
158	7
159	7
160	4
161	5
162	7
163	7
164	17
165	96
166	23
167	34
168	40
169	29
170	22
171	41
172	9
173	3
174	2
175	4
176	7
177	11
178	17
179	9
180	28
181	42
182	41
183	41
184	22
185	7
186	5
187	4
188	4
189	8
190	11
191	10
192	7
193	8
194	12
195	25
196	39
197	44
198	50
199	15
200	4
201	7
202	8
203	9
204	8
205	4
206	6
207	9
208	18
209	61
210	20
211	23
212	8
213	7
214	18
215	23
216	11
217	30
218	9
219	4
220	5
221	6
222	7
223	11
224	46
225	18
226	12
227	17
228	23
229	33
230	12
231	7
232	37
233	14
234	7
235	9
236	7
237	8
238	14
239	11
240	9
241	17
242	21
243	57
244	224
245	42
246	9
247	7
248	3
249	7
250	5
251	17
252	7
253	11
254	53
255	320
256	75
257	72
258	27
259	8
260	4
261	3
262	3
263	4
264	3
265	3
266	9
267	6
268	21
269	32
270	19
271	30
272	14
273	166
274	26
275	6
276	1
279	9
280	6
281	14
282	10
283	27
284	29
285	18
286	9
287	26
288	5
289	92
290	37
291	5
292	1
293	7
294	9
295	8
296	12
297	65
298	52
299	26
300	9
301	2
302	9
303	10
304	7
305	1
311	4
312	1
313	11
314	18
315	34
316	14
317	31
318	6
330	14
331	13
332	828
333	170
334	22
335	2
