Mass Spectrum: 4(3H)-Pteridinone, 2-amino-5,6-dihydro-5-methyl-6,7-diphenyl-
Formula: C19H17N5O
CAS: 2768-85-6
Molecular weight: 331
m/z	intensity
27	130
28	190
29	160
31	170
36	130
39	130
41	290
42	160
43	480
44	160
45	110
51	160
55	270
57	290
60	220
69	190
71	140
73	270
77	440
83	140
91	210
97	110
105	999
118	270
165	210
178	110
196	80
227	110
254	400
256	130
261	100
262	140
271	80
316	520
331	700
