Mass Spectrum: Spiro[4.4]nonane-1,6-dione
Formula: C9H12O2
CAS: 27723-43-9
Molecular weight: 152
m/z	intensity
32	53
37	14
38	53
39	504
40	285
41	379
42	57
43	81
44	316
50	61
51	102
52	61
53	167
54	67
55	189
56	53
57	20
62	20
63	40
64	20
65	87
66	102
67	224
68	130
69	159
77	75
78	32
79	232
80	30
81	44
82	36
83	28
84	16
91	77
92	20
93	20
94	44
95	238
96	297
97	999
98	77
107	20
109	53
110	14
111	26
122	24
123	32
124	95
134	24
135	20
137	65
150	34
152	228
153	24
