Mass Spectrum: [1,4,7]Trioxonane
Formula: C6H12O3
CAS: 27725-91-3
Molecular weight: 132
m/z	intensity
26	35
27	129
29	295
30	151
31	185
41	0
42	376
43	952
44	752
45	241
57	35
58	458
59	35
72	105
73	999
74	41
87	58
88	47
102	117
