Mass Spectrum: Propenone, 1-(1-benzyloxy-2-naphthyl)-3-(1-naphthyl)-
Formula: C30H22O2
CAS: 277325-77-6
Molecular weight: 414
m/z	intensity
34	0
37	0
39	28
40	9
41	12
42	1
43	5
44	8
45	1
50	4
51	14
52	3
53	2
54	0
55	5
56	1
57	3
58	0
59	1
60	1
61	0
62	5
63	20
64	9
65	97
66	5
67	1
68	0
69	2
70	0
71	1
72	0
73	1
74	4
75	8
76	7
77	17
78	3
79	1
81	1
82	0
83	1
84	1
85	1
86	2
87	5
88	9
89	25
91	999
92	76
93	3
95	1
96	0
97	1
98	1
99	2
100	2
101	7
102	4
103	1
104	0
105	2
106	0
107	1
109	0
110	0
111	1
112	1
113	12
114	25
115	69
116	8
117	0
119	1
120	2
121	3
122	0
123	1
124	2
125	6
126	32
127	30
128	8
129	2
131	6
132	3
133	2
134	0
135	1
136	0
137	2
138	8
139	21
140	10
141	16
142	8
143	34
144	5
145	1
146	0
147	1
148	1
149	6
150	20
151	60
152	198
153	152
154	24
155	7
156	2
157	0
161	1
163	3
164	2
165	15
166	9
167	31
168	12
169	3
171	160
172	17
173	2
174	0
175	0
176	1
177	3
179	232
180	33
181	45
182	6
184	11
185	2
186	0
187	1
188	0
189	3
190	1
191	1
192	0
193	1
195	0
196	1
197	4
198	0
199	0
200	1
201	1
202	5
203	3
204	1
205	0
207	0
209	0
211	1
212	0
213	1
214	0
215	4
216	1
217	2
218	2
219	0
223	0
224	1
225	1
226	4
227	1
228	7
229	12
230	132
231	55
232	8
233	1
234	1
235	0
236	0
237	3
238	2
239	11
240	3
241	4
242	8
243	13
244	32
245	7
246	1
248	1
249	1
250	5
251	4
252	35
253	9
254	1
257	1
258	0
259	0
260	1
261	3
262	3
263	21
264	11
265	50
266	21
267	29
268	8
269	2
270	1
271	0
273	14
274	8
275	6
276	35
277	29
278	11
279	6
280	3
281	8
282	2
283	0
284	0
285	0
286	0
287	2
288	0
289	2
290	1
291	1
292	5
293	11
295	118
296	25
297	3
298	0
302	1
305	157
306	37
307	8
308	5
309	1
318	0
319	0
320	1
321	11
323	300
324	69
325	9
326	1
335	0
336	3
337	1
371	0
386	0
395	1
396	2
397	1
398	0
412	0
414	102
415	28
416	5
417	0
