Mass Spectrum: Propenone, 1-(2-benzyloxyphenyl)-3-(3,4-dichlorophenyl)-
Formula: C22H16Cl2O2
CAS: 277325-63-0
Molecular weight: 382
m/z	intensity
33	0
35	2
36	7
37	1
38	7
39	35
40	7
41	11
42	1
43	2
44	4
45	1
46	0
50	9
51	17
52	3
53	3
55	2
56	0
57	1
58	0
59	0
60	0
61	1
62	5
63	24
64	17
65	109
66	6
67	0
68	0
69	1
70	0
71	1
72	0
73	2
74	7
75	11
76	8
77	10
78	1
79	0
80	0
81	1
82	2
83	1
84	1
85	2
86	2
87	3
89	25
91	999
92	98
93	10
94	1
95	0
96	0
97	1
98	2
99	12
100	3
101	6
102	1
103	1
104	2
105	3
106	0
107	1
108	0
109	5
110	2
111	2
112	0
113	1
114	0
115	2
116	0
117	0
118	3
120	19
121	69
122	6
123	3
124	0
125	1
126	1
127	1
128	0
129	0
130	0
131	1
132	0
134	23
135	15
136	24
137	7
138	8
139	2
140	0
141	0
143	0
144	0
145	1
146	1
147	5
148	1
149	3
150	1
151	1
152	2
153	0
154	0
155	0
157	0
158	1
159	2
160	1
161	1
162	1
163	4
164	4
165	23
166	3
167	0
168	0
170	9
171	6
172	5
173	4
174	2
175	1
176	2
177	1
178	1
179	0
181	3
182	0
183	1
184	0
185	0
186	0
187	0
188	0
189	1
190	0
191	1
192	2
193	1
194	0
195	2
196	1
197	0
199	10
200	3
201	4
202	1
203	0
204	0
205	1
206	0
207	0
208	0
209	0
210	3
211	1
212	1
213	0
214	0
215	0
216	0
217	0
218	0
219	1
220	0
221	1
223	63
224	10
225	1
226	1
227	8
228	4
229	3
230	1
231	0
233	0
235	5
236	1
237	6
238	1
239	0
240	0
241	1
242	0
243	0
244	0
245	0
246	0
248	46
249	10
250	27
251	6
252	5
253	1
254	0
255	2
256	1
257	1
258	0
260	1
261	1
262	8
263	18
264	8
265	12
266	3
267	2
268	0
269	0
273	0
275	0
276	0
277	0
278	1
279	0
280	0
281	0
282	0
287	0
289	1
290	3
291	35
292	8
293	23
294	4
295	4
296	0
303	0
304	1
305	2
306	1
307	1
308	0
309	0
327	0
328	0
329	0
330	0
331	0
341	0
343	0
345	0
346	0
347	0
348	0
349	0
363	1
364	2
365	2
366	2
367	1
368	0
369	0
381	2
382	9
383	3
384	5
385	1
386	1
387	0
