Mass Spectrum: Propenone, 3-(9-anthracenyl)-1-(2-benzyloxyphenyl)-
Formula: C30H22O2
CAS: 277325-74-3
Molecular weight: 414
m/z	intensity
37	1
38	5
39	46
40	8
41	16
42	1
43	7
44	9
45	1
50	7
51	17
52	5
53	3
54	0
55	6
56	2
57	4
58	1
59	1
60	1
61	1
62	5
63	24
64	16
65	160
66	9
67	1
68	0
69	3
70	1
71	2
72	0
73	2
74	3
75	5
76	9
77	19
78	3
79	1
81	1
83	3
84	1
85	2
86	1
87	3
88	4
89	20
91	999
92	82
93	53
94	5
95	2
96	0
97	1
98	2
99	2
100	4
101	6
102	3
103	1
104	3
105	9
106	2
107	2
109	0
110	0
111	1
113	4
115	4
116	0
119	17
121	829
122	62
123	6
124	1
125	4
126	5
127	2
128	1
129	0
130	1
131	4
132	3
133	6
134	0
135	1
137	3
138	7
139	3
140	0
141	0
142	0
144	1
145	1
146	0
147	1
149	8
150	14
151	19
152	13
153	4
154	1
155	1
161	1
162	2
163	5
164	2
165	5
166	0
167	1
173	0
174	10
175	14
176	46
177	27
178	25
179	7
180	1
181	13
182	3
183	2
184	1
185	0
186	1
187	5
188	4
189	25
190	14
191	164
192	34
193	4
194	2
195	0
196	0
197	2
198	6
199	12
200	100
201	122
202	522
203	304
204	64
205	10
206	2
207	5
209	4
211	279
212	42
213	8
214	3
215	18
216	5
217	8
218	4
219	1
220	0
223	12
224	3
225	2
226	5
227	1
229	16
230	10
231	15
232	2
235	4
236	2
237	5
238	3
239	12
240	3
241	1
248	0
249	1
250	6
251	3
252	21
253	5
254	1
255	0
260	0
261	2
262	2
263	18
264	10
265	46
266	15
267	16
268	15
269	3
270	0
273	1
274	7
275	4
276	35
277	21
278	27
279	13
280	3
281	7
282	1
283	0
287	1
289	5
290	3
291	8
292	12
293	52
294	32
295	104
296	24
297	3
302	0
303	1
305	38
306	12
307	17
308	18
309	4
310	0
319	1
320	0
321	8
323	134
324	32
325	4
326	0
395	2
396	1
397	0
411	1
414	418
415	120
416	21
417	2
