Mass Spectrum: Propenone, 3-(2,6-dichlorophenylthio)-1-(4-iodophenyl)-
Formula: C15H9Cl2IOS
CAS: 277326-50-8
Molecular weight: 434
m/z	intensity
35	2
36	2
37	18
38	31
39	30
40	0
45	42
47	2
49	23
50	454
51	79
52	10
53	77
54	9
56	0
57	20
58	66
59	7
60	3
61	22
62	46
63	91
64	7
65	1
66	3
67	1
69	85
70	7
71	6
72	8
73	58
74	223
75	249
76	999
77	101
78	7
79	9
81	29
82	31
83	8
84	31
85	72
86	27
87	23
88	10
89	62
90	22
91	7
92	7
93	19
94	5
95	2
96	3
97	19
98	11
99	18
100	8
101	39
102	102
104	263
105	76
106	30
107	88
108	58
109	71
110	20
111	27
112	5
113	8
114	5
115	4
116	7
117	4
118	11
119	6
120	5
122	35
123	37
124	7
125	9
127	73
128	25
129	24
130	169
131	25
132	29
133	71
134	108
135	36
136	21
137	9
138	4
139	11
142	386
143	53
144	148
145	36
146	27
147	12
148	6
149	4
150	3
152	5
153	3
159	76
160	7
161	59
162	338
163	53
164	22
165	11
166	4
167	24
168	190
169	25
170	65
171	12
172	5
173	7
175	3
177	205
178	140
179	148
180	94
181	34
182	22
183	6
185	3
186	4
189	14
191	10
193	3
195	3
196	9
197	3
198	4
199	20
200	4
201	8
203	659
204	52
205	8
206	2
207	4
208	32
209	12
210	3
212	3
217	5
218	8
220	3
228	5
229	8
231	842
232	72
233	124
234	13
235	33
236	16
237	17
238	3
239	3
242	2
244	26
245	5
246	14
247	19
248	4
255	6
256	51
257	324
258	32
259	2
260	2
271	18
272	12
273	17
274	6
275	4
279	8
280	3
281	7
289	537
290	59
291	27
292	2
307	528
308	98
309	367
310	61
311	72
312	12
313	3
336	5
364	11
367	19
368	3
369	6
397	4
399	180
400	31
401	70
402	12
403	4
434	203
435	55
436	138
437	27
438	27
439	4
