Mass Spectrum: Allopregnan-20-ol-3-one acetate
Formula: C23H36O3
CAS: 277326-30-4
Molecular weight: 360
m/z	intensity
41	113
43	999
44	17
45	9
47	6
48	1
49	4
51	1
53	35
55	131
56	1
57	15
58	3
59	1
61	22
65	14
67	121
68	20
69	47
71	88
72	2
73	1
77	41
79	137
81	186
83	21
84	22
85	4
86	14
88	3
91	93
93	141
95	150
96	10
97	12
98	4
99	3
100	0
101	1
103	4
105	87
106	34
107	128
108	63
109	53
111	16
113	2
115	5
116	1
117	20
118	7
119	62
120	28
121	74
122	30
123	27
124	5
125	3
128	3
129	6
131	30
132	15
133	56
134	53
135	55
136	11
137	12
138	2
139	0
140	1
141	1
142	0
143	10
144	1
145	43
146	8
147	64
148	12
149	41
150	5
151	4
155	1
157	8
159	35
160	18
161	39
162	15
163	20
164	3
165	2
169	2
171	8
172	5
173	22
174	21
175	29
176	8
177	7
178	0
179	2
183	2
185	10
186	1
187	21
188	13
189	9
190	6
191	5
192	14
193	4
197	4
198	1
199	7
200	4
201	23
202	6
203	9
204	10
205	3
206	1
211	5
213	24
215	173
216	37
217	47
218	11
219	2
220	1
225	3
227	15
228	6
229	18
230	20
231	6
232	2
233	1
239	2
240	1
241	6
242	21
243	9
244	7
245	9
246	43
247	8
253	8
255	21
256	9
257	47
258	17
259	8
260	2
261	3
267	21
268	4
269	2
271	2
272	2
273	1
274	4
275	20
276	6
277	0
281	1
282	15
283	15
285	77
286	15
287	7
288	2
290	4
299	5
300	237
301	90
302	47
303	10
304	0
313	8
314	6
315	6
316	14
317	6
327	4
328	0
342	48
343	23
344	3
345	11
346	1
359	0
360	50
361	22
362	6
