Mass Spectrum: Propenone, 1-(2-benzyloxyphenyl)-3-(9-phenanthrenyl)-
Formula: C30H22O2
CAS: 277325-75-4
Molecular weight: 414
m/z	intensity
37	0
39	42
40	13
41	18
42	2
43	11
44	21
45	2
50	7
51	17
52	4
53	4
55	11
56	2
57	5
59	5
60	2
61	1
62	4
63	21
64	15
65	131
66	8
67	0
68	0
69	3
70	1
71	2
72	3
73	2
74	3
75	5
76	10
77	18
78	3
79	1
81	2
82	2
83	2
85	0
87	2
88	5
89	28
91	999
92	80
93	26
94	3
95	1
97	1
98	1
99	1
100	2
101	5
102	2
103	1
104	3
105	11
106	2
107	3
108	2
109	0
111	0
113	1
115	7
116	2
118	7
119	9
121	332
122	25
123	5
124	0
125	1
126	3
127	2
128	2
129	1
130	2
131	6
133	5
134	1
135	1
137	2
138	4
139	4
147	11
148	1
149	6
150	13
151	16
152	11
153	4
154	0
155	0
159	0
162	1
163	5
164	3
165	16
166	3
167	1
174	7
175	13
176	37
177	17
178	17
179	3
180	1
181	13
182	2
183	4
187	3
189	26
190	10
191	87
192	84
193	13
194	3
195	2
196	12
197	4
198	4
199	7
200	62
201	69
202	234
203	155
204	38
205	8
206	4
207	3
208	2
209	4
210	8
211	15
212	3
213	4
215	21
216	8
217	9
218	4
219	2
220	2
221	3
223	121
224	20
225	3
226	4
227	1
229	26
230	7
231	12
232	1
235	5
236	3
237	9
238	5
239	31
240	5
241	1
249	0
250	5
251	4
252	21
253	6
254	1
261	2
262	1
263	17
264	9
265	39
266	15
267	34
268	21
269	4
274	3
276	33
277	20
278	39
279	23
280	11
281	14
282	4
283	0
289	5
290	3
291	9
292	24
293	63
294	38
295	77
296	18
297	2
302	2
303	2
305	51
306	15
307	10
308	19
309	4
310	1
311	0
319	4
320	2
321	12
322	27
323	256
324	64
325	9
326	0
329	0
330	3
335	0
337	2
395	6
396	8
397	3
413	23
414	207
415	66
416	12
417	1
