Mass Spectrum: 1,3-Benzodioxole-5-acetic acid, .alpha.-hydroxy-
Formula: C9H8O5
CAS: 27738-46-1
Molecular weight: 196
m/z	intensity
28	23
29	73
31	12
36	30
37	34
38	73
39	360
40	25
41	51
42	21
43	34
44	68
45	38
46	17
49	17
50	90
51	115
52	34
53	94
54	12
55	38
56	17
57	30
60	30
61	51
62	107
63	240
64	68
65	909
66	73
67	21
68	8
69	17
70	12
71	12
73	12
74	42
75	60
76	60
77	77
78	17
79	21
80	12
81	21
82	8
83	12
91	64
92	25
93	999
94	77
95	34
96	12
97	8
104	17
105	30
106	12
107	8
109	12
119	51
120	25
121	107
122	34
123	77
124	12
129	12
141	12
149	68
150	81
151	712
152	60
196	206
197	25
