Mass Spectrum: 5.alpha.-Pregnane-3.beta.,20.alpha.-diamine, N3-methyl-
Formula: C22H40N2
CAS: 27741-50-0
Molecular weight: 332
m/z	intensity
41	70
42	50
43	20
44	999
45	10
52	10
54	70
55	90
56	150
57	20
67	50
68	20
69	20
70	700
71	80
72	20
77	30
79	70
80	20
81	70
82	20
83	70
84	30
86	10
90	40
93	50
94	20
95	50
96	430
97	50
98	10
104	20
105	20
107	20
108	10
109	20
110	10
118	10
120	10
121	10
122	10
132	20
134	20
146	20
148	20
160	20
163	20
175	20
217	20
245	10
257	20
259	20
263	120
264	30
271	10
273	220
274	70
275	10
288	10
289	350
290	100
291	10
300	10
317	20
318	10
331	30
332	220
333	50
334	10
