Mass Spectrum: 1,3-Propanedithione, 1,3-dimorpholino-
Formula: C11H18N2O2S2
CAS: 27759-71-3
Molecular weight: 274
m/z	intensity
12	4
13	2
14	13
15	149
16	7
17	6
18	29
19	23
26	57
27	342
28	594
29	236
30	202
31	56
32	11
33	5
34	6
35	6
37	1
38	3
39	33
40	23
41	229
42	180
43	161
44	123
45	294
46	33
47	28
48	2
49	1
51	3
52	25
53	30
54	139
55	105
56	180
57	76
58	220
59	278
60	229
61	41
62	12
63	2
64	7
65	6
66	16
67	47
68	50
69	45
70	51
71	82
72	110
73	46
74	18
75	7
76	8
77	11
78	8
79	11
80	23
81	11
82	32
83	29
84	93
85	84
86	999
87	66
88	63
89	10
90	3
91	4
92	15
93	52
94	33
95	15
96	13
97	19
98	43
99	22
100	43
101	94
102	28
103	94
104	11
105	12
106	5
107	5
108	4
110	241
111	33
112	106
113	27
114	55
115	12
116	9
117	19
118	34
119	9
120	5
121	3
122	13
123	25
124	42
125	23
126	99
127	25
128	42
129	14
130	191
131	34
132	19
133	4
134	2
135	2
136	4
137	11
138	10
139	7
140	5
141	3
142	13
143	10
144	112
145	21
146	15
147	4
148	2
149	2
150	5
151	7
152	3
154	102
155	19
156	327
157	37
158	25
159	11
160	12
161	3
162	1
165	2
168	1
169	7
170	4
171	8
172	3
174	101
175	9
176	10
177	3
178	5
179	2
181	5
182	1
183	9
184	3
185	11
186	9
188	168
189	320
190	47
191	31
192	3
193	2
197	4
203	1
207	3
208	21
209	6
211	1
215	2
216	1
225	2
229	8
230	1
231	1
241	37
242	6
243	2
274	167
275	26
276	18
277	2
278	0
