Mass Spectrum: Amphetamine,-propionyl
Formula: C12H17NO
CAS: 27765-76-0
Molecular weight: 191
m/z	intensity
55	32
57	552
58	38
63	54
65	237
66	8
69	13
74	165
75	5
76	5
77	48
78	14
89	32
91	465
92	54
100	999
101	55
103	17
115	75
116	6
117	215
118	321
119	60
120	40
133	2
134	6
