Mass Spectrum: Methyl (1-acetyl-2-piperidinyl)(phenyl)acetate  #
Formula: C16H21NO3
CAS: 27765-89-5
Molecular weight: 275
m/z	intensity
55	37
56	50
82	34
83	40
84	999
85	74
90	49
91	44
112	166
115	50
116	24
117	31
118	29
121	29
126	615
127	65
130	21
275	5
