Mass Spectrum: Phenol, 2-[[[(3.beta.,20S)-3-(methylamino)pregn-5-en-20-yl]imino]methyl]-
Formula: C29H42N2O
CAS: 27769-08-0
Molecular weight: 434
m/z	intensity
41	80
42	40
43	50
44	90
45	10
49	10
51	10
53	20
54	10
55	90
56	50
57	60
58	20
60	20
65	20
67	50
68	20
69	50
70	999
71	120
72	10
76	50
77	20
78	30
79	20
80	50
81	20
82	20
83	20
89	50
90	20
91	40
92	20
93	30
94	10
95	10
103	20
105	70
106	20
107	50
108	20
109	30
110	20
116	20
118	50
119	60
120	50
121	100
122	20
129	20
131	30
132	10
133	20
134	10
135	10
136	10
145	10
146	10
147	10
148	100
149	50
150	20
159	10
160	10
161	10
173	20
174	10
175	10
176	10
265	750
266	200
267	20
418	20
434	250
435	70
