Mass Spectrum: Benzenamine, N-(4-pyridinylmethylene)-
Formula: C12H10N2
CAS: 27768-46-3
Molecular weight: 182
m/z	intensity
50	210
51	799
52	190
63	100
77	999
78	100
79	360
104	440
105	90
181	400
182	899
183	90
