Mass Spectrum: Thymidine, 5'-azido-5'-deoxy-, 3'-acetate
Formula: C12H15N5O5
CAS: 27766-92-3
Molecular weight: 309
m/z	intensity
41	360
42	110
43	940
44	60
45	70
52	30
53	50
54	120
55	200
56	130
57	40
60	40
61	20
66	20
67	40
68	260
69	510
70	90
71	30
72	20
80	40
81	150
82	60
83	50
84	40
85	20
94	100
95	110
96	140
97	30
98	20
109	30
110	100
114	20
117	20
122	80
123	30
124	999
125	90
126	320
127	180
138	20
149	20
150	180
151	20
153	50
181	30
182	20
184	280
185	30
193	100
194	20
222	15
253	30
309	60
310	10
