Mass Spectrum: Formamide, N-methyl-N-norconanin-3.beta.-yl-
Formula: C23H38N2O
CAS: 27769-09-1
Molecular weight: 358
m/z	intensity
54	10
55	80
56	100
57	999
58	130
60	100
67	50
68	10
69	10
70	50
71	10
76	30
78	70
79	20
80	80
81	20
82	30
83	20
90	60
91	20
92	50
93	30
94	30
95	20
96	20
105	30
106	20
107	80
108	30
109	30
118	10
120	30
121	10
122	20
123	10
131	10
133	20
134	10
135	20
139	10
145	10
147	20
149	10
161	20
175	10
241	10
242	30
285	10
300	20
301	10
302	550
303	100
304	10
314	10
315	10
316	10
317	10
329	30
330	10
343	950
344	230
345	26
346	3
356	20
357	100
358	110
359	20
