Mass Spectrum: 6-Octadecynoic acid, methyl ester
Formula: C19H34O2
CAS: 2777-64-2
Molecular weight: 294
m/z	intensity
40	30
41	480
42	70
43	445
44	33
45	27
50	7
51	22
52	46
53	114
54	154
55	416
56	55
57	163
58	19
59	182
60	9
61	5
63	8
64	6
65	68
66	61
67	457
68	109
69	166
70	27
71	57
72	10
73	16
74	229
75	26
77	154
78	75
79	454
80	999
81	537
82	216
83	132
84	40
85	52
86	5
87	61
88	14
89	7
90	5
91	140
92	44
93	300
94	666
95	357
96	130
97	88
98	59
99	18
100	8
101	26
103	8
104	13
105	45
106	25
107	115
108	76
109	123
110	45
111	118
112	23
113	20
114	10
115	18
117	12
118	7
119	24
120	14
121	145
122	336
123	98
124	28
125	20
126	17
127	12
128	5
129	10
131	18
133	15
134	7
135	120
136	70
137	70
138	20
139	10
140	88
141	15
145	13
147	7
149	64
150	34
151	14
152	13
153	29
154	573
155	66
156	7
159	7
161	5
163	38
164	23
165	22
166	25
167	9
168	20
177	14
178	12
179	15
180	10
181	10
191	5
192	6
193	5
195	10
209	5
220	67
221	13
234	17
245	7
262	18
263	38
264	8
294	18
