Mass Spectrum: Cevane-3,4,14,15,16,20-hexol, 4,9-epoxy-, 3-acetate, (3.beta.,4.alpha.,15.alpha.,16.beta.)-
Formula: C29H45NO8
CAS: 2777-79-9
Molecular weight: 535
m/z	intensity
91	18
92	6
93	14
94	8
95	18
96	24
97	18
98	44
99	20
100	18
101	2
103	2
105	18
106	6
107	10
108	8
109	10
110	32
111	44
112	999
113	86
114	6
115	2
117	6
119	8
120	2
121	8
122	2
123	2
124	8
125	20
126	4
127	4
128	6
129	4
130	2
131	4
132	2
133	6
134	2
136	6
137	2
138	8
141	2
142	4
143	4
145	4
147	2
148	4
149	2
150	6
151	2
152	2
153	2
154	6
156	2
157	2
158	2
159	2
160	2
161	2
162	6
163	2
164	4
165	2
166	2
167	2
168	2
169	2
170	2
171	2
173	2
174	2
176	2
178	2
181	2
182	2
183	2
185	2
187	2
188	2
189	2
190	2
192	2
197	2
404	2
414	2
418	2
430	4
432	6
433	2
435	2
440	2
456	8
457	6
458	10
459	4
474	10
475	18
492	6
535	6
