Mass Spectrum: Octadecanoic acid, octadecyl ester
Formula: C36H72O2
CAS: 2778-96-3
Molecular weight: 536
m/z	intensity
36	1
37	3
38	5
39	86
40	19
41	549
42	158
43	999
44	35
45	11
50	3
51	4
52	3
53	29
54	77
55	583
56	235
57	771
58	39
59	8
60	94
61	79
62	2
65	4
66	6
67	81
68	102
69	376
70	172
71	351
72	20
73	125
74	10
75	2
77	4
78	1
79	10
80	7
81	57
82	117
83	336
84	136
85	197
86	13
87	23
88	2
89	2
91	3
92	1
93	5
94	4
95	41
96	61
97	250
98	155
99	43
100	5
101	18
102	4
103	2
104	2
105	5
106	1
107	4
108	3
109	20
110	26
111	121
112	65
113	22
114	4
115	18
116	13
117	3
118	1
119	2
120	1
121	5
122	2
123	10
124	14
125	54
126	28
127	13
128	2
129	36
130	5
131	2
132	1
133	1
134	1
135	4
136	2
137	6
138	9
139	23
140	18
141	8
142	1
143	6
144	1
145	1
146	1
147	1
148	1
149	3
150	1
151	3
152	6
153	14
154	13
155	6
156	1
157	4
158	1
159	1
163	2
164	1
165	2
166	5
167	9
168	10
169	5
170	1
171	6
172	1
173	1
177	1
178	1
179	1
180	4
181	6
182	7
183	3
184	1
185	10
186	2
187	1
191	1
192	1
193	1
194	3
195	4
196	7
197	2
198	1
199	4
200	1
201	1
207	1
208	2
209	3
210	4
211	2
212	1
213	3
214	1
215	1
220	1
221	1
222	6
223	3
224	23
225	6
226	1
227	3
228	1
229	1
236	1
237	1
238	1
239	6
240	1
241	15
242	3
243	1
244	1
247	1
248	1
250	5
251	1
252	45
253	13
254	2
255	3
256	8
257	38
258	7
259	1
264	6
265	5
266	2
267	36
268	7
269	2
270	1
271	2
276	1
277	1
279	1
280	1
281	1
282	1
283	5
284	62
285	283
286	55
287	7
288	1
295	1
296	1
297	10
298	2
299	1
311	1
312	2
313	5
314	1
322	1
323	1
325	2
326	1
327	1
335	1
339	1
340	2
341	1
342	1
353	1
354	1
355	1
367	1
368	1
369	1
381	1
382	1
396	1
410	1
424	1
438	1
452	1
466	1
480	1
493	1
494	1
508	4
509	2
522	1
528	1
536	23
537	11
538	3
