Mass Spectrum: 5.alpha.-Pregnane-3.beta.,20.alpha.-diamine, N3-isopropylidene-N20,N20-dimethyl-
Formula: C26H46N2
CAS: 27802-32-0
Molecular weight: 386
m/z	intensity
55	30
56	20
58	40
67	20
68	20
71	20
72	999
73	80
78	10
80	10
82	10
89	10
91	10
93	10
94	10
108	10
300	5
301	1
315	38
316	10
317	1
369	2
371	5
372	2
385	3
386	8
387	1
