Mass Spectrum: Benzonitrile, 4-[(1,5-dihydro-3-methyl-5-oxo-1-phenyl-4H-pyrazol-4-ylidene)amino]-
Formula: C17H12N4O
CAS: 27807-96-1
Molecular weight: 288
m/z	intensity
27	18
28	24
37	6
38	16
39	35
40	10
41	27
42	7
43	11
44	6
50	34
51	83
52	26
53	3
54	3
55	28
57	6
59	2
60	3
61	3
62	8
63	44
64	116
65	33
66	5
67	5
69	3
70	2
71	2
73	3
74	10
75	47
76	38
77	177
78	20
88	5
89	3
90	17
91	999
92	77
93	11
99	3
100	5
101	32
102	100
103	25
104	4
105	12
117	4
118	57
119	61
120	6
128	91
129	15
130	38
131	3
132	944
133	88
134	4
144	4
153	6
154	4
155	9
174	5
219	6
256	2
259	1
260	2
273	7
274	7
288	772
289	151
290	26
