Mass Spectrum: 2-Pyrazolin-5-one, 4-[[2-chloro-4-(dimethylamino)phenyl]imino]-3-methyl-1-phenyl-
Formula: C18H17ClN4O
CAS: 27807-99-4
Molecular weight: 340
m/z	intensity
27	15
28	8
38	14
39	35
40	9
41	24
42	60
43	7
44	10
50	25
51	90
52	26
53	5
54	3
55	2
61	3
62	10
63	60
64	111
65	40
66	20
67	7
68	4
69	3
73	6
74	11
75	40
76	34
77	303
78	40
79	5
88	8
89	15
90	29
91	999
92	85
93	9
97	4
98	3
99	9
100	16
101	7
102	55
103	21
104	55
105	39
106	5
110	6
111	10
112	10
113	10
114	6
115	9
116	19
117	20
118	50
119	85
120	9
124	20
125	6
126	10
127	7
128	5
129	16
130	10
131	5
132	404
133	42
136	22
137	5
138	29
139	45
140	11
141	16
142	6
143	15
144	5
145	14
150	5
152	6
153	25
154	15
155	25
156	7
157	7
163	50
164	40
165	30
166	15
167	5
168	3
169	29
170	30
171	17
172	9
179	207
180	70
181	65
182	25
183	5
185	2
186	3
191	7
192	2
193	5
194	3
195	8
196	7
197	2
205	6
206	5
207	137
208	22
209	45
210	6
220	3
221	3
236	4
255	6
256	15
257	6
258	5
270	40
271	262
272	60
273	87
274	15
305	4
311	2
312	2
339	20
340	858
341	202
342	303
343	63
344	10
