Mass Spectrum: 3,5-Cyclohexadiene-1,2-dione, 3-bromo-4,6-bis(1,1-dimethylethyl)-
Formula: C14H19BrO2
CAS: 27807-90-5
Molecular weight: 298
m/z	intensity
41	722
42	37
43	148
44	55
50	37
51	129
52	37
53	111
55	148
56	74
57	999
58	55
63	55
64	37
65	148
66	37
67	74
69	37
74	18
75	18
76	18
77	185
78	55
79	92
80	18
81	18
82	18
89	37
91	277
92	37
93	55
95	18
102	18
103	55
104	18
105	129
106	37
107	92
108	55
109	18
115	92
116	37
117	74
118	18
119	74
120	18
121	74
122	74
123	18
127	18
128	37
129	37
131	37
132	18
133	111
134	37
135	166
136	37
137	18
145	37
146	18
147	37
148	74
149	240
150	55
151	37
159	18
161	166
162	55
163	166
164	74
165	18
173	18
175	37
176	74
177	37
179	18
189	333
190	55
191	166
192	55
201	18
203	18
204	129
205	55
206	18
207	74
208	18
213	18
214	37
215	18
216	37
217	18
219	592
220	111
221	18
222	18
227	37
228	18
229	37
231	18
241	18
242	18
243	18
244	18
245	18
255	18
257	111
258	18
259	92
260	18
269	18
270	37
271	18
272	37
283	999
284	166
285	962
286	148
288	18
298	259
299	55
300	259
301	37
