Mass Spectrum: Phenol, 2-methoxy-4-phenyliminomethyl-, N-oxide
Formula: C14H13NO3
CAS: 2780-47-4
Molecular weight: 243
m/z	intensity
38	27
39	143
40	87
41	69
42	8
43	24
44	25
45	15
50	65
51	254
52	98
53	70
54	11
55	54
57	8
62	13
63	73
64	205
65	141
66	30
67	24
68	12
69	25
71	12
75	15
77	515
78	60
79	46
80	34
81	70
83	12
89	10
91	999
92	113
93	52
94	37
95	34
96	12
97	21
103	8
104	93
105	21
106	29
107	25
108	32
109	48
111	9
115	21
117	11
119	8
120	9
121	11
123	67
124	41
125	38
127	21
128	21
129	16
130	18
134	31
135	17
137	16
139	17
140	22
141	8
143	15
144	15
149	14
151	333
152	238
153	33
154	61
155	20
156	12
158	10
166	26
167	17
168	13
170	16
171	11
172	58
181	12
182	64
183	43
184	17
186	13
197	11
198	17
199	16
200	90
211	53
212	14
214	70
215	44
226	150
227	168
228	78
242	79
243	448
244	61
