Mass Spectrum: Dibutyltin bis(2-ethylhexanoate)
Formula: C24H48O4Sn
CAS: 2781-10-4
Molecular weight: 520
m/z	intensity
41	525
43	427
45	91
47	15
49	75
51	37
53	31
55	283
57	999
58	33
59	18
60	10
61	1
63	1
65	5
67	12
69	63
70	25
71	16
73	511
74	20
75	2
77	5
79	3
81	7
84	68
86	26
87	110
88	727
89	25
91	12
92	2
95	3
97	22
98	4
99	31
101	100
102	5
104	4
105	5
109	2
111	2
113	4
115	61
116	116
117	29
118	16
119	26
120	21
121	36
123	8
125	16
127	12
129	13
131	8
133	122
135	238
137	289
139	35
141	42
143	4
144	1
145	14
147	7
149	9
151	2
153	2
155	4
157	2
159	8
161	7
163	5
165	5
167	2
169	3
171	5
173	31
174	11
175	54
176	12
177	66
179	20
181	13
183	3
184	1
185	2
187	13
188	6
189	19
190	2
191	28
193	9
195	6
197	2
199	3
201	6
202	6
203	10
204	9
205	12
206	9
207	5
209	2
210	1
211	1
213	4
215	7
216	2
217	10
219	10
221	3
223	2
225	2
227	3
229	9
230	7
231	13
232	7
233	15
234	5
235	5
236	7
237	4
241	1
242	9
243	3
245	4
247	3
249	3
251	2
253	1
255	13
257	15
259	209
260	123
261	328
262	134
263	426
265	94
267	78
268	6
269	2
287	1
289	2
290	1
291	3
301	5
302	3
303	8
304	4
305	10
306	1
307	2
309	2
315	3
316	8
317	10
318	14
319	12
320	16
321	5
322	2
323	1
324	2
329	2
330	1
331	4
332	2
333	5
334	1
335	2
337	1
343	2
344	1
345	3
346	1
347	6
348	2
349	2
350	1
351	1
353	1
355	2
357	1
359	2
360	2
361	2
362	2
369	23
370	4
371	18
373	359
374	240
375	550
376	282
377	674
378	119
379	97
381	135
382	18
383	2
387	3
388	1
389	4
390	1
391	6
393	1
402	1
403	3
404	3
405	4
406	3
407	3
415	4
417	8
418	3
419	8
420	1
421	1
423	1
455	14
457	12
459	207
460	51
461	417
462	62
463	506
464	84
465	61
467	77
468	12
469	2
