Mass Spectrum: 1,3,6-Trioxocane, 2-methyl-
Formula: C6H12O3
CAS: 2781-01-3
Molecular weight: 132
m/z	intensity
14	9
15	94
16	4
17	2
18	10
19	10
26	22
27	101
28	425
29	180
30	64
31	132
32	4
33	1
39	3
40	2
41	15
42	151
43	999
45	401
46	10
47	2
51	5
57	96
58	868
59	129
60	7
61	8
71	11
72	139
73	62
74	4
75	8
76	3
86	6
87	521
88	218
89	23
90	2
91	2
101	5
102	803
103	47
104	5
115	1
117	9
118	5
119	1
131	6
132	24
133	5
