Mass Spectrum: Pentadecyl nonanoate
Formula: C24H48O2
CAS: 278181-44-5
Molecular weight: 368
m/z	intensity
27	49
29	169
30	7
31	6
37	1
39	53
40	16
41	608
42	172
43	996
44	31
45	13
53	31
54	97
55	795
56	330
57	999
58	52
59	12
60	100
61	139
62	3
65	11
66	9
67	155
68	180
69	646
70	357
71	514
72	30
73	138
74	13
79	12
80	11
81	111
82	236
83	530
84	239
85	200
86	12
87	45
88	4
89	37
93	8
95	48
96	107
97	441
98	160
99	52
100	9
101	40
102	6
103	25
110	43
111	247
112	100
113	17
114	6
115	72
116	43
117	11
119	6
122	6
123	17
124	24
125	122
126	63
129	64
130	15
138	22
139	51
140	34
141	164
142	17
143	8
153	20
154	24
156	4
157	7
158	85
159	605
160	61
161	12
167	11
168	17
169	7
170	2
180	5
181	5
182	41
183	10
185	4
210	87
211	17
214	11
215	2
227	3
255	31
256	9
270	5
283	4
368	41
369	14
