Mass Spectrum: 3-Buten-1-ol, propanoate
Formula: C7H12O2
CAS: 27819-06-3
Molecular weight: 128
m/z	intensity
25	1
26	32
27	206
28	72
29	478
30	13
31	33
37	3
38	9
39	131
40	15
41	35
42	22
43	10
44	1
45	4
46	0
49	1
50	6
51	8
52	4
53	32
54	434
55	127
56	36
57	999
58	38
59	2
67	0
68	0
69	1
70	0
71	4
72	1
73	1
74	1
75	3
78	0
85	0
87	133
88	6
89	0
98	1
99	1
128	1
129	0
