Mass Spectrum: CH3CH2CH2SCH2CH=CH2
Formula: C6H12S
CAS: 27817-67-0
Molecular weight: 116
m/z	intensity
27	62
38	29
39	320
40	25
41	750
42	42
43	100
45	369
46	97
47	139
53	84
55	17
58	33
59	119
60	14
61	31
67	21
71	65
72	44
73	292
74	999
75	141
76	44
83	7
85	83
87	269
88	20
89	18
116	658
117	43
118	29
