Mass Spectrum: Pregn-5-en-20-one, 3,8,11,12,14-pentahydroxy-, (3.beta.,11.alpha.,12.beta.,14.beta.)-
Formula: C21H32O6
CAS: 27828-84-8
Molecular weight: 380
m/z	intensity
26	14
27	130
28	79
29	214
30	10
31	83
39	163
40	36
41	804
42	36
43	999
44	83
45	83
47	16
50	14
51	49
52	28
53	259
54	46
55	506
56	46
57	228
58	36
59	20
60	30
61	16
63	16
64	8
65	118
66	65
67	340
68	40
69	167
70	32
71	391
72	28
73	34
76	8
77	363
78	100
79	569
80	108
81	546
82	67
83	149
84	216
85	261
86	75
87	93
88	8
89	12
90	14
91	606
92	249
93	575
94	195
95	287
96	136
97	999
98	140
99	69
100	65
101	44
102	16
103	81
104	61
105	789
106	251
107	353
108	175
109	522
110	295
111	314
112	77
113	693
114	87
115	116
116	57
117	155
118	73
119	293
120	999
121	930
122	191
123	340
124	100
125	130
126	51
127	102
128	97
129	120
130	85
131	171
132	61
133	134
134	81
135	212
136	155
137	155
138	999
139	244
140	108
141	165
142	67
143	167
144	87
145	367
146	136
147	420
148	130
149	114
150	140
151	136
152	106
153	546
154	440
155	106
156	36
157	102
158	75
159	122
160	61
161	220
162	120
163	244
164	169
165	187
166	100
167	61
168	24
169	134
170	40
171	693
172	104
173	116
174	95
175	142
176	67
177	75
178	73
179	100
180	155
181	163
182	91
183	116
184	34
185	69
186	81
187	151
188	46
189	95
190	36
191	112
192	128
193	159
194	55
195	67
196	30
197	49
198	18
199	63
200	20
201	36
202	32
203	51
204	120
205	238
206	187
207	157
208	146
209	304
210	61
211	46
212	26
213	59
214	34
215	51
216	18
217	28
218	16
219	57
220	44
221	73
222	75
223	120
224	381
225	218
226	36
227	49
228	26
229	32
230	14
231	120
232	44
233	36
234	14
235	18
236	14
237	38
238	28
239	32
240	18
241	136
242	183
243	108
244	20
245	26
246	20
247	32
248	12
249	26
250	14
251	40
252	14
253	32
254	8
255	53
256	89
257	28
258	12
259	167
260	51
261	32
262	8
263	6
264	4
265	49
266	28
267	49
268	22
269	40
270	16
271	22
272	8
273	77
274	171
275	44
276	14
277	49
278	14
279	28
280	12
281	14
282	8
283	151
284	65
285	55
286	24
287	26
288	28
289	20
290	6
291	8
292	32
293	40
294	14
295	18
296	10
297	12
298	18
299	8
300	14
301	110
302	36
303	16
304	4
305	4
306	8
307	4
308	24
309	16
310	8
311	173
312	36
313	14
315	8
316	14
317	14
318	4
319	8
323	4
324	4
325	8
326	138
327	61
328	26
329	89
330	20
331	10
342	2
343	8
344	793
345	185
346	49
347	20
360	2
361	2
362	514
363	116
364	28
365	10
378	10
379	2
380	53
381	28
382	8
