Mass Spectrum: Octacosanoic acid, 2,4,6,8-tetramethyl-, methyl ester, [2R-(2R*,4R*,6R*,8R*)]-
Formula: C33H66O2
CAS: 27829-61-4
Molecular weight: 494
m/z	intensity
14	12
15	23
16	10
26	23
27	123
29	250
30	10
31	10
32	10
38	9
39	101
41	472
42	207
43	730
44	65
45	69
47	3
50	7
51	10
52	3
53	34
54	32
55	418
56	461
57	909
58	54
59	70
60	14
61	7
65	9
66	7
67	76
68	109
69	541
70	154
71	461
72	40
73	192
74	21
75	7
77	9
79	18
80	14
81	116
82	101
83	305
84	105
85	240
86	101
87	87
88	970
89	69
90	7
91	5
92	1
93	16
94	14
95	105
96	72
97	210
98	41
99	89
100	10
101	999
102	127
103	12
105	5
107	12
108	1
109	58
110	27
111	176
112	45
113	63
114	5
115	18
119	1
121	14
122	7
123	101
124	34
125	72
126	32
127	47
128	3
129	81
130	9
135	10
136	3
137	23
138	14
139	38
140	38
141	32
142	3
143	32
144	9
145	3
151	10
152	7
153	27
154	7
155	23
157	7
163	10
165	5
166	1
167	10
169	16
170	1
171	41
172	7
179	5
181	21
182	5
183	16
185	14
193	1
194	1
195	1
196	10
197	14
199	12
211	12
213	25
214	1
224	12
225	12
227	14
228	3
239	10
255	16
267	9
270	10
271	14
279	7
281	10
285	10
286	1
309	12
323	12
337	14
338	1
349	1
351	14
352	1
389	1
393	3
404	12
405	1
407	47
408	14
409	1
423	7
451	14
452	3
479	1
480	16
481	3
493	1
494	189
495	76
496	14
