Mass Spectrum: 1-Octacosanol, 2,4,6,8-tetramethyl-, (all-R)-
Formula: C32H66O
CAS: 27829-63-6
Molecular weight: 466
m/z	intensity
14	9
15	18
16	36
17	109
18	49
20	54
26	16
27	36
29	127
31	36
32	54
39	29
40	12
41	290
42	90
43	836
44	40
45	72
53	14
54	36
55	581
56	290
57	999
67	72
68	98
69	927
70	345
71	581
72	36
73	43
79	12
80	10
81	103
82	172
83	745
84	400
85	409
86	36
87	16
88	9
91	9
93	14
94	12
95	78
96	127
97	350
98	103
99	145
100	12
101	100
102	7
105	7
107	12
109	54
110	36
111	212
112	54
113	63
114	3
115	16
119	5
122	10
123	36
124	72
125	481
126	163
127	54
128	12
135	5
137	18
138	12
139	36
140	50
141	64
142	9
143	15
144	2
145	2
146	0
147	4
148	1
149	61
150	10
151	8
152	9
153	22
154	10
155	17
156	1
157	4
158	0
159	2
160	0
161	2
162	0
163	4
164	0
165	6
166	8
167	55
168	14
169	15
170	1
171	2
173	2
175	1
177	2
178	1
179	3
180	3
181	10
182	8
183	10
184	1
185	4
187	1
189	2
191	2
192	1
193	2
194	4
195	8
196	7
197	10
198	2
199	2
201	0
203	1
205	2
207	1
208	4
209	6
210	6
211	8
212	1
213	6
217	0
219	2
221	1
222	3
223	5
224	6
225	8
226	1
227	2
228	2
229	1
231	0
235	2
236	4
237	5
238	4
239	5
240	1
241	1
242	0
243	0
249	0
250	2
251	4
252	5
253	6
254	1
255	1
256	2
257	2
259	0
264	5
265	4
266	7
267	6
268	1
269	2
270	1
271	1
273	0
275	0
277	0
278	3
279	9
280	6
281	4
284	2
287	2
292	1
293	4
294	9
295	4
296	0
297	0
306	17
307	20
308	53
309	17
310	2
320	0
321	3
322	33
323	29
324	5
325	8
326	1
334	0
335	10
336	8
337	3
338	0
348	9
349	123
350	97
351	28
352	4
353	0
362	0
363	4
364	5
365	9
366	2
377	2
391	14
392	8
393	2
406	10
407	3
419	0
448	8
449	2
466	0
