Mass Spectrum: Hexacosanoic acid, 2,4,6-trimethyl-, methyl ester, (2R,4S,6R)-(-)-
Formula: C30H60O2
CAS: 27829-53-4
Molecular weight: 452
m/z	intensity
15	21
17	13
18	42
27	21
28	41
29	65
31	21
32	13
39	29
40	13
41	213
42	52
43	318
44	29
45	22
53	19
54	27
55	295
56	82
57	350
58	31
59	57
67	42
68	47
69	295
70	75
71	206
72	29
73	41
74	13
77	14
79	13
80	13
81	52
82	62
83	221
84	78
85	152
86	16
87	45
88	872
89	54
93	16
94	13
95	55
96	62
97	150
98	44
99	65
100	13
101	999
102	80
103	13
105	13
107	19
109	47
110	37
111	144
112	52
113	47
115	18
121	21
122	11
123	29
124	19
125	54
126	27
127	41
128	16
129	78
130	13
131	13
137	29
138	29
139	44
140	32
141	36
142	13
143	54
149	13
151	13
152	9
153	29
154	21
155	27
167	21
169	29
171	31
183	19
196	13
197	19
211	13
222	13
223	8
224	13
225	21
239	13
253	13
267	9
281	11
295	8
308	9
309	13
323	8
351	11
362	9
365	49
366	13
381	11
409	11
421	11
437	13
452	95
453	36
