Mass Spectrum: 13-Tetradecenoic acid, 2,4,6,8-tetramethyl-, methyl ester, (2S,4R,6R,8R)-(+)-
Formula: C19H36O2
CAS: 27829-58-9
Molecular weight: 296
m/z	intensity
15	23
27	38
28	14
29	91
32	2
39	60
40	7
41	484
42	96
43	275
45	20
53	43
54	38
55	582
56	97
57	205
58	9
59	173
60	4
67	65
68	44
69	827
70	103
71	114
72	8
73	84
74	9
77	5
79	8
81	69
82	40
83	530
84	77
85	57
86	7
87	40
88	999
89	43
90	4
91	4
95	64
96	19
97	274
98	38
99	20
101	845
102	48
103	2
107	4
108	2
109	62
110	35
111	293
112	57
113	21
115	11
121	12
123	38
124	11
125	81
126	14
127	14
128	11
129	126
130	4
135	5
137	27
138	61
139	101
140	38
141	4
142	46
143	89
144	9
147	10
149	4
151	21
152	41
153	212
154	51
155	8
163	8
165	4
166	2
167	5
169	80
170	88
171	40
172	4
179	62
180	11
181	39
182	2
183	8
184	24
185	51
186	9
193	13
195	13
196	19
197	7
207	2
208	5
209	21
211	100
212	16
221	5
222	2
226	2
249	4
264	9
265	77
266	12
281	4
296	25
297	2
