Mass Spectrum: 4,4,6-Trimethyltetrahydro-1,3-oxazin-2-one
Formula: C7H13NO2
CAS: 27830-77-9
Molecular weight: 143
m/z	intensity
15	17
16	8
17	10
18	9
25	7
26	35
27	187
28	77
29	132
30	55
31	2
36	4
37	0
38	22
39	147
40	44
41	271
42	999
43	166
44	71
45	14
53	6
54	10
55	103
56	34
57	60
58	28
59	7
65	8
67	24
68	5
69	10
70	8
82	7
83	12
84	253
85	16
86	2
128	224
129	15
143	30
144	2
