Mass Spectrum: Methyl 4,6-di-O-acetyl-2,3-diacetamido-2,3-dideoxy-.alpha.-D-glucopyranoside
Formula: C15H24N2O8
CAS: 27851-40-7
Molecular weight: 360
m/z	intensity
55	19
56	69
57	64
58	239
59	119
60	129
61	49
68	59
69	92
70	45
72	84
73	339
74	92
80	62
82	45
83	119
84	219
85	74
86	92
95	57
96	77
97	129
98	129
100	999
101	249
102	92
108	45
109	31
111	92
113	45
114	77
115	229
116	60
121	92
122	45
123	22
125	46
126	88
127	29
128	45
129	27
138	129
139	549
140	91
141	859
142	219
150	60
153	44
154	11
155	15
156	15
157	17
158	14
159	13
166	14
167	37
168	169
169	37
170	29
180	53
181	229
182	30
185	5
186	14
195	89
197	16
198	30
199	60
208	75
209	13
210	22
227	14
240	22
241	429
242	57
268	6
269	7
300	45
301	5
328	6
329	14
361	1
