Mass Spectrum: Menthone (2,4-dinitrophenyl)hydrazone
Formula: C16H22N4O4
CAS: 27853-78-7
Molecular weight: 334
m/z	intensity
40	63
41	650
42	135
43	300
44	67
45	32
48	87
50	57
51	96
52	141
53	201
54	84
55	450
56	126
57	81
58	20
59	27
61	16
62	59
63	135
64	270
65	108
66	72
67	400
68	120
69	450
70	66
71	25
74	41
75	87
76	60
77	171
78	90
79	198
80	110
81	999
82	139
83	87
84	35
88	14
89	41
90	63
91	440
92	99
93	230
94	200
95	300
96	111
97	66
98	60
99	10
102	14
103	35
104	28
105	55
106	69
107	138
108	500
109	230
110	126
111	350
112	150
113	17
115	53
116	32
117	63
118	41
119	105
120	50
121	46
122	59
123	53
124	28
125	22
126	11
127	12
128	17
129	20
130	37
131	40
132	54
133	43
134	460
135	87
136	240
137	230
138	46
139	61
141	15
143	21
144	30
145	27
146	25
147	25
148	49
149	133
150	141
151	108
152	75
153	102
154	48
155	15
156	17
157	24
158	15
159	12
160	11
162	10
163	20
164	49
165	123
166	32
167	60
168	44
169	16
170	15
171	20
172	12
175	18
176	13
177	42
178	25
179	11
180	24
181	71
182	32
183	430
184	93
185	19
189	20
190	34
191	36
192	17
195	13
196	23
197	14
198	17
199	31
200	16
202	14
203	66
204	32
205	14
206	12
211	19
212	11
213	14
214	12
215	17
216	16
217	39
218	17
219	30
224	29
225	12
227	12
228	22
229	28
230	26
231	36
232	20
233	17
238	10
241	20
242	14
243	20
244	17
245	132
246	34
251	12
253	17
254	10
255	17
256	24
257	63
258	20
259	58
260	11
261	10
269	15
270	21
271	35
272	13
273	21
274	18
275	40
282	12
283	15
284	10
285	18
286	17
287	13
291	620
292	120
293	20
297	25
299	93
300	29
301	62
302	19
304	16
315	10
316	18
317	66
318	25
319	25
332	72
333	19
334	280
335	69
336	10
