Mass Spectrum: Propanoic acid, 2-(aminooxy)-
Formula: C3H7NO3
CAS: 2786-22-3
Molecular weight: 105
m/z	intensity
33	90
42	400
43	810
44	560
45	999
55	550
60	710
73	330
87	150
105	46
