Mass Spectrum: Acetic acid, 3-methyl-6-oxo-hex-2-enyl ester
Formula: C9H14O3
CAS: 27872-59-9
Molecular weight: 170
m/z	intensity
26	18
27	160
28	23
29	147
30	9
31	30
36	4
37	6
38	19
39	206
40	49
41	283
42	67
43	999
44	67
45	91
46	2
47	4
48	1
49	4
50	26
51	52
52	31
53	182
54	59
55	203
56	47
57	49
58	6
59	2
60	59
61	17
62	6
63	13
64	4
65	50
66	46
67	245
68	183
69	69
70	12
71	54
72	9
73	7
74	4
75	4
76	2
77	69
78	15
79	129
80	36
81	406
82	147
83	80
84	590
85	75
86	14
87	4
89	2
90	2
91	40
92	18
93	61
94	12
95	124
96	13
97	17
98	6
99	5
100	8
101	2
105	2
107	3
108	3
109	39
110	345
111	55
112	6
113	8
114	2
123	2
124	5
125	2
126	231
127	37
128	10
152	11
153	1
154	1
155	1
170	0
