Mass Spectrum: 1,2,3,4-Tetrabenzyl-.beta.-d-glucoronicacid amide
Formula: C34H35NO6
CAS: 27888-21-7
Molecular weight: 553
m/z	intensity
65	37
69	8
79	8
91	999
92	84
105	8
107	7
125	8
144	10
158	11
178	13
181	93
182	10
187	22
188	24
197	14
203	25
204	6
230	9
232	11
240	11
248	30
253	185
254	30
263	6
264	7
354	35
356	27
462	16
553	6
