Mass Spectrum: Methanone, cyclohexyl(4-methylphenyl)-
Formula: C14H18O
CAS: 2789-44-8
Molecular weight: 202
m/z	intensity
25	8
26	59
27	301
28	34
29	182
30	6
31	3
36	6
37	19
38	51
39	543
40	75
41	571
42	69
43	49
44	7
45	11
46	8
49	7
50	65
51	142
52	48
53	124
54	95
55	475
56	39
57	12
59	2
60	2
61	13
62	45
63	158
64	47
65	514
66	49
67	122
68	21
69	21
70	13
73	6
74	15
75	17
76	11
77	63
78	22
79	42
80	8
81	35
82	39
83	135
84	17
85	6
86	8
87	11
88	8
89	139
90	99
91	819
92	173
93	28
102	5
103	15
104	11
105	39
106	11
109	2
110	2
111	11
115	41
116	22
117	28
118	46
119	999
120	325
121	49
122	2
127	9
128	19
129	19
130	5
131	19
132	11
133	8
134	99
135	16
136	5
145	28
146	11
147	121
148	19
159	11
160	6
161	18
169	15
170	2
185	19
186	15
187	213
188	33
189	2
200	13
201	25
202	325
203	173
204	23
