Mass Spectrum: 1,7-Diazabicyclo[2.2.0]heptane
Formula: C5H10N2
CAS: 279-42-5
Molecular weight: 98
m/z	intensity
27	33
28	199
29	43
30	62
31	23
32	31
39	35
40	24
41	172
42	193
43	321
44	301
45	72
53	21
54	62
55	123
56	92
57	95
58	32
60	45
61	21
67	22
68	143
69	965
70	999
79	22
80	24
81	20
82	34
83	81
84	42
85	33
95	31
96	33
97	64
98	473
99	56
