Mass Spectrum: 2-Propenoic acid, 3,3,4,4,5,5,6,6,7,7,8,8,9,9,10,10,10-heptadecafluorodecyl ester
Formula: C13H7F17O2
CAS: 27905-45-9
Molecular weight: 518
m/z	intensity
20	1
26	13
27	130
28	20
29	18
30	7
31	15
32	2
33	2
39	1
42	1
43	9
44	10
45	3
46	1
47	5
49	8
50	1
51	30
53	6
54	9
55	999
56	67
57	9
59	4
64	9
65	30
69	117
70	1
71	3
72	80
73	16
74	1
75	4
77	99
78	6
81	2
83	1
85	40
86	2
89	2
91	1
93	4
95	73
96	2
97	2
99	171
100	21
101	3
103	1
107	1
108	3
109	8
113	5
115	10
119	39
120	1
126	2
127	7
129	1
131	38
132	1
133	3
135	3
137	3
139	3
143	1
145	7
147	1
149	4
150	1
157	2
162	1
163	2
165	1
169	17
175	1
177	2
179	2
181	8
189	1
195	1
207	1
213	1
219	3
227	1
231	3
263	1
269	1
281	2
307	1
313	5
331	1
357	4
363	4
377	7
381	6
395	3
407	1
427	18
428	2
441	1
451	1
453	1
456	8
457	1
461	2
463	1
498	2
499	6
518	93
519	13
520	1
