Mass Spectrum: 1-Decyn-4-ol
Formula: C10H18O
CAS: 27907-00-2
Molecular weight: 154
m/z	intensity
23	0
24	0
25	2
26	8
27	112
28	34
29	160
30	5
31	47
32	1
33	0
35	1
36	2
37	10
38	15
39	146
40	57
41	292
42	61
43	355
44	74
45	28
46	1
47	0
48	0
49	2
50	4
51	10
52	5
53	19
54	12
55	999
56	58
57	68
58	6
59	7
62	0
63	2
64	1
65	9
66	6
67	19
68	21
69	166
70	40
71	17
72	3
73	1
74	0
75	1
76	0
77	15
78	6
79	29
80	6
81	18
82	10
83	5
84	3
85	5
86	3
87	1
89	0
91	10
92	2
93	8
94	2
95	6
96	5
97	375
98	30
99	1
105	1
106	0
107	4
108	1
109	0
111	0
113	2
114	0
115	88
116	7
117	1
121	0
128	2
129	0
130	0
133	0
136	0
