Mass Spectrum: 2,6-Diphenyl-1,6-heptadiene
Formula: C19H20
CAS: 27905-65-3
Molecular weight: 248
m/z	intensity
32	1
37	0
38	3
39	89
40	10
41	52
42	4
43	10
49	0
50	19
51	110
52	27
53	65
54	4
55	11
56	3
57	8
58	2
59	0
61	0
62	6
63	42
64	11
65	97
66	15
67	10
68	3
69	7
70	3
71	6
73	3
74	8
75	19
76	38
77	341
78	166
79	55
80	7
81	6
82	5
83	9
84	6
85	4
86	1
87	5
88	6
89	51
90	14
91	569
92	58
93	7
94	1
95	4
96	2
97	2
98	1
99	1
100	1
101	15
102	112
103	320
104	85
105	106
106	17
107	3
108	2
109	3
110	1
111	2
112	1
113	7
114	13
115	544
116	165
117	359
118	999
119	152
120	12
121	3
122	1
123	1
124	5
125	4
126	9
127	72
128	236
129	693
130	895
131	297
132	52
133	9
134	2
135	4
136	1
137	1
138	1
139	11
140	4
141	53
142	58
143	138
144	273
145	41
146	8
147	2
148	8
149	3
150	3
151	10
152	35
153	26
154	17
155	34
156	26
157	108
158	28
159	4
160	2
161	1
162	2
163	5
164	6
165	81
166	22
167	79
168	73
169	17
170	47
171	11
172	6
173	2
174	1
175	1
176	8
177	8
178	44
179	46
180	62
181	15
182	4
183	1
184	1
185	2
186	1
187	1
188	1
189	5
190	4
191	13
192	7
193	11
194	7
195	3
196	2
197	2
198	0
199	0
200	1
201	2
202	11
203	12
204	12
205	29
206	17
207	7
208	2
209	2
210	1
211	0
212	1
213	1
214	1
215	6
216	3
217	6
218	8
219	38
220	129
221	28
222	7
223	2
224	1
225	0
226	1
227	0
228	1
229	1
230	2
231	2
232	2
233	17
234	8
235	1
246	3
247	3
248	163
249	34
250	3
251	0
