Mass Spectrum: Androstan-3-one, cyclic 1,2-ethanediyl mercaptole, (5.alpha.)-
Formula: C21H34S2
CAS: 2791-42-6
Molecular weight: 350
m/z	intensity
40	460
41	750
42	150
43	420
44	520
45	200
46	30
47	30
51	30
52	20
53	170
54	60
55	640
56	140
57	300
58	110
59	130
60	120
61	190
62	30
63	40
64	50
65	90
66	50
67	430
68	100
69	280
70	180
71	200
72	40
73	90
74	40
75	30
76	40
77	200
78	70
79	340
80	80
81	999
82	130
83	200
84	90
85	190
86	70
87	90
88	30
89	30
90	50
91	300
92	90
93	340
94	90
95	570
96	130
97	190
98	140
99	110
100	40
101	60
102	30
103	60
104	40
105	280
106	80
107	240
108	80
109	250
110	60
111	140
112	60
113	200
114	40
115	70
116	110
117	90
118	150
119	140
120	70
121	120
122	40
123	190
124	240
125	100
126	80
127	50
128	60
129	70
130	60
131	310
132	330
133	160
134	70
135	170
136	50
137	110
138	40
139	60
140	40
141	60
142	30
143	70
144	280
145	100
146	80
147	100
148	60
149	180
150	30
151	50
152	40
153	70
154	30
155	50
156	30
157	250
158	110
159	80
160	30
161	90
162	40
163	90
164	30
165	40
166	30
167	40
168	30
169	50
170	30
171	30
172	20
173	60
174	30
175	80
176	30
177	40
178	30
179	30
180	30
181	30
182	40
183	50
184	30
185	40
186	10
187	30
188	20
189	90
190	20
191	20
192	10
193	20
194	10
195	20
196	20
197	20
198	20
199	20
200	10
201	30
202	20
203	70
204	50
205	20
207	20
212	10
213	20
214	10
215	20
216	50
217	30
218	20
219	170
220	40
221	10
227	10
232	10
233	10
239	10
241	40
242	10
243	10
253	10
255	30
256	40
257	140
258	30
275	20
282	20
284	50
285	10
289	180
290	110
291	30
292	10
293	10
322	60
323	10
327	10
335	30
349	20
350	710
351	190
352	90
353	20
