Mass Spectrum: Methyl o-coumarate, TMS derivative
Formula: C13H18O3Si
CAS: 27927-16-8
Molecular weight: 250
m/z	intensity
45	220
59	430
60	50
61	20
73	780
74	120
75	170
76	20
81	20
89	999
90	230
91	160
101	20
102	40
103	20
105	20
115	80
118	240
119	50
131	10
133	10
135	130
136	20
137	20
145	50
146	200
147	80
148	50
149	20
151	20
161	230
162	50
175	50
177	30
179	10
189	10
190	10
191	10
192	10
193	10
219	320
220	100
221	20
235	460
236	140
237	40
238	5
250	750
251	170
252	50
253	10
