Mass Spectrum: Cyclohexaneacetic acid, butyl ester
Formula: C12H22O2
CAS: 27948-12-5
Molecular weight: 198
m/z	intensity
37	5
38	13
39	248
40	44
41	589
42	67
43	94
44	9
45	16
46	1
47	1
48	1
49	1
50	8
51	17
52	11
53	77
54	90
55	447
56	999
57	317
58	15
59	2
60	492
61	288
62	10
63	4
64	1
65	12
66	9
67	104
68	28
69	19
70	5
71	6
72	2
73	8
74	4
75	1
76	1
77	11
78	4
79	23
80	26
81	135
82	82
83	126
84	9
85	4
86	5
87	5
88	5
89	1
90	1
91	6
92	1
93	3
94	3
95	30
96	11
97	149
98	13
99	17
100	2
101	34
102	2
103	1
105	2
106	1
107	1
108	1
109	1
110	1
111	1
112	1
113	1
114	1
115	1
116	114
117	58
118	4
119	2
120	1
121	1
122	1
123	11
124	11
125	234
126	22
127	2
128	1
129	1
130	1
131	1
132	1
133	1
134	2
135	1
136	1
137	1
138	1
139	1
140	1
141	3
142	8
143	93
144	8
145	1
146	1
155	1
156	1
157	1
158	1
159	1
167	1
168	1
169	1
170	1
183	1
197	1
198	2
199	1
200	1
201	1
202	1
