Mass Spectrum: 1,3-Dioxane, 5-methyl-2-phenyl-
Formula: C11H14O2
CAS: 27942-89-8
Molecular weight: 178
m/z	intensity
25	1
26	11
27	85
28	35
29	46
30	6
31	30
36	2
37	12
38	27
39	178
40	34
41	268
42	101
43	51
44	10
45	6
49	4
50	65
51	187
52	48
53	19
54	5
55	225
56	73
57	20
58	1
59	4
60	3
61	3
62	12
63	35
64	13
65	24
66	2
67	2
68	1
69	10
70	84
71	13
72	4
73	14
74	18
75	16
76	27
77	468
78	137
79	316
80	26
81	3
82	1
83	3
84	2
85	3
86	2
87	4
88	1
89	47
90	39
91	93
92	14
93	2
94	2
95	1
96	1
97	2
98	2
99	1
100	15
101	210
102	12
103	4
104	12
105	999
106	207
107	603
108	154
109	12
110	1
111	1
112	1
113	0
114	0
115	4
116	1
117	2
118	0
119	5
120	0
121	1
122	2
123	33
124	2
125	0
126	0
127	1
128	2
129	2
131	3
133	0
134	1
135	0
139	0
140	0
141	4
145	1
146	1
147	1
148	17
149	22
150	2
152	0
153	0
154	0
155	0
156	0
157	1
162	0
163	3
164	1
165	1
167	2
168	2
169	0
170	0
176	18
177	834
178	499
179	59
180	5
181	2
