Mass Spectrum: Furan, tetrahydro-3,4-dimethyl-, cis-
Formula: C6H12O
CAS: 27953-97-5
Molecular weight: 100
m/z	intensity
26	15
27	98
28	26
29	116
30	4
31	20
37	3
38	10
39	142
40	25
41	205
42	339
43	77
44	49
45	34
50	8
51	13
52	6
53	43
54	26
55	999
56	50
57	22
58	4
59	10
67	11
68	24
69	33
70	857
71	55
80	6
82	5
84	4
99	67
100	267
101	22
