Mass Spectrum: Oxazolidine, 3-methyl-
Formula: C4H9NO
CAS: 27970-32-7
Molecular weight: 87
m/z	intensity
14	24
15	226
26	46
27	120
29	160
30	305
31	19
36	54
38	23
40	43
41	95
42	999
43	123
44	89
45	15
47	13
54	26
55	24
56	189
57	621
58	418
59	20
84	63
85	15
86	822
87	462
88	21
