Mass Spectrum: Isosteviol
Formula: C20H30O3
CAS: 27975-19-5
Molecular weight: 318
m/z	intensity
41	999
42	101
43	535
44	8
45	154
46	1
47	43
48	16
49	17
50	11
51	8
52	24
53	292
54	60
55	792
56	101
57	87
58	13
59	80
60	9
61	11
63	7
64	4
65	137
66	57
67	503
68	99
69	262
70	24
71	39
72	8
73	16
74	20
77	325
78	68
79	600
80	140
81	581
82	124
83	69
84	11
85	28
86	7
87	130
88	17
89	7
91	502
92	92
93	466
94	156
95	408
96	108
97	119
98	22
99	14
100	26
101	33
102	2
103	36
104	18
105	325
106	209
107	440
108	212
109	516
110	107
111	47
112	20
113	13
114	9
115	58
116	20
117	72
118	102
119	184
120	89
121	426
122	140
123	200
124	55
125	64
126	25
127	11
128	21
129	30
130	19
131	98
132	41
133	142
134	109
135	119
136	44
137	74
138	19
139	61
140	7
141	12
142	8
143	21
144	12
145	75
146	28
147	127
148	56
149	63
150	112
151	66
152	284
153	47
154	10
155	8
156	5
157	19
158	13
159	103
160	38
161	115
162	28
163	122
164	36
165	207
166	35
167	46
168	10
169	14
171	11
172	6
173	42
174	18
175	74
176	39
177	26
178	6
179	8
181	2
183	2
185	11
186	8
187	20
188	14
189	53
190	19
191	8
193	7
199	12
200	1
201	16
202	20
203	91
204	37
205	12
206	1
207	3
213	8
214	14
215	24
216	12
217	25
218	6
219	5
227	6
228	5
229	54
230	21
231	9
232	25
233	6
239	7
241	5
243	7
244	6
245	6
247	1
255	10
256	28
257	41
258	29
259	67
260	13
261	3
262	14
271	1
272	62
273	61
274	72
275	67
276	16
282	6
285	1
300	86
301	18
303	8
318	122
319	26
320	8
