Mass Spectrum: 6,8-Dioxabicyclo[3.2.1]octane
Formula: C6H10O2
CAS: 280-16-0
Molecular weight: 114
m/z	intensity
38	24
39	235
40	142
41	300
42	83
43	121
44	83
45	29
47	15
50	16
51	28
52	13
53	83
54	13
55	150
56	54
57	999
58	343
59	14
65	10
66	11
67	172
68	343
69	44
70	11
71	21
78	26
82	7
83	36
84	103
85	36
86	196
87	13
95	5
113	5
114	206
115	17
