Mass Spectrum: 2-Thiabicyclo[2.2.2]octane
Formula: C7H12S
CAS: 280-41-1
Molecular weight: 128
m/z	intensity
35	11
36	2
37	17
38	55
39	716
40	82
41	658
42	39
43	15
44	10
45	524
46	117
47	164
48	11
49	16
50	52
51	108
52	47
53	271
54	196
55	151
56	13
57	16
58	101
59	116
60	54
61	58
62	20
63	31
64	4
65	154
66	189
67	507
68	82
69	53
70	9
71	94
72	492
73	196
74	110
75	14
76	14
77	153
78	40
79	999
80	205
81	871
82	119
83	9
84	53
85	619
86	116
87	90
88	8
89	5
91	48
92	6
93	124
94	933
95	188
96	12
97	31
98	8
99	537
100	71
101	29
102	4
109	1
110	1
111	3
112	1
113	58
114	4
115	2
125	1
126	1
127	16
128	818
129	76
130	38
131	3
