Mass Spectrum: 8-Thiabicyclo[3.2.1]octane
Formula: C7H12S
CAS: 280-24-0
Molecular weight: 128
m/z	intensity
35	9
36	1
37	14
38	47
39	561
40	76
41	530
42	38
43	19
44	7
45	448
46	36
47	101
48	5
49	9
50	32
51	68
52	27
53	178
54	91
55	117
56	8
57	17
58	123
59	147
60	150
61	52
62	29
63	26
64	5
65	121
66	168
67	560
68	225
69	62
70	7
71	76
72	43
73	150
74	57
75	11
76	8
77	91
78	25
79	520
80	42
81	55
82	9
83	4
84	109
85	999
86	223
87	732
88	45
89	33
90	2
91	43
92	5
93	68
94	436
95	126
96	9
97	27
98	6
99	266
100	326
101	35
102	16
103	1
104	1
108	1
109	1
110	1
111	3
112	1
113	44
114	3
115	3
127	24
128	651
129	59
130	29
131	3
