Mass Spectrum: S-Methyl-S-[p-acetylamino]phenyl-N-benzenesulfonylsulfinylimine
Formula: C15H16N2O3S2
CAS: 28009-78-1
Molecular weight: 336
m/z	intensity
41	28
42	40
43	577
44	12
45	89
46	15
47	17
48	13
49	11
50	130
51	359
52	53
53	34
54	13
55	7
56	25
57	9
58	9
59	10
60	6
61	13
62	88
63	77
64	74
65	125
66	41
67	30
68	3
69	50
70	38
71	15
72	4
73	6
74	38
75	27
76	35
77	999
78	122
79	31
80	113
81	16
82	13
83	8
84	10
85	10
89	3
90	23
91	38
92	37
93	192
94	139
95	31
96	63
97	55
98	5
99	3
104	11
105	27
106	42
107	22
108	65
109	17
110	14
111	76
112	10
113	3
119	3
120	2
121	4
122	27
123	43
124	853
125	146
126	49
127	7
132	2
133	14
134	2
135	3
136	13
137	28
138	390
139	619
140	94
141	211
142	18
143	7
150	37
151	8
152	24
153	199
154	56
155	14
156	2
157	107
158	12
159	4
164	12
165	17
166	19
167	16
168	3
169	18
170	3
171	15
179	9
180	60
181	553
182	76
183	32
184	5
187	97
188	9
189	9
193	2
195	214
196	27
197	11
209	2
215	6
279	6
306	9
307	4
320	4
321	28
322	11
323	0
334	2
335	4
336	14
337	2
