Mass Spectrum: Sulfamoyl chloride, 7-oxabicyclo[4.2.1]nona-2,4-dien-8-ylidene-
Formula: C8H8ClNO3S
CAS: 28000-12-6
Molecular weight: 233
m/z	intensity
44	11
45	4
46	4
47	1
48	28
49	1
50	42
51	32
52	16
53	10
54	1
55	6
56	12
57	2
59	0
60	0
61	3
62	11
63	28
64	37
65	77
66	8
67	2
68	2
69	1
71	1
73	0
74	2
75	3
76	3
77	36
78	12
79	69
80	6
81	1
83	1
85	1
87	1
88	0
89	43
90	73
91	999
92	305
93	27
96	0
103	3
104	5
105	12
106	15
107	3
109	0
115	0
116	79
117	194
118	153
119	122
120	15
121	0
122	1
125	3
126	1
127	1
128	1
129	0
132	3
133	7
134	138
135	39
136	33
137	5
141	0
148	0
149	0
152	1
153	0
154	5
159	11
162	8
163	0
174	1
175	1
176	0
198	0
201	1
202	2
203	3
204	1
206	1
216	1
221	2
226	5
227	0
233	41
234	4
