Mass Spectrum: 2-Amino-5-[3,4-dichlorophenyl]-1,3,4-thiadiazole
Formula: C8H5Cl2N3S
CAS: 28004-64-0
Molecular weight: 245
m/z	intensity
42	45
43	22
45	38
47	51
48	1
49	18
50	43
51	8
52	4
57	3
60	178
61	23
62	28
63	14
64	3
69	61
70	3
71	7
72	8
74	999
75	61
76	51
77	2
79	9
81	10
82	4
83	1
84	21
85	21
86	25
87	26
88	7
89	1
92	2
93	18
94	7
95	2
96	7
97	15
98	1
99	18
100	28
101	3
102	1
103	8
105	5
107	15
109	60
110	11
111	18
112	3
115	0
116	5
117	10
119	47
120	5
121	4
123	50
124	19
125	13
126	6
127	3
129	2
131	2
133	20
134	2
135	2
136	20
137	2
138	6
141	2
143	0
145	35
147	23
148	1
149	4
151	3
153	6
154	40
156	19
157	10
159	20
160	1
161	10
163	2
167	2
168	13
169	3
171	31
172	50
173	12
174	34
175	5
176	6
178	0
186	23
189	118
191	67
193	15
194	0
203	18
205	14
207	4
210	2
243	0
245	260
246	48
247	171
248	34
249	26
250	9
251	2
