Mass Spectrum: Sulfamoyl fluoride, (1-chloro-2,2,2-trifluoroethylidene)-
Formula: C2ClF4NO2S
CAS: 28011-03-2
Molecular weight: 213
m/z	intensity
31	59
32	21
35	21
37	5
48	113
50	59
51	27
61	21
63	8
64	113
67	394
69	794
76	232
83	999
85	421
87	81
144	832
146	729
178	518
194	16
196	5
213	81
215	27
