Mass Spectrum: N-Benzoyl-3-methylleucine
Formula: C14H19NO3
CAS: 2801-53-8
Molecular weight: 249
m/z	intensity
16	2
17	35
18	4
26	3
27	22
28	60
29	17
30	3
36	1
37	8
38	14
39	47
40	9
41	79
42	14
43	196
44	57
45	8
46	1
47	3
49	5
50	52
51	98
52	23
53	13
54	8
55	47
56	13
57	23
58	3
59	3
60	1
61	4
62	4
63	9
64	4
65	9
66	5
67	30
68	9
69	60
70	12
71	122
72	8
73	5
74	18
75	24
76	99
77	427
78	84
79	13
80	4
81	10
82	13
83	18
84	31
85	9
86	3
87	2
88	2
89	3
90	2
91	9
92	3
93	4
94	9
95	21
96	9
97	10
98	5
99	5
100	1
102	6
103	238
104	39
105	999
106	103
107	9
108	4
109	7
110	60
111	13
112	3
113	5
115	5
116	2
117	6
118	2
119	2
120	1
121	9
122	276
123	23
124	3
125	6
126	8
127	3
128	7
129	3
130	2
131	1
132	4
133	52
134	36
135	8
136	1
137	2
138	2
139	3
140	1
141	3
142	1
143	4
144	8
145	5
146	3
147	5
148	2
149	4
150	1
151	2
152	2
153	2
154	2
155	2
156	3
157	1
158	1
159	1
160	10
161	353
162	59
163	8
164	1
165	2
166	1
167	2
168	3
169	2
170	8
171	3
172	4
173	1
174	1
176	1
177	1
178	4
179	183
180	22
181	4
182	3
183	6
184	3
185	4
186	2
187	2
188	26
189	4
191	1
195	1
203	8
204	42
205	11
206	9
207	1
211	1
213	3
216	3
229	4
230	1
231	15
232	2
234	2
249	7
250	1
