Mass Spectrum: 2-Cyclohexen-1-one, 5,5-dimethyl-3-(1-methylethyl)-
Formula: C11H18O
CAS: 28017-79-0
Molecular weight: 166
m/z	intensity
12	1
13	2
14	14
15	103
16	2
17	3
18	10
26	15
27	280
28	104
29	145
30	3
31	1
37	5
38	23
39	358
40	71
41	419
42	49
43	112
44	4
45	3
46	2
49	1
50	46
51	110
52	59
53	211
54	55
55	200
56	47
57	43
58	3
59	3
60	3
61	5
62	13
63	37
64	10
65	76
66	53
67	400
68	98
69	55
70	21
71	5
73	1
74	5
75	5
76	3
77	84
78	26
79	86
80	33
81	120
82	398
83	260
84	16
85	2
86	1
87	1
89	3
90	2
91	58
92	11
93	31
94	14
95	549
96	44
97	25
98	3
102	1
103	4
104	1
105	11
106	3
107	23
108	27
109	105
110	999
111	82
112	5
115	1
117	1
119	2
121	9
122	5
123	98
124	22
125	3
133	3
135	2
136	2
137	6
138	3
139	1
148	1
149	4
150	1
151	61
152	7
164	9
165	2
166	361
167	44
168	4
