Mass Spectrum: 4-Ethyl-2-hydroxycyclopent-2-en-1-one
Formula: C7H10O2
CAS: 28017-62-1
Molecular weight: 126
m/z	intensity
41	420
42	170
43	190
55	290
69	640
70	80
83	90
97	999
98	130
126	300
