Mass Spectrum: Benzenemethanamine, 4-chloro-.alpha.-phenyl-
Formula: C13H12ClN
CAS: 28022-43-7
Molecular weight: 217
m/z	intensity
27	7
28	159
29	5
30	4
39	14
40	1
41	1
50	22
51	56
52	15
53	5
54	2
61	1
62	5
63	16
64	4
65	5
66	1
69	9
70	2
73	4
74	9
75	34
76	31
77	203
78	33
79	102
80	7
81	10
82	21
83	9
85	3
86	3
87	5
88	2
89	16
90	32
91	9
98	1
99	3
100	2
101	3
102	18
103	6
104	223
105	999
106	507
107	37
108	4
109	1
110	1
111	32
112	7
113	59
114	8
115	21
116	2
119	1
123	1
125	3
126	4
127	5
128	3
137	2
138	144
139	264
140	589
141	125
142	173
143	13
149	2
150	3
151	9
152	18
153	11
154	4
155	5
162	2
163	18
164	21
165	108
166	53
167	12
168	1
173	1
177	2
178	4
179	3
180	28
181	9
182	54
183	8
188	2
189	1
190	1
199	14
200	5
201	30
202	8
203	9
204	2
214	9
215	5
216	135
217	289
218	82
219	96
220	12
221	1
