Mass Spectrum: 1-Propanamine, N-(1-methylethyl)-2-nitroso-
Formula: C6H14N2O
CAS: 28023-82-7
Molecular weight: 130
m/z	intensity
26	19
27	138
28	80
29	57
30	100
38	11
39	69
41	210
42	106
43	591
44	46
45	14
47	26
54	41
55	24
56	999
57	105
58	391
59	58
60	12
70	540
71	274
72	45
73	115
84	999
85	49
86	32
88	40
89	12
98	11
101	64
102	13
113	53
115	17
130	626
131	55
