Mass Spectrum: Butanedioic acid, ethyl 3-methylbutyl ester
Formula: C11H20O4
CAS: 28024-16-0
Molecular weight: 216
m/z	intensity
26	6
27	60
28	49
29	123
30	4
31	8
39	21
40	4
41	75
42	48
43	234
44	18
45	23
47	2
53	5
54	4
55	195
56	55
57	22
58	1
59	1
67	1
68	2
69	20
70	310
71	393
72	21
73	70
74	36
75	8
84	2
85	3
97	3
99	17
100	22
101	999
102	112
103	12
114	5
115	6
127	8
128	44
129	772
130	52
131	8
143	10
144	3
145	2
146	2
147	71
148	3
155	2
170	2
171	29
172	1
173	28
174	3
