Mass Spectrum: 1-Butanamine, 3-methyl-N-(3-methylbutyl)-N-nitroso-
Formula: C10H22N2O
CAS: 28023-74-7
Molecular weight: 186
m/z	intensity
27	112
29	150
30	112
31	15
39	59
41	240
42	224
43	999
44	360
45	34
53	13
54	16
55	114
56	125
57	200
58	38
59	8
68	10
69	60
70	86
71	176
72	11
73	44
74	175
75	12
84	76
86	11
88	40
98	320
99	44
100	42
113	312
114	24
117	28
129	38
130	168
131	15
140	32
143	8
154	4
156	5
157	3
169	38
171	8
186	13
