Mass Spectrum: 4-Piperidinecarboxylic acid, 1-methyl-4-phenyl-, methyl ester
Formula: C14H19NO2
CAS: 28030-27-5
Molecular weight: 233
m/z	intensity
41	50
42	400
43	260
44	220
45	20
51	20
53	30
54	10
55	30
56	40
57	400
58	40
59	30
63	20
65	30
67	10
68	10
69	10
70	621
71	999
72	50
76	10
77	100
78	20
81	20
82	20
83	20
84	10
85	10
87	30
89	10
91	150
92	10
94	20
95	10
96	160
97	20
102	50
103	170
104	20
105	20
113	10
115	80
116	40
117	30
120	20
121	10
126	10
127	20
128	40
129	40
130	20
131	80
132	20
133	10
134	10
135	10
140	50
141	40
142	20
143	10
144	30
145	10
146	10
155	50
156	10
157	10
158	20
159	10
163	10
170	10
172	160
173	40
174	120
175	20
176	10
190	10
202	20
205	20
218	120
219	20
232	270
233	390
234	60
