Mass Spectrum: .alpha.-D-Mannopyranoside, methyl, tetrakis(trifluoroacetate)
Formula: C15H10F12O10
CAS: 28034-57-3
Molecular weight: 578
m/z	intensity
40	10
41	60
42	25
43	165
44	245
45	115
47	10
50	25
51	20
52	10
53	99
54	13
55	70
56	20
57	20
58	10
59	105
60	8
61	217
62	8
63	15
65	25
67	25
68	20
69	999
70	15
71	55
72	10
73	140
74	10
77	14
78	30
80	20
81	270
82	15
83	80
84	10
85	140
86	7
87	35
89	20
91	8
93	7
95	28
96	7
97	170
98	20
99	95
100	7
101	10
103	30
108	7
109	85
110	5
111	10
112	6
113	10
115	10
117	15
121	5
123	10
124	5
125	40
127	50
129	150
130	10
137	10
139	50
140	20
141	8
149	180
150	15
152	30
153	112
154	7
155	20
157	345
158	15
165	25
166	45
167	99
168	6
169	40
170	280
171	43
177	400
178	30
179	5
180	10
181	13
183	90
184	7
193	85
194	40
195	35
196	50
205	10
207	8
209	20
211	10
212	10
221	45
223	20
235	5
237	95
238	10
243	6
248	10
249	10
252	50
253	10
265	105
266	10
267	5
278	7
279	8
290	30
291	85
292	10
295	12
305	5
308	10
309	25
319	65
320	7
331	6
337	12
351	25
403	25
404	75
405	165
406	20
445	7
451	10
465	65
466	10
547	10
578	3
