Mass Spectrum: Benzenepropanoic acid, 2-methylpropyl ester
Formula: C13H18O2
CAS: 28048-94-4
Molecular weight: 206
m/z	intensity
25	2
26	9
27	30
28	16
29	45
30	2
31	2
35	1
36	10
37	2
38	5
39	42
40	11
41	103
42	12
43	25
44	1
45	2
49	2
50	17
51	49
52	17
53	11
54	4
55	31
56	32
57	353
58	17
59	1
61	1
62	4
63	16
64	5
65	52
66	6
67	7
68	3
69	15
70	9
71	5
72	2
73	9
74	6
75	8
76	10
77	119
78	94
79	86
80	7
81	5
82	3
83	11
84	4
85	2
87	1
89	18
90	10
91	970
92	76
93	10
94	2
95	3
96	2
97	7
98	3
101	2
102	16
103	101
104	999
105	567
106	45
107	218
108	18
109	2
111	3
112	1
115	5
116	2
117	6
118	4
119	2
120	2
121	2
128	1
129	2
130	2
131	28
132	28
133	365
134	37
135	32
136	4
145	2
146	4
147	9
148	8
149	23
150	611
151	56
152	6
159	1
163	3
176	1
177	10
178	2
182	4
185	1
191	4
200	1
202	1
206	285
207	46
208	5
209	2
