Mass Spectrum: 2,2,2,2',2',2'-Hexachloroisopropyl-.beta.-phenylpropionate
Formula: C12H10Cl6O2
CAS: 28049-06-1
Molecular weight: 396
m/z	intensity
41	15
42	11
43	17
44	0
45	2
47	9
48	2
49	5
50	21
51	81
52	23
53	12
54	1
55	10
56	0
60	4
61	0
62	5
63	23
64	6
65	82
66	9
71	3
72	4
73	2
74	5
75	5
76	10
77	135
78	66
79	102
80	6
82	14
83	12
84	11
85	7
86	2
87	2
89	17
91	685
92	48
93	1
94	2
95	3
96	0
97	3
99	1
101	1
102	12
103	87
104	999
105	515
106	54
107	27
108	2
117	48
119	47
120	13
121	15
123	3
124	10
125	18
126	0
127	6
129	1
130	1
131	8
133	320
134	28
135	1
138	10
139	6
140	3
141	5
143	4
145	1
147	1
148	3
149	49
150	6
151	3
153	0
167	1
177	14
179	18
181	8
183	2
193	3
195	5
197	2
201	1
220	1
325	0
327	1
361	0
363	2
365	1
396	15
398	29
399	3
400	22
401	3
402	8
403	1
404	2
