Mass Spectrum: L-Glutamine, N2-(phenylacetyl)-
Formula: C13H16N2O4
CAS: 28047-15-6
Molecular weight: 264
m/z	intensity
27	26
28	74
39	85
41	95
44	63
55	55
56	90
57	53
63	58
65	212
82	69
84	510
85	79
89	85
90	127
91	999
92	372
101	47
102	202
110	74
118	744
119	74
127	106
136	58
155	297
156	31
219	35
220	127
221	36
246	106
247	63
248	10
264	2
265	3
266	1
