Mass Spectrum: Phenylpropargyl-.beta.-phenylpropionate
Formula: C18H16O2
CAS: 28049-00-5
Molecular weight: 264
m/z	intensity
41	56
42	18
43	52
44	5
45	15
49	3
50	92
51	253
52	89
53	163
54	37
55	59
56	4
57	6
60	1
61	6
62	40
63	146
64	24
65	218
66	17
67	11
68	2
69	9
70	2
71	1
72	0
73	4
74	33
75	49
76	40
77	402
78	171
79	307
80	19
81	3
82	3
83	11
84	2
85	2
86	11
87	21
88	41
89	138
91	999
92	61
93	6
94	1
95	1
97	1
98	7
99	2
100	1
101	8
102	56
103	218
104	525
105	713
106	71
107	881
108	58
109	4
110	1
111	2
113	46
114	600
115	761
116	79
117	13
118	2
119	1
120	2
121	2
122	2
126	0
127	4
128	13
129	21
130	3
131	74
132	37
133	131
134	16
135	1
139	1
141	15
142	106
143	35
144	6
145	15
146	2
147	4
149	256
150	106
151	12
152	2
153	1
155	7
156	6
157	7
158	2
160	404
161	40
162	5
163	1
165	5
166	0
167	1
172	0
173	36
174	4
175	0
176	1
177	2
178	4
179	1
180	2
184	1
186	2
187	1
189	7
190	7
191	39
192	7
193	1
202	32
203	76
204	248
205	107
206	15
207	2
215	1
216	0
217	12
218	20
219	11
220	2
221	2
222	10
223	2
229	0
232	2
235	9
236	4
237	0
245	0
246	1
247	1
263	3
264	21
265	4
266	0
