Mass Spectrum: Methylpropargyl-.beta.-phenylpropionate
Formula: C13H14O2
CAS: 28048-99-9
Molecular weight: 202
m/z	intensity
41	64
42	25
43	92
44	8
45	23
47	1
49	8
50	126
51	337
52	165
53	467
54	38
55	38
56	4
57	3
60	1
61	3
62	17
63	71
64	17
65	190
66	17
67	13
68	3
69	22
70	5
71	2
73	3
74	20
75	20
76	27
77	403
78	195
79	454
80	27
81	1
82	0
83	1
84	2
85	1
86	3
87	3
88	0
89	38
91	907
92	97
93	7
94	1
95	1
97	1
98	14
99	1
101	3
102	25
103	207
104	475
105	476
107	999
108	370
109	6
110	0
111	4
115	11
116	3
117	5
118	1
119	1
120	1
121	1
124	0
125	0
127	7
128	23
129	15
130	3
131	22
132	7
133	73
134	14
135	1
139	0
141	32
142	249
143	86
144	9
145	3
146	1
147	7
149	454
150	101
151	10
152	1
153	1
154	0
155	6
156	14
157	13
158	2
159	3
160	2
162	3
163	0
165	1
167	0
173	1
174	0
184	2
185	1
187	2
201	1
202	38
203	22
204	2
