Mass Spectrum: Bicyclo[3.3.2]decan-9-one
Formula: C10H16O
CAS: 28054-91-3
Molecular weight: 152
m/z	intensity
37	3
39	299
40	69
41	437
42	71
43	40
45	1
46	1
47	0
48	0
50	16
51	45
52	30
53	184
54	332
55	405
56	107
57	35
58	1
59	1
60	0
61	1
62	4
63	12
65	61
66	97
67	732
68	398
69	175
70	79
71	17
72	1
73	0
74	1
75	1
77	65
78	43
79	217
80	202
81	999
82	560
83	145
84	61
85	7
86	0
87	0
89	1
91	60
92	60
93	136
94	127
95	717
96	908
97	466
98	117
99	7
100	0
101	0
102	0
103	2
105	31
106	28
108	511
109	513
110	316
111	45
112	3
115	1
116	0
117	1
119	66
120	6
121	15
123	137
124	87
125	7
130	0
131	0
133	6
134	23
135	12
137	51
138	3
147	0
148	0
152	935
153	198
154	17
155	1
