Mass Spectrum: 24-Cholanoic acid, 3-hydroxy-12-oxo-, methyl ester
Formula: C25H40O4
CAS: 28050-47-7
Molecular weight: 404
m/z	intensity
41	609
43	762
44	64
45	40
49	6
51	15
53	197
55	999
57	231
59	239
60	4
61	4
65	59
67	490
68	21
69	324
70	46
71	50
73	157
74	97
77	181
79	570
81	864
82	28
83	271
84	14
85	55
87	51
88	10
91	326
93	427
94	26
95	424
96	57
97	89
98	11
99	46
103	27
105	317
107	439
108	27
109	430
110	56
111	48
113	6
115	89
116	35
117	72
119	180
121	559
122	25
123	268
124	68
125	30
127	9
128	23
129	34
131	121
133	166
135	258
136	13
137	112
138	22
141	49
143	75
145	154
147	248
149	240
150	22
151	64
153	8
154	85
155	34
156	11
157	76
159	119
161	132
163	141
164	15
165	26
169	21
170	4
171	69
173	83
175	90
177	45
179	5
181	9
183	22
185	52
187	68
189	75
191	70
193	5
195	25
197	22
199	42
201	43
203	66
204	4
205	9
206	9
211	26
213	96
214	13
215	42
216	4
217	19
218	5
219	4
221	4
223	4
225	19
227	36
229	172
231	558
232	86
239	13
241	19
243	36
244	8
245	32
246	4
247	57
248	25
249	432
250	71
251	10
253	111
254	25
255	9
256	4
257	32
258	5
260	4
261	14
262	32
263	26
265	6
269	13
271	74
272	14
273	5
275	51
276	24
277	16
278	4
281	21
287	4
289	114
290	31
295	27
297	4
299	23
309	28
311	11
313	30
314	9
317	8
329	9
331	102
332	28
339	27
355	26
368	8
371	43
373	48
386	95
387	29
389	4
402	24
404	762
405	226
406	36
