Mass Spectrum: Methyl phenyl sulfoxide, 4-acetamido-S-[(benzenesulfonyl)imino]-
Formula: C15H16N2O4S2
CAS: 28075-46-9
Molecular weight: 352
m/z	intensity
41	34
42	37
43	938
44	27
45	42
46	12
47	12
50	57
51	221
52	55
53	37
54	4
62	26
63	101
64	88
65	204
66	29
69	10
75	10
76	25
77	704
78	91
79	70
80	68
81	12
90	26
91	107
92	79
93	37
94	12
96	10
97	30
102	4
105	50
106	206
107	122
108	999
109	80
111	17
121	31
123	10
124	84
125	266
126	30
127	11
134	19
138	47
139	68
140	228
141	129
142	17
150	882
151	78
153	47
154	65
155	25
156	20
166	10
167	8
171	4
181	40
182	69
183	28
188	145
190	5
195	17
198	28
203	73
213	53
247	51
289	36
310	10
337	221
338	37
339	25
352	31
353	6
