Mass Spectrum: Methyl phenyl sulfide, 4-acetamido-S-[(p-toluenesulfonyl)imino]-
Formula: C16H18N2O3S2
CAS: 28075-40-3
Molecular weight: 350
m/z	intensity
41	110
42	81
43	639
44	59
45	135
46	17
47	22
48	26
49	8
50	61
51	101
52	56
53	52
54	21
55	43
56	48
57	20
58	51
59	27
60	53
61	29
62	72
63	153
64	113
65	416
66	42
67	37
68	6
69	49
70	48
71	26
72	11
73	69
74	22
75	21
76	14
77	108
78	46
79	46
80	107
81	23
82	15
83	25
84	14
85	12
86	16
87	11
88	24
89	72
90	67
91	999
92	111
93	49
94	33
95	20
96	44
97	37
98	23
99	9
100	2
102	73
103	10
104	19
105	28
106	63
107	114
108	126
109	17
110	10
111	55
112	8
116	8
120	6
121	14
122	20
123	39
124	642
125	117
126	40
127	2
133	11
134	4
135	104
136	24
137	9
138	269
139	606
140	91
141	46
142	2
147	2
150	38
151	12
152	28
153	189
154	42
155	232
156	26
157	12
164	7
165	13
166	19
167	41
168	7
171	151
172	15
173	5
178	88
179	18
180	65
181	371
182	52
183	31
184	2
185	14
188	12
193	4
195	258
196	31
197	17
198	9
201	106
202	18
203	9
213	4
214	2
217	4
229	5
267	9
271	2
289	4
318	18
332	5
335	44
336	8
337	2
350	18
351	3
