Mass Spectrum: S-p-Acetamidophenyl-S-[5-acetamido-2-pyridyl]-N-phenylsulfonylsulfenamide
Formula: C21H20N4O4S2
CAS: 28075-43-6
Molecular weight: 456
m/z	intensity
43	476
50	172
51	408
64	142
77	999
78	74
80	163
93	375
94	226
107	138
124	177
125	73
141	301
157	371
216	175
217	33
226	34
258	403
259	152
300	425
301	512
302	122
