Mass Spectrum: 1H-Azepin-1-amine, hexahydro-N-(1-methyl-2-propenyl)-
Formula: C10H20N2
CAS: 28075-23-2
Molecular weight: 168
m/z	intensity
41	390
42	290
43	100
44	90
45	190
55	210
56	80
59	350
68	50
69	190
70	60
71	20
81	20
82	20
83	30
84	30
113	999
114	100
166	20
168	50
169	10
