Mass Spectrum: 3-Hexen-1-yne, (E)-
Formula: C6H8
CAS: 2807-09-2
Molecular weight: 80
m/z	intensity
27	147
28	45
29	19
32	7
37	14
38	74
39	442
40	46
41	92
42	5
43	2
44	11
48	1
49	7
50	140
51	196
52	353
53	92
54	41
55	4
58	2
61	11
62	38
63	104
64	25
65	370
66	38
67	2
73	1
74	11
75	22
76	11
77	323
78	67
79	999
80	661
81	46
82	1
