Mass Spectrum: S-p-Acetamidophenyl-S-[5-acetamido-2-pyridyl]-N-p-tosyl sulfenamide
Formula: C22H22N4O4S2
CAS: 28075-44-7
Molecular weight: 470
m/z	intensity
41	45
42	48
43	352
44	20
45	44
48	61
50	51
51	76
52	39
53	54
60	17
62	51
63	126
64	164
65	246
66	40
69	19
77	96
78	22
79	49
80	106
81	8
82	12
89	124
90	38
91	999
92	93
93	52
96	10
97	20
99	9
106	99
107	380
108	271
110	16
123	8
124	185
125	95
126	23
139	22
149	52
155	346
156	26
157	37
166	32
167	57
168	11
171	659
172	51
173	24
181	9
183	20
184	19
185	27
188	9
198	9
199	8
215	25
216	175
217	71
240	103
241	8
242	63
243	20
257	28
258	371
259	172
260	43
261	8
300	384
301	454
302	111
303	32
304	63
305	8
