Mass Spectrum: Acethydrazide, 2-(3,4-dihydro-3-methyl-4-oxo-1-phthalazinyl)-
Formula: C11H12N4O2
CAS: 28081-62-1
Molecular weight: 232
m/z	intensity
36	0
37	10
38	23
39	87
40	58
41	18
42	51
43	201
44	70
46	2
47	2
50	189
51	175
52	75
53	14
54	2
55	8
56	6
57	6
58	6
59	11
60	3
61	12
62	42
63	99
64	21
65	19
66	4
67	2
68	5
69	4
70	0
71	2
72	4
73	17
74	117
75	230
76	322
77	127
78	15
79	2
81	1
83	1
84	1
85	4
86	11
87	21
88	21
89	80
90	43
91	54
92	6
97	2
98	9
99	10
101	240
102	999
103	219
104	81
105	31
106	2
107	0
111	0
112	2
114	9
115	32
116	100
117	69
118	61
119	7
127	5
128	60
129	123
130	266
131	62
132	25
133	4
143	25
144	106
145	323
146	433
147	43
148	3
153	0
154	6
155	127
156	16
157	5
158	3
159	24
160	10
161	2
171	69
172	115
173	900
174	280
175	26
176	2
185	2
187	145
188	39
189	5
190	1
198	0
199	38
200	361
201	459
202	55
203	5
214	0
215	1
217	23
218	4
219	1
230	1
232	351
233	45
234	4
