Mass Spectrum: Benzene, (2,2-dimethylbutyl)-
Formula: C12H18
CAS: 28080-86-6
Molecular weight: 162
m/z	intensity
12	3
13	2
14	5
15	39
16	1
26	18
27	191
28	38
29	207
30	6
37	4
38	15
39	196
40	24
41	200
42	37
43	999
44	46
45	2
49	2
50	25
51	78
52	23
53	36
54	7
55	182
56	18
57	6
58	4
61	2
62	12
63	47
64	20
65	155
66	13
67	6
68	3
69	12
70	593
71	977
72	53
73	3
74	6
75	8
76	8
77	47
78	27
79	17
80	2
85	2
86	2
87	3
88	3
89	29
90	20
91	777
92	562
93	43
94	2
98	1
101	2
102	11
103	24
104	14
105	129
106	12
113	2
114	3
115	58
116	23
117	67
118	19
119	3
125	1
126	2
127	6
128	12
129	8
130	3
131	15
132	18
133	90
134	10
141	1
145	3
146	2
147	26
148	3
160	2
162	60
163	8
