Mass Spectrum: 1-Buten-3-yne, 2-tert-butyl-
Formula: C8H12
CAS: 2809-84-9
Molecular weight: 108
m/z	intensity
15	160
26	170
27	280
29	180
39	903
41	476
42	40
50	174
51	282
52	104
53	170
54	170
55	40
56	60
57	382
62	30
63	70
64	25
65	180
66	60
67	80
68	14
69	14
74	20
75	15
76	15
77	712
78	20
91	472
92	62
93	999
94	83
105	12
106	10
107	55
108	226
109	24
