Mass Spectrum: 1-Ethynyl-1-cycloheptanol
Formula: C9H14O
CAS: 2809-78-1
Molecular weight: 138
m/z	intensity
24	1
25	9
26	72
27	332
28	72
29	198
30	3
31	31
32	1
37	2
38	26
39	509
40	70
41	542
42	195
43	229
44	26
45	10
50	40
51	130
52	44
53	451
54	99
55	420
56	50
57	36
58	4
61	0
62	8
63	37
64	17
65	72
66	111
67	328
68	999
69	209
70	100
71	12
74	0
75	1
76	2
77	101
78	56
79	168
80	38
81	947
82	206
83	94
84	36
85	1
89	1
91	136
92	59
93	28
94	28
95	472
96	209
97	70
98	2
103	6
104	1
105	77
106	3
107	7
109	208
110	167
111	9
112	8
115	2
119	7
120	14
121	2
123	170
124	10
137	38
138	2
