Mass Spectrum: 2,4-Octadiyne
Formula: C8H10
CAS: 2809-71-4
Molecular weight: 106
m/z	intensity
27	49
39	226
41	83
50	73
51	154
52	47
53	39
61	14
62	81
63	257
64	68
65	669
66	69
74	47
75	39
76	20
77	244
78	110
79	228
86	24
87	24
89	81
90	14
91	999
92	75
103	71
104	20
105	228
106	403
107	30
