Mass Spectrum: 2,4,6,8,9,10-Hexathiatricyclo[3.3.1.13,7]decane
Formula: C4H4S6
CAS: 281-40-3
Molecular weight: 244
m/z	intensity
32	6
33	6
34	6
39	12
41	20
42	6
43	41
44	63
45	999
46	82
47	82
48	2
55	20
56	2
57	20
58	127
59	41
60	27
61	16
63	14
67	10
69	14
71	14
72	2
73	41
74	2
76	163
77	122
78	82
79	143
80	4
81	12
83	2
85	2
88	6
89	20
90	78
91	49
92	14
93	4
95	12
102	2
103	755
104	31
105	61
107	4
109	41
111	20
116	49
119	2
121	4
122	582
123	235
124	82
125	31
126	2
134	8
135	69
136	4
137	6
147	12
155	4
166	2
167	43
179	214
180	65
181	41
182	4
199	4
244	592
245	41
246	139
247	4
248	16
