Mass Spectrum: 1,3,5-Triazaadamantane
Formula: C7H13N3
CAS: 281-31-2
Molecular weight: 139
m/z	intensity
27	264
28	143
29	242
30	91
31	13
32	2
36	7
37	8
38	14
39	58
40	42
41	335
42	999
43	357
44	328
45	57
46	18
50	11
51	17
52	15
53	30
54	34
55	171
56	128
57	185
58	91
59	34
60	61
61	17
62	4
63	7
64	10
65	14
66	15
67	68
68	500
69	181
70	357
71	97
72	12
73	34
74	11
75	2
76	8
77	17
78	5
79	20
80	50
81	80
82	128
83	102
84	115
85	94
86	8
87	14
91	17
92	5
93	25
94	21
95	71
96	55
97	150
98	27
99	18
107	11
109	38
110	32
111	128
112	44
137	11
138	22
139	471
140	42
141	2
