Mass Spectrum: 2-Oxaadamantane
Formula: C9H14O
CAS: 281-24-3
Molecular weight: 138
m/z	intensity
26	8
27	164
28	9
29	114
30	4
31	12
36	13
37	5
38	15
39	318
40	59
41	450
42	58
43	109
44	21
45	9
50	18
51	56
52	29
53	166
54	136
55	277
56	53
57	48
58	8
59	7
60	5
62	5
63	18
64	25
65	78
66	133
67	505
68	216
69	328
70	607
71	58
72	9
73	5
74	4
75	7
76	4
77	182
78	74
79	574
80	171
81	629
82	257
83	140
84	39
85	6
86	4
87	4
89	5
91	149
92	127
93	226
94	999
95	547
96	146
97	92
98	10
99	2
100	2
101	2
102	2
103	6
104	5
105	86
106	13
107	50
108	10
109	169
110	42
111	6
112	2
115	3
116	3
117	4
118	6
119	9
120	45
121	12
122	52
123	179
124	16
125	3
126	2
127	2
136	4
137	23
138	903
139	166
140	12
