Mass Spectrum: (R)-2-((4aS,8aR)-4a-Methyl-8-methylene-1,4,4a,5,6,7,8,8a-octahydronaphthalen-2-yl)propan-1-ol
Formula: C15H24O
CAS: 28102-68-3
Molecular weight: 220
m/z	intensity
26	1
27	35
28	3
29	55
30	3
31	107
38	3
39	136
40	27
41	361
42	18
43	91
44	3
45	5
50	9
51	59
52	31
53	218
54	21
55	330
56	17
57	29
58	8
59	8
62	4
63	29
64	15
65	167
66	47
67	347
68	29
69	123
70	10
71	16
72	5
73	4
74	2
75	5
76	8
77	411
78	100
79	579
80	84
81	468
82	35
83	50
84	6
87	3
88	1
89	16
90	4
91	866
92	123
93	700
95	645
96	59
97	32
98	6
101	3
102	14
103	80
104	47
105	999
106	142
107	563
108	226
109	156
110	17
115	140
116	56
117	259
118	90
119	571
120	125
121	235
122	37
125	11
127	23
128	83
129	88
130	41
131	298
132	81
133	899
134	129
135	34
139	5
141	25
142	16
143	30
144	18
145	220
146	62
147	350
148	56
149	12
150	4
153	5
154	2
155	4
156	3
157	11
158	7
159	118
160	43
161	811
162	161
163	22
164	16
165	26
166	16
167	4
171	4
172	3
173	87
174	34
177	6
178	7
179	19
180	4
182	1
187	194
188	34
189	818
190	133
191	16
192	11
202	52
203	6
205	931
206	147
207	13
208	1
220	102
221	17
222	2
