Mass Spectrum: 3,5-Pyrazolidinedione, 1,2-diphenyl-4-propylidene-
Formula: C18H16N2O2
CAS: 2810-68-6
Molecular weight: 292
m/z	intensity
39	100
43	100
51	180
64	80
77	999
91	100
93	400
105	130
119	180
143	120
144	150
172	160
183	100
200	270
292	510
