Mass Spectrum: Cyclobutanone, 2,3-dimethyl-, cis-
Formula: C6H10O
CAS: 28113-36-2
Molecular weight: 98
m/z	intensity
41	440
42	110
44	130
55	220
56	999
57	50
70	60
98	220
99	10
