Mass Spectrum: 1,2-Epoxynonane
Formula: C9H18O
CAS: 28114-20-7
Molecular weight: 142
m/z	intensity
26	90
27	870
28	780
29	950
30	60
31	390
32	40
38	20
39	760
40	160
41	990
42	840
43	970
44	500
45	320
47	10
50	20
51	50
52	20
53	170
54	480
55	910
56	920
57	840
58	910
59	210
65	30
66	110
67	560
68	820
69	800
70	570
71	999
72	260
73	30
77	20
79	30
80	30
81	650
82	700
83	380
84	340
85	380
86	60
87	20
88	10
93	10
94	10
95	340
96	160
97	230
98	260
99	240
100	40
109	20
110	160
111	30
112	40
113	70
114	80
124	80
126	10
127	20
141	10
142	30
