Mass Spectrum: 1,3-Bis(phenylthio)propane
Formula: C15H16S2
CAS: 28118-53-8
Molecular weight: 260
m/z	intensity
27	40
28	8
38	16
39	201
40	6
41	271
42	8
45	527
46	21
47	36
50	43
51	192
52	17
57	6
58	23
59	65
63	36
65	347
66	89
69	132
70	9
71	40
72	49
73	140
74	25
75	21
76	18
77	368
78	90
79	105
81	6
82	30
83	19
84	26
89	10
91	213
92	18
97	21
103	23
104	31
105	121
106	10
108	73
109	676
110	165
111	64
115	68
116	64
117	999
118	108
121	56
122	30
123	938
124	82
125	45
130	20
134	35
135	603
136	64
137	173
138	11
141	82
147	10
149	408
150	222
151	877
152	102
153	48
154	5
183	48
184	22
185	17
186	10
259	2
260	804
261	141
262	75
263	9
