Mass Spectrum: 1,4-Dioxane, 2-methyl-3-methylene-
Formula: C6H10O2
CAS: 28125-74-8
Molecular weight: 114
m/z	intensity
12	6
13	20
14	109
15	217
16	10
17	32
18	112
19	13
25	7
26	79
27	296
28	153
29	281
30	17
31	19
37	8
38	17
39	187
40	19
41	84
42	218
43	999
44	45
45	204
46	4
49	3
50	19
51	26
52	16
53	95
54	141
55	115
56	6
57	7
58	115
59	5
61	2
67	2
69	26
70	5
71	36
72	2
73	10
81	9
83	6
84	1
85	5
86	15
87	95
88	4
97	1
99	336
100	18
101	1
113	28
114	119
115	8
