Mass Spectrum: 2,5-Hexanedione, 3,4-dihydroxy-3,4-dimethyl-
Formula: C8H14O4
CAS: 28123-56-0
Molecular weight: 174
m/z	intensity
26	4
27	25
28	4
29	10
30	0
31	11
36	0
37	0
38	1
39	8
40	10
41	17
42	19
43	999
44	28
45	38
46	0
47	0
49	0
50	1
51	2
52	0
53	5
54	2
55	70
56	2
57	3
58	0
59	22
60	0
61	7
62	0
67	1
69	12
70	11
71	70
72	4
73	18
74	0
85	1
86	6
87	41
88	247
89	109
90	6
91	0
95	1
99	49
100	2
101	0
113	5
114	10
115	5
116	0
117	3
131	73
132	5
133	0
157	0
175	0
