Mass Spectrum: Benzoic acid, 4-methyl-, 2-hydroxyethyl ester
Formula: C10H12O3
CAS: 28129-15-9
Molecular weight: 180
m/z	intensity
39	126
41	40
50	27
51	46
63	75
64	26
65	292
77	24
89	67
90	49
91	573
92	54
93	57
105	11
107	8
118	22
119	999
120	88
136	60
137	398
138	36
149	8
150	3
162	1
163	1
180	6
