Mass Spectrum: 4-Nitropyridazine 1-oxide
Formula: C4H3N3O3
CAS: 28147-45-7
Molecular weight: 141
m/z	intensity
12	8
13	7
14	4
15	2
16	6
24	10
25	38
26	148
27	35
28	102
29	35
30	999
31	7
36	24
37	332
38	953
39	134
40	721
41	115
42	11
43	27
44	20
46	40
48	7
49	40
50	220
51	350
52	284
53	88
54	125
55	13
56	129
57	9
58	1
62	16
63	64
64	279
65	120
66	16
67	24
68	62
69	7
76	5
77	11
78	2
79	4
80	3
81	3
82	7
83	41
84	246
85	8
86	1
93	1
94	4
95	16
96	1
97	2
98	1
111	552
112	29
113	2
125	32
126	2
141	613
142	36
143	4
