Mass Spectrum: Cyclopentane, 1,2,4-trimethyl-
Formula: C8H16
CAS: 2815-58-9
Molecular weight: 112
m/z	intensity
23	0
24	0
25	0
26	3
27	65
28	6
29	66
30	1
37	1
38	3
39	109
40	14
41	263
42	177
43	66
44	0
45	0
46	0
50	2
51	10
52	5
53	38
54	19
55	641
56	127
57	43
58	1
62	0
63	2
64	0
65	6
66	3
67	18
68	29
69	186
70	999
71	68
72	2
77	7
78	1
79	6
80	1
81	7
82	1
83	37
84	35
85	3
91	2
93	0
95	7
96	1
97	65
98	4
110	0
111	2
112	52
113	4
114	0
