Mass Spectrum: Piperazine, 2,5-dimethyl-, trans-
Formula: C6H14N2
CAS: 2815-34-1
Molecular weight: 114
m/z	intensity
12	1
13	2
14	11
15	85
16	2
24	1
25	1
26	21
27	102
28	359
29	85
30	318
31	12
32	2
34	1
35	1
36	1
37	3
38	7
39	85
40	26
41	177
42	299
43	128
44	325
45	9
46	1
47	1
48	8
49	5
50	1
51	2
52	7
53	4
54	26
55	18
56	186
57	94
58	999
59	37
60	1
61	1
63	1
64	1
65	1
66	1
67	5
68	26
69	11
70	158
71	25
72	2
73	2
74	1
76	1
77	1
78	1
79	1
80	2
81	2
82	10
83	13
84	29
85	10
86	1
87	1
93	1
94	1
95	2
96	2
97	6
98	7
99	177
100	11
101	1
107	1
108	1
109	1
110	1
111	1
112	1
113	13
114	62
115	6
116	1
