Mass Spectrum: Phenol,2,6-dibromo-,acetate
Formula: C8H6Br2O2
CAS: 28165-72-2
Molecular weight: 292
m/z	intensity
36	3
37	29
38	34
39	5
42	39
43	999
44	24
45	4
47	1
49	3
50	10
51	4
52	0
53	18
56	2
60	6
61	31
62	78
63	232
64	21
65	2
66	0
69	2
71	8
72	2
73	5
74	30
75	20
77	3
79	14
81	6
82	0
85	3
86	1
90	3
91	23
92	29
93	6
101	2
105	2
108	2
112	1
116	8
117	39
118	11
119	36
123	1
127	5
128	1
130	2
133	2
134	1
136	1
140	0
141	10
142	24
143	53
144	29
145	37
146	1
154	7
156	5
170	37
171	14
172	25
173	11
174	2
175	2
197	7
199	5
200	3
215	2
221	28
223	48
224	1
225	18
233	0
235	3
236	1
249	5
250	489
251	32
252	922
253	69
254	469
255	36
268	0
292	90
293	5
294	156
295	16
296	67
297	8
