Mass Spectrum: 3,5-Dinitro-o-toluic acid
Formula: C8H6N2O6
CAS: 28169-46-2
Molecular weight: 226
m/z	intensity
14	1
15	3
16	3
17	1
25	1
26	9
27	44
28	9
29	3
30	271
31	10
32	3
36	1
37	23
38	55
39	293
40	37
41	16
42	9
43	146
44	69
45	71
46	19
47	3
48	2
49	11
50	138
51	352
52	187
53	137
54	18
55	64
56	6
57	5
58	17
60	7
61	57
62	242
63	554
64	132
65	121
66	126
67	74
68	34
69	44
70	5
71	7
72	2
73	17
74	86
75	107
76	111
77	234
78	263
79	118
80	67
81	22
82	18
83	9
84	8
85	28
86	82
87	111
88	118
89	370
90	213
91	81
92	76
93	42
94	62
95	24
96	12
97	4
98	4
99	5
100	2
101	5
102	9
103	32
104	45
105	305
106	285
107	161
108	52
109	8
110	3
111	2
115	8
116	116
117	55
118	999
119	219
120	54
121	81
122	46
123	13
124	8
125	1
129	1
130	1
131	24
132	32
133	297
134	254
135	137
136	275
137	33
138	8
139	1
140	1
141	1
144	5
145	51
146	9
147	4
148	50
149	20
150	49
151	31
152	27
153	3
160	1
161	5
162	91
163	153
164	43
165	63
166	15
167	23
168	2
175	1
177	10
178	9
179	98
180	30
181	17
182	5
191	141
192	36
193	19
194	3
195	1
196	9
197	7
198	2
207	13
208	9
209	907
210	96
211	13
212	2
225	1
226	309
227	32
228	5
