Mass Spectrum: Daphnetoxin
Formula: C27H30O8
CAS: 28164-88-7
Molecular weight: 482
m/z	intensity
105	999
161	727
189	364
217	327
230	282
241	295
255	341
265	277
270	318
271	273
283	818
284	327
295	259
301	189
311	364
317	545
324	295
329	264
342	227
359	59
360	141
377	91
405	136
406	114
415	95
417	82
433	182
451	250
464	50
482	227
