Mass Spectrum: N-Cbz-L-leucyl-L-alanine
Formula: C17H24N2O5
CAS: 2817-13-2
Molecular weight: 336
m/z	intensity
12	2
14	6
15	85
16	4
17	4
18	13
25	3
26	35
27	291
28	278
29	176
30	212
31	40
32	3
36	3
37	20
38	41
39	224
40	44
41	349
42	221
43	574
44	731
45	58
46	6
48	1
49	11
50	95
51	218
52	75
53	77
54	38
55	132
56	48
57	107
58	7
59	5
60	3
61	11
62	24
63	62
64	15
65	105
66	13
67	16
68	43
69	82
70	424
71	37
72	10
73	13
74	64
75	16
76	14
77	471
78	118
79	999
80	105
81	18
82	26
83	27
84	37
85	12
86	468
87	31
88	106
89	64
90	87
91	591
92	71
93	6
94	3
95	6
96	26
97	20
98	78
99	66
100	69
101	5
102	1
103	3
104	2
105	38
106	18
107	599
108	839
109	67
110	10
111	9
112	83
113	76
114	9
115	3
116	16
117	2
118	1
120	1
121	1
122	1
123	4
124	4
125	12
126	879
127	65
128	26
129	3
130	9
131	2
132	1
133	1
134	2
136	1
137	2
138	6
139	89
140	25
141	44
142	6
143	3
144	2
145	3
151	1
152	1
153	7
154	180
155	524
156	55
157	7
158	1
160	2
164	1
165	8
166	3
167	55
168	9
169	2
170	1
171	47
172	889
173	68
174	9
175	1
176	78
177	10
178	1
179	1
180	27
181	12
182	74
183	521
184	126
185	26
186	3
195	1
209	1
210	3
211	1
213	2
220	36
221	6
225	1
226	3
227	1
228	6
229	2
268	1
280	1
