Mass Spectrum: Fructofuranose, 1,2,3,4-tetrakis-O-(trimethylsilyl)-, bis(trimethylsilyl) phosphate, .beta.-D-
Formula: C24H61O9PSi6
CAS: 28176-76-3
Molecular weight: 692
m/z	intensity
31	3
41	4
43	15
44	8
45	61
46	5
47	7
53	7
54	3
55	7
58	8
59	30
60	3
61	7
66	5
67	7
68	6
69	8
72	21
73	999
74	118
75	89
76	4
81	7
83	4
85	7
87	4
88	5
89	9
99	8
101	21
102	8
103	60
104	7
105	4
109	5
111	7
113	20
114	4
115	9
116	5
117	18
118	4
119	7
121	3
125	7
127	7
128	4
129	116
130	19
131	28
132	4
133	68
134	9
135	10
137	4
140	19
141	14
142	17
143	47
144	7
145	22
146	4
147	333
148	59
149	41
150	4
153	4
155	10
156	9
157	28
158	7
159	7
161	5
163	3
169	17
170	3
171	4
173	4
175	5
177	15
178	4
179	3
180	3
181	4
182	3
183	7
185	4
187	3
189	9
190	3
191	32
192	7
193	10
194	3
195	10
196	9
199	5
201	4
202	3
203	7
204	11
205	13
206	4
207	21
208	5
209	5
210	4
211	73
212	14
213	8
215	108
216	25
217	97
218	21
219	12
220	4
221	9
222	4
223	3
225	21
226	4
227	63
228	16
229	24
230	220
231	75
232	24
233	6
240	4
241	5
242	4
243	26
244	5
245	9
246	4
247	12
248	3
253	4
255	6
256	4
257	52
258	16
259	9
269	20
270	14
271	77
272	20
273	17
274	4
275	16
276	4
283	10
284	5
285	23
286	7
287	7
288	3
291	4
292	3
293	7
294	7
295	4
297	4
298	9
299	308
300	78
301	51
302	10
303	7
304	3
305	18
306	7
307	4
313	14
314	25
315	543
316	133
317	84
318	15
319	12
327	3
328	23
329	8
330	5
331	10
332	4
333	3
341	7
343	26
344	7
345	33
346	11
347	15
348	4
349	3
356	13
357	11
358	3
359	6
360	4
361	20
362	7
369	16
370	7
371	7
372	3
373	14
374	7
375	4
381	3
383	5
385	4
386	3
387	92
388	30
389	32
390	10
391	6
409	4
411	2
422	2
423	3
424	1
425	2
427	1
429	2
433	2
443	2
445	3
447	1
451	2
455	3
456	1
457	3
458	1
459	4
460	1
461	2
462	1
471	2
472	4
473	4
474	3
475	1
497	3
498	2
499	7
500	3
501	11
502	5
503	4
504	2
512	3
513	3
514	2
515	1
517	1
533	2
534	1
586	2
587	15
588	15
589	212
590	112
591	65
592	22
593	8
594	3
602	2
603	1
604	1
677	24
678	14
679	9
680	4
