Mass Spectrum: Urea, N'-(4-chloro-3-methylphenyl)-N,N-dimethyl-
Formula: C10H13ClN2O
CAS: 28170-64-1
Molecular weight: 212
m/z	intensity
28	44
39	10
42	26
43	15
44	98
45	64
50	10
51	22
52	10
56	12
63	10
72	999
73	44
77	34
78	11
104	11
132	50
140	11
166	15
167	56
168	14
169	19
212	216
213	28
214	73
