Mass Spectrum: 2,4,6,7(1H,3H)-Pteridinetetrone, 5,8-dihydro-
Formula: C6H4N4O4
CAS: 2817-14-3
Molecular weight: 196
m/z	intensity
26	96
27	417
28	999
29	147
30	39
31	39
32	51
38	37
39	100
40	42
41	163
42	147
43	264
44	522
45	83
50	45
51	42
52	82
53	155
54	383
55	172
56	60
57	124
67	71
68	61
69	346
70	243
71	54
77	42
78	40
80	53
81	66
82	59
83	60
84	66
85	65
93	37
94	34
95	42
96	76
97	402
98	60
104	39
105	36
110	37
111	38
124	35
125	517
126	66
128	35
133	40
153	41
167	202
168	829
169	53
180	48
195	132
196	703
197	72
