Mass Spectrum: (+-)-N-Benzyl-alpha-methyl-N-nitrosobenzylamine
Formula: C15H16N2O
CAS: 28179-11-5
Molecular weight: 240
m/z	intensity
27	7
28	5
30	6
38	1
39	14
40	1
41	4
42	1
43	1
50	7
51	25
52	5
53	3
55	1
62	2
63	10
64	3
65	45
66	3
74	2
75	2
76	3
77	67
78	15
79	46
80	3
83	1
88	1
89	12
90	18
91	350
92	38
93	1
101	2
102	2
103	30
104	36
105	999
106	98
107	5
115	1
116	2
117	5
118	24
119	4
120	1
121	1
128	1
130	1
131	1
132	2
136	14
137	1
149	4
152	1
165	3
166	1
167	1
174	1
181	1
193	1
194	10
195	9
196	10
197	1
208	3
209	4
210	1
240	15
241	3
