Mass Spectrum: Aspidospermidin-21-ol, 17-methoxy-
Formula: C20H28N2O2
CAS: 28189-98-2
Molecular weight: 328
m/z	intensity
41	999
42	600
43	966
44	500
45	100
51	133
52	66
53	333
54	200
55	466
56	266
57	166
58	333
59	166
63	66
65	166
66	33
67	466
68	166
69	100
70	266
71	33
77	333
78	100
79	300
80	166
81	333
82	133
83	100
89	66
90	33
91	200
92	33
93	133
94	166
95	100
96	333
97	100
98	33
101	33
102	66
103	133
104	66
105	66
106	66
107	133
108	166
109	466
110	600
111	100
115	166
116	100
117	200
118	100
122	300
123	66
124	233
127	66
128	66
129	66
130	233
131	100
132	100
133	66
134	100
135	333
138	133
139	66
140	800
141	133
142	100
143	66
144	166
145	66
146	33
152	66
153	33
154	166
155	100
156	66
157	33
158	133
159	200
160	533
161	266
162	33
164	133
166	66
167	66
168	533
169	100
170	66
171	66
172	100
173	233
174	500
175	66
180	66
181	33
182	33
183	66
184	100
185	66
186	166
187	100
188	66
195	33
196	33
197	66
198	100
199	66
200	66
201	33
205	100
206	33
210	66
211	66
212	100
213	66
214	33
224	33
225	33
226	66
227	33
238	33
239	33
240	33
241	33
253	33
254	33
255	33
269	533
270	100
281	33
282	66
283	66
284	33
298	33
299	33
300	633
301	133
309	100
310	133
311	33
327	166
328	833
329	166
