Mass Spectrum: Quinazoline-4-carboxylic acid, 1,2,3,4-tetrahydro-4-hydroxy-2-oxo-3-phenyl-
Formula: C15H12N2O4
CAS: 28181-28-4
Molecular weight: 284
m/z	intensity
36	7
37	68
38	106
39	133
40	37
41	37
42	7
43	14
44	17
45	34
50	73
51	69
52	58
53	1
59	9
60	13
61	31
62	52
63	160
64	239
65	88
66	1
76	37
77	61
78	5
79	1
89	6
90	150
91	282
92	235
93	25
94	0
97	2
98	0
103	1
104	6
105	3
106	0
118	18
119	999
120	114
121	8
122	0
125	1
126	0
129	1
130	0
131	1
132	0
133	1
134	0
135	0
146	185
147	350
148	31
149	10
150	1
151	0
152	1
153	1
154	0
167	1
168	0
170	0
171	5
172	0
181	1
182	0
184	0
208	0
209	0
210	0
211	0
212	1
213	0
237	2
238	1
239	0
240	0
241	0
255	0
266	148
267	25
268	3
269	0
283	1
284	0
