Mass Spectrum: trans-2,3-Epoxyoctane
Formula: C8H16O
CAS: 28180-70-3
Molecular weight: 128
m/z	intensity
25	10
26	250
27	950
28	850
29	940
30	90
31	160
32	80
37	10
38	70
39	840
40	260
41	910
42	870
43	880
44	730
45	910
46	100
47	40
50	50
51	90
52	60
53	300
54	430
55	910
56	999
57	860
58	680
59	310
60	10
63	40
65	40
66	40
67	510
68	350
69	820
70	260
71	850
72	660
73	80
77	40
78	20
79	60
80	20
81	300
82	860
83	810
84	680
85	870
86	180
87	20
95	100
96	20
97	20
98	10
99	360
100	40
110	90
111	20
112	60
113	280
114	20
127	10
128	90
129	10
