Mass Spectrum: trans-3,4-Epoxyoctane
Formula: C8H16O
CAS: 28180-72-5
Molecular weight: 128
m/z	intensity
26	40
27	470
28	400
29	660
30	40
31	200
32	30
38	20
39	340
40	80
41	920
42	840
43	610
44	250
45	120
50	10
51	20
52	20
53	90
54	50
55	620
56	70
57	999
58	300
59	660
60	30
63	10
65	20
66	10
67	100
68	120
69	260
70	160
71	150
72	60
73	20
77	10
79	20
81	180
82	10
83	20
84	10
85	350
86	130
87	20
91	20
95	20
99	420
100	30
110	40
112	20
113	20
128	50
