Mass Spectrum: 2-Propanesulfonic acid, methyl ester
Formula: C4H10O3S
CAS: 2819-09-2
Molecular weight: 138
m/z	intensity
15	125
26	39
27	265
28	26
29	84
30	39
31	52
32	19
33	75
37	28
38	37
39	144
40	47
41	417
42	168
43	999
44	62
45	28
46	13
47	15
48	56
49	28
50	37
58	30
59	153
60	22
64	37
65	49
66	28
73	24
74	22
79	75
80	47
81	22
95	28
96	15
97	161
98	15
99	28
122	15
123	21
