Mass Spectrum: Benzene, 1-nitro-2-(1,1,2,2-tetrafluoroethoxy)-
Formula: C8H5F4NO3
CAS: 28202-31-5
Molecular weight: 239
m/z	intensity
18	2
26	28
27	37
28	37
29	10
30	319
31	31
32	11
36	4
37	38
38	141
39	187
40	10
42	1
44	4
45	3
46	9
47	3
49	8
50	183
51	464
52	117
53	96
54	10
55	0
57	8
61	26
62	86
63	484
64	474
65	202
66	54
67	21
68	9
69	18
73	9
74	71
75	291
76	134
77	36
78	236
79	22
80	83
81	191
82	31
83	70
84	3
91	8
92	544
93	58
94	218
95	999
96	69
100	9
101	317
102	9
106	14
107	0
108	10
109	303
110	20
111	31
113	6
114	60
115	18
122	669
123	50
124	3
125	1
133	12
139	15
143	34
145	37
169	3
173	3
181	74
182	3
209	133
210	10
223	27
239	789
240	66
241	6
