Mass Spectrum: 1,2,4,6-Tetra-O-acetyl-3-O-formyl-D-glucopyranose
Formula: C15H20O11
CAS: 28219-86-5
Molecular weight: 376
m/z	intensity
69	999
70	78
71	65
73	819
80	95
81	189
84	32
85	109
86	919
98	739
99	199
101	54
102	59
103	299
104	9
109	309
110	32
112	49
113	55
114	129
115	929
116	119
117	15
125	59
126	119
127	119
128	22
131	45
139	36
140	249
141	109
143	62
144	36
145	219
154	46
155	34
156	18
157	589
158	189
168	19
169	229
170	18
187	69
197	40
199	68
200	249
201	119
214	14
215	13
229	16
231	9
242	69
271	4
303	10
317	27
