Mass Spectrum: (E)-3,7-Dimethylocta-2,6-dien-1-yl stearate
Formula: C28H52O2
CAS: 28219-83-2
Molecular weight: 420
m/z	intensity
26	1
27	20
28	8
29	49
30	1
37	1
38	2
39	40
40	13
41	387
42	43
43	304
44	11
45	2
50	3
51	8
52	5
53	52
54	16
55	170
56	43
57	233
58	14
59	5
60	10
61	2
62	1
63	3
64	1
65	15
66	7
67	156
68	498
69	999
70	87
71	123
72	9
73	14
74	2
77	24
78	7
79	47
80	456
81	184
82	29
83	60
84	29
85	82
86	6
87	4
89	1
91	31
92	193
93	612
94	133
95	74
96	14
97	41
98	15
99	12
100	5
101	4
102	1
103	2
104	2
105	12
106	6
107	92
108	38
109	27
110	8
111	25
112	6
113	6
114	4
115	4
116	1
117	2
119	10
120	4
121	383
122	40
123	63
124	11
125	10
126	2
127	4
128	3
129	3
130	1
131	1
133	2
134	3
135	12
136	280
137	57
138	8
139	15
140	2
141	3
142	1
143	2
147	1
148	1
149	2
151	3
152	2
153	5
154	36
155	5
156	1
157	1
161	1
163	1
165	1
166	1
167	2
168	1
171	1
175	1
178	1
179	1
180	1
181	1
185	1
193	1
194	1
195	2
196	1
199	1
203	1
205	1
213	1
217	1
221	1
222	1
235	1
241	1
247	1
256	1
264	1
265	2
267	19
268	5
269	1
277	1
278	1
284	2
285	2
304	1
305	1
306	1
330	1
331	1
348	2
349	1
351	4
352	2
377	1
420	1
