Mass Spectrum: 3,7-dimethyloct-6-en-1-yl stearate
Formula: C28H54O2
CAS: 28228-30-0
Molecular weight: 422
m/z	intensity
27	21
29	70
39	38
40	11
41	446
42	81
43	454
44	20
53	36
54	29
55	444
56	107
57	434
58	25
59	8
60	17
65	10
66	6
67	237
68	155
69	986
70	118
71	163
72	11
73	34
79	24
80	133
81	999
82	579
83	362
84	44
85	67
86	6
87	8
94	70
95	635
96	168
97	89
98	21
99	15
100	3
101	7
109	223
110	68
111	36
112	10
113	7
123	708
124	73
125	14
127	5
137	19
138	852
139	105
140	11
141	5
264	2
267	37
268	7
285	5
339	1
