Mass Spectrum: 2,3,4,6-Tetra-O-acetyl-1-deoxy-1-fluoro-.beta.-D-glucopyranose
Formula: C14H19FO9
CAS: 2823-46-3
Molecular weight: 350
m/z	intensity
41	65
42	169
43	999
44	289
45	59
55	59
56	61
57	65
59	74
60	65
61	129
69	209
70	179
71	129
73	209
75	74
81	129
84	61
85	249
86	209
87	169
90	40
97	229
98	269
99	149
100	40
101	40
102	189
103	999
104	82
109	169
112	129
113	129
115	879
116	749
117	459
126	669
127	249
128	169
129	109
130	39
133	119
140	65
141	32
142	28
143	74
144	90
145	829
146	269
147	15
151	15
155	63
157	229
158	169
159	69
168	999
169	169
170	28
171	40
175	57
177	65
185	19
199	11
200	7
205	189
210	209
227	11
228	40
229	19
230	61
231	7
245	7
246	11
247	7
248	139
249	21
266	3
272	3
277	20
278	3
288	7
291	24
292	3
293	3
307	3
308	3
331	19
351	3
