Mass Spectrum: Propionaldehyde, diethylhydrazone
Formula: C7H16N2
CAS: 28236-90-0
Molecular weight: 128
m/z	intensity
28	222
29	289
30	445
31	13
39	51
40	20
41	89
42	91
43	102
44	180
45	8
54	20
55	16
56	95
57	31
58	334
59	24
69	9
70	44
71	20
72	40
73	9
83	7
84	7
85	76
86	19
87	14
97	6
99	55
100	7
113	999
114	85
115	5
127	31
128	355
129	38
