Mass Spectrum: 2-Butanone, diethylhydrazone
Formula: C8H18N2
CAS: 28236-94-4
Molecular weight: 142
m/z	intensity
29	257
30	50
39	36
40	11
41	110
42	999
43	43
44	160
53	11
54	32
55	71
56	48
57	189
58	11
68	12
70	139
71	14
72	82
73	29
85	7
86	10
99	15
113	36
127	538
128	43
141	12
142	200
143	19
