Mass Spectrum: 1,2-Bis(dichlorophosphino)ethane
Formula: C2H4Cl4P2
CAS: 28240-69-9
Molecular weight: 230
m/z	intensity
26	136
27	263
28	83
29	6
30	4
31	104
33	10
35	79
36	47
37	25
38	14
39	2
40	25
41	5
42	2
43	3
44	41
45	48
47	20
48	3
49	2
55	20
56	72
57	238
58	53
59	43
60	2
62	25
63	7
66	237
67	55
68	77
69	20
70	2
75	2
78	3
79	15
80	14
81	7
82	6
85	3
86	12
87	10
89	2
90	1
91	12
93	96
94	68
95	37
96	23
97	20
98	2
99	8
101	999
102	6
103	647
104	6
105	117
113	2
115	9
116	2
117	5
118	1
121	1
123	6
125	2
128	6
129	143
130	9
131	98
132	5
133	17
134	1
141	7
143	5
145	7
147	7
148	45
149	2
150	31
152	6
159	5
160	10
161	2
162	7
163	2
164	3
165	2
167	54
169	46
171	16
173	2
176	23
178	16
180	3
186	3
188	5
190	2
195	39
196	2
197	34
198	2
199	13
202	234
203	4
204	303
205	6
206	142
207	2
208	35
209	0
210	2
230	50
231	1
232	67
233	1
234	33
235	0
236	5
