Mass Spectrum: L-Tryptophan, N-acetyl-, methyl ester
Formula: C14H16N2O3
CAS: 2824-57-9
Molecular weight: 260
m/z	intensity
14	52
15	32
16	12
17	19
18	35
26	17
27	78
29	119
30	20
31	52
33	23
38	17
39	92
40	35
41	226
42	82
43	457
44	300
45	20
50	32
51	55
52	29
53	28
54	23
55	154
56	69
57	171
58	22
59	32
60	15
61	14
62	11
63	26
64	14
65	19
67	28
68	17
69	69
70	63
71	77
72	12
74	66
75	34
76	39
77	129
78	23
79	12
81	22
82	12
83	39
84	34
85	19
87	32
88	46
89	17
91	14
95	12
97	19
98	15
99	14
101	20
102	54
103	75
104	25
112	14
113	14
115	23
116	19
117	19
128	32
129	57
130	999
131	111
132	22
141	12
142	12
143	28
145	14
149	86
150	11
155	14
156	17
157	25
158	37
159	40
167	28
170	55
171	11
199	14
200	31
201	226
202	49
260	43
