Mass Spectrum: 2-Butenoic acid, 4-oxo-4-[[4-[(2-thiazolylamino)sulfonyl]phenyl]amino]-
Formula: C13H11N3O5S2
CAS: 282542-52-3
Molecular weight: 353
m/z	intensity
33	7
34	2
35	0
36	5
37	11
38	50
39	221
40	47
41	70
42	26
43	12
44	44
45	246
46	24
47	16
48	17
49	3
50	18
51	24
52	58
53	52
54	89
55	236
56	11
57	27
58	75
59	16
60	10
61	8
62	24
63	77
64	113
65	621
66	87
67	9
68	4
69	11
70	15
71	25
72	13
73	19
74	9
75	9
76	9
77	7
78	11
79	9
80	47
81	10
82	12
83	4
84	3
85	5
86	2
87	2
88	2
89	7
90	27
92	999
93	201
94	13
96	24
97	7
98	18
99	57
100	57
101	8
102	4
103	2
104	6
105	6
106	9
108	618
109	54
110	5
111	3
112	5
113	1
114	1
115	2
116	10
117	5
118	10
119	17
120	3
121	2
122	3
123	12
124	15
125	13
126	2
127	1
128	1
129	3
130	1
131	7
132	6
133	4
134	2
135	2
136	12
137	2
138	3
140	149
141	15
142	7
143	1
144	8
145	3
146	4
147	8
148	2
149	4
150	2
151	1
152	1
153	5
156	683
157	68
158	33
159	3
160	1
161	2
162	0
163	6
164	12
165	3
166	1
172	39
173	14
174	2
175	3
176	0
177	0
186	1
188	9
190	109
191	620
192	76
193	30
194	3
198	1
205	0
207	1
216	0
217	0
220	1
223	0
236	6
237	1
238	0
255	107
256	14
257	10
258	1
270	15
271	19
272	3
273	2
281	0
335	8
336	1
337	0
