Mass Spectrum: 4-Thiazolidinone, 2-[(2,5-dichlorophenyl)imino]-3-[(tetrahydro-2-furanyl)methyl]-
Formula: C14H14Cl2N2O2S
CAS: 282538-98-1
Molecular weight: 344
m/z	intensity
35	2
36	0
37	5
38	12
39	90
40	24
41	281
42	204
43	509
44	22
45	61
46	81
47	18
48	4
49	6
50	14
51	10
52	6
53	26
54	16
55	52
56	168
57	14
58	11
59	8
60	6
61	10
62	12
63	17
64	8
65	3
66	2
67	6
68	5
69	16
70	21
71	306
72	49
73	25
74	99
75	44
76	11
77	2
78	2
79	4
80	2
81	4
82	7
84	999
85	72
86	10
87	8
88	12
89	3
90	3
92	1
93	1
94	2
95	1
96	2
97	8
98	9
99	9
100	18
101	4
102	14
103	1
104	0
105	1
106	2
107	5
109	69
110	20
111	27
112	8
113	3
114	2
115	4
116	2
117	2
118	0
119	1
121	0
122	1
123	3
124	33
125	5
126	12
127	3
128	1
129	2
130	1
131	1
133	31
134	6
135	14
136	23
137	6
138	9
139	2
140	1
141	2
142	9
143	2
145	70
146	10
147	43
148	6
149	8
150	4
151	7
152	9
153	4
154	5
155	3
156	6
157	2
158	2
159	11
160	5
161	9
162	4
163	4
164	4
165	5
166	2
167	5
168	10
169	15
170	10
171	26
172	36
173	18
174	23
175	4
176	6
177	2
178	1
179	1
180	1
181	1
182	8
183	4
184	8
185	11
186	41
187	49
188	28
189	30
190	9
191	7
192	3
193	2
194	1
195	2
196	9
197	14
199	49
200	10
201	31
203	35
204	8
205	20
206	4
207	3
208	2
209	6
210	3
211	3
212	2
213	13
214	2
215	8
216	3
217	2
218	2
220	1
221	1
222	1
223	2
225	40
226	10
227	16
228	4
229	2
231	0
237	6
238	25
239	31
240	12
241	14
242	2
243	1
244	4
245	2
246	3
247	2
248	1
251	1
253	2
255	0
257	2
258	1
261	790
263	534
264	65
265	112
266	12
267	6
273	7
275	5
276	1
277	1
279	5
280	1
281	5
282	1
283	1
285	4
287	3
289	1
299	1
301	10
302	1
303	7
305	1
309	2
311	1
315	1
317	1
345	1
