Mass Spectrum: N1-(tert-Butyl)-2-(2-propoxybenzylidene)hydrazine-1-carbothioamide
Formula: C15H23N3OS
CAS: 282542-41-0
Molecular weight: 293
m/z	intensity
33	28
34	10
36	1
37	8
38	26
39	194
40	118
41	699
42	134
43	442
44	70
45	22
46	5
47	7
48	8
50	31
51	73
52	38
53	37
54	19
55	103
56	133
57	999
58	276
59	36
60	66
61	10
62	18
63	49
64	52
65	108
66	38
67	15
68	23
69	16
70	16
71	15
72	61
73	30
74	24
75	52
76	365
77	620
78	97
79	74
80	53
81	16
82	8
83	30
84	11
85	10
86	5
87	10
88	12
89	57
90	119
91	478
92	85
93	73
94	60
95	23
96	3
97	5
98	10
99	65
100	22
101	18
102	136
103	20
104	38
105	58
107	259
108	44
109	28
110	5
111	2
112	2
113	2
115	47
116	29
117	94
118	95
119	585
120	317
121	86
122	63
123	6
125	2
126	2
127	3
128	7
129	14
131	534
132	220
133	230
134	88
135	147
136	67
137	29
138	8
139	4
143	3
144	11
145	54
146	156
147	920
148	121
149	39
150	12
151	4
152	12
153	1
156	5
158	17
159	7
160	18
161	96
162	446
163	64
164	67
165	10
166	2
176	14
177	65
178	57
179	14
180	5
191	1
193	12
194	42
195	68
196	10
197	2
203	5
204	21
205	2
206	4
207	2
218	1
219	4
220	7
221	18
222	2
223	3
232	3
235	6
236	38
237	19
238	4
248	1
251	109
252	15
253	4
281	3
291	12
293	560
294	87
295	33
296	4
