Mass Spectrum: 4-[[5-(4-bromo-2-chlorophenyl)-2-furyl]methylidene]-2-phenyl-4,5-dihydro-1,3-oxazol-5-one
Formula: C20H11BrClNO3
CAS: 282539-13-3
Molecular weight: 427
m/z	intensity
33	4
34	1
35	0
36	2
37	0
38	2
39	4
40	14
41	1
42	0
43	2
44	7
45	0
50	14
51	41
52	3
53	1
54	0
55	1
56	0
57	1
58	0
59	0
60	0
61	1
62	4
63	6
64	0
67	0
68	0
69	1
70	0
71	0
73	2
74	6
75	12
77	269
78	16
79	2
80	2
81	1
82	1
83	0
84	1
85	1
86	2
87	3
88	1
89	0
90	0
93	0
95	0
96	0
97	1
98	1
99	2
100	1
101	1
105	999
106	69
107	4
109	2
110	4
111	2
112	2
113	7
114	1
121	0
122	0
123	1
124	2
125	5
126	2
127	0
128	0
130	0
135	0
136	0
137	1
138	1
139	0
140	0
141	0
147	1
148	4
149	2
150	2
151	8
152	14
153	2
154	0
155	0
160	2
161	1
162	1
163	0
164	0
172	0
173	1
175	0
177	0
180	3
181	0
185	1
187	21
188	3
189	9
190	1
191	3
192	0
193	0
204	0
205	0
213	1
214	3
216	1
217	2
218	0
219	3
220	0
221	0
227	1
229	2
231	1
233	1
240	0
269	0
271	0
294	6
295	1
296	7
297	1
298	1
348	0
349	0
424	0
427	34
429	51
430	9
431	10
432	2
