Mass Spectrum: Cyclohexanol, 2-(aminomethyl)-, cis-
Formula: C7H15NO
CAS: 28250-37-5
Molecular weight: 129
m/z	intensity
15	8
17	36
27	50
29	46
30	999
31	39
39	49
41	111
42	51
43	50
44	142
45	11
46	9
48	122
51	9
52	7
53	28
54	159
55	79
56	63
57	60
58	25
59	6
65	10
66	12
67	326
68	82
69	31
70	140
71	16
72	21
73	16
77	18
78	7
79	62
80	27
81	58
82	173
83	37
84	24
86	27
91	11
92	6
93	15
96	14
97	17
98	12
99	5
100	30
101	10
110	20
111	43
112	60
113	8
128	4
129	21
130	7
