Mass Spectrum: Thiazol-2-amine, 4-(4-chlorophenyl)-N-(2-furfuryl)-
Formula: C14H11ClN2OS
CAS: 282539-35-9
Molecular weight: 290
m/z	intensity
34	0
35	0
36	1
37	5
38	13
39	31
40	4
41	5
42	3
43	1
45	42
46	2
47	2
48	0
50	25
51	39
52	24
53	218
54	12
55	4
56	0
57	1
58	1
59	1
60	1
61	3
62	7
63	13
64	3
65	1
66	3
67	3
68	2
69	10
70	5
71	3
72	2
73	7
74	11
75	30
76	9
77	5
78	3
81	999
82	64
83	5
84	2
85	4
86	4
87	8
88	5
89	29
90	3
91	0
93	5
94	4
95	2
96	16
97	3
98	3
99	4
100	4
101	8
102	17
103	8
104	1
105	1
106	2
107	1
108	2
109	1
111	16
112	3
113	6
114	6
115	2
116	0
117	0
118	0
119	1
120	7
121	3
122	1
123	11
124	3
125	6
126	2
127	2
128	1
129	3
130	0
131	1
132	9
133	19
134	11
135	2
136	14
137	11
138	14
139	4
140	3
141	1
142	1
143	0
144	0
146	16
147	10
148	2
149	1
150	1
151	0
152	0
153	0
154	1
155	9
156	1
157	4
158	2
159	6
160	1
161	0
163	2
165	3
166	1
168	65
169	9
170	24
171	3
172	1
174	64
175	8
176	3
177	0
180	2
181	1
182	5
183	1
184	2
185	0
186	0
187	0
188	0
191	0
192	0
193	1
194	1
195	3
196	3
197	1
198	1
199	0
200	0
209	13
210	12
211	6
212	4
213	0
214	0
215	0
220	0
221	1
222	1
223	3
224	1
225	1
226	1
227	0
229	2
230	0
231	1
232	0
233	0
234	0
235	1
236	0
237	0
245	2
246	2
247	3
248	1
249	1
250	0
255	3
256	0
257	2
258	0
259	1
261	40
262	9
263	15
264	3
265	0
273	2
274	0
275	1
290	238
291	46
292	91
293	15
294	4
295	0
