Mass Spectrum: 3-(4-Chlorophenyl)-1-(3,5-dichloro-2-methoxyphenyl)prop-2-en-1-one
Formula: C16H11Cl3O2
CAS: 282542-54-5
Molecular weight: 340
m/z	intensity
33	10
35	11
36	31
37	7
38	17
39	16
40	31
41	2
42	2
43	16
44	16
45	2
47	1
48	1
49	7
50	52
51	67
52	13
53	15
54	1
55	5
57	2
59	1
60	4
61	18
62	40
63	33
64	4
65	3
66	0
67	0
68	3
69	5
71	3
72	7
73	28
74	66
75	178
76	50
77	22
78	2
79	1
80	1
81	21
82	14
83	4
84	9
85	17
86	14
87	24
88	22
89	17
90	6
91	18
92	3
93	4
94	2
95	3
97	94
98	21
99	65
101	349
102	286
103	34
105	18
106	10
107	6
109	63
110	26
111	83
112	21
113	36
114	14
115	35
116	25
117	41
118	7
120	4
121	16
122	8
123	20
125	999
126	108
127	286
128	29
129	3
131	36
132	47
133	25
134	22
135	22
136	56
137	229
138	78
139	115
140	23
141	17
142	2
143	8
144	18
145	78
146	36
147	41
149	28
150	18
151	30
152	51
153	47
154	55
155	9
156	9
157	4
158	5
159	19
160	44
161	21
162	35
163	37
165	335
166	33
167	95
168	11
169	2
170	3
171	4
172	8
173	29
174	18
175	27
176	26
177	10
178	6
179	4
180	0
181	0
183	2
184	2
185	3
186	13
187	36
188	135
189	183
190	90
191	109
192	24
193	22
194	3
195	2
196	1
197	7
198	9
199	49
200	13
201	26
202	31
203	104
204	28
205	68
206	9
207	12
208	2
210	10
211	4
212	13
213	5
215	113
216	15
217	63
218	12
219	12
220	4
223	2
224	0
225	2
226	5
227	9
228	16
229	12
230	9
231	6
233	17
234	8
235	11
236	4
237	1
238	1
239	3
240	3
241	5
242	8
243	2
244	3
245	1
246	14
247	4
248	8
249	2
250	0
251	2
252	15
253	5
254	7
255	5
256	2
257	2
259	4
260	3
261	8
262	29
263	9
264	18
265	4
266	3
267	1
269	11
270	7
271	9
272	3
273	7
274	3
275	11
276	6
277	9
278	3
279	3
280	3
281	4
282	3
283	4
284	1
285	2
286	3
287	11
288	10
289	16
290	24
291	9
292	12
293	3
294	1
295	0
296	1
297	5
298	4
299	3
300	2
301	1
302	1
303	2
305	128
306	27
307	75
308	15
309	20
310	5
311	9
312	7
313	4
314	6
315	1
316	1
321	3
322	10
323	17
324	16
325	53
326	18
327	38
328	8
329	13
330	2
331	0
337	0
339	33
340	80
341	38
342	71
343	22
344	23
345	5
346	2
