Mass Spectrum: 4-(4-Bromo-3-chloroanilino)-4-oxobut-2-enoic acid
Formula: C10H7BrClNO3
CAS: 282542-09-0
Molecular weight: 303
m/z	intensity
33	29
34	5
35	7
36	21
37	39
38	54
39	42
40	79
41	35
42	13
43	45
44	84
45	229
46	18
47	6
49	23
50	31
51	20
52	40
53	89
54	152
55	97
56	5
57	6
58	3
59	4
60	13
61	58
62	131
63	211
64	46
65	16
66	4
67	2
68	2
69	6
71	156
72	41
73	60
74	56
75	63
76	11
77	4
78	3
79	13
80	21
81	34
82	39
83	5
84	13
85	8
86	12
87	17
88	37
89	44
90	123
91	35
92	4
93	3
94	1
95	5
97	61
99	999
100	62
101	30
102	6
103	25
104	10
105	3
106	1
107	1
108	3
109	16
110	26
111	10
112	10
113	2
114	6
115	7
116	12
117	15
119	17
120	4
121	4
122	3
124	83
125	91
126	104
127	42
128	30
129	10
130	3
131	2
133	0
135	3
136	5
137	1
138	4
139	3
140	2
141	6
143	20
144	6
145	7
149	4
150	20
151	19
152	11
153	17
154	3
155	6
161	3
162	0
163	3
168	8
169	16
170	11
171	17
172	6
177	42
179	81
181	26
182	1
189	12
190	1
191	15
192	0
193	3
205	797
206	138
207	781
208	88
209	163
210	11
215	10
216	4
217	11
218	3
219	2
227	1
229	6
230	3
231	11
232	6
233	8
234	2
235	3
240	3
241	8
242	5
243	9
244	2
245	1
250	2
252	3
256	3
257	17
258	30
259	23
260	35
261	9
262	7
270	2
271	1
285	42
287	57
288	7
289	11
290	1
300	2
301	4
303	144
305	181
306	21
307	40
308	3
