Mass Spectrum: 2-Hexadecenoic acid, methyl ester, (E)-
Formula: C17H32O2
CAS: 2825-81-2
Molecular weight: 268
m/z	intensity
40	75
41	999
42	186
43	937
44	61
45	34
46	11
49	1
51	11
52	12
53	174
54	137
55	763
56	182
57	388
58	28
59	244
60	8
61	3
62	10
63	4
65	33
66	39
67	295
68	252
69	342
70	130
71	190
72	26
73	32
74	299
75	65
76	5
77	39
78	10
79	93
80	47
81	415
82	189
83	261
84	239
85	132
86	16
87	772
88	53
89	2
91	26
92	20
93	39
94	39
95	224
96	266
97	235
98	189
99	50
100	173
101	125
102	15
103	2
104	4
105	14
106	4
107	22
108	28
109	115
110	121
111	118
112	50
113	354
114	72
115	43
116	18
117	8
118	11
119	21
120	12
121	31
122	19
123	93
124	65
125	56
126	24
127	98
128	36
129	26
130	15
131	11
132	10
133	13
134	15
135	16
136	14
137	50
138	56
139	29
140	17
141	90
142	19
143	27
144	10
145	4
147	11
148	22
149	12
150	12
151	39
152	74
153	26
154	11
155	27
156	3
157	18
161	12
163	5
164	7
165	19
166	22
167	10
168	2
169	13
171	42
172	12
175	8
179	6
180	8
183	12
185	21
191	3
192	21
193	9
194	59
195	15
198	6
207	20
208	2
209	1
236	31
237	44
