Mass Spectrum: Pyrimidin-4-ol, 6-methyl-5-propyl-2-propylthio-
Formula: C11H18N2OS
CAS: 282731-09-3
Molecular weight: 226
m/z	intensity
35	1
37	5
38	20
39	198
40	52
41	349
42	340
43	170
44	44
45	51
46	21
47	22
50	15
51	62
52	74
53	263
54	123
55	383
56	44
57	13
58	21
59	37
60	67
61	6
62	2
63	9
64	6
65	42
66	58
67	150
68	73
69	91
70	31
71	12
72	19
73	10
74	11
75	2
76	2
77	60
78	22
79	103
80	59
81	80
82	37
83	52
84	33
85	14
86	45
87	5
92	4
93	24
94	30
96	999
97	73
98	24
99	4
100	4
101	11
102	7
104	1
105	3
106	19
107	21
108	18
109	16
110	72
111	9
112	7
113	8
114	8
121	14
122	9
123	62
124	44
125	9
126	58
127	20
128	7
135	4
136	5
137	33
138	48
139	9
140	6
142	9
143	1
149	2
151	38
152	57
153	28
155	720
156	277
157	56
158	12
163	4
164	10
165	30
166	31
167	24
169	260
170	66
171	15
179	107
180	13
181	14
182	10
183	73
184	705
185	89
186	37
193	225
194	33
195	6
197	975
198	382
199	84
200	19
205	2
209	12
211	377
212	48
213	19
226	339
227	48
228	18
