Mass Spectrum: Imidazole, 2-(4-chlorobenzylthio)-1-(2,3-dichlorophenyl)-
Formula: C16H11Cl3N2S
CAS: 282730-12-5
Molecular weight: 368
m/z	intensity
33	2
34	3
35	7
36	32
37	7
38	21
39	50
40	46
41	8
42	3
43	12
44	27
45	83
46	3
47	5
48	0
49	7
50	19
51	23
52	9
53	1
54	0
55	3
56	2
57	22
58	5
59	4
60	5
61	9
62	23
63	77
64	17
65	13
66	1
67	1
68	1
69	12
70	10
71	29
72	220
73	38
74	37
75	43
76	9
77	9
78	3
79	3
81	3
82	2
83	5
84	16
85	10
86	7
87	10
88	12
89	149
90	48
91	8
92	1
93	3
94	2
95	4
96	3
97	12
98	6
99	51
100	7
101	18
102	4
103	2
104	5
105	2
106	1
107	4
108	5
109	37
110	10
111	17
112	5
113	2
114	7
115	4
116	1
117	1
118	0
119	4
120	3
121	7
122	4
123	14
125	999
126	86
127	301
128	24
129	4
130	1
131	1
132	1
133	8
134	2
135	2
136	4
137	3
138	2
139	1
140	1
141	1
142	3
145	32
146	7
147	21
148	5
149	7
150	10
151	4
152	3
153	1
154	4
155	10
156	10
157	6
158	2
159	2
160	1
161	1
162	0
163	1
164	1
165	0
166	0
167	1
168	2
169	0
170	1
171	2
172	10
173	8
174	8
175	1
176	2
177	2
178	1
179	0
180	2
181	1
182	2
184	10
185	8
186	5
187	6
188	1
189	2
190	5
191	13
192	3
193	4
194	1
199	3
200	0
201	0
204	0
207	6
208	64
209	12
210	25
211	4
212	2
213	1
214	0
221	8
222	2
223	4
224	0
225	3
227	1
233	1
234	0
235	1
236	0
242	1
243	3
244	0
245	2
261	2
262	0
263	2
264	0
265	1
269	12
270	2
271	11
272	1
273	4
274	0
297	1
298	2
299	1
300	5
301	0
302	3
304	0
331	2
333	249
334	51
335	163
336	32
337	35
338	6
339	2
367	1
368	10
369	2
370	9
371	2
372	3
