Mass Spectrum: 5-(Benzylthio)-1-(2,6-dimethylphenyl)-1H-1,2,3,4-tetrazole
Formula: C16H16N4S
CAS: 282719-15-7
Molecular weight: 296
m/z	intensity
33	3
34	3
36	0
37	3
38	15
39	135
40	40
41	38
42	6
43	6
44	21
45	302
46	23
47	13
48	1
49	1
50	25
51	82
52	32
53	27
54	3
55	4
56	1
57	2
58	3
59	6
60	2
61	3
62	13
63	54
64	27
65	189
66	16
67	4
69	7
70	2
71	3
72	1
73	2
74	4
75	8
76	18
77	153
78	52
79	75
80	5
81	1
82	1
83	1
84	1
85	1
86	1
87	2
89	49
91	999
92	83
93	14
94	1
95	1
97	4
98	0
99	0
100	0
101	4
102	13
103	43
104	29
105	92
106	16
107	2
108	2
109	1
110	1
114	0
115	2
116	26
117	23
118	62
119	20
120	6
121	27
122	43
123	317
124	29
125	19
126	3
127	1
128	7
129	5
130	71
131	40
132	12
133	6
134	5
135	3
136	3
137	2
138	1
142	1
143	4
144	8
145	68
146	145
147	18
148	6
149	2
150	6
151	3
152	0
153	0
157	0
159	15
160	2
161	0
162	4
163	14
164	2
165	1
173	0
175	1
176	2
177	5
178	1
179	1
180	0
181	0
187	0
190	0
191	1
193	0
194	5
195	14
196	2
205	2
206	1
207	1
208	1
209	0
218	0
219	1
220	3
221	3
222	11
223	1
233	1
234	2
235	27
236	5
237	0
251	0
253	4
254	0
263	0
267	4
268	23
269	4
270	1
294	0
296	130
297	24
298	7
299	1
