Mass Spectrum: 2-(Allylthio)-3-(2-furylmethyl)-3,4-dihydroquinazolin-4-one
Formula: C16H14N2O2S
CAS: 282729-71-9
Molecular weight: 298
m/z	intensity
33	3
34	4
36	2
37	11
38	31
39	193
40	77
41	165
42	10
43	12
44	58
45	54
46	6
47	6
50	44
51	65
52	54
53	345
54	18
55	32
56	4
57	5
58	6
59	7
60	2
61	2
62	13
63	47
64	32
65	17
66	9
67	5
69	28
70	5
71	21
72	10
73	9
74	11
75	27
76	40
77	34
78	17
79	12
81	999
82	56
83	12
84	7
85	15
86	8
87	3
89	27
90	121
91	76
92	35
93	7
94	9
95	4
96	3
97	19
98	3
99	4
100	2
101	4
102	40
103	16
104	9
105	5
106	5
107	20
108	8
109	3
110	2
111	5
112	4
113	6
114	5
115	14
116	17
117	22
118	8
119	36
120	173
121	34
122	7
126	1
127	1
128	5
129	15
130	27
131	4
132	6
133	10
134	110
135	12
136	7
138	6
140	6
141	4
142	5
143	4
144	14
145	62
146	13
147	9
148	2
149	3
150	1
152	1
155	1
156	1
158	60
159	9
160	32
161	23
162	378
163	39
164	19
167	2
168	3
169	5
170	10
171	3
172	2
173	2
174	4
175	3
176	2
177	0
178	19
179	94
180	10
181	4
183	4
184	15
185	11
186	5
187	0
191	5
192	1
195	3
196	2
197	21
198	109
199	18
200	6
201	2
202	5
203	40
204	14
205	3
213	2
214	2
215	28
216	8
217	84
218	12
219	4
223	0
224	0
225	8
226	22
227	7
228	3
229	14
230	4
231	0
237	6
238	2
239	6
241	2
242	4
243	1
251	5
252	0
255	4
257	111
258	18
259	7
265	13
266	2
268	0
269	36
270	9
271	3
283	7
284	1
298	161
299	29
300	10
301	1
