Mass Spectrum: 2-Oxo-2-phenylethyl 3-methyl-4-nitrobenzoate
Formula: C16H13NO5
CAS: 282730-78-3
Molecular weight: 299
m/z	intensity
33	0
34	0
36	0
37	1
38	8
39	36
40	11
41	5
42	3
43	6
44	11
45	1
46	0
50	33
51	105
52	14
53	4
54	0
55	1
56	0
57	1
58	0
60	0
61	2
62	14
63	59
64	33
65	24
66	2
67	0
68	0
69	1
70	0
71	0
73	2
74	8
75	12
77	393
78	37
79	4
80	0
81	0
82	0
83	0
84	0
85	0
86	2
87	3
89	115
90	58
91	39
92	6
93	0
94	0
95	0
96	0
97	0
98	0
99	0
100	0
101	0
102	1
105	999
106	140
107	10
108	0
109	0
111	1
112	0
113	0
114	0
115	0
117	16
118	58
119	12
120	2
121	1
122	0
123	0
124	0
125	0
126	0
127	0
128	0
129	0
131	0
132	0
133	1
134	18
135	2
136	1
137	0
138	0
139	3
140	0
141	1
142	0
145	0
146	2
147	3
148	6
149	1
150	0
151	1
152	4
153	1
154	0
160	0
161	0
162	0
164	49
165	5
166	0
167	0
168	0
171	0
173	0
175	0
176	0
177	0
178	0
179	0
180	0
181	0
182	0
189	0
191	0
193	0
194	0
195	0
196	0
205	0
207	0
209	9
210	1
211	0
216	0
217	0
221	0
222	0
223	0
236	0
237	0
239	23
240	3
241	0
242	0
251	0
252	0
253	0
254	0
255	0
267	0
269	44
270	7
271	1
