Mass Spectrum: 3-Oxoallobetulane
Formula: C30H48O2
CAS: 28282-22-6
Molecular weight: 440
m/z	intensity
39	106
41	940
43	999
44	74
45	27
50	8
51	21
53	184
55	968
56	98
57	185
58	13
59	42
61	15
63	9
65	72
67	567
68	141
69	733
70	108
71	104
72	11
73	9
75	7
77	172
79	422
81	845
82	216
83	212
84	25
85	56
86	10
87	7
88	11
89	11
91	318
92	67
93	398
94	132
95	584
96	132
97	148
98	30
99	24
100	13
101	9
102	9
103	25
105	305
106	84
107	382
108	142
109	375
110	61
111	54
112	9
113	12
114	9
115	29
116	17
117	61
119	275
120	121
121	325
122	121
123	198
124	58
125	212
126	41
127	140
128	37
129	35
130	21
131	83
132	50
133	209
134	157
135	265
136	103
137	144
138	49
139	71
140	14
141	15
142	17
143	30
144	20
145	94
146	45
147	154
148	112
149	279
150	117
151	80
152	44
153	20
154	7
155	13
156	23
157	36
159	92
160	32
161	106
162	57
163	159
164	49
165	56
166	8
167	5
168	5
169	9
170	9
171	24
173	69
174	32
175	111
176	59
177	228
178	48
179	23
180	10
183	8
185	40
186	18
187	132
188	44
189	130
190	93
191	237
192	68
193	40
194	6
197	6
199	20
200	25
201	61
202	60
203	182
204	127
205	313
206	85
207	57
208	11
209	7
211	6
213	27
214	15
215	53
216	21
217	61
218	95
219	78
220	133
221	56
222	11
227	19
228	9
229	26
230	11
231	28
232	36
233	35
234	17
235	16
241	8
243	12
244	8
245	51
246	12
247	13
255	7
257	24
258	7
259	12
260	5
269	8
271	18
272	11
273	15
283	7
285	6
287	5
311	8
313	31
314	9
315	16
316	5
323	31
324	8
341	23
342	32
343	9
350	5
351	32
352	38
353	18
354	48
355	67
356	17
365	5
366	6
367	12
369	445
370	126
371	30
372	5
383	28
384	8
385	5
391	17
392	6
395	7
397	20
398	5
407	15
408	12
409	68
410	46
411	94
412	37
413	7
422	54
423	18
425	56
426	16
438	15
440	800
441	254
442	40
