Mass Spectrum: Proximpham
Formula: C10H12N2O2
CAS: 2828-42-4
Molecular weight: 192
m/z	intensity
41	61
42	6
44	29
45	36
46	1
48	1
49	22
50	116
51	127
52	77
53	3
54	3
56	0
59	10
60	39
61	44
62	63
63	211
64	466
65	94
66	4
67	1
68	0
72	0
73	7
74	23
75	15
76	14
77	15
78	0
80	0
86	1
87	5
88	6
90	42
91	599
92	42
99	0
119	999
120	83
121	3
