Mass Spectrum: Boroxin, tricyclohexyl-
Formula: C18H33B3O3
CAS: 28289-86-3
Molecular weight: 330
m/z	intensity
26	0
27	11
28	2
29	17
36	0
39	12
41	62
42	11
43	24
44	0
50	0
51	0
54	50
55	76
56	21
57	7
63	1
64	0
65	3
66	8
67	242
68	31
69	74
70	9
71	11
73	0
76	0
77	2
78	2
79	18
80	40
81	261
82	999
83	96
84	5
85	1
88	0
89	1
90	0
91	4
92	1
93	6
94	2
96	9
97	15
98	1
103	0
104	0
105	2
106	4
107	12
108	21
109	33
110	9
111	11
112	0
117	0
118	1
119	2
120	3
121	4
125	0
129	0
130	0
131	1
132	1
133	3
134	5
135	10
136	11
137	18
138	4
139	4
143	0
144	0
145	1
146	1
147	2
148	4
149	5
150	2
151	2
152	0
153	0
159	0
160	1
161	2
162	4
163	5
164	4
165	4
173	1
174	1
175	2
176	0
178	0
179	1
187	0
188	1
189	2
190	2
191	2
192	0
193	0
194	0
200	0
201	1
202	1
203	1
207	0
215	0
216	1
217	3
218	3
219	2
220	2
221	2
229	0
230	2
231	4
232	2
233	1
243	1
244	3
245	6
246	9
247	10
248	4
249	5
250	0
257	0
258	2
259	5
260	4
261	4
262	4
263	1
271	1
272	5
273	9
274	3
275	1
284	0
285	0
288	10
289	2
299	1
300	11
301	26
302	32
303	6
304	1
313	1
314	4
315	5
316	1
327	2
328	17
329	64
330	95
331	17
332	2
