Mass Spectrum: Cyclobutanone, 2,3,3-trimethyl-
Formula: C7H12O
CAS: 28290-01-9
Molecular weight: 112
m/z	intensity
39	430
40	10
41	770
42	450
43	10
55	999
56	760
57	40
70	890
71	50
84	50
97	20
112	40
