Mass Spectrum: Rolicyprine
Formula: C14H16N2O2
CAS: 2829-19-8
Molecular weight: 244
m/z	intensity
41	233
51	19
55	30
56	170
77	29
78	29
84	999
85	68
91	31
104	31
105	30
106	21
115	50
116	182
117	49
129	110
132	299
133	261
139	98
140	20
153	18
160	30
161	20
227	19
244	10
