Mass Spectrum: Butanedioic acid, 2,3-dimethyl-, dimethyl ester
Formula: C8H14O4
CAS: 28306-68-5
Molecular weight: 174
m/z	intensity
26	21
27	149
28	88
29	208
30	12
31	69
33	8
37	3
38	6
39	95
40	15
41	198
42	43
43	329
44	32
45	166
46	9
47	7
50	4
51	8
52	3
53	32
54	20
55	274
56	204
57	183
58	27
59	999
60	152
61	29
67	3
68	5
69	57
70	14
71	20
72	21
73	72
74	41
75	29
81	5
82	44
83	145
84	13
85	49
86	10
87	180
88	838
89	49
90	9
91	3
99	83
100	24
101	135
102	55
103	10
104	16
112	4
113	23
114	313
115	378
116	40
117	12
127	19
128	18
129	46
130	9
131	8
142	131
143	506
144	40
145	6
149	3
156	8
157	25
158	2
159	4
175	2
