Mass Spectrum: Formic acid, dodecyl ester
Formula: C13H26O2
CAS: 28303-42-6
Molecular weight: 214
m/z	intensity
18	2
19	3
26	12
27	130
28	102
29	257
30	14
31	109
38	3
39	125
40	40
41	675
42	222
43	617
44	29
45	17
47	18
51	4
52	3
53	58
54	132
55	857
56	629
57	485
58	24
59	8
65	11
66	23
67	192
68	323
69	942
70	721
71	225
72	13
73	7
77	7
78	2
79	9
80	7
81	145
82	629
83	999
84	520
85	139
86	8
87	10
91	2
93	3
94	4
95	37
96	253
97	754
98	321
99	41
100	4
101	4
102	15
108	2
109	16
110	171
111	644
112	250
113	31
114	4
115	2
122	2
123	6
124	60
125	276
126	106
127	14
128	2
137	4
138	33
139	105
140	345
141	38
142	2
153	4
166	9
168	255
169	50
170	4
196	2
