Mass Spectrum: N1-(tert-Butyl)-2-(2-[2-[(tert-butylamino)carbothioyl]hydrazono]ethylidene)hydrazine-1-carbothioamide
Formula: C12H24N6S2
CAS: 283155-59-9
Molecular weight: 316
m/z	intensity
33	14
34	7
35	0
36	3
37	2
39	77
40	71
41	381
42	99
43	146
44	32
45	20
46	6
47	5
48	7
49	1
50	3
51	4
52	5
53	10
54	14
55	72
57	999
58	209
59	38
60	58
61	15
62	13
63	2
64	4
65	1
66	2
67	7
68	15
69	31
70	44
71	16
72	32
73	22
74	33
75	57
76	34
77	88
78	5
79	5
80	0
81	4
83	41
84	49
85	38
86	23
87	10
88	9
89	16
90	20
91	6
92	2
93	1
94	1
95	3
96	3
97	11
98	9
99	23
100	35
101	58
102	238
103	95
104	16
105	8
106	2
107	6
108	2
109	3
110	5
111	6
112	10
113	5
114	15
115	64
116	49
117	13
118	4
119	1
120	1
121	1
122	2
123	1
124	2
125	1
126	2
127	8
128	40
129	129
130	20
131	62
132	61
133	67
134	9
135	4
136	2
137	1
138	1
139	1
140	5
141	5
142	7
143	5
144	15
145	11
146	5
147	5
148	3
149	9
150	1
151	1
152	2
153	2
154	2
155	2
156	7
158	237
159	452
160	51
161	22
162	2
163	0
166	1
167	1
168	1
169	3
170	2
171	13
172	4
173	2
174	0
177	0
183	5
184	21
185	171
186	22
187	10
188	5
189	0
190	0
194	1
198	0
199	3
200	7
201	2
202	0
203	4
204	0
205	0
218	3
219	1
228	1
241	1
242	3
243	12
244	4
245	1
258	1
259	0
265	1
282	1
283	0
284	0
314	2
316	25
317	4
318	2
