Mass Spectrum: Carbamic acid, N,N-dimethyl-, (2-methylthio-6-phenyl-4-pyrimidyl) ester
Formula: C14H15N3O2S
CAS: 283170-85-4
Molecular weight: 289
m/z	intensity
34	0
35	0
36	0
37	1
38	3
39	13
40	4
41	7
42	52
43	15
44	15
45	15
46	22
47	10
48	1
50	15
51	32
52	7
53	1
54	0
56	29
57	2
58	4
59	4
60	0
61	3
62	6
63	15
64	4
65	4
66	0
67	1
68	4
69	12
70	8
72	999
73	43
74	14
75	15
76	21
77	44
78	4
79	0
81	0
82	0
83	5
84	0
86	8
87	3
88	5
89	25
90	5
91	4
93	8
94	0
95	0
96	0
97	0
98	1
99	1
100	3
101	13
102	20
103	24
104	8
105	3
106	0
107	0
108	0
109	0
110	0
111	0
112	0
114	3
115	6
116	31
117	5
118	5
119	0
120	0
121	1
122	0
123	0
125	0
127	4
128	28
129	18
130	5
131	2
132	0
134	4
135	1
136	0
137	0
139	0
140	0
141	0
142	2
143	1
144	3
145	6
146	4
147	1
148	0
149	0
150	0
151	0
153	1
154	0
155	0
156	0
157	1
158	2
159	0
160	0
161	0
162	0
163	0
166	0
169	0
171	12
172	11
173	6
174	1
175	0
176	0
177	0
184	0
185	2
186	13
187	3
188	1
189	6
190	2
191	0
192	0
197	0
199	5
200	3
201	2
202	1
203	1
204	2
205	0
206	0
213	16
214	2
217	114
218	36
219	34
220	5
221	1
228	0
229	0
231	3
232	2
233	0
234	0
242	28
243	5
244	12
245	5
246	1
247	0
256	12
257	2
258	0
260	0
272	2
274	3
275	0
276	0
289	72
290	14
291	4
292	0
