Mass Spectrum: N1-Tetrahydrofuran-2-ylmethyl-2-(4-chlorobenzylidene)hydrazine-1-carbothioamide
Formula: C13H16ClN3OS
CAS: 283155-62-4
Molecular weight: 297
m/z	intensity
33	18
34	9
35	4
36	14
37	9
38	21
39	108
40	88
41	297
42	158
43	999
44	89
45	33
46	10
47	15
48	4
49	6
50	61
51	49
52	15
53	34
54	28
55	178
56	156
57	112
58	27
59	45
60	123
61	23
62	28
63	53
64	12
65	30
66	10
67	67
68	24
69	27
71	427
72	101
73	38
74	54
75	181
76	394
77	114
78	27
79	8
80	8
81	22
82	32
83	134
84	691
85	583
86	71
87	21
88	20
89	126
90	77
91	25
92	45
93	30
94	6
95	9
96	9
97	17
98	52
99	58
100	65
101	65
102	280
103	29
104	18
105	10
106	4
107	4
108	3
109	8
111	238
112	56
113	102
114	42
115	24
116	129
117	47
118	34
119	47
120	7
121	5
122	3
123	9
124	30
125	38
126	32
127	58
128	57
129	35
130	15
131	10
132	11
133	4
134	3
135	5
137	106
138	350
139	137
140	635
141	100
142	185
143	21
144	40
145	6
146	3
149	9
150	2
152	26
153	119
154	116
155	66
156	50
157	24
158	194
159	237
160	37
161	13
162	4
163	2
165	2
167	1
170	5
171	2
172	3
173	0
177	2
178	3
179	4
180	11
182	13
183	1
184	3
185	1
186	6
194	2
196	46
197	130
198	30
199	46
200	4
201	2
208	3
209	0
211	19
212	107
213	119
214	270
215	68
216	85
217	10
218	4
224	2
225	3
226	9
227	2
228	2
238	8
239	3
240	3
254	2
262	4
264	32
265	6
266	9
267	0
268	2
293	1
294	0
295	7
297	337
298	57
299	116
300	19
301	6
