Mass Spectrum: Benzamide, 5-chloro-N-(3-fluorophenyl)-2-dimethylaminocarbonyloxy-
Formula: C16H14ClFN2O3
CAS: 283155-31-7
Molecular weight: 336
m/z	intensity
35	0
36	0
37	2
38	5
39	7
40	2
41	3
42	38
43	10
44	11
45	1
46	0
47	0
49	1
50	6
51	5
52	3
53	7
54	0
56	32
57	20
58	2
59	0
60	0
61	3
62	14
63	62
64	7
65	2
66	1
67	0
68	1
69	2
70	2
72	999
73	47
74	10
75	24
76	3
77	2
78	1
79	0
80	0
81	5
82	7
83	36
84	5
85	1
86	1
87	1
88	1
89	2
90	2
91	3
92	1
93	0
94	1
95	14
96	2
97	3
98	18
99	14
100	7
101	4
102	0
103	0
106	0
107	0
108	1
109	5
110	12
111	20
112	4
113	1
114	0
115	0
118	0
119	0
120	1
121	0
122	0
123	1
124	1
126	40
127	10
128	13
129	3
130	0
131	0
132	0
133	0
134	0
135	0
136	0
137	1
138	1
139	1
140	0
141	0
144	0
145	1
146	2
147	0
150	0
152	1
154	19
155	20
156	8
157	9
158	2
159	0
163	0
164	0
165	1
166	0
167	0
168	0
169	1
170	0
171	1
172	7
173	2
174	0
180	1
181	1
182	4
183	2
184	4
185	4
186	4
187	0
190	0
191	1
192	0
193	0
195	0
200	4
201	4
202	0
208	0
209	0
210	0
211	1
212	1
213	2
214	0
216	0
218	1
219	2
220	1
221	3
222	0
223	1
226	178
227	22
228	57
229	16
230	2
231	0
235	0
236	0
237	0
244	0
247	142
248	25
249	48
250	7
251	0
264	1
265	0
266	0
290	0
292	2
293	0
294	0
336	15
337	3
338	5
339	0
