Mass Spectrum: 2-(Pentafluoropropanamido)pyridine
Formula: C8H5F5N2O
CAS: 283172-18-9
Molecular weight: 240
m/z	intensity
39	71
50	48
51	107
52	48
64	48
65	60
69	101
78	999
79	71
119	119
121	655
122	60
240	762
241	118
