Mass Spectrum: N1-(2-Furylmethyl)-2,6-dimethylpiperidine-1-carbothioamide
Formula: C13H20N2OS
CAS: 283170-62-7
Molecular weight: 252
m/z	intensity
33	3
34	4
36	1
37	6
38	16
39	115
40	53
41	241
42	213
43	79
44	137
45	32
46	4
47	5
50	19
51	43
52	49
53	286
54	61
55	387
56	84
57	35
58	109
59	28
60	65
61	5
62	3
63	1
64	4
65	8
66	10
67	34
68	40
69	120
70	184
71	27
72	29
73	11
74	5
75	1
76	6
77	8
78	10
79	13
81	733
82	82
83	41
84	40
85	22
86	35
87	10
88	4
89	1
91	11
92	1
93	6
94	20
95	60
96	302
97	79
98	152
99	14
100	13
101	10
102	2
105	3
106	7
107	4
108	5
109	5
110	18
112	999
113	117
114	69
115	21
116	2
117	0
119	0
120	1
121	7
122	5
123	19
124	19
125	3
126	3
127	16
128	4
129	8
130	2
133	0
135	1
136	4
137	7
138	17
139	38
140	6
141	3
142	3
144	11
145	1
147	1
149	3
150	1
151	3
152	1
153	4
154	5
155	14
156	27
157	6
158	0
163	1
164	0
165	2
167	8
168	1
169	3
170	0
171	48
172	4
173	2
177	4
178	1
179	1
181	11
182	3
183	2
191	2
195	28
196	9
197	3
207	1
209	7
210	2
219	14
220	3
221	0
223	85
224	12
225	5
235	0
236	0
237	3
238	1
250	5
252	594
253	88
254	31
255	4
