Mass Spectrum: Phosphorocyanidothioic difluoride
Formula: CF2NPS
CAS: 28314-61-6
Molecular weight: 127
m/z	intensity
12	20
14	12
26	110
31	66
32	136
33	10
43	8
50	108
63	33
69	999
82	17
101	187
127	601
129	30
