Mass Spectrum: N1-(2-Furylmethyl)-2-(3-pyridylmethylidene)hydrazine-1-carbothioamide
Formula: C12H12N4OS
CAS: 283155-60-2
Molecular weight: 260
m/z	intensity
33	16
34	8
36	5
37	17
38	59
39	147
40	74
41	121
42	29
43	47
44	40
45	41
46	6
47	4
48	4
50	94
51	223
52	118
53	381
54	31
55	46
56	8
57	14
58	11
59	26
60	106
61	17
62	20
63	74
64	56
65	37
66	39
67	39
68	50
69	207
70	16
71	15
72	11
73	8
74	4
75	11
76	24
77	45
78	178
79	82
81	836
82	46
83	18
84	16
85	27
86	3
87	4
89	1
90	3
91	23
92	29
93	35
94	96
95	371
96	940
97	68
98	10
99	16
100	13
101	9
102	3
103	11
104	38
105	73
107	999
108	64
109	6
110	7
112	96
113	42
114	7
115	4
117	2
120	73
121	274
122	37
123	17
124	5
125	12
126	64
127	33
128	14
129	3
130	2
131	1
132	2
133	0
135	6
136	4
137	31
138	15
139	7
140	1
141	0
143	1
147	2
149	9
150	2
152	5
154	406
155	278
156	48
157	14
158	2
159	0
161	0
163	17
164	5
165	5
171	3
177	1
178	3
179	0
180	0
182	0
184	2
185	2
200	1
226	1
227	5
228	1
257	2
258	8
260	596
261	89
262	31
263	5
