Mass Spectrum: Imidazo[1,2-a]pyridine, 2-(3,5-dichloro-2-methoxyphenyl)-
Formula: C14H10Cl2N2O
CAS: 283171-85-7
Molecular weight: 292
m/z	intensity
35	7
36	2
37	34
38	62
39	77
40	22
41	11
42	2
43	7
44	0
45	2
47	7
48	2
49	17
50	82
51	233
52	102
53	28
54	3
57	2
60	11
61	39
62	85
63	113
64	79
65	25
66	15
67	23
68	3
69	3
71	4
72	21
73	56
74	105
75	86
76	52
78	999
79	224
80	32
81	6
82	9
83	17
84	27
85	45
86	77
87	94
88	40
90	60
91	29
92	8
93	28
94	321
95	38
96	56
97	69
98	43
99	68
100	65
101	21
102	15
103	10
104	19
105	71
107	214
108	78
109	61
110	22
111	54
112	23
114	76
116	7
117	5
118	42
119	426
120	43
121	41
122	25
123	60
124	38
125	41
126	22
127	11
128	17
129	15
130	5
131	22
132	9
133	12
134	14
135	18
136	29
137	15
138	21
139	16
140	10
141	5
142	11
143	6
144	4
145	12
146	18
147	30
148	28
149	9
150	23
151	37
152	33
153	16
154	5
155	3
157	47
158	20
159	46
160	18
161	21
162	12
163	15
164	35
165	26
166	19
167	16
168	5
169	3
170	12
171	14
172	12
173	17
174	10
175	6
176	6
177	17
178	34
179	153
180	23
181	3
182	3
184	11
185	11
186	26
187	19
188	39
189	16
190	21
191	42
192	171
193	71
194	20
195	4
196	6
197	6
198	13
199	71
200	30
201	61
202	18
203	13
204	6
205	4
207	12
208	3
211	5
213	84
214	132
215	44
216	73
217	10
218	11
219	2
221	18
222	12
223	21
224	7
225	20
226	50
227	111
228	88
229	82
230	28
231	14
232	2
234	3
235	18
236	16
237	20
238	26
239	24
240	19
241	13
242	35
243	6
244	10
247	4
248	23
249	62
250	26
251	37
252	7
253	6
255	23
256	18
257	43
258	13
259	12
260	7
262	256
263	431
264	238
265	271
266	71
267	45
268	7
273	9
274	10
275	67
276	25
277	56
278	16
279	16
280	3
281	2
289	9
291	573
292	736
293	479
294	480
295	133
296	82
297	11
