Mass Spectrum: 1,3:2,4-Di-O-methylene-dl-xylitol
Formula: C7H12O5
CAS: 28315-35-7
Molecular weight: 176
m/z	intensity
41	274
42	133
43	438
44	357
45	729
46	0
47	43
48	0
49	9
50	9
51	21
52	8
53	56
54	97
55	770
56	0
57	843
59	73
60	32
61	105
62	11
63	5
64	1
65	5
66	3
67	11
68	36
69	28
70	126
71	192
72	111
73	432
74	33
75	44
76	3
77	15
78	44
79	6
80	1
81	43
82	72
83	60
84	6
85	211
86	999
87	522
88	8
89	10
90	1
91	4
92	1
93	4
94	2
95	9
96	6
97	23
98	89
99	171
100	114
101	27
102	22
103	201
104	9
105	5
106	13
107	12
108	2
109	4
110	2
111	14
112	7
113	43
114	7
115	75
116	161
117	58
118	4
119	1
120	0
121	2
122	1
123	3
124	21
125	5
126	1
127	32
128	93
129	88
130	6
131	7
132	0
133	1
134	0
135	1
136	1
137	1
138	1
139	1
140	0
141	2
142	0
143	5
144	1
145	44
146	28
147	185
148	12
149	4
150	0
151	1
152	0
153	2
154	0
155	1
156	0
157	2
158	1
159	68
160	4
161	1
162	0
163	1
164	0
165	0
166	0
167	0
168	0
169	0
171	0
172	0
173	0
175	38
176	197
177	8
