Mass Spectrum: Thiophosphoryl azide fluoride
Formula: F2N3PS
CAS: 28314-62-7
Molecular weight: 143
m/z	intensity
14	114
28	76
31	47
32	143
46	595
48	26
50	105
63	30
64	21
69	999
82	23
92	16
96	30
101	131
115	15
143	570
145	26
