Mass Spectrum: 1-(2-Furylmethyl)-4,6-dihydroxy-1,2-dihydropyrimidine-2-thione
Formula: C9H8N2O3S
CAS: 283155-43-1
Molecular weight: 224
m/z	intensity
33	15
34	5
36	3
37	15
38	40
39	117
40	73
41	66
42	120
43	81
44	52
45	41
46	12
47	6
48	0
49	5
50	36
51	85
52	77
53	290
54	27
55	34
56	25
57	9
58	15
59	28
60	48
61	17
62	5
63	7
64	10
65	11
66	34
67	33
68	40
69	154
70	18
71	15
72	18
73	8
74	6
75	4
76	2
77	5
78	33
79	16
81	999
82	58
83	19
84	17
85	27
86	41
87	5
88	2
89	1
90	4
91	4
93	14
94	56
95	84
96	91
97	12
98	5
99	8
100	11
101	8
102	3
103	3
106	22
108	13
109	22
110	8
112	175
113	56
114	13
115	5
116	8
118	0
119	7
121	144
122	35
123	8
124	2
125	6
126	30
127	28
128	6
129	2
135	9
136	7
137	18
138	87
139	19
140	6
141	3
144	6
145	1
149	4
150	2
151	2
153	8
154	40
155	18
156	6
157	1
163	10
164	1
165	1
167	38
168	13
169	6
170	1
179	1
181	2
191	6
192	2
193	1
195	74
196	117
197	15
198	5
205	6
207	10
209	5
221	3
224	838
225	93
226	42
227	4
