Mass Spectrum: N1-(tert-Butyl)-2-(3-pyridylmethylidene)hydrazine-1-carbothioamide
Formula: C11H16N4S
CAS: 283155-50-0
Molecular weight: 236
m/z	intensity
33	15
34	7
35	0
37	16
38	55
39	190
40	87
41	555
42	149
43	373
44	27
45	20
46	8
47	9
48	11
50	78
51	181
52	63
53	26
54	21
55	99
56	127
57	999
58	200
59	36
60	98
61	13
62	24
63	89
64	73
65	84
66	50
67	61
68	19
69	10
70	16
72	83
73	12
74	15
75	42
76	234
77	287
78	190
79	104
80	32
81	4
82	3
83	20
84	4
85	4
86	3
87	5
88	12
89	15
90	35
91	45
92	103
93	87
94	99
95	9
96	3
97	6
98	5
99	32
100	13
102	165
103	27
104	62
105	244
106	63
107	96
108	8
109	1
110	3
111	7
112	1
113	2
115	33
116	12
117	39
120	702
121	549
122	51
123	15
124	9
125	3
126	0
127	0
128	1
129	3
131	320
132	52
133	18
134	3
135	8
136	6
137	19
138	3
139	2
145	4
147	113
148	11
149	6
150	4
152	113
153	9
154	4
155	0
156	1
157	0
158	14
159	1
160	1
161	2
162	10
163	21
164	17
165	3
166	0
176	1
179	91
180	72
181	11
182	4
183	0
202	0
203	2
204	0
207	0
208	6
209	0
219	1
221	1
233	10
236	822
237	115
238	43
239	5
