Mass Spectrum: N1-Tetrahydrofuran-2-ylmethyl-2-(2-furylmethylidene)hydrazine-1-carbothioamide
Formula: C11H15N3O2S
CAS: 283155-63-5
Molecular weight: 253
m/z	intensity
33	17
34	9
36	4
37	26
38	74
39	407
40	100
41	323
42	153
43	961
44	75
45	39
46	10
47	13
48	4
50	21
51	75
52	111
53	101
54	94
55	209
56	112
57	96
58	23
59	42
60	110
61	14
62	10
63	6
64	23
65	32
66	64
67	84
68	54
69	51
70	51
71	304
72	92
73	20
74	24
76	231
77	26
78	18
79	21
80	48
81	196
82	49
83	107
84	257
85	318
86	36
87	11
88	7
89	13
90	18
91	12
92	46
93	101
94	312
95	223
96	999
97	77
98	72
99	36
100	43
101	21
102	17
103	7
104	3
105	4
106	4
107	12
108	37
109	151
110	335
111	53
112	16
113	18
114	15
115	14
116	62
117	22
118	7
119	3
120	4
121	5
122	4
123	5
124	11
125	26
126	14
127	14
128	31
129	15
130	10
131	6
132	4
134	2
135	5
136	19
137	14
138	14
139	3
140	8
141	19
142	21
144	33
145	2
146	2
147	0
148	3
149	14
151	459
152	188
153	213
154	25
155	11
156	4
158	137
159	256
160	30
161	13
162	1
163	1
164	8
165	6
166	5
167	15
168	48
169	185
170	254
171	29
172	13
173	1
176	0
178	2
179	2
180	3
181	3
182	16
183	5
184	1
190	0
192	2
193	2
194	9
195	4
202	0
208	5
210	2
218	1
220	103
221	14
222	1
224	2
236	17
237	3
251	5
252	9
253	341
254	47
255	19
256	2
