Mass Spectrum: Nicotinaldehyde 4-isopropyl-3-thiosemicarbazone
Formula: C10H14N4S
CAS: 283155-51-1
Molecular weight: 222
m/z	intensity
12	1
13	1
14	1
15	10
16	2
17	20
18	1
25	2
26	28
27	101
28	91
29	6
30	9
31	1
32	32
33	13
34	41
35	1
36	3
37	13
38	31
39	94
40	28
41	221
42	184
43	424
44	158
45	7
46	2
47	6
48	9
49	9
50	83
51	148
52	70
53	24
54	8
55	5
56	9
57	104
58	832
59	78
60	189
61	11
62	16
63	43
64	46
65	44
66	22
67	31
68	9
69	28
70	5
71	3
72	4
73	5
74	14
75	47
76	74
77	205
78	194
79	97
80	33
81	4
82	4
83	126
84	23
85	14
86	12
87	1
88	2
89	4
90	14
91	36
92	58
93	47
94	32
95	4
96	1
97	2
99	1
100	9
101	50
102	38
103	29
104	388
105	153
106	116
107	999
108	77
109	3
110	2
111	11
112	1
114	1
115	61
116	88
117	119
118	28
119	26
120	169
121	124
122	17
123	13
124	4
125	1
130	1
131	1
132	1
133	3
134	1
135	5
136	3
137	7
138	1
139	1
144	8
145	1
146	2
147	9
148	2
149	2
152	1
162	1
163	62
164	12
165	9
166	3
178	5
179	8
180	1
188	1
189	11
190	2
194	1
205	2
207	1
219	1
220	4
221	4
222	585
223	80
224	31
225	3
