Mass Spectrum: N-Thio-valero-morpholine
Formula: C9H17NOS
CAS: 2832-99-7
Molecular weight: 187
m/z	intensity
30	320
31	91
32	40
34	9
40	40
41	69
42	209
43	60
44	390
45	29
48	30
55	69
56	347
57	999
58	80
64	29
70	10
72	9
85	29
86	446
87	847
88	40
115	10
129	39
183	69
