Mass Spectrum: 2-Pentenoic acid, 4-oxo-, methyl ester, (E)-
Formula: C6H8O3
CAS: 2833-24-1
Molecular weight: 128
m/z	intensity
43	670
53	80
54	50
55	60
59	230
69	130
85	90
97	370
98	40
113	999
114	60
128	220
