Mass Spectrum: trans-4-Oxo-2-pentenoic acid
Formula: C5H6O3
CAS: 2833-28-5
Molecular weight: 114
m/z	intensity
15	49
26	89
27	149
28	110
29	11
39	58
40	36
41	67
42	124
43	614
44	180
45	111
50	49
51	33
52	30
53	111
54	105
55	77
57	45
68	61
69	108
70	33
71	67
81	192
82	42
86	45
96	167
97	83
99	999
100	49
114	361
