Mass Spectrum: 4-Acetoxy-1-decene
Formula: C12H22O2
CAS: 2833-33-2
Molecular weight: 198
m/z	intensity
38	20
39	152
40	38
41	328
42	87
43	999
44	117
45	28
51	17
53	38
54	92
55	228
56	30
57	42
58	20
60	15
61	19
65	12
66	17
67	92
68	71
69	48
70	33
71	23
79	21
80	12
81	52
82	29
83	28
85	12
95	29
96	29
97	332
98	29
110	17
113	25
115	18
137	22
157	41
