Mass Spectrum: Androstan-17-ol, 5,6-epoxy-3-fluoro-, acetate, (3.beta.,5.alpha.,6.alpha.,17.beta.)-
Formula: C21H31FO3
CAS: 28344-60-7
Molecular weight: 350
m/z	intensity
41	439
43	999
53	317
55	610
57	100
59	140
65	159
67	463
68	116
69	120
73	110
77	390
78	104
79	532
80	159
81	585
83	100
85	100
91	573
92	195
93	732
94	280
95	390
97	146
105	463
106	213
107	451
108	207
109	183
111	100
113	134
115	100
117	159
118	171
119	529
120	463
121	293
122	122
123	122
125	104
129	122
130	146
131	236
132	134
133	744
134	422
135	354
137	100
140	39
141	122
142	671
143	500
144	100
145	152
146	100
147	280
148	999
149	366
150	195
151	116
153	183
156	171
159	134
161	244
162	146
163	159
165	110
175	152
177	207
179	152
231	280
246	402
247	122
257	144
272	207
275	122
290	98
306	152
330	98
332	213
350	890
351	200
