Mass Spectrum: 2-Ethoxyethyl,diethylamine
Formula: C8H19NO
CAS: 28343-47-7
Molecular weight: 145
m/z	intensity
30	430
35	32
37	19
38	23
39	38
40	23
41	105
42	134
43	98
44	259
45	51
47	49
48	20
49	14
50	22
55	57
56	116
58	999
60	278
70	29
72	258
73	87
74	27
83	176
85	120
86	180
87	35
94	24
100	142
102	53
105	33
116	122
117	65
119	66
120	33
121	14
130	364
131	24
145	147
