Mass Spectrum: Androst-5-ene-17,19-diol, 3-fluoro-, 17-acetate 3-methanesulfonate, (3.beta.,17.beta.)-
Formula: C22H33FO5S
CAS: 28344-71-0
Molecular weight: 428
m/z	intensity
41	329
43	999
44	59
48	80
51	100
53	152
55	213
63	55
65	104
67	141
77	265
78	95
79	236
81	213
91	478
93	229
95	129
96	213
103	75
104	88
105	213
106	64
107	112
109	91
115	226
116	116
117	293
118	132
127	68
128	265
129	330
130	116
131	236
132	80
133	213
141	161
142	125
143	265
144	84
145	152
146	59
149	92
150	69
151	145
152	59
155	136
156	64
157	104
163	236
164	164
165	184
166	112
169	84
171	72
176	141
177	317
178	236
179	91
190	136
191	85
197	72
211	59
217	64
231	100
243	75
244	64
257	236
259	108
272	132
312	121
332	999
333	236
408	72
