Mass Spectrum: 2-Pentadecyn-1-ol
Formula: C15H28O
CAS: 2834-00-6
Molecular weight: 224
m/z	intensity
37	6
38	18
39	428
40	95
41	999
42	197
43	758
44	32
45	5
50	19
51	62
52	69
53	139
54	102
55	516
56	106
57	267
58	14
63	10
65	47
66	51
67	318
68	117
69	205
70	285
71	65
77	51
78	23
79	194
80	87
81	293
82	157
83	230
84	62
85	18
91	35
92	11
93	186
94	120
95	183
96	91
97	98
98	20
105	7
107	69
108	62
109	69
110	28
111	128
112	24
121	69
122	20
123	25
124	14
125	9
135	39
136	8
137	10
138	5
149	11
152	6
163	4
177	4
193	10
223	1
