Mass Spectrum: 1,3-Benzenedicarbonitrile, 2,4,5-trichloro-6-hydroxy-
Formula: C8HCl3N2O
CAS: 28343-61-5
Molecular weight: 246
m/z	intensity
35	222
36	514
37	168
38	270
39	46
40	7
41	26
42	11
43	55
44	31
45	46
47	459
48	106
49	159
50	72
51	69
52	31
53	24
54	24
55	12
56	38
57	46
58	15
59	63
60	346
61	170
62	708
63	213
64	25
65	67
66	40
67	49
69	17
71	224
72	71
73	110
74	345
75	110
76	49
77	35
78	119
79	27
80	1
81	11
82	71
83	53
84	65
85	143
86	999
87	507
88	189
89	138
90	36
91	68
92	21
94	73
95	109
96	92
97	436
98	266
99	158
100	107
101	67
102	31
103	1
106	101
107	35
108	110
109	422
110	294
111	148
112	469
113	163
114	44
115	8
116	1
117	6
118	20
119	5
121	456
122	73
123	205
124	102
125	33
126	11
127	22
128	1
130	11
132	135
133	50
134	83
135	25
136	24
137	1
140	8
141	22
142	1
143	5
144	5
145	2
147	540
148	191
149	191
150	60
151	3
153	2
156	472
157	41
158	289
159	25
160	43
161	2
167	8
168	1
170	1
171	3
176	3
179	3
180	22
182	121
183	288
184	91
185	184
186	25
187	27
191	40
193	41
194	3
195	10
210	7
211	84
212	12
213	50
214	3
215	7
217	43
218	677
219	100
220	637
221	71
222	196
223	16
224	20
246	979
247	119
248	883
249	95
250	274
251	25
252	26
