Mass Spectrum: Cyclohexanone, 3-methyl-2-(1-methylethyl)-, cis-trans
Formula: C10H18O
CAS: 28357-23-5
Molecular weight: 154
m/z	intensity
41	643
42	153
43	416
44	74
53	86
54	20
55	643
56	480
57	86
65	20
67	80
68	50
69	520
70	78
71	24
77	24
79	42
81	60
82	22
83	807
84	167
85	24
91	14
93	40
94	8
95	131
96	42
97	999
98	207
99	10
110	16
111	940
112	631
113	40
121	24
125	18
139	191
154	201
155	20
