Mass Spectrum: (2-Fluorophenyl)acetone
Formula: C9H9FO
CAS: 2836-82-0
Molecular weight: 152
m/z	intensity
14	3
15	24
26	3
27	11
28	3
29	1
31	9
32	0
33	3
37	3
38	8
39	35
40	0
42	4
43	999
44	25
45	3
50	16
51	20
52	3
54	14
56	4
57	57
58	2
59	16
61	7
62	20
63	51
64	6
65	3
68	5
69	7
70	7
74	9
75	13
76	3
77	9
80	3
81	23
82	6
83	145
84	8
85	1
86	4
87	4
89	22
90	2
94	2
95	3
96	3
101	5
103	4
105	3
107	53
108	14
109	420
110	103
111	7
121	0
133	4
152	182
153	15
