Mass Spectrum: Digoxigenin, 2TMS derivative
Formula: C29H50O5Si2
CAS: 28371-18-8
Molecular weight: 534
m/z	intensity
73	999
75	669
77	50
79	69
81	93
91	107
93	107
95	86
101	31
103	34
105	121
107	121
108	50
109	58
111	51
119	84
120	31
121	83
129	100
130	15
131	76
141	22
142	38
143	98
144	32
145	98
146	38
147	159
148	55
149	69
157	69
159	55
160	38
161	50
163	34
169	46
170	131
171	45
172	41
173	90
180	13
181	38
183	176
200	27
201	219
202	76
203	90
219	51
244	117
291	69
319	38
321	114
334	69
335	62
336	148
337	62
338	29
354	266
355	79
356	34
409	81
410	12
411	65
412	17
426	525
427	221
428	58
444	141
445	48
446	22
501	38
502	15
506	110
507	45
516	67
517	34
518	15
519	50
520	12
534	103
535	48
536	27
