Mass Spectrum: 10,12-Docasadiyndioic acid
Formula: C22H34O4
CAS: 28393-02-4
Molecular weight: 362
m/z	intensity
41	854
43	706
45	286
47	65
49	21
51	212
53	168
55	999
56	42
57	146
59	69
60	294
61	15
63	88
65	225
67	545
69	299
70	6
71	86
73	208
74	16
75	17
76	96
77	370
78	252
79	596
80	263
81	347
82	17
83	196
84	115
85	49
86	63
87	33
89	85
91	995
92	346
93	377
94	172
95	175
96	28
97	72
98	18
99	17
101	29
103	148
105	666
106	236
107	193
108	89
109	59
110	18
111	21
112	10
113	9
115	138
117	368
119	814
120	212
121	152
122	39
123	38
124	17
125	14
127	27
128	23
129	105
131	329
133	504
134	104
135	115
136	52
137	27
138	13
139	13
141	35
142	3
143	65
145	221
147	230
148	28
149	78
150	52
151	28
152	18
153	17
154	15
155	17
157	55
159	169
160	11
161	180
162	31
163	18
164	24
165	25
166	21
167	24
168	3
169	58
171	52
173	83
174	17
175	59
177	62
178	6
179	79
180	18
181	12
183	30
185	41
187	105
188	20
189	27
191	43
192	21
193	20
194	8
195	5
197	19
199	21
201	61
202	30
203	25
205	70
206	30
207	13
208	2
211	14
213	13
215	43
216	17
217	21
219	54
220	72
221	21
222	9
224	7
225	9
227	13
229	25
231	17
233	50
234	62
235	14
237	7
238	6
239	4
241	12
243	22
245	15
247	31
248	9
251	10
252	6
255	6
257	21
259	15
261	42
262	6
265	2
269	6
271	9
273	12
275	27
277	5
280	2
283	6
285	6
287	15
289	20
291	3
298	5
299	2
301	10
303	15
315	2
316	12
317	6
326	2
327	2
329	2
334	7
344	19
345	7
346	3
362	173
363	43
364	2
