Mass Spectrum: cis-1,4-Diacetamidocyclohexane
Formula: C10H18N2O2
CAS: 2840-91-7
Molecular weight: 198
m/z	intensity
43	750
44	100
56	210
58	250
60	999
68	170
69	150
70	30
79	60
80	440
81	110
82	100
85	300
96	250
97	200
98	100
111	50
112	20
113	20
138	70
139	800
140	150
155	80
198	140
