Mass Spectrum: 1-(Phenylthio)-3,7,11-trimethyl-2,6,10-dodecatriene E,E-
Formula: C21H30S
CAS: 28413-57-2
Molecular weight: 314
m/z	intensity
26	1
27	25
28	4
29	32
30	0
37	0
38	2
39	62
40	18
41	371
42	21
43	49
44	2
45	20
46	0
48	1
50	4
51	17
52	5
53	71
54	6
55	80
56	7
57	24
58	2
59	5
60	0
61	0
62	1
63	4
64	1
65	60
66	23
67	139
68	123
69	999
70	60
71	12
72	1
73	2
74	1
75	1
76	1
77	39
78	11
79	43
80	54
81	496
82	55
83	17
84	6
85	4
86	0
87	0
89	1
90	1
91	38
92	42
93	159
94	27
95	147
96	12
97	11
98	1
99	19
100	1
101	1
102	1
103	4
104	2
105	23
106	7
107	55
108	18
109	133
110	148
111	18
112	6
113	1
115	4
116	2
117	4
118	2
119	55
120	14
121	90
122	29
123	83
124	11
125	3
126	1
127	2
128	8
129	11
130	3
131	2
132	1
133	18
134	17
135	89
136	157
137	259
138	26
139	2
140	0
141	2
142	1
143	7
144	15
145	3
146	1
147	19
148	17
149	60
150	7
151	2
152	0
154	1
155	1
160	1
161	37
162	8
163	9
164	2
165	1
175	5
176	7
177	83
178	34
179	6
180	1
185	2
186	1
187	0
188	0
189	17
190	8
191	31
192	5
203	2
204	150
205	140
206	21
207	2
218	8
219	5
220	2
230	1
231	6
232	5
233	1
234	1
237	1
245	9
246	3
247	1
248	0
257	0
258	1
259	0
262	0
263	0
270	0
271	2
314	72
315	18
316	6
317	1
