Mass Spectrum: 2-[N-Methyl-N-cylcohexylamino]ethanol
Formula: C9H19NO
CAS: 2842-41-3
Molecular weight: 157
m/z	intensity
41	367
42	499
43	110
44	999
45	117
46	5
47	4
48	1
49	13
50	4
51	19
52	8
53	55
54	51
55	334
56	80
57	86
58	71
59	3
60	14
63	1
65	8
66	5
67	28
68	29
69	9
70	274
71	31
72	26
73	2
74	45
75	26
76	6
77	11
78	2
79	19
80	7
81	22
82	61
83	92
84	60
85	6
86	43
87	2
88	9
91	3
94	6
95	2
96	30
97	12
98	15
99	9
100	9
101	9
108	1
110	6
111	5
112	54
114	277
115	18
116	1
122	0
124	11
126	887
127	110
128	11
138	0
139	5
140	29
141	6
142	29
143	5
144	2
155	5
156	24
157	105
158	14
159	2
