Mass Spectrum: N4-Phenethylmorpholine-4-carbothioamide
Formula: C13H18N2OS
CAS: 284488-77-3
Molecular weight: 250
m/z	intensity
33	17
34	5
35	0
36	0
38	13
39	85
40	62
41	71
42	139
43	128
44	277
45	99
46	15
47	8
48	4
50	33
51	92
52	25
53	19
54	38
55	75
56	165
57	212
58	121
59	95
60	233
61	196
62	21
63	42
64	17
65	111
66	10
67	7
68	24
69	112
70	42
71	88
72	105
73	63
74	37
75	21
76	135
77	226
78	110
79	138
80	9
81	4
82	4
83	16
84	30
85	133
86	999
87	91
88	61
89	95
91	471
92	43
93	11
95	5
96	1
97	3
98	6
99	5
100	17
101	77
102	139
103	354
104	575
105	358
106	32
107	1
108	0
109	3
110	0
113	321
114	39
115	75
117	146
118	208
119	30
120	128
121	17
122	2
123	1
125	2
127	22
128	41
130	268
131	46
132	42
133	8
134	7
135	16
136	6
137	6
141	1
143	6
145	44
146	67
147	18
148	6
149	3
157	1
159	50
160	6
161	7
162	16
163	64
164	46
165	12
166	3
171	4
173	5
174	2
175	1
176	0
178	1
179	7
180	0
181	0
187	3
188	2
189	14
190	2
191	2
193	20
194	2
204	2
205	14
206	19
207	9
208	2
215	3
217	271
218	38
219	7
221	72
222	13
223	4
233	0
234	2
246	2
248	11
250	808
251	126
252	43
253	5
