Mass Spectrum: Naphthalene, 1-iodo-2-(2,5-dimethoxyphenylsulfonyloxy)-
Formula: C18H15IO5S
CAS: 284489-73-2
Molecular weight: 470
m/z	intensity
33	11
37	9
39	103
40	16
41	15
43	13
44	7
45	9
48	14
50	82
51	169
53	149
55	31
56	4
57	12
58	2
59	8
62	190
63	305
64	187
65	47
66	46
67	6
69	31
70	9
71	7
72	2
74	72
75	61
77	671
79	404
80	20
81	13
82	21
83	11
84	11
85	26
86	73
87	107
88	221
89	26
90	9
92	473
94	137
95	26
96	13
97	13
98	12
99	29
101	11
102	26
105	48
107	689
109	409
111	81
113	416
114	999
115	148
116	9
117	2
119	4
122	351
123	39
125	42
126	67
127	86
128	26
130	35
131	3
132	0
135	25
137	366
138	37
139	23
140	8
142	708
143	68
144	7
145	1
149	7
150	23
151	12
153	132
155	96
156	18
157	6
163	6
165	225
166	19
167	12
168	29
170	25
171	4
175	1
176	19
177	13
178	14
179	4
180	2
181	1
182	1
185	159
187	20
189	15
190	5
191	9
192	6
193	11
194	5
195	3
201	584
203	68
204	7
205	49
206	14
207	5
208	6
209	2
216	1
217	12
218	9
219	10
220	9
221	50
222	8
223	3
233	50
234	14
235	20
236	14
237	5
238	0
239	0
241	629
242	55
243	2
246	0
247	7
248	123
249	77
250	16
251	9
252	1
253	5
254	1
255	1
261	3
262	1
263	14
264	124
265	26
266	4
267	3
269	457
270	119
271	10
277	0
278	5
279	60
280	38
281	7
312	1
342	0
344	10
345	0
378	0
382	4
406	2
470	564
471	113
472	36
473	5
