Mass Spectrum: N4-(4-Bromo-3-methylphenyl)morpholine-4-carbothioamide
Formula: C12H15BrN2OS
CAS: 284488-73-9
Molecular weight: 314
m/z	intensity
33	50
34	12
36	9
37	29
38	75
39	192
40	147
41	91
42	144
43	97
44	166
45	197
46	16
47	11
48	6
49	16
50	88
51	136
52	50
53	20
54	48
55	81
56	224
57	295
58	113
59	93
60	173
61	60
62	119
63	243
64	75
65	40
66	8
67	6
68	18
69	96
70	57
71	31
72	123
74	135
75	54
76	57
77	129
78	88
79	44
80	18
81	20
82	27
83	20
84	32
86	999
87	187
88	140
89	336
90	269
91	55
92	9
93	11
94	11
95	24
96	22
97	4
98	2
99	5
100	18
101	25
102	64
103	68
104	104
105	39
106	41
107	16
108	63
110	3
111	3
113	143
114	46
115	31
116	43
117	42
118	55
119	23
120	44
121	106
122	40
123	41
124	5
127	2
128	21
130	551
131	126
132	47
133	12
134	5
135	3
136	2
143	7
144	8
146	73
147	62
148	290
149	88
150	34
151	2
157	3
158	2
161	5
162	12
163	24
164	8
169	61
170	11
171	50
172	2
174	1
175	13
176	19
177	41
178	7
183	11
185	240
187	220
188	19
189	15
190	13
191	5
196	68
197	20
198	62
199	14
200	11
201	22
202	66
203	24
204	67
205	8
209	6
210	14
211	17
212	16
213	10
223	4
224	9
225	15
227	415
229	452
230	57
231	18
233	2
234	3
235	7
236	7
237	18
238	2
239	15
253	15
254	25
255	19
256	24
257	12
259	3
269	13
271	11
281	46
282	11
283	43
284	6
285	4
314	211
316	217
317	25
318	7
