Mass Spectrum: 3,4,5-Tribenzoyl-2-methyl-2-phenyltetrahydrofuran
Formula: C32H26O4
CAS: 28445-51-4
Molecular weight: 474
m/z	intensity
27	1
28	7
39	1
41	1
43	5
44	1
50	2
51	13
52	1
53	1
55	1
57	2
63	1
65	1
69	2
71	1
75	1
76	4
77	182
78	14
79	1
83	1
85	1
89	2
90	1
91	7
92	1
95	1
97	1
101	1
102	2
103	5
104	3
105	999
106	89
107	6
111	1
115	9
116	2
117	2
118	1
120	2
121	1
122	1
127	1
128	1
129	1
130	1
131	5
132	1
133	1
136	1
142	1
143	1
144	7
145	5
146	1
147	6
149	1
152	1
159	3
165	1
178	3
179	2
181	1
189	2
190	1
191	3
192	2
193	1
202	6
203	6
204	7
205	4
206	2
207	3
208	1
210	1
215	2
216	1
217	2
218	2
219	7
220	7
221	31
222	31
223	81
224	14
225	1
229	4
230	1
231	1
232	1
233	5
234	1
235	1
236	2
237	1
238	12
239	2
245	1
246	1
247	45
248	11
249	21
250	6
251	4
263	1
264	1
265	1
321	1
322	4
323	5
324	1
335	1
336	1
337	2
338	1
341	6
342	1
349	1
350	3
351	5
352	6
353	3
354	2
365	1
367	2
369	257
370	70
371	10
372	1
438	1
440	1
441	1
454	3
455	1
456	6
457	3
458	1
474	33
475	11
476	2
