Mass Spectrum: 3-Penten-2-one, 4-methoxy-
Formula: C6H10O2
CAS: 2845-83-2
Molecular weight: 114
m/z	intensity
25	1
26	10
27	49
29	139
30	1
31	0
33	0
37	5
38	12
39	97
40	21
41	57
42	26
43	290
44	6
45	4
46	0
49	0
50	3
51	3
52	0
53	42
54	3
55	30
56	20
57	4
59	288
60	6
61	2
62	1
63	1
64	1
65	1
66	1
67	16
68	8
69	33
70	2
71	32
72	9
73	0
74	0
75	1
76	1
81	1
82	0
83	1
85	9
88	1
89	1
94	3
95	5
96	6
97	22
98	7
99	999
100	47
101	4
104	1
108	1
109	0
110	1
112	1
114	460
115	33
116	3
