Mass Spectrum: Pyrazole, 4-amino-1-benzyl-
Formula: C10H11N3
CAS: 28466-62-8
Molecular weight: 173
m/z	intensity
33	4
34	14
35	4
36	26
37	5
38	22
39	71
40	229
41	52
42	39
43	18
44	77
45	13
46	0
48	1
49	1
50	22
51	44
52	17
53	11
54	27
55	32
56	26
57	9
58	21
60	1
61	2
62	11
63	38
65	175
66	12
67	4
68	6
69	33
70	7
71	4
72	12
73	7
74	5
75	4
76	5
77	19
78	7
79	4
80	2
81	3
82	9
83	7
84	3
85	1
86	4
87	4
89	43
91	999
92	147
93	8
94	2
95	6
96	13
97	1
98	1
101	0
102	1
103	4
104	11
105	5
106	4
107	2
108	0
109	3
110	0
111	0
112	0
115	1
116	5
117	21
118	48
119	5
120	0
122	1
123	3
124	2
125	2
127	2
128	5
129	3
130	5
131	2
132	1
134	0
135	0
143	9
144	12
145	110
146	16
147	0
151	0
153	0
155	1
156	0
157	5
158	0
159	1
161	0
167	0
170	0
171	7
172	61
173	490
174	58
175	1
