Mass Spectrum: 2-Amino-4-[[4-[diethylamino]-1-methylbutyl]amino]-3-nitropyridine
Formula: C14H25N5O2
CAS: 28463-81-2
Molecular weight: 295
m/z	intensity
41	59
42	58
43	38
44	23
45	1
46	1
50	0
52	11
53	11
54	10
56	55
58	96
59	2
60	0
64	5
65	7
66	12
67	11
69	30
70	12
71	13
72	20
74	7
77	2
78	2
79	4
80	7
81	6
82	7
84	28
86	999
87	39
88	1
90	1
91	2
94	29
95	6
96	5
98	25
99	16
100	2
102	2
104	2
106	6
107	1
108	3
109	11
110	5
112	151
113	49
114	5
115	0
117	6
118	2
119	1
120	4
121	4
122	3
123	6
126	8
127	1
128	1
130	3
132	2
133	11
134	7
135	6
136	4
137	1
138	3
140	9
142	4
143	0
144	0
146	5
148	19
149	7
150	1
151	3
155	0
156	56
158	39
159	3
161	6
162	1
163	3
165	16
167	8
172	0
174	12
175	1
176	2
177	4
178	0
179	0
181	6
187	8
189	30
190	3
191	0
192	1
205	27
206	2
207	1
215	1
217	1
221	21
223	14
230	1
231	0
244	0
260	18
266	1
267	0
277	2
278	10
280	7
281	0
294	1
295	10
296	1
