Mass Spectrum: Pyrimidin-4-ol, 5-isopropyl-6-methyl-2-(2-oxo-2-phenylethylthio)-
Formula: C16H18N2O2S
CAS: 284665-85-6
Molecular weight: 302
m/z	intensity
35	3
36	0
37	12
38	18
39	92
40	48
41	66
42	129
43	8
44	4
45	1
46	6
47	0
50	62
51	192
52	43
53	29
54	33
55	42
56	7
61	4
62	11
63	16
64	15
65	18
66	18
67	42
68	189
69	23
70	6
73	1
74	20
75	27
76	48
77	665
78	78
79	7
81	3
82	7
83	14
84	246
85	21
86	10
87	6
88	5
89	32
90	18
91	17
93	11
94	11
95	16
96	15
97	5
99	7
100	33
101	12
102	11
103	13
105	999
106	86
107	6
109	8
110	11
115	7
116	15
117	22
118	6
121	6
122	9
123	68
124	7
128	18
129	8
130	9
131	6
133	12
142	2
143	6
144	21
145	8
146	9
151	452
152	41
170	7
171	20
172	6
182	13
183	6
185	11
186	5
199	175
200	264
201	34
202	5
210	28
211	22
213	37
214	8
227	260
228	658
229	107
230	10
269	18
284	18
285	7
