Mass Spectrum: Acetamide, N-(4-bromo-2-methylphenyl)-2-dimethylamino-
Formula: C11H15BrN2O
CAS: 284679-65-8
Molecular weight: 270
m/z	intensity
37	1
38	3
39	11
40	5
41	10
42	79
43	17
44	27
45	2
49	0
50	12
51	23
52	12
53	1
54	0
55	0
56	9
57	4
58	999
59	40
62	3
63	11
64	2
65	1
69	1
71	0
74	1
75	4
76	8
77	27
78	27
79	6
80	0
85	0
89	11
90	9
91	1
100	6
103	0
104	23
105	15
106	4
117	3
118	1
119	2
132	2
147	0
182	0
184	12
185	3
186	10
187	1
198	1
200	1
211	1
270	14
271	0
272	13
273	0
