Mass Spectrum: Propanamide, N-(4-bromo-3-methylphenyl)-3-(4-morpholyl)-
Formula: C14H19BrN2O2
CAS: 284679-67-0
Molecular weight: 326
m/z	intensity
37	0
38	3
39	11
40	3
41	34
42	70
43	15
44	8
45	12
46	0
49	0
50	6
51	19
52	10
53	4
54	15
55	32
56	55
57	21
58	5
60	0
61	0
62	3
63	9
64	3
65	3
66	1
67	0
68	8
69	3
70	53
71	3
72	1
73	0
74	1
75	2
76	6
77	26
78	27
79	5
80	1
81	0
82	2
83	1
84	11
85	3
86	9
87	1
88	1
89	11
90	12
91	3
92	0
93	0
94	0
96	0
98	2
99	0
101	0
102	1
103	2
104	16
105	15
106	6
107	1
109	0
110	0
112	14
114	999
115	76
116	5
117	2
118	2
119	1
120	0
126	0
127	0
128	0
129	0
130	1
131	1
132	7
133	4
134	0
140	0
141	0
142	0
143	0
144	0
145	0
146	2
147	0
148	0
149	0
156	0
157	1
158	1
159	1
160	0
161	2
162	0
169	2
170	0
171	2
172	0
182	0
184	7
185	4
186	7
187	4
188	0
196	0
197	1
198	1
199	1
200	1
210	0
211	0
212	1
213	0
214	1
224	0
226	0
238	0
239	0
240	0
241	0
242	0
243	0
326	0
327	0
328	0
329	0
