Mass Spectrum: Pyridinium, 1-amino-, chloride
Formula: C5H7ClN2
CAS: 28460-19-7
Molecular weight: 130
m/z	intensity
41	300
42	690
43	20
66	60
67	170
68	10
78	240
79	580
80	30
93	30
94	999
95	50
