Mass Spectrum: Pyrazole, 4-amino-1-benzyl-3,5-dimethyl-
Formula: C12H15N3
CAS: 28466-69-5
Molecular weight: 201
m/z	intensity
33	3
34	16
35	5
36	16
37	3
38	14
39	82
40	264
41	58
42	355
43	40
44	89
45	4
47	4
49	0
50	14
51	39
52	20
53	22
54	38
55	20
56	20
57	11
58	1
60	1
62	8
63	39
65	204
66	34
67	10
69	48
70	13
71	4
73	0
74	2
75	4
76	3
77	20
78	7
79	6
80	11
81	8
82	51
83	63
84	7
85	1
86	0
87	0
89	54
91	999
92	197
93	9
94	1
95	8
96	3
97	4
98	2
99	1
101	9
102	1
103	4
104	10
105	8
106	6
107	12
108	10
109	18
110	203
111	20
112	2
113	0
115	6
116	6
117	40
118	88
119	25
121	8
122	3
123	7
124	70
125	12
126	1
127	3
128	3
129	1
130	16
131	7
132	36
133	3
138	0
139	0
141	1
142	4
143	9
144	6
145	10
146	1
153	0
155	0
156	1
157	10
158	10
159	214
160	25
161	3
168	1
169	8
170	2
171	5
172	3
173	1
183	12
184	4
185	11
186	96
187	13
198	2
200	157
201	943
202	127
203	8
