Mass Spectrum: Benzoic acid, 4-allyloxy-3-bromo-, (2-oxo-2-phenylethyl) ester
Formula: C18H15BrO4
CAS: 284680-03-1
Molecular weight: 374
m/z	intensity
37	1
38	5
39	33
40	2
41	20
42	3
43	3
44	0
45	0
50	38
51	114
52	14
53	24
54	2
55	4
56	0
57	0
58	0
61	2
62	13
63	26
64	5
65	22
66	4
67	1
68	0
69	0
71	0
73	1
74	14
75	22
76	33
77	308
78	48
79	5
80	1
81	1
82	1
85	0
86	2
87	3
88	4
89	12
90	4
91	43
92	4
93	0
94	0
98	1
99	0
100	0
101	6
102	24
103	67
105	999
106	79
107	6
108	0
109	0
110	0
113	2
114	6
115	6
116	2
117	2
118	20
119	4
120	1
121	0
127	0
128	0
129	2
131	90
132	48
133	6
134	0
135	1
139	0
141	0
142	0
143	2
144	0
145	1
146	0
147	0
149	0
151	0
152	0
153	0
154	0
155	1
156	0
157	2
158	1
159	7
160	6
165	0
166	0
167	0
168	0
169	0
170	1
171	0
172	1
173	0
174	0
178	0
181	0
183	2
184	2
185	2
186	2
187	0
193	1
194	0
195	1
196	2
197	0
198	2
199	1
200	0
201	0
209	2
211	10
212	2
213	8
214	1
215	0
223	0
225	1
227	0
237	2
239	154
241	148
242	16
243	1
295	0
347	0
349	0
374	25
375	6
376	25
377	5
378	0
