Mass Spectrum: N1-(3,4-Dichlorophenyl)-5-ethyl-2-methylpiperidine-1-carbothioamide
Formula: C15H20Cl2N2S
CAS: 284665-74-3
Molecular weight: 330
m/z	intensity
33	3
34	4
35	10
36	23
37	54
38	42
39	110
40	42
41	216
42	134
43	81
44	274
45	25
46	4
47	15
48	8
49	39
50	82
51	30
52	13
53	37
54	40
55	184
56	332
57	168
58	140
59	11
60	20
61	48
62	47
63	35
64	20
65	12
66	11
67	36
68	33
69	108
70	172
71	44
72	43
73	79
74	179
75	135
76	16
77	7
78	3
79	31
80	14
81	33
82	49
83	52
84	197
85	53
86	27
87	25
88	37
89	8
90	2
91	3
92	2
93	7
94	13
95	24
96	23
97	37
98	184
99	34
100	41
101	76
102	53
103	14
105	6
106	11
107	17
108	21
109	184
110	51
111	89
112	999
113	80
114	3
115	2
116	3
117	2
118	4
119	6
120	3
121	4
122	3
123	3
124	46
125	9
126	106
127	118
128	11
129	1
130	1
131	3
132	10
133	76
134	8
135	12
136	15
137	3
138	4
139	1
140	2
141	4
142	4
143	4
145	263
146	24
147	161
148	11
149	26
150	2
151	0
152	2
153	9
154	3
155	0
156	1
157	1
159	28
160	4
161	27
162	2
163	10
164	1
165	1
167	17
168	77
169	15
170	69
171	56
172	9
173	31
174	3
175	5
176	12
177	2
178	9
179	1
180	2
181	0
182	0
184	1
185	1
186	0
187	2
188	0
189	1
197	0
199	0
201	6
203	836
204	89
205	534
206	51
207	104
208	9
209	4
217	0
219	1
221	0
223	0
237	0
239	0
259	0
260	0
261	0
262	0
273	0
279	0
281	0
295	3
296	0
297	4
298	0
299	1
301	1
303	0
329	1
330	10
331	3
332	7
333	1
334	1
