Mass Spectrum: Benzoic acid, 2-(2-methoxyethoxy)-5-(2,2-dimethylpropanoylamino)-
Formula: C15H21NO5
CAS: 284680-10-0
Molecular weight: 295
m/z	intensity
35	0
37	1
38	5
39	58
40	12
41	256
42	33
43	67
44	4
45	83
46	1
47	0
49	0
50	6
51	17
52	39
53	36
54	8
55	21
57	999
58	95
59	426
60	15
61	7
62	7
63	19
64	8
65	9
66	3
67	3
68	4
69	12
70	9
71	1
74	1
75	2
76	5
77	10
78	13
79	35
80	32
81	7
82	2
83	2
85	35
86	2
87	0
88	1
89	5
90	2
91	4
92	5
93	3
94	1
95	1
96	1
97	0
103	0
104	2
105	5
106	17
107	45
108	18
109	6
110	2
116	0
117	1
118	1
119	1
120	4
121	1
122	1
123	0
124	0
125	0
130	0
131	1
132	2
133	6
134	40
135	353
136	38
137	4
138	1
144	0
145	0
146	1
147	0
148	6
149	2
150	2
151	1
152	18
153	37
154	5
155	0
158	0
159	1
160	2
161	9
162	8
163	4
164	2
165	3
166	2
167	3
168	0
174	1
175	1
176	9
177	3
178	2
179	4
180	1
188	0
190	1
191	1
193	62
194	10
195	1
199	0
201	0
202	1
203	1
204	2
205	0
210	1
211	6
216	0
219	276
220	50
221	5
222	1
224	0
232	1
234	0
235	1
237	18
238	4
250	2
252	13
253	2
262	0
263	4
264	1
278	1
293	0
295	231
296	40
297	5
298	0
