Mass Spectrum: Propenoic acid, 3-[4-(2-methoxyethoxy)-3-nitrophenyl]-
Formula: C12H13NO6
CAS: 284665-31-2
Molecular weight: 267
m/z	intensity
33	4
37	1
38	7
39	25
40	4
41	12
43	68
45	415
46	6
50	15
51	56
53	26
55	7
56	0
59	999
61	21
62	55
63	90
64	17
65	25
66	13
68	4
69	3
73	6
74	25
75	30
76	23
77	51
78	42
79	16
80	2
81	1
86	5
87	8
89	152
90	29
91	19
92	9
93	3
94	5
95	1
98	4
99	4
100	4
101	10
102	24
103	12
104	6
105	23
106	6
107	4
108	2
115	7
116	11
118	80
119	15
120	2
121	4
129	2
130	5
131	6
132	21
133	15
134	9
135	1
145	19
146	12
147	17
148	62
149	7
150	1
161	1
162	7
163	5
164	5
175	4
176	1
178	0
190	6
191	6
192	22
193	13
194	1
209	84
210	3
220	0
250	9
267	359
268	49
269	6
