Mass Spectrum: 2-Hexenal, 2-methyl-
Formula: C7H12O
CAS: 28467-88-1
Molecular weight: 112
m/z	intensity
26	27
27	217
29	285
30	13
31	13
33	11
38	45
39	402
40	55
41	569
42	134
43	210
44	9
45	8
46	8
47	8
49	10
50	115
51	116
52	53
53	219
55	999
56	82
57	59
58	19
61	18
62	35
63	42
65	91
66	21
67	204
68	53
69	251
70	45
71	32
77	80
78	23
79	280
80	22
81	72
82	13
83	315
84	35
85	15
90	6
91	34
93	18
94	3
95	21
97	303
98	20
111	19
112	461
113	24
115	7
