Mass Spectrum: N1-(4,4-Dimethyl-1,3-thiazolan-2-yliden)cyclohexan-1-amine
Formula: C11H20N2S
CAS: 284665-65-2
Molecular weight: 212
m/z	intensity
33	24
34	23
36	2
39	198
40	302
41	484
42	128
43	228
44	189
45	100
46	33
47	32
48	13
50	4
51	14
52	14
53	92
54	140
55	545
56	148
57	34
58	67
59	44
60	55
61	9
63	2
64	9
65	9
66	11
67	54
68	25
69	37
70	30
71	26
72	50
73	116
74	20
75	12
77	33
78	12
79	36
80	22
81	79
82	42
83	290
84	30
85	54
86	11
87	47
88	106
89	57
90	6
91	2
94	3
95	18
96	14
97	15
98	49
99	11
100	46
101	18
102	27
103	5
109	12
110	118
111	16
113	50
114	72
115	999
116	69
117	50
123	19
124	3
125	10
127	15
128	8
129	18
130	69
131	360
132	32
133	20
141	17
143	4
151	3
155	23
156	279
157	73
158	20
159	5
165	7
166	12
169	36
170	21
171	4
179	7
183	12
195	4
197	454
198	55
199	22
207	4
212	350
213	42
214	16
