Mass Spectrum: Carbamic acid, N,N-dimethyl-, [6-methyl-2-(4-methylphenyl)-5-propyl-4-pyrimidinyl] esyer-
Formula: C18H23N3O2
CAS: 284665-28-7
Molecular weight: 313
m/z	intensity
35	0
37	0
38	2
39	35
40	8
41	33
42	50
43	15
44	9
45	0
46	2
50	4
51	12
52	15
53	38
54	29
55	26
56	26
57	1
58	1
62	2
63	8
64	5
65	22
66	10
67	13
68	7
69	4
70	6
72	999
73	34
74	2
75	2
76	3
77	12
78	4
79	14
80	10
81	11
82	3
83	4
84	1
85	0
86	0
87	0
88	2
89	24
90	21
91	33
92	3
93	1
94	4
95	2
96	9
97	1
98	0
100	0
101	1
102	2
103	2
104	1
105	2
106	2
107	0
108	2
109	0
110	0
111	0
112	0
113	1
114	2
115	7
116	35
117	24
118	95
119	12
120	0
122	0
123	0
124	5
125	0
126	1
127	2
128	4
129	3
130	2
131	2
132	7
133	1
134	0
136	3
139	1
140	4
141	2
142	6
143	7
144	3
145	0
146	0
152	1
153	1
154	3
155	3
156	4
157	2
158	1
161	0
162	0
167	11
168	2
169	2
170	2
172	9
173	1
179	0
180	0
181	1
182	2
183	2
184	5
185	2
186	1
187	0
189	0
193	0
195	3
196	2
197	6
198	3
199	1
200	1
201	0
209	1
211	5
213	76
214	27
215	4
216	0
222	20
223	4
225	25
226	6
227	26
228	4
229	0
237	0
241	632
242	113
243	29
244	4
253	2
254	1
255	6
256	1
268	9
269	8
270	1
284	13
285	4
286	0
296	0
298	4
299	0
313	127
314	27
315	3
