Mass Spectrum: 2-Pyrazoline, 3-(2-chlorophenyl)-5-(4-methylphenyl)-1-phenyl-
Formula: C22H19ClN2
CAS: 284680-37-1
Molecular weight: 346
m/z	intensity
37	2
38	13
39	75
40	12
41	39
42	2
49	2
50	29
51	146
52	32
53	9
54	1
61	3
62	11
63	71
64	199
65	109
66	12
67	1
72	0
73	3
74	11
75	45
76	26
77	302
78	41
79	20
80	1
81	1
82	3
84	1
85	3
86	3
87	6
88	8
89	43
91	999
92	94
93	15
95	5
97	1
98	1
99	5
100	2
101	20
102	45
103	31
104	27
105	82
106	8
107	1
109	2
110	2
111	13
112	3
113	9
114	9
115	89
116	34
117	114
118	93
119	10
120	1
123	2
125	17
126	6
127	16
128	16
129	25
130	6
131	1
133	2
134	2
135	2
136	4
137	13
138	25
139	15
140	14
141	4
142	12
143	3
144	1
147	10
148	5
149	30
150	7
151	18
152	17
153	6
154	5
155	10
162	2
163	8
164	8
165	44
166	16
167	9
168	2
172	12
173	29
174	9
176	7
177	6
178	15
179	9
180	5
181	3
182	1
187	3
188	4
189	37
190	21
191	31
192	23
193	60
194	48
195	10
196	2
199	3
200	4
201	10
202	25
203	20
204	15
205	18
206	34
207	9
208	28
209	13
210	2
212	1
213	1
214	2
215	1
216	2
217	5
218	20
219	19
220	5
221	0
225	4
226	6
227	20
228	74
229	17
230	25
231	4
232	1
233	4
234	1
238	1
239	3
240	2
241	9
242	3
243	3
244	0
252	2
254	70
255	225
256	61
257	75
258	11
259	1
267	1
268	1
269	1
281	0
282	1
284	1
292	0
293	1
294	1
295	1
307	0
309	4
311	29
312	7
313	1
330	1
331	2
332	1
343	1
344	2
346	466
347	134
348	163
349	38
350	4
