Mass Spectrum: 5-[(4-Chlorobenzyl)thio]-1-(2-chlorophenyl)-1H-1,2,3,4-tetrazole
Formula: C14H10Cl2N4S
CAS: 284665-88-9
Molecular weight: 336
m/z	intensity
33	4
34	3
35	5
36	21
37	13
38	33
39	79
40	53
41	6
42	1
43	7
44	55
45	381
46	135
47	21
48	7
49	11
50	53
51	54
52	9
53	2
55	2
56	1
57	2
58	3
59	1
60	5
61	14
62	40
63	130
64	37
65	20
66	2
69	15
70	4
71	4
72	7
73	55
74	26
75	133
76	24
77	46
78	14
79	5
81	2
82	2
83	1
84	5
85	14
86	6
87	11
89	208
90	98
91	12
92	1
93	3
94	2
95	3
96	5
97	6
98	8
99	111
100	10
101	35
102	15
103	2
104	5
105	2
106	0
107	2
108	3
109	2
111	130
112	18
113	43
114	6
115	2
116	3
117	6
118	2
119	3
120	8
121	32
122	24
123	10
125	999
126	93
127	334
128	25
129	1
131	3
133	2
134	3
135	2
136	6
137	7
138	6
139	14
140	3
141	3
142	1
144	3
146	1
147	1
148	8
149	4
150	3
151	13
152	256
153	31
154	85
155	42
156	60
157	121
158	32
159	42
160	5
161	3
163	0
164	0
165	14
166	1
167	4
169	31
170	7
171	12
172	2
173	0
176	1
177	1
182	2
183	1
184	1
185	0
192	1
193	6
195	1
205	1
207	0
214	0
233	1
235	104
236	15
237	70
238	31
239	14
240	4
248	2
249	0
250	1
262	10
263	2
264	6
265	0
266	2
268	1
271	0
273	25
274	7
275	72
276	14
277	41
278	6
279	7
281	0
301	120
302	21
303	43
304	8
305	2
308	0
310	0
335	0
336	42
337	8
338	28
339	5
340	6
341	1
