Mass Spectrum: 2-(4-Nitropyrazol-1-yl)pyridine
Formula: C8H6N4O2
CAS: 28469-29-6
Molecular weight: 190
m/z	intensity
30	155
33	4
34	14
36	14
37	108
38	297
39	306
40	211
41	47
42	18
43	33
44	87
45	5
46	143
48	6
49	28
50	177
51	746
52	382
53	49
54	5
55	26
56	8
57	11
60	2
61	10
62	26
63	125
64	79
65	50
66	50
67	13
68	3
69	7
70	5
71	4
73	3
74	4
75	28
76	47
77	41
78	999
79	238
80	9
81	3
82	1
84	2
85	2
87	3
88	5
89	155
90	119
91	19
92	12
93	30
94	3
96	1
97	2
99	1
103	3
104	2
105	130
106	10
112	1
115	2
116	22
117	24
119	3
120	9
121	238
122	16
140	3
143	7
144	10
145	2
146	11
147	4
160	32
161	2
174	22
175	2
190	557
191	49
192	1
