Mass Spectrum: Thiophene-2-carboxylic acid, [2-(4-nitrophenyl)-2-oxo]ethyl ester
Formula: C13H9NO5S
CAS: 284665-54-9
Molecular weight: 291
m/z	intensity
33	1
34	0
36	0
37	4
39	173
40	11
41	2
42	4
43	3
44	8
45	12
46	1
47	0
50	46
51	8
52	3
53	6
54	0
55	2
57	23
58	4
59	1
60	0
61	1
62	3
63	11
64	9
65	2
66	1
67	0
69	3
70	0
71	1
72	0
73	2
74	12
75	22
76	60
77	8
78	7
79	1
81	8
82	15
83	65
84	7
85	3
86	0
87	0
89	14
90	6
92	29
93	2
94	0
95	0
96	0
97	0
98	0
99	0
100	0
101	0
104	77
105	7
106	2
107	0
111	999
112	68
113	49
114	3
115	1
116	0
117	0
118	1
120	29
121	2
122	1
123	0
124	0
125	0
126	0
128	3
129	0
130	0
132	0
134	14
135	1
136	0
137	0
138	0
139	0
141	38
142	3
143	2
144	0
145	0
146	0
147	0
150	191
151	14
152	1
153	0
158	0
159	0
160	0
161	0
163	13
164	1
165	0
167	0
171	0
173	0
185	0
187	0
214	0
228	0
231	41
232	5
233	3
234	0
243	0
245	18
246	2
247	1
259	0
261	25
262	3
263	1
264	0
275	0
288	0
291	75
292	10
293	4
294	0
