Mass Spectrum: 6-Methyl-3-(4-nitro-1H-pyrazol-1-yl)-1,2,4-triazin-5-ol
Formula: C7H6N6O3
CAS: 28469-33-2
Molecular weight: 222
m/z	intensity
30	83
37	18
38	216
39	157
40	133
41	167
42	327
43	41
44	45
46	26
51	20
52	62
53	88
54	45
55	63
56	98
57	7
64	4
65	18
66	24
67	28
69	637
70	36
71	3
77	8
78	10
79	12
80	7
81	8
82	26
83	140
84	5
92	3
93	7
97	66
109	2
110	4
113	999
114	43
115	3
181	408
182	29
195	4
221	5
222	29
223	3
