Mass Spectrum: Benzenesulfonic acid, 4-methyl-, [6-methyl-2-(3-methylphenyl)-4-pyrimidyl] ester
Formula: C19H18N2O3S
CAS: 284665-34-5
Molecular weight: 354
m/z	intensity
37	2
38	14
39	186
40	24
41	88
42	38
43	1
45	5
48	3
50	26
51	60
52	36
53	27
54	220
55	31
56	5
57	0
58	0
61	2
62	20
63	92
64	41
65	380
66	45
67	60
68	14
69	6
70	1
71	2
74	6
75	12
76	18
77	70
78	17
79	5
80	4
81	2
82	25
83	14
84	74
85	5
86	3
87	5
88	10
89	154
90	118
91	999
92	79
93	4
94	0
95	1
97	0
100	1
101	5
102	18
103	39
104	12
105	3
106	3
107	5
108	1
109	2
110	0
111	3
113	1
114	6
115	20
116	111
117	71
118	189
119	29
120	2
121	2
122	1
123	1
124	1
126	0
127	4
128	10
129	12
130	48
131	12
132	10
133	5
139	19
140	6
141	4
142	14
143	11
144	35
145	26
146	4
152	2
153	1
155	73
156	23
157	14
158	8
159	3
160	1
161	2
164	1
165	8
166	4
167	2
168	1
169	9
170	19
171	67
172	19
173	104
174	12
175	1
177	1
178	3
179	3
180	1
181	1
183	27
184	7
185	1
189	0
190	3
191	4
192	5
193	4
194	1
197	2
198	3
199	16
200	4
201	0
203	0
204	1
206	15
208	300
209	51
210	3
211	1
219	0
221	128
222	23
223	2
230	0
231	0
232	2
233	0
234	3
235	1
245	1
246	2
247	3
248	4
249	2
259	1
261	94
262	91
263	16
264	1
273	5
275	95
276	19
277	2
287	2
289	780
290	483
291	88
292	8
