Mass Spectrum: Pyridin-2(1H)-one, 1-[2-[3,5-di(trifluoromethyl)phenyl]-2-oxoethyl]
Formula: C15H9F6NO2
CAS: 284665-43-6
Molecular weight: 349
m/z	intensity
37	6
38	29
39	82
40	18
41	31
42	15
51	205
53	268
54	160
64	7
66	3
67	2
68	3
69	49
74	24
75	49
77	3
78	205
80	648
81	418
93	6
94	4
99	13
105	4
108	999
109	28
113	3
123	13
124	2
125	53
136	18
137	3
138	2
143	109
144	145
145	12
163	222
164	6
177	11
187	19
193	26
194	147
195	11
213	707
214	41
222	3
227	22
241	688
242	38
302	2
304	3
320	55
321	191
322	24
330	273
331	52
332	197
333	29
349	989
350	157
351	12
