Mass Spectrum: 1,3,4-Oxadiazole, 2-(2-furyl)-5-(2-propynylthio)-
Formula: C9H6N2O2S
CAS: 284673-95-6
Molecular weight: 206
m/z	intensity
34	1
36	6
37	85
38	170
39	459
40	20
41	12
42	16
44	21
45	44
46	12
47	2
48	2
49	21
50	94
51	71
52	68
53	191
54	16
55	5
56	4
58	179
59	10
60	24
61	8
62	6
63	25
64	70
65	48
66	19
67	48
68	10
69	56
70	37
71	48
72	5
73	3
74	2
75	2
76	2
77	8
78	6
79	19
80	15
81	5
82	6
83	10
85	90
86	8
87	6
89	100
90	117
91	12
93	468
95	999
96	59
97	7
98	0
99	5
105	1
107	25
108	6
109	0
111	85
113	228
114	15
115	11
116	1
118	142
119	14
121	6
122	1
123	0
135	38
136	3
139	1
145	1
149	0
151	2
164	4
167	5
168	2
173	3
174	1
177	3
178	15
179	1
180	1
181	0
206	193
207	22
208	11
209	1
