Mass Spectrum: 6-Hydroxy-3-nitro-2-picoline
Formula: C6H6N2O3
CAS: 28489-45-4
Molecular weight: 154
m/z	intensity
42	556
43	39
44	15
46	27
49	8
50	56
51	117
52	281
53	999
54	164
55	82
56	6
58	37
60	1
61	19
62	39
63	79
64	51
65	45
66	31
67	33
68	65
69	19
70	5
75	7
76	7
78	35
80	804
81	118
82	102
83	10
86	1
92	18
93	19
94	18
96	100
97	5
107	28
109	119
110	40
111	2
119	2
124	30
125	22
135	3
137	659
138	55
139	5
154	673
155	143
156	11
