Mass Spectrum: 4-(2-Morpholin-4-yl-ethyl)pyridine
Formula: C11H16N2O
CAS: 28487-18-5
Molecular weight: 192
m/z	intensity
41	210
42	856
43	69
44	58
50	59
51	197
52	99
53	69
54	99
55	69
56	783
57	70
65	119
70	181
72	79
77	161
78	138
79	60
92	60
93	139
98	60
100	999
101	379
104	60
105	100
106	230
