Mass Spectrum: 2,4-Imidazolidinedione, 5-(4-bromobutyl)-
Formula: C7H11BrN2O2
CAS: 28484-49-3
Molecular weight: 234
m/z	intensity
28	693
29	261
30	145
31	8
36	3
37	6
38	25
39	216
40	55
41	482
42	226
43	278
44	188
45	56
46	4
50	11
51	25
52	24
53	69
54	103
55	667
56	432
57	167
58	3
59	2
60	5
61	5
62	2
63	3
65	10
66	8
67	144
68	37
69	33
70	154
71	31
72	42
73	6
74	1
75	1
76	1
77	1
78	3
79	5
80	17
81	9
82	77
83	31
84	924
85	66
86	3
87	2
91	0
93	25
94	2
95	26
96	7
97	1
98	3
99	462
100	999
101	113
102	19
103	1
104	1
105	3
106	6
107	46
108	7
109	41
110	10
111	1
112	64
113	224
114	20
115	4
116	1
119	5
121	5
123	0
125	10
126	5
127	9
128	2
129	2
131	0
133	1
134	3
135	110
136	6
137	105
138	5
139	2
140	1
141	2
142	1
143	1
149	2
152	0
153	2
154	24
155	997
156	104
157	9
158	2
159	0
162	5
163	8
164	5
165	7
166	1
168	1
169	0
177	1
178	0
179	0
181	0
184	0
186	0
190	1
191	19
192	0
193	20
194	1
197	0
202	0
205	0
206	0
208	1
209	0
212	0
213	0
217	1
218	0
220	0
222	0
223	0
226	0
232	0
233	0
234	61
235	5
236	60
237	6
238	0
