Mass Spectrum: 2-Methyl-1-vinylimidazole
Formula: C6H8N2
CAS: 2851-95-8
Molecular weight: 108
m/z	intensity
12	1
14	6
15	41
25	5
26	93
27	209
28	116
29	2
37	10
38	29
39	140
40	215
41	444
42	211
43	5
47	1
50	3
51	18
52	71
53	49
54	223
55	69
56	2
63	2
64	9
65	9
66	45
67	130
68	63
69	11
78	2
79	11
80	118
81	200
82	46
83	1
92	1
93	23
94	2
105	2
106	16
107	184
108	999
109	70
110	2
