Mass Spectrum: 2-Pentenoic acid, 4-hydroxy-
Formula: C5H8O3
CAS: 28525-83-9
Molecular weight: 116
m/z	intensity
23	0
24	0
26	65
27	179
28	22
29	33
30	2
31	7
33	1
34	1
36	0
37	8
38	9
39	44
40	5
41	21
42	117
43	999
44	25
45	42
46	1
47	0
48	1
49	3
50	11
51	9
52	4
53	16
54	9
55	231
56	159
57	14
58	1
59	0
60	0
61	5
62	0
63	0
65	0
66	0
67	0
68	1
69	6
70	36
71	80
72	6
73	23
74	6
78	0
79	0
80	0
81	7
82	3
83	2
84	1
85	1
88	0
91	0
95	0
96	1
97	4
98	132
99	600
100	33
101	12
102	0
103	0
110	0
114	0
115	0
116	8
117	1
