Mass Spectrum: Methanone, bis(3-methylphenyl)-
Formula: C15H14O
CAS: 2852-68-8
Molecular weight: 210
m/z	intensity
39	50
40	9
41	21
50	13
51	23
52	9
53	7
62	11
63	36
64	14
65	154
66	14
74	7
75	9
76	11
77	13
89	53
90	55
91	351
92	31
115	10
118	11
119	999
120	93
121	10
136	10
139	9
151	7
152	14
153	8
163	8
164	8
165	34
166	16
167	14
178	11
179	9
181	18
182	13
195	140
196	26
208	8
209	18
210	339
211	60
212	10
