Mass Spectrum: 1-Bromo-3-hydroxytetrabutyldistannoxane
Formula: C16H37BrO2Sn2
CAS: 28520-98-1
Molecular weight: 580
m/z	intensity
15	2
26	3
27	39
28	16
29	210
30	4
38	1
39	32
40	4
41	221
42	10
43	12
44	6
45	6
46	3
50	1
51	2
52	1
53	6
54	2
55	26
56	34
57	999
58	51
59	1
60	4
69	2
71	2
80	1
81	1
82	1
83	1
85	2
95	1
97	1
111	1
116	6
117	12
118	14
119	19
120	18
121	23
122	1
123	3
124	2
125	4
131	1
132	1
133	2
134	1
135	2
137	1
145	1
147	1
149	3
151	2
153	4
154	1
155	4
157	2
159	1
161	1
163	1
165	1
173	5
174	3
175	10
176	5
177	14
178	2
179	5
181	2
183	1
191	1
193	3
195	29
196	14
197	72
198	31
199	106
200	15
201	70
203	19
205	10
210	1
211	1
212	2
213	1
214	1
225	1
227	1
229	1
231	1
232	1
233	1
234	1
243	1
245	1
247	1
250	1
251	2
252	11
253	11
254	31
255	22
256	44
257	17
258	27
259	7
260	8
261	2
262	4
263	1
265	1
267	1
268	1
269	2
271	1
274	1
275	1
276	4
277	4
278	9
279	6
280	8
281	4
282	4
283	2
284	1
287	2
288	1
289	6
290	3
291	9
292	2
293	8
295	3
297	2
299	2
300	1
301	3
303	2
305	1
307	1
308	2
309	6
310	9
311	15
312	14
313	23
314	9
315	16
316	3
317	6
318	1
319	2
327	1
329	4
331	26
332	14
333	88
334	42
335	154
336	46
337	150
338	19
339	74
340	3
341	25
342	1
343	9
348	1
363	1
365	1
388	3
389	2
390	9
391	5
392	17
393	6
394	16
395	3
396	9
398	3
400	1
