Mass Spectrum: Androstan-17-ol, 5,6-epoxy-3-fluoro-, acetate, (3.beta.,5.beta.,6.beta.,17.beta.)-
Formula: C21H31FO3
CAS: 28526-86-5
Molecular weight: 350
m/z	intensity
41	340
43	999
51	56
53	156
55	268
59	65
65	88
67	265
68	68
69	73
73	53
77	234
78	64
79	312
80	88
81	281
83	54
91	363
92	125
93	492
94	183
95	220
97	64
105	285
106	125
107	251
108	108
109	64
111	58
113	92
115	61
116	58
117	98
118	78
119	159
120	159
121	159
122	64
123	64
129	81
130	122
131	142
132	75
133	386
134	359
135	108
137	68
140	142
141	61
142	108
143	224
145	115
146	68
147	136
148	220
149	71
153	95
154	61
156	132
157	54
159	85
160	51
161	159
162	98
163	51
174	71
175	78
177	102
179	64
231	81
246	155
257	54
275	51
290	51
350	576
351	132
