Mass Spectrum: .alpha.-D-Glucofuranose, 1,2:3,5-bis-O-(1-methylethylidene)-
Formula: C12H20O6
CAS: 28528-94-1
Molecular weight: 260
m/z	intensity
43	599
55	100
59	599
85	220
100	150
109	50
113	999
114	220
127	90
129	230
142	230
171	70
187	30
200	70
229	30
245	180
