Mass Spectrum: Pyrazolo[1,5-a]pyridine, 2,3-dimethyl-
Formula: C9H10N2
CAS: 28537-56-6
Molecular weight: 146
m/z	intensity
51	500
52	40
63	100
64	20
72	80
73	150
78	620
79	720
91	80
92	150
104	999
105	280
117	150
118	140
130	30
131	260
132	30
145	700
146	650
147	70
148	30
