Mass Spectrum: 1H-Pyrrole-2,5-dione, 1,1'-(1,8-octanediyl)bis-
Formula: C16H20N2O4
CAS: 28537-73-7
Molecular weight: 304
m/z	intensity
26	90
27	70
28	80
29	60
30	40
31	10
39	60
40	20
41	260
42	40
43	40
44	10
52	10
53	70
54	220
55	220
56	110
57	10
66	10
67	90
68	40
69	60
70	30
79	30
80	110
81	30
82	350
83	110
84	60
85	10
93	10
94	10
95	40
96	40
97	40
98	120
99	100
100	50
106	40
107	80
108	150
109	100
110	999
111	240
112	90
113	20
122	10
123	10
124	50
125	20
136	30
137	10
138	40
139	10
150	20
151	10
152	50
153	60
166	20
178	10
180	10
181	10
192	10
194	60
206	10
221	50
223	120
224	20
249	10
304	280
305	60
