Mass Spectrum: 1H-Pyrrole-2,5-dione, 1,1'-(1,3-propanediyl)bis-
Formula: C11H10N2O4
CAS: 28537-69-1
Molecular weight: 234
m/z	intensity
26	180
27	30
28	330
29	10
30	10
32	10
38	10
39	60
40	70
41	180
42	40
43	20
44	60
52	10
53	90
54	260
55	90
56	330
57	20
66	20
67	10
68	10
69	20
70	10
80	80
81	20
82	410
83	100
97	10
98	120
110	999
111	470
112	30
119	40
123	20
124	160
125	10
136	790
137	490
138	50
152	20
153	100
234	530
235	60
236	10
