Mass Spectrum: 1H-Pyrrole-2,5-dione, 1,1'-(1,7-heptanediyl)bis-
Formula: C15H18N2O4
CAS: 28537-72-6
Molecular weight: 290
m/z	intensity
26	250
27	160
28	190
29	130
30	100
39	130
40	40
41	450
42	100
43	80
44	30
45	10
51	10
52	30
53	160
54	480
55	390
56	250
57	20
65	20
66	40
67	110
68	60
69	80
70	60
71	10
72	20
77	10
78	10
79	50
80	210
81	70
82	690
83	250
84	130
85	20
92	20
93	80
94	330
95	260
96	80
97	30
98	200
99	180
100	70
108	40
109	20
110	999
111	400
112	150
113	40
122	20
123	30
124	70
125	30
128	10
129	10
134	10
136	50
137	20
138	60
139	20
140	50
150	30
151	10
152	60
153	50
164	10
165	10
166	10
167	10
178	10
180	60
191	20
192	20
193	20
207	60
208	10
209	160
210	20
245	10
290	240
291	50
