Mass Spectrum: Diethyl 5-benzoyl-3,4-diphenyl-2,5-diazabicyclo(2.2.2)oct-2-ene-7,8-dicarboxylate
Formula: C31H30N2O5
CAS: 28536-31-4
Molecular weight: 510
m/z	intensity
26	3
27	11
28	14
29	54
30	2
31	3
39	3
41	4
42	3
43	6
44	7
45	3
50	3
51	15
52	4
53	12
54	3
55	5
56	1
57	2
59	1
63	2
65	1
67	1
69	10
70	4
71	2
73	1
74	1
75	2
76	12
77	219
78	33
79	3
80	2
81	10
82	3
83	2
84	1
85	2
88	1
89	4
90	4
91	11
92	1
96	1
97	26
98	16
99	9
100	1
101	2
102	5
103	40
104	52
105	999
106	78
107	5
111	1
113	2
114	1
115	10
116	5
117	29
118	15
119	2
121	1
122	2
124	1
125	52
126	12
127	16
128	14
129	17
130	93
131	11
132	3
133	1
139	3
140	1
141	3
142	2
143	13
144	3
145	4
146	7
147	2
149	1
151	1
152	2
153	104
154	26
155	14
156	126
157	20
158	4
159	2
165	3
166	1
167	2
168	3
169	6
170	9
171	17
172	3
173	1
174	1
175	1
176	2
177	2
178	4
179	2
180	2
181	2
182	22
183	7
184	35
185	8
186	1
187	1
188	1
189	1
190	1
191	1
192	1
193	1
194	1
196	1
198	6
199	27
200	39
201	6
202	5
203	3
204	3
205	2
206	16
207	21
208	4
209	1
210	2
211	1
212	4
213	3
214	2
215	2
216	5
217	4
218	5
219	4
220	2
221	1
222	1
227	2
228	118
229	22
230	24
231	24
232	72
233	273
234	57
235	11
236	1
241	4
242	158
243	28
244	8
245	3
246	3
247	2
248	1
249	1
250	1
255	2
256	136
257	26
258	7
259	7
260	14
261	4
262	4
263	1
270	6
271	1
272	2
273	2
274	10
275	2
276	2
278	5
279	1
285	2
286	6
287	4
288	39
289	8
290	2
291	1
292	1
294	2
302	52
303	16
304	7
305	5
306	23
307	5
308	1
310	1
313	1
315	2
316	5
317	2
318	4
319	11
320	6
321	1
331	6
332	11
333	11
334	128
335	30
336	4
337	44
338	83
339	20
340	3
343	1
344	1
345	1
346	2
347	1
350	1
359	16
360	86
361	53
362	20
363	5
364	1
377	2
378	3
379	3
391	5
392	3
393	1
405	74
406	61
407	226
408	59
409	10
410	1
419	1
423	1
437	46
438	14
439	2
465	30
466	9
467	3
494	1
510	364
511	135
512	32
513	5
