Mass Spectrum: 4-Pentenoic acid, 2-(formylamino)-, ethyl ester
Formula: C8H13NO3
CAS: 28557-79-1
Molecular weight: 171
m/z	intensity
26	13
27	125
28	480
29	176
30	106
31	13
37	4
38	10
39	87
40	17
41	132
42	71
43	211
44	19
45	16
46	111
47	31
50	6
51	13
52	10
53	56
54	45
55	19
56	22
57	20
58	9
59	3
60	2
64	2
65	3
66	4
67	22
68	57
69	31
70	414
71	54
72	5
73	7
74	586
75	19
76	4
77	4
78	3
79	3
80	17
81	79
82	38
83	5
84	10
85	20
86	3
91	4
93	2
94	3
95	3
96	13
97	83
98	999
99	66
100	7
101	3
102	192
103	12
104	3
105	2
107	5
108	3
109	2
111	5
114	4
115	3
117	2
119	3
124	2
125	122
126	397
127	33
128	5
129	2
130	643
131	40
132	6
135	2
141	3
142	4
143	6
144	3
152	1
153	3
170	2
171	30
172	13
173	2
