Mass Spectrum: Isophoronediamine
Formula: C10H22N2
CAS: 2855-13-2
Molecular weight: 170
m/z	intensity
12	1
14	3
15	19
16	9
17	35
18	17
26	4
27	83
28	181
29	117
30	701
31	14
32	8
37	2
38	6
39	109
40	19
41	288
42	125
43	290
44	337
45	11
47	7
49	1
50	6
51	15
52	9
53	62
54	31
55	647
56	129
57	209
58	34
59	2
61	1
62	1
63	5
64	2
65	22
66	16
67	132
68	654
69	282
70	308
71	41
72	22
73	1
74	1
75	1
76	1
77	32
78	7
79	43
80	43
81	325
82	212
83	152
84	466
85	31
86	3
89	1
91	34
92	9
93	53
94	54
95	130
96	137
97	167
98	32
99	15
100	1
101	4
102	1
103	3
104	2
105	13
106	11
107	49
108	23
109	599
110	70
111	13
112	4
113	2
114	1
115	1
116	2
117	3
118	2
119	6
120	9
121	60
122	36
123	507
124	999
125	122
126	10
127	2
128	3
129	1
130	1
131	2
132	1
133	1
134	4
135	4
136	20
137	11
138	435
139	55
140	111
141	386
142	42
143	2
145	1
146	1
147	1
148	1
149	3
150	3
151	3
152	15
153	28
154	7
155	10
156	1
170	7
171	2
