Mass Spectrum: Azabuperone
Formula: C17H23FN2O
CAS: 2856-81-7
Molecular weight: 290
m/z	intensity
15	7
18	2
25	1
26	4
27	32
28	94
29	31
30	30
31	2
33	1
34	2
37	1
38	2
39	48
40	16
41	310
42	379
43	105
44	56
45	4
46	1
47	1
48	1
49	2
50	12
51	15
52	7
53	25
54	133
55	231
56	334
57	68
58	130
59	8
60	1
61	1
62	4
63	6
64	2
65	11
66	6
67	52
68	231
69	627
70	337
71	69
72	27
73	4
74	11
75	105
76	13
77	12
78	5
79	8
80	35
81	47
82	266
83	177
84	496
85	38
86	7
87	1
89	2
90	1
91	2
92	4
93	15
94	84
95	543
96	999
97	725
98	243
99	15
100	2
101	7
102	2
103	3
104	3
105	1
106	8
107	10
108	37
109	73
110	76
111	214
112	22
113	1
115	6
116	1
117	1
118	2
119	3
120	10
121	30
123	895
124	222
125	310
126	28
127	5
128	1
131	2
132	1
133	17
134	6
135	16
136	7
137	103
138	97
139	938
140	99
141	4
144	1
145	4
146	5
147	6
148	3
149	5
150	7
151	60
152	713
153	601
154	59
155	2
159	2
160	1
161	2
162	4
163	11
164	51
165	235
166	31
167	10
168	1
171	1
172	1
174	2
175	1
176	3
177	1
178	2
179	1
180	1
185	1
188	1
190	4
191	1
192	4
193	8
194	47
195	6
196	1
198	1
200	1
204	4
205	1
206	16
207	6
208	18
209	2
217	1
218	1
220	3
221	13
222	3
231	1
232	1
233	1
234	3
235	5
236	1
241	1
243	1
244	1
246	1
247	1
248	2
255	1
261	5
262	1
268	1
269	1
270	3
271	1
272	1
275	1
284	1
286	1
288	8
289	11
290	93
291	18
292	2
