Mass Spectrum: 2(1H)-Pyrimidinone, 5-phenoxy-4,6-diphenyl-
Formula: C22H16N2O2
CAS: 28567-85-3
Molecular weight: 340
m/z	intensity
73	77
75	53
76	114
77	726
78	187
81	57
83	79
89	159
94	81
95	57
97	57
103	126
104	999
105	224
106	51
165	171
166	87
180	653
181	236
192	130
193	67
208	53
263	89
296	108
323	177
324	57
339	346
340	857
341	193
