Mass Spectrum: 2(1H)-Pyrimidinone, 5-methoxy-4,6-diphenyl-
Formula: C17H14N2O2
CAS: 28567-84-2
Molecular weight: 278
m/z	intensity
63	82
67	64
68	52
69	66
70	59
71	76
73	46
74	48
75	58
76	220
77	529
78	82
79	43
81	70
83	74
84	41
85	37
89	195
90	48
91	65
93	26
94	52
95	61
96	45
97	58
98	45
102	32
103	228
104	999
105	131
107	34
109	36
110	35
116	40
117	52
118	34
119	28
121	28
129	35
132	60
138	86
139	155
165	36
178	52
193	106
200	44
201	40
202	56
206	38
207	42
235	104
236	57
247	60
248	25
249	25
262	70
263	72
264	56
265	28
276	42
277	754
278	746
279	150
280	34
