Mass Spectrum: 2-Oxo-5-phenoxy-4,6-diphenyl-1,2,3,4-tetrahydropyrimidine
Formula: C22H18N2O2
CAS: 28567-77-3
Molecular weight: 342
m/z	intensity
71	120
73	60
76	80
77	870
78	220
79	100
81	80
83	100
85	70
89	120
90	100
91	170
94	180
95	80
102	80
103	100
104	999
105	280
106	200
128	100
129	80
132	160
171	90
178	70
179	60
180	150
206	60
247	90
248	60
249	830
250	170
263	60
265	930
266	190
342	680
343	190
