Mass Spectrum: 3-Furancarboxamide, 2,5-dimethyl-N-phenyl-
Formula: C13H13NO2
CAS: 28562-70-1
Molecular weight: 215
m/z	intensity
39	20
41	13
43	214
51	26
52	20
53	85
65	27
67	23
77	34
81	120
93	15
94	35
95	28
120	10
121	16
122	14
123	999
124	78
127	11
215	303
216	38
