Mass Spectrum: Androst-5-en-17-one, 3-(acetyloxy)-19-hydroxy-, (3.beta.)-
Formula: C21H30O4
CAS: 2857-42-3
Molecular weight: 346
m/z	intensity
41	357
42	75
43	999
44	57
45	32
50	7
51	25
52	10
53	110
54	21
55	296
56	50
57	89
58	10
59	3
60	10
61	10
63	7
64	3
65	53
66	14
67	214
68	28
69	89
70	7
71	25
72	3
73	10
75	3
76	3
77	114
78	39
79	175
80	25
81	139
82	14
83	25
84	7
85	14
86	3
87	3
89	3
91	264
92	42
93	121
94	25
95	85
96	14
97	128
98	14
99	3
103	21
104	32
105	135
106	25
107	89
108	14
109	50
110	10
111	14
115	50
116	17
117	89
118	21
119	67
120	14
121	25
122	10
123	21
124	7
125	3
127	10
128	42
129	71
130	25
131	85
132	17
133	42
134	10
135	14
136	3
137	10
139	28
140	3
141	39
142	21
143	107
144	28
145	82
146	17
147	21
148	7
149	28
150	7
151	14
152	3
153	3
154	3
155	21
156	7
157	35
158	10
159	60
160	17
161	17
162	3
163	3
165	3
167	7
168	3
169	17
170	10
171	25
172	7
173	7
175	7
181	17
182	3
183	21
184	3
185	35
186	7
187	7
189	3
195	17
196	7
197	21
198	10
199	25
200	7
201	3
209	3
210	3
211	21
212	7
213	28
214	7
226	3
227	7
228	3
237	67
238	14
239	3
241	3
254	35
255	357
256	139
257	25
268	7
286	28
287	7
