Mass Spectrum: Acetophenone benzyloxime
Formula: C15H15NO
CAS: 28570-76-5
Molecular weight: 225
m/z	intensity
41	12
42	12
50	44
51	132
52	24
63	24
65	124
76	24
77	252
78	52
79	24
89	12
91	999
92	172
103	44
104	52
105	64
106	52
119	24
195	92
196	12
208	24
223	12
224	184
225	164
226	24
