Mass Spectrum: O-Trifluoroacetyl-isopulegol
Formula: C12H17F3O2
CAS: 28587-54-4
Molecular weight: 250
m/z	intensity
27	190
29	190
39	330
40	80
41	610
42	60
43	130
51	50
53	270
54	60
55	420
56	80
57	30
65	80
66	50
67	350
68	380
69	310
77	170
79	610
80	250
81	999
82	120
83	50
91	140
92	160
93	840
94	340
95	300
105	50
107	580
108	170
121	690
122	80
136	680
137	140
153	10
181	20
250	10
