Mass Spectrum: Imidodicarbonic diamide, N,N'-diphenyl-
Formula: C14H13N3O2
CAS: 28584-90-9
Molecular weight: 255
m/z	intensity
27	24
28	30
29	5
30	2
31	1
32	1
34	0
36	1
37	29
38	60
39	139
40	28
41	32
42	7
43	25
44	30
45	3
46	2
47	2
48	0
49	5
50	41
51	92
52	37
53	8
54	13
55	1
56	0
57	0
60	2
61	11
62	19
63	65
64	133
65	188
66	152
67	17
68	1
69	1
70	30
71	1
72	0
73	3
74	10
75	7
76	12
77	186
78	19
79	2
80	3
81	0
86	0
87	2
88	2
89	2
90	12
91	189
92	134
93	999
94	76
95	2
103	2
104	1
105	31
106	3
107	1
108	0
115	0
116	0
117	1
118	7
119	401
120	68
121	8
122	0
128	0
133	0
134	9
135	184
136	231
137	20
138	1
147	0
161	0
162	16
163	3
164	0
166	0
167	0
168	0
183	0
193	0
194	1
195	0
211	1
212	8
213	1
240	17
241	2
242	0
254	1
255	295
256	48
257	4
258	0
