Mass Spectrum: O-Trifluoroacetyl-neomenthol
Formula: C12H19F3O2
CAS: 28587-52-2
Molecular weight: 252
m/z	intensity
27	210
29	170
39	190
41	570
42	120
43	500
51	30
53	160
54	150
55	500
56	140
57	110
59	30
65	30
67	310
68	190
69	240
70	50
77	70
79	150
80	80
81	240
82	250
83	180
91	40
93	150
94	160
95	999
96	450
97	90
107	50
109	50
110	30
121	100
123	170
124	30
136	70
137	30
138	550
139	130
153	10
167	10
237	5
252	5
