Mass Spectrum: O-Trifluoroacetyl-menthol
Formula: C12H19F3O2
CAS: 28587-50-0
Molecular weight: 252
m/z	intensity
27	150
29	120
39	130
40	30
41	750
42	120
43	390
44	40
51	20
53	120
55	410
56	110
57	90
59	30
65	20
66	20
67	280
68	130
69	190
70	40
77	40
79	80
80	80
81	999
82	250
83	130
91	20
93	40
95	680
96	330
97	70
107	10
109	60
110	20
123	300
124	30
137	10
138	320
139	70
153	10
167	10
