Mass Spectrum: Methyl-2,3,4,6-tetra-O-acetyl-5-thio.beta.d-glucopyranoside
Formula: C15H22O9S
CAS: 28585-86-6
Molecular weight: 378
m/z	intensity
43	999
45	40
55	8
57	12
59	16
60	6
61	7
69	36
70	16
73	10
74	41
75	8
76	6
77	8
81	8
85	41
87	35
89	4
97	31
98	10
99	8
101	10
102	8
103	36
113	23
114	27
115	23
118	14
125	12
127	8
129	10
142	24
143	84
144	10
145	9
156	13
157	79
158	28
174	7
175	4
183	12
184	19
185	107
198	44
199	72
215	26
216	14
227	19
258	8
259	2
273	1
318	0
319	0
346	1
