Mass Spectrum: Nonanoic acid, 9-bromo-, ethyl ester
Formula: C11H21BrO2
CAS: 28598-81-4
Molecular weight: 264
m/z	intensity
47	4
48	2
50	5
51	9
52	7
53	32
54	37
55	388
56	58
57	117
58	5
59	33
60	247
61	195
67	50
68	28
69	242
70	137
71	46
72	6
73	207
74	27
75	5
79	14
80	28
81	27
82	30
83	61
84	35
85	3
87	35
88	999
89	61
90	10
95	36
96	21
97	63
98	6
99	7
100	2
101	370
102	35
106	3
107	19
108	4
109	21
111	38
115	38
116	5
119	16
120	3
121	13
122	3
135	21
136	2
137	17
138	11
139	58
140	6
141	2
143	15
147	1
148	4
149	28
150	6
151	9
157	19
158	2
162	2
164	2
169	2
176	4
177	2
178	2
179	4
185	21
186	3
193	4
195	3
201	2
203	3
219	92
220	6
221	99
222	7
