Mass Spectrum: N1-Acetyl-N'1-methyl-N'1-(3-phenyl-1,2,4-thiadiazol-5-yl)ethanohydrazide
Formula: C13H14N4O2S
CAS: 285985-27-5
Molecular weight: 290
m/z	intensity
33	19
34	4
35	1
36	4
37	3
38	9
39	30
40	62
41	25
42	160
43	999
44	65
45	33
46	59
47	7
48	6
50	45
51	70
52	17
53	8
54	4
55	17
57	382
58	20
59	32
60	17
61	19
62	7
63	18
64	12
65	17
66	2
67	4
69	73
70	138
71	43
72	11
73	11
74	16
75	29
76	116
77	166
78	13
79	1
80	0
81	3
82	7
83	6
84	8
85	8
86	16
87	33
88	24
89	6
90	14
91	32
92	3
93	2
94	2
95	3
96	2
97	3
98	2
99	8
100	10
101	9
103	334
104	321
105	33
106	3
107	8
108	32
109	52
110	8
112	153
113	24
114	5
115	2
116	4
117	4
118	5
119	1
120	0
121	4
122	5
123	2
125	1
126	0
128	28
129	8
130	6
131	7
132	2
134	96
135	286
136	123
137	21
138	5
139	2
140	2
141	0
143	7
145	241
146	17
147	19
148	5
149	10
150	4
151	1
156	0
157	0
158	1
160	2
161	10
163	75
164	8
165	8
166	1
167	1
170	2
171	0
172	1
173	2
174	13
175	9
176	5
177	36
178	6
179	11
180	1
181	0
185	0
187	3
188	10
189	50
190	437
191	89
192	24
193	5
200	1
202	0
203	6
206	906
207	99
208	41
209	5
210	2
212	0
213	1
214	0
217	1
219	0
220	2
228	4
231	568
232	76
233	36
234	5
235	0
239	2
240	5
245	2
248	391
249	52
250	18
251	2
256	3
288	2
290	236
291	37
292	12
293	1
