Mass Spectrum: Tetrazolo[1,5-b]pyridazine, 8-methyl-
Formula: C5H5N5
CAS: 28593-27-3
Molecular weight: 135
m/z	intensity
26	140
27	140
28	270
37	120
38	90
39	200
50	170
51	230
52	999
53	190
64	130
79	90
135	80
