Mass Spectrum: Morphinan-6-one, 4,5-epoxy-14-hydroxy-3-methoxy-17-methyl-, cyclic 1,2-ethanediyl acetal, (5.alpha.)-
Formula: C20H25NO5
CAS: 2859-02-1
Molecular weight: 359
m/z	intensity
41	110
42	920
43	270
44	999
45	160
46	20
51	80
52	40
53	80
54	30
55	550
56	170
57	180
58	230
59	40
63	70
64	40
65	80
66	30
67	40
68	40
69	40
70	710
71	110
72	40
73	60
75	40
76	40
77	150
78	60
79	50
81	40
82	50
83	40
84	80
85	40
86	330
87	60
89	70
90	30
91	120
92	10
94	50
98	220
99	830
100	350
101	70
102	80
103	90
104	40
105	40
112	110
113	40
114	40
115	290
116	100
117	70
118	40
127	110
128	140
129	140
130	50
131	90
132	50
139	40
140	30
141	70
142	40
143	60
144	90
145	70
146	50
147	30
152	40
153	40
154	30
155	60
156	50
157	60
158	60
159	70
160	50
161	70
162	40
168	40
169	40
170	50
171	70
172	50
173	70
174	70
175	90
176	10
181	40
183	40
184	80
185	120
186	70
187	80
188	90
189	70
190	50
198	130
199	110
200	70
201	80
202	70
203	10
211	40
212	50
213	40
214	90
215	70
216	90
217	60
218	40
228	40
229	60
230	260
231	100
232	90
233	10
240	30
242	40
244	40
245	80
246	10
258	40
259	80
260	100
261	20
272	30
273	30
302	90
303	30
314	50
341	40
359	270
360	70
361	10
