Mass Spectrum: Bicyclo[7.1.0]decane
Formula: C10H18
CAS: 286-76-0
Molecular weight: 138
m/z	intensity
39	490
40	50
41	999
42	120
43	160
51	50
52	50
53	210
54	460
55	530
56	90
57	20
66	50
67	600
68	280
69	90
77	50
78	20
79	50
80	50
81	330
82	210
91	20
93	20
95	160
96	90
109	30
110	20
123	10
