Mass Spectrum: 8-Azabicyclo[5.1.0]octane
Formula: C7H13N
CAS: 286-44-2
Molecular weight: 111
m/z	intensity
26	177
27	508
28	980
29	198
30	321
31	19
32	22
34	0
36	1
37	12
38	32
39	426
40	79
41	658
42	233
43	472
44	476
45	15
47	5
48	1
49	4
50	32
51	50
52	35
53	118
54	365
55	330
56	999
57	260
58	10
59	3
60	1
61	2
62	3
63	10
64	4
65	43
66	26
67	216
68	898
69	180
70	291
71	23
72	2
73	2
74	3
75	2
76	2
77	40
78	19
79	67
80	129
81	85
82	963
83	314
84	199
85	16
86	4
87	1
88	1
89	0
90	0
91	24
92	6
93	18
94	45
95	28
96	741
97	59
98	8
99	4
101	2
103	2
104	2
105	3
106	4
107	3
108	10
109	7
110	266
111	80
112	26
113	57
