Mass Spectrum: 7-Azabicyclo[4.1.0]heptane
Formula: C6H11N
CAS: 286-18-0
Molecular weight: 97
m/z	intensity
28	888
29	629
30	259
39	148
40	37
41	333
42	259
43	518
44	111
53	37
54	111
55	74
56	148
57	37
67	111
68	999
69	814
70	74
77	37
81	37
82	666
83	37
95	37
96	296
97	111
