Mass Spectrum: 9-Thiabicyclo[6.1.0]nonane
Formula: C8H14S
CAS: 286-63-5
Molecular weight: 142
m/z	intensity
39	240
40	140
41	360
53	110
54	390
55	170
67	999
68	200
79	110
81	250
82	340
109	230
110	220
142	210
143	20
144	10
