Mass Spectrum: 1-Benzyl-3-(phenylacetyl)urea
Formula: C16H16N2O2
CAS: 28615-04-5
Molecular weight: 268
m/z	intensity
26	4
27	16
28	12
29	2
30	22
31	1
37	8
38	15
39	62
40	6
41	13
42	9
43	44
44	45
45	9
46	1
49	4
50	46
51	90
52	26
53	8
54	1
55	2
56	5
57	2
58	9
59	5
60	1
61	8
62	19
63	56
64	19
65	140
66	10
67	1
70	5
71	1
73	7
74	14
75	12
76	34
77	127
78	63
79	74
80	6
83	1
84	1
85	2
86	4
87	5
88	6
89	135
90	231
91	999
92	349
93	26
94	1
97	1
99	8
102	6
103	69
104	111
105	124
106	873
107	141
108	9
114	3
115	3
116	134
117	377
118	180
119	18
120	1
131	1
132	117
133	297
134	30
135	118
136	118
137	10
147	2
148	1
149	16
150	11
151	9
152	1
161	35
162	4
165	2
166	1
167	4
168	1
176	1
177	22
178	5
179	3
180	3
181	1
182	1
207	1
208	13
209	2
225	2
268	385
269	74
270	8
