Mass Spectrum: (3S,3aR,6R,8aS)-3,7,7-Trimethyl-8-methylenehexahydro-1H-3a,6-methanoazulen-2(3H)-one
Formula: C15H22O
CAS: 28624-27-3
Molecular weight: 218
m/z	intensity
26	2
27	66
28	15
29	65
30	1
37	1
38	6
39	224
40	49
41	510
42	49
43	119
46	1
50	21
51	105
52	61
53	312
54	51
55	412
56	39
57	44
58	11
59	3
60	2
61	1
62	6
63	41
64	29
65	221
66	134
67	474
68	76
69	252
70	43
71	35
72	50
73	10
74	11
75	6
76	9
77	518
78	122
79	956
80	111
81	338
82	210
83	159
89	17
90	5
91	676
92	137
93	873
94	999
95	742
96	522
97	228
98	21
102	13
103	71
104	33
105	526
106	165
107	252
108	358
109	167
110	49
115	110
116	44
117	134
118	124
119	542
120	806
121	724
122	195
123	88
124	61
125	27
126	6
127	13
128	48
129	47
130	29
131	33
132	19
133	287
134	166
135	87
136	45
144	7
145	37
146	62
147	524
148	846
149	250
158	3
159	10
160	12
161	227
162	100
163	15
174	13
175	347
176	64
185	18
189	67
190	229
191	33
192	5
203	109
204	49
217	1
218	392
219	68
