Mass Spectrum: Nonadecanenitrile
Formula: C19H37N
CAS: 28623-46-3
Molecular weight: 279
m/z	intensity
26	6
27	125
28	18
29	362
30	33
37	1
38	1
39	81
40	17
41	697
42	151
43	999
44	41
45	1
50	0
51	4
52	3
53	34
54	116
55	475
56	184
57	898
58	44
59	0
62	1
63	0
64	1
65	5
66	6
67	54
68	44
69	219
70	331
71	260
72	17
73	0
76	0
77	4
78	1
79	23
80	14
81	41
82	149
83	185
84	102
85	130
86	11
87	0
91	3
92	1
93	19
94	17
95	27
96	232
97	426
98	86
99	58
100	6
105	1
106	0
107	10
108	11
109	12
110	283
111	176
112	62
113	39
114	3
120	1
121	8
122	19
123	6
124	194
125	74
126	48
127	27
128	3
134	0
135	4
136	12
137	3
138	104
139	32
140	34
141	17
142	3
149	2
150	4
151	1
152	75
153	18
154	23
155	11
156	2
163	0
164	3
165	1
166	57
167	16
168	18
169	4
170	0
177	0
178	2
179	1
180	49
181	19
182	14
183	2
184	1
192	1
193	0
194	54
195	24
196	10
197	2
198	0
206	1
207	0
208	57
209	31
210	9
211	1
220	1
222	70
223	33
224	10
225	1
234	1
236	85
237	29
238	11
239	1
248	1
250	53
251	14
252	1
264	9
265	2
277	0
278	4
279	19
280	4
281	0
