Mass Spectrum: 2-Heptanone, 1-(methylsulfinyl)-
Formula: C8H16O2S
CAS: 2863-47-0
Molecular weight: 176
m/z	intensity
26	23
27	263
28	52
29	295
30	11
31	27
33	7
34	7
35	19
36	5
37	6
38	13
39	183
40	34
41	334
42	213
43	999
44	69
45	83
46	32
47	53
48	48
49	13
50	14
51	22
52	8
53	49
54	13
55	274
56	35
57	152
58	80
59	16
60	14
61	547
62	50
63	349
64	90
65	29
66	8
67	46
68	10
69	72
70	57
71	362
72	24
73	17
74	48
75	11
76	3
77	63
78	133
79	27
80	14
81	20
82	5
83	51
84	16
85	12
86	3
87	8
88	4
89	27
90	8
91	20
92	4
93	16
94	9
95	163
96	15
97	45
98	10
99	194
100	12
101	4
102	4
103	6
104	5
105	65
106	9
107	7
108	3
109	4
110	2
111	15
112	79
113	65
114	9
115	5
116	1
117	11
118	2
119	4
120	242
121	15
122	10
123	11
124	4
125	3
127	2
128	3
129	3
130	3
131	3
132	3
133	16
134	6
135	2
139	1
141	4
142	1
143	2
144	5
147	3
149	3
158	4
159	441
160	54
161	33
162	3
