Mass Spectrum: 1-Hexanol, 6-[(tetrahydro-2H-pyran-2-yl)oxy]-
Formula: C11H22O3
CAS: 28659-22-5
Molecular weight: 202
m/z	intensity
24	0
25	0
26	12
27	131
28	39
29	176
30	5
31	263
33	1
37	1
38	3
39	85
40	58
41	435
42	89
43	111
44	34
45	19
46	0
47	11
49	0
50	2
51	4
52	2
53	22
54	23
55	438
56	172
57	109
58	7
59	10
60	1
61	1
62	0
63	1
64	1
65	6
66	2
67	112
68	13
69	16
70	9
71	17
72	3
73	2
74	8
75	1
77	2
78	0
79	3
80	2
81	20
82	32
83	395
84	87
85	999
86	40
87	4
88	0
91	0
93	0
94	0
95	1
96	1
97	2
98	10
99	19
100	8
101	285
102	17
103	5
104	0
109	0
111	3
112	2
113	1
114	1
115	12
116	7
117	30
118	8
119	10
120	0
125	0
126	0
127	1
129	13
130	5
131	0
133	0
136	1
139	0
142	0
143	0
144	1
145	0
147	2
148	0
149	0
153	0
154	0
155	0
156	1
158	0
166	0
172	0
173	0
174	0
184	1
185	0
201	2
