Mass Spectrum: (S)-2-Chloro-4-methylvaleric acid
Formula: C6H11ClO2
CAS: 28659-81-6
Molecular weight: 150
m/z	intensity
14	2
15	13
16	2
17	1
18	3
25	1
26	25
27	264
28	83
29	204
30	5
31	12
32	8
33	1
35	18
36	185
37	11
38	62
39	206
40	41
41	603
42	162
43	787
44	135
45	100
46	4
47	3
48	2
49	9
50	21
51	37
52	13
53	147
54	23
55	389
56	105
57	999
58	90
59	171
60	18
61	9
62	17
63	17
64	5
65	15
66	9
67	64
68	42
69	308
70	80
71	96
72	17
73	827
74	31
75	13
76	28
77	8
78	9
79	4
80	1
81	71
82	7
83	3
84	2
85	7
86	7
87	113
88	14
89	33
90	3
91	12
92	1
93	2
94	436
95	24
96	148
97	32
98	10
99	259
100	15
101	2
102	1
103	2
104	5
105	5
106	2
107	33
108	33
109	15
110	10
111	3
112	2
113	22
114	70
115	199
116	13
117	3
119	1
129	1
132	1
133	2
135	9
137	3
150	1
151	6
152	1
153	2
