Mass Spectrum: 4-Decene, 2-methyl-, (E)-
Formula: C11H22
CAS: 28665-56-7
Molecular weight: 154
m/z	intensity
24	0
25	1
26	6
27	211
28	31
29	216
30	6
32	2
34	0
36	1
38	3
39	150
40	20
41	580
42	99
43	470
44	13
45	0
47	0
49	0
50	4
51	11
52	6
53	53
54	124
55	804
56	999
57	429
58	17
62	0
63	2
64	1
65	13
66	6
67	76
68	55
69	915
70	267
71	33
72	1
75	0
77	8
78	2
79	15
80	2
81	37
82	22
83	137
84	81
85	13
91	1
92	0
95	8
96	7
97	63
98	48
99	2
103	0
109	0
110	3
111	28
112	16
113	0
125	1
126	14
127	0
139	5
154	104
155	11
