Mass Spectrum: 3H-1,2,4-Triazino[5,6-b]indole-3-thione, 5-acetyl-2,4,4a,5-tetrahydro-4a-hydroxy-
Formula: C11H10N4O2S
CAS: 28668-98-6
Molecular weight: 262
m/z	intensity
33	13
34	3
35	0
37	9
38	22
39	43
40	25
41	47
42	73
43	999
44	39
45	11
46	5
47	13
48	38
49	4
50	45
51	71
52	27
53	10
54	3
55	12
56	47
57	8
58	4
59	32
60	264
61	14
62	42
63	40
64	35
65	21
66	5
67	1
68	1
69	3
70	1
71	2
72	0
73	6
74	29
75	134
76	164
77	138
78	48
79	10
80	2
81	0
82	1
83	1
84	1
85	1
86	2
87	5
88	14
89	39
90	81
91	29
92	8
93	2
94	0
95	1
96	1
97	0
98	0
99	2
100	2
101	5
102	56
103	48
104	218
105	65
106	12
107	1
108	1
109	1
110	0
111	0
112	0
113	0
114	2
115	7
116	58
117	71
118	63
119	19
120	6
121	3
122	2
123	1
124	0
125	0
128	5
129	6
130	8
131	28
132	236
133	88
134	9
135	3
136	4
137	1
138	2
139	0
141	0
142	2
143	9
144	129
145	120
146	41
147	11
148	2
149	6
150	50
151	4
152	2
155	0
156	0
157	2
158	3
159	12
160	69
161	139
162	18
163	3
164	6
165	23
166	2
167	0
170	1
171	1
172	0
173	1
174	6
175	11
176	3
177	20
178	11
179	1
180	0
186	1
187	1
188	2
189	2
190	3
192	201
193	23
194	9
195	0
201	4
202	16
203	9
204	3
205	0
207	1
208	0
215	1
217	17
219	373
220	44
221	18
222	1
228	0
230	0
231	3
234	260
235	30
236	12
237	1
244	0
246	2
247	0
259	7
262	299
263	39
264	15
265	1
