Mass Spectrum: N-[3-Isoquinolyl]-3-diethylaminopropylamine
Formula: C16H23N3
CAS: 28662-41-1
Molecular weight: 257
m/z	intensity
41	80
42	164
43	70
44	83
45	14
46	3
47	2
48	1
49	13
50	19
51	41
52	14
53	5
54	14
55	18
56	128
57	56
58	250
59	14
60	3
61	4
62	16
63	41
64	11
65	12
66	1
67	5
68	6
69	6
70	53
71	41
72	273
73	23
74	16
75	24
76	20
77	64
78	24
79	4
81	1
82	3
83	1
84	136
85	10
86	999
87	58
89	88
90	42
91	15
92	4
93	1
95	0
96	2
97	2
98	79
99	13
100	58
101	51
102	37
103	20
104	38
105	4
111	2
112	189
113	60
114	16
115	18
116	52
117	111
118	17
119	0
121	10
126	3
127	14
128	160
129	88
130	73
131	9
132	2
140	2
141	2
142	9
143	11
144	65
145	48
146	30
147	15
149	13
152	0
154	3
155	4
156	21
157	205
158	66
159	7
160	2
167	7
168	11
169	97
170	39
171	140
172	17
173	4
174	11
175	2
179	0
180	3
181	4
182	1
183	26
184	30
185	42
186	15
187	2
197	1
212	1
228	8
229	8
230	2
240	2
242	0
257	66
258	19
259	2
