Mass Spectrum: 6-APB
Formula: C11H13NO
CAS: 286834-84-2
Molecular weight: 175
m/z	intensity
40	8
41	14
42	54
44	999
45	28
50	26
51	55
52	15
53	13
54	4
55	2
56	8
57	3
59	2
61	6
62	25
63	61
64	16
65	21
66	18
67	2
68	1
72	2
73	2
74	25
75	30
76	45
77	230
78	35
79	7
80	10
85	2
86	8
87	13
88	6
89	31
90	8
91	10
92	2
93	1
94	1
98	5
99	2
100	1
101	13
102	86
103	47
104	38
105	11
106	2
113	3
114	3
115	28
116	5
117	13
118	9
119	1
126	3
127	14
128	28
129	24
131	371
132	253
133	25
134	2
140	1
142	2
143	4
144	7
145	9
146	10
147	1
155	2
156	3
157	8
158	14
159	10
160	15
161	2
170	4
171	3
172	3
173	8
174	7
175	39
176	5
