Mass Spectrum: 5-APB
Formula: C11H13NO
CAS: 286834-80-8
Molecular weight: 175
m/z	intensity
40	4
41	7
42	42
44	999
45	26
49	1
50	24
51	65
52	19
53	14
54	3
55	2
56	5
57	3
59	2
61	4
62	17
63	43
64	9
65	15
67	1
72	1
73	2
74	18
75	25
76	32
77	188
78	29
79	7
80	8
85	2
86	5
87	9
88	4
89	24
90	7
91	10
92	2
93	1
98	3
99	1
100	1
101	11
102	74
103	48
104	31
105	11
106	2
113	3
114	3
115	26
116	5
117	9
118	8
119	1
126	2
127	13
128	28
129	18
131	317
132	117
133	13
134	1
142	1
143	3
144	7
145	2
146	4
155	2
156	2
157	6
158	10
159	8
160	20
161	2
172	3
173	8
174	7
175	30
176	4
