Mass Spectrum: Tetrazolo[1,5-b]pyridazine, 6-chloro-7-methyl-
Formula: C5H4ClN5
CAS: 28691-22-7
Molecular weight: 169
m/z	intensity
26	100
27	190
28	200
36	80
37	120
38	110
39	100
49	120
50	210
51	410
52	180
62	80
63	60
73	60
75	70
76	90
77	100
78	999
79	70
86	90
169	20
171	5
