Mass Spectrum: 1,3,4,6-Tetra-O-benzyl-d-mannitol
Formula: C34H38O6
CAS: 28697-78-1
Molecular weight: 542
m/z	intensity
41	12
42	4
43	19
44	12
45	8
46	1
49	0
50	6
51	13
52	4
53	2
54	0
55	7
56	4
57	10
58	5
59	2
60	2
61	3
62	4
63	14
65	85
66	4
67	1
68	1
69	28
70	3
71	7
73	13
74	3
75	2
76	0
77	24
78	0
79	31
80	1
81	5
82	2
83	4
84	0
85	10
86	3
87	9
89	21
91	999
92	160
93	26
95	1
96	2
97	3
98	1
99	8
100	4
101	1
102	0
103	16
104	24
105	21
106	0
107	69
108	14
109	1
111	4
112	0
113	3
114	1
115	6
116	2
117	13
118	3
119	6
120	2
121	6
122	0
123	0
127	2
129	14
130	2
131	13
133	31
134	3
135	0
139	0
141	0
142	0
143	2
145	14
146	8
147	10
148	12
149	5
150	3
151	3
152	1
155	1
157	3
158	0
159	8
160	23
161	5
163	168
164	19
165	19
166	2
167	6
168	1
169	5
170	2
171	0
172	0
173	2
175	13
176	3
177	5
178	2
179	22
180	2
181	214
182	34
183	3
187	2
188	1
189	3
190	2
191	2
193	21
194	3
195	1
196	0
197	9
198	1
199	2
201	2
202	1
203	1
204	1
205	6
206	1
207	2
209	0
211	0
217	1
219	19
220	0
221	4
222	0
223	7
224	1
235	3
236	0
237	2
239	0
240	0
241	0
247	0
249	0
251	0
253	48
254	9
255	3
256	0
257	0
264	3
265	4
266	1
267	1
269	3
270	1
271	12
272	2
280	0
281	0
283	6
284	2
285	0
287	0
295	1
301	0
309	0
310	3
311	0
313	36
314	7
315	2
325	1
326	0
327	1
341	1
343	4
345	47
346	9
347	1
359	0
361	1
391	6
392	1
403	4
404	0
414	2
433	3
434	0
451	72
452	20
453	4
464	0
502	3
542	3
543	0
