Mass Spectrum: Tricyclo[4.1.0.0(2,7)]heptane
Formula: C7H10
CAS: 287-13-8
Molecular weight: 94
m/z	intensity
24	2
26	27
27	140
28	13
29	21
30	0
31	3
33	0
36	0
37	14
38	37
39	258
40	69
41	115
42	46
43	6
44	2
45	15
46	4
48	0
49	4
50	40
51	80
52	38
53	76
54	27
55	14
56	13
57	1
60	1
61	7
62	16
63	33
64	6
65	103
66	329
67	73
68	22
69	1
70	0
71	10
72	8
73	1
74	4
75	2
76	1
77	375
78	64
79	999
80	64
81	11
82	1
83	0
84	0
85	1
86	2
87	0
89	5
90	1
91	156
92	28
93	101
94	128
95	10
96	3
97	0
