Mass Spectrum: Carbamic acid, (3-chloro-4-hydroxyphenyl)-, 1-methylethyl ester
Formula: C10H12ClNO3
CAS: 28705-96-6
Molecular weight: 229
m/z	intensity
43	999
44	30
45	270
46	10
78	100
79	120
80	110
113	50
114	40
115	70
142	230
143	960
144	170
145	340
146	50
169	260
170	260
171	110
172	100
187	670
188	90
189	240
190	30
229	570
230	90
231	200
232	30
