Mass Spectrum: Tri-O-acetyl-D-glucal
Formula: C12H16O7
CAS: 2873-29-2
Molecular weight: 272
m/z	intensity
54	60
60	320
68	100
69	80
73	33
80	80
81	400
85	60
86	270
97	999
102	10
110	999
127	50
128	220
139	900
144	10
145	70
152	360
170	100
199	20
229	30
