Mass Spectrum: Iron(iii) 1,1,1-trifluoroacetylacetonate
Formula: C15H12F9FeO6
CAS: 28736-69-8
Molecular weight: 515
m/z	intensity
14	4
15	25
20	1
25	1
26	6
27	49
28	44
29	9
31	8
32	2
33	2
37	3
38	7
39	32
40	9
41	9
42	15
43	999
44	24
45	4
47	3
50	3
51	5
53	11
54	4
55	102
56	25
57	5
58	1
59	9
63	5
64	1
65	3
66	4
67	287
68	15
69	221
70	8
71	10
72	3
73	8
75	19
76	1
77	3
81	3
82	4
83	8
84	9
85	92
86	6
87	111
88	6
89	3
90	1
91	15
92	1
93	1
94	1
95	3
96	1
97	18
98	1
99	1
100	1
101	2
102	1
103	2
104	2
105	7
106	1
107	3
109	1
111	4
112	50
113	3
114	3
115	201
116	13
117	9
118	1
119	19
120	2
121	2
125	2
127	1
128	3
129	1
131	4
132	1
133	1
134	1
137	3
138	2
139	41
140	2
141	3
143	1
146	3
147	24
148	1
149	11
150	1
151	1
153	7
154	42
155	4
156	1
157	50
158	5
159	763
160	52
161	7
162	3
163	3
166	2
176	3
177	3
178	27
179	4
180	3
181	35
182	2
183	5
185	1
187	1
188	13
189	3
190	1
193	1
197	2
199	1
200	2
201	4
203	3
205	1
207	16
208	5
209	192
210	14
211	4
212	2
213	10
214	1
215	3
216	4
218	2
221	2
223	9
224	1
225	5
226	5
227	3
228	52
229	5
231	10
232	1
233	5
235	1
241	3
243	40
244	5
245	2
247	1
248	2
249	3
250	22
251	9
252	1
262	5
263	1
265	2
268	1
269	3
270	3
271	1
272	1
273	1
275	1
277	2
283	1
284	1
285	2
287	1
290	1
291	9
292	12
293	148
294	17
295	3
296	2
297	1
300	6
301	1
302	3
308	1
310	12
311	2
312	187
313	22
314	4
315	2
319	1
327	3
329	2
333	6
334	6
335	1
343	3
344	1
345	1
347	15
348	2
354	1
356	1
360	39
361	5
362	604
363	81
364	11
365	2
369	4
371	2
375	1
402	1
431	1
434	6
435	1
446	2
471	1
473	11
474	2
496	1
513	3
515	44
516	8
517	1
