Mass Spectrum: Pyrido[2,3-d]pyrimidine, 4-chloro-
Formula: C7H4ClN3
CAS: 28732-79-8
Molecular weight: 165
m/z	intensity
76	130
77	380
78	80
104	999
105	110
130	630
131	80
165	780
166	90
167	260
168	40
