Mass Spectrum: 3,6,13,16-Tetrathiatricyclo[16.2.2.2(8,11)]tetracosa-8,10,18,20,21,23-hexaene
Formula: C20H24S4
CAS: 28738-01-4
Molecular weight: 392
m/z	intensity
26	6
27	21
29	0
33	1
34	3
35	5
36	0
37	0
38	3
39	28
41	3
42	0
44	1
45	56
46	8
47	5
48	0
49	0
50	10
51	32
52	15
53	6
54	0
57	0
58	6
59	13
60	11
61	89
62	5
63	20
64	23
65	33
66	3
67	0
68	0
69	4
70	1
71	1
72	0
73	2
74	2
75	5
76	6
77	53
78	107
79	12
80	0
81	0
82	1
83	0
84	1
85	0
86	0
87	1
88	0
89	21
90	13
91	240
92	37
93	3
94	3
95	1
96	0
97	2
98	1
99	0
101	1
102	12
103	98
104	999
105	176
106	14
107	1
108	1
109	1
110	1
111	0
112	0
113	0
114	0
115	3
116	1
117	7
118	3
119	1
120	1
121	14
122	12
123	16
124	10
125	1
126	1
127	0
128	1
129	4
130	2
131	1
132	0
133	1
134	16
135	109
136	238
137	101
138	19
139	4
140	0
143	0
147	2
148	1
149	6
150	29
151	5
152	0
153	7
154	3
155	1
156	0
160	0
161	2
162	2
163	9
164	5
165	5
166	14
167	35
168	26
169	10
170	3
171	0
172	0
178	0
179	0
180	0
181	4
182	1
183	1
184	0
185	0
186	0
189	0
191	0
192	0
193	1
194	30
195	60
196	199
197	82
198	25
199	7
200	2
201	0
202	0
203	0
205	0
206	2
207	12
208	9
209	2
210	0
211	0
212	0
213	0
214	1
215	0
222	0
223	0
225	1
226	3
227	32
228	40
229	18
230	6
231	2
232	0
238	1
239	8
240	6
241	2
242	0
243	0
253	0
255	2
256	0
257	3
258	0
259	1
260	2
261	0
262	0
263	0
265	0
267	0
268	0
270	0
271	8
272	8
273	2
274	1
275	0
285	0
286	0
287	34
288	122
289	27
290	26
291	3
292	1
293	0
294	0
298	7
299	7
300	3
301	1
302	0
303	0
304	1
331	1
332	1
333	0
334	0
359	2
360	0
361	0
364	0
366	0
390	0
391	0
392	130
393	34
394	30
395	5
396	2
397	0
