Mass Spectrum: [1,1'-Bicyclohexyl]-2-one, 1'-hydroxy-
Formula: C12H20O2
CAS: 28746-99-8
Molecular weight: 196
m/z	intensity
26	10
27	112
28	12
29	109
30	4
31	27
38	2
39	84
40	20
41	230
42	94
43	138
44	13
45	70
47	3
52	1
53	40
54	17
55	280
56	24
57	31
58	4
59	4
60	3
61	22
63	2
65	7
66	6
67	50
68	13
69	63
70	145
71	29
73	32
80	22
81	200
82	20
83	158
84	14
85	4
91	1
92	7
93	14
94	11
95	16
96	15
97	99
98	999
99	265
100	17
108	0
109	6
111	9
112	15
120	1
121	6
122	9
125	92
126	10
134	8
135	75
136	18
137	3
140	168
141	14
149	126
150	19
153	84
154	18
167	5
177	3
178	268
179	38
196	71
197	9
