Mass Spectrum: Quinoline, N-benzoyl-1,2,3,4-tetrahydro-
Formula: C16H15NO
CAS: 28748-92-7
Molecular weight: 237
m/z	intensity
38	18
39	61
40	241
41	73
43	115
45	46
46	18
48	8
50	34
51	94
52	24
53	21
54	18
55	59
56	29
57	26
58	10
60	21
63	17
64	19
65	21
66	10
67	24
68	14
69	24
70	17
71	12
74	12
75	17
76	34
77	437
78	69
79	29
81	19
82	14
83	17
84	12
89	15
90	10
91	38
93	18
94	9
95	16
96	10
97	12
98	15
99	19
100	40
101	55
102	26
103	35
104	29
105	999
106	103
107	14
115	22
117	22
128	20
129	20
130	50
131	51
132	27
143	41
144	23
145	17
146	28
234	12
236	31
