Mass Spectrum: Spiro[3-phenyl-1,4,2dioxazolin-5,2'-bornan]
Formula: C17H21NO2
CAS: 287488-39-5
Molecular weight: 271
m/z	intensity
12	1
13	1
14	4
15	37
16	3
17	25
18	86
26	19
27	259
28	59
29	238
30	10
31	4
32	0
36	1
37	9
38	31
39	378
40	81
41	999
42	97
43	410
44	16
45	8
46	1
47	1
48	0
49	4
50	70
51	180
52	53
53	213
54	54
55	669
56	64
57	64
58	21
59	15
60	2
61	4
62	16
63	70
64	97
65	117
66	36
67	452
68	330
69	424
70	68
71	123
72	11
73	4
74	11
75	21
76	82
77	464
78	48
79	165
80	64
81	486
82	228
83	429
84	57
85	26
86	60
87	7
88	6
89	15
90	14
91	207
92	41
93	320
94	48
95	592
96	68
97	118
98	62
99	16
100	8
101	1
103	219
104	166
105	299
106	31
107	244
108	778
109	598
110	81
111	257
112	31
113	6
114	1
115	8
116	3
117	6
118	4
119	142
120	46
121	31
122	23
123	37
124	25
125	147
126	380
127	38
128	6
129	6
130	3
131	3
132	2
133	7
134	3
135	70
136	14
137	72
138	9
139	5
140	22
141	5
142	4
143	4
144	4
145	6
146	3
147	2
148	3
149	32
150	6
151	16
152	41
153	187
154	19
155	3
156	3
157	2
158	1
159	2
160	5
161	9
162	4
163	3
164	10
165	3
166	3
167	5
168	4
169	4
170	1
171	3
172	2
173	2
174	3
175	1
177	4
178	1
179	1
182	4
183	1
186	4
187	2
188	1
189	3
195	4
197	1
198	2
200	12
201	3
202	1
205	20
206	4
212	3
214	3
220	6
222	3
223	1
225	2
227	3
228	1
258	1
271	146
272	31
273	12
274	2
