Mass Spectrum: Acetic acid, trifluoro-, 3,7-dimethyloctyl ester
Formula: C12H21F3O2
CAS: 28745-07-5
Molecular weight: 254
m/z	intensity
27	150
29	230
39	120
41	550
42	260
43	999
53	60
54	40
55	740
56	450
57	640
58	20
67	40
68	40
69	510
70	720
71	340
81	60
82	40
83	260
84	150
85	90
96	60
97	130
111	90
125	40
140	40
169	20
