Mass Spectrum: 2-Hydroxy-4,4,6-trimethylcyclohexa-2,5-dienone
Formula: C9H12O2
CAS: 28750-52-9
Molecular weight: 152
m/z	intensity
27	22
31	24
38	14
39	120
40	24
41	83
43	121
50	23
51	50
52	23
53	95
54	21
55	50
61	109
62	19
63	33
64	11
65	95
66	32
67	74
68	11
69	72
75	11
77	106
78	23
79	188
80	29
81	195
82	16
89	9
90	11
91	141
92	12
93	20
94	54
95	71
96	16
105	27
106	17
107	81
108	37
109	999
110	141
111	11
123	218
124	563
125	45
133	11
134	9
135	8
137	234
138	25
151	6
152	224
153	19
