Mass Spectrum: .alpha.-d-Lyxopyranoside, methyl 2,3,4-tri-O-methyl-
Formula: C9H18O5
CAS: 2876-90-6
Molecular weight: 206
m/z	intensity
41	119
42	49
43	112
45	370
53	34
55	59
56	21
57	29
58	117
59	54
69	34
71	66
73	327
74	34
75	559
83	36
85	42
88	999
89	58
99	36
101	999
102	52
111	8
115	67
129	3
131	12
143	15
175	18
176	61
177	5
