Mass Spectrum: 4-Pentenenitrile, 2-methylene-
Formula: C6H7N
CAS: 28769-50-8
Molecular weight: 93
m/z	intensity
13	7
14	18
15	42
17	3
18	13
24	4
25	16
26	96
27	226
28	55
29	11
31	10
32	2
36	10
37	102
38	165
39	600
40	231
41	360
42	32
43	2
44	2
46	2
48	3
49	14
50	46
51	91
52	110
53	142
54	43
55	2
60	5
61	21
62	28
63	52
64	75
65	220
66	999
67	89
68	3
74	2
75	8
76	8
77	3
78	33
79	2
87	2
88	2
90	3
91	15
92	208
93	273
94	20
95	1
