Mass Spectrum: Lyxopyranoside, methyl 2,3,4-tri-O-methyl-, .beta.-D-
Formula: C9H18O5
CAS: 2876-84-8
Molecular weight: 206
m/z	intensity
41	147
42	43
43	141
45	456
53	24
55	73
56	27
57	45
58	134
59	64
69	42
71	92
73	332
74	48
75	494
83	40
85	48
88	999
89	62
99	43
101	875
102	49
111	10
115	58
129	6
131	10
143	20
175	27
176	107
177	9
