Mass Spectrum: Nickel(II) bis(N,N-dioctyldithiocarbamate)
Formula: C34H68N2NiS4
CAS: 28771-03-1
Molecular weight: 690
m/z	intensity
41	555
42	249
43	999
44	846
45	86
46	7
47	15
51	10
52	7
53	59
54	58
55	461
56	301
57	640
58	92
59	13
60	21
61	10
62	18
64	9
65	11
66	6
67	68
68	56
69	270
70	201
71	275
72	53
73	19
74	33
75	19
76	326
77	12
78	34
79	13
80	13
81	34
82	56
83	56
84	131
85	56
86	36
87	9
88	42
89	26
90	7
91	11
93	9
94	13
95	16
96	37
97	18
98	73
99	13
100	26
101	13
102	13
103	6
108	9
109	9
110	21
111	10
112	69
113	13
114	43
115	79
116	13
117	6
123	6
124	17
125	7
126	53
127	8
128	131
129	23
130	10
132	7
137	6
138	46
139	19
140	227
141	39
142	807
143	235
144	25
152	16
153	10
154	138
155	19
156	46
157	6
158	15
164	6
165	9
166	22
167	7
168	69
169	11
170	29
172	34
174	9
178	6
180	18
181	9
182	29
183	16
184	44
185	7
186	19
187	6
192	10
193	6
194	24
195	6
196	67
197	8
198	64
200	13
201	6
208	18
210	19
212	42
213	8
214	9
222	13
224	58
225	10
226	16
228	17
229	6
230	7
236	6
238	13
240	77
241	47
242	14
250	18
251	6
252	329
253	79
254	11
256	16
266	10
268	19
270	6
280	53
281	12
282	16
284	72
285	12
294	10
306	9
316	9
317	6
336	19
337	6
379	9
455	8
602	6
606	7
608	4
634	28
635	7
636	15
637	6
638	5
658	8
659	4
660	6
662	19
663	8
664	11
665	4
690	49
691	13
692	24
693	5
694	3
