Mass Spectrum: trans-2,5-Dioxabicyclo[4.4.0]decan-3-one
Formula: C8H12O3
CAS: 28783-02-0
Molecular weight: 156
m/z	intensity
27	148
28	426
29	106
31	46
38	14
39	204
40	37
41	361
42	140
43	84
44	46
51	37
52	17
53	51
54	398
55	93
56	15
57	56
58	15
65	28
66	10
67	999
68	56
69	74
70	28
71	46
77	37
78	19
79	51
80	42
81	74
82	463
83	46
84	65
85	10
97	46
111	19
112	23
127	10
128	18
156	20
