Mass Spectrum: Benzaldehyde, 4-propyl-
Formula: C10H12O
CAS: 28785-06-0
Molecular weight: 148
m/z	intensity
14	2
15	18
26	25
27	173
29	183
37	5
38	24
39	172
40	10
41	78
42	3
43	3
50	68
51	125
52	24
53	14
61	7
62	35
63	112
64	28
65	179
66	10
74	23
75	22
76	22
77	115
78	44
79	25
86	6
87	9
89	116
90	109
91	999
92	108
93	5
102	13
103	32
104	10
105	53
106	4
107	20
108	1
115	39
116	6
117	15
118	9
119	496
120	65
131	6
133	15
147	256
148	401
149	40
