Mass Spectrum: N-Benzyl-N'-(2,6-dichloro-4-pyridyl)urea
Formula: C13H11Cl2N3O
CAS: 287928-12-5
Molecular weight: 295
m/z	intensity
33	0
35	8
36	17
37	24
38	31
39	97
40	31
41	35
42	7
43	9
44	15
45	2
46	2
47	9
48	4
49	16
50	63
51	123
52	61
53	14
54	4
55	5
56	11
57	3
58	1
60	16
61	9
62	29
63	53
64	53
65	211
66	35
67	18
68	4
69	2
70	1
71	3
72	9
73	30
74	27
75	28
76	34
77	146
78	68
79	87
80	9
81	2
82	1
83	4
84	5
85	33
86	19
87	15
88	9
89	38
91	999
92	88
93	20
94	4
95	1
96	0
97	2
98	7
99	6
100	21
101	4
102	8
104	95
105	71
106	147
107	31
108	3
109	2
110	16
111	4
112	8
113	3
114	2
115	2
116	1
117	1
118	0
119	1
120	1
121	0
122	0
123	0
125	24
126	9
127	84
128	10
129	25
130	4
132	45
133	54
134	20
135	6
136	10
137	3
138	2
139	1
140	1
141	3
142	1
143	1
146	15
147	4
148	9
149	4
150	2
151	1
152	4
153	26
154	4
155	9
156	1
157	0
159	0
160	4
162	384
163	193
164	246
165	116
166	44
167	18
168	3
169	1
170	0
171	1
173	1
174	5
175	4
176	7
177	3
178	4
179	1
180	1
181	1
182	1
185	0
188	36
189	10
190	21
191	6
192	4
193	1
194	0
195	0
200	2
201	1
202	2
203	2
204	3
205	1
206	2
207	0
208	0
210	0
215	1
216	2
217	3
218	1
219	1
223	0
224	0
228	0
231	0
233	0
237	0
239	0
242	0
243	0
245	1
247	0
249	0
251	5
252	2
253	3
254	2
255	1
259	0
260	2
261	0
262	0
263	0
265	1
267	1
278	2
279	1
280	6
281	1
282	3
283	1
284	0
295	280
296	51
297	167
298	27
299	29
300	4
301	0
