Mass Spectrum: N-(2,4-Dichlorobenzyl)-N'-isopropyl-N-(pyridin-3-ylmethyl)urea
Formula: C17H19Cl2N3O
CAS: 287917-49-1
Molecular weight: 351
m/z	intensity
33	1
35	8
36	25
37	8
38	36
39	275
40	46
41	210
42	117
43	401
44	123
45	5
46	5
49	3
50	26
51	61
52	46
53	25
54	10
55	18
56	33
57	15
58	160
59	6
60	5
61	5
62	20
63	80
64	44
65	323
66	36
67	13
68	3
69	8
70	72
71	6
72	4
73	27
74	14
75	36
76	11
77	16
78	53
79	109
80	144
81	10
82	2
83	5
84	10
85	16
86	18
87	11
89	116
90	19
92	680
93	700
94	67
95	5
96	4
97	12
99	30
100	8
101	10
102	9
103	3
104	8
105	31
107	999
108	70
109	13
110	6
111	32
112	8
113	12
114	3
115	3
116	2
117	7
118	9
119	50
120	12
121	67
122	12
123	94
124	46
125	76
126	18
127	15
128	2
129	1
130	1
131	3
133	87
134	15
135	31
136	12
137	5
138	11
139	14
140	10
141	6
142	2
143	1
145	9
146	7
147	14
148	7
149	9
150	6
151	4
152	5
153	2
154	2
155	1
159	542
160	61
161	327
162	30
163	52
164	7
165	3
166	23
167	13
168	9
169	2
170	1
171	4
172	15
174	534
175	59
176	312
177	27
178	50
179	5
180	2
181	8
182	2
183	4
184	1
185	1
186	4
188	36
189	5
190	23
192	369
193	43
194	6
195	3
196	1
197	0
198	2
200	41
201	10
202	34
203	7
204	9
205	2
206	1
209	1
213	2
214	4
215	2
216	2
217	2
218	1
222	0
223	6
224	2
225	4
226	2
227	2
228	3
229	11
230	7
231	33
232	8
233	10
234	2
236	9
237	9
238	7
239	6
240	2
241	1
245	0
247	0
248	2
249	1
250	2
251	2
252	1
253	1
256	1
257	4
259	120
260	19
261	75
262	10
263	19
264	6
265	52
266	15
267	34
268	8
269	6
270	1
272	0
273	1
274	5
275	1
276	1
277	0
278	0
281	3
282	2
283	0
284	1
285	0
291	1
292	2
293	34
295	27
296	3
297	4
298	0
300	1
308	0
316	286
317	58
318	90
319	17
320	2
336	1
338	0
351	41
352	10
353	27
354	6
355	5
356	0
