Mass Spectrum: N-(4-Chlorobenzyl)-N'-methyl-N-(pyridin-3-ylmethyl)thiourea
Formula: C15H16ClN3S
CAS: 287918-60-9
Molecular weight: 305
m/z	intensity
33	3
34	1
35	3
36	13
37	8
38	39
39	258
40	33
41	30
42	67
43	13
44	38
45	86
46	10
47	35
48	2
49	7
50	29
51	58
52	26
53	23
54	8
55	19
56	7
57	33
58	7
59	14
60	31
61	7
62	24
63	116
64	55
65	217
66	22
67	8
68	3
69	17
70	13
71	12
72	34
73	72
74	429
75	53
76	30
77	65
78	50
79	26
80	93
81	8
82	2
83	5
84	4
85	5
86	4
87	7
89	164
90	57
91	38
92	228
93	180
94	20
95	3
96	6
97	12
99	55
100	4
101	17
102	7
103	5
104	14
105	41
107	999
108	67
109	4
110	4
111	15
112	10
113	36
114	6
115	12
116	4
117	5
118	9
119	20
120	6
121	15
122	12
123	9
124	40
125	285
126	31
127	93
128	9
129	2
130	1
132	14
133	2
134	0
135	1
136	1
137	6
138	19
140	594
141	53
142	187
143	18
144	2
145	5
146	7
147	3
148	8
149	16
150	6
151	12
152	11
153	3
154	8
155	11
156	4
157	17
158	2
159	6
164	1
165	8
166	3
167	8
168	2
169	2
170	1
171	5
172	1
177	1
178	3
180	246
181	29
182	21
183	5
184	15
185	3
186	5
193	1
194	0
195	2
197	10
198	1
199	0
201	0
202	1
203	2
205	0
213	133
214	17
215	47
216	5
217	3
229	4
231	19
232	8
233	5
234	3
270	4
272	14
273	3
274	3
275	2
277	1
283	1
303	0
305	252
306	53
307	91
308	16
309	4
