Mass Spectrum: 6H-Pyrido[2,3-b][1,4]benzodiazepin-6-one, 5,11-dihydro-11-[(4-methyl-1-piperazinyl)acetyl]-
Formula: C19H21N5O2
CAS: 28797-61-7
Molecular weight: 351
m/z	intensity
39	21
41	19
42	102
43	66
55	12
56	76
57	36
58	34
63	21
65	21
69	6
70	396
71	68
73	21
75	8
77	46
79	29
82	29
83	51
84	38
91	25
93	10
97	14
98	55
99	68
102	42
105	14
107	10
109	21
111	42
112	25
113	999
114	76
115	19
117	21
119	19
129	25
130	21
133	2
135	16
140	25
141	51
145	21
154	21
155	34
156	19
157	21
182	42
183	29
194	25
195	10
196	34
197	14
207	19
208	8
210	25
211	151
212	38
224	21
251	34
252	29
253	8
254	10
282	2
283	21
294	21
295	29
308	21
351	46
