Mass Spectrum: 4a,8a-Naphthalenediol, octahydro-, cis-
Formula: C10H18O2
CAS: 28795-95-1
Molecular weight: 170
m/z	intensity
15	39
17	20
18	83
19	26
26	20
27	428
28	81
29	428
30	27
31	428
38	13
39	428
40	74
41	828
42	94
43	357
44	357
45	20
46	7
47	43
50	19
51	74
52	37
53	243
54	400
55	571
56	64
57	328
58	999
59	59
60	27
61	6
62	6
63	21
64	9
65	96
66	96
67	828
68	229
69	257
70	243
71	200
72	11
73	24
74	9
75	7
77	171
78	129
79	614
80	214
81	628
82	171
83	200
84	157
85	27
86	11
87	31
88	6
89	7
91	300
92	243
93	557
94	157
95	971
96	257
97	186
98	34
99	7
102	6
103	13
104	20
105	107
106	101
107	59
108	900
109	200
110	129
111	157
112	43
113	31
114	23
115	11
117	10
118	6
119	157
120	17
121	86
122	13
123	171
124	69
125	7
126	6
127	6
128	7
132	6
133	29
134	671
135	97
136	9
137	19
152	171
153	31
170	50
171	9
