Mass Spectrum: N-Benzyl-N'-isopropyl-N-(pyridin-3-ylmethyl)urea
Formula: C17H21N3O
CAS: 287918-56-3
Molecular weight: 283
m/z	intensity
33	1
34	1
35	0
36	3
37	5
38	27
39	266
40	44
41	187
42	95
43	290
44	100
45	6
46	2
47	0
48	0
50	30
51	85
52	46
53	22
54	8
55	17
56	28
57	16
58	110
59	5
60	5
61	2
62	9
63	51
64	44
65	419
66	36
67	11
68	3
69	7
70	47
71	6
72	2
73	3
74	3
75	5
76	12
77	73
78	59
79	130
80	77
81	7
82	2
83	5
84	5
85	8
86	8
87	2
89	38
91	991
92	515
93	410
94	43
95	5
96	3
97	4
98	1
99	2
101	1
102	2
103	5
104	38
106	999
107	735
108	52
109	3
110	1
111	1
112	1
113	2
114	1
115	4
116	2
117	6
118	15
119	33
120	38
121	53
122	6
123	1
125	0
126	0
127	1
128	1
129	1
130	1
132	72
133	36
134	14
135	16
136	1
139	2
140	1
141	1
142	0
143	0
144	0
146	1
147	3
148	3
149	7
150	3
151	0
152	1
153	1
154	1
155	0
156	0
157	0
159	0
162	1
163	1
164	0
165	0
166	2
167	10
168	11
169	8
170	3
171	2
175	0
176	1
178	0
179	1
180	8
181	3
182	1
183	3
184	0
191	316
192	218
193	28
194	4
195	28
196	13
197	74
198	15
199	2
205	0
223	3
225	44
226	7
227	0
240	2
268	1
269	0
281	1
283	104
284	19
285	2
