Mass Spectrum: Benzenesulfonamide, 3-nitro-N-phenyl-
Formula: C12H10N2O4S
CAS: 28791-26-6
Molecular weight: 278
m/z	intensity
27	2
28	9
30	2
32	1
37	2
38	9
39	59
40	6
41	6
43	1
44	2
45	1
48	2
50	43
51	15
52	10
53	2
54	1
55	1
57	1
61	1
62	5
63	28
64	39
65	294
66	25
67	2
69	2
70	3
71	1
73	1
74	10
75	30
76	60
77	14
78	3
79	2
80	1
81	1
83	1
88	1
89	1
90	3
91	32
92	999
93	115
94	6
95	2
96	3
97	1
106	2
108	1
113	1
114	1
115	4
122	18
123	2
124	4
126	1
127	1
128	2
129	1
139	7
140	6
141	4
149	2
152	1
153	1
154	2
155	1
156	1
166	14
167	31
168	14
169	2
170	11
171	1
179	1
180	1
183	2
184	1
186	4
187	3
196	5
197	7
198	1
213	10
214	4
232	1
248	6
262	4
278	504
279	74
280	31
281	4
