Mass Spectrum: 4H-Pyran-4-one, 2-methoxy-3,5-dimethyl-6-(tetrahydro-4-hydroxy-2-furyl)-
Formula: C12H16O5
CAS: 28796-15-8
Molecular weight: 240
m/z	intensity
26	120
27	700
28	930
29	250
30	50
31	290
32	50
38	50
39	420
40	120
41	540
42	100
43	999
44	120
45	120
50	80
51	190
52	120
53	200
54	70
55	520
56	80
57	120
58	30
59	200
60	20
61	50
65	180
66	130
67	210
68	60
69	240
70	40
76	60
77	330
78	80
79	190
80	50
81	180
82	80
83	740
84	50
85	120
86	100
87	240
91	290
92	40
93	140
94	50
95	130
103	270
104	150
105	80
106	30
107	90
108	50
109	190
110	50
111	220
112	30
113	80
114	30
115	130
119	50
120	40
121	200
122	50
123	110
124	50
125	130
126	50
133	70
134	30
135	130
136	30
137	120
138	90
139	200
140	40
141	30
146	50
147	80
148	20
149	160
150	40
151	150
152	50
153	200
154	50
155	40
165	100
166	80
167	80
168	310
169	50
178	20
179	700
180	130
181	840
182	130
183	160
184	30
195	80
196	440
197	80
198	20
209	20
210	30
211	20
223	130
224	20
225	90
226	20
239	40
240	680
241	110
242	10
