Mass Spectrum: Benzamide, N-(4-tert-butyl-2-nitrophenyl)-
Formula: C17H18N2O3
CAS: 287927-91-7
Molecular weight: 298
m/z	intensity
33	0
34	0
36	0
37	0
38	2
39	17
40	6
41	19
42	2
43	3
44	4
45	0
50	14
51	61
52	9
53	6
54	1
55	3
56	1
57	3
58	0
59	1
60	0
62	2
63	8
64	4
65	11
66	3
67	2
68	0
69	0
70	0
71	0
72	0
73	0
74	3
75	7
77	462
78	35
79	10
80	2
81	1
82	0
83	0
84	0
85	0
86	0
87	0
88	1
89	8
90	6
91	13
92	3
93	3
94	1
95	0
96	0
97	0
98	0
99	0
101	1
102	5
103	19
105	999
106	79
107	5
108	0
110	0
111	0
113	0
114	0
115	3
116	6
117	6
118	4
119	1
120	1
121	1
122	0
123	0
125	0
126	0
127	0
128	1
129	0
130	4
131	2
132	2
133	3
134	0
135	0
139	0
140	0
141	0
142	0
143	0
144	1
145	1
146	1
147	0
148	0
149	0
150	0
151	0
152	0
153	0
154	0
157	0
158	0
159	0
161	8
162	1
163	0
164	0
165	1
166	0
167	2
168	0
176	0
178	3
179	2
180	2
181	0
183	0
189	0
190	0
191	1
192	1
193	1
194	1
195	1
196	0
197	0
204	0
205	0
206	0
207	0
208	1
209	0
210	0
219	0
220	0
221	0
222	1
223	0
224	0
234	0
235	5
236	6
237	2
238	0
239	0
250	3
252	133
253	24
254	2
255	0
266	0
268	0
281	0
283	57
284	10
285	1
296	0
298	85
299	16
300	1
