Mass Spectrum: Thiourea,1-methyl-3-(3-pyridylmethyl)-3-(2-thienylmethyl)-
Formula: C13H15N3S2
CAS: 287917-20-8
Molecular weight: 277
m/z	intensity
33	3
34	3
35	4
37	10
38	46
39	314
40	27
41	30
42	76
43	9
44	34
45	301
46	17
47	60
48	2
49	5
50	23
51	61
52	42
53	167
54	15
55	22
56	6
57	55
58	29
59	22
60	32
61	5
62	16
63	76
64	48
65	236
66	28
67	10
69	68
70	40
71	34
72	39
73	60
74	444
75	28
76	27
77	10
78	53
79	26
80	109
81	10
82	8
83	12
84	17
85	177
86	10
87	9
88	2
89	2
90	8
92	307
93	133
94	17
95	19
96	50
97	503
98	47
99	26
100	2
101	2
102	1
103	3
104	4
105	30
107	999
108	71
109	7
110	29
112	902
113	62
114	41
115	16
116	2
117	5
118	8
119	25
120	10
121	8
122	12
123	6
124	33
125	6
126	7
127	12
128	5
129	46
130	7
131	6
132	13
133	2
134	1
135	2
137	16
138	2
139	1
140	1
141	2
142	2
143	1
144	1
145	1
146	7
147	4
148	9
149	18
151	17
152	5
153	8
154	24
155	4
156	11
157	3
158	1
159	1
160	0
163	0
169	4
170	1
171	2
172	1
173	2
174	2
175	1
176	1
177	0
180	294
181	29
182	14
183	4
185	227
186	24
187	20
188	2
189	1
190	0
199	0
200	0
201	5
202	2
203	11
204	7
205	1
206	0
229	1
230	0
243	0
244	4
245	3
246	0
247	0
277	335
278	50
279	27
280	4
281	1
