Mass Spectrum: N-(2,3-Dichlorobenzyl)-N'-methyl-N-(pyridin-3-ylmethyl)urea
Formula: C15H15Cl2N3O
CAS: 287918-55-2
Molecular weight: 323
m/z	intensity
35	8
36	19
37	10
38	46
39	313
40	36
41	33
42	27
43	17
44	52
45	3
49	6
50	43
51	97
52	54
53	35
54	10
55	19
56	27
57	40
58	350
59	17
60	4
61	9
62	32
63	107
64	56
65	349
66	40
67	14
69	35
70	6
71	5
72	4
73	33
74	25
75	52
76	18
77	26
78	64
79	71
80	123
81	12
82	3
83	7
84	10
85	13
86	8
87	17
89	129
90	25
91	49
92	536
93	378
94	41
95	4
97	19
99	33
100	11
101	10
102	13
103	6
104	12
105	33
107	999
108	76
109	19
110	12
111	41
112	11
113	14
114	5
115	2
116	1
117	8
118	10
119	30
120	8
121	57
123	103
124	48
125	84
126	19
127	18
128	2
133	67
134	11
135	22
136	14
137	7
138	15
139	15
140	24
141	8
142	6
143	1
145	12
146	9
147	16
148	9
149	13
150	4
151	6
152	6
153	4
154	8
155	1
156	1
159	273
160	33
161	167
162	20
163	39
164	266
165	28
166	18
167	10
168	5
171	2
172	12
174	250
175	29
176	141
177	16
178	22
179	5
186	2
187	1
188	17
189	2
190	10
192	3
193	4
195	34
197	25
198	3
199	5
200	15
201	6
202	16
203	4
204	5
214	1
215	1
229	6
231	50
232	10
233	22
234	3
235	3
236	2
237	4
238	1
251	1
253	2
254	2
257	1
263	4
264	2
265	15
266	5
267	9
268	1
286	12
288	395
289	71
290	123
291	19
293	5
294	1
295	2
323	3
325	2
