Mass Spectrum: 2-Methyl-5-nitroacetanilide
Formula: C9H10N2O3
CAS: 2879-79-0
Molecular weight: 194
m/z	intensity
43	999
77	240
79	200
94	130
104	140
106	500
122	40
151	10
152	930
177	210
194	260
