Mass Spectrum: Silacyclopentane
Formula: C4H10Si
CAS: 288-06-2
Molecular weight: 86
m/z	intensity
41	19
42	27
43	214
44	35
45	27
53	38
54	19
55	89
56	62
57	97
58	999
59	85
60	27
71	15
83	7
84	27
85	62
86	186
87	19
