Mass Spectrum: 1,2,3-Thiadiazole
Formula: C2H2N2S
CAS: 288-48-2
Molecular weight: 86
m/z	intensity
26	65
28	92
29	47
32	86
44	59
45	59
46	32
57	195
58	999
59	43
60	47
86	108
87	14
