Mass Spectrum: 1,2,5-Thiadiazole
Formula: C2H2N2S
CAS: 288-39-1
Molecular weight: 86
m/z	intensity
27	64
32	146
46	32
59	480
61	22
86	999
87	40
88	44
