Mass Spectrum: Androstan-3-one, 17-hydroxy-1,17-dimethyl-, (1.alpha.,5.alpha.,17.beta.)-
Formula: C21H34O2
CAS: 2881-21-2
Molecular weight: 318
m/z	intensity
34	1
36	0
37	2
38	5
39	113
40	85
41	658
42	148
43	999
44	120
45	87
46	2
47	0
49	0
50	6
51	21
52	14
53	192
54	56
55	607
56	63
57	219
58	129
59	40
60	26
61	9
62	1
63	6
64	4
65	93
66	42
67	587
68	160
69	539
70	77
71	491
72	99
73	30
74	15
75	4
76	8
77	239
78	60
79	514
80	106
81	624
82	106
83	154
84	49
85	111
86	16
87	14
88	7
89	8
90	8
91	459
92	86
93	503
94	140
95	470
96	100
97	113
98	33
99	28
100	5
101	8
102	9
103	31
104	25
105	394
106	145
107	448
108	196
109	300
110	51
111	83
112	21
113	20
114	4
115	40
116	17
117	76
118	64
119	255
120	114
121	307
122	137
123	392
124	107
125	90
126	15
127	15
128	24
129	39
130	17
131	94
132	45
133	174
134	73
135	153
136	109
137	194
138	135
139	35
140	5
141	14
142	10
143	36
144	18
145	115
146	50
147	168
148	53
149	125
150	34
151	61
152	13
153	5
154	2
155	8
156	7
157	54
158	39
159	242
160	79
161	294
162	134
163	156
164	26
165	16
166	3
167	4
168	2
169	5
170	3
171	28
172	148
173	110
174	483
175	202
176	70
177	59
178	18
179	22
180	4
181	4
182	1
183	4
184	1
185	19
186	14
187	44
188	22
189	71
190	61
191	26
192	8
193	5
194	1
195	0
196	0
197	5
198	2
199	63
200	13
201	29
202	10
203	21
204	8
205	7
206	2
207	2
208	1
209	1
210	1
211	7
212	3
213	13
214	159
215	139
216	51
217	19
218	9
219	5
220	0
221	1
222	0
223	1
224	0
225	4
226	2
227	26
228	11
229	85
230	48
231	17
232	25
233	14
234	6
235	1
236	1
238	0
239	2
240	1
241	2
242	11
243	31
244	22
245	62
246	12
247	20
248	13
249	3
250	0
251	0
252	1
253	1
254	0
255	0
256	1
257	5
258	33
259	7
260	26
261	84
262	15
263	1
264	0
266	0
267	7
268	1
269	1
271	2
272	0
273	0
275	1
276	0
279	0
280	0
281	0
282	3
283	1
284	1
285	70
286	15
287	1
288	0
290	0
299	1
300	49
301	11
302	2
303	15
304	3
317	0
318	40
319	9
320	1
