Mass Spectrum: Carbamic acid, N-(6-chloro-5-trifluoromethyl-3-pyridyl)-, 2-propynyl ester
Formula: C10H6ClF3N2O2
CAS: 288246-64-0
Molecular weight: 278
m/z	intensity
35	13
39	999
40	20
41	1
42	1
43	2
44	4
45	5
47	6
49	4
50	8
51	8
52	21
53	45
55	69
56	12
57	4
58	0
60	0
62	12
63	23
64	15
66	12
69	119
70	4
72	33
74	17
75	34
76	7
77	1
78	0
79	0
80	0
82	11
83	1
84	3
85	3
86	4
87	12
88	8
89	4
91	46
93	17
94	5
95	1
97	2
98	23
99	32
100	12
101	7
102	2
105	2
106	7
107	4
109	7
110	3
111	1
112	3
113	7
114	7
116	0
117	2
118	2
120	2
122	6
123	1
124	0
125	4
126	4
127	1
128	1
129	3
130	2
132	16
133	6
134	0
138	1
139	4
141	63
143	19
144	2
145	2
147	2
148	9
149	10
150	6
151	4
152	3
153	2
155	0
159	4
160	8
161	3
162	1
163	0
164	3
165	5
167	17
168	36
170	16
171	15
172	3
175	51
177	20
178	3
179	7
180	15
182	8
185	0
187	20
188	1
195	77
197	33
198	8
199	23
200	2
202	0
203	5
204	0
205	3
206	7
207	3
208	2
209	0
210	0
213	1
214	0
215	2
220	0
222	25
223	23
225	11
231	0
233	112
234	30
235	38
236	6
237	0
240	0
243	0
259	14
261	5
267	0
276	1
278	118
280	46
281	4
