Mass Spectrum: 1-Octanol, 2-nitro-
Formula: C8H17NO3
CAS: 2882-67-9
Molecular weight: 175
m/z	intensity
26	10
27	175
28	32
29	273
30	49
31	122
33	0
37	1
38	4
39	120
40	24
41	594
42	103
43	461
44	54
45	41
46	7
47	3
48	3
49	0
50	3
51	8
52	4
53	38
54	40
55	864
56	85
57	287
58	21
59	50
60	5
61	6
62	8
63	2
64	0
65	7
66	6
67	192
68	42
69	999
70	75
71	44
72	11
73	11
74	51
75	15
76	3
77	6
78	1
79	9
80	3
81	66
82	33
83	125
84	19
85	30
86	8
87	7
88	8
89	4
91	3
92	9
93	3
94	3
95	16
96	4
97	15
98	4
99	8
100	3
101	2
102	5
103	0
104	2
105	3
107	5
108	1
109	55
110	13
111	43
112	7
113	1
114	1
115	1
116	1
117	0
119	0
125	0
126	5
127	1
128	10
129	2
130	0
131	7
132	1
135	2
136	1
141	1
142	1
143	0
144	38
145	3
146	1
155	0
158	1
160	0
