Mass Spectrum: 1,2,4-Oxadiazol-5(4H)-one, 3-(2,3-dichlorophenyl)-4-(3-pyridyl)-
Formula: C13H7Cl2N3O2
CAS: 288246-51-5
Molecular weight: 307
m/z	intensity
34	6
35	607
37	136
38	330
39	181
40	39
41	34
42	16
44	49
45	120
47	236
48	46
50	461
51	502
52	75
53	9
56	19
57	5
60	35
61	60
62	65
63	190
64	448
65	492
66	139
67	9
69	4
70	43
71	8
72	63
73	176
74	361
75	347
76	111
78	999
79	46
81	2
82	143
84	227
85	101
86	99
87	71
88	37
90	37
92	563
94	21
96	30
97	49
98	61
99	102
100	332
101	30
105	15
107	16
109	243
110	64
111	73
112	15
113	21
114	44
115	13
117	436
119	523
120	154
121	104
122	27
124	218
125	42
126	16
127	14
133	81
135	34
136	345
138	131
139	20
144	18
145	102
147	76
148	7
149	12
150	5
158	13
159	36
160	4
161	38
163	8
165	37
166	14
171	380
172	210
173	258
174	121
175	37
176	29
185	11
186	38
187	49
188	28
189	22
193	174
194	10
200	7
201	46
202	13
212	7
228	345
229	61
230	74
236	80
237	20
238	43
239	7
240	6
249	8
261	13
263	961
264	188
265	568
266	144
267	29
269	9
272	91
273	35
274	22
283	2
307	611
309	445
310	55
311	61
