Mass Spectrum: 1,2,4-Oxadiazole, 5-(3-nitrophenyl)-3-phenyl-
Formula: C14H9N3O3
CAS: 28825-11-8
Molecular weight: 267
m/z	intensity
17	10
18	30
26	10
27	20
28	40
30	20
37	10
38	20
39	70
40	10
41	30
43	10
50	100
51	80
52	20
61	10
62	40
63	100
64	180
65	40
66	10
74	20
75	100
76	180
77	90
78	10
87	10
88	30
89	80
90	30
91	260
92	30
93	10
102	20
103	80
104	80
105	10
118	20
119	999
120	90
121	10
122	10
150	80
151	10
267	680
268	130
269	10
