Mass Spectrum: Carbamic acid, N-(5-trifluoromethyl-6-dimethylamino-3-pyridyl)-, 2-propynyl ester
Formula: C12H12F3N3O2
CAS: 288247-18-7
Molecular weight: 287
m/z	intensity
36	2
38	414
39	999
40	42
41	30
42	112
44	214
45	7
50	3
51	4
52	14
53	45
54	11
55	80
56	20
57	3
64	20
65	17
66	45
69	27
70	2
74	1
75	9
76	5
77	4
78	6
84	2
89	7
91	9
93	27
97	1
100	2
101	2
102	5
107	21
110	3
114	5
115	11
116	14
117	3
119	1
120	6
121	8
123	10
127	28
129	5
130	1
133	8
134	32
135	29
136	8
137	20
140	2
141	35
142	9
143	9
144	1
146	7
147	51
148	12
150	75
151	2
155	3
157	50
159	1
161	74
162	47
163	78
164	9
168	11
169	49
170	5
173	1
174	1
175	33
176	16
177	7
178	1
180	2
187	11
188	71
189	35
190	4
192	5
196	16
199	1
201	3
202	134
204	124
205	10
206	6
212	9
216	47
217	6
219	6
220	9
226	4
230	45
231	18
234	1
244	20
248	1
249	2
258	429
259	46
260	2
268	39
269	3
272	62
273	8
286	24
287	427
288	61
