Mass Spectrum: 1,2,4-Oxadiazol-5(4H)-one, 4-(2-methylphenyl)-3-(3-pyridyl)-
Formula: C14H11N3O2
CAS: 288246-54-8
Molecular weight: 253
m/z	intensity
37	23
38	76
39	152
41	42
42	4
45	139
46	0
50	353
51	415
52	160
53	30
54	4
55	1
60	0
61	25
62	71
63	161
64	146
65	277
66	35
67	8
73	0
74	27
75	111
76	273
77	456
78	406
79	59
80	5
85	0
86	6
87	11
89	192
91	282
92	48
93	20
95	0
99	3
100	4
102	36
104	999
105	495
106	37
107	2
111	0
112	0
114	6
116	54
117	29
118	11
119	5
120	11
121	3
126	1
127	10
128	5
129	16
131	133
132	43
133	19
135	1
138	8
139	9
140	8
141	6
142	9
143	1
145	1
148	24
149	81
151	4
152	0
153	3
154	24
155	10
156	5
157	1
164	1
165	5
166	7
167	13
168	15
169	7
179	6
180	10
181	113
182	63
183	14
192	13
193	15
194	13
195	20
196	3
206	18
208	514
209	73
210	11
211	1
221	0
230	0
236	0
242	3
243	0
244	1
253	303
255	3
