Mass Spectrum: Carbamic acid, N-[6-(2-methoxyethoxy)-3-pyridyl]-, 2-propynyl ester
Formula: C12H14N2O4
CAS: 288247-13-2
Molecular weight: 250
m/z	intensity
33	0
37	82
39	999
41	13
42	22
43	90
45	571
47	0
50	7
52	152
53	141
54	48
55	37
59	204
60	3
61	0
63	4
64	23
65	49
66	28
67	10
68	8
69	2
76	10
77	16
78	8
79	14
80	44
81	46
82	44
83	2
90	0
91	14
92	34
93	19
94	6
95	6
96	3
104	4
105	7
106	3
107	10
109	209
110	18
111	0
117	1
119	27
120	16
121	15
122	9
123	5
129	0
131	2
132	1
134	2
136	135
137	25
138	0
145	1
147	19
148	4
149	6
150	2
151	5
152	2
153	2
161	4
162	5
163	11
164	1
167	8
168	9
175	4
176	0
189	2
192	613
193	40
194	4
195	0
205	5
217	8
218	3
219	4
250	69
251	9
