Mass Spectrum: Carbamic acid, N-[5-trifluoromethyl-6-(4-morpholyl)-3-pyridyl]-, 2-propynyl ester
Formula: C14H14F3N3O3
CAS: 288247-19-8
Molecular weight: 329
m/z	intensity
33	6
37	59
39	999
41	44
42	24
43	22
44	8
45	13
46	0
47	0
50	1
52	30
53	25
54	24
55	51
56	34
57	18
58	15
59	1
60	1
63	9
64	16
65	32
66	12
67	4
69	25
70	4
71	1
72	2
75	16
76	7
77	8
78	13
79	3
80	1
81	1
82	4
83	2
84	8
86	71
88	13
89	6
90	7
91	14
92	9
93	9
94	3
96	7
97	2
98	1
99	1
100	4
101	7
102	10
103	2
104	4
105	5
106	16
107	18
108	3
109	3
110	4
111	4
113	9
114	29
115	11
116	5
117	2
118	5
119	7
120	11
121	9
122	9
123	8
124	1
125	1
126	7
127	17
128	13
129	7
130	2
131	4
132	8
133	23
134	71
135	11
136	2
137	1
138	1
140	17
141	56
142	9
143	7
144	2
145	3
146	8
147	21
148	22
149	7
151	5
152	4
153	4
154	6
155	20
156	4
157	1
158	2
159	6
161	162
162	26
163	4
165	1
166	2
167	6
168	12
169	24
170	11
171	3
172	5
173	5
174	10
175	15
176	8
177	3
178	2
179	3
180	3
181	3
182	14
183	2
184	3
185	2
188	238
189	41
190	8
191	2
192	4
193	0
194	0
195	2
196	9
197	1
198	2
199	9
200	7
201	7
202	16
203	7
204	9
205	2
206	9
207	1
208	4
209	0
210	2
211	0
212	0
213	2
214	7
215	16
216	40
217	6
218	3
219	1
220	1
222	1
223	1
224	2
225	2
226	5
228	34
229	6
230	7
232	3
233	2
234	2
235	0
238	0
239	1
240	1
242	22
244	145
245	21
246	43
247	8
248	0
252	1
253	1
254	4
255	0
256	0
258	13
259	10
260	18
261	2
262	0
266	0
268	1
270	18
271	83
272	129
273	22
274	2
275	0
282	1
284	124
285	74
286	37
287	4
288	0
290	0
291	0
295	0
296	0
298	82
299	24
300	6
301	4
302	0
310	34
311	7
312	1
314	6
315	0
328	108
329	146
330	25
331	2
