Mass Spectrum: Carbamic acid, N-(6-chloro-3-pyridyl)-, 2-propynyl ester
Formula: C9H7ClN2O2
CAS: 288247-10-9
Molecular weight: 210
m/z	intensity
35	21
37	214
38	451
39	999
40	36
41	4
43	6
44	8
45	5
47	18
49	20
50	18
51	18
52	34
53	96
54	22
55	78
56	2
60	2
62	15
63	40
64	77
65	26
66	13
67	1
73	228
75	90
76	21
77	3
85	6
90	3
91	19
92	40
93	3
99	26
100	141
101	22
102	36
103	6
104	5
112	10
113	0
114	3
115	0
119	16
127	259
128	14
129	83
130	4
138	12
153	3
154	29
155	53
156	3
157	17
158	1
165	174
166	15
167	56
168	8
172	1
173	0
174	0
208	1
210	330
211	33
212	107
213	10
