Mass Spectrum: Carbamic acid, N-[5-trifluoromethyl-6-(2-methoxyethoxy)-3-pyridyl]-, 2-propynyl ester
Formula: C13H13F3N2O4
CAS: 288247-20-1
Molecular weight: 318
m/z	intensity
33	2
35	0
37	88
39	999
41	9
43	111
45	574
47	0
49	0
50	2
52	72
53	38
54	12
55	26
56	9
59	221
61	0
62	0
63	8
64	8
65	4
66	6
67	2
69	27
70	3
71	2
72	2
75	32
76	4
77	1
78	2
79	2
80	2
81	3
82	4
83	1
84	0
85	0
87	4
88	1
89	3
90	4
91	6
93	18
94	4
95	2
96	0
97	0
98	0
100	5
101	13
102	16
103	3
104	0
106	9
107	11
108	2
109	3
110	2
111	0
113	5
114	9
115	2
116	2
118	3
120	12
121	28
122	11
123	5
124	0
125	1
126	1
127	3
128	3
129	6
130	12
131	2
133	35
134	5
135	2
136	1
137	2
138	0
139	3
140	6
141	8
142	3
144	0
145	5
146	3
147	8
148	12
149	14
150	34
151	3
152	3
153	0
156	5
157	8
158	5
159	4
160	5
161	3
162	3
163	2
164	2
165	0
166	0
167	6
168	6
169	3
170	1
171	1
172	1
173	1
175	7
177	223
178	13
179	2
180	0
181	0
183	1
185	17
187	19
188	7
189	17
190	6
191	5
195	6
196	1
197	0
198	1
199	2
200	2
201	3
203	5
204	46
205	18
206	1
211	3
213	2
215	9
216	1
217	2
218	0
219	2
221	0
222	0
223	0
227	0
229	3
231	8
232	1
234	0
235	3
236	5
237	0
240	0
241	8
242	0
243	1
249	0
256	0
258	15
260	544
261	38
262	4
263	0
267	0
268	0
269	2
270	0
273	2
274	0
275	0
279	2
285	6
286	4
287	2
299	14
300	1
318	58
319	9
