Mass Spectrum: N-[5-Nitrosalicylidene]-d-cycloserine
Formula: C10H9N3O5
CAS: 28831-99-4
Molecular weight: 251
m/z	intensity
41	33
42	68
43	133
44	68
45	13
46	16
50	81
51	166
52	70
53	96
54	47
55	265
56	11
57	7
58	53
59	61
60	13
61	14
62	34
63	102
64	44
65	113
66	22
67	16
68	10
69	3
70	13
71	20
73	3
74	40
75	31
76	71
77	82
78	41
79	81
80	26
81	12
82	5
85	3
86	51
87	999
89	71
90	64
91	55
92	38
93	33
94	6
102	14
103	14
104	54
105	51
106	42
107	14
108	12
116	8
117	40
118	38
119	47
120	37
121	9
131	81
132	65
133	34
134	36
135	14
136	47
145	44
146	12
147	2
148	22
149	14
150	65
151	21
152	25
161	23
162	2
163	67
164	30
165	47
166	67
167	20
175	3
176	9
177	171
178	40
179	13
182	69
183	9
191	30
192	10
193	22
207	2
208	10
234	9
235	14
251	199
252	23
253	6
