Mass Spectrum: 1-Penten-3-ol, 3-ethyl-2-methyl-
Formula: C8H16O
CAS: 28832-46-4
Molecular weight: 128
m/z	intensity
27	30
29	40
39	60
40	10
41	100
42	20
43	320
44	20
45	60
53	30
55	70
57	120
67	20
69	70
70	10
71	120
79	20
81	50
86	30
87	160
99	999
100	100
128	40
