Mass Spectrum: Carbamic acid, N-(2-benzyl-3-oxo-4-isoxazolidinyl)-, benzyl ester
Formula: C18H18N2O4
CAS: 28832-03-3
Molecular weight: 326
m/z	intensity
41	10
42	5
43	4
44	0
49	3
50	5
51	21
52	6
53	0
55	5
56	2
58	0
62	1
63	12
64	2
65	68
66	3
76	0
77	26
78	7
79	9
84	1
86	4
89	15
91	999
92	63
93	1
104	8
105	5
106	17
107	7
108	2
118	0
132	7
133	1
168	0
176	4
177	4
179	0
180	4
181	9
196	0
309	3
326	56
327	12
328	0
