Mass Spectrum: 4-[(2-Hydroxy-5-nitrobenzyl)amino]isoxazolidin-3-one
Formula: C10H11N3O5
CAS: 28832-01-1
Molecular weight: 253
m/z	intensity
41	283
42	589
43	845
44	999
45	385
46	42
47	3
49	66
50	93
51	460
52	230
53	183
54	89
55	79
56	85
57	124
58	172
59	32
60	515
61	17
62	66
63	158
64	55
65	301
66	85
67	62
68	37
69	20
70	73
71	28
72	34
73	4
74	223
75	72
76	56
77	258
78	115
79	345
80	66
81	41
82	53
84	60
85	52
86	220
87	34
88	46
90	49
91	48
92	37
93	133
94	54
95	38
97	9
98	13
99	30
100	77
102	57
103	4
104	52
105	99
106	195
107	32
109	13
111	7
112	4
113	10
115	10
116	4
117	32
118	63
119	18
120	72
121	258
122	180
123	217
124	60
125	3
126	9
127	4
128	4
129	5
133	27
134	30
135	72
136	44
137	9
140	34
144	11
146	4
147	5
149	27
150	58
151	272
152	461
153	43
155	6
163	5
164	13
165	73
166	8
167	328
168	510
169	66
171	4
175	5
177	33
179	71
180	6
181	10
182	97
191	18
192	30
193	146
194	65
195	15
196	6
209	29
210	45
211	13
218	0
221	4
225	40
226	4
235	24
236	81
237	8
238	15
246	0
252	12
253	32
254	5
