Mass Spectrum: Octadecanoic acid, 2-(octadecyloxy)ethyl ester
Formula: C38H76O3
CAS: 28843-25-6
Molecular weight: 580
m/z	intensity
26	15
27	67
28	290
29	181
30	9
31	13
32	22
33	4
35	9
36	44
37	6
38	18
39	45
40	15
41	354
42	102
43	836
44	300
45	80
46	4
47	4
48	3
50	6
51	7
52	4
53	20
54	60
55	545
56	227
57	999
58	62
59	33
60	70
61	28
62	4
63	29
64	7
65	7
66	21
67	110
68	172
69	436
70	200
71	618
72	45
73	90
74	24
75	16
76	4
77	10
78	7
79	22
80	24
81	118
82	381
83	472
84	236
85	454
86	52
87	136
88	46
89	13
90	4
91	15
92	8
93	17
94	17
95	136
96	209
97	390
98	290
99	218
100	33
101	40
102	6
103	4
104	8
105	79
106	6
107	11
108	10
109	72
110	72
111	200
112	102
113	73
114	14
115	22
116	6
117	13
118	2
119	4
120	4
121	15
122	10
123	50
124	46
125	83
126	39
127	50
128	14
129	35
130	6
131	4
132	2
133	5
134	1
135	13
136	6
137	31
138	30
139	34
140	26
141	76
142	12
143	15
144	4
145	4
146	1
147	2
148	2
149	9
150	4
151	15
152	20
153	22
154	33
155	56
156	10
157	15
158	2
159	2
160	5
161	2
162	1
163	5
164	1
165	10
166	14
167	17
168	21
169	31
170	6
171	11
172	3
173	3
174	1
175	1
176	1
177	2
178	2
179	6
180	12
181	11
182	13
183	22
184	6
185	16
186	4
187	1
188	1
189	1
190	1
191	2
192	1
193	8
194	12
195	9
196	10
197	17
198	4
199	10
200	1
201	1
202	1
203	1
206	1
207	6
208	10
209	6
210	13
211	20
212	4
213	9
214	1
215	3
216	5
217	5
218	3
219	2
220	3
221	4
222	20
223	8
224	13
225	10
226	2
227	6
228	1
229	1
230	2
235	2
236	2
237	4
238	1
239	8
240	2
241	20
242	4
243	1
244	1
246	1
247	9
248	7
249	6
250	80
251	20
252	13
253	45
254	10
255	6
256	1
257	1
258	1
259	1
260	1
262	1
263	2
264	20
265	30
266	25
267	281
268	54
269	14
270	1
271	1
272	1
277	1
278	1
279	2
280	1
281	63
282	22
283	51
284	37
285	72
286	15
287	2
294	3
295	6
296	49
297	31
298	6
299	2
300	1
307	1
308	1
309	18
310	20
311	263
312	109
313	69
314	13
315	7
316	1
321	1
322	1
323	2
324	1
325	1
326	1
327	2
328	2
329	34
330	8
331	1
335	3
336	1
341	3
342	1
352	3
353	1
354	1
356	12
357	4
369	12
370	4
380	1
384	1
397	1
398	1
519	1
520	1
538	3
539	2
540	1
550	1
580	14
581	6
582	1
