Mass Spectrum: 2-Oxo-5-phenyl-4-(4-tolyl)-1,2-dihydro-5H-indeno[1,2-d]pyrimidine
Formula: C24H18N2O
CAS: 28840-54-2
Molecular weight: 350
m/z	intensity
100	16
101	34
102	40
103	23
104	29
105	20
115	34
116	32
117	29
118	999
119	102
125	17
126	30
127	39
128	31
129	27
130	18
136	21
138	21
139	29
140	21
146	31
149	21
150	16
151	36
152	40
153	52
154	27
160	20
161	19
163	19
164	19
165	36
166	25
167	36
175	82
176	37
177	39
178	43
179	18
186	56
187	16
188	18
189	87
190	63
191	52
194	24
200	13
201	35
202	48
203	84
204	107
205	72
206	19
214	23
215	27
216	41
217	22
218	15
220	42
227	19
228	20
229	30
230	61
231	53
232	85
233	359
234	64
265	16
267	21
273	16
277	16
278	21
279	14
289	16
290	110
291	22
292	20
293	15
294	13
295	16
304	21
305	38
306	34
307	61
308	23
309	17
310	29
319	21
321	45
322	34
335	21
348	35
349	176
350	669
351	173
352	39
