Mass Spectrum: Palmitic acid, 2-(tetradecyloxy)ethyl ester
Formula: C32H64O3
CAS: 28843-33-6
Molecular weight: 496
m/z	intensity
26	9
27	35
28	209
29	108
30	6
31	10
32	16
38	4
39	29
40	10
41	290
42	85
43	722
44	101
45	69
46	4
47	4
50	6
51	5
52	4
53	18
54	53
55	493
56	222
57	999
58	65
59	35
60	50
61	24
62	2
63	25
64	3
65	8
66	34
67	118
68	222
69	452
70	229
71	689
72	57
73	77
74	32
75	12
76	4
77	10
78	7
79	24
80	28
81	135
82	648
83	560
84	304
85	520
86	67
87	155
88	108
89	26
90	4
91	11
92	4
93	18
94	17
95	162
96	344
97	445
98	344
99	250
100	72
101	66
102	10
103	5
104	12
105	222
106	13
107	18
108	14
109	121
110	141
111	250
112	162
113	114
114	27
115	29
116	8
117	19
118	3
119	7
120	4
121	24
122	16
123	94
124	88
125	121
126	72
127	101
128	29
129	42
130	10
131	6
132	4
133	5
134	4
135	21
136	11
137	72
138	79
139	52
140	45
141	108
142	17
143	22
144	8
145	6
146	3
147	4
148	4
149	18
150	6
151	31
152	47
153	30
154	66
155	71
156	15
157	43
158	8
159	7
160	13
161	10
162	7
163	10
164	4
165	16
166	54
167	25
168	50
169	25
170	6
171	20
172	6
173	8
174	2
175	3
176	3
177	6
178	4
179	11
180	8
181	11
182	39
183	32
184	8
185	31
186	9
187	6
188	3
189	6
190	5
191	7
192	10
193	10
194	378
195	72
196	65
197	175
198	29
199	18
200	4
201	4
202	6
203	4
204	4
205	5
206	3
207	6
208	4
209	6
210	10
211	37
212	11
213	27
214	6
215	4
216	4
217	7
218	9
219	35
220	14
221	8
222	7
223	9
224	4
225	209
226	34
227	19
228	5
229	4
230	3
231	2
232	2
233	3
234	3
235	2
236	44
237	66
238	68
239	560
240	277
241	236
242	37
243	11
244	4
245	3
246	2
247	2
248	2
249	2
250	2
251	4
252	3
253	13
254	27
255	155
256	69
257	263
258	46
259	28
260	7
261	2
262	2
263	2
264	2
265	2
266	2
267	10
268	5
269	2
270	4
271	4
272	2
273	2
274	2
275	2
276	2
277	2
278	2
279	3
280	3
281	41
282	46
283	418
284	270
285	61
286	8
287	3
288	2
289	2
292	2
293	2
294	5
295	6
296	4
297	3
298	2
299	5
300	50
301	182
302	35
303	5
304	2
305	1
306	1
307	8
308	3
309	2
310	2
311	2
312	2
313	53
314	13
315	3
316	2
317	2
318	2
319	2
320	2
321	2
322	2
323	2
324	2
325	2
326	2
327	3
328	2
329	2
335	2
336	2
337	2
338	3
341	2
342	3
343	2
348	2
349	2
350	2
351	2
352	6
353	3
354	2
355	3
356	4
357	2
366	2
369	3
370	2
380	3
381	2
382	2
383	2
384	2
397	2
398	2
411	2
412	2
413	2
425	2
426	2
427	2
434	2
435	3
436	2
439	2
440	2
453	3
454	2
466	2
467	2
468	2
469	2
470	2
481	2
482	2
495	4
496	47
497	18
498	5
499	2
