Mass Spectrum: Isoxazole, 5-amino-3-butyl-4-propyl-
Formula: C10H18N2O
CAS: 28884-14-2
Molecular weight: 182
m/z	intensity
42	550
43	490
44	490
45	30
50	20
51	50
52	90
53	200
54	220
55	300
56	600
57	320
58	30
64	30
65	50
66	140
67	90
68	220
69	490
70	100
71	80
77	20
79	40
80	80
81	80
82	600
83	120
84	600
85	180
89	10
91	30
93	40
94	80
95	80
96	230
97	90
98	50
99	20
108	90
109	30
110	70
111	80
112	30
122	30
123	40
124	30
125	999
126	120
136	70
137	70
138	100
139	230
140	180
141	20
153	650
154	100
182	30
