Mass Spectrum: 1,1'-Bicyclohexyl-1,1'-diol
Formula: C12H22O2
CAS: 2888-11-1
Molecular weight: 198
m/z	intensity
26	3
27	46
28	4
29	49
31	17
38	1
39	35
40	29
41	109
42	25
43	76
44	4
45	5
50	1
51	4
52	2
53	30
54	14
55	93
56	10
57	40
58	3
59	1
63	1
65	6
66	3
67	50
68	5
69	31
70	33
71	8
73	2
77	10
78	3
79	38
80	17
81	420
82	47
83	30
84	4
91	9
92	2
93	4
94	6
95	7
96	6
97	12
98	395
99	999
100	66
101	3
105	2
107	3
109	9
110	14
111	3
112	1
119	3
120	1
121	1
123	2
124	3
125	3
133	1
134	1
137	16
138	2
139	1
147	1
151	1
155	1
162	5
163	1
164	1
180	7
181	2
198	6
