Mass Spectrum: Isoxazole, 5-amino-3-p-tolyl-
Formula: C10H10N2O
CAS: 28883-91-2
Molecular weight: 174
m/z	intensity
41	110
42	50
43	80
44	200
50	250
51	400
52	170
53	100
55	50
57	40
61	60
62	170
63	370
64	110
65	320
66	40
74	100
75	140
76	160
77	360
78	100
87	70
88	50
89	200
90	100
91	350
92	70
101	50
102	140
103	480
104	70
115	20
116	100
117	100
118	999
119	780
120	120
130	320
146	180
174	70
