Mass Spectrum: 5-Octyn-4-one, 2,2,7,7-tetramethyl-
Formula: C12H20O
CAS: 28884-89-1
Molecular weight: 180
m/z	intensity
12	1
13	1
14	9
15	77
16	1
17	1
18	4
19	1
25	0
26	11
27	172
28	39
29	210
30	4
31	2
32	0
37	6
38	19
39	235
40	43
41	379
42	24
43	142
44	7
45	1
46	0
49	2
50	44
51	83
52	28
53	217
54	21
55	178
56	65
57	295
58	14
59	2
60	2
61	8
62	15
63	136
64	13
65	86
66	55
67	67
68	8
69	20
70	12
71	21
72	2
73	2
74	6
75	7
76	2
77	59
78	18
79	142
80	23
81	401
82	32
83	12
84	0
85	0
86	0
87	1
89	1
90	1
91	23
92	3
93	40
94	19
95	32
96	35
97	6
98	1
99	5
100	0
103	2
104	1
105	6
106	3
107	13
108	7
109	999
110	78
111	6
112	0
115	1
116	0
117	1
119	1
120	0
121	6
122	4
123	54
124	420
125	42
126	3
135	1
136	0
137	6
138	1
139	1
147	1
149	0
151	1
152	2
164	1
165	160
166	19
167	1
180	2
181	0
