Mass Spectrum: Isoxazole, 3-phenyl-5-[(phenylmethyl)thio]-
Formula: C16H13NOS
CAS: 28884-17-5
Molecular weight: 267
m/z	intensity
27	2
28	2
38	1
39	15
40	1
41	4
44	1
45	20
46	1
47	1
50	7
51	23
52	4
61	1
62	4
63	18
64	3
65	50
66	3
69	2
74	2
75	3
76	9
77	47
78	5
79	3
87	1
88	2
89	41
90	8
91	999
92	83
93	3
101	1
102	16
103	22
104	24
105	7
108	1
109	2
115	1
116	63
117	8
118	1
121	17
122	7
123	5
124	5
128	1
129	2
130	3
131	3
132	3
134	1
135	9
136	2
144	26
145	11
146	105
147	10
148	3
149	5
150	1
158	1
162	7
163	2
164	1
165	1
176	6
177	31
178	5
179	2
180	1
188	2
189	3
190	1
191	1
204	1
206	13
207	7
208	1
234	4
235	1
238	4
239	7
240	1
264	1
265	2
266	9
267	269
268	51
269	18
270	3
