Mass Spectrum: 2H-Azirine-2-carboxamide, 3-p-tolyl-
Formula: C10H10N2O
CAS: 28883-95-6
Molecular weight: 174
m/z	intensity
41	100
42	50
43	80
44	200
50	200
51	330
52	110
53	70
61	40
62	100
63	270
64	70
65	290
74	70
75	100
76	120
77	470
78	80
89	120
90	80
91	230
101	30
102	100
103	270
104	50
116	70
117	80
118	999
119	770
120	80
130	220
131	80
146	130
174	50
