Mass Spectrum: 2H-Azirine-2-carboxamide, 3-phenyl-
Formula: C9H8N2O
CAS: 28883-94-5
Molecular weight: 160
m/z	intensity
41	70
43	70
44	130
50	150
51	300
52	70
57	60
61	70
62	100
63	350
64	70
74	70
75	70
76	100
77	350
78	110
87	50
88	60
89	380
90	90
103	100
104	750
105	999
106	100
116	350
117	70
129	40
131	50
132	280
133	60
144	40
160	70
161	30
