Mass Spectrum: Pentanoic acid, 3-hydroxy-5,5-dimethoxy-3-methyl-, ethyl ester
Formula: C10H20O5
CAS: 28891-35-2
Molecular weight: 220
m/z	intensity
26	10
27	76
28	14
29	186
30	9
31	109
33	23
39	24
40	6
41	40
42	49
43	746
44	23
45	48
46	5
47	102
48	3
51	6
53	11
54	4
55	34
56	10
57	24
58	283
59	126
60	19
61	33
67	7
69	13
70	8
71	15
72	6
73	22
74	6
75	999
76	37
77	6
81	5
82	6
84	8
85	349
86	20
87	18
88	19
89	26
97	24
98	7
99	10
100	4
101	226
102	17
103	51
104	3
109	4
110	3
111	62
112	5
113	6
115	68
116	5
117	109
118	7
125	23
127	23
128	9
129	20
130	8
131	187
132	15
133	20
139	4
141	14
143	13
145	3
149	3
155	10
157	79
158	7
159	3
171	177
172	19
173	80
174	7
187	8
205	4
