Mass Spectrum: Ethyl henicosanoate
Formula: C23H46O2
CAS: 28898-67-1
Molecular weight: 354
m/z	intensity
27	17
28	8
29	70
30	2
39	23
40	6
41	185
42	61
43	398
44	13
45	31
46	2
47	3
53	13
54	24
55	305
56	71
57	324
58	22
59	18
60	69
61	78
65	12
67	69
68	52
69	313
70	157
71	146
72	11
73	153
74	18
79	24
81	58
82	27
83	130
84	36
85	89
86	9
87	46
88	999
89	232
90	12
93	15
94	8
95	60
96	14
97	139
99	30
101	722
102	75
103	6
105	10
107	23
108	13
109	51
110	14
111	71
113	31
114	20
115	180
116	20
121	16
125	38
127	66
128	12
129	41
130	33
131	7
135	14
136	19
137	8
139	20
140	5
142	34
143	157
144	31
146	3
149	16
153	21
155	7
157	250
158	33
160	34
167	10
169	16
170	5
171	70
172	8
174	3
175	12
178	6
182	9
196	8
197	7
199	95
200	13
201	8
202	11
209	12
211	8
213	46
214	8
227	16
229	6
234	11
235	8
236	5
238	19
242	9
245	4
255	31
269	22
283	10
285	8
290	4
297	17
298	9
299	6
302	2
305	2
307	2
308	18
309	83
310	14
311	100
312	31
313	6
325	28
326	8
353	4
354	290
355	72
356	7
