Mass Spectrum: 2'H-Cholest-2-eno[3,2-c]pyrazole, (5.alpha.)-
Formula: C28H46N2
CAS: 28895-41-2
Molecular weight: 410
m/z	intensity
51	60
52	707
53	404
54	96
55	303
56	131
74	191
75	65
76	237
77	80
79	186
80	45
81	70
82	156
83	298
84	70
85	136
86	80
87	40
88	40
89	242
91	131
92	40
93	146
94	752
95	469
96	999
97	439
98	40
139	90
140	60
141	75
142	116
143	40
144	40
146	90
147	136
148	166
149	85
150	40
200	35
201	70
202	65
300	70
395	126
396	60
410	959
411	424
412	136
