Mass Spectrum: 1,2,4-Trioxolane
Formula: C2H4O3
CAS: 289-14-5
Molecular weight: 76
m/z	intensity
26	15
27	14
28	540
29	999
30	708
31	83
32	50
39	3
41	1
42	1
43	2
44	323
45	73
46	120
47	67
48	6
58	2
60	3
62	2
75	64
76	315
77	8
78	3
