Mass Spectrum: Anodendroside E 2, monoacetate
Formula: C32H40O12
CAS: 28905-46-6
Molecular weight: 616
m/z	intensity
25	22
26	57
27	215
28	369
29	235
30	39
36	39
37	22
38	39
39	224
40	63
41	496
42	136
43	999
44	338
45	230
46	17
47	30
50	39
51	79
52	46
53	191
54	125
55	791
56	180
57	351
58	54
59	59
60	147
61	39
62	19
63	52
64	33
65	123
66	70
67	298
68	101
69	347
70	127
71	215
72	50
73	127
74	33
75	19
76	19
77	246
78	90
79	320
80	105
81	421
82	153
83	474
84	452
85	215
86	39
87	74
88	54
89	41
90	17
91	496
92	125
93	320
94	109
95	285
96	101
97	160
98	103
99	169
100	92
101	169
102	37
103	96
104	70
105	413
106	219
107	265
108	123
109	465
110	254
111	147
112	191
113	105
114	37
115	151
116	76
117	200
118	109
119	294
120	125
121	349
122	131
123	195
124	92
125	79
126	46
127	61
128	257
129	360
130	120
131	268
132	98
133	208
134	103
135	178
136	79
137	118
138	52
139	65
140	35
141	138
142	237
143	235
144	112
145	483
146	197
147	270
148	79
149	127
150	650
151	241
152	98
153	83
154	54
155	101
156	61
157	204
158	169
159	197
160	96
161	261
162	149
163	298
164	90
165	109
166	63
167	68
168	65
169	74
170	44
171	118
172	61
173	175
174	114
175	202
176	105
177	191
178	593
179	615
180	217
181	107
182	46
183	63
184	59
185	118
186	254
187	191
188	90
189	178
190	149
191	232
192	127
193	171
194	48
195	52
196	35
197	54
198	37
199	79
200	52
201	105
202	81
203	149
204	94
205	147
206	114
207	988
208	186
209	81
210	37
211	59
212	46
213	90
214	48
215	70
216	54
217	123
218	63
219	74
220	39
221	61
222	35
223	48
224	35
225	44
226	44
227	79
228	63
229	98
230	72
231	81
232	37
233	63
234	26
235	72
236	39
237	41
238	28
239	54
240	70
241	173
242	85
243	114
244	52
245	81
246	101
247	109
248	48
249	90
250	30
251	37
252	37
253	48
254	79
255	87
256	74
257	94
258	59
259	114
260	44
261	37
262	48
263	41
264	24
265	44
266	30
267	44
268	37
269	63
270	39
271	74
272	105
273	48
274	48
275	44
276	35
277	44
278	30
279	35
280	37
281	65
282	52
283	70
284	44
285	37
286	28
287	35
288	19
289	39
290	37
291	44
292	48
293	59
294	44
295	44
296	24
297	24
298	28
299	81
300	59
301	39
302	26
303	41
304	26
305	46
306	39
307	63
308	37
309	37
310	70
311	39
312	35
313	35
314	37
315	22
316	33
317	103
318	59
319	145
320	63
321	149
322	59
323	44
324	35
325	35
326	17
327	35
328	268
329	85
330	79
331	44
332	28
333	44
334	57
335	87
336	103
337	103
338	44
339	37
340	19
341	17
342	15
343	15
344	26
345	61
346	87
347	105
348	61
349	68
350	52
351	79
352	72
353	70
354	41
355	28
356	15
360	15
361	35
362	131
363	270
364	338
365	228
366	85
367	63
368	46
369	26
370	37
371	50
372	19
378	15
379	50
380	246
381	386
382	356
383	191
384	79
385	41
388	17
396	15
397	59
398	272
399	301
400	580
401	169
402	92
403	35
405	17
406	17
409	37
410	24
411	17
414	15
415	17
416	39
417	65
418	26
419	15
422	35
423	26
424	57
425	81
426	35
427	44
428	17
437	17
438	15
439	15
440	320
441	197
442	120
443	76
444	46
445	41
446	37
447	19
455	37
456	30
457	15
458	37
459	28
460	17
466	26
467	15
468	15
469	15
473	17
474	24
475	15
480	17
490	15
491	15
492	15
493	15
494	15
495	15
496	15
497	15
498	15
508	70
509	37
510	63
511	22
512	17
516	33
520	19
521	15
522	19
526	68
527	24
528	52
529	22
530	15
538	235
539	92
540	65
541	28
542	15
556	241
557	87
558	87
559	35
560	13
568	59
569	28
570	19
571	15
572	15
573	15
574	24
575	15
576	15
585	15
586	17
587	15
588	15
599	48
600	17
601	15
616	571
617	206
618	109
619	37
620	13
