Mass Spectrum: 1(4H)-Naphthalenone, 2-tetradecylamino-4-tetradecylimino-
Formula: C38H64N2O
CAS: 28907-60-0
Molecular weight: 564
m/z	intensity
41	630
42	177
43	999
44	147
54	33
55	445
56	139
57	400
58	15
59	56
67	77
68	29
69	184
70	73
71	113
73	15
77	53
81	16
82	51
83	96
84	173
85	47
86	86
88	17
96	28
97	47
98	40
102	58
103	50
104	34
105	58
115	40
128	54
129	81
130	154
140	30
142	60
143	32
144	14
145	118
146	95
148	53
157	91
158	157
159	63
170	128
171	90
172	157
173	935
174	176
184	69
185	430
186	194
187	143
196	14
197	80
198	71
199	148
200	61
210	14
211	29
213	45
224	127
227	30
241	46
355	15
366	36
367	76
368	262
369	154
370	115
381	93
382	100
395	102
396	38
437	71
563	162
564	540
565	182
566	75
