Mass Spectrum: Ethanone, 1-(1-methylcyclohexyl)-
Formula: C9H16O
CAS: 2890-62-2
Molecular weight: 140
m/z	intensity
27	45
29	48
39	70
40	11
41	132
42	14
43	175
44	7
50	4
51	10
52	5
53	37
54	17
55	999
56	50
57	24
59	4
65	10
66	4
67	42
68	19
69	96
70	11
71	7
72	15
77	12
79	14
81	75
82	13
83	10
84	7
85	39
91	4
93	4
95	11
96	213
97	866
98	78
99	4
107	4
122	3
125	13
140	73
141	9
