Mass Spectrum: cis-1,2-Cyclohexanedicarbonitrile
Formula: C8H10N2
CAS: 28907-20-2
Molecular weight: 134
m/z	intensity
41	820
51	170
52	260
53	210
54	580
55	220
56	670
66	280
67	999
68	110
79	540
80	890
81	360
94	720
106	320
107	670
108	190
134	80
