Mass Spectrum: Cyclohexanemethyl propanoate
Formula: C10H18O2
CAS: 2890-67-7
Molecular weight: 170
m/z	intensity
29	210
41	580
54	230
55	800
57	999
67	430
68	270
71	160
74	21
81	750
96	430
97	95
