Mass Spectrum: Methanone, 1,2,3-cyclopropanetriyltris[phenyl-, (1.alpha.,2.alpha.,3.beta.)-
Formula: C24H18O3
CAS: 2892-42-4
Molecular weight: 354
m/z	intensity
28	25
39	37
50	20
51	118
52	10
63	10
76	22
77	387
78	78
89	11
105	999
106	118
115	59
116	12
144	21
220	15
233	81
234	14
249	256
250	48
277	18
354	24
