Mass Spectrum: 3-Octen-5-yne, 2,7-dimethyl-, (Z)-
Formula: C10H16
CAS: 28935-76-4
Molecular weight: 136
m/z	intensity
13	8
14	34
15	299
16	7
17	6
18	20
26	49
27	655
28	84
29	402
30	9
37	23
38	71
39	754
40	95
41	677
42	42
43	366
44	15
45	14
49	9
50	131
51	345
52	134
53	306
54	31
55	281
56	42
57	20
58	15
59	8
60	3
61	15
62	51
63	151
64	39
65	234
66	55
67	151
68	59
69	67
70	8
71	4
72	4
73	8
74	36
75	45
76	25
77	749
78	17
79	865
80	438
81	132
82	15
83	7
84	5
85	6
86	9
87	10
89	38
91	666
92	117
93	999
94	114
95	28
96	6
97	3
98	4
99	2
101	8
102	15
103	73
104	30
105	418
106	143
107	187
108	27
109	12
115	14
116	6
117	14
118	6
119	76
120	20
121	637
122	65
123	4
135	10
136	631
137	75
138	5
