Mass Spectrum: Oxiranecarbonitrile, 3-methyl-3-phenyl-
Formula: C10H9NO
CAS: 28937-48-6
Molecular weight: 159
m/z	intensity
37	6
38	20
39	84
40	7
41	6
43	999
44	25
45	3
49	8
50	111
51	336
52	71
53	17
54	8
55	3
56	1
57	2
60	0
61	10
62	30
63	90
64	18
65	45
66	8
67	1
68	1
70	1
72	0
73	8
74	52
75	50
76	85
77	616
78	661
79	54
80	2
84	0
85	3
86	7
87	12
88	10
89	87
90	60
91	65
92	6
93	1
94	0
97	1
98	5
99	4
100	4
101	23
102	162
103	742
104	546
105	230
106	15
107	1
110	0
111	0
112	0
113	3
114	9
115	34
116	155
117	665
118	75
119	11
120	2
121	0
126	0
127	3
128	43
129	52
130	37
131	108
132	324
133	43
134	3
140	11
141	3
142	7
143	30
144	112
145	12
146	0
154	0
156	1
158	407
159	309
160	60
161	5
