Mass Spectrum: Propanetrione, 1-phenyl-, 2-(2-cyanophenyl)hydrazone
Formula: C16H11N3O2
CAS: 289497-27-4
Molecular weight: 277
m/z	intensity
37	4
38	12
39	49
40	10
41	8
42	5
43	5
44	6
45	13
46	5
49	1
50	46
51	185
52	30
53	9
54	44
55	3
56	3
57	1
59	1
61	2
62	15
63	52
64	39
65	28
66	5
67	0
69	11
70	0
71	1
73	1
74	10
75	31
76	54
77	730
78	105
79	6
80	3
83	2
86	0
87	1
88	5
89	22
90	122
91	85
92	6
93	1
95	1
102	75
103	19
105	999
106	85
107	9
113	0
114	0
115	1
116	12
117	64
118	684
119	63
120	3
122	3
123	17
124	1
129	3
130	11
132	277
133	25
139	1
140	4
142	0
143	15
144	120
145	13
146	2
147	3
148	0
150	0
167	0
171	49
172	13
173	1
174	1
192	2
193	4
194	9
195	1
199	1
204	0
205	1
220	58
221	15
222	3
223	0
225	0
231	0
232	0
233	6
248	26
249	11
250	2
261	0
276	31
277	207
278	45
279	4
280	0
