Mass Spectrum: Benzonitrile, 2-[[1-formyl-2-(2-furyl)-2-oxoethylidene]hydrazine]-
Formula: C14H9N3O3
CAS: 289497-29-6
Molecular weight: 267
m/z	intensity
37	18
38	52
39	317
40	27
41	16
42	8
43	11
44	6
45	6
50	24
51	42
52	31
53	47
54	21
55	43
56	2
57	9
58	12
62	20
63	63
64	52
65	23
66	20
67	53
68	49
69	19
70	2
74	6
75	29
76	41
77	9
79	5
80	3
81	40
85	1
87	1
88	23
89	28
90	160
91	70
92	7
93	4
95	999
96	69
97	8
101	4
102	116
103	37
104	2
107	1
109	9
110	3
111	5
115	1
116	25
117	148
118	763
119	46
120	6
122	423
123	44
128	5
129	20
130	17
131	2
137	7
143	12
144	52
145	11
155	178
156	52
157	9
165	2
170	4
171	48
172	10
174	3
182	25
183	100
184	41
185	14
193	5
198	27
199	97
200	11
210	76
211	83
212	6
213	5
219	1
222	6
238	135
239	77
240	10
250	2
267	428
268	62
269	4
