Mass Spectrum: Acetamide, 2-chloro-N-(1-methylethyl)-
Formula: C5H10ClNO
CAS: 2895-21-8
Molecular weight: 135
m/z	intensity
13	1
14	6
15	31
16	1
18	8
26	10
27	83
28	49
29	17
30	44
31	2
35	2
36	2
37	4
38	11
39	75
40	27
41	219
42	202
43	484
44	999
45	26
47	3
48	11
49	132
50	6
51	45
52	5
53	1
54	6
55	5
56	18
57	63
58	166
59	8
63	1
64	3
66	1
70	11
71	3
72	3
75	1
76	12
77	62
78	6
79	20
80	1
82	3
84	3
85	3
86	106
87	4
93	1
94	37
95	1
96	12
100	305
101	17
102	1
106	11
107	2
108	4
120	341
121	16
122	120
123	5
134	4
135	31
136	6
137	10
138	1
