Mass Spectrum: 2-Propen-1-amine, 2-bromo-N-methyl-
Formula: C4H8BrN
CAS: 28952-70-7
Molecular weight: 149
m/z	intensity
26	7
27	24
28	153
29	15
30	178
31	6
32	0
33	0
36	1
37	1
38	7
39	126
40	29
41	81
42	116
43	40
44	999
45	23
51	0
52	8
53	5
54	24
55	17
56	1
57	2
58	12
65	0
66	1
67	3
68	54
69	27
70	236
71	11
79	2
80	4
81	2
82	4
83	1
84	1
93	4
95	2
96	0
97	0
98	0
105	2
106	0
107	4
108	1
110	3
119	10
120	2
121	8
122	2
146	0
148	17
149	49
150	16
151	57
152	2
