Mass Spectrum: Pyridine-3-carboxamide, 4-methylthio-N-(2,4-difluorophenyl)-
Formula: C13H10F2N2OS
CAS: 289504-71-8
Molecular weight: 280
m/z	intensity
33	1
34	0
36	0
38	32
39	21
40	6
41	2
42	1
45	198
46	83
47	87
50	240
51	99
52	55
53	50
55	25
57	77
58	12
59	3
61	15
62	19
63	48
64	22
65	10
66	6
67	4
69	89
70	24
71	23
72	8
73	4
75	145
76	76
77	92
78	143
80	247
81	142
82	368
83	49
84	33
85	4
86	6
88	14
89	4
90	6
91	11
92	9
93	16
94	6
95	12
97	157
99	63
101	999
102	49
103	5
105	16
106	14
107	21
108	61
109	93
110	13
111	6
112	5
113	14
114	5
115	0
117	0
119	0
120	3
122	33
123	29
124	84
126	46
128	709
129	102
130	8
131	2
132	1
134	2
135	0
136	10
137	29
138	4
140	7
142	8
144	0
148	0
149	4
152	993
154	80
155	9
156	1
157	0
158	4
159	4
160	0
162	0
164	0
174	0
176	3
177	0
182	0
184	0
186	1
188	2
189	0
191	1
204	4
205	0
215	1
217	2
219	0
231	1
232	2
233	3
236	0
245	0
247	0
251	0
263	0
264	2
265	16
266	1
280	152
281	20
282	8
