Mass Spectrum: Hexanamide, 2,3,4,5,6-pentaacetoxy-N-(4-bromophenyl)-
Formula: C22H26BrNO11
CAS: 289678-01-9
Molecular weight: 559
m/z	intensity
35	0
36	0
37	1
38	2
39	5
40	1
41	5
42	0
43	999
44	27
45	10
50	3
51	3
52	2
53	2
54	1
55	7
56	1
57	2
60	7
61	9
62	1
63	7
64	5
65	10
66	1
67	0
68	2
69	14
70	3
71	14
72	0
73	22
74	2
75	3
76	3
77	2
79	1
80	2
81	12
82	5
83	3
84	2
85	14
86	11
87	1
89	1
90	5
91	11
92	10
93	10
94	1
95	1
96	0
97	45
98	28
99	8
100	1
101	1
102	3
103	18
104	1
105	0
109	3
111	0
112	1
113	5
115	42
116	6
117	1
119	2
120	1
121	0
125	9
126	0
127	5
128	7
129	2
131	1
132	0
133	2
139	75
140	11
141	3
142	1
143	6
144	0
145	11
146	1
149	1
155	3
156	0
157	38
158	9
159	1
161	0
167	5
169	1
170	10
171	71
172	15
173	68
174	7
175	1
182	1
184	3
185	4
186	0
187	1
197	8
198	6
199	13
200	9
201	1
203	3
207	0
210	0
212	1
213	4
214	1
215	4
216	1
217	5
224	0
225	0
226	2
227	3
228	1
229	11
230	2
231	9
232	0
240	1
241	0
242	3
243	1
244	1
245	15
246	1
252	1
253	2
254	1
255	2
256	0
257	1
258	2
259	11
260	3
263	0
270	0
271	3
272	1
273	3
278	1
280	1
282	1
283	0
284	2
285	0
287	38
288	5
289	0
290	0
294	0
295	2
296	2
297	2
298	1
300	0
302	0
305	2
337	1
338	0
339	1
340	0
347	15
348	2
355	0
384	0
386	0
389	1
397	5
398	0
399	5
400	0
559	5
560	1
561	5
562	0
