Mass Spectrum: Pentacosane-6,8-dione
Formula: C25H48O2
CAS: 289681-95-4
Molecular weight: 380
m/z	intensity
27	7
29	29
30	1
31	1
39	13
40	4
41	131
42	31
43	378
44	12
45	1
51	1
52	1
53	14
54	11
55	209
56	44
57	239
58	53
59	16
65	3
66	3
67	56
68	19
69	205
70	42
71	460
72	36
77	4
79	12
80	41
81	75
82	23
83	99
84	73
85	182
86	15
87	4
91	6
93	14
94	34
95	98
96	33
97	155
98	90
99	999
100	968
101	73
102	7
105	4
107	12
108	9
109	64
110	19
111	68
112	32
113	191
114	129
115	22
119	4
121	18
122	8
123	61
124	45
125	30
126	10
128	13
133	3
134	2
135	15
136	6
137	27
138	186
139	30
140	14
141	484
142	64
143	10
144	1
149	7
150	4
151	15
152	8
153	7
154	13
155	7
156	505
157	131
158	12
159	1
161	1
163	3
164	2
165	6
166	4
167	6
168	6
169	126
170	19
171	2
177	2
178	1
179	7
180	17
181	5
182	2
183	11
189	1
191	1
192	2
193	13
194	27
195	6
196	2
197	4
198	36
199	5
200	1
205	1
206	2
207	7
208	3
209	3
210	7
211	8
212	12
213	2
222	5
223	3
224	3
225	12
226	3
235	2
236	3
237	3
240	4
241	1
246	1
247	1
248	108
249	26
250	5
251	2
253	3
254	2
261	1
262	2
263	11
264	8
265	4
266	22
267	105
268	23
269	3
273	2
277	1
281	9
282	5
283	2
288	3
289	1
291	35
292	8
293	1
295	3
296	3
297	1
305	1
306	78
307	18
308	2
309	125
310	27
311	4
319	4
320	4
321	1
323	2
324	20
325	5
326	1
333	1
334	1
335	1
337	36
338	13
339	2
344	2
345	1
347	1
351	6
352	2
362	52
363	15
364	2
365	3
366	1
379	6
380	28
381	8
382	1
