Mass Spectrum: Propanamide, N-(3,4-dichlorophenyl)-2-hydroxy-3-phenylsulfonyl-
Formula: C15H13Cl2NO4S
CAS: 289706-50-9
Molecular weight: 373
m/z	intensity
33	11
34	2
35	4
36	18
37	5
38	16
39	29
40	34
41	10
42	12
43	117
44	66
45	97
46	4
47	3
48	6
49	8
50	51
51	188
52	20
53	11
55	64
56	3
57	5
58	2
59	1
60	4
61	8
62	26
63	57
64	21
65	34
66	14
67	3
68	2
69	9
70	4
71	13
72	8
73	28
74	31
75	48
77	999
78	241
79	39
80	4
81	6
82	3
83	8
84	8
85	9
86	4
87	5
88	10
89	17
90	45
91	34
92	5
93	7
94	30
95	6
97	52
98	14
99	38
100	7
101	12
102	4
103	3
104	3
105	5
107	19
109	63
110	25
111	19
112	7
113	2
114	2
115	1
116	1
117	1
118	1
119	2
120	1
121	7
122	3
124	88
125	242
126	83
127	49
128	12
129	7
130	1
131	6
133	85
134	17
135	48
136	10
137	9
138	4
141	716
142	272
143	615
144	62
145	75
146	9
147	29
148	3
149	8
150	3
151	7
152	4
153	9
154	3
155	4
156	7
157	3
159	49
160	186
161	830
162	189
163	506
164	60
165	90
166	11
167	8
168	30
169	8
170	4
171	2
172	3
173	2
174	6
175	2
176	2
177	1
178	2
179	3
180	2
181	2
182	2
183	6
185	449
186	73
187	313
188	80
189	217
190	45
191	52
192	9
193	6
194	1
195	4
196	6
197	7
198	3
199	1
200	1
201	2
202	3
203	1
204	2
205	0
207	0
208	1
209	4
210	4
211	2
212	2
213	3
214	3
215	4
216	3
217	3
218	3
219	1
220	3
221	0
222	0
223	0
229	0
230	2
231	10
232	21
233	9
234	13
235	3
236	3
237	2
238	3
239	3
240	7
241	1
254	0
255	1
256	4
257	0
263	0
285	3
286	0
287	2
289	0
292	0
339	0
341	0
355	0
357	2
358	0
359	1
368	0
369	1
370	3
373	266
374	49
375	170
376	27
377	33
378	5
379	1
