Mass Spectrum: Myroxide
Formula: C10H16O
CAS: 28977-57-3
Molecular weight: 152
m/z	intensity
26	2
27	33
29	15
30	1
31	6
37	2
38	7
39	129
40	26
41	170
42	22
43	121
44	5
45	2
50	13
51	40
52	21
53	133
54	21
55	55
56	5
57	24
59	22
62	5
63	15
64	4
65	57
66	42
67	76
68	35
69	24
70	11
71	68
72	120
73	6
75	2
77	264
78	40
79	999
80	83
81	430
82	39
83	14
84	8
89	2
91	114
92	18
93	135
94	31
95	27
96	8
106	3
107	9
108	9
109	32
110	5
119	12
121	17
123	6
124	5
134	10
135	2
137	9
152	14
153	2
