Mass Spectrum: (R)-1-Methyl-4-(6-methylhept-5-en-2-yl)cyclohexa-1,4-diene
Formula: C15H24
CAS: 28976-67-2
Molecular weight: 204
m/z	intensity
27	36
29	44
31	1
38	2
39	93
40	16
41	336
42	23
43	67
50	6
51	31
52	14
53	85
54	12
55	190
56	118
57	35
59	9
62	2
63	13
64	3
65	64
66	12
67	88
68	19
69	215
70	48
74	2
75	2
76	3
77	216
78	52
79	134
80	30
81	33
82	93
83	34
84	9
85	3
87	1
89	7
90	1
91	301
92	136
93	419
94	54
95	32
96	3
97	7
102	5
103	29
104	11
105	339
106	51
107	115
108	17
114	1
115	25
116	8
117	35
118	16
119	999
120	135
121	238
122	53
123	5
127	3
128	6
129	6
131	14
132	20
133	53
134	50
135	12
144	1
145	9
146	4
147	24
148	14
149	2
159	3
161	56
162	10
165	1
173	1
187	2
189	12
190	1
204	98
205	14
206	1
