Mass Spectrum: 3,5-Octadiene, 2,7-dimethyl-, (Z,Z)-
Formula: C10H18
CAS: 28980-73-6
Molecular weight: 138
m/z	intensity
12	1
13	3
14	15
15	148
16	4
17	2
18	7
26	29
27	447
28	74
29	244
30	6
31	4
32	3
37	9
38	31
39	422
40	59
41	667
42	48
43	355
44	23
45	4
46	2
49	2
50	39
51	105
52	50
53	200
54	45
55	328
56	39
57	118
58	9
59	2
60	1
61	3
62	10
63	30
64	8
65	77
66	33
67	465
68	51
69	264
70	37
71	6
72	2
73	1
74	5
75	7
76	4
77	133
78	35
79	143
80	35
81	564
82	584
83	46
84	2
87	1
91	83
92	16
93	73
94	28
95	999
96	97
97	10
103	4
104	1
105	12
106	3
107	29
108	15
109	80
110	8
119	1
121	7
122	2
123	156
124	16
138	238
139	27
140	1
