Mass Spectrum: L-Methioninol
Formula: C5H13NOS
CAS: 2899-37-8
Molecular weight: 135
m/z	intensity
14	1
15	18
18	2
26	5
27	47
28	93
29	29
30	83
31	28
32	2
34	1
35	47
36	3
37	3
38	2
39	17
40	4
41	56
42	144
43	61
44	27
45	44
46	17
47	45
48	17
49	14
50	2
51	2
52	9
53	8
54	24
55	7
56	618
57	45
58	15
59	20
60	363
61	999
62	43
63	49
64	1
67	1
68	8
69	12
70	394
71	61
72	13
73	7
74	30
75	30
76	3
77	2
82	1
83	1
84	2
85	10
86	15
87	64
88	13
89	91
90	8
91	4
100	5
101	2
102	35
103	4
104	592
105	34
106	27
107	2
116	2
117	36
118	37
119	4
120	4
134	1
135	2
136	5
