Mass Spectrum: Butanoic acid, 4-methoxy-
Formula: C5H10O3
CAS: 29006-02-8
Molecular weight: 118
m/z	intensity
39	418
40	102
41	440
42	196
43	106
44	35
45	999
46	17
47	1
50	2
53	12
54	4
55	98
56	43
57	59
58	185
59	473
60	140
61	6
68	103
69	90
70	6
71	60
72	38
73	18
85	267
86	60
87	5
88	22
100	32
101	6
103	17
