Mass Spectrum: 2-Hexanone, 6-methoxy-
Formula: C7H14O2
CAS: 29006-00-6
Molecular weight: 130
m/z	intensity
41	125
42	23
43	999
44	34
45	648
46	28
47	15
53	15
54	15
55	109
56	78
57	39
58	65
59	42
60	15
67	15
69	15
70	28
71	218
72	39
73	34
75	15
79	15
80	15
81	15
83	125
84	18
85	34
87	18
97	56
98	381
99	40
111	15
112	34
115	18
130	15
