Mass Spectrum: Butyric acid, 4-isopropoxy-, methyl ester
Formula: C8H16O3
CAS: 29006-05-1
Molecular weight: 160
m/z	intensity
41	581
42	209
43	845
44	69
45	287
55	63
56	43
57	243
58	90
59	890
60	32
69	127
70	21
71	60
72	18
73	163
74	281
75	18
85	996
86	76
87	676
88	236
89	36
100	18
101	999
102	103
103	18
117	709
118	50
132	18
145	14
