Mass Spectrum: 2-Acetylamino-3-(4-hydroxy-phenyl)-propionic acid
Formula: C11H13NO4
CAS: 2901-77-1
Molecular weight: 223
m/z	intensity
26	3
27	23
28	35
29	13
30	9
31	2
35	4
37	4
39	37
40	5
41	30
42	18
43	204
44	15
45	10
46	5
49	10
51	33
52	19
53	29
54	7
55	33
56	8
57	21
58	3
59	40
60	73
61	3
62	4
63	14
64	5
65	23
66	5
67	11
68	5
69	18
70	5
71	10
72	26
73	5
74	37
75	7
76	4
77	108
78	30
79	25
80	7
81	13
82	5
83	12
84	4
85	6
86	9
87	3
89	9
90	7
91	43
92	5
93	4
94	12
95	8
96	3
97	8
98	4
99	8
100	2
101	2
103	2
104	3
105	7
106	10
107	999
108	84
109	9
110	2
111	4
112	4
114	2
116	2
117	4
118	19
119	20
120	19
121	5
123	5
125	2
126	3
128	3
131	2
132	4
133	10
134	20
136	44
140	2
143	2
145	5
147	37
148	7
153	1
162	7
163	35
164	544
165	48
166	5
167	2
177	2
178	3
205	0
208	0
223	18
224	3
