Mass Spectrum: Benzoyl-dl-valine
Formula: C12H15NO3
CAS: 2901-80-6
Molecular weight: 221
m/z	intensity
15	2
17	2
18	7
26	2
27	27
28	23
29	8
30	2
32	3
37	1
38	4
39	24
40	3
41	31
42	4
43	54
44	6
45	4
49	1
50	27
51	98
52	9
53	3
54	2
55	7
56	7
57	3
59	1
62	1
63	3
64	1
65	1
68	1
69	1
70	8
71	2
72	2
73	1
74	7
75	7
76	21
77	352
78	28
79	6
80	1
82	3
83	3
84	2
88	1
89	2
91	1
99	1
100	1
101	3
103	10
104	22
105	999
106	125
107	9
116	3
117	2
120	1
121	13
122	183
123	14
124	1
132	4
133	66
134	10
135	1
139	2
144	11
145	2
159	1
160	3
161	239
162	34
163	3
175	7
176	111
177	28
178	5
179	42
180	4
188	6
201	3
203	16
204	3
206	2
220	1
221	24
222	4
