Mass Spectrum: 3-Heptyne, 2,2-dimethyl-
Formula: C9H16
CAS: 29022-29-5
Molecular weight: 124
m/z	intensity
39	198
40	29
41	366
42	19
43	326
50	19
51	69
52	29
53	138
54	19
55	356
56	49
57	128
62	9
63	29
64	9
65	89
66	19
67	910
68	79
69	108
70	19
77	128
78	19
79	148
80	39
81	336
82	49
91	9
92	9
93	29
94	49
95	128
96	118
109	999
110	89
124	435
125	59
