Mass Spectrum: 1,3-Dioxolane-2-propanol, 2-methyl-
Formula: C7H14O3
CAS: 29021-98-5
Molecular weight: 146
m/z	intensity
41	170
42	130
43	999
44	60
45	60
50	20
51	20
52	70
54	80
55	80
56	20
57	20
58	140
59	30
61	20
62	30
69	80
71	20
72	10
83	150
84	300
85	170
86	10
87	280
88	20
131	40
