Mass Spectrum: 2-Methyl-3-hydroxy-1,4-naphthoquinone-4-benzoylhydrazone
Formula: C18H14N2O3
CAS: 29020-81-3
Molecular weight: 306
m/z	intensity
43	5
50	33
51	129
52	12
55	10
62	8
63	22
65	13
74	6
75	19
76	27
77	491
78	32
89	21
90	5
91	31
101	9
102	24
103	10
104	3
105	999
106	73
115	110
116	23
117	24
127	16
128	2
130	15
145	38
173	129
174	16
201	402
202	53
203	2
277	35
278	37
279	3
289	2
306	48
307	11
