Mass Spectrum: Benzene, 2-methoxy-1-methyl-3,5-dinitro-
Formula: C8H8N2O5
CAS: 29027-13-2
Molecular weight: 212
m/z	intensity
26	26
27	167
30	999
31	149
37	22
38	104
39	616
41	58
42	16
43	149
45	18
46	146
49	10
50	353
51	877
52	204
53	548
54	51
55	42
56	19
59	8
60	5
61	43
62	176
63	505
64	210
65	423
66	207
67	91
68	64
69	82
70	8
73	14
74	143
75	141
76	144
77	315
78	336
79	114
80	42
81	45
82	7
83	9
84	4
85	22
86	36
87	57
88	31
89	849
90	658
91	318
92	66
93	357
94	155
95	11
96	33
103	3
104	38
105	177
106	222
107	153
108	45
109	15
118	22
119	122
120	99
121	141
122	32
123	6
124	5
134	19
135	28
136	42
137	16
150	7
151	33
152	18
165	420
166	28
180	3
181	9
182	641
183	85
184	6
195	17
196	23
212	635
213	54
