Mass Spectrum: 6,6-Dimethyl-3-methylthio-1,4,5,6-tetrahydro-5-oxo-1,2,4-triazine
Formula: C6H11N3OS
CAS: 29039-69-8
Molecular weight: 173
m/z	intensity
42	999
43	162
45	112
47	135
53	10
54	22
56	222
57	63
58	52
59	16
60	40
62	51
64	3
65	5
67	1
69	65
70	56
71	17
72	15
74	103
75	6
76	6
77	5
81	4
82	4
87	8
88	51
89	747
91	19
95	1
96	2
98	175
99	12
100	0
101	2
103	5
104	2
111	4
112	3
113	12
115	33
116	2
117	2
124	6
126	16
128	1
129	1
130	51
131	3
132	1
141	5
143	6
145	49
146	5
147	2
156	1
158	872
159	30
171	10
172	4
173	280
174	27
175	9
176	1
