Mass Spectrum: 5-Octyn-4-one, 2,7-dimethyl-
Formula: C10H16O
CAS: 29030-74-8
Molecular weight: 152
m/z	intensity
12	1
13	2
14	10
15	73
16	2
17	1
18	4
19	0
25	1
26	19
27	199
28	27
29	127
30	3
31	1
36	0
37	11
38	25
39	246
40	42
41	475
42	41
43	86
44	3
45	2
46	0
48	0
49	5
50	70
51	120
52	69
53	156
54	14
55	45
56	30
57	76
58	4
59	1
60	2
61	10
62	17
63	34
64	9
65	597
66	37
67	453
68	37
69	18
70	4
71	1
73	1
74	5
75	3
76	1
77	31
78	8
79	55
80	18
81	48
82	19
83	5
84	1
85	9
86	1
87	1
89	1
90	1
91	13
92	4
93	12
94	10
95	999
96	77
97	8
98	1
103	1
105	1
107	3
108	3
109	59
110	303
111	25
112	1
117	0
119	2
121	1
122	1
123	5
124	3
134	1
135	0
136	1
137	142
138	14
139	1
151	2
152	13
153	2
