Mass Spectrum: 2-Furaldehyde chloroacetylhydrazone
Formula: C7H7ClN2O2
CAS: 29043-59-2
Molecular weight: 186
m/z	intensity
14	2
15	1
26	8
27	52
28	29
29	26
30	2
31	1
32	1
35	2
36	24
37	9
38	25
39	68
40	8
41	9
42	15
43	16
44	52
47	1
48	4
49	54
50	26
51	63
52	83
53	38
54	38
55	20
56	5
57	3
58	1
59	4
62	1
63	2
64	19
65	18
66	20
67	5
68	9
69	3
75	3
76	4
77	50
78	3
79	23
80	18
81	182
82	22
83	20
84	9
92	1
93	999
94	644
95	58
96	6
97	1
105	1
106	1
107	2
108	12
109	92
110	159
111	10
112	1
121	3
122	6
123	4
128	1
129	2
133	1
134	6
135	2
137	29
138	2
149	1
150	6
151	8
152	2
155	1
159	9
161	3
186	457
187	44
188	148
189	14
190	1
