Mass Spectrum: Butyric acid, m-chlorophenyl ester
Formula: C10H11ClO2
CAS: 29052-05-9
Molecular weight: 198
m/z	intensity
26	9
27	133
28	15
29	14
37	7
38	26
39	80
40	10
41	168
42	33
43	999
44	29
45	1
47	1
49	6
50	17
51	9
53	6
55	67
56	3
60	3
61	6
62	15
63	58
64	39
65	39
66	5
67	2
68	1
69	6
70	46
71	954
72	37
73	38
74	10
75	38
76	6
77	3
84	1
85	4
87	2
89	2
91	3
92	10
93	6
99	44
100	15
101	15
102	5
111	25
112	3
113	8
125	1
127	4
128	642
129	17
130	199
131	5
139	2
141	2
155	3
157	1
198	37
199	4
200	12
201	1
