Mass Spectrum: Butanoic acid, 4-bromophenyl ester
Formula: C10H11BrO2
CAS: 29052-06-0
Molecular weight: 242
m/z	intensity
26	14
27	464
28	4
29	18
36	1
37	14
38	58
39	130
40	11
41	201
42	37
43	999
44	13
45	1
46	1
49	3
50	39
51	9
52	1
53	10
54	1
55	52
56	3
60	2
61	9
62	30
63	125
64	69
65	100
66	7
67	2
68	1
69	8
70	15
71	682
72	26
73	4
74	14
75	31
76	27
77	4
91	1
92	15
93	43
94	5
95	2
107	1
109	1
116	1
117	18
118	1
119	19
120	1
121	1
143	31
144	4
145	31
146	3
155	11
156	1
157	10
158	1
169	1
171	7
172	249
173	20
174	240
175	15
183	1
185	1
242	19
243	2
244	17
245	2
