Mass Spectrum: Butyric acid, p-iodophenyl ester
Formula: C10H11IO2
CAS: 29052-08-2
Molecular weight: 290
m/z	intensity
26	9
27	137
28	18
29	13
36	1
37	15
38	77
39	135
40	10
41	191
42	35
43	999
44	34
45	2
46	1
49	3
50	59
51	10
52	1
53	11
54	2
55	52
56	2
57	1
60	2
61	11
62	36
63	162
64	190
65	150
66	12
67	1
68	2
69	9
70	12
71	570
72	23
73	6
74	18
75	15
76	67
77	7
78	2
79	1
90	1
91	2
92	59
93	164
94	19
95	2
104	1
106	1
107	3
110	1
120	3
121	3
127	8
128	2
134	1
163	1
164	1
165	5
191	23
192	2
216	8
218	1
219	8
220	380
221	1
290	37
291	4
