Mass Spectrum: Butyric acid, ester with m-hydroxybenzonitrile
Formula: C11H11NO2
CAS: 29052-09-3
Molecular weight: 189
m/z	intensity
26	10
27	124
28	14
29	14
37	12
38	22
39	92
40	10
41	152
42	38
43	789
44	23
50	12
51	15
52	8
53	3
55	46
56	3
61	5
62	12
63	44
64	46
65	8
69	6
70	20
71	999
72	38
73	4
74	4
75	17
76	12
77	3
87	1
88	4
89	3
90	39
91	27
92	5
93	2
102	35
103	4
104	2
116	4
117	3
118	7
119	88
120	14
130	6
132	2
146	6
189	25
190	3
