Mass Spectrum: Naphtho[2,1-b]furan-2(1H)-one, decahydro-8-hydroxy-3a,6,6,9a-tetramethyl-, (3aR,5aS,8R,9aS,9bR)-
Formula: C16H26O3
CAS: 29065-33-6
Molecular weight: 266
m/z	intensity
41	810
42	20
43	999
44	30
53	200
54	10
55	450
56	30
57	220
58	20
59	110
65	100
67	400
68	320
69	500
70	80
71	170
77	120
79	210
80	90
81	310
82	140
83	170
84	50
85	100
91	100
92	70
93	200
94	100
95	330
96	100
97	130
98	100
99	60
105	130
106	70
107	310
108	100
109	310
110	60
111	170
112	10
119	160
120	90
121	360
122	170
123	500
124	50
125	70
131	20
133	80
134	130
135	260
136	120
137	100
138	150
139	380
140	120
141	50
145	50
147	110
148	70
149	50
151	80
152	20
153	50
154	30
161	50
162	50
163	40
164	40
165	40
166	110
167	50
169	50
173	60
175	70
177	40
179	20
187	70
189	90
191	60
193	40
204	70
205	80
207	60
209	20
215	20
222	380
223	40
233	270
234	40
248	80
251	180
252	40
266	90
267	10
