Mass Spectrum: Butanoic acid, 4,4'-dithiobis-
Formula: C8H14O4S2
CAS: 2906-60-7
Molecular weight: 238
m/z	intensity
12	5
13	2
14	2
15	40
19	11
26	32
27	350
29	128
30	6
31	77
33	8
34	9
35	14
36	17
37	14
38	31
39	257
40	29
41	553
42	153
43	667
44	52
45	999
46	125
47	93
48	11
49	6
53	5
55	74
56	14
57	34
58	35
59	73
60	94
61	44
62	4
63	12
64	48
65	13
66	11
68	11
69	100
70	14
71	34
72	32
73	131
74	21
75	3
76	12
77	9
78	18
79	32
80	4
81	6
83	3
84	2
85	33
86	10
87	627
88	42
89	15
91	7
92	7
99	9
100	29
101	22
102	24
103	20
104	4
105	42
106	132
107	14
108	13
117	7
118	14
119	19
120	6
133	8
134	62
135	11
136	7
238	67
239	8
240	8
