Mass Spectrum: 1,5-Naphthalenedione, octahydro-4a-methyl-, trans-(.+-.)-
Formula: C11H16O2
CAS: 2906-90-3
Molecular weight: 180
m/z	intensity
26	31
27	507
28	212
29	241
30	9
31	11
37	5
38	25
39	529
40	166
41	763
42	239
43	229
44	15
45	16
46	32
47	48
48	41
50	25
51	92
52	67
53	341
54	143
55	999
56	78
57	43
58	10
59	9
60	10
61	4
62	25
63	23
64	8
65	105
66	71
67	578
68	643
69	270
70	59
71	22
77	147
78	44
79	252
80	115
81	636
82	319
83	181
84	449
85	31
86	4
88	3
89	4
91	126
92	40
93	208
94	86
95	329
96	741
97	859
98	485
99	39
100	4
103	5
104	4
105	50
106	48
107	66
108	141
109	355
110	137
111	752
112	162
113	15
115	4
117	5
118	18
119	79
120	42
121	71
122	13
123	110
124	427
125	117
126	11
129	8
131	4
133	47
134	71
135	92
136	272
137	872
138	100
139	10
143	4
144	17
145	4
147	26
148	3
149	9
150	3
151	72
152	99
153	10
161	6
162	22
163	7
164	3
165	51
166	8
180	863
181	107
182	12
