Mass Spectrum: Naphtho[2,1-b]furan-2,8-dione, decahydro-3a,6,6,9a-tetramethyl-, (3aR,5aS,9aS,9bR)-
Formula: C16H24O3
CAS: 29064-99-1
Molecular weight: 264
m/z	intensity
40	90
41	610
42	20
43	880
44	120
50	20
51	50
52	40
53	240
54	40
55	350
56	80
57	50
58	20
65	60
66	30
67	330
68	999
69	130
70	20
71	30
77	100
78	120
79	150
80	40
81	160
82	260
83	380
84	30
91	110
92	20
93	210
94	30
95	340
96	110
97	50
99	30
105	50
106	30
107	280
108	80
109	220
110	60
111	60
119	100
120	90
121	230
122	300
123	100
124	10
125	80
126	20
133	50
135	160
136	50
137	230
138	170
139	110
147	50
149	170
150	20
151	270
152	40
153	120
161	60
162	20
163	50
164	90
165	130
166	50
167	40
178	80
179	70
183	20
189	20
191	50
193	20
203	50
205	170
206	20
207	70
220	120
221	100
222	10
231	50
236	20
249	370
250	60
264	700
265	120
