Mass Spectrum: Oxirane-2-carboxylic acid, 2-aminocarbonyl-3-methyl-3-(1-methylethyl)-, ethyl ester
Formula: C10H17NO4
CAS: 2907-73-5
Molecular weight: 215
m/z	intensity
14	1
15	21
16	4
17	10
18	2
26	11
27	198
28	98
29	605
30	23
31	23
37	1
38	4
39	112
40	18
41	539
42	124
43	631
44	454
45	205
46	49
47	79
48	2
50	5
51	10
52	6
53	61
54	18
55	442
56	38
57	67
58	21
59	160
60	9
61	4
62	20
63	45
64	1
65	8
66	6
67	50
68	29
69	721
70	284
71	121
72	13
73	138
74	96
75	12
76	4
77	5
78	7
79	14
80	5
81	21
82	7
83	506
84	40
85	71
86	93
87	944
88	57
89	9
90	26
91	141
92	6
93	2
94	2
95	7
96	18
97	999
98	436
99	96
100	15
101	62
102	90
103	85
104	40
105	2
106	1
107	3
108	4
109	8
110	6
111	16
112	15
113	19
114	10
115	66
116	9
117	5
118	80
119	91
120	8
121	1
122	1
123	3
124	14
125	176
126	58
127	27
128	16
129	26
130	86
131	748
132	53
133	8
134	2
135	5
136	7
137	4
138	1
139	2
140	7
141	23
142	329
143	121
144	31
145	61
146	80
147	473
148	48
149	6
150	1
151	4
152	42
153	9
154	8
155	8
156	5
157	29
158	7
159	1
167	1
168	2
169	8
170	43
171	182
172	534
173	65
174	8
180	1
181	3
182	9
183	3
184	1
186	3
187	19
188	2
196	4
197	5
198	93
199	19
200	11
201	2
214	1
215	361
216	74
217	9
