Mass Spectrum: Phenol, 2,2'-sulfinylbis[4-chloro-
Formula: C12H8Cl2O3S
CAS: 29097-31-2
Molecular weight: 302
m/z	intensity
34	34
36	103
37	118
38	228
39	275
40	65
41	91
43	471
45	610
47	60
48	18
49	77
50	136
51	299
53	342
55	63
56	17
57	65
58	19
60	174
61	146
62	337
63	999
64	137
65	91
66	32
67	18
69	271
70	42
71	60
72	63
73	361
74	81
75	157
76	12
77	31
79	197
80	24
81	60
82	32
83	36
84	34
85	36
86	26
87	73
88	11
89	42
90	14
91	57
92	47
93	129
95	544
96	70
97	96
99	574
100	68
101	156
102	21
103	22
104	11
105	22
106	10
107	27
108	28
109	20
110	62
111	58
112	23
113	22
114	30
115	97
117	39
118	13
119	9
120	9
121	9
122	5
123	20
125	80
126	91
128	984
130	585
131	156
132	84
133	59
134	15
135	20
136	9
137	7
138	5
139	8
140	4
142	31
143	105
144	113
145	34
146	43
147	151
148	61
149	49
151	18
152	5
153	4
155	22
156	7
157	17
158	70
159	121
160	101
161	53
162	45
163	9
164	8
165	9
166	8
167	10
168	6
169	9
170	8
171	19
173	16
175	261
176	29
177	89
178	9
179	9
180	2
181	2
182	1
183	6
184	27
185	8
186	21
187	82
188	14
189	26
190	14
191	28
192	11
193	13
194	9
195	17
196	8
197	7
198	4
199	4
200	1
201	3
202	6
203	4
204	5
205	13
206	3
207	7
208	3
209	2
210	1
211	1
212	1
213	2
214	3
215	27
216	10
217	18
218	34
219	51
221	702
222	113
223	241
224	34
225	14
226	4
227	3
228	20
229	4
230	13
231	2
232	4
233	4
234	3
235	5
236	31
237	7
238	22
239	7
240	5
241	3
246	2
247	4
249	90
250	217
251	57
252	84
253	17
254	57
255	56
256	66
257	41
258	29
259	14
260	5
261	1
266	1
267	3
268	9
269	2
270	7
271	2
272	1
280	1
281	3
282	4
284	132
285	26
286	136
287	20
288	50
289	9
290	8
291	1
297	1
298	7
300	16
302	413
303	70
304	250
305	38
306	49
307	7
308	3
