Mass Spectrum: Picolinamide, N-(.alpha.methylbenzyl)-
Formula: C14H14N2O
CAS: 2909-32-2
Molecular weight: 226
m/z	intensity
33	1
34	1
36	1
37	9
38	27
39	113
40	32
41	32
42	177
43	15
44	19
45	2
50	168
51	552
52	278
53	60
54	7
55	5
56	1
57	2
61	3
62	13
63	37
64	14
65	39
66	9
67	3
68	1
69	2
70	2
74	19
75	27
76	61
77	397
78	999
79	480
80	41
81	1
86	1
87	0
89	17
90	9
91	38
92	9
93	9
94	3
95	1
98	1
99	0
101	2
102	14
103	87
104	168
105	164
106	304
107	29
108	4
115	1
116	1
117	4
118	12
120	953
121	90
122	5
123	2
126	0
127	2
128	3
129	1
130	1
131	3
132	14
133	3
134	2
135	1
140	1
141	0
143	0
146	2
149	17
150	1
153	0
154	4
155	5
156	2
166	0
167	5
169	1
180	1
181	2
182	2
183	4
188	1
189	0
197	0
198	1
203	1
207	3
208	2
209	1
211	84
212	10
213	0
226	24
227	3
