Mass Spectrum: 1H-2,3-Benzodiazepine, 1-methyl-
Formula: C10H10N2
CAS: 29100-32-1
Molecular weight: 158
m/z	intensity
39	120
51	240
63	180
64	250
77	120
89	100
115	999
116	220
128	250
129	890
130	840
131	130
158	420
