Mass Spectrum: 2-Cyclopentene-1-tridecanoic acid, (S)-
Formula: C18H32O2
CAS: 29106-32-9
Molecular weight: 280
m/z	intensity
27	5
28	1
29	12
31	1
39	19
40	5
41	95
42	15
43	40
44	2
45	12
50	1
51	3
52	2
53	19
54	18
55	104
56	16
57	20
58	2
59	6
60	43
61	5
62	1
63	1
65	31
66	115
67	999
68	88
69	63
70	10
71	11
72	1
73	32
74	3
77	19
78	4
79	54
80	64
81	90
82	510
83	112
84	15
85	6
86	1
87	6
91	9
92	2
93	20
94	18
95	100
96	68
97	32
98	10
99	3
100	2
101	5
102	1
103	1
105	2
106	1
107	6
108	7
109	32
110	29
111	15
112	4
113	2
114	3
115	5
116	1
117	1
119	2
120	1
121	15
122	11
123	36
124	29
125	9
126	2
127	3
129	6
130	1
131	1
133	2
134	2
135	6
136	8
137	21
138	15
139	6
140	1
141	1
143	2
147	2
148	1
150	2
151	4
152	3
153	2
154	1
155	1
157	1
161	1
162	1
163	6
164	1
165	2
166	1
167	1
168	1
171	2
175	1
176	1
177	2
178	1
179	1
180	2
181	5
182	1
187	2
193	2
194	1
195	2
196	1
197	1
199	1
201	1
205	1
206	1
209	1
210	1
213	1
215	1
220	1
221	1
222	1
223	5
224	3
225	1
234	2
237	3
238	2
239	1
251	1
252	3
253	1
262	16
263	5
264	2
280	40
281	8
282	1
