Mass Spectrum: Carbamic acid, N-(4-chlorophenyl)-, 1-methylethenylidenamino ester
Formula: C10H11ClN2O2
CAS: 2911-48-0
Molecular weight: 226
m/z	intensity
33	9
35	2
36	7
37	42
38	80
39	182
40	173
41	201
42	152
43	49
44	168
45	23
49	11
50	47
51	44
52	50
53	11
54	79
55	114
56	582
57	74
58	84
60	3
61	30
62	64
63	170
64	70
65	59
66	7
67	35
69	8
70	5
71	8
72	35
73	999
74	65
75	63
76	12
77	14
78	6
79	7
81	26
83	86
84	11
85	2
86	10
87	3
88	8
89	23
90	131
91	64
92	29
93	15
97	5
98	24
99	199
100	33
101	51
107	5
111	28
112	8
113	10
125	135
126	133
127	225
128	47
129	57
130	5
142	5
143	14
153	471
154	53
155	138
156	14
167	2
190	47
226	111
227	8
228	33
