Mass Spectrum: Guanfacine
Formula: C9H9Cl2N3O
CAS: 29110-47-2
Molecular weight: 245
m/z	intensity
42	5
43	27
44	3
50	2
51	2
53	1
55	2
57	2
58	3
60	7
61	3
62	8
63	17
64	2
69	117
70	3
73	24
74	10
75	18
76	3
77	3
78	2
80	2
83	4
84	3
86	999
88	10
89	45
91	2
95	2
97	11
99	14
101	7
102	4
103	2
104	2
105	1
107	3
109	6
110	1
111	11
112	5
114	3
119	2
121	4
123	89
125	48
127	10
128	2
133	22
135	9
137	8
138	5
140	7
141	2
143	2
147	4
148	2
150	2
156	2
158	6
159	149
161	87
163	29
165	18
167	6
168	16
170	2
174	9
176	3
182	2
183	8
186	12
188	6
190	2
192	2
193	2
201	2
203	4
205	2
210	108
212	24
214	1
244	2
245	24
246	9
247	13
248	4
