Mass Spectrum: 4-Isopropyl-5,10-dimethyl-decalin-1,3-dione
Formula: C15H24O2
CAS: 291278-94-9
Molecular weight: 236
m/z	intensity
41	999
43	530
53	240
55	660
67	490
69	540
81	430
83	330
95	560
109	890
110	350
123	190
137	790
151	230
152	220
165	170
179	350
194	440
203	20
221	40
236	30
