Mass Spectrum: Thiourea,1-(3-hydroxypropyl)-3-phenyl-
Formula: C10H14N2OS
CAS: 29146-63-2
Molecular weight: 210
m/z	intensity
37	8
38	17
39	81
40	25
41	110
42	52
43	60
44	160
45	28
46	9
47	3
48	1
49	4
50	50
51	150
52	31
53	16
54	22
55	50
56	53
57	91
58	54
59	43
60	59
61	15
62	17
63	40
64	39
65	130
66	98
67	50
68	10
69	42
70	23
71	30
72	60
73	21
74	57
75	25
76	32
77	430
78	54
79	21
80	10
81	36
82	38
83	24
84	17
85	16
86	17
87	6
88	7
89	7
90	19
91	83
92	120
93	999
94	96
95	20
96	16
97	20
98	9
99	16
100	22
101	15
102	5
103	14
104	47
105	21
106	41
107	16
108	14
109	62
110	39
111	13
112	6
113	5
114	1
115	4
116	4
117	40
118	160
119	160
120	66
121	10
122	12
123	36
124	23
125	7
126	3
127	3
128	2
129	4
130	5
131	36
132	10
133	42
134	13
135	170
136	110
137	19
138	8
139	3
140	2
141	6
142	2
143	3
144	4
145	7
146	2
147	42
148	8
149	20
150	13
151	38
152	7
153	5
154	1
155	3
156	1
157	3
158	2
159	6
160	1
161	2
162	1
163	14
164	3
165	15
166	25
167	8
168	5
169	2
170	5
171	1
174	5
175	95
176	72
177	110
178	15
179	9
180	4
181	2
183	6
184	2
185	1
190	1
191	12
192	5
193	6
194	1
208	2
209	16
210	230
211	29
212	12
213	1
