Mass Spectrum: 2,4-Pentanedione, 3-(1-methyl-2-propenyl)-
Formula: C9H14O2
CAS: 29149-83-5
Molecular weight: 154
m/z	intensity
25	0
26	5
27	76
28	19
29	79
30	1
31	4
33	1
37	3
38	8
39	87
40	19
41	135
42	23
43	999
44	35
45	10
46	0
49	1
50	9
51	21
52	8
53	48
54	8
55	125
56	8
57	9
58	6
59	1
61	1
62	2
63	5
64	0
65	14
66	5
67	51
68	14
69	109
70	36
71	7
72	2
74	0
77	30
78	4
79	51
80	3
81	13
82	2
83	22
84	3
85	229
86	12
87	0
91	13
92	1
93	36
94	52
95	20
96	23
97	465
98	31
99	10
100	31
101	31
102	1
103	0
105	0
107	1
108	0
109	5
110	2
111	332
112	111
113	10
114	8
115	1
121	17
122	1
123	0
124	0
125	7
126	0
127	1
135	1
136	10
137	1
139	51
140	4
141	0
153	1
154	59
155	6
156	1
