Mass Spectrum: (1R,2R,5S)-5-Methyl-2-(prop-1-en-2-yl)cyclohexanol
Formula: C10H18O
CAS: 29141-10-4
Molecular weight: 154
m/z	intensity
26	5
27	111
28	17
29	154
31	37
37	3
38	15
39	414
40	100
41	834
42	123
43	403
44	73
45	24
50	22
51	80
52	44
53	359
54	76
55	731
56	487
57	230
58	32
59	55
61	2
62	7
63	25
65	118
66	59
67	992
68	754
69	999
70	267
71	885
72	111
73	8
74	3
75	3
77	172
78	39
79	402
80	188
81	654
82	177
83	405
84	611
85	154
86	15
91	132
92	108
93	544
94	226
95	628
96	137
97	353
98	239
99	41
103	8
105	51
106	13
107	280
108	115
109	330
110	333
111	565
112	262
113	19
114	1
121	916
122	94
123	122
124	11
125	23
126	10
136	392
137	46
139	282
140	27
141	2
154	146
155	17
