Mass Spectrum: Cyclohexanol, 2-[(dimethylamino)methyl]-1-(3-methoxyphenyl)-
Formula: C16H25NO2
CAS: 2914-77-4
Molecular weight: 263
m/z	intensity
29	24
30	47
31	3
32	3
39	15
40	2
41	37
42	46
43	19
44	54
45	59
46	49
51	4
53	5
55	35
56	7
58	999
59	37
63	4
64	5
65	8
67	4
68	2
69	4
70	4
71	2
72	3
73	3
74	7
76	2
77	19
78	5
79	5
82	2
84	7
91	8
92	7
93	2
94	2
107	9
108	4
109	2
114	2
115	4
121	6
122	2
128	2
129	2
134	2
135	15
145	2
150	4
159	2
163	2
188	2
218	2
262	2
263	29
264	5
