Mass Spectrum: Methanesulfonic acid, chloro-, tetramethylene ester
Formula: C6H12Cl2O6S2
CAS: 29166-53-8
Molecular weight: 314
m/z	intensity
41	220
42	389
43	205
44	39
45	7
47	7
48	39
49	539
50	17
51	191
53	23
54	327
55	999
56	45
57	40
62	4
63	6
64	6
65	25
67	1
70	146
71	811
72	43
73	2
77	8
78	18
79	130
80	1
81	43
84	4
85	2
86	4
89	4
90	1
91	8
92	10
93	3
97	5
100	18
102	6
105	8
107	11
113	2
114	9
133	12
143	93
145	39
156	66
158	27
169	5
171	8
179	1
181	5
183	2
184	15
185	41
186	6
187	14
220	1
243	15
245	11
314	2
