Mass Spectrum: Tricyclo[4.4.0.0(3,9)]decane
Formula: C10H16
CAS: 29185-96-4
Molecular weight: 136
m/z	intensity
26	12
27	169
28	6
29	94
38	14
39	289
40	46
41	405
42	34
43	44
44	7
45	18
50	21
51	71
52	45
53	177
54	190
55	174
56	29
57	36
58	27
59	7
63	22
64	9
65	100
66	133
67	602
68	122
69	61
70	17
71	18
77	201
78	101
79	675
80	421
81	494
82	183
83	32
84	11
85	12
91	149
92	50
93	398
94	999
95	739
96	60
97	18
98	10
105	33
106	17
107	297
108	177
109	24
111	8
115	9
117	9
119	34
120	9
121	362
122	40
123	4
135	24
136	706
137	81
138	6
