Mass Spectrum: 4-Bromo-5-[bis[N-methyl-N-cyclopentylaminoethyl]amino]veratrole
Formula: C24H40BrN3O2
CAS: 29194-87-4
Molecular weight: 481
m/z	intensity
41	259
42	200
43	27
44	885
45	21
47	5
48	0
49	13
50	2
51	6
52	3
53	9
54	9
55	19
56	31
57	40
58	220
59	7
62	0
63	1
64	0
65	8
66	3
67	28
68	41
69	101
70	39
71	5
72	2
76	1
77	6
78	4
79	7
80	3
81	4
82	35
83	7
84	19
85	0
86	13
88	0
89	0
90	1
91	3
92	3
93	4
94	11
95	4
96	24
97	7
98	10
99	0
100	0
103	0
104	1
105	1
106	3
107	3
108	3
109	1
110	21
111	4
112	999
113	107
114	3
116	0
117	1
118	1
119	1
120	5
121	6
122	7
123	1
124	21
125	26
126	549
127	48
128	2
130	0
131	0
132	2
133	1
134	2
135	2
136	3
137	3
138	2
143	0
145	0
146	1
147	3
148	0
149	7
150	14
151	5
152	1
157	1
158	0
159	0
160	1
161	1
162	1
163	3
164	7
165	13
166	4
168	0
171	0
172	0
173	0
174	1
175	0
176	1
177	2
178	5
179	2
180	6
184	0
185	1
187	0
188	1
190	2
191	1
192	23
193	8
194	3
196	0
200	4
201	0
202	3
203	1
204	1
205	2
206	2
207	1
208	2
214	0
215	0
216	1
217	0
218	1
219	0
220	0
221	13
222	3
224	0
226	0
228	7
229	10
230	8
231	10
232	1
233	1
242	4
243	4
244	10
245	6
246	6
247	1
257	2
258	3
259	3
260	3
261	0
272	52
273	5
274	52
275	8
276	1
277	2
278	3
279	0
285	7
286	0
287	7
288	1
289	9
290	5
291	5
292	2
294	0
299	2
301	2
303	4
304	1
305	2
318	0
329	0
334	0
342	0
344	0
355	0
356	101
357	20
358	98
359	17
360	1
362	0
369	87
370	17
371	91
372	16
373	1
382	1
383	0
384	1
385	1
406	0
481	7
482	1
483	7
484	1
