Mass Spectrum: 4-Bromo-5-[bis[N-pyrrolidinylethyl]amino]veratrole
Formula: C20H32BrN3O2
CAS: 29194-82-9
Molecular weight: 425
m/z	intensity
41	103
42	402
43	47
44	36
45	3
47	1
49	5
50	2
51	6
52	4
53	12
54	34
55	190
56	171
57	15
58	3
59	1
63	2
64	2
65	8
66	3
67	9
68	27
69	81
70	35
71	7
72	1
75	1
76	1
77	9
78	5
79	10
80	6
81	4
82	27
83	32
84	999
85	85
86	5
88	0
89	1
90	2
91	6
92	6
93	8
94	10
95	4
96	71
97	93
98	637
99	41
100	1
102	0
103	1
104	3
105	3
106	9
107	6
108	4
109	2
110	5
111	1
112	48
113	3
116	1
117	2
118	3
119	3
120	9
121	8
122	8
123	1
124	22
125	1
126	49
127	4
129	1
130	1
131	1
132	3
133	2
134	5
135	3
136	3
137	2
138	1
140	1
143	1
144	0
145	1
146	2
147	4
148	6
149	10
150	14
151	4
152	2
157	2
158	0
159	1
160	2
161	3
162	3
163	10
164	8
165	14
166	4
169	0
172	1
173	1
174	1
175	1
176	2
177	3
178	14
179	4
180	5
185	1
187	2
188	1
189	1
190	3
191	7
192	43
193	15
194	6
197	0
200	4
201	1
202	4
203	1
204	2
205	4
206	6
207	2
208	2
211	0
212	0
214	1
215	1
216	1
217	2
218	1
219	1
220	1
221	0
226	0
228	5
229	11
230	7
231	12
232	9
233	3
234	3
235	0
238	1
242	5
243	4
244	8
245	6
246	5
247	10
248	6
249	52
250	13
251	1
256	0
257	4
258	5
259	5
260	5
261	18
262	6
263	14
264	2
270	0
272	104
274	115
275	35
276	7
277	2
301	0
325	0
327	0
328	52
329	3
330	54
331	7
332	1
339	0
341	44
342	4
343	47
344	7
346	8
347	1
353	0
354	5
355	3
356	5
357	3
360	0
361	0
424	2
425	7
426	2
427	7
