Mass Spectrum: N,N-Bis[hexamethyleneiminopropyl]-4-amino veratrole
Formula: C26H45N3O2
CAS: 29194-85-2
Molecular weight: 431
m/z	intensity
41	204
42	226
43	94
44	188
45	7
47	3
48	1
49	16
50	2
51	8
52	4
53	11
54	19
55	194
56	103
57	63
58	253
59	9
63	1
64	0
65	7
66	3
67	16
68	38
69	48
70	104
71	30
72	17
73	0
75	0
77	11
78	3
79	16
80	7
81	13
82	50
83	54
84	113
85	15
86	23
88	2
90	2
91	5
92	4
93	4
94	11
95	9
96	74
97	75
98	68
99	20
100	14
103	1
104	2
105	3
106	4
107	6
108	7
109	4
110	328
111	74
112	999
113	88
114	6
115	2
116	0
117	2
118	6
119	3
120	6
121	5
122	21
123	8
124	312
125	42
126	99
127	9
128	1
130	1
131	2
132	3
133	3
134	5
135	5
136	11
137	20
138	66
139	385
140	83
141	6
144	1
146	5
147	3
148	7
149	5
150	46
151	34
152	21
153	17
154	6
155	1
160	7
161	2
162	16
163	5
164	36
165	31
166	41
167	27
168	3
169	2
174	3
175	1
176	16
177	8
178	20
179	15
180	94
181	16
182	1
183	1
185	1
188	1
189	1
190	5
191	2
192	49
193	40
194	50
195	9
196	1
202	1
203	1
204	5
205	2
206	26
207	33
208	15
209	2
216	3
218	10
219	3
220	16
221	5
222	2
229	2
232	3
233	3
234	2
235	1
238	0
242	0
247	1
248	3
274	0
278	2
289	0
292	134
293	28
294	3
303	1
306	2
328	3
330	1
332	1
431	19
432	5
