Mass Spectrum: 9-Eicosenoic acid, (Z)-
Formula: C20H38O2
CAS: 29204-02-2
Molecular weight: 310
m/z	intensity
29	191
39	90
41	649
42	96
43	606
53	87
54	204
55	999
56	264
57	396
60	172
61	36
67	475
68	239
69	653
70	286
71	191
73	156
79	155
80	77
81	281
82	240
83	489
84	229
85	108
87	43
94	47
95	129
96	192
97	352
98	195
100	37
101	56
102	13
108	58
109	85
110	130
111	185
112	93
113	47
114	68
115	38
121	38
123	90
124	53
125	69
126	30
127	47
129	64
134	23
137	65
139	41
151	47
152	37
153	28
166	18
168	11
211	11
222	20
224	10
227	9
248	24
249	17
292	63
293	30
310	17
