Mass Spectrum: 2-Pyrazolin-5-one, 4-(4-ethoxy-3-methoxybenzylidene)-3-methyl-1-phenyl-
Formula: C20H20N2O3
CAS: 292052-01-8
Molecular weight: 336
m/z	intensity
33	1
34	0
35	0
36	2
37	2
38	9
39	39
40	15
41	13
42	14
43	12
44	2
45	1
46	0
48	0
50	42
51	186
52	26
53	19
55	16
57	3
59	1
61	1
62	17
63	63
64	56
65	56
66	6
67	7
69	6
70	2
71	2
74	9
75	44
77	999
78	102
79	19
80	3
81	3
82	2
83	2
84	1
85	1
86	4
87	13
88	22
89	66
90	32
91	194
92	35
93	12
94	2
95	4
96	2
97	3
98	1
99	2
100	4
101	17
102	65
103	86
104	43
105	62
106	19
107	7
108	4
109	6
110	8
111	4
113	12
115	313
116	53
117	26
118	35
119	18
120	6
121	3
122	2
123	20
124	17
126	10
127	30
128	34
129	15
130	20
131	84
132	65
133	23
134	5
135	6
136	3
137	6
138	33
139	8
140	5
141	7
142	11
143	67
144	35
145	24
146	11
147	9
148	3
149	10
150	2
151	4
152	6
153	6
154	36
156	7
157	4
158	7
159	17
160	44
161	8
162	3
163	3
164	3
165	7
166	5
167	9
168	6
169	3
171	15
172	6
173	11
175	158
176	21
177	2
178	3
179	3
180	2
181	2
182	2
183	4
185	172
186	20
187	3
188	4
189	2
190	2
191	2
192	2
193	2
194	2
195	3
196	1
197	0
199	1
200	0
201	2
202	3
203	9
204	1
205	2
206	2
207	2
208	1
209	2
210	1
211	0
216	0
218	1
219	2
220	2
221	2
222	1
223	1
224	0
231	0
232	0
233	0
234	0
235	3
236	2
237	2
238	1
239	0
245	0
246	0
247	2
248	2
249	1
250	1
251	1
252	0
261	1
262	0
263	1
264	3
265	3
266	1
274	0
275	1
276	2
277	4
278	2
279	7
280	2
281	0
289	1
290	0
291	4
292	2
293	2
294	0
298	0
300	0
302	0
303	2
305	7
306	7
307	28
308	23
309	4
310	0
311	0
320	0
321	0
329	0
330	1
331	3
332	6
333	9
334	10
335	19
336	67
337	13
338	2
