Mass Spectrum: Methanol, (1-benzyl-2-imidazolyl)(1-naphthyl)-
Formula: C21H18N2O
CAS: 292052-54-1
Molecular weight: 314
m/z	intensity
33	45
34	2
39	50
40	90
41	21
42	25
43	4
44	8
50	7
51	35
52	8
53	3
54	3
56	3
57	0
62	7
63	20
65	130
66	7
67	3
68	7
69	12
71	1
74	6
75	14
77	56
78	10
79	3
80	0
81	4
82	1
86	7
87	4
88	7
89	33
91	999
92	69
93	1
95	84
97	118
98	6
99	3
100	5
101	15
102	13
103	11
104	6
105	1
113	2
114	3
115	11
116	5
117	1
119	3
125	5
127	267
128	125
129	51
130	18
131	2
132	1
138	3
139	28
140	20
141	35
142	4
143	0
144	0
146	0
147	5
148	1
150	6
151	10
152	14
153	23
154	33
155	99
157	166
158	24
159	17
160	0
164	2
165	5
166	16
167	17
168	27
169	10
170	3
171	20
173	113
174	10
175	1
177	2
178	6
179	3
180	2
181	1
182	2
185	8
187	56
188	4
191	1
192	3
193	13
195	79
196	14
201	0
202	6
203	10
205	198
206	59
207	14
208	4
215	11
217	106
218	66
219	22
221	42
223	320
224	42
225	3
226	0
227	0
228	0
229	2
230	6
231	1
232	0
235	2
271	0
280	3
281	5
283	156
284	22
285	9
286	1
292	0
293	2
294	4
295	17
296	9
297	29
298	6
302	2
309	1
310	4
311	22
313	258
314	516
315	88
316	11
