Mass Spectrum: N'-(1-(4-Nitrophenyl)ethylidene) 3-pyridinohydrazide
Formula: C14H12N4O3
CAS: 292180-78-0
Molecular weight: 284
m/z	intensity
38	14
39	42
40	130
41	41
42	29
43	58
44	53
50	87
51	207
52	56
53	19
55	23
56	6
57	49
62	3
63	19
64	16
65	27
67	3
69	7
70	7
71	9
74	7
75	21
76	37
77	73
78	468
79	63
80	5
82	9
85	5
89	4
90	5
91	27
92	7
102	18
103	20
104	25
106	999
107	74
112	5
113	10
116	6
117	3
118	8
119	9
127	8
129	2
131	35
132	37
133	5
135	12
149	18
150	4
162	82
163	9
171	12
179	30
180	9
221	3
223	17
258	2
269	434
270	71
271	6
283	11
284	110
285	16
