Mass Spectrum: Acridin-9-yl-(4-phenylazo-phenyl)-amine
Formula: C25H18N4
CAS: 292136-53-9
Molecular weight: 374
m/z	intensity
50	80
51	444
52	41
53	9
54	5
55	19
56	17
57	8
58	3
59	1
62	10
63	78
64	46
65	41
66	9
67	3
68	3
69	6
70	1
74	14
75	28
76	36
77	999
78	65
79	5
80	3
81	3
87	5
88	3
89	4
90	14
91	14
92	8
93	5
94	1
95	1
100	2
101	4
102	9
103	8
104	3
105	35
106	2
107	3
108	2
111	3
112	2
113	6
114	2
115	5
116	1
120	4
121	5
122	1
125	6
126	6
127	5
128	5
129	3
133	3
134	14
135	4
139	8
140	17
141	2
148	2
149	2
150	20
151	40
152	82
153	6
154	2
164	6
165	9
166	13
167	7
168	1
175	2
176	5
177	43
178	20
179	104
180	35
181	3
188	4
189	2
190	6
191	4
192	7
193	2
194	1
195	2
201	2
202	2
203	3
204	6
205	6
213	2
214	5
215	4
216	11
217	19
218	8
219	1
228	1
229	5
230	3
231	1
238	3
239	5
240	18
241	31
242	35
243	6
244	2
252	2
253	3
254	8
255	3
264	3
265	12
266	128
267	288
268	303
269	581
270	75
271	44
283	1
284	6
285	10
345	2
374	214
375	52
376	5
