Mass Spectrum: Ethylamine, N,N-dimethyl-2-((o-methyl-.alpha.-phenylbenzyl)oxy)-, N-oxide
Formula: C18H23NO2
CAS: 29215-00-7
Molecular weight: 285
m/z	intensity
27	20
29	40
30	30
31	10
39	20
40	10
41	20
42	60
43	160
44	100
45	150
46	20
51	30
56	10
57	30
58	999
59	40
60	100
63	10
65	30
73	80
76	20
77	60
89	20
91	50
92	10
105	30
115	10
119	40
149	20
152	10
165	90
166	70
167	10
178	30
179	30
180	20
181	180
182	30
195	60
196	30
