Mass Spectrum: 4-Amino-dl-phenylalanine
Formula: C9H12N2O2
CAS: 2922-41-0
Molecular weight: 180
m/z	intensity
15	1
17	3
18	11
26	1
27	6
28	34
29	5
30	9
37	1
38	3
39	15
40	3
41	7
42	7
43	3
44	5
45	2
46	2
50	5
51	13
52	12
53	12
54	8
55	1
56	1
57	1
58	2
61	1
62	2
63	7
64	3
65	13
66	10
67	21
68	2
74	5
75	2
76	3
77	48
78	19
79	28
80	9
81	1
89	8
90	5
91	12
92	5
93	20
94	3
102	1
103	1
104	12
105	8
106	999
107	88
108	5
116	3
117	9
118	27
119	8
120	1
131	5
132	7
133	7
134	19
135	19
136	2
144	1
145	1
146	2
161	1
162	6
163	1
180	51
181	6
