Mass Spectrum: 4-Nitro-dl-phenylalanine
Formula: C9H10N2O4
CAS: 2922-40-9
Molecular weight: 210
m/z	intensity
15	5
16	3
17	7
18	8
26	4
27	17
28	23
29	2
30	31
31	1
32	2
36	3
37	3
38	10
39	57
40	10
41	16
42	24
43	18
44	59
45	9
46	77
47	2
49	2
50	33
51	52
52	21
53	10
54	6
55	3
56	12
57	2
58	21
59	18
60	2
61	5
62	18
63	59
64	23
65	60
66	9
67	11
68	3
69	1
73	2
74	999
75	41
76	21
77	39
78	36
79	14
80	14
81	2
82	1
85	2
86	4
87	5
88	4
89	101
90	200
91	161
92	41
93	7
94	1
99	1
101	3
102	10
103	7
104	15
105	8
106	60
107	97
108	9
114	1
115	1
116	13
117	45
118	77
119	175
120	88
121	55
122	6
123	1
128	1
129	2
130	2
131	7
132	9
133	4
134	14
135	3
136	12
137	584
138	52
139	5
145	2
146	4
147	2
148	9
149	9
150	2
151	1
160	1
162	8
163	11
164	33
165	309
166	31
167	2
175	2
176	3
177	2
178	2
179	1
180	2
191	1
192	4
193	5
194	1
208	6
209	1
210	3
211	2
