Mass Spectrum: 2-Heptadecanone
Formula: C17H34O
CAS: 2922-51-2
Molecular weight: 254
m/z	intensity
26	1
27	46
29	132
30	1
31	1
38	0
39	23
40	6
41	227
42	44
43	601
44	12
45	13
50	0
51	0
52	0
53	11
54	19
55	146
56	43
57	167
58	999
59	657
60	21
61	1
65	0
66	3
67	29
68	24
69	70
70	27
71	300
72	19
73	1
77	2
78	0
79	3
80	1
81	29
82	65
83	51
84	18
85	88
86	7
87	1
91	0
92	0
93	1
94	1
95	33
96	97
97	42
98	11
99	12
100	18
101	1
105	0
107	0
108	1
109	14
110	24
111	19
112	8
113	12
114	13
115	0
121	0
122	0
123	7
124	8
125	11
126	7
127	26
128	3
129	0
135	0
137	4
138	9
139	6
140	3
141	2
142	2
149	0
151	2
152	9
153	3
154	3
155	3
156	3
165	1
166	5
167	2
168	4
169	4
170	1
171	0
179	0
180	4
181	0
183	2
184	0
193	0
194	24
195	3
196	40
197	8
198	3
199	0
207	0
208	0
210	0
211	7
212	3
213	0
221	0
225	3
226	1
235	0
236	16
237	3
238	0
239	20
240	5
241	0
253	0
254	108
255	22
256	2
