Mass Spectrum: Silver trifluoromethanesulfonate
Formula: CAgF3O3S
CAS: 2923-28-6
Molecular weight: 256
m/z	intensity
23	14
31	17
32	14
39	6
44	52
45	8
47	66
48	250
49	23
50	160
51	40
52	27
59	6
62	6
63	24
64	540
65	250
66	90
67	42
69	999
70	12
73	42
74	18
75	12
76	27
77	207
78	290
79	30
80	212
81	120
82	38
83	8
84	8
85	195
86	12
87	14
91	14
92	6
103	36
104	5
107	642
109	618
123	12
125	12
133	21
139	5
141	10
146	12
148	11
149	9
151	8
153	7
155	8
157	8
171	15
173	15
187	28
189	28
195	122
197	7
214	50
216	90
218	40
230	30
232	53
233	11
234	23
235	22
237	9
279	43
281	42
294	1
296	3
298	2
363	80
365	148
367	73
