Mass Spectrum: Phosphoramidous chloride fluoride, dimethyl-
Formula: C2H6ClFNP
CAS: 29246-85-3
Molecular weight: 129
m/z	intensity
14	85
15	305
19	51
31	136
35	85
37	17
50	271
85	254
87	85
94	999
129	254
131	85
