Mass Spectrum: 4'-Acetoxy-6,8-dichloro-2-phenyl-4-quinolyl bromomethyl ketone
Formula: C19H12BrCl2NO3
CAS: 29240-73-1
Molecular weight: 451
m/z	intensity
41	11
43	999
44	21
45	4
47	9
49	51
50	13
51	32
52	4
53	8
55	13
57	6
59	2
62	12
63	45
64	16
65	20
67	1
68	1
69	1
70	1
73	7
74	17
75	12
76	4
77	7
79	8
80	5
81	21
83	1
84	26
85	4
86	26
87	15
88	10
89	5
90	1
91	2
93	5
94	2
95	7
97	4
98	29
99	29
100	4
101	5
105	1
106	7
108	7
109	6
110	4
111	6
112	6
113	11
118	4
119	12
121	9
123	6
124	2
126	1
133	25
134	12
135	12
136	5
137	1
138	1
139	1
147	5
148	10
149	2
150	9
151	2
160	1
161	7
162	11
163	12
164	4
169	2
171	5
173	4
174	4
175	2
176	13
177	4
184	1
185	1
187	2
188	43
189	29
190	28
191	2
197	6
198	12
199	4
200	4
201	13
202	12
203	13
204	6
212	1
214	1
217	11
218	1
223	5
224	45
225	24
226	17
227	5
230	4
231	4
232	15
233	4
235	5
236	1
237	4
238	12
239	2
240	2
250	1
252	3
253	45
254	10
255	14
258	2
259	23
260	10
261	14
262	1
266	9
267	15
268	4
269	4
271	2
272	12
273	9
274	9
275	2
276	2
287	6
288	91
289	22
290	52
291	13
292	10
294	2
295	45
296	11
297	15
298	1
300	2
301	2
302	26
303	26
304	18
305	15
306	2
316	79
317	12
318	46
319	9
320	8
330	19
331	46
332	20
333	28
334	6
345	2
347	7
365	8
367	8
373	8
375	5
381	4
383	10
385	6
408	1
409	99
410	12
411	167
412	30
413	81
414	13
415	13
451	16
452	5
453	26
454	4
455	12
456	4
457	3
458	1
