Mass Spectrum: Isobutyl 4-cyano-benzoate
Formula: C12H13NO2
CAS: 29240-35-5
Molecular weight: 203
m/z	intensity
25	6
26	16
27	114
28	15
29	125
30	8
39	109
40	35
41	217
42	25
43	80
49	12
50	88
51	112
52	27
53	11
54	5
55	32
56	999
57	67
58	3
61	5
62	10
63	18
64	6
65	6
69	4
73	26
74	23
75	96
76	72
77	13
78	4
79	8
80	5
81	3
83	3
85	2
86	3
87	4
90	2
91	5
92	7
93	2
95	4
98	3
99	6
100	4
101	13
102	316
103	59
104	6
105	4
107	2
109	3
119	6
121	3
129	16
130	903
131	83
132	8
134	9
147	64
148	88
149	4
188	6
