Mass Spectrum: 1,3-Hexadiene, 2,5-dimethyl-
Formula: C8H14
CAS: 29253-64-3
Molecular weight: 110
m/z	intensity
22	0
23	0
26	12
27	196
29	111
37	13
38	28
39	397
40	63
41	543
42	42
43	47
45	3
46	1
48	2
49	4
50	33
51	86
52	37
53	215
54	45
55	359
56	41
57	6
58	0
59	0
61	4
62	12
63	27
64	6
65	80
66	28
67	727
68	120
69	93
70	11
71	0
72	2
73	1
74	4
75	7
76	3
77	199
78	34
79	116
80	43
81	95
82	29
83	5
85	0
86	1
87	2
88	0
89	7
90	2
91	166
92	19
93	242
94	30
95	999
96	77
97	3
100	3
102	0
103	2
104	0
105	12
106	5
107	10
108	62
109	16
110	289
111	25
112	1
