Mass Spectrum: Bicyclo[3.2.0]heptan-2-one
Formula: C7H10O
CAS: 29268-42-6
Molecular weight: 110
m/z	intensity
25	12
26	144
27	570
28	111
29	101
30	3
31	3
33	0
34	1
35	0
36	1
37	18
38	45
39	582
40	101
41	326
42	60
43	42
44	3
45	3
46	0
47	0
48	0
49	8
50	63
51	95
52	55
53	248
54	765
55	999
56	62
57	45
58	2
59	2
60	1
61	5
62	9
63	13
64	3
65	40
66	116
67	789
68	463
69	48
70	6
71	1
73	6
74	3
75	1
76	1
77	23
78	9
79	53
80	15
81	187
82	415
83	36
84	3
85	1
86	1
87	1
89	0
90	0
91	12
92	15
93	4
94	1
95	101
96	8
97	0
99	0
101	0
102	0
103	1
105	0
106	0
107	1
108	0
109	35
110	520
111	46
112	3
113	0
