Mass Spectrum: Thiophene-2-carbohydrazide, N2-(4-hydroxybenzylideno)-
Formula: C12H10N2O2S
CAS: 292611-70-2
Molecular weight: 246
m/z	intensity
33	0
34	1
37	7
38	20
39	193
40	16
41	4
42	5
43	6
44	5
45	31
46	3
47	1
49	2
50	22
51	50
52	33
53	31
54	8
55	9
57	29
58	8
59	2
60	0
61	2
62	8
63	24
64	10
65	26
66	6
67	4
68	16
69	6
70	2
71	3
73	3
74	4
75	4
76	6
77	61
78	37
79	10
80	21
81	25
82	17
83	79
84	9
85	8
86	1
87	1
88	1
89	3
90	13
91	7
92	3
93	7
94	2
95	1
96	1
97	2
98	1
99	2
100	1
101	0
102	1
103	1
105	29
106	14
107	7
108	12
111	999
112	55
113	46
114	3
115	3
116	1
117	5
118	2
119	17
120	10
121	7
122	5
123	1
124	2
125	6
127	339
128	89
129	20
130	5
131	1
132	0
133	2
134	3
135	9
136	0
137	0
138	0
139	0
140	0
141	0
142	0
143	0
144	0
145	1
146	0
147	0
149	0
150	0
152	0
153	1
154	0
155	0
156	0
157	0
159	0
160	0
161	0
163	0
167	0
168	1
169	0
170	2
171	1
172	0
173	0
174	0
175	0
178	0
179	0
184	1
185	0
186	0
187	0
189	2
190	0
191	0
194	1
195	0
196	0
199	0
202	0
208	0
213	0
215	0
242	0
243	0
244	0
246	30
247	4
248	1
249	0
