Mass Spectrum: Inositol, epi-, 6TMS derivative
Formula: C24H60O6Si6
CAS: 29267-01-4
Molecular weight: 612
m/z	intensity
73	999
74	29
103	88
104	7
129	146
130	15
133	117
134	15
147	664
148	66
189	19
191	387
192	44
204	139
205	15
217	730
218	73
219	7
221	58
265	190
266	22
291	55
293	33
305	504
306	58
318	372
319	44
343	18
367	66
368	7
393	36
417	12
419	8
432	12
433	32
507	34
597	1
612	1
