Mass Spectrum: Propanedioic acid, bromomethyl-, diethyl ester
Formula: C8H13BrO4
CAS: 29263-94-3
Molecular weight: 252
m/z	intensity
14	4
15	27
16	1
25	3
26	57
27	444
28	96
29	999
30	30
31	37
32	1
36	2
38	1
39	4
40	1
41	23
42	8
43	356
44	20
45	83
46	5
47	3
53	14
54	22
55	102
56	55
57	33
58	4
59	2
61	1
69	2
71	8
72	54
73	126
74	36
75	5
79	3
80	6
81	3
82	9
83	105
84	9
85	7
89	6
99	35
100	43
101	36
102	21
103	2
105	8
106	31
107	29
108	33
109	22
110	6
117	14
118	1
123	44
124	1
125	43
126	1
127	12
128	17
129	32
130	2
133	16
134	109
135	36
136	107
137	20
138	1
145	20
146	3
147	4
150	3
151	59
152	311
153	69
154	298
155	12
156	1
171	2
173	9
174	2
179	37
180	125
181	45
182	123
183	9
199	3
200	5
207	22
208	2
209	21
210	2
253	1
255	4
