Mass Spectrum: 9,10-Secocholesta-5,7,10(19)-triene-3,25,26-triol, (3.beta.,5Z,7E)-
Formula: C27H44O3
CAS: 29261-12-9
Molecular weight: 416
m/z	intensity
50	142
51	173
52	88
53	338
54	138
55	999
56	288
57	588
58	192
59	192
60	438
61	46
63	65
65	192
67	930
68	215
69	715
70	207
71	373
72	96
73	165
74	65
75	184
76	92
77	415
78	146
79	784
80	180
81	107
82	88
83	376
84	146
85	250
86	50
87	76
89	53
91	884
92	246
93	642
94	223
95	834
96	192
97	296
98	107
99	134
100	107
101	73
103	100
104	126
105	869
106	176
107	546
108	169
109	492
110	123
111	215
112	69
113	138
114	50
115	307
116	107
117	450
118	961
119	538
120	203
121	346
123	223
124	146
125	115
126	50
127	115
128	192
129	346
130	126
131	523
132	150
133	353
134	142
135	342
136	884
137	246
138	88
139	76
140	30
141	215
142	126
143	453
144	169
145	492
146	115
147	265
148	96
149	276
150	61
151	69
152	30
153	76
154	65
155	257
156	123
157	300
158	407
159	376
160	107
161	200
162	57
163	92
164	38
165	69
166	26
167	92
168	38
169	115
170	61
171	153
172	50
173	123
174	53
175	80
176	115
177	76
178	61
179	50
181	61
182	30
183	107
184	46
186	38
187	69
189	61
191	46
195	50
197	100
198	46
199	107
200	30
201	50
203	38
209	46
211	111
225	53
226	30
227	50
229	38
237	38
239	46
251	38
253	142
255	38
271	115
273	34
365	38
367	53
383	76
384	30
398	46
416	88
417	30
