Mass Spectrum: 4-(2'-Hydroxy-3'-isopropylaminopropoxybenzyl cyanide
Formula: C14H20N2O2
CAS: 29277-73-4
Molecular weight: 248
m/z	intensity
41	62
43	90
44	40
56	108
58	42
60	37
72	999
73	74
77	22
89	31
100	19
102	38
107	9
116	66
131	4
132	17
133	18
145	4
146	25
149	4
163	1
172	12
173	2
175	3
204	53
205	7
207	1
215	1
231	1
233	54
234	7
247	8
248	59
249	9
