Mass Spectrum: 2-Cyano-3-methyl-2-(O-methylbenzyl)butanoic acid
Formula: C14H17NO2
CAS: 29277-53-0
Molecular weight: 231
m/z	intensity
16	1
17	1
18	1
27	12
28	3
29	1
30	1
38	1
39	15
40	1
41	12
42	1
43	11
44	64
45	1
50	3
51	10
52	4
53	6
54	1
55	1
62	1
63	8
64	3
65	16
66	2
67	1
74	1
75	2
76	3
77	49
78	14
79	41
80	3
82	1
87	1
89	7
90	2
91	31
92	14
93	2
101	2
102	5
103	32
104	26
105	999
106	100
107	4
113	1
114	1
115	18
116	9
117	8
118	2
119	3
126	1
127	4
128	9
129	6
130	7
131	2
140	3
141	2
142	3
143	13
144	47
145	61
146	6
153	2
154	2
155	2
156	2
157	1
167	1
168	2
169	1
170	18
171	4
172	5
173	1
184	4
185	12
186	4
187	53
188	10
189	9
190	1
231	31
232	5
