Mass Spectrum: 3-Acetonitrile-8-cyclohexyl-2,3,3a,4,5,6-hexahydro-1H-pyrazino[3,2,1-jk]carbazole
Formula: C22H27N3
CAS: 292853-94-2
Molecular weight: 333
m/z	intensity
39	312
41	999
42	168
43	84
44	17
45	16
46	9
51	71
53	115
55	613
56	158
57	11
58	29
63	50
65	52
67	100
68	31
69	34
71	11
72	13
75	38
76	44
77	74
78	30
79	22
80	17
81	39
83	210
87	15
89	61
90	50
91	57
93	6
95	45
97	69
98	66
101	35
102	52
103	62
104	126
106	2
108	24
110	68
111	87
113	15
115	138
116	31
117	61
118	83
121	5
124	261
126	36
127	61
128	63
129	32
130	38
131	67
138	92
140	45
141	44
142	39
143	25
144	15
151	50
152	72
153	78
154	86
155	48
156	37
157	8
158	4
163	12
164	21
165	52
166	76
167	138
168	110
169	46
170	14
171	3
176	14
177	15
178	41
180	187
181	129
182	131
183	61
184	13
185	2
189	11
190	19
191	45
192	69
193	108
194	114
195	64
196	64
197	19
198	3
204	58
205	35
206	84
207	79
208	109
209	191
210	65
211	126
212	20
213	2
216	9
217	13
218	21
219	24
220	40
221	71
222	45
223	67
224	15
225	9
226	2
228	2
229	2
230	4
231	6
232	9
233	11
234	14
235	37
236	40
237	20
238	10
239	2
243	2
245	3
247	15
249	141
250	292
251	56
252	7
259	2
262	43
263	53
265	685
266	136
267	11
274	1
276	9
277	5
278	3
279	1
280	2
287	1
288	2
289	3
290	7
291	13
292	20
293	35
294	9
295	1
302	20
305	799
306	201
307	34
308	6
330	16
333	584
334	89
335	10
