Mass Spectrum: Quinoline-4-carboxylic acid, 2-(4-methyl-1-piperazino)-, methyl ester
Formula: C16H19N3O2
CAS: 292841-54-4
Molecular weight: 285
m/z	intensity
34	0
39	47
40	27
41	109
42	999
43	644
44	158
45	13
50	30
51	52
52	29
53	13
54	78
55	64
56	330
57	82
58	53
59	100
61	3
62	22
63	42
64	20
65	15
66	5
67	6
68	12
69	17
70	400
71	127
72	20
73	1
74	39
75	103
76	51
77	64
78	12
79	2
81	10
82	54
83	181
84	23
85	7
86	3
87	16
88	28
89	54
90	11
91	5
95	6
96	3
97	26
98	15
99	127
100	63
101	157
102	49
103	24
104	9
105	2
110	1
112	6
113	8
114	53
115	134
116	54
117	11
118	8
119	1
121	3
124	4
126	12
127	213
128	211
129	75
130	31
131	11
132	3
140	34
142	77
143	93
144	21
145	5
153	3
154	12
155	42
156	82
157	16
158	9
159	4
164	1
167	10
168	22
169	16
170	7
171	14
172	31
173	7
181	11
182	11
183	18
185	4
186	34
187	117
188	13
193	1
195	5
196	1
197	3
199	2
200	3
201	21
202	30
203	83
204	10
209	0
211	1
213	10
215	520
216	71
217	7
225	4
226	1
227	35
228	34
229	13
241	41
242	5
243	1
251	1
254	12
270	1
271	1
283	3
284	2
285	35
286	6
