Mass Spectrum: Quinoline-4-carboxylic acid, 2-(1-piperazino)-, methyl ester
Formula: C15H17N3O2
CAS: 292841-51-1
Molecular weight: 271
m/z	intensity
39	135
40	75
41	267
42	727
43	259
44	118
45	52
46	3
47	2
48	3
50	119
51	172
52	50
53	53
54	137
55	141
56	999
57	239
58	110
59	283
60	5
61	11
62	58
63	132
64	53
65	33
66	7
67	22
68	57
69	55
70	37
71	16
73	5
74	97
75	257
76	128
77	153
78	40
79	13
81	18
82	17
83	62
85	209
86	8
87	40
88	87
89	122
90	21
91	39
92	5
94	3
95	3
97	49
98	23
99	48
100	141
101	383
102	152
103	72
104	17
105	19
106	4
110	4
111	13
113	26
114	100
115	331
116	143
117	31
118	18
119	8
121	8
124	3
125	1
126	33
127	422
128	451
129	188
130	90
131	22
132	3
136	5
140	74
141	34
142	132
143	238
144	63
145	11
146	2
149	2
151	1
153	6
154	22
155	115
156	172
157	33
158	28
159	6
160	7
167	17
168	30
169	61
170	34
172	89
173	8
174	5
181	17
182	18
183	40
184	15
186	94
187	234
188	83
189	12
196	1
197	6
198	4
199	8
200	16
201	52
202	77
203	570
204	61
205	7
212	9
213	17
215	474
216	124
217	9
225	3
226	4
227	65
228	20
229	229
230	35
231	2
239	7
240	25
241	93
242	15
243	7
251	3
253	3
269	2
270	9
271	52
272	3
