Mass Spectrum: N-[4-[2,4-Bis(1,1-dimethylpropyl)phenoxyacetamido]-2-hydroxyphenyl]methylsulfonamide
Formula: C25H36N2O5S
CAS: 292825-34-4
Molecular weight: 476
m/z	intensity
36	2
37	4
39	127
40	103
41	355
43	999
44	85
45	32
46	10
48	53
49	5
50	18
51	44
52	46
53	64
54	38
55	196
56	19
57	56
60	3
63	67
64	55
65	125
66	51
67	135
68	38
69	67
71	601
73	8
74	7
75	4
77	80
78	58
79	111
80	77
81	35
82	9
83	8
84	3
87	2
88	4
89	9
91	203
92	35
93	49
94	85
95	192
96	34
97	5
102	8
103	27
104	18
105	86
107	224
108	96
109	26
110	4
112	2
115	80
116	30
117	63
118	17
119	79
120	41
121	76
122	55
123	250
124	82
125	12
127	23
128	52
129	38
130	15
131	63
132	27
133	65
135	554
136	179
137	52
138	5
139	2
141	20
142	17
143	21
144	15
145	37
147	185
148	97
149	33
150	8
151	5
152	4
153	4
156	52
157	15
158	10
159	27
161	113
162	51
163	88
164	61
165	60
166	28
167	5
170	129
173	27
175	136
176	27
177	71
178	8
179	4
184	379
187	20
189	71
190	12
191	77
192	9
199	3
201	17
202	12
203	62
205	707
206	95
207	9
213	13
214	3
215	11
217	130
218	21
219	32
220	5
224	11
227	3
231	5
232	4
233	5
234	35
235	4
241	6
243	3
244	10
245	32
246	5
247	4
257	4
297	8
298	35
299	9
326	4
327	13
328	3
339	5
367	12
368	64
369	25
370	4
377	15
382	2
383	6
397	196
398	66
399	9
447	221
448	49
449	13
461	4
462	3
476	126
477	27
478	7
