Mass Spectrum: 1,2,3-Triazole-4-methanol, 1-(4-aminofurazan-3-yl)-
Formula: C5H6N6O2
CAS: 292836-18-1
Molecular weight: 182
m/z	intensity
36	3
37	82
38	217
39	321
40	316
41	292
42	836
43	858
44	349
45	22
48	1
50	24
51	142
52	486
53	999
54	961
55	998
56	57
58	111
59	20
63	23
64	74
65	43
66	36
67	231
68	131
69	177
70	551
71	78
72	35
73	1
75	1
77	56
78	16
79	89
80	55
81	71
82	224
84	188
85	5
91	11
92	7
93	16
94	51
95	163
96	68
97	318
98	27
104	8
106	353
107	79
108	12
109	40
111	144
112	10
120	3
122	6
123	17
124	17
125	6
134	1
136	5
137	296
138	22
149	4
150	30
152	1
153	112
154	10
164	5
167	4
177	2
182	141
183	12
