Mass Spectrum: Indole-3-carboxaldehyde, 4-phenylsemicarbazone
Formula: C16H14N4O
CAS: 292855-59-5
Molecular weight: 278
m/z	intensity
34	2
35	2
36	14
37	120
38	364
39	715
40	248
41	321
42	79
43	161
44	341
45	105
46	8
47	7
48	31
49	4
50	259
51	386
52	243
53	66
54	143
55	46
56	7
57	74
58	6
59	3
60	7
61	25
62	114
63	368
64	421
65	585
66	810
67	123
68	18
69	3
70	7
71	16
72	3
73	10
74	51
75	70
76	94
77	365
78	81
79	13
80	10
81	0
82	6
83	10
84	11
85	9
86	1
87	10
88	18
89	87
90	43
91	229
92	162
93	999
94	88
95	2
96	9
97	7
98	8
99	3
100	5
101	32
102	99
103	59
104	58
105	21
106	6
107	4
108	3
109	3
110	3
111	2
112	1
113	1
114	16
115	45
116	82
117	166
118	86
119	380
120	109
121	8
123	2
124	4
126	0
127	26
128	119
129	393
130	114
131	199
132	261
133	16
135	169
136	188
137	81
138	0
139	2
140	4
141	27
142	249
143	160
144	51
145	8
147	3
148	1
151	24
152	4
154	0
155	2
156	9
157	60
158	134
159	340
160	31
161	6
162	0
163	1
164	2
165	0
167	0
168	1
170	2
171	0
177	2
178	0
179	0
180	0
181	0
183	0
184	0
185	43
186	12
188	0
190	0
191	2
192	1
193	0
194	0
198	0
200	0
201	0
204	0
205	0
206	1
207	1
210	0
211	0
212	0
215	0
217	0
219	8
220	10
227	0
228	0
233	0
234	0
236	0
238	0
251	0
253	0
261	0
269	0
275	0
276	1
277	0
278	72
279	15
280	1
