Mass Spectrum: 2-Acetoxy-1,1,1-trichloro-4-(4-nitrophenyl)-4-butanone
Formula: C12H10Cl3NO5
CAS: 292826-59-6
Molecular weight: 353
m/z	intensity
35	12
36	19
37	12
38	25
39	29
43	999
45	9
47	8
50	124
51	27
61	9
62	13
63	35
64	27
65	13
73	38
74	39
75	76
76	159
77	29
82	10
83	10
89	17
90	11
92	111
93	8
102	7
104	159
105	10
111	8
115	8
117	13
119	16
120	45
121	8
134	12
143	8
150	475
151	40
165	9
168	12
184	9
194	15
236	12
258	15
260	9
275	12
277	7
