Mass Spectrum: (4-Methylphenyl)-methanediol diacetate
Formula: C12H14O4
CAS: 2929-93-3
Molecular weight: 222
m/z	intensity
39	29
41	40
42	29
43	696
44	30
45	19
50	19
51	39
52	10
60	9
62	9
63	39
64	10
65	141
66	20
77	69
78	19
79	29
83	30
89	39
90	19
91	428
92	60
93	208
94	19
95	10
119	999
120	269
121	717
122	69
137	20
150	10
162	10
163	50
179	79
180	29
222	50
