Mass Spectrum: Phenylmethanediol dibutanoate
Formula: C15H20O4
CAS: 2929-77-3
Molecular weight: 264
m/z	intensity
39	90
41	141
42	50
43	448
44	59
45	9
50	40
51	79
52	20
55	69
60	89
70	40
71	999
72	39
73	30
77	190
78	39
79	30
105	480
106	150
107	40
177	49
184	19
193	49
