Mass Spectrum: Neo-Inositol, 6TMS derivative
Formula: C24H60O6Si6
CAS: 29307-70-8
Molecular weight: 612
m/z	intensity
73	999
74	31
103	52
104	5
129	93
130	10
133	82
134	10
147	418
148	41
189	8
191	191
192	21
204	82
205	10
217	371
218	41
221	36
265	129
266	15
291	40
293	20
305	144
306	15
318	515
319	62
320	10
343	12
367	52
368	5
393	25
417	3
419	3
432	149
433	82
434	10
507	22
597	1
612	1
