Mass Spectrum: Hexanoic acid, 2-methyl-3-oxo-, ethyl ester
Formula: C9H16O3
CAS: 29304-40-3
Molecular weight: 172
m/z	intensity
25	1
26	30
27	221
28	109
29	238
30	13
31	31
35	0
36	1
37	2
38	6
39	62
40	9
41	151
42	40
43	758
44	38
45	45
46	6
47	1
48	0
49	0
50	1
51	3
52	1
53	12
54	5
55	58
56	92
57	60
58	3
59	5
60	1
61	1
62	0
63	1
64	1
65	1
66	0
67	2
68	1
69	17
70	32
71	999
72	63
73	51
74	165
75	19
76	1
77	1
78	0
79	1
80	1
82	0
83	27
84	4
85	2
86	1
87	2
88	2
89	6
90	0
91	4
92	2
93	0
94	0
95	0
96	0
97	1
98	12
99	2
100	8
101	19
102	246
103	15
104	1
105	0
106	0
107	0
108	0
109	0
111	4
112	0
113	0
114	0
115	8
116	1
117	34
118	2
119	1
125	1
126	13
127	72
128	4
129	58
130	4
131	0
143	5
144	2
157	1
158	0
172	70
173	7
174	0
