Mass Spectrum: Oxirane, [(4-ethylphenoxy)methyl]-
Formula: C11H14O2
CAS: 2930-02-1
Molecular weight: 178
m/z	intensity
14	1
15	5
18	1
26	7
27	94
28	13
29	183
30	4
31	143
32	2
37	2
38	8
39	71
40	9
41	36
42	3
43	9
44	1
45	1
49	1
50	18
51	55
52	24
53	28
54	2
55	17
56	2
57	199
58	7
60	2
61	2
62	10
63	34
64	10
65	57
66	10
67	5
68	1
74	5
75	6
76	6
77	206
78	61
79	118
80	8
81	5
86	1
87	1
89	19
90	14
91	107
92	17
93	36
94	20
95	4
101	2
102	6
103	64
104	16
105	230
106	23
107	999
108	80
109	6
115	2
117	5
118	2
119	37
120	26
121	71
122	260
123	25
124	2
131	3
133	97
134	10
135	173
136	17
137	1
145	2
147	12
148	59
149	10
150	1
155	1
159	1
160	1
162	4
163	194
164	24
165	3
177	9
178	643
179	77
180	7
