Mass Spectrum: Deca-4,6-diyn-1-yl 3-methylbutanoate
Formula: C15H22O2
CAS: 29314-16-7
Molecular weight: 234
m/z	intensity
26	1
27	30
28	2
29	54
30	2
31	3
37	1
38	4
39	93
40	13
41	247
42	47
43	119
44	5
45	9
50	51
51	101
52	27
53	64
54	19
55	82
56	18
57	603
58	29
59	23
60	10
61	7
62	28
63	167
64	54
65	149
66	66
67	111
68	8
69	53
70	7
71	18
72	1
74	41
75	79
76	113
77	565
78	256
79	256
80	36
81	9
83	16
84	5
85	310
86	24
87	20
88	6
89	130
90	161
91	675
92	91
93	49
94	14
95	19
98	4
99	2
100	1
101	11
102	67
103	531
104	358
105	264
106	37
107	272
108	52
111	6
113	1
114	2
115	776
116	237
117	999
118	110
119	50
120	18
121	232
122	45
124	93
125	8
128	27
129	91
130	16
131	310
132	974
133	128
134	13
135	84
136	33
137	6
139	16
140	2
141	1
142	1
143	2
144	2
145	12
147	15
148	7
149	331
150	125
151	18
152	1
157	1
158	1
159	5
160	2
161	9
162	4
163	76
164	45
165	5
172	1
174	2
175	10
176	4
177	351
178	99
179	12
189	10
190	4
191	31
192	64
193	9
201	5
203	2
204	1
205	66
206	83
207	12
208	1
217	1
219	42
220	6
233	3
234	246
235	40
236	4
