Mass Spectrum: 4-(4-Acetoxy-3-methoxybenzylidene)-2-(p-tolyl)-5(4H)-oxazolone
Formula: C20H17NO5
CAS: 293326-07-5
Molecular weight: 351
m/z	intensity
34	2
37	5
38	10
39	79
40	33
41	42
43	432
45	6
48	1
49	2
50	26
51	43
52	14
53	11
55	14
56	4
57	9
58	1
60	3
61	4
62	14
63	59
65	190
67	4
69	9
70	3
71	4
73	2
74	4
75	12
76	16
77	12
78	5
79	9
80	4
81	7
82	2
83	3
86	2
87	4
89	47
91	414
93	3
94	1
101	1
102	4
103	5
105	9
106	2
107	2
108	2
109	6
110	1
112	2
113	1
114	2
116	4
117	7
119	999
120	77
121	8
122	2
123	4
124	1
130	4
131	6
132	3
133	4
134	1
135	2
136	2
137	9
138	1
147	6
148	4
149	3
151	20
152	60
153	4
154	1
162	6
163	7
171	2
175	4
194	4
305	1
306	3
308	14
309	179
310	34
311	5
349	1
350	1
351	28
352	7
353	1
