Mass Spectrum: 2-[.alpha.-(2-Hydroxy-4,4-dimethyl-6-oxo-1-cyclohexen-1-yl)-4-nitrobenzyl]-5,5-dimethyl-1,3-cyclohexanedione
Formula: C23H27NO6
CAS: 293323-68-9
Molecular weight: 413
m/z	intensity
32	36
34	7
37	9
39	497
40	181
41	710
42	297
43	319
44	63
45	8
46	7
48	5
50	91
51	161
52	34
53	181
55	941
56	746
57	84
58	11
59	11
60	4
61	3
62	30
63	89
64	26
65	47
66	20
67	37
69	253
70	183
71	21
72	3
74	78
75	208
76	54
77	74
78	19
79	26
81	25
83	999
84	415
85	28
86	9
87	14
88	19
89	130
90	30
91	26
92	9
93	12
94	8
95	15
97	77
98	14
99	15
101	290
102	68
103	38
104	13
105	12
106	11
107	11
108	8
109	13
110	4
112	170
114	67
115	237
116	38
117	70
118	16
119	13
120	7
121	7
123	9
125	36
126	11
127	24
128	64
129	86
130	38
131	50
132	5
133	3
135	5
136	7
137	4
139	19
140	167
141	51
142	31
143	29
144	61
145	29
146	10
147	33
148	6
149	13
150	16
151	14
152	18
153	16
154	7
155	15
156	24
157	14
158	9
159	22
161	329
162	30
163	5
164	2
165	17
166	8
167	5
168	7
169	10
170	60
171	46
172	16
173	13
175	82
176	25
177	4
178	4
179	3
180	2
181	7
182	5
183	9
184	15
185	9
186	10
187	8
189	78
190	21
191	4
193	1
194	3
196	1
197	5
198	20
200	33
201	10
202	12
203	9
207	2
210	4
211	4
212	3
213	5
214	3
216	29
217	11
218	8
219	1
222	1
223	1
226	426
227	83
228	33
229	6
230	60
231	5
240	4
242	35
243	30
244	13
245	9
246	3
247	1
255	5
256	498
257	70
258	27
259	4
269	2
272	62
273	60
274	13
275	3
286	18
287	5
288	2
296	2
299	2
301	9
311	2
312	2
348	10
349	3
378	11
379	3
395	10
396	31
397	9
398	2
413	63
414	16
