Mass Spectrum: 1-Penten-1-one, 2-methyl-
Formula: C6H10O
CAS: 29336-29-6
Molecular weight: 98
m/z	intensity
15	48
18	42
26	49
27	207
28	53
29	109
31	9
37	18
38	31
39	235
40	50
41	999
42	114
43	69
44	9
50	15
51	17
53	39
54	11
55	151
56	15
67	12
68	11
69	359
70	21
86	13
98	192
99	13
