Mass Spectrum: 2,2'-Ethylenediphenol
Formula: C14H14O2
CAS: 29338-20-3
Molecular weight: 214
m/z	intensity
27	6
28	2
38	1
39	14
40	1
41	1
43	1
50	4
51	16
52	8
53	12
55	4
62	1
63	8
64	2
65	7
66	1
69	1
74	1
75	3
76	4
77	116
78	21
79	69
80	5
81	1
82	3
83	1
88	2
89	5
90	3
91	13
92	2
94	2
97	2
101	1
102	1
103	1
105	2
106	1
107	999
108	97
109	6
115	4
118	1
119	5
120	20
121	4
127	1
128	2
131	1
139	2
141	2
151	1
152	4
153	1
163	1
164	1
165	9
166	2
167	1
168	1
169	1
176	1
177	1
178	1
181	2
183	1
195	3
196	1
197	1
211	1
212	2
213	1
214	275
215	43
216	4
