Mass Spectrum: N'-Hydroxypropimidamide
Formula: C3H8N2O
CAS: 29335-36-2
Molecular weight: 88
m/z	intensity
35	6
36	6
37	35
38	41
39	58
40	78
41	155
42	305
43	999
44	620
45	87
46	6
51	18
52	47
53	18
54	153
55	90
56	696
57	142
58	19
59	44
69	17
70	14
71	95
72	91
73	156
74	59
87	100
88	268
89	14
