Mass Spectrum: 4,7-Ethanoisobenzofuran-1,3-dione, 6-(acetyloxy)-3a,4,7,7a-tetrahydro-4,8,8-dimethyl-
Formula: C15H18O5
CAS: 29339-48-8
Molecular weight: 278
m/z	intensity
27	61
28	109
29	40
32	20
38	11
39	100
40	20
41	110
42	20
43	999
44	30
45	5
50	11
51	22
52	14
53	55
54	14
55	56
56	23
57	10
63	15
64	4
65	24
66	10
67	20
77	79
78	24
79	60
80	14
81	22
82	61
83	21
89	5
90	10
91	54
92	9
93	22
94	10
95	17
99	9
105	35
106	9
107	69
108	249
109	53
110	21
111	6
121	20
122	14
123	715
124	58
125	6
135	16
136	11
137	24
138	430
139	47
140	11
145	12
146	13
147	17
149	11
150	16
151	8
152	21
153	6
162	17
163	86
164	147
165	26
166	18
167	8
175	34
176	13
177	12
179	13
180	208
181	25
190	56
191	23
192	11
193	30
194	10
207	8
208	134
209	27
210	6
218	30
219	8
221	34
222	21
235	13
236	217
237	29
238	5
250	47
251	8
278	76
279	11
