Mass Spectrum: 6-(2-Acetoxyethoxy)-4-nitrobenzofuroxan
Formula: C10H9N3O7
CAS: 293324-91-1
Molecular weight: 283
m/z	intensity
41	7
42	7
43	610
44	45
45	23
46	12
53	5
55	7
57	5
58	19
62	19
63	7
69	9
70	5
72	7
74	13
83	46
85	33
86	6
87	999
88	45
90	9
95	6
117	7
130	8
145	7
149	11
197	7
283	74
284	4
