Mass Spectrum: 2-Pyrazoline-1-thiocarboxamide, 3,5-diphenyl-
Formula: C16H15N3S
CAS: 29338-66-7
Molecular weight: 281
m/z	intensity
33	9
34	2
37	2
39	137
40	35
41	56
42	68
43	103
44	15
45	20
46	4
47	12
48	0
50	93
51	247
52	47
53	11
55	12
56	4
57	13
60	384
61	23
62	39
63	101
64	37
65	128
66	12
67	11
69	128
70	13
71	8
74	96
75	83
76	102
77	655
78	158
79	18
80	2
81	4
82	11
83	12
84	7
85	3
86	7
87	12
89	124
91	462
92	38
93	9
94	21
96	7
97	4
98	3
99	3
103	999
104	906
105	67
106	12
108	9
109	50
110	40
111	13
112	7
113	12
115	196
116	52
117	88
118	223
119	229
120	32
121	44
122	6
123	7
124	3
125	3
126	7
127	5
128	35
129	14
130	9
131	22
132	16
134	40
135	61
136	206
137	684
138	60
139	42
140	5
141	4
145	788
146	65
147	5
148	7
149	13
150	23
151	14
152	21
153	6
154	1
157	0
158	0
159	2
161	35
163	624
164	65
165	75
166	11
167	6
168	1
170	1
171	11
172	2
174	6
175	12
177	819
178	223
179	51
180	22
181	6
182	0
185	0
186	1
187	7
189	50
190	23
191	52
192	22
193	11
194	6
195	1
201	1
202	2
203	3
204	24
205	9
206	13
207	14
208	1
209	1
217	1
218	2
219	10
221	252
222	83
223	9
231	1
232	0
233	1
234	0
235	0
238	8
239	8
240	0
245	2
246	10
248	285
249	45
250	4
253	4
262	0
263	4
264	22
265	49
266	8
267	2
271	0
272	0
276	0
278	5
281	475
282	81
283	25
284	2
