Mass Spectrum: Propanedioic acid, 2,7-octadienyl-, diethyl ester, (E)-
Formula: C15H24O4
CAS: 29330-87-8
Molecular weight: 268
m/z	intensity
25	2
26	30
27	356
28	82
29	999
30	31
31	42
36	1
37	1
39	259
40	45
41	426
42	58
43	115
44	12
45	57
46	4
47	11
50	7
51	25
52	19
53	142
54	202
55	378
56	19
57	37
58	11
59	3
60	11
61	7
62	1
63	6
65	87
66	77
67	567
68	91
69	75
70	17
71	17
72	3
73	36
74	3
75	3
77	81
78	67
79	360
80	80
81	184
82	45
83	45
84	28
85	19
86	77
87	62
88	78
89	6
91	87
92	31
93	178
94	102
95	118
96	22
97	90
98	19
99	41
100	3
101	16
102	3
103	2
104	29
105	59
106	52
107	93
108	175
109	54
110	8
111	69
112	43
113	13
114	60
115	82
116	5
117	8
119	63
120	108
121	242
122	39
123	44
124	43
125	93
126	13
127	50
128	7
129	8
130	24
131	59
132	45
133	160
134	19
135	34
136	4
137	16
138	5
139	65
140	27
141	12
142	1
143	2
145	9
146	1
147	26
148	75
149	80
150	14
151	20
152	51
153	30
154	11
155	7
156	3
157	1
158	3
160	290
161	111
162	9
163	2
165	19
166	7
167	18
168	9
169	5
171	1
173	183
174	17
175	6
176	65
177	128
178	17
179	8
180	18
181	5
182	1
185	3
186	2
187	5
193	3
194	26
195	26
196	5
197	1
200	4
201	12
202	0
203	0
204	3
205	3
206	1
207	1
208	0
212	1
213	20
214	3
215	1
221	1
222	14
223	13
224	3
225	1
226	5
227	3
228	1
239	1
241	1
250	4
251	1
268	2
269	1
