Mass Spectrum: Benzeneacetic acid, .alpha.-amino-, (S)-
Formula: C8H9NO2
CAS: 2935-35-5
Molecular weight: 151
m/z	intensity
16	1
17	2
18	7
26	3
27	13
28	224
29	9
30	4
37	4
38	9
39	26
40	4
41	3
42	1
43	1
44	6
45	9
46	1
49	3
50	34
51	74
52	28
53	50
54	5
59	1
61	3
62	7
63	12
64	4
65	4
66	2
67	2
73	3
74	12
75	8
76	11
77	163
78	40
79	308
80	22
85	1
86	1
87	1
89	9
90	9
91	3
102	1
103	7
104	73
105	27
106	999
107	90
108	3
118	1
133	1
134	2
135	1
