Mass Spectrum: s-Triazine-2-carboxylic acid, 4,6-diphenyl-, ethyl ester
Formula: C18H15N3O2
CAS: 29366-67-4
Molecular weight: 305
m/z	intensity
50	130
51	300
52	50
55	50
57	50
76	330
77	999
78	110
102	100
103	620
104	530
105	80
129	620
130	970
131	130
132	10
232	130
233	620
234	380
235	60
305	280
306	50
