Mass Spectrum: Octadecanoic acid, 4,8,12-trimethyl-, methyl ester
Formula: C22H44O2
CAS: 29366-66-3
Molecular weight: 340
m/z	intensity
15	5
17	3
18	13
26	2
27	23
28	11
29	100
30	4
31	4
39	31
40	10
41	230
42	58
43	380
44	13
45	9
51	3
53	24
54	14
55	360
56	110
57	350
58	15
59	64
60	3
65	5
66	3
67	38
68	27
69	280
70	69
71	210
72	16
73	71
74	330
75	54
76	5
77	6
79	10
80	3
81	48
82	20
83	140
84	31
85	120
86	10
87	999
88	73
89	8
91	4
93	11
94	4
95	42
96	15
97	120
98	25
99	45
100	5
101	26
102	3
107	11
108	4
109	27
110	16
111	91
112	38
113	43
114	9
115	73
116	7
121	8
122	3
123	15
124	6
125	49
126	25
127	43
128	14
129	23
130	4
135	21
136	3
137	8
138	3
139	19
140	6
141	37
142	5
143	17
144	6
151	7
152	3
153	60
154	9
155	34
156	5
157	160
158	20
159	6
163	8
165	4
167	16
168	3
169	29
170	4
171	10
177	5
179	4
181	9
182	3
183	27
184	5
185	18
186	3
195	5
196	7
197	22
198	4
199	6
200	2
205	13
206	3
209	2
211	20
212	4
213	21
214	4
223	14
224	3
225	3
227	21
228	5
229	7
241	7
255	11
256	3
264	4
266	18
267	86
268	19
269	4
275	2
279	7
283	130
284	27
285	4
290	2
291	4
293	5
297	2
308	3
309	30
310	7
311	20
312	5
325	7
339	4
340	150
341	38
342	5
