Mass Spectrum: s-Triazine-2-carboxylic acid, 4,6-diphenyl-, hydrazide
Formula: C16H13N5O
CAS: 29366-69-6
Molecular weight: 291
m/z	intensity
50	70
51	180
57	70
76	160
77	610
78	70
103	730
104	999
105	160
106	10
129	470
130	190
131	70
160	110
161	10
262	120
263	150
264	20
291	470
292	80
