Mass Spectrum: 1,4-Naphthalenedione, 2-butyl-3-hydroxy-
Formula: C14H14O3
CAS: 29366-46-9
Molecular weight: 230
m/z	intensity
15	70
17	50
18	70
26	70
27	600
28	90
29	200
38	60
39	380
40	80
41	400
42	50
43	190
50	320
51	400
52	80
53	130
54	40
55	170
56	30
62	80
63	180
64	60
65	100
66	50
67	50
68	20
69	80
74	120
75	200
76	600
77	999
78	120
79	50
83	20
85	40
86	60
87	70
88	80
89	160
90	50
91	100
92	40
93	40
99	30
100	30
101	130
102	240
103	400
104	320
105	580
106	70
113	80
114	120
115	350
116	100
117	80
118	40
119	30
121	30
125	30
126	50
127	160
128	100
129	80
130	60
131	260
132	360
133	80
139	40
140	20
141	70
142	40
143	50
144	50
145	50
146	40
147	70
149	30
152	40
153	40
154	40
155	130
156	40
157	40
158	30
159	480
160	490
162	80
163	40
166	30
167	30
168	30
169	50
170	40
171	70
172	20
173	70
174	30
175	60
176	40
183	80
184	40
185	30
187	140
188	970
189	210
190	40
197	70
200	40
201	50
202	40
213	30
215	30
230	600
231	100
232	20
