Mass Spectrum: 1,4-Naphthalenedione, 2-ethyl-3-hydroxy-
Formula: C12H10O3
CAS: 29366-44-7
Molecular weight: 202
m/z	intensity
14	40
15	60
16	40
17	60
18	120
26	80
27	220
28	160
29	140
30	40
31	120
32	40
37	60
38	120
39	420
40	50
41	250
42	60
43	90
44	40
45	50
49	50
50	480
51	490
52	130
53	170
54	60
55	120
61	60
62	130
63	260
64	100
65	120
66	80
67	80
68	60
69	300
70	50
73	50
74	270
75	320
76	800
77	999
78	150
79	80
85	50
86	70
87	100
88	90
89	200
90	80
91	170
92	60
93	50
97	40
98	60
99	60
100	50
101	130
102	270
103	330
104	400
105	570
106	100
113	80
114	70
115	340
116	130
117	160
118	70
119	50
126	80
127	210
128	480
129	180
130	70
131	380
132	130
133	80
141	40
142	50
143	50
144	70
145	180
146	130
147	100
155	140
156	100
157	70
158	40
159	540
160	100
161	40
173	100
174	100
175	40
183	100
184	50
187	70
188	40
201	50
202	530
203	130
204	50
