Mass Spectrum: 1-(5-Hydroxypentyl)piperidine
Formula: C10H21NO
CAS: 2937-83-9
Molecular weight: 171
m/z	intensity
38	11
39	51
40	29
41	222
42	156
43	97
44	141
45	82
51	8
52	3
53	17
54	22
55	159
56	71
57	57
58	11
59	11
67	17
68	28
69	44
70	38
71	14
72	7
73	10
80	7
81	9
82	16
83	17
84	58
85	21
95	7
96	93
97	23
98	999
99	112
170	10
171	33
172	4
