Mass Spectrum: 3-Amino-5-methylisoxazole, N-heptafluorobutyryl-
Formula: C8H5F7N2O2
CAS: 293764-73-5
Molecular weight: 294
m/z	intensity
14	2
15	22
25	2
26	15
27	36
28	100
29	22
30	32
31	31
33	1
36	1
37	13
38	43
39	165
40	44
41	101
42	83
43	876
44	33
45	5
46	5
47	3
49	1
50	33
51	31
52	66
53	42
54	136
55	88
56	116
57	22
58	10
59	1
62	6
63	6
64	15
65	31
66	108
67	160
68	102
69	999
70	277
71	15
72	2
74	2
75	1
76	5
77	7
78	11
79	14
80	5
81	77
82	62
83	127
84	7
85	3
88	1
89	3
90	3
91	9
92	10
93	9
94	6
95	2
97	674
98	36
99	15
100	152
101	5
102	2
103	2
104	3
105	1
107	4
108	6
109	48
110	4
112	4
114	1
116	6
117	1
119	121
120	4
121	1
122	1
123	2
124	17
125	418
126	25
127	5
128	2
131	18
132	3
133	2
134	1
135	1
136	1
139	1
141	4
142	3
143	1
144	2
145	2
146	3
147	5
148	1
150	10
153	1
157	1
159	4
160	2
163	1
164	1
166	1
169	447
170	14
173	1
176	6
177	2
178	4
179	3
189	1
190	1
191	3
192	3
194	1
196	20
197	6
204	12
205	1
206	17
211	1
214	26
215	1
216	1
219	1
220	3
224	15
225	2
227	31
228	3
233	1
234	1
236	1
239	2
246	1
247	17
248	2
251	184
252	36
253	4
255	2
262	5
263	1
265	2
275	77
276	8
277	1
279	70
280	5
294	628
295	56
296	5
