Mass Spectrum: 4-Undecanone, 10-methyl-
Formula: C12H24O
CAS: 29379-12-2
Molecular weight: 184
m/z	intensity
41	424
42	90
43	999
55	181
56	70
57	363
58	858
59	60
67	131
69	60
71	999
72	50
81	181
82	60
83	20
84	70
85	40
86	696
87	191
99	212
113	80
123	313
141	111
184	90
