Mass Spectrum: 4-Decanone, 9-methyl-
Formula: C11H22O
CAS: 29379-11-1
Molecular weight: 170
m/z	intensity
41	404
42	60
43	999
44	30
55	121
57	505
58	848
59	50
67	90
69	50
71	979
72	50
82	313
83	101
86	636
87	151
99	171
109	686
110	60
127	161
170	80
