Mass Spectrum: Benzenesulfonic acid, 4-nitro-, hydrazide
Formula: C6H7N3O4S
CAS: 2937-05-5
Molecular weight: 217
m/z	intensity
31	599
50	919
75	599
76	999
77	559
122	160
123	999
124	120
138	8
139	24
153	879
170	40
186	40
187	80
188	40
217	40
