Mass Spectrum: 2,2'-(1,4-Piperazinediyl)bis[N-(4-methoxyphenyl)succinimide]
Formula: C26H28N4O6
CAS: 293766-05-9
Molecular weight: 492
m/z	intensity
34	83
36	48
37	51
39	113
40	999
41	160
42	186
43	129
44	364
45	15
46	6
48	6
50	32
51	73
52	64
53	47
54	200
55	717
56	271
57	74
58	34
59	4
60	5
61	6
62	14
63	34
64	34
65	22
66	15
67	28
68	81
69	107
70	72
71	70
73	10
74	4
75	10
76	11
77	43
78	76
80	57
81	35
82	160
83	135
84	338
85	54
86	4
89	11
90	25
91	19
92	15
93	10
94	9
95	19
96	51
97	28
98	15
99	6
101	3
102	2
103	8
104	23
105	16
106	68
107	23
108	29
109	18
110	62
111	67
112	23
113	2
116	9
117	7
118	12
119	7
120	12
121	17
122	22
123	58
124	9
125	5
126	1
127	8
128	1
129	1
130	8
131	8
132	19
133	33
134	99
135	15
136	9
137	19
138	21
139	8
143	4
144	5
146	9
147	4
148	15
149	117
150	15
151	2
153	3
158	6
159	7
160	27
161	7
162	8
165	6
169	3
171	6
172	3
173	1
175	6
177	35
178	3
187	24
188	48
189	10
190	2
191	2
200	1
202	11
203	156
204	35
205	107
206	14
207	4
209	1
216	5
217	8
218	3
230	3
231	15
232	18
233	30
243	5
244	19
245	17
246	21
247	20
257	2
258	2
259	48
260	22
261	17
272	7
273	6
283	1
286	6
287	15
288	111
289	23
290	1
300	5
314	2
315	10
492	12
493	3
