Mass Spectrum: 2,5-Diamino-1,3,4-thiadiazole
Formula: C2H4N4S
CAS: 2937-81-7
Molecular weight: 116
m/z	intensity
27	207
29	259
30	35
33	131
34	78
42	187
43	377
44	96
45	79
47	169
48	27
57	241
58	54
59	149
60	999
61	79
62	52
74	645
75	13
76	43
116	516
117	34
118	21
