Mass Spectrum: 1H-Pyrido[4,3-b]indole, 2,3,4,4a,5,9b-hexahydro-2,8-dimethyl-5-(4-nitrobenzoyl)-, (4ar,9bs)-rel-
Formula: C20H21N3O3
CAS: 293727-67-0
Molecular weight: 351
m/z	intensity
33	0
34	1
39	3
40	3
42	89
43	407
44	23
45	0
50	4
51	2
52	0
53	1
54	0
55	1
56	10
58	999
59	35
60	0
62	0
63	2
64	2
65	2
66	0
67	0
68	1
70	92
71	333
72	14
73	0
74	0
75	6
76	20
77	7
78	1
79	1
80	0
82	4
83	0
84	0
85	0
86	0
89	1
90	1
91	4
92	13
93	1
94	2
95	1
96	3
97	0
101	0
102	2
103	4
104	32
105	3
106	0
113	0
115	6
116	3
117	2
118	1
119	1
120	11
121	1
122	0
127	1
128	3
129	3
130	7
131	6
132	11
133	1
134	2
135	0
136	0
137	0
139	0
140	0
141	1
142	4
143	11
144	8
145	1
146	1
148	0
150	39
151	3
152	0
154	0
156	6
157	8
158	27
159	3
160	0
162	0
164	0
167	0
168	0
169	0
170	1
171	1
172	0
173	1
176	0
181	0
183	0
184	1
185	4
186	4
187	0
188	0
190	0
191	0
192	0
195	0
196	0
197	0
198	1
199	13
200	13
201	69
202	10
203	1
204	0
205	0
207	3
208	0
215	0
216	0
217	0
218	0
219	0
232	0
233	0
234	0
247	0
261	0
264	0
280	1
281	0
282	0
283	0
290	0
291	0
293	0
294	1
295	0
306	0
307	0
308	1
318	0
320	0
321	0
322	0
323	0
332	0
334	0
336	0
337	0
346	0
349	0
350	3
351	41
352	8
353	1
