Mass Spectrum: 3-(4-Nitrophthalimido)benzoic acid
Formula: C15H8N2O6
CAS: 293761-57-6
Molecular weight: 312
m/z	intensity
33	2
37	36
38	49
39	92
40	11
41	27
43	83
44	61
45	82
46	12
50	61
51	34
52	23
53	27
54	6
55	12
56	6
57	8
58	1
60	21
63	232
64	62
65	105
66	8
67	5
68	4
69	11
70	5
75	999
76	68
77	19
78	6
79	9
80	3
81	8
82	6
83	6
84	3
85	2
86	4
87	9
88	11
89	24
90	50
91	38
92	24
93	13
95	3
96	3
97	6
98	2
99	3
100	6
101	23
103	483
104	26
105	6
106	3
107	3
109	3
110	15
111	2
112	2
113	3
114	9
115	3
117	13
118	22
119	27
120	14
121	14
122	2
123	9
124	4
125	3
126	5
127	5
128	6
129	6
130	3
131	1
132	3
133	4
134	2
135	2
137	34
138	12
139	9
140	4
143	1
145	3
146	21
147	6
148	10
149	30
150	6
151	7
152	5
153	5
154	3
161	1
162	2
164	33
165	11
166	5
167	1
171	1
175	4
176	6
177	11
178	8
179	4
180	2
181	3
182	4
192	9
193	20
194	9
195	1
208	2
209	5
210	1
219	2
220	28
222	311
223	37
224	21
225	3
236	2
237	6
238	9
239	1
248	9
249	3
266	77
267	27
268	45
269	6
282	20
283	4
284	3
295	24
296	4
312	531
313	68
314	9
