Mass Spectrum: Thiophene-2-carboxamide, N-(2-furfuryl)-
Formula: C10H9NO2S
CAS: 293765-00-1
Molecular weight: 207
m/z	intensity
33	4
34	3
37	30
38	83
39	692
40	90
42	24
43	24
44	80
47	5
49	7
50	35
51	85
53	295
55	13
57	77
58	28
59	5
60	2
61	1
62	2
63	3
66	21
67	35
68	8
69	80
70	9
71	5
72	2
81	251
82	23
87	0
89	2
91	11
92	2
94	21
95	71
96	61
97	9
98	3
99	1
100	1
101	0
102	0
104	14
105	2
106	3
111	999
112	43
113	61
115	0
134	5
135	11
136	4
137	1
145	1
146	2
147	1
150	4
151	2
152	1
153	0
162	21
163	9
164	4
165	0
174	6
175	0
178	36
179	4
180	1
181	0
189	2
190	2
191	0
192	0
207	376
208	43
209	23
210	1
211	0
