Mass Spectrum: Pentan-1-one, 1-(2-fluorenyl)-5-(1-piperidinyl)-
Formula: C23H27NO
CAS: 293762-78-4
Molecular weight: 333
m/z	intensity
34	0
36	0
37	3
38	3
39	24
40	17
41	95
42	88
43	131
44	39
45	2
46	0
49	0
50	2
51	3
52	1
53	6
54	12
55	90
56	23
57	10
58	24
59	4
60	1
61	0
62	1
63	4
64	0
65	2
66	0
67	5
68	10
69	26
70	26
71	3
72	0
73	0
74	1
75	1
76	1
77	2
78	0
79	1
80	2
81	4
82	16
83	21
84	45
85	15
86	3
87	2
88	1
89	2
90	0
91	0
93	1
94	2
95	3
96	28
98	999
99	67
100	3
101	1
102	0
103	0
104	0
105	0
106	0
107	0
108	1
109	1
110	19
111	12
112	10
113	5
114	1
115	7
116	1
117	0
121	0
122	1
123	3
124	35
125	9
126	3
127	0
128	0
129	0
131	0
135	0
136	0
137	2
138	6
139	11
140	24
141	3
142	0
145	0
149	0
150	1
151	2
152	3
153	1
154	3
155	0
161	0
162	3
163	28
164	28
165	103
166	18
167	3
168	1
169	0
171	0
175	0
176	2
177	2
178	16
179	25
180	4
181	1
182	0
187	0
188	0
189	3
190	2
191	2
192	3
193	52
194	8
195	0
196	0
201	0
202	1
203	1
204	0
205	0
206	0
207	1
208	3
209	1
215	0
216	0
217	0
219	0
220	0
221	1
222	0
231	0
233	0
234	0
235	0
236	1
237	0
238	0
247	1
248	2
249	2
250	0
262	0
287	0
290	0
304	0
331	0
332	2
333	26
334	7
335	0
