Mass Spectrum: 2,3-Bis(4-acetylanilino)-6,7-dinitroquinoxaline
Formula: C24H18N6O6
CAS: 293760-48-2
Molecular weight: 486
m/z	intensity
33	75
34	25
36	66
38	24
39	301
41	49
43	999
45	18
46	9
47	6
48	6
50	132
51	65
52	30
53	17
55	37
57	41
58	5
60	10
62	44
63	61
64	51
65	101
66	12
67	9
68	16
69	12
71	18
73	11
74	23
75	41
76	175
77	115
78	21
79	17
81	9
82	6
83	12
84	9
85	9
87	15
88	32
89	31
91	274
92	46
94	14
95	8
96	6
97	9
98	8
99	7
100	15
102	53
104	76
105	17
106	10
107	4
108	5
109	4
110	3
111	6
112	8
113	6
114	9
115	12
116	12
117	15
119	373
120	62
121	9
122	5
123	3
125	5
126	6
127	9
128	12
129	9
131	10
132	4
134	10
135	21
136	5
137	6
138	4
139	4
140	11
141	7
142	7
143	4
144	4
145	5
146	11
147	48
148	10
149	10
150	6
151	10
152	15
153	16
154	13
155	3
157	6
160	4
161	9
162	5
163	9
164	11
165	13
166	7
167	11
168	9
169	3
170	3
171	6
175	7
176	8
177	6
178	9
179	10
180	7
182	91
184	4
189	8
190	12
191	9
192	10
193	8
194	5
195	6
196	3
197	4
199	4
203	4
204	7
205	11
206	10
207	7
208	5
216	5
217	7
218	6
219	6
220	5
221	3
222	3
223	3
227	4
228	35
230	4
231	8
232	7
234	22
236	8
237	5
238	3
243	5
244	4
248	3
250	5
251	7
252	5
260	5
262	14
263	5
264	6
266	98
267	15
268	4
275	3
279	4
280	14
281	4
282	5
283	3
288	3
294	3
295	3
305	4
306	6
307	11
308	9
309	7
336	3
349	3
350	7
351	17
352	7
354	8
369	5
372	9
374	4
377	3
379	61
380	12
381	3
387	6
389	3
392	3
393	39
394	19
395	5
443	3
469	3
471	43
472	11
485	69
486	102
487	28
488	5
