Mass Spectrum: Dibenzo[cd,g]indazole-3-sulfonic acid, 2,6-dihydro-6-oxo-
Formula: C14H8N2O4S
CAS: 293765-87-4
Molecular weight: 300
m/z	intensity
33	10
34	8
35	1
36	5
37	1
38	4
39	6
40	23
41	3
44	48
45	0
48	557
50	33
51	3
52	2
53	1
55	1
57	2
64	999
66	52
68	1
69	2
71	0
74	2
75	2
76	4
77	4
78	2
79	0
80	0
82	5
83	3
86	1
87	1
88	0
89	1
90	1
91	4
92	1
95	0
96	2
97	0
98	0
99	0
102	1
103	0
104	0
105	0
106	2
109	0
110	3
111	0
112	0
113	1
114	0
118	0
119	0
120	0
124	0
125	0
126	0
127	1
128	0
130	0
135	0
137	1
138	2
139	0
140	0
143	0
151	1
152	1
163	9
164	10
165	2
167	1
169	0
171	0
180	0
181	0
191	1
192	2
193	0
195	1
206	0
208	0
209	0
210	1
218	1
219	9
220	39
221	6
222	0
223	2
224	0
235	2
236	1
238	0
