Mass Spectrum: 1,5,9-Cyclododecanetriol
Formula: C12H24O3
CAS: 2938-55-8
Molecular weight: 216
m/z	intensity
24	0
25	2
26	22
27	372
28	34
29	508
30	30
31	256
32	2
33	2
36	2
37	2
38	4
39	200
40	50
41	841
42	133
43	550
44	502
45	134
46	7
47	38
48	1
49	2
50	7
51	19
52	11
53	127
54	485
55	887
56	121
57	999
58	210
59	90
60	7
61	3
62	9
63	4
64	5
65	37
66	65
67	817
68	287
69	282
70	228
71	386
72	57
73	38
74	5
75	4
76	2
77	49
78	41
79	300
80	251
81	494
82	304
83	346
84	301
85	159
86	83
87	34
88	4
89	2
90	2
91	118
92	82
93	282
94	160
95	309
96	132
97	236
98	360
99	94
100	25
101	245
102	14
103	4
104	4
105	35
106	32
107	69
108	165
109	278
110	85
111	177
112	47
113	67
114	41
115	13
116	81
117	11
118	5
119	186
120	44
121	76
122	25
123	68
124	30
125	29
126	48
127	208
128	26
129	12
130	1
131	2
132	2
133	38
134	38
135	12
136	45
137	165
138	37
139	22
140	150
141	33
142	12
143	2
144	12
145	1
147	9
148	1
149	5
150	3
151	23
152	17
153	49
154	8
155	228
156	32
157	2
158	0
160	1
161	3
162	12
163	3
164	1
165	4
167	2
168	4
169	4
170	2
173	2
176	0
178	5
179	4
180	57
181	10
182	1
194	1
196	2
197	2
198	9
199	2
