Mass Spectrum: Boric acid (H3BO3), triheptyl ester
Formula: C21H45BO3
CAS: 2938-83-2
Molecular weight: 356
m/z	intensity
41	10
42	70
43	40
44	20
54	30
55	60
56	480
57	340
58	20
68	110
69	200
70	550
71	50
78	30
83	50
96	50
97	160
98	570
99	999
100	90
112	10
143	10
158	20
159	40
160	70
161	270
162	30
241	30
256	20
257	80
258	90
259	290
260	50
271	20
285	20
355	30
356	90
357	20
