Mass Spectrum: 1,5-Cyclododecanediol, diacetate, cis-
Formula: C16H28O4
CAS: 2938-57-0
Molecular weight: 284
m/z	intensity
26	2
27	34
29	75
30	1
31	5
39	37
40	7
41	187
42	41
43	999
44	35
45	11
51	4
52	4
53	29
54	84
55	255
56	29
57	64
58	62
59	12
60	1
61	40
62	4
65	12
66	17
67	173
68	135
69	92
70	55
71	70
72	4
73	4
77	16
78	10
79	82
80	109
81	155
82	135
83	142
84	93
85	45
86	22
87	4
91	17
92	3
93	75
94	98
95	100
96	102
97	105
98	121
99	21
100	13
101	11
102	0
103	57
104	6
105	8
106	4
107	46
108	45
109	47
110	32
111	60
112	24
113	10
114	11
115	8
117	3
119	7
120	26
121	145
122	59
123	33
124	21
125	38
126	29
127	6
128	9
129	0
131	3
132	3
133	6
134	5
135	83
136	70
137	23
138	49
139	44
140	14
141	2
142	2
145	3
146	0
147	3
148	49
149	46
150	8
151	2
152	3
153	12
154	13
155	2
156	2
157	6
159	4
161	3
162	5
163	18
164	162
165	45
166	10
167	59
168	14
169	2
173	2
178	7
179	3
180	5
181	26
182	250
183	52
184	6
188	2
191	0
196	32
197	6
198	2
199	4
206	9
207	0
209	1
223	4
224	27
225	20
226	6
227	33
228	8
241	3
242	5
