Mass Spectrum: 2(3H)-Furanone, 5-acetyldihydro-
Formula: C6H8O3
CAS: 29393-32-6
Molecular weight: 128
m/z	intensity
25	3
26	39
27	149
28	56
29	822
30	19
31	17
37	6
38	14
39	51
41	12
42	57
43	709
44	23
50	3
51	2
53	4
55	21
56	46
57	171
58	9
84	3
85	999
86	53
87	5
128	61
129	4
