Mass Spectrum: 2,4-Pentanedione, 3-diazo-
Formula: C5H6N2O2
CAS: 29397-21-5
Molecular weight: 126
m/z	intensity
39	70
41	30
42	80
43	999
44	100
50	50
51	40
52	20
53	90
54	190
55	90
56	60
70	60
83	110
98	150
99	10
126	50
