Mass Spectrum: Cyclododecane, 1,2-dithia-
Formula: C10H20S2
CAS: 294-67-7
Molecular weight: 204
m/z	intensity
41	710
55	999
67	140
69	440
81	160
82	66
83	320
87	440
88	37
89	39
95	8
97	120
101	190
102	18
103	18
115	59
116	10
117	9
129	31
143	21
171	290
172	35
173	15
176	21
204	350
205	47
206	33
