Mass Spectrum: N-(2-Propynyl)-2,2-dimethylaziridine
Formula: C7H11N
CAS: 29418-04-0
Molecular weight: 109
m/z	intensity
27	128
28	198
29	148
30	230
31	23
38	40
39	288
40	104
41	292
42	250
43	113
44	9
52	27
53	74
54	124
55	200
56	167
57	32
58	257
59	140
60	21
64	16
65	22
66	185
67	68
68	160
69	32
70	999
71	112
72	14
73	9
79	22
80	22
81	16
82	14
84	16
85	31
94	212
95	34
108	27
109	13
110	9
