Mass Spectrum: Propanamide, 2,3,3,3-tetrafluoro-2-heptafluoropropoxy-N-(2-bromophenyl)-
Formula: C12H5BrF11NO2
CAS: 294195-06-5
Molecular weight: 483
m/z	intensity
33	81
34	10
37	62
38	126
39	181
40	160
41	38
42	5
43	9
44	37
46	41
47	28
48	0
50	158
51	58
52	94
53	7
54	2
55	5
56	2
57	7
58	0
59	5
61	41
62	100
63	344
64	300
65	105
69	999
71	2
73	14
74	54
75	121
76	113
77	48
78	14
79	9
80	12
81	28
82	11
83	7
84	6
85	9
86	6
87	10
88	18
90	418
91	614
92	134
93	19
94	8
95	29
97	37
100	228
102	65
103	6
104	5
105	5
106	3
107	4
109	20
110	4
111	2
112	2
113	3
114	7
116	3
117	40
119	452
120	78
121	10
122	9
123	1
124	0
125	3
126	15
128	37
129	5
130	5
131	12
132	1
135	1
137	2
138	6
139	4
140	7
141	6
143	76
145	89
146	98
147	10
150	99
151	9
152	5
153	3
155	96
157	97
158	3
163	4
164	14
165	3
166	25
168	224
169	382
170	414
171	86
172	382
173	28
174	4
176	0
180	2
181	3
182	6
183	3
184	5
185	2
187	1
188	3
189	3
190	6
191	9
192	1
197	55
198	301
199	130
200	299
201	24
202	4
209	4
210	3
215	5
216	9
218	596
219	195
220	20
221	2
222	1
224	1
226	2
228	1
230	1
231	0
241	2
246	4
248	3
249	0
250	7
251	0
252	7
269	0
270	11
271	2
272	9
285	0
296	3
297	0
298	2
300	2
316	1
357	0
364	6
365	3
366	7
384	13
385	2
386	1
400	0
401	3
404	530
405	73
406	6
420	3
439	1
464	22
466	25
467	2
481	0
483	105
485	112
486	11
487	0
