Mass Spectrum: N'-(2(3H)-Oxoindol-3-ylidene)-2,2-diphenylcyclopropane-1-carbohydrazide
Formula: C24H19N3O2
CAS: 294193-35-4
Molecular weight: 381
m/z	intensity
33	43
34	15
36	9
37	22
38	46
39	164
40	312
41	76
42	83
44	144
45	15
46	4
48	9
50	101
51	446
52	47
53	31
55	141
56	52
57	17
58	9
60	11
62	231
65	246
67	19
68	15
69	58
71	28
72	4
74	46
75	73
76	165
77	603
78	73
79	18
80	12
81	19
82	28
83	24
84	15
85	9
86	12
87	31
89	154
91	683
92	30
93	9
94	18
95	11
96	9
98	14
99	13
100	10
102	79
103	75
104	271
105	314
106	28
107	9
109	12
110	11
112	51
115	999
116	102
117	61
118	79
119	27
120	7
121	5
123	6
125	7
126	17
127	11
128	22
129	12
130	20
132	195
133	36
134	7
135	8
136	5
137	9
139	51
140	15
141	16
143	107
145	114
147	394
148	21
150	26
151	22
152	76
153	14
154	3
155	4
156	2
157	9
158	17
160	117
161	39
162	27
163	41
164	216
165	151
167	20
168	4
171	13
173	2
176	34
178	249
179	57
180	25
181	8
182	4
183	7
184	2
185	3
186	11
187	48
189	121
190	249
192	622
193	230
194	40
195	7
200	1
201	3
202	60
203	168
204	27
205	8
206	17
207	5
208	8
209	2
217	10
218	39
220	850
221	239
222	48
223	8
224	1
234	59
235	113
236	66
237	17
238	1
267	3
310	3
311	9
312	2
326	19
327	4
336	2
364	2
379	1
380	9
381	89
382	19
383	4
