Mass Spectrum: 2-(Dimethylamino)-N-(3-nitrophenyl)acetamide
Formula: C10H13N3O3
CAS: 294193-71-8
Molecular weight: 223
m/z	intensity
36	2
37	2
38	8
39	17
40	36
41	24
42	128
43	28
44	57
45	2
46	4
50	11
51	7
52	9
54	5
55	3
56	9
57	17
58	999
59	39
60	1
61	2
62	7
63	26
64	22
65	7
66	1
69	0
73	3
74	3
75	6
76	15
77	7
78	6
79	4
80	2
81	1
84	0
85	1
86	0
87	0
89	1
90	8
91	12
92	6
93	1
102	0
103	1
104	4
105	7
106	2
108	1
110	0
117	0
118	2
120	1
121	0
122	0
123	1
127	0
131	0
133	2
134	0
135	0
137	5
149	1
151	2
162	0
164	0
165	3
172	0
179	0
193	1
221	0
223	5
