Mass Spectrum: Azobenzene, 4-methyl-4'-nitro-
Formula: C13H11N3O2
CAS: 29418-58-4
Molecular weight: 241
m/z	intensity
37	7
38	30
39	144
40	33
41	57
42	3
43	14
44	11
45	4
46	22
50	167
51	80
52	32
53	10
54	2
55	1
57	5
61	9
62	35
63	125
64	67
65	445
66	24
69	1
70	1
74	42
75	96
76	149
77	49
78	18
79	19
80	1
84	2
86	5
87	5
88	6
89	90
90	39
91	999
92	119
93	6
103	3
104	13
105	9
106	13
107	5
108	2
115	8
119	185
120	13
121	2
122	62
123	1
211	1
226	6
241	154
242	27
243	3
