Mass Spectrum: Diazene, 4-methoxyphenyl 4-methylphenyl-
Formula: C14H14N2O
CAS: 29418-44-8
Molecular weight: 226
m/z	intensity
26	10
27	27
28	16
29	5
31	3
37	4
38	27
39	118
40	10
41	48
42	3
43	8
50	38
51	81
52	45
53	23
54	3
55	8
56	2
57	9
61	3
62	15
63	99
64	158
65	274
66	20
67	3
69	4
71	5
74	6
75	12
76	29
77	463
78	60
79	46
80	15
81	4
83	3
85	3
89	34
90	22
91	779
92	269
93	20
97	2
102	2
103	2
104	6
105	4
106	10
107	999
108	79
109	5
113	15
115	13
116	3
119	69
120	6
121	3
122	2
127	9
128	14
129	13
130	2
135	344
136	28
137	2
139	7
140	5
141	3
142	1
149	5
151	2
152	10
153	15
154	9
155	31
156	4
165	6
166	1
167	2
168	7
181	2
182	3
183	5
194	0
196	1
197	1
199	1
210	1
224	4
226	487
227	79
228	7
