Mass Spectrum: Propanamide, 2,3,3,3-tetrafluoro-2-heptafluoropropoxy-N-(2,3-dimethyl-5-oxo-1-phenyl-3-pyrazolin-4-yl)-
Formula: C17H12F11N3O3
CAS: 294194-42-6
Molecular weight: 515
m/z	intensity
33	8
34	0
36	0
37	1
38	5
39	12
40	14
41	11
42	33
43	11
44	2
45	0
46	0
47	2
50	8
51	26
52	10
53	13
54	25
56	999
57	29
59	0
60	0
61	0
63	9
64	17
65	15
66	4
67	12
69	127
70	0
71	0
74	1
75	1
77	72
78	6
79	1
81	12
83	304
84	13
85	1
86	1
88	0
89	0
90	2
91	29
92	19
93	16
94	2
95	0
97	5
99	1
100	14
102	1
103	5
104	14
105	6
106	6
107	1
109	7
110	1
111	7
112	0
113	0
115	2
116	1
117	2
118	10
119	23
120	8
121	2
123	0
124	0
125	1
126	0
128	7
129	1
130	4
131	4
132	15
133	2
134	0
136	1
137	9
139	1
140	0
141	0
142	0
143	1
144	1
145	7
146	6
147	3
148	0
149	0
150	0
152	0
153	0
156	0
157	1
158	2
159	7
160	2
161	0
165	0
169	56
170	2
171	2
172	3
173	3
174	3
175	1
179	0
182	0
183	0
184	2
185	2
186	3
187	4
188	2
189	0
191	0
199	1
200	4
202	28
203	3
204	0
212	2
214	8
215	7
216	1
227	3
228	9
230	701
231	99
232	8
233	0
282	0
330	13
331	2
332	0
336	0
388	0
394	0
395	0
396	3
397	0
448	0
476	0
477	0
496	15
497	3
513	2
515	247
516	41
517	5
518	0
