Mass Spectrum: Acetamide, 2,2-difluoro-2-(tetrahydro-heptafluoro-2-furyl)-N-(2,3-dimethyl-5-oxo-1-phenyl-3-pyrazolin-4-yl)-
Formula: C17H12F9N3O3
CAS: 294195-00-9
Molecular weight: 477
m/z	intensity
33	3
36	1
37	2
38	8
39	19
40	33
41	16
42	32
43	30
45	0
47	5
50	15
51	38
52	19
53	22
54	40
56	999
61	1
62	4
63	18
64	33
65	25
66	7
67	19
69	131
71	0
74	3
75	6
77	111
78	10
81	28
83	336
87	3
88	2
91	64
92	24
93	27
95	2
96	4
97	35
99	3
100	24
103	10
104	19
105	7
106	7
107	2
109	12
110	2
111	8
112	4
113	1
114	1
115	2
116	2
119	52
120	6
121	2
124	1
125	0
127	2
128	5
129	3
131	30
132	14
133	2
136	2
137	7
138	1
139	2
140	0
142	0
143	2
144	2
145	9
146	7
147	3
150	2
153	1
155	1
156	0
158	4
159	7
161	1
162	0
169	49
170	2
171	2
172	3
173	1
174	1
176	0
178	7
179	1
180	1
182	1
183	0
184	2
185	2
186	2
187	2
188	2
197	6
198	1
199	2
200	2
202	27
212	3
213	2
214	4
215	3
223	0
225	2
226	6
230	443
231	45
247	3
458	1
476	0
477	14
478	2
479	0
