Mass Spectrum: D-Chiro-Inositol, 6TMS derivative
Formula: C24H60O6Si6
CAS: 29412-25-7
Molecular weight: 612
m/z	intensity
73	999
74	32
103	56
104	4
129	85
130	8
133	73
134	8
147	387
148	40
189	13
191	226
192	24
204	97
205	12
217	359
218	36
221	34
265	133
266	16
291	38
293	21
305	339
306	40
307	4
318	403
319	48
320	8
343	8
367	48
368	8
393	26
417	2
419	7
432	35
433	40
434	4
507	27
522	2
597	1
612	2
