Mass Spectrum: (1's,2's)-Nicotine-N'-oxide
Formula: C10H14N2O
CAS: 29419-55-4
Molecular weight: 178
m/z	intensity
37	3
38	11
39	69
40	13
41	57
42	271
43	71
44	39
45	26
46	0
49	2
50	41
51	119
52	62
53	29
54	8
55	11
56	15
57	7
58	6
59	4
60	999
61	26
62	7
63	22
64	9
65	43
66	6
67	2
68	7
69	2
70	7
71	3
72	4
73	3
74	1
75	3
76	8
77	34
78	88
79	31
80	11
81	0
82	4
84	4
86	3
89	7
90	8
91	26
92	41
93	18
95	1
103	7
104	27
105	25
106	34
107	7
108	12
109	1
115	2
116	3
117	48
118	525
119	846
120	79
121	1
122	1
130	26
131	8
132	32
133	12
134	3
135	0
144	3
145	0
158	3
159	24
161	18
178	89
179	10
