Mass Spectrum: Diazene, bis(2,6-dimethylphenyl)-
Formula: C16H18N2
CAS: 29418-31-3
Molecular weight: 238
m/z	intensity
26	1
27	46
28	3
29	2
30	1
38	2
39	48
40	4
41	9
42	1
43	0
44	0
50	5
51	27
52	11
53	23
54	2
55	1
57	0
62	2
63	14
64	5
65	32
66	5
67	1
74	0
75	3
76	5
77	172
78	42
79	172
80	11
81	1
87	0
88	0
89	9
90	5
91	24
92	5
93	4
94	0
100	1
101	7
102	92
103	49
105	999
106	97
107	5
108	0
110	0
111	1
115	2
116	3
117	5
118	26
119	5
120	4
121	1
127	0
128	2
129	1
130	3
131	3
132	23
133	59
134	5
135	0
139	0
140	0
141	1
142	1
143	1
144	1
145	1
146	0
149	0
150	0
151	0
152	1
153	3
154	1
155	2
156	0
157	0
164	0
165	22
166	5
167	5
168	1
169	1
170	0
177	0
178	5
179	10
180	35
181	8
182	1
183	0
189	0
190	0
191	1
192	2
193	3
194	5
195	70
196	12
197	1
204	0
205	1
206	2
207	5
208	3
209	1
210	11
211	2
219	1
220	3
221	10
222	9
223	25
224	5
235	1
236	1
237	33
238	245
239	46
240	4
