Mass Spectrum: Card-20(22)-enolide, 3-[(6-deoxy-3,4-O-methylenehexopyranos-2-ulos-1-yl)oxy]-5,11,14-trihydroxy-12-oxo-, (3.beta.,5.alpha.,11.alpha.)-
Formula: C30H40O11
CAS: 29428-86-2
Molecular weight: 576
m/z	intensity
26	71
27	277
28	336
29	387
30	56
31	231
37	31
38	50
39	357
40	80
41	726
42	130
43	953
44	183
45	261
46	18
47	44
50	71
51	98
52	77
53	408
54	200
55	999
56	157
57	357
58	73
59	58
60	37
62	21
63	58
64	33
65	183
66	113
67	475
68	103
69	604
70	113
71	360
72	56
73	101
74	33
75	29
76	29
77	393
78	153
79	604
80	185
81	648
82	210
83	751
84	698
85	469
86	67
87	92
88	82
89	54
91	698
92	174
93	522
94	128
95	446
96	128
97	288
98	103
99	482
100	168
101	225
102	48
103	105
104	84
105	867
106	574
107	477
108	244
109	999
110	530
111	509
112	277
113	107
114	50
115	168
116	82
117	269
118	261
119	477
120	141
121	543
122	195
123	362
124	166
125	200
126	77
127	82
128	446
129	421
130	147
131	391
132	120
133	233
134	128
135	387
136	183
137	357
138	202
139	162
140	58
141	143
142	235
143	254
144	128
145	440
146	174
147	309
148	128
149	183
150	345
151	395
152	484
153	206
154	96
155	138
156	65
157	216
158	378
159	227
160	113
161	258
162	122
163	378
164	225
165	336
166	138
167	126
168	82
169	113
170	61
171	160
172	82
173	273
174	126
175	336
176	168
177	185
178	126
179	374
180	517
181	852
182	170
183	105
184	58
185	168
186	128
187	164
188	120
189	343
190	145
191	244
192	210
193	237
194	92
195	107
196	58
197	94
198	58
199	103
200	80
201	134
202	185
203	191
204	393
205	162
206	73
207	105
208	105
209	307
210	151
211	107
212	58
213	130
214	80
215	145
216	82
217	111
218	75
219	143
220	120
221	101
222	94
223	73
224	42
225	80
226	50
227	107
228	98
229	141
230	160
231	157
232	67
233	103
234	50
235	103
236	42
237	65
238	120
239	113
240	67
241	103
243	204
244	94
245	103
246	75
247	132
248	90
249	141
250	50
251	50
252	42
253	67
254	50
255	136
256	164
257	120
258	84
259	120
260	101
261	240
262	134
263	67
264	42
265	77
266	56
267	65
268	44
269	56
270	56
271	58
272	58
273	96
274	705
275	191
276	77
277	82
278	77
279	120
280	46
281	65
282	42
283	73
284	50
285	58
286	42
287	54
288	46
289	58
290	46
291	80
292	229
293	105
294	75
295	77
296	56
297	48
298	37
299	44
300	33
301	122
302	71
303	48
304	35
305	58
306	35
307	58
308	40
309	82
310	44
311	50
312	77
313	48
314	35
315	42
316	33
317	65
318	42
319	96
320	105
321	84
322	46
323	63
324	35
325	58
326	35
327	40
328	33
329	35
330	252
331	109
332	58
333	67
334	35
335	61
336	50
337	126
338	96
339	63
340	35
341	37
342	23
343	33
344	27
345	33
346	48
347	82
348	999
349	290
350	80
351	86
352	40
353	58
354	42
355	80
356	46
357	35
360	23
361	27
362	35
363	77
364	160
365	442
366	231
367	77
379	35
380	50
381	113
382	210
383	357
384	349
385	105
386	46
398	18
399	58
400	109
401	669
402	749
403	273
404	58
405	21
411	18
412	50
413	25
414	21
416	42
417	33
418	37
419	170
420	58
421	21
424	128
427	16
428	16
429	31
430	16
444	18
445	37
446	25
447	56
448	33
457	21
458	16
473	21
474	14
475	18
476	126
477	40
478	16
486	40
492	16
493	35
494	25
500	21
502	14
510	33
511	18
512	29
513	18
514	23
528	37
529	61
530	27
531	14
532	42
533	23
540	56
541	25
542	14
556	27
557	14
558	103
559	42
560	25
572	27
574	58
575	27
576	677
577	229
578	65
579	18
