Mass Spectrum: Carda-16,20(22)-dienolide, 3-[(6-deoxy-3,4-O-methylenehexopyranos-2-ulos-1-yl)oxy]-5,11,14-trihydroxy-12-oxo-, (3.beta.,5.alpha.,11.alpha.)-
Formula: C30H38O11
CAS: 29428-87-3
Molecular weight: 574
m/z	intensity
26	81
27	307
28	587
29	370
30	60
31	257
32	46
36	33
37	33
38	48
39	330
40	92
41	744
42	177
43	690
44	481
45	372
46	33
47	37
50	62
51	119
52	71
53	324
54	165
55	999
56	221
57	533
58	58
59	58
60	117
61	41
62	29
63	50
64	39
65	163
66	100
67	401
68	140
69	619
70	205
71	328
72	50
73	165
74	39
75	35
76	48
77	372
78	138
79	403
80	119
81	621
82	175
83	523
84	527
85	265
86	39
87	79
88	48
89	48
90	29
91	569
92	144
93	359
94	108
95	332
96	117
97	221
98	75
99	263
100	102
101	159
102	58
103	102
104	89
105	717
106	353
107	297
108	125
109	623
110	313
111	209
112	167
113	98
114	43
115	182
116	81
117	167
118	117
119	320
120	113
121	343
122	144
123	194
124	85
125	81
126	46
127	79
128	292
129	343
130	117
131	248
132	92
133	167
134	102
135	182
136	89
137	219
138	77
139	89
140	54
141	125
142	190
143	165
144	87
145	328
146	140
147	240
148	85
149	418
150	152
151	163
152	248
153	81
154	60
155	79
156	50
157	148
158	163
159	129
160	77
161	152
162	102
163	248
164	123
165	127
166	75
167	131
168	200
169	89
170	46
171	100
172	62
173	221
174	104
175	194
176	98
177	125
178	598
179	993
180	271
181	125
182	48
183	58
184	39
185	98
186	104
187	119
189	182
190	129
191	255
192	123
193	102
194	58
195	62
196	41
197	54
198	41
199	71
200	60
201	117
202	98
203	133
204	202
205	102
206	98
207	433
208	393
209	138
210	60
211	56
212	39
213	87
214	60
215	89
216	56
217	117
218	64
219	69
220	54
221	60
222	69
223	41
224	31
225	46
226	58
227	75
228	62
229	119
230	69
231	79
232	41
233	58
234	35
235	41
236	35
237	50
238	41
239	52
240	46
241	127
242	100
243	92
244	48
245	119
246	77
247	104
248	39
249	39
250	25
251	43
252	29
253	46
254	62
255	81
256	71
257	92
258	50
259	129
260	58
261	46
262	39
263	46
264	29
265	48
266	35
267	46
268	35
269	41
270	37
271	56
272	267
273	92
274	71
275	54
276	46
277	100
278	41
279	92
280	39
281	60
282	37
283	43
284	41
285	33
286	18
287	41
288	25
289	41
290	79
291	56
292	56
293	58
294	48
295	39
296	33
297	33
298	25
299	104
300	60
301	35
302	35
303	41
305	43
306	37
307	62
308	41
309	54
310	58
311	43
312	27
313	25
314	20
315	33
316	25
317	48
318	54
319	58
320	41
321	79
322	52
323	48
324	29
325	35
326	27
327	23
328	94
329	41
330	35
331	52
332	27
333	43
334	37
335	98
336	73
337	64
338	46
339	35
340	23
341	25
342	25
343	20
344	35
345	46
346	460
347	150
348	104
349	79
350	41
351	41
352	46
353	73
354	92
355	46
356	29
360	14
361	41
362	79
363	150
364	100
365	77
366	52
367	35
368	46
369	33
370	46
371	25
378	31
379	31
380	87
381	154
382	234
383	244
384	79
385	41
386	29
387	12
396	46
397	37
398	167
399	410
400	575
401	228
402	83
403	25
409	18
410	29
414	20
415	27
416	41
417	94
418	33
419	16
427	25
428	16
443	25
444	16
445	35
446	150
447	58
448	16
455	25
456	16
474	73
475	20
480	16
481	16
482	27
483	16
484	41
485	27
486	14
494	18
495	12
496	16
497	16
498	20
499	12
500	12
508	18
509	14
510	25
511	14
512	58
513	25
514	25
526	43
527	41
528	29
529	14
530	43
531	18
532	16
538	48
539	25
540	29
544	25
546	12
547	10
556	79
557	29
558	35
559	12
572	25
573	12
574	485
575	173
576	77
577	29
