Mass Spectrum: Thiophene, 3,3'-oxybis[tetrahydro-, 1,1,1',1'-tetraoxide
Formula: C8H14O5S2
CAS: 29422-01-3
Molecular weight: 254
m/z	intensity
33	0
34	0
35	1
36	0
37	0
38	4
39	303
40	41
41	157
42	90
43	279
44	141
45	48
46	13
47	9
48	14
49	6
50	8
51	15
52	9
53	183
54	273
55	999
56	123
57	59
58	10
59	12
60	2
61	4
62	3
63	28
64	6
65	40
66	2
67	5
68	9
69	30
70	64
71	60
72	66
73	11
74	1
75	2
76	0
77	0
78	0
79	4
80	56
81	3
82	2
83	17
84	6
85	8
86	5
87	2
88	0
89	1
90	0
91	0
92	0
93	1
94	0
95	1
96	0
97	6
98	3
99	0
100	0
101	0
102	1
103	1
104	0
105	0
106	0
107	0
108	2
109	0
110	0
111	10
112	0
113	0
116	0
117	0
118	30
119	540
120	32
121	27
122	1
133	0
134	3
135	9
136	1
137	73
138	5
139	4
155	0
161	21
162	696
163	51
164	36
165	2
168	0
171	0
173	0
174	0
175	19
176	1
177	1
179	0
182	0
183	0
184	0
185	0
188	0
189	1
190	3
191	0
193	0
253	0
254	132
255	15
256	14
257	1
