Mass Spectrum: Naphthalene, 1,2,3,4-tetrahydro-2-phenyl-
Formula: C16H16
CAS: 29422-13-7
Molecular weight: 208
m/z	intensity
12	1
13	2
14	6
15	6
16	0
25	0
26	5
27	40
28	17
29	3
30	0
37	1
38	8
39	81
40	8
41	12
42	1
43	1
49	1
50	31
51	90
52	29
53	13
54	1
55	1
56	0
57	2
61	2
62	11
63	50
64	11
65	55
66	4
67	1
69	1
70	0
71	1
72	3
73	3
74	11
75	18
76	33
77	98
78	148
79	16
80	1
81	2
82	5
83	0
85	1
86	3
87	6
88	12
89	44
90	7
91	137
92	19
93	1
94	1
95	3
96	4
97	1
98	3
99	3
100	3
101	14
102	38
103	132
104	999
105	93
106	4
107	0
110	1
111	1
112	0
113	4
114	4
115	104
116	32
117	51
118	5
119	1
123	0
125	2
126	8
127	26
128	54
129	49
130	166
131	21
132	1
133	1
134	0
135	0
137	1
138	1
139	9
140	1
141	5
142	1
143	0
147	1
149	1
150	4
151	8
152	17
153	17
154	2
155	3
156	0
161	0
162	1
163	5
164	3
165	27
166	7
167	3
168	0
174	1
175	2
176	10
177	7
178	40
179	27
180	12
181	4
182	1
183	0
187	2
188	2
189	14
190	6
191	17
192	9
193	72
194	6
195	2
203	1
204	4
205	7
206	8
207	20
208	481
209	79
210	6
