Mass Spectrum: Oxetane, 2,4-dimethyl-, trans-
Formula: C5H10O
CAS: 29424-94-0
Molecular weight: 86
m/z	intensity
15	100
27	190
28	60
29	110
39	180
40	110
41	490
42	999
43	445
44	45
45	630
68	20
71	60
86	20
