Mass Spectrum: Tetrabenzo[e,i,o,s][1,4,7,11,14,18]dithiatetraazacycloeicosine, 11,12,13,14,26,27-hexahydro-
Formula: C30H28N4S2
CAS: 29423-82-3
Molecular weight: 508
m/z	intensity
117	700
118	999
124	570
130	390
136	580
239	700
240	999
241	330
252	140
254	270
255	140
267	480
390	300
391	150
392	90
508	550
509	210
510	100
