Mass Spectrum: Benzamide, N-(2,2-dichloro-1-phenyl)ethenyl-
Formula: C15H11Cl2NO
CAS: 29431-42-3
Molecular weight: 291
m/z	intensity
35	1
36	3
37	10
39	44
40	3
41	0
43	0
44	0
46	0
47	6
48	7
50	145
51	273
52	17
53	3
60	0
61	6
62	17
63	35
64	7
65	4
72	1
73	13
74	44
75	42
77	864
78	35
79	2
82	16
83	7
84	16
85	8
86	6
87	6
88	13
89	46
90	7
91	2
97	6
98	4
99	8
100	4
102	10
105	999
106	41
107	2
108	5
109	5
110	1
111	5
113	0
114	6
115	4
116	3
117	1
118	1
120	1
123	16
124	9
125	8
126	2
127	2
132	0
133	0
135	1
136	7
137	1
138	2
149	0
150	7
151	19
152	6
153	7
159	28
161	21
162	1
163	4
165	4
190	1
192	8
193	8
221	0
222	4
227	4
228	0
229	0
252	0
256	603
258	251
259	21
260	1
291	2
293	1
