Mass Spectrum: Allyltriethylammonium bromide
Formula: C9H20BrN
CAS: 29443-23-0
Molecular weight: 221
m/z	intensity
12	1
13	2
14	5
15	32
24	2
25	7
26	48
27	182
28	153
29	186
30	256
31	4
32	1
36	4
37	31
38	53
39	319
40	43
41	748
42	163
43	22
44	115
45	3
48	1
50	1
51	3
52	4
53	5
54	25
55	14
56	146
57	25
58	308
59	11
63	1
64	1
65	2
66	2
67	4
68	10
69	7
70	60
71	19
72	40
73	2
77	1
78	1
79	15
80	11
81	15
82	11
83	3
84	20
85	5
86	999
87	69
88	2
90	1
91	2
92	2
93	10
94	3
95	8
96	6
97	5
98	294
99	29
100	71
101	192
102	13
103	1
104	2
105	3
106	2
107	2
108	72
109	3
110	67
111	2
112	17
113	63
114	5
119	3
120	99
121	5
122	101
123	4
124	1
