Mass Spectrum: Silanediol, ethenylmethyl-, diacetate
Formula: C7H12O4Si
CAS: 2944-70-9
Molecular weight: 188
m/z	intensity
15	24
27	23
39	5
41	8
42	23
45	116
46	10
47	14
59	35
60	4
61	142
62	43
63	79
71	9
72	1
74	16
76	53
77	657
78	41
79	27
85	17
86	47
87	231
88	33
89	375
90	28
91	5
102	33
103	4
104	13
113	6
118	9
119	999
120	87
121	45
127	2
128	80
129	163
130	20
131	418
132	39
133	7
145	20
146	10
161	510
162	54
163	20
173	42
