Mass Spectrum: Decyl 2-(N,N-dimethylthiocarbamoylthio)acetate
Formula: C15H29NO2S2
CAS: 294653-59-1
Molecular weight: 319
m/z	intensity
33	4
34	1
35	1
36	1
37	1
39	41
41	207
43	281
44	105
47	31
49	1
50	1
51	2
52	8
55	93
57	82
59	3
60	2
61	8
63	4
65	2
67	10
69	25
70	8
71	10
72	18
73	41
74	13
76	9
77	26
79	6
80	3
82	6
83	7
84	4
85	9
88	999
90	94
92	1
93	1
95	3
97	5
98	1
99	1
100	1
103	1
104	1
105	1
106	3
107	2
109	1
110	1
111	1
112	2
113	1
120	29
121	13
122	4
123	2
132	1
133	2
135	6
136	1
137	1
140	1
146	1
161	2
162	19
163	2
164	2
166	1
171	1
177	1
179	13
180	5
181	2
314	1
315	1
316	1
319	50
320	7
321	5
322	1
