Mass Spectrum: 1-(2,4-Dichlorophenyl)-3-(2,2,2-trichloro-1-hexanamidoethyl)-thiourea
Formula: C15H18Cl5N3OS
CAS: 294654-32-3
Molecular weight: 463
m/z	intensity
35	124
36	422
38	199
39	126
40	124
41	327
43	999
44	100
45	126
47	19
48	11
49	17
50	22
51	18
52	23
53	26
54	31
55	150
56	23
57	30
59	49
60	33
61	22
62	43
63	62
64	26
65	13
66	9
67	9
68	12
69	49
70	32
71	240
73	63
74	34
75	33
76	13
77	7
78	5
79	9
80	17
82	32
83	34
84	17
85	22
86	13
87	35
88	12
89	12
90	36
91	15
92	8
93	6
94	4
95	8
96	8
97	22
99	410
100	35
101	10
102	5
106	7
107	6
108	9
109	28
110	20
111	44
112	14
113	23
114	9
115	9
116	46
117	8
118	7
119	8
120	6
121	4
122	5
123	5
124	30
125	22
126	42
127	83
128	19
129	50
130	6
131	9
133	57
134	9
135	20
136	8
137	8
138	5
139	4
142	6
143	12
145	21
146	27
147	11
148	22
149	8
150	10
152	6
153	12
155	7
157	4
159	9
160	31
161	118
162	26
163	72
164	9
165	12
168	24
169	18
170	11
171	17
172	9
173	6
174	5
184	30
185	110
186	37
187	60
188	23
189	18
190	8
191	5
195	12
197	6
203	68
204	27
205	40
206	18
207	9
208	5
210	9
212	5
219	6
221	7
223	4
225	9
227	6
231	7
233	4
243	5
244	17
245	5
246	15
248	5
258	4
259	9
260	4
261	7
293	10
294	32
295	13
296	29
297	8
298	10
313	25
314	5
315	28
316	5
317	13
332	4
394	4
428	12
430	15
432	8
