Mass Spectrum: 5-[4-(Dimethylamino)cinnamoyl]acenaphthene
Formula: C23H21NO
CAS: 294654-66-3
Molecular weight: 327
m/z	intensity
34	186
36	307
37	218
38	473
39	771
40	792
41	479
42	578
43	916
44	999
45	176
46	60
49	112
50	406
51	518
52	168
53	100
55	234
56	143
57	290
58	34
59	22
60	102
61	83
62	253
63	388
64	102
65	203
66	58
67	49
68	51
69	122
70	112
71	97
73	149
74	209
75	321
76	500
77	502
78	143
79	68
80	24
81	66
82	87
83	112
84	45
85	26
86	42
87	102
88	51
89	116
90	184
91	388
92	157
93	43
96	18
98	133
99	58
101	73
102	145
103	114
105	350
106	43
107	20
111	38
112	56
113	32
115	85
116	45
117	157
118	85
119	97
120	236
121	568
122	40
125	85
126	118
127	145
128	47
129	45
130	97
131	106
132	20
134	53
139	32
142	30
143	18
144	116
145	75
146	157
147	75
148	338
149	361
150	272
151	365
152	891
153	636
154	104
174	149
181	676
182	79
196	247
197	36
283	18
299	70
309	56
310	51
325	56
327	696
328	93
