Mass Spectrum: 3,3,3-Trifluoro-N-(4-nitrophenyl)-2-(trifluoromethyl)propionamide
Formula: C10H6F6N2O3
CAS: 294651-51-7
Molecular weight: 316
m/z	intensity
33	36
34	24
36	11
37	80
38	182
39	525
40	362
41	210
42	53
43	53
44	163
46	124
50	172
52	353
53	144
54	45
55	47
56	21
57	58
58	6
60	14
62	536
64	221
65	999
67	15
69	382
71	22
72	7
73	10
74	41
75	54
76	45
77	15
78	30
80	264
81	33
82	26
83	18
84	9
85	7
86	2
87	9
88	9
89	14
91	388
92	336
93	45
94	5
95	9
96	5
97	6
98	4
99	2
100	4
101	2
102	3
104	9
105	11
106	22
108	796
109	70
110	8
111	5
113	54
115	1
118	9
119	10
121	10
122	33
123	16
124	2
125	4
126	3
127	3
128	2
129	2
130	1
131	2
132	7
133	3
134	24
138	608
139	45
140	6
141	2
142	1
144	2
145	2
146	1
147	1
148	1
149	5
150	3
152	7
153	5
154	1
156	1
157	2
159	22
160	1
161	1
162	1
163	3
165	120
167	1
169	1
170	1
171	5
172	3
173	2
179	154
181	33
182	4
183	1
184	1
187	4
200	10
201	5
202	2
220	2
222	1
230	4
240	1
249	2
250	3
251	1
269	4
270	12
271	1
284	3
286	13
287	1
296	2
297	1
298	1
300	9
301	3
312	2
313	7
314	6
316	300
317	35
318	5
