Mass Spectrum: N,N'-Bis(2-thiazolyl)isophthalamide
Formula: C14H10N4O2S2
CAS: 294667-06-4
Molecular weight: 330
m/z	intensity
37	9
38	17
39	64
40	71
41	36
43	37
45	549
47	51
50	317
51	70
53	63
55	446
57	130
58	218
59	52
60	13
63	29
65	56
66	9
69	13
70	27
71	38
72	21
73	35
74	76
76	999
77	110
78	10
83	9
88	15
89	16
90	31
91	16
93	10
99	62
100	145
101	21
102	26
104	433
105	47
111	11
116	29
117	16
119	12
121	27
127	326
129	27
130	11
131	20
133	10
134	17
141	14
142	9
143	9
144	29
148	48
149	28
159	9
160	31
161	9
169	92
170	40
171	68
172	9
174	13
176	113
177	10
186	10
187	12
202	48
203	32
204	30
229	25
230	51
231	649
232	91
233	37
329	49
330	73
331	16
