Mass Spectrum: 2-Isopropylpyrazine
Formula: C7H10N2
CAS: 29460-90-0
Molecular weight: 122
m/z	intensity
37	7
38	17
39	86
40	25
41	91
42	36
43	58
44	19
45	7
47	8
49	3
50	19
51	44
52	121
53	210
54	58
55	16
56	7
57	17
59	7
60	2
61	2
62	3
63	6
64	6
65	11
66	24
67	35
68	15
69	11
70	8
71	7
73	2
74	5
75	2
76	3
77	6
78	11
79	104
80	133
81	51
82	6
83	6
84	2
85	5
91	2
92	5
93	47
94	331
95	31
96	3
97	6
105	11
106	24
107	999
108	89
109	6
111	3
119	12
120	3
121	242
122	375
123	35
124	2
