Mass Spectrum: 1,3-Dibenzyl-2-(4-bromophenyl)imidazolidine
Formula: C23H23BrN2
CAS: 294656-83-0
Molecular weight: 406
m/z	intensity
33	5
34	1
39	94
40	21
41	48
42	34
43	10
45	42
50	59
51	54
52	11
53	5
54	10
56	64
57	3
58	1
59	1
63	65
65	234
67	1
69	9
71	2
74	22
75	32
76	35
77	53
78	15
79	13
80	6
81	5
82	6
83	5
84	1
85	1
86	3
89	162
91	999
92	108
97	1
98	1
102	14
103	20
104	37
105	29
106	9
107	1
112	1
117	96
118	29
119	7
120	10
121	1
124	1
125	1
127	1
128	3
130	16
132	37
133	13
134	15
135	1
139	2
140	1
141	1
142	1
143	2
144	2
145	2
146	1
149	1
150	1
151	1
152	3
153	1
155	16
157	18
159	12
160	3
161	1
163	3
165	19
166	9
167	7
169	143
171	139
172	7
176	1
178	6
179	4
180	5
181	6
182	7
183	9
184	9
185	6
186	3
190	2
191	2
192	4
193	7
196	192
198	168
199	9
204	1
205	1
206	3
207	5
208	5
210	10
212	4
221	1
223	5
225	3
233	2
234	3
235	3
237	21
238	4
239	5
240	1
245	3
251	933
252	192
253	18
254	1
272	9
274	15
276	8
277	1
284	2
286	20
287	15
288	18
289	11
290	4
296	1
297	1
300	1
302	1
312	1
313	6
315	54
317	51
318	6
319	1
326	15
327	15
328	9
329	7
330	4
331	2
361	1
362	1
399	1
405	259
406	133
407	192
408	102
409	20
410	2
