Mass Spectrum: Piperazine, 1-(2,4-dichlorobenzoyl)-4-methyl-
Formula: C12H14Cl2N2O
CAS: 294652-77-0
Molecular weight: 272
m/z	intensity
33	2
36	164
38	58
42	548
43	227
44	66
47	1
50	34
51	5
52	4
54	56
56	407
58	539
60	2
61	3
62	5
63	4
65	2
67	1
70	999
71	58
72	25
74	75
75	60
76	6
77	3
79	1
80	1
81	4
83	161
84	20
85	10
86	7
87	2
89	5
90	1
91	2
92	0
93	0
95	3
97	24
99	201
101	1
102	1
103	2
104	2
105	0
109	81
111	59
113	38
118	0
119	1
120	0
121	0
122	1
123	2
125	3
127	1
130	0
131	0
135	2
136	1
138	6
139	21
140	3
141	4
143	0
145	85
147	57
148	5
149	5
150	1
151	0
152	2
153	4
154	1
155	1
159	6
160	2
161	2
162	0
163	0
164	0
166	6
168	2
171	1
173	121
175	79
176	17
178	1
180	11
182	5
183	0
184	0
186	0
187	0
188	0
190	0
192	0
194	27
196	10
200	0
201	1
202	1
203	0
204	0
208	0
209	0
214	1
215	6
216	4
217	5
218	2
219	0
220	0
228	9
230	10
231	0
232	2
233	0
235	0
236	1
237	2
238	2
239	1
240	0
243	14
245	9
246	0
247	1
249	0
257	0
259	0
270	1
272	57
274	45
275	5
276	5
277	0
