Mass Spectrum: Furazan-3-amine, 4-(hydroximino)(1-pyrrolidinyl)methyl-
Formula: C7H11N5O2
CAS: 294667-77-9
Molecular weight: 197
m/z	intensity
33	2
34	0
35	0
36	1
37	6
39	194
40	97
41	435
42	340
43	288
44	64
45	10
46	4
47	0
50	5
51	14
53	219
54	125
55	254
56	43
57	8
58	32
59	7
60	1
61	1
62	0
63	1
64	5
65	9
66	27
67	64
68	144
70	999
71	88
72	4
73	0
75	2
76	1
77	9
78	15
79	12
80	43
81	26
82	49
83	17
84	9
85	8
86	4
87	0
90	0
91	2
92	5
93	11
94	40
95	125
96	52
97	24
98	49
99	3
100	0
101	0
102	0
103	0
104	0
105	3
106	4
107	10
108	29
109	102
110	45
111	33
112	5
113	29
114	1
115	0
117	0
118	0
119	3
120	5
121	16
122	60
123	40
124	23
125	10
126	2
127	1
128	0
129	0
131	0
133	9
134	39
135	6
136	5
137	26
138	34
140	320
141	22
142	1
143	0
144	0
145	0
146	0
147	2
149	34
150	52
151	8
152	2
153	1
154	6
155	0
161	0
162	0
163	3
164	1
165	1
166	3
167	22
168	2
169	0
171	0
176	0
177	1
178	1
180	190
181	17
182	2
191	0
192	1
193	0
194	1
195	3
197	188
198	17
199	1
