Mass Spectrum: Furazano[3,4-b]tetrazolo[1,5-d]pyrazin-5-amine, N-ethyl-N-phenyl-
Formula: C12H10N8O
CAS: 294667-85-9
Molecular weight: 282
m/z	intensity
33	4
34	0
36	0
37	14
38	43
39	108
40	24
41	18
42	17
43	7
44	9
45	1
46	0
48	0
50	108
51	361
52	59
53	46
54	11
55	3
56	3
57	1
58	0
59	1
61	5
62	21
63	61
64	56
65	79
66	16
67	7
68	18
69	7
70	1
71	0
73	1
74	18
75	31
77	999
78	91
79	21
80	7
81	10
82	0
83	0
84	0
85	1
86	1
87	4
88	14
89	43
90	44
91	66
92	18
93	12
94	7
95	1
96	1
97	0
98	0
99	1
100	2
102	111
103	69
104	125
105	36
106	13
107	2
108	0
109	0
110	0
111	0
112	0
114	11
115	14
116	27
117	63
118	189
119	24
120	10
121	8
122	0
123	0
125	0
126	0
127	2
129	91
130	23
131	44
132	5
133	2
134	2
135	9
136	0
139	0
140	1
141	5
142	21
143	58
144	253
145	28
146	79
147	7
148	0
149	0
151	0
154	99
155	17
156	11
157	4
158	2
159	1
160	0
162	0
163	0
165	0
167	2
169	176
170	24
171	11
172	23
173	2
174	0
179	0
180	0
181	2
182	4
183	6
184	2
185	1
186	0
187	0
192	2
196	284
197	40
198	3
199	0
200	0
207	0
208	3
209	8
210	2
211	1
212	2
213	2
214	0
215	0
220	0
222	7
224	219
225	31
226	6
227	0
228	0
235	0
236	0
237	0
239	3
240	1
241	0
242	0
253	11
254	13
255	2
256	2
257	0
259	0
271	0
272	0
277	0
278	1
279	1
281	141
282	172
283	26
284	2
285	0
