Mass Spectrum: 6-[(2,4-Dichlorobenzylidene)amino]benzimidazole
Formula: C14H9Cl2N3
CAS: 294648-36-5
Molecular weight: 289
m/z	intensity
33	6
36	96
38	223
39	184
40	10
41	154
43	171
44	28
45	5
46	4
47	4
50	174
51	89
52	186
53	26
55	142
56	25
57	41
59	303
62	345
63	528
64	110
65	52
66	18
67	34
68	17
69	46
70	15
72	189
73	94
74	109
75	143
76	58
77	38
78	23
79	12
80	7
81	27
82	30
83	45
84	35
85	38
86	67
87	73
88	71
90	691
91	83
92	9
95	61
96	61
97	33
98	29
99	40
100	91
102	18
103	15
104	8
105	10
106	6
107	9
109	227
110	43
111	56
112	31
113	86
114	70
117	999
118	194
119	10
121	8
123	126
124	21
125	39
126	42
127	59
128	27
130	14
132	11
133	18
134	6
136	60
137	25
138	27
139	11
140	10
143	117
144	337
146	36
147	18
148	13
149	9
150	6
151	6
152	7
153	5
154	6
155	2
157	8
158	9
159	8
160	4
161	6
162	8
163	17
164	49
165	15
166	3
168	4
171	43
172	17
173	30
174	15
175	11
176	5
177	2
178	1
179	1
180	1
182	2
183	4
184	10
186	8
188	3
189	10
190	12
191	38
192	26
193	5
196	3
198	15
199	11
200	14
201	5
202	4
203	1
207	6
208	4
209	3
210	2
212	2
215	1
217	17
218	23
219	63
220	9
221	2
222	2
225	17
226	30
227	11
228	9
229	3
234	9
236	15
237	3
238	3
239	1
252	38
254	629
255	112
256	154
257	24
258	2
273	2
274	5
275	1
276	2
288	551
289	729
290	338
291	435
292	98
293	70
294	9
