Mass Spectrum: 1-(2-Nitroanilino)-1-deoxy-.alpa.-d-ribofuranose
Formula: C11H14N2O6
CAS: 294669-06-0
Molecular weight: 270
m/z	intensity
33	162
34	9
35	6
37	38
38	61
39	407
40	153
41	157
42	343
43	617
44	235
45	252
47	47
49	13
50	193
51	292
52	180
53	80
54	41
55	138
57	254
58	73
60	999
61	122
63	158
65	525
66	103
67	20
68	37
69	95
71	159
73	266
74	56
75	64
76	139
77	292
78	214
79	152
80	155
81	45
83	26
85	56
86	180
87	22
89	44
90	47
91	232
92	225
93	125
94	24
95	9
96	9
97	10
99	15
100	3
101	14
102	29
103	69
104	75
105	251
106	181
107	63
108	57
109	7
110	3
111	2
112	3
113	3
114	9
115	12
116	9
117	19
118	90
119	68
121	278
122	134
123	50
124	4
125	1
126	11
127	2
128	3
129	8
130	22
131	16
132	18
133	27
134	66
135	53
138	276
139	329
140	19
141	3
143	3
144	4
145	6
146	10
147	12
149	21
150	42
151	28
152	4
158	1
159	3
160	7
162	41
163	10
165	8
166	23
167	139
168	8
169	2
171	3
176	2
177	3
178	3
179	7
180	20
181	2
193	5
206	3
209	1
235	4
239	2
267	5
268	5
270	47
271	5
