Mass Spectrum: 3,4-Secocondyfolan-3-one, 16,19-epoxy-2-hydroxy-12-(2-hydroxy-1-methoxyethoxy)-4-methyl-, [12(S),14.beta.,16.beta.,19R]-
Formula: C22H30N2O6
CAS: 29474-90-6
Molecular weight: 418
m/z	intensity
40	499
41	490
42	510
43	999
44	550
45	400
46	20
47	290
48	130
49	110
50	50
51	50
52	30
53	200
54	140
55	630
56	290
57	680
58	510
59	110
60	50
61	90
63	30
64	20
65	100
66	40
67	310
68	180
69	610
70	350
71	490
72	70
73	50
74	50
75	460
76	30
77	160
78	40
79	180
80	60
81	330
82	220
83	390
84	250
85	260
86	20
87	70
88	20
89	40
90	30
91	170
92	50
93	150
94	100
95	260
96	240
97	290
98	160
99	130
100	50
101	50
102	20
103	60
104	70
105	120
106	20
107	110
108	50
109	190
110	130
111	270
112	140
113	80
114	190
115	70
116	60
117	70
118	60
119	80
120	40
121	80
122	50
123	100
124	100
125	120
126	80
127	60
128	200
129	70
130	90
131	70
132	50
133	60
134	40
135	50
136	30
137	50
138	40
139	40
140	90
141	50
142	30
143	40
144	50
145	40
146	140
147	60
148	60
150	20
151	40
152	20
153	40
154	120
155	40
156	20
157	30
158	30
159	50
160	130
161	40
162	50
163	20
165	30
166	20
167	40
168	70
169	30
170	120
171	30
172	60
173	30
174	80
175	330
176	170
177	30
178	20
179	10
180	10
181	10
182	30
183	30
184	40
185	20
186	30
187	40
188	50
189	30
190	20
191	20
193	20
194	20
195	20
196	30
197	20
198	30
199	40
200	60
201	20
202	40
203	30
204	30
205	20
206	10
207	20
208	20
209	20
210	30
211	10
212	20
213	20
214	30
215	30
216	40
217	180
218	70
219	90
220	20
221	10
222	10
223	10
224	10
225	10
226	20
227	10
228	10
229	10
230	40
231	20
233	20
237	20
239	10
240	10
241	10
243	20
244	250
245	40
252	20
253	10
257	20
258	20
267	10
275	40
286	20
287	230
288	40
299	20
311	30
312	40
318	170
319	20
326	50
342	110
343	50
348	60
350	20
355	40
361	460
362	110
363	20
387	20
390	20
400	20
418	320
419	80
420	20
