Mass Spectrum: Diphenyl ether, 4,4'-bis(2-furylcarbonyloxy)-
Formula: C22H14O7
CAS: 294874-03-6
Molecular weight: 390
m/z	intensity
33	0
34	0
37	84
39	346
40	19
41	13
42	3
43	5
44	3
45	1
46	0
48	0
50	13
51	19
52	4
53	15
54	7
55	5
56	1
57	4
58	0
60	0
61	1
63	55
64	39
65	12
66	12
67	48
68	2
69	2
70	1
71	1
72	0
73	0
74	2
75	3
76	8
77	4
78	0
79	1
80	0
81	1
82	1
83	1
84	1
85	0
86	0
87	0
89	3
90	1
91	2
92	3
95	999
97	6
98	1
99	0
100	0
101	0
102	2
103	1
104	0
105	0
106	0
107	0
108	0
109	1
110	0
111	0
112	1
113	0
115	8
116	3
117	1
118	1
119	0
120	0
121	0
123	0
125	0
126	0
127	1
128	1
129	1
130	0
131	1
132	0
135	0
138	0
139	0
140	0
142	0
143	0
144	1
145	0
146	0
147	0
149	0
152	0
153	0
154	0
155	0
156	0
157	0
158	0
159	0
165	0
167	0
170	0
171	1
172	0
173	0
174	0
181	0
184	0
186	1
187	0
189	0
190	0
200	1
201	0
202	0
279	0
280	0
283	0
292	0
293	0
294	0
295	12
296	5
297	0
298	0
301	0
333	0
385	0
386	1
387	2
388	2
390	75
391	16
392	3
393	0
