Mass Spectrum: N'-(2-Furylmethylene)hexanohydrazide
Formula: C11H16N2O2
CAS: 294852-06-5
Molecular weight: 208
m/z	intensity
14	1
15	5
16	1
18	2
25	1
26	19
27	201
28	68
29	215
30	9
31	4
36	1
37	12
38	35
39	227
40	26
41	243
42	78
43	681
44	45
45	2
49	3
50	40
51	83
52	146
53	74
54	71
55	139
56	22
57	15
59	316
60	10
61	1
62	2
63	4
64	12
65	10
66	21
67	11
68	14
69	22
70	6
71	165
72	86
73	18
74	1
77	2
78	1
79	16
80	22
81	162
82	20
83	14
84	15
86	50
87	3
91	1
93	20
94	83
95	22
96	11
97	4
99	77
100	6
105	1
106	1
107	2
108	5
109	107
110	999
111	80
112	5
113	1
114	2
115	9
116	2
121	25
122	9
123	11
124	1
125	1
127	2
134	4
135	2
136	6
137	8
138	1
139	1
148	1
149	1
150	3
152	30
153	3
162	1
164	1
165	7
166	1
177	1
179	5
180	1
191	1
193	1
208	109
209	16
210	1
