Mass Spectrum: N-(2,6-Diethylphenyl)-3-methylbenzamide
Formula: C18H21NO
CAS: 294851-82-4
Molecular weight: 267
m/z	intensity
14	1
15	2
17	1
18	5
26	2
27	19
28	14
29	16
30	3
32	1
37	1
38	6
39	73
40	9
41	36
42	7
43	3
44	2
45	3
50	13
51	43
52	17
53	22
54	6
55	4
56	2
57	1
59	2
61	1
62	11
63	52
64	23
65	280
66	22
67	5
68	1
74	4
75	7
76	11
77	86
78	24
79	27
80	5
81	1
82	1
83	1
86	1
87	3
89	82
90	80
91	809
92	86
93	20
94	5
96	1
97	1
101	3
102	12
103	33
104	21
105	26
106	14
107	3
108	1
109	1
110	4
111	3
113	1
115	42
116	26
117	73
119	999
120	169
121	24
122	2
126	1
127	6
128	18
129	8
130	29
131	13
132	73
133	26
134	14
135	6
136	3
139	1
140	1
141	1
142	2
143	3
144	4
145	3
146	21
148	944
149	159
150	13
151	2
152	3
153	1
154	1
155	1
156	2
157	1
158	3
159	2
160	10
161	2
163	1
164	1
165	4
166	2
167	2
168	1
172	1
174	5
175	4
176	17
177	3
178	4
179	3
180	4
181	1
182	1
189	1
190	2
191	3
192	3
193	4
194	7
195	2
196	1
202	1
203	1
204	3
205	1
206	2
207	3
208	6
209	3
210	2
212	2
217	1
218	2
219	2
220	6
221	8
222	12
223	6
224	2
232	1
233	2
234	5
235	3
236	7
237	1
238	88
239	16
240	1
246	2
247	1
248	8
249	12
250	32
251	7
252	3
253	1
267	479
268	102
269	11
270	1
