Mass Spectrum: Benzoisothiazole, 3-(2-methoxyethyl)amino-, 1,1-dioxide
Formula: C10H12N2O3S
CAS: 294874-19-4
Molecular weight: 240
m/z	intensity
33	9
34	0
35	0
36	2
37	4
39	25
40	23
41	13
42	49
43	88
45	505
46	11
47	3
48	4
50	82
51	64
52	16
53	4
54	1
55	4
56	9
58	999
59	26
60	3
62	6
63	18
64	39
65	8
66	1
67	1
69	10
70	3
71	1
72	2
74	34
75	83
76	114
77	54
78	9
79	11
80	1
81	2
83	4
84	2
85	1
87	2
88	3
89	15
90	30
91	25
92	5
93	1
94	2
95	2
96	1
97	0
99	2
100	2
102	304
103	82
104	36
105	6
106	2
107	3
108	3
110	7
111	0
112	0
114	0
115	0
117	137
118	45
119	16
120	7
122	10
123	0
124	0
128	2
129	3
130	3
131	11
132	4
133	3
134	4
135	2
136	3
137	0
139	0
142	1
143	24
144	44
145	61
146	32
147	6
148	0
150	21
151	4
152	3
153	0
159	0
161	18
162	1
163	1
164	0
166	88
167	7
168	7
169	0
171	0
174	0
175	13
176	95
177	10
178	2
179	2
180	0
181	0
182	7
183	30
185	1
193	0
195	24
196	3
197	2
207	1
208	5
209	18
210	4
211	1
225	26
226	2
227	1
239	0
240	5
241	1
242	0
