Mass Spectrum: Pyrrolidine-3-carboxamide, 5-oxo-1-phenyl-N-(2-fluorophenyl)-
Formula: C17H15FN2O2
CAS: 294873-71-5
Molecular weight: 298
m/z	intensity
33	4
36	0
37	14
38	62
39	362
40	124
41	492
42	60
43	14
44	9
45	4
49	0
50	83
51	283
52	69
53	23
54	39
55	364
56	38
57	160
58	7
59	0
61	5
62	26
63	111
64	102
65	81
66	13
67	7
68	68
69	23
70	6
71	0
73	0
74	22
75	80
76	41
77	582
78	82
79	50
81	34
82	70
83	492
84	67
85	2
88	1
89	24
90	91
91	110
92	24
93	35
94	12
95	34
96	8
101	1
102	6
103	26
104	241
105	113
106	999
107	81
108	11
109	56
110	186
111	390
112	39
113	1
115	8
116	9
117	53
118	18
119	81
120	10
121	1
122	6
123	1
124	4
127	0
128	7
130	141
131	31
132	93
133	13
134	0
135	3
136	2
137	23
138	18
139	2
142	0
144	1
145	11
146	50
147	12
148	11
149	7
150	1
158	9
159	31
160	66
161	10
162	0
163	0
164	23
165	18
166	1
175	11
177	4
178	1
186	1
188	0
192	5
193	24
194	1
200	14
201	0
298	35
299	5
