Mass Spectrum: 1-Hydroxy-2,2-dimethyl-3-imidazoline-4-carboxaldehyde oxime
Formula: C6H11N3O2
CAS: 294873-66-8
Molecular weight: 157
m/z	intensity
33	29
34	1
36	0
37	10
38	41
39	316
40	212
41	598
42	999
43	229
44	168
45	21
46	24
47	3
49	0
50	2
51	17
52	81
53	49
54	140
55	153
56	75
57	41
58	318
59	37
60	5
61	0
63	4
64	5
65	9
66	85
67	31
68	107
69	798
70	547
71	212
72	14
73	8
74	8
76	1
77	2
78	2
79	7
80	21
81	61
82	155
83	50
84	42
85	10
86	31
87	112
88	5
89	0
91	1
92	3
93	10
94	217
95	102
96	33
97	64
98	11
99	4
100	7
101	116
102	4
104	0
105	1
106	2
107	6
108	30
109	61
110	38
111	64
112	485
113	38
114	2
115	0
117	0
119	0
120	1
121	2
122	25
123	36
124	15
125	38
126	32
127	662
128	46
129	4
130	0
133	0
135	0
137	0
138	3
139	17
140	58
141	7
142	135
143	8
155	0
156	3
157	97
158	12
159	0
