Mass Spectrum: Tetrazole, 1-(4,5-dimethyl-2-nitrophenyl)-
Formula: C9H9N5O2
CAS: 294874-74-1
Molecular weight: 219
m/z	intensity
33	0
34	1
35	1
36	6
37	51
38	132
39	727
40	142
41	340
42	51
43	59
44	18
45	11
46	72
47	0
48	1
49	20
50	246
51	489
52	246
53	254
54	70
55	26
56	6
57	6
58	6
59	7
61	38
62	96
63	272
64	159
65	467
66	166
67	71
68	21
69	12
70	3
71	2
72	2
73	10
74	58
75	99
76	150
77	614
78	300
79	309
80	106
81	16
82	5
83	2
84	1
85	6
86	18
87	25
88	26
89	187
90	170
91	999
92	247
93	83
94	18
95	3
96	1
97	1
98	7
99	6
100	5
101	16
102	184
103	253
104	161
105	143
106	176
107	34
108	25
109	2
110	0
111	0
112	0
113	1
114	6
116	555
117	244
118	436
119	217
120	43
121	8
122	2
123	0
126	0
127	2
128	8
129	48
130	17
131	48
132	32
133	96
134	33
135	5
136	7
137	0
139	0
140	0
141	1
142	3
143	27
144	24
145	65
146	23
147	9
148	14
149	5
150	2
151	2
152	0
153	1
154	1
155	0
156	0
157	0
158	0
159	1
160	12
161	34
162	10
163	2
164	6
165	3
166	35
167	3
168	0
169	0
171	0
172	0
174	3
175	1
176	4
177	0
178	2
179	0
189	1
190	2
191	8
192	0
194	0
212	0
219	3
220	1
