Mass Spectrum: [1,3,4]-Thiadiazolo[3,2-a]pyrimidin-5-one, 5,6,7,8-tetrahydro-7-imino-2-isopropyl-
Formula: C8H10N4OS
CAS: 294878-30-1
Molecular weight: 210
m/z	intensity
33	6
36	2
37	33
38	120
39	521
40	63
41	461
42	147
43	328
45	359
46	72
47	83
48	11
50	40
51	58
52	70
53	212
54	58
55	183
56	28
57	48
58	97
59	223
60	134
61	16
62	10
63	7
64	13
65	10
66	24
68	999
69	286
70	229
71	285
72	133
73	121
74	213
75	47
76	19
77	21
78	2
79	1
80	6
81	10
83	76
84	311
85	80
86	98
87	209
88	20
89	15
90	5
91	15
92	2
93	3
94	1
97	6
98	16
99	12
100	45
101	86
102	29
103	6
104	8
105	8
106	1
108	4
109	2
110	9
111	23
112	8
113	17
114	17
115	29
116	9
117	6
118	6
119	2
120	7
121	3
122	3
123	5
125	1
126	9
127	105
128	471
129	41
130	21
131	3
132	1
135	4
136	18
137	7
139	5
141	18
142	69
143	387
144	41
145	20
146	3
149	7
150	1
151	4
152	3
154	101
155	26
156	11
157	3
159	1
160	2
161	23
162	6
165	1
167	1
168	42
170	779
171	68
172	33
176	1
181	4
182	23
187	1
192	1
195	657
196	56
197	30
207	1
208	2
209	62
210	474
211	58
212	21
213	3
