Mass Spectrum: 2-Furancarboxylic acid, phenyl ester
Formula: C11H8O3
CAS: 2948-14-3
Molecular weight: 188
m/z	intensity
25	4
26	16
27	14
28	3
29	20
39	564
40	34
41	17
42	4
50	42
51	81
52	27
53	29
55	9
61	9
62	19
63	42
64	18
65	99
66	27
67	31
68	5
69	4
74	8
75	5
76	3
77	43
78	9
79	31
93	18
94	34
95	999
96	165
97	17
188	361
189	45
190	5
