Mass Spectrum: 1,2,4-Triazole, 5-diethylaminosulfonyl-
Formula: C6H12N4O2S
CAS: 294876-55-4
Molecular weight: 204
m/z	intensity
33	0
34	0
38	7
39	19
40	31
41	72
42	212
44	165
46	14
48	26
49	2
50	1
51	1
52	4
53	4
54	18
56	368
58	132
60	6
61	2
62	0
64	32
65	11
66	2
67	6
69	147
70	334
72	999
73	39
75	1
76	3
77	1
78	0
80	7
82	2
83	2
84	5
85	1
86	1
88	4
89	2
90	1
92	11
93	0
94	0
96	12
97	26
98	5
99	0
100	0
101	0
105	2
106	1
108	8
109	1
111	58
112	2
113	0
116	24
117	8
118	3
119	3
120	7
122	1
123	0
125	20
126	1
132	87
133	15
134	21
136	14
137	0
138	0
139	2
140	0
144	1
145	0
147	0
161	282
162	25
164	0
175	0
189	185
190	19
192	0
203	0
204	5
205	0
