Mass Spectrum: 2,2,6,6,-Tetramethyl-4-acetoxyiminopiperidine
Formula: C11H20N2O2
CAS: 294850-74-1
Molecular weight: 212
m/z	intensity
36	2
38	16
39	88
40	45
41	237
42	355
43	210
44	29
45	35
50	7
51	13
52	10
53	42
54	56
55	231
56	130
57	44
58	999
59	40
60	25
65	12
66	10
67	47
68	26
69	41
70	56
71	40
72	26
73	9
77	23
78	6
79	28
80	31
81	57
82	130
83	52
84	18
85	9
91	3
93	15
94	43
95	46
96	172
97	92
98	286
99	23
100	9
105	25
106	5
107	12
108	21
109	23
110	63
111	9
112	28
113	35
114	5
120	32
121	12
122	129
123	30
124	25
135	1
136	79
137	126
138	78
139	53
140	5
142	1
149	9
153	197
154	15
155	96
156	7
166	4
170	28
197	91
198	9
212	60
213	6
