Mass Spectrum: 2-Pyrazolin-5-ol, 5-(4-ethylphenyl)-3-trifluoromethyl-1-(3-methylbenzoyl)-
Formula: C20H19F3N2O2
CAS: 294877-06-8
Molecular weight: 376
m/z	intensity
39	7
40	0
41	1
43	0
50	3
51	6
52	1
53	1
55	0
62	3
63	12
65	74
66	1
69	4
74	0
75	3
76	8
77	31
78	12
79	25
80	0
87	0
89	38
91	338
92	16
93	0
95	3
96	0
102	3
103	31
104	15
105	40
106	2
107	0
109	0
115	10
116	7
119	999
120	62
121	3
122	0
123	3
127	3
128	2
129	1
130	2
131	12
133	237
134	19
135	1
140	0
141	0
144	2
145	5
146	4
147	2
148	3
149	1
150	0
151	5
152	1
153	0
157	0
158	0
159	1
161	0
164	0
165	3
166	1
167	0
177	0
178	0
179	4
180	2
181	1
182	0
183	0
193	1
194	1
195	0
196	0
197	0
199	1
200	0
208	0
209	0
213	0
214	0
223	0
225	0
226	3
227	0
228	1
229	0
240	17
241	11
242	2
243	2
244	0
307	48
308	9
309	0
347	5
348	0
357	11
358	21
359	3
360	0
362	0
374	0
376	129
377	25
378	2
