Mass Spectrum: Acetic acid, 2-phenyl-, 2-methoxy-4-piperidinothiocarbonylphenyl ester
Formula: C21H23NO3S
CAS: 294876-80-5
Molecular weight: 369
m/z	intensity
33	3
34	3
35	0
36	1
37	6
38	23
39	172
40	39
41	255
42	65
43	26
44	12
45	62
47	5
50	32
51	77
52	32
53	32
54	20
55	76
56	86
57	21
58	8
59	11
60	8
61	6
62	21
63	88
64	42
65	261
67	51
68	13
69	84
70	26
71	15
72	19
73	5
74	6
75	9
76	11
77	41
78	20
79	33
80	12
81	9
82	22
83	17
84	175
85	15
86	11
87	4
89	67
91	999
92	88
93	16
94	13
95	66
96	39
97	16
98	8
99	2
100	1
101	2
102	4
103	9
104	8
105	9
106	13
107	17
108	36
109	21
110	9
111	8
112	5
113	2
114	1
115	5
116	3
117	8
118	22
119	44
120	29
121	15
122	16
123	30
124	49
125	12
126	5
127	6
128	8
129	5
130	5
131	7
132	8
133	7
134	14
135	63
136	45
137	34
138	9
139	11
140	2
141	5
142	2
143	2
144	4
145	6
146	18
147	9
148	27
149	19
150	186
151	26
152	39
153	12
154	4
155	2
156	2
157	5
158	11
159	7
160	5
161	5
162	9
163	13
164	9
165	30
166	16
167	124
168	50
169	11
170	4
171	6
172	4
174	97
175	16
176	14
177	6
178	25
179	8
180	4
181	1
182	0
183	0
184	1
185	2
186	10
187	7
188	5
189	9
190	73
191	13
192	6
193	2
194	1
195	0
196	0
197	0
198	1
199	1
200	1
201	1
202	10
203	12
204	3
205	2
206	4
207	3
208	8
209	2
210	2
211	1
212	0
213	0
214	0
215	1
216	6
217	35
218	73
219	14
220	8
221	5
222	13
223	2
224	1
225	0
226	0
227	0
229	0
230	0
231	0
232	1
233	1
234	6
235	4
236	69
237	9
238	4
239	0
240	0
241	0
244	0
245	0
247	2
248	8
250	354
251	229
252	48
253	13
254	2
255	0
256	0
257	0
258	0
268	0
269	0
283	0
286	0
289	0
317	1
340	0
354	0
364	0
365	0
366	1
368	13
369	54
370	13
371	3
372	0
