Mass Spectrum: 4,4'-(Methylenedi-4,1-phenylene)bis[1-(2,2,6,6-tetramethyl-4-piperidylidene)semicarbazide]
Formula: C33H48N8O2
CAS: 294850-77-4
Molecular weight: 588
m/z	intensity
36	6
37	12
38	20
39	284
40	111
41	462
42	632
43	135
44	80
45	11
46	3
47	3
50	31
51	67
52	61
53	141
54	142
55	275
56	184
57	247
58	999
59	40
60	14
61	9
62	17
63	43
64	28
65	82
66	53
67	141
68	41
69	56
70	99
71	87
72	103
73	19
74	11
75	15
76	16
77	169
78	61
79	98
80	86
81	129
82	157
83	117
84	132
85	28
86	5
87	8
88	5
89	44
90	59
91	47
92	19
93	94
94	109
95	99
96	239
97	383
98	801
99	154
100	11
101	9
102	11
103	2
104	104
106	486
107	71
108	51
109	48
110	78
111	94
112	56
113	23
114	6
115	32
116	11
117	11
118	8
119	1
120	61
122	195
123	78
124	269
125	31
126	9
127	22
128	15
129	7
130	25
132	46
133	7
134	6
135	4
136	97
137	183
138	183
139	159
140	29
141	14
142	7
143	13
144	9
145	3
146	1
147	4
148	4
149	9
150	1
151	37
152	9
153	442
154	63
155	14
156	16
157	6
163	19
164	12
165	47
166	20
167	29
168	34
169	34
170	17
171	3
176	1
177	8
178	15
180	320
181	76
182	154
183	28
184	2
189	6
190	2
192	3
193	8
194	3
195	173
196	161
197	259
198	352
199	47
200	3
206	16
207	6
208	29
209	6
210	4
211	2
212	1
221	16
222	1
223	129
224	228
225	46
226	20
227	4
238	7
239	1
240	1
241	20
242	2
249	8
250	25
251	6
252	10
253	1
256	10
264	1
265	1
281	7
282	6
296	13
297	2
322	3
336	8
337	1
378	4
393	37
394	9
419	2
