Mass Spectrum: Pyrimidin-2-amine, 4-chloro-6-(2,4-dimethylphenoxy)-
Formula: C12H12ClN3O
CAS: 294878-31-2
Molecular weight: 249
m/z	intensity
38	19
39	596
40	227
41	119
42	195
43	498
47	22
50	156
51	440
52	225
53	274
55	21
57	15
60	58
61	102
62	274
63	269
64	169
65	508
66	422
67	623
68	174
69	42
74	126
75	95
76	130
77	999
78	406
79	246
80	31
83	26
86	188
87	44
88	31
89	133
91	961
92	554
93	98
94	15
102	73
103	202
104	89
105	144
107	58
115	37
117	79
118	45
120	139
121	197
122	37
128	160
129	68
130	285
131	28
132	181
142	15
144	17
145	135
147	621
148	33
160	12
171	63
172	19
187	21
203	12
214	12
232	427
233	51
234	177
249	357
251	84
