Mass Spectrum: N2-Benzoylisoleucine N'-piperonylidenehydrazide
Formula: C21H23N3O4
CAS: 294842-32-3
Molecular weight: 381
m/z	intensity
33	11
34	1
39	58
41	87
42	11
43	18
44	15
45	3
46	1
50	61
51	94
52	14
53	13
54	9
55	14
56	13
57	24
58	2
59	2
62	18
63	26
65	42
66	4
67	4
69	16
70	7
71	2
72	2
74	9
77	506
78	39
79	10
80	6
81	3
82	2
84	11
86	8
87	2
88	2
89	4
90	7
91	9
92	3
93	2
94	2
95	2
96	2
97	5
98	1
99	1
100	1
105	999
106	62
107	5
108	1
109	1
110	1
111	1
112	2
113	3
114	1
115	1
116	1
117	2
118	4
119	3
121	24
122	17
123	2
128	1
129	1
130	1
131	3
133	22
134	25
135	9
136	6
137	12
138	1
144	1
146	16
147	15
148	21
149	18
150	14
151	2
152	1
157	1
159	3
161	30
162	62
164	626
165	61
166	6
167	1
173	1
174	2
175	3
176	7
177	2
178	2
186	2
188	17
190	239
191	88
192	9
193	1
196	1
202	2
204	9
205	1
215	1
218	71
219	8
220	2
231	1
232	1
260	1
268	1
269	1
295	1
296	2
324	1
325	1
381	39
382	8
383	1
