Mass Spectrum: Pyrimidin-2(1H)-thione, 3,4,5,6-tetrahydro-4,6,6-trimethyl-4-(2,4-diacetoxyphenyl)-
Formula: C17H22N2O4S
CAS: 294874-61-6
Molecular weight: 350
m/z	intensity
33	12
34	6
40	208
41	121
42	245
43	999
44	56
45	25
47	1
48	2
51	25
52	17
53	28
55	79
56	29
57	56
58	323
60	71
61	1
62	4
63	15
64	6
65	26
66	13
67	20
68	9
69	30
70	11
71	22
72	19
74	6
75	9
77	73
78	22
79	35
80	17
81	27
82	67
83	31
84	10
85	5
86	2
88	3
89	7
90	5
91	32
92	11
93	15
94	15
95	11
96	7
97	6
98	17
100	345
101	18
102	19
103	22
104	7
105	18
106	13
107	53
108	12
109	10
110	14
111	11
112	4
113	3
114	3
115	47
116	13
117	45
118	22
119	35
120	12
121	22
122	15
123	30
124	14
125	42
126	7
127	5
128	6
129	28
130	33
131	64
132	11
133	11
134	12
135	61
136	66
137	35
138	5
139	2
140	2
141	30
142	6
143	84
144	17
145	9
146	6
147	16
148	126
149	34
150	89
151	66
152	66
153	7
154	2
155	0
156	16
157	24
158	7
159	5
160	6
161	9
162	9
163	5
164	19
165	72
166	27
167	22
168	8
169	1
171	4
172	1
173	7
174	10
175	73
176	19
177	25
178	5
179	3
180	1
182	5
189	18
190	29
191	27
192	37
193	17
194	44
195	7
196	0
203	1
205	0
206	13
207	22
208	21
209	22
210	2
211	0
216	0
217	25
218	4
219	2
222	1
223	2
224	1
231	1
232	1
233	2
234	5
235	10
236	8
237	2
238	0
248	7
249	3
251	180
252	25
253	11
254	0
259	1
261	0
265	8
266	9
267	2
275	3
276	3
277	0
279	0
291	8
293	143
294	27
295	8
297	12
298	2
307	22
308	195
309	34
310	13
311	1
335	3
336	0
350	204
351	43
352	15
353	1
