Mass Spectrum: 1,5-Cyclooctadiene, 1,6-dichloro-
Formula: C8H10Cl2
CAS: 29480-42-0
Molecular weight: 176
m/z	intensity
27	157
39	157
41	36
49	19
50	55
51	157
52	104
53	348
61	17
62	22
63	37
64	8
65	76
66	13
73	26
74	13
75	38
76	10
77	113
78	31
79	104
80	22
88	999
89	54
90	330
91	40
99	11
100	8
101	26
102	10
103	33
104	12
105	200
106	20
112	16
113	61
114	38
115	23
116	15
125	11
127	21
129	7
135	26
136	3
137	17
139	9
140	17
141	452
142	44
143	148
147	2
148	13
149	3
150	9
176	10
177	2
178	6
179	1
180	1
