Mass Spectrum: Propene, 2-bromo-1-phenyl-3-(1,2,4-triazol-4-yl)imino-
Formula: C11H9BrN4
CAS: 294852-74-7
Molecular weight: 276
m/z	intensity
33	0
34	1
36	5
37	39
38	158
39	359
40	283
41	118
42	84
43	52
44	73
45	9
46	1
50	315
51	344
52	115
53	42
54	23
55	16
56	16
57	392
59	1
61	51
62	150
63	339
64	56
65	185
66	15
68	10
69	63
70	12
71	4
72	4
73	23
74	154
75	165
76	183
77	190
78	45
79	34
80	34
81	29
82	35
84	62
85	21
86	48
87	130
88	75
89	258
90	35
91	16
92	5
93	3
94	2
95	6
97	14
98	28
99	33
100	24
101	70
102	359
103	100
104	19
105	12
106	8
107	2
108	3
109	2
110	4
111	3
113	65
114	107
115	999
116	116
117	31
118	7
119	22
120	7
121	6
122	0
127	31
128	115
129	197
130	43
131	15
132	1
133	0
137	0
139	3
140	25
141	19
142	38
143	17
144	9
145	2
147	1
152	2
153	5
154	1
155	9
156	2
157	3
158	4
159	0
167	3
168	13
169	27
170	24
171	9
172	6
173	1
174	0
179	0
180	1
181	5
182	4
183	4
184	2
185	1
189	0
193	11
194	3
195	18
196	9
197	77
198	22
199	49
201	53
202	4
207	68
208	149
209	87
210	152
211	32
212	17
213	1
214	0
215	0
219	1
220	5
221	34
223	42
224	5
225	1
227	1
233	15
235	15
236	1
241	2
247	95
248	14
249	91
250	14
254	0
255	3
256	0
264	1
272	0
273	1
275	281
276	164
277	287
278	150
279	14
280	1
