Mass Spectrum: Piperid-4-one, 3,5-bis(3-fluorobenzylideno)-1-propyl-
Formula: C22H21F2NO
CAS: 294877-68-2
Molecular weight: 353
m/z	intensity
33	4
34	2
36	2
37	3
39	137
40	41
41	356
42	999
43	370
44	23
45	2
50	18
51	31
52	9
53	25
54	21
55	22
56	57
57	57
58	8
59	8
61	2
62	14
63	49
64	8
65	10
66	15
67	12
68	24
69	16
70	84
71	7
72	8
73	2
74	17
75	52
76	9
77	12
78	4
79	2
80	10
81	26
82	20
83	90
84	13
85	3
86	7
87	11
88	7
89	12
90	2
91	4
92	5
93	10
94	22
95	36
96	34
97	7
98	5
99	17
100	15
101	81
102	11
103	4
104	2
105	6
106	15
107	77
109	291
110	31
112	11
113	18
114	20
115	82
116	13
117	5
118	4
119	14
120	62
121	71
122	31
123	26
124	7
125	10
126	10
127	15
128	16
129	8
130	7
131	26
133	900
134	249
135	213
136	75
137	21
138	12
139	5
140	7
141	5
142	3
143	5
144	8
145	16
146	50
147	203
148	102
149	96
150	16
151	5
152	15
153	9
155	5
156	3
157	9
158	7
159	28
160	27
161	267
162	139
163	52
164	6
166	1
167	2
168	2
169	2
170	6
171	17
172	9
173	8
174	24
175	10
176	38
177	9
182	2
183	3
184	4
185	14
186	27
187	13
188	20
190	180
191	23
192	19
193	2
196	1
198	2
199	4
200	6
201	6
202	10
203	6
204	10
205	3
207	2
213	3
214	20
215	13
216	84
217	13
218	4
220	6
221	2
225	1
226	2
227	8
228	5
229	5
230	50
231	9
232	3
233	15
234	4
238	7
239	4
240	4
241	14
242	4
243	2
244	44
245	9
246	9
247	6
248	1
251	17
252	8
253	5
254	3
258	4
259	2
262	2
264	2
265	3
266	2
267	6
268	2
277	2
279	2
280	4
281	5
282	9
283	4
290	2
292	1
293	3
294	3
295	7
296	44
297	9
306	2
308	5
309	3
310	17
311	3
320	6
321	7
322	8
324	555
325	155
326	23
327	2
336	2
340	2
348	2
349	3
350	4
351	7
352	72
353	252
354	61
355	8
