Mass Spectrum: Benzaldehyde,5-bromo-2-methoxy-, 2,3,5,6-tetrafluoro-4-trifluoromethylphenylhydrazone
Formula: C15H8BrF7N2O
CAS: 294876-38-3
Molecular weight: 444
m/z	intensity
33	2
34	0
36	4
37	14
38	31
39	39
40	11
41	6
42	18
43	6
44	5
45	2
46	3
50	107
51	65
52	24
53	22
54	2
55	4
56	2
57	1
58	1
59	1
61	25
62	83
63	249
64	31
65	25
66	5
67	2
69	65
70	4
71	0
73	11
74	55
75	137
76	158
77	99
78	82
79	30
80	16
81	9
82	14
83	0
84	1
85	2
86	9
87	11
88	24
89	81
90	73
91	55
92	14
93	28
94	4
95	4
96	0
98	10
99	10
100	12
101	8
102	15
103	17
104	40
105	65
106	29
107	7
108	2
109	1
110	1
111	1
112	3
113	4
114	1
115	3
118	999
119	78
120	7
121	1
122	1
124	10
125	1
127	5
128	4
129	6
130	3
131	10
132	22
133	111
134	11
135	3
136	9
137	8
138	1
141	7
142	25
143	17
144	26
145	12
146	1
148	14
149	2
150	1
151	2
152	1
155	182
156	28
157	107
158	16
159	8
160	2
161	2
162	9
163	3
164	1
165	4
167	16
168	34
169	65
170	127
171	70
172	96
173	13
174	2
175	6
178	0
179	4
180	3
181	12
183	132
184	23
185	61
186	61
187	42
188	34
189	3
191	0
192	0
193	3
194	8
196	53
197	338
198	68
199	304
200	25
201	4
202	1
203	2
205	57
206	5
207	1
210	7
211	16
212	27
213	26
214	55
215	8
217	14
218	3
219	0
220	0
222	20
223	22
225	1
226	1
228	0
229	1
230	1
231	6
232	9
233	20
234	1
236	0
237	1
238	1
239	2
244	3
245	1
246	2
248	39
249	3
252	0
253	1
254	1
255	0
260	0
261	0
262	0
264	0
268	0
269	0
274	0
275	1
276	1
280	0
281	1
282	0
283	0
294	1
295	0
301	4
302	1
303	1
314	0
319	0
321	3
322	0
330	1
331	0
334	2
335	0
345	0
349	2
350	11
351	1
363	0
364	8
365	3
413	0
425	6
427	7
428	1
439	0
440	1
441	1
444	46
445	9
446	37
447	5
