Mass Spectrum: Isoxazole-4-carboxamide, 3-(2-chlorophenyl)-5-methyl-N-(4-acetylaminophenyl)-
Formula: C19H16ClN3O3
CAS: 294876-16-7
Molecular weight: 369
m/z	intensity
33	11
34	1
36	3
37	2
38	8
39	26
40	25
43	999
44	81
45	12
46	4
50	14
51	23
52	28
53	27
54	6
55	4
56	3
57	3
58	5
60	0
61	2
62	5
63	15
64	10
65	16
66	3
67	3
68	2
69	1
73	88
75	36
76	7
77	11
78	10
79	19
80	61
81	6
82	1
83	2
84	2
85	2
86	1
87	3
88	3
89	6
91	48
92	24
93	4
94	1
97	0
99	5
100	1
101	3
102	6
103	2
104	2
105	10
107	130
108	81
109	15
111	19
112	3
113	7
114	13
115	4
116	2
117	2
118	5
119	7
120	2
121	1
122	3
123	11
124	2
125	5
126	3
127	3
128	1
129	1
130	0
131	1
132	1
134	7
135	0
137	6
138	3
139	8
140	1
141	2
143	2
144	10
145	1
146	1
147	3
150	113
151	20
152	30
153	16
154	1
157	0
160	2
161	1
162	1
163	1
164	0
165	0
171	0
172	0
173	0
174	1
175	5
178	465
179	55
180	141
181	59
182	8
183	0
185	0
186	0
190	0
192	6
193	1
194	0
195	1
196	0
201	1
202	0
211	0
217	0
218	2
220	39
221	6
222	12
223	1
243	0
246	0
247	0
271	0
288	1
290	1
291	2
292	14
293	3
299	7
300	1
324	0
326	5
327	29
328	6
329	8
330	3
331	2
332	3
334	93
335	17
336	2
364	1
365	3
366	6
367	12
369	211
370	45
371	60
372	12
373	1
