Mass Spectrum: Dichotine, 19-hydroxy-11-methoxy-, triacetate (ester)
Formula: C29H34N2O11
CAS: 29484-57-9
Molecular weight: 586
m/z	intensity
41	90
42	100
43	999
44	110
45	110
50	10
53	20
55	80
56	20
57	120
58	490
59	50
60	80
67	20
68	10
69	60
70	150
71	100
72	10
73	10
74	10
77	10
79	40
80	40
81	20
82	20
83	50
84	20
85	30
91	10
94	10
95	20
96	30
97	40
98	90
101	10
109	10
111	10
112	10
115	10
116	30
121	10
123	10
124	10
125	10
127	20
135	10
136	10
138	40
140	10
141	10
149	60
154	120
155	10
156	20
166	10
244	10
256	10
288	30
343	10
350	10
365	10
366	10
367	10
368	10
369	10
370	10
371	10
381	10
382	20
383	20
384	30
385	10
393	10
397	10
399	30
400	20
409	10
410	10
413	10
423	20
424	10
425	240
426	60
427	20
439	10
441	50
442	10
443	20
453	50
454	20
455	10
467	40
468	10
469	10
471	10
483	80
484	40
485	650
486	180
487	50
501	20
511	20
512	20
513	20
526	110
527	920
528	290
529	70
530	20
543	30
544	20
555	20
556	20
586	40
