Mass Spectrum: Urea, N-(1-cyclopropylethyl)-N-(2-methoxyphenyl)-N'-(3-nitrophenyl)-
Formula: C19H21N3O4
CAS: 294874-08-1
Molecular weight: 355
m/z	intensity
33	2
34	2
36	4
37	9
39	216
41	999
42	51
43	41
44	12
45	3
46	3
48	0
50	38
51	69
52	52
53	65
54	19
55	22
56	10
57	12
58	1
59	0
60	1
61	3
63	82
64	82
65	89
66	17
67	37
69	488
70	27
71	5
72	0
73	1
75	38
76	60
77	77
78	64
79	43
80	42
81	7
82	2
83	3
84	1
85	1
86	1
87	1
88	1
90	57
91	62
92	73
93	35
94	16
95	7
96	1
97	0
98	0
99	0
100	0
101	0
102	2
103	6
104	13
105	16
106	88
108	124
109	12
110	1
111	0
112	1
113	0
115	6
116	4
117	12
118	18
120	143
121	28
123	276
124	26
125	2
126	0
127	1
128	3
130	10
131	13
132	17
134	127
135	23
136	42
137	18
138	34
139	3
140	1
141	1
142	1
143	3
144	9
145	5
146	12
147	9
149	255
150	84
151	11
152	2
153	0
154	1
155	1
156	1
157	1
158	3
159	4
160	16
161	7
162	11
163	10
164	6
165	14
166	2
167	2
168	1
169	1
170	1
171	2
172	1
174	7
175	3
176	36
177	6
178	2
179	1
180	1
181	1
182	1
183	2
184	1
185	0
186	0
188	0
189	1
190	12
191	11
192	2
193	0
194	0
195	1
196	1
197	1
198	0
199	0
200	0
201	0
202	0
203	0
204	0
205	0
206	2
207	0
208	1
209	1
210	1
211	1
212	0
215	0
218	4
219	1
220	16
221	2
222	1
223	4
224	2
225	0
226	0
234	5
235	0
236	0
237	0
238	2
239	1
240	6
241	1
242	0
252	0
253	0
255	3
256	8
257	2
258	0
261	0
267	0
268	1
269	1
270	6
271	2
272	0
273	0
274	0
282	1
283	1
284	1
285	2
286	11
287	125
288	21
289	2
290	0
300	1
301	0
312	0
313	0
314	3
315	0
323	0
324	3
325	2
326	1
327	0
340	0
351	0
352	0
353	0
355	29
356	6
357	1
