Mass Spectrum: N2-Benzoylisoleucine N'-(5-nitrosalicylidene)hydrazide
Formula: C20H22N4O5
CAS: 294842-29-8
Molecular weight: 398
m/z	intensity
33	22
34	4
37	16
38	26
39	82
40	79
41	88
42	24
43	47
44	58
45	7
46	2
51	196
52	39
53	40
54	14
55	27
56	21
57	33
58	4
59	3
61	8
63	66
64	24
65	36
66	9
67	8
69	20
70	17
71	4
72	4
73	5
74	12
77	451
78	40
79	22
80	13
81	6
82	5
83	4
84	9
85	4
86	12
87	4
88	3
89	6
90	9
91	34
92	18
93	9
94	4
95	3
96	3
97	9
98	2
99	2
100	2
101	4
105	999
106	60
107	11
108	9
109	1
111	1
112	2
113	3
114	2
115	1
116	3
117	5
119	35
120	12
121	24
122	29
123	3
127	2
128	1
130	1
131	3
132	9
133	13
134	18
135	11
136	16
137	2
144	2
145	2
146	5
147	11
148	26
150	13
151	16
152	4
160	4
161	20
162	16
163	7
164	5
165	11
166	9
167	2
171	2
174	2
175	3
176	3
177	3
178	2
180	1
181	3
182	2
187	3
188	14
190	264
191	37
192	9
208	1
215	1
216	3
218	153
219	15
220	2
236	1
237	1
255	1
263	2
266	1
279	7
280	7
281	1
282	1
300	1
313	3
330	19
331	3
368	1
398	5
399	1
