Mass Spectrum: Benzene, 2-chloro-1,4-bis(cyclohexanoyloxy)-
Formula: C20H25ClO4
CAS: 294874-04-7
Molecular weight: 364
m/z	intensity
33	0
34	0
35	2
36	10
37	4
39	175
41	436
42	32
43	33
44	6
45	1
46	0
47	0
50	9
51	28
52	18
53	75
55	734
56	27
57	5
58	0
59	0
60	3
61	2
62	5
63	16
65	27
67	85
68	13
69	5
70	2
71	2
72	0
73	2
74	1
75	1
77	15
79	39
81	72
83	999
84	55
86	4
87	2
88	2
89	4
91	29
92	3
93	1
95	11
97	2
98	1
99	2
100	0
101	0
102	0
103	0
105	2
107	3
108	3
110	170
111	289
112	22
113	1
114	1
115	3
116	1
117	1
119	58
120	4
121	0
122	0
123	0
124	0
125	0
126	0
127	0
128	0
129	0
130	0
131	0
133	0
135	0
137	1
138	0
139	0
141	0
142	0
144	54
145	4
146	15
147	1
149	0
152	0
153	0
155	0
156	0
157	0
163	0
171	1
173	0
178	0
180	0
181	0
218	0
219	1
220	2
221	0
226	0
228	0
252	0
254	23
255	3
256	7
257	1
262	1
263	0
264	0
364	1
365	0
366	0
367	0
