Mass Spectrum: Ethanone,1-(2,3,4,4a,5,9b-hexahydro-2,8-dimethyl-1H-pyrido[4,3-b]indol-5-yl)-2-(4-morpholyl)-
Formula: C19H27N3O2
CAS: 294874-73-0
Molecular weight: 329
m/z	intensity
34	0
36	0
37	0
38	1
39	9
40	6
41	42
42	182
43	179
44	41
45	7
46	0
50	2
51	6
52	3
53	4
54	9
55	10
56	126
57	33
58	104
59	3
62	0
63	3
64	1
65	5
66	1
67	1
68	4
70	93
71	56
72	18
73	1
74	0
75	1
76	2
77	13
78	5
79	2
80	1
81	0
82	3
83	2
84	1
85	2
86	2
87	1
88	1
89	3
90	2
91	9
92	1
93	1
94	4
95	0
96	1
98	30
100	999
101	51
102	8
103	7
104	2
105	2
106	1
107	0
108	0
112	0
113	0
114	1
115	13
116	6
117	5
118	1
119	0
120	0
121	0
122	0
125	0
126	1
127	3
128	8
129	7
130	18
131	18
132	4
133	1
134	0
139	0
140	1
141	3
142	8
143	21
144	17
145	4
146	4
147	0
152	0
153	0
154	2
155	2
156	11
157	18
158	33
159	6
160	1
161	0
165	2
166	0
167	0
168	2
169	1
170	2
171	2
172	2
173	1
174	0
175	0
181	0
182	0
183	1
184	2
185	2
186	2
187	1
188	0
195	0
196	0
197	1
198	3
199	9
200	8
201	36
202	20
203	3
204	0
211	0
212	0
213	0
214	1
215	0
216	0
217	0
222	0
225	0
226	0
227	1
228	0
229	3
230	0
239	0
240	14
241	4
242	11
243	2
244	5
245	1
259	0
260	0
261	0
285	0
301	0
327	0
329	30
330	6
331	0
