Mass Spectrum: Pyrazole, 5-diacetylamino-1-(4-chlorobenzyl)-3-methyl-4-phenyl-
Formula: C21H20ClN3O2
CAS: 294873-91-9
Molecular weight: 381
m/z	intensity
33	4
35	7
36	41
38	21
39	59
40	37
41	59
43	999
45	7
46	0
48	4
50	13
51	39
52	8
53	4
54	2
55	7
56	3
57	6
59	1
60	3
61	3
63	66
64	16
65	25
66	12
67	2
68	1
69	4
70	5
71	2
73	8
74	4
75	18
77	46
78	10
79	4
80	1
81	1
82	1
83	2
84	1
85	2
86	2
87	4
89	136
90	39
91	31
92	4
93	2
94	0
95	2
97	2
99	29
101	14
102	8
103	9
104	11
105	10
106	3
107	1
108	0
109	0
111	5
112	2
113	7
115	136
116	50
117	25
118	7
119	2
120	1
121	3
122	1
123	2
125	529
127	210
128	23
129	5
130	6
131	16
132	3
133	0
134	0
135	4
136	0
137	0
138	3
139	2
140	28
141	8
142	13
143	17
144	27
145	14
146	2
147	0
148	5
149	8
150	5
151	2
152	2
153	1
154	1
155	6
156	4
157	14
158	7
159	3
160	1
161	0
162	0
163	0
164	0
165	1
166	1
167	1
168	1
169	1
170	3
171	6
172	19
173	5
174	0
176	1
177	0
178	1
179	1
180	0
181	0
182	2
183	1
184	3
185	2
186	14
187	3
188	0
189	0
190	0
191	0
192	0
193	0
194	0
196	1
197	0
198	1
199	1
200	0
201	1
202	0
203	1
204	1
205	0
210	0
212	1
213	0
214	4
215	2
216	0
217	0
218	1
219	1
220	1
221	0
226	0
227	1
228	11
229	2
230	0
231	0
233	0
238	0
239	0
240	0
241	0
242	0
243	0
244	0
245	1
246	0
253	1
254	1
255	1
256	3
257	0
258	0
260	1
261	1
262	3
263	1
264	0
268	0
279	1
280	1
281	5
282	3
283	2
284	1
294	1
295	1
296	19
297	80
298	26
299	25
300	6
301	0
304	1
305	0
306	0
308	0
320	0
321	0
322	1
323	0
324	8
325	1
326	2
327	0
336	0
337	0
338	15
339	99
340	22
341	33
342	6
343	0
381	29
382	8
383	8
384	2
