Mass Spectrum: 9H-1,2,4-Triazolo[4,3-b][1,2,4]-triazepin-8-ol, 3-amino-6-trifluoromethyl-
Formula: C6H5F3N6O
CAS: 294875-48-2
Molecular weight: 234
m/z	intensity
33	5
34	1
35	1
36	4
37	8
38	63
39	104
40	143
41	242
42	868
43	999
44	75
45	35
46	30
47	7
48	2
50	54
51	99
52	67
53	170
54	54
55	44
56	93
57	43
58	214
60	14
61	2
62	5
63	13
64	18
65	118
66	52
67	151
68	416
69	879
70	133
71	36
72	5
73	12
74	24
75	242
76	48
77	12
78	19
79	9
80	4
81	17
82	15
83	58
84	16
85	9
86	3
87	3
88	11
89	29
90	51
91	66
92	21
93	227
94	40
95	54
96	31
97	7
98	32
99	5
100	34
101	23
102	14
103	18
104	2
105	2
106	4
107	6
108	69
109	16
110	10
111	18
112	2
113	14
114	3
115	18
116	24
117	36
118	6
120	102
121	75
122	28
123	23
124	4
125	7
126	2
127	3
128	6
129	4
130	3
131	12
132	2
133	6
134	6
135	9
136	90
137	59
138	53
139	7
140	1
141	0
142	3
143	4
144	3
145	5
146	2
147	8
148	79
149	17
150	7
151	7
152	2
153	4
154	1
155	0
156	0
157	8
158	3
159	0
161	11
162	19
163	342
164	80
165	78
166	5
167	0
169	0
170	0
171	2
172	0
173	0
174	7
175	1
176	1
177	12
178	7
179	1
180	0
182	1
184	0
185	0
186	1
187	2
188	1
189	0
190	3
191	1
192	2
193	2
194	0
203	1
204	1
205	53
206	6
207	0
211	0
212	1
213	0
214	2
215	71
216	6
217	0
219	1
221	0
231	2
232	7
234	475
235	43
236	2
