Mass Spectrum: Methanone, [4,5-dihydro-5-(4-bromophenyl)-3-ethyl-5-hydroxy-1-pyrazolyl](2-methylphenyl)-
Formula: C19H19BrN2O2
CAS: 294878-14-1
Molecular weight: 386
m/z	intensity
37	0
39	39
40	6
41	18
43	11
44	2
45	1
50	20
51	23
52	6
53	9
54	4
55	12
56	4
57	2
58	1
59	0
61	2
62	7
63	26
65	127
66	5
67	1
68	2
69	9
70	2
71	0
72	0
74	9
75	29
76	36
77	29
78	9
79	3
80	3
81	2
82	3
83	1
84	0
85	1
86	1
87	3
89	47
91	445
92	28
93	1
97	0
98	3
99	0
101	5
102	9
103	7
104	13
105	8
106	1
107	0
111	0
113	1
114	5
115	18
116	11
119	999
120	73
121	4
123	0
125	0
126	1
127	6
128	5
129	3
131	13
132	5
133	2
134	3
135	3
136	2
139	2
140	0
141	7
142	4
143	5
144	6
145	23
146	3
147	1
148	0
150	0
151	0
152	0
155	41
157	43
158	4
159	2
160	1
161	0
162	1
163	0
164	0
166	0
168	0
169	2
171	3
172	1
173	0
174	0
175	2
178	0
180	1
181	1
183	49
185	49
186	10
187	4
189	114
190	12
191	1
192	0
193	1
194	0
195	0
198	0
199	0
200	1
202	1
203	3
204	0
206	0
208	0
209	0
211	0
213	0
221	0
222	0
223	2
225	3
226	0
227	1
231	0
234	0
235	0
237	0
239	0
249	1
250	7
251	3
252	6
253	3
254	3
255	0
256	0
267	2
268	0
269	1
270	0
274	0
284	0
313	0
314	0
315	0
339	3
340	0
341	2
342	0
355	0
357	10
358	2
359	8
360	1
368	2
369	1
370	1
371	0
374	0
386	22
387	5
388	17
389	3
390	0
