Mass Spectrum: 2,2,6,6-Tetramethyl-4-benzoyloxyiminopiperidine
Formula: C16H22N2O2
CAS: 294848-52-5
Molecular weight: 274
m/z	intensity
36	1
37	5
38	18
39	83
40	46
41	255
42	354
43	51
44	25
45	4
46	1
50	57
51	126
52	17
53	38
54	60
55	283
56	159
58	999
59	26
60	2
61	1
62	2
63	2
65	14
66	14
67	49
68	23
69	44
70	75
71	49
72	41
73	5
74	8
75	9
77	417
78	30
79	21
80	25
81	40
82	157
83	49
84	17
85	3
86	1
91	5
92	3
93	13
94	47
96	378
97	124
98	251
99	17
100	2
103	5
105	846
106	54
107	12
108	24
109	28
110	85
111	10
112	31
113	5
117	1
118	3
120	47
122	160
123	33
124	23
125	3
134	2
136	197
137	281
138	126
139	46
140	4
149	6
150	1
151	3
153	640
154	58
155	4
158	1
162	2
166	5
167	1
169	4
170	1
200	1
202	2
226	2
259	159
260	21
261	2
274	111
275	16
276	2
