Mass Spectrum: Acetamide, 2-(4-methylpiperazin-1-yl)-N-(2-cyclopropanoyl-benzofuran-3-yl)-
Formula: C19H23N3O3
CAS: 294873-83-9
Molecular weight: 341
m/z	intensity
37	9
38	26
39	292
40	46
41	315
42	999
43	425
44	107
45	10
48	0
50	35
51	30
52	12
53	22
54	59
55	87
56	349
57	57
58	54
62	2
63	15
64	2
65	20
66	1
67	4
69	272
70	459
71	107
72	22
73	8
75	42
76	79
77	45
78	8
79	3
80	5
81	5
82	20
83	10
84	27
85	4
86	0
87	1
88	1
89	11
90	7
91	20
92	1
95	3
96	3
97	20
99	182
100	21
101	4
102	27
103	81
104	32
105	1
111	16
112	13
113	91
114	23
115	16
116	16
117	5
118	1
127	7
128	13
129	6
130	21
131	4
132	2
133	1
140	13
141	4
143	9
144	11
146	12
147	1
156	8
158	3
160	8
170	8
171	1
172	15
173	5
182	1
186	40
187	4
200	2
201	1
204	0
214	5
228	4
341	10
