Mass Spectrum: 3-(4-Bromo-benzylsulfanyl)-5-furan-2-yl-4-phenyl-4H-[1,2,4]triazole
Formula: C19H14BrN3OS
CAS: 294874-64-9
Molecular weight: 411
m/z	intensity
37	7
38	26
39	72
40	5
41	3
42	2
43	2
44	5
45	24
46	6
50	65
51	183
52	18
53	15
54	2
59	2
61	7
62	36
63	144
64	97
65	70
66	11
67	2
69	20
70	4
71	3
74	20
75	34
77	999
78	74
79	14
80	6
81	9
82	20
83	16
84	3
85	4
86	9
87	15
89	499
90	570
91	105
93	118
94	33
95	11
96	9
97	19
98	2
99	2
101	8
102	24
103	43
104	63
105	19
106	7
107	13
108	25
109	40
110	15
111	21
112	3
113	7
115	117
116	36
117	31
118	68
119	22
120	28
121	79
122	49
123	11
124	2
125	4
126	8
127	16
128	17
129	10
130	6
131	10
132	2
133	4
135	243
136	108
137	41
138	8
139	7
140	22
141	16
142	10
143	28
144	4
145	14
146	4
147	4
148	17
149	117
150	15
151	8
152	13
153	8
154	6
155	26
156	22
157	19
158	7
159	3
160	2
161	7
162	7
163	9
164	2
165	16
166	35
167	17
169	965
170	628
171	889
172	72
173	4
178	3
179	9
180	4
181	2
182	15
183	11
184	29
185	12
186	12
187	12
188	4
189	28
190	3
191	2
194	4
195	4
196	9
197	14
198	5
199	23
200	7
201	24
202	7
203	3
205	21
206	53
207	11
209	4
210	4
211	6
212	9
213	6
214	36
215	5
216	2
223	222
224	153
225	25
226	36
227	6
228	36
229	5
230	3
237	3
238	3
239	3
240	2
241	18
242	144
243	87
245	289
246	49
247	238
248	34
249	2
254	10
255	36
256	58
257	12
258	14
260	32
261	6
262	18
263	2
272	10
273	3
274	3
275	2
285	486
286	92
287	443
288	66
289	6
299	50
300	13
302	236
303	46
304	216
305	30
306	3
317	13
318	5
319	15
320	6
321	2
322	2
332	43
333	11
334	9
335	3
336	6
351	2
352	3
353	3
357	3
359	3
378	46
379	11
380	36
381	7
382	4
384	3
408	11
410	84
411	389
412	149
413	374
414	74
415	23
416	3
