Mass Spectrum: N1-Furfuryl-N2-(3-hydroxypropyl)oxamide
Formula: C10H14N2O4
CAS: 294873-78-2
Molecular weight: 226
m/z	intensity
34	3
36	2
37	15
38	44
39	161
40	48
41	278
42	71
43	88
44	138
45	20
46	36
48	1
49	2
50	28
51	66
52	63
53	359
54	48
55	20
56	233
57	35
58	49
59	52
60	2
61	0
62	1
63	2
64	3
65	4
66	12
67	16
68	40
69	63
70	10
71	6
72	11
73	2
74	82
75	6
76	27
77	3
78	7
79	7
80	32
81	801
82	174
83	12
84	161
85	9
86	2
87	0
88	0
89	5
90	0
91	2
92	0
93	1
94	34
95	64
96	999
97	96
98	9
99	1
100	2
101	3
102	46
103	2
104	0
105	1
106	1
107	24
108	9
109	2
110	1
111	0
112	0
113	0
114	0
115	6
116	0
117	0
118	0
119	0
120	0
121	0
122	12
123	13
124	5
125	14
126	2
127	1
128	0
129	0
130	0
132	0
133	0
134	0
135	0
136	0
137	0
138	0
139	0
140	0
141	0
142	0
143	0
145	2
146	0
147	0
148	0
149	0
150	1
151	1
152	1
153	0
154	1
155	0
157	0
158	0
159	0
160	0
161	0
163	0
164	0
165	0
166	0
167	10
168	1
169	0
170	0
171	0
172	0
173	0
175	0
178	0
179	0
180	1
181	2
182	0
183	1
184	0
185	0
190	0
194	0
195	0
196	7
197	1
198	1
199	0
207	0
208	10
209	1
210	0
211	0
212	0
224	1
226	428
227	50
228	6
229	0
