Mass Spectrum: 2-Pyrazolin-5-ol, 5-(4-bromophenyl)-3-trifluoromethyl-1-(3-methylbenzoyl)-
Formula: C18H14BrF3N2O2
CAS: 294877-08-0
Molecular weight: 426
m/z	intensity
39	4
41	0
50	6
51	5
52	0
62	3
63	12
64	8
65	57
66	0
69	5
74	4
75	15
76	17
77	7
78	0
86	0
87	0
89	43
91	271
92	11
95	1
100	0
102	15
103	10
104	6
105	1
114	0
116	4
119	999
120	54
122	0
123	0
131	9
132	3
133	6
134	0
135	1
151	12
152	6
153	0
155	37
157	38
158	1
179	0
180	0
181	3
183	49
185	46
186	2
198	0
200	1
211	0
225	1
226	2
227	1
228	0
243	1
290	0
292	1
294	0
307	0
357	11
358	2
359	12
360	1
376	0
408	24
409	6
410	23
411	3
426	58
427	13
428	53
429	8
