Mass Spectrum: Benzaldehyde (4-amino-1,2,5-oxadiazol-3-yl)hydrazone
Formula: C9H9N5O
CAS: 294852-42-9
Molecular weight: 203
m/z	intensity
12	1
13	2
16	3
26	10
27	45
28	195
29	16
30	172
31	2
37	13
38	35
39	100
40	19
41	33
42	121
43	270
44	11
49	12
50	163
51	438
52	68
53	108
54	72
55	18
56	3
57	10
58	15
60	2
61	13
62	49
63	123
64	58
65	142
66	23
67	12
68	51
69	32
70	127
71	6
72	6
73	11
74	47
75	57
76	139
77	999
78	155
79	79
80	9
84	3
86	10
87	10
89	206
90	152
91	101
92	116
93	53
94	6
95	4
97	8
98	12
99	6
100	13
101	3
102	32
103	137
104	854
105	255
106	88
107	65
108	4
114	5
115	17
116	21
117	52
118	57
119	358
120	49
121	3
126	1
128	19
129	36
130	23
131	90
132	17
143	20
144	28
145	40
146	547
147	61
148	3
156	33
157	38
158	24
159	6
161	1
168	1
171	9
172	4
173	71
174	10
186	19
187	3
203	712
204	84
205	7
