Mass Spectrum: Androst-5-ene,1-acetoxy-16,17-dimethyl-20-oxo-
Formula: C25H38O3
CAS: 294866-91-4
Molecular weight: 386
m/z	intensity
33	1
34	1
36	3
38	1
39	25
40	29
41	172
43	999
44	27
45	17
51	4
53	44
55	155
56	10
57	35
58	3
59	9
60	6
61	3
63	1
65	23
66	8
67	112
68	12
69	74
70	6
71	7
72	2
77	64
78	17
79	112
80	16
81	197
82	15
83	44
84	4
85	11
86	1
89	1
91	165
92	31
93	100
94	18
95	62
96	9
97	38
99	244
100	15
101	0
103	12
104	11
105	140
106	29
107	87
108	58
109	78
110	9
111	12
112	25
113	40
114	5
115	21
116	11
117	50
118	22
119	69
120	61
121	74
122	29
123	45
124	5
125	8
126	1
127	9
128	19
129	32
130	16
131	52
132	18
133	58
134	17
135	27
136	5
137	13
138	0
139	1
141	18
142	14
143	65
144	27
145	92
146	28
147	43
148	14
149	13
150	2
151	4
152	1
153	3
154	2
155	8
156	7
157	35
158	89
159	59
160	15
161	26
162	4
163	15
164	1
165	3
166	0
167	1
168	1
169	7
170	4
171	18
172	8
173	17
174	6
175	12
176	2
177	5
178	1
179	1
181	3
182	1
183	12
184	3
185	13
186	6
187	8
188	1
189	5
191	1
195	2
197	8
198	3
199	20
200	6
201	5
202	0
203	2
204	1
205	6
206	1
209	6
210	1
211	6
212	5
213	116
214	29
215	5
217	1
218	1
223	0
224	0
225	2
226	3
227	5
228	45
229	10
230	1
237	1
239	3
240	1
241	1
242	1
252	1
253	2
254	5
255	1
265	0
266	0
267	3
268	1
283	18
284	4
285	0
293	3
294	0
311	6
312	3
326	57
327	13
328	1
