Mass Spectrum: Tetrazolo[1,5-a]furazano[3,4-E]piperazine, 4-(3-chlorophenyl)-
Formula: C10H5ClN8O
CAS: 294878-40-3
Molecular weight: 288
m/z	intensity
33	5
34	5
35	14
36	50
37	45
38	119
39	113
40	107
41	31
42	17
43	31
44	51
45	11
47	8
49	32
50	190
51	138
52	84
53	169
54	10
55	8
56	6
57	9
58	6
60	10
61	42
62	66
63	146
64	88
65	38
66	13
67	19
68	27
69	8
70	3
72	20
73	100
74	115
75	564
76	133
77	59
78	132
79	14
80	2
81	3
82	4
83	5
84	17
85	56
86	17
87	31
88	27
89	24
90	79
91	51
92	9
93	15
94	1
95	4
97	14
99	142
100	26
101	50
102	63
103	9
104	2
105	4
108	2
109	16
111	999
112	84
113	294
114	29
115	24
116	22
117	24
118	5
119	1
121	1
123	24
124	25
125	72
126	39
127	44
128	14
129	10
130	2
131	2
132	0
134	0
136	47
137	54
138	60
139	22
140	18
141	5
142	18
143	63
144	7
145	1
146	0
148	2
149	4
150	9
151	39
152	185
153	34
154	63
155	7
156	2
157	2
158	0
159	4
161	7
163	453
164	49
165	137
166	13
167	12
168	41
169	9
170	0
171	1
176	12
177	43
178	192
179	41
180	59
181	11
182	1
188	42
189	8
190	28
191	4
192	7
195	226
196	26
197	3
199	0
203	82
204	12
205	26
206	3
207	1
215	0
216	0
219	2
220	1
225	11
226	1
227	4
228	3
230	146
231	22
232	47
233	6
259	3
260	10
261	9
262	33
263	7
264	10
265	1
281	0
282	2
284	0
285	1
288	429
289	59
290	125
291	17
292	0
