Mass Spectrum: Propionamide, N-(3-chlorophenyl)-3-[4-(2-hydroxyethyl)-piperazin-1-yl]-
Formula: C15H22ClN3O2
CAS: 294874-88-7
Molecular weight: 311
m/z	intensity
29	78
30	78
31	22
32	31
33	0
36	1
38	0
39	2
40	3
41	60
42	999
43	150
44	185
45	127
46	5
47	0
51	0
53	0
54	38
55	227
56	459
57	208
58	187
59	6
60	4
61	6
62	0
63	1
64	1
65	5
66	0
67	9
68	35
69	59
70	374
71	66
72	91
73	74
74	147
75	11
76	6
77	6
78	1
79	1
80	5
81	8
82	62
83	73
84	291
85	72
86	59
87	16
88	63
89	3
90	4
91	8
92	6
93	6
94	9
95	14
96	32
97	141
98	208
99	165
100	177
101	55
102	15
103	1
104	3
105	5
106	5
107	4
108	2
109	10
110	43
111	767
112	118
113	75
114	8
115	13
116	3
117	4
118	9
119	14
120	2
121	1
122	3
123	6
124	22
125	128
126	68
127	341
128	71
129	94
130	11
131	1
132	1
133	2
134	0
135	2
136	2
137	3
138	26
139	35
140	80
141	108
142	38
143	185
144	15
145	1
146	3
147	10
148	3
150	0
151	2
152	10
153	111
154	59
155	8
156	18
157	63
158	7
159	0
160	0
161	2
162	1
164	1
165	1
166	3
167	14
168	5
169	6
170	0
171	1
176	0
178	0
179	0
180	4
181	15
182	32
183	13
184	10
185	2
187	0
189	1
190	0
191	0
192	0
193	0
194	7
195	0
196	3
197	1
198	0
199	0
203	0
207	0
208	1
209	1
210	4
211	51
212	7
213	19
214	1
217	0
219	0
222	0
223	6
224	22
225	62
226	14
227	24
228	2
229	0
235	0
236	1
237	56
238	34
239	29
240	10
241	3
244	0
245	0
246	0
247	0
248	0
249	0
250	5
251	3
252	9
253	2
254	2
259	0
260	0
263	0
264	0
265	16
266	5
267	8
268	1
269	1
270	0
277	1
278	22
279	18
280	626
281	166
282	157
283	43
284	6
285	0
290	0
292	2
293	162
294	45
295	60
296	14
297	0
298	0
308	4
309	2
310	6
311	38
312	32
313	12
314	6
