Mass Spectrum: Benzaldehyde, 4-acetylamino-, (2,3,5,6-tetrafluoro-4-trifluoromethylphenyl)hydrazone
Formula: C16H10F7N3O
CAS: 294876-36-1
Molecular weight: 393
m/z	intensity
33	1
34	1
35	0
36	3
37	8
38	30
39	79
40	26
41	43
43	999
44	22
45	8
46	4
50	40
51	77
52	49
53	16
54	7
55	4
56	1
57	2
58	0
59	0
60	1
61	5
62	26
63	120
64	182
65	290
66	29
67	5
69	34
70	4
71	1
73	1
74	9
75	19
76	34
77	72
78	45
79	18
80	16
81	4
82	1
83	1
84	0
86	3
87	2
88	5
89	19
90	110
91	260
92	577
93	393
94	35
95	2
96	1
97	1
98	4
99	6
100	2
101	2
102	15
103	14
104	64
105	35
106	27
107	11
108	2
109	0
110	1
111	2
112	2
113	2
114	1
116	13
117	63
118	217
119	756
120	78
121	4
122	1
123	1
124	6
125	1
126	0
129	3
130	1
131	6
132	7
133	20
134	38
135	9
136	13
137	7
138	0
142	0
143	4
144	7
145	11
146	2
147	1
148	6
149	2
150	1
151	0
152	0
153	0
155	36
156	2
157	0
159	29
160	42
161	35
162	11
163	3
164	1
165	1
166	2
167	5
168	4
169	0
171	1
174	0
175	2
176	1
179	2
180	0
181	3
182	5
183	14
184	1
186	11
187	4
188	0
189	1
193	1
194	1
195	0
196	0
197	0
198	1
199	4
200	0
202	0
203	1
205	37
206	3
207	0
211	0
212	2
214	47
215	4
217	12
218	2
224	1
225	0
226	0
227	0
229	0
230	0
231	4
232	8
233	18
234	2
235	0
236	0
239	0
244	1
245	0
248	1
252	0
253	1
254	2
255	1
256	1
258	1
261	0
262	0
263	0
264	0
276	1
277	0
280	0
281	0
282	1
283	1
284	0
295	0
296	1
301	0
302	1
303	3
304	3
305	1
309	0
310	1
311	0
322	0
323	2
324	2
329	1
330	5
331	2
332	1
333	1
334	1
335	0
336	0
344	0
346	3
347	3
350	66
351	211
352	33
353	3
371	0
374	22
375	4
376	0
377	1
378	0
386	0
387	1
388	3
389	2
393	243
394	38
395	3
