Mass Spectrum: 1,2,4-Triazole-5-sulfonamide, N-(3-fluorophenyl)-
Formula: C8H7FN4O2S
CAS: 294876-52-1
Molecular weight: 242
m/z	intensity
33	26
34	1
35	4
36	21
37	15
38	64
39	115
40	72
41	82
42	160
43	49
44	18
45	17
46	21
47	2
48	50
49	10
50	22
51	27
52	39
53	22
54	7
55	14
56	28
57	311
58	19
59	9
60	4
61	18
62	47
63	113
64	79
65	42
66	6
67	8
68	19
69	94
70	49
71	13
72	4
73	2
74	7
75	39
76	17
77	15
78	7
79	6
80	8
81	68
82	132
83	999
84	108
85	12
86	1
87	2
88	9
89	49
90	41
91	18
92	7
93	4
94	12
95	69
96	23
97	19
98	11
99	4
100	1
101	2
102	10
103	7
104	17
105	6
106	4
107	6
108	33
109	168
110	541
111	174
112	14
113	1
114	1
115	2
116	10
117	17
118	4
119	3
120	2
121	6
122	66
123	26
124	16
125	12
126	7
127	3
128	3
129	11
130	20
131	13
132	47
133	5
134	3
136	121
137	35
138	192
139	16
140	8
141	5
142	2
143	0
144	0
145	0
146	4
147	1
148	1
149	53
150	35
151	179
152	33
153	2
154	1
155	0
156	3
157	6
158	53
159	26
160	4
161	0
162	0
163	14
164	4
165	1
166	0
167	0
168	0
169	0
171	1
172	0
173	1
175	1
176	3
177	331
178	254
179	28
180	1
181	0
182	3
187	0
193	0
195	2
196	1
216	0
218	0
229	0
230	1
231	1
232	0
236	0
238	2
239	0
240	2
241	8
242	573
243	63
244	31
245	1
250	0
