Mass Spectrum: Succinic acid, (4-methoxyphenyl) ester
Formula: C11H12O5
CAS: 29493-06-9
Molecular weight: 224
m/z	intensity
34	9
35	19
37	41
38	64
39	105
40	146
41	159
42	152
43	132
44	138
45	999
47	23
50	40
51	62
52	84
53	184
55	848
56	246
57	48
60	20
61	13
62	31
63	61
64	36
65	66
67	28
69	21
70	15
72	116
73	379
74	404
77	24
79	18
81	213
82	23
83	13
84	9
92	31
93	13
95	53
100	212
101	102
106	14
109	474
110	32
124	965
125	53
224	16
