Mass Spectrum: Benzene, 1,1'-[1,2-bis(2,2-dimethylpropyl)-1,2-ethanediyl]bis-
Formula: C24H34
CAS: 29492-96-4
Molecular weight: 322
m/z	intensity
26	6
27	18
28	17
29	93
30	2
32	1
35	0
36	0
37	0
38	0
39	22
40	3
41	136
42	6
43	38
44	3
45	0
49	0
50	4
51	13
52	4
53	6
54	0
55	13
56	5
57	999
58	43
59	0
62	0
63	4
64	1
65	34
66	2
67	3
69	6
70	2
71	10
72	0
73	0
74	1
75	1
76	3
77	29
78	30
79	15
80	1
81	1
82	0
83	2
84	0
85	0
87	0
88	0
89	6
90	2
91	456
92	74
93	4
94	0
95	1
96	0
97	1
98	0
99	0
100	0
101	0
102	5
103	32
104	122
105	330
106	38
107	3
109	0
110	0
111	0
112	0
113	0
114	0
115	21
116	8
117	118
118	14
119	14
120	1
121	0
123	0
126	0
127	2
128	7
129	6
130	3
131	21
132	3
133	3
134	0
139	0
140	0
141	1
142	0
143	1
144	0
145	17
146	2
147	4
148	0
149	1
151	0
152	3
153	1
154	0
157	0
159	1
160	119
161	132
162	84
163	10
164	1
165	7
166	3
167	8
168	1
169	0
173	1
174	0
175	5
176	1
177	1
178	7
179	6
180	2
181	5
182	0
183	0
188	1
189	1
190	0
191	1
192	0
193	3
194	2
195	13
196	2
197	0
199	0
200	0
201	0
202	0
203	0
207	0
208	0
209	1
210	1
223	0
229	2
237	0
249	0
251	2
252	0
266	82
267	18
268	1
322	0
