Mass Spectrum: 2,3,4-Trimethyllevoglucosan
Formula: C9H16O5
CAS: 2951-86-2
Molecular weight: 204
m/z	intensity
14	1
15	17
19	1
26	3
27	30
28	10
29	80
30	6
31	29
32	1
33	16
37	1
38	3
39	37
40	10
41	103
42	51
43	68
44	18
45	325
46	7
47	20
50	3
51	7
52	4
53	35
54	12
55	54
56	24
57	36
58	45
59	76
60	4
61	13
62	1
63	1
65	4
66	2
67	9
68	13
69	39
70	24
71	158
72	15
73	411
74	38
75	130
76	4
77	2
79	1
80	1
81	14
82	6
83	11
84	16
85	63
86	6
87	41
88	999
89	54
90	6
94	11
95	29
96	6
97	13
98	8
99	15
101	862
102	51
103	66
104	3
105	1
111	13
112	7
113	14
114	7
115	15
116	9
117	6
118	1
125	1
126	3
127	68
128	7
129	15
130	1
131	4
133	1
141	2
143	32
144	24
145	6
146	1
157	1
158	4
159	38
160	3
161	1
172	1
173	1
175	1
189	1
