Mass Spectrum: 1-Butene, 1-methoxy-
Formula: C5H10O
CAS: 29512-02-5
Molecular weight: 86
m/z	intensity
26	28
27	126
29	106
31	44
38	20
39	130
41	480
42	36
43	48
45	76
50	16
51	20
53	78
54	32
55	134
56	46
69	18
71	999
72	48
85	90
86	520
87	30
