Mass Spectrum: Cyclooctyl 4-(2-bromo-4,5-methylenedioxyphenyl)-3,4-dihydro-6-methyl-2(1H)-oxopyrimidine-5-carboxylate
Formula: C21H25BrN2O5
CAS: 295344-36-4
Molecular weight: 464
m/z	intensity
34	18
36	39
37	31
39	475
40	411
41	999
42	564
43	260
44	206
45	7
49	10
50	39
51	60
52	66
53	149
54	159
55	465
56	64
57	82
58	6
60	8
61	20
62	88
63	75
64	41
65	51
66	65
67	235
68	105
69	401
70	54
71	11
73	13
74	20
75	19
76	31
77	48
78	22
79	47
80	58
81	68
82	75
83	30
84	20
85	16
86	10
87	31
88	19
89	31
90	20
91	24
93	8
94	32
95	19
96	24
97	8
98	9
100	6
101	14
102	20
103	16
105	5
106	6
107	12
109	25
110	86
111	26
112	11
113	7
114	12
115	18
116	19
117	17
118	16
119	15
120	9
121	7
122	7
126	7
127	12
128	22
129	26
130	22
131	14
133	20
135	14
136	12
137	87
138	8
141	11
143	37
144	13
145	18
146	22
147	9
148	6
152	6
153	29
155	566
156	31
157	9
158	10
159	10
160	11
161	13
162	9
168	8
169	10
170	8
171	36
172	17
173	30
174	32
175	9
185	9
186	22
187	34
188	16
189	9
191	5
198	10
199	35
200	61
202	50
203	7
212	4
213	6
214	21
215	33
216	12
217	18
218	9
225	8
227	28
228	27
229	56
230	31
232	211
233	18
253	8
254	26
255	9
256	45
257	30
258	18
259	9
260	13
261	77
262	6
264	4
265	14
266	5
271	4
273	106
275	637
276	65
277	7
308	14
309	41
311	47
337	15
339	9
352	9
353	60
354	14
355	49
356	6
385	27
386	5
