Mass Spectrum: N-[2-(2-Chloro-phenoxy)-ethyl]-c-phenyl-methanesulfonamide
Formula: C15H16ClNO3S
CAS: 295361-01-2
Molecular weight: 325
m/z	intensity
34	0
35	0
36	2
37	0
38	4
39	19
40	4
41	7
42	13
43	7
44	12
45	0
46	0
47	0
48	2
49	0
50	6
51	11
52	3
53	1
54	0
55	0
56	0
57	0
58	0
60	1
61	1
62	4
63	23
64	17
65	70
66	4
67	0
69	0
70	0
71	0
72	0
73	7
74	3
75	23
76	5
77	22
78	5
79	4
80	1
81	0
82	0
84	0
85	2
86	0
87	1
89	19
91	999
92	79
94	7
95	0
97	0
99	13
100	1
101	4
102	0
103	1
104	5
105	22
106	9
107	3
108	1
109	0
111	38
112	4
113	22
114	2
115	3
116	0
117	0
118	2
120	112
121	9
122	0
123	0
124	0
125	2
126	0
127	4
128	27
129	3
130	8
131	0
132	5
133	4
134	76
135	28
136	7
137	0
138	0
139	1
140	9
141	16
142	5
143	5
144	0
147	0
148	0
151	0
152	0
153	0
154	9
155	2
156	2
157	1
165	1
166	0
167	0
168	0
169	1
170	2
171	1
172	0
179	0
180	0
181	1
182	1
183	2
184	1
185	1
195	0
196	0
198	115
199	12
200	5
201	0
210	0
217	0
218	0
219	0
224	0
225	1
226	9
227	1
228	2
233	0
260	0
261	0
322	0
323	0
325	53
326	9
327	19
328	3
329	0
