Mass Spectrum: Pyrimidine-5-carboxylic acid, 1,2,3,4-tetrahydro-4-(3-iodophenyl)-6-methyl-, benzyl ester
Formula: C19H17IN2O3
CAS: 295344-58-0
Molecular weight: 448
m/z	intensity
38	10
39	66
40	14
41	32
42	153
43	26
44	11
50	72
51	75
52	40
53	11
54	10
59	4
62	10
63	35
64	15
65	162
66	36
67	19
68	13
69	3
74	35
75	33
76	108
77	125
78	38
79	35
82	16
83	1
87	2
88	3
89	59
90	44
91	999
92	84
94	5
96	6
101	18
102	24
103	19
104	13
105	34
106	2
107	10
109	5
110	33
111	7
114	3
115	34
116	22
117	11
127	35
128	16
129	3
130	23
131	9
132	3
137	15
140	3
141	8
142	14
143	23
144	8
145	2
155	15
157	6
165	9
168	3
169	15
170	4
171	5
184	9
185	35
186	44
187	6
203	18
212	2
229	1
230	19
231	17
232	5
245	232
246	31
247	2
257	4
258	7
270	2
275	2
298	6
311	6
313	78
314	12
341	8
357	242
358	41
448	26
449	3
