Mass Spectrum: Cycloheptyl 4-(3,4-dichlorophenyl)-3,4-dihydro-6-methyl-2(1H)-oxopyrimidine-5-carboxylate
Formula: C19H22Cl2N2O3
CAS: 295344-39-7
Molecular weight: 396
m/z	intensity
34	30
36	118
38	145
39	346
40	357
41	664
42	724
43	225
44	218
45	20
46	7
48	8
49	8
50	34
51	52
52	68
53	127
55	999
57	60
58	9
60	14
61	8
62	10
63	20
64	14
65	33
66	76
67	175
68	84
69	69
70	43
71	23
72	14
73	62
74	31
75	39
76	16
77	41
79	37
80	19
81	51
82	28
83	22
84	30
85	16
86	9
87	8
89	9
91	13
92	9
93	11
94	38
95	26
96	45
97	50
98	9
99	17
100	8
101	12
102	12
103	12
104	9
105	7
107	6
109	68
110	104
111	27
112	18
113	14
114	9
115	22
116	6
119	6
123	9
125	9
126	9
127	7
128	7
129	6
130	8
131	9
132	9
134	7
135	18
136	36
137	80
138	18
139	9
140	9
141	6
142	6
143	6
144	8
145	25
147	21
148	8
149	16
150	10
151	11
152	18
155	940
156	37
157	9
161	7
162	6
169	7
170	18
171	25
172	25
173	19
174	15
175	10
176	10
177	15
184	9
185	23
186	13
187	22
197	7
198	8
199	38
200	38
201	18
202	18
203	9
212	16
213	7
214	9
215	7
219	8
220	18
221	7
222	6
229	8
231	71
232	10
240	18
241	8
242	8
249	8
250	20
251	96
252	19
253	23
254	31
255	92
256	30
257	56
258	11
259	9
264	7
265	25
266	6
267	7
275	13
283	28
285	24
296	7
297	25
299	339
300	97
301	178
302	39
303	30
396	8
