Mass Spectrum: Thiophene-3-carboxylic acid, 4,5-dimethyl-2-(2,5-dioxo-3-pyrrolin-1-yl)-, ethyl ester
Formula: C13H13NO4S
CAS: 295347-54-5
Molecular weight: 279
m/z	intensity
33	4
34	3
35	0
37	11
38	31
39	142
40	24
41	33
43	182
45	125
47	23
49	3
50	15
51	37
52	39
53	232
54	999
55	65
57	18
58	94
59	462
61	56
62	9
63	29
64	51
65	93
66	115
67	27
68	10
69	34
70	73
71	31
72	7
73	3
74	2
75	6
76	14
77	14
78	21
79	16
80	49
82	821
83	54
84	21
85	20
86	31
87	7
88	4
89	12
90	27
91	20
92	24
93	16
94	27
95	15
96	34
97	93
98	23
99	30
100	2
101	1
103	11
104	5
105	2
106	7
107	4
108	15
109	31
110	29
111	8
112	9
113	3
114	3
115	2
116	12
117	28
118	8
119	6
120	6
121	6
122	34
123	40
124	49
125	31
126	15
127	6
128	3
129	0
130	0
131	0
132	1
133	5
134	10
135	9
136	27
137	19
138	15
139	6
140	11
141	2
142	1
143	0
144	4
145	3
146	7
147	2
148	8
149	17
150	24
151	38
152	58
153	142
154	27
155	10
156	1
157	0
159	0
160	6
161	2
162	14
163	5
164	11
165	3
166	6
167	2
168	5
169	4
170	2
171	1
172	2
173	3
174	3
176	14
177	225
178	110
179	35
180	47
181	6
182	4
183	0
184	0
188	1
189	1
190	3
191	1
192	8
193	2
194	3
195	6
196	5
197	4
198	3
199	45
200	6
201	2
202	1
205	329
206	152
207	56
208	12
209	2
210	0
216	0
217	0
218	1
219	0
220	1
221	0
222	2
223	0
224	0
225	1
226	0
227	0
229	0
230	1
233	750
234	255
235	68
236	17
237	2
238	0
241	32
242	4
243	1
246	0
248	0
249	0
250	4
251	5
252	0
253	0
264	0
265	0
276	0
277	1
279	377
280	57
281	25
282	3
283	0
