Mass Spectrum: 4-Chlorobutyl 4-(2,5-dimethoxyphenyl)-3,4-dihydro-6-methyl-2(1H)-oxopyrimidine-5-carboxylate
Formula: C18H23ClN2O5
CAS: 295344-37-5
Molecular weight: 382
m/z	intensity
34	28
35	78
36	238
38	225
39	505
40	418
41	546
42	990
43	281
44	450
49	99
50	92
51	156
52	126
53	224
55	999
56	64
57	53
62	59
63	204
64	98
65	134
66	93
67	112
68	76
69	52
70	62
71	41
73	221
74	28
75	51
76	104
77	293
78	73
79	105
80	48
81	31
82	77
84	47
89	61
91	252
92	130
93	75
94	90
95	53
96	62
102	54
103	38
104	29
105	47
106	33
107	96
108	38
109	59
110	155
111	62
116	46
117	33
118	45
119	59
120	34
121	56
123	165
133	41
134	50
135	33
137	337
138	372
139	38
146	34
147	49
148	31
149	41
154	50
155	353
161	51
172	36
173	38
174	44
175	33
176	34
189	31
192	60
201	42
213	38
215	100
217	160
218	29
228	269
229	40
231	60
232	68
243	256
244	79
245	242
247	397
248	41
258	94
259	53
273	126
274	144
275	54
291	432
292	26
349	47
350	31
351	80
381	28
382	117
384	30
