Mass Spectrum: Thieno[2,3-b]pyridin-3-amine, 4-trifluoromethyl-2-(4-methylbenzoyl)-6-(2-thienyl)-
Formula: C20H13F3N2OS2
CAS: 295345-21-0
Molecular weight: 418
m/z	intensity
33	14
34	4
38	5
39	106
40	69
41	37
42	3
43	5
45	132
47	8
50	13
51	36
52	11
53	8
55	6
57	13
58	16
59	2
60	4
62	10
63	57
65	366
66	20
69	52
70	12
71	11
72	8
74	5
75	14
76	13
77	26
78	8
79	4
81	8
82	11
83	7
84	12
85	3
86	2
87	9
88	6
89	76
91	999
92	67
93	14
94	10
95	10
96	8
97	4
99	4
100	7
101	6
102	7
103	9
104	7
105	13
106	7
107	6
108	27
109	10
110	7
111	3
112	5
113	4
114	16
115	8
116	2
117	6
119	406
120	46
121	11
122	6
123	5
124	3
125	4
126	7
127	11
128	3
129	3
130	3
131	4
132	17
133	8
134	13
135	15
136	3
137	11
138	3
139	11
140	5
141	3
142	6
143	3
144	6
145	11
146	8
147	5
148	2
149	3
150	9
151	7
152	6
153	3
154	2
156	2
157	7
158	13
159	11
160	6
161	3
162	3
163	7
164	8
165	3
168	3
169	7
170	14
171	12
172	4
174	3
175	4
176	8
177	9
178	5
181	3
182	4
183	4
184	7
185	16
186	4
187	2
188	14
189	10
190	6
191	20
194	4
195	12
196	5
197	6
198	10
199	4
201	15
202	19
203	24
204	4
205	3
207	3
208	24
209	16
210	5
211	2
213	4
214	4
215	12
216	4
217	13
218	4
219	2
221	3
222	5
223	4
226	3
227	6
228	8
229	5
230	3
233	8
234	5
235	7
239	2
240	4
241	2
245	3
246	4
247	2
251	2
252	3
253	4
254	5
255	14
256	2
259	6
260	4
265	2
266	3
271	3
272	65
273	10
274	7
279	3
297	5
298	6
299	29
300	6
301	3
305	2
307	5
317	3
319	3
326	2
327	16
328	4
329	3
334	2
335	2
336	2
339	2
348	2
349	8
350	5
353	17
354	6
355	4
369	3
381	4
383	13
384	3
397	99
398	23
399	20
400	4
401	3
403	25
404	6
405	3
417	407
418	357
419	112
420	45
421	8
