Mass Spectrum: Pyrimidine-5-carboxylic acid, 1,2,3,4-tetrahydro-6-methyl-4-(4-methylphenyl)-2-oxo-, benzyl ester
Formula: C20H20N2O3
CAS: 295344-59-1
Molecular weight: 336
m/z	intensity
38	6
39	44
40	14
41	26
42	100
43	13
44	24
45	8
46	2
50	22
51	46
52	28
53	7
54	7
55	5
56	1
57	1
61	1
62	7
63	38
64	14
65	207
66	19
67	16
68	11
69	5
70	1
71	1
73	9
74	4
75	6
76	6
77	85
78	22
79	24
80	1
81	5
82	9
83	3
84	5
85	1
86	4
87	1
88	1
89	74
90	44
91	999
92	87
93	7
94	0
96	2
97	0
101	1
102	7
103	13
104	6
105	34
106	3
107	6
108	6
109	2
110	35
111	8
112	0
113	3
115	91
116	30
117	18
118	25
119	14
120	4
127	9
128	20
129	29
130	33
131	23
132	10
133	2
137	13
138	3
139	2
140	7
141	12
142	19
143	35
144	12
145	19
146	26
147	2
152	1
153	8
154	7
155	13
156	29
157	31
158	33
159	6
160	4
161	1
162	0
165	3
166	4
167	3
168	2
169	7
170	2
171	11
172	5
174	2
178	2
181	1
182	2
183	7
184	10
185	32
186	24
187	10
188	0
191	3
192	1
197	1
198	4
199	79
200	20
201	295
202	50
203	6
210	1
212	0
213	2
214	1
215	1
217	0
218	0
227	29
228	5
229	14
230	2
231	1
243	4
245	958
246	143
247	19
248	2
291	1
292	3
307	0
321	4
335	10
336	40
337	7
