Mass Spectrum: Phenol, o-(2-butenylthio)-
Formula: C10H12OS
CAS: 29549-68-6
Molecular weight: 180
m/z	intensity
39	277
40	34
41	35
44	38
45	148
46	10
47	13
49	11
50	57
51	76
52	37
53	222
54	54
55	999
56	46
57	9
58	20
59	11
60	4
61	11
62	23
63	65
64	27
65	60
66	42
67	8
69	93
70	56
71	48
72	6
74	8
75	5
76	26
77	16
78	10
79	9
81	11
82	16
84	32
85	11
91	13
92	13
93	10
94	53
95	37
96	53
97	348
98	97
99	20
100	7
105	6
107	6
108	13
109	7
110	6
111	6
125	71
126	490
127	40
128	28
132	8
137	11
139	5
151	9
180	270
181	31
182	14
