Mass Spectrum: 2-Propen-1-one, 1-[hexahydro-1,3-dimethyl-5-(2,6-xylyl)-5-pyrimidinyl]-2-phenyl-
Formula: C23H28N2O
CAS: 29549-15-3
Molecular weight: 348
m/z	intensity
26	7
27	22
28	30
29	18
30	21
31	5
34	5
36	9
37	4
38	7
39	27
40	11
41	41
42	168
43	162
44	134
45	9
48	3
49	1
50	5
51	21
52	5
53	14
54	4
55	32
56	22
57	113
58	999
59	47
60	6
61	2
62	3
63	9
64	3
65	22
66	8
67	17
68	9
69	22
70	19
71	38
72	10
73	6
74	11
75	5
76	10
77	70
78	24
79	20
80	5
81	14
82	11
83	21
84	12
85	27
86	7
87	3
88	2
89	16
90	8
91	202
92	21
93	11
94	5
95	11
96	7
97	22
98	10
99	20
100	2
101	9
102	21
103	151
104	162
105	86
106	26
107	5
108	7
109	10
110	8
111	19
112	9
113	12
114	6
115	140
116	97
117	87
118	37
119	34
120	9
121	5
122	10
123	10
124	3
125	9
126	6
127	21
128	44
129	78
130	56
131	226
132	78
133	126
134	20
135	5
136	2
137	4
138	3
139	5
140	3
141	15
142	37
143	35
144	91
145	31
146	101
147	45
148	12
149	31
150	7
151	5
152	6
153	8
154	5
155	10
156	75
157	38
158	68
159	35
160	71
161	13
162	4
163	7
164	1
165	9
166	2
167	8
168	5
169	13
170	11
171	22
172	17
173	150
174	60
175	15
176	3
177	2
178	6
179	5
180	3
181	3
182	5
183	5
184	34
185	31
186	39
187	75
188	58
189	22
190	4
191	9
192	7
193	5
194	2
195	2
196	2
197	3
198	5
199	3
200	7
201	20
202	20
203	13
204	12
205	23
206	14
207	5
208	3
209	2
210	6
211	3
212	5
213	3
214	7
215	16
216	12
217	13
218	14
219	33
220	12
221	7
222	2
223	4
224	2
225	2
226	3
227	5
228	9
229	35
230	13
231	17
232	10
233	13
234	14
235	15
236	5
237	1
241	3
242	2
243	4
244	31
245	105
246	28
247	324
248	73
249	25
250	44
251	11
252	3
253	4
254	2
255	5
256	1
257	9
258	7
259	6
260	6
261	13
262	79
263	17
264	37
265	9
266	2
267	10
268	2
269	5
270	3
271	6
272	21
273	8
274	25
275	8
276	8
277	2
278	2
279	2
280	1
281	1
282	2
283	1
284	1
285	1
286	3
287	2
288	11
289	12
290	137
291	39
292	10
293	19
294	6
295	2
296	1
297	1
298	1
299	2
300	2
301	1
302	10
303	7
304	37
305	235
306	56
307	57
308	11
309	2
310	0
314	1
315	8
316	2
317	2
318	2
331	8
332	2
333	9
334	3
347	53
348	88
349	37
350	8
351	1
