Mass Spectrum: 4-Tolyl trifluoromethanesulfonate
Formula: C8H7F3O3S
CAS: 29540-83-8
Molecular weight: 240
m/z	intensity
39	109
50	60
51	119
52	79
53	80
69	168
77	200
79	161
91	81
107	999
108	120
175	60
240	268
