Mass Spectrum: 2-Cyclopenten-1-ol, benzoate
Formula: C12H12O2
CAS: 29555-16-6
Molecular weight: 188
m/z	intensity
39	353
40	298
41	56
42	5
43	7
44	18
45	18
47	7
49	20
50	118
51	239
52	46
53	12
55	12
60	18
61	46
62	61
63	85
64	46
65	445
66	999
67	324
68	20
73	5
74	38
75	20
76	41
77	510
78	61
79	2
82	2
83	146
84	25
104	12
105	822
106	72
107	7
121	5
122	559
123	56
124	5
142	2
143	19
144	3
169	0
170	13
171	2
187	5
188	54
189	10
