Mass Spectrum: 2H-Azepin-2-one, hexahydro-3-(2-propenyl)-
Formula: C9H15NO
CAS: 29559-34-0
Molecular weight: 153
m/z	intensity
40	410
41	999
42	230
43	230
53	330
54	340
55	450
56	320
67	699
68	400
69	230
72	250
81	420
82	470
83	200
84	200
96	320
98	210
99	230
110	250
112	250
124	200
138	200
152	270
153	959
154	130
