Mass Spectrum: N-Ethoxycarbonyl-1H-azepine
Formula: C9H11NO2
CAS: 2955-79-5
Molecular weight: 165
m/z	intensity
51	40
55	49
56	19
57	59
63	49
64	59
65	599
66	130
67	50
77	59
78	88
79	39
80	49
91	69
92	999
93	170
94	40
106	49
119	200
120	39
137	99
165	418
166	50
