Mass Spectrum: 1,3-Cyclododecanedione, 2-octyl-
Formula: C20H36O2
CAS: 29550-15-0
Molecular weight: 308
m/z	intensity
41	929
42	260
43	569
53	90
54	90
55	999
56	150
57	220
58	90
67	240
68	110
69	450
70	180
71	180
80	50
81	250
82	80
83	300
84	220
85	70
93	90
94	60
95	180
96	110
97	220
98	360
99	60
100	40
107	60
109	70
110	140
111	140
112	120
121	110
125	80
126	40
135	120
136	50
138	70
153	60
154	70
155	90
178	120
181	140
195	40
196	320
209	70
211	40
234	110
238	50
252	60
265	40
290	40
308	80
