Mass Spectrum: Trihydroxycholanic acid, (3.alpha., 7.beta., 12.alpha.)-
Formula: C24H40O5
CAS: 2955-27-3
Molecular weight: 408
m/z	intensity
39	481
40	136
41	886
42	192
43	762
44	282
45	157
50	64
51	100
52	65
53	229
54	92
55	999
56	127
57	278
58	46
59	106
60	140
61	25
62	35
63	42
64	35
65	128
66	76
67	446
68	163
69	271
70	102
71	72
72	42
73	72
74	27
75	27
76	26
77	234
78	112
79	436
80	127
81	629
82	128
83	243
84	93
85	86
91	393
92	134
93	509
94	245
95	484
96	102
97	103
98	25
99	64
100	25
101	86
102	29
103	45
104	44
105	370
106	129
107	354
108	138
109	344
110	98
111	60
112	30
113	22
114	19
115	65
116	43
117	120
118	92
119	243
120	100
121	271
122	95
123	105
124	38
125	34
128	55
129	80
130	43
131	165
132	76
133	215
134	104
135	129
136	25
137	13
138	37
139	31
140	77
141	65
142	46
143	103
144	67
145	242
146	42
147	155
148	57
149	82
150	27
151	20
157	129
158	75
159	148
160	62
161	94
162	46
163	78
164	27
165	51
166	21
167	32
168	27
169	53
170	27
171	78
172	48
173	73
174	32
175	77
176	37
177	46
178	22
179	22
182	53
183	31
185	31
186	31
187	52
188	21
189	36
190	12
191	26
192	21
193	42
194	100
195	86
196	22
197	62
198	35
199	77
200	30
201	50
202	26
203	32
205	10
206	34
207	3
209	7
211	64
213	30
214	10
215	36
216	40
217	27
218	35
219	11
225	26
226	45
227	56
230	48
231	25
232	21
233	32
234	32
252	55
253	391
254	119
255	68
269	40
270	35
271	376
272	100
273	27
288	52
289	375
290	90
291	20
299	27
300	41
301	19
339	41
340	9
341	25
342	13
343	36
344	16
353	10
354	78
355	39
357	30
358	6
360	13
372	87
373	28
374	13
390	34
391	12
