Mass Spectrum: N-[5H-3,7-Dichlorodibenzo[b,f]azepine-10-yl]-N'-methylpipenzine
Formula: C19H19Cl2N3
CAS: 29560-42-7
Molecular weight: 359
m/z	intensity
41	21
42	361
43	350
44	54
45	2
49	0
50	4
51	7
52	4
53	0
54	16
55	9
56	63
57	29
58	103
59	4
61	2
62	5
63	12
64	1
65	1
67	1
68	5
70	999
71	105
72	47
73	4
74	3
75	8
76	4
77	3
80	1
81	3
82	9
83	10
84	9
85	14
86	3
87	5
88	3
89	12
90	1
93	1
95	6
96	2
97	21
98	17
99	41
100	5
101	2
102	2
103	0
106	3
107	3
108	0
109	2
110	0
111	6
112	1
113	11
114	4
115	2
116	1
117	2
122	0
123	6
124	3
125	4
126	5
127	2
133	1
134	0
135	0
136	1
137	2
138	2
139	2
140	4
141	1
142	0
144	0
147	0
149	3
150	6
151	10
152	5
153	0
159	0
160	0
161	5
162	6
163	10
164	4
165	1
174	1
175	2
176	5
177	24
178	19
179	2
180	10
181	0
186	3
187	2
188	18
189	12
190	19
191	4
192	0
197	3
198	5
199	2
200	1
201	1
202	2
203	4
204	5
205	2
206	0
211	1
212	9
213	29
214	18
215	12
216	6
217	4
218	3
219	2
223	0
224	13
225	16
226	6
227	4
228	2
229	0
230	0
231	0
232	0
233	15
234	2
235	5
236	0
237	2
238	11
239	7
240	8
241	3
242	8
243	0
244	2
247	4
248	115
250	104
251	15
252	21
253	17
254	13
255	6
256	6
257	0
259	1
260	10
261	22
262	7
263	9
264	3
265	5
266	4
267	6
268	3
269	2
272	1
273	1
274	16
275	7
276	17
277	27
278	8
279	13
280	3
281	3
282	1
283	0
286	3
287	10
288	9
289	25
290	7
291	16
292	6
293	2
294	0
300	2
301	17
302	10
303	20
304	9
305	6
306	1
313	0
314	0
315	6
316	2
317	4
318	1
319	1
323	0
324	4
325	0
326	0
329	35
330	9
331	25
332	6
333	3
334	0
344	2
346	2
348	0
357	1
358	36
359	405
360	114
361	278
362	51
363	126
364	12
365	1
