Mass Spectrum: O-Benzoylbenzohydroximidoyl chloride
Formula: C14H10ClNO2
CAS: 29577-09-1
Molecular weight: 259
m/z	intensity
50	40
51	90
76	50
77	870
89	40
103	90
105	999
106	80
224	40
259	20
