Mass Spectrum: L-Norvaline, methyl ester
Formula: C6H13NO2
CAS: 29582-96-5
Molecular weight: 131
m/z	intensity
26	20
27	170
28	390
29	170
30	999
31	50
32	10
33	110
38	10
39	80
40	10
41	120
42	120
43	130
44	80
54	20
55	60
56	60
57	10
59	10
60	30
70	20
72	810
73	40
74	10
88	100
89	10
131	10
