Mass Spectrum: 3-(7-Chloro-2-oxo-5-phenyl-2,3-dihydro-1H-1,4-benzodiazepin-3-yl)propionic acid
Formula: C18H15ClN2O3
CAS: 29580-47-0
Molecular weight: 342
m/z	intensity
17	1
18	1
27	5
28	47
29	7
30	4
36	2
38	1
39	6
41	105
42	6
43	4
44	4
50	4
51	23
52	4
53	2
54	5
55	11
56	36
57	11
62	3
63	9
64	3
65	2
66	3
69	2
73	3
74	3
75	6
76	6
77	109
78	9
82	2
83	9
84	999
85	220
86	11
87	2
88	2
89	5
90	9
91	3
97	1
98	3
99	7
100	2
101	3
102	2
103	1
104	1
105	129
106	10
107	1
110	2
111	3
113	2
114	1
115	3
116	1
117	1
124	30
125	6
126	27
127	4
128	6
137	1
138	2
139	9
140	6
141	2
145	1
146	1
149	1
150	4
151	8
152	9
153	4
154	33
155	4
156	9
157	1
163	1
164	3
165	3
166	19
167	19
168	4
177	3
178	3
179	4
180	92
181	9
182	30
183	3
186	1
193	1
194	3
195	29
196	9
197	1
201	11
202	8
203	6
204	3
205	2
206	1
207	2
208	9
209	2
213	3
214	23
215	5
216	8
217	2
219	1
222	1
223	1
224	2
227	1
229	8
230	323
231	368
232	159
233	121
234	18
235	2
237	2
239	1
240	1
241	3
242	5
243	13
244	4
245	4
246	1
257	8
258	169
259	643
260	153
261	215
262	32
263	3
265	1
267	1
268	1
269	1
270	1
276	1
278	2
279	1
280	1
281	1
295	1
296	2
297	1
298	2
324	1
325	2
326	2
342	100
343	29
344	35
345	9
346	1
