Mass Spectrum: 1-Methyldecahydronaphthalene
Formula: C11H20
CAS: 2958-75-0
Molecular weight: 152
m/z	intensity
36	3
37	3
38	11
39	500
40	91
41	999
42	160
43	96
44	3
45	3
47	3
48	8
49	3
50	16
51	60
52	40
53	260
54	255
55	619
56	80
57	48
58	3
59	3
61	8
62	3
63	16
65	76
66	108
67	867
68	370
69	315
70	31
71	8
72	3
75	3
76	3
77	100
78	28
79	135
80	51
81	671
82	669
83	320
84	28
85	8
86	3
89	3
90	3
91	56
92	8
93	40
94	40
95	763
96	375
97	60
98	3
99	3
102	3
103	3
104	3
105	8
106	3
108	16
109	220
110	128
111	51
112	3
114	3
115	3
116	3
117	3
118	3
120	3
121	3
122	3
123	56
124	48
135	3
136	3
137	303
138	31
139	3
151	8
152	695
153	83
154	3
