Mass Spectrum: 1,10-Diazacyclooctadecane
Formula: C16H34N2
CAS: 296-30-0
Molecular weight: 254
m/z	intensity
53	67
54	43
55	999
56	900
57	500
58	367
59	77
67	150
68	107
69	333
70	667
71	160
72	200
73	47
81	110
82	120
83	67
84	500
85	433
86	210
87	23
96	127
97	67
98	500
99	73
100	333
101	40
110	83
111	50
112	433
113	100
114	167
115	73
116	40
124	200
125	83
126	733
127	133
128	500
129	73
130	40
138	300
139	100
140	567
141	133
142	300
143	67
144	17
154	167
155	300
156	67
157	400
158	33
159	560
160	167
161	400
162	70
163	70
164	17
182	53
183	100
184	43
185	17
196	33
197	83
198	43
210	70
211	200
212	40
213	67
224	67
225	60
226	37
239	33
253	87
254	333
255	87
