Mass Spectrum: N-[Methylsulfonyl]benzenecarboxamidine
Formula: C8H10N2O2S
CAS: 29600-12-2
Molecular weight: 198
m/z	intensity
42	11
43	207
45	38
46	29
48	63
50	226
51	575
52	65
53	10
54	0
55	7
57	20
59	3
60	1
61	4
62	20
63	93
64	65
65	88
66	10
67	3
69	2
70	0
71	0
73	1
74	57
75	45
76	184
77	999
79	298
80	24
81	4
83	0
84	1
86	2
87	1
88	0
89	23
90	11
91	122
92	82
93	5
94	37
95	4
96	0
97	0
99	2
100	1
102	16
103	145
104	644
105	15
106	1
107	0
108	2
109	3
110	2
112	0
116	21
117	58
118	46
119	815
120	45
121	3
133	623
134	86
135	2
136	0
141	2
148	0
150	0
151	0
154	0
156	2
166	3
167	44
168	0
169	3
180	1
181	1
182	12
183	210
184	5
185	2
195	0
197	40
198	418
199	47
200	21
201	1
