Mass Spectrum: Hydrazine, N-(3-iodobenzoyl)-N'-(3-methylbenzoyl)-
Formula: C15H13IN2O2
CAS: 296242-66-5
Molecular weight: 380
m/z	intensity
37	0
38	2
39	10
40	3
41	2
42	0
43	0
44	1
45	0
48	0
50	26
51	8
52	2
53	1
54	0
55	0
57	0
59	0
62	6
63	11
65	49
66	2
67	0
69	0
73	2
74	13
75	18
76	60
77	9
78	1
79	0
80	0
81	0
82	0
83	0
84	0
85	0
86	0
87	1
89	31
91	246
92	14
94	0
97	0
98	0
100	0
101	0
102	2
103	3
104	9
105	5
106	0
107	0
109	0
110	0
111	0
113	0
114	0
115	0
116	5
119	999
120	73
121	6
122	0
123	0
127	11
128	4
129	0
130	0
132	1
133	0
135	1
136	0
137	0
139	0
140	0
141	0
147	0
149	5
150	0
152	0
153	0
154	0
155	0
163	0
164	0
165	3
166	0
167	0
171	0
176	0
177	0
178	0
179	0
194	0
199	0
200	0
203	75
204	4
205	0
226	0
227	0
228	1
231	73
232	3
237	0
238	0
244	0
247	0
248	0
254	0
255	0
262	0
362	0
378	0
380	28
381	4
