Mass Spectrum: Bicyclo[4.1.0]heptane-7-carbohydrazide, N2-(1-methyl-3-phenylpropylidene)-
Formula: C18H24N2O
CAS: 296245-90-4
Molecular weight: 284
m/z	intensity
33	0
34	3
36	1
39	104
40	102
41	244
42	52
43	37
44	34
45	13
50	5
51	28
52	11
53	106
54	22
55	716
56	47
57	95
58	12
59	10
60	4
63	9
64	4
65	85
66	29
67	290
68	28
69	13
70	18
71	45
72	7
73	2
74	1
75	1
76	3
77	88
78	29
79	283
80	41
81	269
82	25
83	12
84	9
85	7
86	0
87	0
89	8
91	343
92	39
93	63
94	25
95	643
96	70
97	13
98	5
99	9
100	0
101	0
102	4
103	35
104	221
105	121
106	55
107	7
108	5
109	7
110	14
111	14
112	8
113	2
114	0
115	20
116	9
117	30
118	19
119	4
120	20
121	15
122	24
123	999
124	86
125	9
126	1
127	3
128	8
129	12
130	30
131	104
132	40
133	9
134	4
135	2
136	5
137	10
138	41
139	15
140	173
141	15
142	1
143	5
144	253
145	68
146	646
147	101
148	29
149	5
150	4
151	9
152	47
153	7
154	0
155	3
156	1
157	2
158	7
159	16
160	12
161	134
162	46
163	12
164	1
165	2
166	1
167	0
168	0
169	0
170	2
171	16
172	8
173	4
174	3
175	1
176	7
177	3
179	837
180	98
181	4
182	0
183	0
184	4
185	2
186	3
187	4
188	1
189	56
190	8
191	0
192	3
193	18
194	2
196	0
198	7
199	3
200	6
201	3
202	2
203	1
204	1
205	1
207	0
211	0
212	1
213	0
214	0
215	2
216	0
224	0
225	0
226	2
227	2
228	12
229	2
230	0
239	0
240	11
241	10
242	3
243	5
244	1
252	0
254	0
255	1
256	4
267	3
268	1
269	70
270	14
271	0
283	10
284	292
285	61
286	5
287	0
