Mass Spectrum: Propanamide, N-(4-aminosulfonylphenyl)-3-(4-morpholyl)-
Formula: C13H19N3O4S
CAS: 296244-99-0
Molecular weight: 313
m/z	intensity
33	3
34	1
36	3
37	1
38	8
39	20
40	20
41	43
42	279
43	47
44	24
45	19
46	1
48	2
50	8
51	7
52	10
53	8
55	394
56	288
57	387
58	37
59	9
60	1
61	0
62	5
63	22
64	35
65	29
66	3
68	10
69	16
70	55
71	22
72	22
73	4
74	3
75	13
76	12
77	6
78	5
79	4
80	13
81	6
82	8
83	7
84	75
86	474
87	541
88	22
89	4
90	12
91	19
92	23
93	6
94	1
96	9
97	6
98	83
99	65
100	999
101	58
102	23
103	3
104	8
105	12
106	5
107	11
108	18
109	5
110	3
112	16
113	12
114	42
115	5
116	2
117	5
118	10
119	5
120	2
123	0
124	1
125	1
127	0
128	1
129	0
130	0
131	0
132	2
133	5
134	1
135	0
137	1
138	0
139	3
140	5
141	0
142	11
143	0
144	1
145	2
146	13
147	7
148	1
156	38
157	3
158	2
167	1
170	1
172	154
173	12
174	8
175	1
181	0
182	1
183	2
184	4
185	9
186	2
188	3
190	1
194	0
197	0
198	4
199	3
200	0
202	0
209	0
210	1
211	1
213	0
214	1
225	0
226	59
227	13
228	5
233	0
235	3
249	1
252	0
254	0
255	1
256	1
264	4
265	0
266	3
267	0
268	1
270	159
271	20
272	8
273	0
280	0
282	49
283	9
284	5
285	0
294	0
295	15
296	2
297	1
298	1
310	0
312	1
313	22
314	3
315	1
