Mass Spectrum: Tetrazolo[1,5-a]1,2,5-oxadiazolo[3,4-E]pyrazine, 5-(2-chlorophenylamino)-
Formula: C10H5ClN8O
CAS: 296245-92-6
Molecular weight: 288
m/z	intensity
35	2
36	23
38	96
39	71
40	26
41	17
42	10
43	15
44	11
47	3
48	26
50	200
51	102
52	129
53	181
54	15
56	5
57	6
58	1
60	8
61	56
62	103
63	247
64	124
65	77
66	108
67	61
68	35
69	6
71	7
73	216
75	999
76	215
77	199
78	218
79	13
80	3
81	3
84	55
85	78
86	34
87	60
88	61
90	491
91	67
92	20
93	21
94	5
96	9
97	28
99	348
101	186
102	203
103	22
104	10
105	2
108	6
111	995
113	371
114	62
115	89
116	78
117	69
118	21
119	4
120	3
122	4
123	15
124	40
125	116
126	70
127	36
128	26
129	43
130	2
133	1
135	0
136	42
137	87
138	62
139	39
140	22
142	47
143	373
144	25
146	20
148	3
149	2
151	150
152	334
153	61
154	105
155	10
156	2
157	1
160	2
161	9
163	909
165	362
166	20
167	24
168	59
169	115
170	9
171	2
175	0
176	11
178	590
179	100
180	91
181	16
183	8
186	1
188	50
189	22
190	21
192	8
193	6
195	255
196	46
197	5
203	142
204	32
205	41
206	2
207	1
219	2
222	2
225	213
226	24
227	21
228	9
230	245
232	101
233	5
251	1
253	387
254	88
255	9
259	1
260	13
262	26
263	3
264	6
286	7
288	420
290	169
291	16
