Mass Spectrum: Morpholine, 4-[(3-benzyloxy-4-methoxyphenyl)thioxomethyl]-
Formula: C19H21NO3S
CAS: 296243-02-2
Molecular weight: 343
m/z	intensity
33	4
34	1
37	1
39	44
40	18
41	28
42	12
43	53
44	14
45	53
47	4
50	10
51	27
52	9
53	7
54	6
55	12
56	15
57	7
58	8
59	9
60	10
61	7
62	7
63	35
65	133
66	12
69	34
70	17
71	52
72	9
73	3
74	3
75	8
76	9
77	31
78	12
79	18
80	5
81	4
82	8
83	4
84	7
86	71
89	38
91	999
92	75
93	11
95	66
96	31
97	12
98	5
99	1
100	1
101	1
102	6
103	15
104	9
105	13
106	11
107	16
108	17
109	19
110	13
111	10
112	3
113	2
114	1
115	3
116	3
117	7
118	10
119	14
120	37
121	25
122	20
123	48
124	26
125	8
126	3
127	3
128	12
129	4
130	18
131	25
132	11
133	9
134	14
135	52
136	40
137	87
138	18
139	29
140	4
141	4
142	1
143	1
144	3
145	3
146	11
147	8
148	33
149	28
150	19
151	22
152	17
153	10
154	6
155	4
156	1
157	0
158	2
159	4
160	6
161	7
162	12
163	14
164	13
165	39
166	30
167	81
168	11
169	4
170	1
171	3
172	1
173	3
174	6
176	30
177	6
178	8
179	9
180	9
181	9
182	5
183	2
184	2
185	2
186	1
187	1
188	3
189	6
190	9
191	17
192	40
193	11
194	13
195	5
196	5
197	11
198	2
199	1
200	1
201	4
202	3
203	1
204	3
205	1
206	5
207	4
208	11
209	8
210	17
211	3
212	1
213	1
214	0
216	0
218	8
219	16
220	8
221	4
222	7
224	36
225	8
226	2
227	3
228	0
229	1
234	26
235	4
236	2
237	1
238	2
239	2
240	7
241	2
242	0
247	0
248	3
249	3
250	7
252	460
253	63
254	28
255	5
256	3
257	23
258	5
259	1
266	2
267	0
268	1
271	0
272	1
273	1
282	1
283	0
284	0
285	1
298	1
300	2
301	3
302	0
307	1
308	1
310	35
311	7
312	4
313	4
314	7
315	1
337	1
338	1
339	2
343	269
344	56
345	17
346	2
