Mass Spectrum: Pyrazol-3(2H)-one, 1,5-dimethyl-4-methylsulfonylamino-2-phenyl-
Formula: C12H15N3O3S
CAS: 296245-48-2
Molecular weight: 281
m/z	intensity
33	1
34	3
35	1
36	6
37	3
38	12
39	22
40	13
41	15
42	19
43	8
44	5
45	5
46	1
47	1
48	8
49	1
50	9
51	29
52	15
53	12
54	28
56	999
57	38
58	0
60	1
61	1
62	3
63	21
64	42
65	26
66	5
67	8
68	3
69	2
70	1
71	1
72	0
73	1
74	1
75	1
77	47
78	5
79	21
80	4
81	3
83	76
84	10
85	1
87	4
88	0
89	1
91	53
92	11
93	7
94	1
95	0
96	0
97	1
98	0
99	0
101	1
102	0
103	2
104	3
105	3
106	2
107	0
109	4
110	0
111	0
112	0
113	0
114	0
115	0
116	0
117	1
118	5
119	18
120	13
121	1
122	0
123	0
124	0
126	0
127	0
128	0
129	0
130	1
131	2
132	2
133	0
134	0
142	0
143	1
144	0
145	2
146	1
147	2
148	0
149	0
152	0
156	0
157	0
158	3
159	2
160	0
161	0
165	0
167	0
171	0
172	1
173	2
174	1
175	0
184	0
185	0
186	0
187	0
188	0
189	0
192	0
194	0
200	12
202	500
203	65
204	5
205	0
215	0
216	0
217	0
220	0
224	0
226	0
228	0
278	0
279	1
281	50
282	7
283	2
284	0
