Mass Spectrum: 4-Chloro-dl-phenylalanine ethyl ester
Formula: C11H14ClNO2
CAS: 29622-19-3
Molecular weight: 227
m/z	intensity
26	1
27	13
29	34
30	6
31	1
38	2
39	15
41	7
42	27
43	26
44	3
45	3
46	62
47	13
49	1
50	12
51	20
52	4
53	2
54	2
55	1
56	10
57	8
58	44
59	42
61	2
62	9
63	41
64	8
65	29
66	3
67	2
73	10
74	336
75	33
76	7
77	31
78	9
79	1
80	2
84	4
85	3
86	3
87	4
88	2
89	78
90	29
91	124
92	15
93	2
97	1
99	22
100	2
101	32
102	999
103	56
104	11
111	5
112	4
113	2
114	2
115	1
116	8
117	43
118	116
119	183
120	16
123	1
124	1
125	99
126	19
127	34
128	6
129	1
131	2
136	2
137	7
138	12
139	3
140	4
151	3
152	8
153	30
154	461
155	52
156	151
157	13
165	2
227	6
228	1
229	2
