Mass Spectrum: Isothiazole-3-carboxylic acid, 4,5-dichloro-, ethyl ester
Formula: C6H5Cl2NO2S
CAS: 296243-98-6
Molecular weight: 225
m/z	intensity
33	74
35	77
36	85
38	153
40	72
41	15
44	140
45	329
47	150
49	41
50	27
51	18
52	3
54	21
56	94
57	18
59	64
60	10
62	28
63	7
64	6
65	3
67	19
68	15
70	62
71	45
72	16
73	38
74	9
75	10
76	15
77	12
79	145
82	339
83	111
84	38
85	49
86	25
87	24
88	8
89	10
91	226
93	88
94	30
96	23
97	4
98	4
99	2
101	0
103	4
104	3
105	6
106	5
108	87
110	47
111	4
112	7
114	18
115	10
118	999
120	339
122	21
123	1
124	3
126	75
128	60
129	8
130	4
134	2
145	0
146	0
149	6
150	5
152	82
153	188
154	58
155	124
157	30
158	1
159	1
163	1
171	1
173	10
174	0
178	4
180	141
182	105
183	16
184	8
185	0
188	4
194	3
195	12
197	479
199	348
201	63
203	1
225	4
227	3
