Mass Spectrum: 2-Pyrroline-3-carboxylic acid, 4-(3-chlorobenzylideno)-2-methyl-5-oxo-1-phenyl-, ethyl ester
Formula: C21H18ClNO3
CAS: 296243-37-3
Molecular weight: 367
m/z	intensity
33	6
35	2
36	10
38	10
39	30
40	23
41	7
42	13
43	25
44	9
45	5
51	152
52	9
53	7
54	2
55	4
57	1
61	2
62	6
63	36
64	9
65	13
66	3
67	3
69	2
70	2
71	1
73	5
74	11
75	29
77	852
78	35
79	4
80	1
81	2
82	2
84	1
85	2
86	7
87	10
88	9
89	13
90	5
91	15
92	6
93	15
94	13
95	9
96	2
97	3
98	2
99	9
100	6
101	16
102	11
103	8
104	9
105	7
106	3
107	3
108	3
109	2
111	18
113	49
114	29
115	26
118	999
119	75
120	5
122	4
123	6
124	3
125	10
126	9
127	25
128	26
129	11
130	10
131	6
133	13
134	4
135	4
136	7
137	8
139	98
140	21
141	25
142	8
143	12
144	8
147	7
148	13
149	28
150	14
151	10
152	6
153	4
154	9
155	6
156	4
157	1
158	1
160	2
161	3
162	5
163	7
164	4
165	22
166	4
167	4
168	6
169	7
170	9
171	6
172	3
173	9
174	24
175	17
176	14
177	8
178	9
179	3
180	3
181	2
182	4
183	2
184	9
185	4
186	4
187	4
188	5
189	24
190	9
191	8
192	3
193	2
196	1
198	14
199	5
200	3
201	4
202	10
203	10
204	7
205	3
210	2
212	8
214	80
215	15
216	33
217	14
218	5
219	2
220	2
225	5
226	15
227	9
228	44
229	14
230	42
231	35
232	54
233	10
240	1
241	1
242	1
244	7
245	3
246	2
250	3
251	10
252	10
253	4
254	4
255	2
256	17
257	8
258	26
259	10
260	4
262	1
264	16
265	11
266	52
267	37
268	21
269	11
270	2
278	2
279	5
280	4
281	2
282	2
284	2
285	7
286	20
287	5
288	3
291	2
292	15
293	52
294	70
295	55
296	28
297	13
298	2
304	3
306	1
308	2
310	28
311	6
312	8
320	38
321	17
322	62
323	16
324	18
325	4
338	23
339	10
340	7
341	3
362	2
363	2
364	4
367	577
368	125
369	167
370	34
371	5
