Mass Spectrum: Furan-2(3H)-one, 3-(2-acetoxybenzylideno)-5-phenyl-
Formula: C19H14O4
CAS: 296243-38-4
Molecular weight: 306
m/z	intensity
33	15
34	1
38	4
39	27
40	32
43	356
45	20
50	29
51	107
52	16
53	5
55	6
57	1
60	3
61	0
62	9
63	21
64	4
65	6
66	1
67	1
69	1
73	0
74	14
75	25
77	614
78	24
79	4
80	0
81	1
83	2
86	2
87	5
88	5
89	11
90	3
91	10
92	1
93	3
94	4
95	1
98	0
99	0
100	3
101	9
102	42
105	999
106	56
107	5
109	19
110	1
112	1
114	15
115	8
118	2
119	2
121	11
122	10
123	1
126	2
127	1
130	42
131	36
132	4
133	1
139	1
142	2
143	0
145	0
149	1
150	2
151	4
152	5
153	0
158	22
159	30
160	4
161	2
162	2
163	2
164	0
165	11
166	0
171	0
176	6
178	35
179	10
180	1
186	87
187	12
189	25
190	13
191	24
192	3
194	1
203	0
205	4
207	17
208	3
217	1
218	13
219	19
220	4
221	4
222	11
223	1
235	18
236	22
237	3
245	1
246	3
247	9
248	2
249	0
258	0
260	0
261	2
264	490
265	74
266	7
304	1
306	137
307	24
308	2
