Mass Spectrum: Benzoic acid, 4-[1-oxo-2-(1-pyrrolidinyl)ethyl]amino-, methyl ester
Formula: C14H18N2O3
CAS: 296245-96-0
Molecular weight: 262
m/z	intensity
33	26
36	0
37	0
38	4
39	25
40	18
42	237
44	6
45	0
50	5
51	4
52	4
55	102
56	19
57	8
58	0
59	5
63	16
64	18
65	7
66	4
67	5
68	2
70	47
71	3
74	0
75	3
76	4
77	6
78	1
79	1
80	4
82	17
84	999
89	0
90	8
91	19
92	6
93	0
95	1
103	3
104	3
105	1
107	0
110	1
114	0
115	1
118	1
119	19
120	5
122	8
128	0
132	2
133	1
135	1
136	0
142	0
146	3
150	3
151	0
160	0
164	1
169	1
171	1
185	0
193	0
204	0
231	8
232	0
256	0
262	6
