Mass Spectrum: 3-Methylcyclohexyl 4-(2-bromo-4,5-methylenedioxyphenyl)-3,4-dihydro-6-methyl-2(1H)-oxo-5-pyrimidinecarboxylate
Formula: C20H23BrN2O5
CAS: 296262-75-4
Molecular weight: 450
m/z	intensity
34	4
35	2
36	8
37	8
39	262
41	596
42	471
43	234
44	66
46	12
49	4
50	32
51	44
53	159
55	999
57	115
58	9
60	10
62	95
63	78
65	44
66	61
67	132
68	58
69	89
70	46
71	38
73	25
74	13
75	24
76	25
77	43
78	16
79	56
80	29
81	83
82	43
83	23
84	24
85	12
86	12
87	42
88	26
89	38
90	27
91	22
92	11
93	13
94	36
95	34
96	42
97	81
98	9
100	13
101	14
102	35
103	24
104	10
105	9
106	6
107	8
108	9
109	19
110	57
111	13
112	24
113	15
114	14
115	11
116	19
117	18
118	14
119	19
120	9
121	8
122	9
123	4
125	8
126	6
127	9
128	18
129	27
130	24
131	12
132	9
133	13
134	7
135	6
137	114
138	8
139	3
140	4
141	12
142	13
143	28
144	12
145	25
146	32
147	9
148	13
149	19
150	3
151	4
152	6
153	10
155	632
156	40
157	13
158	9
159	11
160	9
161	8
162	4
163	2
165	2
167	8
168	7
169	17
170	13
171	41
172	23
173	29
174	30
175	13
176	5
177	2
181	3
182	2
183	2
184	4
185	8
186	18
187	37
188	26
189	15
190	3
191	7
192	2
196	4
197	3
198	5
199	41
200	73
201	34
202	58
203	8
204	2
208	2
209	1
210	2
211	2
212	3
213	17
215	36
216	12
217	5
218	4
223	6
224	4
225	7
226	11
227	18
228	19
229	68
230	28
231	22
232	191
233	28
234	4
240	3
241	2
242	2
243	1
245	1
246	2
248	1
249	2
250	3
251	50
252	9
254	31
255	10
256	35
257	39
258	13
259	6
266	3
268	4
270	3
271	6
272	10
273	93
275	558
276	82
277	11
279	1
282	2
283	5
284	11
285	2
289	2
294	2
296	2
305	2
307	8
309	68
310	12
311	57
312	8
337	9
338	2
339	9
349	2
350	2
351	4
353	52
354	10
355	45
356	8
357	2
366	2
367	3
368	4
369	5
371	120
372	24
373	3
450	4
452	4
