Mass Spectrum: Piperidin-4-ol, 1,2,5-trimethyl-4-[3-(methyl)(phenyl)amino-1-propynyl]-
Formula: C18H26N2O
CAS: 296243-55-5
Molecular weight: 286
m/z	intensity
33	75
34	11
36	4
39	127
40	143
41	136
42	543
43	174
44	182
46	1
51	76
52	21
53	40
55	114
56	292
57	188
58	101
59	5
60	2
62	2
63	19
65	56
66	34
67	39
68	56
70	999
71	209
72	65
74	9
77	192
78	38
79	58
80	13
81	21
82	59
84	282
85	26
86	2
87	1
88	5
89	7
91	60
92	10
93	17
94	33
95	24
96	71
98	208
99	17
100	3
101	1
102	5
103	18
104	50
105	46
106	81
107	160
108	70
109	24
110	40
111	44
112	23
113	5
115	16
116	6
117	15
118	17
120	125
121	24
122	24
123	17
124	44
125	9
126	25
127	17
128	11
129	8
130	13
131	17
132	32
133	10
134	14
136	108
137	35
138	80
139	99
140	24
141	6
142	12
143	18
144	44
145	15
146	22
148	35
149	8
150	17
151	3
152	5
153	2
154	6
156	10
157	8
158	13
159	4
160	8
162	54
163	24
164	74
165	24
166	61
167	10
168	9
169	3
170	9
171	6
172	14
173	5
174	3
176	1
177	6
179	326
180	212
181	65
182	13
183	2
184	5
185	3
186	9
187	3
188	1
195	2
196	5
197	1
198	3
199	4
200	11
201	6
202	25
203	3
205	0
209	0
210	9
211	6
212	5
214	13
215	7
216	2
220	0
223	0
224	14
225	8
226	2
227	1
228	2
229	2
231	1
242	0
243	3
244	3
253	19
254	3
267	1
268	2
269	5
271	140
272	25
273	1
282	0
283	5
285	99
286	153
287	29
288	2
290	2
