Mass Spectrum: Pyrrolidine, 1-(2,4-dibromophenyl)-3-(3-methyl-1-piperidinyl)-
Formula: C16H18Br2N2O2
CAS: 296245-03-9
Molecular weight: 428
m/z	intensity
33	1
38	2
39	11
40	21
41	82
42	59
43	13
44	8
51	0
52	1
54	60
55	166
56	33
57	16
58	2
61	1
62	8
63	8
64	2
65	0
66	3
67	9
68	24
69	23
70	42
71	11
72	0
74	3
75	4
76	1
77	1
78	1
79	3
80	7
81	12
82	37
83	17
84	6
85	0
87	1
88	6
89	8
90	4
91	2
93	2
94	9
96	39
98	999
99	58
100	3
102	1
103	0
104	2
106	0
107	0
108	7
110	278
111	22
112	1
113	0
115	1
117	9
118	1
119	4
120	0
122	2
123	4
124	44
125	409
126	34
131	0
133	2
134	1
136	2
138	1
139	0
141	3
142	0
143	3
144	2
145	3
146	0
151	1
152	55
153	6
154	1
155	0
156	2
168	24
169	4
170	25
171	4
172	1
173	1
180	0
181	0
183	0
184	0
185	0
186	0
195	1
197	3
198	5
199	1
200	1
210	2
211	3
212	5
213	3
214	1
222	0
223	4
224	7
225	3
226	5
227	0
228	0
235	0
236	0
237	0
238	1
239	1
240	0
241	0
247	2
248	2
249	6
250	7
251	7
252	12
253	5
254	6
255	1
260	0
262	2
264	1
265	0
275	9
277	13
278	2
279	8
280	0
303	1
305	1
307	4
308	0
309	1
310	0
321	1
331	3
333	7
334	0
335	3
361	0
373	0
375	0
387	0
401	0
427	0
428	2
429	1
430	7
431	1
432	2
433	0
