Mass Spectrum: Quinoline, 1,2,3,4-tetrahydro-1-(4-fluorobenzoyl)-2-methyl-4-phenylamino-
Formula: C23H21FN2O
CAS: 296272-52-1
Molecular weight: 360
m/z	intensity
33	9
34	2
36	2
37	0
38	3
39	13
40	35
41	8
42	4
43	6
44	12
45	6
47	1
49	0
50	6
51	15
52	2
53	1
54	1
55	2
57	6
59	1
60	0
63	5
65	16
66	4
67	0
68	1
69	4
70	1
71	1
72	0
74	3
75	29
76	13
77	56
78	10
79	2
80	0
81	0
82	1
83	1
84	1
88	1
89	4
90	3
91	17
92	9
93	22
95	201
96	12
97	0
101	3
102	7
103	17
104	16
105	6
106	3
109	1
111	0
113	0
115	3
116	9
117	15
118	16
119	10
120	18
123	999
124	68
125	4
126	2
127	4
128	7
129	13
130	50
131	9
132	3
133	1
134	0
135	0
139	0
140	0
141	2
142	3
143	21
144	71
145	16
146	14
147	4
148	1
149	1
150	0
151	1
152	3
153	1
154	1
158	2
159	0
160	2
161	0
164	0
165	1
166	1
167	2
168	0
170	0
172	8
173	0
176	0
177	0
178	1
179	0
180	4
181	0
183	0
191	0
193	3
195	10
196	1
198	4
199	0
204	1
205	1
206	1
207	0
208	1
209	1
210	5
211	1
214	0
216	0
217	0
218	1
219	2
220	4
221	5
222	8
223	6
224	2
226	39
227	5
232	3
233	1
234	1
235	4
236	11
237	10
238	5
239	0
240	0
247	0
248	2
249	5
250	23
251	9
252	10
253	1
264	9
265	18
267	59
268	315
269	53
270	5
278	0
344	0
359	10
360	83
361	14
362	1
