Mass Spectrum: Benzo[b]pyrimidino[5,4-d]thiophene, 5,6,7,8-tetrahydro-4-diacetylamino-
Formula: C14H15N3O2S
CAS: 296266-67-6
Molecular weight: 289
m/z	intensity
33	10
34	19
36	4
37	3
40	266
41	57
43	999
45	107
47	6
48	2
50	16
51	29
52	19
53	17
54	7
55	20
57	23
58	20
59	8
60	10
61	4
63	33
64	22
65	22
66	9
67	11
69	31
70	14
71	19
72	3
73	4
74	3
75	7
76	15
77	29
78	18
79	15
80	5
81	8
82	10
83	9
84	10
85	4
87	5
89	21
90	13
91	22
92	5
93	13
94	11
95	7
96	6
97	3
98	1
99	2
100	0
101	3
102	4
103	5
104	6
105	8
106	5
107	5
108	6
109	5
110	7
111	3
112	3
114	4
115	5
116	23
117	12
118	5
120	12
121	12
122	13
123	6
124	2
125	1
126	0
127	2
128	4
129	4
130	1
132	2
133	11
134	13
135	12
136	8
137	4
140	0
141	1
142	2
143	6
144	4
145	2
146	6
147	6
148	14
149	10
150	42
151	4
152	2
153	0
155	2
156	0
157	0
158	2
159	8
160	23
161	21
162	12
163	3
164	2
165	0
171	3
172	2
173	2
174	4
175	8
176	13
177	31
178	20
179	3
185	6
187	14
188	16
189	21
190	40
191	6
192	1
201	9
202	15
203	24
204	183
205	168
206	29
207	7
218	0
229	52
230	16
231	8
232	51
233	8
234	1
244	1
246	49
247	154
248	19
249	7
289	56
290	7
291	3
