Mass Spectrum: Benzoic acid, 3-bromo-4-methyl-5-nitro-, 2-acetylaminoethyl ester
Formula: C12H13BrN2O5
CAS: 296274-43-6
Molecular weight: 344
m/z	intensity
33	1
34	1
36	0
37	2
38	8
39	45
40	16
41	20
42	92
43	999
44	183
45	17
46	2
47	0
48	0
50	15
51	25
52	7
53	8
54	6
55	16
56	8
57	25
58	17
59	4
60	71
61	9
62	46
63	96
64	10
65	5
66	2
67	2
68	1
69	3
70	9
72	566
73	32
74	16
75	14
76	12
77	24
78	14
79	5
80	4
81	3
82	3
83	2
85	701
86	91
87	29
88	52
89	201
90	33
91	7
92	2
93	2
94	0
95	1
97	0
98	1
99	1
100	1
101	3
102	86
103	8
104	4
105	11
106	4
107	2
108	0
109	0
111	0
112	0
113	0
115	1
116	5
117	12
118	5
119	5
120	1
121	0
122	0
123	0
124	0
126	0
127	0
128	0
129	1
130	1
131	1
132	1
133	1
134	4
135	2
136	1
137	0
140	0
141	2
142	0
143	2
144	0
145	1
146	1
147	1
148	1
149	0
150	0
151	0
152	0
153	1
154	0
155	3
156	1
157	2
158	1
159	1
160	0
161	0
162	0
163	3
164	2
165	0
167	20
168	36
169	22
170	36
171	6
172	1
173	0
174	0
175	0
177	0
179	0
180	0
181	0
182	1
183	3
184	4
185	4
186	4
187	2
188	0
189	0
191	0
192	0
193	0
194	1
195	6
196	38
197	15
198	37
199	9
200	2
201	0
202	0
207	0
209	3
210	0
211	1
212	2
213	6
214	3
215	5
216	1
217	0
224	2
225	16
226	13
227	17
228	10
229	3
230	1
231	1
234	0
237	0
238	0
239	0
240	0
242	73
243	14
244	69
245	11
246	1
252	0
253	0
254	1
255	5
256	1
257	6
258	1
259	14
260	2
261	14
262	1
265	0
266	0
267	4
268	2
269	4
270	0
271	0
272	0
274	0
282	0
283	0
284	1
285	0
286	1
287	0
288	0
298	0
299	0
301	12
302	1
303	11
304	1
309	0
311	1
313	0
314	0
315	0
316	0
327	1
328	0
329	1
330	0
344	3
346	3
347	0
