Mass Spectrum: 1,2,4-Triazolo[3,4-a]isoquinolin-3-ol, 2,3,5,6-tetrahydro-3-heptafuoropropyl-5,5,-dimethyl-
Formula: C15H14F7N3O
CAS: 296243-74-8
Molecular weight: 385
m/z	intensity
33	8
37	6
39	273
41	256
42	313
43	54
44	83
46	6
47	2
49	9
50	103
51	115
52	45
53	27
54	35
55	45
58	281
60	3
63	233
65	155
66	18
69	976
70	24
72	14
73	7
74	23
75	77
76	133
77	183
78	63
79	29
80	13
81	14
82	2
85	4
86	28
89	617
90	215
91	285
92	48
93	18
94	1
97	0
98	9
100	243
101	50
102	102
103	197
104	151
105	58
106	32
107	5
109	86
110	1
111	3
112	13
115	679
116	999
117	418
118	136
119	142
120	6
121	0
125	6
127	143
128	280
129	243
130	350
131	276
132	111
133	34
134	5
138	0
139	15
140	69
141	131
142	207
143	444
144	896
145	121
146	60
147	16
148	14
150	27
151	11
152	1
153	9
154	30
155	35
156	97
157	199
158	641
159	145
160	25
161	3
163	2
166	3
167	22
169	799
171	78
173	528
174	80
175	9
176	0
177	0
178	2
179	0
182	2
184	9
185	26
186	60
188	945
189	75
190	5
194	4
196	0
197	11
198	0
199	12
200	19
201	2
206	0
207	0
211	0
212	6
213	14
214	39
216	767
217	80
218	7
238	1
318	1
320	1
338	19
339	2
346	8
352	2
363	0
364	1
365	11
366	33
367	21
368	36
370	305
371	42
372	1
380	5
381	23
382	21
385	298
386	39
