Mass Spectrum: 1-Ethyl-3-[2-(octadecylthio)ethyl]thiourea
Formula: C23H48N2S2
CAS: 296245-37-9
Molecular weight: 416
m/z	intensity
34	6
35	7
36	4
39	101
41	562
43	999
44	793
46	53
47	18
48	5
49	3
50	4
51	7
53	45
55	386
56	100
57	236
59	120
60	149
61	80
62	9
63	6
64	5
65	9
67	68
68	47
69	147
70	48
71	93
72	22
73	26
74	17
75	21
76	28
77	6
78	7
79	9
81	41
82	31
83	70
84	17
85	32
87	83
88	62
89	24
90	8
91	8
93	34
95	27
96	17
97	49
98	10
99	14
101	35
102	9
103	22
105	115
106	7
107	6
109	9
110	5
111	9
112	4
113	5
115	22
116	9
117	11
118	3
119	3
120	4
121	2
122	2
123	3
124	2
125	4
127	9
130	210
131	272
132	41
133	16
134	3
135	1
141	2
142	3
143	10
144	12
145	2
146	1
149	7
150	1
157	4
158	2
163	332
164	38
165	22
166	3
171	3
175	5
185	2
199	2
213	2
281	2
282	5
283	7
284	1
296	3
414	1
415	6
416	7
417	2
