Mass Spectrum: Isoindole-1,3(2H)-dione, 5-(2,4-dichlorobenzylidenamino)-
Formula: C15H8Cl2N2O2
CAS: 296242-81-4
Molecular weight: 318
m/z	intensity
33	20
34	8
35	17
36	67
37	42
38	89
39	46
40	90
41	28
43	219
44	72
45	34
47	3
50	212
51	63
52	62
53	28
54	4
55	10
56	5
57	12
59	4
60	26
61	83
62	201
63	520
64	58
65	18
66	5
67	5
68	4
69	5
70	35
73	162
74	407
75	967
76	171
77	29
78	9
79	8
80	8
81	6
82	6
83	10
84	28
85	40
86	59
87	86
88	89
89	58
90	41
91	82
92	45
93	25
94	6
95	7
96	13
97	38
98	28
99	58
100	75
101	56
103	999
104	110
105	85
106	53
107	17
109	64
110	48
111	92
112	21
113	32
114	36
115	7
116	7
117	16
118	48
119	120
120	63
121	22
123	232
124	53
125	74
126	26
127	20
129	19
130	5
131	4
132	4
133	13
134	8
135	18
136	50
137	173
139	105
140	24
141	5
142	2
144	18
145	45
146	250
147	47
148	96
149	41
150	75
151	29
152	6
153	1
155	5
157	32
158	14
159	48
160	22
161	40
162	220
163	29
164	24
165	5
166	1
170	18
171	47
172	44
173	321
174	61
175	41
176	46
177	80
178	13
179	1
182	2
184	108
185	42
186	63
187	15
188	12
189	3
190	5
191	7
192	3
193	1
194	3
195	2
196	12
197	5
198	10
199	4
200	5
201	2
202	6
203	7
204	36
205	5
207	2
208	1
209	4
210	6
211	46
212	58
213	23
214	19
215	2
217	1
219	4
220	26
221	7
222	16
223	3
224	2
225	3
226	7
227	3
228	3
229	0
234	5
235	1
236	7
237	5
238	11
239	14
240	163
241	30
242	53
243	8
244	1
245	3
246	14
247	30
248	14
249	16
250	4
251	2
254	2
256	1
261	1
262	1
263	1
265	15
266	3
267	4
273	3
274	8
275	5
276	6
277	3
278	1
281	2
282	14
283	13
284	9
285	4
286	0
289	1
291	0
294	3
299	2
301	1
311	3
312	4
313	17
314	24
317	757
318	994
319	616
320	623
321	171
322	102
323	18
324	1
