Mass Spectrum: 4-Methylbenzamide, N-(4-bromobenzylidenamino)-
Formula: C15H13BrN2O
CAS: 296274-76-5
Molecular weight: 316
m/z	intensity
37	11
38	58
39	105
40	18
41	25
42	3
43	7
44	8
45	4
49	24
50	64
51	50
52	12
53	5
60	8
61	26
63	240
65	259
66	5
73	9
74	20
75	42
76	30
77	11
79	7
80	3
84	4
86	17
87	15
89	291
91	544
92	22
102	16
103	4
117	19
119	999
120	68
121	4
132	2
135	218
136	17
143	5
145	3
155	5
157	5
170	3
316	8
318	5
