Mass Spectrum: Pyrimidin-4-ol, 6-amino-2-[1-(2-chlorophenyl)ethylthio]-
Formula: C12H12ClN3OS
CAS: 296242-78-9
Molecular weight: 281
m/z	intensity
33	12
34	3
35	4
36	15
38	28
39	71
40	94
41	91
42	91
43	126
44	41
45	50
47	4
48	3
50	74
51	136
52	23
53	26
55	170
56	27
57	9
59	77
60	47
61	13
62	22
63	60
65	22
68	382
69	61
70	16
71	11
72	15
73	24
74	33
75	96
77	635
80	0
81	2
83	48
84	65
85	124
86	22
87	30
89	31
91	43
92	7
93	10
95	39
96	3
97	7
98	6
99	11
101	75
103	999
108	18
110	73
111	139
112	23
113	10
115	165
117	8
118	3
119	5
120	10
121	7
123	5
125	22
127	60
128	8
129	4
130	2
131	1
134	22
135	16
136	15
139	982
140	106
141	270
143	502
145	34
147	1
149	1
150	1
151	1
152	2
153	5
155	39
156	6
157	11
158	2
159	3
160	1
162	4
163	3
164	2
165	1
166	0
167	1
170	168
172	8
173	3
174	0
176	0
177	1
178	2
179	12
180	2
181	4
182	3
183	1
184	2
185	3
186	11
187	2
195	1
196	2
197	2
198	0
199	2
202	2
203	1
207	1
209	0
212	26
213	43
214	6
215	0
216	0
217	0
218	0
220	8
221	3
222	2
223	0
230	3
231	5
232	4
233	2
234	0
236	0
244	40
246	259
247	40
248	49
249	11
250	15
252	1
254	0
259	2
261	0
266	3
267	6
268	1
269	2
277	0
278	2
281	586
282	84
283	203
284	27
285	10
