Mass Spectrum: 2,5-Cyclohexadiene-1,4-dione, 5-bromo-2,3-dimethyl-, 1-oxime, o-benzoyl-
Formula: C15H12BrNO3
CAS: 296243-33-9
Molecular weight: 333
m/z	intensity
33	1
34	0
37	1
39	28
40	8
41	5
43	4
44	2
45	0
50	28
51	67
52	13
53	26
54	3
55	1
56	0
57	0
59	0
60	0
61	1
63	11
65	20
66	3
67	0
68	0
69	0
70	0
71	0
72	0
74	5
77	229
78	12
79	2
80	2
81	0
82	0
83	0
84	0
85	0
86	0
87	0
89	5
91	22
92	2
93	2
94	0
105	999
106	59
107	3
108	1
109	0
111	0
112	0
116	0
117	0
119	2
120	0
122	4
123	0
130	6
132	6
133	0
139	1
141	0
145	0
146	0
152	0
155	0
156	0
158	4
160	4
161	0
169	0
170	0
171	1
174	0
184	0
185	0
186	0
187	0
198	0
199	0
200	0
213	0
215	0
217	0
333	1
334	0
335	1
