Mass Spectrum: Propanamide, 3-(4-methyl-1-piperazinyl),N-(4-methoxycarbonylphenyl)-
Formula: C16H23N3O3
CAS: 296245-20-0
Molecular weight: 305
m/z	intensity
33	5
38	9
39	18
40	18
42	999
43	645
44	340
45	8
46	0
50	11
51	8
52	9
54	38
56	651
57	290
58	381
59	55
63	25
64	27
65	47
66	4
68	24
70	967
71	483
72	193
74	11
75	12
76	18
77	20
78	5
79	5
80	4
82	53
84	568
85	142
86	11
87	7
90	36
91	41
92	38
93	10
95	10
98	191
99	169
100	39
101	4
103	21
104	9
105	12
106	9
107	3
111	185
113	941
114	42
115	8
120	212
122	30
123	2
124	2
125	5
127	184
128	7
130	3
131	4
132	7
133	8
135	21
137	8
138	0
139	1
143	0
144	2
145	2
146	28
147	5
148	2
151	143
152	21
153	8
155	8
157	0
158	0
159	0
160	2
162	8
164	107
165	8
166	0
171	0
174	27
175	5
176	8
178	26
179	2
180	0
187	1
188	2
190	10
191	2
193	12
194	0
201	0
202	2
203	7
205	52
206	55
207	10
208	1
216	0
217	4
218	2
219	3
220	1
221	3
222	0
231	1
232	1
233	4
235	252
236	24
237	2
245	1
247	38
248	73
249	302
250	37
251	2
259	1
261	162
262	181
263	127
264	13
265	1
274	73
275	51
276	14
277	2
278	0
288	0
290	17
291	1
301	0
302	1
303	8
305	321
306	49
307	5
308	0
