Mass Spectrum: Thiazolidine-2-thione, 5-(N-oxy-4-chlorobenzylidenamino)-3,4,4,5-tetramethyl-
Formula: C14H17ClN2OS2
CAS: 296243-66-8
Molecular weight: 328
m/z	intensity
33	21
34	9
35	8
36	9
37	9
39	223
41	650
42	240
43	50
45	119
47	72
49	11
50	48
51	54
53	91
54	23
56	390
57	133
59	258
61	53
63	168
64	85
65	41
67	235
68	46
69	72
70	32
71	47
72	94
73	69
74	80
75	73
76	51
77	49
78	6
79	8
80	7
81	11
82	22
83	10
85	96
87	43
89	367
90	50
91	12
92	6
94	13
96	79
98	999
99	94
101	186
102	34
103	18
104	4
105	12
106	6
107	3
108	3
109	4
110	6
111	41
112	16
113	19
114	45
115	19
116	7
117	4
118	6
119	8
120	3
121	0
123	14
124	75
125	41
126	47
127	16
128	14
130	57
131	8
132	2
136	8
138	35
139	21
140	24
141	12
142	5
143	2
144	4
146	1
149	0
150	13
152	8
153	3
154	18
156	38
157	14
158	27
159	30
160	11
161	2
162	9
164	79
165	167
166	87
168	5
170	4
174	400
175	31
176	26
177	3
178	1
179	0
180	2
182	2
189	1
190	3
191	10
192	19
193	3
194	3
204	2
205	1
206	36
207	26
208	12
209	6
221	6
223	1
311	1
312	30
313	5
314	11
315	0
328	0
