Mass Spectrum: 1,2,4-Triazolo[4,3-b]pyridazine, 6-(4-benzyl-1-piperazinyl)-3-trifluoromethyl-
Formula: C17H17F3N6
CAS: 296243-50-0
Molecular weight: 362
m/z	intensity
33	4
34	0
37	9
38	17
39	32
40	20
41	71
42	185
43	10
44	7
45	0
50	6
51	21
52	14
54	40
56	310
57	12
58	4
60	0
63	21
64	34
65	101
66	11
67	3
68	7
69	10
70	5
71	3
72	1
73	0
74	0
75	1
76	4
77	12
78	11
79	15
80	4
81	6
83	71
84	4
85	0
86	0
87	0
89	29
91	999
92	80
93	5
94	1
95	1
96	1
97	2
98	0
99	0
100	0
101	0
104	43
105	21
106	8
107	2
108	1
109	1
110	3
112	0
113	0
114	1
115	2
117	42
118	56
119	25
120	10
121	4
122	0
123	0
126	0
127	0
128	0
130	8
131	22
132	59
134	107
135	7
136	0
137	0
140	2
141	3
146	574
147	49
148	3
149	0
151	0
154	0
155	0
156	0
157	1
158	2
159	4
160	4
161	1
162	0
163	0
167	0
168	0
169	3
170	1
171	2
173	66
174	42
175	6
177	2
178	0
180	0
182	5
183	0
184	0
185	0
186	1
187	1
188	4
189	9
190	1
191	0
195	0
196	5
197	0
198	0
200	3
201	2
202	3
203	1
204	0
208	0
209	0
210	1
211	0
212	0
214	5
215	5
216	8
217	5
218	0
223	0
224	0
225	0
226	0
227	0
228	2
229	6
230	15
231	3
232	1
234	0
238	0
240	0
242	6
243	2
244	11
245	1
246	0
251	1
252	0
254	0
255	1
256	4
257	3
258	1
259	0
265	0
266	0
267	0
269	4
271	48
272	6
273	0
278	1
283	0
285	12
286	1
292	0
293	0
306	0
318	0
320	0
323	0
333	0
334	0
343	13
344	2
345	0
347	3
348	0
357	1
362	193
363	27
364	2
365	0
