Mass Spectrum: Acetamide, 2-(4-methyl-1-piperazinyl)-N-(3-chlorophenyl)-
Formula: C13H18ClN3O
CAS: 296245-55-1
Molecular weight: 267
m/z	intensity
33	1
34	0
35	0
36	1
37	1
38	3
39	7
40	9
42	244
43	123
44	53
45	2
48	0
50	3
51	3
52	2
54	15
56	107
57	29
58	43
59	2
61	1
62	4
63	9
64	6
65	3
66	0
67	2
70	604
71	74
72	10
73	3
74	3
75	7
77	7
78	1
79	0
80	0
81	3
82	11
83	15
84	13
85	16
86	3
87	0
88	0
89	1
90	6
91	7
92	2
93	1
95	2
97	22
98	67
99	63
101	8
102	1
104	4
105	3
106	0
108	0
109	1
111	41
113	999
114	85
115	4
116	0
117	0
118	0
119	0
125	4
126	7
127	11
128	3
129	3
130	0
131	0
132	0
133	2
134	1
135	0
137	0
138	0
140	25
141	9
142	6
143	0
144	0
145	0
147	0
151	0
152	0
153	2
154	1
155	1
156	0
166	1
168	5
169	2
170	1
171	0
175	0
185	0
195	0
197	5
198	0
199	1
210	5
211	6
212	2
213	1
214	0
215	0
223	1
224	6
225	7
226	2
227	2
228	0
233	0
237	0
250	0
252	0
264	0
265	1
267	111
268	18
269	32
270	4
271	0
