Mass Spectrum: 5H-Dibenzo[b,f]azepine, 10,11-dihydro-N-(2-thienoyl)-
Formula: C19H15NOS
CAS: 296272-49-6
Molecular weight: 305
m/z	intensity
33	0
34	1
35	0
36	2
37	2
39	144
40	15
41	5
42	1
44	20
45	7
46	0
47	0
50	11
51	25
52	7
53	4
54	0
55	1
57	10
58	2
59	0
60	0
61	0
62	5
63	20
64	8
65	15
66	1
67	0
69	2
70	1
71	1
72	0
73	0
74	3
75	5
76	6
77	18
78	7
79	1
80	1
81	3
82	6
83	40
84	4
85	2
86	1
87	2
89	33
90	10
91	27
92	1
93	0
94	0
95	1
96	1
97	1
98	0
99	0
100	0
101	3
102	3
103	2
104	0
105	0
106	0
107	0
111	999
112	55
113	44
114	4
115	8
116	9
117	4
118	1
119	0
120	0
121	0
122	0
124	0
125	1
126	2
127	3
128	5
129	1
130	0
132	0
135	0
136	0
137	0
138	1
139	6
140	4
141	1
142	0
143	0
145	0
149	0
150	1
151	4
152	8
153	2
154	2
155	0
161	0
162	0
163	3
164	4
165	16
166	9
167	15
168	2
169	0
170	0
171	0
172	0
173	0
174	0
175	0
176	1
177	3
178	7
179	9
180	5
181	0
186	0
187	0
188	0
189	1
190	6
191	17
192	22
193	24
194	44
195	8
196	0
198	0
199	0
200	0
201	0
202	0
203	0
204	0
205	0
208	0
214	0
215	0
216	0
217	0
218	0
220	0
221	0
222	0
223	0
227	0
228	0
229	0
230	0
241	0
242	0
243	0
244	0
260	0
272	1
273	0
274	0
276	0
288	0
300	0
301	1
302	2
305	139
306	26
307	8
308	1
