Mass Spectrum: Cyclohexane-1-carboxamide, 3,5-di(tert-butyl)-N-(4-methylphenyl)-
Formula: C22H35NO
CAS: 296245-82-4
Molecular weight: 329
m/z	intensity
33	4
39	25
41	173
43	61
45	0
50	0
51	3
53	22
55	77
57	356
60	0
63	2
65	13
67	29
69	57
71	17
72	0
73	0
75	0
77	24
79	32
81	36
83	40
84	4
85	4
87	0
88	0
89	1
91	21
93	11
95	14
97	11
99	2
100	0
103	3
107	999
108	62
109	8
110	3
111	7
112	0
113	0
115	0
116	0
118	3
119	2
120	2
121	1
123	10
125	16
126	2
127	2
128	1
129	2
130	1
132	3
133	9
134	20
135	1
137	8
139	13
140	0
142	0
144	1
145	1
146	1
147	1
148	1
149	2
150	0
151	1
154	0
158	0
159	0
160	2
162	7
163	0
165	6
166	0
169	0
171	0
173	0
174	0
175	0
179	0
182	0
183	0
185	7
186	1
187	0
188	0
189	0
195	0
196	0
198	0
202	0
203	0
214	0
216	3
217	10
218	1
222	1
223	0
228	0
230	0
231	0
244	1
256	0
257	0
258	1
270	0
272	16
273	2
274	0
301	0
306	0
312	0
314	13
315	3
316	0
322	0
323	2
325	0
329	94
330	20
