Mass Spectrum: 4H-1,4-Benzothiazine-2-carboxylic acid, 6-trifluoromethyl-3-methyl-, benzyl ester
Formula: C18H14F3NO2S
CAS: 296247-15-9
Molecular weight: 365
m/z	intensity
33	0
34	0
37	1
39	86
41	36
42	13
43	6
45	81
47	4
48	0
49	0
51	72
52	18
54	22
55	2
57	4
59	31
60	1
63	59
65	166
66	8
67	4
69	33
70	7
71	8
72	1
74	6
75	16
77	63
78	14
79	17
80	1
81	3
82	4
83	5
84	1
85	0
87	3
89	40
91	999
92	60
93	6
94	5
95	10
96	1
97	0
98	0
99	2
100	1
101	4
102	4
103	6
105	15
106	5
107	11
108	29
109	5
110	1
111	0
112	1
113	5
114	4
115	3
116	3
117	16
118	3
119	9
120	7
121	3
122	1
123	2
125	11
126	9
127	6
128	7
129	10
130	2
132	11
133	22
134	10
135	7
136	1
137	2
138	6
139	8
140	3
141	0
142	0
143	4
144	9
145	22
146	4
147	2
148	3
149	1
150	1
151	7
152	3
153	0
157	65
158	7
159	12
160	10
161	9
162	2
163	1
164	3
165	2
166	30
167	2
169	6
170	4
171	2
172	1
173	0
174	0
175	2
176	11
177	66
178	10
179	5
180	1
181	0
182	1
183	7
184	15
185	8
186	15
187	1
188	5
189	5
190	3
191	0
192	1
193	0
196	13
197	5
198	18
199	3
200	0
201	1
202	2
203	7
204	21
205	2
206	0
208	4
209	1
210	21
211	10
212	3
213	0
214	0
215	0
216	4
217	2
218	11
219	1
220	0
223	0
225	0
226	0
227	0
228	16
229	11
230	383
231	66
232	23
233	3
234	0
236	0
237	0
242	0
243	4
244	35
245	4
246	2
254	0
256	7
257	3
258	11
259	1
260	0
261	0
272	1
273	1
274	27
275	4
276	1
279	0
280	1
281	0
286	1
287	0
288	3
289	0
291	2
292	0
304	2
305	1
306	10
307	1
308	0
314	4
315	0
318	0
320	5
321	1
322	0
332	1
333	0
346	13
347	3
348	0
350	2
351	0
364	3
365	196
366	41
367	12
368	1
369	0
