Mass Spectrum: Phenol, o-[(.alpha.-methylbenzyl)sulfonyl]-
Formula: C14H14O3S
CAS: 29634-38-6
Molecular weight: 262
m/z	intensity
39	31
45	8
50	11
51	32
52	11
53	9
63	16
64	6
65	32
70	5
76	5
77	95
78	35
79	90
80	6
91	10
94	8
96	18
97	8
102	8
103	70
104	57
105	999
106	91
107	5
113	9
124	10
126	8
141	8
142	24
262	7
