Mass Spectrum: Benzeneacetic acid, .alpha.-(acetylamino)-
Formula: C10H11NO3
CAS: 29633-99-6
Molecular weight: 193
m/z	intensity
43	173
50	20
51	73
52	13
77	183
78	31
79	39
104	69
105	46
106	999
107	106
120	17
149	17
151	546
152	53
193	52
194	10
