Mass Spectrum: Phosphinic chloride, [3,5-bis(1,1-dimethylethyl)phenyl](1,1-dimethylethyl)-
Formula: C18H30ClOP
CAS: 29634-14-8
Molecular weight: 328
m/z	intensity
39	127
41	505
55	67
56	53
57	999
58	53
77	33
91	111
105	67
115	84
116	20
117	84
118	23
119	20
128	80
129	80
130	6
131	67
132	16
133	87
134	3
140	23
141	16
142	33
143	37
144	16
146	33
159	94
174	87
175	53
189	6
201	3
221	47
222	3
237	13
241	13
257	962
258	195
259	336
260	47
271	33
272	892
273	168
274	313
275	47
293	3
313	228
314	53
315	87
316	23
328	165
329	74
330	87
331	6
