Mass Spectrum: Phenol, o-(2-butenylsulfinyl)-
Formula: C10H12O2S
CAS: 29634-48-8
Molecular weight: 196
m/z	intensity
39	260
40	56
41	4
43	4
45	43
50	65
51	82
53	173
54	213
55	999
56	43
57	8
63	39
64	21
65	126
66	21
94	26
95	26
96	343
97	82
98	13
124	178
125	39
126	56
141	82
142	734
143	43
144	39
196	43
