Mass Spectrum: 4,5-Dihydro-4,4-dimethyl-2-phenyl-1,3-oxazin-6-one
Formula: C12H13NO2
CAS: 29637-55-6
Molecular weight: 203
m/z	intensity
41	123
42	159
51	172
56	284
57	15
76	83
77	581
78	35
103	35
104	141
105	999
106	100
160	7
161	7
162	15
188	80
189	13
203	91
204	13
