Mass Spectrum: 1H-Imidazole-4-methanol, 5-methyl-
Formula: C5H8N2O
CAS: 29636-87-1
Molecular weight: 112
m/z	intensity
12	3
13	5
14	15
15	72
16	2
24	3
25	10
26	43
27	134
28	54
29	61
30	30
31	68
32	1
39	105
40	117
41	192
42	402
43	52
44	10
45	4
46	1
47	1
48	1
49	5
50	16
51	60
52	203
53	263
54	246
55	75
56	281
57	30
58	4
60	1
61	1
62	2
63	4
64	7
65	5
66	40
67	115
68	98
69	84
70	91
71	9
72	1
73	1
76	1
77	3
78	4
79	9
80	6
81	119
82	92
83	483
84	81
85	4
91	2
92	1
93	16
94	435
95	777
96	154
97	239
98	13
107	2
108	2
109	106
110	23
111	729
112	999
113	71
114	5
