Mass Spectrum: Cyclohexanone, 4-methylidene-
Formula: C7H10O
CAS: 29648-66-6
Molecular weight: 110
m/z	intensity
26	31
27	214
28	204
29	35
37	8
38	24
39	298
40	151
41	184
42	86
43	43
44	13
50	40
51	74
52	50
53	258
54	407
55	188
56	44
57	8
62	7
63	12
65	47
66	33
67	653
68	260
69	27
77	29
78	8
79	57
80	11
81	395
82	465
83	34
91	11
94	90
95	0
96	7
109	19
110	999
111	87
113	6
