Mass Spectrum: Silver trifluoroacetate
Formula: C2AgF3O2
CAS: 2966-50-9
Molecular weight: 220
m/z	intensity
31	16
44	387
45	100
47	89
50	233
51	59
66	23
69	999
70	20
78	12
85	19
95	13
97	197
99	10
107	706
109	650
123	17
125	16
135	14
137	13
151	24
153	21
157	11
159	10
214	150
216	266
218	128
230	30
232	54
233	90
234	26
235	158
237	78
243	4
245	3
283	2
285	3
287	1
327	320
328	9
329	516
330	16
331	280
332	9
