Mass Spectrum: Methanamine, N-(1-methyl-3-phenylpropylidene)-
Formula: C11H15N
CAS: 29666-60-2
Molecular weight: 161
m/z	intensity
39	70
41	60
42	180
51	60
56	999
57	140
65	80
70	110
77	60
84	150
91	190
105	150
146	250
160	130
161	380
