Mass Spectrum: Cyclopentane, 1-ethenyl-3-methylene-
Formula: C8H12
CAS: 29668-63-1
Molecular weight: 108
m/z	intensity
27	323
28	35
29	38
30	0
31	0
32	3
36	0
37	11
38	32
39	498
40	62
41	302
42	12
43	1
44	0
45	2
46	0
48	0
49	4
50	49
51	137
52	64
53	156
54	69
55	22
56	2
58	1
60	0
61	5
62	13
63	31
64	7
65	142
66	66
67	238
68	13
69	1
73	1
74	7
75	7
76	4
77	454
78	154
79	999
80	263
81	40
82	2
85	0
86	0
87	0
89	4
90	2
91	345
92	27
93	886
94	46
95	1
98	0
102	0
103	4
104	1
105	15
106	2
107	45
108	226
109	13
110	0
