Mass Spectrum: 9,10-Anthracenedione-2-sulfonamide, N-benzyl-N-(2-hydroxyethyl)-
Formula: C23H19NO5S
CAS: 296773-24-5
Molecular weight: 421
m/z	intensity
28	1
29	3
31	3
39	8
41	8
42	6
43	5
44	9
45	10
48	5
50	7
51	9
55	6
56	3
57	8
62	3
63	9
64	10
65	29
69	6
70	3
71	5
74	8
75	15
76	13
77	17
78	6
79	4
83	3
85	3
87	4
89	14
90	8
91	999
92	76
93	3
97	3
99	3
101	4
103	4
104	10
105	9
106	15
107	3
117	4
118	23
119	7
120	16
125	7
126	4
132	4
139	9
149	4
150	79
151	104
152	39
153	5
163	4
164	2
165	6
178	3
179	14
180	22
181	4
184	8
193	3
207	63
208	34
209	5
222	3
224	3
239	6
240	25
241	5
248	10
255	4
256	3
267	4
271	11
298	4
324	9
325	9
390	311
391	85
392	27
393	5
396	4
421	3
