Mass Spectrum: 3-Amino-N-benzyl-4,6-bis(2-thienyl)thieno[2,3-b]pyridine-2-carboxamide
Formula: C23H17N3OS3
CAS: 296797-07-4
Molecular weight: 447
m/z	intensity
33	239
34	48
36	3
37	15
39	373
40	405
41	90
42	75
44	439
45	244
46	27
47	13
48	4
50	30
51	173
52	50
53	17
55	28
56	46
57	43
58	47
60	25
61	16
63	101
65	317
66	21
67	9
69	81
70	30
71	42
72	25
74	27
75	33
76	50
77	154
78	62
79	111
80	35
81	39
82	52
83	36
84	22
85	14
87	27
88	33
89	71
91	999
92	66
93	25
94	19
95	19
96	17
97	32
98	9
99	13
100	18
101	17
102	15
103	36
104	106
106	476
107	75
108	68
109	58
110	31
111	72
112	23
113	25
114	28
115	24
116	10
117	13
118	34
119	40
120	20
121	25
122	9
123	5
124	7
126	13
127	45
128	9
129	3
132	34
133	47
134	41
135	12
136	13
137	17
138	9
139	19
140	29
141	15
142	3
144	9
145	17
146	52
147	54
148	38
149	24
151	22
152	9
153	7
154	2
156	8
157	16
158	33
159	22
160	11
161	13
163	7
164	27
165	9
169	14
170	25
171	35
172	9
176	9
177	14
178	9
179	11
183	16
184	10
185	22
187	30
188	3
189	11
190	13
191	22
192	7
193	14
194	12
195	23
196	62
197	15
198	4
200	2
201	9
202	41
203	17
204	6
207	7
208	9
209	20
210	9
211	6
213	2
214	7
215	10
216	3
217	2
220	39
221	17
222	15
223	15
224	16
225	9
227	10
228	29
229	30
230	9
234	24
235	30
236	4
237	4
239	9
240	21
241	26
242	12
243	6
252	21
253	20
254	19
255	12
256	14
265	6
266	23
267	61
268	30
269	34
270	5
278	4
279	22
280	19
281	19
282	12
284	14
285	14
286	8
287	3
288	3
297	7
299	32
300	70
301	138
302	33
303	19
307	16
309	24
311	168
312	162
313	274
314	560
315	145
316	79
317	15
328	9
338	12
339	79
340	29
341	163
342	31
343	21
372	30
373	20
374	7
407	9
409	9
443	8
445	14
447	415
448	96
449	60
450	10
