Mass Spectrum: 2-Amino-4-thiazoleacetic acid
Formula: C5H6N2O2S
CAS: 29676-71-9
Molecular weight: 158
m/z	intensity
15	9
16	9
18	2
25	1
26	7
27	20
28	47
29	4
30	1
32	5
33	3
34	2
37	6
38	11
39	72
40	24
41	23
42	129
43	101
44	384
45	165
46	56
47	10
48	3
51	4
52	7
53	9
54	13
55	9
56	3
57	15
58	6
59	9
60	36
61	23
62	2
63	1
66	2
67	10
68	6
69	40
70	19
71	421
72	367
73	62
74	22
75	2
76	2
81	22
82	2
83	1
85	4
86	12
87	30
88	2
89	1
97	1
112	2
113	45
114	999
115	69
116	45
117	2
140	2
158	27
159	2
160	1
