Mass Spectrum: Benzothiophene-3-carboxamide, 4,5,6,7-tetrahydro-2-benzoylamino-N-cyclohexyl-
Formula: C22H26N2O2S
CAS: 296770-68-8
Molecular weight: 382
m/z	intensity
34	1
35	1
36	5
37	3
38	7
39	38
40	19
41	103
42	16
43	34
44	19
45	16
46	0
47	3
50	21
51	80
52	11
53	16
54	16
55	102
56	47
57	13
58	5
59	4
60	5
61	0
62	1
63	6
64	6
65	22
66	8
67	25
68	5
69	14
70	13
71	12
72	2
73	2
74	4
75	5
76	22
77	551
78	46
79	23
80	8
81	15
82	13
83	21
84	10
85	5
86	2
87	1
88	1
89	6
90	6
91	48
92	9
93	6
94	3
95	5
96	8
97	14
98	68
99	13
100	181
101	13
102	2
103	4
104	18
105	999
106	90
107	7
108	3
109	5
110	6
111	11
112	6
113	3
115	2
116	22
117	20
118	24
119	12
120	5
121	13
122	19
123	29
124	14
125	8
126	2
127	0
128	1
129	1
130	0
131	3
132	2
133	4
134	12
135	8
136	9
137	4
138	3
139	3
140	1
141	2
142	0
143	5
144	9
145	4
146	11
147	4
148	5
149	9
150	100
151	89
152	29
153	8
154	5
155	1
157	1
159	1
160	3
161	12
162	7
163	5
164	4
165	8
166	4
167	8
168	1
170	0
171	12
172	1
174	8
175	4
176	12
177	33
178	717
179	162
180	190
181	26
182	9
183	1
185	2
186	2
187	1
188	1
189	1
190	1
191	1
192	2
193	6
194	1
195	6
198	0
199	1
200	0
204	2
205	1
206	4
207	4
208	0
211	1
212	0
215	0
217	0
218	1
219	1
220	2
221	2
222	1
223	1
224	1
225	0
226	3
227	9
228	4
229	1
232	1
233	2
234	1
236	0
238	2
239	4
240	2
241	1
249	0
253	1
254	12
255	86
256	27
257	15
258	5
259	2
260	46
261	12
262	3
263	0
266	1
267	0
268	4
269	1
275	4
276	1
277	9
278	4
279	8
280	6
281	6
282	51
283	628
284	150
285	51
286	8
287	0
292	0
299	1
300	2
301	1
364	0
378	3
379	1
380	4
382	397
383	99
384	32
385	4
