Mass Spectrum: Urea, 1-(3-chlorophenyl)-3-[3-(1-piperidyl)propyl]-
Formula: C15H22ClN3O
CAS: 296799-80-9
Molecular weight: 295
m/z	intensity
29	26
30	143
31	2
32	3
39	19
40	3
41	148
42	155
43	53
44	145
45	3
48	0
50	2
51	3
52	1
53	4
54	10
55	97
56	96
57	29
58	17
61	1
62	4
63	15
64	7
65	12
66	0
67	7
68	18
69	45
70	73
71	9
72	2
73	4
74	1
75	5
76	2
77	1
80	0
81	2
82	22
83	24
84	279
85	26
86	7
87	1
88	0
89	1
90	15
91	7
92	9
93	9
94	1
95	1
96	26
97	32
98	999
99	132
100	8
101	3
102	0
108	0
109	1
110	21
111	25
112	107
113	22
118	0
119	0
120	0
122	0
123	1
124	45
125	25
126	19
127	77
128	13
129	25
130	1
132	0
137	0
138	0
139	4
140	2
141	2
142	5
143	0
147	1
152	0
153	51
154	8
155	16
156	0
164	0
167	8
168	7
169	267
170	28
171	1
175	0
177	0
181	0
191	0
206	0
211	8
212	0
213	2
220	3
221	0
226	0
233	0
234	0
235	0
239	0
249	3
252	0
261	0
292	2
293	2
294	10
295	107
296	49
297	29
298	3
