Mass Spectrum: 7-(4-Amino-2,6-dimethyl-5-pyrimidinyl)-2,4,5-trimethylpyrido[2,3-d]pyrimidine
Formula: C16H18N6
CAS: 296796-49-1
Molecular weight: 294
m/z	intensity
37	5
38	32
39	119
40	51
42	999
43	48
44	7
50	20
51	71
52	57
53	33
54	20
55	7
56	0
57	2
61	0
62	14
63	71
64	71
65	93
66	77
67	27
68	3
69	0
71	0
75	33
76	42
77	68
78	36
79	17
80	4
81	1
84	0
85	2
86	0
87	6
88	14
89	29
90	28
91	16
92	8
93	3
98	0
99	1
100	9
101	26
102	60
103	18
104	19
105	22
106	20
107	5
113	8
114	14
115	18
116	27
117	10
118	5
119	7
120	0
127	59
128	24
129	32
130	9
131	7
132	1
139	2
140	7
141	6
142	15
143	31
144	5
145	1
146	0
147	2
152	0
153	9
154	8
155	15
156	18
157	4
158	2
160	0
167	3
168	5
169	11
170	29
171	5
172	1
173	0
180	3
181	1
182	2
183	0
184	9
185	0
194	6
195	4
196	10
197	10
198	3
199	1
209	1
210	3
211	16
212	7
221	2
222	2
223	0
225	5
235	4
236	3
237	26
238	44
239	3
252	15
253	0
279	154
280	27
281	0
293	129
294	74
295	9
