Mass Spectrum: 1-Benzoyl-3-hydroxy-2-(3-nitro-phenyl)-imidazolidin-4-one
Formula: C16H13N3O5
CAS: 296798-97-5
Molecular weight: 327
m/z	intensity
33	1
34	1
36	6
37	2
38	8
39	25
40	12
41	10
42	6
43	8
44	12
45	3
46	2
48	1
50	57
51	118
52	12
53	4
54	1
55	3
56	12
57	2
58	0
59	0
60	1
61	1
62	5
63	18
64	12
65	14
66	2
67	0
68	0
69	2
70	1
71	1
72	0
73	1
74	11
75	25
76	67
77	429
78	35
79	2
80	1
81	1
82	0
83	0
84	0
85	0
86	0
87	0
88	2
89	22
90	22
91	9
92	4
93	2
94	0
95	0
96	0
97	0
100	0
101	1
102	9
103	22
105	999
106	74
107	4
108	0
109	1
110	0
111	0
112	0
115	1
116	7
117	21
118	4
119	4
120	2
121	2
122	4
123	1
126	0
128	0
129	0
130	1
131	4
133	19
134	134
135	12
136	1
137	0
139	1
140	0
145	0
146	1
147	3
148	1
149	5
150	3
151	1
152	1
153	0
154	0
155	0
159	1
161	49
162	198
163	27
164	3
165	1
166	3
167	3
168	0
171	0
176	0
177	1
178	0
179	1
180	0
181	0
182	0
183	1
188	1
189	12
190	1
191	0
192	0
193	0
194	1
195	0
199	0
201	0
203	0
204	0
205	3
206	1
207	0
210	0
211	3
212	0
223	0
225	0
270	0
281	0
299	0
308	0
310	23
311	3
327	0
