Mass Spectrum: Benzofurane-2-carboxylic acid, 3-(4-methyl-1-piperazinylmethyl)-, ethyl ester
Formula: C17H22N2O3
CAS: 296798-20-4
Molecular weight: 302
m/z	intensity
29	354
30	108
31	83
32	25
33	0
34	1
39	16
40	26
41	112
42	838
43	817
44	652
45	1
47	1
49	1
50	6
51	27
52	12
53	8
54	51
55	169
56	999
57	149
58	146
59	33
60	27
61	2
62	0
63	13
64	0
65	23
66	0
68	1
69	55
70	127
71	73
72	22
73	4
75	0
76	5
77	78
78	2
79	6
80	1
81	20
82	28
83	76
84	52
85	190
86	10
87	11
88	3
89	25
90	4
91	240
92	19
93	5
94	0
95	22
96	17
97	150
98	122
99	920
100	42
101	28
102	180
103	54
104	5
105	1
108	0
109	68
110	15
111	126
112	17
113	28
114	8
115	66
116	18
117	10
118	15
119	40
120	3
121	3
123	0
125	0
127	2
128	9
129	68
130	147
131	343
132	46
133	8
135	0
136	1
137	3
139	8
140	2
141	7
142	1
143	16
144	42
145	96
146	20
147	156
148	7
149	20
150	0
152	0
153	0
154	0
155	2
156	11
157	38
158	68
159	93
160	9
167	0
168	1
169	3
170	42
171	4
172	37
173	53
174	48
175	692
176	109
177	6
181	0
183	2
184	5
185	89
186	127
187	19
188	9
189	4
190	6
191	1
192	1
199	2
200	10
201	21
202	30
203	54
204	65
205	3
211	0
212	4
213	7
214	85
215	39
216	37
217	7
218	44
219	1
227	0
229	12
230	7
231	130
232	41
233	3
242	0
243	2
244	80
245	96
246	22
247	0
255	0
256	1
257	4
258	2
259	0
260	4
261	0
272	4
273	151
274	65
275	4
285	6
286	0
299	1
300	21
301	235
302	408
303	102
304	6
