Mass Spectrum: Acetamide, N-(2-benzoyl-3-benzofuryl)-2-(4-methyl-1-piperazinyl)-
Formula: C22H23N3O3
CAS: 296797-74-5
Molecular weight: 377
m/z	intensity
29	11
30	14
36	0
39	0
40	0
41	14
42	190
43	142
44	61
45	0
51	1
54	2
55	10
56	109
57	27
58	53
59	1
64	0
68	2
69	3
70	624
71	95
72	22
76	2
77	38
78	2
80	0
81	0
82	12
83	15
84	94
85	17
86	4
89	0
90	1
91	6
95	0
96	1
97	15
98	65
99	68
100	4
101	3
102	5
103	3
104	3
105	84
106	5
110	0
111	47
112	111
113	999
114	196
115	9
116	0
120	0
125	0
127	1
130	10
131	0
132	0
138	0
139	4
140	121
141	29
142	0
145	0
146	14
151	0
152	1
153	0
155	19
158	0
159	0
160	3
165	1
172	7
173	4
178	0
179	4
180	7
181	0
185	0
186	31
187	1
190	0
201	0
207	2
208	0
220	1
221	0
229	1
235	2
236	22
237	12
238	11
239	0
249	0
250	8
251	1
262	0
263	0
264	6
265	0
271	0
272	28
273	2
320	46
321	25
322	2
334	10
335	6
362	0
375	0
376	5
377	244
378	68
379	9
380	0
381	0
