Mass Spectrum: Oxamide, N-cyclopropyl-N'-(2-furfuryl)-
Formula: C10H12N2O3
CAS: 296773-01-8
Molecular weight: 208
m/z	intensity
34	0
37	3
39	98
40	30
41	155
42	13
43	13
44	27
45	0
50	7
51	25
52	26
53	202
54	30
55	13
56	156
57	71
58	51
59	1
62	0
64	0
65	1
66	5
67	5
68	14
69	19
70	4
71	3
72	1
77	0
78	2
79	3
81	999
82	116
83	15
84	216
85	27
86	1
87	0
91	3
94	24
95	32
96	281
97	29
99	25
100	2
101	0
106	0
107	6
108	4
109	2
110	1
111	1
113	0
114	0
120	2
121	4
122	12
123	5
124	0
125	4
127	68
128	3
129	0
134	0
135	2
136	7
137	5
138	0
139	29
140	15
141	1
148	0
149	0
151	3
152	1
153	5
162	0
163	54
164	22
165	5
166	0
167	2
168	0
177	0
178	0
180	45
181	4
189	2
190	2
191	8
207	20
208	121
209	15
210	1
