Mass Spectrum: Pyrimidine-2,4(1H,3H)-dione, 5-bromo-1-(1-methoxyethyl)-
Formula: C7H9BrN2O3
CAS: 296879-03-3
Molecular weight: 248
m/z	intensity
33	31
39	8
40	142
41	14
43	84
44	7
51	2
53	37
55	3
58	131
59	999
60	26
82	3
118	3
120	5
149	4
169	14
174	5
176	5
191	3
248	10
250	12
