Mass Spectrum: Benzimidazol-2(3H)-one, 1,3-diacetyl-5-bromo-
Formula: C11H9BrN2O3
CAS: 296876-83-0
Molecular weight: 296
m/z	intensity
37	2
38	5
39	5
40	3
43	999
45	1
50	13
51	16
52	12
53	3
54	1
61	3
62	5
63	9
64	9
65	2
66	0
70	0
74	2
75	10
76	28
77	22
78	19
79	10
80	1
81	2
82	0
86	0
88	6
89	2
90	5
91	2
92	0
93	0
100	0
101	1
103	19
104	13
105	63
106	40
107	2
116	0
117	2
118	5
119	3
120	0
129	0
130	0
131	7
134	289
135	17
136	0
141	0
143	0
144	0
145	0
147	4
155	0
156	5
157	3
158	5
159	3
160	1
168	3
170	3
171	0
174	1
176	60
177	4
178	0
182	4
184	33
185	4
186	26
196	0
197	1
198	0
199	0
209	0
212	483
214	514
215	34
216	1
218	45
219	5
220	0
225	0
227	0
238	3
240	2
254	144
256	153
257	13
258	1
290	6
291	0
292	11
293	0
294	4
296	72
297	9
298	72
299	7
300	0
