Mass Spectrum: 2-Pyrazolin-5-ol, 3-methyl-5-(3-pyridyl)-1-(3-pyridylcarbonyl)-
Formula: C15H14N4O2
CAS: 296888-19-2
Molecular weight: 282
m/z	intensity
33	2
34	0
36	0
37	1
38	8
39	32
40	12
41	31
42	24
43	10
44	3
45	1
46	0
50	46
51	190
52	37
53	21
54	8
55	14
56	3
57	1
58	0
59	0
60	0
61	0
62	1
63	7
64	5
65	12
66	5
67	3
68	2
69	4
70	5
71	1
72	0
73	1
74	1
75	4
76	13
78	748
79	156
80	17
81	1
82	1
83	1
84	0
87	0
89	2
90	2
91	10
92	11
93	35
94	4
95	0
96	0
98	0
99	0
100	1
101	1
102	2
103	5
104	16
106	999
107	65
108	6
109	0
111	0
112	0
115	0
116	1
117	4
118	8
119	10
121	559
122	42
123	3
124	1
127	0
128	1
130	16
131	5
132	8
133	18
134	2
135	2
136	1
137	1
139	0
141	0
144	0
146	13
147	15
148	23
149	2
150	0
155	0
156	0
157	0
158	3
159	10
160	15
162	396
163	36
164	1
165	0
168	0
169	0
170	0
173	1
176	6
177	0
183	2
184	2
185	0
195	0
196	0
197	0
198	0
199	0
204	4
205	0
208	0
211	0
212	0
225	0
235	0
236	0
237	0
238	0
239	0
249	0
253	0
254	0
263	0
264	1
265	7
266	1
267	2
268	0
270	0
272	0
282	14
283	2
284	0
