Mass Spectrum: 1,3-Dithiolo[4,5-b][1,4]-dithiin-5(6H)-one, 6-methyl-2-thioxo-
Formula: C6H4OS5
CAS: 296877-25-3
Molecular weight: 252
m/z	intensity
33	15
34	8
36	0
37	2
38	5
39	19
40	15
41	3
42	2
44	168
45	169
46	11
47	7
53	3
55	118
56	163
58	65
59	282
60	73
61	11
62	4
64	112
66	14
69	21
71	82
72	65
76	937
78	129
79	3
80	2
81	1
83	19
84	92
85	6
88	999
90	121
92	12
96	2
97	0
98	0
99	5
100	14
101	3
103	12
104	16
105	1
106	1
107	0
108	10
109	1
110	1
112	2
113	2
115	57
116	7
117	8
120	594
122	89
123	2
124	4
127	0
132	5
133	1
148	45
150	10
152	6
154	0
159	2
160	7
161	0
163	0
164	6
165	6
166	3
167	0
174	2
176	125
178	27
180	13
182	2
190	0
191	17
192	3
193	6
194	7
196	190
197	15
198	39
199	2
200	2
206	0
207	2
209	100
211	29
213	1
221	0
222	1
224	84
225	8
226	17
227	1
228	1
248	5
249	12
250	23
252	518
253	51
254	113
255	16
