Mass Spectrum: Benzoic acid, 2-diethylaminnocarbonyl-, 2-propynyl ester
Formula: C15H17NO3
CAS: 296883-72-2
Molecular weight: 259
m/z	intensity
37	99
38	443
39	999
40	42
42	178
44	40
45	32
50	130
51	42
53	81
55	137
56	173
57	15
58	13
62	9
63	14
64	16
65	33
66	2
68	1
70	17
72	455
74	52
75	91
76	235
77	149
78	5
79	2
87	2
89	2
90	8
91	12
92	10
93	9
96	2
100	2
102	17
103	87
104	97
105	130
106	4
112	3
115	29
119	4
121	9
122	1
130	101
131	47
133	290
134	16
143	18
146	6
147	7
148	23
149	173
150	9
159	256
160	88
161	11
174	29
175	15
176	124
177	15
187	205
188	26
189	3
200	2
202	99
203	26
204	41
220	4
258	387
259	99
260	8
