Mass Spectrum: Pyridine-3-carboxylic acid, 1,2-dihydro-5-benzylaminocarbonyl-6-methyl-2-oxo-, methyl ester
Formula: C16H16N2O4
CAS: 296892-54-1
Molecular weight: 300
m/z	intensity
33	2
37	4
38	12
39	30
40	6
41	9
42	46
43	7
44	7
50	27
51	66
52	47
53	35
54	8
55	3
56	0
59	16
62	10
63	24
64	17
65	54
67	27
68	8
69	3
74	10
75	8
77	114
78	64
79	118
80	13
81	4
83	9
85	2
89	22
91	164
92	16
93	7
94	8
95	6
96	4
97	0
100	0
102	0
104	66
106	999
107	114
108	22
110	4
111	0
116	0
117	1
120	6
121	10
123	10
124	5
128	0
132	2
134	14
135	45
136	34
137	5
141	1
150	0
151	2
152	5
153	0
162	133
163	9
164	1
166	24
167	106
168	13
169	0
176	1
179	0
180	2
193	37
194	70
195	11
196	2
221	2
222	4
223	2
225	1
253	3
265	1
267	2
269	25
270	4
271	1
282	20
283	18
284	1
300	252
301	50
302	4
303	0
