Mass Spectrum: Ethanone, 1-[1-(3-methyl-4-furoxanyl)-5-methyl-1,2,3-triazol-4-yl)-
Formula: C8H9N5O3
CAS: 296892-75-6
Molecular weight: 223
m/z	intensity
33	1
34	0
37	26
39	425
41	59
43	999
45	2
46	1
50	23
51	41
52	61
53	58
54	46
55	12
56	3
57	6
58	5
60	0
61	1
62	3
63	8
64	9
67	716
69	10
70	3
71	0
73	0
74	0
75	2
76	2
77	3
78	8
80	46
81	18
82	30
83	33
84	3
85	2
86	0
87	0
88	0
89	0
90	2
93	273
94	12
95	2
96	2
97	1
98	0
99	0
100	0
101	0
104	0
105	2
106	5
108	129
110	2
111	0
112	0
118	0
120	31
121	2
122	2
124	34
125	1
126	0
133	1
134	2
135	3
136	5
137	1
140	0
148	0
149	1
151	0
163	7
165	35
166	2
167	0
193	60
194	4
195	0
207	1
208	4
209	0
223	10
224	1
