Mass Spectrum: 1,2,3-1H-Triazole-4-carboxylic acid, 5-methyl-1-(3-methyl-4-furoxanyl)-, ethyl ester
Formula: C9H11N5O4
CAS: 296892-65-4
Molecular weight: 253
m/z	intensity
33	17
34	2
37	32
38	84
39	504
40	102
41	93
42	269
43	367
45	102
46	4
47	0
48	0
50	10
51	27
52	70
53	73
54	150
55	115
56	166
57	56
58	19
59	14
60	2
61	0
63	4
64	18
66	358
67	999
68	129
69	102
70	150
71	12
73	18
74	0
75	1
76	3
77	6
78	14
80	186
81	144
82	220
83	349
84	58
85	114
86	7
87	1
88	2
90	5
91	16
92	84
93	99
94	41
95	9
96	7
97	16
98	30
99	9
100	2
101	2
102	2
103	1
104	2
105	8
106	19
108	112
109	66
110	214
111	30
112	6
113	7
114	2
115	7
116	0
118	1
120	37
121	35
122	21
124	35
126	290
127	17
128	1
130	9
131	1
132	0
133	9
134	2
135	8
136	16
137	57
138	20
139	4
140	8
141	4
142	0
143	2
146	0
147	0
148	2
149	12
150	5
151	9
152	2
153	1
154	1
155	1
156	1
157	2
163	1
164	2
165	4
166	51
167	52
168	5
169	1
170	0
171	1
172	0
177	0
178	1
179	3
180	3
181	18
182	1
183	1
184	0
187	0
189	0
191	0
193	89
194	9
195	5
196	1
197	0
199	0
201	0
206	0
208	95
209	14
210	0
211	0
213	0
215	0
216	0
221	1
222	2
223	156
224	17
225	2
226	0
227	1
229	0
230	1
