Mass Spectrum: Benzene-1,2-dicarboxylic acid, 1,1-dimethyl-2-propynyl ester
Formula: C13H12O4
CAS: 296881-56-6
Molecular weight: 232
m/z	intensity
33	4
37	93
38	94
39	232
40	17
41	14
45	322
47	15
49	37
50	415
51	183
53	97
55	13
56	2
57	0
59	0
61	26
62	19
63	48
65	349
66	39
67	16
69	4
74	230
75	109
76	248
77	308
78	41
79	1
80	0
81	2
83	6
84	17
85	2
86	0
90	0
92	55
93	112
94	36
95	3
101	1
105	999
106	33
107	2
119	4
122	859
124	2
141	1
148	11
149	132
150	7
166	84
167	4
168	0
