Mass Spectrum: Benzimidazole, 1-(2,2-dibromo-1-methylcyclopropanoyl)-
Formula: C12H10Br2N2O
CAS: 296875-07-5
Molecular weight: 356
m/z	intensity
33	2
34	0
37	56
38	109
39	318
40	57
41	253
43	22
45	2
50	180
51	486
52	286
53	999
54	55
56	1
57	4
59	10
62	103
63	263
64	218
65	51
66	14
67	9
69	97
70	10
71	12
72	10
74	13
75	38
76	60
77	37
78	13
79	13
81	258
82	17
83	3
85	154
87	10
88	25
90	503
91	143
92	16
93	6
94	2
95	3
98	1
99	29
101	7
102	56
103	13
105	31
106	5
107	24
109	6
113	0
114	4
115	27
116	17
117	63
118	226
119	45
120	3
121	4
122	0
123	0
124	7
125	5
127	3
128	10
129	100
131	461
132	92
133	387
134	66
135	3
138	4
139	4
140	8
142	9
143	29
144	8
145	47
146	4
147	1
149	1
152	0
153	1
155	17
156	3
157	4
158	1
160	163
162	160
163	7
165	1
167	10
169	452
170	884
171	115
172	20
174	2
175	4
179	0
181	1
182	0
183	4
184	2
185	5
186	1
187	0
195	2
197	102
198	101
199	14
200	2
205	2
207	2
208	3
211	400
213	733
215	362
216	10
221	0
222	4
223	1
224	5
225	2
227	3
229	1
233	1
234	1
235	1
236	2
237	2
238	33
239	146
240	67
241	274
242	42
243	135
244	6
245	0
246	0
247	8
249	480
250	77
251	441
252	54
253	2
260	0
261	0
262	1
263	0
274	0
275	5
276	16
277	133
278	36
279	127
280	15
281	1
289	0
314	0
353	0
356	171
357	33
358	311
359	44
360	147
361	22
362	1
