Mass Spectrum: Cyclopropanecarboxamide, 2,2-dichloro-1-methyl-N-(1,2,4-triazol-3-yl)-
Formula: C7H8Cl2N4O
CAS: 296874-96-9
Molecular weight: 234
m/z	intensity
33	63
34	4
35	29
36	66
37	52
38	85
39	247
40	128
41	559
42	536
43	379
44	35
47	38
49	88
50	192
51	667
52	144
53	451
54	220
55	89
57	163
60	35
61	186
62	44
63	90
64	17
65	23
66	30
67	23
69	353
70	55
71	10
72	17
73	51
74	9
75	26
76	11
77	18
78	7
79	10
81	92
82	46
83	117
84	178
85	110
87	999
89	386
90	22
91	8
92	4
93	10
94	16
96	89
97	51
98	46
100	22
101	8
102	55
103	29
104	24
105	12
106	6
107	12
108	15
109	19
110	40
111	22
112	16
113	16
115	83
116	32
117	30
118	12
119	4
120	5
121	24
122	160
123	593
124	110
125	375
126	33
127	67
129	136
130	27
131	57
132	11
133	13
134	7
135	41
136	32
137	35
138	71
139	20
140	12
141	3
142	5
143	5
144	22
145	4
146	8
147	2
150	604
151	344
152	356
153	188
154	63
155	42
157	19
159	6
160	1
161	1
163	141
164	22
165	13
166	8
167	7
168	5
169	16
171	701
172	68
173	209
174	18
175	3
177	0
178	4
179	1
180	2
181	1
182	3
184	1
189	0
191	24
193	48
194	7
195	14
196	4
197	5
198	23
199	132
200	19
201	40
202	5
203	1
206	101
208	76
209	5
210	10
211	3
213	8
215	13
216	1
217	10
218	0
219	8
221	6
223	0
233	65
234	182
235	60
236	118
237	16
238	22
240	12
