Mass Spectrum: Xylopyranoside, methyl, 3-acetate 2,4-dimethanesulfonate, .alpha.-D-
Formula: C10H18O10S2
CAS: 29709-43-1
Molecular weight: 362
m/z	intensity
41	22
42	6
43	999
44	22
45	58
57	31
58	2
69	54
70	4
73	26
79	117
80	1
85	207
86	20
97	63
98	4
111	13
112	1
127	117
128	5
135	6
151	8
163	49
164	3
175	17
193	4
207	4
223	135
224	6
229	2
242	2
271	3
283	1
303	1
331	1
362	0
