Mass Spectrum: 4-bromo-2,5-Dimethoxyamphetamine
Formula: C11H16BrNO2
CAS: 29705-96-2
Molecular weight: 273
m/z	intensity
40	4
41	9
42	43
44	999
45	27
46	1
50	14
51	23
52	7
53	24
54	4
55	3
56	2
57	3
59	2
60	1
61	3
62	9
63	25
64	16
65	21
66	6
67	8
68	2
69	1
70	1
73	1
74	8
75	14
76	16
77	72
78	23
79	16
80	5
81	4
82	3
85	1
86	2
87	2
88	1
89	18
90	18
91	36
92	19
93	11
94	4
95	1
100	1
101	1
102	3
103	4
104	6
105	33
106	10
107	10
108	10
109	2
114	1
115	1
116	2
117	5
118	5
119	8
120	10
121	18
122	7
124	1
128	1
129	2
130	2
131	3
132	3
133	5
134	4
135	6
136	5
137	2
141	1
143	11
145	11
146	4
147	5
148	4
149	8
150	4
151	3
152	1
154	1
155	2
156	2
157	3
158	3
159	2
160	1
161	3
162	5
163	6
164	5
165	1
169	4
170	1
171	9
172	3
173	4
174	1
175	1
176	1
177	1
178	2
179	3
180	1
184	4
185	2
186	9
187	3
188	5
189	2
192	1
193	1
196	1
197	1
199	13
200	3
201	15
202	2
203	2
211	1
212	1
213	1
215	15
216	4
217	12
218	2
224	1
225	1
226	1
227	2
230	86
232	80
233	7
234	1
240	1
242	2
243	1
244	1
245	1
256	1
257	1
258	1
259	1
260	1
272	1
273	1
274	1
275	2
276	1
