Mass Spectrum: .alpha.-D-Xylopyranoside, methyl, 2,4-dimethanesulfonate
Formula: C8H16O9S2
CAS: 29709-44-2
Molecular weight: 320
m/z	intensity
43	70
44	22
45	91
46	6
57	267
58	15
61	53
62	3
79	999
80	30
85	351
86	22
97	61
98	1
175	19
176	1
181	39
182	1
193	7
241	2
271	1
289	1
320	1
