Mass Spectrum: 2-(4-Bromophenyl)-5-(2-nitrophenyl)-1,3,4-oxadiazole
Formula: C14H8BrN3O3
CAS: 297148-49-3
Molecular weight: 345
m/z	intensity
37	82
38	169
39	176
50	800
51	217
52	59
61	123
62	441
63	290
64	148
73	62
74	284
75	727
76	999
77	74
85	47
86	116
87	164
88	332
89	53
90	190
91	59
92	236
102	219
103	82
104	608
105	47
120	109
134	79
150	494
151	52
152	81
155	341
157	350
163	186
164	299
181	46
183	799
184	90
185	703
186	47
210	85
243	86
245	82
345	266
346	51
347	220
