Mass Spectrum: Benzamide, 4-methyl-N-[1-(2-chlorobenzylideno)-2-oxo-2-(1-pyperidyl)ethyl]-
Formula: C22H23ClN2O2
CAS: 297147-71-8
Molecular weight: 382
m/z	intensity
34	1
36	1
37	1
38	4
39	32
40	23
41	88
42	35
43	34
44	16
45	3
50	6
51	11
52	4
53	6
54	6
55	34
56	45
57	30
58	2
59	1
60	1
61	1
62	5
63	19
64	7
65	92
66	6
67	9
68	5
69	50
70	21
71	16
72	2
73	3
74	2
75	3
76	4
77	11
78	10
79	2
80	2
81	2
82	6
83	13
84	247
85	86
86	9
87	3
88	8
89	58
90	30
91	357
92	31
93	4
95	2
96	1
97	6
98	5
99	3
100	1
101	3
102	2
103	1
104	1
105	7
106	1
107	1
108	0
109	1
110	3
111	5
112	38
113	12
114	11
115	37
116	25
117	11
118	17
119	999
120	97
121	8
122	1
123	7
124	6
125	20
126	4
127	7
128	2
129	6
130	2
131	2
133	1
134	0
135	3
136	5
137	2
138	1
139	4
140	1
141	2
142	1
143	3
144	4
145	2
146	2
147	2
148	1
149	2
150	8
151	39
152	37
153	17
154	9
155	2
156	1
157	4
158	2
160	1
161	1
163	3
164	1
165	3
166	1
167	1
170	1
171	30
172	4
173	1
175	1
176	1
177	1
178	3
179	1
180	3
181	1
182	1
183	1
184	8
185	3
186	2
187	2
188	0
189	4
190	3
191	3
192	2
193	1
194	1
198	1
199	3
200	1
203	1
204	1
205	0
206	2
207	1
208	3
209	0
210	1
212	3
213	1
218	3
219	3
220	1
221	1
225	1
227	4
228	1
229	0
232	1
233	2
234	6
235	6
236	5
237	2
239	1
240	1
241	2
243	1
246	3
247	12
248	7
249	4
250	1
252	1
253	2
254	1
255	1
256	1
257	1
262	46
263	217
264	47
265	70
266	13
267	2
268	1
269	3
270	2
271	11
272	2
273	3
275	1
283	13
284	3
296	3
297	85
298	50
299	48
300	20
301	13
302	1
315	1
329	70
330	17
331	2
347	31
348	8
355	0
363	0
364	2
365	1
366	1
368	1
382	132
383	32
384	45
385	12
386	1
