Mass Spectrum: Thiophene-3-carboxylic acid, 4,5-dihydro-5-(2-furfurylideno)-4-oxo-2-phenylamino-, ethyl ester
Formula: C18H15NO4S
CAS: 297159-79-6
Molecular weight: 341
m/z	intensity
33	4
34	1
35	0
36	0
37	5
39	94
40	12
41	7
42	6
43	14
45	72
46	5
47	2
51	223
52	32
53	29
54	3
55	6
57	10
58	5
59	1
60	1
62	15
63	51
64	23
65	30
66	7
67	5
69	76
70	74
71	13
72	5
73	3
74	6
75	17
77	475
78	38
79	5
80	4
81	10
82	5
83	2
84	4
85	10
86	2
87	5
89	79
90	23
91	9
92	17
93	29
95	135
96	164
97	64
98	12
99	3
100	1
101	2
103	15
104	20
105	7
106	2
107	2
108	8
109	8
111	4
112	2
113	3
114	6
116	59
117	21
118	4
119	15
120	15
121	13
124	999
125	60
126	41
128	7
129	1
130	2
131	0
132	2
134	20
136	10
137	6
138	12
139	3
140	2
141	4
143	72
144	82
146	13
147	7
148	12
149	4
151	13
152	12
153	3
154	2
155	0
156	1
159	2
160	2
161	2
162	4
163	1
164	1
165	1
166	3
167	3
168	2
169	2
170	2
171	3
172	2
173	1
174	1
175	2
176	2
177	2
178	2
179	1
180	1
181	0
182	0
183	1
184	2
185	2
186	1
187	1
188	8
190	24
191	3
192	1
193	0
194	0
195	1
196	1
197	0
198	0
199	0
200	0
201	0
202	1
203	1
204	2
205	0
207	2
208	1
209	2
210	8
211	3
212	3
213	1
214	0
215	1
216	2
217	6
218	5
219	1
220	0
221	0
222	1
223	2
224	0
225	0
226	0
227	0
228	0
229	1
230	0
231	0
234	1
235	1
236	0
238	5
239	6
240	5
241	7
242	1
243	0
244	0
245	0
248	0
249	0
251	4
252	2
253	0
254	2
255	0
256	0
262	0
263	3
264	1
266	6
267	17
268	9
269	2
270	0
275	0
277	0
278	1
280	2
281	0
282	0
289	0
291	3
292	7
294	23
295	128
296	61
297	15
298	3
299	0
309	1
310	0
311	0
312	0
336	1
337	1
338	3
339	4
341	55
342	10
343	3
344	0
