Mass Spectrum: Urea, 1-benzyl-1-(1-cyclopropyl)ethyl-3-(4-tolyl)-
Formula: C20H24N2O
CAS: 297140-55-7
Molecular weight: 308
m/z	intensity
33	0
34	1
37	4
38	9
39	92
40	30
41	486
42	49
43	21
44	17
45	1
49	2
50	20
51	56
52	33
53	41
54	12
55	25
56	20
57	19
58	2
59	1
60	1
61	2
62	6
63	24
64	11
65	154
66	15
67	38
69	986
70	75
71	13
72	2
73	1
74	3
75	5
76	12
77	138
78	58
79	81
80	13
81	3
82	8
83	7
84	39
85	3
86	2
87	1
89	25
90	16
91	999
92	84
93	8
94	1
95	1
96	4
97	3
98	3
99	1
100	0
101	1
102	3
103	8
104	77
105	48
106	265
107	391
108	38
109	2
110	4
111	2
112	5
113	3
114	0
115	3
116	3
117	7
118	16
119	6
120	234
121	19
122	1
123	0
124	0
125	1
126	0
127	1
128	2
129	4
130	7
131	9
132	101
133	125
134	136
135	14
136	0
139	0
140	0
141	0
142	0
143	2
144	6
145	7
146	25
147	25
148	4
149	1
150	0
151	0
152	2
153	1
154	1
155	0
156	0
157	1
158	8
160	248
161	30
162	2
163	3
164	0
165	1
166	0
167	1
168	0
169	0
171	12
172	4
173	4
174	22
175	39
176	11
177	1
178	0
179	0
180	2
181	2
182	2
183	1
184	0
185	0
186	0
187	0
188	1
189	3
190	0
191	0
192	0
193	0
194	1
195	0
196	23
197	19
198	2
199	0
201	3
202	17
203	4
204	0
205	0
207	0
210	4
211	0
215	0
217	84
218	12
219	1
221	0
222	0
223	1
224	0
225	0
237	0
238	6
239	61
240	10
241	1
251	0
264	0
265	6
266	1
267	0
268	0
279	7
280	2
281	0
282	1
283	2
284	0
293	1
294	2
301	0
307	9
308	135
309	24
310	3
311	0
