Mass Spectrum: 1,3-Cyclohexanedione, 2-(4-fluorobenzylaminomethylene)-5-phenyl-
Formula: C20H18FNO2
CAS: 297160-33-9
Molecular weight: 323
m/z	intensity
33	7
34	1
36	0
37	0
39	46
40	22
41	32
42	21
43	40
44	5
45	0
51	39
52	12
53	30
55	37
56	5
57	17
59	12
60	0
63	26
65	22
66	6
67	15
68	43
69	50
70	21
71	2
73	1
74	2
75	8
77	51
78	41
79	10
80	4
81	8
83	115
84	6
85	1
86	0
87	1
89	22
91	78
92	6
94	21
95	11
96	16
97	24
98	55
99	3
101	9
103	69
104	60
105	25
107	38
109	999
110	98
111	6
112	2
113	1
115	43
116	12
117	29
118	10
120	75
121	15
122	50
123	27
124	38
125	5
126	3
127	10
128	10
129	15
130	17
131	59
132	8
133	7
134	7
135	17
136	52
137	10
138	14
139	2
140	2
141	8
142	3
143	7
144	19
145	12
146	12
148	171
149	34
150	8
151	4
152	2
153	2
154	5
155	4
157	8
158	13
159	6
160	25
161	13
162	50
163	38
164	5
165	1
167	4
168	2
169	2
170	5
171	9
172	21
173	18
174	12
176	30
177	42
178	172
179	17
180	1
181	0
182	1
183	1
184	3
185	4
186	10
187	9
188	5
190	117
191	120
192	17
193	2
194	1
195	0
196	2
197	1
198	7
199	5
200	5
201	6
202	5
204	12
205	2
206	8
207	1
209	0
210	0
211	2
212	3
214	155
215	21
216	2
217	1
218	6
219	22
220	3
221	0
223	0
224	1
225	0
226	0
227	0
228	1
229	0
232	7
233	1
234	0
235	1
236	1
237	0
238	0
239	0
246	0
248	2
249	0
250	0
251	0
252	0
254	18
255	3
261	0
262	0
263	0
264	1
265	0
266	0
267	0
276	0
277	0
278	2
279	0
280	3
281	0
288	0
294	9
295	2
304	4
305	17
306	16
307	3
308	4
309	0
318	3
319	4
323	703
324	131
325	16
326	1
