Mass Spectrum: Pyridine-3-carboxylic acid, 1,4,5,6-tetrahydro-4-(4-methoxycarbonylphenyl)-2-methyl-6-oxo-, benzyl ester
Formula: C22H21NO5
CAS: 297158-99-7
Molecular weight: 379
m/z	intensity
33	2
38	3
39	32
40	12
41	15
42	112
43	14
44	9
45	1
50	11
51	28
52	10
53	9
54	3
55	6
56	4
57	3
59	56
60	1
61	0
62	4
63	21
65	110
66	7
67	6
68	5
69	2
70	2
71	1
74	4
75	10
76	15
77	49
78	11
79	11
80	11
81	7
82	3
83	4
84	14
85	1
87	2
88	3
89	31
91	999
92	73
93	4
95	3
96	13
97	1
98	0
100	1
101	17
102	23
103	14
104	7
105	14
106	5
107	5
108	6
109	19
110	8
111	0
112	1
113	4
114	8
115	72
116	24
117	9
118	4
119	3
120	2
121	6
122	0
123	0
124	1
125	1
126	3
127	15
128	24
129	30
130	20
131	18
132	3
133	1
134	0
135	2
136	12
137	6
138	1
139	8
140	8
141	22
142	20
143	25
144	14
145	22
146	4
147	0
149	3
150	0
152	2
153	5
154	27
155	15
156	38
157	34
158	9
159	4
160	1
161	3
162	3
163	8
164	1
165	3
166	3
167	4
168	5
169	10
170	17
171	11
172	4
173	4
174	1
175	1
176	1
178	1
179	1
180	0
181	3
182	4
183	8
184	31
185	33
186	27
187	9
188	4
189	26
190	5
191	1
194	3
195	5
196	4
197	2
198	2
199	4
200	6
201	9
202	16
203	5
204	1
205	0
207	3
208	0
209	1
210	3
211	15
212	94
213	19
214	16
215	20
216	13
217	5
218	1
219	0
225	4
226	28
227	11
228	14
229	34
230	52
231	8
232	3
233	0
238	8
239	3
240	5
241	1
242	6
243	13
244	177
245	120
246	22
247	5
248	0
254	1
255	1
256	12
257	7
258	8
259	2
260	2
268	0
269	2
270	5
271	8
272	71
273	13
274	11
275	1
283	0
286	0
287	10
288	872
289	165
290	22
291	2
292	0
301	0
302	3
303	1
304	0
317	0
319	0
320	1
332	1
334	9
335	2
336	1
344	1
347	0
348	25
349	6
350	0
361	0
364	0
373	1
379	112
380	28
381	3
