Mass Spectrum: Acetamide, N-[4-(3-pyridylmethylaminosulfonyl)phenyl]-
Formula: C14H15N3O3S
CAS: 297178-85-9
Molecular weight: 305
m/z	intensity
33	0
34	2
35	1
36	11
37	7
38	38
39	187
40	41
41	39
43	999
45	10
46	1
48	8
49	3
50	58
51	136
52	103
53	73
54	20
55	8
56	3
57	9
58	2
59	1
60	3
61	3
62	16
63	87
64	113
65	447
66	51
67	10
68	3
69	7
70	8
71	5
72	0
73	1
74	5
75	12
76	23
77	28
78	91
79	138
80	163
81	20
82	2
83	4
84	4
85	5
87	1
88	1
89	5
90	30
91	88
92	566
93	649
94	43
95	4
96	4
97	3
98	1
99	1
100	0
101	0
102	1
103	2
104	15
105	53
106	56
107	495
108	354
109	32
110	5
111	2
112	4
113	2
114	1
115	3
116	2
117	3
118	6
119	8
120	6
121	4
122	3
123	6
124	7
125	6
126	1
127	3
128	1
129	1
130	1
132	4
133	8
134	79
135	22
136	4
137	1
138	3
139	13
140	201
141	18
142	12
143	2
144	0
145	0
147	0
148	0
149	2
150	5
151	3
152	2
153	1
154	3
156	184
157	179
158	21
159	9
160	0
161	0
164	0
165	0
166	1
167	4
168	2
169	5
170	6
171	7
172	37
173	3
174	2
176	0
177	0
178	0
179	0
180	0
181	6
182	10
183	4
184	1
185	1
192	0
195	0
196	4
197	3
198	47
199	16
200	3
201	0
203	0
204	0
212	1
214	13
215	1
216	0
231	0
240	2
241	0
248	0
261	0
262	1
263	26
264	4
265	1
266	0
274	0
276	1
277	0
283	0
286	0
287	2
290	487
291	82
292	29
293	5
294	1
295	0
302	0
303	2
304	9
305	242
306	46
307	16
308	2
