Mass Spectrum: Phenethylamine, N-(2,2,3,3,4,4,5,5,6,6,7,7,8,8,8-pentadecafluorooctylidene)-
Formula: C16H10F15N
CAS: 29723-33-9
Molecular weight: 501
m/z	intensity
31	14
39	33
40	23
41	70
44	27
45	23
50	14
51	44
52	11
53	6
54	5
63	15
64	7
65	67
66	50
69	85
70	4
73	8
74	4
75	7
76	6
77	61
78	23
79	42
80	4
81	6
89	12
90	31
91	999
92	81
93	7
100	28
102	6
103	36
104	63
105	290
106	28
119	28
120	0
121	0
122	11
130	12
131	32
132	140
133	16
134	1
141	8
147	2
150	21
151	2
153	4
169	14
170	0
180	2
181	8
182	4
191	2
207	3
280	2
309	1
359	21
360	1
372	1
391	3
410	500
411	52
412	3
462	2
482	8
483	1
500	4
501	134
502	5
503	0
