Mass Spectrum: Butanamide, 2,2,3,3,4,4,4-heptafluoro-N-(2-phenylethyl)-
Formula: C12H10F7NO
CAS: 29723-29-3
Molecular weight: 317
m/z	intensity
29	14
31	10
32	17
38	7
39	53
40	9
41	21
44	9
45	13
50	18
51	51
52	14
53	6
56	5
62	6
63	25
64	8
65	105
66	7
69	115
70	3
74	16
75	4
76	5
77	54
78	46
79	27
89	18
90	12
91	520
92	53
93	3
100	18
102	9
103	43
104	999
105	205
106	13
107	7
118	8
119	26
120	2
128	9
131	5
148	5
150	8
169	74
170	2
178	13
179	2
198	3
199	2
226	44
227	2
250	1
278	2
317	11
318	1
319	0
