Mass Spectrum: 1,3,2-Dioxaphospholan-2-amine, 5,5-dimethyl-, 2-oxide
Formula: C5H12NO3P
CAS: 29727-88-6
Molecular weight: 165
m/z	intensity
41	298
42	23
43	31
47	23
54	39
55	91
56	999
57	51
58	15
65	43
67	43
68	253
69	19
71	59
80	155
81	39
95	19
98	725
110	19
135	45
137	45
150	19
165	19
