Mass Spectrum: 1-[2-[2H,4H-1,2,4-Triazin-3-thione-5-one]], 1-deoxy-2,3,5-O-triacetyl-pentofuranosyl
Formula: C14H17N3O8S
CAS: 29725-42-6
Molecular weight: 387
m/z	intensity
42	46
43	999
44	31
45	12
46	2
47	2
48	1
49	9
50	0
51	3
52	1
53	3
54	4
55	16
56	4
57	13
58	4
59	13
60	23
61	16
62	1
66	1
67	3
68	22
69	67
70	13
71	15
72	3
73	18
74	4
75	3
76	1
77	1
79	0
80	1
81	7
82	3
83	9
84	19
85	154
86	27
87	6
88	2
89	1
95	2
96	16
97	138
98	14
99	12
100	5
101	5
102	6
103	15
104	1
105	1
108	1
109	2
110	2
111	8
112	14
113	21
114	12
115	38
116	5
117	2
121	9
122	3
123	0
124	1
125	3
127	61
128	15
129	19
130	66
131	8
132	5
133	0
136	2
137	20
138	24
139	120
140	10
141	5
142	5
143	7
144	7
145	10
146	2
149	1
152	5
153	5
154	16
155	49
156	44
157	28
158	4
159	4
160	1
161	0
164	1
165	6
167	4
169	245
170	31
171	19
172	21
173	16
174	4
175	1
179	58
180	22
181	13
182	6
183	2
184	5
185	3
187	27
188	3
189	0
194	0
196	4
197	27
198	25
199	5
200	6
201	1
202	0
206	1
207	1
208	11
209	1
211	96
212	17
213	10
215	64
216	85
217	12
218	1
224	5
225	13
226	4
227	1
229	1
230	6
231	1
239	3
240	5
241	11
242	10
243	2
244	1
257	14
258	66
259	64
260	8
261	1
267	10
268	11
269	1
271	9
272	4
273	1
274	1
283	1
285	6
286	1
299	18
300	3
301	2
302	1
303	1
314	8
315	1
316	0
318	4
327	61
328	10
329	3
331	2
344	1
345	1
360	1
387	8
388	1
