Mass Spectrum: Cyclononanone, oxime
Formula: C9H17NO
CAS: 2972-02-3
Molecular weight: 155
m/z	intensity
12	5
13	3
14	49
15	42
16	27
19	5
20	4
25	8
26	72
27	445
29	346
30	95
31	27
33	7
37	22
38	45
39	467
40	151
41	999
42	305
43	219
45	18
46	23
50	25
51	60
52	74
53	206
54	360
55	532
56	179
57	215
58	30
59	40
60	26
63	16
64	14
65	47
66	53
67	448
68	177
69	197
70	162
71	34
72	39
73	558
74	27
75	7
76	4
77	50
78	27
79	103
80	137
81	630
82	238
83	103
84	54
85	38
86	189
87	59
91	27
92	13
93	82
94	106
95	118
96	214
97	67
98	124
99	81
100	31
101	6
105	7
106	14
107	24
108	60
109	33
110	133
111	25
112	238
113	111
114	28
120	8
121	15
122	156
123	435
124	55
125	8
126	89
127	86
128	8
134	5
135	6
136	26
137	12
138	77
139	17
140	28
151	4
152	2
153	2
154	6
155	45
156	6
