Mass Spectrum: Quinazolin-4(3H)-one, 2-mercapto-3-(2-phenylethyl)-
Formula: C16H14N2OS
CAS: 29745-29-7
Molecular weight: 282
m/z	intensity
35	1
37	6
38	19
39	86
40	9
41	19
42	2
43	1
44	1
45	14
46	1
47	0
50	59
51	97
52	38
53	13
54	3
55	4
56	2
57	1
58	4
59	8
60	10
61	5
62	22
63	91
64	74
65	129
66	11
67	2
69	12
70	3
71	2
72	26
73	3
74	22
75	35
76	56
77	182
78	131
79	29
80	3
81	1
82	5
83	3
84	4
86	5
87	2
88	5
89	30
90	113
91	133
92	124
93	13
94	2
95	2
96	3
97	2
100	1
101	6
102	54
103	142
104	999
105	99
106	8
107	14
108	19
109	15
110	5
111	1
115	2
116	10
117	22
119	197
120	202
121	18
122	8
123	4
124	3
128	16
129	22
130	14
131	3
132	3
134	144
135	28
136	15
137	4
141	4
143	1
144	8
145	64
146	9
147	7
148	2
149	4
150	12
151	3
152	2
159	1
160	2
162	231
163	27
164	16
165	5
166	1
167	1
171	2
175	2
178	656
179	186
180	48
181	9
190	1
191	5
192	2
193	2
204	2
205	5
206	1
218	4
219	4
220	2
221	1
222	2
223	3
234	2
235	1
236	1
237	1
247	16
248	7
249	29
250	6
253	2
255	6
264	2
282	445
283	86
284	29
285	4
