Mass Spectrum: 4,6-Heptadiyn-3-one
Formula: C7H6O
CAS: 29743-27-9
Molecular weight: 106
m/z	intensity
29	150
49	190
50	10
57	60
63	60
77	999
78	480
79	30
106	20
