Mass Spectrum: 4,6-Octadiyn-3-one, 2-methyl-
Formula: C9H10O
CAS: 29743-33-7
Molecular weight: 134
m/z	intensity
43	130
63	140
64	10
91	999
92	80
105	60
106	200
107	20
134	60
