Mass Spectrum: 2-Norcaranone, 3-methyl-
Formula: C8H12O
CAS: 29750-22-9
Molecular weight: 124
m/z	intensity
42	290
43	40
44	30
50	20
51	50
52	30
53	160
54	999
55	270
56	30
57	30
65	30
66	30
67	300
68	140
69	130
70	20
77	30
79	50
80	100
81	380
82	630
83	80
91	30
93	50
95	130
96	80
109	140
110	30
123	20
124	600
125	40
