Mass Spectrum: Silane, (2-ethoxycyclohexyl)trimethyl-, trans-
Formula: C11H24OSi
CAS: 29753-66-0
Molecular weight: 200
m/z	intensity
2	2
12	0
13	0
14	4
15	28
16	1
17	1
18	4
19	1
25	0
26	7
27	91
28	28
29	166
30	6
31	47
32	2
33	0
37	0
38	1
39	38
40	5
41	75
42	18
43	116
44	42
45	186
46	12
47	34
48	1
49	1
50	1
51	4
52	3
53	64
54	153
55	90
56	11
57	149
58	48
59	221
60	22
61	69
62	4
63	4
64	0
65	8
66	12
67	336
68	22
69	25
70	25
71	20
72	40
73	996
74	89
75	303
76	21
77	25
78	5
79	33
80	16
81	127
82	434
83	42
84	3
85	59
86	4
87	10
88	2
89	11
90	1
91	19
92	1
93	2
94	1
95	6
96	1
97	14
98	16
99	16
100	2
101	8
102	4
103	999
104	99
105	39
106	1
107	0
109	2
110	0
111	8
112	1
113	26
114	3
115	3
116	1
117	26
118	2
119	261
120	28
121	10
122	0
123	1
125	3
126	4
127	5
128	1
129	49
130	5
131	2
135	0
137	1
139	8
140	1
141	4
142	2
143	7
144	1
145	0
147	0
152	0
154	1
155	2
156	0
157	34
158	4
159	1
169	1
170	0
171	20
172	3
173	1
185	12
186	1
187	0
