Mass Spectrum: 4H-Pyrido[1,2-a]pyrimidine-3-carboxylic acid, 1,6,7,8,9,9a-hexahydro-6-methyl-4-oxo-, ethyl ester
Formula: C12H18N2O3
CAS: 29766-64-1
Molecular weight: 238
m/z	intensity
41	260
42	170
43	30
53	40
54	140
55	310
68	179
69	449
70	165
80	61
81	59
82	195
84	55
95	102
96	449
97	999
98	212
108	81
109	40
122	66
123	914
124	105
134	50
135	60
136	150
137	120
140	83
141	125
142	118
149	40
150	52
151	35
162	50
163	70
164	220
165	626
166	111
169	818
170	40
175	40
177	40
181	47
183	42
191	220
192	170
193	201
194	45
195	39
196	56
209	144
210	48
211	80
223	173
236	70
237	450
238	882
239	128
