Mass Spectrum: 2-Cyclopenten-1-one, 2,3,5-trimethyl-4-methylene-
Formula: C9H12O
CAS: 29765-85-3
Molecular weight: 136
m/z	intensity
39	440
41	180
50	100
51	230
52	120
53	250
54	230
55	110
65	130
67	160
77	360
79	190
91	370
93	999
121	130
136	350
