Mass Spectrum: Cyclopropene, 1-bromo-2,3,3-trifluoro-
Formula: C3BrF3
CAS: 29777-44-4
Molecular weight: 172
m/z	intensity
69	122
74	147
79	34
81	35
93	999
122	20
124	18
153	22
155	22
172	15
174	15
