Mass Spectrum: Furan-2-carboxamide, N-(5-pentyl-1,3,4-thiadiazol-2-yl)-
Formula: C12H15N3O2S
CAS: 297763-56-5
Molecular weight: 265
m/z	intensity
33	1
34	1
35	0
36	3
37	7
38	37
39	214
40	27
41	103
42	14
43	25
45	26
46	4
47	5
48	0
49	0
50	3
51	13
52	7
53	30
54	37
55	55
56	9
57	15
58	35
59	24
60	8
61	5
62	1
63	1
64	2
65	5
66	13
67	43
68	12
69	18
70	5
71	25
72	8
73	13
74	2
75	2
76	1
77	2
78	1
79	6
80	5
81	36
82	13
83	5
84	3
85	7
86	6
87	3
88	1
89	0
90	0
91	1
93	5
95	999
96	64
97	11
98	19
99	6
100	3
101	2
102	0
103	0
104	0
105	0
106	0
107	1
108	1
109	7
110	6
111	5
112	12
113	3
114	10
115	10
116	4
117	0
118	0
119	2
120	0
121	2
122	1
123	0
124	0
125	2
126	2
127	2
128	4
129	19
130	2
131	1
132	0
133	0
135	0
136	0
137	2
138	1
139	5
140	28
141	5
142	2
143	0
144	0
148	0
149	1
150	4
151	1
152	3
153	1
154	2
155	2
156	0
157	0
158	0
162	0
163	0
164	0
165	0
166	0
167	0
168	1
169	0
170	1
171	0
172	0
173	0
176	0
177	0
178	3
179	0
180	0
181	10
182	1
183	0
184	0
193	0
194	0
195	1
196	1
197	1
198	1
203	0
204	0
205	0
206	1
209	254
210	26
211	18
212	1
213	1
214	0
218	0
219	0
220	1
222	75
223	18
224	5
225	0
226	0
233	0
234	0
236	24
237	17
238	3
239	0
247	0
248	0
250	1
251	0
262	0
264	3
265	19
266	3
267	1
268	0
269	0
