Mass Spectrum: Acetamide, 2-(1-pyrrolidinyl)-N-(2-methyl-4-quinolinyl)-
Formula: C16H19N3O
CAS: 297759-31-0
Molecular weight: 269
m/z	intensity
33	25
34	8
35	24
36	120
38	53
39	30
40	97
41	31
42	132
43	15
44	23
45	1
48	0
50	8
51	11
52	6
53	7
55	83
56	18
57	7
59	0
62	5
63	10
64	6
65	6
66	4
68	5
69	0
70	16
71	2
74	4
75	12
76	11
77	13
78	4
79	2
80	3
82	25
84	999
85	42
87	2
88	3
89	16
90	4
91	4
92	2
93	0
97	0
98	0
99	1
101	15
102	9
103	11
104	5
105	2
107	0
109	0
110	1
113	1
114	5
115	8
116	9
117	2
118	1
119	2
120	0
121	1
127	1
128	5
129	6
130	25
131	3
132	0
133	0
134	0
135	0
136	0
140	4
141	3
142	10
143	3
144	0
152	0
153	0
155	4
156	2
157	7
158	27
159	3
164	0
169	1
170	1
171	2
182	0
183	1
184	4
185	3
186	0
197	0
199	11
200	12
201	1
209	0
267	0
269	6
270	0
