Mass Spectrum: 2-(2-Fluorostyryl)-3-(4-nitrophenyl)-4(3H)-quinazolinone
Formula: C22H14FN3O3
CAS: 297763-35-0
Molecular weight: 387
m/z	intensity
39	293
40	34
41	11
43	66
44	12
45	28
46	12
50	531
51	130
52	31
53	14
57	27
60	14
63	347
64	143
68	10
69	13
70	20
76	999
77	129
81	12
83	21
85	11
88	50
90	197
92	126
93	14
94	27
95	43
96	34
97	9
99	32
101	239
102	73
103	25
104	22
107	26
109	46
111	49
113	10
115	10
116	15
117	38
119	181
120	224
121	63
123	27
124	12
126	44
127	18
128	19
129	12
130	20
133	56
139	17
140	16
143	26
144	17
146	85
147	70
148	10
149	20
156	39
160	11
161	12
163	14
164	18
165	10
166	10
170	89
175	16
183	21
190	13
191	10
192	16
194	35
195	12
196	16
202	14
203	10
204	13
208	11
218	9
220	70
221	34
222	117
223	43
233	9
246	20
249	17
250	67
251	11
265	11
266	17
280	13
281	23
292	30
293	9
311	13
322	13
328	11
339	28
340	131
341	41
368	54
369	16
370	11
386	71
387	96
388	22
