Mass Spectrum: 5-Hexyn-1-amine, N,N-diethyl-
Formula: C10H19N
CAS: 29777-11-5
Molecular weight: 153
m/z	intensity
27	4
28	2
29	15
30	34
32	2
34	2
39	1
41	10
42	17
43	9
44	12
53	10
56	17
58	120
67	6
70	2
72	28
77	0
79	14
81	3
82	0
84	1
86	999
87	53
110	1
112	2
125	14
138	80
139	2
153	15
