Mass Spectrum: 3-(2,4-Dichlorophenyl)-2-(4-nitrostyryl)-4(3H)-quinazolinone
Formula: C22H13Cl2N3O3
CAS: 297763-33-8
Molecular weight: 437
m/z	intensity
35	77
36	301
38	281
40	999
41	149
43	687
44	473
45	149
48	16
50	683
51	221
52	105
55	47
57	73
60	47
61	45
62	111
63	323
64	187
65	39
66	12
69	19
70	14
71	16
73	121
74	197
75	435
76	485
77	209
78	14
86	10
87	35
88	71
90	485
91	59
92	75
97	55
98	29
99	41
100	45
101	181
102	255
104	55
105	16
109	119
110	33
111	53
114	25
116	45
117	23
119	75
120	16
124	103
125	16
126	51
127	37
128	35
130	18
133	37
135	21
136	16
143	14
145	127
146	59
147	81
149	35
150	12
151	31
152	10
161	43
164	31
165	18
171	21
174	10
176	14
177	39
178	63
186	10
190	27
191	27
201	14
202	55
203	75
204	27
206	10
218	14
238	10
267	8
269	83
270	12
271	21
277	55
291	33
355	31
356	77
357	19
358	27
402	161
403	31
404	71
405	16
436	12
437	47
438	21
439	18
