Mass Spectrum: 2-(4-Bromostyryl)-3-(p-tolyl)-4(3H)-quinazolinone
Formula: C23H17BrN2O
CAS: 297763-36-1
Molecular weight: 416
m/z	intensity
39	564
40	145
41	103
43	41
45	77
50	435
51	325
52	126
53	43
57	5
59	3
63	434
65	958
67	3
69	4
71	2
75	397
76	411
77	305
78	99
79	66
80	35
81	18
82	40
85	2
86	6
87	31
89	293
91	999
92	101
95	14
101	308
102	338
103	50
104	62
105	36
107	98
108	12
110	16
111	3
112	4
113	24
114	28
116	117
117	35
119	101
120	44
121	4
125	9
128	230
129	26
130	28
132	40
134	9
137	3
139	25
140	25
142	28
143	19
144	16
145	12
147	81
149	4
151	51
152	35
153	30
155	26
157	12
158	7
159	4
161	107
163	9
164	18
165	30
166	14
167	60
168	163
171	11
174	3
175	11
176	42
177	34
178	41
180	61
181	23
182	32
183	8
188	5
189	12
190	28
191	28
192	25
193	9
194	10
195	3
201	17
202	27
203	101
204	70
205	15
206	12
207	27
208	28
209	18
214	4
215	6
216	15
217	31
218	56
219	21
220	8
229	40
230	20
231	56
232	18
233	9
235	37
236	7
244	3
245	11
246	11
247	63
248	10
249	13
250	15
251	2
258	2
259	6
260	10
261	133
262	23
263	3
270	5
271	2
272	5
282	7
283	3
284	6
285	3
292	7
293	9
297	2
298	5
299	3
300	2
305	4
306	3
307	13
308	5
309	11
310	26
311	12
312	33
313	6
321	11
325	4
327	5
335	25
336	12
337	16
338	3
387	3
401	11
402	3
403	10
415	98
416	85
417	100
418	74
419	15
