Mass Spectrum: 2-[4-(Dimethylamino)styryl]-3-(4-nitrophenyl)-4(3H)-quinazolinone
Formula: C24H20N4O3
CAS: 297763-34-9
Molecular weight: 412
m/z	intensity
39	280
40	63
42	271
43	78
44	99
45	156
50	428
51	126
52	44
53	22
59	18
63	293
64	114
65	51
66	15
68	12
76	999
77	246
78	45
79	21
89	294
91	64
92	78
102	248
103	79
104	53
105	36
108	16
114	24
116	103
117	129
118	47
119	96
120	96
121	28
123	24
128	139
129	55
130	65
131	35
132	25
134	105
137	79
138	16
139	21
140	25
141	12
143	97
144	109
145	59
147	68
148	70
149	41
152	16
153	13
155	95
156	65
157	19
158	12
159	17
161	33
163	23
164	21
165	21
166	13
167	13
169	54
171	322
175	33
176	22
177	17
178	16
183	304
190	24
191	26
192	22
202	12
203	25
204	44
205	27
206	34
217	14
218	19
220	89
221	15
231	15
232	13
233	14
245	12
246	21
247	24
266	42
280	40
281	68
290	35
292	20
293	19
321	17
322	17
337	12
350	23
364	16
365	48
366	19
368	13
383	31
397	39
411	171
412	185
413	24
