Mass Spectrum: Benzamide, 2-methyl-N-(5-phenyl-2-thiazolyl)-
Formula: C17H14N2OS
CAS: 297744-00-4
Molecular weight: 294
m/z	intensity
33	5
34	1
35	0
36	4
39	67
40	14
41	15
43	6
45	39
47	1
48	0
50	21
51	38
52	7
53	4
54	0
55	2
56	1
57	2
58	3
59	2
60	1
62	17
63	37
65	144
67	1
69	7
70	4
71	2
72	0
73	1
74	5
75	8
76	16
77	34
78	3
79	3
81	1
82	2
83	0
84	1
86	10
87	3
89	67
91	457
92	18
93	3
94	0
95	1
96	0
97	0
98	0
99	0
100	0
101	2
102	8
103	9
104	11
105	3
106	1
107	1
108	3
109	1
110	0
112	0
113	0
114	1
115	1
119	999
120	69
121	13
123	2
124	0
127	0
128	0
129	3
131	3
132	2
134	76
136	31
137	1
138	0
142	0
144	0
146	3
147	2
148	3
149	1
150	0
152	0
153	0
159	0
160	0
161	0
162	0
163	0
171	0
173	0
174	1
175	7
176	27
177	3
178	1
179	0
180	0
181	0
191	0
192	0
202	0
203	0
204	0
206	0
207	0
233	1
234	0
250	0
251	0
261	6
262	1
263	0
264	0
266	8
267	1
268	0
277	1
278	0
279	0
280	0
283	0
290	1
291	1
294	300
295	59
296	18
297	2
298	0
