Mass Spectrum: Acetamide, 2-dimethylamino-N-(2,3-dihydro-1-benzyl-1H-pyrrolo[2,3-b]quinolin-4-yl)-
Formula: C22H24N4O
CAS: 297759-13-8
Molecular weight: 360
m/z	intensity
33	1
34	3
36	8
38	2
40	69
41	5
42	28
44	43
45	18
46	9
51	3
55	3
56	5
58	999
59	32
60	1
63	1
65	14
70	2
71	1
73	0
75	0
76	1
77	4
78	0
79	0
80	2
82	1
89	3
91	92
92	6
99	0
101	0
102	3
103	2
104	1
105	2
113	3
114	1
115	2
116	1
127	1
128	3
129	2
130	0
140	2
141	1
142	0
143	0
149	1
154	0
155	3
156	0
167	1
168	3
169	5
170	1
171	1
181	1
182	3
183	6
184	2
194	0
195	0
196	6
197	1
198	1
210	2
211	0
224	4
225	0
246	0
247	1
257	0
258	0
259	0
272	3
273	1
274	5
275	1
276	0
286	0
287	2
300	0
301	1
302	1
314	1
315	0
316	0
360	56
361	14
362	1
