Mass Spectrum: Benzamide, N-(5-pentyl-1,3,4-thiadiazol-2-yl)-
Formula: C14H17N3OS
CAS: 297763-57-6
Molecular weight: 275
m/z	intensity
33	0
34	1
36	0
37	0
38	2
39	29
40	15
41	58
42	8
43	13
44	4
45	11
46	3
47	3
48	0
50	23
51	93
52	6
53	7
54	7
55	27
56	6
57	11
58	20
59	12
60	5
61	3
62	1
63	2
64	2
65	3
66	1
67	3
68	4
69	10
70	3
71	13
72	4
73	8
74	6
75	9
77	510
78	31
79	3
80	1
81	11
82	3
83	1
84	1
85	3
86	2
87	2
88	1
89	0
90	1
91	4
92	1
93	0
95	6
96	6
97	2
98	1
99	1
100	1
101	2
102	1
103	5
105	999
106	66
107	4
108	1
109	1
110	0
111	0
112	1
114	5
115	9
116	1
117	0
118	0
119	0
120	0
121	0
122	1
123	4
124	0
125	1
126	0
127	0
128	1
129	18
130	2
131	1
132	1
133	0
134	0
136	3
137	0
138	0
140	0
141	1
142	0
143	0
144	0
145	0
146	0
147	3
148	1
149	0
150	0
152	0
153	0
154	0
155	0
156	0
158	0
159	0
160	0
161	0
162	0
167	1
168	0
169	0
170	0
171	0
172	0
173	0
174	0
175	0
177	0
178	0
179	0
180	0
181	0
183	0
184	0
185	0
186	0
188	2
189	0
191	0
195	4
196	0
197	1
198	5
199	0
200	0
205	0
206	0
207	0
208	0
209	0
210	0
213	0
214	0
215	0
216	0
217	1
219	169
220	21
221	9
222	1
223	0
227	0
229	0
230	0
232	40
233	10
234	2
235	0
242	0
244	0
246	15
247	5
248	1
249	0
260	0
261	0
271	0
273	0
274	18
275	15
276	3
277	1
