Mass Spectrum: Acetamide, 2-(4-morpholyl)-N-(2-ethyl-3-methyl-4-quinolinyl)-
Formula: C18H23N3O2
CAS: 297759-57-0
Molecular weight: 313
m/z	intensity
33	1
34	0
35	0
36	4
38	2
40	29
41	22
42	68
43	37
44	36
45	74
46	32
47	0
48	0
50	1
51	3
52	2
53	1
54	6
56	101
57	7
58	2
59	0
62	0
63	2
64	1
65	2
66	0
68	1
70	33
71	4
72	12
73	0
74	0
75	2
76	3
77	7
78	1
80	2
81	0
82	2
84	1
85	1
86	6
87	1
88	0
89	3
90	1
91	1
92	0
98	14
100	999
101	46
102	7
103	4
104	1
105	0
106	0
111	0
113	2
114	1
115	7
116	2
117	1
118	0
126	0
127	1
128	4
129	3
130	5
131	0
132	0
140	2
141	1
142	3
143	3
144	1
153	0
154	1
155	4
156	2
157	3
158	4
159	0
166	0
167	2
168	2
169	3
170	3
171	1
172	0
181	1
182	2
183	8
184	3
185	13
186	4
187	0
195	0
196	0
197	1
198	1
199	1
209	0
211	6
212	2
213	7
214	1
225	1
226	1
227	8
228	11
229	1
270	7
271	1
282	2
283	0
295	2
296	0
311	0
313	28
314	5
315	0
