Mass Spectrum: Benzene, 2,3,5,6-tetrafluoro-1,4-bis[4-(2,2-dimethylpropionylamino)phenoxy]-
Formula: C28H28F4N2O4
CAS: 297742-83-7
Molecular weight: 532
m/z	intensity
38	1
39	24
40	7
41	116
42	10
43	2
44	1
45	4
50	1
51	2
52	3
53	4
55	8
57	999
59	3
63	3
64	4
65	5
69	8
70	2
76	2
77	11
78	1
80	6
81	1
83	2
85	44
86	2
87	2
90	4
91	8
92	4
93	6
102	1
105	36
106	4
108	39
109	7
112	1
115	2
117	2
119	1
120	1
121	2
127	1
132	5
133	2
134	1
143	34
144	3
146	3
147	1
148	4
149	1
161	1
169	4
171	1
176	1
177	1
181	2
192	1
193	7
194	1
200	0
208	2
228	1
230	1
236	0
255	12
256	23
257	6
272	1
273	1
274	5
275	15
276	1
279	2
280	5
297	2
301	4
316	1
323	1
324	1
340	5
341	5
359	28
360	4
363	2
364	18
365	4
389	2
390	5
391	1
405	1
406	1
422	1
446	0
447	13
448	59
449	16
450	2
474	2
475	18
476	6
489	4
490	1
532	127
533	38
534	6
