Mass Spectrum: Sulfoxide, butyl isopropyl
Formula: C7H16OS
CAS: 2977-03-9
Molecular weight: 148
m/z	intensity
26	40
27	400
28	140
29	400
30	10
31	10
32	20
33	10
34	30
35	10
36	10
37	20
38	40
39	300
40	60
41	900
42	190
43	999
44	50
45	50
46	30
47	20
48	10
49	10
50	40
51	10
53	30
54	10
55	190
56	370
57	870
58	50
59	40
60	20
61	30
62	10
63	420
64	70
65	20
73	20
74	10
75	30
76	40
77	110
78	20
79	10
88	10
89	910
90	60
91	60
92	110
93	10
94	10
105	10
106	870
107	40
108	40
131	30
132	20
148	300
149	30
150	20
