Mass Spectrum: Sulfoxide, butyl propyl
Formula: C7H16OS
CAS: 2977-02-8
Molecular weight: 148
m/z	intensity
26	50
27	410
28	130
29	630
30	20
31	10
32	20
33	10
34	20
35	10
37	20
38	30
39	250
40	50
41	950
42	90
43	930
44	50
45	60
46	30
47	70
48	20
49	10
50	40
51	10
53	30
54	10
55	200
56	210
57	670
58	40
59	20
60	10
61	50
62	10
63	420
64	110
65	20
66	10
73	20
74	10
75	30
76	50
77	50
78	10
89	370
90	50
91	70
92	999
93	50
94	50
103	20
105	30
106	120
107	10
108	10
131	210
132	50
133	10
148	270
149	20
150	20
