Mass Spectrum: N-(1,1-Dimethyl-2-propynyl)-N-(1,1-dimethylpropyl)amine
Formula: C10H19N
CAS: 2978-40-7
Molecular weight: 153
m/z	intensity
39	61
40	22
41	193
42	151
43	133
44	21
55	113
56	31
57	30
58	999
59	75
60	12
65	32
66	21
67	181
68	451
69	51
70	9
72	553
73	41
124	832
125	113
126	18
138	153
139	21
153	38
154	4
