Mass Spectrum: 7,7-Norcaranedicarbonitrile, cis-
Formula: C9H10N2
CAS: 29782-28-3
Molecular weight: 146
m/z	intensity
26	56
27	274
28	68
29	143
30	3
32	1
36	1
37	20
38	56
39	306
40	58
41	354
42	230
43	18
44	5
45	0
48	0
49	4
50	45
51	78
52	62
53	80
54	49
55	999
56	47
57	0
61	3
62	12
63	37
64	58
65	52
66	42
67	84
68	124
70	0
72	0
74	3
75	10
76	27
77	64
78	56
79	42
80	49
83	0
84	2
86	1
87	2
88	7
89	12
90	17
91	93
92	159
93	58
94	5
95	1
96	0
99	0
100	0
101	1
102	6
103	10
104	64
105	145
106	58
107	4
114	1
115	1
116	7
117	9
118	83
119	53
120	16
121	1
128	4
129	9
130	4
131	151
132	15
133	1
143	1
144	4
145	137
146	67
