Mass Spectrum: o-(4-Nitrobenzyl)-N,N'-(diisopropyl)isourea
Formula: C14H21N3O3
CAS: 2978-11-2
Molecular weight: 279
m/z	intensity
15	12
17	8
18	34
26	3
27	42
28	28
29	5
30	89
31	3
32	2
36	1
37	2
38	6
39	36
40	9
41	70
42	56
43	208
44	264
45	13
46	2
49	2
50	16
51	30
52	10
53	4
54	3
55	6
56	15
57	26
58	999
59	38
60	5
61	3
62	7
63	36
64	16
65	12
66	4
67	4
68	2
69	62
70	39
71	18
72	4
73	3
74	7
75	12
76	22
77	46
78	101
79	11
80	3
81	1
82	1
83	9
84	14
85	46
86	31
87	12
88	4
89	113
90	97
91	20
92	10
93	5
94	5
95	2
96	1
97	3
98	1
99	2
100	3
101	19
102	4
103	5
104	21
105	21
106	87
107	35
108	9
109	5
110	1
111	9
112	2
113	11
114	1
115	2
116	7
117	3
118	3
119	3
120	21
121	11
122	5
123	2
124	3
125	1
126	8
127	5
128	6
129	14
130	4
131	3
132	6
133	15
134	7
135	16
136	179
137	36
138	4
139	1
141	2
142	1
143	58
144	47
145	5
146	2
147	5
148	3
149	8
150	102
151	36
152	12
153	16
154	3
155	1
161	1
162	2
163	3
164	4
165	6
166	3
167	4
169	1
170	1
172	1
175	1
176	2
177	4
178	3
179	227
180	29
181	5
182	1
183	1
186	14
187	2
188	1
189	1
190	1
191	2
192	3
193	20
194	5
195	4
196	1
206	1
207	3
208	3
209	1
210	3
211	1
212	1
214	4
215	1
216	1
218	1
220	1
221	1
222	4
223	2
224	2
225	1
226	2
228	1
232	1
234	1
236	8
237	4
238	2
239	4
240	2
241	2
242	8
243	2
244	2
248	1
249	3
250	4
251	1
253	1
256	1
257	2
258	2
262	1
263	1
264	20
265	4
277	1
278	2
279	34
280	7
281	3
282	2
