Mass Spectrum: Phenoxypropylamine, 4-acetylamino-2-fluoro-.beta.-hydroxy-N-isopropyl-
Formula: C14H21FN2O3
CAS: 29807-33-8
Molecular weight: 284
m/z	intensity
42	69
43	195
44	32
45	3
46	0
49	1
50	1
51	8
52	6
53	3
54	3
55	7
56	75
57	61
58	23
59	1
60	22
61	1
62	1
63	3
64	1
65	2
67	1
68	3
69	2
70	19
72	999
73	46
74	7
75	1
76	1
77	5
78	1
79	8
80	4
81	2
82	6
83	8
84	9
85	1
86	14
87	1
89	1
90	1
91	1
92	3
93	0
94	1
95	1
96	2
97	2
98	13
99	3
100	16
101	2
102	19
103	0
104	0
105	11
106	2
107	1
108	2
109	2
110	3
111	6
112	5
114	8
116	17
117	1
120	0
122	1
124	1
125	2
126	46
127	62
128	4
136	0
138	3
139	1
140	9
141	1
143	0
148	4
149	1
151	0
152	1
153	1
154	0
155	1
161	0
166	3
168	3
169	29
170	3
175	0
178	0
181	1
182	3
183	0
188	1
195	1
196	5
208	3
211	3
212	1
226	0
242	87
243	12
244	1
257	0
264	1
267	0
269	28
270	4
283	3
284	12
285	7
286	2
