Mass Spectrum: Benzaldehyde, 2-nitroso-
Formula: C7H5NO2
CAS: 29809-25-4
Molecular weight: 135
m/z	intensity
50	350
51	999
52	330
53	50
61	50
62	60
63	100
64	150
65	40
74	100
75	70
76	150
77	610
78	60
79	200
91	200
92	20
104	30
105	50
135	310
136	20
