Mass Spectrum: Silane, [(4-ethoxycyclohexyl)oxy]trimethyl-
Formula: C11H24O2Si
CAS: 29809-00-5
Molecular weight: 216
m/z	intensity
41	69
43	39
44	29
45	59
47	49
53	29
54	9
55	39
57	49
58	9
59	485
60	19
61	59
67	19
69	9
70	9
72	39
73	524
74	39
75	405
76	29
77	39
78	9
79	59
80	29
81	792
82	59
83	9
85	29
86	9
87	999
88	59
89	9
91	29
93	49
97	118
98	49
99	39
101	69
102	9
103	237
104	19
105	9
111	9
113	9
115	19
116	69
117	19
121	138
122	9
125	138
126	168
127	19
129	99
130	69
131	277
132	29
133	19
155	89
156	9
157	19
169	19
170	247
171	29
172	79
173	9
187	19
201	49
216	9
