Mass Spectrum: 4-Methylcyclohexanol, TMS derivative
Formula: C10H22OSi
CAS: 29800-81-5
Molecular weight: 186
m/z	intensity
41	90
42	10
43	40
44	20
45	140
47	60
54	10
55	70
57	80
58	30
59	40
61	50
68	10
70	10
73	470
74	30
75	999
76	50
77	20
81	30
95	60
96	70
101	20
129	660
130	70
131	10
147	70
171	320
172	30
186	90
