Mass Spectrum: 2,4-Imidazolidinedione, 1,3-bis(2-hydroxypropyl)-5,5-dimethyl-
Formula: C11H20N2O4
CAS: 29810-24-0
Molecular weight: 244
m/z	intensity
30	875
41	143
42	116
45	149
56	75
58	42
59	41
69	43
70	999
71	83
84	97
98	96
99	88
112	18
113	168
114	18
126	67
127	28
139	28
141	47
154	24
156	19
181	67
182	147
199	388
200	587
201	68
209	102
211	389
213	108
225	48
227	203
229	826
244	633
245	77
