Mass Spectrum: 1,3,4-Oxadiazole, 2-(2,5-dimethoxyphenylthiomethyl)-5-(3-methyl-4-nitrophenyl)-
Formula: C18H17N3O5S
CAS: 298187-57-2
Molecular weight: 387
m/z	intensity
33	2
37	4
38	21
39	166
40	24
41	46
42	15
43	13
44	8
45	145
46	16
47	16
48	1
50	64
51	150
52	81
53	98
54	44
55	56
56	41
57	28
58	10
59	23
60	1
61	18
62	39
63	156
64	81
65	102
66	30
67	40
68	12
69	76
70	54
71	31
72	7
73	9
74	24
75	54
76	66
77	175
78	86
79	133
80	28
81	18
82	43
83	44
84	18
85	81
86	12
87	16
88	14
89	252
90	176
91	41
92	63
93	37
94	27
95	236
96	156
97	115
98	36
99	15
102	25
103	18
104	23
105	31
106	131
107	54
108	308
109	171
110	60
111	73
112	8
113	2
115	24
116	24
117	43
118	233
119	58
120	11
121	28
123	999
124	195
125	128
126	121
127	27
128	8
131	12
132	30
133	23
134	214
135	36
136	26
137	50
138	52
139	45
140	11
141	26
142	9
145	20
146	16
147	29
148	20
149	31
150	104
151	53
152	19
153	80
154	56
155	61
156	7
158	4
162	8
163	1
164	231
165	42
166	144
167	311
168	516
169	163
170	66
171	12
173	21
177	8
178	10
179	11
180	1
182	6
183	5
184	13
185	33
188	69
189	20
190	2
192	14
194	24
201	11
202	1
207	1
208	7
209	3
219	90
220	11
281	8
310	19
326	23
340	157
341	31
356	397
357	93
358	31
387	254
388	58
389	18
