Mass Spectrum: 1,3,3-Trinitropiperidine
Formula: C5H8N4O6
CAS: 298228-66-7
Molecular weight: 220
m/z	intensity
15	29
26	10
27	90
28	73
29	35
30	166
31	6
38	6
39	78
41	106
42	999
43	53
44	8
47	44
50	14
52	30
53	190
56	68
57	23
59	30
60	82
70	72
72	24
74	15
79	11
80	211
81	83
82	152
83	142
84	151
97	28
98	298
99	50
100	431
101	67
110	11
111	378
112	30
114	8
127	21
128	536
129	35
142	10
144	55
174	636
175	40
176	8
220	10
