Mass Spectrum: Phthalazine-1,4(2H,3H)-dione, 2-(4-trifluoromethyl-2-nitrophenyl)-
Formula: C15H8F3N3O4
CAS: 298228-23-6
Molecular weight: 351
m/z	intensity
33	2
34	0
36	2
37	17
38	37
39	133
40	30
41	7
42	2
43	41
44	146
45	32
46	3
48	0
49	27
50	504
51	168
52	56
53	27
54	3
55	1
56	2
57	34
58	1
59	0
60	1
61	5
62	32
63	138
64	56
65	30
66	2
67	0
68	1
69	38
70	9
71	4
73	3
74	75
75	226
76	839
77	163
78	145
79	7
80	0
81	6
82	5
83	6
86	0
87	1
88	18
89	9
90	20
91	3
92	9
93	43
94	17
95	13
96	9
97	14
98	2
99	4
100	7
101	11
102	115
103	69
104	999
105	123
106	17
107	5
108	35
109	3
110	0
111	0
112	0
113	12
114	1
116	1
117	1
118	1
119	10
120	32
121	31
122	0
123	2
124	1
125	29
126	85
127	134
128	14
129	10
130	415
131	102
132	63
133	40
134	3
137	0
138	70
139	17
140	13
141	0
143	16
144	21
145	94
146	34
147	24
148	13
149	263
150	22
151	13
152	2
153	2
154	0
157	2
158	130
159	22
160	1
161	2
163	0
164	0
165	0
166	0
168	1
169	0
170	1
172	4
174	4
175	7
177	0
179	9
180	1
181	1
182	0
183	1
184	0
185	4
187	1
188	4
189	2
190	0
191	2
192	1
193	7
194	4
195	4
196	1
198	0
199	1
200	3
201	18
202	8
203	4
204	53
205	4
206	1
207	5
208	6
209	2
210	0
211	0
213	0
214	2
215	0
216	0
217	0
218	1
219	20
220	18
221	4
222	0
223	0
224	0
226	0
228	0
229	1
230	1
233	1
234	7
235	1
236	2
239	0
241	0
242	5
247	0
248	7
249	6
250	12
251	3
252	1
256	3
257	14
258	3
259	0
260	1
262	2
263	2
264	1
267	0
269	0
271	0
275	3
276	4
277	6
278	0
280	1
282	0
284	0
285	6
286	2
290	2
291	0
297	28
298	0
300	0
302	0
303	2
304	48
305	360
306	71
307	6
308	0
314	0
328	0
332	45
333	4
334	1
335	0
348	0
349	1
350	2
351	591
352	117
353	12
354	0
