Mass Spectrum: 1,3,4-Thiadiazole, 2,3-dihydro-2,2-dimethyl-3-acetyl-5-anilino-
Formula: C12H15N3OS
CAS: 298218-64-1
Molecular weight: 249
m/z	intensity
33	2
34	3
36	1
37	10
38	31
39	211
40	70
41	183
42	217
43	999
44	41
45	32
46	9
47	15
48	2
49	3
50	66
51	257
52	35
53	9
54	18
55	45
56	156
57	97
58	68
59	167
60	16
61	10
62	9
63	31
64	28
65	100
66	25
67	6
68	3
69	9
70	11
71	207
72	81
73	11
74	36
75	44
76	31
77	414
78	55
79	5
80	3
81	2
82	3
83	5
84	4
85	8
86	0
87	0
88	3
89	48
90	8
91	31
92	34
93	174
94	17
95	2
96	5
97	2
98	4
99	69
100	5
101	0
103	4
104	81
105	9
106	4
107	1
108	4
109	70
110	7
111	9
112	1
113	2
114	8
115	37
116	3
117	11
118	44
119	16
120	6
122	2
123	4
124	4
130	1
131	2
133	14
134	13
135	21
136	81
137	9
138	6
139	0
144	3
145	0
146	0
148	0
149	6
150	9
151	7
152	1
156	0
157	0
158	0
160	1
163	0
171	4
173	2
174	34
175	4
176	2
177	0
181	0
189	1
190	5
191	6
192	431
193	51
194	22
195	2
206	14
207	49
208	7
209	3
234	88
235	12
236	3
249	113
250	17
251	6
