Mass Spectrum: Octyl-.beta.-D-glucopyranoside
Formula: C14H28O6
CAS: 29836-26-8
Molecular weight: 292
m/z	intensity
14	1
15	9
16	1
17	21
18	95
19	9
26	3
27	47
28	57
29	129
30	7
31	59
32	8
36	1
38	1
39	32
40	8
41	266
42	108
43	440
44	51
45	75
46	4
47	18
49	1
51	2
52	1
53	15
54	14
55	195
56	189
57	988
58	46
59	10
60	999
61	103
62	9
63	1
65	2
66	1
67	16
68	26
69	188
70	163
71	857
72	57
73	861
74	522
75	36
76	4
77	2
78	5
79	3
80	7
81	16
82	19
83	54
84	52
85	108
86	45
87	90
88	14
89	33
90	4
91	63
92	2
93	1
94	1
95	4
96	3
97	120
98	198
99	52
100	5
101	30
102	19
103	16
104	1
105	1
106	1
107	1
109	6
110	7
111	9
112	34
113	302
114	27
115	13
116	107
117	8
118	1
119	4
121	1
123	2
124	1
125	3
126	9
127	31
128	3
129	5
130	1
131	55
132	4
133	9
134	1
135	1
139	1
140	1
141	17
142	2
143	3
144	136
145	61
146	6
147	1
149	9
157	1
158	1
159	134
160	13
161	1
162	6
163	60
164	4
165	1
167	1
171	2
172	18
173	3
177	2
179	1
183	2
185	3
201	15
202	6
203	4
214	16
215	3
218	1
219	4
225	2
231	7
232	1
243	21
244	3
261	13
262	2
278	1
293	9
294	1
