Mass Spectrum: 1-Propionylethyl acetate
Formula: C7H12O3
CAS: 2983-05-3
Molecular weight: 144
m/z	intensity
13	1
14	6
15	42
16	2
17	3
18	15
19	3
26	10
27	63
28	38
29	185
30	5
31	8
38	1
39	7
40	1
41	13
42	19
43	999
44	26
45	97
46	2
47	2
53	2
55	16
56	19
57	355
58	16
59	8
60	15
61	5
69	3
70	1
71	2
72	1
73	9
74	4
75	21
76	1
77	1
83	2
84	1
85	2
86	5
87	88
88	6
89	2
100	34
101	68
102	8
103	1
115	9
116	1
117	8
129	1
131	1
144	8
145	1
