Mass Spectrum: 5-Methyl-3-phenyl-1-adamantanecarboxylic acid
Formula: C18H22O2
CAS: 29835-36-7
Molecular weight: 270
m/z	intensity
39	555
40	113
41	600
42	80
43	138
45	280
50	60
51	226
52	68
53	219
54	45
55	418
56	152
57	67
63	99
65	215
66	47
67	95
77	531
78	204
79	232
89	46
91	999
92	84
93	138
102	71
103	110
104	51
105	117
107	266
115	299
116	70
117	114
118	173
127	72
128	188
129	125
141	114
152	86
153	96
154	91
155	171
165	49
167	53
169	272
170	58
225	68
270	52
