Mass Spectrum: 1,1,2-Triacetoxyethane
Formula: C8H12O6
CAS: 2983-35-9
Molecular weight: 204
m/z	intensity
14	1
15	15
28	5
29	2
31	1
42	17
43	999
44	22
45	6
56	1
60	7
61	4
73	16
74	5
85	1
86	32
87	1
89	5
101	9
102	24
103	136
104	6
116	14
131	16
144	5
145	24
146	1
