Mass Spectrum: Mannofuranoside, methyl 6-deoxy-2-O-methyl-, diacetate
Formula: C12H20O7
CAS: 29839-03-0
Molecular weight: 276
m/z	intensity
14	30
15	122
16	29
26	29
27	74
28	190
29	91
30	29
31	58
40	61
41	125
42	61
43	999
44	61
45	153
67	38
68	16
69	93
70	29
71	129
72	104
73	88
74	999
75	87
81	29
82	32
83	191
84	30
85	158
86	27
87	411
88	411
89	58
95	32
96	254
97	77
98	30
99	77
100	45
101	90
102	30
103	127
111	46
113	222
114	187
115	138
116	577
117	77
125	93
129	350
130	43
143	45
149	30
156	50
157	22
158	2
159	1
172	6
173	2
189	3
216	2
245	9
246	2
