Mass Spectrum: 1,2-O-Isopropylidene-3-O-tosyl-5-O-ethoxycarbonyl-d-xylofuranose
Formula: C18H24O9S
CAS: 29836-13-3
Molecular weight: 416
m/z	intensity
41	155
42	82
43	999
44	47
45	48
46	1
47	10
49	19
51	7
53	7
54	12
55	165
56	115
57	108
58	31
59	844
60	48
61	32
63	4
67	3
68	37
69	53
70	6
71	88
72	10
73	111
74	120
75	6
77	6
81	3
83	11
84	22
85	237
86	28
87	12
89	4
95	4
96	3
97	311
98	22
99	6
100	25
101	43
102	5
105	1
111	1
113	15
114	8
115	36
119	11
123	1
126	6
127	78
128	3
129	28
130	3
132	3
133	4
139	109
140	8
141	6
149	8
155	1
158	3
159	72
160	5
173	14
175	248
176	18
177	4
201	224
202	20
203	4
217	11
219	5
233	7
235	3
416	8
