Mass Spectrum: Isomyrcenyl acetate
Formula: C12H20O2
CAS: 29843-60-5
Molecular weight: 196
m/z	intensity
27	126
28	17
29	99
30	2
31	7
32	1
37	1
38	4
39	155
40	24
41	412
42	27
43	999
44	23
45	3
47	0
48	0
50	5
51	22
52	12
53	98
54	32
55	165
56	17
57	39
58	2
59	2
61	2
62	0
63	5
64	2
65	30
66	23
67	402
68	47
69	644
70	37
71	8
72	1
73	15
74	1
75	1
76	0
77	47
78	18
79	153
80	151
81	386
82	151
83	20
84	3
85	4
86	2
89	1
90	0
91	39
92	16
93	179
94	70
95	128
96	13
97	5
98	5
99	40
100	3
101	1
103	1
104	0
105	11
106	5
107	98
108	51
109	7
110	1
111	4
112	4
113	2
114	0
115	1
116	0
117	2
118	1
119	9
120	5
121	389
122	41
123	143
124	15
125	1
126	0
127	0
131	0
132	0
133	0
134	2
135	7
136	187
137	22
138	5
139	1
140	13
141	4
142	0
150	5
151	1
152	1
153	0
154	1
194	0
