Mass Spectrum: Propanedioic acid, (3-oxo-1-cyclopenten-1-yl)-, dimethyl ester
Formula: C10H12O5
CAS: 29850-21-3
Molecular weight: 212
m/z	intensity
26	18
27	106
29	56
30	7
31	15
33	0
37	14
38	94
39	219
40	8
41	89
42	12
43	33
44	2
45	21
46	1
47	2
49	1
50	21
51	59
52	38
53	160
54	31
55	63
56	4
58	2
59	365
60	11
61	4
62	8
63	32
64	21
65	238
66	162
67	62
68	22
69	65
70	1
71	0
72	0
74	1
75	1
77	22
78	11
79	65
80	12
81	79
82	37
83	64
84	5
85	2
86	1
87	0
88	3
89	0
91	1
92	12
93	65
94	84
95	38
96	7
97	60
98	9
99	3
100	13
101	6
102	0
104	0
105	0
106	0
107	4
108	6
109	203
110	29
111	362
112	41
113	7
115	1
116	0
117	0
119	1
120	19
121	93
122	52
123	14
124	966
125	999
126	75
127	6
128	0
130	0
132	1
133	0
134	1
135	11
136	3
137	139
138	13
139	7
140	1
141	9
142	0
147	0
148	60
149	12
150	5
151	6
152	105
153	255
154	24
155	3
156	2
158	0
164	2
165	1
166	0
167	4
169	10
170	1
171	1
172	0
175	0
176	0
177	0
178	0
179	2
180	385
181	128
182	14
183	1
184	67
185	6
186	2
187	0
188	0
192	0
193	0
196	0
197	0
200	1
201	0
202	1
203	0
204	0
205	0
208	0
209	0
210	0
211	1
212	243
213	39
214	4
