Mass Spectrum: Alanine, 2-[(2-chloro-3-pyridinyl)amino]-3,3,3-trifluoro-N-(1-oxopropyl)-, ethyl ester
Formula: C13H15ClF3N3O3
CAS: 298687-27-1
Molecular weight: 353
m/z	intensity
33	3
35	2
36	1
37	8
38	28
39	73
40	22
41	16
43	47
44	12
45	3
46	2
49	5
50	15
51	23
52	15
53	3
55	12
57	999
58	18
59	0
62	2
63	3
64	29
65	34
66	38
67	8
69	34
70	1
71	8
72	6
73	11
74	14
75	9
76	46
77	23
78	24
79	0
85	16
87	2
90	1
91	40
92	54
93	58
94	12
96	42
97	1
100	13
101	10
103	43
104	3
105	1
110	1
112	41
113	43
114	23
115	4
117	2
118	35
119	21
120	11
121	1
123	11
124	0
125	0
126	0
128	408
130	159
131	12
133	0
134	1
136	0
138	1
139	30
140	1
141	22
142	5
143	1
146	10
147	1
148	8
149	35
150	1
151	0
152	0
154	22
155	5
156	4
157	1
162	3
163	0
164	4
166	6
168	72
169	13
170	13
171	1
173	1
180	1
181	3
183	1
184	1
186	2
188	385
189	54
190	2
192	10
195	0
197	1
199	1
200	9
202	2
207	72
209	36
210	2
212	1
214	4
216	1
217	50
218	3
222	7
224	915
226	362
227	26
228	54
229	7
230	15
236	0
245	28
246	5
250	10
251	1
252	1
253	5
258	2
262	0
263	2
278	8
280	415
281	68
282	139
283	20
284	8
286	3
294	4
296	2
318	1
324	1
352	0
353	132
354	15
355	38
356	7
