Mass Spectrum: Indane-1,3-dione, 2-(4-chlorophenyl)-2-(2-fluorobenzyl)-
Formula: C22H14ClFO2
CAS: 298686-18-7
Molecular weight: 364
m/z	intensity
33	20
34	5
35	1
36	5
37	3
38	6
39	27
40	43
41	9
42	9
43	9
44	11
45	4
46	0
47	0
48	0
50	39
51	26
52	6
53	5
54	2
55	8
56	18
57	20
58	3
59	7
60	2
61	3
62	9
63	21
64	5
65	7
66	1
67	1
68	3
69	6
70	5
71	4
73	8
74	14
75	35
76	69
77	35
78	5
80	2
81	5
83	55
84	9
85	5
86	5
87	9
88	7
89	10
90	2
91	11
92	3
93	4
94	3
95	3
96	4
97	3
98	5
99	5
101	13
102	7
104	52
105	12
106	3
107	15
109	999
110	72
111	9
112	11
113	9
114	3
115	3
116	2
117	1
118	4
119	3
120	8
121	3
122	4
123	10
125	27
126	13
127	7
128	3
129	3
130	1
131	2
132	6
133	5
134	8
135	8
136	10
137	10
138	4
139	10
140	6
141	7
142	3
143	3
144	2
145	2
146	1
147	1
149	6
150	6
151	5
152	5
153	2
154	1
155	1
156	0
157	2
158	1
159	1
160	1
161	2
162	5
163	31
164	17
165	5
166	1
167	1
168	2
169	3
170	6
171	4
172	1
173	3
174	3
175	7
176	14
177	7
178	6
179	1
181	1
182	3
183	3
184	0
185	0
186	0
189	1
190	4
191	5
192	5
193	2
194	6
195	4
196	17
197	5
199	32
200	5
201	10
202	5
203	2
204	0
205	2
206	2
207	0
211	0
212	3
213	3
214	1
217	0
219	2
220	10
221	2
222	0
223	0
224	1
225	1
227	10
228	1
229	3
230	2
231	1
232	3
233	2
234	1
239	0
241	1
243	1
244	0
250	2
251	1
252	3
253	2
255	33
256	6
257	10
258	1
265	0
267	3
268	2
269	1
270	4
271	3
272	0
273	0
281	0
282	0
283	2
284	0
285	0
299	1
300	0
301	0
309	1
311	2
312	0
317	0
326	0
329	1
330	0
341	1
342	0
344	10
345	2
346	3
347	0
356	1
361	0
362	1
364	53
365	12
366	17
367	4
