Mass Spectrum: Benzamide, N-(3-acetylphenyl)-2-(4-fluorobenzylthio)-
Formula: C22H18FNO2S
CAS: 298686-79-0
Molecular weight: 379
m/z	intensity
33	1
34	0
36	0
37	1
38	5
39	26
40	4
41	3
43	137
45	20
46	0
47	0
50	12
51	15
52	4
53	2
54	1
55	2
57	17
58	8
59	8
60	1
61	1
62	6
63	28
64	15
65	30
66	2
67	0
69	25
70	2
71	2
72	0
74	3
75	7
76	13
77	20
78	6
79	1
81	6
82	13
83	79
84	4
85	0
86	0
87	1
89	12
90	7
91	15
92	16
93	3
94	1
95	2
96	2
97	1
98	0
99	0
101	0
102	0
103	1
105	25
109	999
110	61
111	2
112	0
113	0
114	0
115	0
116	0
118	2
119	6
120	24
121	4
122	1
123	1
124	0
125	0
126	0
127	1
128	0
129	0
130	0
131	0
135	525
136	84
137	17
138	3
139	7
140	1
141	0
142	0
146	1
147	0
149	36
150	8
151	3
152	1
153	1
154	0
155	0
157	0
161	0
162	0
163	0
164	1
165	1
166	2
167	2
168	0
169	0
170	1
171	2
172	0
173	0
177	0
178	0
179	0
180	0
181	0
182	0
183	6
184	2
185	0
187	0
189	0
191	0
192	1
193	0
194	0
195	3
196	3
197	1
198	2
199	2
200	1
201	0
202	0
208	0
209	0
210	1
211	1
212	2
213	0
214	0
215	5
216	1
217	1
218	0
219	0
220	0
221	0
222	0
223	0
224	0
225	0
226	3
227	3
228	41
229	6
230	2
231	0
236	0
237	0
238	1
239	0
240	0
241	1
242	2
243	5
244	41
245	40
246	7
247	2
248	0
252	0
253	0
254	2
255	0
262	1
263	0
267	1
270	113
271	19
272	6
273	0
346	0
364	0
379	3
380	0
381	0
