Mass Spectrum: Quinazolin-4(3H)-one, 2-(1-methyl-2-oxopropylthio)-3-phenyl-
Formula: C18H16N2O2S
CAS: 298686-75-6
Molecular weight: 324
m/z	intensity
33	23
34	4
35	1
39	225
41	82
43	734
44	49
45	60
46	9
47	4
50	118
51	230
52	32
53	15
55	29
56	17
57	13
59	88
60	34
61	13
63	183
64	116
65	77
66	13
67	2
69	29
70	12
71	25
72	8
73	21
74	35
75	81
77	999
78	44
79	4
81	4
82	10
83	7
84	10
86	416
88	49
90	380
91	106
92	62
93	8
94	6
95	7
96	8
97	3
98	1
99	2
100	2
102	65
103	64
104	47
105	131
106	21
107	24
108	32
109	34
110	5
111	3
112	4
113	4
114	4
115	9
116	22
117	30
119	304
120	61
122	24
123	2
124	1
125	1
126	3
127	5
128	14
129	7
130	17
131	6
132	7
134	110
135	26
136	20
137	6
138	5
139	20
140	21
141	5
142	1
144	31
146	665
147	62
150	89
151	10
152	6
153	4
154	5
155	1
156	0
157	0
158	0
159	2
160	5
162	125
163	15
164	17
166	113
167	45
168	8
169	1
170	2
171	6
172	4
173	12
174	8
175	1
176	4
178	143
179	58
180	14
181	5
182	0
183	0
184	1
185	0
187	0
188	0
189	1
191	21
192	76
193	81
194	91
195	29
196	9
197	4
198	11
199	2
200	0
202	0
203	4
204	4
205	16
206	4
207	1
208	1
209	0
210	0
211	0
215	1
217	0
221	576
222	201
223	50
224	35
225	28
226	5
227	1
231	1
232	13
233	5
234	10
235	13
236	4
237	4
238	3
239	23
240	3
241	0
245	1
247	26
248	49
249	157
250	34
251	18
253	540
254	179
255	120
256	24
257	5
258	0
263	6
264	2
265	6
267	17
268	6
269	1
270	0
273	0
277	2
279	13
281	158
282	104
283	23
284	7
285	1
287	2
291	474
292	86
293	10
294	0
295	2
296	0
304	1
305	2
307	90
309	204
310	34
311	12
312	1
313	0
314	0
320	1
321	3
324	379
325	73
326	22
327	4
