Mass Spectrum: Acetamide, 2-[5-(2-furyl)-1,3,4-oxadiazol-2-ylthio]-N-methyl-N-phenyl-
Formula: C15H13N3O3S
CAS: 298686-74-5
Molecular weight: 315
m/z	intensity
33	25
34	3
36	8
37	34
39	420
42	162
43	27
44	25
45	66
46	37
47	13
50	122
51	213
52	69
53	134
54	21
55	18
56	11
57	7
58	5
59	6
60	14
61	4
63	62
64	65
65	109
66	32
67	29
68	4
69	5
70	4
71	4
72	6
73	4
74	9
77	734
78	133
79	168
80	16
81	6
82	3
83	4
84	3
85	3
86	1
88	17
89	11
91	172
93	254
95	743
97	53
98	2
99	1
100	1
105	958
106	999
107	654
108	75
109	20
111	44
112	4
113	4
114	0
115	2
117	23
118	73
119	52
120	166
121	18
122	4
123	8
124	13
125	4
126	4
127	1
128	1
129	2
130	6
132	58
134	462
135	113
136	15
138	86
139	8
140	3
141	0
142	0
143	1
147	850
148	347
149	512
150	48
152	9
153	4
154	0
155	0
157	2
158	1
159	1
160	0
161	2
162	12
163	7
164	5
166	23
168	118
169	73
170	12
171	5
172	0
173	0
176	0
177	3
178	4
180	64
181	11
182	5
183	1
184	1
185	2
186	0
187	0
188	0
189	0
190	0
192	9
193	1
194	0
195	0
196	0
197	0
198	1
199	1
200	0
201	0
204	0
205	1
206	3
209	93
210	9
211	4
212	1
213	0
214	0
221	1
222	0
224	0
225	0
238	0
240	6
241	9
242	4
243	0
254	0
256	0
257	0
258	1
268	0
273	4
274	0
275	0
282	3
283	0
286	1
287	0
297	0
310	0
312	4
315	204
316	33
317	12
318	1
