Mass Spectrum: Benzeneacetamide, .alpha.-hydroxy-2-methyl-.alpha.-(2-methylphenyl)-N-2-pyridinyl-
Formula: C21H20N2O2
CAS: 298686-49-4
Molecular weight: 332
m/z	intensity
33	22
34	1
39	129
40	33
41	13
42	2
43	6
44	5
45	1
46	0
51	94
52	16
53	5
55	3
56	1
57	1
60	0
63	27
65	160
66	27
67	37
68	2
69	1
70	1
74	1
75	7
78	184
79	8
81	2
82	4
84	0
86	1
87	1
89	26
91	529
94	999
95	89
97	3
98	1
99	0
101	2
102	3
103	3
105	19
106	1
108	0
113	1
115	14
119	699
120	54
121	75
122	107
123	66
125	1
127	9
128	5
129	1
131	0
132	0
133	0
135	1
136	0
139	5
141	3
142	0
147	0
150	1
152	22
153	3
155	4
156	0
157	0
162	0
163	2
165	32
166	5
167	2
168	1
169	0
170	0
176	7
178	37
179	11
181	8
182	0
183	0
185	0
187	0
189	4
190	2
191	6
192	5
193	6
195	51
196	8
197	8
198	1
201	0
203	0
204	0
205	0
207	1
209	11
211	310
212	35
213	7
214	0
219	0
221	0
222	0
223	0
224	0
237	0
241	0
246	3
247	5
248	0
289	0
304	20
305	3
314	0
315	0
317	0
332	6
333	1
