Mass Spectrum: Imidazole-2(3H)-thione, 1-benzyl-3-(4-morpholylmethyl)-
Formula: C15H19N3OS
CAS: 298686-63-2
Molecular weight: 289
m/z	intensity
33	41
34	5
36	4
39	42
40	70
41	37
42	64
43	20
44	30
45	13
47	0
48	3
50	8
51	15
52	8
53	5
54	11
56	138
57	24
58	6
59	4
60	2
61	1
63	16
65	60
66	3
68	14
69	8
70	33
71	10
72	22
73	2
74	2
75	2
77	13
78	4
79	2
80	1
81	4
82	3
84	13
85	5
86	9
87	8
89	15
91	245
92	12
94	3
95	3
96	1
98	27
100	999
101	38
103	7
104	3
105	0
106	0
107	0
108	0
109	0
111	5
112	7
113	3
114	2
115	1
116	1
117	1
118	0
119	0
121	4
122	0
123	0
125	2
126	0
127	1
128	1
129	1
130	3
131	1
132	0
133	0
134	1
135	0
136	0
137	0
138	0
139	0
140	0
143	0
144	0
145	0
146	0
148	0
149	0
151	0
152	0
153	1
154	0
155	1
156	3
157	14
158	4
159	0
160	0
161	0
162	0
165	0
167	0
168	0
169	0
170	0
171	1
172	0
174	0
175	0
186	0
187	1
188	1
190	47
191	5
192	2
193	0
198	0
201	0
203	1
204	0
206	0
286	0
287	0
289	39
290	6
291	2
292	0
