Mass Spectrum: Pyrazole-1-acetamide, 3-nitro-N-(4-iodophenyl)-
Formula: C11H9IN4O3
CAS: 298686-31-4
Molecular weight: 372
m/z	intensity
33	8
34	0
36	7
38	61
39	63
40	51
41	77
42	30
43	8
44	6
46	32
50	46
52	172
53	237
54	82
56	1
57	2
58	2
60	3
63	131
64	99
65	59
66	10
68	48
70	8
71	1
72	2
74	12
76	96
77	26
81	999
84	1
85	1
86	3
90	91
91	118
92	52
93	20
95	13
96	12
97	13
99	1
100	1
102	5
103	8
104	24
105	21
108	18
110	44
111	25
113	4
114	1
115	1
116	1
118	13
119	19
120	16
121	3
123	28
127	510
130	4
131	5
132	11
133	5
134	1
135	1
141	0
142	0
143	1
144	1
145	1
146	2
147	3
148	1
153	0
157	0
158	0
159	1
164	0
165	1
169	0
170	1
171	1
174	0
183	0
184	0
185	0
186	1
189	0
191	16
192	0
197	0
198	0
199	0
201	0
203	26
204	1
210	0
211	0
213	0
214	1
216	6
218	104
219	82
226	0
228	1
230	23
231	24
232	9
233	0
243	0
245	30
246	17
247	2
254	6
255	0
256	0
258	5
260	1
261	0
269	0
290	0
308	0
342	0
345	0
355	0
356	0
366	1
368	10
372	788
373	90
375	0
