Mass Spectrum: Carbamimidothioic acid, methyl ester
Formula: C2H6N2S
CAS: 2986-19-8
Molecular weight: 90
m/z	intensity
12	3
13	12
14	9
15	25
16	10
17	17
18	7
26	3
27	9
28	51
29	4
30	3
32	7
33	8
34	3
40	2
41	19
42	146
43	999
44	33
45	119
46	48
47	171
48	57
49	6
50	1
58	4
59	14
60	5
61	1
62	2
71	1
72	10
73	19
74	17
75	2
76	2
90	262
91	11
92	10
