Mass Spectrum: 2,5-Dioxabicyclo[2.2.2]octane-3,6-diol, 1,3,4,6-tetramethyl-
Formula: C10H18O4
CAS: 298685-36-6
Molecular weight: 202
m/z	intensity
33	5
34	0
36	0
39	70
41	134
43	999
45	29
47	0
49	0
50	3
51	8
53	27
55	50
57	193
58	210
59	19
61	19
63	1
65	5
67	16
69	35
72	249
73	8
74	1
75	0
77	6
78	5
79	9
81	21
85	771
88	37
89	0
91	1
92	0
93	1
95	7
97	13
99	33
100	14
101	1
102	0
105	0
107	6
109	72
111	9
113	1
114	4
115	6
116	0
121	1
123	11
124	18
125	11
127	3
135	0
139	2
142	138
143	9
149	0
150	0
151	0
158	1
159	0
167	4
168	1
169	0
185	7
186	0
