Mass Spectrum: Ethanone, 1-[1-(5-methoxy-4-furazanyl)-5-methyl-1,2,3-triazol-4-yl)-
Formula: C8H9N5O3
CAS: 298685-74-2
Molecular weight: 223
m/z	intensity
33	4
34	0
37	11
39	113
40	17
43	999
45	2
46	0
48	0
49	1
50	7
51	16
53	105
54	69
55	13
56	7
58	31
59	2
60	0
61	0
62	1
63	3
64	6
66	45
67	73
68	18
69	18
70	6
71	0
74	3
75	0
76	1
77	3
78	4
79	14
80	14
81	14
83	18
84	1
85	1
87	0
91	1
93	10
94	8
96	78
97	3
98	0
99	3
100	1
101	0
105	0
107	6
108	31
109	3
111	2
119	0
122	22
123	85
124	4
125	0
133	6
135	57
136	4
137	2
138	5
140	11
141	0
148	1
150	10
151	2
153	42
155	0
165	0
180	5
195	3
208	2
220	0
221	0
223	25
224	2
