Mass Spectrum: Thiazolidine-5-carboxylic acid, 2-(2-thienyl)-
Formula: C8H9NO2S2
CAS: 298685-45-7
Molecular weight: 215
m/z	intensity
33	38
34	14
37	14
38	34
39	125
40	73
41	52
42	94
43	82
45	999
46	302
47	65
48	30
49	6
50	50
51	67
52	67
53	41
54	39
55	46
57	65
58	348
59	228
60	35
61	30
62	28
63	35
64	52
65	31
66	26
68	14
69	192
70	162
71	50
73	23
74	13
75	13
76	33
77	17
78	16
80	70
81	38
82	34
83	53
84	74
85	176
86	130
87	19
88	6
92	6
93	20
94	4
95	89
96	278
97	311
98	117
99	23
100	1
103	3
104	5
106	5
108	4
109	89
110	530
111	176
112	183
113	44
115	28
116	7
120	3
123	837
124	98
125	36
127	387
128	71
129	43
132	8
135	1
136	131
137	35
138	73
139	7
141	29
143	677
144	32
145	43
151	201
152	16
153	22
164	8
168	135
169	146
170	127
171	17
172	6
182	68
183	6
197	2
213	3
214	54
215	276
216	35
217	12
218	2
