Mass Spectrum: Pyrrole-2,5-dicarboxylic acid, 4-(2-diethylamino)ethyl-3-methyl-, 2-ethyl ester
Formula: C15H24N2O4
CAS: 298687-37-3
Molecular weight: 296
m/z	intensity
33	3
34	0
36	0
39	2
40	4
41	2
42	7
43	3
44	4
45	1
51	1
52	1
53	1
55	2
56	8
58	36
59	1
60	0
61	0
63	0
64	1
65	4
66	1
67	1
69	0
70	2
71	1
72	3
73	1
74	0
75	0
77	5
78	2
79	2
80	1
81	0
82	0
86	999
87	42
88	2
89	0
90	1
91	2
92	2
93	1
94	1
95	0
97	0
99	0
101	0
102	0
103	0
104	3
105	2
106	1
107	1
108	2
109	1
110	0
112	0
117	0
118	1
119	2
120	2
121	1
122	1
123	0
124	0
128	0
130	0
131	0
132	1
133	1
134	3
135	1
136	0
137	1
144	0
145	0
146	1
147	1
148	2
149	0
150	0
151	0
158	0
160	7
161	1
162	2
164	6
165	0
166	0
170	0
174	0
175	0
176	0
177	2
178	2
179	1
180	1
181	0
187	0
189	3
190	0
191	0
193	0
194	0
195	0
203	0
204	0
205	1
207	2
208	0
209	0
210	0
219	0
221	0
222	0
223	1
224	1
225	0
233	0
235	2
236	0
237	0
248	0
249	0
250	1
251	3
252	0
267	0
281	0
294	0
295	0
296	2
297	0
