Mass Spectrum: 1H-Benzimidazole, 2-(ethylthio)-1-(2-fluorobenzyl)-
Formula: C16H15FN2S
CAS: 298685-19-5
Molecular weight: 286
m/z	intensity
33	12
34	3
35	9
37	12
39	138
40	12
41	6
42	3
43	3
44	15
45	53
46	8
47	3
48	0
50	73
51	86
52	21
53	5
54	1
57	85
58	19
59	61
60	11
61	12
62	39
63	116
64	51
65	25
66	1
67	1
68	6
69	22
70	26
71	7
74	30
75	65
76	59
77	73
78	22
79	3
81	28
83	289
84	14
85	2
86	3
87	6
89	66
90	112
91	36
92	25
93	14
94	16
95	30
96	23
97	3
98	2
99	3
102	71
103	20
104	14
105	10
107	92
109	999
110	57
111	2
112	1
113	0
114	0
115	3
116	5
117	15
118	55
119	79
120	13
122	118
123	8
124	5
125	3
126	3
127	8
128	6
129	23
131	35
132	8
133	23
134	61
135	11
136	7
139	81
140	6
141	5
143	44
144	24
145	34
146	26
147	10
149	61
150	29
151	27
152	6
153	2
154	0
157	4
158	2
159	6
161	38
162	10
163	29
164	6
165	1
166	1
168	3
169	9
170	21
171	4
173	2
175	16
177	297
178	29
179	14
180	2
182	0
183	1
184	0
185	0
189	0
190	0
191	2
192	1
193	0
195	3
196	6
197	9
198	12
199	1
201	0
202	0
204	0
205	10
206	8
207	9
209	1
210	1
211	1
212	2
213	2
223	28
224	52
225	126
226	17
227	1
229	0
233	8
234	2
235	2
237	28
238	11
239	6
240	1
243	1
250	1
251	5
253	195
254	28
255	10
257	82
258	127
259	18
260	4
261	0
268	0
270	1
271	5
272	1
283	0
286	211
287	23
288	6
289	0
