Mass Spectrum: Thiazolidine-5-carboxylic acid, 2-(4-fluorophenyl)-
Formula: C10H10FNO2S
CAS: 298685-46-8
Molecular weight: 227
m/z	intensity
33	115
34	67
39	12
40	72
41	85
42	274
43	174
45	999
46	467
48	151
49	13
50	49
51	36
54	30
55	32
56	17
57	174
59	377
60	156
61	21
62	46
63	31
65	3
68	15
69	41
70	51
74	232
75	547
76	452
77	48
78	15
81	32
82	14
83	38
85	11
86	140
87	34
88	14
89	7
91	4
93	8
95	205
97	118
101	29
102	19
103	18
104	2
105	4
107	167
108	287
109	168
110	3
113	3
117	5
121	88
122	379
124	183
125	37
127	9
132	27
135	395
136	393
137	21
138	5
139	272
140	21
141	8
148	76
149	14
150	52
153	41
155	416
156	23
157	6
162	30
163	39
164	35
180	96
181	87
182	167
183	16
194	32
226	20
227	147
228	20
