Mass Spectrum: Acetamide, 2-[2,3-dihydro-3-(2-amino-1-cyano-2-oxoethylideno)-2-oxo-1-indolyl]-N,N-diethyl-
Formula: C17H18N4O3
CAS: 298686-95-0
Molecular weight: 326
m/z	intensity
33	14
34	1
36	1
37	3
38	6
39	19
40	23
41	28
42	63
44	296
46	1
48	2
50	12
51	22
52	10
53	5
54	5
55	12
56	34
57	15
58	23
60	3
61	4
62	4
63	10
64	6
65	5
66	1
67	3
68	2
69	6
70	14
72	713
74	44
75	20
76	19
77	33
78	6
79	2
80	1
81	1
82	2
83	3
84	4
85	4
86	12
87	7
88	6
89	8
90	5
91	8
92	1
93	1
94	1
95	1
96	3
97	3
100	999
101	96
102	18
103	8
104	4
105	3
106	2
107	2
108	0
109	1
110	1
111	2
112	3
113	6
114	8
115	6
116	7
117	8
118	8
119	2
120	1
121	2
122	4
123	2
124	1
126	33
127	62
128	84
129	14
130	5
131	6
132	10
133	2
134	1
135	0
136	0
137	1
138	0
139	1
140	4
141	6
142	6
143	4
144	2
145	2
146	3
147	1
149	2
150	1
151	1
153	45
154	54
155	101
156	16
157	10
158	2
159	1
160	1
161	1
162	0
163	1
164	0
165	0
166	0
167	1
168	5
169	10
170	10
171	9
172	1
173	1
174	1
175	1
176	0
177	0
178	0
180	4
181	13
182	22
183	24
184	4
185	1
186	0
189	0
190	0
193	0
194	0
195	0
196	5
197	5
198	6
199	3
200	1
201	0
204	0
206	0
208	6
209	6
210	33
211	7
212	2
213	1
214	0
215	0
217	0
218	0
220	0
221	0
222	0
224	9
226	122
227	60
228	8
229	1
230	0
232	1
233	0
234	0
235	0
236	0
237	1
238	1
240	1
241	0
242	1
243	1
244	0
245	0
246	2
247	0
249	1
250	0
251	0
252	2
253	5
254	11
255	30
256	5
257	1
258	0
260	10
261	1
262	0
264	0
266	0
270	1
271	0
278	0
279	0
280	1
281	1
282	2
283	6
284	18
285	3
286	0
290	1
291	0
297	0
298	1
299	0
308	0
309	1
310	2
311	0
318	0
319	0
321	0
323	2
326	181
327	31
328	9
329	1
