Mass Spectrum: Butanoic acid, 4-[3-acetyl-2-(2-fluorophenyl)-4-hydroxy-5-oxo-3-pyrrolin-1-yl]-3-phenyl-, methyl ester
Formula: C23H22FNO5
CAS: 298687-75-9
Molecular weight: 411
m/z	intensity
33	7
36	0
39	74
41	81
43	999
45	8
50	12
51	77
52	15
53	27
54	7
55	18
56	17
57	14
59	108
60	3
61	3
63	25
65	32
66	4
67	4
69	26
70	10
71	1
72	0
75	62
77	129
78	69
79	11
81	7
83	16
84	3
85	3
86	1
87	2
89	18
91	119
92	10
93	8
94	8
95	17
96	7
97	3
99	16
101	103
103	126
104	107
105	19
107	16
109	87
110	5
111	0
115	59
117	87
118	50
121	307
122	24
123	15
124	6
125	3
126	4
128	10
129	8
131	27
132	13
133	29
135	31
136	15
137	0
139	0
140	0
143	2
144	8
145	15
146	14
147	21
149	553
150	38
151	3
153	0
158	4
159	4
160	9
162	21
163	13
164	10
165	1
171	0
172	1
173	3
176	222
177	23
178	4
179	0
186	1
188	8
191	914
192	90
193	19
194	1
200	0
202	1
203	0
204	8
205	3
206	5
207	1
216	0
217	0
218	3
219	41
220	21
221	3
233	1
234	2
235	6
236	35
237	4
238	1
245	2
248	250
249	44
250	5
251	0
268	1
280	6
281	1
292	0
308	7
309	2
310	0
318	0
319	1
320	10
321	1
322	0
323	0
334	4
335	1
336	2
337	8
338	13
339	2
340	1
350	2
351	11
352	4
353	0
360	0
361	4
362	1
363	0
368	0
369	0
378	1
379	15
380	36
381	8
382	0
393	0
406	0
407	0
408	1
411	184
412	38
413	5
