Mass Spectrum: Androstan-3-one, 17.beta.-hydroxy-
Formula: C19H30O2
CAS: 29873-50-5
Molecular weight: 290
m/z	intensity
41	798
42	64
43	412
44	141
45	32
47	2
49	8
51	25
52	18
53	280
55	999
57	408
58	42
59	4
63	3
65	101
66	46
67	524
68	247
69	171
70	7
71	64
72	3
74	5
77	207
79	446
80	80
81	406
82	81
83	92
84	23
85	15
86	2
87	4
88	3
89	2
91	292
92	22
93	312
94	122
95	274
96	25
97	107
98	9
99	7
101	1
102	1
103	16
104	5
105	191
106	28
107	250
108	72
109	162
110	65
111	66
112	6
113	4
115	19
116	3
117	42
118	34
119	129
120	51
121	191
122	115
123	244
124	172
125	26
126	1
127	1
128	8
129	15
130	5
131	54
132	21
133	88
134	35
135	98
136	51
137	68
138	9
139	1
141	3
142	1
143	15
144	10
145	57
146	24
147	80
148	37
149	109
150	19
151	16
152	1
153	1
154	2
155	1
157	19
158	9
159	62
160	18
161	82
162	42
163	214
164	51
165	35
166	16
167	32
168	1
169	1
171	15
172	6
173	40
174	31
175	55
176	45
177	21
178	11
179	27
180	3
183	1
185	17
186	4
187	17
188	8
189	47
190	23
191	10
192	5
197	4
199	90
200	33
201	31
202	8
203	26
204	44
205	8
211	1
213	36
214	7
215	84
216	15
217	66
218	29
219	10
220	8
228	5
229	10
231	631
232	131
233	102
234	18
235	5
239	8
243	1
244	7
246	100
247	52
248	10
255	10
256	1
257	59
258	9
261	6
262	1
271	8
272	65
273	27
274	3
275	41
276	6
290	457
291	97
292	25
293	4
