Mass Spectrum: Fumaramic acid
Formula: C4H5NO3
CAS: 2987-87-3
Molecular weight: 115
m/z	intensity
41	80
42	67
43	164
44	999
45	443
46	31
47	3
48	0
49	5
50	6
51	26
52	75
53	432
54	205
55	156
56	7
57	7
59	3
60	3
61	0
62	1
63	1
64	1
65	1
67	2
68	7
69	51
70	149
71	994
72	85
73	7
74	1
77	6
78	17
79	2
80	8
81	258
82	55
83	5
84	4
85	2
86	4
87	26
88	1
95	2
96	3
97	277
98	105
99	657
100	28
101	5
105	1
111	0
114	2
115	260
116	72
117	5
