Mass Spectrum: Cyclohexane, 1,2,3-trimethoxy-, stereoisomer
Formula: C9H18O3
CAS: 29887-73-8
Molecular weight: 174
m/z	intensity
39	90
41	230
42	70
43	90
45	230
46	20
47	45
50	15
51	30
52	15
53	60
54	15
55	85
56	50
57	40
58	75
59	50
61	15
65	15
66	15
67	65
68	20
69	160
70	15
71	460
72	55
73	45
74	25
75	180
76	10
77	40
78	15
79	45
80	20
81	30
82	12
83	40
84	999
85	100
86	13
87	10
88	65
89	13
95	35
96	10
97	85
98	13
99	30
100	10
101	110
102	10
107	8
108	12
109	17
110	45
111	85
112	13
113	12
114	25
115	13
116	12
127	15
128	4
129	20
141	8
142	100
143	17
159	48
160	10
174	20
