Mass Spectrum: Cyclohexane, 1,2,4-trimethoxy-, stereoisomer II
Formula: C9H18O3
CAS: 29887-74-9
Molecular weight: 174
m/z	intensity
41	230
42	50
43	130
45	320
53	50
55	80
56	30
57	60
58	999
59	100
65	30
67	60
69	70
71	250
72	50
73	110
75	210
77	30
79	60
80	30
81	20
84	380
85	80
88	70
95	30
97	80
99	20
101	590
102	30
103	440
104	60
109	20
110	80
111	50
112	20
114	30
115	20
116	80
117	10
127	20
142	480
143	50
159	50
174	10
