Mass Spectrum: Cycloheptane, 1,2-dimethoxy-, trans-
Formula: C9H18O2
CAS: 29887-78-3
Molecular weight: 158
m/z	intensity
39	150
40	40
41	500
42	70
43	150
44	130
45	480
46	10
47	30
50	10
51	20
52	10
53	70
54	50
55	190
56	50
57	60
58	290
59	170
60	10
61	20
63	20
65	30
66	60
67	160
68	70
69	70
70	20
71	999
72	130
73	30
74	10
75	40
76	10
77	50
78	10
79	170
80	30
81	90
82	20
83	40
84	130
85	70
86	10
87	30
91	30
92	10
93	40
94	330
95	100
96	50
97	310
98	120
99	30
100	10
101	30
111	190
112	30
113	10
115	10
125	40
126	250
127	40
143	60
158	40
