Mass Spectrum: Cyclohexanol, 3,5-dimethoxy-, cis-1,3,trans-1,5-
Formula: C8H16O3
CAS: 29887-63-6
Molecular weight: 160
m/z	intensity
26	15
27	170
29	275
30	25
31	170
33	265
34	5
37	5
38	10
39	170
40	40
41	325
42	120
43	400
44	45
45	190
46	5
47	15
50	10
51	20
52	10
53	55
54	35
55	105
56	20
57	80
58	999
59	630
60	25
61	115
62	5
63	5
65	20
66	20
67	80
68	85
69	90
70	50
71	90
72	60
73	30
74	10
75	85
76	5
77	20
78	30
79	45
80	35
81	25
82	10
83	30
84	160
85	150
86	15
87	360
88	20
89	5
94	35
95	115
96	90
97	40
98	15
99	30
100	10
101	130
102	10
103	5
108	10
109	65
110	970
111	85
112	150
113	20
115	5
117	5
126	15
127	20
128	305
129	25
130	15
141	5
142	10
