Mass Spectrum: 2,2'-Vinylenebis[5-methyl-4-(piperidinomethyl)benzoxazole]
Formula: C30H36N4O2
CAS: 2988-17-2
Molecular weight: 484
m/z	intensity
34	21
36	29
38	23
39	135
40	165
41	398
42	208
43	333
45	10
50	25
51	116
52	40
53	33
55	292
56	148
57	131
58	9
60	7
62	10
63	37
65	192
66	25
67	31
68	21
69	84
70	73
71	45
73	8
75	19
76	34
77	107
78	39
79	32
80	12
81	18
82	44
84	999
86	9
88	9
89	36
90	45
91	156
92	27
93	12
95	9
96	13
97	23
98	139
99	9
102	23
103	20
104	34
105	21
106	8
107	11
110	23
111	13
112	27
113	14
115	29
116	20
117	16
118	18
119	33
120	18
121	13
125	7
127	10
128	12
129	24
130	19
131	19
132	12
133	10
135	7
140	9
141	12
142	23
143	14
144	18
145	10
146	10
149	8
150	10
151	23
152	14
153	9
154	12
155	11
156	12
157	46
158	126
159	47
160	8
164	29
166	8
167	9
168	28
169	34
170	40
171	63
172	47
173	12
178	8
179	10
180	9
181	11
182	13
183	19
184	13
185	19
192	7
194	15
195	10
196	14
197	76
198	22
199	24
200	40
206	12
207	8
208	7
209	10
210	9
242	10
243	7
245	7
246	7
259	8
271	8
272	9
273	17
274	9
283	11
284	7
285	9
287	17
288	10
289	8
299	13
300	9
301	22
302	23
303	24
304	28
313	14
314	46
315	93
316	181
317	96
318	133
319	24
327	73
328	134
329	39
330	21
331	8
332	11
334	7
338	12
397	9
399	53
400	33
401	265
402	81
403	10
484	24
485	7
