Mass Spectrum: Cycloheptane, 1,4-dimethoxy-, trans-
Formula: C9H18O2
CAS: 29887-80-7
Molecular weight: 158
m/z	intensity
39	300
40	50
41	790
42	210
43	260
44	160
45	780
46	30
47	50
50	10
51	40
52	10
53	120
54	60
55	380
56	60
57	150
58	500
59	130
63	10
65	60
66	110
67	430
68	170
69	130
70	30
71	999
72	730
73	110
75	270
76	10
77	110
78	20
79	350
80	30
81	80
82	30
83	80
84	220
85	110
86	80
87	660
88	50
91	80
93	80
94	180
95	260
96	80
97	770
98	660
99	120
100	30
101	30
104	30
110	10
111	170
113	10
125	110
126	730
127	100
128	10
129	20
