Mass Spectrum: Pyrrolidine, 1-(phenylmethyl)-
Formula: C11H15N
CAS: 29897-82-3
Molecular weight: 161
m/z	intensity
33	306
34	4
36	5
38	6
40	590
42	722
44	114
50	12
51	50
55	87
56	5
63	41
65	226
69	4
70	491
71	16
77	46
83	7
84	665
89	32
91	999
92	91
104	7
105	4
118	12
132	26
158	7
160	582
161	414
162	46
