Mass Spectrum: Bentiamine
Formula: C26H26N4O4S
CAS: 299-88-7
Molecular weight: 490
m/z	intensity
15	4
17	2
18	7
26	6
27	25
28	18
29	1
30	1
32	2
34	1
36	4
37	9
38	15
39	62
40	9
41	14
42	64
43	6
44	6
45	39
46	2
47	3
49	6
50	53
51	142
52	30
53	23
54	25
55	8
56	1
57	2
58	42
59	18
60	3
61	3
62	4
63	7
64	4
65	18
66	9
67	5
68	3
69	9
70	7
71	15
72	4
73	5
74	16
75	12
76	25
77	496
78	52
79	9
80	23
81	43
82	4
83	5
84	9
85	13
86	1
87	1
91	2
92	9
93	5
94	15
95	2
96	2
97	47
98	64
99	9
100	4
101	1
102	1
103	7
104	7
105	999
106	78
107	7
108	1
109	2
110	4
111	2
112	15
113	3
114	3
115	3
116	2
117	1
118	2
119	1
120	3
121	17
122	407
123	42
124	34
125	661
126	60
127	33
128	4
129	3
130	1
133	2
134	2
135	1
136	1
137	5
138	53
139	5
140	2
141	4
142	1
143	1
145	1
146	2
147	4
148	9
149	4
150	2
151	1
152	1
153	1
154	3
155	2
156	2
157	3
158	1
159	1
160	2
161	2
162	1
163	1
165	1
166	1
172	1
173	1
174	1
175	1
180	1
181	1
182	2
183	3
184	2
185	2
186	5
187	2
188	3
189	1
191	1
196	9
197	3
198	8
199	3
200	2
201	35
202	6
203	3
204	1
209	2
210	1
211	2
212	2
213	2
214	5
215	1
218	2
219	1
220	1
223	1
224	14
225	50
226	22
227	10
228	9
229	15
230	4
231	38
232	7
233	1
235	2
241	1
242	10
243	14
244	4
245	6
246	7
247	5
248	3
249	1
258	3
259	2
263	2
264	1
335	3
339	1
353	7
354	2
367	1
368	1
369	1
