Mass Spectrum: Etamycin A
Formula: C44H62N8O11
CAS: 299-20-7
Molecular weight: 878
m/z	intensity
39	647
40	119
41	659
42	809
43	404
44	904
50	100
51	152
52	90
53	100
54	142
55	400
56	499
57	452
58	147
65	150
66	200
67	252
68	271
69	252
70	328
71	238
72	100
77	133
78	119
79	100
83	100
84	88
86	999
87	66
91	421
92	66
93	171
94	590
95	490
112	150
113	197
114	785
115	61
118	395
120	976
121	114
122	595
123	245
126	147
138	250
139	102
140	250
141	147
142	266
149	285
150	80
163	100
166	285
167	150
170	250
177	476
178	295
179	95
183	150
184	252
185	119
204	219
205	485
206	119
211	111
212	452
213	157
223	54
225	95
239	30
240	33
241	83
245	42
253	35
257	23
267	42
274	35
279	23
283	40
285	28
287	19
288	19
290	57
291	28
298	19
305	19
306	28
318	180
319	50
320	19
324	90
325	40
326	52
353	40
354	19
370	30
386	45
397	33
425	23
430	14
431	16
439	16
449	14
455	50
456	14
465	45
482	28
483	90
484	30
502	14
510	14
528	21
550	23
551	9
554	7
596	9
621	80
622	40
623	21
637	19
652	14
664	19
665	19
666	16
667	14
680	14
689	16
722	90
723	40
738	14
765	64
766	47
779	35
780	19
793	23
794	16
807	19
808	109
809	57
822	47
823	23
835	109
836	64
837	19
860	71
861	35
863	23
878	200
879	100
880	25
