Mass Spectrum: 3-Heptenoic acid
Formula: C7H12O2
CAS: 29901-85-7
Molecular weight: 128
m/z	intensity
13	1
14	4
15	19
16	3
17	9
18	34
25	2
26	36
27	361
28	53
29	323
30	10
31	20
32	6
36	3
37	10
38	28
39	293
40	53
41	803
42	290
43	396
44	49
45	117
46	4
47	3
49	3
50	27
51	44
52	23
53	169
54	121
55	614
56	164
57	353
58	48
59	15
60	405
61	31
62	6
63	8
64	2
65	20
66	13
67	234
68	999
69	679
70	40
71	124
72	16
73	202
74	31
75	3
76	1
77	13
78	5
79	22
80	4
81	80
82	158
83	98
84	16
85	34
86	40
87	122
88	6
89	2
91	2
92	1
93	1
94	2
95	15
96	5
97	32
98	8
99	111
100	20
101	9
102	1
105	3
106	1
107	2
108	1
109	8
110	449
111	49
112	4
113	17
114	2
122	3
123	1
124	4
125	5
126	8
127	14
128	49
129	6
