Mass Spectrum: Isonitrosoacetylacetone
Formula: C5H7NO3
CAS: 29917-12-2
Molecular weight: 129
m/z	intensity
15	48
16	8
18	4
27	24
28	64
29	6
42	32
43	999
44	40
47	24
69	12
70	56
71	24
86	24
129	88
130	12
131	5
