Mass Spectrum: 2-Propanol, 1-(2-butoxy-1-methylethoxy)-
Formula: C10H22O3
CAS: 29911-28-2
Molecular weight: 190
m/z	intensity
15	3
19	2
26	3
27	25
28	11
29	76
30	4
31	76
32	1
38	1
39	27
40	7
41	161
42	54
43	65
44	12
45	191
46	4
47	1
51	1
52	1
53	3
54	1
55	25
56	16
57	206
58	65
59	999
60	35
61	7
69	1
70	1
71	4
72	3
73	10
74	2
75	7
77	2
83	4
84	1
85	6
86	24
87	11
88	1
89	3
97	1
99	1
100	2
101	50
102	5
103	248
104	14
105	2
114	9
115	14
116	2
117	2
129	1
131	6
132	1
133	1
143	3
144	1
145	5
146	22
147	3
172	1
175	1
