Mass Spectrum: Ethyl 2-(2-furamido)-4,5-dimethyl-3-thiophenecarboxylate
Formula: C14H15NO4S
CAS: 299199-69-2
Molecular weight: 293
m/z	intensity
34	8
36	7
37	21
38	73
39	506
40	101
41	38
42	18
43	60
44	50
45	49
47	10
50	10
51	34
52	16
53	58
55	33
56	7
57	32
59	148
60	24
61	10
63	11
65	67
66	97
67	80
68	12
69	16
70	12
71	15
73	6
75	5
76	8
77	8
78	8
79	7
80	17
81	10
82	10
83	15
84	9
85	13
86	5
90	5
91	8
92	16
93	23
95	999
96	59
97	45
98	10
99	11
108	5
109	7
110	8
111	6
112	5
115	5
122	6
123	6
124	20
125	17
126	17
127	4
136	15
137	5
138	6
149	11
152	69
153	47
154	21
155	5
158	6
162	7
163	9
164	5
170	10
176	9
179	9
180	18
186	14
187	5
190	15
191	63
192	69
193	11
194	4
198	15
202	9
203	7
204	28
205	11
214	4
218	99
219	44
220	12
230	5
232	9
244	7
246	139
247	286
248	66
249	19
278	46
279	7
289	5
291	11
293	346
294	51
295	19
