Mass Spectrum: Arabinopyranoside, methyl, 2,3-diacetate 4-p-toluenesulfonate, .beta.-L-
Formula: C17H22O9S
CAS: 29919-81-1
Molecular weight: 402
m/z	intensity
43	999
44	14
45	33
46	1
65	29
68	112
69	72
70	3
74	14
85	24
86	15
91	356
92	16
97	41
98	1
128	43
129	16
139	11
140	1
155	446
156	16
170	24
171	8
215	23
227	21
228	1
240	9
269	16
270	1
282	7
300	0
311	1
342	3
371	1
402	0
