Mass Spectrum: 2-(E)-Hexenoic acid, (4R)-4-[(t-butoxycarbonyl)amino]-5-methyl-
Formula: C12H21NO4
CAS: 299182-05-1
Molecular weight: 243
m/z	intensity
27	44
28	21
29	83
30	5
31	14
37	0
38	1
39	34
40	6
41	150
42	13
43	44
44	8
45	6
46	0
47	0
50	0
51	2
52	5
53	11
54	21
55	37
56	45
57	999
58	46
59	129
60	4
61	0
62	1
63	0
64	0
65	3
66	1
67	6
68	1
69	5
70	4
71	14
72	11
73	6
74	0
77	2
78	0
79	4
80	3
81	16
82	21
83	20
84	5
85	1
86	0
87	0
88	1
89	0
91	0
93	0
94	1
95	2
96	4
97	2
98	14
99	3
100	521
101	36
102	3
103	0
105	3
106	0
107	0
108	1
109	24
110	8
111	3
112	0
113	0
114	0
115	0
116	2
118	1
122	0
123	0
124	4
125	4
126	16
127	20
128	9
129	0
130	0
136	0
139	0
140	0
141	3
142	10
143	21
144	157
145	35
146	3
147	0
151	0
152	24
153	2
154	0
156	16
157	1
160	0
168	0
169	1
170	11
171	1
172	1
184	0
186	0
187	68
188	7
189	0
197	0
200	112
201	12
202	1
210	2
211	0
212	0
228	8
229	0
230	0
243	3
244	0
