Mass Spectrum: Isothiocyanatosulfur pentafluoride
Formula: CF5NS2
CAS: 2992-86-1
Molecular weight: 185
m/z	intensity
51	126
58	771
60	34
63	76
70	378
72	21
77	71
82	76
89	999
91	58
108	42
127	538
129	25
166	105
168	17
185	210
187	17
