Mass Spectrum: Thiourea, 1-(4-acetylphenyl)-3-(3-pyridylcarbonyl)-
Formula: C15H13N3O2S
CAS: 299201-13-1
Molecular weight: 299
m/z	intensity
33	5
34	5
36	0
37	4
38	18
39	52
40	44
41	24
43	264
44	33
45	17
46	3
47	2
48	1
49	5
50	86
51	305
52	58
53	23
54	5
55	4
56	1
57	5
58	4
59	12
60	8
61	3
62	8
63	44
64	43
65	41
66	8
67	4
68	0
69	9
70	5
71	3
72	3
73	2
74	10
75	17
76	32
77	60
78	779
79	88
80	9
81	2
82	3
83	7
84	5
85	2
86	7
87	1
88	1
89	8
90	52
91	51
92	34
93	7
94	5
95	2
96	3
97	1
98	0
100	2
101	3
102	5
103	3
104	10
106	999
107	77
108	12
109	7
110	6
111	22
112	6
113	1
114	1
115	1
116	2
117	6
118	5
119	34
120	158
121	17
122	26
123	9
124	3
129	1
130	0
131	2
132	1
134	89
135	61
136	11
137	10
138	2
139	1
140	7
141	0
144	0
145	26
146	5
147	5
148	56
149	9
150	4
151	24
152	18
153	3
154	0
156	2
159	0
160	6
162	580
163	50
164	28
165	9
166	3
167	0
171	1
172	2
175	0
177	213
178	26
179	10
180	1
181	1
182	9
183	1
193	1
210	2
224	3
225	4
239	0
256	1
266	9
267	1
270	0
284	1
288	0
296	0
297	2
298	59
299	366
300	69
301	23
302	3
