Mass Spectrum: 1-(4-Acetamidoanilino)-3,7-dimethylbenzo[4,5]imidazo[1,2-a]pyridine-4-carbonitrile
Formula: C22H19N5O
CAS: 299200-97-8
Molecular weight: 369
m/z	intensity
33	456
34	56
35	13
36	49
37	17
38	43
39	153
40	749
41	156
43	999
44	732
45	43
48	11
50	39
51	66
52	41
53	36
54	22
55	72
56	33
57	51
58	22
59	9
60	13
61	8
63	80
64	69
65	64
66	20
67	22
68	9
69	56
70	17
71	25
73	91
74	5
75	9
76	24
77	62
78	44
79	20
80	22
81	28
82	13
83	18
84	8
86	2
88	8
89	33
90	33
91	35
92	9
93	13
94	2
96	3
97	9
102	9
104	15
105	10
106	12
107	13
108	5
110	2
116	11
117	4
118	3
128	6
129	4
131	6
132	2
139	4
142	2
143	5
149	11
153	5
155	5
167	5
182	2
192	4
193	13
194	16
196	4
206	7
207	16
208	42
209	39
210	9
219	9
220	15
221	6
231	2
253	2
268	2
283	3
296	4
311	15
325	15
326	106
327	64
328	8
339	2
368	14
369	154
370	26
