Mass Spectrum: Dinordesoxy-9-methyl-8-benzyleseroline
Formula: C19H22N2
CAS: 29945-19-5
Molecular weight: 278
m/z	intensity
26	15
27	37
29	12
30	17
38	18
39	86
40	17
41	44
42	40
43	23
50	46
51	96
52	48
53	15
54	12
55	20
56	15
57	12
62	12
63	43
64	16
65	151
66	34
67	11
71	46
74	15
75	16
76	26
77	159
78	133
79	22
80	11
81	11
89	35
90	20
91	999
92	130
93	74
94	14
96	18
101	11
102	25
103	41
104	32
105	23
106	47
108	17
115	65
116	27
117	26
118	18
127	11
128	32
129	21
130	61
131	38
132	19
139	14
142	21
143	58
144	33
145	97
146	46
152	11
154	15
155	185
156	30
157	39
158	28
159	39
160	15
165	14
167	13
168	15
169	14
170	31
171	30
172	39
173	16
174	20
175	36
176	11
180	25
181	19
182	89
183	67
184	13
185	13
187	41
188	17
189	15
198	14
199	22
200	27
201	16
202	33
204	15
206	12
214	114
217	12
218	26
219	11
220	32
222	13
232	15
233	14
234	172
235	336
236	66
246	133
248	53
249	22
263	39
276	15
278	194
279	50
