Mass Spectrum: Tetrazole, 5-[2-(1-perhydroazepinyl)ethenyl]-1-(4-methylphenyl)-
Formula: C16H21N5
CAS: 299461-62-4
Molecular weight: 283
m/z	intensity
33	8
37	16
38	51
39	526
40	196
41	999
42	402
43	164
44	77
45	4
50	45
51	125
52	282
53	276
54	342
55	621
56	179
57	55
58	8
62	27
63	109
65	475
66	162
67	201
68	342
69	194
70	95
71	23
72	5
73	2
75	25
76	44
77	234
78	225
79	223
80	201
81	343
82	897
83	178
84	42
85	26
87	4
88	13
89	123
90	151
91	588
92	99
93	78
95	745
96	225
97	53
98	99
99	14
101	4
102	21
103	41
104	205
105	198
106	101
107	116
108	78
109	217
110	218
111	26
112	9
115	18
116	134
117	113
118	124
119	51
120	50
121	85
122	84
123	66
124	285
125	29
128	20
129	27
130	77
131	134
132	69
133	42
134	33
135	78
136	101
137	143
138	17
142	24
143	29
144	58
145	75
146	47
147	18
149	111
150	142
151	48
152	2
155	28
156	62
157	92
158	119
159	125
160	21
164	12
169	27
170	93
171	192
172	168
173	126
174	14
177	2
181	2
182	21
183	50
184	223
185	173
186	88
187	20
188	15
195	14
196	8
197	31
198	114
199	99
200	43
201	12
209	5
210	15
212	581
213	62
214	19
215	12
224	10
225	16
226	198
227	44
228	3
237	8
239	14
240	68
241	39
251	2
253	5
254	94
255	390
256	41
281	2
283	444
284	81
285	5
