Mass Spectrum: Isocholesteryl methyl ether
Formula: C28H48O
CAS: 29944-53-4
Molecular weight: 400
m/z	intensity
41	594
43	999
45	146
49	4
51	1
53	86
55	634
57	497
58	9
59	39
65	33
67	307
69	379
71	495
73	81
77	104
79	383
81	594
83	220
85	106
86	13
91	339
93	354
95	482
97	262
98	7
99	34
103	28
105	424
107	551
108	30
109	261
111	116
113	17
115	40
117	146
119	327
120	120
121	268
123	162
125	60
127	6
128	20
129	64
131	204
133	299
134	26
135	211
137	80
138	10
139	67
141	24
143	139
145	379
146	25
147	206
148	65
149	105
151	41
152	12
153	9
157	69
158	68
159	225
160	172
161	226
162	18
163	157
165	41
169	21
171	69
172	9
173	102
174	30
175	46
177	57
179	35
185	68
187	80
189	50
191	35
192	46
193	45
197	14
199	67
200	14
201	42
203	25
205	41
206	27
207	24
213	176
214	49
215	47
217	15
219	33
221	14
227	28
228	37
229	40
231	8
233	30
241	26
245	38
246	31
247	137
248	34
249	14
255	132
256	32
259	15
260	30
261	21
273	6
274	62
275	186
276	43
287	50
301	135
302	40
326	94
327	45
328	24
329	127
330	22
331	13
341	8
353	220
354	63
368	542
369	144
370	21
385	118
386	34
400	308
401	91
402	6
