Mass Spectrum: Tetrazole, 5-[2-(1-perhydroazepinyl)ethenyl]-1-(4-methoxyphenyl)-
Formula: C16H21N5O
CAS: 299461-89-5
Molecular weight: 299
m/z	intensity
33	7
34	1
37	8
38	36
39	317
40	137
41	845
42	323
43	137
44	64
45	4
50	53
51	132
52	193
53	188
54	256
55	506
56	172
57	49
58	9
59	1
61	5
62	24
63	122
64	167
65	86
66	144
67	169
68	287
69	183
70	88
71	14
72	3
74	9
75	13
76	70
77	207
78	244
79	164
80	285
81	272
82	999
83	170
84	29
85	4
86	6
87	5
88	5
89	18
90	103
91	109
92	165
93	99
94	143
95	768
96	269
97	41
98	57
99	7
100	12
101	10
102	28
103	74
104	44
105	59
106	184
107	137
108	112
109	282
110	199
111	30
112	7
113	4
114	5
115	10
116	13
117	27
118	48
119	46
120	105
121	659
122	150
123	100
124	296
125	32
126	4
128	11
129	13
130	20
131	29
132	75
133	156
134	136
135	90
136	107
137	273
138	35
139	3
141	4
142	7
143	23
144	47
145	37
146	40
147	109
148	61
149	163
150	84
151	11
152	3
155	9
156	20
157	48
158	42
159	48
160	49
161	38
162	33
163	8
164	7
165	2
166	5
167	1
168	4
169	11
170	49
171	46
172	120
173	93
174	125
175	105
176	15
177	5
178	2
182	6
183	7
184	20
185	34
186	117
187	100
188	89
189	43
190	9
195	0
196	7
197	7
198	13
199	39
200	128
201	190
202	106
203	22
204	11
210	0
211	10
212	13
213	28
214	78
215	83
216	42
217	11
223	0
224	2
225	7
226	14
228	598
229	89
230	27
231	22
232	3
238	4
239	7
240	20
242	189
243	43
244	7
245	1
253	3
254	5
255	18
256	116
257	41
258	6
267	0
268	7
270	185
271	464
272	81
273	9
274	0
297	5
299	491
300	91
301	10
302	0
