Mass Spectrum: 9-Oxabicyclo[3.3.1]non-6-en-2-ol, endo-
Formula: C8H12O2
CAS: 29946-76-7
Molecular weight: 140
m/z	intensity
26	15
27	147
28	26
29	86
30	5
31	45
33	0
34	0
35	0
36	2
37	4
38	11
39	189
40	51
41	259
42	34
43	66
44	49
45	23
46	0
47	8
49	2
50	17
51	40
52	22
53	124
54	54
55	129
56	21
57	71
58	10
59	9
60	14
61	4
62	5
63	7
64	1
65	116
66	103
67	999
68	772
69	84
70	80
71	25
72	1
73	4
74	2
75	5
76	3
77	100
78	93
79	185
80	251
81	774
82	77
83	241
84	141
85	19
86	4
87	2
88	4
89	2
91	71
92	46
93	64
94	121
95	108
96	319
97	81
98	13
99	4
100	0
101	3
102	0
103	5
104	48
105	14
106	2
107	15
108	3
109	10
110	3
111	25
112	30
113	4
114	2
115	3
116	3
117	2
118	0
119	4
120	2
121	16
122	110
123	12
124	3
125	3
140	250
141	28
142	3
