Mass Spectrum: 1-Nitro-2-phenylthio-1,3,4,4-tetrachloro-1,3-butadiene
Formula: C10H5Cl4NO2S
CAS: 299418-11-4
Molecular weight: 343
m/z	intensity
35	8
36	10
37	7
38	22
39	151
40	7
41	2
42	0
43	1
44	6
45	53
46	12
47	23
48	2
49	10
50	60
51	216
52	11
53	11
55	0
56	1
57	13
58	13
59	12
60	2
61	7
62	14
63	42
64	7
65	291
66	16
68	4
69	113
70	12
71	23
72	1
73	9
74	21
75	15
76	8
77	177
78	13
79	43
80	4
81	37
82	29
83	35
84	8
85	13
86	3
87	8
89	22
90	0
91	4
92	1
93	11
94	6
95	1
96	9
97	83
98	8
99	7
100	1
101	2
102	0
103	31
104	1
105	21
106	10
107	3
108	64
109	491
110	44
111	25
112	4
113	26
114	8
115	22
116	0
117	13
118	40
119	7
120	32
121	60
122	9
123	5
124	18
125	999
126	77
127	53
128	2
129	2
131	10
132	8
133	22
134	2
135	2
136	10
137	1
138	9
139	0
140	2
141	33
142	2
143	34
144	11
145	30
146	7
147	5
148	18
149	6
150	23
151	1
152	14
153	30
154	2
155	28
156	7
157	36
158	2
159	42
160	6
161	27
162	17
163	5
164	2
166	0
167	3
168	86
169	8
170	32
171	7
172	1
173	9
174	1
175	9
176	0
177	3
178	2
179	13
180	34
181	10
182	27
183	51
184	17
185	35
186	10
187	13
188	22
189	8
190	34
191	21
192	104
193	35
194	39
195	14
196	6
197	8
198	3
199	3
200	0
201	1
202	19
203	3
204	21
205	2
206	9
207	0
208	5
209	3
210	4
211	1
212	1
213	0
214	4
215	29
216	8
217	27
218	3
219	11
220	3
221	2
222	5
223	0
224	4
225	2
226	71
227	40
228	45
229	35
230	16
231	13
232	9
233	3
234	3
236	0
240	0
242	1
243	3
244	7
245	3
246	4
247	1
248	2
249	26
250	3
251	30
252	4
253	10
254	0
256	1
258	0
260	10
261	7
262	45
263	12
264	31
265	3
266	8
267	0
268	1
272	2
274	0
278	4
280	17
281	0
282	10
284	0
287	0
292	0
295	1
296	0
297	4
298	0
299	0
307	0
308	178
309	20
310	200
311	25
312	78
313	6
314	7
343	38
344	1
345	48
346	0
347	21
348	0
349	1
