Mass Spectrum: Benzenamine, 4-methyl-N-[2-[1-(4-bromophenyl)-5-tetrazolyl]ethenyl]-
Formula: C16H14BrN5
CAS: 299462-04-7
Molecular weight: 355
m/z	intensity
33	14
34	2
37	27
38	65
39	264
40	84
41	79
42	17
43	20
44	34
45	5
50	150
51	151
52	102
53	49
54	16
55	30
56	14
57	10
59	3
60	5
61	17
62	71
63	267
64	132
65	494
66	35
67	10
68	4
69	11
70	7
71	4
72	1
73	9
74	46
75	171
76	196
77	256
78	96
79	82
80	41
81	17
82	30
83	8
84	1
85	4
86	7
87	14
88	42
89	162
90	372
91	999
92	139
93	17
94	4
95	5
96	1
97	2
98	1
99	2
101	27
102	119
103	147
104	97
105	51
106	49
107	26
108	2
109	14
110	19
111	1
113	5
114	19
115	79
116	123
117	242
118	597
119	82
120	10
121	3
123	16
124	122
127	10
128	33
129	78
130	332
131	488
132	106
133	15
134	1
140	8
141	23
142	106
143	164
144	85
145	172
146	31
147	3
149	5
150	1
151	5
152	8
153	8
155	164
156	106
157	374
158	253
159	28
160	3
163	10
164	12
165	20
166	9
167	10
168	11
169	39
170	34
171	63
172	84
173	20
176	1
177	5
178	15
179	29
180	33
181	37
182	106
183	46
184	101
185	15
186	1
190	14
191	18
192	25
193	32
194	20
195	13
196	13
197	11
198	9
199	1
203	5
204	22
205	84
206	47
207	33
208	13
209	22
210	21
211	23
212	16
213	2
216	4
217	6
218	21
219	32
220	36
221	24
222	8
223	1
229	3
230	8
231	30
232	108
233	94
234	20
235	2
236	13
237	2
238	11
244	4
245	12
246	67
247	202
248	160
249	28
250	5
258	6
259	6
260	6
261	3
267	1
269	1
270	12
271	16
272	39
273	16
274	25
275	5
276	5
277	4
282	5
284	59
285	29
286	59
287	27
288	10
289	2
296	2
297	5
298	8
299	43
300	12
301	37
302	7
307	1
308	7
309	13
311	453
312	114
313	413
314	81
315	20
316	3
323	7
326	458
327	153
328	385
329	113
330	14
351	1
353	9
355	517
356	111
357	471
358	82
359	9
