Mass Spectrum: 1-(4-Methoxyphenyl)-3-(4-methylpiperidino)pyrrolidine-2,5-dione
Formula: C17H22N2O3
CAS: 299408-30-3
Molecular weight: 302
m/z	intensity
33	0
34	1
36	0
37	1
38	3
39	30
40	18
41	122
42	90
43	31
44	18
45	2
46	0
49	0
50	4
51	17
52	14
53	19
54	83
55	312
56	111
57	47
58	4
59	0
60	1
61	0
62	1
63	7
64	9
65	6
66	3
67	16
68	36
69	52
70	31
71	14
72	1
73	1
74	0
75	1
76	1
77	10
78	24
79	7
80	13
81	12
82	80
83	50
84	12
85	1
86	0
87	1
88	0
89	1
90	6
91	5
92	6
93	3
94	5
95	9
96	31
97	35
98	999
99	76
100	2
101	0
102	2
103	2
104	2
105	2
106	23
107	5
108	15
109	8
110	403
111	35
112	5
113	1
114	0
115	1
116	1
117	1
118	2
119	1
120	3
121	6
122	10
123	27
124	56
125	384
126	35
127	2
128	0
129	2
130	0
131	0
132	3
133	6
134	40
135	5
136	2
137	5
138	5
139	0
142	0
143	0
144	0
145	0
146	1
147	1
148	3
149	36
150	5
151	2
152	39
153	4
154	0
155	0
157	0
158	0
159	0
160	4
161	1
162	5
163	0
164	0
165	0
166	0
168	0
169	0
170	0
171	7
172	1
173	0
174	0
175	1
176	4
177	19
178	2
179	0
180	0
181	0
184	0
185	0
188	4
189	1
190	1
191	1
192	0
193	0
195	0
196	0
198	0
199	0
201	0
203	10
204	4
205	66
206	8
207	1
208	0
209	0
214	0
216	0
217	0
218	0
219	0
228	0
229	0
231	0
232	0
233	2
234	0
241	0
243	0
245	0
247	0
248	0
249	0
250	0
253	0
255	0
259	1
260	0
264	0
271	0
273	0
283	1
284	0
285	0
286	0
287	0
299	0
300	1
301	4
302	13
303	2
304	0
