Mass Spectrum: 2,5-Methano-2H-furo[3,2-b]pyran-8-ol, hexahydro-
Formula: C8H12O3
CAS: 29946-81-4
Molecular weight: 156
m/z	intensity
26	60
27	496
28	85
29	660
30	64
31	282
37	17
38	46
39	494
40	79
41	839
42	176
43	465
44	195
45	66
47	13
50	39
51	77
52	30
53	234
54	147
55	488
56	90
57	492
58	79
59	16
60	131
61	16
62	13
63	36
64	10
65	70
66	61
67	303
68	101
69	531
70	258
71	209
72	64
73	32
74	15
75	10
76	9
77	84
78	24
79	256
80	53
81	999
82	184
83	250
84	62
85	78
86	16
87	22
91	88
92	22
93	28
94	324
95	133
96	66
97	111
98	20
99	324
100	81
101	12
102	16
104	9
105	27
106	14
107	212
108	32
109	53
110	89
111	25
112	36
113	13
115	13
119	11
120	17
121	19
122	24
123	14
124	10
125	376
126	49
127	101
128	23
129	11
131	10
135	14
137	13
138	391
139	41
141	18
146	9
155	9
156	232
157	25
