Mass Spectrum: 1,4-Bis(1,2-dihydro-2,2,4,7-tetramethyl-1-quinolylmethyl)benzene
Formula: C34H40N2
CAS: 299418-70-5
Molecular weight: 476
m/z	intensity
34	17
35	17
36	17
37	30
38	53
39	123
40	72
41	65
42	39
43	67
44	25
45	27
49	33
50	58
51	85
52	49
53	12
55	29
56	11
57	10
63	27
65	16
70	8
74	15
76	17
77	137
78	268
79	16
82	8
84	11
89	13
90	17
91	62
92	9
101	19
103	306
104	999
105	90
114	11
115	57
116	22
117	26
118	8
119	15
127	26
128	82
129	44
130	29
131	10
137	19
138	13
140	8
141	22
142	17
143	25
144	34
145	8
154	24
155	40
156	53
157	15
167	11
168	28
169	39
170	175
171	290
172	124
173	16
184	36
185	43
186	93
187	15
198	21
222	48
223	178
224	40
272	9
273	18
274	57
275	200
276	37
289	10
290	43
291	9
460	12
461	129
463	26
476	9
