Mass Spectrum: Propane, 1,1,1,3,3,3-hexafluoro-2,2-bis[4-(oxiranylmethoxy)phenyl]-
Formula: C21H18F6O4
CAS: 2994-63-0
Molecular weight: 448
m/z	intensity
26	27
27	300
28	34
29	565
30	20
31	406
32	6
38	7
39	46
40	4
41	47
42	23
43	75
44	19
45	7
49	12
50	13
51	16
53	11
55	39
57	999
58	33
59	5
62	4
63	30
64	13
65	29
66	4
67	2
69	16
74	4
75	16
76	35
77	17
78	7
79	24
81	9
87	5
88	4
89	6
90	4
91	17
92	6
93	7
94	7
95	6
96	3
99	4
100	3
103	3
105	4
106	6
108	3
111	4
113	3
114	4
115	16
116	4
118	4
119	9
120	3
123	2
125	3
126	4
127	6
128	3
132	4
133	9
136	4
137	3
138	2
139	17
140	7
141	16
143	10
144	3
145	7
150	5
151	15
152	38
153	12
155	3
157	4
159	6
160	2
162	2
163	5
164	3
165	15
166	6
167	4
168	10
169	33
170	20
171	8
174	1
175	6
176	2
179	4
181	26
182	9
183	13
184	3
188	12
189	9
191	2
195	4
196	3
197	21
198	6
199	24
200	6
201	30
202	5
203	2
206	3
208	3
209	7
211	3
212	3
217	8
218	3
219	13
220	7
221	14
223	7
224	2
225	5
227	14
228	4
229	4
230	5
231	3
232	5
233	9
235	4
236	5
237	7
238	8
239	4
240	2
243	15
245	3
248	6
249	12
250	7
251	7
253	2
255	3
256	3
257	3
260	3
261	3
262	3
264	7
265	9
266	6
267	61
268	9
269	18
270	3
273	2
274	2
275	4
276	3
277	5
279	8
280	3
281	5
289	3
290	3
291	5
292	4
293	13
299	26
300	5
301	2
303	5
304	3
305	7
307	5
317	6
318	6
319	6
320	1
323	89
324	17
325	3
333	2
335	8
336	2
341	2
345	4
346	2
348	3
349	24
350	6
358	2
359	5
361	7
362	4
363	3
365	6
366	2
375	11
379	370
380	85
381	11
389	3
391	5
392	6
397	2
401	3
405	3
415	67
416	15
417	27
418	9
419	3
429	15
430	5
448	198
449	46
450	10
451	3
