Mass Spectrum: Phosphinous chloride, tert-butylisopropyl-
Formula: C7H16ClP
CAS: 29949-66-4
Molecular weight: 166
m/z	intensity
27	23
28	60
29	153
30	3
32	7
36	2
38	0
39	20
40	3
41	249
42	11
43	79
44	2
45	10
46	1
47	3
48	1
49	0
50	0
51	0
53	1
54	0
55	18
56	9
57	999
58	43
59	4
60	1
61	6
62	3
63	1
64	1
66	0
67	1
69	9
70	1
71	4
72	2
73	3
74	2
75	4
76	0
77	1
80	0
81	20
82	1
83	7
85	0
86	0
87	3
88	4
89	3
92	1
93	0
95	0
97	0
98	1
101	2
103	1
107	1
108	0
109	4
110	9
111	3
112	3
113	0
122	0
123	2
125	1
126	0
127	1
130	0
131	7
132	0
148	0
151	1
152	0
153	0
154	1
155	0
156	1
158	1
160	0
166	50
167	5
168	17
169	2
