Mass Spectrum: Fumaric acid, (p-nitroanilino)-, diethyl ester
Formula: C14H16N2O6
CAS: 29954-03-8
Molecular weight: 308
m/z	intensity
27	400
29	999
30	75
39	60
50	135
51	65
63	140
64	60
65	55
68	50
69	60
75	110
76	275
77	90
89	200
90	70
104	60
108	65
116	65
117	90
118	85
132	80
143	275
161	100
162	140
189	350
190	55
207	140
234	80
235	75
262	10
263	15
308	95
