Mass Spectrum: Furan, 2,5-bis(2-furanylmethyl)-
Formula: C14H12O3
CAS: 29953-18-2
Molecular weight: 228
m/z	intensity
15	14
25	11
26	73
27	499
28	78
29	196
37	70
38	174
39	435
40	47
41	56
50	129
51	323
52	202
53	505
54	28
55	64
61	22
62	67
63	185
64	64
65	269
68	22
77	84
79	89
80	14
81	519
82	33
87	19
89	126
90	56
91	999
92	103
95	28
103	64
104	19
105	47
116	70
118	70
119	365
120	42
128	73
131	56
147	842
148	84
160	47
161	36
174	22
199	19
228	912
229	140
