Mass Spectrum: Spiro[7H-benz[e]indene-7,1'-[2]cyclopentene]-4',9(8H)-dione, 1,2,3,3a,4,5,6,9b-octahydro-3-hydroxy-3a,5',5',6-tetramethyl-, acetate, stereoisomer
Formula: C23H30O4
CAS: 29954-31-2
Molecular weight: 370
m/z	intensity
27	43
29	67
36	26
39	45
41	306
42	49
43	999
44	111
45	32
49	54
51	29
53	66
55	182
56	30
57	87
60	33
65	48
67	96
68	38
69	183
70	23
71	57
77	123
78	35
79	166
80	29
81	172
82	33
83	53
84	42
86	25
91	214
92	67
93	149
94	55
95	88
96	173
97	55
103	24
105	179
106	47
107	138
108	32
109	75
110	28
111	22
115	51
116	27
117	84
118	28
119	107
120	46
121	78
122	597
123	106
124	22
128	37
129	68
130	26
131	168
132	52
133	89
134	42
135	112
136	40
137	32
141	30
142	34
143	50
144	26
145	194
146	73
147	74
148	91
149	122
150	49
151	22
152	29
155	29
157	43
158	27
159	320
160	273
161	85
162	56
163	44
167	22
168	25
169	26
171	32
172	24
173	139
174	150
175	49
176	29
177	49
178	27
179	26
182	22
183	37
185	45
186	41
187	78
188	177
189	54
190	23
191	25
192	26
195	29
196	22
197	31
198	23
199	41
200	34
201	38
202	32
203	23
204	42
205	35
206	29
211	35
212	24
213	31
214	24
215	24
220	31
224	22
225	37
226	29
227	27
239	37
241	22
247	42
248	521
249	153
250	32
253	22
255	25
262	32
263	23
267	42
269	24
272	26
275	33
281	32
282	25
285	23
295	68
296	26
309	25
310	131
311	52
312	27
313	24
327	34
328	28
342	28
355	25
370	60
371	25
