Mass Spectrum: Disulfide, bis(1,1,3,3-tetramethylbutyl)
Formula: C16H34S2
CAS: 29956-99-8
Molecular weight: 290
m/z	intensity
15	2
26	1
27	25
28	8
29	76
30	2
32	7
33	5
34	13
38	1
39	33
40	5
41	151
42	8
43	54
44	2
45	2
47	2
50	2
51	4
52	1
53	10
54	3
55	110
56	47
57	999
58	46
59	8
61	1
64	13
65	2
66	2
67	4
68	1
69	30
70	9
71	17
72	1
73	3
74	5
75	13
76	2
77	2
79	2
80	1
81	3
83	9
84	2
85	1
87	3
88	2
89	4
95	1
97	55
98	5
99	1
107	19
108	1
109	2
111	1
112	26
113	135
114	12
121	1
122	9
124	1
129	1
163	5
178	4
290	5
291	1
