Mass Spectrum: Isodecyl methacrylate
Formula: C14H26O2
CAS: 29964-84-9
Molecular weight: 226
m/z	intensity
15	2
26	2
27	42
29	131
30	3
31	4
37	2
38	5
39	183
40	48
41	776
42	98
43	251
44	11
45	7
50	1
51	4
52	2
53	42
54	29
55	561
56	345
57	666
58	32
59	16
60	1
65	6
66	2
67	66
68	42
69	999
70	712
71	292
72	15
73	2
74	5
77	4
79	8
80	2
81	31
82	65
83	352
84	109
85	41
86	19
87	337
88	31
89	2
91	1
93	2
94	2
95	18
96	14
97	128
98	41
99	29
100	4
101	1
107	1
108	1
109	9
110	53
111	358
112	113
113	69
114	6
115	2
123	3
124	3
125	24
126	4
127	22
128	5
129	2
137	2
138	4
139	6
140	58
141	11
142	3
143	1
151	2
152	1
153	5
154	1
155	4
156	4
157	5
158	1
167	1
169	5
170	4
171	3
179	1
183	1
185	2
197	1
198	1
211	1
