Mass Spectrum: 4H-1,2,4-Triazole-4-benzenesulfonamide
Formula: C8H8N4O2S
CAS: 29982-62-5
Molecular weight: 224
m/z	intensity
26	10
27	84
28	191
29	99
30	14
36	7
38	10
39	40
40	17
45	4
50	80
51	293
52	21
53	6
54	18
63	6
64	8
65	19
66	5
69	25
74	16
75	10
76	15
77	999
78	82
84	15
91	1
92	2
93	18
94	14
97	8
104	6
109	3
110	1
125	11
141	265
142	18
157	11
158	1
224	25
225	2
