Mass Spectrum: 2-[4-(Dimethylamino)-.alpha.-(2-hydroxy-4,4-dimethyl-6-oxo-1-cyclohexen-1-yl)benzyl]-5,5-dimethyl-1,3-cyclohexanedione
Formula: C25H33NO4
CAS: 299964-71-9
Molecular weight: 411
m/z	intensity
34	3
35	7
37	9
39	434
41	702
42	381
43	215
44	74
45	6
47	10
48	7
50	50
51	84
53	152
55	799
56	618
57	66
58	9
59	7
60	3
61	6
62	11
63	56
64	19
65	38
66	21
67	34
69	228
70	156
71	20
72	70
74	32
75	58
76	31
77	113
78	34
79	106
81	17
83	999
84	415
85	48
86	48
89	62
90	13
91	44
92	19
94	38
95	8
97	80
98	16
100	18
101	123
102	79
103	46
104	27
105	20
106	13
107	25
108	12
109	4
110	2
111	7
112	173
113	24
115	195
116	46
117	22
118	26
119	17
120	67
121	144
122	24
123	4
124	1
125	19
127	29
128	125
129	136
130	57
131	30
132	12
134	65
135	19
136	9
137	3
140	176
141	29
142	33
143	110
144	457
145	97
146	79
147	176
148	62
149	16
150	5
151	2
152	9
153	9
154	9
155	15
156	26
157	35
158	231
159	354
160	48
161	7
162	1
163	2
165	6
166	3
167	4
168	8
171	147
172	367
173	175
174	146
175	15
176	1
178	1
181	2
183	8
184	19
186	127
187	139
188	62
189	9
190	1
194	1
195	2
196	5
197	4
198	29
200	38
201	12
202	3
209	2
210	4
211	2
212	6
214	116
215	25
216	12
217	2
224	2
225	1
226	7
227	89
228	84
229	12
238	4
240	3
241	3
242	14
243	9
244	1
254	10
256	33
257	8
258	1
268	1
270	731
271	888
272	243
273	39
274	3
282	1
284	9
285	1
286	3
376	2
393	4
410	1
411	31
412	6
