Mass Spectrum: Benzamide, N-(7-diethylamino-2-oxo-2H-chromenyl)-
Formula: C20H20N2O3
CAS: 299965-72-3
Molecular weight: 336
m/z	intensity
33	14
36	1
37	3
38	7
39	24
40	9
41	11
42	16
43	8
44	9
45	1
50	56
51	167
52	21
53	8
54	7
55	8
56	14
57	3
58	1
61	1
62	5
63	17
64	9
65	20
66	5
67	4
68	7
69	3
70	4
71	3
72	1
74	14
75	24
77	821
78	108
79	8
80	4
81	1
82	1
84	0
85	0
86	1
87	2
88	5
89	14
90	15
91	22
92	20
93	4
94	4
95	0
96	0
97	0
98	0
99	0
100	2
101	4
102	25
103	44
105	999
106	56
107	5
108	1
109	0
110	0
112	0
113	0
114	3
115	6
116	15
117	14
118	16
119	23
120	6
121	1
122	10
123	1
124	1
126	0
127	1
128	4
129	9
130	15
131	44
132	20
133	4
134	2
135	0
137	0
138	0
139	0
140	0
141	0
142	2
143	5
144	4
145	12
146	13
147	20
148	5
149	0
150	0
151	1
152	2
153	0
154	0
155	1
156	1
157	3
159	307
160	56
161	4
162	1
163	1
164	0
165	1
166	0
167	0
169	0
170	0
171	6
173	55
174	15
175	33
176	6
178	2
179	1
180	1
183	0
185	4
186	5
187	22
188	90
189	14
190	5
191	1
192	1
193	0
194	0
196	0
199	0
200	1
201	6
203	370
204	57
205	3
207	2
208	1
209	0
213	0
214	1
215	4
216	12
217	3
218	19
219	3
220	0
221	0
222	0
229	2
231	276
232	45
233	10
234	6
235	6
236	1
237	0
243	4
244	2
245	0
246	0
247	0
248	0
250	0
259	4
260	0
261	0
262	6
263	16
264	4
265	5
266	0
267	0
274	0
275	0
279	0
288	0
290	0
291	7
292	5
293	29
294	5
295	0
297	0
302	2
303	0
304	0
305	1
306	4
307	4
308	5
309	1
317	0
319	3
321	787
322	168
323	20
324	1
333	2
334	5
336	842
337	165
338	23
339	2
341	0
343	0
