Mass Spectrum: Dimethylaminomethyl-phosphonic acid diisobutyl ester
Formula: C11H26NO3P
CAS: 299967-97-8
Molecular weight: 251
m/z	intensity
33	0
34	0
35	0
36	0
37	0
38	2
39	21
40	6
41	68
42	82
43	35
44	24
45	2
46	0
47	3
48	0
49	0
50	0
51	0
52	0
53	2
54	1
55	9
56	21
57	123
58	999
59	67
60	1
61	0
62	0
63	0
65	6
66	0
67	0
68	0
69	0
70	1
71	1
72	2
73	1
74	3
75	0
77	1
78	1
79	2
80	1
81	1
82	1
83	2
84	0
85	0
86	0
87	0
88	0
90	4
91	0
92	0
93	0
95	3
96	10
97	21
98	1
99	0
100	0
101	0
102	0
104	0
105	0
106	0
107	0
108	0
109	1
110	0
111	0
112	0
113	0
114	0
118	0
120	11
121	1
122	1
123	0
124	1
126	0
128	0
134	0
136	1
137	3
138	29
139	1
140	0
146	0
149	0
150	0
152	11
153	1
154	0
158	0
159	0
162	0
170	0
171	0
172	0
176	0
177	0
178	1
179	0
180	0
192	0
193	0
194	2
195	5
196	10
197	0
198	0
200	0
208	0
214	0
234	0
249	0
250	1
251	25
252	3
253	0
