Mass Spectrum: Furazano[3,4-b]pyrazine, 5-(2-fluorophenylamino)-6-phenylamino-
Formula: C16H11FN6O
CAS: 299921-36-1
Molecular weight: 322
m/z	intensity
37	5
39	57
40	5
42	12
43	12
44	1
46	2
49	0
50	40
51	192
52	32
53	88
54	7
56	1
57	45
58	2
59	0
62	10
63	69
64	43
65	80
66	11
68	44
69	48
70	12
71	1
74	47
75	298
77	999
78	54
79	6
81	28
82	33
83	140
84	15
85	1
86	1
87	4
89	29
90	57
91	113
92	92
93	68
95	617
96	55
97	3
99	1
100	8
101	7
102	70
103	106
104	204
106	10
108	14
109	64
110	52
111	34
112	4
113	1
114	1
115	9
116	22
117	38
118	67
119	90
121	161
122	198
123	16
125	2
126	3
127	5
128	2
129	261
130	14
131	7
132	11
134	7
135	26
136	85
137	75
138	7
139	2
140	0
142	14
143	33
144	224
145	31
147	604
148	43
149	8
150	2
151	9
152	4
154	6
155	4
156	10
157	5
158	1
159	0
160	7
161	28
162	193
163	22
164	1
165	2
167	0
168	2
169	23
171	53
173	7
174	16
175	2
177	1
178	0
179	0
181	3
182	3
183	1
185	3
187	12
188	6
189	53
190	9
191	0
192	0
194	1
195	2
196	14
197	6
198	5
199	3
200	0
202	0
204	0
205	1
207	0
208	0
210	0
211	1
212	4
213	9
214	9
215	1
216	0
217	2
218	0
219	3
220	19
221	1
223	8
224	5
225	1
226	0
228	4
229	1
230	8
231	3
236	2
237	5
238	50
239	12
240	16
241	3
242	0
245	28
246	5
247	4
248	1
250	60
251	39
252	8
254	1
256	2
257	0
258	0
260	2
262	0
263	28
264	10
265	53
266	17
267	2
268	3
269	1
270	2
272	163
273	44
274	3
276	0
277	0
278	0
279	0
280	5
281	1
283	4
285	15
286	6
287	0
289	1
290	44
291	37
292	27
293	4
301	19
302	60
303	335
304	69
305	7
308	2
309	0
310	1
319	1
321	709
322	995
323	201
324	17
325	1
