Mass Spectrum: 3-(2-Hydroxy-3-phenoxypropyl)-8-methyl-2,3,3a,4,5,6-hexahydro-1H-pyrazino[3,2,1-jk]carbazole
Formula: C24H28N2O2
CAS: 299962-27-9
Molecular weight: 376
m/z	intensity
39	634
40	215
42	752
43	237
44	163
45	14
46	2
47	6
51	482
52	58
53	62
54	72
55	108
56	142
58	449
59	14
60	7
63	175
65	517
66	145
67	26
68	29
69	12
70	18
71	9
72	12
74	39
75	45
77	999
78	93
79	121
80	17
81	10
82	11
84	40
85	7
86	23
87	12
89	72
91	248
94	614
95	82
97	22
98	24
99	9
102	59
103	32
105	184
107	133
108	16
109	9
110	13
111	37
113	53
115	181
116	50
117	34
119	370
122	2
124	2
125	11
126	29
127	90
128	104
129	70
130	33
131	20
132	11
133	6
134	3
136	25
137	8
139	43
140	73
141	54
142	65
143	51
144	38
145	8
146	4
149	5
151	39
152	69
153	67
154	113
155	66
156	86
157	62
158	17
159	2
163	8
165	57
167	327
168	204
169	72
170	157
171	36
172	7
178	53
180	302
181	294
182	438
183	191
184	95
185	16
186	5
188	16
191	27
192	32
193	67
194	179
196	557
197	339
198	195
199	19
200	2
203	4
204	6
205	13
206	14
208	119
209	62
211	739
212	115
213	10
218	6
219	8
220	13
221	18
222	34
223	69
224	42
225	45
226	14
231	2
232	4
233	5
235	19
237	115
238	100
239	344
240	67
241	9
251	8
252	3
254	12
255	24
256	4
260	2
264	2
265	9
267	10
269	23
270	4
281	29
283	10
344	26
346	25
348	918
349	224
350	22
351	2
361	12
362	9
371	2
372	9
373	9
376	345
377	42
378	9
