Mass Spectrum: 4-(4-Nitrobenzylidene)-2-(p-tolyl)-5(4H)-imidazolone
Formula: C17H13N3O3
CAS: 299970-66-4
Molecular weight: 307
m/z	intensity
37	13
38	38
39	207
40	100
42	45
44	171
45	17
46	9
50	75
51	104
52	33
53	15
54	12
55	13
57	13
58	6
59	5
60	6
61	61
63	175
65	344
66	18
67	5
69	9
70	6
71	7
73	4
74	24
75	40
76	36
77	36
78	10
79	6
83	5
85	7
86	9
87	21
88	53
89	177
90	112
91	471
92	43
95	8
101	11
102	16
103	16
104	11
105	6
106	6
114	26
115	47
116	96
118	999
119	627
120	46
121	6
129	27
131	21
132	34
133	6
135	72
136	15
137	5
143	8
144	33
145	5
147	5
150	4
162	20
163	5
189	5
260	9
261	12
277	12
278	6
303	6
306	73
307	333
308	94
309	15
