Mass Spectrum: Benzamide, 2-amino-3,5-dinitro-N-tert-butyl-
Formula: C11H14N4O5
CAS: 299968-65-3
Molecular weight: 282
m/z	intensity
35	3
37	3
39	163
41	404
42	180
43	19
44	28
46	28
47	2
48	2
49	3
50	21
51	34
52	72
53	36
54	17
55	46
57	684
58	999
59	24
61	24
62	99
63	120
64	27
65	18
66	11
67	12
68	10
69	4
70	8
72	33
73	5
74	11
75	11
76	33
77	37
78	52
79	17
80	12
81	3
83	8
84	9
85	5
86	3
87	10
88	27
89	97
90	244
91	25
92	8
93	8
94	6
95	2
96	0
100	0
101	3
102	7
103	10
104	16
105	16
106	10
107	4
108	4
109	0
110	0
115	2
116	26
117	69
118	84
119	14
120	8
121	11
122	2
123	0
125	8
126	2
128	0
129	1
131	5
132	6
134	58
135	11
136	21
137	3
140	0
141	1
143	0
144	1
145	5
146	9
147	11
148	4
149	6
150	3
151	4
152	3
157	0
158	0
159	3
160	0
161	0
162	4
164	205
165	20
166	3
167	0
172	0
173	2
174	0
175	0
176	1
177	0
179	47
180	12
181	2
183	3
189	1
190	1
191	1
192	22
193	49
194	17
195	4
196	40
197	3
205	7
206	1
209	234
210	296
211	24
212	4
219	11
221	8
222	5
223	2
226	654
227	69
228	10
229	0
235	4
236	1
237	0
239	4
247	0
249	1
251	11
252	5
255	1
264	8
265	33
267	336
268	38
269	4
279	0
280	1
282	459
283	58
284	7
285	0
