Mass Spectrum: Acetamide, N-(1-adamantyl)-2-diethylaminothiocarbonylthio-
Formula: C17H28N2OS2
CAS: 299920-07-3
Molecular weight: 340
m/z	intensity
33	54
34	2
35	0
39	10
40	16
41	41
42	17
44	89
46	2
47	3
48	0
51	1
53	13
55	34
56	20
57	8
58	10
60	139
62	10
63	0
65	9
67	45
69	11
70	5
72	151
74	1
75	1
77	40
79	70
81	28
82	3
84	4
86	16
88	231
91	41
92	19
93	52
94	34
95	4
96	1
98	1
100	11
102	0
103	0
105	8
106	6
107	16
108	5
109	1
110	0
111	0
112	0
114	3
116	999
117	37
118	25
119	4
120	3
121	0
122	0
123	0
124	1
129	0
130	0
131	0
132	0
135	279
136	62
137	4
138	0
142	0
146	0
148	54
149	5
150	13
151	5
152	1
161	2
162	1
163	3
164	1
165	0
176	0
177	1
178	1
181	0
189	10
190	19
191	2
193	348
194	29
195	1
205	2
207	1
223	0
224	1
225	0
236	0
239	0
240	0
307	0
308	0
328	0
339	0
340	37
341	7
342	3
343	0
