Mass Spectrum: 1H-Isoindole-2,3(2H)-dione, 4-nitro-2-(2,3-dihydro-2-thioxo-6-benzothiazolyl)-
Formula: C15H7N3O4S2
CAS: 299922-10-4
Molecular weight: 357
m/z	intensity
33	22
34	11
36	48
38	77
39	109
40	269
41	94
42	242
43	336
44	891
45	219
46	10
47	2
48	56
49	5
50	63
51	68
52	81
53	54
54	10
55	46
56	20
57	58
58	41
59	28
60	85
61	12
62	48
63	120
64	210
65	95
66	26
67	8
69	125
70	58
71	25
73	397
74	185
75	999
76	132
77	122
78	42
79	41
80	27
81	24
82	28
83	26
84	30
86	10
87	35
88	14
89	33
90	26
91	86
92	52
93	44
94	39
95	42
96	24
97	23
98	28
99	6
100	3
101	14
102	26
103	573
104	111
105	35
106	45
107	31
108	63
109	48
110	38
111	57
112	22
113	2
114	2
115	2
117	12
118	8
119	35
120	50
121	89
122	63
123	15
124	5
125	57
126	23
127	29
128	6
129	3
132	9
133	25
134	65
135	23
136	9
137	19
139	23
140	31
141	23
142	22
144	11
146	8
147	27
148	23
149	69
150	40
151	38
152	58
153	52
154	31
155	12
156	26
161	34
162	3
163	21
164	37
165	20
166	17
167	33
168	6
169	10
170	2
171	8
176	2
177	7
178	28
179	48
180	38
181	7
182	74
183	18
184	3
191	2
192	3
194	4
195	11
196	71
197	33
198	104
199	5
208	41
209	8
210	45
211	5
221	9
222	32
223	4
224	14
225	14
228	3
241	90
246	19
250	7
251	4
254	5
255	28
267	3
268	13
278	11
279	7
282	6
283	35
310	12
311	123
312	25
313	11
325	8
327	13
341	3
356	8
357	638
358	113
359	66
