Mass Spectrum: 3-(4-Methylbenzoyl)-2-thioxo-4-thiazolyl 4-methylbenzoate
Formula: C19H15NO3S2
CAS: 299929-13-8
Molecular weight: 369
m/z	intensity
33	2
39	39
41	14
43	2
45	27
46	2
47	1
50	7
51	14
52	3
53	1
57	1
58	2
59	2
60	1
62	9
63	21
65	105
69	1
70	1
71	1
73	1
74	2
75	2
76	2
77	3
85	1
86	3
87	3
89	27
91	255
105	3
119	999
124	1
136	1
369	9
370	2
371	1
