Mass Spectrum: 1,2,5-Oxadiazole, 3-(acetylamino)-4-(diacetylamino)-
Formula: C8H10N4O4
CAS: 299969-84-9
Molecular weight: 226
m/z	intensity
52	10
53	75
54	11
56	19
57	13
58	25
68	31
69	19
70	388
71	19
83	11
84	44
85	513
86	25
100	150
112	999
113	75
114	106
127	75
142	575
143	38
154	278
155	25
156	11
169	31
170	2
184	100
185	38
