Mass Spectrum: Methanone, [6-(3-indolyl)-4-methyl-1,2,5-dioxazin-2-yl](phenyl)-
Formula: C19H18N2O3
CAS: 299918-47-1
Molecular weight: 322
m/z	intensity
33	37
34	0
35	0
36	6
37	3
38	10
39	52
40	21
41	64
42	17
43	20
44	10
45	5
50	49
51	150
52	21
53	4
54	4
55	7
56	4
57	9
59	6
60	1
62	13
63	27
64	9
65	14
66	3
68	13
69	3
70	1
71	4
72	1
73	4
74	24
75	47
77	678
78	55
79	18
80	2
81	0
82	1
84	13
85	2
86	2
87	8
88	13
89	73
90	33
91	27
92	3
93	2
94	2
95	1
96	1
97	0
98	1
99	2
100	5
101	50
102	100
103	63
105	999
106	65
107	4
108	1
109	1
110	0
111	1
112	2
113	2
114	16
115	37
116	106
117	357
118	64
119	4
120	1
122	18
123	15
124	2
125	2
126	2
127	11
128	108
129	160
130	294
131	46
132	73
133	68
134	6
135	2
139	0
140	2
141	11
142	41
143	92
144	297
145	370
146	60
147	4
149	3
150	1
151	0
152	1
153	2
154	12
155	38
156	54
157	290
158	67
159	25
160	284
161	30
163	74
164	8
165	3
166	2
167	7
168	14
169	19
170	8
171	125
172	45
173	252
174	29
175	2
176	1
177	1
178	1
179	2
180	0
181	10
182	15
183	147
184	133
185	39
186	3
187	1
188	0
189	0
190	1
191	0
193	1
195	0
197	1
199	30
200	116
201	130
202	18
203	3
204	4
205	1
206	2
207	0
210	0
214	0
215	0
216	1
217	13
218	4
219	0
220	1
221	0
232	0
233	1
234	4
235	1
236	1
237	3
239	1
248	0
253	0
263	0
264	0
281	0
286	0
305	10
306	6
307	1
320	8
322	454
323	102
324	14
325	1
