Mass Spectrum: Pyrimidine-5-carboxylic acid, 1,2,3,4-tetrahydro-4-(2-trifluoromethylphenyl)-1,6-dimethyl-2-oxo-, benzyl ester
Formula: C21H19F3N2O3
CAS: 299919-49-6
Molecular weight: 404
m/z	intensity
33	0
39	72
41	26
42	12
44	4
45	7
47	0
50	31
51	73
52	20
53	10
54	19
56	227
58	9
59	0
63	57
65	203
66	51
67	13
68	10
69	9
70	1
71	0
72	0
74	11
75	23
77	127
79	69
80	7
81	8
82	21
83	3
84	0
86	1
87	4
89	63
91	999
95	66
96	16
99	10
100	3
101	4
102	5
103	2
105	24
107	17
108	5
109	8
111	2
112	1
113	2
115	16
116	4
117	1
119	6
120	4
121	1
124	63
125	30
126	11
127	9
128	10
129	5
130	3
131	2
133	12
134	8
135	1
137	1
138	2
139	5
140	4
141	2
142	3
143	6
145	113
146	15
147	2
149	2
151	53
152	23
153	3
154	2
155	2
156	4
157	11
158	6
159	3
160	2
161	1
163	3
164	12
165	9
166	2
167	7
169	44
170	13
172	28
173	4
174	2
175	4
176	9
177	8
178	2
179	1
180	1
181	1
182	5
183	4
184	5
185	6
186	4
187	3
188	1
189	1
190	3
191	1
192	3
193	3
194	3
195	5
196	3
197	3
199	19
200	10
201	3
202	2
204	1
205	1
206	1
207	0
208	0
210	5
211	2
212	2
213	1
214	1
215	2
216	0
218	3
219	2
220	1
221	0
222	0
224	2
225	2
226	6
227	4
229	3
230	0
231	0
233	1
234	0
235	2
236	0
238	0
239	2
240	5
241	1
242	1
243	0
244	0
245	0
246	0
247	0
249	30
250	3
251	0
252	1
253	6
254	3
255	3
256	0
259	592
260	83
261	9
262	0
264	0
267	2
269	92
270	15
271	1
272	0
273	0
274	0
275	5
276	0
277	0
278	0
279	0
283	0
285	0
293	24
294	3
295	2
297	14
298	1
299	0
313	291
314	42
315	4
316	0
318	0
328	0
329	0
335	1
336	0
359	0
360	0
361	0
362	0
363	0
365	0
383	0
385	0
389	0
390	0
404	98
405	22
406	3
407	0
