Mass Spectrum: Ethyl isocyanoacetate
Formula: C5H7NO2
CAS: 2999-46-4
Molecular weight: 113
m/z	intensity
13	1
14	8
15	18
16	1
25	1
26	20
27	294
28	178
29	999
30	119
31	16
32	1
38	1
39	2
40	4
41	4
42	92
43	48
44	19
45	31
46	2
54	5
55	16
56	951
57	465
58	33
59	4
60	1
70	1
72	1
73	20
74	13
75	1
77	1
78	1
83	3
84	62
85	13
86	44
87	1
91	3
92	1
113	1
114	3
