Mass Spectrum: 2-Oxaspiro[5.5]undecane-1,5-dione, 3-(2,4-dichlorophenyl)-4,4-dimethyl-
Formula: C18H20Cl2O3
CAS: 299918-92-6
Molecular weight: 354
m/z	intensity
33	6
34	0
35	0
36	4
37	2
39	173
40	62
41	244
42	94
43	51
44	5
45	6
49	0
50	16
51	27
53	113
54	130
55	68
56	4
57	5
62	4
63	11
64	4
65	29
67	359
69	50
70	130
71	11
73	5
74	20
75	36
77	28
78	30
79	90
81	153
82	101
83	11
84	3
85	4
86	3
87	6
89	11
90	0
91	13
92	10
93	6
94	0
95	11
96	3
97	8
98	4
99	18
100	2
101	11
102	10
103	5
105	3
107	6
108	10
109	40
110	999
111	70
112	12
113	17
114	13
115	62
116	6
117	1
119	1
121	0
123	22
124	71
125	29
126	13
127	32
128	49
129	77
130	39
131	3
133	2
135	4
136	7
137	16
138	11
139	7
141	3
145	23
146	7
147	17
148	8
149	47
150	43
151	20
152	45
153	6
154	0
155	0
159	36
160	3
161	24
162	7
163	11
164	23
165	65
166	11
167	17
168	1
171	1
172	4
173	56
174	11
175	35
176	7
177	7
178	5
179	8
180	397
181	47
182	4
183	3
185	55
187	38
188	1
189	6
193	0
195	0
199	7
200	131
201	25
202	80
203	10
204	11
205	0
213	3
215	0
229	0
254	0
281	4
282	0
283	3
299	0
339	0
341	0
354	7
356	5
