Mass Spectrum: Furan-2-carboxamide, 5-nitro-N-(3-acetylaminophenyl)-
Formula: C13H11N3O5
CAS: 299968-62-0
Molecular weight: 289
m/z	intensity
33	3
34	7
36	2
37	21
38	15
39	138
40	15
41	70
42	76
43	999
44	117
45	22
46	11
50	24
51	71
52	160
53	118
54	89
55	44
56	24
57	27
58	7
59	4
60	8
61	2
62	10
63	48
64	58
65	110
66	104
67	26
68	30
69	15
70	9
71	13
72	3
73	9
74	5
75	12
76	17
77	28
78	39
79	58
80	249
81	84
82	59
83	10
84	7
85	6
86	2
87	5
89	16
90	30
91	73
92	110
93	39
94	32
95	38
96	77
97	9
98	6
99	5
100	12
101	7
102	7
103	11
104	15
105	38
106	31
107	33
108	68
109	17
110	6
111	7
112	16
113	5
114	1
115	5
116	13
117	30
118	39
119	14
120	6
121	3
122	6
124	3
127	3
128	23
129	12
130	25
131	23
132	14
133	13
134	91
135	160
136	13
139	12
140	70
141	10
142	5
143	18
144	28
145	189
146	34
147	22
148	14
149	31
150	16
155	6
156	14
157	10
158	12
159	21
160	6
161	5
169	1
170	2
171	30
172	37
173	422
174	57
175	11
176	6
177	60
178	5
183	6
184	9
185	9
186	4
187	7
188	1
193	2
199	4
200	76
201	77
202	40
203	4
214	2
215	61
216	8
217	1
218	4
230	2
241	0
242	3
243	6
246	5
247	221
248	26
249	1
257	37
258	4
289	195
290	27
291	1
