Mass Spectrum: Butane-2,3-dione, bis(4-amino-5-methyl-4H-1,2,4-triazol-3-yl)hydrazone
Formula: C10H18N12
CAS: 299970-77-7
Molecular weight: 306
m/z	intensity
39	263
40	185
41	516
42	999
43	361
44	66
45	13
50	59
51	127
52	159
53	324
54	121
55	124
56	127
57	405
58	28
60	8
61	0
62	1
63	11
64	18
65	34
66	120
67	198
68	191
69	29
70	10
71	5
73	10
74	1
75	1
77	25
78	13
79	23
80	81
81	54
82	111
83	28
84	15
85	6
86	0
87	0
89	8
91	6
92	5
93	45
94	12
95	5
96	7
97	22
98	80
99	58
100	1
104	0
105	2
106	4
108	21
109	11
110	9
112	91
113	77
114	16
115	1
119	3
120	0
121	1
122	5
123	8
124	4
125	4
126	21
128	53
129	1
133	1
134	12
135	5
136	1
137	3
138	8
139	61
140	2
145	1
149	16
150	1
151	1
153	49
154	2
161	0
162	9
163	63
164	24
165	2
171	0
176	2
178	416
179	101
180	108
181	7
192	1
194	79
195	8
196	0
306	19
307	0
