Mass Spectrum: Furane-2-carboxylic acid, 5-(1,2,4-triazol-1-ylmethyl)-
Formula: C8H7N3O3
CAS: 299921-24-7
Molecular weight: 193
m/z	intensity
33	4
35	17
36	90
38	113
39	91
40	134
41	97
42	29
43	29
45	132
49	1
50	45
51	97
52	87
53	49
55	44
56	3
57	2
58	0
59	3
63	6
64	9
65	13
66	23
67	5
69	61
70	10
73	2
74	1
76	0
77	8
79	253
80	45
81	24
82	10
83	4
84	1
89	0
91	3
92	8
94	23
95	26
97	173
98	4
105	2
107	5
109	13
110	2
111	0
112	6
116	0
119	4
120	37
121	33
122	23
123	11
125	999
126	46
127	7
129	0
132	0
133	1
134	1
135	8
137	0
138	20
139	35
140	2
141	7
142	0
146	0
147	3
148	66
149	142
150	9
151	3
152	26
153	4
154	0
165	13
166	7
167	2
175	13
176	13
177	1
193	361
194	36
195	3
