Mass Spectrum: 5-(1-Methyl-1,2-dihydroquinolin-2-ylidene)-3-(2-propenyl)-2-(p-tolylimino)thiazolidin-4-one
Formula: C23H21N3OS
CAS: 299968-29-9
Molecular weight: 387
m/z	intensity
39	350
41	999
42	24
43	13
45	9
50	32
51	22
52	11
53	13
54	15
55	8
56	6
57	9
59	3
61	3
63	36
65	74
69	11
72	5
76	105
78	23
79	11
82	4
85	3
87	6
89	44
91	81
93	5
101	47
103	8
104	10
114	49
116	15
117	10
128	113
129	18
131	33
140	8
142	31
145	11
154	11
159	4
172	7
186	291
188	12
387	4
