Mass Spectrum: Furan-2-carboxamide, N-[2,2,2-tirfluoro-1-trifluoromethyl-1-(2-thiazolin-2-ylamino)ethyl]-
Formula: C11H9F6N3O2S
CAS: 299922-74-0
Molecular weight: 361
m/z	intensity
33	34
34	3
35	6
37	19
38	206
39	337
41	51
42	29
43	29
45	97
46	32
47	24
48	3
50	5
51	22
52	7
53	17
54	10
55	48
56	22
57	10
58	19
59	114
60	118
61	23
62	4
63	2
65	4
67	70
69	86
70	3
73	5
74	4
76	8
77	1
78	0
81	2
83	1
84	1
85	4
86	13
87	2
91	5
92	11
95	999
97	4
100	0
101	11
102	42
103	2
104	6
108	3
109	0
111	8
112	7
114	0
121	0
126	0
128	21
129	4
138	2
141	7
142	8
144	0
149	0
151	0
153	1
155	25
156	1
157	1
158	6
168	3
169	0
176	1
178	0
179	0
192	2
197	2
199	61
201	11
204	1
208	1
212	1
228	0
229	3
232	3
249	5
251	33
259	1
261	0
289	7
290	10
291	14
292	227
293	33
294	8
357	0
360	3
361	22
362	0
