Mass Spectrum: Ethanamine, 2-(4-cyclohexylphenyl)-
Formula: C14H21NO
CAS: 299934-03-5
Molecular weight: 219
m/z	intensity
33	7
36	137
38	45
39	27
40	16
41	43
42	34
44	999
47	0
49	0
50	4
51	12
52	5
53	11
55	33
56	2
57	1
58	0
59	0
60	0
61	0
62	2
63	7
65	28
66	4
67	8
69	4
70	0
71	0
73	0
74	1
75	2
77	41
78	12
79	13
81	15
82	4
83	6
84	0
87	0
89	12
90	18
91	46
92	5
93	4
94	8
95	3
96	0
101	1
102	5
103	14
104	5
105	17
107	83
108	7
109	0
112	0
113	0
115	26
116	8
117	11
119	24
120	44
121	10
122	1
123	0
127	3
128	4
129	5
131	10
133	161
134	16
136	5
139	0
140	0
141	0
142	0
143	0
145	3
147	21
148	2
149	0
152	0
156	0
157	0
158	0
159	3
160	0
161	0
168	0
171	0
173	1
176	239
177	25
178	1
183	0
184	0
188	1
190	10
191	1
194	0
196	1
215	0
219	91
220	11
221	0
