Mass Spectrum: Acetamide, N-(3,7-dihydro-6-benzyl-5-methyl-7-oxo-[1,2,4]-triazolo[1,5-a]pyrimidin-2-yl)-
Formula: C15H15N5O2
CAS: 299923-15-2
Molecular weight: 297
m/z	intensity
33	7
39	51
40	15
41	20
43	999
44	27
45	10
50	46
51	56
52	23
53	38
55	8
63	20
65	76
67	107
68	92
69	17
70	37
76	22
77	148
78	39
89	33
91	216
92	4
95	23
96	15
102	27
103	52
104	36
108	7
114	13
115	111
117	48
120	8
124	25
126	10
127	136
128	218
129	88
131	36
133	10
134	11
140	11
141	5
143	251
144	103
148	24
150	19
155	19
157	3
168	10
170	43
177	5
183	34
184	193
185	200
186	18
191	7
193	5
194	3
195	17
198	6
209	82
210	399
211	78
212	66
213	6
226	64
239	10
254	88
255	177
256	18
257	7
269	9
296	98
297	337
298	64
