Mass Spectrum: Acetonitrile, 2-(4-amino-3-furazanyl)-2-hydroximino-
Formula: C4H3N5O2
CAS: 299963-05-6
Molecular weight: 153
m/z	intensity
33	10
34	3
35	1
36	14
38	209
39	66
40	66
41	143
42	173
43	188
44	284
45	62
46	5
47	2
48	3
50	30
51	36
52	120
53	612
54	280
55	56
56	8
58	999
60	60
61	2
62	5
63	6
64	52
65	67
66	161
67	16
68	31
69	101
70	25
71	20
72	2
73	2
74	2
75	3
76	20
77	53
78	43
79	33
80	29
81	40
82	5
83	3
84	16
85	17
86	9
87	5
88	33
89	2
90	4
91	13
92	93
93	486
94	32
96	185
97	10
98	3
99	2
100	1
101	3
102	0
103	0
105	12
106	3
107	1
108	2
109	4
110	10
111	37
112	11
113	4
114	2
115	1
116	0
117	0
118	0
119	1
120	1
121	8
123	309
124	19
125	3
126	3
127	13
128	6
129	0
135	1
136	4
137	8
138	8
139	0
140	0
153	525
154	31
155	4
156	0
