Mass Spectrum: Quinoline, 1,2,3,4-tetrahydro-4-acetyl(phenyl)amino-2-methyl-1-(2-thiophenylcarbonyl)-
Formula: C23H22N2O2S
CAS: 299949-85-2
Molecular weight: 390
m/z	intensity
28	1
38	4
39	30
40	3
41	4
43	25
44	4
45	4
50	9
51	17
52	5
57	4
58	5
62	3
63	10
64	9
65	13
66	8
74	4
75	7
76	9
77	63
78	11
82	3
83	28
84	8
85	4
89	8
90	7
91	22
92	7
93	64
94	6
101	6
102	16
103	22
104	11
105	3
106	2
111	999
112	56
113	45
114	4
115	17
116	9
117	22
118	129
119	34
120	6
127	5
128	23
129	32
130	97
131	13
132	4
135	16
136	3
140	3
142	7
143	138
144	238
145	50
146	18
152	5
154	3
165	3
167	5
172	19
173	3
178	3
180	5
186	15
193	5
194	7
195	9
203	11
204	4
212	3
214	25
215	4
218	4
219	8
220	6
221	30
222	9
223	6
226	3
228	2
233	3
234	3
235	9
236	5
237	61
238	18
239	3
240	77
241	13
242	5
254	25
255	569
256	190
257	49
258	10
279	37
280	8
305	4
329	3
347	18
348	5
390	9
