Mass Spectrum: Oxane-3-carboxylic acid, 6-(2,4-dichlorophenyl)-3,5,5-trimethyl-2,4-dioxo-, ethyl ester
Formula: C17H18Cl2O5
CAS: 299918-95-9
Molecular weight: 372
m/z	intensity
33	0
35	0
36	1
37	0
39	39
41	91
42	87
43	40
45	15
46	0
50	6
51	7
53	11
54	17
55	29
56	14
58	2
59	2
60	0
61	1
62	3
63	9
64	3
65	3
66	1
67	5
70	999
72	54
73	9
74	12
75	23
76	5
77	8
78	1
79	2
80	0
81	2
83	244
85	16
86	2
87	6
88	3
89	8
90	1
91	2
96	1
97	12
99	23
100	58
101	26
102	10
103	4
104	0
105	0
107	0
109	15
110	19
111	21
112	5
113	13
114	11
115	47
116	6
117	1
119	0
120	0
121	0
123	17
124	5
125	26
126	13
127	31
128	77
129	101
130	31
131	4
132	0
133	1
135	5
136	4
137	8
138	4
139	7
140	1
141	3
142	1
143	0
145	28
146	7
147	20
148	7
149	42
150	35
151	17
152	11
153	2
154	2
155	0
157	0
159	43
160	5
161	28
162	8
163	15
164	23
165	43
166	11
167	13
168	2
170	87
171	9
173	87
174	12
175	56
176	7
177	11
178	1
179	1
180	0
181	2
182	0
183	3
185	41
186	5
187	29
188	3
189	8
190	1
191	3
192	0
193	1
194	0
195	1
196	0
198	518
199	79
200	71
201	27
202	41
203	9
204	7
205	1
209	6
210	0
211	2
212	2
213	0
214	0
215	0
216	6
217	4
218	4
219	2
220	1
221	0
223	0
226	34
227	67
228	25
229	46
230	7
231	8
232	0
233	0
239	0
241	0
243	0
244	5
245	1
246	3
247	1
248	0
249	0
253	0
254	0
255	1
256	0
257	5
258	0
259	3
260	0
261	0
263	0
265	0
269	0
270	0
271	0
272	0
274	0
281	0
282	0
283	0
284	0
285	1
286	0
287	1
288	0
293	0
298	0
299	2
300	1
301	1
302	0
303	0
304	0
313	0
315	0
327	23
328	11
329	15
330	7
331	3
332	0
344	0
372	17
373	3
374	12
375	1
376	1
377	0
