Mass Spectrum: 5-(2,3,4,5,6-Pentafluorobenzylidene)-2-(phenylimino)-4-thiazolidinone
Formula: C16H7F5N2OS
CAS: 299969-60-1
Molecular weight: 370
m/z	intensity
33	5
34	3
35	6
37	24
38	80
39	157
40	35
41	74
43	71
45	66
46	9
47	3
50	77
51	290
52	40
53	29
54	9
55	34
57	52
58	9
60	21
61	18
62	18
63	111
64	146
65	68
66	15
67	11
69	78
70	10
71	13
73	16
74	24
75	30
77	348
78	29
79	12
80	12
81	9
83	16
84	7
85	8
87	40
88	6
91	343
92	36
93	38
94	3
95	6
96	5
97	8
98	9
99	20
100	4
101	4
103	15
104	9
105	8
106	3
107	3
108	4
109	4
110	8
111	26
112	16
113	4
114	2
115	5
118	999
119	83
120	6
121	4
122	7
123	25
124	7
125	3
127	1
129	9
130	27
131	4
132	2
133	2
135	18
136	6
137	5
138	1
139	2
141	19
142	18
143	5
144	2
145	17
146	2
147	4
149	10
150	4
151	3
152	2
153	1
154	3
155	10
156	2
157	2
158	2
159	3
160	23
161	80
162	8
163	1
164	2
165	1
166	1
167	5
168	6
169	2
170	2
171	5
172	2
173	6
174	29
175	7
176	2
177	2
179	52
180	119
181	69
182	5
185	23
187	1
189	1
190	2
192	50
193	16
194	4
195	6
196	3
197	2
200	1
202	4
203	3
204	12
205	9
206	6
207	2
213	1
217	1
218	2
219	6
220	5
224	628
225	169
226	32
227	9
231	1
233	7
234	1
250	2
252	19
253	64
254	8
255	4
256	2
293	3
351	2
365	4
367	26
370	287
371	44
372	16
