Mass Spectrum: 3,5-Dinitro-4-(3,4-xylidino)benzoic acid
Formula: C15H13N3O6
CAS: 299965-36-9
Molecular weight: 331
m/z	intensity
39	449
40	79
41	126
43	305
45	999
46	91
47	9
48	10
50	488
52	199
53	164
54	38
55	52
56	46
62	258
63	212
65	315
66	51
67	49
68	20
69	23
70	9
71	6
74	177
75	135
77	681
78	207
79	191
80	45
81	44
82	10
83	14
84	7
85	7
87	67
88	106
89	96
91	259
92	55
93	33
94	11
95	14
96	11
97	7
98	9
99	16
101	80
102	77
103	146
104	59
105	46
106	16
107	20
109	34
110	7
111	8
112	5
113	21
115	93
116	50
117	23
118	24
119	22
120	14
121	20
122	6
123	3
125	10
126	35
127	42
128	40
129	17
130	19
131	7
132	21
133	5
134	10
135	9
137	7
139	62
140	45
141	24
142	11
143	8
144	6
146	23
147	7
148	3
149	9
150	25
151	47
152	64
153	38
154	24
155	15
156	9
157	4
161	4
162	7
163	15
164	29
165	47
166	56
167	77
168	41
169	12
170	6
174	5
175	4
177	54
178	83
179	46
180	46
181	22
182	28
183	11
184	7
188	4
190	21
191	29
192	40
193	47
194	44
195	31
196	9
197	3
200	8
205	3
206	5
207	5
208	5
209	6
210	8
211	9
212	9
213	15
214	14
215	4
220	6
221	3
222	5
223	16
224	18
225	9
226	14
227	7
228	3
237	9
238	14
239	26
240	33
241	9
242	4
251	3
252	5
254	5
255	4
256	3
260	4
267	4
268	3
269	7
270	6
272	3
283	3
284	7
286	9
298	3
331	54
332	8
