Mass Spectrum: Furazano[3,4-b]1,2,4-triazolo[3,4-d]pyrazine, 5-phenylamino-
Formula: C11H7N7O
CAS: 299918-81-3
Molecular weight: 253
m/z	intensity
33	19
34	3
35	0
36	7
38	78
39	143
40	64
41	34
42	18
43	32
44	17
45	8
46	4
48	0
51	421
52	58
53	55
54	6
55	10
56	6
57	6
59	2
60	4
61	8
62	24
63	69
64	43
65	90
66	20
67	18
68	16
69	8
70	3
71	6
72	4
74	25
75	36
77	999
78	59
79	6
80	1
81	1
82	1
83	3
84	3
85	3
86	0
87	4
88	13
89	46
90	20
91	25
92	17
93	17
94	4
95	16
96	1
98	3
102	23
103	33
104	21
105	3
107	0
108	2
109	1
110	0
111	1
112	2
114	11
115	13
116	11
117	16
118	15
119	6
120	27
121	2
122	0
127	5
129	373
130	31
131	2
134	1
141	4
142	8
143	26
144	48
145	7
146	1
153	0
154	4
155	5
156	9
157	11
158	3
159	3
162	2
167	4
168	14
169	12
170	7
171	33
172	3
175	2
178	0
181	2
182	2
183	1
184	3
185	10
186	2
191	2
192	3
193	0
194	4
195	30
196	140
197	13
198	0
204	0
205	5
206	1
210	0
211	17
212	3
221	9
222	8
223	87
224	10
225	0
227	0
228	1
229	3
232	0
233	6
249	3
252	339
253	404
254	53
255	5
256	0
