Mass Spectrum: Methanone, [4-methyl-6-(4-dimethylamino)-1,5,2-dioxazinan-3-yl](phenyl)-
Formula: C19H22N2O3
CAS: 299918-48-2
Molecular weight: 326
m/z	intensity
33	15
34	0
36	5
37	3
38	10
39	57
40	25
41	79
42	78
43	24
44	26
45	8
46	2
50	55
51	169
52	18
53	8
54	5
55	9
56	6
57	9
58	3
59	3
60	0
61	2
62	8
63	32
64	16
65	46
66	16
67	10
68	9
69	5
70	3
71	4
72	6
73	9
74	15
75	19
77	715
78	64
79	44
80	41
82	3
83	2
84	3
85	1
86	2
87	4
89	88
90	57
91	117
92	34
93	21
94	18
95	2
96	1
97	0
98	0
99	0
100	0
101	3
102	18
103	29
105	999
106	76
107	17
108	48
109	5
110	1
111	0
112	3
113	1
114	2
115	10
116	23
117	172
118	209
119	78
120	76
121	345
122	53
123	17
124	2
125	0
126	0
127	1
128	5
129	14
130	36
131	44
132	197
133	92
134	189
135	34
136	19
137	11
138	2
139	0
140	0
141	1
142	3
143	12
144	20
145	85
146	144
147	163
148	408
149	980
150	99
151	7
153	3
154	1
155	2
156	3
157	19
158	9
159	27
160	62
161	564
162	90
163	210
164	705
165	71
166	6
167	1
168	1
169	1
170	1
171	10
172	12
173	19
174	12
175	10
176	24
177	18
178	2
179	1
180	0
181	1
183	3
184	14
185	5
187	181
188	224
189	38
190	4
191	1
193	0
194	0
195	0
196	0
198	0
199	0
200	0
201	1
202	2
203	10
204	91
205	130
206	20
207	1
208	1
209	1
210	1
219	0
220	2
221	14
222	7
223	1
224	0
225	0
226	0
233	0
234	1
235	0
236	1
237	1
238	1
239	0
249	0
252	0
266	0
267	1
281	0
283	0
301	0
306	0
307	0
308	0
309	10
310	30
311	5
312	4
313	0
320	3
321	0
322	3
323	0
324	1
326	849
327	187
328	25
329	2
