Mass Spectrum: Propanoic acid, 2-(3-cyano-4-ethyl-5-methyl-2-thienylamino)-3,3,3-trifluoro-2-(dimethylaminocarbonylamino)-, ethyl ester
Formula: C16H21F3N4O3S
CAS: 299922-90-0
Molecular weight: 406
m/z	intensity
34	2
38	2
39	16
40	70
41	22
42	58
43	30
44	95
45	32
46	15
48	1
50	4
51	8
52	7
53	10
54	1
55	3
56	22
57	5
58	12
59	39
60	8
61	2
63	4
64	6
65	9
66	5
67	5
69	25
70	7
72	999
73	36
74	0
75	2
76	7
77	14
78	10
79	8
80	4
81	1
83	4
84	1
85	1
88	11
89	7
90	5
91	4
92	2
93	2
94	4
95	3
96	8
97	7
98	1
99	2
104	7
105	4
106	2
107	4
108	2
109	2
110	3
111	6
116	1
117	1
118	8
120	1
121	3
122	5
123	4
124	5
129	0
131	2
132	3
133	9
134	4
135	5
136	4
137	17
138	5
147	0
148	2
149	8
150	13
151	66
152	6
153	3
161	12
162	2
164	2
165	30
166	413
167	45
168	18
169	0
175	1
176	2
177	16
178	2
179	0
192	1
193	0
195	9
196	2
198	0
205	3
211	0
217	14
218	9
219	0
225	7
226	10
231	5
237	9
240	2
241	1
245	16
246	3
247	0
261	0
288	6
318	17
319	1
406	7
