Mass Spectrum: 2-Allyl-6-(4-methoxy-2-nitrophenyliminomethyl)phenol
Formula: C17H16N2O4
CAS: 299968-23-3
Molecular weight: 312
m/z	intensity
33	460
39	766
41	121
42	234
43	33
44	69
45	25
51	791
53	311
54	201
55	65
56	107
57	15
58	54
59	10
63	999
64	341
65	347
66	85
67	46
68	31
69	35
70	38
71	25
74	92
75	139
76	270
77	578
78	257
79	266
80	104
81	26
82	34
83	44
84	55
86	12
87	40
89	279
90	155
91	256
92	222
93	60
94	23
95	75
96	48
97	30
98	15
100	9
101	64
102	165
103	366
104	169
105	264
106	131
107	84
108	46
109	27
110	56
111	32
112	10
113	36
115	512
116	124
117	115
118	57
119	47
120	47
122	490
123	42
125	30
126	24
127	91
128	70
129	39
130	111
131	260
132	160
133	409
134	93
135	55
136	18
137	48
139	110
140	54
141	50
142	26
143	36
144	44
145	82
146	13
147	19
149	24
150	32
151	77
152	358
153	91
154	63
155	34
156	52
157	27
158	64
159	320
160	55
161	219
162	29
163	21
164	21
165	66
166	68
167	102
168	57
169	17
170	10
176	12
177	14
178	38
179	32
180	31
181	23
182	41
183	11
190	26
192	65
193	48
194	43
195	35
196	28
203	10
204	33
205	27
206	34
207	52
208	29
209	18
210	46
211	12
219	13
220	35
221	57
222	57
223	33
224	16
233	13
234	54
235	54
236	45
237	30
238	13
248	25
249	91
250	110
251	30
252	9
262	47
263	59
264	83
265	49
266	30
277	236
278	198
279	41
280	13
295	29
297	224
298	39
310	11
311	48
312	370
313	55
