Mass Spectrum: Methane, bis[4-(2,2-dimethylpropanamido)phenyl]-
Formula: C23H30N2O2
CAS: 299965-46-1
Molecular weight: 366
m/z	intensity
34	0
35	0
38	0
39	7
40	4
41	180
42	18
43	6
44	12
45	1
46	0
47	1
48	0
49	0
52	0
53	1
54	1
55	14
56	7
57	999
58	80
59	2
61	0
64	1
65	0
66	0
67	0
68	0
69	9
70	1
71	3
72	0
78	0
80	0
81	0
82	0
83	4
84	2
85	33
86	1
87	0
89	0
90	0
91	0
92	1
93	5
94	1
95	0
97	0
98	0
99	0
104	4
105	1
106	30
107	3
108	0
109	0
111	0
115	0
116	0
118	2
119	1
120	0
121	0
122	0
123	0
124	0
129	0
130	1
131	1
132	73
133	6
134	0
135	0
140	0
141	1
142	0
143	2
144	2
145	1
146	4
152	2
153	6
154	1
156	0
157	0
158	0
159	0
160	0
161	1
162	0
164	0
165	3
166	1
167	2
168	5
169	3
170	4
171	0
172	0
173	0
174	0
180	14
181	14
182	24
183	2
184	0
188	0
190	5
191	0
193	0
194	0
195	5
196	3
197	46
198	27
199	5
200	0
207	0
208	0
209	0
210	0
211	0
214	0
215	0
221	0
222	0
223	2
224	3
225	2
226	0
227	0
237	0
239	1
240	0
265	0
266	0
268	0
280	0
281	8
282	40
283	10
284	1
323	4
324	0
326	0
365	0
366	127
367	28
368	5
369	0
