Mass Spectrum: Thiazolidin-4-one, 5-(4-bromobenzylideno)-2-(2-chlorophenylimino)-
Formula: C16H10BrClN2OS
CAS: 299927-86-9
Molecular weight: 392
m/z	intensity
33	0
34	1
35	4
36	7
37	32
38	74
39	171
40	25
41	24
42	16
43	42
44	48
45	60
46	12
47	6
49	18
50	150
51	116
52	26
53	27
54	3
55	9
56	4
57	22
58	11
59	10
60	13
61	33
62	116
63	320
64	95
65	36
66	29
67	21
69	84
70	10
71	9
72	9
73	50
74	109
75	246
76	69
77	31
78	7
79	7
80	5
81	32
82	67
83	16
84	12
85	25
86	24
87	44
88	60
89	999
90	284
91	31
92	5
93	55
94	7
95	10
96	3
97	11
98	32
99	51
100	26
101	72
102	27
103	5
104	7
105	20
106	33
107	22
108	12
109	3
110	4
111	68
112	10
113	21
114	4
115	4
116	14
117	51
118	9
119	6
120	2
121	3
122	5
123	2
124	13
125	146
126	19
127	48
128	11
129	5
130	3
131	7
132	81
133	460
134	119
135	30
136	7
137	4
138	1
139	4
140	1
141	1
142	0
143	1
144	0
145	1
146	0
147	0
148	1
149	7
150	5
151	15
152	251
153	42
154	81
155	15
156	2
157	5
158	1
159	7
160	5
161	91
162	33
163	8
164	2
165	0
166	0
167	15
168	6
169	24
170	4
171	8
172	0
173	0
176	0
177	1
178	0
179	13
180	19
181	6
182	18
183	4
184	2
185	2
186	2
187	0
188	0
189	0
190	0
191	1
194	0
195	0
196	2
197	1
198	0
201	0
205	0
206	0
207	3
208	2
209	5
210	6
212	820
213	123
214	766
215	103
216	35
217	4
218	0
219	0
222	0
223	4
224	1
225	0
226	4
227	0
228	1
233	0
239	6
240	12
241	29
242	12
243	22
244	2
245	0
248	0
249	0
250	2
283	0
285	0
313	3
314	0
315	0
356	0
357	5
358	1
359	5
360	0
361	0
388	1
390	1
392	69
394	99
395	15
396	23
397	4
398	0
