Mass Spectrum: 4,5-Dihydro-4-(2-nitrobenzylidene)-2-(p-tolyl)-5-oxazolone
Formula: C17H12N2O4
CAS: 299970-61-9
Molecular weight: 308
m/z	intensity
38	166
40	12
41	35
43	68
44	56
45	47
50	79
51	78
52	37
54	5
60	42
62	270
65	469
70	4
74	44
75	47
76	63
77	47
78	11
79	10
87	58
88	61
89	150
91	680
92	147
98	3
100	3
103	50
104	14
105	11
106	2
107	5
111	2
114	47
115	42
116	27
119	999
130	3
131	3
133	5
135	14
146	7
147	3
154	4
161	19
219	2
308	20
309	3
