Mass Spectrum: 2H-Benzo[c,d]indol-2-one, 1-(4-fluorobenzyl)-
Formula: C18H12FNO
CAS: 299919-74-7
Molecular weight: 277
m/z	intensity
33	3
34	0
36	0
37	2
39	34
40	4
41	1
42	0
43	1
44	3
45	1
46	0
50	22
51	21
52	3
53	1
55	1
57	24
59	13
62	23
63	53
65	3
66	0
67	0
68	2
69	4
70	4
71	0
74	23
75	30
76	17
77	28
78	1
80	0
81	7
83	107
84	5
85	2
86	8
87	14
88	10
89	15
91	8
94	5
95	6
96	4
97	6
98	6
99	9
100	9
101	14
102	3
103	1
104	0
105	1
107	24
109	999
110	66
113	28
114	20
116	0
117	1
119	0
120	0
121	2
122	3
123	14
124	12
125	10
126	35
127	56
128	9
130	1
131	0
132	0
133	0
134	0
135	0
138	23
140	34
141	4
142	0
144	0
145	0
146	0
147	0
148	0
149	0
150	1
151	2
152	9
153	16
154	14
155	7
156	1
157	0
159	0
160	0
161	0
162	0
163	0
164	0
166	0
168	8
169	3
170	0
171	0
173	0
174	1
175	1
176	0
177	0
180	3
181	6
182	27
183	3
184	0
186	0
187	0
188	0
189	0
190	0
191	0
192	0
193	0
194	0
195	0
196	0
197	0
198	0
199	2
200	1
201	1
202	0
203	0
204	0
205	0
207	0
208	0
212	0
213	0
214	0
215	0
216	0
217	1
218	2
219	2
220	4
221	1
222	0
225	0
226	0
227	1
228	1
229	0
230	0
231	0
232	0
233	2
234	0
235	0
243	0
244	0
245	2
246	4
248	16
249	3
250	0
255	0
256	0
257	0
258	2
259	4
260	18
261	3
262	0
272	0
274	6
276	67
277	321
278	60
279	6
280	0
283	0
