Mass Spectrum: 4-(.beta.-Bromocinnamylidene)-4,5-dihydro-2-(p-tolyl)-5-oxazolone
Formula: C19H14BrNO2
CAS: 299970-59-5
Molecular weight: 367
m/z	intensity
35	8
36	15
37	17
39	196
41	45
43	67
44	21
45	45
50	76
51	81
52	19
53	7
60	8
63	130
65	274
74	25
75	20
76	20
77	22
78	9
79	7
80	21
82	23
86	14
87	15
88	43
89	95
91	661
98	6
101	9
102	10
103	6
105	10
112	14
113	26
114	48
115	25
116	12
119	999
120	68
126	5
127	7
140	109
141	47
288	18
367	12
368	5
369	7
370	4
