Mass Spectrum: 2-Oxaspiro[5.5]undecane-1,5-dione, 3-(4-chlorophenyl)-4,4-dimethyl-
Formula: C18H21ClO3
CAS: 299918-91-5
Molecular weight: 320
m/z	intensity
33	4
39	86
40	122
41	196
42	80
43	46
44	4
45	4
50	9
51	45
53	100
54	122
55	48
57	7
59	0
61	1
62	3
63	15
64	7
65	24
67	302
68	25
70	111
71	59
72	1
73	3
74	4
75	32
77	87
78	18
79	81
81	137
82	93
83	12
85	4
86	2
87	3
89	19
90	14
91	34
92	27
93	11
94	0
95	7
96	6
97	7
98	8
99	14
100	1
101	7
102	8
103	16
104	2
105	8
106	0
107	4
110	999
111	108
113	29
115	125
116	73
117	7
119	0
121	0
124	80
125	58
126	11
127	30
128	31
129	37
130	39
131	106
132	9
133	1
135	0
137	14
138	13
139	56
140	9
141	23
142	2
143	0
149	9
151	81
152	48
153	30
154	2
159	0
165	22
166	153
167	23
168	46
169	5
177	0
178	2
179	14
180	456
181	53
182	5
184	0
195	1
247	3
248	0
249	1
265	0
305	5
320	11
321	2
322	3
