Mass Spectrum: Ethanone, 1-(4-biphenyl)-, (1-phenylethylidene)hydrazone
Formula: C22H20N2
CAS: 299965-67-6
Molecular weight: 312
m/z	intensity
38	10
39	81
41	38
42	75
43	36
50	41
51	375
52	50
63	62
64	15
75	59
76	159
77	999
78	149
79	58
81	5
84	15
85	7
90	21
91	88
92	20
93	4
102	66
103	170
104	130
105	22
118	240
119	37
120	6
126	40
127	69
128	35
132	118
133	79
134	10
135	5
150	39
151	170
152	546
153	221
154	38
155	7
159	161
160	19
165	50
166	13
167	38
168	29
169	4
178	149
179	171
180	130
181	25
193	34
194	117
195	32
196	5
208	30
209	40
210	5
221	63
222	10
235	110
236	46
237	5
256	90
257	22
258	1
270	25
271	28
272	5
297	490
298	26
299	6
311	43
312	264
313	55
314	8
