Mass Spectrum: 3-(2-Acetamido-5-methoxyphenyl)benzo[g]quinoxalin-2(1H)-one
Formula: C21H17N3O3
CAS: 299964-64-0
Molecular weight: 359
m/z	intensity
43	999
52	28
53	39
64	20
89	15
115	118
140	77
191	17
274	16
299	53
302	56
313	29
316	68
317	33
318	30
359	103
