Mass Spectrum: Benzenesulfonamide, N-(4-fluorobenzyl)-N-(4-methyl-3-furazanyl)-
Formula: C16H14FN3O3S
CAS: 299919-73-6
Molecular weight: 347
m/z	intensity
33	2
34	4
36	0
37	0
38	4
39	23
40	63
41	9
42	4
43	7
44	25
45	3
46	0
47	0
48	4
49	1
50	26
51	102
52	9
53	7
54	1
55	2
56	3
57	20
58	2
59	8
60	1
61	1
62	3
63	13
64	7
65	7
66	3
67	3
68	1
69	6
70	3
71	3
73	1
74	5
75	15
77	372
78	36
79	2
81	6
83	70
84	5
85	0
86	0
87	0
89	10
90	1
91	9
92	1
93	1
94	4
95	17
96	4
97	7
98	0
101	0
102	0
103	1
104	0
105	1
106	2
107	27
109	999
110	76
111	3
112	0
114	0
115	1
116	0
118	0
119	0
120	1
121	4
122	9
123	3
124	2
125	10
126	1
130	0
131	0
132	1
134	70
135	22
136	2
137	0
139	0
141	82
142	8
143	5
144	0
146	1
147	2
149	125
150	11
151	0
152	0
159	0
160	1
161	0
163	1
165	3
166	0
170	0
171	1
172	0
175	2
176	5
177	0
178	1
182	0
183	1
185	0
204	5
205	15
206	257
207	30
208	2
224	0
264	5
265	0
267	0
347	2
348	0
