Mass Spectrum: Thiazole, 4-(4-nitrophenyl)-2-(3-phenyl-2-propenylthio)-
Formula: C18H14N2O2S2
CAS: 299921-08-7
Molecular weight: 354
m/z	intensity
34	0
37	0
38	2
39	29
40	10
41	3
42	0
43	1
44	3
45	14
46	0
47	0
48	0
50	6
51	17
52	3
53	1
54	0
55	1
56	0
57	1
58	2
59	0
60	0
61	0
62	5
63	20
64	5
65	20
66	1
67	0
69	7
70	2
71	2
72	0
74	4
75	8
76	6
77	13
78	6
79	1
80	0
81	1
82	4
83	1
84	0
85	0
86	1
87	3
88	5
89	42
90	6
91	121
92	10
93	4
94	2
95	1
96	2
97	0
98	1
99	0
100	0
101	2
102	12
103	6
104	3
105	1
106	4
107	1
108	2
109	0
110	0
111	0
112	0
113	1
114	5
115	299
116	70
117	999
118	101
119	6
120	7
121	7
122	2
123	0
124	0
126	0
127	0
128	0
129	0
130	0
131	1
132	4
133	10
134	6
135	2
136	0
137	0
145	0
146	17
147	9
148	2
149	5
150	3
151	0
152	0
157	0
158	0
159	9
160	1
161	0
163	0
164	0
165	0
166	0
171	0
172	0
173	0
174	0
176	0
177	0
178	0
179	1
180	0
188	3
190	7
191	30
192	4
193	3
194	0
199	0
202	0
203	0
204	0
205	0
206	0
207	1
208	0
217	0
219	0
220	3
221	0
222	0
233	0
236	0
237	2
238	2
239	0
240	0
245	0
247	0
250	0
251	0
252	0
263	11
264	1
265	0
275	2
276	0
308	0
309	0
321	7
322	1
323	0
328	0
337	0
339	0
354	75
355	15
356	8
357	1
358	0
