Mass Spectrum: Propanamide, N-[1-[(6-ethoxy-2-benzothiazolyl)amino]-2,2,2-trifluoro-1-(trifluoromethyl)ethyl]-
Formula: C15H15F6N3O2S
CAS: 299922-71-7
Molecular weight: 415
m/z	intensity
33	15
36	0
37	5
39	71
41	16
42	46
43	55
44	67
45	53
47	6
49	4
50	37
51	52
52	57
53	33
55	52
57	999
59	8
60	7
62	16
63	57
64	15
65	6
66	20
69	167
70	37
71	14
72	5
73	7
74	8
75	6
76	21
77	43
78	64
80	75
81	15
82	31
83	39
84	24
85	28
86	3
87	1
88	2
90	3
91	12
92	21
93	31
94	39
95	76
96	63
97	13
98	2
100	2
102	0
103	8
104	5
105	17
106	34
107	16
108	24
109	97
110	81
111	37
112	34
113	4
114	2
115	2
116	2
117	0
118	1
119	6
121	197
122	69
123	51
124	31
125	6
126	2
131	3
132	6
133	13
134	14
135	10
137	155
138	67
139	63
140	13
142	14
145	2
146	3
147	7
148	15
149	23
150	116
151	22
152	7
153	1
158	4
159	1
160	1
161	3
162	8
165	665
166	277
167	57
168	13
169	1
170	1
171	4
172	0
173	0
174	1
175	4
176	12
177	7
178	8
179	6
180	3
181	0
182	0
185	0
190	1
191	12
192	26
194	252
195	32
196	11
197	1
199	2
200	6
201	0
202	0
205	1
206	0
208	1
216	1
219	2
221	8
222	1
223	0
225	3
226	3
227	0
228	3
233	1
235	2
243	3
245	45
246	4
247	1
249	0
251	0
259	0
260	2
261	2
262	0
263	2
264	1
265	0
266	1
273	1
285	5
287	2
289	7
290	28
291	2
294	0
295	5
300	0
309	1
310	5
311	13
312	10
313	51
314	158
315	28
317	4
320	1
322	1
323	5
324	1
328	0
330	0
337	3
338	11
339	16
340	46
342	312
343	34
344	14
345	2
385	0
386	3
387	0
411	6
412	5
413	4
414	11
415	70
416	10
417	3
