Mass Spectrum: Quinazolin-4(3H)-one, 3-(1-piperidylmethyl)-2-phenyl-
Formula: C20H21N3O
CAS: 299928-96-4
Molecular weight: 319
m/z	intensity
33	2
34	0
36	0
37	0
39	32
41	113
42	94
43	11
44	28
50	13
51	34
53	7
55	69
56	25
57	4
58	0
63	16
64	10
65	10
66	2
67	7
68	8
69	15
70	13
71	0
74	2
75	7
77	151
78	8
79	1
80	2
82	10
84	999
87	0
89	15
90	26
91	11
92	24
93	2
94	1
96	28
98	63
102	10
103	7
104	10
105	3
106	0
107	0
108	0
109	0
111	1
113	0
114	1
115	2
116	9
117	10
119	56
120	11
121	0
122	0
123	0
124	0
125	0
126	0
127	0
128	0
129	2
130	4
132	39
133	2
134	0
137	0
139	3
140	2
141	0
142	1
143	1
144	3
145	5
147	0
150	0
151	1
152	1
153	0
154	0
155	0
156	0
157	0
160	9
164	0
165	1
166	5
167	3
168	0
169	0
170	0
171	0
172	0
177	0
178	1
179	1
180	2
181	0
182	0
183	0
184	0
185	1
186	0
190	0
191	0
192	3
193	2
194	1
195	1
196	0
197	0
198	0
199	0
200	0
203	0
205	6
206	7
207	6
208	2
209	0
212	0
216	0
217	0
218	0
219	1
221	11
222	2
223	1
224	0
231	0
233	9
235	474
236	143
237	19
238	1
239	0
240	0
242	0
247	0
248	0
249	0
250	1
251	0
252	0
260	0
262	3
263	0
264	0
276	0
278	0
310	0
311	0
312	0
313	2
314	0
315	1
316	0
318	2
319	11
320	2
321	0
