Mass Spectrum: 4H-Benz[b]1,4-oxazin-2(3H)-one, 7-nitro-3-(2-oxo-2-phenylethylideno)-
Formula: C16H10N2O5
CAS: 299918-87-9
Molecular weight: 310
m/z	intensity
33	27
34	0
37	34
39	99
40	30
41	7
42	12
43	14
44	11
45	8
46	5
51	471
52	73
53	83
55	3
57	1
59	2
63	310
65	13
66	5
67	10
69	60
70	1
74	100
77	999
78	107
81	2
82	2
83	0
86	6
87	6
89	36
90	24
91	21
92	6
93	0
95	4
96	0
98	2
99	2
102	97
103	83
105	893
107	5
108	1
109	0
112	1
113	2
114	3
115	4
116	5
118	7
119	8
123	0
126	0
127	5
128	8
129	12
130	23
131	23
139	2
140	2
141	2
147	41
148	2
150	2
152	18
153	4
154	2
155	2
156	0
159	131
161	0
163	0
165	2
166	4
167	0
174	27
175	6
176	0
178	12
179	5
180	11
182	0
187	15
188	1
190	2
191	2
194	0
195	1
196	1
202	6
205	219
206	19
208	34
209	3
219	10
220	2
221	4
222	0
223	1
224	1
232	2
233	10
235	79
236	17
237	2
251	7
252	3
253	1
254	2
263	3
264	4
265	9
267	27
268	2
277	0
278	4
281	662
282	208
283	31
284	2
294	1
310	497
311	53
312	10
