Mass Spectrum: Diazomethane, bis-(trimethylsilyl)-
Formula: C7H18N2Si2
CAS: 30006-66-7
Molecular weight: 186
m/z	intensity
25	0
26	4
27	13
28	18
29	72
30	6
31	89
33	3
35	0
37	0
38	0
39	3
40	1
41	4
42	24
43	268
44	47
45	278
46	18
47	9
48	0
49	0
50	0
51	1
53	35
54	10
55	53
56	10
57	29
58	51
59	426
60	32
61	13
63	0
65	3
66	6
67	18
68	6
69	40
70	13
71	17
73	999
74	81
75	36
76	1
77	1
78	2
79	1
80	1
81	13
83	294
84	53
85	140
86	16
87	10
88	1
89	1
91	0
92	0
93	1
94	1
95	3
96	1
97	8
98	5
99	20
100	4
101	14
102	3
103	9
104	1
105	0
108	0
109	1
110	0
111	4
113	15
114	3
115	32
116	11
117	26
118	4
119	1
120	0
125	2
127	10
128	2
129	5
130	2
131	1
132	0
139	0
141	4
143	294
144	50
145	24
146	3
147	0
157	0
158	1
159	0
171	31
172	5
173	2
174	0
186	77
187	14
188	6
189	0
