Mass Spectrum: 1,3-Dioxane, 5-bromo-5-nitro-
Formula: C4H6BrNO4
CAS: 30007-47-7
Molecular weight: 211
m/z	intensity
26	230
27	999
28	34
29	570
30	397
31	443
33	0
36	0
37	11
38	25
39	115
40	50
41	84
42	50
43	38
44	39
45	18
46	35
47	2
48	24
51	2
52	3
53	23
54	90
55	143
56	84
57	116
58	12
59	10
60	9
61	2
65	0
70	4
71	12
72	5
73	5
74	18
76	0
79	25
80	38
81	30
82	36
83	4
84	71
85	229
86	34
87	3
88	13
89	1
90	0
91	2
92	2
93	29
94	3
95	23
99	0
100	1
101	34
102	20
103	1
104	6
105	178
106	37
107	446
108	33
109	259
110	5
111	2
112	0
113	0
116	0
117	0
118	2
119	2
120	2
121	9
122	8
123	33
124	7
125	26
126	0
130	0
131	1
132	3
133	24
134	41
135	811
136	67
137	795
138	29
139	25
140	0
146	1
148	1
151	5
152	47
153	6
154	47
155	2
162	0
163	1
164	81
165	36
166	78
167	33
168	2
180	0
181	59
182	3
183	53
184	2
194	0
210	5
212	4
