Mass Spectrum: Cyclocopacamphan-12-yl methyl ether A
Formula: C16H26O
CAS: 300349-00-2
Molecular weight: 234
m/z	intensity
27	18
29	55
31	11
33	10
38	7
39	96
41	194
45	617
46	11
50	20
51	32
52	19
53	61
54	8
55	209
63	22
64	16
65	149
66	45
67	148
68	29
69	73
72	67
73	19
74	5
76	11
77	311
78	106
79	266
81	238
82	31
85	14
86	9
87	13
89	20
91	681
92	191
93	364
94	595
95	205
96	21
98	38
99	23
103	85
104	33
105	818
106	254
107	339
108	187
115	167
116	72
117	351
118	152
119	999
120	383
121	295
127	27
128	152
129	169
130	70
131	443
132	165
133	349
134	154
140	11
141	21
142	23
143	67
144	31
145	368
146	121
147	216
155	18
156	22
157	27
158	19
159	135
161	906
162	538
163	81
166	23
170	9
171	12
172	6
173	63
174	31
180	5
185	48
186	11
187	154
188	66
189	345
190	55
193	20
200	85
201	17
202	93
219	48
234	415
235	76
236	7
