Mass Spectrum: N,N-Dibenzyl-N'-(4-bromo-benzylidene)-hydrazine
Formula: C21H19BrN2
CAS: 300381-14-0
Molecular weight: 378
m/z	intensity
33	0
39	9
40	0
41	2
43	0
50	5
51	11
52	1
53	0
61	0
62	5
63	22
65	93
66	2
73	0
74	2
75	8
76	11
77	17
78	5
79	1
80	0
81	0
85	0
86	1
87	2
89	145
91	999
92	73
93	2
99	0
100	0
101	0
102	8
103	13
104	9
105	3
106	1
107	0
113	0
114	0
115	3
116	1
117	2
118	3
119	1
120	0
121	0
124	0
125	0
126	0
127	0
128	1
129	1
130	0
131	3
132	0
133	0
137	0
139	1
140	0
141	1
143	0
150	2
151	2
152	6
153	3
155	7
157	7
158	0
163	0
165	41
166	16
168	27
169	5
170	23
171	3
176	2
177	4
178	38
179	104
180	265
181	48
182	7
183	2
184	2
185	0
186	0
191	0
192	0
193	0
194	3
195	1
196	2
198	2
199	0
205	0
206	0
207	1
208	2
209	3
210	0
211	3
212	0
215	0
221	0
223	0
245	1
246	0
247	0
257	0
258	1
259	8
260	2
261	7
262	1
285	1
286	0
287	5
288	1
289	4
290	0
299	3
300	13
301	4
302	0
303	1
304	0
334	0
336	0
373	0
375	0
376	0
378	99
379	29
380	97
381	21
382	2
