Mass Spectrum: Furazan-3,4-diamine, N,N'-bistrifluoroacetyl-
Formula: C6H2F6N4O3
CAS: 300398-79-2
Molecular weight: 292
m/z	intensity
33	1
38	9
40	13
41	44
42	46
43	47
44	40
46	10
47	1
50	104
53	171
54	27
55	2
57	11
58	9
65	2
66	6
69	999
71	20
76	3
78	19
85	29
90	1
91	45
92	0
96	47
97	71
98	4
104	1
111	5
112	1
119	9
124	13
127	1
137	2
139	102
140	8
146	26
147	1
153	1
165	7
166	15
174	0
182	12
192	3
193	37
196	26
207	3
209	0
223	105
224	5
225	0
235	18
243	9
262	46
263	1
292	42
293	3
