Mass Spectrum: Imidazo[4,5-d]imidazole-2,5-dione, perhydro-1,6-dimethyl-3,4-bis(1-piperidylmethyl)-
Formula: C18H32N6O2
CAS: 300389-09-7
Molecular weight: 364
m/z	intensity
33	1
37	0
39	20
41	112
42	126
44	42
50	0
51	2
52	2
53	7
55	92
56	61
57	9
58	7
59	0
65	1
67	9
68	15
69	57
70	27
71	2
72	0
76	0
77	0
80	3
84	251
85	14
86	2
94	1
98	999
99	47
103	0
108	0
109	1
111	32
112	19
113	13
114	0
118	0
123	0
124	1
125	4
126	17
127	3
128	1
137	1
139	66
140	14
141	3
142	0
150	0
152	1
154	8
155	0
168	0
169	1
170	10
171	0
181	1
182	4
183	9
184	0
193	0
194	1
195	3
196	5
197	0
210	0
224	1
266	13
267	9
268	6
269	0
279	14
281	134
282	15
283	1
364	16
365	2
