Mass Spectrum: 4-Acetamido-7-bromo-5-hydroxybenzofurazan
Formula: C8H6BrN3O3
CAS: 300359-24-4
Molecular weight: 271
m/z	intensity
40	8
41	12
42	35
43	999
44	51
47	5
51	11
52	34
53	36
54	30
55	19
58	7
62	6
63	29
64	78
65	31
66	16
67	15
68	8
69	6
70	7
71	14
75	17
76	8
77	9
78	9
79	7
82	12
83	32
85	14
90	6
91	21
92	43
93	7
95	7
96	6
105	111
106	21
107	6
119	42
120	9
122	22
123	12
130	12
132	18
133	25
134	12
135	5
142	5
144	8
149	6
150	90
151	12
158	42
159	13
160	33
161	6
172	11
174	14
176	16
178	8
182	8
184	16
185	9
186	16
199	15
201	13
202	9
204	10
212	47
214	41
228	6
229	774
230	68
231	768
232	52
233	6
271	168
272	12
273	175
274	20
