Mass Spectrum: 2,2,3,3,4,4,5,5,5-Nonafluoro-pentanoic acid cyclohexylamide
Formula: C11H12F9NO
CAS: 300399-76-2
Molecular weight: 345
m/z	intensity
39	128
40	30
41	796
42	147
43	158
44	129
52	0
53	39
54	422
55	922
56	390
57	366
58	37
67	999
68	258
69	669
79	12
81	161
131	50
264	222
265	31
302	249
303	35
