Mass Spectrum: 1,4-Bis(p-tolylsulfonyl)-2,3,5,6-tetrafluorobenzene
Formula: C20H14F4O4S2
CAS: 300375-39-7
Molecular weight: 458
m/z	intensity
48	15
50	6
51	28
65	190
66	9
77	59
78	18
79	45
80	2
91	999
92	93
107	232
108	18
109	2
139	170
140	10
155	528
156	45
157	27
165	2
169	4
196	4
219	6
224	6
229	2
237	3
238	1
239	3
254	5
287	5
288	4
304	9
394	4
458	425
459	92
460	46
461	6
462	2
