Mass Spectrum: 2,2-Dimethyl-N-(2,2,2-trichloro-1-O-tolylamino-ethyl)-propionamide
Formula: C14H19Cl3N2O
CAS: 300382-25-6
Molecular weight: 336
m/z	intensity
33	0
34	1
35	3
36	8
37	3
38	7
39	71
40	23
41	247
42	39
43	17
44	26
45	5
46	5
47	2
48	1
49	2
50	8
51	24
52	16
53	16
54	6
55	21
57	999
58	54
59	4
60	4
61	1
62	3
63	16
64	14
65	67
66	9
67	5
68	13
69	15
70	7
71	4
72	2
73	2
74	3
75	4
76	8
77	64
78	27
79	30
80	8
81	3
82	11
83	12
84	13
85	73
86	21
87	3
88	2
89	24
90	19
91	110
92	11
93	10
94	1
95	2
96	2
97	7
98	1
99	2
100	4
101	13
102	290
103	24
104	16
105	6
106	130
107	175
108	34
109	4
110	3
111	12
112	4
113	7
114	2
115	3
116	10
117	52
118	180
119	44
120	5
121	2
122	1
123	1
124	3
125	2
126	2
127	1
128	9
129	5
130	38
131	33
132	8
133	26
134	21
135	243
136	157
137	14
138	2
139	4
140	1
141	2
142	1
143	2
144	5
145	18
146	16
147	11
148	7
149	4
150	3
151	5
152	2
153	2
154	5
155	1
156	1
157	0
158	0
159	1
161	24
162	3
163	2
164	27
165	21
166	20
167	8
168	4
169	1
170	0
171	0
172	2
173	2
174	1
175	1
176	0
177	0
178	0
179	3
180	10
181	7
182	4
183	3
184	0
185	1
186	0
187	1
188	1
189	0
190	1
191	0
192	0
193	0
194	0
195	1
196	1
197	1
198	3
199	5
200	7
201	18
202	8
203	10
204	2
205	2
206	1
207	3
208	1
209	1
210	0
211	0
212	0
213	1
214	0
215	10
216	2
217	8
219	696
220	106
221	9
222	1
223	0
228	0
229	2
230	16
231	3
232	1
233	2
234	1
236	17
237	3
238	15
239	2
240	5
241	0
242	0
243	0
244	0
245	0
247	0
249	0
250	0
251	1
252	0
253	1
254	0
255	0
256	0
264	9
265	9
266	5
267	3
268	0
269	0
278	0
280	0
281	0
285	0
287	0
300	1
301	0
302	1
303	0
304	1
336	15
337	3
338	13
339	2
340	4
341	0
342	0
