Mass Spectrum: 1,4-Benzodioxan-2,3-diyl diacetate
Formula: C12H12O6
CAS: 300381-38-8
Molecular weight: 252
m/z	intensity
37	7
38	23
39	42
40	5
43	999
44	26
45	9
50	51
51	48
52	71
53	25
54	6
55	5
60	4
61	4
62	10
63	62
64	17
65	33
66	6
67	2
74	7
75	4
76	5
77	15
78	9
79	4
80	11
81	24
82	2
92	4
93	3
94	2
95	1
102	1
105	2
109	15
110	95
111	7
121	30
122	2
134	1
150	5
151	3
152	9
153	1
193	4
252	4
