Mass Spectrum: 2-(4,4-Dimethyl-2,6-dioxocyclohexyl)-4-p-toluenesulfonyliminonaphthalen-1-one
Formula: C25H23NO5S
CAS: 300360-31-0
Molecular weight: 449
m/z	intensity
36	14
37	18
39	573
41	194
42	286
43	176
44	183
46	36
48	48
50	181
52	203
53	143
55	138
56	117
57	38
58	19
59	13
61	12
62	67
63	196
65	646
66	34
67	35
69	43
70	46
71	29
74	37
76	224
77	262
78	94
79	69
80	19
81	13
82	24
83	116
84	15
85	9
86	15
87	22
89	140
91	999
92	234
93	27
95	9
96	13
99	11
100	9
102	244
103	67
104	47
105	124
107	68
108	29
110	9
111	16
112	10
113	27
114	17
115	28
116	10
121	9
123	9
124	9
125	28
126	74
127	97
128	40
130	398
131	31
132	13
137	9
138	17
139	83
140	47
141	13
151	16
152	50
153	121
154	44
155	58
156	52
164	16
165	21
166	13
167	17
178	25
179	14
180	51
181	60
182	54
183	17
194	10
195	9
196	20
204	9
208	10
209	41
210	30
211	18
224	9
233	9
237	140
238	29
252	16
278	23
293	64
294	639
295	137
296	28
