Mass Spectrum: 2,2-Dimethyl-N-[2,2,2-trichloro-1-(2,6-dichloro-phenylamino)-ethyl]-propionamide
Formula: C13H15Cl5N2O
CAS: 300382-22-3
Molecular weight: 390
m/z	intensity
33	1
35	8
36	34
38	22
39	42
40	20
41	209
42	28
43	10
44	15
45	2
46	1
47	3
48	2
49	5
50	4
51	6
52	6
53	4
54	3
55	20
57	999
58	48
59	3
60	3
61	3
62	10
63	22
64	11
65	4
66	2
67	2
68	3
69	13
70	7
71	5
72	4
73	15
74	11
75	20
76	6
77	2
78	2
79	0
81	2
82	9
83	25
84	17
85	129
86	31
87	6
88	3
89	6
90	26
91	5
92	2
93	1
94	1
95	3
96	2
97	7
98	6
99	12
100	8
101	7
102	59
103	4
104	1
105	0
106	0
107	3
108	2
109	17
110	11
111	25
112	7
113	11
114	5
115	3
116	1
117	6
118	3
119	6
120	1
121	2
122	1
123	5
124	12
125	15
126	12
127	14
128	5
129	6
130	1
131	1
132	2
133	20
134	3
135	14
136	10
137	5
138	6
139	2
140	1
141	0
142	1
143	0
144	2
145	13
146	11
147	9
148	11
149	6
150	6
151	2
152	4
153	26
154	5
155	9
156	2
157	3
158	2
159	7
160	31
161	280
162	43
163	168
164	18
165	30
166	5
167	1
168	1
169	0
170	1
171	5
172	41
173	7
174	26
175	4
176	4
177	1
178	0
179	0
180	0
181	3
182	1
183	2
184	5
185	30
186	7
187	22
189	123
190	50
191	70
192	29
193	13
194	6
195	4
196	1
197	3
198	1
199	4
200	6
201	5
202	5
203	2
204	1
205	0
206	0
208	5
209	2
210	18
211	3
212	6
213	1
215	8
216	1
217	5
218	8
219	7
220	9
221	6
222	4
223	2
224	1
225	0
226	0
227	0
228	0
229	0
230	1
231	0
232	0
233	0
235	10
236	1
237	8
238	1
239	3
240	0
241	0
242	0
244	0
245	0
246	0
247	0
249	0
253	1
254	2
255	10
256	4
257	11
258	3
259	5
260	1
261	1
262	0
263	0
264	0
265	0
267	0
269	1
270	3
271	7
273	379
274	58
275	222
276	32
277	35
278	5
279	0
284	0
285	0
286	1
287	1
288	0
289	1
290	9
291	2
292	15
293	2
294	10
295	0
296	3
297	0
298	0
299	0
305	0
307	1
308	0
309	1
311	0
319	14
321	14
322	2
323	4
324	0
325	0
330	0
354	0
355	0
356	1
357	1
359	1
390	0
392	0
394	0
