Mass Spectrum: Acrylophenone, 3,3'-thiobis(4'-methyl)-, (E,E)
Formula: C20H18O2S
CAS: 30031-51-7
Molecular weight: 322
m/z	intensity
33	3
34	1
36	0
38	5
39	56
40	13
41	19
42	1
43	3
44	7
45	20
46	0
47	1
50	10
51	20
52	4
53	12
55	6
57	5
58	9
59	3
60	1
61	1
62	8
63	32
65	193
66	9
67	1
69	16
70	1
71	2
72	0
74	3
75	4
76	3
77	10
78	4
79	6
80	1
81	0
82	1
83	2
85	48
86	6
87	8
89	47
91	487
92	36
93	3
94	0
95	0
96	0
97	1
99	0
100	0
101	1
102	3
103	4
104	2
105	14
106	1
107	0
108	1
109	0
111	5
112	1
113	1
115	44
116	19
117	45
119	999
120	81
121	9
122	4
123	8
124	2
125	4
126	2
127	5
128	12
129	11
130	3
131	11
132	2
134	34
135	11
136	3
137	1
139	2
141	8
142	20
143	5
144	8
145	27
146	6
147	17
148	6
149	5
150	1
151	0
152	0
153	0
155	0
158	23
159	7
160	14
161	26
162	6
163	19
164	2
165	1
166	0
169	1
171	36
172	4
173	3
175	97
177	258
178	30
179	12
180	1
181	0
182	0
183	0
184	3
186	203
187	47
188	13
189	3
190	0
191	0
192	0
193	0
197	0
198	0
199	1
201	7
203	332
204	43
205	17
206	2
207	0
208	0
209	2
210	0
215	0
217	0
218	0
219	0
221	1
231	0
232	0
234	0
235	1
236	0
237	0
243	0
245	0
246	0
247	0
248	3
249	1
250	0
251	0
259	0
260	1
261	15
262	3
263	0
265	0
267	0
275	0
276	1
277	2
278	0
279	0
289	7
290	1
291	0
293	2
294	0
307	0
322	7
323	1
324	0
