Mass Spectrum: 5-(4-Fluorophenyl)-3-(5-methyl-2-furyl)-1-phenyl-2-pyrazoline
Formula: C20H17FN2O
CAS: 300385-14-2
Molecular weight: 320
m/z	intensity
37	9
38	33
39	198
40	63
41	120
43	731
44	27
45	6
50	68
51	317
52	80
53	98
55	63
57	36
62	14
63	100
64	309
65	141
66	27
67	13
69	22
70	14
74	16
75	78
77	409
78	38
79	65
80	15
81	48
83	24
89	20
91	999
92	88
93	28
94	27
95	108
96	11
101	30
102	7
104	30
105	13
107	118
108	100
109	23
115	11
116	8
117	14
118	9
120	21
121	28
122	28
123	7
125	6
127	8
128	12
129	8
130	6
133	52
134	9
135	7
142	7
144	7
145	7
146	11
152	7
153	9
154	14
156	35
157	9
159	9
160	71
161	9
165	8
170	29
171	23
172	9
173	8
174	18
183	22
184	20
185	45
186	148
187	19
198	16
199	20
200	49
201	10
210	9
211	23
212	65
213	17
217	14
225	7
228	261
229	39
237	9
238	13
239	15
275	10
276	12
277	161
278	43
303	13
305	7
317	18
318	32
319	38
320	378
321	86
322	9
