Mass Spectrum: N'-(3,5-Dichloro-2-methoxybenzylidene)-3,5-dinitrobenzhydrazide
Formula: C15H10Cl2N4O6
CAS: 300406-72-8
Molecular weight: 412
m/z	intensity
33	4
35	38
36	15
38	60
39	50
40	9
41	37
43	51
44	15
45	20
46	12
47	2
49	10
50	84
51	34
53	70
55	31
57	29
59	4
60	7
61	28
62	68
63	164
64	22
65	18
67	11
69	21
70	6
71	13
73	58
74	223
75	999
76	83
77	21
78	9
79	11
80	4
81	6
83	33
85	30
86	19
87	28
88	32
89	98
90	28
91	44
92	9
93	5
94	3
95	7
97	63
99	57
100	13
101	16
103	175
104	23
105	7
107	25
109	86
110	42
111	89
112	30
113	21
114	6
115	4
116	4
117	8
118	13
119	23
120	20
121	17
123	139
124	47
125	107
126	27
127	33
128	5
129	3
131	4
132	15
133	23
134	12
135	19
136	10
137	17
138	28
139	70
140	14
141	20
142	3
143	2
144	4
145	32
146	44
147	29
149	372
150	41
151	15
152	25
153	18
154	15
155	16
156	7
157	8
158	26
159	195
160	42
161	121
162	18
163	34
165	53
166	22
167	72
168	11
169	22
170	5
171	31
173	38
174	61
175	57
176	18
177	25
179	38
180	7
181	30
182	80
183	11
184	30
186	114
187	259
188	82
189	159
190	27
191	30
192	8
193	9
195	291
196	24
197	8
198	8
201	822
202	256
203	468
204	144
205	81
206	22
207	3
211	4
212	3
216	2
217	2
218	2
219	2
226	5
227	2
237	3
242	2
247	2
380	15
382	13
383	2
384	2
411	7
412	38
414	32
415	8
