Mass Spectrum: 5-[1-Methyl-1-(2-nitrobenzylideneamino)ethyl]-1-(2,6-xylyl)-1H-tetrazole
Formula: C19H20N6O2
CAS: 300404-92-6
Molecular weight: 364
m/z	intensity
34	5
36	4
37	33
38	78
39	852
41	920
42	312
43	138
44	77
46	16
48	4
50	238
51	607
52	263
53	163
54	38
55	36
56	126
57	138
58	133
59	47
61	16
62	87
63	316
64	159
65	357
66	75
67	38
68	51
69	17
70	9
71	5
72	15
74	35
75	104
76	386
77	999
78	380
79	441
80	35
81	7
82	6
84	83
86	13
87	23
89	199
90	163
91	614
92	155
93	100
94	11
95	4
96	2
98	5
102	314
103	614
104	728
105	681
106	88
107	18
108	5
109	2
110	2
112	2
113	4
114	12
115	83
116	150
117	211
118	344
119	136
120	130
121	30
122	7
124	2
125	2
127	23
128	77
129	53
130	372
131	155
132	509
133	126
134	468
135	81
136	10
137	2
139	2
140	4
141	11
144	622
145	333
146	216
147	48
148	19
149	30
150	8
151	6
152	3
153	2
154	4
155	7
156	9
157	10
158	28
159	30
160	88
161	31
162	5
163	1
165	5
166	2
167	1
168	3
169	5
170	9
171	49
173	270
174	40
175	13
176	3
177	1
178	2
179	2
180	2
182	2
183	4
185	76
186	53
187	234
188	127
189	33
191	994
192	107
193	11
194	3
198	4
199	1
200	6
201	5
202	2
203	1
205	2
206	5
207	3
208	2
209	1
213	2
214	5
215	30
216	68
217	10
218	3
219	2
220	1
221	1
228	1
229	3
231	173
232	28
233	7
234	4
261	1
262	2
274	1
319	2
321	2
