Mass Spectrum: Benzoic acid, 2-fluoro-, 4-biphenylyl ester
Formula: C19H13FO2
CAS: 300405-86-1
Molecular weight: 292
m/z	intensity
39	2
50	2
51	3
63	5
65	2
69	2
74	2
75	19
76	3
89	5
91	1
94	5
95	106
96	9
102	3
113	2
114	2
115	38
116	4
122	2
123	999
124	70
125	3
139	15
140	5
141	63
142	7
152	4
169	11
170	16
171	2
292	216
293	46
294	5
