Mass Spectrum: Heptanamide, tridecafluoro-N-(4-hydroxybutyl)-
Formula: C11H10F13NO2
CAS: 300403-61-6
Molecular weight: 435
m/z	intensity
34	14
36	2
39	177
40	97
41	503
42	518
43	766
44	370
45	715
46	8
47	2
50	21
51	130
52	14
53	54
54	238
55	999
56	269
57	231
58	164
59	24
60	44
61	4
63	5
64	28
65	43
66	0
67	47
68	47
69	916
70	386
71	301
72	94
73	165
74	17
75	2
76	25
77	42
78	18
79	18
80	6
81	12
82	20
83	37
84	145
85	47
86	59
87	3
88	86
89	3
90	3
91	2
92	18
93	26
94	0
95	48
96	9
97	29
98	122
99	6
100	83
101	3
102	21
103	1
104	7
105	13
106	0
107	9
108	74
109	29
110	4
111	4
112	6
113	1
114	0
115	1
116	68
117	6
119	212
120	4
121	0
122	10
123	13
124	7
126	1
128	0
129	2
131	667
132	19
133	7
134	0
135	9
138	8
139	3
140	1
141	1
142	3
143	2
145	1
146	0
148	19
149	261
150	77
151	2
156	0
159	0
162	1
165	2
169	146
172	2
181	86
183	0
184	0
185	0
193	0
197	5
205	4
223	0
226	1
231	29
242	0
245	0
272	0
273	0
275	0
276	1
278	0
281	0
304	0
313	0
316	3
319	2
324	0
328	1
344	0
345	4
348	26
356	1
364	161
365	3
370	1
376	241
377	75
378	12
388	2
389	150
390	46
391	0
398	18
402	5
404	13
405	1
417	33
418	0
434	2
435	82
436	1
