Mass Spectrum: 11-Chloro-2,2,3,3,4,4,5,5,6,6,7,7,8,8,9,9,10,10,11,11-eicosafluoroundecanoic acid methyl ester
Formula: C12H3ClF20O2
CAS: 300403-21-8
Molecular weight: 594
m/z	intensity
49	5
50	37
51	89
52	4
59	999
60	24
61	2
69	734
70	75
81	69
83	7
85	650
86	9
87	156
93	68
94	2
100	239
101	26
102	3
103	2
109	35
119	294
131	733
132	21
135	66
137	23
139	2
143	26
147	44
162	32
163	7
169	172
170	7
181	148
182	5
185	26
186	2
205	3
209	4
212	5
219	33
231	75
232	3
235	4
243	7
245	2
252	3
254	6
281	25
293	1
319	1
331	6
359	2
381	3
431	2
447	1
481	6
497	3
531	18
559	32
560	4
575	6
577	2
