Mass Spectrum: N-(4-Chloro-2-nitro-phenyl)-3-methyl-benzamide
Formula: C14H11ClN2O3
CAS: 300402-06-6
Molecular weight: 290
m/z	intensity
33	5
34	9
35	1
36	4
37	9
38	21
39	79
40	93
41	54
42	13
43	40
44	103
45	11
46	3
47	3
48	3
49	11
50	26
51	48
52	29
53	12
54	6
55	27
56	12
57	35
58	3
59	3
60	7
61	10
62	27
63	95
64	35
65	200
66	15
67	9
68	5
69	19
70	9
71	20
72	6
73	20
74	13
75	24
76	27
77	29
78	45
79	11
80	5
81	10
82	7
83	14
84	7
85	13
86	5
87	10
88	10
89	55
90	74
91	499
92	40
93	6
94	3
95	10
96	7
97	15
98	13
99	22
100	10
101	9
102	11
103	28
104	12
105	16
106	4
107	4
108	4
109	8
110	5
111	11
112	6
113	9
114	13
115	6
116	14
117	10
119	999
120	94
121	22
122	11
123	5
124	23
125	11
126	27
127	8
128	8
129	5
130	0
131	3
132	2
133	4
135	5
136	6
137	3
138	7
139	4
140	5
141	6
142	8
143	5
144	3
145	3
146	3
147	3
149	47
150	6
151	6
152	6
153	4
154	10
155	4
156	5
157	2
158	0
160	1
161	3
162	1
163	4
164	6
165	6
166	2
167	3
168	1
169	2
170	2
171	3
172	20
173	4
174	8
175	2
176	1
177	3
178	4
179	4
180	5
181	3
182	1
183	1
185	2
188	0
189	0
190	1
191	3
192	4
193	1
194	1
195	1
197	2
200	0
201	2
202	1
203	1
205	10
206	13
207	14
208	5
210	1
211	1
212	1
214	1
215	4
216	2
217	2
221	0
222	2
223	3
224	2
225	0
226	1
227	3
228	2
229	1
230	1
231	0
232	0
239	2
240	6
241	40
242	129
243	36
244	58
245	12
246	6
247	1
251	0
253	0
256	0
258	6
260	26
261	6
262	9
263	1
267	1
271	0
272	0
274	2
278	1
281	2
283	0
290	61
291	11
292	20
293	3
