Mass Spectrum: Acetamide, 2-(cyclohexylamino)-N-(5,6,7,8-tetrahydro-2-methyl-4-oxo[1]benzothieno[2,3-d]pyrimidin-3(4H)-yl)-
Formula: C19H26N4O2S
CAS: 300406-13-7
Molecular weight: 374
m/z	intensity
39	328
41	999
42	291
43	142
44	70
45	66
46	8
47	10
51	113
52	69
53	121
54	418
55	669
56	264
57	80
58	57
59	28
60	6
61	6
63	87
64	59
65	71
67	257
68	257
69	155
70	98
71	32
73	31
74	8
76	75
77	63
78	60
79	72
80	53
82	284
83	150
84	42
85	24
88	22
89	28
90	69
91	74
92	24
93	41
95	108
96	55
98	170
99	9
102	17
103	25
104	15
105	11
106	13
108	70
110	113
112	685
113	49
116	65
117	23
118	12
119	10
121	75
123	75
124	11
132	11
134	51
135	53
136	26
137	14
138	12
139	18
144	17
146	12
147	16
149	43
150	58
151	39
155	68
156	6
161	18
162	15
164	47
165	29
166	12
174	12
175	7
176	34
177	32
178	32
179	26
180	9
192	244
193	28
194	11
204	9
205	51
206	16
207	16
217	30
219	201
220	841
221	201
222	54
223	9
234	17
235	90
236	49
237	8
262	29
374	16
