Mass Spectrum: Methyl 4-[3-(2-cyanophenyl)-2-triazeno]benzoate
Formula: C15H12N4O2
CAS: 300403-83-2
Molecular weight: 280
m/z	intensity
33	37
34	9
36	6
38	149
39	174
41	116
43	48
44	115
45	6
46	2
48	2
49	142
50	193
52	78
53	38
55	25
56	14
57	30
59	59
61	37
63	111
64	140
65	117
67	11
68	6
69	19
71	13
74	228
76	261
77	264
79	35
81	12
83	14
85	5
86	5
87	7
90	107
91	84
92	85
93	39
95	14
96	10
97	5
98	6
99	5
102	999
104	201
105	24
106	11
107	16
108	4
109	4
111	9
112	5
113	6
115	3
117	37
118	102
120	252
122	60
123	4
124	3
125	2
127	4
130	421
133	4
135	740
138	4
139	4
140	7
141	5
143	1
145	2
146	2
147	2
148	1
149	10
150	14
151	13
152	9
153	2
154	2
155	2
157	3
160	1
161	3
163	247
165	13
166	14
167	4
168	1
171	4
178	2
180	2
181	2
185	1
191	20
193	28
195	3
205	1
206	1
219	3
220	4
221	33
222	5
223	2
225	3
226	2
249	16
251	3
252	10
253	3
254	2
279	14
280	11
281	2
