Mass Spectrum: 2-(2H-Benzotriazol-2-yl)-p-tolyl 2-furoate
Formula: C18H13N3O3
CAS: 300590-26-5
Molecular weight: 319
m/z	intensity
35	4
37	49
38	87
39	275
40	29
41	24
43	10
44	22
50	32
51	43
52	24
53	15
54	4
55	3
61	4
62	9
63	24
64	43
65	107
66	24
67	22
74	3
75	6
76	14
77	20
78	9
89	6
90	8
91	14
92	33
95	999
96	36
97	5
105	3
115	8
128	3
139	3
140	3
153	4
166	6
167	11
168	3
195	4
196	5
224	4
317	4
319	58
320	8
