Mass Spectrum: N-Benzoyl-L-histidine
Formula: C13H13N3O3
CAS: 3005-62-7
Molecular weight: 259
m/z	intensity
41	47
43	42
44	78
50	55
51	155
52	38
54	101
55	57
56	26
66	15
68	30
69	43
76	50
77	666
78	59
79	12
81	406
82	395
83	83
84	142
85	12
91	56
93	69
94	338
95	43
104	29
105	999
106	91
108	25
109	47
110	526
111	51
120	73
121	62
122	186
138	242
139	43
145	47
146	13
169	14
187	26
188	9
196	50
197	12
213	75
214	113
215	281
216	26
241	42
242	15
258	24
259	309
260	56
