Mass Spectrum: 1-(3-Phenyl-prop-2-ynyl)-4-pyridin-2-yl-piperazine
Formula: C18H19N3
CAS: 300570-21-2
Molecular weight: 277
m/z	intensity
50	26
51	56
52	35
56	66
57	13
62	22
63	65
64	20
65	27
66	6
78	160
79	232
80	51
81	33
83	5
89	88
90	13
94	29
95	47
106	30
107	568
108	5
112	23
113	43
114	999
116	492
117	53
118	51
119	164
120	53
121	173
122	16
128	41
129	14
131	46
132	20
133	138
134	30
135	50
145	35
146	16
147	42
148	9
158	101
159	88
160	46
161	65
162	65
163	20
168	17
169	28
170	228
171	76
173	21
181	17
182	55
183	142
184	33
262	17
263	3
274	36
275	54
276	30
277	365
278	73
279	8
