Mass Spectrum: 4-[N-Methylpiperazin-1-yl]-5-amino veratrole
Formula: C13H21N3O2
CAS: 30058-30-1
Molecular weight: 251
m/z	intensity
41	89
42	623
43	999
44	441
45	63
46	8
49	1
50	8
51	21
52	56
53	45
54	60
55	42
56	173
57	80
58	435
59	39
60	66
61	12
62	2
63	14
64	13
65	39
66	34
67	35
68	67
69	22
70	522
71	401
72	57
73	7
75	4
76	6
77	21
78	27
79	32
80	47
81	21
82	33
83	20
84	44
85	44
86	7
89	1
90	10
91	11
92	22
93	25
94	101
95	24
96	8
97	25
98	21
99	39
100	63
101	10
104	7
105	13
106	17
107	20
108	30
109	62
110	30
111	7
116	8
117	12
118	25
119	19
120	15
121	15
122	53
123	26
124	12
125	19
126	3
128	11
131	3
132	8
133	13
134	21
135	44
136	32
137	48
138	12
139	17
145	4
146	7
147	30
148	19
149	42
150	18
151	26
152	14
153	8
154	41
161	10
162	15
163	54
164	27
165	108
166	88
167	12
168	5
175	13
176	24
177	44
178	77
179	318
180	71
181	152
182	15
190	11
191	24
192	25
193	266
194	33
195	7
205	10
206	10
207	166
208	28
209	5
221	21
222	6
236	136
237	21
251	672
252	146
253	17
