Mass Spectrum: Leucine, N-benzoyl-, methyl ester, l-
Formula: C14H19NO3
CAS: 3005-60-5
Molecular weight: 249
m/z	intensity
33	14
34	1
36	1
37	2
38	6
39	70
40	25
41	138
42	34
43	106
44	18
45	7
48	0
49	1
50	40
51	153
52	15
53	10
54	6
55	20
56	8
57	11
58	1
59	43
60	3
61	0
62	1
63	2
64	1
65	3
66	1
67	5
68	6
69	6
70	11
71	1
73	3
74	7
75	9
76	26
77	434
78	36
79	5
80	1
81	1
82	1
83	0
84	4
85	1
86	0
87	1
88	4
89	0
90	0
91	4
92	1
93	0
94	0
95	1
96	3
97	1
99	0
102	2
103	3
104	12
105	999
106	83
107	5
108	0
109	0
112	0
113	1
114	0
115	0
116	0
117	1
118	1
119	1
120	0
121	8
122	20
123	2
127	0
128	7
129	3
130	1
131	0
132	2
133	12
134	9
135	2
144	5
145	0
146	5
147	4
148	4
149	0
160	0
161	48
162	6
163	2
174	9
175	3
176	1
188	0
189	1
190	128
191	19
192	3
193	118
194	12
195	1
202	0
206	2
207	0
217	0
218	2
219	0
234	1
249	0
