Mass Spectrum: Carbamothioic acid, diethyl-, S-(2,5-dihydroxy-4-nitrophenyl) ester
Formula: C11H14N2O5S
CAS: 300576-99-2
Molecular weight: 286
m/z	intensity
33	0
35	1
36	4
37	11
38	23
39	63
40	34
41	65
42	145
44	408
45	37
46	10
48	15
49	10
50	26
51	41
52	23
53	110
54	30
55	28
56	97
58	427
59	18
60	4
61	11
62	8
63	23
64	12
65	43
66	5
67	9
68	11
69	43
70	38
72	603
73	94
74	12
75	2
76	6
77	20
78	12
79	16
80	10
81	16
82	23
83	35
84	19
85	55
86	5
87	3
89	8
90	4
91	34
92	30
93	25
94	13
95	5
96	6
97	4
98	12
100	999
101	31
102	2
104	6
106	5
107	8
108	7
109	0
110	10
111	26
112	11
113	1
114	0
117	3
118	2
120	1
121	8
122	0
124	4
125	6
127	5
129	1
133	6
137	2
138	0
139	14
140	3
141	3
144	1
152	1
153	1
155	5
156	7
159	1
162	0
166	1
168	5
169	0
171	1
179	1
185	8
186	14
187	4
198	1
213	22
241	0
285	1
286	12
