Mass Spectrum: Urea, N,N'-bis(trycyclo[5.2.1.0(2,6)]decanyl-2')-
Formula: C21H32N2O
CAS: 300544-08-5
Molecular weight: 328
m/z	intensity
27	27
29	30
30	32
38	4
39	57
40	19
41	214
42	38
43	27
44	8
51	11
52	13
53	65
54	56
55	87
56	53
57	18
61	37
63	5
65	59
66	54
67	480
68	81
69	72
70	16
77	96
78	29
79	152
80	63
81	124
82	415
83	999
84	149
85	7
91	144
92	37
93	110
94	115
95	41
96	79
97	13
103	10
104	10
105	55
106	51
107	42
108	78
109	116
110	52
111	8
119	19
120	21
121	18
122	207
123	295
124	32
131	8
132	7
133	23
134	98
135	82
136	27
137	6
148	8
149	20
150	194
151	348
152	63
153	8
163	3
178	9
195	203
196	27
243	6
259	10
260	97
261	19
328	63
329	18
