Mass Spectrum: 1-Methoxybenzene,-4-(4-iodobenzylidenamino)
Formula: C14H12INO
CAS: 300686-57-1
Molecular weight: 337
m/z	intensity
39	35
41	66
42	35
43	266
44	297
45	999
55	35
57	102
58	88
59	143
64	64
71	64
72	57
73	210
77	42
87	194
88	81
89	263
133	49
166	37
167	112
171	49
322	256
337	419
