Mass Spectrum: (1-Benzenesulfonylamino-2,2-dichloro-vinyl)-phosphonic acid dimethyl ester
Formula: C10H12Cl2NO5PS
CAS: 300669-82-3
Molecular weight: 359
m/z	intensity
33	5
34	2
35	10
36	50
38	29
39	33
40	24
41	35
42	24
43	32
44	29
45	32
47	79
48	19
49	17
50	53
51	218
52	19
53	11
54	7
55	20
56	11
57	19
59	14
60	29
61	10
62	14
63	62
64	24
65	33
66	9
67	6
68	4
69	19
70	8
71	12
73	29
74	26
75	21
77	878
78	116
79	203
80	54
81	14
82	32
83	19
84	23
85	12
86	7
87	9
88	10
89	18
90	20
91	45
93	999
94	38
95	58
96	16
97	63
98	5
99	12
100	3
101	6
102	2
103	4
104	21
105	9
106	8
107	13
108	39
109	361
110	137
111	41
112	9
113	16
114	4
115	9
116	6
117	6
118	15
119	12
120	25
121	9
122	18
123	70
124	45
125	538
126	66
127	67
128	10
129	5
130	4
131	8
132	3
133	5
134	4
136	218
137	11
138	4
139	10
141	282
142	129
143	14
145	8
146	2
147	3
148	4
149	18
150	23
151	18
152	8
153	7
154	3
155	8
156	3
157	6
158	2
159	3
160	2
161	3
162	2
163	4
164	3
165	4
166	2
167	2
168	1
169	6
170	2
171	4
172	2
173	15
174	2
175	2
176	1
177	2
178	0
179	1
180	1
182	7
183	8
184	12
185	10
186	7
187	5
188	3
189	2
190	6
191	9
192	4
193	6
194	1
195	1
196	1
197	1
198	2
199	2
200	2
201	7
202	10
203	3
204	1
205	2
206	1
207	2
208	0
209	1
210	0
211	0
212	2
213	1
214	0
215	1
216	2
218	71
219	12
220	42
221	4
222	8
223	2
224	2
225	1
226	5
227	2
228	2
229	3
232	111
234	76
235	8
236	11
237	1
241	1
242	1
244	0
245	0
247	0
249	1
251	20
252	2
253	1
254	0
255	0
256	0
259	4
260	29
261	12
262	7
263	4
264	1
267	2
268	2
272	1
274	1
279	0
281	2
282	1
283	0
288	0
290	0
294	3
295	2
296	2
297	2
324	6
325	4
326	2
327	2
328	2
329	0
330	2
332	0
338	0
341	0
342	0
344	0
345	7
346	2
355	1
356	1
357	2
359	90
360	15
361	64
362	8
363	12
364	2
365	0
