Mass Spectrum: 4-(4'-Nitro-4-biphenylylsulfonyl)benzoic acid
Formula: C19H13NO6S
CAS: 300670-63-7
Molecular weight: 383
m/z	intensity
39	432
40	25
41	27
43	36
45	198
46	26
48	11
50	532
51	326
52	64
53	105
54	8
55	19
57	8
58	4
59	3
60	4
63	357
65	999
66	47
67	16
69	36
70	16
71	9
74	306
75	420
76	363
77	151
78	43
79	31
81	100
82	10
83	5
85	47
86	38
87	79
88	52
89	84
91	205
92	42
93	38
95	29
96	15
97	34
98	35
99	50
100	33
101	58
102	129
103	71
104	107
105	15
107	26
109	48
110	9
111	21
113	129
114	53
115	33
116	7
117	3
118	3
119	6
121	222
122	21
123	17
126	324
127	66
128	141
129	14
130	2
132	1
133	1
135	5
137	23
139	607
140	157
141	39
142	8
143	2
144	1
145	3
146	2
147	1
150	365
151	706
152	757
153	105
154	8
156	131
157	16
158	3
159	2
160	2
162	2
163	4
164	7
165	7
166	3
169	262
170	20
171	27
172	10
173	2
174	3
176	6
177	2
179	1
181	22
182	9
183	19
184	19
185	17
186	11
188	28
189	8
190	3
191	1
197	2
198	18
199	9
200	35
201	8
202	9
203	2
208	1
214	208
215	36
216	12
217	3
218	1
224	4
226	24
227	13
228	10
229	3
230	2
231	2
232	1
233	1
239	1
240	1
241	1
243	1
244	4
246	94
247	11
248	5
249	1
258	1
259	3
260	1
261	4
262	1
289	2
353	9
354	2
367	1
383	43
384	9
385	2
