Mass Spectrum: 2-Acetylamino-5-iodo-4-p-tolyl-thiophene-3-carboxylic acid ethyl ester
Formula: C16H16INO3S
CAS: 300696-51-9
Molecular weight: 429
m/z	intensity
38	0
39	19
40	2
41	9
42	27
43	999
44	40
45	34
46	1
47	0
50	1
51	9
52	5
53	5
54	0
55	1
56	0
57	1
58	0
59	2
60	2
61	5
62	2
63	10
64	3
65	20
66	1
67	0
68	3
69	22
70	1
71	2
72	1
73	0
74	1
75	3
76	3
77	12
78	3
79	1
80	0
81	1
82	1
83	0
84	0
85	0
86	0
87	1
88	3
89	9
90	3
91	19
92	3
93	4
94	7
95	2
96	2
97	0
98	0
99	0
100	1
101	2
102	3
103	6
104	0
105	1
106	0
107	0
108	0
109	0
110	0
111	0
112	0
113	7
114	14
115	47
116	17
117	4
118	3
119	8
120	1
121	3
122	0
123	2
124	0
125	0
126	4
127	12
128	9
129	3
130	4
131	1
132	2
133	1
134	6
135	39
136	3
137	2
138	0
139	2
140	33
141	32
142	142
143	73
144	13
145	8
146	6
147	29
148	9
149	4
150	0
151	0
152	1
153	5
154	7
155	4
156	2
157	2
158	23
159	108
160	21
161	11
162	18
163	5
164	1
165	1
166	0
167	0
168	1
169	2
170	31
171	8
172	8
173	5
174	7
175	9
176	5
177	1
178	0
179	0
180	0
181	0
182	0
183	1
184	7
185	17
186	162
187	55
188	21
189	5
190	0
191	0
195	0
196	0
197	4
198	3
199	2
200	3
201	0
202	8
203	3
204	1
205	1
210	0
212	7
213	19
214	84
215	22
216	7
217	1
218	0
219	0
226	0
227	0
228	1
229	0
230	5
231	15
232	5
233	2
234	0
240	0
241	0
242	0
244	0
245	0
246	0
254	0
256	1
257	0
258	0
259	3
260	5
261	1
262	0
285	0
298	0
301	0
302	0
303	0
311	0
312	0
313	1
326	0
327	0
339	0
340	8
341	174
342	30
343	11
344	1
345	0
354	0
355	0
356	0
357	1
358	0
359	0
368	1
369	0
373	3
374	0
382	1
383	34
384	22
385	6
386	9
387	191
388	32
389	10
390	1
397	0
398	0
400	0
401	0
428	12
429	373
430	78
431	25
432	0
