Mass Spectrum: Methyl-2,4-di-O-methyl.alpha.l-rhamnopyranoside
Formula: C9H18O5
CAS: 3006-40-4
Molecular weight: 206
m/z	intensity
45	8
59	43
61	16
71	15
72	349
73	209
74	999
85	31
87	83
88	321
99	39
101	279
102	401
105	21
114	16
115	11
117	5
119	5
129	7
130	10
131	15
134	11
143	15
161	14
162	36
175	43
