Mass Spectrum: N'-(1-(4-Biphenyl)ethylidene)phenylacethydrazide
Formula: C22H20N2O
CAS: 300668-34-2
Molecular weight: 328
m/z	intensity
36	4
37	2
38	12
39	94
40	25
41	35
42	60
43	37
44	12
45	13
50	27
51	74
52	22
53	9
54	1
56	26
57	23
58	2
59	1
62	14
63	58
64	21
65	183
66	12
67	1
68	0
75	2
76	35
77	72
78	26
79	6
80	0
88	0
89	52
90	2
91	999
92	80
93	5
94	0
101	9
102	24
103	12
104	13
105	11
106	29
107	4
108	1
111	1
112	1
113	6
114	6
115	57
116	12
117	9
118	24
119	7
120	4
121	0
125	4
126	16
127	26
128	17
129	3
130	1
131	3
132	7
133	19
134	6
135	2
136	1
137	1
138	2
139	19
140	13
141	66
142	11
143	1
148	0
149	6
150	19
151	63
152	165
153	93
154	59
155	8
156	0
163	4
164	8
165	58
166	26
167	107
168	59
169	49
170	7
171	1
175	5
176	15
177	19
178	97
179	80
180	58
181	18
182	5
183	0
192	9
193	48
194	63
195	77
196	14
197	1
205	0
209	448
210	334
211	48
212	3
236	2
237	31
238	4
239	0
284	2
313	5
314	1
328	85
329	18
330	1
