Mass Spectrum: Isopropyl 4-(4-dimethylaminophenyl)-3,4-dihydro-1,6-dimethyl-2(1H)-oxo-5-pyrimidinecarboxylate
Formula: C18H25N3O3
CAS: 300690-88-4
Molecular weight: 331
m/z	intensity
39	235
41	569
43	999
44	46
45	11
50	28
51	32
52	21
54	60
56	783
57	22
58	24
63	35
66	125
67	45
68	15
69	14
70	9
72	7
74	15
75	21
77	136
78	30
79	39
80	15
82	37
83	4
84	4
86	9
89	24
91	70
92	21
93	16
94	27
95	12
96	9
98	10
101	32
102	18
104	77
105	54
106	9
107	6
108	4
115	47
116	19
118	63
119	56
120	93
121	57
122	24
123	15
124	16
125	5
128	61
129	24
130	15
131	19
132	9
133	4
134	9
135	5
136	6
140	5
141	6
142	12
144	82
145	27
146	11
147	20
148	9
151	52
152	5
154	5
155	8
156	14
157	10
158	22
159	13
160	8
161	3
167	5
169	140
170	21
171	17
172	33
173	21
175	23
183	4
185	17
186	11
187	10
188	6
199	8
200	7
201	12
211	8
212	4
213	9
214	4
215	4
228	12
242	12
244	59
245	11
270	5
272	4
288	79
289	9
331	11
