Mass Spectrum: N-(4-Acetylamino-3-nitro-phenyl)-2,2,2-trichloro-acetamide
Formula: C10H8Cl3N3O4
CAS: 300670-82-0
Molecular weight: 339
m/z	intensity
35	6
36	11
37	2
38	12
39	6
42	21
43	999
44	34
45	2
46	0
47	13
48	2
49	1
50	8
51	35
52	97
53	40
54	14
55	4
61	0
62	15
63	18
64	17
65	10
66	14
67	11
68	3
76	4
78	35
79	60
80	9
81	0
82	21
83	2
84	13
85	1
86	1
88	1
89	4
90	8
91	9
92	4
93	2
94	3
95	2
96	0
102	0
103	4
104	3
105	41
106	50
107	6
108	1
109	0
110	17
112	12
114	0
116	1
117	40
118	7
119	39
120	3
121	18
123	1
124	3
130	0
131	1
132	10
133	20
134	5
135	2
136	3
137	0
138	0
142	0
143	0
144	0
145	3
146	8
147	5
148	11
150	0
151	7
152	439
153	24
157	0
158	0
159	2
160	3
161	0
162	2
163	5
164	6
165	0
169	0
170	0
171	0
172	1
173	1
174	1
175	5
176	0
177	0
178	0
179	31
180	12
181	17
182	1
185	0
186	0
187	4
188	3
189	2
190	5
191	0
192	3
193	1
194	5
195	0
196	0
198	15
199	1
200	7
201	1
202	0
203	1
204	0
205	0
206	0
207	0
208	0
209	0
214	0
215	2
216	2
217	1
218	1
219	0
221	0
222	7
223	1
226	5
227	2
228	2
229	2
230	0
231	1
232	0
233	13
234	1
235	8
236	0
237	0
244	0
245	0
246	0
247	0
249	0
251	2
252	0
253	1
254	0
255	0
257	1
258	5
259	1
260	3
261	1
262	4
263	3
264	2
265	2
266	0
267	0
268	0
280	0
281	0
282	0
283	0
284	0
285	0
286	0
293	4
294	0
295	3
296	1
297	125
298	18
299	124
300	15
301	42
302	4
303	5
304	0
305	0
307	0
310	0
325	0
332	0
339	30
340	6
341	34
342	5
343	11
344	2
345	1
