Mass Spectrum: 2-[(1-Benzyl-2-pyrrolidinylidene)amino]-3,6-dimethylbenzonitrile
Formula: C20H21N3
CAS: 300691-03-6
Molecular weight: 303
m/z	intensity
35	68
36	244
37	119
39	240
41	334
42	68
43	36
44	13
45	31
50	34
51	137
52	52
53	32
54	30
55	19
56	31
57	5
58	0
63	97
65	437
66	38
68	43
69	6
70	11
71	1
74	4
75	28
77	372
78	74
79	46
80	6
81	4
82	0
83	5
85	30
87	2
88	12
89	101
91	999
92	70
93	3
95	0
99	10
101	50
102	102
103	368
104	162
105	27
106	56
107	1
109	0
113	19
114	19
115	40
116	63
117	84
118	74
119	31
120	33
121	1
122	1
123	1
127	16
128	100
129	60
130	150
131	79
132	39
133	28
134	44
135	4
137	9
140	6
141	27
142	65
143	39
144	42
145	47
146	34
147	2
151	5
152	89
153	3
154	9
155	117
156	94
157	199
158	49
159	56
160	4
166	0
167	5
168	28
169	128
170	115
171	130
172	52
173	40
174	3
180	0
181	7
182	23
183	65
184	43
185	22
186	2
193	1
194	0
195	5
196	10
197	32
198	32
199	93
200	14
204	7
205	1
209	0
210	16
211	14
212	50
213	4
217	0
218	7
219	7
220	0
221	2
226	0
232	0
233	42
234	13
235	4
247	1
258	1
259	4
260	18
261	2
274	56
275	14
277	6
286	0
288	483
289	106
290	7
302	47
303	180
304	35
305	1
