Mass Spectrum: 2-(2-Furyl)-1,3-di-m-tolylimidazolidine
Formula: C21H22N2O
CAS: 300727-91-7
Molecular weight: 318
m/z	intensity
33	163
34	6
36	5
37	5
38	33
39	160
40	64
41	66
42	24
43	10
44	16
45	2
48	0
49	0
50	12
51	56
52	49
53	41
54	11
55	8
56	1
57	3
58	2
61	1
62	7
63	43
64	16
65	263
66	20
67	5
68	10
69	4
70	0
71	1
73	0
74	2
75	5
76	9
77	79
78	43
79	49
80	29
81	71
82	214
83	14
84	1
85	1
87	1
88	3
89	65
90	48
91	693
92	73
93	11
94	10
95	2
96	2
97	0
99	0
101	2
102	6
103	22
104	21
105	265
106	84
107	71
108	26
109	4
110	1
111	0
112	0
113	1
114	2
115	25
116	16
117	51
118	999
119	205
120	44
121	6
122	4
123	0
125	3
126	3
127	13
128	35
129	23
130	31
131	24
132	36
133	27
134	12
135	2
136	2
137	4
139	3
140	3
141	10
142	9
143	10
144	17
145	19
149	2
150	6
152	15
153	3
154	19
155	9
156	34
157	20
158	17
159	67
160	21
161	1
162	0
164	0
165	1
166	3
167	6
168	10
169	5
170	78
171	44
172	6
173	1
174	1
179	1
180	3
181	2
182	8
183	7
184	92
185	28
186	12
187	1
190	0
193	0
194	2
195	1
196	2
197	4
198	62
199	555
200	81
201	8
202	0
207	0
208	1
209	1
210	33
211	6
212	1
213	2
214	0
219	0
220	0
221	0
222	0
223	1
224	1
225	1
226	2
227	36
228	6
229	0
230	0
231	0
232	0
233	0
234	0
240	0
245	0
246	0
250	0
251	46
252	7
253	0
259	0
262	0
275	0
287	0
288	0
289	9
290	3
301	6
302	0
303	0
317	47
318	218
319	50
320	7
