Mass Spectrum: Ethanone, 1-[4-(2,3,5,6-tetrafluoro-4-trifluoromethylphenyl)-1-piperazinyl]-
Formula: C13H11F7N2O
CAS: 300718-06-3
Molecular weight: 344
m/z	intensity
33	33
34	0
36	1
39	30
41	192
42	405
43	999
46	4
50	3
51	5
52	9
54	102
56	668
57	150
59	1
60	0
62	1
64	0
65	0
69	84
70	21
71	33
72	88
74	2
75	2
76	1
77	0
79	4
80	2
81	4
85	267
88	0
91	0
93	12
94	0
95	0
98	19
99	26
100	3
102	0
105	1
106	2
107	0
110	2
111	4
112	11
113	5
114	0
117	18
119	1
123	0
124	4
125	1
126	1
127	4
129	6
130	4
131	1
132	0
135	0
136	0
137	1
138	0
141	1
143	3
144	0
145	0
148	18
149	4
150	1
155	4
156	2
157	2
158	0
160	0
161	4
162	4
163	2
164	0
165	0
167	14
168	2
169	0
170	1
171	2
172	0
174	1
175	2
176	1
177	1
179	13
180	5
181	16
183	1
184	1
185	1
186	2
187	1
188	1
189	2
190	1
191	0
193	2
194	2
195	0
198	25
199	11
200	0
202	0
203	1
204	3
205	3
206	3
207	0
210	0
212	5
213	2
214	2
215	2
217	48
218	2
220	0
222	1
224	20
226	29
227	2
228	1
231	65
232	7
233	2
234	1
238	0
239	3
240	8
241	17
244	148
245	39
246	11
247	1
252	7
253	7
254	13
255	1
258	10
260	128
261	10
262	3
263	1
265	1
266	1
267	0
268	1
272	230
273	29
274	18
275	1
279	0
282	36
283	7
284	7
285	16
287	17
297	0
298	1
299	3
301	71
302	8
303	0
315	2
324	21
325	53
326	8
327	2
329	43
330	3
340	0
341	1
344	223
345	26
