Mass Spectrum: Pentanoic acid, 5-(4-methylphenylamino)-5-oxo-, 2-propynyl ester
Formula: C15H17NO3
CAS: 300726-47-0
Molecular weight: 259
m/z	intensity
33	10
34	1
36	2
39	244
41	91
42	45
43	25
44	10
45	7
46	0
50	7
51	25
52	18
53	19
55	104
56	5
57	1
58	0
59	0
60	1
62	2
63	10
65	31
67	7
69	18
70	3
71	1
73	1
75	4
77	70
78	27
79	41
80	14
83	45
84	2
85	1
86	1
88	7
89	8
91	41
92	5
93	5
94	0
95	1
97	15
98	1
102	2
104	18
107	999
109	2
111	18
112	1
115	2
116	1
117	2
118	3
120	14
121	1
123	0
125	12
126	0
127	0
128	0
129	0
130	2
131	3
132	8
133	7
134	10
135	1
143	2
144	3
146	3
147	1
148	3
149	2
150	0
153	25
155	0
157	0
160	2
162	10
163	0
171	0
174	3
175	5
176	9
177	2
186	0
201	0
202	3
204	29
205	2
221	0
255	0
256	1
259	97
260	12
261	1
