Mass Spectrum: N,N'-(4,5-Dimethyl-1,3-phenylene)bisacetamide
Formula: C12H16N2O2
CAS: 300727-72-4
Molecular weight: 220
m/z	intensity
34	21
35	13
36	41
37	20
39	167
40	234
41	133
43	999
44	97
45	9
48	3
50	40
51	65
52	48
53	42
54	25
55	26
56	11
57	15
60	6
61	5
62	11
63	25
64	20
65	67
66	35
67	31
68	9
69	12
70	9
71	6
73	4
74	8
75	9
76	17
77	88
78	28
79	35
80	19
81	15
82	5
83	4
84	5
88	2
89	15
90	15
91	75
92	33
93	67
94	29
95	9
96	2
102	9
103	9
104	21
105	36
106	69
107	49
108	82
109	18
110	3
111	2
112	3
113	2
115	4
116	15
117	23
118	43
119	58
120	53
121	101
122	16
123	2
128	2
129	2
130	4
131	8
132	17
133	34
135	544
136	504
137	74
138	6
145	3
146	6
147	11
148	5
149	5
150	2
152	2
159	2
160	11
161	26
162	22
163	45
164	5
173	2
175	7
177	115
178	242
179	28
180	2
192	2
205	9
216	3
218	23
220	310
221	24
222	3
