Mass Spectrum: 5-Phenyl-7-trifluoromethylpyrazolo[2,3-a]pyrimidine-2-carboxamide
Formula: C14H9F3N4O
CAS: 300717-56-0
Molecular weight: 306
m/z	intensity
36	12
38	31
39	85
40	34
41	16
44	999
50	72
51	161
52	41
53	11
54	4
56	4
57	5
61	9
62	28
63	50
64	21
65	32
66	70
67	27
69	69
70	7
71	3
75	158
76	79
77	120
78	13
81	5
82	4
83	6
85	3
86	7
87	16
88	15
89	14
90	19
91	6
92	3
93	3
94	6
96	27
98	5
99	10
100	18
101	41
102	75
103	146
104	20
107	3
108	3
110	3
111	5
112	5
113	9
114	9
115	6
116	9
120	2
121	7
125	2
126	6
127	19
128	56
129	6
131	5
132	9
133	9
135	3
137	2
138	4
139	9
140	16
141	4
144	3
145	8
148	7
151	6
153	14
158	9
163	2
164	3
165	6
166	5
171	7
176	17
177	10
178	19
179	3
183	3
192	4
193	8
194	5
196	3
197	4
215	3
216	5
217	9
235	4
242	38
243	16
260	2
261	7
263	185
264	18
287	11
288	4
290	14
303	2
306	242
307	27
