Mass Spectrum: Propan-2-ol, 1-(2-adamantyloxy)-3-(4-morpholyl)-
Formula: C17H29NO3
CAS: 300719-49-7
Molecular weight: 295
m/z	intensity
39	14
40	39
41	52
42	59
43	30
44	35
45	9
50	1
53	9
54	8
55	22
56	44
57	16
58	5
65	7
66	5
67	38
68	7
69	10
70	32
71	10
72	23
76	1
77	21
78	5
79	42
80	14
81	21
82	4
85	3
86	9
87	25
88	12
91	33
92	12
93	32
94	2
95	5
98	10
100	999
101	62
102	8
105	6
107	6
112	1
114	3
117	1
119	1
126	5
127	10
128	2
130	41
131	1
134	4
135	45
136	4
142	10
144	8
145	17
160	8
171	1
184	1
190	9
191	3
277	9
278	4
295	1
