Mass Spectrum: Octane-1,8-diamine, N,N'-bis(2-furoyl)-
Formula: C18H24N2O4
CAS: 300717-17-3
Molecular weight: 332
m/z	intensity
33	9
34	13
35	8
39	194
40	84
41	146
42	35
43	71
44	131
45	13
50	7
51	17
52	7
53	20
54	20
55	130
56	66
57	33
58	9
59	3
60	4
65	10
66	11
67	63
68	30
69	52
70	22
71	16
72	8
73	7
74	2
75	1
76	11
77	18
78	7
79	15
80	7
81	27
82	22
83	32
84	15
85	8
86	9
87	4
91	7
93	9
95	999
96	66
97	26
98	37
99	11
100	13
101	3
102	4
103	2
104	8
105	17
106	1
108	2
109	11
110	26
111	64
112	97
113	9
114	7
115	3
119	1
120	1
122	7
124	241
125	231
126	35
127	7
129	3
130	20
131	7
134	8
135	3
136	6
137	3
138	132
139	42
140	5
147	3
148	84
149	42
150	15
152	65
153	33
154	3
159	7
160	24
166	60
167	24
168	3
169	4
171	7
178	7
180	45
181	17
182	2
186	2
187	1
188	1
192	5
194	33
195	28
196	1
203	1
208	116
209	19
220	13
221	7
229	6
230	25
231	2
237	32
314	3
332	17
