Mass Spectrum: Benzoxazol 3-carboxylic acid, 2,3-dihydro-2-oxo-6-nitro-, pentyl ester
Formula: C13H14N2O6
CAS: 300705-39-9
Molecular weight: 294
m/z	intensity
34	1
37	2
38	11
39	55
40	43
41	231
42	90
43	999
44	54
45	2
46	0
48	0
49	1
50	29
51	16
52	7
53	11
55	98
56	7
57	6
58	0
61	1
62	9
63	7
64	4
65	2
66	5
67	4
69	60
70	141
71	187
72	11
74	0
75	4
76	16
77	46
78	15
79	3
80	1
81	0
83	2
84	1
85	2
88	2
89	5
90	0
91	2
93	2
94	1
95	0
104	1
105	4
106	13
107	1
110	3
111	1
115	1
116	1
117	2
121	0
122	1
133	5
134	9
135	5
148	1
149	0
150	15
151	0
163	4
164	9
165	5
169	0
180	72
181	28
182	7
207	1
221	0
294	3
