Mass Spectrum: Naphthalene-1,3,3-tricarbonitrile, 3,4,4a,5,6,7-hexahydro-2-amino-4-(4-butoxyphenyl)-
Formula: C23H24N4O
CAS: 300727-94-0
Molecular weight: 372
m/z	intensity
33	27
34	5
36	2
37	4
39	205
40	114
41	621
42	47
43	54
44	32
45	5
50	21
51	53
52	33
53	46
54	23
55	127
56	32
57	190
58	6
60	3
62	10
63	41
64	27
65	70
66	36
67	33
68	10
69	17
70	15
71	16
74	6
75	17
76	31
77	120
78	55
79	54
80	13
81	13
82	6
83	11
84	7
85	3
87	5
88	16
89	51
90	36
91	79
92	17
93	15
94	55
95	18
96	4
97	5
98	3
99	4
100	7
101	14
102	27
103	37
104	24
105	65
107	999
108	84
109	9
111	4
112	10
113	12
114	21
115	66
116	48
117	33
118	30
119	28
120	46
121	14
122	10
123	4
125	6
126	12
127	31
128	37
129	27
130	19
131	47
132	32
133	71
134	10
135	5
136	2
137	2
138	5
139	14
140	28
141	22
142	20
143	21
144	22
145	59
146	30
147	7
148	3
149	5
150	9
151	14
152	19
153	17
154	14
155	28
156	23
157	31
158	12
159	11
160	4
161	7
163	254
164	41
165	23
166	12
167	14
168	18
169	24
170	25
171	29
172	8
173	2
175	8
176	10
177	11
178	12
179	13
180	17
181	20
182	29
183	18
184	14
185	8
186	3
187	21
188	8
189	20
190	13
191	7
192	10
193	15
194	23
195	25
196	23
197	12
198	5
202	14
203	6
204	7
205	12
206	12
207	13
208	22
209	51
210	16
211	7
212	5
214	2
215	5
216	7
217	5
218	6
219	8
220	12
221	62
222	115
223	25
224	5
227	3
228	3
229	3
230	9
231	7
232	6
233	5
234	5
235	6
236	3
242	1
243	2
244	6
245	6
246	7
247	8
248	22
249	12
250	7
251	4
255	1
256	2
257	2
258	4
259	4
260	8
261	10
262	20
263	6
268	2
270	2
271	4
273	14
274	5
275	3
276	2
283	1
284	2
287	14
288	13
289	8
290	3
298	4
299	10
300	3
301	5
307	2
315	27
316	23
317	3
318	3
329	1
345	2
369	2
370	8
372	81
373	14
