Mass Spectrum: Ethyl N-[(4-chlorophenyl)(morpholino)sulfinyl]carbamate
Formula: C13H17ClN2O4S
CAS: 300799-73-9
Molecular weight: 332
m/z	intensity
33	5
35	3
36	12
38	8
39	14
40	20
41	49
42	188
43	57
44	37
45	36
46	16
48	17
50	62
51	27
52	6
54	45
56	916
57	61
58	21
59	7
60	9
61	5
63	30
64	13
65	7
66	3
69	15
70	9
72	63
74	29
75	137
76	22
77	12
79	7
81	4
82	5
86	999
89	5
90	26
91	14
92	4
93	4
94	9
95	7
96	5
99	18
100	4
101	6
108	39
111	108
112	34
113	28
114	14
115	4
119	6
123	3
124	6
126	68
127	32
128	112
129	38
130	35
131	30
132	4
133	9
134	18
136	22
138	6
139	4
140	9
142	5
143	9
144	4
145	4
153	10
154	4
155	7
156	5
157	8
159	109
160	17
161	32
162	6
171	10
173	6
174	31
175	7
176	11
197	4
199	21
201	64
202	9
203	22
204	3
205	5
218	5
219	3
221	4
229	5
231	3
246	12
247	29
248	7
249	10
275	16
277	6
287	53
288	9
289	18
