Mass Spectrum: 1,1-Dimethyl-3-(2,2,2-trichloro-1-(4-iodo-phenylamino)-ethyl)-urea
Formula: C11H13Cl3IN3O
CAS: 300799-97-7
Molecular weight: 435
m/z	intensity
35	1
36	10
37	2
38	11
39	40
40	5
41	12
42	48
43	25
44	165
45	18
46	97
47	7
48	1
49	2
50	30
51	16
52	8
53	1
54	3
55	2
56	39
57	5
58	17
59	1
60	2
61	1
62	5
63	31
64	50
65	46
66	6
67	1
69	4
70	1
71	45
72	999
73	44
74	8
75	8
76	44
77	12
78	2
79	1
80	0
81	0
82	2
83	4
84	1
85	3
86	10
87	2
88	2
89	54
90	8
91	22
92	27
93	2
94	0
95	4
96	0
97	0
98	0
99	3
100	1
101	1
102	2
103	3
104	2
105	0
106	0
107	0
108	0
109	1
110	2
111	1
112	0
113	1
114	3
115	3
116	3
117	8
118	4
119	18
120	2
121	3
122	0
123	5
124	3
125	4
126	1
127	3
128	1
129	1
130	0
131	0
132	0
133	0
134	0
135	5
136	0
137	2
138	0
139	2
140	0
141	0
142	0
143	0
144	0
145	0
146	14
147	9
148	1
149	2
150	8
151	35
152	6
153	13
154	0
155	0
156	0
157	1
158	1
159	2
160	2
161	1
162	0
163	2
164	0
165	3
166	1
167	1
168	0
169	0
170	0
171	1
172	0
173	0
174	0
177	0
179	0
180	0
181	0
182	0
183	0
184	1
185	6
186	4
187	6
188	3
189	1
190	0
191	27
192	5
193	1
194	1
197	0
198	0
199	0
200	0
201	0
202	0
203	19
204	1
207	0
215	0
217	1
218	15
219	83
220	5
221	0
222	0
223	0
227	0
228	0
229	2
230	16
231	7
232	0
233	0
236	0
237	3
238	0
239	1
240	0
242	0
243	0
244	0
245	5
246	1
247	0
248	6
249	0
257	0
266	1
268	0
270	1
271	0
272	2
273	16
274	1
275	0
276	0
277	0
278	0
279	0
284	0
286	0
287	0
290	0
291	0
293	0
300	0
308	0
309	0
310	0
311	0
312	0
313	5
314	0
315	3
316	0
317	2
318	271
319	31
320	3
321	0
327	0
328	1
329	0
335	0
341	0
347	0
348	4
349	0
350	4
351	0
352	0
354	0
355	0
356	1
357	0
363	4
364	3
365	1
366	1
369	0
381	0
390	0
399	3
400	0
401	2
402	0
403	0
416	0
435	10
436	1
437	9
438	1
439	4
440	0
