Mass Spectrum: 2-Ethyl-5-(4-nitrobenzylideneamino)-1,3,4-thiadiazole
Formula: C11H10N4O2S
CAS: 300727-76-8
Molecular weight: 262
m/z	intensity
33	7
34	8
35	4
36	9
37	25
38	80
39	317
40	43
41	41
42	9
43	16
45	999
46	59
47	105
48	8
50	197
51	169
52	50
53	42
54	63
55	11
56	40
58	159
59	182
60	56
61	32
62	136
63	190
64	66
65	40
66	5
67	3
69	51
70	25
71	96
73	831
74	99
75	159
76	187
77	73
78	10
79	6
80	2
81	3
82	9
83	19
84	9
85	53
86	66
87	67
88	114
89	79
90	49
91	19
92	9
93	8
94	12
95	4
96	11
97	3
98	2
99	3
100	4
101	10
102	93
103	138
104	22
105	9
107	16
108	19
109	9
110	3
111	3
113	25
114	74
115	65
116	17
117	12
118	19
119	17
120	74
121	11
122	15
123	2
124	1
125	1
127	4
128	16
129	38
130	12
131	21
132	5
133	13
134	93
135	60
136	9
137	4
138	1
141	1
142	1
144	7
145	9
146	51
147	59
148	11
149	20
150	35
151	11
152	3
153	1
154	2
155	1
157	1
159	6
160	19
161	40
162	7
163	16
164	4
165	1
166	2
167	1
169	3
171	1
173	1
174	3
175	3
176	9
177	2
180	42
181	4
182	3
187	2
188	2
189	4
190	3
191	1
193	23
194	2
195	1
200	1
201	2
203	25
204	4
205	1
206	1
207	2
213	1
215	608
216	87
217	28
218	4
229	2
231	32
232	8
233	3
234	3
235	1
243	1
245	233
246	31
247	12
248	2
259	1
261	608
262	89
263	33
264	3
