Mass Spectrum: Ethyl 5-acetyl-2-(5-bromosalicylideneamino)-4-methyl-3-thiophenecarboxylate
Formula: C17H16BrNO4S
CAS: 300727-82-6
Molecular weight: 409
m/z	intensity
34	18
36	9
37	24
39	356
40	168
41	88
43	999
45	243
46	15
47	9
49	9
50	59
51	111
52	52
53	59
54	19
55	43
56	43
58	63
59	33
60	43
62	34
63	51
64	31
65	48
66	247
67	146
68	84
69	79
70	44
71	36
72	21
73	10
74	17
75	50
76	64
77	67
78	28
79	20
80	21
82	45
83	68
84	46
85	58
86	9
87	9
88	22
89	9
90	9
91	13
92	15
93	20
94	26
95	26
96	27
97	23
98	17
99	15
100	8
101	6
102	5
103	13
105	21
106	8
107	8
108	9
110	123
111	59
112	28
113	9
114	9
115	12
116	5
117	4
119	6
120	8
121	8
122	10
123	9
124	9
125	12
126	14
127	21
128	9
129	9
131	5
134	6
135	7
136	5
137	8
138	31
139	16
140	18
141	10
142	8
143	8
144	5
145	5
146	5
148	6
149	7
151	5
152	17
153	32
154	18
155	32
156	15
157	18
158	7
163	4
164	11
166	626
167	56
168	36
169	21
170	12
171	13
173	4
181	373
182	107
183	36
184	30
185	16
186	9
187	6
191	5
197	4
198	15
199	13
200	10
201	10
202	8
210	7
212	99
213	11
214	10
215	4
223	4
224	6
225	12
227	280
228	33
229	16
248	28
249	7
250	27
251	5
256	10
276	4
284	19
285	4
292	13
293	6
294	14
304	4
320	7
322	7
335	4
336	4
337	5
348	8
350	6
363	31
364	9
365	30
366	9
409	21
410	5
411	23
412	4
