Mass Spectrum: 1,3,5-Triazine-2,4-diamine, 6-(2-trifluoromethyl-1-benzimidazolyl)-N,N'-di(tert-butyl)-
Formula: C19H24F3N7
CAS: 300718-07-4
Molecular weight: 407
m/z	intensity
34	3
37	2
38	11
39	179
40	102
41	999
42	382
43	353
44	29
45	2
50	11
51	19
52	11
53	34
54	19
55	164
56	310
57	828
58	179
59	3
62	9
63	42
64	31
65	20
66	9
67	39
68	379
69	108
70	34
71	22
72	16
73	1
74	1
75	11
76	13
77	17
78	8
79	6
80	14
81	14
82	33
83	372
84	20
85	5
88	6
89	18
90	181
91	31
93	101
94	12
95	16
96	10
97	25
98	9
100	3
101	0
102	44
103	6
104	3
105	9
106	6
107	7
108	121
109	18
110	85
111	5
112	1
113	0
114	0
115	7
116	37
117	28
118	12
119	7
120	7
121	16
122	22
123	58
124	6
125	11
126	0
128	2
129	4
130	5
131	3
132	5
133	13
134	7
135	4
136	8
137	6
138	0
139	9
140	8
142	8
143	18
144	38
145	4
147	38
148	56
149	9
150	25
151	4
154	4
157	9
158	20
159	27
160	2
163	1
164	3
166	102
167	229
168	47
169	43
170	6
171	4
172	2
179	19
183	3
184	17
185	7
186	101
187	99
188	25
189	50
190	3
192	65
193	8
194	4
196	57
197	11
198	5
199	3
200	6
207	1
208	1
209	66
210	6
211	14
212	44
213	25
214	27
215	3
224	19
225	5
226	77
227	9
232	0
233	8
234	111
235	12
237	16
238	2
239	3
249	2
252	11
253	2
254	9
255	5
256	1
259	1
264	2
266	24
267	2
271	1
274	13
275	30
276	107
277	15
279	5
280	1
282	37
283	6
288	2
289	1
292	2
294	38
295	183
296	128
297	16
300	2
308	5
309	49
310	7
314	7
316	233
317	36
318	2
330	11
331	1
332	2
334	77
335	24
336	179
337	31
338	3
350	28
351	280
352	55
353	3
356	1
364	1
365	0
372	0
376	5
377	0
388	8
392	353
393	74
394	5
407	280
408	62
409	5
