Mass Spectrum: 1-[2-(2-Methyl-5-oxo-4-propyl-tetrahydro-furan-2-yl)-2-oxo-ethyl]-1,2-dihydro-pyridazine-3,6-dione
Formula: C14H18N2O5
CAS: 300701-65-9
Molecular weight: 294
m/z	intensity
34	0
36	0
37	3
38	15
39	60
40	40
41	97
43	999
44	29
45	8
46	0
50	1
51	6
52	12
53	32
54	49
55	117
56	11
57	9
58	3
59	1
60	0
62	0
63	1
64	0
65	6
66	4
67	38
68	10
69	28
70	8
71	13
73	3
76	0
77	7
78	2
79	7
80	30
81	9
82	38
83	7
84	7
85	3
86	1
87	0
91	3
92	1
93	2
95	44
96	9
97	19
98	12
99	5
100	1
103	0
104	0
105	3
106	0
107	1
108	0
109	2
110	1
111	5
112	28
113	96
114	6
115	0
120	1
121	3
122	0
123	2
125	31
126	154
127	10
128	1
129	0
133	0
135	1
137	1
138	1
139	5
141	484
142	40
143	3
149	1
151	0
152	1
153	7
154	24
155	2
163	1
165	0
167	1
171	1
179	0
180	1
181	0
191	1
197	0
207	0
235	0
252	1
266	20
267	3
283	0
293	1
294	29
295	4
296	0
