Mass Spectrum: 1,2,4-Triazine-3,5(2H,4H)-dione, 6-(2-oxopropylthio)-
Formula: C6H7N3O3S
CAS: 300814-20-4
Molecular weight: 201
m/z	intensity
33	2
35	1
36	13
37	1
38	23
39	129
40	38
41	356
42	307
43	999
44	776
45	214
46	126
47	15
48	2
53	0
54	1
55	5
56	11
57	10
58	53
59	28
60	21
61	7
63	0
69	37
70	33
71	23
72	47
73	43
74	10
75	1
83	11
84	0
85	0
86	5
87	86
88	71
89	7
90	4
92	0
101	2
102	15
114	16
115	6
116	1
117	0
124	0
126	60
127	0
128	10
130	5
131	0
147	0
158	105
159	437
160	31
161	20
163	12
165	13
170	0
201	200
202	26
203	4
