Mass Spectrum: Ethanone, 2-diethylamino-1-(2,6-dimethyl-3-indolyl)-
Formula: C16H22N2O
CAS: 300836-53-7
Molecular weight: 258
m/z	intensity
33	1
34	0
36	0
37	0
38	2
39	19
40	10
41	17
42	55
43	19
44	8
45	4
47	0
50	6
51	13
52	6
53	5
54	5
55	5
56	35
57	17
58	111
59	3
60	0
61	0
62	3
63	10
64	3
65	10
66	2
67	0
68	0
69	1
70	8
71	5
72	7
73	1
74	3
75	6
76	7
77	15
78	5
79	1
80	0
81	0
82	0
84	11
86	999
87	55
89	13
90	4
91	26
92	2
93	0
94	0
95	0
96	0
98	1
99	1
100	9
101	4
102	8
103	6
104	1
105	0
106	0
107	0
109	0
110	0
111	0
112	0
113	2
115	63
116	20
117	14
118	2
119	0
121	0
124	0
125	0
126	0
127	4
128	6
129	4
130	3
131	1
132	0
133	0
139	0
140	3
141	3
142	15
143	34
144	38
145	6
146	1
147	0
153	0
154	1
155	1
156	4
157	7
158	20
159	3
160	0
166	0
167	0
168	1
169	1
170	3
172	83
173	10
174	1
180	0
181	0
182	0
183	0
184	1
187	109
188	14
189	1
190	0
195	0
196	0
197	0
198	0
199	0
201	0
203	1
204	0
209	0
210	0
211	0
212	0
213	0
227	0
228	0
229	0
238	0
241	0
242	0
252	0
253	0
256	0
257	0
258	3
259	0
