Mass Spectrum: 1,2-Cyclopentanedione
Formula: C5H6O2
CAS: 3008-40-0
Molecular weight: 98
m/z	intensity
24	0
25	7
26	39
27	136
28	18
29	42
30	2
31	14
33	0
34	3
35	3
36	2
37	20
38	37
39	128
40	57
41	203
42	209
43	142
44	31
45	1
48	0
49	3
50	10
51	13
52	17
53	12
54	5
55	452
56	37
57	5
58	1
61	1
62	0
63	0
65	0
66	2
67	2
68	11
69	161
70	82
71	6
72	0
75	0
77	0
79	0
80	0
82	3
83	0
95	0
96	1
97	22
98	999
99	57
100	6
101	0
