Mass Spectrum: 2,3-Dihydrobenzoxazol-2-one-3-carboxylic acid, 6-nitro-, benzyl ester
Formula: C15H10N2O6
CAS: 300808-99-5
Molecular weight: 314
m/z	intensity
38	2
39	16
40	2
41	6
44	1
46	0
50	13
51	17
52	5
53	1
62	3
63	15
64	4
65	63
66	3
75	2
76	7
77	43
78	10
79	2
83	0
89	20
90	17
91	999
92	84
93	4
105	7
106	4
107	0
133	2
134	2
150	0
165	0
171	0
179	3
180	8
225	4
240	0
269	2
270	29
271	3
314	21
315	4
