Mass Spectrum: 3-Bromo-4-methoxybenzaldehyde 2-pyridylhydrazone
Formula: C13H12BrN3O
CAS: 300862-93-5
Molecular weight: 305
m/z	intensity
34	5
36	6
37	26
38	63
39	164
41	44
42	10
43	18
44	41
45	1
50	85
51	111
52	71
53	29
54	3
55	5
57	4
60	0
61	10
62	42
63	98
64	21
65	31
67	433
69	1
74	24
75	38
76	57
77	32
78	85
79	83
80	40
81	10
82	20
87	2
88	9
89	32
90	9
91	12
92	18
94	999
95	37
102	4
103	2
104	6
105	10
113	15
117	6
119	47
120	108
121	3
128	0
133	1
139	0
142	1
143	1
144	0
148	0
154	5
155	6
156	0
157	3
168	9
169	3
170	16
171	2
172	4
182	2
183	0
196	2
198	2
211	14
213	25
214	6
215	3
305	40
306	11
307	25
308	0
