Mass Spectrum: But-3-en-2-one, 4-phenyl-, 2-benzothiazolylhydrazone
Formula: C17H15N3S
CAS: 300862-94-6
Molecular weight: 293
m/z	intensity
34	5
36	4
37	33
38	62
39	252
40	117
41	68
42	195
43	79
44	53
45	161
47	5
50	214
51	440
52	158
53	63
54	17
55	32
56	26
57	34
58	32
59	10
60	10
62	61
63	194
64	58
65	81
66	16
67	13
69	138
70	38
71	20
72	7
74	74
75	87
77	999
78	214
80	72
81	47
82	48
83	11
84	14
85	6
86	4
87	12
89	67
90	73
91	150
93	46
94	20
95	48
96	56
97	13
98	7
99	9
102	302
103	685
105	265
106	27
108	210
109	56
110	10
111	6
112	4
113	10
115	226
116	52
117	29
118	16
119	11
120	16
121	34
122	96
123	57
126	60
127	62
128	148
129	143
130	51
131	30
132	11
133	12
134	33
135	56
136	53
137	8
138	3
139	3
140	3
142	48
144	552
145	68
146	88
149	503
150	806
151	78
152	35
153	2
157	1
158	4
159	4
161	18
162	5
163	8
164	39
165	4
166	1
168	0
169	1
171	1
172	0
173	9
175	108
176	10
177	2
183	2
184	3
186	0
187	2
188	3
189	15
190	55
191	5
192	4
193	0
201	0
202	2
206	0
207	1
208	0
210	14
211	7
212	3
213	5
214	14
216	354
217	42
218	20
219	3
223	16
224	16
225	20
226	1
235	0
236	12
237	11
238	0
247	0
248	3
249	13
250	16
251	63
252	65
253	14
254	1
259	12
260	12
261	0
264	0
266	0
274	0
275	5
278	197
279	25
280	6
287	0
290	45
293	801
294	121
295	34
