Mass Spectrum: Cyclopentadiene-1,5,5-tricarbonitrile, 3-acetyl-2-amino-4-phenyl-
Formula: C16H10N4O
CAS: 300839-26-3
Molecular weight: 274
m/z	intensity
33	7
34	0
37	1
38	5
39	17
40	11
41	10
43	999
45	2
50	15
51	36
52	12
53	3
54	0
55	0
56	0
57	0
61	2
62	9
63	14
64	5
65	4
66	2
67	1
68	1
70	0
73	1
74	10
75	17
76	21
77	78
78	9
79	1
80	0
82	0
83	2
84	0
85	0
86	3
87	5
88	7
89	6
90	2
91	1
92	1
94	0
95	1
96	2
97	1
98	2
99	6
100	10
101	14
102	16
103	12
104	4
105	1
110	8
111	3
112	3
113	4
114	3
115	5
116	1
117	0
118	0
122	1
124	26
125	5
126	6
127	12
128	63
129	18
130	3
135	0
136	0
137	1
138	4
139	5
140	3
141	1
147	0
148	0
149	2
150	10
151	19
152	9
153	7
154	3
155	2
156	0
162	2
163	3
164	7
165	5
166	3
167	0
168	0
169	0
170	0
171	0
172	0
174	0
175	3
176	12
177	22
178	27
179	9
180	1
181	1
182	0
183	1
188	2
189	3
190	2
191	5
192	4
193	2
194	0
200	0
201	1
202	9
203	11
204	42
205	22
206	5
207	0
208	0
209	2
210	0
214	1
215	2
216	0
217	2
218	5
219	5
220	3
221	7
222	1
228	4
229	7
231	169
232	182
233	37
234	3
235	0
242	0
243	0
244	1
245	6
246	20
247	60
248	18
249	2
255	3
256	14
257	5
258	2
259	26
260	4
271	1
274	386
275	63
276	6
