Mass Spectrum: Imidazole, 4-fluoro-
Formula: C3H3FN2
CAS: 30086-17-0
Molecular weight: 86
m/z	intensity
41	35
42	8
43	10
44	17
45	7
46	6
49	1
50	2
51	4
52	2
53	9
54	0
55	38
56	2
57	27
58	88
59	275
60	8
64	1
65	0
66	6
67	7
69	7
70	2
71	1
83	1
85	4
86	999
87	57
88	1
