Mass Spectrum: Isoindole-1,3(2H)-dione, 2-[4-(2,3-dihydroindol-1-yl)-4-oxobutyl]-
Formula: C20H18N2O3
CAS: 300838-81-7
Molecular weight: 334
m/z	intensity
33	0
34	0
36	1
37	4
38	26
39	105
41	325
42	24
43	12
44	11
45	4
46	0
48	0
50	78
51	67
52	16
53	8
54	12
55	38
56	26
57	7
59	9
60	1
61	3
62	12
63	38
64	28
65	80
66	10
67	4
68	16
69	45
70	5
71	2
72	2
73	6
74	19
75	46
76	127
77	152
78	19
79	6
80	1
81	1
82	1
83	1
84	1
85	0
86	1
87	2
88	11
89	67
90	91
91	167
92	19
93	4
94	1
95	3
97	0
101	9
102	38
103	28
104	64
105	38
106	3
107	0
111	0
112	1
113	0
114	2
115	11
117	276
118	651
119	999
121	7
127	5
128	25
129	24
130	121
131	16
132	21
133	39
134	4
135	8
136	0
142	1
143	3
144	3
145	4
146	12
147	10
148	45
149	4
154	0
155	0
156	0
160	280
161	200
162	19
163	1
167	0
169	1
170	1
171	3
172	8
173	8
174	26
175	2
179	0
185	1
186	7
187	18
188	82
189	14
190	0
207	0
216	115
217	14
218	1
222	0
331	0
332	2
333	17
334	85
335	17
336	1
