Mass Spectrum: Adamantan-2-one, oxime, o-(3-tert-buthylamino-2-hydroxypropyl)-
Formula: C17H30N2O2
CAS: 300812-85-5
Molecular weight: 294
m/z	intensity
41	3
45	1
52	1
53	0
54	5
55	11
56	25
57	31
58	25
60	15
65	10
67	19
68	7
70	17
71	17
72	29
74	2
76	5
77	26
78	20
79	104
80	20
81	22
82	13
83	14
84	51
85	124
86	749
88	4
90	28
91	66
92	46
93	64
94	20
95	15
96	10
97	8
98	4
100	46
101	25
102	6
103	6
104	20
106	108
107	27
108	11
109	17
112	999
114	180
115	56
116	54
117	17
118	12
119	20
120	21
121	71
122	12
123	2
124	4
127	2
128	18
129	17
130	43
131	137
132	380
133	23
135	10
136	3
137	0
144	7
146	56
148	483
150	301
151	12
162	5
165	388
166	175
167	14
180	0
191	2
206	1
208	46
209	1
221	1
222	23
223	1
275	4
276	46
277	14
279	60
280	8
