Mass Spectrum: N-[1-(Dimethylamino)-2,2,2-trichloroethyl]-p-toluamide
Formula: C12H15Cl3N2O
CAS: 300814-41-9
Molecular weight: 308
m/z	intensity
33	8
34	21
36	77
37	32
39	90
40	86
42	232
44	240
45	33
46	10
47	7
48	7
50	29
51	44
52	13
53	7
55	12
57	47
58	5
60	5
61	6
62	16
63	71
65	226
66	9
68	4
69	3
70	3
71	8
72	18
74	200
75	22
77	20
78	9
79	3
82	10
83	33
84	9
85	5
86	8
88	6
89	68
91	437
92	43
93	5
94	11
95	8
97	2
99	9
101	2
102	4
104	30
105	5
106	9
109	2
110	2
111	2
112	2
113	2
115	3
116	7
117	29
119	999
120	88
121	9
122	5
123	6
125	7
126	7
127	3
128	3
130	4
132	5
135	3
138	18
139	11
140	9
141	7
142	2
143	2
146	2
147	2
148	2
155	2
158	2
162	2
164	2
173	4
174	9
176	9
177	3
188	1
189	6
191	251
192	24
193	4
194	2
201	2
202	3
229	2
230	3
232	2
236	7
237	21
238	4
239	7
272	7
273	2
274	3
