Mass Spectrum: Benzonitrile, 2-(1-methyl-2-oxohydrazino)
Formula: C8H7N3O
CAS: 30091-22-6
Molecular weight: 161
m/z	intensity
25	5
26	67
27	113
28	999
29	19
30	449
36	10
37	166
38	219
39	316
40	55
41	28
42	45
43	14
48	4
49	74
50	374
51	427
52	200
53	29
54	23
55	7
56	2
57	5
60	7
61	76
62	153
63	276
64	304
65	79
66	45
67	2
72	2
73	50
74	157
75	440
76	469
77	998
78	168
79	32
80	2
85	6
86	19
87	36
88	92
89	82
90	126
91	32
98	3
99	52
100	31
101	32
102	489
103	486
104	985
105	116
106	3
114	2
115	19
116	35
117	10
128	1
129	212
130	78
131	965
132	249
133	20
161	55
162	13
