Mass Spectrum: Pentanoic acid, 5-cyano-, methyl ester
Formula: C7H11NO2
CAS: 3009-88-9
Molecular weight: 141
m/z	intensity
23	0
25	0
26	58
27	258
28	11
29	52
30	12
31	50
33	5
35	0
36	0
37	14
38	23
39	195
40	48
41	339
42	134
43	302
44	17
45	20
46	0
49	1
50	12
51	26
52	44
53	78
54	216
55	570
56	30
57	18
58	2
59	493
60	17
61	6
62	1
63	1
64	9
65	2
66	11
67	14
68	200
69	61
70	4
71	5
72	3
73	1
74	999
75	34
76	6
77	1
78	2
79	19
80	38
81	92
82	620
83	49
84	3
85	0
86	0
87	30
88	8
89	0
94	1
96	5
97	1
98	5
99	1
101	57
102	2
106	0
107	8
108	11
109	68
110	559
111	42
112	3
113	4
114	2
126	2
139	0
140	1
141	1
