Mass Spectrum: 1,3-Oxathiane, 2-ethyl-2-methyl-
Formula: C7H14OS
CAS: 30098-80-7
Molecular weight: 146
m/z	intensity
26	60
27	250
28	80
29	240
31	80
39	220
40	30
41	700
42	70
43	950
44	30
45	240
46	720
47	150
48	40
53	80
54	40
55	280
56	40
57	260
58	50
59	260
60	40
61	50
67	40
69	50
71	60
72	170
73	380
74	999
75	210
76	70
87	70
88	130
89	70
117	999
118	50
119	50
131	70
146	217
147	20
148	10
