Mass Spectrum: N-(2,2,2-Trichloro-1-(3-trifluoromethyl-phenylamino)-ethyl)-acetamide
Formula: C11H10Cl3F3N2O
CAS: 301195-50-6
Molecular weight: 348
m/z	intensity
35	3
36	3
37	1
38	4
39	10
40	1
42	48
43	999
44	62
45	9
46	8
47	6
48	5
49	5
50	9
51	10
52	5
54	0
57	1
58	5
59	3
60	112
61	5
62	7
63	20
64	62
65	16
66	17
69	5
70	0
72	1
73	1
74	4
75	20
76	12
77	6
78	2
81	0
82	7
83	26
84	4
85	8
86	3
87	5
88	5
89	2
90	2
91	5
92	2
93	8
94	4
95	12
96	2
98	0
99	0
100	2
101	1
102	3
104	0
106	6
107	1
108	3
109	3
110	5
111	55
112	7
113	39
114	24
115	7
116	1
117	11
118	2
119	15
120	5
121	4
122	3
123	1
124	1
125	13
126	9
127	4
128	0
129	2
130	1
131	0
132	4
133	9
134	3
135	1
136	0
137	1
138	1
139	2
140	21
141	7
142	31
143	6
144	3
145	111
146	55
147	1
148	47
150	17
151	8
152	6
153	6
154	1
155	1
156	1
157	3
158	2
159	2
160	26
161	242
162	52
163	3
164	2
165	1
166	4
167	8
168	3
169	18
170	11
171	4
172	106
173	10
174	2
175	0
176	0
177	0
178	0
179	0
180	1
181	2
182	0
183	0
184	2
185	19
186	3
187	34
188	19
189	666
190	91
191	4
192	2
193	2
194	0
195	0
196	1
197	4
198	0
199	6
200	10
201	2
202	3
203	0
204	0
206	0
207	0
208	9
209	0
210	2
211	0
212	1
213	0
214	0
215	6
216	0
217	0
218	3
219	4
220	4
221	1
222	0
227	0
229	0
230	2
231	270
232	32
233	2
234	2
235	11
236	2
237	3
238	0
241	2
242	1
244	0
250	0
251	0
253	1
254	2
255	3
256	1
257	1
258	0
259	0
267	0
268	0
269	0
270	5
271	5
272	4
273	3
274	1
275	0
276	0
277	1
278	0
279	0
290	4
291	0
292	4
293	0
294	1
296	0
305	0
306	0
307	0
308	0
309	0
312	0
314	0
315	0
329	4
330	0
331	4
332	0
333	1
334	0
348	7
349	1
350	6
351	1
352	1
353	0
