Mass Spectrum: Isothiourea, S-(2-tert-butylsulfonyl)ethyl-
Formula: C7H16N2O2S2
CAS: 301187-15-5
Molecular weight: 224
m/z	intensity
33	25
34	13
35	39
36	2
37	10
39	375
41	774
42	152
43	770
45	113
46	22
47	27
48	56
49	7
50	16
51	17
52	6
53	27
55	63
57	999
58	79
59	83
60	73
61	166
62	17
63	16
64	20
65	9
66	5
67	1
69	6
70	3
71	4
72	1
73	1
74	4
75	29
76	114
77	16
78	8
79	2
80	0
81	5
82	1
84	3
86	2
87	0
89	1
90	25
91	7
92	3
93	5
96	1
98	1
99	5
101	1
103	22
104	4
105	4
107	1
108	1
109	5
112	0
117	14
118	15
119	2
123	19
125	3
126	6
127	2
128	1
129	0
131	1
163	0
164	0
165	0
171	2
182	40
183	3
184	3
185	1
187	0
224	1
