Mass Spectrum: Phenol, 4-(phenylmethoxy)-, 4-nitrobenzoate
Formula: C20H15NO5
CAS: 301209-27-8
Molecular weight: 349
m/z	intensity
36	3
37	11
39	34
40	1
41	19
43	13
44	29
45	4
46	1
47	0
50	49
51	21
52	13
53	9
54	11
55	7
56	2
62	6
63	35
64	2
65	126
66	6
67	2
74	10
75	15
76	80
77	13
78	2
82	9
83	2
90	24
91	999
92	95
93	5
94	1
95	1
96	0
104	78
105	10
106	1
107	1
108	2
109	1
110	1
111	1
120	122
121	10
123	3
124	0
134	4
135	3
136	1
137	0
150	77
151	4
152	1
166	1
167	1
168	0
169	1
170	0
199	0
200	2
201	0
241	1
242	0
289	0
290	8
291	1
292	0
303	0
318	0
319	2
320	0
333	0
348	0
349	36
350	7
351	1
