Mass Spectrum: Retinoic acid, 5,8-epoxy-5,8-dihydro-
Formula: C20H28O3
CAS: 3012-76-8
Molecular weight: 316
m/z	intensity
41	190
42	60
43	800
44	80
45	999
46	370
47	70
52	50
53	70
54	60
55	240
56	40
57	520
58	50
59	240
67	140
68	60
69	240
70	30
71	390
72	30
73	70
79	390
80	90
81	330
82	110
83	280
84	40
85	140
87	60
91	60
92	570
93	90
94	410
95	100
96	560
97	120
98	60
100	80
101	70
102	40
103	40
104	70
105	60
106	350
107	50
108	480
109	390
110	300
111	60
112	160
116	150
117	80
118	100
119	50
120	130
121	60
122	370
123	180
124	300
125	50
128	50
129	90
130	120
131	50
132	120
133	80
134	180
135	70
136	350
137	130
138	90
142	90
143	80
144	150
145	80
146	130
147	80
148	140
149	70
150	999
151	140
152	60
153	30
154	60
155	40
156	80
157	60
158	120
159	80
160	190
161	40
162	130
163	40
164	110
165	520
166	300
167	60
168	30
169	40
170	40
171	40
172	90
173	40
174	110
175	80
176	120
177	40
178	260
179	60
180	80
184	50
186	130
187	40
188	100
190	80
192	190
193	170
194	50
196	30
198	40
200	70
201	40
202	170
203	40
204	90
205	60
206	90
214	100
215	60
216	80
218	120
219	80
228	60
230	80
231	30
232	60
234	50
240	40
242	40
243	40
244	50
246	50
248	100
249	40
255	90
256	40
257	160
258	70
263	50
270	50
271	210
272	240
273	80
283	60
299	50
301	260
302	100
314	70
316	540
317	130
318	40
