Mass Spectrum: 1,3,5-Triazin-2-amine, 4,6-bis(2,2,2-trifluoro-1-trifluoromethylethoxy)-N-methyl-
Formula: C10H6F12N4O2
CAS: 301211-02-9
Molecular weight: 442
m/z	intensity
33	3
34	41
36	8
38	11
40	42
41	79
42	96
43	125
44	90
45	19
46	0
47	4
48	15
50	38
51	98
53	65
55	426
56	164
57	189
58	14
60	17
62	3
63	23
64	17
65	8
66	18
67	60
69	999
70	177
71	35
72	7
73	4
74	7
76	1
77	12
78	24
79	20
80	34
82	344
83	154
84	55
85	9
86	1
91	24
92	14
93	24
94	57
95	13
97	87
98	48
99	33
100	10
101	8
105	15
106	6
107	11
108	6
109	10
110	21
111	14
112	33
113	56
114	2
118	3
119	6
120	3
122	5
123	16
125	484
126	32
128	6
129	9
131	7
132	16
133	2
134	1
135	5
136	6
137	2
138	0
139	16
140	3
149	3
151	112
152	5
153	2
154	3
166	35
171	2
177	1
178	0
182	1
190	5
192	3
193	1
194	22
201	2
208	2
210	8
219	11
222	19
223	3
230	6
233	8
234	10
235	8
237	75
238	2
242	4
246	1
250	0
255	1
256	0
262	118
263	6
271	4
275	59
276	125
277	10
286	10
291	22
300	1
302	26
303	1
304	10
305	69
306	5
331	11
345	3
370	5
373	1
384	8
399	5
403	10
413	4
421	1
423	124
424	10
440	6
441	36
442	237
443	25
