Mass Spectrum: 6-Ethyl-3,7,9-trioxabicycl(4,2,1)nonane
Formula: C8H14O3
CAS: 30120-66-2
Molecular weight: 158
m/z	intensity
39	60
41	140
43	99
55	109
57	999
67	19
69	50
71	29
73	29
75	19
83	20
84	30
85	89
87	10
99	79
100	299
101	120
114	39
115	19
129	80
130	39
158	89
