Mass Spectrum: 6-Methyl-3,7,9-trioxabicyclo[4.2.1]nonane
Formula: C7H12O3
CAS: 30120-65-1
Molecular weight: 144
m/z	intensity
39	40
41	59
43	999
55	199
57	79
58	29
61	50
71	120
73	49
83	79
84	188
85	400
100	129
101	248
115	49
116	110
129	19
144	49
