Mass Spectrum: 1-Bromo-2-(ethanesulfonyl)ethane
Formula: C4H9BrO2S
CAS: 30129-83-0
Molecular weight: 200
m/z	intensity
28	54
29	278
33	13
34	6
35	6
38	3
39	38
40	15
41	175
42	35
43	180
44	18
45	95
46	23
47	21
48	141
49	30
50	25
51	6
52	2
53	10
55	92
56	60
57	303
58	49
59	31
60	9
61	10
62	4
63	14
64	36
65	50
66	83
67	25
68	9
69	48
70	15
71	49
72	3
73	3
75	6
76	3
77	32
78	5
79	41
80	19
81	57
82	26
83	32
84	7
85	30
86	8
87	4
89	2
91	6
92	7
93	47
94	33
95	39
96	10
97	30
98	8
99	10
105	12
107	999
108	85
109	964
110	71
111	23
112	6
113	6
121	8
122	4
123	12
124	4
125	9
127	11
129	6
135	4
136	20
137	7
138	20
139	4
147	2
148	2
149	2
151	2
160	1
171	30
172	31
173	32
174	33
185	1
199	2
200	14
201	1
202	14
203	2
