Mass Spectrum: 4-(4-Hydroxy-3,.alpha.-dimethylbenzylidenehydrazino)-2-methyl-6-morpholinopyrimidine
Formula: C18H23N5O2
CAS: 301327-68-4
Molecular weight: 341
m/z	intensity
39	329
40	169
42	867
43	213
44	155
45	119
51	213
52	215
53	222
54	162
55	151
56	216
57	47
58	21
63	29
66	999
68	127
69	49
70	18
74	17
77	721
79	504
80	158
81	60
82	22
85	41
86	47
90	19
91	59
93	95
94	81
95	62
96	23
103	51
104	32
105	84
106	57
107	169
108	71
109	70
110	32
112	19
115	28
118	20
119	18
121	146
122	119
123	51
124	28
125	26
128	50
131	16
133	233
134	180
135	85
137	273
142	22
145	17
148	477
149	145
150	157
151	65
152	48
161	51
163	201
164	27
175	28
177	79
178	33
179	20
180	16
187	16
188	17
189	17
193	127
194	21
195	19
200	26
207	65
208	105
213	18
214	31
234	127
235	16
241	30
255	51
256	40
268	31
269	42
282	33
283	101
284	208
285	171
296	163
297	30
298	22
299	19
310	233
311	122
312	24
325	165
326	301
327	62
328	23
340	798
341	869
342	167
343	18
