Mass Spectrum: Imidazolidine, 2-(3-methyl-2-thienyl)-1,3-diphenyl-
Formula: C20H20N2S
CAS: 301318-46-7
Molecular weight: 320
m/z	intensity
33	9
34	4
36	1
37	4
38	18
39	82
40	38
41	25
42	25
43	8
44	25
45	86
47	9
48	0
50	58
51	247
52	38
53	47
54	9
55	4
56	3
57	7
58	18
59	9
60	2
61	3
62	10
63	35
64	33
65	113
66	50
67	16
69	31
70	19
71	18
72	3
73	3
74	8
75	20
77	999
78	98
79	27
80	48
81	7
82	9
83	10
84	33
85	11
86	4
87	3
88	4
89	18
91	364
92	58
93	23
94	18
95	13
96	18
97	135
98	14
99	10
100	2
101	3
102	11
104	706
105	133
106	53
107	9
108	10
109	55
110	70
111	120
112	203
113	22
114	14
115	19
116	21
117	56
118	76
119	62
120	49
121	17
122	40
123	48
124	72
125	12
126	7
127	10
128	14
129	13
130	9
131	3
132	4
133	2
134	6
136	20
137	19
138	26
139	9
140	8
141	11
142	6
143	10
144	2
145	3
146	5
147	5
148	2
149	2
150	1
151	3
152	13
153	12
154	10
155	4
156	11
157	2
158	3
159	7
160	91
162	0
163	0
164	0
165	3
166	10
167	37
168	11
169	2
170	5
171	18
172	8
173	13
174	7
175	1
176	0
177	1
178	1
180	11
181	10
182	80
184	142
185	119
186	46
187	19
188	6
189	0
192	0
193	2
194	7
195	3
196	4
197	7
198	16
199	66
200	366
201	71
202	87
203	14
204	4
207	1
208	1
209	1
210	1
211	2
212	10
214	315
215	913
216	166
217	53
218	7
219	0
221	5
223	137
224	21
225	2
226	1
227	0
228	7
229	2
230	1
231	0
232	0
235	0
238	1
241	1
243	32
244	6
245	1
251	6
252	1
256	0
258	0
261	0
287	3
288	0
292	2
303	0
305	7
306	1
316	1
317	4
319	66
320	317
321	70
322	20
323	3
