Mass Spectrum: N-(4-Bromobenzyl)-N-(2-pyridyl)-3-coumarincarboxamide
Formula: C22H15BrN2O3
CAS: 301325-91-7
Molecular weight: 434
m/z	intensity
34	23
35	23
36	24
37	81
38	140
39	439
40	286
41	127
42	118
43	72
44	132
46	12
48	14
50	269
51	383
52	178
53	61
54	14
55	33
57	44
58	10
60	14
61	49
62	166
63	426
64	90
65	70
66	27
67	22
68	9
69	21
70	20
71	28
72	32
74	89
75	133
76	109
77	245
78	694
79	259
80	76
81	25
82	38
84	8
85	18
86	38
87	81
89	999
90	361
91	89
92	22
93	9
94	10
99	13
101	400
102	36
103	22
104	35
105	87
106	22
107	9
109	10
115	12
116	16
117	17
118	31
119	13
120	26
121	138
122	10
127	16
128	19
129	9
137	11
143	10
145	83
146	18
152	9
153	17
154	30
155	30
165	9
166	15
167	18
169	190
171	237
173	366
174	30
179	16
180	32
181	126
182	82
183	60
184	15
209	8
221	9
237	9
258	14
259	64
261	732
262	181
263	500
264	84
265	70
266	12
434	32
436	33
