Mass Spectrum: Carbamothioic acid, dimethyl-, S-methyl ester
Formula: C4H9NOS
CAS: 3013-02-3
Molecular weight: 119
m/z	intensity
35	0
36	0
38	1
39	2
41	16
42	144
43	35
44	78
45	57
46	24
47	61
48	7
49	3
50	0
54	0
55	0
56	49
57	4
58	51
59	2
60	5
61	10
62	0
63	0
64	0
70	0
71	0
72	999
73	69
74	5
75	79
76	11
77	3
81	0
85	0
86	2
88	1
90	10
91	0
92	0
104	1
119	395
120	24
121	17
122	0
