Mass Spectrum: Propan-2-ol, 1-(2-isopropyl-5-methylcyclohexyloxy)-3-(1-piperidyl)-
Formula: C18H35NO2
CAS: 301317-71-5
Molecular weight: 297
m/z	intensity
39	56
41	319
42	147
43	168
44	81
45	8
46	0
50	3
51	7
53	28
55	231
56	51
57	43
58	7
59	2
60	2
61	0
62	0
63	2
65	7
67	37
68	17
69	89
70	44
71	23
72	4
73	1
74	1
75	1
77	13
79	12
81	37
82	13
83	39
84	23
85	11
86	13
87	0
89	0
91	5
92	1
93	4
95	22
96	22
98	999
99	81
100	4
101	1
103	1
104	0
105	0
106	0
107	1
108	0
109	2
110	4
111	2
112	3
113	1
114	0
115	1
116	0
117	1
118	4
119	0
120	0
121	0
122	0
123	3
124	5
125	2
126	4
127	3
128	49
129	5
130	0
131	0
132	0
133	0
134	0
135	0
136	0
137	0
138	1
139	3
140	5
141	1
142	15
143	1
144	0
145	0
146	0
147	0
149	1
150	0
151	0
152	0
153	0
154	0
156	2
158	28
159	3
160	0
162	0
167	0
168	0
169	0
170	0
171	0
172	0
180	0
182	0
183	0
184	0
189	0
194	0
197	0
209	0
210	0
212	0
241	0
254	0
279	1
280	1
282	0
296	1
297	2
298	0
