Mass Spectrum: Butanoic acid, 4-(4-nitrophenylhydrazino)-4-oxo-, methyl ester
Formula: C11H13N3O5
CAS: 301318-33-2
Molecular weight: 267
m/z	intensity
33	6
34	1
36	1
38	14
39	43
40	17
41	53
42	16
43	34
44	23
45	62
46	2
48	0
50	51
51	52
52	61
53	25
55	682
57	70
59	316
60	9
62	12
63	66
64	47
65	22
66	4
67	5
68	2
69	1
70	2
71	5
72	4
74	10
75	21
76	45
77	28
78	22
79	31
80	30
82	10
83	12
85	3
87	161
88	10
90	50
91	24
92	10
93	3
94	3
95	2
96	1
97	0
98	1
99	1
100	7
101	1
103	4
104	2
105	16
106	82
107	41
108	8
109	1
110	0
111	0
115	999
117	7
118	4
119	3
120	3
121	3
122	8
123	37
124	2
125	0
126	0
127	0
128	0
129	0
130	0
132	0
133	2
134	3
135	4
136	26
137	26
138	4
139	0
140	0
141	0
142	0
144	1
145	7
146	12
147	3
149	2
150	4
152	38
153	142
154	9
155	3
156	1
157	0
158	1
159	0
160	1
161	0
162	2
163	1
165	3
166	2
167	0
171	0
172	1
173	0
174	0
175	0
176	0
177	0
178	1
179	2
180	0
181	0
188	0
189	5
190	9
191	1
192	0
193	0
195	0
196	1
197	0
198	2
199	2
201	1
203	0
205	2
206	3
207	35
208	5
209	2
210	0
218	1
219	9
220	1
221	0
231	0
232	0
233	4
235	153
236	70
237	7
238	0
240	0
250	0
251	2
252	0
253	0
256	0
263	0
264	0
265	2
267	120
268	14
269	1
270	0
