Mass Spectrum: 1-(3-Chlorophenyl)-3-(4-methylpiperidino)pyrrolidine-2,5-dione
Formula: C16H19ClN2O2
CAS: 301354-71-2
Molecular weight: 306
m/z	intensity
33	0
34	0
35	1
36	4
37	1
38	6
39	37
40	18
41	140
42	97
43	30
44	17
45	2
46	0
48	0
49	1
50	3
51	4
52	3
53	21
54	93
55	288
56	120
57	37
58	3
59	0
60	0
61	1
62	4
63	15
64	6
65	4
66	2
67	14
68	34
69	44
70	32
71	10
72	2
73	3
75	11
76	2
77	3
78	1
79	4
80	7
81	9
82	69
83	43
84	11
85	2
86	1
87	1
88	1
89	4
90	19
91	4
92	1
93	2
94	4
95	3
96	26
97	29
98	999
99	73
100	4
101	2
102	1
103	0
104	1
105	1
106	1
107	1
108	6
109	7
110	318
111	40
112	4
113	4
114	1
115	0
116	1
117	2
118	2
119	1
120	1
121	1
122	1
123	3
124	45
125	317
126	34
127	14
128	3
129	4
130	0
131	0
132	0
133	0
134	0
135	0
137	3
138	5
139	2
140	2
141	0
142	0
143	0
144	1
145	1
146	9
147	1
148	0
149	0
150	0
151	5
152	45
153	27
154	6
155	7
156	1
157	0
158	0
161	0
162	1
163	1
164	1
165	0
166	1
167	0
168	0
169	0
170	0
171	6
172	2
173	0
174	0
175	0
178	1
179	0
180	4
181	3
182	1
183	0
184	0
185	0
187	0
189	0
191	0
194	0
195	1
197	0
198	0
199	0
205	0
207	7
208	3
209	15
210	2
211	4
212	0
221	0
228	0
234	0
235	0
237	2
238	0
239	1
240	0
243	0
251	1
252	0
253	0
257	0
263	1
264	0
269	0
270	0
272	0
275	0
277	0
278	0
282	0
283	1
284	0
289	1
290	0
291	0
297	0
301	0
305	5
306	7
307	2
308	2
309	0
