Mass Spectrum: 4-Bromo-N-(piperidinomethyl)phthalimide
Formula: C14H15BrN2O2
CAS: 301326-83-0
Molecular weight: 322
m/z	intensity
34	89
36	56
37	91
38	74
40	992
41	289
42	276
44	499
45	29
46	4
47	2
48	12
49	37
50	75
51	41
52	29
53	45
55	204
56	152
57	71
58	10
59	9
60	12
61	23
62	25
63	23
64	19
65	11
66	11
67	18
68	26
69	75
70	61
71	23
73	60
74	257
75	334
76	63
77	41
78	29
79	25
80	25
81	30
82	51
84	999
85	93
86	5
87	7
88	9
89	4
90	8
91	13
92	11
93	6
94	11
95	15
96	88
97	202
98	328
99	26
100	8
101	12
102	33
103	58
104	17
105	21
106	12
108	5
109	3
110	2
111	11
112	10
113	5
114	1
115	4
116	1
117	5
118	2
119	6
121	3
122	3
123	1
125	1
128	7
129	3
130	8
131	6
132	7
135	1
142	2
143	3
145	2
146	1
147	3
148	2
149	8
150	2
152	11
154	92
155	31
156	80
157	19
158	6
159	18
160	4
161	1
165	1
168	7
169	4
170	9
171	9
172	1
178	2
179	1
180	8
181	45
182	92
183	61
184	81
185	15
195	1
208	8
210	11
211	19
213	19
214	1
223	4
225	124
227	130
228	14
229	5
238	50
240	62
241	9
255	2
257	2
279	9
280	1
281	9
283	1
322	11
323	2
324	9
325	1
