Mass Spectrum: 2-Pyrazolin-5-ol, 5-tert-butyl-1-(2-fluorobenzoyl)-3-trifluoromethyl-
Formula: C15H16F4N2O2
CAS: 301321-75-5
Molecular weight: 332
m/z	intensity
38	3
39	9
41	22
42	4
43	2
44	0
50	5
51	6
52	0
53	4
54	3
55	6
57	79
58	5
59	0
61	0
63	1
66	0
67	2
68	5
69	21
70	5
71	4
73	2
74	18
75	54
76	8
77	4
81	0
82	1
83	2
84	1
85	3
90	3
91	1
92	5
95	209
96	11
97	1
101	0
102	1
103	0
104	0
105	0
109	1
110	0
111	0
118	0
119	3
123	999
124	67
125	4
126	0
131	0
133	3
134	0
135	1
138	1
151	0
152	0
153	0
154	0
175	0
176	0
177	3
179	14
180	1
218	1
245	0
247	0
248	16
249	1
257	0
263	26
264	2
270	0
271	1
273	16
275	215
276	14
293	0
299	0
313	5
314	1
317	0
332	4
