Mass Spectrum: 1H-Cyclopenta[c]coumarine, 2,3-dihydro-7-(2-oxo-2-phenylethoxy)-
Formula: C20H16O4
CAS: 301309-01-3
Molecular weight: 320
m/z	intensity
33	2
34	0
35	0
36	0
37	0
39	16
40	8
41	4
42	2
43	3
44	4
45	0
47	0
50	14
51	41
52	4
53	3
55	4
56	0
57	2
58	0
59	0
60	0
62	7
63	18
65	30
66	2
67	0
69	5
70	1
71	1
72	0
74	8
75	13
77	217
78	15
79	2
80	0
81	0
82	0
83	2
84	0
85	1
86	1
87	3
88	2
89	12
91	66
92	4
93	0
94	0
95	0
97	0
98	1
99	0
100	2
101	6
102	11
103	12
105	999
106	56
107	3
108	0
109	0
110	0
111	1
112	1
113	1
115	22
116	5
117	6
118	2
119	6
120	2
121	0
122	0
123	0
124	0
127	38
128	54
129	17
130	1
131	2
132	0
133	0
134	0
135	0
137	0
138	1
139	1
140	1
141	1
142	0
143	0
144	1
145	2
146	0
147	1
148	0
149	0
150	0
151	0
152	0
153	0
155	1
156	0
157	5
158	1
159	1
160	0
161	0
163	0
165	0
166	1
167	0
168	0
169	0
170	0
171	1
173	7
174	2
175	0
176	0
178	0
179	0
183	0
184	1
185	8
186	1
187	1
188	0
189	0
190	0
191	0
198	0
199	1
200	0
201	5
202	4
203	0
205	0
207	0
208	0
210	0
212	0
213	0
214	1
215	4
216	0
217	0
221	0
235	0
263	0
289	0
290	0
291	0
313	0
314	0
315	0
316	1
317	2
320	236
321	44
322	6
323	0
