Mass Spectrum: N-[(6-Methyl-2-pyridyl)aminomethyl]-3-nitrophthalimide
Formula: C15H12N4O4
CAS: 301326-90-9
Molecular weight: 312
m/z	intensity
34	23
36	34
37	211
38	266
39	615
40	394
41	257
42	250
43	138
44	140
45	42
46	47
48	12
49	64
50	123
51	161
52	155
53	153
54	70
55	49
56	18
57	35
58	7
59	10
60	26
61	62
62	93
63	149
64	145
65	359
66	356
67	54
68	27
69	25
70	21
71	17
74	466
75	999
76	112
77	45
78	51
80	459
81	289
82	14
83	11
84	10
85	12
86	6
87	10
88	11
89	18
90	34
91	161
92	236
93	680
94	48
95	11
96	5
97	8
98	4
99	5
101	10
103	348
104	94
105	41
106	25
108	595
109	50
110	6
111	6
112	6
113	3
114	1
115	3
116	5
117	10
118	21
119	84
120	116
121	67
122	11
123	10
124	3
125	2
126	1
127	2
128	2
129	4
130	4
131	8
132	8
133	9
134	9
135	7
136	4
137	7
138	2
139	3
140	11
141	3
143	2
144	3
145	7
146	28
147	16
148	29
149	164
150	15
151	7
152	2
153	1
155	1
157	1
158	2
159	7
160	4
162	68
163	10
164	3
165	5
166	3
167	2
168	2
169	1
171	2
174	1
175	6
176	8
177	7
178	6
179	4
180	3
181	2
182	2
183	2
189	2
190	4
192	224
193	28
194	5
195	2
204	2
205	39
206	9
207	3
208	3
209	7
210	3
211	4
220	1
221	2
228	2
235	2
236	3
237	2
238	1
239	1
240	1
255	2
263	1
265	52
266	8
282	3
283	7
293	4
295	54
296	9
312	12
313	2
