Mass Spectrum: 2-Methyl-4-morpholino-6-(2,3,4,5,6-pentafluoro-.alpha.-methylbenzylidenehydrazino)pyrimidine
Formula: C17H16F5N5O
CAS: 301327-74-2
Molecular weight: 401
m/z	intensity
33	21
40	298
42	825
43	146
44	83
45	86
52	203
53	160
54	125
56	309
57	38
58	22
67	999
68	108
69	39
70	26
75	13
79	194
80	152
81	81
83	11
86	198
93	110
94	41
95	36
96	11
98	26
99	18
105	28
106	25
107	47
108	51
109	50
117	100
118	9
121	118
122	100
123	35
124	28
125	22
135	82
136	37
137	41
140	39
143	45
144	12
148	52
149	38
150	18
151	19
152	42
158	10
161	32
162	46
163	69
164	13
167	111
168	25
173	13
174	20
175	23
176	32
177	37
178	13
181	79
189	11
190	9
193	254
194	82
195	24
204	14
205	10
208	175
209	21
210	20
214	9
230	13
231	12
234	121
235	14
255	104
256	13
260	17
287	10
295	9
296	12
301	24
315	12
316	39
323	60
324	67
325	11
328	10
329	21
336	27
343	81
344	184
345	52
350	45
351	10
356	115
357	20
358	9
359	15
370	266
371	126
372	37
386	24
401	298
402	35
