Mass Spectrum: 4-(4-Fluoro-.alpha.-methylbenzylidenehydrazino)-2-methyl-6-morpholinopyrimidine
Formula: C17H20FN5O
CAS: 301327-63-9
Molecular weight: 329
m/z	intensity
39	177
40	181
42	989
43	402
45	520
51	305
53	141
54	171
56	364
57	63
58	24
60	182
63	31
66	999
68	112
69	64
70	31
71	17
75	292
77	27
79	156
80	162
81	81
82	47
83	37
85	89
86	62
91	43
94	820
96	122
101	110
105	15
107	104
108	90
109	114
110	42
111	15
115	17
118	18
121	403
122	321
123	61
124	21
125	19
132	18
133	29
134	59
136	483
137	161
138	56
144	48
146	25
147	19
148	41
149	81
150	37
151	64
152	39
161	62
162	70
163	121
164	31
165	15
175	24
176	40
177	69
178	21
179	19
187	15
188	37
193	165
194	24
200	14
201	17
202	39
204	14
207	52
208	56
215	23
229	83
234	148
243	77
244	84
245	16
255	15
256	38
257	57
258	21
268	16
269	19
270	66
271	172
272	356
273	176
274	22
284	241
285	48
286	16
287	16
298	428
299	186
300	70
310	28
314	393
315	51
324	40
325	52
328	705
329	864
330	162
