Mass Spectrum: Propenoic acid, 3-[5-(4-chlorophenyl)-2-furyl]-2-cyano-, 3-methylbutyl ester
Formula: C19H18ClNO3
CAS: 301339-72-0
Molecular weight: 343
m/z	intensity
33	3
34	4
35	4
36	27
37	4
38	26
39	100
40	78
41	336
43	999
44	53
45	5
50	18
51	25
52	13
53	26
55	160
57	32
58	1
61	6
62	35
63	53
64	20
65	5
66	1
67	3
68	2
69	55
70	55
71	550
72	26
73	10
74	16
75	56
76	15
77	10
78	4
79	4
80	3
82	12
83	10
84	0
85	6
86	13
87	29
88	42
89	27
90	6
91	4
93	0
96	4
97	5
98	1
99	15
100	3
101	12
102	2
104	2
105	8
106	4
107	1
111	72
112	10
113	71
114	85
115	30
117	4
118	0
119	7
120	0
123	15
124	2
125	9
126	4
127	9
128	12
129	3
131	5
133	2
134	8
135	0
136	17
137	13
138	33
139	130
140	28
141	28
142	2
147	4
148	9
149	120
150	18
151	40
152	7
153	3
154	6
155	2
159	3
160	2
161	13
162	12
163	5
164	123
165	67
166	29
167	7
168	0
171	0
173	51
174	41
175	22
176	15
177	3
178	8
180	2
182	3
188	0
189	1
191	22
192	7
193	70
194	24
195	3
196	3
198	2
200	106
201	20
202	65
203	10
204	11
205	1
206	2
207	2
216	0
218	0
221	1
222	2
227	15
228	13
229	79
230	17
231	25
232	4
238	5
239	0
246	13
247	1
248	4
256	106
257	16
258	35
259	4
271	0
273	444
274	90
275	140
276	29
277	3
286	1
300	5
301	2
302	1
303	0
308	1
328	3
329	2
343	239
344	52
345	74
346	15
347	1
