Mass Spectrum: 2-Pyrazoline, 5-(4-chlorophenyl)-3-(2-fluorophenyl)-1-phenyl-
Formula: C21H16ClFN2
CAS: 301324-12-9
Molecular weight: 350
m/z	intensity
33	2
35	1
36	3
38	14
39	28
40	10
41	19
42	1
43	1
44	1
45	0
46	0
48	0
50	38
51	94
52	16
53	1
54	0
55	0
57	9
59	2
61	4
63	76
64	162
65	47
66	5
68	2
69	4
70	5
71	1
73	7
74	19
75	69
77	292
78	18
81	9
83	28
85	7
86	4
87	7
89	35
91	999
92	70
93	15
94	10
95	16
96	34
97	4
98	2
99	9
101	78
102	31
103	9
104	27
105	22
107	20
109	94
111	39
113	18
114	7
115	9
116	9
117	22
118	16
120	22
121	41
122	58
123	6
125	26
127	15
128	3
129	1
131	3
133	46
134	7
136	14
137	18
138	30
139	10
140	10
141	2
142	1
143	2
144	2
146	16
147	21
149	27
150	7
151	14
152	7
153	2
154	1
155	2
156	4
157	32
160	1
161	1
162	3
163	5
164	6
165	23
166	7
167	4
168	2
169	3
170	7
171	2
172	0
175	38
176	21
178	2
179	2
181	6
183	22
184	4
185	3
186	1
187	4
188	3
189	14
190	8
191	9
192	13
193	19
194	7
195	3
196	4
198	35
199	12
200	3
201	4
202	3
203	4
204	2
205	3
206	4
207	21
208	11
209	36
210	50
211	13
212	21
213	10
214	2
215	1
216	1
217	3
218	6
219	11
220	7
222	12
223	6
225	5
227	28
228	53
229	13
230	20
231	3
232	2
233	0
234	0
235	0
236	1
237	3
238	2
239	2
240	1
241	2
243	5
245	18
246	2
247	4
248	0
249	0
250	0
253	12
255	244
256	42
257	71
258	34
259	6
260	8
261	1
262	0
264	0
265	0
266	0
267	0
269	0
270	0
271	0
272	0
273	1
274	0
275	0
283	0
284	0
285	0
286	0
287	0
289	0
292	0
293	0
294	0
295	0
298	0
311	0
313	1
315	10
316	2
317	0
327	0
329	4
330	1
331	2
332	1
333	0
334	0
343	0
345	2
347	15
350	852
351	208
352	276
353	57
354	6
355	0
356	0
357	0
