Mass Spectrum: Propanamide, 2,2-bis(trifluoromethyl)-N-(2,3-dihydro-1,5-dimethyl-3-oxo-2-phenylpyrazol-4-yl)-
Formula: C16H15F6N3O2
CAS: 301320-21-8
Molecular weight: 395
m/z	intensity
33	11
34	0
36	0
37	2
38	8
39	18
40	10
41	11
42	28
43	9
44	6
46	2
47	0
48	0
50	10
51	41
52	12
53	12
54	26
56	999
57	28
59	0
60	0
61	1
62	2
63	10
64	20
65	19
66	4
67	9
69	75
70	1
71	0
72	0
73	0
74	1
75	6
77	122
78	6
80	3
81	6
83	348
84	29
85	2
86	0
87	0
88	0
91	31
92	15
93	13
94	3
95	12
96	1
97	1
98	0
99	1
100	0
101	1
102	1
103	4
104	9
105	6
106	4
107	0
109	5
110	1
111	4
113	7
115	2
116	1
117	1
118	8
119	14
120	6
121	2
123	7
124	1
125	1
126	0
127	1
128	1
129	2
130	2
131	2
132	12
133	1
134	0
136	1
137	4
138	0
139	1
140	0
141	0
142	0
143	1
145	29
146	6
147	2
148	0
149	0
150	0
152	0
153	0
154	0
155	0
156	0
157	0
158	2
159	6
160	1
161	0
162	0
164	1
165	6
166	0
169	0
170	0
171	1
172	2
173	2
174	1
175	0
178	0
181	0
182	0
184	3
185	1
186	1
187	2
188	2
189	0
190	0
191	0
193	25
194	1
198	0
199	0
200	2
202	42
203	17
204	2
205	0
206	0
207	0
212	1
213	0
214	1
215	3
216	1
217	0
218	0
226	3
230	319
231	35
232	4
233	0
234	0
246	0
247	0
268	0
273	0
274	2
275	0
276	1
277	0
278	1
290	1
291	0
303	0
304	0
305	0
308	3
310	1
311	0
325	0
326	5
327	1
328	2
329	0
356	1
357	0
366	0
367	0
376	0
377	0
389	0
390	0
391	1
395	149
396	24
397	2
398	0
