Mass Spectrum: 4-(4-Ethoxy-2-hydroxybenzylidenehydrazino)-2-methyl-6-morpholinopyrimidine
Formula: C18H23N5O3
CAS: 301327-78-6
Molecular weight: 357
m/z	intensity
34	6
39	441
40	293
41	518
42	999
43	332
44	238
45	185
46	23
51	315
52	329
53	372
54	241
55	229
56	292
57	100
58	51
59	46
60	6
63	181
65	328
66	485
67	857
68	718
69	228
70	49
71	36
72	11
73	7
74	9
75	19
76	21
77	39
79	385
80	326
81	270
82	91
83	48
84	40
85	96
86	153
87	12
88	8
90	35
91	65
92	63
93	126
94	176
95	90
96	78
97	59
98	17
99	7
100	8
101	8
102	8
103	7
104	14
105	33
106	59
107	124
108	260
109	497
110	111
111	34
112	14
113	10
114	5
115	6
116	6
117	11
118	22
119	34
121	164
122	157
123	133
124	56
125	46
126	10
128	6
129	7
130	7
131	14
132	17
135	338
136	575
137	626
138	96
139	19
142	6
143	10
144	20
145	11
146	20
147	44
149	620
150	91
151	127
152	50
153	27
154	6
156	8
157	7
158	11
159	10
160	17
163	729
164	249
165	115
166	37
167	7
171	15
172	9
173	9
174	11
175	27
176	11
177	15
179	155
180	19
184	6
185	9
186	8
187	8
188	8
189	5
190	9
191	16
193	370
194	761
195	101
196	9
200	8
201	6
213	8
214	6
219	9
220	24
242	6
243	6
254	8
270	7
271	8
272	7
281	9
282	23
283	14
284	7
294	8
298	9
299	13
300	40
301	7
308	19
309	10
310	14
311	17
312	17
315	22
326	6
327	6
328	19
337	7
338	28
340	449
341	73
342	8
357	748
358	112
359	13
