Mass Spectrum: 2-[O-Chlorophenyl]-5-[[4-[diethylamino]-1-methylbutyl]amino]pyrido[3,4-b]pyrazine
Formula: C22H28ClN5
CAS: 30146-48-6
Molecular weight: 397
m/z	intensity
41	92
42	82
43	36
44	38
45	2
46	1
49	6
50	5
51	11
52	5
53	8
54	10
56	97
58	198
59	5
62	0
63	6
64	14
65	16
66	6
67	13
69	39
70	46
71	56
72	35
73	25
74	7
75	7
76	14
77	16
78	11
79	3
80	2
82	12
84	79
86	999
87	46
89	7
90	2
91	14
92	18
93	3
94	0
96	9
99	108
100	10
101	3
102	9
103	8
104	11
105	2
110	9
112	134
113	11
114	6
115	2
116	3
117	7
118	9
119	6
123	1
124	6
126	78
127	16
128	1
129	3
130	3
131	3
132	1
133	3
134	2
135	1
136	9
137	5
138	8
139	11
140	18
142	13
144	9
145	4
148	1
149	1
150	1
151	1
152	4
153	3
155	1
157	2
162	51
164	18
165	2
167	1
170	0
173	0
177	3
178	1
179	5
180	2
183	2
184	4
185	1
187	10
188	0
189	2
191	5
192	1
193	2
194	3
198	2
199	2
200	1
204	6
206	14
207	3
213	3
215	3
221	13
222	2
228	8
230	9
231	2
232	2
240	15
241	15
242	28
243	8
244	7
245	2
247	3
255	63
256	63
257	91
258	29
259	25
260	4
261	1
266	1
268	40
269	39
270	19
271	12
272	2
281	59
282	140
283	265
284	95
285	89
286	17
287	3
289	6
292	2
293	0
294	7
295	45
296	64
297	64
298	29
299	14
300	3
306	1
307	7
309	59
310	15
311	28
312	6
313	4
323	100
324	591
325	143
326	197
327	46
328	11
329	2
368	26
369	3
370	9
371	3
372	1
382	2
396	9
397	165
398	45
399	56
400	15
401	2
