Mass Spectrum: 2-Chloro-5-[[4-[diethylamino]-1-methylbutyl]amino]pyrido[3,4-b]pyrazine
Formula: C16H24ClN5
CAS: 30146-52-2
Molecular weight: 321
m/z	intensity
41	166
42	159
43	63
44	55
45	1
47	17
49	6
51	32
52	16
53	15
54	19
55	7
56	122
58	237
59	5
60	5
62	5
63	9
64	16
65	8
66	6
67	16
68	14
69	36
70	58
71	66
72	54
73	28
74	7
76	16
77	11
78	3
79	12
80	1
82	12
85	76
86	999
87	50
88	6
89	2
90	7
91	11
92	4
96	8
98	13
99	107
100	8
103	13
104	7
110	8
112	47
113	4
114	6
116	3
117	2
118	22
119	4
124	5
126	67
127	4
128	2
130	15
131	2
137	11
138	5
139	10
140	8
142	10
143	2
144	7
145	9
146	1
152	1
153	7
154	2
156	1
159	2
164	38
165	3
166	31
167	3
168	6
171	1
179	25
180	44
181	42
182	16
183	7
190	1
192	12
193	24
194	2
195	12
203	1
205	15
206	74
207	89
208	27
209	22
210	2
216	1
218	7
219	9
220	11
221	17
222	6
223	5
231	4
233	22
234	4
235	8
244	1
247	35
248	126
249	49
250	48
251	13
285	1
321	21
322	5
323	7
324	1
