Mass Spectrum: 2-[p-Chlorophenyl]-5-[[4-[diethylamino]-1-methylbutyl]amino]pyrido[3,4]pyrazine
Formula: C22H28ClN5
CAS: 30146-50-0
Molecular weight: 397
m/z	intensity
41	95
42	79
43	36
44	39
45	1
46	3
49	4
50	5
51	9
52	5
53	8
54	9
56	98
58	202
59	5
63	6
64	12
65	15
66	5
67	14
69	42
70	44
71	60
72	38
73	28
74	7
75	7
76	12
77	13
78	10
79	3
80	2
82	11
84	74
86	999
87	42
88	1
89	5
90	4
91	9
92	17
93	2
96	8
99	105
100	9
101	4
102	4
103	5
104	6
105	1
110	10
112	167
113	13
114	6
115	1
116	1
117	5
118	7
119	4
120	1
123	1
124	5
126	71
127	19
128	3
130	4
131	2
133	3
134	1
136	14
137	6
138	8
139	14
140	13
141	2
142	9
144	4
145	2
148	0
149	2
150	2
151	1
152	3
153	1
154	1
160	1
162	53
164	18
165	1
177	2
178	0
179	5
180	2
183	5
185	2
187	8
189	1
191	5
192	1
193	2
194	2
199	7
204	5
206	12
207	3
213	2
214	1
215	1
221	7
222	2
228	9
229	1
230	8
231	2
232	2
233	2
240	14
241	15
242	25
243	7
244	7
245	2
247	2
248	2
255	58
256	65
257	84
258	30
259	22
260	4
266	2
268	33
269	34
270	17
271	11
272	2
279	2
281	49
282	126
283	236
284	85
285	74
286	15
287	3
289	0
294	2
295	44
296	54
297	58
298	27
299	14
300	4
307	8
309	47
310	13
311	23
312	6
313	3
323	89
324	458
325	143
326	138
327	35
328	10
329	2
368	10
370	12
371	2
372	1
382	2
385	0
396	5
397	81
398	59
399	27
400	9
401	2
