Mass Spectrum: 8-Amino-2-[p-chlorophenyl]pyrido[3,4-b]pyrazine
Formula: C13H9ClN4
CAS: 30146-42-0
Molecular weight: 256
m/z	intensity
41	86
42	8
43	7
45	3
46	3
49	5
50	123
51	123
52	118
53	31
55	22
57	4
61	23
62	53
63	108
64	215
65	999
66	83
67	28
68	3
69	9
70	5
71	3
73	36
74	52
75	143
76	47
77	33
78	3
79	22
83	10
84	9
85	13
86	19
87	33
88	30
89	35
90	14
91	5
92	628
93	25
97	22
98	7
99	37
100	30
101	70
102	72
103	10
104	2
110	10
111	40
112	9
113	19
114	73
115	3
116	15
118	38
119	26
120	3
123	37
125	21
126	20
127	5
128	45
129	10
136	48
137	55
138	68
139	28
140	33
141	2
143	15
145	66
146	3
148	3
149	3
150	12
151	3
152	3
161	2
162	5
165	12
166	5
167	5
174	11
176	3
193	15
194	15
201	5
202	5
204	5
221	65
222	6
228	4
229	28
230	5
231	10
255	61
256	977
257	229
258	338
259	67
260	4
