Mass Spectrum: 8-Amino-2,3-bis[3,4-dichlorophenyl]pyrido[3,4-b]pyrazine
Formula: C19H10Cl4N4
CAS: 30146-46-4
Molecular weight: 434
m/z	intensity
41	28
42	4
43	4
47	2
49	8
50	18
51	14
52	35
53	11
54	3
55	5
61	6
62	10
63	31
64	162
65	999
66	52
67	14
69	2
72	3
73	15
74	22
75	31
76	9
77	6
78	3
79	6
80	2
84	10
85	13
86	17
87	21
88	8
89	3
90	16
91	53
92	546
93	29
94	4
96	3
97	11
98	12
99	17
100	31
101	4
102	4
104	5
105	3
106	10
107	9
109	46
110	14
111	17
112	9
113	4
114	3
116	2
118	28
119	3
120	8
121	6
122	12
123	25
124	15
125	10
133	12
134	9
135	10
136	31
137	13
138	16
139	5
140	3
141	5
144	3
145	27
146	6
147	23
148	9
149	7
150	10
151	16
152	3
154	4
155	7
156	4
157	12
158	4
159	13
160	5
161	7
162	4
163	3
164	9
165	8
166	3
167	3
168	16
170	6
171	52
172	33
173	31
174	30
175	10
176	6
182	33
183	19
184	9
185	2
186	6
187	5
188	5
193	2
194	3
195	2
196	5
197	6
198	5
199	27
200	8
201	17
202	6
208	12
209	5
210	7
211	5
212	5
213	3
217	6
218	6
219	3
220	3
222	5
223	3
224	5
225	2
226	3
227	4
228	4
233	5
234	4
235	11
236	7
237	6
238	5
239	6
240	3
244	12
245	3
246	8
247	3
248	4
258	6
260	6
261	3
262	9
263	12
264	7
265	11
266	6
267	8
268	4
269	4
270	3
271	5
272	2
273	3
274	3
275	3
276	2
287	7
289	42
290	2
291	25
292	6
293	9
294	5
301	7
302	5
303	6
304	3
305	5
307	2
309	3
310	3
311	3
312	3
314	4
316	3
328	4
329	9
330	3
331	4
336	3
337	4
338	4
339	7
340	2
341	3
363	8
364	49
365	19
366	40
367	11
368	7
373	10
374	3
375	9
376	2
377	3
383	3
391	4
398	14
399	62
400	28
401	62
402	21
403	19
404	6
405	2
419	3
433	43
434	526
435	234
436	697
437	340
438	343
439	181
440	81
441	31
442	7
