Mass Spectrum: 7-Ketodiosgenin acetate
Formula: C29H42O5
CAS: 30155-20-5
Molecular weight: 470
m/z	intensity
41	166
43	999
45	25
51	1
53	37
55	269
56	35
57	49
59	4
61	8
65	16
67	93
69	284
70	19
71	14
72	3
73	14
77	42
79	75
81	82
82	8
83	28
84	4
85	12
91	108
93	84
95	77
97	59
98	3
99	5
103	8
105	84
107	82
108	10
109	39
110	12
111	9
112	9
113	4
115	31
117	35
119	52
121	48
122	12
123	14
125	35
126	39
127	12
128	12
129	15
131	34
133	102
134	44
135	33
136	5
137	10
139	689
140	62
141	12
142	5
143	18
145	40
146	4
147	36
148	6
149	10
151	6
152	6
153	5
154	1
155	11
157	25
158	2
159	31
161	51
162	2
163	11
165	20
166	1
167	11
168	19
169	8
171	14
173	31
174	32
175	11
176	2
177	4
179	8
181	2
182	38
183	10
185	18
187	53
188	6
189	11
190	2
191	2
193	4
195	9
197	12
199	18
200	3
201	7
203	1
207	4
209	6
211	9
212	1
213	12
214	22
215	9
217	1
221	2
223	5
225	9
226	1
227	17
228	27
229	21
230	3
234	1
237	5
239	8
240	2
241	12
242	11
243	5
247	5
249	3
251	5
253	8
254	11
255	3
256	4
263	1
265	6
266	6
267	90
268	28
269	9
270	1
271	20
272	5
279	4
281	26
282	7
283	6
284	1
285	4
296	472
297	101
298	13
312	4
314	1
323	6
325	4
327	20
328	5
338	6
340	32
341	26
342	6
356	12
357	5
370	1
382	2
395	8
396	3
398	33
399	9
401	3
409	5
410	4
411	66
412	15
413	1
427	4
468	5
469	24
470	53
471	16
472	2
473	0
474	0
