Mass Spectrum: N-(2-Acetamido-5-nitrophenyl)acetamide
Formula: C10H11N3O4
CAS: 30152-85-3
Molecular weight: 237
m/z	intensity
30	72
38	6
39	14
40	53
41	20
42	36
43	999
44	129
50	18
51	53
52	62
53	28
54	4
57	5
62	3
63	17
64	5
65	8
67	9
76	11
77	20
78	53
79	54
80	55
90	13
91	7
94	31
95	21
105	49
106	64
107	94
108	8
119	4
121	5
122	11
123	69
131	9
132	10
133	5
134	9
136	78
137	28
147	13
148	12
149	10
152	31
153	748
154	54
163	3
177	209
178	123
179	20
180	62
195	487
196	50
197	7
219	3
237	247
238	30
239	3
