Mass Spectrum: 3-Nitro-benzoic acid 4-benzyloxy-phenyl ester
Formula: C20H15NO5
CAS: 301657-35-2
Molecular weight: 349
m/z	intensity
38	4
39	33
40	9
41	17
42	0
43	20
44	122
45	3
46	0
48	0
50	53
51	16
52	10
53	3
54	15
55	5
56	1
57	36
58	2
60	4
61	4
62	2
63	24
64	23
65	137
66	8
67	0
68	1
69	10
70	4
71	14
73	5
74	4
75	34
76	157
77	12
78	1
79	0
80	0
81	2
82	4
83	9
84	2
85	8
86	2
87	0
88	0
89	14
90	15
91	999
92	116
93	4
94	1
95	0
96	0
97	2
99	4
100	2
101	1
102	0
103	2
104	109
105	9
106	0
108	0
109	0
110	0
111	1
112	1
113	5
114	0
115	6
116	2
118	0
119	2
120	1
121	0
122	6
123	0
124	1
125	0
127	4
128	0
129	1
130	0
133	0
134	9
139	4
140	1
141	4
142	2
143	1
144	0
145	0
150	246
151	19
152	4
153	0
155	3
156	0
157	0
158	0
160	0
161	0
162	0
163	0
164	0
165	1
166	0
168	1
169	6
170	3
171	0
179	0
181	1
182	0
189	0
190	0
191	0
195	10
196	0
197	1
201	0
202	0
203	5
204	0
210	0
211	0
212	0
213	0
216	0
217	0
219	0
221	0
231	12
232	1
234	0
239	0
250	0
252	0
261	0
271	0
280	0
302	0
303	0
349	73
350	15
351	1
