Mass Spectrum: 1,3-Cyclohexadiene, 5-butyl-
Formula: C10H16
CAS: 30168-57-1
Molecular weight: 136
m/z	intensity
26	12
27	94
28	14
29	80
30	1
37	1
38	7
39	85
40	11
41	63
42	5
43	7
49	1
50	17
51	44
52	23
53	28
54	3
55	9
56	0
57	4
58	0
61	1
62	5
63	18
64	3
65	43
66	26
67	18
68	2
69	0
73	0
74	4
75	2
76	3
77	295
78	222
79	999
80	129
81	13
82	4
83	0
85	0
86	0
87	1
89	5
90	1
91	177
92	30
93	134
94	101
95	13
96	1
98	0
101	0
102	2
103	9
104	4
105	20
106	4
107	51
108	8
109	0
115	6
116	2
117	4
118	0
119	1
120	0
121	9
122	0
127	0
128	1
129	1
130	1
131	7
132	1
133	0
134	1
135	1
136	308
137	32
138	2
