Mass Spectrum: 1H-[1,2]-Dithiolo[3,4-c]quinoline-1-thione, 4,5-dihydro-5-(2-furoyl)-4,4-dimethyl-
Formula: C17H13NO2S3
CAS: 301655-36-7
Molecular weight: 359
m/z	intensity
33	1
34	2
35	0
36	1
37	7
38	30
39	214
40	15
41	21
42	11
43	7
44	21
45	21
47	3
48	0
49	0
50	8
51	21
52	6
53	9
54	2
55	5
56	4
57	7
58	5
59	7
60	1
61	2
62	7
63	15
64	9
65	8
66	7
67	29
68	3
69	23
70	6
71	8
72	2
73	11
74	5
75	8
76	10
77	15
78	5
79	2
80	1
81	3
82	8
83	4
84	2
85	3
86	3
87	6
88	9
89	13
90	3
91	3
92	2
93	24
95	999
96	53
97	6
98	1
99	2
100	4
101	5
102	8
103	3
104	2
105	2
106	5
107	2
108	3
109	2
110	1
111	14
112	3
113	6
114	9
115	17
116	5
117	4
118	3
119	3
120	7
121	3
122	2
123	2
124	1
125	1
126	3
127	5
128	9
129	8
130	2
131	1
132	9
133	3
134	3
135	2
136	1
137	0
138	1
139	3
140	7
141	3
142	1
143	2
144	8
145	4
146	7
147	3
148	3
149	1
150	0
151	1
152	2
153	2
154	4
155	1
156	1
157	1
158	4
159	3
160	2
161	1
162	1
163	2
164	3
165	1
166	2
167	3
168	1
169	1
170	2
171	5
172	11
173	5
174	2
175	1
176	1
177	2
178	1
179	1
180	1
181	0
182	0
183	1
184	2
185	3
186	3
187	3
188	2
189	2
190	3
191	2
192	1
193	0
194	0
195	0
196	0
197	1
198	2
199	3
200	10
201	2
202	2
203	1
204	2
205	1
206	2
207	2
208	3
209	1
210	1
211	0
213	0
214	0
215	2
216	5
217	1
218	1
219	1
220	6
221	3
222	5
223	1
224	0
225	0
228	0
229	0
230	2
231	1
232	1
233	0
234	0
235	0
245	0
246	0
247	3
248	14
249	12
250	4
251	1
252	0
262	0
263	0
264	5
265	1
266	1
267	0
276	0
279	0
283	0
295	0
339	0
341	1
344	38
345	6
346	5
347	0
348	0
354	0
355	0
356	0
359	29
360	5
361	4
362	0
