Mass Spectrum: N-ethyl-2,3-methylenedioxyphenethylamine
Formula: C11H15NO2
CAS: 301642-49-9
Molecular weight: 193
m/z	intensity
38	3
39	18
40	2
41	5
42	13
43	7
44	3
50	12
51	56
52	11
53	9
54	2
55	3
56	23
58	999
59	38
61	1
62	5
63	16
64	6
65	30
66	3
67	2
74	3
75	3
76	5
77	63
78	19
79	17
80	2
81	1
89	20
90	5
91	41
92	5
93	2
96	1
103	2
104	3
105	14
106	6
107	3
116	1
117	2
118	3
119	7
120	1
121	2
131	2
132	1
133	1
134	7
135	38
136	13
137	1
146	1
147	4
148	4
149	13
150	1
162	1
163	2
176	2
178	1
191	1
192	3
193	19
194	2
