Mass Spectrum: 2-Pyrazoline, 5-(4-bromophenyl)-1,3-di(4-chlorophenyl)-
Formula: C21H15BrCl2N2
CAS: 301654-34-2
Molecular weight: 444
m/z	intensity
33	130
34	23
36	52
37	22
38	98
40	256
42	54
44	134
46	1
47	1
50	93
51	175
52	23
54	7
55	30
57	30
59	5
60	9
61	24
63	308
65	15
66	5
67	4
68	11
69	9
70	8
71	11
73	40
75	245
76	140
77	237
79	13
80	24
81	14
82	19
83	11
85	33
87	21
90	591
92	5
94	17
95	24
96	9
97	30
98	44
99	34
101	189
103	156
104	11
105	7
106	3
107	4
108	4
109	10
111	289
113	78
114	51
115	32
117	42
119	8
120	5
121	4
122	12
125	999
127	425
129	11
131	5
132	4
133	7
134	7
135	5
136	12
138	115
139	34
140	20
141	6
142	3
143	3
144	2
146	29
147	37
149	35
151	50
152	20
153	9
154	6
155	9
156	5
157	9
158	4
159	1
161	2
162	19
164	31
165	49
167	3
169	29
171	32
172	4
173	2
174	1
175	2
176	6
177	7
178	8
179	4
181	22
182	74
184	87
185	7
187	12
188	17
189	92
191	92
192	20
193	8
194	2
195	1
197	1
199	18
201	6
202	5
203	23
204	15
206	11
207	2
208	1
211	1
212	2
213	4
214	2
215	3
216	2
217	10
218	9
219	5
220	2
221	7
223	36
225	19
226	95
227	35
228	29
229	7
230	1
235	1
237	10
239	32
240	7
241	8
242	1
248	2
250	2
251	1
252	3
253	5
254	8
255	3
256	2
259	1
260	3
261	7
262	22
263	9
264	15
265	3
266	2
270	2
271	3
272	2
273	2
274	1
275	1
277	1
284	1
285	1
286	2
287	3
288	10
289	128
290	27
291	78
293	36
294	12
295	3
296	3
303	1
306	1
307	2
308	2
309	2
318	4
319	2
320	4
322	1
329	2
363	2
364	2
365	6
366	6
367	5
368	3
369	1
409	1
410	1
411	2
412	1
439	3
440	6
442	23
443	21
444	93
445	46
446	200
447	84
448	91
449	21
450	13
451	1
