Mass Spectrum: Cyclohexene, 4-(4-ethylcyclohexyl)-1-pentyl-
Formula: C19H34
CAS: 301643-32-3
Molecular weight: 262
m/z	intensity
27	114
29	208
35	14
36	23
37	6
39	204
41	919
42	120
43	216
44	11
51	12
53	187
54	190
55	999
56	72
57	137
65	68
67	757
68	159
69	852
70	49
71	17
77	108
78	45
79	359
80	172
81	843
82	413
83	521
84	37
91	84
92	19
93	166
94	173
95	765
96	208
97	104
98	7
105	18
107	97
108	63
109	191
110	68
111	41
119	16
121	158
122	72
123	211
124	125
125	65
135	86
136	123
137	198
138	61
139	15
149	32
150	55
151	23
152	8
163	30
164	61
165	12
177	68
178	28
191	93
192	22
205	51
206	20
219	32
220	45
221	13
233	14
234	3
262	64
263	13
