Mass Spectrum: 3,5-Dinitro-benzoic acid 4-benzyloxy-phenyl ester
Formula: C20H14N2O7
CAS: 301657-33-0
Molecular weight: 394
m/z	intensity
34	0
36	0
37	1
38	6
39	42
40	7
41	14
42	3
43	6
44	21
45	2
46	0
48	0
50	11
51	19
52	11
53	20
54	18
55	9
56	1
57	3
58	1
59	0
60	0
61	2
62	6
63	24
64	10
65	109
66	7
67	1
68	0
69	2
70	1
71	2
72	0
73	3
74	8
75	32
76	6
77	7
78	1
79	2
80	5
81	17
82	7
83	1
84	0
85	1
86	1
87	1
88	1
89	19
91	999
92	80
93	4
94	1
95	1
96	1
97	0
98	0
99	0
101	1
103	8
104	5
105	3
106	2
107	4
108	8
109	11
110	3
111	1
112	0
113	0
114	0
115	3
116	1
117	0
118	0
119	1
120	5
121	1
122	1
123	0
124	0
125	0
126	0
127	0
128	1
129	0
132	0
133	0
134	1
135	5
136	0
137	0
138	0
139	1
140	0
141	2
142	1
143	0
144	0
145	0
147	0
149	18
150	15
151	2
152	2
153	1
155	0
157	0
159	0
163	0
164	0
165	2
166	0
167	0
168	0
169	1
170	0
171	0
173	0
175	0
179	0
180	0
181	2
182	0
183	0
184	0
185	0
195	13
196	1
197	2
198	4
200	56
201	8
202	1
207	0
214	0
215	0
223	0
228	0
240	0
267	0
270	0
281	0
290	0
334	0
335	0
341	0
349	0
364	0
365	0
394	15
395	3
396	0
