Mass Spectrum: 1,2,5-Thiadiazol-3(2H)-one, 4-(4-morpholinyl)-
Formula: C6H9N3O2S
CAS: 30165-97-0
Molecular weight: 187
m/z	intensity
33	13
34	4
35	0
36	1
38	1
39	13
40	36
42	338
43	63
44	36
46	229
47	34
48	12
49	3
50	1
52	7
55	999
56	127
57	98
58	31
59	21
60	23
61	3
62	1
63	1
64	3
66	6
67	10
69	73
70	10
72	62
73	25
74	43
75	42
76	5
77	2
78	13
79	8
81	8
83	44
84	29
85	48
86	156
87	18
88	8
89	3
90	1
91	1
92	1
93	1
95	16
97	12
98	6
99	26
100	18
101	8
102	12
103	4
104	1
105	0
106	0
107	0
108	1
109	2
111	22
112	17
113	40
115	78
116	29
117	7
118	2
119	0
120	0
121	0
123	0
124	5
126	16
129	859
130	100
131	37
132	5
133	0
135	0
136	1
137	1
138	1
139	1
140	2
141	2
143	106
144	24
145	26
146	1
147	0
151	0
152	2
154	73
156	31
157	21
158	14
159	2
160	0
164	0
168	1
170	2
172	74
173	3
174	2
183	1
187	757
188	55
189	32
190	2
191	0
