Mass Spectrum: Benzyl-N-(1-benzyl-2-hydroxyethyl)-N-methylcarbamat
Formula: C18H21NO3
CAS: 301833-79-4
Molecular weight: 299
m/z	intensity
14	0
15	5
16	1
17	2
18	6
26	1
27	6
28	10
29	6
30	2
31	9
32	0
37	0
38	2
39	27
40	2
41	12
42	70
43	7
44	9
45	1
46	0
49	0
50	7
51	21
52	5
53	2
54	1
55	6
56	9
57	5
58	4
59	0
60	1
61	0
62	4
63	20
64	6
65	121
66	7
67	1
68	1
69	2
70	2
71	3
72	8
73	4
74	6
75	2
76	3
77	37
78	10
79	31
80	2
81	1
82	0
83	2
84	1
85	1
86	1
87	0
88	1
89	22
91	999
92	96
93	4
94	0
95	1
96	0
97	1
98	0
99	2
100	12
101	1
102	1
103	4
104	2
105	10
106	1
107	18
108	5
109	1
110	0
111	0
112	0
113	1
115	3
116	1
117	5
118	2
119	3
120	1
121	0
123	0
125	0
126	1
127	0
128	0
129	0
130	1
131	1
132	4
133	2
134	5
135	1
137	0
139	0
144	0
145	0
146	1
147	0
148	0
149	0
150	0
151	3
152	0
153	0
162	0
164	52
165	6
166	1
167	0
171	0
176	0
177	0
178	1
179	0
180	2
181	0
182	0
190	0
192	0
193	0
194	0
205	0
208	62
209	8
210	1
222	0
224	12
225	2
226	0
268	4
269	0
283	0
299	1
300	0
301	0
