Mass Spectrum: Cyclobutane, 1,2-diphenyl-
Formula: C16H16
CAS: 3018-21-1
Molecular weight: 208
m/z	intensity
26	8
27	19
28	22
29	25
30	0
32	2
38	0
39	17
40	3
41	57
42	32
43	58
44	2
50	2
51	11
52	7
53	4
54	2
55	19
56	71
57	50
58	2
59	0
63	4
64	0
65	8
66	0
67	1
68	1
69	15
70	9
71	12
72	0
74	0
75	1
76	4
77	41
78	101
79	7
83	3
84	20
85	6
86	5
88	0
89	6
90	1
91	20
92	1
98	1
100	1
101	1
102	14
103	98
104	999
105	86
106	3
115	14
116	3
117	9
118	1
127	2
128	6
129	5
130	2
131	0
139	0
141	1
142	0
151	1
152	4
153	1
154	0
164	0
165	9
166	2
167	2
176	2
177	2
178	16
179	11
180	7
181	1
189	1
190	0
191	2
192	1
193	2
194	0
202	1
203	1
204	0
205	1
206	1
207	0
208	34
209	6
210	0
