Mass Spectrum: 2-Cyclohexen-1-one, 4-hydroxy-
Formula: C6H8O2
CAS: 30182-12-8
Molecular weight: 112
m/z	intensity
26	220
27	375
29	334
30	31
31	74
37	53
38	71
39	265
40	119
41	182
42	137
43	155
44	67
50	42
51	67
53	116
54	130
55	797
56	388
57	76
65	53
66	67
67	38
68	278
69	96
70	253
82	51
83	164
84	999
85	60
112	182
113	14
