Mass Spectrum: 1-[2,2,2-Trichloro-1-(m-toluamido)ethyl]-3-(2-pyridyl)-2-thiourea
Formula: C16H15Cl3N4OS
CAS: 301814-85-7
Molecular weight: 416
m/z	intensity
34	10
35	34
36	130
37	20
38	72
39	146
40	131
41	53
43	23
44	47
46	2
47	6
48	4
49	6
50	28
51	90
52	41
53	11
55	12
56	4
57	9
59	3
60	5
61	5
62	15
63	47
65	215
66	29
67	70
69	7
70	3
71	4
73	4
74	5
75	8
76	9
78	156
79	36
80	4
81	3
82	6
83	7
84	6
85	5
86	3
87	3
89	57
91	518
92	33
94	122
95	11
96	2
97	2
98	1
99	2
100	1
101	2
102	3
104	8
105	34
106	4
107	2
108	1
109	2
110	2
111	2
112	2
113	2
114	3
116	11
117	32
119	999
120	89
122	4
123	8
124	1
125	2
126	1
127	1
128	2
129	1
130	2
131	2
132	3
133	4
134	7
135	6
136	5
137	1
138	1
139	1
140	2
141	3
142	1
143	1
144	1
145	2
146	3
147	1
148	1
149	5
150	1
151	2
152	8
153	17
154	5
155	5
159	1
161	1
165	1
166	1
167	1
168	6
169	5
170	2
171	2
183	3
184	1
187	6
188	1
189	3
190	1
191	1
192	1
193	1
194	1
195	1
196	1
197	1
205	1
220	1
221	4
222	1
223	3
225	4
227	1
229	1
235	1
236	1
238	16
240	267
241	38
242	3
249	1
250	1
251	1
252	1
268	2
270	1
284	1
285	2
286	15
287	3
288	5
289	1
357	1
359	1
