Mass Spectrum: 1-(2,5-Dichlorophenyl)-3-(2,2,2-trichloro-1-hexanamidoethyl)-2-thiourea
Formula: C15H18Cl5N3OS
CAS: 301814-08-4
Molecular weight: 463
m/z	intensity
35	83
36	356
38	179
39	119
40	95
41	313
43	999
45	191
47	15
48	10
49	18
50	18
51	16
52	24
53	22
55	169
56	23
57	25
58	12
59	36
60	36
61	23
62	39
63	68
64	25
65	14
66	8
67	9
68	11
69	45
71	273
73	57
74	34
75	30
76	13
77	6
78	5
79	9
81	19
82	26
83	31
84	16
85	22
86	11
87	36
88	12
89	11
90	38
91	14
92	6
93	6
94	4
95	8
97	28
99	424
100	29
101	11
103	6
104	2
105	4
106	7
107	7
108	9
109	29
110	21
111	43
112	15
113	23
114	8
115	9
116	49
117	9
118	7
119	8
120	5
121	4
122	5
124	32
125	18
126	42
127	70
128	17
129	42
130	6
131	9
133	53
134	9
135	18
136	7
137	7
138	4
139	3
140	3
141	3
142	6
143	11
145	23
146	28
147	11
148	24
149	7
150	12
151	4
152	7
153	13
155	10
156	3
157	4
158	3
159	9
161	123
162	17
163	68
165	19
166	2
167	4
168	16
169	16
170	10
171	16
172	7
173	6
174	4
175	2
176	2
177	2
178	2
179	3
180	2
181	2
182	2
184	35
185	141
186	34
187	67
188	20
189	16
190	8
191	4
192	2
193	1
194	2
195	11
196	2
197	6
199	3
201	3
203	51
204	28
205	33
206	17
207	8
208	5
209	3
210	9
211	3
212	7
213	2
214	3
215	2
216	2
217	2
218	2
219	5
220	2
221	7
222	2
223	5
224	3
225	8
226	2
227	5
229	2
230	2
231	6
233	4
242	5
243	4
244	17
245	4
246	16
247	2
248	5
250	1
257	1
258	4
259	10
260	5
261	8
262	3
263	2
277	4
278	3
279	4
280	2
281	2
283	2
291	1
293	13
294	29
295	11
296	28
297	8
298	9
299	4
300	2
301	2
311	2
313	30
314	6
315	34
316	5
317	16
318	2
319	4
330	2
332	3
334	2
357	2
391	1
392	3
393	2
394	3
428	12
429	4
430	15
431	3
432	8
433	1
434	2
