Mass Spectrum: 1-(4-Methylphenyl)-1H-pyrrole-2-carbaldehyde
Formula: C12H11NO
CAS: 30186-38-0
Molecular weight: 185
m/z	intensity
33	3
39	449
41	79
42	2
43	1
44	3
45	1
50	116
51	164
52	44
53	28
54	2
55	1
57	1
58	2
59	1
60	0
62	54
63	155
65	340
66	35
67	7
68	2
69	1
71	7
72	0
74	20
75	29
77	173
78	70
80	4
81	0
83	8
85	5
86	12
87	13
89	120
91	580
92	999
94	719
95	23
96	0
98	1
99	2
101	13
102	22
103	25
104	14
105	3
106	0
111	0
113	10
115	118
116	36
117	15
118	8
119	4
125	2
127	85
128	129
129	163
130	33
131	8
132	0
140	43
141	44
142	19
143	2
144	0
152	4
154	73
156	188
157	44
158	5
159	0
165	0
166	3
167	9
168	33
169	39
170	93
171	10
179	0
184	440
185	887
186	110
187	9
