Mass Spectrum: N-[1-(tert-Butylamino)-2,2,2-trichloroethyl]-o-toluamide
Formula: C14H19Cl3N2O
CAS: 301815-77-0
Molecular weight: 336
m/z	intensity
34	18
36	137
38	68
39	153
40	166
41	257
42	100
43	27
44	92
45	15
46	8
47	6
48	4
49	5
50	18
51	35
52	9
53	13
55	39
57	325
58	589
60	5
62	17
63	43
65	185
66	11
67	4
68	4
69	7
70	6
71	5
72	9
73	3
74	6
75	7
76	10
77	21
78	5
79	5
80	3
81	5
82	9
83	11
84	11
85	20
86	4
87	4
89	58
91	454
92	24
93	9
94	2
95	4
96	1
97	3
98	2
99	1
100	2
102	18
103	3
104	4
105	4
106	2
108	1
109	2
110	4
111	22
112	6
113	11
114	2
115	7
116	17
117	24
119	999
120	76
121	8
122	1
124	1
125	2
126	1
127	2
128	2
129	1
130	2
131	1
132	1
133	2
134	6
135	16
136	26
137	1
138	2
143	3
144	3
146	18
147	6
148	12
149	2
150	6
151	2
152	8
153	1
154	4
159	1
160	4
161	7
163	65
164	6
165	1
166	1
167	2
168	1
169	1
171	1
174	1
176	2
186	6
187	1
188	5
190	2
202	1
203	1
204	1
208	1
209	8
210	1
211	2
216	1
217	3
219	129
220	17
221	1
229	2
231	1
244	5
245	3
246	4
247	3
265	6
266	1
267	2
278	1
279	13
280	3
281	11
282	2
283	4
285	4
287	2
300	12
301	5
302	7
303	2
304	1
321	1
323	1
