Mass Spectrum: Bromodiphenyl-tert-butyltin
Formula: C16H19BrSn
CAS: 30191-73-2
Molecular weight: 410
m/z	intensity
15	10
26	10
27	90
28	20
29	350
38	20
39	150
40	50
41	480
42	40
50	60
51	220
52	20
53	10
55	30
56	80
57	999
58	20
75	10
76	20
77	180
78	30
116	50
117	40
118	80
119	50
120	100
122	10
124	20
143	10
145	20
152	20
153	20
154	50
192	10
193	80
194	70
195	180
196	110
197	280
198	90
199	190
200	50
201	140
203	30
205	20
347	20
348	20
349	80
350	60
351	170
352	100
353	210
354	70
355	130
356	20
357	40
359	20
