Mass Spectrum: Pyrazolo[3,4-f]indazole-3,7(2H,6H)-dione, 4,8-dihydro-
Formula: C8H8N4O2
CAS: 30196-38-4
Molecular weight: 192
m/z	intensity
33	335
36	20
37	67
38	180
39	362
40	364
41	226
44	999
45	122
46	30
50	182
51	273
52	355
53	172
54	75
55	95
56	12
57	45
61	21
62	70
63	148
64	127
65	137
66	97
67	80
68	42
69	67
70	18
71	41
73	6
74	58
75	61
76	103
77	179
78	151
79	81
80	77
81	33
90	35
91	38
92	85
93	35
96	13
103	17
104	58
105	132
106	33
107	47
118	22
119	34
120	15
121	38
122	9
132	6
133	71
134	106
135	126
136	37
146	15
147	24
148	41
149	7
158	38
161	71
163	71
164	5
175	49
190	11
191	101
192	522
193	29
