Mass Spectrum: 1-Pentyn-3-ol, 3-methyl-, carbamate
Formula: C7H11NO2
CAS: 302-66-9
Molecular weight: 141
m/z	intensity
41	279
43	391
44	166
51	113
53	260
55	152
65	68
69	999
70	83
77	69
79	343
80	252
81	271
83	432
97	92
112	40
113	39
