Mass Spectrum: Benzenecarbothioic acid, S-chloromethyl ester
Formula: C8H7ClOS
CAS: 30216-81-0
Molecular weight: 186
m/z	intensity
47	46
77	516
91	2
105	999
121	2
186	187
187	16
188	71
189	6
