Mass Spectrum: 2H-Pyran-2,3-diol, tetrahydro-, diacetate, trans-
Formula: C9H14O5
CAS: 3021-94-1
Molecular weight: 202
m/z	intensity
41	40
42	50
43	999
44	40
45	10
54	10
55	30
60	10
71	300
72	20
83	20
84	20
86	10
100	70
101	20
131	20
143	50
