Mass Spectrum: Ethyl 4-[[3-[diethylamino]propyl]amino]-6-[p-chlorophenoxy]-1,5-naphthyridine-3-carboxylate
Formula: C24H29ClN4O3
CAS: 30212-48-7
Molecular weight: 456
m/z	intensity
42	67
43	15
44	37
45	3
49	3
50	2
51	4
52	4
53	3
54	3
56	53
58	131
59	5
63	5
64	3
65	2
67	0
68	2
70	37
72	265
73	8
74	6
75	7
76	4
77	3
78	2
79	2
80	2
82	4
84	73
86	999
87	44
88	2
89	3
90	4
91	1
92	0
95	0
96	2
98	231
99	23
100	13
101	2
102	5
103	2
104	2
105	0
111	18
113	598
114	33
115	4
116	1
117	7
118	1
119	0
125	4
127	8
128	7
129	4
130	3
131	0
141	5
142	9
143	2
144	4
145	2
147	0
152	0
153	0
154	3
155	2
156	3
157	1
158	0
164	0
167	0
168	7
169	3
170	2
171	3
172	3
174	0
179	1
180	1
181	1
182	5
183	2
184	1
185	2
186	1
189	0
190	1
191	0
192	5
196	4
197	6
198	4
200	5
204	1
205	3
206	3
207	2
209	0
210	1
212	2
213	2
214	3
217	1
218	0
219	2
220	2
226	3
228	4
230	0
231	0
233	3
234	3
242	1
243	1
244	1
246	4
247	2
249	0
253	1
254	4
255	1
256	9
257	2
258	2
260	1
261	2
266	0
267	0
268	1
269	2
270	1
271	0
272	1
273	0
274	1
275	1
281	7
282	4
283	3
284	3
285	0
286	0
292	0
294	2
295	4
296	4
297	1
298	9
300	3
308	0
309	19
310	26
311	12
312	12
313	3
314	2
316	0
322	3
324	28
325	3
326	10
327	9
328	11
329	5
330	4
336	4
337	2
338	3
339	1
340	1
342	3
343	1
344	37
345	5
346	16
347	1
354	1
355	7
356	6
357	14
358	4
359	4
368	3
370	34
371	10
372	7
373	2
383	3
384	2
385	4
386	1
411	4
412	0
413	2
427	2
455	1
456	35
457	18
458	14
459	5
