Mass Spectrum: 2-Cyclopentene-1-thione, 2,3,4,4-tetramethyl-
Formula: C9H14S
CAS: 30221-54-6
Molecular weight: 154
m/z	intensity
39	529
41	519
43	779
45	999
46	519
53	240
55	230
58	240
59	260
77	250
79	270
91	370
105	380
106	270
139	689
154	390
