Mass Spectrum: Fluacizine
Formula: C20H21F3N2OS
CAS: 30223-48-4
Molecular weight: 394
m/z	intensity
15	2
18	2
26	4
27	36
28	22
29	26
30	73
31	1
37	1
38	2
39	7
40	2
41	6
42	43
43	8
44	34
45	16
46	1
47	1
50	7
51	5
52	2
53	2
54	3
55	117
56	48
57	24
58	130
59	5
61	1
62	4
63	14
64	3
65	2
68	2
69	24
70	14
71	10
72	52
73	23
74	6
75	9
76	4
77	4
78	2
80	1
81	3
82	6
83	1
84	22
86	999
87	62
88	4
89	2
90	1
91	1
93	5
94	4
95	9
96	3
97	1
98	16
99	5
100	6
101	4
102	2
103	1
105	1
106	2
107	3
108	8
109	3
110	1
111	1
112	4
113	3
114	2
115	1
116	1
117	1
118	1
119	3
120	3
121	1
122	2
123	2
125	4
126	14
127	5
128	50
129	4
130	1
131	1
132	4
133	4
135	1
137	2
138	3
139	3
140	3
143	2
144	3
145	6
146	4
147	1
149	1
150	1
151	3
152	6
153	13
154	4
155	1
156	1
157	7
158	4
159	2
162	1
163	2
164	8
165	4
166	2
167	1
168	1
169	7
170	6
171	6
172	4
173	1
174	1
175	5
176	5
177	1
180	1
181	1
182	5
183	3
184	5
185	2
186	1
187	2
188	3
189	4
190	2
191	1
193	1
194	3
195	6
196	42
197	28
198	7
199	2
200	2
201	1
202	17
203	7
204	1
206	2
207	2
208	3
209	1
212	1
213	4
214	6
215	7
216	5
217	1
219	2
220	4
221	4
222	27
223	4
224	1
225	1
226	2
227	3
228	2
229	1
232	1
233	3
234	15
235	12
236	2
237	1
238	3
239	7
240	3
241	1
245	6
246	8
247	16
248	6
249	1
263	1
264	3
265	8
266	354
267	218
268	45
269	12
270	1
279	1
280	4
281	1
290	1
291	1
292	1
302	10
303	2
304	1
321	46
322	11
323	4
324	1
365	6
366	1
375	4
376	1
379	9
380	2
381	1
393	1
394	6
395	1
