Mass Spectrum: 7,10,13-Eicosatrienoic acid, methyl ester
Formula: C21H36O2
CAS: 30223-51-9
Molecular weight: 320
m/z	intensity
26	8
27	128
28	175
29	277
30	8
31	11
32	39
33	4
36	4
37	4
38	4
39	128
40	29
41	701
42	78
43	368
44	22
45	29
50	4
51	18
52	20
53	140
54	210
55	666
56	49
57	233
58	11
59	184
60	11
61	8
62	3
63	7
64	4
65	93
66	163
67	999
68	192
69	304
70	29
71	84
72	7
73	52
74	122
75	15
76	4
77	263
78	187
79	912
80	918
81	643
82	198
83	175
84	42
85	87
86	7
87	254
88	21
89	7
90	5
91	432
92	140
93	605
94	438
95	418
96	131
97	87
98	30
99	25
100	6
101	47
102	7
103	19
104	20
105	157
106	87
107	280
108	146
109	204
110	99
111	44
112	9
113	21
114	8
115	46
116	16
117	52
118	18
119	105
120	58
121	269
122	93
123	76
124	42
125	21
126	4
127	18
128	14
129	32
130	13
131	32
132	21
133	57
134	81
135	192
136	81
137	46
138	32
139	11
140	14
141	19
142	4
143	20
144	10
145	43
146	9
147	55
148	32
149	76
150	81
151	53
152	15
153	8
154	14
155	9
156	4
157	12
158	11
159	16
160	5
161	48
162	14
163	111
164	222
165	39
166	9
167	5
168	14
169	7
170	4
171	35
172	8
173	7
174	5
175	37
176	52
177	116
178	37
179	13
180	8
181	7
182	8
183	6
184	2
185	17
186	4
187	4
188	5
189	59
190	14
191	46
192	25
193	8
194	8
195	17
196	6
197	4
198	2
199	7
200	3
201	4
202	3
203	17
204	5
205	29
206	9
207	10
208	140
209	22
210	5
211	2
213	2
214	2
215	3
216	3
217	7
218	3
219	9
220	5
221	23
222	16
223	5
224	2
225	2
227	3
228	2
229	3
231	4
232	3
233	5
234	5
235	26
236	14
237	5
238	2
239	2
240	2
241	2
242	3
243	2
244	3
245	4
246	6
247	4
248	4
249	20
250	8
251	4
252	4
253	4
259	3
260	4
263	10
264	5
265	2
266	8
267	3
270	2
271	13
272	4
277	5
278	3
279	5
280	2
281	2
282	2
283	2
284	2
287	2
288	4
289	30
290	7
291	5
292	3
318	5
319	8
320	187
321	45
322	8
