Mass Spectrum: tert-Butyl isopropyl carbonate
Formula: C8H16O3
CAS: 30221-21-7
Molecular weight: 160
m/z	intensity
14	1
15	16
18	1
26	4
27	44
28	15
29	104
30	3
31	20
37	1
38	3
39	45
40	9
41	232
42	26
43	213
44	18
45	36
50	1
51	1
53	3
54	1
55	15
56	109
57	999
58	47
59	317
60	10
63	30
64	1
65	1
70	1
72	1
73	1
91	2
104	4
105	23
106	1
112	1
119	5
