Mass Spectrum: 4-Morpholin-1-yl-5-[bis(2-diethylaminoethyl)amino]veratrole
Formula: C24H44N4O3
CAS: 30235-82-6
Molecular weight: 436
m/z	intensity
41	13
42	58
43	20
44	138
45	24
46	1
47	3
48	1
49	20
50	1
51	8
52	3
53	4
54	6
55	6
56	52
57	25
58	105
59	6
60	0
63	1
64	1
65	4
66	3
67	3
68	6
69	4
70	18
71	13
72	71
73	5
74	2
75	0
76	1
77	5
78	3
79	6
80	4
81	2
82	4
84	33
86	923
87	50
88	2
89	2
90	1
91	3
92	4
93	4
94	5
95	2
96	4
97	2
98	17
99	6
100	999
101	68
102	3
103	0
104	3
105	3
106	4
107	3
108	4
109	2
110	2
111	1
112	3
113	2
114	1
116	1
117	2
118	2
119	3
120	4
121	3
122	6
123	2
124	1
125	1
127	28
128	2
130	1
131	2
132	3
133	3
134	5
135	5
136	3
137	3
138	1
139	1
145	2
146	3
147	7
148	7
149	6
150	4
151	3
152	2
153	0
157	2
159	1
160	3
161	6
162	4
163	9
164	6
165	3
166	5
167	3
168	5
173	1
174	1
175	4
176	4
177	12
178	15
179	12
180	8
181	2
188	0
189	4
190	4
191	15
192	19
193	22
194	4
195	1
203	2
204	3
205	15
206	13
207	13
208	7
209	1
217	1
218	1
219	6
220	7
221	11
222	3
223	5
232	1
233	4
234	3
235	13
236	11
238	49
239	5
246	1
247	4
248	7
249	22
251	178
252	24
253	2
261	1
262	7
263	8
264	42
265	11
266	8
267	1
275	1
277	19
278	4
279	9
280	1
290	6
291	1
292	1
320	2
321	1
322	1
323	1
335	15
337	119
338	24
339	3
347	1
350	66
351	13
352	1
363	6
364	1
365	3
366	0
435	1
436	29
437	9
438	2
439	0
