Mass Spectrum: 4-(3-Aminobutyl)-2-methoxyphenol
Formula: C11H17NO2
CAS: 302333-20-6
Molecular weight: 195
m/z	intensity
39	59
40	14
41	43
42	73
43	77
44	999
45	46
46	4
47	4
49	1
50	19
51	67
52	33
53	35
54	9
55	39
56	20
57	24
58	30
59	3
61	1
62	7
63	18
64	8
65	54
66	33
67	15
68	5
69	11
70	25
71	49
72	4
73	2
74	4
75	5
76	5
77	90
78	27
79	38
80	10
81	13
82	5
83	2
84	4
85	1
86	2
87	9
88	1
89	10
90	8
91	75
92	12
93	13
94	61
95	34
96	5
97	1
98	2
99	2
100	2
101	1
102	2
103	34
104	10
105	17
106	36
107	51
108	14
109	13
110	4
111	1
112	2
113	0
114	0
115	10
116	4
117	27
118	20
119	23
120	7
121	21
122	57
123	48
124	28
125	4
126	3
127	2
128	3
129	2
131	211
132	24
133	6
134	6
135	35
136	21
137	227
138	116
139	16
140	1
141	0
142	0
143	1
145	22
146	29
147	61
148	10
149	4
150	19
151	12
152	15
153	5
154	3
155	1
156	0
157	0
158	0
159	1
160	1
161	12
163	118
164	14
165	2
166	4
167	0
168	1
169	0
170	2
171	2
172	0
173	1
174	1
175	1
176	2
178	366
179	50
180	16
181	3
182	4
183	4
184	1
185	0
186	0
187	2
188	1
189	0
192	0
193	1
195	77
196	8
197	0
