Mass Spectrum: p-Benzenediacetohydroxamic acid
Formula: C10H12N2O4
CAS: 30240-06-3
Molecular weight: 224
m/z	intensity
41	17
42	18
43	11
44	999
45	3
46	34
50	27
51	119
52	96
53	23
54	7
55	3
56	7
58	15
59	2
60	61
62	10
63	52
64	12
65	46
66	28
68	4
73	3
74	5
75	8
76	12
77	149
78	77
79	55
80	5
82	5
87	2
89	45
91	224
92	15
93	58
94	6
102	17
103	89
104	164
105	173
106	132
107	57
116	8
117	15
118	46
119	42
120	134
122	151
123	10
128	6
130	4
131	53
132	12
133	8
134	21
135	2
136	5
146	143
147	7
148	33
149	154
150	13
152	8
161	2
162	3
163	46
164	246
165	25
174	4
177	17
179	14
180	15
191	7
192	3
194	8
206	5
208	9
209	14
224	164
225	5
