Mass Spectrum: Picras-2-en-1-one, 11,13,16-trihydroxy-2,12-dimethoxy-, (11.alpha.,12.beta.)-
Formula: C22H34O7
CAS: 30248-05-6
Molecular weight: 410
m/z	intensity
105	380
106	160
107	360
108	999
109	570
110	160
111	460
112	160
113	190
115	150
117	150
119	160
120	110
121	760
122	190
123	320
124	160
125	240
126	240
127	390
128	220
129	200
130	120
131	200
133	190
135	330
136	120
137	460
138	190
139	220
141	240
142	90
143	190
145	270
147	140
148	160
149	220
151	350
152	570
153	460
154	270
155	140
157	150
159	220
161	160
163	160
165	500
166	240
167	160
169	160
170	90
171	160
172	90
173	220
175	160
177	190
179	240
185	140
187	220
188	90
189	170
191	140
192	220
193	90
195	140
196	220
197	90
199	90
201	160
203	200
205	280
215	90
217	90
219	220
220	90
221	90
231	140
246	170
247	150
262	150
276	100
299	90
304	350
305	90
331	160
374	150
392	150
410	40
