Mass Spectrum: 3,3-Di(trifluoromethyl)diazirine
Formula: C3F6N2
CAS: 3024-50-8
Molecular weight: 178
m/z	intensity
28	481
29	34
31	116
32	87
33	12
43	73
50	15
58	29
69	715
70	8
81	29
87	15
100	999
101	29
131	556
132	9
150	7
159	15
178	58
179	4
