Mass Spectrum: Propan-2-ol, 1-(1,7,7-trimethylbicyclo[2.2.1]hept-2-yloxy)-3-(4-morpholyl)-
Formula: C17H31NO3
CAS: 302553-56-6
Molecular weight: 297
m/z	intensity
35	3
36	8
37	1
38	4
39	13
41	59
42	38
43	29
44	16
45	2
46	0
48	0
49	0
50	1
51	2
53	17
55	55
56	49
57	13
58	6
59	1
60	0
61	0
63	2
65	8
67	39
69	34
70	30
71	14
72	13
73	1
74	0
76	0
77	8
78	12
79	17
81	32
82	5
83	4
84	3
85	4
86	9
87	12
88	1
89	0
91	12
93	17
95	69
96	5
97	3
98	17
100	999
101	34
102	4
103	0
104	0
105	2
107	5
108	4
109	8
110	1
111	2
112	1
113	1
114	2
115	0
116	0
117	0
119	1
121	5
123	3
124	1
126	4
127	6
128	3
130	31
131	0
134	0
135	0
137	15
138	1
140	0
142	5
144	16
145	13
146	1
153	0
155	2
156	0
158	0
160	12
161	1
162	0
171	0
172	1
188	0
192	11
193	1
223	0
248	0
279	14
280	4
282	7
283	0
295	0
296	1
297	2
298	0
