Mass Spectrum: Acetic acid, 2-[2-(4-oxo-4H-3,1-benzoxazin-2-yl)ethenyl]phenyl ester
Formula: C18H13NO4
CAS: 302566-52-5
Molecular weight: 307
m/z	intensity
33	43
34	0
37	1
39	77
40	23
43	409
45	2
50	34
51	26
52	6
53	3
55	1
56	0
59	0
61	1
63	85
64	31
65	28
66	2
70	0
74	6
75	13
76	26
77	22
78	1
79	1
86	1
87	4
89	108
90	187
91	71
92	54
101	5
103	37
104	4
105	1
114	4
115	4
116	8
119	999
121	6
122	3
126	0
128	2
130	0
137	1
138	0
139	0
140	0
141	0
143	0
146	104
147	6
151	2
152	5
154	2
161	4
162	0
163	2
164	3
165	9
166	2
167	2
177	0
178	3
179	4
180	8
181	2
189	0
190	5
191	6
192	5
193	1
195	1
204	2
207	2
208	3
209	0
218	13
220	290
221	71
222	7
223	0
235	1
236	3
237	0
239	1
245	0
246	4
248	188
249	27
250	2
263	4
265	111
266	16
267	2
307	32
308	5
309	0
