Mass Spectrum: Pyrimidine-5-carboxylic acid, 3,4-dihydro-4-(3-fluorophenyl)-6-methyl-2(1H)-oxo-, benzyl ester
Formula: C19H17FN2O3
CAS: 302561-48-4
Molecular weight: 340
m/z	intensity
33	6
34	4
35	0
36	2
37	2
39	110
40	78
42	259
43	49
44	35
45	5
46	1
47	0
48	0
51	81
52	29
53	12
55	36
57	28
58	1
60	4
62	10
63	30
65	144
67	49
68	18
69	18
70	16
71	8
72	1
73	2
74	9
75	40
77	55
78	11
79	14
81	15
82	13
83	13
84	10
85	4
86	2
87	3
89	31
91	999
92	65
94	16
95	58
96	15
97	5
98	2
99	4
101	23
102	5
103	2
105	12
106	4
107	16
108	9
109	18
110	35
111	11
112	3
113	2
115	11
116	3
117	3
118	2
119	4
120	23
121	20
122	26
123	13
124	6
125	3
126	4
127	2
128	2
129	2
130	2
131	3
132	2
133	25
134	11
135	11
136	4
137	21
138	2
139	3
140	2
141	2
142	2
143	3
144	2
145	6
146	15
147	10
148	7
149	28
150	20
151	2
152	1
153	3
154	2
155	38
156	3
157	2
158	3
159	1
160	7
161	15
162	20
163	3
164	3
165	1
166	0
167	2
169	8
170	1
171	4
172	0
173	1
174	1
175	3
176	3
177	0
179	0
180	0
181	0
183	3
184	2
185	9
186	2
187	6
188	5
189	3
190	20
191	10
192	1
193	0
195	0
196	0
198	0
199	2
200	1
201	2
203	44
204	17
205	134
206	21
207	3
208	0
209	0
210	0
211	0
212	0
213	0
214	1
215	0
216	0
217	0
219	0
220	0
221	0
222	0
223	0
224	0
225	0
226	0
227	1
229	0
231	20
232	9
233	20
234	2
235	1
236	0
237	0
239	14
240	2
241	1
242	1
243	4
245	268
246	42
247	10
249	443
250	61
251	7
252	1
253	2
254	0
255	0
263	0
264	2
265	0
269	0
278	0
279	0
283	1
296	1
297	0
307	1
308	0
319	0
322	0
333	0
334	2
335	0
336	0
337	0
338	0
339	5
340	32
341	6
342	0
