Mass Spectrum: 2-Naphthalenamine, 1-[(4-nitrophenyl)azo]-
Formula: C16H12N4O2
CAS: 3025-77-2
Molecular weight: 292
m/z	intensity
17	1
26	1
27	4
30	20
37	1
38	8
39	38
40	2
41	4
42	3
46	1
50	53
51	31
52	30
53	14
54	6
61	1
62	20
63	74
64	39
65	41
66	4
70	1
73	2
74	17
75	81
76	77
77	32
78	9
79	22
80	16
81	1
82	1
86	3
87	11
88	25
89	68
90	20
91	14
92	34
93	4
94	3
98	2
99	3
100	9
101	41
102	30
103	15
104	2
105	19
106	54
107	8
108	8
109	8
110	10
111	2
112	3
113	39
114	104
115	999
116	192
117	15
118	2
120	2
122	39
123	26
126	9
127	29
128	35
129	23
130	15
131	6
138	5
139	5
140	123
141	59
142	697
143	81
144	4
146	7
150	1
151	2
152	4
153	6
154	8
155	29
156	7
158	2
163	2
164	2
165	3
166	2
167	2
168	1
170	33
171	3
177	2
178	6
179	1
180	2
181	1
188	1
189	13
190	7
191	4
192	1
193	2
201	2
202	1
203	3
204	10
205	5
206	1
207	1
214	3
215	5
216	18
217	27
218	14
219	1
220	2
229	3
230	2
231	10
232	8
233	21
234	8
243	5
244	21
245	59
246	32
247	6
260	57
261	21
262	26
263	6
274	3
275	4
276	7
290	45
291	290
292	435
293	77
294	6
