Mass Spectrum: Cyclobutaneacetamide, N-benzyl-
Formula: C13H17NO
CAS: 302567-73-3
Molecular weight: 203
m/z	intensity
43	274
44	55
45	10
50	18
51	89
52	9
53	41
54	14
55	118
56	41
57	324
59	175
60	25
63	21
65	135
66	9
67	37
68	19
69	161
70	28
71	6
75	26
76	76
77	35
78	33
80	13
81	17
89	15
90	9
91	999
92	228
94	21
95	23
97	54
103	10
104	56
105	65
106	259
107	27
108	12
111	18
112	7
114	17
117	27
118	39
119	16
128	12
129	15
131	11
135	10
143	89
146	8
147	76
148	562
149	67
160	78
161	16
162	11
173	14
174	71
175	63
176	26
202	27
203	479
204	68
