Mass Spectrum: Pyrimido[5,4-b]benzofurane, 4-(3-chlorophenoxy)-2-phenyl-
Formula: C22H13ClN2O2
CAS: 302566-45-6
Molecular weight: 372
m/z	intensity
33	46
34	0
35	1
36	6
37	4
39	105
40	24
41	2
43	1
44	8
51	229
53	3
54	1
56	1
61	7
62	38
63	59
64	29
66	0
73	18
75	174
77	999
81	0
82	1
84	2
85	8
87	49
88	80
89	12
90	3
91	1
92	3
93	1
95	0
96	0
97	1
99	46
101	33
102	78
103	116
104	26
105	39
106	2
108	2
111	66
114	194
116	10
119	0
122	1
124	1
125	2
126	5
127	10
128	3
129	4
130	17
131	2
132	1
137	1
138	2
139	7
140	12
141	4
142	3
150	4
151	6
152	8
153	5
154	6
155	1
156	0
157	6
159	302
160	104
162	3
163	8
164	15
165	5
166	2
168	29
176	3
177	16
178	12
179	5
184	3
186	46
187	71
190	101
191	28
192	2
193	1
203	1
204	2
205	4
206	15
207	37
208	4
212	1
213	4
214	23
215	9
216	11
217	2
218	1
219	4
220	1
231	0
232	3
233	17
235	8
236	0
239	0
240	3
241	3
242	7
243	7
245	268
246	26
247	2
253	0
254	0
260	3
261	3
267	3
269	4
279	5
280	9
281	3
282	2
287	0
293	5
295	50
296	9
297	11
298	0
308	5
309	6
310	1
311	2
327	0
328	1
330	3
333	1
334	2
335	16
336	19
337	43
338	8
339	0
343	5
344	13
345	3
346	2
355	0
365	3
366	8
367	17
368	83
371	797
372	697
373	342
374	228
375	55
