Mass Spectrum: Dibenzofuran, 2-methoxy-3-(2-thiophenecarboxamido)-
Formula: C18H13NO3S
CAS: 302548-67-0
Molecular weight: 323
m/z	intensity
38	4
39	159
40	30
41	18
42	8
43	25
44	10
45	33
50	11
51	11
53	12
55	15
57	37
58	9
62	3
63	16
64	6
65	6
67	4
68	10
69	9
71	3
74	8
75	15
76	8
77	15
79	2
81	15
82	33
83	109
84	6
85	8
86	4
87	12
88	17
89	4
91	6
99	4
101	14
102	2
103	3
110	4
111	999
112	70
113	89
114	51
115	17
126	16
127	69
128	24
129	4
139	21
140	51
141	6
142	43
143	4
153	8
154	6
155	62
156	77
157	15
166	3
167	11
168	9
169	23
170	14
182	56
183	49
184	47
185	20
196	11
198	38
199	12
210	8
212	30
213	11
214	27
224	6
262	3
264	6
292	33
293	3
308	40
310	3
323	591
324	123
325	41
