Mass Spectrum: Pyrrol-2(5H)-one, 4-acetyl-3-hydroxy-5-(3-nitrophenyl)-1-[2-(1-piperazinyl)ethyl]-
Formula: C18H22N4O5
CAS: 302566-41-2
Molecular weight: 374
m/z	intensity
33	41
39	15
40	30
42	224
43	268
44	146
45	33
46	7
53	2
54	2
56	343
57	44
58	27
69	7
70	176
72	7
75	2
76	5
83	9
84	25
85	9
90	2
97	29
99	999
100	44
101	15
102	12
112	12
115	4
130	8
176	14
374	5
