Mass Spectrum: 1,3-Oxathiane, 2,2,6-trimethyl-
Formula: C7H14OS
CAS: 30253-09-9
Molecular weight: 146
m/z	intensity
26	50
27	150
28	70
29	140
31	80
39	290
40	40
41	310
42	110
43	810
44	30
45	260
46	490
47	270
48	30
53	80
54	480
55	910
56	70
57	30
58	140
59	999
60	870
61	70
62	40
71	40
73	200
74	170
75	40
76	30
85	30
87	60
88	860
89	130
90	50
131	250
132	30
133	10
146	478
147	40
148	30
