Mass Spectrum: Cyclobutaneacetamide, N-(4-methylphenyl)-
Formula: C13H17NO
CAS: 302567-77-7
Molecular weight: 203
m/z	intensity
46	49
49	11
50	31
51	153
52	108
53	212
54	85
55	354
56	70
57	232
59	54
60	57
62	11
63	42
65	288
66	44
67	79
68	72
69	547
70	45
71	34
73	15
75	6
76	22
77	398
78	220
79	56
80	22
82	16
83	5
89	26
90	19
91	322
92	39
93	12
94	22
95	17
97	71
98	12
101	5
103	10
104	51
105	68
106	807
107	999
108	539
111	9
114	8
118	9
120	31
121	12
122	10
123	29
130	13
131	11
132	29
133	54
134	82
141	8
143	22
144	7
146	7
147	19
148	95
158	14
159	9
165	9
174	8
175	66
199	6
203	613
204	52
