Mass Spectrum: Piperidine, 4-(2-aminoethyl)-4-benzyl-1,2,5-trimethyl-
Formula: C17H28N2
CAS: 302590-70-1
Molecular weight: 260
m/z	intensity
33	7
39	225
40	90
41	469
42	999
43	427
44	659
45	102
46	10
47	0
48	0
49	3
50	25
51	70
52	31
53	100
54	54
55	204
56	449
57	267
58	634
59	29
60	18
62	12
63	39
65	210
66	27
67	118
68	56
69	69
70	313
71	119
72	184
73	17
74	7
75	13
76	16
77	77
78	38
79	59
80	25
81	57
82	59
83	37
84	298
85	31
86	10
87	4
89	31
91	464
92	46
93	26
94	58
95	44
96	51
97	25
98	139
99	22
100	6
101	3
102	9
103	17
104	16
105	31
106	17
107	23
108	74
109	39
110	85
111	24
112	12
113	3
115	74
116	21
117	50
118	13
119	7
120	11
121	14
122	58
123	42
124	246
125	35
126	57
127	20
128	46
129	45
130	14
131	24
132	13
133	3
134	6
136	29
137	17
138	134
139	91
140	44
141	25
142	11
143	25
144	7
145	10
146	10
147	3
148	2
149	5
150	11
151	18
152	126
153	23
154	12
155	5
156	4
157	8
158	5
159	3
160	5
161	0
162	1
163	3
164	1
165	7
166	3
167	20
168	5
169	36
170	7
171	8
172	9
173	3
174	27
175	5
176	1
180	4
181	4
182	24
183	4
184	5
185	5
186	26
187	5
188	21
189	4
191	0
195	1
197	1
198	5
199	4
200	39
202	541
203	85
204	5
205	0
208	0
209	6
210	0
212	1
214	25
215	5
216	44
217	153
218	24
219	2
223	0
228	80
229	15
230	4
231	2
241	4
242	11
243	4
244	14
245	117
246	21
247	3
248	5
249	0
256	0
257	0
259	27
260	38
261	6
