Mass Spectrum: Benzoic acid, 4-[4,6-bis(1,1,1,3,3,3-hexafluoroisopropyloxy)triazinylamino]-, ethyl ester
Formula: C18H12F12N4O4
CAS: 302602-75-1
Molecular weight: 576
m/z	intensity
33	17
34	6
36	2
37	5
38	30
39	74
40	122
41	37
43	129
44	83
45	137
47	8
48	1
50	92
51	112
52	31
53	24
54	12
55	15
56	9
57	13
58	2
59	1
60	2
63	210
64	130
65	130
66	16
67	24
69	999
70	192
72	26
74	27
75	53
76	79
77	42
78	26
79	17
80	10
81	24
82	40
83	6
84	8
86	70
90	344
91	121
92	59
93	26
94	34
95	6
96	2
97	7
98	2
99	5
100	3
101	8
102	12
103	33
104	43
105	22
106	15
108	77
109	4
110	1
111	3
113	88
114	5
115	13
116	72
117	113
118	40
119	51
120	12
121	12
122	2
123	1
124	3
125	1
126	1
127	1
128	5
129	16
130	50
131	53
132	40
133	29
134	5
135	2
136	9
137	2
140	1
142	14
143	31
144	51
145	238
146	42
147	9
148	14
149	11
151	128
152	3
154	9
155	2
156	9
157	27
158	290
159	280
160	39
162	36
163	8
164	8
165	2
166	1
167	1
168	2
170	67
171	14
172	8
173	10
174	6
175	2
176	1
177	2
180	2
181	1
182	25
183	6
184	30
185	55
186	51
187	13
188	15
189	17
190	7
191	5
192	1
193	2
194	21
196	1
197	4
198	1
199	2
200	5
201	37
202	35
203	21
204	10
205	1
207	0
211	4
212	2
213	22
214	4
215	8
216	16
217	8
219	11
220	1
222	2
229	8
230	5
231	4
232	2
235	0
236	1
237	1
240	4
241	1
243	1
246	6
247	3
255	0
256	7
262	13
263	1
265	4
266	8
267	1
271	1
279	1
282	2
283	5
298	6
313	1
316	1
318	5
336	7
337	7
338	1
351	2
352	23
353	6
363	8
364	1
365	1
379	3
381	4
397	2
399	2
407	1
409	3
425	5
444	1
484	2
502	3
503	34
504	13
505	1
511	1
524	1
526	1
527	1
529	6
531	317
532	72
533	9
546	1
547	95
548	62
549	10
550	1
557	68
558	15
559	1
561	1
575	46
576	180
577	36
578	5
