Mass Spectrum: 3-(4-Bromophenyl)-2-[2-(1-naphthyl)vinyl]-4(3H)-quinazolinone
Formula: C26H17BrN2O
CAS: 302601-92-9
Molecular weight: 452
m/z	intensity
36	22
39	567
40	398
41	31
43	98
44	73
45	28
46	9
50	740
51	301
52	69
53	22
54	6
55	13
56	7
57	13
58	10
60	6
63	760
64	225
65	58
66	9
69	13
70	11
71	6
75	999
76	954
77	352
78	51
79	42
80	46
81	37
82	36
83	21
87	96
88	49
90	571
91	111
92	144
93	9
95	9
96	9
97	24
98	24
99	33
100	43
102	338
103	33
104	31
105	13
106	7
107	9
111	8
112	19
113	42
114	37
115	77
116	38
117	51
119	209
120	79
124	47
126	262
127	209
128	184
129	29
130	12
131	13
134	9
136	9
137	9
139	130
140	63
141	104
143	93
144	28
145	25
146	8
148	6
151	662
152	554
153	149
155	315
157	371
163	51
164	80
165	64
166	49
167	12
169	11
171	114
173	21
176	60
177	143
178	230
179	88
180	10
181	13
183	17
186	148
188	9
189	16
190	20
192	53
193	12
196	7
200	6
201	10
202	20
203	7
213	18
214	9
215	15
216	15
217	16
218	19
220	24
224	8
226	82
227	42
228	34
239	9
240	13
241	24
242	16
243	6
245	16
246	20
247	7
251	23
252	34
253	108
254	135
255	28
266	6
267	19
268	15
269	19
270	7
279	11
280	6
281	11
282	52
283	17
295	37
297	69
298	15
299	20
301	22
306	9
308	8
313	9
314	15
315	10
316	15
324	9
325	20
327	39
328	6
342	10
343	20
371	37
372	17
373	20
374	8
451	149
452	99
453	132
454	89
455	17
