Mass Spectrum: 1-Propanone, 1,3-diphenyl-3-(trimethylsilyl)-
Formula: C18H22OSi
CAS: 30262-98-7
Molecular weight: 282
m/z	intensity
27	11
28	3
29	10
31	4
39	13
41	7
43	59
44	21
45	117
46	7
47	5
50	17
51	75
52	9
53	8
55	8
57	9
58	21
59	26
61	11
63	8
65	11
72	17
73	999
74	89
75	148
76	24
77	252
78	44
79	7
88	6
91	82
92	7
102	11
103	50
104	160
105	207
106	16
107	6
115	72
116	8
117	15
119	5
120	7
121	16
130	6
131	13
135	70
136	10
137	21
145	13
146	52
147	12
149	17
161	17
163	50
164	8
165	13
177	97
178	49
179	33
180	6
189	29
190	18
191	52
192	164
193	122
194	18
203	16
204	7
205	65
206	12
207	8
208	4
209	41
210	7
265	7
266	6
267	130
268	31
269	7
280	33
281	467
282	508
283	125
284	29
