Mass Spectrum: 1,3,5-Triazin-2-amine, N-cyclohexyl-4,6-bis[2,2,2-trifluoro-1-(trifluoromethyl)ethoxy]-
Formula: C15H14F12N4O2
CAS: 302602-80-8
Molecular weight: 510
m/z	intensity
33	206
34	22
36	5
39	265
40	282
41	574
42	204
43	245
44	268
45	12
48	14
49	22
50	32
51	139
53	185
54	223
55	414
56	133
57	27
63	20
64	26
65	24
67	352
69	999
70	124
71	15
77	35
78	40
79	98
80	49
81	282
82	272
83	75
84	19
91	8
92	4
93	29
94	81
95	37
96	31
97	18
98	71
99	28
101	12
105	1
106	18
107	20
108	44
109	80
110	52
111	24
113	64
121	18
122	59
123	62
124	9
129	17
132	12
135	32
136	20
137	6
147	3
149	18
151	185
152	14
166	5
194	38
196	5
216	7
219	17
222	2
237	21
242	3
261	40
262	64
287	4
303	11
315	5
317	12
344	5
347	17
359	176
360	25
389	6
409	27
427	2
428	32
429	601
430	64
441	71
442	34
453	194
454	32
455	28
467	460
468	65
469	15
479	8
481	41
482	2
490	2
491	105
492	16
495	7
510	119
511	11
