Mass Spectrum: 1,3,5-Triazine, 2,4-bis(2,2,2-trifluoro-1-trifluoromethylethoxy)-6-(4-methoxyphenylamino)-
Formula: C16H10F12N4O3
CAS: 302602-83-1
Molecular weight: 534
m/z	intensity
33	9
38	24
39	45
41	80
42	31
43	16
44	14
45	1
46	1
47	1
51	176
52	111
53	83
54	16
55	10
56	3
57	1
58	1
60	0
63	109
64	57
65	50
66	18
67	45
69	999
70	92
71	12
72	9
74	16
75	10
77	100
78	98
79	83
80	41
81	18
82	29
83	2
84	3
85	0
87	65
90	66
91	28
92	55
94	97
95	117
97	6
99	6
100	5
101	9
103	28
105	210
106	45
107	35
108	32
109	14
113	64
114	3
116	14
117	10
118	12
119	14
120	17
122	194
123	15
124	4
125	0
126	2
128	4
129	12
130	27
131	31
133	604
134	54
135	8
136	2
137	0
141	2
142	3
143	6
144	10
146	148
147	137
148	164
149	35
151	294
154	7
158	107
159	43
160	17
161	7
162	8
164	15
166	2
168	2
169	2
170	2
172	20
173	69
174	131
175	73
176	9
177	3
178	1
179	0
182	9
184	23
185	7
186	6
187	16
188	67
189	109
190	49
191	12
194	96
195	4
196	1
197	4
199	14
200	7
201	13
202	7
203	2
204	0
211	1
214	5
215	5
216	13
217	24
219	16
220	1
221	0
222	2
228	1
229	1
230	1
232	15
238	4
240	0
242	0
245	1
246	1
248	18
255	2
257	24
259	1
261	2
262	14
263	1
265	1
267	80
270	0
271	2
273	4
274	0
282	1
283	4
286	1
297	0
298	2
299	1
300	0
301	1
302	1
306	4
312	1
313	2
320	1
321	7
322	4
323	1
324	2
326	1
336	0
337	2
338	1
339	5
340	18
341	3
342	1
343	1
344	5
347	3
348	0
351	1
352	4
353	6
354	0
363	1
364	1
365	1
367	32
368	7
369	1
381	2
382	9
383	4
384	1
441	1
465	4
479	1
491	20
492	3
495	1
499	2
502	1
503	4
504	1
505	1
508	0
509	1
510	1
511	2
512	5
515	167
516	35
519	467
520	67
521	9
522	2
523	1
524	1
525	1
526	2
527	2
528	3
529	7
534	839
535	107
536	14
537	1
