Mass Spectrum: 2-[2-(5,6-Dimethyl-1H-benzimidazol-2-ylthio)acetamido]benzoic acid
Formula: C18H17N3O3S
CAS: 302601-83-8
Molecular weight: 355
m/z	intensity
34	68
36	157
37	72
39	811
40	168
42	538
44	999
45	227
46	48
50	80
51	222
52	132
53	89
54	42
55	182
56	107
57	161
58	160
59	52
60	80
61	34
63	286
65	401
66	48
67	39
69	97
70	73
71	64
73	289
74	58
75	38
77	287
78	75
79	63
80	32
81	28
82	37
83	57
84	56
85	28
87	23
88	11
89	137
91	273
92	374
93	35
95	28
96	27
97	20
101	15
102	30
103	58
104	53
105	122
106	49
112	21
116	52
117	72
118	94
119	162
120	132
121	29
122	68
123	15
129	18
130	9
131	65
132	98
133	27
134	15
135	29
137	74
143	19
144	34
145	195
146	168
147	152
148	59
150	280
151	32
157	43
159	579
160	46
161	34
163	70
171	24
175	57
177	155
178	298
179	49
187	15
188	143
189	60
190	106
191	205
192	463
193	65
194	20
203	9
204	18
218	187
219	111
220	21
222	20
355	52
356	11
