Mass Spectrum: 2-[2-(1-Naphthyl)vinyl]-3-(4-nitrophenyl)-4(3H)-quinazolinone
Formula: C26H17N3O3
CAS: 302601-93-0
Molecular weight: 419
m/z	intensity
39	317
40	108
41	26
43	412
44	74
45	29
46	12
50	364
51	141
52	42
53	20
55	12
57	14
60	24
63	348
64	114
65	49
69	9
76	999
77	152
78	26
80	13
86	12
87	20
88	26
90	229
92	168
93	12
98	11
99	12
100	18
102	153
103	17
104	19
105	9
108	14
109	16
113	44
114	16
115	43
116	14
117	34
119	169
120	66
123	15
126	126
127	146
128	100
129	15
139	61
140	53
141	74
143	32
144	11
145	10
151	281
152	302
153	79
154	10
155	18
156	26
157	11
159	9
163	25
164	57
165	36
166	24
169	10
172	79
175	10
177	86
178	124
179	48
186	76
189	17
190	12
191	9
192	18
193	10
202	15
210	17
215	9
220	46
226	34
227	21
228	12
240	9
241	14
246	29
251	15
252	24
253	61
254	78
255	21
266	22
280	14
281	26
282	43
283	25
292	29
295	10
297	23
343	14
371	33
372	112
373	24
402	28
418	79
419	51
420	19
