Mass Spectrum: 3-(2,6-Dichlorophenyl)-2-(4-nitrostyryl)-4(3H)-quinazolinone
Formula: C22H13Cl2N3O3
CAS: 302601-90-7
Molecular weight: 437
m/z	intensity
35	135
36	403
37	125
38	301
39	501
40	337
41	37
43	189
44	86
45	32
46	53
50	999
51	548
52	146
53	30
55	22
56	10
57	12
59	7
63	892
64	293
65	61
66	9
70	9
71	9
74	530
75	559
76	996
77	369
79	9
83	10
84	31
85	45
86	34
87	73
88	150
90	805
91	90
92	182
93	15
96	7
97	38
98	41
99	56
100	102
101	268
102	420
103	76
104	25
105	30
106	9
109	246
110	62
111	90
112	29
113	42
114	47
115	28
116	60
117	54
119	186
120	32
122	7
124	186
126	114
127	67
128	41
129	14
130	15
131	10
132	36
133	44
135	27
136	55
138	48
139	39
140	57
143	26
145	188
147	223
148	9
149	18
150	54
151	70
152	27
153	12
154	9
159	19
160	19
161	34
162	18
163	37
164	82
165	49
166	15
171	38
172	33
173	31
174	38
175	34
176	65
177	62
178	76
186	14
188	29
189	22
190	65
191	44
192	24
193	20
196	9
198	9
199	9
200	23
201	53
202	94
203	105
204	39
205	7
215	7
216	26
218	34
219	21
220	8
226	41
227	10
228	19
229	42
230	17
231	14
235	9
237	17
238	36
239	10
240	9
245	31
246	7
252	7
253	6
269	64
270	9
271	15
277	70
278	10
289	38
290	10
291	26
292	30
293	12
309	39
319	9
320	14
321	25
327	9
355	23
356	74
357	20
358	25
390	9
391	7
402	137
403	40
404	62
405	10
436	19
437	51
438	24
439	32
440	8
