Mass Spectrum: 1,3,5-Triazine, 2,4-bis(2,2,2-trifluoro-1-trifluoromethylethoxy)-6-(4-fluorophenylamino)-
Formula: C15H7F13N4O2
CAS: 302602-73-9
Molecular weight: 522
m/z	intensity
33	228
34	19
36	7
38	20
40	336
41	26
42	27
43	55
44	115
45	12
46	3
47	6
48	3
50	62
51	113
52	17
53	16
54	7
55	13
56	26
57	107
59	8
61	5
62	16
63	50
64	17
65	7
66	7
67	22
69	999
70	107
71	8
74	11
75	78
76	11
77	9
78	10
79	5
81	22
82	114
83	242
84	19
89	12
90	12
91	11
92	9
93	22
94	50
95	128
96	28
97	9
99	2
101	9
103	3
104	1
105	3
106	0
107	8
108	51
109	117
110	108
111	29
113	76
115	0
121	33
122	23
123	12
124	2
129	5
131	2
132	25
133	2
135	89
136	399
137	76
138	4
147	6
148	6
149	24
150	23
151	129
152	4
158	10
159	3
161	25
162	103
163	107
164	8
175	34
176	139
177	178
178	74
179	12
187	2
189	12
190	1
194	29
202	1
203	17
204	24
205	44
206	3
217	3
219	2
220	15
221	3
242	5
261	9
262	13
271	2
310	2
330	2
351	1
355	62
356	8
370	1
371	8
464	4
465	7
502	1
503	85
504	13
505	0
516	2
518	2
519	15
521	329
522	319
523	46
524	3
