Mass Spectrum: 3-(3-Aminophenyl)-1-phenyl-2-propen-1-one
Formula: C15H13NO
CAS: 30278-73-0
Molecular weight: 223
m/z	intensity
34	1
35	1
36	1
37	5
38	24
39	146
40	38
41	48
42	21
43	7
44	20
45	2
47	2
48	2
50	95
51	329
52	62
53	27
54	20
55	7
56	2
57	5
59	23
61	5
62	29
63	89
64	52
65	287
66	51
67	9
68	2
69	5
70	6
71	4
72	1
73	4
74	27
75	51
76	61
77	999
78	90
79	7
80	14
81	3
82	8
83	21
84	15
85	10
86	6
87	11
88	15
89	157
90	110
91	420
92	77
93	117
94	10
95	6
97	49
98	8
99	4
101	30
102	29
103	16
105	473
106	38
107	3
108	1
110	2
112	67
113	4
114	4
115	20
116	50
117	297
118	297
119	27
120	8
121	2
122	1
123	1
125	1
126	5
127	7
128	38
129	7
130	5
131	6
132	1
137	2
138	1
139	10
140	5
141	5
142	1
144	5
145	9
146	328
147	33
148	3
149	1
150	5
151	12
152	33
153	11
154	7
155	1
162	1
163	4
164	6
165	44
166	17
167	25
168	7
169	5
170	1
171	2
174	1
175	2
176	24
177	52
178	65
179	25
180	56
181	11
182	2
189	1
190	3
191	5
192	10
193	60
194	340
195	78
196	10
197	1
201	1
202	2
203	10
204	14
205	13
206	74
207	389
208	64
209	7
220	3
222	715
223	896
224	136
225	11
226	1
