Mass Spectrum: Quinoline-3-carboxamide, 1,2-dihydro-4-hydroxy-2-oxo-N-(6-methyl-2-pyridyl)-
Formula: C16H13N3O3
CAS: 302795-73-9
Molecular weight: 295
m/z	intensity
37	1
38	9
39	28
40	10
41	7
42	8
43	1
44	4
45	0
49	0
50	6
51	12
52	11
53	14
54	2
55	0
57	0
62	6
63	14
64	16
65	30
66	12
67	3
68	5
69	8
70	0
71	0
73	0
74	2
75	6
76	16
77	41
78	11
79	9
80	62
81	78
82	5
83	0
86	0
87	2
88	5
89	12
90	22
91	34
92	100
93	14
94	3
95	3
96	1
97	0
98	0
100	1
101	2
102	12
103	12
104	24
105	13
108	999
109	65
110	3
112	0
113	1
114	14
115	4
116	8
117	3
119	72
120	56
121	3
122	1
125	0
126	1
127	2
128	1
129	1
130	4
132	15
133	8
135	37
136	2
138	0
140	0
141	1
142	1
143	2
144	6
145	3
146	17
147	13
148	15
149	1
150	0
151	0
153	0
157	0
159	8
160	4
161	8
162	2
167	0
168	1
169	7
170	11
171	2
175	5
176	0
179	0
183	0
184	0
185	1
186	5
187	34
188	48
189	5
190	0
195	1
196	0
198	0
201	8
202	2
203	4
204	0
210	0
212	0
221	0
222	0
223	0
238	1
248	0
250	8
252	6
253	1
266	3
267	10
268	1
278	0
282	0
291	1
295	309
296	45
297	5
