Mass Spectrum: 1,2,5-Oxadiazole-3-carbohydroxymic acid, 4-amino-
Formula: C3H4N4O3
CAS: 302796-65-2
Molecular weight: 144
m/z	intensity
33	68
38	87
39	64
40	64
41	189
42	409
43	272
44	999
45	31
51	1
52	90
53	725
54	403
55	471
56	7
57	8
58	119
59	18
60	47
67	35
68	54
69	47
70	138
71	57
73	1
76	1
82	1
85	351
86	25
87	61
100	15
103	1
112	74
114	19
128	99
144	161
145	4
