Mass Spectrum: 3-(Diethylamino)propyl 2,4-dihydroxybenzoate
Formula: C14H21NO4
CAS: 302798-90-9
Molecular weight: 267
m/z	intensity
39	28
40	18
41	62
42	80
43	27
44	47
45	5
46	0
49	0
50	5
51	16
52	18
53	31
54	11
55	15
56	49
57	21
58	82
59	3
61	2
62	3
63	7
64	1
65	2
66	2
67	2
68	5
69	24
70	15
71	7
72	118
73	7
74	1
75	0
76	0
77	2
78	1
79	6
80	12
81	26
82	5
83	1
84	24
86	999
87	53
89	1
90	0
91	1
92	1
93	1
94	0
95	5
96	2
97	4
98	18
99	2
100	1
101	0
102	3
103	0
104	0
105	0
106	0
107	4
108	25
109	5
110	1
111	2
112	9
113	3
114	6
115	1
116	90
117	6
118	0
119	0
120	0
121	1
122	0
123	0
124	0
125	0
126	1
127	0
128	0
129	0
130	32
131	3
132	1
133	0
134	0
135	0
136	15
137	56
138	5
139	0
140	0
144	0
146	0
147	0
148	0
149	2
150	0
151	0
152	0
154	0
157	0
163	0
165	0
166	0
167	0
168	0
171	0
175	0
177	0
178	0
179	0
180	0
181	0
193	0
194	0
195	5
196	0
205	0
207	0
221	0
223	0
238	0
239	0
250	0
251	0
252	12
253	2
254	0
265	0
266	0
267	45
268	7
269	0
