Mass Spectrum: Acetamide, N-acetyl-N-(phenylmethyl)-
Formula: C11H13NO2
CAS: 3027-02-9
Molecular weight: 191
m/z	intensity
15	7
27	4
28	25
29	3
30	17
31	1
38	1
39	10
40	1
41	5
42	33
43	102
44	10
50	4
51	15
52	4
53	1
54	1
55	1
56	1
57	1
58	48
59	10
62	1
63	6
64	2
65	43
66	2
69	3
70	1
71	1
74	1
75	1
76	2
77	39
78	17
79	101
80	7
84	1
85	22
86	1
89	9
90	5
91	292
92	25
93	1
98	2
103	26
104	41
105	128
106	999
107	331
108	22
109	1
118	5
119	1
120	1
128	1
130	26
131	10
132	9
133	8
134	2
146	5
147	1
148	177
149	22
150	2
159	1
160	1
163	3
173	4
174	3
176	6
190	1
191	417
192	61
193	6
