Mass Spectrum: Benzo[f]isoindol-1,3(1H,3H)-dione, 3a,4,9,9a-tetrahydro-4,9-O-benzeno-2-diethylaminomethyl-
Formula: C23H24N2O2
CAS: 302777-06-6
Molecular weight: 360
m/z	intensity
33	2
34	0
36	0
37	0
39	12
40	13
42	59
43	12
44	29
45	1
46	0
50	6
51	7
52	3
53	6
54	16
55	21
56	84
57	60
58	92
59	2
62	4
63	9
64	1
65	2
66	0
67	1
68	2
70	47
72	999
73	36
75	17
76	19
77	7
78	2
80	5
82	57
85	303
86	504
87	30
88	17
89	29
91	5
92	0
94	4
96	14
97	4
98	8
99	6
101	68
102	9
104	0
105	1
106	2
107	1
110	314
111	14
112	2
113	3
114	1
115	5
116	0
117	0
119	0
120	0
121	0
122	1
123	1
124	2
125	5
126	8
127	9
128	6
129	0
130	0
132	0
134	0
135	1
137	2
138	2
139	7
140	1
141	0
146	0
147	0
150	26
151	33
152	52
153	162
154	11
155	1
156	0
157	0
161	0
162	1
163	5
164	3
165	11
167	190
168	14
169	1
171	0
173	4
174	9
176	91
178	561
179	64
180	8
181	15
182	3
183	0
186	0
187	2
189	13
191	101
192	13
193	1
194	0
197	0
198	1
200	18
201	15
202	54
203	33
204	8
205	1
206	0
213	0
214	0
215	1
216	1
217	2
218	2
219	0
226	0
227	0
228	1
229	1
230	1
231	5
232	1
241	0
244	0
245	0
246	0
256	0
258	0
259	0
271	0
272	0
275	25
276	4
277	0
288	2
289	0
304	0
329	0
331	34
332	7
333	0
342	0
343	0
345	77
346	17
347	2
348	0
358	0
360	24
361	5
362	0
