Mass Spectrum: Acetohydrazide, 2-(3-hydroxy-2-pentylcyclopentyl)-
Formula: C12H24N2O2
CAS: 302788-89-2
Molecular weight: 228
m/z	intensity
33	77
34	14
36	5
37	9
39	363
40	198
41	999
42	156
43	529
44	121
45	49
46	3
47	1
48	4
50	19
51	43
53	201
54	85
55	569
57	340
58	28
59	93
60	13
61	4
62	4
63	14
64	9
65	65
66	39
67	435
68	71
69	227
70	48
71	52
72	10
74	498
75	48
77	98
78	21
79	153
80	58
81	373
82	49
83	117
84	26
85	28
86	6
87	6
88	0
89	3
90	4
91	55
92	18
93	77
94	33
95	235
96	30
97	69
98	15
99	13
100	8
101	8
102	3
103	4
104	3
105	18
106	5
107	37
108	15
109	56
110	13
111	23
112	14
113	8
114	3
115	9
116	2
117	3
118	2
119	12
120	5
121	27
122	13
123	18
124	9
125	12
126	5
127	12
128	4
129	4
130	1
131	2
132	1
133	6
134	4
135	40
136	28
137	239
138	32
139	87
141	14
142	0
143	2
144	1
145	3
146	1
147	1
148	1
149	6
150	20
151	13
152	10
153	197
154	31
155	7
156	0
157	1
158	1
159	2
160	1
161	16
162	3
163	1
164	2
165	2
166	3
167	13
168	7
169	29
171	11
172	1
173	1
174	0
175	0
176	0
177	1
178	7
179	42
180	6
181	12
182	2
183	0
184	0
185	1
186	1
187	1
189	0
190	0
191	0
192	0
194	7
195	3
196	2
197	22
198	3
199	0
201	1
203	0
208	0
209	2
210	32
212	5
214	0
215	4
216	0
217	2
218	0
219	0
228	3
229	1
