Mass Spectrum: N'-(3,5-Dichloro-2-methoxybenzylidene)-4-pyridinecarbohydrazide
Formula: C14H11Cl2N3O2
CAS: 302814-36-4
Molecular weight: 323
m/z	intensity
35	10
36	19
37	19
38	35
39	42
40	15
41	11
42	6
43	16
44	12
45	5
50	276
51	364
52	71
53	38
55	5
57	4
59	5
61	25
62	29
63	32
64	10
65	11
66	4
72	15
73	30
74	49
75	76
76	48
78	774
79	67
83	5
84	11
85	14
86	15
87	18
88	17
89	31
90	15
91	29
92	13
93	6
94	9
95	4
97	28
98	7
99	14
100	5
101	5
106	999
109	40
110	18
111	25
112	9
113	6
117	4
118	8
119	5
120	7
122	123
123	61
124	15
125	24
126	7
127	6
132	5
133	6
134	5
135	7
137	33
138	9
139	14
140	4
141	5
144	4
145	9
146	9
147	9
148	13
149	4
151	6
152	5
153	4
154	3
158	14
159	21
160	9
161	14
166	5
167	9
172	9
173	6
174	7
175	5
182	8
184	4
186	15
187	18
188	9
189	11
201	291
202	48
203	136
204	18
205	20
288	17
289	3
290	5
323	9
325	4
