Mass Spectrum: Benzamide, N-(2-phenylimidazolo[1,2-a]pyrimidin-3-yl)-
Formula: C19H14N4O
CAS: 302817-95-4
Molecular weight: 314
m/z	intensity
33	9
34	1
35	0
36	3
37	3
38	10
39	28
40	20
41	4
42	4
43	4
44	10
45	1
48	0
50	65
51	153
52	84
53	147
54	9
55	3
56	2
57	1
58	0
61	2
62	7
63	13
64	6
65	4
66	1
67	1
68	2
69	1
70	1
71	0
74	15
75	24
77	565
79	537
80	30
81	1
82	1
83	2
84	1
86	2
87	3
88	6
89	9
90	2
91	2
92	1
95	0
98	1
99	1
100	2
101	5
103	85
105	999
106	61
107	4
109	0
111	0
112	1
113	1
114	6
115	5
116	1
117	0
118	0
119	0
120	1
121	1
122	0
125	0
126	0
127	2
128	11
129	25
130	3
131	1
132	0
137	0
138	0
139	0
140	2
141	2
142	1
143	0
151	0
152	0
153	1
154	3
155	11
156	4
157	0
165	0
166	0
167	0
168	0
169	0
170	0
171	0
179	0
182	597
183	65
184	4
185	0
186	0
189	0
190	0
194	0
200	0
203	0
205	0
207	13
209	196
210	30
211	3
212	0
227	0
228	0
229	0
236	0
261	0
268	1
284	0
285	0
286	0
310	1
311	2
312	3
314	219
315	43
316	5
317	0
