Mass Spectrum: 4-Nitro-N-(2-thiazolyl)phthalimide
Formula: C11H5N3O4S
CAS: 302927-83-9
Molecular weight: 275
m/z	intensity
36	13
37	48
38	67
39	45
40	66
41	21
42	19
43	24
44	64
45	335
46	101
47	14
48	11
49	20
50	72
51	42
52	27
53	73
54	16
55	15
56	10
57	79
58	564
59	25
60	31
61	29
62	56
63	115
64	23
65	30
66	9
67	3
68	2
69	16
70	22
71	36
72	12
73	74
74	424
75	999
77	89
78	27
79	24
80	3
81	2
82	6
83	8
84	6
85	4
86	25
87	12
88	20
89	20
90	8
91	19
92	7
93	5
94	4
95	2
96	1
97	5
98	6
99	9
100	11
101	39
102	24
103	660
104	51
105	7
106	9
107	4
108	1
109	1
110	4
111	3
112	2
113	1
114	6
115	13
116	10
117	11
118	7
119	50
120	17
121	6
122	1
123	0
124	1
125	3
126	7
127	11
128	4
129	13
130	2
131	1
132	3
133	10
134	3
135	2
136	2
138	25
139	0
140	0
141	1
142	5
143	4
144	10
145	5
146	11
147	18
148	8
149	355
150	34
151	4
152	0
153	0
154	3
155	0
156	2
157	7
158	3
159	3
160	2
161	8
162	1
163	1
164	0
165	1
166	0
167	0
168	1
169	0
170	2
171	24
172	13
173	27
174	4
175	9
176	1
177	5
178	0
179	4
180	0
182	1
183	0
184	1
185	44
186	5
187	10
188	2
189	23
190	3
191	1
192	1
193	3
194	0
195	0
196	0
197	0
199	0
200	0
201	51
202	9
203	9
204	0
205	0
206	0
207	5
208	0
212	0
214	0
215	0
216	0
217	37
218	5
219	8
220	0
221	0
225	0
227	0
228	11
229	110
230	15
231	17
232	2
233	19
234	2
235	3
244	0
245	4
246	0
247	13
248	1
249	0
257	0
259	2
260	0
261	0
274	59
275	704
276	108
277	46
278	5
279	0
