Mass Spectrum: 3-Anilinomethyl-5-(2-methoxybenzylidene)-2,4-thiazolidinedione
Formula: C18H16N2O3S
CAS: 302954-92-3
Molecular weight: 340
m/z	intensity
33	7
34	2
36	12
37	88
38	152
39	252
40	34
41	18
42	14
43	45
44	27
45	113
46	7
47	11
48	9
49	50
50	325
51	525
52	146
53	41
54	7
55	5
56	5
57	16
58	18
61	102
62	99
63	167
64	41
65	47
66	19
67	11
69	136
70	37
71	20
72	7
73	29
74	92
75	71
77	999
78	114
79	15
81	26
82	92
83	9
84	6
85	8
86	14
87	18
88	18
89	103
90	38
91	125
92	25
93	88
94	30
95	29
96	5
97	3
98	4
99	2
100	1
101	4
102	14
104	460
105	467
106	142
107	15
108	6
109	2
115	2
116	3
118	195
119	185
120	63
121	445
122	38
123	20
124	1
131	206
132	24
133	8
134	10
135	16
136	3
137	4
146	3
147	11
149	445
150	37
151	19
152	1
161	3
164	882
165	83
166	36
167	2
175	1
176	2
177	1
191	2
204	14
205	1
235	344
236	42
237	17
238	1
340	1
