Mass Spectrum: 2-(2,4-Dichlorophenoxy)-N-(4-nitro-1,8-naphthalimido)acetamide
Formula: C20H11Cl2N3O6
CAS: 302954-94-5
Molecular weight: 459
m/z	intensity
35	162
36	558
37	192
38	292
39	177
40	237
41	82
42	222
43	229
44	342
45	10
49	107
50	268
51	253
52	31
53	65
55	51
56	63
60	33
61	194
62	425
63	880
64	89
65	49
70	9
71	9
72	56
73	292
74	637
75	936
76	167
77	117
84	27
85	82
86	122
87	114
88	77
97	77
98	325
99	422
100	104
101	28
109	372
110	166
111	608
112	197
113	391
114	156
122	16
124	129
125	999
126	530
127	83
128	86
133	184
135	136
138	79
139	297
140	198
141	138
142	35
145	573
146	104
147	424
148	13
149	112
151	146
152	70
153	401
154	100
155	45
156	34
162	387
163	52
164	170
167	35
168	31
169	26
173	19
175	253
176	13
177	139
178	12
179	250
182	241
183	35
184	77
195	76
197	626
198	146
199	142
210	33
211	10
212	28
213	133
224	20
225	28
243	743
244	49
252	58
257	66
270	471
271	24
284	31
298	668
299	58
459	10
