Mass Spectrum: 5-(2-Methoxybenzylidene)-3-(4-methyl-1-piperazinylmethyl)-2,4-thiazolidinedione
Formula: C17H21N3O3S
CAS: 302955-83-5
Molecular weight: 347
m/z	intensity
39	96
40	84
42	687
43	225
44	91
45	49
47	3
48	1
50	41
51	51
52	12
54	46
56	300
57	50
58	76
59	7
60	17
63	66
64	7
65	9
66	3
67	7
70	812
71	50
72	11
74	14
75	12
77	95
78	15
79	3
82	51
83	18
84	11
85	11
86	4
87	6
89	47
91	53
93	24
94	9
95	10
96	5
97	18
98	41
99	34
100	9
101	3
102	6
103	6
104	2
105	4
106	4
107	2
108	3
109	4
111	49
113	999
114	60
115	4
116	2
118	38
119	34
121	135
123	5
129	1
131	37
132	5
133	6
134	5
135	3
136	2
144	1
145	2
146	1
149	95
150	8
151	4
161	4
164	115
165	9
166	4
167	1
177	6
191	8
192	1
204	2
235	10
236	1
248	3
347	10
348	2
