Mass Spectrum: 5H-Dibenz(b,f)azepin-2-ol, 10,11-dihydro-5-(3-(dimethylamino)propyl)-
Formula: C19H24N2O
CAS: 303-70-8
Molecular weight: 296
m/z	intensity
41	108
42	154
43	105
44	176
45	24
46	5
47	20
48	11
49	120
50	25
51	89
52	20
53	32
54	85
55	48
56	46
57	79
58	999
59	56
60	21
61	6
62	6
63	19
64	8
65	39
66	10
67	122
68	18
69	19
70	91
71	48
72	33
73	18
74	7
75	8
76	12
77	83
78	36
79	22
80	7
81	25
82	51
83	21
84	138
85	358
86	118
87	11
88	11
89	24
90	13
91	69
92	9
93	11
94	5
95	8
96	7
97	10
98	7
99	6
100	4
101	7
102	11
103	13
104	13
105	22
106	66
107	41
108	6
109	6
110	4
111	6
112	3
113	4
114	3
115	20
116	16
117	32
118	35
119	13
120	11
121	16
122	21
123	19
124	12
125	4
126	4
127	12
128	13
129	19
130	83
131	18
132	12
133	16
134	24
135	8
136	7
137	3
138	2
139	7
140	7
141	7
142	4
143	7
144	10
145	26
146	66
147	13
148	22
149	11
150	5
151	20
152	22
153	10
154	9
155	7
156	3
157	3
158	8
159	4
160	4
161	3
162	7
163	13
164	30
165	35
166	15
167	28
168	10
169	3
170	2
171	1
174	3
175	3
176	7
177	13
178	25
179	17
180	46
181	22
182	11
183	9
184	3
185	1
188	3
189	7
190	9
191	14
192	20
193	30
194	36
195	57
196	25
197	5
199	2
201	1
202	2
203	11
204	16
205	12
206	21
207	16
208	53
209	138
210	104
211	351
212	53
213	5
216	1
217	4
218	9
219	7
220	35
221	21
222	55
223	19
224	161
225	35
226	5
227	1
232	7
233	9
234	71
235	69
236	83
237	21
238	28
239	6
248	5
249	3
250	506
251	525
252	90
253	13
254	2
256	2
258	1
262	2
267	1
278	2
280	18
281	6
294	2
295	1
296	397
297	84
298	10
