Mass Spectrum: N-Desmethylcyclobenzaprine
Formula: C19H19N
CAS: 303-50-4
Molecular weight: 261
m/z	intensity
15	2
18	4
27	2
28	9
29	2
30	2
39	4
40	1
41	2
42	14
43	8
44	999
45	26
50	2
51	3
52	1
53	1
56	1
57	1
62	1
63	5
64	1
65	1
68	1
70	1
74	2
75	3
76	2
77	2
82	1
86	1
87	3
88	3
89	4
91	1
94	8
98	1
99	2
100	3
101	6
102	2
106	6
107	6
110	1
111	1
112	1
113	6
114	2
115	7
116	1
120	1
122	1
123	1
125	1
126	3
127	2
128	1
129	1
137	2
138	1
139	7
140	1
149	1
150	7
151	6
152	8
153	1
161	1
162	2
163	11
164	5
165	8
166	1
174	3
175	3
176	9
177	3
178	4
179	1
185	1
186	2
187	14
188	10
189	35
190	7
191	5
192	1
198	1
199	2
200	12
201	12
202	84
203	20
204	3
211	3
212	2
213	31
214	11
215	121
216	42
217	43
218	76
219	15
220	1
224	1
225	1
226	5
227	4
228	5
229	3
230	1
231	1
258	1
259	1
260	1
261	10
262	2
