Mass Spectrum: 5-(6,8-Dichloro-1-decylbenz[cd]indol-2(1H)-ylidene)-2,2-dimethyl-1,3-dioxane-4,6-dione
Formula: C27H31Cl2NO4
CAS: 303099-58-3
Molecular weight: 503
m/z	intensity
34	14
35	51
36	61
38	91
39	113
41	543
43	999
44	201
51	6
53	35
55	246
57	132
58	57
59	25
60	8
61	5
62	5
63	5
65	8
67	32
69	70
70	11
71	10
72	6
73	7
74	8
75	7
77	5
79	14
80	9
81	13
83	17
84	18
85	10
87	16
88	8
93	11
95	13
97	10
98	10
99	8
100	6
101	5
103	5
105	7
107	7
110	5
111	10
112	8
113	8
117	5
119	5
122	6
123	9
124	6
125	5
126	8
127	8
129	5
135	5
137	8
138	6
147	6
148	6
149	12
150	15
151	9
152	6
160	10
162	34
163	21
164	34
165	5
171	12
172	5
174	15
175	22
176	20
177	20
184	19
185	11
186	13
187	9
188	10
189	17
190	15
191	9
198	139
199	38
200	47
201	15
202	13
203	10
204	8
207	6
209	6
210	22
211	30
212	22
213	18
214	10
215	6
216	9
217	5
218	6
220	8
221	14
222	17
223	12
224	19
225	36
226	24
227	30
228	12
229	8
230	5
232	31
233	92
234	60
235	65
236	38
237	33
238	29
239	19
240	26
241	17
242	10
243	5
246	49
247	33
248	42
249	25
250	36
251	17
252	23
253	15
254	25
255	12
256	10
257	10
259	38
260	67
261	188
262	92
263	111
264	43
265	22
266	10
267	9
268	7
269	9
272	34
273	18
274	58
275	72
276	46
277	42
278	15
279	9
280	10
282	9
283	7
284	7
285	5
286	10
288	149
289	45
290	91
291	63
292	25
293	28
294	8
295	5
301	82
302	34
303	70
304	27
305	22
306	17
307	6
308	9
314	28
315	9
316	24
317	11
318	17
319	16
320	11
321	9
322	5
326	46
327	12
328	16
329	6
330	9
332	10
333	5
344	8
346	5
358	33
360	542
361	144
362	326
363	75
364	63
365	14
366	47
367	11
368	14
374	7
377	6
392	17
393	8
394	6
400	7
402	8
410	5
427	5
445	6
446	10
447	5
503	7
