Mass Spectrum: 2-Acetamido-5-(2,5-xylyl)thiazole
Formula: C13H14N2OS
CAS: 303099-17-4
Molecular weight: 246
m/z	intensity
34	25
36	21
37	10
39	191
40	249
41	104
43	999
45	191
46	9
47	6
50	27
51	90
52	25
53	28
55	21
56	30
57	29
58	11
60	60
62	14
63	58
64	18
65	28
66	7
67	9
69	41
70	15
71	17
72	6
73	7
74	12
75	17
77	121
78	27
79	19
80	4
81	9
82	8
83	8
84	6
85	7
86	5
87	7
88	7
89	21
90	22
91	41
92	5
93	6
94	4
95	7
101	13
102	28
103	33
104	13
105	9
113	7
114	15
115	71
116	35
117	38
118	12
121	9
125	4
126	10
127	40
128	92
129	143
130	148
131	27
132	14
133	9
134	15
135	8
140	6
141	7
142	16
144	293
145	305
146	62
147	76
148	14
149	14
155	4
157	4
158	7
159	17
160	44
161	85
162	143
163	18
164	8
170	5
171	21
172	8
176	6
185	9
187	103
188	36
189	23
201	7
202	11
203	82
204	148
205	21
206	6
244	6
246	257
247	26
248	10
