Mass Spectrum: 5-[1-(p-Tolyl)benz[cd]indol-2(1H)-ylidene]-2,2-dimethyl-1,3-dioxane-4,6-dione
Formula: C24H19NO4
CAS: 303099-61-8
Molecular weight: 385
m/z	intensity
33	5
34	5
35	7
37	13
39	211
40	87
41	151
43	999
44	222
46	3
50	29
51	65
52	21
53	13
55	34
57	150
59	85
62	28
63	63
64	13
65	48
66	4
67	4
68	3
69	14
70	10
71	13
73	30
75	34
76	16
77	49
78	13
79	18
81	9
83	16
84	9
85	7
86	18
87	26
88	22
89	25
91	66
92	16
93	8
94	10
95	6
97	7
98	13
99	19
100	41
101	20
102	13
107	88
110	9
111	13
113	90
114	91
120	86
122	7
123	6
126	313
129	7
132	2
134	12
136	9
137	12
138	8
139	7
140	21
141	6
142	6
148	2
149	48
151	11
152	11
153	5
154	2
162	12
163	19
164	64
165	10
166	2
171	12
173	2
174	9
175	11
176	9
177	6
178	3
182	5
185	2
186	5
187	13
188	11
189	12
190	7
192	18
193	4
198	4
199	9
200	12
201	15
202	14
203	7
204	4
211	8
212	10
213	17
214	21
215	12
216	10
217	3
220	23
221	3
223	3
224	15
225	21
226	49
227	38
228	40
229	13
230	15
231	4
238	28
239	28
240	77
241	39
242	10
243	3
244	2
249	7
250	13
251	47
252	133
253	138
254	492
255	522
256	112
257	16
258	37
259	119
260	23
261	3
265	6
268	293
269	53
270	9
279	8
282	434
283	286
284	78
285	11
289	3
293	5
295	2
298	6
299	38
300	9
301	4
310	20
311	5
316	2
326	4
328	12
329	4
381	6
383	7
385	243
386	59
387	9
