Mass Spectrum: N,N-Dimethyl-2-methoxyethylamine
Formula: C5H13NO
CAS: 3030-44-2
Molecular weight: 103
m/z	intensity
30	65
31	120
32	78
41	19
42	79
43	36
44	28
45	19
55	11
56	22
57	32
58	999
59	51
70	9
71	12
72	17
102	7
103	136
104	6
