Mass Spectrum: Tetrahydrofurfuryl N-(4-pyridyl)carbamate
Formula: C11H14N2O3
CAS: 303062-29-5
Molecular weight: 222
m/z	intensity
38	84
39	234
41	360
42	256
43	717
44	131
45	10
46	0
50	54
51	124
52	59
53	33
54	34
55	121
56	45
57	45
58	3
59	2
60	3
61	2
63	2
64	13
65	42
66	45
67	65
68	8
69	22
71	999
72	42
73	1
77	28
78	110
79	18
80	6
81	6
82	7
83	40
84	271
85	25
91	4
92	23
93	42
94	251
95	25
102	0
105	9
106	2
107	4
108	3
109	4
120	110
121	86
122	76
123	4
138	18
139	91
140	2
151	25
152	211
153	15
164	13
221	1
222	24
223	0
