Mass Spectrum: Benzonitrile, 2-(1-benzylpyrolidin-2-ylidene)amino-3-methyl-
Formula: C19H19N3
CAS: 303097-34-9
Molecular weight: 289
m/z	intensity
38	294
39	352
40	30
41	360
42	86
43	60
44	105
45	1
50	52
51	141
52	45
53	17
54	34
55	36
56	34
57	13
62	23
63	155
64	64
65	473
66	34
68	46
69	39
70	14
71	0
74	1
75	20
76	36
77	161
78	49
79	39
80	1
81	4
83	9
84	4
85	37
87	2
89	417
90	133
91	999
92	76
93	7
100	6
101	9
102	36
103	191
104	129
105	30
106	54
110	8
114	57
115	115
116	177
117	98
118	64
119	30
120	17
127	2
128	34
129	40
130	92
131	116
132	53
133	41
134	26
140	4
141	54
142	103
143	265
144	51
145	39
146	12
153	0
154	2
155	112
156	71
157	96
158	70
159	51
168	22
169	68
170	44
171	22
173	17
181	6
182	2
183	21
184	8
185	68
186	11
196	6
197	10
198	38
204	0
205	3
219	59
220	8
221	7
233	0
245	1
246	13
260	71
261	10
263	20
274	410
275	73
276	0
288	42
289	140
290	26
