Mass Spectrum: 2,4-Dimethyl-3-(2-oxopyrrolidino)-N-(3-pyridyl)benzenesulfonamide
Formula: C17H19N3O3S
CAS: 303096-79-9
Molecular weight: 345
m/z	intensity
34	66
36	528
37	263
40	372
41	999
42	389
43	459
44	604
45	112
46	23
48	229
50	217
51	275
52	148
53	151
55	338
56	66
57	66
58	44
60	26
61	38
63	395
64	377
65	429
66	410
67	247
68	63
69	118
70	41
71	38
73	32
74	53
75	85
76	109
77	438
78	199
79	169
80	63
82	53
83	26
84	35
86	103
89	100
90	127
91	392
92	148
93	459
94	486
95	226
98	50
101	32
102	97
103	263
104	193
105	163
106	38
107	32
108	26
111	29
115	103
116	118
117	260
118	187
119	63
120	57
121	32
126	29
127	29
128	69
129	50
130	241
131	184
132	238
133	127
134	44
141	32
142	29
143	63
144	136
145	91
146	63
157	32
158	44
159	115
160	235
161	29
170	47
171	35
172	47
173	29
186	97
187	166
188	305
189	94
195	75
196	103
197	254
198	44
210	32
224	35
225	57
226	35
263	29
264	69
265	85
266	97
280	103
281	88
282	9
345	115
346	19
347	14
