Mass Spectrum: 3-Cyclopentyl-N-thiazol-2-yl-propionamide
Formula: C11H16N2OS
CAS: 303064-55-3
Molecular weight: 224
m/z	intensity
33	2
34	6
36	0
39	72
40	110
41	192
42	40
43	37
44	44
45	42
46	6
47	1
48	0
50	3
51	8
52	4
53	36
55	452
56	23
57	22
58	43
59	16
60	5
62	0
63	1
64	1
65	9
66	5
67	41
68	9
69	92
70	7
71	5
72	1
73	17
74	3
75	1
76	2
77	12
79	77
80	13
81	67
82	6
83	11
84	2
86	2
91	8
92	0
93	0
95	5
97	32
98	4
100	999
101	99
102	43
103	4
105	8
106	0
107	60
108	5
112	0
113	3
115	0
119	0
125	27
126	2
127	11
131	0
132	0
142	55
143	3
144	1
147	0
155	17
156	1
157	0
183	4
185	4
224	31
225	3
