Mass Spectrum: Carbamic acid, 3-pyridinyl-, (2,2-dimethyl-5-nitro-1,3-dioxan-5-yl)methyl ester
Formula: C13H17N3O6
CAS: 303062-31-9
Molecular weight: 311
m/z	intensity
33	1
34	0
37	15
38	107
39	416
40	166
41	264
43	999
45	34
46	31
48	1
50	16
51	92
52	28
53	37
54	14
55	54
56	26
57	75
58	48
59	171
60	11
61	11
62	2
64	44
65	66
66	94
67	47
68	33
69	101
70	16
71	27
72	6
73	18
74	31
75	5
76	5
78	176
79	13
80	8
81	9
82	4
83	3
85	46
86	111
87	36
88	7
89	2
91	28
92	75
93	135
94	114
95	24
96	2
97	2
99	24
100	6
101	2
102	1
103	2
104	6
105	8
106	10
107	37
108	7
109	16
110	2
113	87
116	40
117	5
118	7
120	337
121	491
122	35
123	3
124	0
125	3
127	122
129	27
130	5
131	28
132	13
133	20
134	14
135	52
137	51
138	51
139	96
140	5
141	0
143	2
144	9
145	17
146	10
147	5
148	5
149	2
150	6
151	5
153	92
154	3
155	0
157	0
158	0
159	2
161	9
162	2
163	10
164	4
165	5
166	2
167	0
171	1
172	0
173	1
175	9
176	36
177	90
178	14
179	11
180	1
181	0
182	0
183	0
184	0
187	0
188	1
189	6
190	3
191	38
192	6
193	9
194	29
195	8
196	1
197	1
198	1
203	2
205	8
207	212
209	186
210	16
211	3
212	0
214	6
215	0
219	1
221	26
222	115
223	27
224	17
225	1
226	0
227	0
233	0
235	1
236	3
237	2
238	0
240	0
247	0
249	1
250	1
251	1
253	10
254	5
255	0
262	0
265	105
266	61
267	8
268	1
269	0
280	3
281	28
282	3
283	0
294	1
296	269
297	40
298	4
299	0
311	136
312	20
313	3
314	0
