Mass Spectrum: Butyric acid, 2-methyl-4-(2,5-xylyl)-
Formula: C13H18O2
CAS: 30316-14-4
Molecular weight: 206
m/z	intensity
12	0
13	4
14	11
15	78
16	32
17	27
18	93
19	4
25	1
26	22
27	239
28	52
29	105
30	9
31	17
32	0
35	2
36	4
37	5
38	19
39	217
40	29
41	322
42	29
43	46
44	11
45	105
46	5
47	2
49	1
50	32
51	113
52	39
53	86
54	8
55	52
56	15
57	20
58	16
59	9
60	6
61	3
62	13
63	57
64	26
65	92
66	12
67	12
68	4
69	202
70	19
71	17
72	5
73	20
74	391
75	30
76	20
77	192
78	72
79	73
80	7
81	5
82	5
83	7
84	5
85	5
86	10
87	57
88	8
89	23
90	13
91	251
92	29
93	21
94	2
95	2
96	1
97	1
98	3
99	2
100	1
101	8
102	26
103	90
104	103
105	186
106	42
107	10
108	2
109	1
110	1
111	1
112	1
113	5
114	7
115	129
116	53
117	217
118	82
119	999
120	263
121	24
122	3
123	1
125	1
126	3
127	18
128	50
129	41
130	22
131	58
132	582
133	763
134	80
135	7
136	1
139	4
140	2
141	17
142	11
143	17
144	10
145	50
146	19
159	3
160	18
161	12
162	4
170	1
171	17
172	8
173	5
174	3
175	2
176	0
183	1
184	1
185	6
186	8
187	8
188	60
189	27
190	14
191	2
195	0
197	0
200	0
202	0
203	1
204	2
205	1
206	277
207	42
