Mass Spectrum: Pyridine-4-carbohydrazide, N2-(2-trifluoroacetylcyclohexenyl)-
Formula: C14H14F3N3O2
CAS: 303133-57-5
Molecular weight: 313
m/z	intensity
33	6
34	0
37	2
39	53
40	21
41	52
42	10
43	6
44	5
45	2
46	0
47	1
50	55
51	190
52	22
53	29
54	20
55	31
56	2
57	2
59	3
60	0
61	0
62	1
63	3
64	4
65	10
66	11
67	21
68	8
69	23
70	6
71	1
72	0
73	1
74	1
75	5
78	490
79	44
80	6
81	11
82	10
83	3
84	1
85	0
86	0
87	1
88	0
89	2
90	1
91	7
92	3
93	3
94	4
95	5
97	10
98	1
99	1
100	0
101	2
103	5
106	999
107	60
109	9
110	3
111	1
112	0
113	0
114	0
115	1
116	0
117	1
118	0
119	1
120	1
121	2
122	5
123	3
124	1
125	2
127	1
128	0
129	0
130	0
131	1
132	0
134	1
135	0
137	5
138	1
139	3
141	4
142	0
143	0
144	0
145	0
146	0
147	0
148	0
149	2
150	0
151	0
156	0
157	0
159	0
161	11
162	2
163	0
165	0
168	0
169	3
170	0
171	1
172	0
174	28
175	3
176	0
179	0
180	0
186	0
187	0
188	1
189	1
190	0
191	0
192	0
194	0
196	0
197	0
199	0
207	0
208	0
214	0
216	4
217	0
228	0
240	0
241	1
244	291
245	39
246	3
247	0
270	0
293	0
294	1
295	0
296	0
311	0
313	82
314	12
315	1
