Mass Spectrum: N'-[1-(2-Furyl)ethylidene]-2,2-diphenyl-1-cyclopropanecarbohydrazide
Formula: C22H20N2O2
CAS: 303193-16-0
Molecular weight: 344
m/z	intensity
33	9
34	3
36	3
37	13
39	710
41	402
42	80
43	50
44	30
45	27
46	2
51	215
53	86
54	74
55	150
56	27
57	19
58	6
60	4
61	27
63	141
65	371
66	232
67	35
68	18
69	15
70	9
71	4
72	3
74	22
75	27
77	186
78	32
79	17
81	101
82	36
83	18
85	15
86	9
87	24
89	105
91	503
93	139
94	111
95	162
96	18
98	17
99	5
101	9
102	25
103	30
105	295
108	78
110	269
111	18
113	28
115	999
117	4
118	2
119	3
122	178
124	755
126	13
127	9
128	19
129	14
130	8
132	3
133	4
134	2
135	3
136	3
137	8
138	12
139	46
140	12
141	15
143	100
144	12
145	2
147	1
148	1
149	3
151	100
152	61
153	12
154	3
156	1
157	1
158	6
159	2
160	1
161	3
163	51
165	301
166	39
167	66
168	7
169	2
171	5
172	7
174	2
175	4
176	17
178	273
179	51
180	149
181	24
182	6
183	5
184	2
185	3
187	9
189	99
191	360
192	351
193	246
194	33
195	5
196	1
197	1
198	2
199	2
200	4
202	93
203	124
204	25
206	45
207	17
208	7
209	1
210	1
215	3
217	11
218	19
219	48
220	100
221	163
222	31
224	26
225	5
231	1
232	2
234	10
236	38
237	7
238	1
249	1
252	1
260	1
272	3
274	22
275	4
276	1
283	1
286	1
288	2
289	17
290	3
300	1
301	1
302	1
315	2
316	1
339	3
340	9
342	9
344	306
345	62
346	9
