Mass Spectrum: Thiophene-2-carboxamide, N-(4,5,6,7-tetrahydro-6-tert-butyl-3-cyano-2-benzothienyl-
Formula: C18H20N2OS2
CAS: 303135-81-1
Molecular weight: 344
m/z	intensity
33	1
34	1
35	0
36	1
37	2
39	157
40	21
41	98
42	6
43	19
44	6
45	15
46	0
47	2
48	0
49	0
50	3
51	6
52	4
53	11
54	2
55	16
57	54
58	9
59	4
60	2
61	0
62	1
63	3
64	5
65	4
66	2
67	4
69	12
70	3
71	4
72	0
73	0
74	0
75	1
76	3
77	7
78	4
79	4
80	1
81	4
82	10
83	55
84	7
85	3
86	1
87	0
88	2
89	3
90	2
91	5
92	1
93	1
94	2
95	1
96	1
97	1
98	0
99	0
100	0
101	0
102	1
103	1
104	2
105	2
106	1
107	1
108	2
111	999
112	62
113	45
114	4
115	2
116	3
117	2
118	1
119	1
120	1
121	2
122	3
123	1
124	0
125	0
126	0
127	1
128	1
129	1
130	1
131	0
132	0
133	0
134	2
135	1
136	0
137	1
138	0
139	0
140	0
141	1
142	2
143	1
144	0
145	0
146	1
147	1
148	3
149	1
150	11
151	4
152	1
153	0
154	0
155	0
156	0
157	0
158	0
159	1
160	1
161	2
162	1
163	1
164	0
165	0
166	0
167	0
168	0
169	0
170	0
171	0
172	0
173	0
174	1
175	6
176	4
177	2
178	0
179	0
181	0
182	0
183	0
184	0
185	0
186	0
187	0
188	0
189	0
190	0
191	0
192	0
194	0
196	0
199	0
200	0
201	0
202	0
203	0
204	0
205	0
216	0
217	0
218	0
219	0
220	0
230	0
231	0
233	1
234	1
235	0
236	0
251	0
253	0
260	6
261	0
262	0
277	0
278	0
286	0
287	0
288	0
289	0
327	0
329	2
330	0
331	0
339	0
340	1
342	1
344	39
345	8
346	4
347	0
348	0
