Mass Spectrum: Piperidine, 1-(4-chloro-2-nitrobenzoyl)-3,5-dimethyl-
Formula: C14H17ClN2O3
CAS: 303136-84-7
Molecular weight: 296
m/z	intensity
33	2
34	2
35	0
36	6
37	1
38	4
39	45
40	34
41	205
42	233
43	65
44	33
45	1
46	3
49	0
50	10
51	10
52	5
53	16
55	220
56	58
57	11
58	9
60	0
62	14
63	24
64	4
65	9
66	2
67	15
68	50
69	149
70	63
71	4
72	0
74	16
75	58
76	86
77	12
78	5
79	4
80	3
81	4
82	19
83	56
84	11
85	14
86	3
87	3
88	1
89	4
90	3
91	11
92	2
93	1
94	3
96	242
97	24
98	12
99	14
100	3
101	3
102	1
103	5
104	4
105	3
106	0
108	5
109	5
110	89
111	246
112	999
113	92
114	5
115	4
116	1
117	1
118	2
120	1
123	0
124	1
125	4
126	10
127	12
128	22
129	4
130	1
132	0
136	1
138	58
139	38
140	24
141	15
142	1
143	0
145	1
149	1
151	0
152	1
153	2
154	9
155	47
156	6
157	15
158	0
164	0
165	1
166	4
168	61
169	16
170	21
171	7
172	0
177	0
178	1
179	4
180	12
181	9
182	6
184	150
185	38
186	46
187	11
188	1
192	0
193	0
194	1
195	0
196	3
197	34
198	3
199	11
200	0
206	0
207	0
208	1
209	0
214	0
220	1
221	0
222	3
223	0
227	1
234	0
235	1
236	1
248	0
249	18
250	3
251	10
252	1
253	1
261	1
263	0
264	0
265	1
266	2
267	0
268	1
279	53
280	8
281	21
282	3
283	1
296	32
297	5
298	10
299	1
