Mass Spectrum: Pyrimidine, 2,4-bis(4-acetylaminophenyl)-
Formula: C20H18N4O2
CAS: 303141-03-9
Molecular weight: 346
m/z	intensity
33	24
34	2
38	12
39	38
40	83
41	35
43	999
44	223
45	8
50	8
51	16
52	16
53	4
54	0
55	2
56	2
58	16
62	21
63	60
64	36
65	44
66	6
67	2
73	188
74	11
75	18
76	19
77	15
78	8
79	0
87	7
88	21
89	109
90	104
91	86
92	38
93	11
94	0
99	0
100	4
101	16
102	29
103	15
104	12
105	6
106	3
109	1
112	1
114	28
115	49
116	178
117	630
118	537
119	126
120	11
121	0
123	8
124	0
126	3
127	4
128	13
129	17
131	268
133	2
137	11
138	8
139	0
140	4
141	12
142	47
143	96
144	85
145	21
146	0
152	27
153	8
154	4
155	8
156	2
158	19
159	7
160	11
161	6
164	2
165	1
166	3
168	6
169	12
170	45
171	7
175	0
176	1
177	1
179	10
180	5
181	4
182	3
189	2
190	6
191	5
192	8
193	5
194	3
196	1
203	5
204	5
205	13
206	14
207	11
208	9
209	11
210	1
215	1
216	8
217	10
218	12
219	6
220	12
221	4
230	5
231	11
232	18
233	19
234	30
235	31
236	4
243	6
244	13
245	8
246	8
247	2
257	2
258	7
259	35
260	41
261	187
262	701
263	157
264	17
274	2
275	0
277	1
287	2
288	18
289	2
299	1
301	18
303	84
304	368
305	77
306	8
342	1
343	7
344	9
345	37
346	215
347	45
348	5
