Mass Spectrum: Butyric acid, 2-methyl-4-(2,5-xylyl)-, methyl ester
Formula: C14H20O2
CAS: 30316-15-5
Molecular weight: 220
m/z	intensity
12	1
13	3
14	9
15	208
16	3
17	2
18	6
25	0
26	8
27	78
28	51
29	62
30	5
31	11
32	2
33	2
37	4
38	5
39	79
40	12
41	87
42	13
43	9
44	3
45	10
46	0
49	1
50	8
57	24
70	26
80	9
83	1
84	0
85	1
86	2
87	17
88	999
89	55
90	11
91	115
92	12
93	8
94	1
95	1
96	1
97	0
98	1
99	1
100	0
101	8
102	14
103	43
104	56
105	62
106	13
107	3
109	0
110	1
112	0
113	2
114	3
115	60
116	27
117	89
118	43
119	411
120	86
121	7
122	1
125	1
126	1
127	8
128	22
129	20
130	11
131	25
132	208
133	193
134	21
135	2
139	1
140	0
141	4
142	2
143	4
144	5
145	28
146	9
147	4
148	1
149	1
155	0
157	1
158	1
159	11
160	9
161	6
162	1
163	1
171	1
172	0
173	1
175	1
177	1
187	1
188	12
189	44
190	6
191	1
205	0
220	164
