Mass Spectrum: Imidazolidine, 1,3-dimethyl-2-(4-pyridyl)-
Formula: C10H15N3
CAS: 303187-78-2
Molecular weight: 177
m/z	intensity
34	0
37	4
38	12
39	40
40	12
41	40
42	191
43	17
44	25
45	0
50	34
51	89
52	23
53	7
54	12
55	9
56	44
57	15
58	73
59	3
61	2
62	6
63	23
64	15
65	55
66	10
67	4
68	2
69	5
70	3
71	1
72	0
73	0
74	1
75	6
76	5
77	11
78	45
79	14
80	7
81	13
82	2
83	11
84	4
85	0
88	0
89	0
90	3
91	9
92	46
93	9
94	3
95	0
97	12
99	999
100	70
101	2
102	0
103	0
104	6
105	9
106	14
107	27
108	3
109	0
116	1
117	5
118	33
119	73
120	7
121	7
122	0
129	0
131	5
133	282
134	42
135	14
136	1
137	0
143	0
144	0
145	1
146	0
147	2
148	2
149	0
150	0
151	0
157	0
158	1
159	1
160	8
161	2
162	12
163	1
172	0
174	9
176	185
177	33
178	3
179	0
