Mass Spectrum: Isoxazole-4-carboxamide, 5-methyl-3-phenyl-N-(4-methyl-1-piperazinyl)-
Formula: C16H20N4O2
CAS: 303134-45-4
Molecular weight: 300
m/z	intensity
33	25
34	1
38	8
40	81
42	500
43	634
44	141
45	9
49	1
50	20
51	52
52	14
54	16
55	55
56	391
57	119
58	347
62	2
63	6
64	3
65	7
67	3
69	27
70	570
71	375
72	45
73	2
75	6
76	11
77	107
78	13
79	3
81	4
82	25
83	74
84	24
85	28
86	0
87	21
89	15
91	3
92	1
93	1
98	771
99	999
100	53
102	3
103	6
104	8
105	1
114	85
116	31
117	2
118	1
127	1
128	1
129	1
130	1
132	0
142	3
144	130
145	14
160	1
166	4
181	1
182	1
186	15
188	2
200	1
202	3
203	4
230	20
231	1
243	5
257	1
285	16
286	2
299	1
300	62
301	11
