Mass Spectrum: 2-Pyrazolin-5-ol, 3-ethyl-5-trifluoromethyl-1-(4-pyridincarbonyl)-
Formula: C12H12F3N3O2
CAS: 303133-51-9
Molecular weight: 287
m/z	intensity
33	1
34	0
37	2
39	36
40	11
41	26
42	16
43	7
44	3
45	0
46	0
47	1
50	64
51	174
52	16
53	13
54	7
55	19
56	8
57	2
59	2
60	0
61	0
62	1
63	2
64	6
65	3
66	2
67	4
69	34
70	4
71	1
72	0
73	0
75	5
78	408
79	20
81	1
83	5
84	1
85	4
87	0
88	0
89	1
90	1
91	2
92	2
93	1
94	0
95	1
97	3
98	1
99	1
100	0
101	0
102	1
106	999
109	4
112	6
113	4
115	2
117	1
118	0
119	0
120	2
121	1
122	0
123	1
124	0
125	0
126	0
129	0
130	0
131	0
132	0
133	0
134	0
135	1
136	0
138	1
139	0
140	0
142	0
143	3
145	1
146	0
147	0
149	1
150	0
151	0
152	0
153	0
161	0
162	1
163	0
164	0
165	0
166	0
167	0
168	0
174	0
176	12
177	1
181	0
189	0
190	0
199	0
200	0
204	13
205	1
206	0
209	0
214	0
218	144
219	14
220	1
221	0
240	0
254	0
258	5
259	0
268	1
269	0
270	0
272	8
273	0
284	0
287	83
288	10
289	0
