Mass Spectrum: Butyric acid, 3-methyl-4-(2,5-xylyl)-, methyl ester
Formula: C14H20O2
CAS: 30316-20-2
Molecular weight: 220
m/z	intensity
12	0
13	1
14	2
15	282
16	13
17	5
18	16
25	1
26	6
27	86
28	64
29	82
30	7
31	14
32	2
33	2
37	2
38	7
39	120
40	25
41	139
42	39
43	32
44	10
45	14
46	11
49	1
50	13
51	55
52	20
53	49
54	4
55	30
56	3
57	4
58	5
59	105
60	4
61	2
62	6
63	29
64	15
65	50
66	7
67	7
68	2
69	44
70	7
71	6
72	4
73	6
74	23
75	11
76	9
77	109
78	43
79	42
80	5
81	5
82	10
83	7
84	0
85	2
86	1
87	3
88	3
89	13
90	8
91	149
92	17
93	10
94	2
95	2
96	2
97	3
98	2
99	2
100	1
101	30
102	17
103	57
104	72
105	88
106	36
107	8
108	1
109	1
110	2
112	0
113	3
114	4
115	80
116	35
117	76
118	48
119	999
120	144
121	11
122	3
125	2
126	3
127	15
128	44
129	43
130	24
131	144
132	35
133	15
134	3
135	3
139	3
140	2
141	10
142	7
143	18
144	26
145	48
146	883
147	137
148	10
149	2
153	1
155	1
156	2
157	4
158	6
159	29
160	8
161	4
162	1
163	2
171	7
172	2
173	4
174	1
175	1
177	1
185	1
186	3
187	5
188	8
189	98
190	14
191	3
192	1
193	0
205	1
220	245
221	37
222	4
