Mass Spectrum: Phenethyl alcohol, 2-(1-hydroxyethyl)-.alpha.-methyl-
Formula: C11H16O2
CAS: 30314-65-9
Molecular weight: 180
m/z	intensity
27	17
28	35
29	18
40	26
41	28
43	138
44	11
45	165
51	18
53	9
55	12
57	9
63	13
65	55
77	70
78	24
79	29
89	22
90	17
91	225
92	115
93	57
102	11
103	40
104	12
105	39
106	6
107	9
115	97
116	62
117	410
118	999
119	201
120	50
121	88
122	9
127	13
128	28
129	75
130	11
131	17
132	8
133	9
143	14
145	17
147	156
148	19
161	5
162	48
163	7
180	3
