Mass Spectrum: 2-Pyrazolin-5-ol, 5-tert-butyl-3-trifluoromethyl-1-(3-methylbenzoyl)-
Formula: C16H19F3N2O2
CAS: 303133-47-3
Molecular weight: 328
m/z	intensity
33	20
34	3
36	0
37	1
39	52
40	59
41	62
42	9
43	11
44	15
45	1
47	0
50	6
51	14
52	4
53	11
54	7
55	10
57	26
59	2
60	0
61	0
63	22
65	92
66	5
67	6
68	4
69	15
70	2
71	1
73	0
74	1
75	2
76	2
77	7
78	4
79	3
80	0
81	1
82	1
83	2
84	0
85	2
86	0
87	1
89	28
91	280
92	19
93	0
95	1
96	1
97	4
99	0
101	0
102	0
103	2
105	4
106	5
107	0
108	0
109	0
110	0
111	0
112	0
113	0
115	1
116	4
119	999
120	73
121	5
122	0
123	0
124	0
125	1
126	0
127	0
128	0
130	0
131	0
132	1
133	1
134	3
135	0
136	0
137	0
138	0
139	0
140	0
141	0
147	1
149	1
150	0
159	0
165	0
171	1
173	0
177	2
259	0
271	8
272	0
328	17
329	2
330	0
