Mass Spectrum: Pyridine-4-carboxamide, N-(4,5,6,7,8,9-hexahydro-3-cyano-cycloocta[b]thien-2-yl)-
Formula: C17H17N3OS
CAS: 303138-42-3
Molecular weight: 311
m/z	intensity
33	0
34	0
37	0
39	17
40	6
41	18
42	2
43	2
44	3
45	7
47	2
51	109
52	10
53	7
55	10
56	1
58	5
59	5
60	1
61	1
63	5
64	7
65	6
66	3
67	5
69	6
70	3
71	5
72	0
73	1
74	0
75	4
76	11
78	318
79	29
80	3
81	2
82	2
83	2
84	2
85	2
86	1
87	1
88	2
89	4
90	6
91	13
92	4
93	4
94	6
95	5
96	3
97	5
98	1
99	1
100	0
102	7
103	7
106	999
109	6
110	3
111	2
112	1
113	1
114	1
115	4
116	8
117	5
118	5
119	4
120	2
121	6
122	20
123	5
124	3
125	1
126	0
127	1
128	2
129	6
130	5
131	3
132	1
133	1
134	5
135	5
136	7
137	11
138	4
139	2
140	1
141	1
142	2
143	4
144	4
145	2
146	4
147	2
148	3
149	5
150	10
151	12
152	2
153	1
154	1
155	2
156	2
157	1
158	0
159	1
160	2
161	5
162	4
163	11
164	3
165	1
166	0
167	0
168	0
169	0
170	0
171	3
172	2
173	1
174	1
175	3
176	3
177	4
178	6
179	2
180	1
181	3
182	0
185	0
187	0
188	0
189	1
190	1
191	0
192	0
193	0
195	0
196	0
202	0
203	1
204	2
205	8
206	3
207	1
208	0
218	0
220	2
221	0
227	0
230	0
232	0
233	0
235	0
240	0
241	0
242	3
243	8
244	1
245	0
248	0
252	0
253	0
255	16
256	21
257	5
258	1
261	0
262	0
265	0
268	20
269	12
270	3
271	0
272	0
276	0
278	0
279	1
280	2
282	45
283	110
284	20
285	6
286	0
287	0
289	1
290	0
296	1
307	0
308	1
309	6
311	119
312	22
313	7
314	0
315	0
