Mass Spectrum: Thiophene-2-carboxamide, N-[4-(1-naphthyl)-2-thiazolyl]-
Formula: C18H12N2OS2
CAS: 303136-11-0
Molecular weight: 336
m/z	intensity
33	1
34	2
35	0
36	2
37	5
39	203
40	13
41	14
42	11
43	17
44	11
45	39
46	1
47	2
48	0
49	2
50	14
51	19
52	5
53	8
54	3
55	9
56	14
57	22
58	10
59	4
60	1
61	2
62	6
63	15
64	4
65	11
66	8
67	1
68	3
69	11
70	6
71	5
72	1
73	2
74	9
75	13
76	10
77	20
78	5
79	4
80	2
81	7
82	14
83	67
84	11
85	10
86	5
87	5
88	3
89	8
90	5
91	25
92	4
93	3
94	1
95	1
96	1
97	2
98	4
99	5
100	4
101	7
102	4
103	2
104	2
105	3
106	1
107	1
108	2
109	14
111	999
112	60
113	52
114	6
115	18
116	4
117	21
118	6
119	1
120	1
121	1
122	1
123	2
124	1
125	6
126	20
127	29
128	10
129	2
130	1
131	1
132	1
133	0
134	0
135	0
136	0
137	3
138	6
139	38
140	8
141	1
142	0
143	0
144	1
145	2
146	1
147	0
148	0
149	1
150	5
151	11
152	28
153	15
154	8
155	1
156	1
157	1
158	3
159	1
160	1
161	0
162	0
163	1
164	10
165	5
166	5
167	11
168	2
169	2
170	3
171	11
172	6
173	1
174	0
175	0
176	0
177	1
178	1
179	3
180	1
181	2
182	3
183	13
184	45
185	7
186	2
187	0
188	0
189	0
190	0
191	1
192	3
193	1
194	0
195	0
196	8
197	4
198	4
199	5
200	1
201	3
202	1
203	0
204	0
205	0
206	0
207	1
208	19
209	19
210	4
211	1
212	0
215	0
216	0
217	0
218	0
221	0
222	0
223	1
224	3
225	7
226	9
227	2
228	0
229	1
230	0
231	0
234	0
235	0
236	0
238	0
247	0
248	0
249	0
250	0
251	0
252	0
253	0
262	0
266	0
267	0
277	0
283	0
291	0
303	0
305	0
307	1
308	3
309	0
310	0
318	0
319	2
320	2
321	0
324	0
331	0
332	0
333	2
334	1
336	102
337	21
338	10
339	1
340	0
