Mass Spectrum: 2-Isonicotinamido-N-(2,6-dimethylphenyl)benzamide
Formula: C21H19N3O2
CAS: 303205-95-0
Molecular weight: 345
m/z	intensity
39	163
41	41
42	12
43	6
45	21
50	532
51	337
52	71
54	32
56	1
57	1
63	145
64	107
65	70
67	16
69	2
71	1
74	22
78	999
81	2
85	1
87	2
90	142
91	130
92	93
94	3
100	2
106	504
108	1
113	2
115	8
116	7
118	32
120	236
126	1
127	2
128	1
130	3
131	1
132	1
133	2
136	2
140	3
141	3
142	1
143	1
146	19
151	1
152	1
153	2
154	1
165	1
167	3
168	2
170	1
178	1
179	3
180	2
182	2
194	5
195	3
196	3
197	2
205	1
206	2
207	1
208	1
209	2
222	1
225	35
226	2
239	4
242	2
345	1
