Mass Spectrum: Cyclopropanecarboxamide, 2-butyl-N-(2-cyanophenyl)-
Formula: C15H18N2O
CAS: 303215-84-1
Molecular weight: 242
m/z	intensity
33	26
34	3
35	0
36	3
37	3
38	12
39	82
40	70
41	140
42	21
43	55
44	11
45	1
50	4
51	14
52	14
53	41
55	999
56	31
57	18
58	3
59	6
61	0
62	4
63	19
64	16
65	12
67	33
68	17
69	39
70	4
71	2
72	0
73	1
75	10
76	5
77	7
79	12
80	7
81	35
82	19
83	21
84	1
85	4
86	3
87	3
88	0
90	29
91	29
92	6
94	1
95	8
96	6
97	75
98	6
99	1
100	1
102	16
103	2
104	1
105	1
107	5
108	0
109	0
111	1
113	13
114	0
115	1
117	20
118	205
119	29
120	4
121	0
123	4
124	20
125	252
126	22
127	2
128	1
129	4
130	2
131	4
132	6
133	2
136	40
137	4
142	1
143	1
144	0
145	20
146	5
154	1
155	4
156	2
157	5
158	2
160	122
161	19
162	2
163	1
168	0
170	1
171	11
172	4
173	21
174	9
177	0
178	0
182	0
183	1
184	1
185	12
186	4
187	2
197	1
199	14
200	12
201	1
206	0
208	0
212	1
213	12
214	4
220	1
222	0
225	1
227	4
230	1
236	0
240	0
241	5
242	58
243	9
244	0
