Mass Spectrum: 6-Bromo-5-methyl-3-p-tolylimino-1,3-dihydro-indol-2-one
Formula: C16H13BrN2O
CAS: 303215-78-3
Molecular weight: 328
m/z	intensity
33	6
34	4
36	7
37	15
38	62
39	416
40	127
41	163
42	57
43	36
44	135
45	10
50	163
51	336
52	158
53	40
54	7
55	11
56	8
57	13
58	8
60	0
61	18
62	91
63	266
64	135
65	999
66	60
67	5
68	1
69	8
70	8
71	8
72	11
73	95
74	36
75	90
76	144
77	191
78	68
79	60
80	31
81	13
82	22
83	14
84	10
85	7
86	14
87	33
88	67
89	279
90	197
91	853
92	93
93	7
94	0
95	6
96	16
97	12
98	10
99	8
100	17
101	30
102	118
103	130
104	59
105	22
106	41
107	28
108	4
109	10
110	13
111	4
112	5
113	7
114	34
115	56
116	41
117	22
118	35
119	7
120	2
121	3
124	8
125	3
126	3
127	12
128	22
129	109
130	47
131	36
132	7
133	2
135	3
136	0
137	0
138	0
139	3
140	5
141	7
142	17
143	6
144	1
145	0
146	0
147	4
150	10
151	13
152	14
153	6
154	5
155	8
156	14
157	22
158	8
159	1
162	0
163	17
164	56
165	42
166	9
167	8
168	4
169	2
170	1
171	3
176	4
177	13
178	42
179	25
180	10
181	8
182	11
183	12
184	10
185	8
189	2
190	13
191	21
192	32
193	34
194	57
195	11
196	2
202	1
203	11
204	19
205	95
206	98
207	19
209	49
210	22
211	39
212	13
217	6
218	20
219	98
220	78
221	192
222	83
223	14
224	8
225	0
234	1
236	16
237	20
238	10
239	14
247	4
248	6
249	11
250	29
251	4
256	1
258	1
264	1
270	1
271	7
272	49
273	33
274	48
275	23
276	2
284	3
285	8
286	4
287	7
299	288
300	841
301	296
302	838
303	129
304	12
328	550
329	130
330	495
331	63
332	8
