Mass Spectrum: Benzonitrile, 2-(4-benzyloxybenzylidenamino)-
Formula: C21H16N2O
CAS: 303212-07-9
Molecular weight: 312
m/z	intensity
33	3
34	0
39	28
40	4
41	5
42	0
43	0
44	0
45	0
50	6
51	15
52	2
53	0
55	0
57	0
61	0
62	2
63	10
65	87
66	3
67	0
68	0
70	0
75	6
76	7
77	7
78	0
79	0
81	0
84	0
86	0
87	0
91	999
92	56
93	7
94	0
96	0
99	0
100	0
102	14
103	2
104	0
105	0
113	0
114	0
115	0
116	0
118	0
119	0
120	0
126	0
127	0
129	6
130	0
131	0
138	0
139	1
140	1
141	0
142	0
151	0
152	0
153	1
154	0
155	0
163	0
164	1
165	1
166	2
167	1
168	0
177	0
180	0
181	0
184	0
191	0
192	9
193	7
194	1
195	1
196	0
197	1
198	0
203	0
204	0
212	0
221	5
222	1
223	0
247	0
255	0
256	0
269	0
270	0
282	0
283	1
284	0
295	0
296	0
309	0
310	0
312	300
313	69
314	9
315	0
