Mass Spectrum: 1,3-Dibenzyl-2-(2-hydroxy-1-naphthyl)imidazolidine
Formula: C27H26N2O
CAS: 303214-70-2
Molecular weight: 394
m/z	intensity
37	6
39	83
40	25
41	33
42	23
43	11
44	25
50	24
51	37
52	10
53	5
54	8
55	7
56	13
57	5
62	11
63	37
65	196
69	9
71	4
74	5
75	12
76	14
77	34
78	13
79	9
85	4
86	5
87	10
89	96
91	999
92	70
101	9
102	9
103	10
104	23
105	18
106	15
107	4
113	12
114	20
115	41
116	9
117	13
118	28
120	39
126	21
127	38
128	37
129	16
130	8
131	9
132	22
133	13
134	16
139	6
140	8
141	9
142	4
143	6
144	7
147	9
149	15
152	9
153	5
154	11
155	9
156	17
157	42
158	9
159	9
166	7
167	12
168	9
169	13
170	15
171	7
181	18
182	42
183	39
184	50
185	7
197	4
198	8
210	4
211	6
212	5
215	4
237	15
244	10
245	11
246	4
249	5
250	7
251	20
258	16
259	12
260	31
261	70
262	59
263	9
272	7
274	96
275	22
276	5
301	10
303	74
304	9
394	24
395	4
