Mass Spectrum: 2-Amino-5-bromothiazole
Formula: C3H3BrN2S
CAS: 3034-22-8
Molecular weight: 178
m/z	intensity
14	1
27	12
32	12
38	18
39	16
40	7
41	8
42	17
43	14
44	59
45	80
46	10
47	7
49	77
50	6
53	32
54	12
55	228
56	31
57	467
58	51
59	35
60	66
70	51
71	54
72	138
73	18
74	9
79	25
80	12
81	24
82	20
83	11
89	7
90	6
91	13
93	12
98	28
99	999
100	82
101	50
104	14
106	17
123	26
125	29
133	6
135	7
136	59
138	57
178	417
179	20
180	426
181	22
182	20
