Mass Spectrum: Ethyleniminoacetonitryl
Formula: C4H6N2
CAS: 30340-15-9
Molecular weight: 82
m/z	intensity
26	75
27	152
28	286
29	31
30	30
39	45
40	220
41	142
42	999
43	78
44	10
51	47
52	53
53	96
54	44
55	101
56	8
66	10
67	154
68	10
81	13
82	112
83	17
