Mass Spectrum: Hydrazine, (2-nitrophenyl)-
Formula: C6H7N3O2
CAS: 3034-19-3
Molecular weight: 153
m/z	intensity
14	1
15	1
16	3
17	2
18	7
26	9
27	48
28	103
29	35
30	49
31	10
32	6
36	1
37	24
38	52
39	154
40	18
41	27
42	5
43	9
44	3
45	3
46	2
48	2
49	5
50	122
51	373
52	999
53	198
54	22
55	7
56	1
57	2
60	1
61	12
62	31
63	159
64	152
65	125
66	18
67	6
68	5
69	1
71	1
73	3
74	26
75	27
76	85
77	854
78	233
79	185
80	58
81	8
82	1
83	1
87	3
88	6
89	5
90	112
91	190
92	68
93	27
94	5
95	2
97	1
101	1
102	2
103	2
104	3
105	37
106	12
107	17
108	11
109	4
113	1
114	1
115	6
116	2
117	2
118	2
119	60
120	8
121	2
122	2
123	32
124	2
125	1
126	2
127	2
128	2
129	1
130	1
134	1
135	63
136	14
137	3
146	1
147	1
149	1
150	2
151	5
152	5
153	479
154	43
155	5
156	2
