Mass Spectrum: 1H-Imidazole, 1-methyl-4-nitro-
Formula: C4H5N3O2
CAS: 3034-41-1
Molecular weight: 127
m/z	intensity
33	1
34	0
35	0
36	1
38	43
39	69
40	86
42	999
46	46
48	0
51	64
52	92
53	36
54	71
55	9
56	4
57	1
58	0
59	0
66	81
67	14
69	79
70	25
71	1
76	1
77	2
79	11
81	55
83	11
84	2
91	0
95	0
96	4
97	32
98	1
103	0
109	0
111	34
112	0
120	1
122	1
123	0
125	7
127	238
129	1
