Mass Spectrum: Thiazole, 5-bromo-
Formula: C3H2BrNS
CAS: 3034-55-7
Molecular weight: 163
m/z	intensity
27	30
28	20
29	30
31	50
32	50
42	50
43	50
44	80
45	100
56	50
57	999
58	40
59	50
79	40
84	850
85	60
86	30
136	80
138	90
163	700
165	830
166	40
167	20
