Mass Spectrum: 1-Benzylimidazolidine-2,4,5-trione
Formula: C10H8N2O3
CAS: 30345-85-8
Molecular weight: 204
m/z	intensity
50	65
51	186
52	38
53	2
55	3
56	25
57	2
62	9
63	61
64	32
65	243
66	11
69	37
70	60
74	7
75	11
76	26
77	177
78	77
79	7
80	1
81	1
89	52
90	34
91	999
92	77
93	3
103	4
104	162
105	106
106	31
107	2
118	1
119	9
121	5
131	7
132	136
133	638
134	57
135	3
147	152
148	9
160	3
161	5
176	30
204	418
205	48
206	2
