Mass Spectrum: 1H-Imidazole-4-carboxaldehyde
Formula: C4H4N2O
CAS: 3034-50-2
Molecular weight: 96
m/z	intensity
25	19
26	20
27	39
28	250
29	221
38	50
39	90
40	530
41	181
42	29
51	10
52	20
53	20
66	9
67	301
68	149
69	10
95	330
96	999
97	60
