Mass Spectrum: 1H-Cyclopropa[3,4]benz[1,2-e]azulene-3-carboxaldehyde, 9a-(acetyloxy)-1a,1b,4,4a,5,7a,7b,8,9,9a-decahydro-4a,7b,9-trihydroxy-1,1,6,8-tetramethyl-5-oxo-, [1aR-(1a.alpha.,1b.beta.,4a.beta.,7a.alpha.,7b.alpha.,8.alpha.,9.beta.,9a.alpha.)]-
Formula: C22H28O7
CAS: 30358-72-6
Molecular weight: 404
m/z	intensity
14	1
15	14
16	1
17	2
18	15
19	1
20	0
25	0
26	5
27	45
28	85
29	94
30	5
31	11
32	10
36	0
37	2
38	3
39	71
40	24
41	200
42	22
43	657
44	22
45	27
46	1
47	3
49	0
50	10
51	30
52	17
53	185
54	35
55	271
56	17
57	171
58	35
59	35
60	12
61	20
62	2
63	14
64	11
65	95
66	28
67	171
68	17
69	314
70	37
71	37
72	7
73	7
74	3
75	5
76	5
77	200
78	38
79	131
80	35
81	98
82	91
83	999
84	71
85	71
86	22
87	15
88	10
89	14
90	6
91	185
92	47
93	114
94	72
95	157
96	55
97	52
98	14
99	21
100	4
101	41
102	11
103	31
104	24
105	114
106	30
107	171
108	58
109	385
110	64
111	140
112	151
113	71
114	90
115	75
116	27
117	98
118	17
119	87
120	48
121	141
122	92
123	137
124	97
125	131
126	22
127	27
128	64
129	102
130	27
131	81
132	52
133	110
134	42
135	124
136	85
137	101
138	144
139	132
140	61
141	80
142	40
143	71
144	35
145	131
146	55
147	92
148	57
149	160
150	64
151	64
152	84
153	60
154	30
155	35
156	27
157	131
158	71
159	112
160	81
161	128
162	45
163	91
164	60
165	72
166	48
167	127
168	228
169	62
170	31
171	160
172	45
173	101
174	87
175	107
176	54
177	142
178	68
179	68
180	51
181	75
182	24
183	58
184	37
185	171
186	142
187	171
188	61
189	77
190	42
191	40
192	25
193	44
194	21
195	50
196	71
197	128
198	47
199	130
200	50
201	91
202	55
203	81
204	34
205	38
206	22
207	25
208	75
209	88
210	40
211	71
212	78
213	285
214	428
215	157
216	65
217	42
218	17
219	31
220	18
221	35
222	21
223	64
224	37
225	91
226	132
227	95
228	55
229	90
230	52
231	55
232	700
233	161
234	25
235	21
236	20
237	70
238	25
239	64
240	42
241	75
242	50
243	72
244	67
245	30
246	15
247	24
248	11
249	17
250	12
251	61
252	47
253	44
254	20
255	54
256	25
257	47
258	18
259	18
260	10
261	57
262	28
263	20
264	12
265	80
266	20
267	25
268	18
269	71
270	58
271	21
272	9
273	25
274	14
275	30
276	7
277	6
278	4
279	52
280	62
281	32
282	14
283	57
284	12
285	15
286	15
287	24
288	11
289	7
290	21
291	14
292	5
293	48
294	11
295	9
296	5
297	74
298	62
299	17
300	6
301	12
302	4
303	3
304	3
305	1
306	1
307	12
308	148
309	54
310	10
311	44
312	10
313	5
314	6
315	18
316	15
317	4
318	1
319	2
320	0
321	0
322	1
323	0
324	2
325	12
326	271
327	72
328	15
329	11
330	5
331	1
332	1
333	0
335	0
339	1
340	2
341	1
342	2
343	12
344	70
345	15
346	3
347	0
348	0
350	1
351	0
353	1
354	0
357	1
358	5
359	1
360	2
361	1
362	3
363	0
368	14
369	4
370	1
371	1
372	0
376	2
377	0
378	7
379	1
386	15
387	7
388	1
389	0
402	0
404	5
405	1
406	0
