Mass Spectrum: s-Triazine, 2-isopropylamino-4-methoxy-6-methylamino-
Formula: C8H15N5O
CAS: 3035-45-8
Molecular weight: 197
m/z	intensity
41	147
42	205
43	338
44	235
45	14
53	14
54	29
55	132
56	132
57	602
58	999
59	44
60	14
67	14
68	147
69	323
70	44
71	235
72	29
73	14
75	29
76	29
77	14
80	14
81	29
82	191
83	264
84	58
85	44
86	14
87	29
91	29
93	14
94	29
95	14
96	29
97	44
98	58
99	44
100	88
101	44
105	14
107	14
108	88
109	14
110	29
111	44
112	117
113	14
114	88
115	14
122	14
123	14
124	29
125	205
126	117
127	14
136	29
137	14
138	14
139	29
140	147
141	88
142	14
151	14
152	14
153	29
154	29
155	294
156	29
166	29
167	14
168	102
169	73
170	14
180	14
182	367
183	88
184	14
194	14
196	58
197	264
198	29
