Mass Spectrum: Nonanoic acid, 8-phenyl-, methyl ester
Formula: C16H24O2
CAS: 30368-31-1
Molecular weight: 248
m/z	intensity
31	10
32	10
39	30
41	80
42	10
43	20
44	10
45	10
51	20
52	10
53	10
55	60
56	10
59	20
63	10
65	20
67	10
68	10
69	30
73	10
74	40
75	10
77	70
78	20
79	70
80	10
81	10
83	30
87	40
91	230
92	40
95	10
97	10
98	10
101	10
102	10
103	40
104	80
105	999
106	210
107	20
111	20
115	20
116	10
117	30
118	30
119	40
120	20
121	20
125	30
129	10
131	20
132	10
133	10
143	20
144	20
145	10
147	10
157	30
160	10
183	20
187	10
188	10
201	10
216	50
217	50
218	10
248	170
249	40
