Mass Spectrum: Cyclohexanol, 3,5-dimethoxy-, stereoisomer
Formula: C8H16O3
CAS: 30363-83-8
Molecular weight: 160
m/z	intensity
26	10
27	115
29	205
30	20
31	100
33	160
38	10
39	110
40	25
41	235
42	80
43	260
44	35
45	130
46	5
47	10
50	5
51	10
52	5
53	40
54	25
55	75
56	15
57	75
58	999
59	560
60	20
61	90
62	5
63	5
65	10
66	10
67	35
68	55
69	55
70	40
71	90
72	95
73	45
74	10
75	75
76	5
77	10
78	10
79	20
80	80
81	20
82	5
83	15
84	85
85	75
86	10
87	440
88	25
89	10
94	10
95	15
96	60
97	35
98	105
99	15
100	10
101	105
102	10
103	10
109	10
110	105
111	20
112	50
113	20
114	5
115	5
117	5
119	10
126	5
127	10
128	25
129	5
130	240
131	20
141	5
144	5
145	5
160	5
