Mass Spectrum: Cyclohexane, 1,3-dimethoxy-, cis-
Formula: C8H16O2
CAS: 30363-81-6
Molecular weight: 144
m/z	intensity
27	111
28	26
29	86
30	8
31	29
33	23
37	1
38	5
39	92
40	15
41	271
42	27
43	95
44	3
45	146
46	2
47	9
49	0
50	4
51	10
52	4
53	38
54	15
55	54
56	9
57	13
58	999
59	58
60	2
61	0
62	0
63	2
64	0
65	6
66	3
67	29
68	5
69	17
70	1
71	334
72	21
73	4
74	0
75	36
76	2
77	9
78	3
79	25
80	35
81	67
82	94
83	10
84	38
85	24
86	16
87	3
88	0
94	3
95	1
96	0
97	88
98	5
99	1
101	140
102	6
103	2
109	0
110	1
111	34
112	145
113	11
114	39
115	3
129	1
143	0
144	0
