Mass Spectrum: Cyclopentane, 1,3-dimethoxy-, cis-
Formula: C7H14O2
CAS: 30363-79-2
Molecular weight: 130
m/z	intensity
39	180
40	60
41	520
42	280
43	170
44	90
45	350
47	60
51	20
53	50
54	30
55	110
56	30
57	270
58	520
59	330
60	20
63	10
65	50
66	60
67	460
68	150
69	50
70	30
71	540
72	999
73	70
74	10
75	770
76	20
77	10
78	20
79	10
80	10
81	10
82	10
83	30
84	10
85	20
89	30
91	10
94	30
96	50
97	280
98	740
99	80
100	220
101	130
102	30
