Mass Spectrum: Cyclohexanone, 3,5-dimethoxy-, cis-
Formula: C8H14O3
CAS: 30363-85-0
Molecular weight: 158
m/z	intensity
39	160
41	180
42	75
43	170
45	70
46	2
47	20
50	10
51	15
52	8
53	35
54	13
55	70
56	10
57	35
58	999
59	110
60	8
61	10
62	6
63	8
64	5
65	30
66	30
67	30
68	190
69	40
70	8
71	30
72	85
73	7
74	5
75	250
76	12
77	4
78	4
80	3
81	5
82	5
83	12
84	95
85	130
86	8
87	6
91	5
92	4
93	6
94	70
95	16
96	110
97	20
98	15
99	6
100	17
101	220
102	16
103	5
108	2
109	4
110	4
111	8
114	30
115	6
116	3
117	30
118	4
125	9
126	60
127	9
128	12
129	3
140	2
143	1
157	1
158	6
