Mass Spectrum: trans, trans-Octa-2,4-dienyl acetate
Formula: C10H16O2
CAS: 30361-34-3
Molecular weight: 168
m/z	intensity
26	18
27	173
28	26
29	74
38	21
39	212
40	40
41	217
42	29
43	999
44	24
45	80
50	31
51	76
52	45
53	99
54	31
55	108
57	15
60	50
62	11
63	26
64	9
65	78
66	112
67	143
68	19
69	11
70	20
71	46
75	18
76	7
77	272
78	83
79	577
80	104
81	57
82	44
83	62
84	36
89	7
91	126
92	17
93	133
94	13
95	14
97	16
98	12
105	7
107	12
108	126
109	33
125	13
126	16
139	3
168	47
169	6
