Mass Spectrum: Cyclohexane, 1,2,4-trimethoxy-, stereoisomer I
Formula: C9H18O3
CAS: 30363-72-5
Molecular weight: 174
m/z	intensity
39	60
41	200
42	30
43	90
45	450
46	10
47	15
53	30
54	20
55	50
56	20
57	30
58	999
59	90
65	15
66	10
67	30
68	10
69	50
71	250
72	40
73	110
74	10
75	160
76	10
77	20
79	45
80	20
81	20
82	10
83	10
84	320
85	55
88	45
94	5
95	10
97	55
98	10
99	10
101	490
102	40
103	310
104	20
109	20
110	40
111	45
112	10
114	10
115	10
116	40
117	4
127	15
141	4
142	370
143	25
144	8
159	23
160	8
174	4
