Mass Spectrum: Cycloheptane, 1,4-dimethoxy-, cis-
Formula: C9H18O2
CAS: 30363-91-8
Molecular weight: 158
m/z	intensity
39	240
40	60
41	720
42	120
43	200
44	80
45	740
46	20
47	50
50	20
51	30
52	20
53	110
54	60
55	330
56	70
57	120
58	440
59	120
65	70
66	100
67	380
68	180
69	120
70	30
71	999
72	370
73	100
75	290
77	80
78	30
79	290
80	40
81	80
82	30
83	70
84	190
85	80
86	110
87	780
88	70
91	70
92	10
93	70
94	200
95	250
96	120
97	820
98	400
99	100
100	30
101	30
111	120
112	30
113	20
115	20
125	50
126	370
127	50
128	210
129	40
158	10
