Mass Spectrum: N-[2,2,2-Trichloro-1-(2,4-dinitrophenoxy)ethyl]isobutyramide
Formula: C12H12Cl3N3O6
CAS: 303774-96-1
Molecular weight: 399
m/z	intensity
35	29
36	63
37	13
38	110
39	204
40	3
41	520
43	999
46	20
47	42
48	10
49	25
50	42
51	74
52	46
53	124
55	43
56	9
57	4
58	5
60	23
61	32
62	95
63	155
64	46
65	13
66	9
67	6
68	11
69	16
71	775
73	12
74	21
75	15
76	15
77	10
79	72
80	11
82	45
83	19
84	25
85	11
86	7
87	3
88	1
91	82
92	37
93	26
95	8
96	4
97	4
98	8
99	1
100	1
101	3
102	1
103	1
104	2
105	2
107	59
108	10
109	8
110	12
111	23
112	8
113	13
114	2
115	3
117	11
119	10
120	3
121	5
122	2
123	2
124	1
125	1
126	1
127	1
129	2
130	3
131	1
132	2
134	1
136	2
137	25
138	8
139	13
140	2
141	3
144	2
146	14
148	12
149	1
150	5
151	3
152	2
154	53
155	4
156	1
166	1
167	4
168	6
172	4
174	3
176	1
180	2
181	4
184	141
185	10
186	2
200	1
212	1
213	1
214	1
216	46
217	6
218	45
219	4
220	11
221	1
222	1
