Mass Spectrum: Benzene, 1-(4-acetylphenyliminomethyl)-3,4-methylenedioxy-6-nitro-
Formula: C16H12N2O5
CAS: 303759-45-7
Molecular weight: 312
m/z	intensity
34	8
37	16
38	31
39	103
40	117
41	26
43	999
44	31
45	3
50	97
51	188
52	82
53	112
54	22
55	61
56	10
57	9
61	47
62	165
63	267
64	86
65	175
66	32
67	7
68	30
69	83
70	16
73	5
74	75
75	154
76	278
77	190
78	41
79	69
80	16
81	7
83	69
85	4
86	15
87	42
88	74
89	76
90	107
91	217
92	56
93	13
94	11
96	2
97	24
98	16
99	5
100	4
101	21
102	96
103	48
104	97
105	44
106	48
107	22
108	10
110	13
111	24
112	15
113	15
114	30
115	16
116	17
117	15
118	30
119	243
120	190
121	52
122	14
123	12
124	5
125	19
126	19
127	26
128	15
129	9
130	29
131	3
132	15
134	98
135	74
136	9
137	54
138	119
139	110
140	90
141	20
142	7
143	10
144	12
146	92
147	98
148	186
149	70
150	15
151	25
152	29
153	31
154	20
155	9
156	4
160	1
161	4
162	16
163	50
164	154
165	99
166	60
167	81
168	14
170	44
171	10
172	2
174	1
175	1
177	10
178	88
179	20
180	10
181	61
182	18
183	7
185	2
191	7
192	33
193	21
194	31
195	38
196	26
197	5
198	4
207	3
208	6
209	47
210	18
211	9
219	5
221	2
222	90
223	41
224	20
225	32
226	3
235	2
237	5
238	16
239	21
240	1
250	38
251	10
252	67
253	17
264	10
265	27
266	14
267	2
279	1
280	65
281	14
283	2
292	2
293	11
294	32
295	493
296	94
297	34
298	7
312	158
313	22
