Mass Spectrum: Acetic acid, [2-methoxy-4-(4-methyl-3-nitrophenyliminomethyl)]phenyl ester
Formula: C17H16N2O5
CAS: 303760-42-1
Molecular weight: 328
m/z	intensity
33	1
34	0
36	0
37	3
38	16
39	50
40	9
41	26
43	999
44	19
46	3
47	1
48	0
49	2
50	30
51	70
52	40
53	15
54	4
55	10
56	1
57	3
58	0
59	0
60	0
61	3
62	14
63	67
64	36
65	38
66	10
67	6
68	1
69	2
70	1
71	1
73	1
74	6
75	9
76	19
77	49
78	28
79	22
80	8
81	14
82	1
83	1
84	1
86	2
87	3
89	70
90	32
91	14
92	10
93	5
94	4
95	23
96	2
97	0
98	0
99	1
100	1
101	3
102	6
103	5
104	8
105	5
106	6
107	5
108	3
109	14
110	1
111	0
112	0
113	3
114	5
115	21
116	14
117	35
118	7
119	3
120	2
121	1
122	4
123	5
124	24
125	3
126	5
127	8
128	6
129	4
130	4
131	3
132	4
133	2
134	4
135	3
136	1
137	1
138	2
139	12
140	11
141	13
142	5
143	3
144	1
145	1
146	4
147	2
148	2
149	2
150	4
151	13
152	23
153	17
154	12
155	4
156	3
157	1
158	1
159	0
160	0
161	0
162	3
163	11
164	3
165	6
166	15
167	30
168	24
169	10
170	4
171	2
172	0
173	0
174	0
175	0
176	0
177	2
178	9
179	10
180	19
181	10
182	7
183	4
184	4
185	2
186	0
187	0
188	0
190	2
191	2
192	2
193	4
194	6
195	8
196	25
197	13
198	3
199	1
200	0
201	0
202	0
204	0
205	0
206	2
207	8
208	8
209	13
210	7
211	5
212	3
213	2
214	0
215	0
219	0
220	0
221	1
222	2
223	7
224	9
225	13
226	4
227	2
228	0
229	0
234	0
236	1
237	3
238	7
239	29
240	8
241	3
242	1
243	8
244	1
250	0
251	1
252	1
253	5
254	4
255	13
256	8
257	2
258	0
264	0
266	0
267	2
268	5
269	26
270	8
271	5
272	1
280	0
282	2
283	6
284	7
285	59
286	132
287	23
288	3
289	0
298	0
312	0
324	0
325	0
326	1
327	1
328	13
329	2
