Mass Spectrum: Benzene, 1-chloro-2-[(2-chlorophenylimino)methyl]-4-nitro-
Formula: C13H8Cl2N2O2
CAS: 303762-15-4
Molecular weight: 294
m/z	intensity
37	44
38	87
39	110
40	35
41	5
43	11
46	83
49	15
50	138
51	277
52	82
56	8
62	203
63	155
64	28
65	22
72	6
73	195
74	254
75	999
76	175
77	78
84	26
85	77
86	83
87	118
88	46
89	31
92	8
97	10
98	11
99	58
100	65
101	39
102	91
106	7
111	958
112	91
113	263
114	24
124	12
127	55
129	13
137	83
138	677
139	79
140	223
149	29
150	76
151	85
152	24
164	8
166	34
176	28
177	182
178	91
183	20
185	32
186	114
187	39
188	53
200	13
201	22
202	17
203	6
212	83
213	97
214	18
215	5
216	10
247	106
248	144
249	55
250	70
293	214
294	759
295	237
296	499
297	71
298	92
