Mass Spectrum: Carbamic acid, methyl-, phenylmethyl ester
Formula: C9H11NO2
CAS: 30379-59-0
Molecular weight: 165
m/z	intensity
24	13
26	11
27	24
28	50
29	13
30	41
31	13
37	7
38	16
39	61
40	6
41	23
42	6
43	9
44	24
45	11
46	0
47	0
49	2
50	43
51	53
52	21
53	7
54	0
55	1
56	5
57	9
58	65
59	30
60	4
61	5
62	11
63	32
64	13
65	86
66	11
69	0
70	0
71	1
73	4
74	9
75	4
76	8
77	75
78	19
79	240
80	14
81	1
82	1
85	0
86	1
87	2
88	2
89	39
90	79
91	999
92	44
93	1
94	0
104	1
105	33
106	5
107	104
108	869
109	67
110	2
118	0
120	3
121	0
122	7
134	1
135	2
143	0
165	67
166	6
167	1
