Mass Spectrum: Acetic acid, [4-(3-iodo-4-methylphenyliminomethyl)-2-methoxy]phenyl ester
Formula: C17H16INO3
CAS: 303760-40-9
Molecular weight: 409
m/z	intensity
33	3
36	3
37	8
38	47
39	139
40	36
41	65
43	999
44	23
45	6
50	94
51	194
52	92
53	42
54	9
55	40
56	3
57	9
59	3
60	2
61	9
62	58
63	216
64	114
65	125
66	23
67	21
68	4
69	9
70	10
71	10
74	25
75	38
76	65
77	149
78	48
79	51
80	29
81	41
82	10
84	36
85	4
86	8
87	16
89	398
90	453
91	82
92	27
93	16
95	104
96	8
98	10
99	6
100	4
101	8
102	17
103	15
104	19
105	16
106	19
107	19
108	11
109	57
110	5
111	3
113	17
114	19
115	72
116	120
117	479
118	68
119	13
120	8
121	7
122	7
123	25
124	92
125	12
126	18
127	65
128	49
129	11
130	10
131	5
132	4
133	5
134	14
135	21
136	3
137	12
138	6
139	39
140	31
141	45
142	20
143	11
144	4
145	1
146	3
147	4
148	8
149	10
150	19
151	29
152	61
153	61
154	32
155	12
156	4
157	3
158	1
159	1
161	1
162	2
163	4
164	11
165	25
166	47
167	105
168	95
169	43
170	9
171	4
175	1
176	2
177	8
178	34
179	39
180	82
181	41
182	26
183	14
184	3
185	1
189	1
190	6
191	9
192	11
193	15
194	24
195	25
196	117
197	54
198	11
199	2
200	1
204	2
205	2
206	12
207	22
208	44
209	93
210	34
211	16
212	3
213	1
215	1
217	33
218	3
220	3
221	7
222	11
223	45
224	65
225	74
226	12
227	2
229	1
232	4
233	5
235	1
236	3
237	13
238	29
239	191
240	82
241	28
242	11
243	61
244	57
245	5
254	2
256	2
269	3
275	1
280	2
281	2
282	6
283	6
284	1
293	1
294	6
295	3
296	6
306	11
307	3
308	2
309	2
310	4
320	2
321	3
322	6
323	4
324	26
325	3
334	13
335	6
336	15
337	6
338	4
348	2
349	2
350	21
351	8
352	14
353	2
360	1
361	1
363	36
366	163
367	406
368	62
369	6
403	1
404	4
405	5
407	19
409	175
410	28
411	3
