Mass Spectrum: Benzene, 1-(benzyloxy)-4-(3-fluoro-4-methylphenyliminomethyl)-
Formula: C21H18FNO
CAS: 303759-57-1
Molecular weight: 319
m/z	intensity
33	1
37	0
38	2
39	34
41	6
51	17
52	9
53	0
55	0
57	3
58	0
59	2
62	2
63	10
65	120
66	4
67	0
69	0
70	0
75	1
76	3
77	8
78	1
79	1
80	0
81	1
83	15
84	8
85	0
87	0
89	8
91	999
93	4
95	1
96	1
97	1
99	1
100	0
101	0
102	0
103	0
104	0
105	0
106	0
107	8
109	29
110	2
115	0
120	0
121	0
124	0
125	1
126	0
127	1
128	0
133	1
134	1
135	0
136	3
137	2
138	0
139	0
140	0
144	0
145	0
146	1
147	0
148	0
151	1
152	3
153	2
155	0
157	1
158	1
159	0
160	0
164	0
165	1
166	0
167	1
168	0
169	0
170	3
171	1
172	2
173	0
177	0
178	1
180	3
181	1
182	0
183	1
184	6
185	41
186	5
187	0
194	0
195	1
196	0
198	7
199	12
200	16
201	1
208	0
209	0
210	0
211	1
212	1
213	1
214	0
226	0
227	2
228	20
229	3
230	0
290	0
291	0
316	0
317	2
318	3
319	122
320	28
321	3
322	0
