Mass Spectrum: Benzamide, 4-(3-benzyloxybenzylidenamino)-
Formula: C21H18N2O2
CAS: 303768-75-4
Molecular weight: 330
m/z	intensity
33	2
34	1
37	3
38	9
39	64
40	21
41	25
42	5
44	46
45	3
46	3
50	20
51	35
52	12
53	6
54	10
55	7
57	12
58	0
60	4
61	2
62	6
63	32
65	160
66	11
67	2
68	1
69	4
70	2
71	3
73	1
74	4
75	13
76	18
77	19
78	3
79	1
80	4
81	1
82	1
83	2
84	1
85	0
86	0
87	1
89	13
91	999
92	105
93	6
94	0
95	0
96	0
97	1
98	1
99	0
101	1
102	2
103	17
104	3
105	2
107	5
108	0
109	0
110	0
111	1
112	1
113	2
114	1
115	5
116	1
117	1
118	1
120	114
121	8
122	0
123	1
124	0
125	0
126	0
127	1
128	1
129	1
130	0
132	0
136	80
137	7
138	2
139	12
140	6
141	4
142	1
147	2
149	4
150	1
151	5
152	4
153	3
154	1
155	0
156	0
163	0
164	0
165	4
166	13
167	26
168	15
169	2
171	1
176	1
177	0
178	2
179	1
180	1
181	1
182	0
183	0
184	0
193	0
194	3
195	4
196	6
197	0
206	0
207	1
208	0
209	0
210	2
211	0
212	0
221	0
222	3
223	26
224	7
225	2
226	0
237	0
238	1
239	1
240	0
241	1
242	0
253	0
254	0
269	0
270	0
284	2
285	0
286	0
287	1
288	0
301	1
302	1
303	0
313	2
314	1
329	2
330	76
331	17
332	2
