Mass Spectrum: Benzene, 1-benzyloxy-2-(4-chloro-3-nitrophenyliminomethyl)-
Formula: C20H15ClN2O3
CAS: 303761-04-8
Molecular weight: 366
m/z	intensity
33	0
35	0
36	0
38	2
39	33
40	3
41	9
42	0
44	0
46	0
50	7
51	50
52	5
53	1
55	0
61	0
62	4
63	27
65	107
67	0
69	0
74	6
75	35
76	6
77	24
78	2
79	0
83	0
84	3
86	1
87	2
89	17
91	999
92	61
93	1
94	0
97	0
98	3
99	1
100	1
101	1
102	1
103	0
104	0
105	2
106	1
107	0
110	49
112	18
113	2
114	1
115	3
116	1
117	0
118	0
119	2
120	1
121	1
123	0
124	0
126	5
127	2
128	2
129	0
132	0
136	0
137	1
138	2
139	9
140	14
141	1
142	0
144	0
149	0
150	1
151	3
152	6
153	1
154	1
156	0
162	0
164	4
165	16
166	14
167	81
168	15
170	0
172	0
173	1
174	0
175	0
176	0
177	2
178	2
179	1
180	0
181	1
182	1
183	3
184	1
185	0
187	0
188	0
190	0
191	0
192	1
193	4
194	85
195	420
196	64
197	5
199	0
200	2
201	2
202	2
203	1
204	0
207	0
210	1
211	0
213	0
214	1
215	0
216	0
217	0
218	0
219	0
224	0
226	1
228	3
229	24
230	4
231	8
232	1
240	0
241	0
242	0
245	0
246	2
247	0
248	0
251	0
254	0
257	0
258	2
259	2
260	3
261	1
262	1
263	0
264	0
272	0
273	1
274	0
275	5
276	1
277	1
278	0
282	0
283	0
285	0
288	0
303	0
304	0
305	0
319	1
320	0
321	0
348	0
349	3
350	0
351	1
352	0
365	6
366	5
367	3
368	2
369	0
