Mass Spectrum: 2-[2,2,2-Trichloro-1-(2-furamido)ethoxy]benzamide
Formula: C14H11Cl3N2O4
CAS: 303775-04-4
Molecular weight: 376
m/z	intensity
34	5
35	31
36	73
37	85
38	192
39	481
40	56
41	23
42	9
44	77
45	5
47	36
48	7
49	18
50	24
51	31
52	19
53	46
54	13
55	14
56	2
57	3
58	3
60	17
61	11
62	23
63	52
64	57
65	69
66	21
67	50
68	7
69	3
70	3
71	1
73	9
74	9
75	7
76	8
77	4
78	3
80	19
82	29
83	10
84	15
85	7
86	5
87	2
88	1
89	1
90	6
92	167
93	32
95	999
96	51
97	7
98	1
99	1
102	2
103	1
104	1
105	1
108	5
109	2
110	2
111	5
112	3
113	1
114	1
115	1
117	7
120	201
121	30
122	12
123	2
134	1
137	238
138	16
139	3
140	4
141	1
146	1
148	1
149	1
170	13
171	2
172	5
176	2
178	1
204	3
205	4
206	2
207	2
208	1
221	1
223	1
239	10
240	6
241	9
242	5
243	3
244	1
