Mass Spectrum: Benzyl glycolate
Formula: C9H10O3
CAS: 30379-58-9
Molecular weight: 166
m/z	intensity
39	60
50	30
51	60
52	20
62	20
63	40
65	110
77	70
78	20
79	50
89	40
90	60
91	999
92	80
105	20
107	30
108	60
166	50
