Mass Spectrum: Acetic acid, [4-(3,4-dimethylphenyliminomethyl)-2-methoxyphenyl] ester
Formula: C18H19NO3
CAS: 303770-11-8
Molecular weight: 297
m/z	intensity
33	10
38	1
39	40
40	53
41	35
43	999
44	16
50	18
51	67
52	24
53	27
55	5
57	3
63	41
64	17
65	34
67	2
77	133
78	42
79	92
80	8
81	7
83	1
89	11
90	6
91	25
92	2
95	20
102	9
103	55
104	12
105	48
106	1
109	3
115	10
117	32
118	1
124	5
128	2
130	55
131	38
132	146
133	4
141	9
152	5
154	4
156	7
167	21
168	16
170	1
180	11
181	4
182	20
184	8
194	23
195	11
196	12
198	3
208	2
210	1
212	10
222	5
223	3
224	31
227	6
238	25
239	16
240	16
254	172
255	244
256	28
297	85
298	14
