Mass Spectrum: 4-Methyl-N-(2-thiazolyl)phthalimide
Formula: C12H8N2O2S
CAS: 303773-53-7
Molecular weight: 244
m/z	intensity
34	15
36	6
37	23
38	87
39	224
40	241
41	28
44	159
45	361
47	32
48	5
49	14
50	96
51	91
52	20
53	46
54	13
55	26
58	609
60	27
61	42
62	136
63	329
64	133
65	18
66	6
67	4
69	16
70	14
71	38
73	207
74	29
75	36
76	15
77	43
78	9
79	4
81	3
82	3
83	8
84	8
85	13
86	41
87	35
89	706
90	527
91	31
92	3
95	9
97	3
98	8
100	39
101	4
102	5
103	8
104	17
105	4
114	3
115	8
116	24
118	999
119	87
120	7
121	6
122	27
123	4
129	5
130	4
142	7
143	8
144	23
146	12
147	5
148	15
149	5
155	4
156	4
157	3
158	3
160	3
161	4
162	3
167	4
172	13
173	14
174	4
176	7
184	7
186	86
187	34
188	36
189	6
199	7
200	39
201	9
202	40
203	7
204	7
216	109
217	13
218	5
229	3
240	3
241	18
243	166
244	649
245	104
246	36
247	5
