Mass Spectrum: Isooctyl 3-mercaptopropionate
Formula: C11H22O2S
CAS: 30374-01-7
Molecular weight: 218
m/z	intensity
14	2
15	7
27	141
28	73
29	124
30	4
31	9
32	0
33	4
34	5
35	34
37	2
39	73
41	361
42	88
43	461
44	20
45	32
46	16
47	63
49	3
51	4
52	2
53	27
54	2
55	315
56	174
57	999
58	61
59	35
60	67
61	289
62	12
63	19
65	2
67	18
69	190
70	145
71	588
72	32
73	9
74	2
75	3
77	4
79	4
81	12
83	106
84	58
85	37
86	6
87	19
88	123
89	150
90	12
91	8
95	5
97	95
98	7
99	6
101	5
104	2
106	239
107	86
108	14
109	5
111	19
112	97
113	57
114	5
115	11
119	2
129	4
133	5
143	2
144	5
145	13
147	4
161	12
162	2
175	2
218	5
