Mass Spectrum: 1-(4-Ethoxy-2-nitroanilino)-1-deoxy-.beta.-d-mannopyranose
Formula: C14H20N2O8
CAS: 303748-05-2
Molecular weight: 344
m/z	intensity
33	89
34	9
36	5
38	70
39	259
40	202
41	257
43	999
44	305
45	235
46	42
47	30
48	5
50	65
51	165
52	362
53	171
55	249
56	128
57	269
58	47
60	510
61	278
63	231
64	97
65	107
66	115
67	74
68	124
69	128
70	66
71	145
73	365
74	64
75	54
76	46
77	109
78	97
79	169
80	176
81	105
82	19
83	14
85	97
86	20
87	32
88	21
90	40
91	159
92	115
93	89
94	77
95	146
96	76
97	50
98	39
99	11
101	17
102	22
104	53
105	43
106	72
107	172
108	254
109	43
110	8
112	4
114	6
115	7
116	34
117	20
119	50
120	99
121	70
122	66
123	89
124	35
125	4
126	4
127	9
128	4
129	5
130	8
131	14
132	23
133	68
134	81
135	82
136	74
137	30
138	3
139	8
143	2
145	9
146	51
147	30
148	28
149	44
150	61
151	31
152	48
153	96
154	192
155	10
160	8
161	18
162	50
163	38
164	87
165	117
166	44
167	32
171	5
174	15
176	15
177	15
178	34
179	39
180	47
182	624
183	134
184	12
189	2
190	16
191	4
193	10
194	30
195	20
196	1
203	5
204	7
206	20
208	4
209	5
210	28
211	112
212	7
223	4
224	30
235	5
236	5
250	1
283	7
313	2
341	4
343	19
344	52
