Mass Spectrum: Pregn-16-en-20-one, 11,18-bis(acetyloxy)-3,9-epoxy-3-methoxy-, (3.alpha.,5.beta.,11.alpha.)-
Formula: C26H36O7
CAS: 30384-39-5
Molecular weight: 460
m/z	intensity
25	1
26	5
27	24
28	6
29	38
30	3
31	8
33	2
34	3
35	4
36	3
37	3
38	3
39	24
40	5
41	94
42	23
43	999
44	37
45	54
46	7
47	6
48	6
49	3
50	10
51	17
52	28
53	31
54	9
55	86
56	22
57	59
58	5
59	33
60	7
61	13
62	5
63	63
64	7
65	22
66	9
67	49
68	12
69	45
70	7
71	25
72	13
73	33
74	11
75	11
76	4
77	53
78	77
79	133
80	21
81	57
82	14
83	20
84	15
85	65
86	20
87	14
88	3
89	4
90	4
91	95
92	19
93	73
94	19
95	69
96	16
97	51
98	13
99	12
100	7
101	5
102	6
103	18
104	12
105	88
106	22
107	64
108	33
109	87
110	214
111	84
112	12
113	9
114	5
115	36
116	14
117	46
118	15
119	59
120	55
121	101
122	65
123	140
124	87
125	51
126	9
127	15
128	25
129	52
130	17
131	47
132	21
133	72
134	43
135	94
136	58
137	102
138	61
139	24
140	34
141	36
142	21
143	41
144	17
145	66
146	40
147	100
148	42
149	47
150	35
151	68
152	22
153	53
154	17
155	36
156	14
157	27
158	28
159	36
160	20
161	49
162	39
163	71
164	47
165	30
166	19
167	30
168	17
169	34
170	22
171	118
172	28
173	35
174	33
175	43
176	29
177	24
178	15
179	51
180	20
181	31
182	14
183	35
184	28
185	50
186	19
187	41
188	18
189	26
190	18
191	34
192	33
193	36
194	42
195	39
196	15
197	34
198	19
199	27
200	15
201	17
202	15
203	17
204	11
205	21
206	13
207	20
208	8
209	22
210	12
211	51
212	26
213	26
214	10
215	16
216	8
217	10
218	7
219	14
220	9
221	14
222	7
223	41
224	17
225	44
226	25
227	27
228	16
229	25
230	57
231	22
232	8
233	14
234	7
235	19
236	11
237	33
238	20
239	32
240	13
241	91
242	23
243	17
244	8
245	5
246	5
247	5
248	3
249	7
250	5
251	15
252	8
253	58
254	63
255	24
256	13
257	11
258	4
259	14
260	5
261	3
262	4
263	4
264	4
265	20
266	15
267	40
268	12
269	9
270	5
271	15
272	23
273	25
274	6
275	4
276	4
277	14
278	6
279	9
280	22
281	14
282	8
283	12
284	7
285	18
286	16
287	7
288	5
289	8
290	7
291	5
292	4
293	8
294	6
295	107
296	33
297	24
298	16
299	44
300	11
301	5
302	3
303	3
304	2
305	4
306	5
307	9
308	20
309	44
310	14
311	16
312	13
313	24
314	50
315	18
316	13
317	3
318	2
319	2
320	2
321	2
322	5
323	4
324	3
325	23
326	20
327	214
328	58
329	17
330	5
331	4
332	11
333	3
337	1
338	3
339	8
340	106
341	33
342	6
343	9
344	5
345	45
346	19
347	8
348	4
349	3
350	2
353	1
354	1
355	2
356	2
357	9
358	24
359	6
360	1
361	1
362	2
363	1
367	1
368	15
369	7
370	3
371	1
372	2
373	2
374	2
375	3
376	1
377	1
378	2
382	1
383	2
385	8
386	6
387	8
388	2
389	3
398	2
399	3
400	45
401	16
402	3
403	1
416	1
417	4
418	11
419	3
427	1
428	7
429	2
431	2
432	21
433	6
434	1
442	1
445	2
446	1
458	5
459	7
460	118
461	39
462	7
463	1
