Mass Spectrum: 1,7-Octadien-3-ol
Formula: C8H14O
CAS: 30385-19-4
Molecular weight: 126
m/z	intensity
15	4
17	1
18	3
26	9
27	105
28	29
29	162
30	5
31	44
37	3
38	9
39	157
40	24
41	245
42	80
43	109
44	13
45	9
50	9
51	17
52	8
53	67
54	248
55	237
56	48
57	999
58	63
59	7
60	9
61	1
62	2
63	5
65	18
66	42
67	170
68	45
69	63
70	114
71	63
72	96
73	7
74	1
77	20
78	19
79	151
80	101
81	43
82	48
83	144
84	75
85	17
86	1
91	15
92	2
93	122
94	10
95	21
96	4
97	83
98	26
99	4
105	1
107	6
108	10
109	5
110	1
111	45
112	4
125	4
126	1
