Mass Spectrum: 2-Propanone, 1-[3-(tetrahydro-5,5-dimethyl-2-oxofuryl)]-, thiosemicarbazone
Formula: C10H17N3O2S
CAS: 303965-77-7
Molecular weight: 243
m/z	intensity
33	38
34	17
35	2
36	2
39	351
40	278
41	479
42	287
43	700
44	106
45	29
46	9
47	18
48	37
50	17
51	24
53	108
55	262
56	97
57	103
58	38
60	425
61	16
62	19
63	8
64	6
65	29
67	122
68	45
69	74
70	28
71	70
72	69
73	18
74	26
75	77
76	21
77	36
79	39
80	29
81	65
82	64
83	96
84	25
85	14
87	10
88	9
89	42
90	27
91	19
92	6
93	14
94	13
95	32
96	50
97	52
98	23
99	23
100	12
101	7
102	6
103	2
104	1
105	5
106	9
107	29
108	43
109	56
110	49
111	68
112	20
113	16
114	54
116	999
117	44
118	41
119	3
120	4
121	3
122	27
123	15
124	19
125	24
126	25
127	14
128	14
129	5
130	3
131	2
132	1
133	2
134	5
135	3
136	4
137	4
138	2
139	17
140	8
141	10
142	9
143	6
144	1
145	2
146	1
147	1
148	1
149	3
150	9
151	5
152	15
153	7
154	24
156	14
158	15
159	1
160	0
162	0
164	3
165	5
166	3
167	5
168	23
169	31
170	5
171	4
172	2
173	0
174	0
175	0
176	0
179	0
180	1
182	33
183	4
184	3
186	9
187	0
188	0
189	0
191	0
192	0
193	0
194	0
195	0
196	0
198	0
199	0
200	2
201	7
202	0
203	0
208	0
210	9
211	5
212	0
213	0
225	0
226	1
228	48
229	5
230	2
233	0
238	0
240	1
241	4
243	185
244	19
245	9
246	1
