Mass Spectrum: Bitolterol
Formula: C28H31NO5
CAS: 30392-40-6
Molecular weight: 461
m/z	intensity
30	210
36	1
38	3
39	26
40	4
41	51
42	14
43	6
44	11
45	7
46	2
48	17
49	3
50	7
51	15
52	4
53	6
54	1
55	10
56	12
57	103
58	31
59	2
60	1
61	1
62	4
63	19
64	17
65	132
66	12
67	5
68	2
69	2
70	25
71	33
72	11
73	1
75	2
76	2
77	15
78	25
79	55
80	3
81	34
82	2
83	2
84	7
85	3
86	893
87	61
88	2
89	30
90	23
91	388
92	32
93	5
94	3
95	2
96	45
97	1
98	2
104	2
105	5
106	2
107	5
110	1
111	1
115	1
118	8
119	999
120	82
121	6
122	3
123	18
124	14
125	1
127	1
131	1
132	4
133	6
134	2
135	3
136	24
137	3
138	1
139	1
148	2
149	1
150	10
151	7
152	2
163	1
164	1
165	1
166	1
167	1
168	3
176	1
190	1
191	1
192	2
195	1
196	2
206	6
207	5
208	1
211	1
212	1
239	1
240	5
241	2
242	9
243	2
257	5
258	1
269	2
270	1
287	1
294	1
304	7
305	1
308	4
310	4
311	1
321	5
322	1
324	1
325	10
326	2
360	4
361	1
364	3
365	1
373	1
374	1
428	5
429	1
443	3
444	1
446	3
447	1
461	8
462	2
