Mass Spectrum: Butyric acid, 2,2,3,3-tetramethyl-
Formula: C8H16O2
CAS: 30407-41-1
Molecular weight: 144
m/z	intensity
26	3
27	92
28	7
29	219
30	4
31	14
37	1
38	3
39	113
40	18
41	416
42	38
43	154
44	5
45	27
46	0
47	1
50	2
51	5
52	1
53	21
54	2
55	78
56	19
57	990
58	42
59	195
60	10
61	0
62	0
63	0
64	0
65	5
66	1
67	11
68	1
69	30
70	34
71	155
72	7
73	202
74	6
75	1
77	1
78	0
79	0
81	1
82	0
83	76
84	12
85	2
86	0
87	20
88	999
89	46
90	3
91	0
93	0
95	0
96	0
97	1
98	0
99	22
100	1
101	95
102	7
103	0
111	0
113	7
114	0
127	2
128	0
129	32
130	2
145	12
146	0
