Mass Spectrum: 1-Propanone, 1-(1,3-benzodioxol-5-yl)-3-(1-piperidinyl)-
Formula: C15H19NO3
CAS: 30418-51-0
Molecular weight: 261
m/z	intensity
33	0
35	18
36	51
37	9
38	28
39	52
41	152
42	149
43	25
44	39
45	1
46	0
48	0
49	1
50	13
51	30
52	7
53	30
54	39
55	155
56	60
57	13
58	2
59	1
61	9
62	34
63	102
64	19
65	154
67	20
68	24
69	71
70	45
71	3
72	0
74	13
75	4
76	5
77	40
78	8
79	14
80	6
81	4
82	20
83	22
84	60
85	9
86	1
87	1
88	1
89	7
91	60
92	11
93	4
94	4
96	113
97	483
98	999
99	57
100	2
102	2
103	2
104	2
105	11
106	2
107	1
108	1
110	16
111	8
112	69
113	4
114	0
115	0
116	0
117	2
118	4
119	18
120	11
121	72
122	10
123	1
124	0
125	1
126	0
127	0
128	0
130	2
131	1
132	0
133	0
135	42
136	3
137	0
138	1
139	0
140	0
141	0
142	0
144	0
145	1
146	3
147	6
149	121
150	10
151	1
152	0
159	0
160	0
161	0
162	0
163	1
164	2
165	0
171	0
173	0
174	0
175	2
176	7
177	4
178	0
181	1
190	0
204	0
216	0
218	0
232	0
242	0
244	0
258	0
259	1
261	32
262	5
263	0
