Mass Spectrum: Benzenepentanoic acid, .gamma.-butyl-.beta.-oxo-, methyl ester
Formula: C16H22O3
CAS: 30414-59-6
Molecular weight: 262
m/z	intensity
41	110
43	60
55	70
59	110
65	80
69	110
74	20
91	999
92	100
101	210
104	120
105	70
117	100
128	50
130	60
131	210
132	60
145	40
153	150
160	40
161	20
173	30
188	40
189	80
205	320
206	90
220	10
229	10
244	20
262	90
