Mass Spectrum: Hexanoic acid, 5-methyl-3-oxo-, methyl ester
Formula: C8H14O3
CAS: 30414-55-2
Molecular weight: 158
m/z	intensity
41	480
42	200
43	529
57	999
59	340
69	330
74	230
84	260
85	979
101	569
116	499
127	70
143	140
158	160
