Mass Spectrum: Benzenepentanoic acid, .beta.-oxo-, methyl ester
Formula: C12H14O3
CAS: 30414-58-5
Molecular weight: 206
m/z	intensity
20	1
26	4
27	74
28	21
29	32
30	4
31	13
32	3
33	7
35	0
37	0
38	6
39	89
40	9
41	26
42	45
43	96
44	10
45	8
47	2
48	0
49	1
50	28
51	118
52	30
53	19
54	3
55	49
56	3
57	43
58	2
59	185
60	4
61	2
62	6
63	42
64	11
65	162
66	12
67	2
68	2
69	103
70	4
71	4
72	1
73	6
74	104
75	15
76	14
77	210
78	106
79	108
80	6
81	1
82	0
83	11
84	7
85	14
86	1
87	12
88	0
89	28
90	12
91	999
92	81
93	4
94	0
95	1
96	3
97	5
98	0
99	0
101	158
102	25
103	119
104	779
105	529
106	51
107	11
108	1
113	0
115	28
116	10
117	21
118	11
119	2
120	0
121	3
122	0
125	0
126	1
127	10
128	161
129	49
130	8
131	83
132	144
133	279
134	27
135	2
143	0
144	3
145	31
146	59
147	11
148	2
149	1
150	0
155	2
156	14
157	4
158	0
159	2
160	1
163	5
164	1
172	0
173	8
174	90
175	32
176	4
177	0
187	1
188	114
189	16
190	1
191	0
205	1
206	270
207	38
208	4
