Mass Spectrum: 6-Heptenoic acid, 3-oxo-, methyl ester
Formula: C8H12O3
CAS: 30414-57-4
Molecular weight: 156
m/z	intensity
41	250
42	230
43	739
54	480
55	999
57	180
59	509
69	330
74	70
82	579
83	390
85	60
96	80
101	460
124	170
125	50
138	20
156	110
