Mass Spectrum: 3-Methyl-2-butenoic acid, cyclohexyl ester
Formula: C11H18O2
CAS: 30434-53-8
Molecular weight: 182
m/z	intensity
25	3
26	31
27	225
28	35
29	208
30	3
31	11
37	13
38	39
39	272
40	49
41	241
42	56
43	52
44	29
45	11
50	34
51	49
52	21
53	101
54	115
55	419
56	31
57	17
59	18
60	3
65	8
66	11
67	168
68	13
69	13
70	3
71	3
72	3
75	3
77	15
78	4
79	19
81	43
82	141
83	999
84	64
85	45
86	3
91	11
92	6
98	14
99	45
100	327
101	361
102	22
103	6
