Mass Spectrum: 2-Cyclopenten-1-one, 3,4-dimethyl-
Formula: C7H10O
CAS: 30434-64-1
Molecular weight: 110
m/z	intensity
31	23
37	5
38	32
39	383
40	151
41	360
42	78
43	49
45	11
50	19
51	42
52	20
53	95
54	55
55	43
63	20
64	5
65	90
66	28
67	673
68	87
69	46
70	6
77	15
78	5
79	64
80	7
81	69
82	119
83	17
91	5
95	999
96	81
97	8
109	69
110	735
111	64
