Mass Spectrum: Pyrene, 1-diacetylamino-8-nitro-
Formula: C20H14N2O4
CAS: 30436-89-6
Molecular weight: 346
m/z	intensity
33	7
34	2
36	2
37	2
38	4
39	14
40	49
43	999
44	62
45	11
46	1
49	0
50	13
51	13
52	3
53	1
54	0
55	4
56	2
57	3
59	0
60	6
61	2
62	8
63	18
64	5
65	4
66	1
67	1
68	2
69	1
70	2
71	1
72	0
74	19
75	17
77	29
78	4
79	1
80	4
81	2
82	0
83	2
84	2
85	4
86	16
87	26
88	11
89	3
91	19
92	6
94	48
95	4
97	1
98	17
99	24
100	37
102	9
103	3
104	3
105	4
106	5
107	9
108	3
110	14
111	18
112	24
113	8
114	8
115	3
116	3
117	0
118	0
120	5
121	7
122	7
123	7
124	4
125	2
126	3
127	3
128	2
129	3
133	2
134	6
135	7
136	5
137	13
138	11
139	5
140	3
141	1
145	0
146	2
147	4
148	3
149	10
150	14
151	9
152	4
153	1
155	1
157	0
159	3
160	3
161	18
162	13
163	15
164	8
165	1
170	0
171	2
173	7
174	20
175	31
176	57
177	18
178	4
179	0
182	0
183	0
184	3
185	24
186	58
187	200
188	198
189	125
190	25
191	3
192	0
198	24
199	28
200	61
201	43
202	31
203	26
204	72
205	20
206	4
207	1
210	4
211	17
212	85
213	72
214	224
215	218
216	427
217	88
218	10
219	1
221	0
222	3
223	2
224	2
225	3
226	5
227	9
228	12
229	15
230	29
232	248
233	46
234	14
235	2
236	0
237	0
238	2
239	2
240	3
242	60
243	11
244	6
245	41
246	13
247	3
249	0
250	1
251	1
253	1
255	3
256	21
257	25
258	41
259	11
262	610
263	128
264	21
265	9
266	1
267	0
268	0
270	0
272	4
273	1
274	5
275	1
280	0
286	11
287	6
288	13
289	3
300	0
301	4
302	5
304	421
305	74
306	9
307	1
316	2
343	0
344	1
346	103
347	21
348	2
349	0
