Mass Spectrum: 2-(2-Thienyl)ethylamine
Formula: C6H9NS
CAS: 30433-91-1
Molecular weight: 127
m/z	intensity
15	2
17	1
26	5
27	19
28	85
29	12
30	999
31	24
32	2
37	9
38	20
39	69
40	6
41	11
42	19
43	7
44	3
45	137
46	6
47	14
49	5
50	23
51	31
52	13
53	91
54	9
55	2
56	3
57	17
58	36
59	10
60	4
61	8
62	13
63	26
64	5
65	30
66	10
67	6
68	3
69	39
70	13
71	20
72	4
73	4
74	4
75	2
77	4
78	4
80	7
81	7
82	8
83	3
84	9
85	3
86	1
92	3
93	13
94	2
95	11
96	4
97	430
98	293
99	45
100	13
101	1
108	1
109	9
110	9
111	2
124	3
125	5
126	3
127	180
128	15
129	8
