Mass Spectrum: Acethydrazide, 2-hydroxy-2,2-bis(2-thienyl)-N2,N2-dimethyl-
Formula: C12H14N2O2S2
CAS: 30436-58-9
Molecular weight: 282
m/z	intensity
33	9
34	2
36	0
37	2
39	193
40	24
42	86
43	151
44	273
45	165
47	1
49	0
50	5
51	8
53	26
54	1
55	2
57	21
59	413
60	341
63	10
64	2
65	2
66	2
67	1
68	4
69	16
70	4
71	5
72	0
74	3
75	4
76	1
77	8
78	2
79	1
80	0
81	5
83	107
84	18
85	20
86	7
87	6
88	10
89	7
90	3
91	2
93	4
94	1
95	4
96	2
97	2
98	0
99	1
100	0
101	1
102	1
103	0
106	0
107	0
108	8
111	999
112	63
113	43
115	1
116	0
117	0
119	0
121	10
122	1
123	1
124	0
125	0
126	0
127	2
128	1
131	0
133	4
134	13
135	1
136	1
137	4
138	0
139	1
140	1
141	0
145	3
146	0
150	0
151	2
152	2
153	0
160	1
161	0
162	0
163	3
165	0
166	3
167	0
168	0
175	0
177	20
178	69
179	12
180	25
182	2
187	0
188	7
189	1
190	2
192	95
193	31
195	424
196	57
197	39
198	5
199	1
203	0
204	0
206	17
207	2
208	1
217	0
219	1
220	11
221	7
222	4
223	0
231	27
232	3
233	1
235	0
236	0
238	0
248	0
259	0
260	1
261	6
264	339
265	46
266	28
267	3
268	0
282	0
