Mass Spectrum: 1-Hexen-4-ol, 3-methyl-6-phenyl-
Formula: C13H18O
CAS: 304459-85-6
Molecular weight: 190
m/z	intensity
27	29
28	2
29	31
31	6
38	2
39	39
40	5
41	37
42	3
43	38
44	5
45	2
50	7
51	25
52	6
53	14
54	3
55	44
56	53
57	11
62	2
63	12
64	4
65	78
66	6
67	6
68	3
69	3
70	2
71	4
74	2
75	3
76	3
77	45
78	59
79	30
80	3
81	9
82	2
83	3
84	1
85	3
89	11
90	7
91	999
92	290
93	25
94	4
101	1
102	3
103	18
104	34
105	70
106	15
107	5
109	1
111	2
115	14
116	11
117	160
118	18
119	23
120	12
121	3
128	5
129	5
130	2
131	4
133	26
134	303
135	124
136	14
137	4
157	5
158	1
172	6
