Mass Spectrum: 2-Benzylthio-1-methyl-4(3H)-quinazolinone
Formula: C16H14N2OS
CAS: 304449-45-4
Molecular weight: 282
m/z	intensity
38	72
39	223
41	29
45	85
46	61
50	76
51	228
52	50
59	44
62	52
63	248
64	128
65	342
74	40
75	48
77	534
78	189
89	73
91	999
92	117
104	587
105	448
106	36
119	104
121	162
122	55
123	55
131	141
132	333
133	296
134	79
159	105
160	379
161	122
163	43
173	65
191	621
192	156
193	28
235	47
236	67
248	39
249	280
267	37
282	982
283	154
284	49
