Mass Spectrum: Imidazolidine, 1,3-dibenzyl-2-(3-benzyloxyphenyl)-
Formula: C30H30N2O
CAS: 304481-52-5
Molecular weight: 434
m/z	intensity
33	5
34	0
36	0
37	1
39	39
40	10
41	16
42	9
43	2
44	3
45	1
46	0
48	0
50	8
51	18
52	6
53	2
54	3
55	3
56	9
57	1
58	0
59	0
60	0
62	6
63	17
65	120
66	5
68	1
69	2
70	1
71	0
73	0
74	1
75	1
76	6
77	21
78	19
79	8
80	1
81	0
82	0
83	1
84	0
85	0
86	0
87	2
89	46
91	999
92	74
94	0
95	0
96	0
97	0
98	0
101	0
102	1
103	5
104	17
105	25
106	5
107	2
108	0
112	0
113	0
115	2
116	2
117	5
118	8
119	3
120	6
121	1
122	0
126	0
127	0
128	1
129	1
130	3
132	18
133	9
134	10
135	1
136	0
139	0
140	0
141	0
142	0
143	0
144	0
145	1
146	2
147	0
148	1
149	0
150	0
151	0
152	1
153	2
154	1
155	0
156	0
157	0
159	5
160	1
161	1
162	1
163	0
165	2
166	1
167	1
168	0
169	0
170	0
171	0
173	0
174	0
175	0
176	0
177	0
178	0
179	1
180	2
181	2
182	1
183	0
184	0
190	0
192	0
193	1
194	1
195	2
196	9
197	3
198	0
205	0
206	0
207	0
208	1
209	1
210	2
211	1
212	0
219	0
220	0
221	2
222	3
223	9
224	24
225	3
226	0
234	0
235	0
236	0
237	2
238	1
239	0
243	0
244	0
248	42
249	48
251	532
252	85
253	8
260	0
265	2
266	0
273	0
286	0
297	0
299	0
300	1
302	2
303	0
311	0
312	0
313	2
314	2
315	2
316	1
317	0
326	0
327	1
328	0
329	0
338	0
339	1
341	3
343	18
344	3
345	0
356	0
357	0
425	0
429	21
431	11
433	69
434	36
435	6
437	1
