Mass Spectrum: 3,3,3-Trifluoro-N-(5-methyl-3-isoxazolyl)-2-(trifluoromethyl)propionamide
Formula: C8H6F6N2O2
CAS: 304444-12-0
Molecular weight: 276
m/z	intensity
33	11
34	7
36	6
37	30
38	83
39	318
40	133
41	176
43	999
47	41
48	3
50	28
51	41
52	60
53	40
54	95
55	705
57	27
58	7
59	14
63	36
64	16
65	19
66	94
67	115
69	608
71	43
72	3
73	4
74	16
76	10
77	3
78	6
79	9
81	28
82	46
83	50
85	3
86	1
88	5
91	184
93	22
94	4
95	2
97	205
98	316
99	18
100	7
101	2
102	1
103	2
104	1
105	1
106	2
109	6
110	5
111	4
113	63
114	3
116	6
119	3
120	2
121	1
122	2
123	3
125	153
126	9
127	3
129	1
131	3
132	7
133	2
134	1
135	3
136	4
138	3
139	2
140	4
141	5
142	1
143	3
145	4
146	2
147	2
148	1
149	1
150	1
152	1
153	1
154	1
155	1
157	2
159	16
160	3
161	4
162	1
165	7
166	16
168	3
169	1
171	3
172	1
174	1
175	1
179	107
180	6
181	1
187	1
188	1
189	1
190	1
191	1
193	38
195	1
196	3
204	1
205	1
207	2
208	1
213	1
217	10
218	2
221	1
231	1
233	16
234	6
236	59
237	8
244	1
247	2
257	1
258	1
261	28
262	2
263	1
270	1
273	3
276	195
277	16
278	2
