Mass Spectrum: .[alpha.-(o-Anisidino)-4-(dimethylamino)benzyl](diphenyl)phosphine oxide
Formula: C28H29N2O2P
CAS: 304444-08-4
Molecular weight: 456
m/z	intensity
33	3
34	3
37	27
38	71
39	339
41	41
42	240
44	38
45	13
47	610
50	333
51	999
53	57
55	27
56	22
57	41
58	6
59	11
61	10
62	41
63	161
64	101
65	162
66	36
68	19
69	47
70	23
71	16
74	116
75	64
77	851
78	392
79	86
80	108
83	75
85	7
86	5
87	12
89	79
90	34
91	114
92	107
93	31
95	46
96	65
97	47
99	6
100	36
102	38
103	42
104	81
105	189
107	79
108	83
109	42
110	8
111	44
113	13
115	50
116	24
117	29
118	73
120	386
121	102
122	43
124	329
125	92
126	23
127	62
128	31
129	35
130	20
131	38
132	72
134	601
135	181
137	2
139	30
140	15
141	10
142	7
143	25
145	138
146	176
147	381
148	80
149	61
150	15
151	19
152	64
153	53
154	56
155	76
156	11
157	9
158	6
159	13
162	16
163	3
164	3
165	9
166	25
167	44
168	17
169	5
170	9
171	16
172	3
173	9
174	1
175	1
176	1
177	3
178	8
179	13
180	23
181	12
183	149
184	27
185	6
191	2
192	4
193	7
194	20
195	57
196	15
197	4
201	776
202	365
203	42
204	3
205	3
206	4
207	34
208	13
209	12
210	12
211	8
212	1
217	2
218	1
219	1
221	13
223	188
224	36
225	19
226	4
234	1
237	45
238	35
239	127
240	32
241	6
242	2
253	123
254	522
255	539
256	91
257	9
283	1
335	2
455	1
456	3
