Mass Spectrum: Hydrazine, (2-methoxyethyl)-
Formula: C3H10N2O
CAS: 3044-15-3
Molecular weight: 90
m/z	intensity
26	7
27	30
28	65
29	53
30	48
31	79
32	16
33	14
40	6
41	14
42	26
43	40
44	21
45	999
46	25
57	17
58	14
59	12
69	3
73	3
90	110
91	9
