Mass Spectrum: 5-Benzylidene-3-(4-morpholinylmethyl)-2,4-thiazolidinedione
Formula: C15H16N2O3S
CAS: 304449-47-6
Molecular weight: 304
m/z	intensity
34	1
37	1
39	17
41	42
42	111
43	32
44	16
45	11
46	1
47	2
49	1
50	9
51	16
52	4
53	3
54	12
56	165
57	25
58	5
59	1
60	2
61	2
62	6
63	17
64	4
65	2
66	2
67	13
69	30
70	65
71	20
72	17
73	3
74	5
75	6
76	6
77	10
78	2
79	1
81	8
82	9
83	13
84	8
85	11
86	9
87	3
89	44
90	29
91	8
93	6
94	1
95	7
96	2
97	6
98	17
100	999
101	55
102	12
103	3
104	1
105	2
106	1
107	2
108	10
109	3
110	1
111	3
112	1
113	1
115	1
118	2
119	1
121	1
123	2
125	1
127	1
128	1
129	2
130	1
131	1
132	2
133	9
134	169
135	16
136	8
137	2
139	1
141	3
147	10
148	1
149	4
152	1
161	7
162	3
163	1
205	10
206	1
207	1
218	1
304	3
