Mass Spectrum: Benzhydrazide, N2-(3,4-dihydroxybenzylidenamino)-2-methyl-
Formula: C15H14N2O3
CAS: 304456-00-6
Molecular weight: 270
m/z	intensity
33	0
34	1
35	0
36	6
37	2
38	11
39	59
40	29
41	22
42	6
43	13
44	12
45	13
46	0
47	0
48	0
50	24
51	43
52	16
53	18
54	5
55	19
56	3
57	5
58	1
59	2
60	1
61	2
62	12
63	38
64	13
65	133
66	25
67	5
68	7
69	5
70	3
71	3
73	3
74	6
75	11
76	24
77	18
78	14
79	15
80	10
81	10
82	8
83	2
84	2
85	1
86	1
87	2
88	1
89	36
90	28
91	439
92	36
93	13
94	6
95	3
96	4
97	5
98	1
99	0
100	0
101	0
102	1
103	1
104	5
105	21
106	10
107	3
108	2
109	6
110	4
111	2
112	2
113	1
114	0
115	1
116	5
117	3
118	60
119	999
120	93
121	11
122	6
123	2
124	4
125	1
126	1
127	1
128	0
129	1
130	0
131	1
132	2
133	11
134	7
135	161
136	108
137	16
138	6
139	1
140	0
141	0
142	0
143	0
144	0
145	0
146	0
147	0
148	0
149	2
150	3
151	7
152	3
153	1
154	1
155	1
156	0
157	0
158	0
159	0
160	0
161	0
162	0
163	0
164	0
165	1
166	3
167	1
168	0
169	0
170	0
171	3
172	0
173	0
175	0
176	0
177	0
178	0
179	1
180	0
181	0
182	0
183	0
189	1
190	0
191	2
192	0
193	0
194	0
195	0
196	0
197	0
198	0
199	0
201	0
202	0
203	0
205	0
207	0
208	0
209	0
210	0
211	0
212	0
213	1
214	0
215	0
216	1
217	0
218	0
220	0
225	1
226	0
227	0
229	0
231	0
239	2
240	0
241	0
242	0
243	0
246	0
252	0
253	0
254	0
255	0
267	0
268	0
269	1
270	83
271	14
272	1
274	0
