Mass Spectrum: Butanoic acid, 4-(2-nitrophenylhydrazino)-4-oxo-, methyl ester
Formula: C11H13N3O5
CAS: 304481-02-5
Molecular weight: 267
m/z	intensity
33	3
34	1
37	10
38	25
39	76
40	36
41	43
42	31
43	34
44	31
45	55
46	2
48	0
50	91
51	178
52	394
53	57
55	699
56	61
57	24
59	265
60	6
61	5
62	13
63	62
64	55
65	45
66	10
67	2
68	1
69	3
70	6
71	4
72	2
73	12
74	15
75	18
76	87
77	254
78	100
79	97
80	32
81	4
82	8
83	13
84	2
85	2
87	149
88	12
90	67
91	61
92	32
93	12
94	4
95	1
96	0
97	1
98	1
99	2
100	4
101	34
102	3
103	7
104	17
105	29
106	15
107	71
108	23
109	5
110	0
111	0
112	0
113	2
115	999
116	50
117	10
118	5
119	15
120	10
121	6
122	4
123	3
124	0
125	1
126	0
127	7
128	6
129	0
130	0
131	4
132	6
133	5
134	7
135	66
136	49
137	19
138	17
139	2
143	0
144	3
145	5
146	11
147	29
148	6
149	3
150	2
151	3
152	11
153	58
154	4
155	1
157	0
160	3
161	6
162	3
163	0
164	0
165	0
166	0
167	0
169	0
171	3
172	2
173	0
174	0
176	0
178	0
179	0
183	0
185	0
186	1
187	0
188	18
189	123
190	28
191	3
196	0
203	2
204	1
205	0
206	0
207	7
208	1
216	0
218	0
219	2
220	0
221	0
222	0
231	14
232	0
233	0
235	233
236	87
237	9
238	1
247	1
248	1
254	2
267	159
268	20
269	2
270	0
