Mass Spectrum: 11-Dodecenoic acid, 2,4,6-trimethyl-, methyl ester, (2S,4R,6R)-(+)-
Formula: C16H30O2
CAS: 30459-93-9
Molecular weight: 254
m/z	intensity
15	36
16	3
19	113
27	50
28	29
29	106
39	72
40	17
41	405
42	82
43	153
44	6
45	16
53	44
54	32
55	475
56	81
57	130
58	8
59	158
60	6
65	4
67	70
68	41
69	587
70	66
71	58
72	4
73	103
74	13
77	5
79	13
80	2
81	48
82	29
83	259
84	37
85	34
87	46
88	999
89	40
95	48
96	21
97	177
98	24
99	10
101	588
102	44
107	5
109	66
110	30
111	215
112	31
113	9
115	9
121	9
123	24
124	8
125	29
126	17
127	10
129	152
130	11
135	6
137	26
138	59
139	60
140	9
141	6
142	73
143	56
144	8
147	1
149	5
151	16
152	10
153	61
154	57
155	4
165	15
166	20
167	132
168	16
169	90
170	9
171	17
179	10
180	42
181	6
184	8
205	9
207	11
222	8
223	36
255	16
