Mass Spectrum: Cyclododecanone, 2-methylene-
Formula: C13H22O
CAS: 3045-76-9
Molecular weight: 194
m/z	intensity
26	15
27	306
29	323
30	6
31	8
37	1
38	9
39	348
40	167
41	999
42	134
43	256
44	3
45	9
46	2
47	2
50	5
51	25
52	17
53	182
54	296
55	624
56	83
57	51
58	12
59	6
63	6
65	39
66	43
67	559
68	185
69	266
70	98
71	143
72	35
73	3
77	39
78	16
79	132
80	95
81	387
82	167
83	167
84	300
85	89
86	7
91	55
92	25
93	98
94	110
95	331
96	204
97	172
98	208
99	21
100	2
105	30
106	14
107	59
108	60
109	282
110	116
111	120
112	70
113	11
117	2
119	32
120	15
121	51
122	27
123	172
124	46
125	29
126	10
127	3
133	28
134	23
135	26
136	43
137	122
138	28
139	11
147	28
148	10
149	5
150	7
151	68
152	24
153	8
161	12
165	29
166	13
176	10
179	10
192	2
193	6
194	121
195	18
