Mass Spectrum: Cycloheptanone, 2-methylene-
Formula: C8H12O
CAS: 3045-99-6
Molecular weight: 124
m/z	intensity
26	85
27	448
28	76
29	203
30	28
31	6
37	16
38	66
39	619
40	407
41	493
42	187
43	71
44	12
45	0
46	6
47	11
49	11
50	47
51	69
52	46
53	324
54	999
55	720
56	143
57	76
58	16
61	9
62	8
63	21
65	40
66	77
67	804
68	769
69	183
70	30
71	2
72	7
73	7
74	2
77	35
78	125
79	106
80	82
81	831
82	180
83	37
84	15
85	2
91	32
93	46
94	16
95	132
96	345
97	59
98	9
106	34
107	2
108	4
109	13
110	7
123	1
124	344
125	60
126	4
