Mass Spectrum: 11-Dodecenoic acid, 2,4,6-trimethyl-, methyl ester, (R,R,R)-(-)-
Formula: C16H30O2
CAS: 30459-92-8
Molecular weight: 254
m/z	intensity
15	29
17	2
27	35
28	27
29	90
32	7
39	70
40	17
41	378
42	70
43	125
44	11
45	14
53	25
54	31
55	411
56	67
57	129
58	3
59	137
67	59
68	37
69	489
70	56
71	59
73	81
74	13
81	40
82	22
83	225
84	37
85	29
87	44
88	999
89	40
95	51
96	14
97	174
98	14
101	556
102	39
109	61
110	25
111	199
112	34
123	18
125	24
126	11
127	7
128	9
129	135
135	6
137	20
138	60
139	40
142	60
143	48
144	7
147	2
151	9
152	7
153	44
154	44
155	3
165	20
166	14
167	129
168	11
169	81
170	7
171	20
180	40
181	3
184	3
207	11
221	7
222	3
223	25
254	20
