Mass Spectrum: 4-Penten-1-ol, 2-methylene-
Formula: C6H10O
CAS: 30457-84-2
Molecular weight: 98
m/z	intensity
25	4
26	55
27	339
28	88
29	351
30	18
31	334
32	13
33	1
36	1
37	32
38	82
39	696
40	135
41	760
42	128
43	214
44	46
45	14
47	3
48	3
49	5
50	40
51	66
52	60
53	139
54	194
55	245
56	70
57	999
58	63
59	4
61	8
62	16
63	33
64	6
65	105
66	36
67	188
68	40
69	127
70	59
71	18
73	4
74	2
75	10
76	1
77	91
78	46
79	484
80	603
81	47
82	4
83	92
84	6
95	3
96	1
97	28
98	14
99	1
