Mass Spectrum: 2-[2-Methyl-2-aminoethyl]benzofuran
Formula: C11H13NO
CAS: 30455-73-3
Molecular weight: 175
m/z	intensity
41	7
42	32
43	14
44	999
45	29
50	8
51	20
52	5
53	4
54	2
55	8
56	12
57	5
58	12
62	4
63	11
64	4
65	7
66	6
67	0
69	1
70	5
71	3
72	214
73	10
74	3
75	4
76	6
77	42
78	6
80	9
81	0
82	0
83	0
86	0
87	2
89	3
90	0
91	2
94	1
97	0
101	2
102	11
103	10
104	2
105	4
115	5
116	2
127	1
128	2
129	0
131	71
132	69
133	9
157	0
158	0
159	3
160	2
175	17
176	3
