Mass Spectrum: 3,3,6-Trimethyl-1,4-heptadien-6-ol
Formula: C10H18O
CAS: 30458-12-9
Molecular weight: 154
m/z	intensity
41	260
42	15
43	999
45	38
50	6
51	34
52	13
53	84
54	15
55	187
56	13
57	71
58	48
59	509
60	15
61	15
62	10
63	4
65	44
66	8
67	193
68	21
69	126
70	21
71	63
72	122
73	21
75	27
77	88
78	17
79	130
80	21
81	296
82	111
83	90
84	31
85	342
86	17
91	84
92	10
93	180
94	27
95	157
96	239
97	164
98	10
103	4
105	63
106	10
107	44
108	13
109	21
110	13
111	59
112	4
113	10
119	13
121	164
122	15
136	42
137	19
139	294
154	2
