Mass Spectrum: 1H-Cyclopentano[c]coumarine, 2,3-dihydro-7-benzyloxy-
Formula: C19H16O3
CAS: 304675-00-1
Molecular weight: 292
m/z	intensity
33	0
34	0
35	0
36	0
37	1
38	6
39	50
40	9
41	16
42	2
43	3
44	3
45	0
50	13
51	31
52	8
53	5
54	0
55	4
56	0
57	3
58	0
60	0
61	1
62	10
63	37
64	12
65	105
66	7
67	1
69	8
70	0
71	0
72	0
73	1
74	6
75	10
76	8
77	18
78	5
79	3
80	0
81	0
82	0
83	0
84	0
85	0
86	1
87	3
88	4
89	31
91	999
92	73
93	2
94	0
95	0
96	0
97	0
98	0
99	0
100	0
101	2
102	6
103	4
104	1
105	2
106	0
107	0
108	0
110	0
111	0
112	0
113	1
115	35
116	8
117	13
118	2
119	0
120	0
121	0
123	0
125	0
126	2
127	9
128	9
129	2
130	0
131	1
132	0
133	0
138	0
139	0
140	0
141	0
142	0
143	0
144	2
145	4
146	0
147	0
151	0
152	0
153	0
155	0
156	0
157	0
158	0
159	0
164	0
165	0
166	0
168	0
170	0
171	1
172	1
173	6
174	1
175	0
176	0
177	0
178	0
179	0
183	0
185	0
187	0
189	0
190	0
191	0
192	0
194	0
197	0
198	0
199	0
200	1
201	5
202	2
203	0
205	0
207	0
214	0
215	0
219	0
222	0
235	0
254	0
263	0
281	0
283	0
288	0
289	0
290	1
292	44
293	8
294	1
295	0
