Mass Spectrum: Acetic acid, 2-[2-methyl-4-(1-piperidylmethyl)-1,3-dioxolan-2-yl]-, ethyl ester
Formula: C14H25NO4
CAS: 304687-51-2
Molecular weight: 271
m/z	intensity
36	7
38	25
39	97
40	47
41	305
42	198
43	276
44	165
45	16
46	1
47	0
48	2
49	3
50	15
51	20
52	13
53	22
54	27
55	152
56	57
57	108
58	13
59	7
60	8
61	8
62	8
63	13
64	9
65	13
67	29
68	33
69	56
70	45
71	26
72	8
73	4
74	4
75	6
77	19
78	5
79	13
80	7
81	11
82	20
83	26
84	33
85	33
86	13
87	5
88	4
89	2
90	2
91	9
92	8
93	6
94	10
95	9
97	41
98	999
99	68
101	5
102	1
103	2
104	2
105	4
106	2
107	2
108	3
109	3
110	8
111	3
112	12
113	5
114	3
115	8
116	3
117	2
118	2
119	3
120	2
121	3
123	8
124	93
125	10
126	11
127	8
128	6
129	2
130	1
131	2
133	0
134	0
135	6
136	1
137	2
138	1
139	0
140	7
141	5
142	9
143	2
144	0
145	0
146	5
147	4
148	3
149	6
150	1
151	1
152	1
153	0
154	1
155	4
156	0
157	0
158	0
159	0
161	0
162	0
163	0
164	0
165	1
167	0
170	14
171	8
172	1
173	0
182	0
183	3
184	61
185	9
186	0
187	0
189	2
198	1
201	1
202	0
209	0
210	0
220	1
226	4
227	0
256	5
257	0
270	0
271	3
272	0
