Mass Spectrum: 1,3,5-Triazine, 2,4-bis(2,2,2-trifluoro-1-trifluorometylethoxy)-6-(4-methylphenylamino)-
Formula: C16H10F12N4O2
CAS: 304688-09-3
Molecular weight: 518
m/z	intensity
33	38
34	2
39	98
40	47
41	32
42	19
43	18
44	29
45	1
47	2
51	204
52	60
53	39
54	11
55	8
56	4
57	1
58	0
63	73
65	131
66	20
67	24
69	999
70	77
71	6
72	4
74	11
75	12
77	313
78	131
79	178
82	36
83	3
84	4
86	13
87	8
89	59
91	363
92	30
93	13
94	25
95	3
96	2
97	4
99	9
100	15
101	13
102	15
104	131
105	61
106	173
107	19
109	1
111	0
112	14
113	49
114	4
115	4
116	16
117	24
118	18
119	7
120	1
123	1
124	2
127	0
129	42
131	516
132	310
133	53
134	5
135	0
141	2
143	7
144	14
145	12
146	22
147	6
148	5
149	6
151	147
152	3
154	6
156	50
157	32
158	132
159	89
160	8
164	6
166	2
167	1
169	6
171	66
172	305
173	235
174	111
175	16
176	0
177	0
181	0
182	0
184	10
185	21
186	12
187	2
188	1
194	32
195	0
196	0
197	15
198	7
199	24
200	30
201	32
202	3
203	1
213	2
214	3
215	6
216	34
217	6
219	6
222	2
225	3
229	3
236	0
237	2
238	1
240	16
248	8
250	12
254	0
255	1
257	7
258	67
259	40
261	1
262	21
263	1
267	2
281	1
284	0
286	2
297	5
304	0
305	2
306	7
311	0
324	1
325	0
326	1
327	2
331	3
336	0
337	27
338	4
344	1
347	6
348	0
351	55
352	11
353	0
365	6
366	10
367	18
368	3
369	0
441	8
442	3
449	4
455	1
479	2
497	3
499	105
500	17
501	1
503	5
504	3
511	1
512	2
513	7
517	435
518	469
519	77
520	7
