Mass Spectrum: 1-Naphthyl 2-phenylcyclopropane-1-carboxylate
Formula: C20H16O2
CAS: 304688-18-4
Molecular weight: 288
m/z	intensity
34	3
35	1
36	2
37	9
38	34
39	270
40	53
41	47
42	15
43	24
44	31
45	2
46	0
50	46
51	110
52	27
53	15
54	5
55	42
56	8
57	24
58	21
59	2
60	1
61	5
62	44
63	139
64	28
65	141
67	7
68	8
69	7
70	4
71	5
72	5
73	1
74	21
75	28
76	19
77	65
78	42
79	4
80	1
81	4
82	2
83	3
84	3
85	4
86	19
87	25
88	35
89	159
90	22
91	353
92	25
93	1
94	1
95	30
96	3
97	1
98	3
99	3
100	2
101	10
102	26
103	18
104	21
105	7
106	0
107	2
108	1
109	2
110	2
111	2
112	2
113	31
114	49
115	999
116	271
117	446
118	47
119	3
120	0
122	1
123	2
125	2
126	25
127	563
128	73
129	4
130	0
131	3
133	1
134	1
135	0
136	0
137	0
139	0
140	0
141	0
143	49
144	381
145	810
146	98
147	6
149	2
150	0
151	1
152	0
153	1
154	0
155	1
156	4
157	1
160	0
164	0
165	1
166	0
168	0
169	0
171	1
178	0
184	13
185	0
191	0
196	1
197	4
198	0
199	0
202	0
203	0
205	0
213	0
215	1
221	0
231	0
232	0
233	1
239	0
244	0
251	0
260	9
261	1
268	0
283	0
288	108
289	21
290	3
