Mass Spectrum: 3,8-Nonadienoic acid, methyl ester
Formula: C10H16O2
CAS: 30463-55-9
Molecular weight: 168
m/z	intensity
26	32
27	445
28	115
29	306
30	8
31	20
32	11
33	6
37	8
38	24
39	586
40	95
41	862
42	69
43	111
44	6
45	70
46	2
49	1
50	22
51	59
52	31
53	246
54	633
55	669
56	36
57	17
58	21
59	576
60	15
61	6
62	4
63	14
64	4
65	71
66	58
67	999
68	173
69	55
70	5
71	283
72	49
73	6
74	158
75	34
76	3
77	54
78	27
79	278
80	103
81	192
82	102
83	23
84	377
85	436
86	28
87	85
88	13
89	2
91	36
92	41
93	128
94	480
95	310
96	23
97	34
98	18
99	32
100	46
101	39
102	3
103	4
105	10
106	3
107	28
108	163
109	102
110	14
111	57
112	16
113	49
114	59
115	4
116	1
117	4
118	22
119	22
120	5
121	13
125	16
126	160
127	54
128	4
135	6
136	142
137	46
138	4
139	14
140	10
141	15
142	2
143	5
153	8
168	22
169	1
