Mass Spectrum: Bicyclo[2.2.1]heptane, 2-chloro-1,7,7-trimethyl-, (1R-endo)-
Formula: C10H17Cl
CAS: 30462-53-4
Molecular weight: 172
m/z	intensity
26	50
27	79
28	77
29	60
30	1
31	1
32	6
33	2
34	5
35	4
36	47
37	2
38	17
39	50
40	21
41	248
42	19
43	96
44	5
45	0
47	0
48	0
49	2
50	5
51	11
52	6
53	79
54	16
55	152
56	15
57	24
58	1
59	0
60	0
61	0
62	4
63	3
64	1
65	33
66	25
67	227
68	140
69	130
70	17
71	3
72	0
73	0
74	0
75	4
77	93
78	19
79	189
80	67
81	296
82	53
83	26
84	3
85	0
87	0
88	3
89	12
90	3
91	117
92	133
93	531
94	107
95	999
96	79
97	3
101	1
102	9
103	8
104	5
105	42
106	10
107	97
108	41
109	36
110	252
111	23
112	0
113	0
114	0
115	5
116	3
117	6
118	1
119	10
120	3
121	319
122	32
123	24
124	2
127	1
128	2
129	24
130	3
131	7
132	0
133	0
134	1
135	2
136	295
137	90
138	7
139	0
143	0
144	1
149	0
157	100
158	11
159	35
160	2
172	8
173	0
174	2
