Mass Spectrum: Benzamide, 3-methyl-N-[4-(3-methylbenzoylamino)phenyl]-
Formula: C22H20N2O2
CAS: 304665-48-3
Molecular weight: 344
m/z	intensity
33	0
34	0
36	0
38	11
39	58
40	15
41	44
42	35
43	12
44	11
45	1
50	9
51	19
52	14
53	14
54	2
55	2
56	1
57	2
58	1
60	0
61	0
62	8
63	31
65	197
66	7
67	0
68	0
70	3
71	10
72	9
73	0
74	1
75	2
76	2
77	5
78	4
79	7
80	13
81	1
83	0
84	0
86	3
87	1
89	47
91	615
92	39
93	1
97	0
105	9
107	17
108	1
109	4
112	0
113	0
115	0
116	1
119	999
120	74
121	5
127	0
128	0
133	0
136	0
155	0
168	0
171	1
223	0
224	0
226	19
227	5
228	0
340	0
341	0
342	0
343	3
344	55
345	13
346	1
