Mass Spectrum: 2,6,7-Trioxa-1-phosphabicyclo[2.2.2]octane, 4-nitro-
Formula: C4H6NO5P
CAS: 3048-73-5
Molecular weight: 179
m/z	intensity
39	999
40	210
41	540
42	60
43	60
47	670
53	240
55	320
65	100
69	50
77	110
91	50
103	170
119	260
149	120
179	60
