Mass Spectrum: Pyrimidine-2,4(1H,3H)-dione, 1-(2,5-diphenyl-4-oxazolyl)-
Formula: C19H13N3O3
CAS: 304865-12-1
Molecular weight: 331
m/z	intensity
34	1
36	1
38	0
39	5
40	28
41	2
42	2
43	8
44	7
45	2
50	12
51	52
52	29
53	5
54	3
55	1
56	1
57	5
58	11
62	1
63	3
64	0
65	0
69	2
70	1
71	2
73	0
74	1
75	4
76	28
77	305
78	17
79	0
80	27
81	1
82	0
83	0
86	2
87	1
88	15
89	3
91	2
95	3
96	1
101	2
102	4
103	27
105	999
106	80
107	6
112	2
114	3
115	2
116	2
117	0
124	18
125	0
127	3
128	6
129	3
130	2
131	0
132	0
135	0
144	21
145	3
149	1
155	1
156	3
157	1
161	0
162	0
165	3
166	0
171	2
173	0
174	0
181	0
185	48
186	5
191	0
192	1
199	0
200	0
202	0
203	0
205	1
206	0
217	1
218	0
219	1
220	1
227	0
231	0
232	0
233	0
237	1
242	0
244	5
245	4
246	1
247	0
255	0
259	1
260	6
261	1
262	1
267	0
277	0
283	0
286	2
287	5
288	232
289	47
290	5
291	0
330	1
331	415
332	83
333	9
334	0
337	0
