Mass Spectrum: 4-Methyl-N-(4-phenylazo-phenyl)-benzamide
Formula: C20H17N3O
CAS: 304883-10-1
Molecular weight: 315
m/z	intensity
38	3
39	11
40	2
41	6
43	1
50	11
51	45
52	7
53	0
55	0
57	0
62	4
63	27
64	31
65	74
66	4
74	5
75	6
77	200
78	16
79	2
80	0
83	0
87	0
88	3
89	40
90	45
91	415
92	33
93	9
94	0
101	0
102	2
103	2
105	66
106	4
107	0
109	0
111	0
112	0
113	3
115	24
116	6
119	999
120	81
121	6
126	1
127	2
128	3
129	1
131	1
132	0
139	12
140	7
141	26
142	2
143	0
150	1
152	11
153	5
154	2
155	3
160	18
161	1
164	1
165	4
166	14
167	44
168	10
169	4
170	0
171	1
177	0
178	2
179	2
180	15
181	6
182	4
183	0
190	0
191	0
193	6
194	4
195	9
196	121
197	15
198	1
208	5
210	660
211	84
212	7
224	2
226	0
238	36
239	4
272	2
273	0
283	0
286	0
287	0
312	0
315	459
316	96
317	10
318	0
