Mass Spectrum: Tricyclo[4.3.1.1(3,8)]undecan-3-amine
Formula: C11H19N
CAS: 3048-63-3
Molecular weight: 165
m/z	intensity
38	20
39	80
40	160
41	160
42	100
43	160
44	960
45	100
46	30
47	20
49	60
51	70
52	60
53	50
54	40
55	80
56	60
57	380
58	130
59	40
61	20
62	20
65	30
66	20
67	80
68	40
69	110
70	540
71	130
72	40
73	10
74	10
75	90
76	20
77	170
78	250
79	110
80	40
81	60
82	190
83	50
84	20
85	20
91	20
92	30
93	70
94	999
95	280
96	80
97	20
98	20
103	20
104	10
105	40
106	30
107	30
108	270
109	210
110	40
111	10
112	70
113	10
114	30
119	20
120	20
121	20
122	110
123	60
124	30
133	30
134	20
135	30
136	40
137	20
146	10
148	20
149	30
150	70
151	20
155	20
164	20
165	190
166	40
167	20
