Mass Spectrum: N-Methyl-4-(oxo(phenyl)acetyl)benzamide
Formula: C16H13NO3
CAS: 304861-51-6
Molecular weight: 267
m/z	intensity
15	6
26	1
27	7
28	13
30	3
31	1
37	2
38	4
39	9
40	1
41	1
42	5
50	106
51	169
52	13
53	6
54	1
56	1
58	55
59	1
61	1
62	5
63	7
64	3
65	20
66	4
73	4
74	36
75	66
76	183
77	510
78	37
79	10
80	2
82	1
85	1
86	2
87	2
88	2
89	3
90	3
91	7
92	1
93	1
98	1
99	1
101	1
103	144
104	171
105	999
106	117
107	12
113	1
115	1
116	3
117	3
118	4
119	2
121	2
126	1
127	1
132	30
133	8
134	66
135	6
136	1
139	1
145	3
146	1
150	2
151	3
152	7
153	3
154	1
160	1
162	621
163	65
164	7
165	1
180	1
181	2
182	1
209	12
210	3
211	2
237	12
239	262
240	43
241	4
266	1
267	27
268	6
269	1
