Mass Spectrum: Furan-3-carbohydrazide, 2-methyl-N2-(3,5-dimethyl-1-pentylpyrazol-4-yl)methylene-
Formula: C17H24N4O2
CAS: 304906-43-2
Molecular weight: 316
m/z	intensity
33	2
34	0
36	0
37	2
39	75
40	25
41	88
42	83
43	172
44	11
45	1
50	13
51	29
52	47
53	56
54	19
55	22
56	5
57	3
58	0
60	0
63	3
65	21
66	23
67	28
68	24
69	16
70	4
71	7
72	0
74	0
75	0
77	9
78	6
80	91
81	31
82	12
83	8
84	2
86	1
89	0
90	0
91	3
92	6
93	14
94	27
95	17
96	11
97	7
98	0
100	0
101	0
102	0
103	0
105	8
108	500
109	999
110	63
111	6
112	2
113	0
114	0
115	0
116	0
117	1
120	43
121	79
122	69
123	23
125	604
126	51
127	4
128	0
129	0
130	0
131	1
134	157
135	56
136	13
137	11
138	3
139	0
140	0
143	0
144	0
146	2
148	10
149	20
150	4
151	5
152	2
153	1
154	0
155	0
156	0
157	0
158	0
159	0
160	1
162	7
163	4
164	2
165	4
166	0
167	1
168	0
171	1
172	0
173	0
174	1
176	23
177	3
178	7
179	5
180	1
185	0
186	0
187	0
188	1
189	3
190	8
192	169
193	18
194	2
195	1
196	0
199	0
200	0
201	0
202	0
203	1
205	2
207	14
208	2
209	0
214	0
215	1
216	0
217	0
218	0
219	0
220	0
221	0
222	0
223	0
228	0
229	0
230	0
231	0
232	0
233	0
235	0
239	0
242	0
243	0
244	0
245	0
246	1
247	0
257	1
259	12
260	3
261	0
267	0
268	0
271	0
272	0
273	1
274	0
284	0
285	3
287	3
288	0
296	0
297	0
299	0
301	4
302	0
312	1
314	2
316	121
317	19
318	2
