Mass Spectrum: Pyrazine-2-carbohydrazide, N2-(2,4-dichlorobenzylideno)-
Formula: C12H8Cl2N4O
CAS: 304908-49-4
Molecular weight: 294
m/z	intensity
33	0
35	3
36	5
37	5
38	10
39	14
40	10
41	4
42	4
43	4
44	11
45	0
46	0
47	1
49	6
50	22
51	56
52	231
53	136
54	7
55	1
56	0
57	0
58	0
60	3
61	13
62	33
63	37
64	4
66	4
67	4
68	7
69	3
73	59
74	25
75	33
76	6
77	8
79	409
80	999
81	44
82	2
84	10
85	12
86	21
87	28
88	13
89	23
90	8
91	1
92	0
93	0
94	1
95	7
96	5
97	21
99	19
100	17
101	4
102	1
103	0
104	0
106	23
107	55
108	55
109	24
110	6
111	8
112	2
113	2
114	1
115	3
116	3
117	5
118	2
119	1
120	2
123	587
124	65
125	58
126	13
127	3
128	0
129	0
130	0
131	0
133	9
134	2
135	7
136	22
137	4
138	5
139	1
140	2
141	1
142	0
143	0
145	9
146	3
147	5
148	2
149	5
151	17
152	43
153	7
154	14
155	1
156	0
158	22
159	18
160	15
161	11
162	5
163	2
164	0
165	0
166	0
167	2
168	9
169	2
171	23
172	18
173	14
174	11
175	4
176	2
177	0
178	0
180	0
183	0
184	0
186	3
187	5
188	2
189	3
190	0
191	0
195	0
196	0
197	0
198	0
199	0
200	0
201	0
202	4
203	1
204	1
205	0
211	0
213	0
214	0
215	3
216	1
217	2
218	0
219	0
223	0
229	0
230	0
231	9
232	1
233	3
234	0
235	0
236	0
237	0
238	0
239	0
241	0
244	0
250	0
251	0
257	0
259	4
260	1
261	1
262	0
265	0
267	0
274	0
279	0
280	1
281	0
294	26
295	4
296	14
297	2
298	2
299	0
