Mass Spectrum: Cyclohexanol, 3,5-dimethoxy-, stereoisomer
Formula: C8H16O3
CAS: 30517-18-1
Molecular weight: 160
m/z	intensity
26	10
27	125
29	205
30	25
31	100
33	195
37	5
38	5
39	10
40	25
41	230
42	75
43	310
44	35
45	150
46	5
47	10
50	5
51	15
52	10
53	40
54	25
55	75
56	15
57	65
58	999
59	560
60	20
61	130
62	5
63	5
65	15
66	15
67	40
68	55
69	55
70	45
71	80
72	30
73	20
74	5
75	65
76	5
77	15
78	20
79	25
80	40
81	15
82	5
83	20
84	115
85	90
86	10
87	300
88	15
89	5
94	20
95	50
96	135
97	45
98	50
99	10
100	5
101	170
102	10
103	10
108	5
109	30
110	575
111	60
112	10
113	20
114	5
115	5
119	5
126	5
127	15
128	80
129	10
130	25
131	5
141	5
142	45
143	5
160	5
