Mass Spectrum: N-(N-Allylformamide)ethyleneimine
Formula: C6H10N2O
CAS: 30530-01-9
Molecular weight: 126
m/z	intensity
27	111
29	33
30	45
39	195
40	55
41	616
42	585
43	999
44	95
53	8
54	65
55	79
56	263
57	24
67	3
68	13
69	23
70	198
71	18
72	6
82	20
83	38
84	133
85	19
97	31
98	46
99	39
100	3
111	95
112	6
125	71
126	266
127	23
