Mass Spectrum: Allyl(methoxy)dimethylsilane
Formula: C6H14OSi
CAS: 30535-30-9
Molecular weight: 130
m/z	intensity
30	9
31	131
32	5
37	7
38	21
39	138
40	15
41	88
42	32
43	145
44	29
45	269
46	28
47	91
48	4
49	4
50	2
51	6
52	2
53	17
55	19
56	4
57	39
58	61
59	637
60	74
61	111
62	2
63	2
65	4
66	4
67	4
68	2
69	4
70	2
71	6
72	2
73	6
74	17
75	712
76	69
77	32
83	15
84	2
85	17
87	8
88	8
89	999
90	99
91	35
99	8
101	52
102	3
103	2
105	6
115	78
116	25
117	4
119	2
130	21
131	2
132	1
