Mass Spectrum: Cinnamaldehyde, 2-furylcarbonylhydrazone
Formula: C14H12N2O2
CAS: 305338-83-4
Molecular weight: 240
m/z	intensity
33	0
34	2
36	1
37	12
38	40
39	215
40	64
41	11
42	19
43	15
44	18
45	2
46	1
50	22
51	63
52	13
53	10
54	6
55	31
56	2
57	3
58	1
60	0
61	2
62	13
63	42
64	9
65	35
66	9
67	31
68	10
69	5
70	1
71	1
72	0
73	1
74	8
75	13
76	15
77	107
78	21
79	2
80	1
81	2
82	3
83	21
84	14
86	4
87	5
88	6
89	42
90	10
91	75
92	8
94	58
95	999
96	51
97	6
98	1
99	0
100	1
101	7
102	30
103	26
104	26
105	4
106	1
107	0
108	0
109	3
111	507
112	31
113	8
114	9
115	181
116	38
117	30
118	42
119	6
120	0
121	0
123	0
125	1
126	1
127	3
128	31
129	622
130	410
131	40
132	3
133	0
134	0
135	0
136	0
137	1
138	0
139	0
140	0
141	0
142	0
143	2
144	16
145	85
146	14
147	1
149	0
150	0
151	0
152	1
153	1
154	1
155	1
156	0
157	0
163	13
164	1
165	1
166	0
167	1
168	1
169	0
170	0
171	4
172	0
173	0
181	0
182	0
183	0
184	0
185	0
186	0
187	0
193	0
194	0
196	4
197	0
200	0
204	0
210	0
211	1
212	0
213	0
221	0
222	0
223	0
229	0
232	0
237	0
238	0
239	40
240	79
241	12
242	1
