Mass Spectrum: Ethyl 2-(4-fluorobenzamido)benzoate
Formula: C16H14FNO3
CAS: 305377-07-5
Molecular weight: 287
m/z	intensity
38	2
39	9
40	1
41	2
42	0
43	2
44	0
45	1
48	0
50	3
51	5
52	2
53	2
54	0
55	1
57	3
58	0
59	0
60	0
62	0
63	7
64	7
65	23
66	1
67	0
68	0
69	7
70	1
71	1
72	0
73	0
74	0
75	40
76	6
77	4
78	0
79	1
80	0
81	1
83	0
84	0
85	0
87	0
89	0
90	11
91	2
92	13
93	2
94	5
95	151
96	10
97	0
98	0
100	0
102	0
103	0
104	0
105	2
106	0
107	0
108	0
109	0
111	0
112	0
113	0
114	0
115	0
117	0
118	1
119	8
120	5
121	1
122	4
123	999
124	74
125	4
126	0
128	0
129	0
132	0
133	1
134	0
135	0
136	1
137	0
138	0
139	7
140	2
141	2
145	0
146	20
147	1
148	0
149	1
150	0
151	0
157	3
158	2
159	1
161	0
163	0
164	4
165	0
166	1
167	0
169	0
170	1
171	0
176	0
182	1
183	0
184	6
185	13
186	2
187	0
188	0
192	0
194	0
195	0
196	3
197	15
198	2
199	0
200	0
201	0
207	0
209	0
210	0
211	0
212	1
213	6
214	100
215	14
216	0
217	0
218	0
221	0
222	0
227	0
228	0
230	0
236	0
237	0
239	0
240	2
241	8
242	21
243	4
244	0
248	0
249	0
251	0
256	0
258	0
259	0
269	0
270	1
271	0
276	0
277	0
286	1
287	220
288	39
289	5
