Mass Spectrum: S-Benzyl-L-cysteine
Formula: C10H13NO2S
CAS: 3054-01-1
Molecular weight: 211
m/z	intensity
26	6
27	19
28	69
29	10
30	68
33	3
34	3
36	3
37	4
38	11
39	78
40	10
41	35
42	60
43	82
44	62
45	91
46	27
47	12
48	7
49	3
50	21
51	52
52	15
53	6
54	4
55	8
56	6
57	6
58	6
59	8
60	6
61	8
62	18
63	53
64	15
65	219
66	13
67	4
68	5
69	9
70	15
71	21
72	3
73	11
74	171
75	16
76	9
77	46
78	18
79	15
80	3
82	3
83	4
84	3
85	4
86	5
87	20
88	9
89	125
90	31
91	999
92	164
93	9
95	3
97	4
99	3
100	7
102	3
103	3
104	4
105	3
106	9
107	3
114	4
115	13
120	7
121	36
122	91
123	28
124	115
125	12
126	7
129	3
132	4
134	3
135	8
136	3
137	223
138	277
139	37
140	14
141	3
146	3
148	26
149	9
150	7
164	6
165	3
166	36
167	10
168	3
194	22
195	4
211	79
212	12
213	6
