Mass Spectrum: 4-Hydroxy-4'-phenyl-azobenzene
Formula: C18H14N2O
CAS: 30546-22-6
Molecular weight: 274
m/z	intensity
15	4
17	9
18	19
26	13
27	35
28	23
29	13
37	6
38	33
39	399
40	18
41	8
42	5
43	9
44	5
45	4
50	57
51	135
52	77
53	63
54	9
55	16
61	4
62	29
63	111
64	62
65	561
66	36
67	5
74	32
75	58
76	58
77	98
78	16
79	7
80	9
81	4
83	3
84	4
85	3
86	11
87	20
88	15
89	28
90	5
91	14
93	999
94	72
95	5
98	8
99	10
100	9
101	26
102	48
103	10
105	6
106	3
107	6
108	3
109	3
110	3
111	3
112	3
113	17
114	10
115	53
116	8
121	682
122	52
123	4
125	10
126	72
127	96
128	20
129	3
131	3
137	33
139	43
140	31
141	19
142	3
144	3
149	4
150	50
151	210
152	844
153	977
154	129
155	11
163	2
164	7
165	9
166	13
167	10
168	15
169	36
170	9
171	2
176	4
177	2
178	5
179	2
181	62
182	9
189	10
190	5
191	7
192	3
200	2
201	4
202	49
203	13
204	2
213	3
214	2
215	32
216	11
217	11
218	4
225	1
226	19
227	9
228	7
229	2
231	3
242	1
243	2
244	6
245	4
246	10
247	2
273	11
274	813
275	172
276	18
277	1
