Mass Spectrum: .beta.-[p-Chlorophenyl]-4-chloro-2-butenophenone thiosemicarbazone
Formula: C17H15Cl2N3S
CAS: 30542-23-5
Molecular weight: 363
m/z	intensity
41	10
42	65
43	214
45	5
47	28
48	23
49	87
50	65
51	136
52	13
58	11
59	39
60	999
61	37
62	58
63	72
64	4
65	23
73	20
74	64
75	288
76	79
77	133
78	14
83	50
84	54
85	16
86	181
87	29
88	30
89	89
90	20
91	27
94	24
99	34
100	24
101	180
102	126
103	85
104	11
109	10
111	125
112	25
113	62
114	37
115	384
116	139
117	44
123	12
125	109
126	52
127	87
128	57
129	4
130	54
131	60
132	13
136	31
137	67
138	155
139	60
140	80
141	35
149	64
150	34
151	54
152	38
153	26
154	12
155	11
158	10
161	4
162	12
163	17
164	19
165	20
166	51
167	95
168	25
169	31
176	27
177	13
178	12
179	12
184	64
185	15
186	23
187	22
188	12
189	88
190	20
191	16
192	10
193	133
195	61
199	14
200	18
201	23
202	156
203	135
204	55
205	9
210	17
211	14
212	106
213	12
214	35
216	13
217	43
218	19
223	12
225	53
226	67
227	51
228	26
229	10
237	29
238	34
239	19
240	25
251	18
252	67
253	109
254	47
255	28
259	12
261	9
267	12
272	26
273	9
274	24
276	5
286	20
287	660
288	378
289	874
290	306
291	358
292	78
293	43
303	92
304	21
305	62
306	20
307	10
319	0
320	0
321	0
322	0
327	4
328	42
330	14
362	9
363	125
364	34
365	86
366	22
367	13
