Mass Spectrum: Triethylene glycol monododecyl ether
Formula: C18H38O4
CAS: 3055-94-5
Molecular weight: 318
m/z	intensity
14	4
15	14
16	3
17	3
18	11
25	1
26	8
27	83
28	101
29	158
30	12
31	57
32	23
33	4
38	2
39	41
40	11
41	332
42	99
43	549
44	191
45	999
46	23
47	5
50	1
51	3
52	1
53	18
54	31
55	320
56	142
57	684
58	84
59	149
60	13
61	9
62	6
63	16
64	1
65	4
66	11
67	51
68	85
69	216
70	116
71	402
72	46
73	74
74	5
75	148
76	50
77	29
78	3
79	6
80	6
81	40
82	180
83	185
84	77
85	246
86	18
87	120
88	162
89	430
90	30
91	26
92	3
93	3
94	4
95	36
96	96
97	143
98	51
99	62
100	10
101	44
102	13
103	59
104	9
105	4
106	12
107	15
108	3
109	29
110	48
111	83
112	29
113	40
114	7
115	5
116	3
117	16
118	3
119	79
120	5
121	8
122	2
123	20
124	30
125	31
126	15
127	21
128	5
129	8
130	1
131	4
132	2
133	19
134	9
135	7
136	2
137	13
138	23
139	9
140	21
141	11
142	5
143	2
144	1
145	2
148	1
149	2
151	29
152	4
153	1
154	1
155	4
156	5
157	3
159	2
163	4
164	1
165	4
166	100
167	25
168	20
169	22
170	4
171	1
173	1
177	2
179	2
180	1
181	1
182	1
183	14
184	3
185	5
193	1
194	9
195	2
197	21
198	6
199	6
200	1
211	3
212	20
213	13
214	2
227	3
228	2
229	16
230	3
241	1
242	1
243	10
244	2
249	6
250	1
256	2
257	2
287	1
