Mass Spectrum: Hexaethylene glycol monododecyl ether
Formula: C24H50O7
CAS: 3055-96-7
Molecular weight: 450
m/z	intensity
14	3
15	23
16	1
17	1
18	4
25	1
26	6
27	56
28	77
29	104
30	11
31	55
32	1
33	1
39	16
40	4
41	170
42	60
43	331
44	142
45	999
46	23
47	2
53	7
54	11
55	136
56	50
57	301
58	85
59	133
60	6
61	8
62	1
63	3
66	3
67	18
68	25
69	75
70	34
71	155
72	124
73	110
74	7
75	32
76	2
77	11
79	2
80	2
81	12
82	44
83	54
84	16
85	89
86	17
87	163
88	98
89	380
90	20
91	11
94	1
95	10
96	24
97	38
98	9
99	24
100	4
101	30
102	16
103	65
104	7
105	6
107	7
108	1
109	7
110	10
111	19
112	5
113	15
114	4
115	6
116	13
117	33
118	4
119	11
121	10
122	1
123	4
124	6
125	6
126	2
127	7
128	1
129	2
131	32
132	9
133	141
134	9
135	9
137	3
138	5
139	2
140	3
141	2
145	2
147	12
148	1
149	3
151	7
158	1
159	2
160	1
161	4
163	9
164	2
165	4
166	28
167	14
168	4
169	11
170	1
175	14
176	2
177	34
178	4
179	2
182	1
183	5
191	2
193	1
194	2
195	5
197	3
199	1
205	1
207	5
208	7
209	1
210	2
211	3
212	3
213	11
214	2
219	4
221	5
223	5
227	3
229	1
239	1
243	1
251	3
257	8
258	1
271	1
273	2
283	3
301	2
317	2
363	2
407	1
451	3
