Mass Spectrum: Octaethylene glycol monododecyl ether
Formula: C28H58O9
CAS: 3055-98-9
Molecular weight: 538
m/z	intensity
12	2
13	4
14	19
15	78
16	8
17	23
18	107
19	19
20	1
24	2
25	7
26	39
27	100
28	116
29	196
30	25
31	112
32	7
33	6
37	1
38	2
39	32
40	8
41	180
42	71
43	338
44	232
45	999
46	24
47	4
50	1
51	3
52	2
53	10
54	22
55	173
56	101
57	384
58	134
59	182
60	18
61	13
62	3
63	9
65	3
66	7
67	35
68	53
69	124
70	92
71	213
72	134
73	351
74	18
75	49
76	7
77	29
78	2
79	6
80	6
81	26
82	95
83	112
84	56
85	125
86	30
87	229
88	139
89	468
90	28
91	22
92	2
93	3
94	3
95	20
96	53
97	88
98	36
99	42
100	8
101	49
102	31
103	99
104	11
105	10
106	2
107	10
108	2
109	13
110	23
111	48
112	21
113	28
114	9
115	12
116	21
117	53
118	7
119	22
120	2
121	14
122	2
123	9
124	12
125	17
126	9
127	13
128	4
129	6
130	7
131	45
132	12
133	171
134	11
135	15
136	2
137	6
138	10
139	6
140	13
141	6
142	1
143	2
144	1
145	6
146	2
147	19
148	3
149	3
151	9
152	2
153	1
154	1
155	2
156	5
157	2
158	2
159	5
160	5
161	13
162	2
163	14
164	6
165	5
166	52
167	21
168	16
169	18
170	3
171	1
173	1
174	1
175	22
176	3
177	45
178	5
179	5
180	1
181	1
182	2
183	9
184	2
185	6
186	1
187	1
189	2
190	1
191	5
192	1
193	1
194	4
195	7
196	1
197	6
198	2
199	5
200	1
201	2
202	1
203	2
205	7
206	1
207	8
208	2
209	2
210	3
211	5
212	6
213	14
214	3
219	7
220	1
221	9
222	2
223	2
227	5
228	1
229	3
235	1
239	4
241	1
242	1
243	3
249	1
251	3
252	1
253	1
256	1
257	8
258	2
263	1
265	2
271	1
273	2
283	1
295	1
301	2
317	1
