Mass Spectrum: Geldaramycin
Formula: C29H40N2O9
CAS: 30562-34-6
Molecular weight: 560
m/z	intensity
41	557
42	163
43	999
44	212
45	916
46	25
47	25
50	15
51	53
52	31
53	197
54	65
55	572
56	166
57	993
58	219
59	251
60	533
61	52
63	15
65	104
66	58
67	368
68	108
69	407
70	77
71	205
72	64
73	112
74	95
75	110
77	177
78	94
79	330
80	89
81	204
82	86
83	289
84	88
85	560
86	256
87	69
89	17
91	200
92	38
93	202
94	113
95	707
96	158
97	427
98	133
99	105
101	62
102	13
103	62
104	67
105	123
106	64
107	134
108	149
109	313
110	385
111	304
112	125
113	301
114	31
115	76
116	18
117	102
118	25
119	111
120	33
121	91
122	43
123	113
124	48
125	115
126	375
127	131
128	21
129	52
130	41
131	284
132	26
133	70
134	55
135	100
136	37
137	83
138	920
139	149
140	27
141	51
142	16
143	38
144	22
145	62
146	22
147	58
148	39
149	69
150	40
151	43
152	225
153	124
154	55
155	41
156	15
157	52
158	23
159	134
160	42
161	57
162	37
163	53
164	24
165	52
166	40
167	50
168	15
169	21
170	46
171	78
172	29
173	69
174	24
175	70
176	43
177	121
178	48
179	28
180	15
181	29
183	17
185	32
186	20
187	74
188	74
189	52
190	24
191	33
192	44
193	21
194	44
195	24
197	39
199	37
200	15
201	15
202	25
203	21
204	9
205	15
206	25
207	13
215	23
216	8
217	20
218	17
219	17
221	27
222	25
228	11
230	8
231	18
232	15
233	22
236	17
239	19
242	8
244	17
245	7
246	28
247	10
248	8
251	15
253	20
256	22
258	9
260	9
262	17
270	19
271	41
272	23
274	9
282	10
283	27
284	16
286	8
295	8
296	23
298	19
299	31
300	22
301	7
302	15
304	20
310	8
312	9
313	33
314	21
326	23
327	9
328	20
330	7
342	9
344	18
357	39
358	118
359	28
360	12
361	9
374	8
381	15
387	44
388	26
391	44
392	8
409	8
419	41
420	11
437	8
452	14
467	24
468	9
469	44
470	11
501	12
517	139
518	44
