Mass Spectrum: Butanoic acid, 4-pentenyl ester
Formula: C9H16O2
CAS: 30563-31-6
Molecular weight: 156
m/z	intensity
26	21
27	252
28	63
29	96
30	3
31	17
32	1
37	5
38	14
39	233
40	62
41	498
42	113
43	755
44	34
45	19
50	5
51	11
52	7
53	99
54	21
55	65
56	9
57	10
58	3
60	15
61	2
62	1
63	2
65	10
66	12
67	553
68	999
69	145
70	41
71	857
72	42
73	22
74	1
77	1
78	1
79	1
81	3
82	3
83	3
84	3
85	7
86	3
87	6
88	5
89	64
90	3
95	2
96	1
100	17
101	5
112	1
113	31
114	11
115	11
126	8
128	4
