Mass Spectrum: 2-Heptenal, 2-methyl-
Formula: C8H14O
CAS: 30567-26-1
Molecular weight: 126
m/z	intensity
15	41
18	11
26	34
27	662
28	132
29	535
30	12
31	16
38	27
39	563
40	66
41	999
42	99
43	578
44	39
50	24
51	56
52	23
53	169
54	52
55	972
56	465
57	99
58	47
63	14
65	32
66	16
67	77
68	99
69	186
70	29
71	521
72	20
77	35
79	57
81	29
82	23
83	189
84	192
85	24
91	12
93	38
94	39
97	859
111	51
119	7
126	662
