Mass Spectrum: 4-Penten-1-ol, propanoate
Formula: C8H14O2
CAS: 30563-30-5
Molecular weight: 142
m/z	intensity
25	1
26	33
27	219
28	90
29	482
30	14
31	25
32	0
37	2
38	11
39	175
40	54
41	309
42	48
43	22
44	7
45	7
50	5
51	9
52	6
53	104
54	19
55	38
56	38
57	999
58	39
59	3
61	0
62	1
63	2
64	0
65	10
66	12
67	570
68	846
69	104
70	11
71	25
72	4
73	4
74	5
75	47
76	1
79	0
81	1
82	1
83	4
84	2
85	8
86	5
87	12
88	0
95	1
98	1
99	1
100	13
101	10
102	0
112	10
113	17
114	2
