Mass Spectrum: Valeric acid, 4-pentenyl ester
Formula: C10H18O2
CAS: 30563-32-7
Molecular weight: 170
m/z	intensity
25	0
26	15
27	169
28	83
29	249
30	7
31	13
37	1
38	7
39	175
40	43
41	522
42	77
43	54
44	8
45	12
47	0
49	0
50	4
51	8
52	4
53	78
54	18
55	103
56	44
57	481
58	26
59	9
60	19
61	3
62	0
63	1
65	7
66	9
67	433
68	999
69	159
70	17
71	38
72	4
73	22
74	2
75	16
76	0
79	1
81	2
82	5
83	14
84	18
85	573
86	32
87	12
88	1
91	0
95	3
96	0
97	1
98	1
99	3
100	65
101	9
102	3
103	49
104	2
110	1
111	1
113	40
114	4
115	2
126	0
127	1
128	15
129	12
130	1
139	1
140	6
141	2
142	1
