Mass Spectrum: Decane, 3-bromo-
Formula: C10H21Br
CAS: 30571-71-2
Molecular weight: 220
m/z	intensity
41	422
42	115
43	849
53	27
54	15
55	252
56	140
57	999
58	35
67	15
69	117
70	65
71	669
72	32
83	42
84	12
85	644
86	45
97	17
141	445
142	45
