Mass Spectrum: 1,3-Dioxolane, 2-ethyl-2-(5-methoxyheptyl)-
Formula: C13H26O3
CAS: 30571-80-3
Molecular weight: 230
m/z	intensity
41	66
43	23
45	66
55	53
57	184
61	46
73	196
74	10
97	97
101	999
102	46
139	58
140	5
169	56
170	5
201	230
202	15
