Mass Spectrum: d-Ribo-tetrofuranose, 4-c-cyclopropyl-1,2-O-isopropylidene-, .alpha.-
Formula: C10H16O4
CAS: 30571-50-7
Molecular weight: 200
m/z	intensity
43	50
55	17
59	999
60	30
66	15
67	20
68	30
69	30
70	15
71	799
72	40
73	30
79	15
81	15
83	85
84	20
85	25
95	10
97	10
100	5
101	10
113	20
117	15
125	20
185	30
