Mass Spectrum: 1,3,2-Dioxaphosphorinane, 5,5-dimethyl-2-phenoxy-
Formula: C11H15O3P
CAS: 3057-08-7
Molecular weight: 226
m/z	intensity
39	161
41	436
47	151
50	20
51	98
53	50
55	120
56	79
57	20
63	29
64	30
65	109
66	29
67	20
68	9
69	999
70	80
71	30
76	10
77	148
78	9
83	10
85	9
91	30
93	20
94	50
95	10
111	20
124	19
133	470
134	39
139	19
140	159
141	50
159	29
175	19
177	20
181	9
198	9
226	109
227	19
