Mass Spectrum: 3-Decanol, 8-methoxy-
Formula: C11H24O2
CAS: 30571-74-5
Molecular weight: 188
m/z	intensity
41	201
43	86
45	163
55	119
57	199
59	95
67	124
69	52
71	318
72	76
73	999
74	52
81	33
82	26
83	43
84	16
85	24
86	12
95	21
96	14
97	21
98	21
99	21
109	263
110	21
127	299
128	16
138	16
141	43
159	182
160	21
173	19
