Mass Spectrum: Fucose, 2,3,4,5-tetraacetate, L-
Formula: C14H20O9
CAS: 30571-58-5
Molecular weight: 332
m/z	intensity
44	539
45	488
46	60
47	6
50	13
51	23
52	14
55	139
56	59
57	169
58	39
59	189
60	78
61	19
62	169
63	156
65	13
66	9
67	8
68	8
69	98
70	37
71	315
72	29
73	361
74	28
75	11
81	39
82	218
83	210
84	59
85	55
86	39
87	194
88	19
89	9
96	26
97	19
98	21
99	646
100	305
101	54
102	207
103	157
104	9
110	41
111	95
112	11
113	64
114	13
115	999
116	80
117	57
118	3
126	41
127	23
128	55
129	120
130	13
131	9
140	111
141	60
142	240
143	62
144	110
145	46
146	4
153	42
154	8
156	8
157	733
158	75
159	60
160	9
170	78
171	29
172	4
173	3
184	279
185	29
186	41
187	4
200	8
201	55
202	9
203	9
215	11
228	2
229	0
230	15
231	6
232	1
244	1
245	4
246	0
273	14
274	2
289	0
303	3
304	0
