Mass Spectrum: (Z)-Pentacos-16-ene-2,4-dione
Formula: C25H46O2
CAS: 305805-39-4
Molecular weight: 378
m/z	intensity
27	17
28	5
29	52
30	1
31	4
39	33
40	7
41	278
42	50
43	604
44	16
45	4
52	2
53	35
54	103
55	532
56	99
57	169
58	54
59	16
65	13
66	17
67	253
68	118
69	378
70	75
71	94
72	52
77	12
78	5
79	53
80	64
81	227
82	185
83	233
84	78
85	852
86	39
87	16
90	1
91	14
92	7
93	32
94	46
95	201
96	163
97	181
98	100
99	20
100	999
101	158
102	13
105	9
106	4
107	26
108	30
109	137
110	88
111	123
112	37
113	402
114	35
115	7
118	3
119	15
120	16
121	53
122	27
123	86
124	99
125	49
126	15
127	14
133	20
134	26
135	45
136	26
137	80
138	120
139	37
140	9
141	6
142	16
147	17
148	19
149	28
150	14
151	37
152	38
153	22
154	6
155	8
156	6
162	8
163	15
164	7
165	17
166	18
167	46
168	7
169	11
170	3
175	10
176	4
177	10
178	6
179	11
180	10
181	7
182	3
183	3
189	7
191	7
193	10
194	10
195	5
197	2
205	4
206	6
207	13
208	10
209	6
210	2
211	3
220	5
221	20
222	16
223	7
224	3
233	3
235	19
236	12
237	6
238	3
239	3
245	2
247	3
249	16
250	9
251	6
261	3
263	16
264	16
265	10
266	2
267	2
276	3
277	17
278	11
279	6
282	6
289	2
290	2
291	12
292	7
293	5
295	1
296	2
302	40
303	14
304	3
307	3
317	35
318	14
319	5
320	38
321	43
322	10
323	3
331	2
332	2
335	6
342	10
343	2
345	7
349	2
360	85
361	24
362	3
363	9
378	23
379	6
380	2
381	1
