Mass Spectrum: 9-(Adamantan-1-oylhydrazono)-2,7-bis-[2-(diethylamino)-ethoxy]-fluorene
Formula: C36H50N4O3
CAS: 305807-15-2
Molecular weight: 586
m/z	intensity
54	11
55	57
56	52
57	143
58	100
59	7
60	16
61	7
67	24
68	10
69	48
70	36
71	5
72	67
73	17
74	6
77	11
78	6
79	29
80	20
81	29
82	31
83	386
84	43
85	257
86	999
87	81
88	6
93	29
94	13
95	26
96	21
97	48
98	35
99	35
100	419
101	38
102	5
107	16
108	7
109	17
110	12
111	24
112	13
114	7
115	7
116	3
117	6
118	11
119	7
120	10
121	9
122	7
123	13
124	10
125	11
126	7
127	11
128	6
129	8
130	2
135	95
136	13
137	7
138	8
139	11
140	5
141	10
142	4
147	9
148	3
149	52
150	7
151	7
167	16
168	4
169	6
170	2
177	9
178	7
179	8
180	7
181	4
211	6
212	2
239	5
262	6
263	4
264	2
279	4
309	4
310	2
311	3
367	3
368	4
369	2
380	7
381	3
407	5
408	86
409	32
410	7
421	2
423	2
424	2
451	2
476	4
477	2
478	2
571	2
585	4
586	8
587	3
