Mass Spectrum: (Z)-Tritriacont-24-ene-2,4-dione
Formula: C33H62O2
CAS: 305805-42-9
Molecular weight: 490
m/z	intensity
27	11
29	41
31	3
37	2
39	29
41	229
42	39
43	628
44	15
51	5
53	21
54	87
55	597
56	136
57	283
58	74
59	16
66	13
67	233
68	135
69	517
70	103
71	181
72	68
76	3
77	13
79	42
80	77
81	263
82	197
83	375
84	88
85	832
86	44
87	25
92	10
93	31
94	45
95	205
96	148
97	272
98	93
99	26
100	999
101	195
102	18
104	7
107	26
108	28
109	148
110	71
111	191
112	31
113	387
114	39
120	12
121	40
122	22
123	93
124	92
125	62
126	13
127	16
131	40
133	16
134	10
135	29
136	21
137	84
138	144
139	35
140	9
142	19
146	7
147	13
148	9
149	16
150	15
151	35
152	28
154	10
155	8
156	10
158	6
163	21
165	11
166	15
167	16
168	6
169	11
170	6
175	7
179	7
180	10
189	9
192	7
193	12
194	11
196	5
211	5
223	8
231	5
235	7
237	6
245	4
249	9
250	8
263	11
264	11
266	6
277	16
279	9
287	4
288	4
291	10
292	8
301	3
305	17
306	4
307	7
315	7
317	5
319	19
320	7
321	7
322	2
323	4
333	20
334	9
335	8
339	7
346	6
347	12
348	5
349	8
351	3
353	4
361	11
362	6
363	8
364	3
373	4
376	11
386	2
389	13
390	9
391	9
394	3
400	2
403	10
404	5
410	2
413	2
414	37
415	19
428	2
429	24
430	16
431	9
432	44
433	61
434	16
435	4
442	2
443	4
444	5
447	4
449	2
454	26
455	6
471	2
472	185
473	68
474	15
475	8
476	4
490	35
491	18
