Mass Spectrum: 3-Pyridinecarboxylic acid, [[4-(benzoyloxy)phenyl]methylene]hydrazide
Formula: C20H15N3O3
CAS: 305858-46-2
Molecular weight: 345
m/z	intensity
33	0
34	0
35	1
36	6
37	2
38	9
39	15
40	10
41	4
42	5
43	6
44	9
45	4
46	2
47	0
50	48
51	157
52	22
53	8
54	1
55	3
56	1
57	2
58	0
59	2
60	1
61	1
62	4
63	11
64	5
65	4
66	1
67	1
68	1
69	3
70	1
71	1
73	1
74	5
75	8
76	27
77	300
78	159
79	19
80	2
81	1
82	0
84	2
85	0
86	0
87	1
88	1
89	6
90	3
91	2
92	1
93	1
94	1
95	0
96	0
97	0
98	0
99	1
100	0
101	1
102	2
105	999
106	180
107	12
108	1
109	0
110	0
111	0
112	2
113	1
114	0
115	1
116	1
117	1
118	2
119	3
120	1
121	2
122	27
123	7
124	1
125	1
126	0
127	0
128	0
129	1
130	2
131	1
132	1
133	2
134	1
135	0
136	0
137	0
138	0
139	0
140	0
141	0
142	0
143	0
144	1
145	1
146	0
147	0
148	3
149	0
150	0
151	0
152	0
153	0
154	0
155	0
156	0
157	1
158	1
159	7
160	1
161	5
162	0
163	1
164	0
165	0
166	0
167	0
168	0
169	0
170	0
171	1
172	0
173	0
174	0
175	0
176	0
177	0
178	0
181	0
182	0
183	0
184	0
185	0
186	0
187	0
188	2
189	0
190	0
192	1
193	0
194	0
195	0
196	0
197	0
198	0
199	0
200	0
202	0
203	0
210	0
211	0
212	0
213	0
214	1
215	0
216	0
217	0
222	0
223	0
224	1
225	0
226	1
227	23
228	3
229	0
230	0
231	0
233	0
240	0
241	0
242	0
243	0
252	0
254	0
258	0
260	0
266	0
270	0
271	0
273	0
274	1
282	0
283	0
300	0
301	0
304	0
305	0
307	0
308	0
343	0
345	16
346	3
347	0
