Mass Spectrum: (Z)-Heptacos-18-ene-2,4-dione
Formula: C27H50O2
CAS: 305805-38-3
Molecular weight: 406
m/z	intensity
26	1
27	13
28	4
29	48
30	1
31	3
38	1
39	29
40	7
41	257
42	47
43	570
44	15
45	3
51	2
52	1
53	26
54	91
55	509
56	100
57	185
58	54
59	16
61	3
65	11
66	15
67	235
68	117
69	411
70	80
71	111
72	57
73	3
76	1
77	10
78	4
79	44
80	66
81	225
82	193
83	255
84	78
85	829
86	40
87	16
88	1
89	1
91	9
92	9
93	27
94	49
95	205
96	175
97	202
98	95
99	21
100	999
101	176
102	13
103	2
104	2
105	6
106	4
107	25
108	30
109	142
110	93
111	127
112	36
113	395
114	34
115	5
118	1
119	11
120	12
121	44
122	24
123	87
124	109
125	52
126	14
127	15
128	7
132	1
133	15
134	20
135	46
136	27
137	80
138	152
139	40
140	8
141	8
142	19
143	1
145	2
146	1
147	14
148	16
149	25
150	12
151	35
152	37
153	19
154	6
155	7
156	7
157	1
161	8
162	7
163	14
164	7
165	17
166	18
167	39
168	7
169	12
170	3
173	1
175	8
176	4
177	10
178	5
179	12
180	11
181	8
182	3
183	3
184	2
187	1
189	6
190	2
191	6
192	4
193	9
194	10
195	6
196	3
197	3
198	2
203	3
204	1
205	5
206	3
207	10
208	10
209	6
210	2
211	3
212	1
217	2
218	1
219	3
220	3
221	15
222	10
223	6
224	2
225	3
226	1
231	2
232	1
233	4
234	6
235	22
236	12
237	7
238	2
239	3
240	1
245	2
246	1
247	4
248	4
249	26
250	19
251	8
252	4
253	4
254	1
259	1
260	1
261	4
262	3
263	22
264	12
265	7
266	2
267	3
268	1
273	2
274	2
275	4
276	2
277	18
278	9
279	7
280	2
287	2
288	2
289	3
290	2
291	16
292	13
293	9
294	2
295	1
296	1
301	2
302	1
303	3
304	3
305	14
306	11
307	7
308	1
309	1
310	4
311	1
315	1
317	2
318	3
319	11
320	6
321	5
322	1
323	1
324	2
328	1
329	2
330	42
331	16
332	3
333	2
334	1
335	3
336	1
337	1
343	1
344	1
345	33
346	15
347	7
348	45
349	52
350	12
351	2
355	1
359	2
360	1
361	1
363	6
364	2
365	1
370	14
371	4
372	1
373	7
374	2
377	1
388	119
389	36
390	5
391	9
392	2
404	1
405	2
406	28
407	9
408	2
