Mass Spectrum: Ethyl 2-benzamido-3,3,3-trifluoro-2-[(6-methyl-2-pyridyl)amino]propionate
Formula: C18H18F3N3O3
CAS: 305866-57-3
Molecular weight: 381
m/z	intensity
36	1
37	1
38	4
39	21
40	8
41	7
42	7
43	5
44	6
45	1
47	1
50	11
51	46
52	6
53	7
54	2
55	3
56	1
57	3
63	3
64	7
65	43
66	12
67	2
68	2
69	4
70	1
71	2
73	1
74	2
75	4
77	301
78	22
79	3
80	23
81	23
82	2
83	1
84	1
89	1
90	1
91	11
92	86
93	19
94	2
96	2
97	1
101	1
102	1
103	7
105	999
106	74
107	9
108	58
109	5
110	1
112	1
113	1
115	1
117	1
118	1
119	8
120	1
121	4
122	1
129	1
130	1
132	1
133	2
134	12
135	4
147	1
157	1
168	1
169	1
171	2
182	1
183	4
184	1
187	4
188	2
189	3
195	1
196	1
202	3
203	1
204	5
205	13
206	2
207	2
209	1
210	1
211	1
215	3
216	1
230	1
231	2
238	2
239	1
241	1
259	1
260	2
261	2
290	1
305	2
306	4
308	241
309	38
310	4
312	5
313	1
336	2
381	12
382	2
