Mass Spectrum: Ethyl 2-acetamido-3,3,3-trifluoro-2-(isopropylamino)propionate
Formula: C10H17F3N2O3
CAS: 305865-06-9
Molecular weight: 270
m/z	intensity
33	5
39	36
40	47
41	149
43	999
44	411
45	50
47	88
48	38
49	25
50	14
51	3
52	2
54	8
55	5
56	15
58	179
59	33
60	41
61	2
63	1
64	1
66	5
67	2
69	35
70	15
71	4
72	4
73	3
74	3
75	2
76	2
77	6
78	3
79	1
86	32
87	29
89	29
90	2
92	6
93	2
94	3
96	39
97	4
98	9
99	1
100	2
102	1
103	1
104	2
105	1
106	1
108	1
109	1
110	1
113	647
114	23
115	1
117	13
118	6
119	4
120	6
121	2
122	8
123	9
124	3
125	5
126	2
127	4
129	2
131	13
132	1
135	1
137	38
138	15
139	39
140	13
142	51
143	3
145	1
147	4
148	5
149	1
150	1
151	2
153	7
155	618
156	33
157	1
159	25
160	2
165	7
167	7
168	39
170	38
171	3
181	4
182	7
183	1
184	1
189	3
197	256
198	18
199	1
201	5
209	1
210	1
211	2
212	7
255	3
