Mass Spectrum: Guanidine, (4-aminobutyl)-
Formula: C5H14N4
CAS: 306-60-5
Molecular weight: 130
m/z	intensity
41	101
42	109
43	684
44	495
45	95
46	3
51	3
52	3
53	12
54	13
55	50
56	73
57	19
58	50
59	461
60	129
61	7
64	5
65	8
66	4
67	4
68	20
69	21
70	180
71	30
72	265
73	347
74	21
78	3
82	2
83	25
84	26
85	31
86	355
87	999
88	68
89	4
91	1
94	8
95	1
96	3
97	3
98	9
99	4
100	145
101	207
102	17
111	4
112	12
113	21
114	63
115	6
122	1
124	1
130	17
131	4
