Mass Spectrum: 8-Phenyl-1,4-dioxa-8-phospha-spiro[4.5]decane 8-sulfide
Formula: C13H17O2PS
CAS: 306318-56-9
Molecular weight: 268
m/z	intensity
39	35
40	42
41	68
42	166
43	55
44	55
45	70
46	10
47	75
48	23
49	59
50	14
51	47
53	13
55	364
56	45
57	33
58	14
59	34
60	11
61	17
62	23
63	228
64	240
65	59
66	9
67	29
69	14
71	13
72	10
73	18
75	18
76	24
77	136
78	38
79	17
80	20
81	14
83	211
84	19
85	10
86	40
87	44
89	18
90	26
91	87
92	735
93	33
94	74
95	14
97	20
99	999
100	109
101	19
103	18
104	34
105	147
106	44
107	68
108	69
109	45
110	9
113	20
115	22
117	10
118	9
120	143
121	23
122	9
123	25
124	12
125	26
127	40
128	27
133	39
134	204
135	122
136	14
139	9
140	52
141	36
142	13
145	8
149	16
156	20
157	21
159	40
163	33
167	18
168	100
169	12
175	9
181	9
182	16
191	13
192	23
196	13
208	18
209	16
222	29
223	328
224	135
225	40
236	10
237	18
240	39
268	632
269	90
270	33
