Mass Spectrum: D-glycero-D-gulo-Heptonic acid, .delta.-lactone
Formula: C7H12O7
CAS: 3063-04-5
Molecular weight: 208
m/z	intensity
41	69
42	134
43	324
44	267
45	189
46	12
47	15
48	3
49	3
50	17
51	27
52	7
53	28
54	32
55	122
56	67
57	122
58	49
59	25
60	210
61	305
62	10
63	4
64	10
65	5
66	3
67	6
68	14
69	105
70	21
71	194
72	81
73	999
74	83
75	12
76	64
77	12
78	14
79	27
80	13
81	36
82	29
83	37
84	86
85	116
86	49
87	22
88	7
89	31
90	8
91	99
92	3
94	2
95	18
96	10
97	54
98	20
99	29
100	96
101	26
102	23
103	28
105	4
106	5
107	7
108	2
109	7
110	9
111	7
112	36
113	23
114	33
115	48
116	6
118	5
119	35
123	3
124	6
125	5
126	2
127	5
128	7
129	6
130	15
131	67
132	3
133	31
134	3
137	2
141	21
142	43
143	6
144	13
145	6
147	46
148	42
149	6
154	2
159	103
160	26
161	3
163	20
172	5
173	2
177	6
190	37
191	3
208	13
209	2
