Mass Spectrum: D-Erythro-Tetrofuranose-3-ulose, 4-C-cyclopropyl-1,2-O-isopropylidene-, .alpha.-
Formula: C10H14O4
CAS: 30645-00-2
Molecular weight: 198
m/z	intensity
43	499
51	15
53	80
54	100
55	90
57	40
58	100
59	110
60	150
67	20
68	40
69	60
70	15
71	180
81	40
82	40
83	40
84	10
85	999
86	55
87	10
95	10
100	999
101	70
111	20
112	20
113	10
141	70
183	10
198	1
