Mass Spectrum: Allofuranose, 1,2-O-isopropylidene-, cyclic 5,6-(thiocarbonate), .alpha.-D-
Formula: C10H14O6S
CAS: 30645-01-3
Molecular weight: 262
m/z	intensity
43	869
53	30
54	10
55	170
56	15
57	220
58	50
59	999
60	300
68	30
69	160
70	50
71	180
72	25
73	150
74	15
75	10
76	10
85	12
86	35
87	15
88	10
89	10
97	50
98	35
99	60
100	40
101	50
103	55
109	50
113	30
127	220
129	100
132	15
133	35
159	55
185	20
187	20
247	100
262	270
