Mass Spectrum: Disulfide, bis(diisobutylthiocarbamoyl)
Formula: C18H36N2S4
CAS: 3064-73-1
Molecular weight: 408
m/z	intensity
41	337
42	139
43	112
44	7
45	37
46	7
47	37
53	30
54	7
55	386
56	94
57	999
58	64
60	75
61	11
62	26
68	15
69	11
70	30
72	101
73	37
74	64
75	37
76	67
77	67
82	30
84	101
86	56
87	15
88	22
89	142
90	11
92	37
98	19
100	15
105	19
106	15
114	45
115	41
116	277
117	22
118	37
127	26
129	15
131	15
140	26
148	26
154	11
172	311
173	105
174	19
204	288
205	139
206	41
207	11
236	19
280	30
408	45
409	11
410	15
