Mass Spectrum: 5,7-Dodecadiene, (E,E)-
Formula: C12H22
CAS: 30651-68-4
Molecular weight: 166
m/z	intensity
22	1
23	0
25	2
26	6
27	122
28	22
29	80
30	2
33	0
34	0
35	0
36	0
37	4
38	4
39	102
40	14
41	302
42	18
43	83
44	43
45	0
46	0
47	0
48	0
49	1
50	10
51	25
52	21
53	58
54	279
55	182
56	19
57	27
58	1
59	0
62	2
63	12
64	5
65	44
66	26
67	999
68	212
69	76
70	7
71	1
72	0
74	2
75	5
76	5
77	78
78	47
79	141
80	51
81	496
82	193
83	21
84	1
89	2
90	1
91	38
92	7
93	28
94	7
95	115
96	72
97	6
102	1
103	1
104	2
105	5
106	1
107	6
108	2
109	62
110	49
111	3
115	9
116	1
117	3
119	6
121	5
122	1
123	56
124	7
126	0
127	2
128	8
129	5
130	1
131	0
133	0
135	2
137	5
138	1
141	13
142	0
143	0
151	1
152	3
153	3
154	3
155	3
156	3
157	0
158	3
160	0
162	0
164	7
165	1
166	112
167	13
168	0
