Mass Spectrum: Cholest-23-ene, (5.beta.)-
Formula: C27H46
CAS: 30658-62-9
Molecular weight: 370
m/z	intensity
41	504
42	49
43	192
50	27
51	8
52	8
53	104
54	55
55	999
56	68
57	68
65	49
66	27
67	545
68	135
69	440
70	49
71	27
77	107
78	27
79	281
80	77
81	804
82	121
83	281
84	41
85	19
91	170
92	41
93	330
94	101
95	804
96	101
97	192
98	27
101	8
103	8
105	112
106	41
107	269
108	173
109	859
110	104
111	71
112	8
115	8
117	27
118	8
119	77
120	38
121	303
122	115
123	396
124	52
125	27
131	27
132	16
133	60
134	33
135	297
136	74
137	391
138	60
139	13
141	27
142	16
143	60
144	33
145	24
146	5
147	82
148	55
149	355
150	104
151	256
152	46
159	27
161	77
162	46
163	358
164	63
165	311
166	41
173	8
174	8
175	63
176	33
177	344
178	63
179	27
189	55
190	22
191	239
192	38
201	27
202	11
203	88
204	27
205	112
206	33
215	27
216	27
217	239
218	82
219	110
220	30
229	16
230	16
231	90
232	35
233	16
243	27
244	19
245	19
256	82
257	614
258	170
259	49
271	33
272	8
285	35
286	63
287	633
288	143
289	27
300	27
301	19
315	27
316	19
327	33
330	30
355	82
356	33
370	46
371	27
