Mass Spectrum: Glucose methylglycoside tetraacetate
Formula: C15H22O10
CAS: 30657-67-1
Molecular weight: 362
m/z	intensity
41	16
42	16
43	999
44	48
45	20
55	12
57	8
60	8
61	12
69	48
70	40
71	12
73	20
74	32
75	24
81	68
83	8
84	8
85	40
86	12
87	40
97	28
98	72
99	36
102	48
103	64
109	20
112	48
113	8
115	128
116	32
126	8
127	32
128	12
129	16
139	8
140	40
141	36
144	20
145	52
157	84
158	20
169	32
199	8
200	36
217	24
242	12
243	20
