Mass Spectrum: Morpholine, 4-propionyl-
Formula: C7H13NO2
CAS: 30668-14-5
Molecular weight: 143
m/z	intensity
13	1
14	1
15	13
16	0
17	1
26	11
27	44
28	41
29	84
30	23
31	4
39	3
40	2
41	17
42	74
43	22
44	26
45	8
51	1
52	3
53	5
54	26
55	71
56	439
57	999
58	84
59	23
60	4
67	1
68	10
69	28
70	186
71	26
72	115
73	9
74	2
82	3
83	4
84	25
85	31
86	788
87	249
88	65
89	4
96	2
97	3
98	65
99	20
100	59
101	18
102	1
110	2
111	1
112	47
113	21
114	99
115	21
116	2
125	5
126	1
128	179
129	14
130	1
141	1
142	12
143	376
144	37
145	3
