Mass Spectrum: (.+/-.)-Dihydro-ar-turmerone
Formula: C15H22O
CAS: 30666-87-6
Molecular weight: 218
m/z	intensity
27	7
28	1
29	15
38	1
39	24
40	3
41	75
42	10
43	30
44	1
50	2
51	10
52	3
53	7
54	1
55	5
56	2
57	166
58	9
59	1
62	2
63	9
64	4
65	31
66	3
67	3
68	1
69	15
70	1
71	1
74	1
75	2
76	2
77	42
78	13
79	14
80	1
81	1
84	1
85	98
86	5
87	1
89	9
90	3
91	110
92	15
93	24
94	2
95	2
96	2
101	2
102	7
103	30
104	19
105	122
106	11
107	3
109	3
111	2
114	1
115	66
116	18
117	123
118	112
119	999
120	99
121	2
126	1
127	4
128	8
129	4
130	1
131	6
132	39
133	82
134	11
135	5
141	2
142	2
143	24
144	6
145	8
146	2
147	8
148	1
157	5
158	1
159	3
160	1
161	133
162	19
163	2
175	2
176	2
177	1
203	182
204	28
205	2
217	2
218	196
219	32
220	2
