Mass Spectrum: Benzene, 1-chloro-2-nitro-4-(3-nitrobenzylidenamino)-
Formula: C13H8ClN3O4
CAS: 306744-55-8
Molecular weight: 305
m/z	intensity
33	6
34	0
35	17
36	11
37	61
39	679
41	29
42	13
43	10
44	7
46	904
50	763
51	340
52	81
53	18
54	4
55	6
56	2
57	3
58	0
59	1
60	19
61	97
62	392
63	999
64	125
65	35
66	5
67	3
69	4
70	6
71	3
72	53
73	175
74	451
75	708
76	307
77	122
78	15
80	29
81	2
83	6
84	79
85	31
86	72
87	116
88	150
89	298
90	27
91	9
92	4
93	12
94	3
95	2
96	8
97	85
98	59
99	65
100	44
101	32
102	57
103	39
104	6
105	5
106	3
107	3
108	5
109	43
110	167
111	45
112	48
114	61
115	20
116	14
117	4
119	6
120	3
122	9
123	15
124	90
125	48
126	59
127	31
128	19
129	5
130	1
131	2
132	1
133	0
134	2
135	5
137	64
139	102
140	44
141	5
142	2
143	0
144	1
145	0
146	0
147	3
148	6
149	43
150	123
151	142
152	53
153	12
154	9
156	4
157	0
158	0
160	3
161	5
162	10
163	6
164	32
165	31
166	100
168	16
169	1
170	1
171	2
172	2
173	8
174	10
175	26
176	77
177	220
178	263
179	30
180	9
182	4
183	36
185	11
186	30
187	16
188	17
189	6
190	4
191	3
192	3
193	6
194	21
195	5
196	2
197	0
199	2
200	9
201	54
203	22
204	1
205	1
207	4
208	4
209	2
211	7
212	24
213	159
215	59
216	3
217	0
219	0
222	0
223	2
224	4
225	0
226	0
227	1
228	11
229	8
230	4
231	4
232	0
233	1
235	0
239	0
240	5
241	1
242	2
244	1
246	0
247	6
248	0
249	0
253	0
254	0
256	0
257	1
258	13
259	30
260	9
261	11
262	1
263	0
270	0
271	0
274	0
275	2
277	1
287	0
289	3
291	2
292	0
294	0
295	0
296	1
297	2
298	1
299	3
300	4
301	4
302	6
303	3
304	31
305	338
306	61
307	112
308	15
309	2
