Mass Spectrum: Benzamide, 2-chloro-4-nitro-N-(4-chlorobenzyl)-
Formula: C14H10Cl2N2O3
CAS: 306743-30-6
Molecular weight: 324
m/z	intensity
35	15
36	34
37	49
38	93
39	178
40	60
41	50
42	21
43	57
44	45
46	95
47	8
49	47
50	379
51	230
52	68
53	42
55	37
56	19
57	17
58	5
59	3
60	11
61	52
62	119
63	352
64	59
65	49
66	7
67	6
68	4
69	11
70	7
71	14
73	160
74	484
75	999
76	186
77	358
78	54
79	13
80	6
81	11
82	7
83	12
84	94
85	42
86	48
87	47
89	432
90	129
91	29
92	14
93	9
94	2
95	5
96	3
97	24
98	26
99	124
100	25
101	55
102	48
103	109
104	80
105	41
106	10
107	30
108	17
109	77
110	342
111	167
112	187
113	100
114	29
115	23
116	4
117	5
118	33
119	18
120	6
121	4
122	4
123	16
125	510
126	225
127	178
128	75
129	10
130	4
131	8
132	11
133	3
134	5
135	6
136	12
138	642
140	358
141	42
142	32
143	7
144	9
145	4
147	2
149	15
150	18
151	12
152	31
153	17
154	78
155	14
156	22
157	6
159	1
161	2
162	5
163	7
164	6
165	10
166	8
167	6
168	50
169	7
170	15
171	4
172	2
175	3
176	1
177	15
178	7
179	7
180	9
181	6
183	53
184	417
185	50
186	135
187	17
188	4
189	3
190	4
191	0
195	1
196	1
198	1
199	3
200	3
201	2
202	2
203	2
205	3
207	5
208	1
213	5
214	18
215	7
216	4
217	2
218	1
219	1
220	5
221	3
222	1
224	3
225	1
226	0
227	1
228	1
230	5
231	3
232	1
233	0
237	1
240	0
241	4
242	13
243	40
244	8
245	13
246	3
248	1
249	2
250	4
252	4
254	1
259	3
260	3
261	1
262	1
263	1
271	2
273	0
274	2
276	3
277	21
279	18
280	3
281	2
282	1
283	2
284	6
285	6
286	32
287	31
289	264
290	47
291	75
292	13
293	1
294	2
296	1
306	2
307	4
308	1
309	1
310	1
315	1
316	2
318	5
319	7
320	25
321	27
322	52
323	63
324	196
325	49
326	103
327	18
328	16
329	2
