Mass Spectrum: 1,2-5,6-Di-O-isopropylidene-D-glucofuranose, TMS derivative
Formula: C15H28O6Si
CAS: 3067-62-7
Molecular weight: 332
m/z	intensity
73	710
75	290
101	999
103	130
117	70
127	80
129	680
131	440
133	70
143	210
145	300
157	100
158	60
159	40
167	20
169	20
171	50
173	190
183	15
187	30
199	65
201	240
213	30
215	30
216	30
217	72
231	200
259	200
274	8
287	0
303	0
317	880
