Mass Spectrum: 1-(4-Iodo-phenyl)-3-morpholin-4-yl-pyrrolidine-2,5-dione
Formula: C14H15IN2O3
CAS: 306732-13-8
Molecular weight: 386
m/z	intensity
38	7
39	26
40	24
41	51
42	58
43	22
44	26
45	8
50	11
51	4
52	6
53	11
54	82
55	302
56	84
57	45
58	10
62	8
63	39
64	22
65	6
67	4
68	16
69	18
70	18
71	5
73	5
74	5
75	4
76	20
77	9
78	3
81	2
82	37
83	81
84	36
85	38
86	999
87	62
88	6
89	9
90	98
91	17
92	5
93	5
94	4
96	3
98	124
99	9
102	6
103	4
104	5
105	7
110	2
111	7
112	58
113	541
114	39
115	5
116	27
117	9
118	33
119	13
120	3
127	56
128	56
129	3
132	8
133	2
135	17
136	4
140	68
141	7
144	11
145	7
146	22
147	3
149	4
172	11
173	8
174	21
175	10
203	13
216	4
217	5
218	3
219	35
220	2
229	20
230	9
231	9
245	68
246	8
254	7
255	10
272	5
273	37
274	2
298	3
299	193
300	26
301	201
302	21
343	90
344	11
355	14
384	8
386	116
387	14
