Mass Spectrum: Benzenamine, 2-(4-chlorobenzylidenamino)-4-nitro-
Formula: C13H10ClN3O2
CAS: 306744-54-7
Molecular weight: 275
m/z	intensity
33	9
35	49
36	18
37	101
38	256
39	443
41	396
42	43
43	16
44	13
46	214
47	6
49	64
50	536
51	734
52	999
53	331
54	98
55	15
56	2
57	6
58	1
59	0
60	11
61	100
62	297
63	615
64	205
65	297
66	66
67	24
68	8
69	16
71	12
72	21
73	93
74	144
75	337
76	229
77	177
78	486
79	84
80	26
81	6
82	3
83	21
84	56
85	37
86	55
87	95
88	101
89	432
90	118
91	175
92	62
93	13
94	3
95	5
97	56
99	46
100	24
101	30
102	80
103	26
104	13
105	53
106	25
107	10
108	5
109	6
110	14
111	135
112	30
113	47
114	61
115	43
116	17
117	52
118	376
119	35
120	2
121	1
122	7
123	88
124	31
125	50
126	18
127	15
128	9
129	3
130	1
132	1
133	9
134	19
136	14
137	54
138	50
139	46
140	33
141	10
142	2
143	2
144	0
146	0
147	0
148	10
149	13
150	39
151	12
152	18
153	8
154	8
155	4
156	0
158	1
159	1
160	0
161	4
162	9
163	23
164	458
165	48
166	34
167	16
168	5
173	3
174	1
175	4
176	6
177	5
178	1
179	1
181	10
182	4
183	0
186	0
187	1
188	1
189	0
190	1
192	15
193	16
194	12
195	0
196	1
197	1
200	7
201	6
202	4
203	2
204	0
209	3
210	1
212	0
215	2
216	2
217	2
218	0
226	2
227	6
228	40
229	7
230	13
231	1
239	0
243	4
244	2
245	2
269	2
270	2
271	0
272	2
273	8
274	53
275	48
276	21
277	14
278	1
