Mass Spectrum: Furan-2-carboxamide, N-(4-isopropylphenyl)-
Formula: C14H15NO2
CAS: 306743-27-1
Molecular weight: 229
m/z	intensity
34	1
35	0
37	54
38	161
39	722
40	68
41	117
42	23
43	45
44	17
45	3
46	0
47	0
48	0
49	3
50	38
51	93
52	50
53	47
54	14
55	20
57	18
58	4
59	0
61	3
62	13
63	77
64	30
65	118
66	45
67	82
69	16
70	2
71	3
72	1
73	2
74	9
75	13
76	13
77	85
78	45
79	39
80	9
81	6
82	2
83	2
84	1
85	2
86	2
87	4
89	35
90	32
91	231
92	80
93	30
95	999
96	48
97	6
98	1
99	2
100	1
101	3
102	10
103	26
105	31
106	9
107	15
108	1
109	1
110	0
111	1
112	1
113	1
114	1
115	12
116	11
117	19
118	50
119	58
120	24
121	184
123	13
124	0
125	0
126	0
127	2
128	8
129	5
130	10
131	3
132	8
133	5
134	27
135	5
136	1
137	0
138	0
139	1
141	1
142	1
143	2
144	1
145	1
146	6
147	1
148	0
149	1
152	0
154	1
155	0
156	4
157	2
158	4
159	1
160	0
161	0
162	0
166	0
167	0
168	0
169	0
170	1
171	2
172	3
173	0
176	0
177	1
178	0
179	0
180	0
181	0
182	0
183	0
184	2
185	1
186	10
187	1
188	0
196	0
198	0
199	0
200	1
201	0
205	0
207	0
208	0
209	0
211	3
212	8
213	1
214	251
215	30
216	3
228	17
229	140
230	20
231	1
232	0
