Mass Spectrum: 7,7-Dimethyl-4-(2-methyl-4-thiazolyl)-1,8-dioxaspiro[4.5]decan-2-one
Formula: C14H19NO3S
CAS: 306730-86-9
Molecular weight: 281
m/z	intensity
33	4
36	5
38	11
39	136
40	65
41	121
42	213
43	98
44	30
45	76
46	4
51	24
53	45
55	63
56	19
58	156
59	65
60	9
63	4
64	2
65	17
67	6
68	4
69	38
70	27
71	23
72	11
77	18
78	9
79	15
81	15
82	13
83	57
84	231
85	45
86	8
91	9
95	2
96	8
97	18
99	4
105	3
107	5
109	5
111	14
112	11
113	24
119	4
121	14
122	5
123	9
125	999
126	139
127	57
128	9
137	7
138	6
139	4
140	2
141	3
150	11
151	22
153	729
154	68
155	36
156	4
164	63
165	11
166	9
167	5
178	26
179	24
180	7
181	5
195	4
196	6
197	4
204	4
206	27
208	4
221	5
222	3
224	18
225	7
238	8
248	4
266	61
267	12
268	2
281	13
