Mass Spectrum: Benzoic acid, 2-methyl-, 4-acetylphenyl ester
Formula: C16H14O3
CAS: 306743-67-9
Molecular weight: 254
m/z	intensity
34	5
36	10
38	37
39	117
40	55
41	41
43	120
44	25
45	8
47	0
48	0
49	2
50	31
51	44
52	18
53	12
54	3
55	9
56	3
57	6
58	2
59	2
60	2
61	5
62	23
63	86
64	57
65	198
66	16
67	3
68	2
69	4
70	3
71	3
72	1
73	2
74	7
75	9
76	9
77	35
79	22
80	2
81	2
82	2
83	3
84	2
85	3
86	2
87	3
89	51
90	38
91	420
92	55
93	7
95	7
96	1
97	1
98	1
99	1
100	0
101	0
102	0
103	0
104	1
105	2
106	0
107	9
108	1
109	1
110	1
111	1
112	1
113	1
115	4
116	2
119	999
120	79
121	11
123	15
124	1
126	1
127	1
128	1
129	0
130	0
131	0
132	0
133	1
134	0
135	1
136	1
137	0
138	0
139	0
140	0
141	0
142	0
143	0
144	0
145	0
146	0
147	0
148	0
149	0
150	0
152	0
153	3
154	0
155	1
156	0
157	0
158	0
160	0
161	0
162	0
163	0
164	0
166	3
167	0
168	0
169	0
170	0
171	1
172	1
179	0
180	0
181	1
182	0
183	2
184	0
185	0
187	0
191	0
192	0
193	0
198	0
211	0
212	0
219	0
227	0
228	0
239	0
247	0
253	0
254	5
255	0
