Mass Spectrum: N-Hydroxycarbamic acid,2-(isopropoxycarbonylamino)ethyl ester
Formula: C7H14N2O5
CAS: 306731-05-5
Molecular weight: 206
m/z	intensity
30	142
32	38
39	104
40	28
41	298
42	260
43	999
44	473
45	175
46	44
56	22
57	19
58	15
59	69
60	97
62	12
70	173
71	11
74	22
75	13
78	33
86	13
87	42
88	620
89	26
91	10
116	45
129	46
147	14
149	2
159	3
164	28
165	1
