Mass Spectrum: 1,4-Bis[(3-methyl-5-oxo-1-phenyl-2-pyrazolin-4-ylidene)methyl]benzene
Formula: C28H22N4O2
CAS: 306765-12-8
Molecular weight: 446
m/z	intensity
34	11
36	19
37	9
39	123
40	148
41	178
42	95
43	172
44	60
45	10
50	30
51	279
52	19
53	13
54	9
55	53
56	19
57	61
58	4
59	5
60	5
62	8
63	41
64	81
65	33
66	8
67	12
69	26
70	15
71	21
72	5
74	23
75	20
77	999
79	7
81	7
82	7
83	12
84	9
85	10
87	10
88	4
89	14
91	178
92	15
93	13
94	4
95	5
97	6
98	4
99	8
101	12
102	18
103	7
104	8
105	40
106	5
109	3
111	5
112	12
113	6
114	6
115	21
116	14
118	30
119	7
120	3
125	5
126	14
127	48
128	44
129	14
130	7
131	5
132	6
133	5
139	15
140	9
141	9
142	6
143	5
144	4
145	4
149	5
150	11
151	27
152	63
153	21
154	8
155	4
156	3
157	6
160	5
163	6
164	9
165	40
166	9
167	5
168	4
171	11
174	21
175	3
176	9
178	42
179	62
180	52
181	9
183	6
185	317
186	37
187	9
191	3
194	3
207	4
215	4
219	5
221	5
223	30
242	4
243	3
244	4
256	3
257	5
258	5
259	10
260	69
261	38
262	7
272	8
273	4
274	5
283	7
285	12
286	6
287	3
290	32
291	14
298	10
299	5
300	5
310	4
311	8
312	13
313	23
314	7
326	41
327	12
328	10
341	3
354	21
355	6
362	3
376	9
403	4
404	25
405	9
417	5
431	34
432	9
441	4
442	5
443	6
444	8
445	61
446	342
447	107
448	19
