Mass Spectrum: 1,2-O-Isopropylidene-.alpha.-D-glucofuranose, 3TMS derivative
Formula: C18H40O6Si3
CAS: 3067-66-1
Molecular weight: 436
m/z	intensity
73	999
75	120
103	170
117	100
129	168
131	162
133	80
145	122
147	220
157	50
185	25
189	122
191	80
204	110
205	320
217	500
225	20
231	70
241	10
243	20
245	40
246	10
247	10
257	2
258	2
259	3
265	2
273	10
275	100
288	7
289	6
291	4
305	4
307	4
317	12
333	40
346	4
363	1
378	1
421	7
436	0
