Mass Spectrum: Benzene-1,2-dicarboxylic acid, bis(4-acetylphenyl) ester
Formula: C24H18O6
CAS: 306743-80-6
Molecular weight: 402
m/z	intensity
34	5
36	3
37	20
38	63
39	128
40	72
41	19
43	999
45	7
47	1
48	2
50	246
51	66
52	30
53	51
54	14
55	14
56	2
57	6
58	0
61	14
62	32
63	125
64	105
65	115
66	17
68	3
69	9
70	28
72	3
73	7
74	45
75	83
76	419
77	199
78	30
79	71
81	17
82	3
84	22
85	2
86	3
87	4
89	21
91	229
92	101
93	38
94	4
95	1
97	2
98	10
99	2
101	4
102	4
104	250
105	33
106	7
107	46
108	4
109	2
110	5
111	3
112	17
113	6
114	5
115	13
116	2
118	3
119	34
120	34
121	73
122	5
123	0
125	1
126	76
128	2
129	2
130	1
132	14
133	6
134	1
135	3
136	18
137	4
139	40
140	11
141	22
142	2
143	0
145	0
147	0
148	4
149	14
150	3
151	6
152	15
153	12
154	2
155	0
157	0
159	0
163	0
164	0
165	3
166	0
167	4
168	13
169	9
170	2
171	1
172	0
173	1
177	0
178	0
179	1
180	1
181	7
182	1
183	2
184	1
186	9
187	1
192	0
193	1
194	1
195	4
196	5
197	28
198	5
199	1
200	2
201	0
207	0
208	0
209	0
211	0
215	0
221	2
222	1
223	5
225	81
226	11
227	1
236	0
238	1
239	1
240	0
241	0
248	1
249	10
250	2
251	0
257	0
258	0
259	0
261	3
262	6
263	10
267	645
268	80
269	11
270	0
271	0
