Mass Spectrum: DL-Valine, N-acetyl-
Formula: C7H13NO3
CAS: 3067-19-4
Molecular weight: 159
m/z	intensity
13	1
14	9
15	84
16	2
17	11
18	37
25	2
26	21
27	105
28	263
29	56
30	67
31	5
32	6
36	2
37	3
38	8
39	71
40	13
41	111
42	52
43	822
44	34
45	23
46	21
47	1
50	2
51	4
52	7
53	9
54	18
55	185
56	147
57	311
58	69
59	14
60	312
61	9
63	2
64	1
67	1
68	5
69	7
70	55
71	103
72	999
73	52
74	384
75	109
76	10
77	1
81	1
82	37
83	10
84	14
85	6
86	1
87	2
88	16
96	1
97	3
98	17
99	751
100	66
101	13
102	21
103	1
112	2
113	10
114	479
115	60
116	23
117	174
118	10
119	1
126	16
127	18
128	27
140	1
141	15
142	2
144	3
159	13
160	1
