Mass Spectrum: Benzoic acid, 3-bromo-, 4-benzyloxyphenyl ester
Formula: C20H15BrO3
CAS: 306743-81-7
Molecular weight: 382
m/z	intensity
34	0
36	0
37	7
38	23
39	84
40	14
41	22
43	3
44	7
45	1
46	0
48	1
50	125
51	46
52	27
54	49
55	3
56	0
57	0
61	3
62	12
63	50
65	173
66	6
67	0
68	0
69	0
70	0
72	0
73	6
74	37
75	83
76	117
77	19
79	8
80	14
81	12
82	16
83	0
85	0
86	1
87	1
89	39
91	999
92	64
93	3
102	1
104	17
105	9
106	2
107	0
108	2
109	1
110	2
111	0
113	0
115	2
116	0
119	0
121	0
127	0
128	1
129	2
130	0
131	1
133	0
139	0
141	0
142	0
151	0
152	1
153	3
155	72
157	69
158	4
165	0
168	0
169	0
179	0
180	1
181	5
183	107
185	105
186	7
187	0
200	1
290	0
377	0
378	2
380	2
381	3
382	7
383	3
384	5
385	0
