Mass Spectrum: Benzoic acid, 2-(4-chlorobenzoyloxy)-5-nitro-
Formula: C14H8ClNO6
CAS: 306743-49-7
Molecular weight: 321
m/z	intensity
34	19
35	37
36	114
37	376
38	500
39	610
40	283
41	73
42	80
43	67
44	262
45	360
46	108
47	20
48	39
49	201
50	864
51	795
52	853
53	655
54	61
55	159
57	23
58	8
60	57
61	193
62	326
63	700
64	152
65	128
66	41
67	34
68	18
69	77
71	24
72	31
73	139
74	271
75	448
76	118
77	101
78	134
79	999
80	88
81	149
82	14
83	10
84	26
85	44
86	13
87	15
88	3
89	8
90	52
91	253
92	67
93	34
94	4
95	5
96	5
97	4
98	4
99	11
100	6
101	5
102	4
103	3
104	12
105	9
107	263
108	31
109	17
111	368
112	36
113	106
114	9
115	2
116	1
118	40
119	82
120	34
121	5
122	2
123	3
124	0
126	2
127	2
128	18
129	3
130	7
131	1
133	8
135	144
136	16
137	45
139	557
140	52
141	163
142	14
143	1
144	0
145	0
146	0
149	78
150	6
151	2
152	1
153	4
156	384
158	138
159	9
160	1
162	3
163	11
165	709
166	60
167	13
168	1
170	1
171	1
172	0
173	0
174	0
177	0
179	1
180	2
183	301
184	23
185	4
