Mass Spectrum: Benzenesulfonamide, N-(3,3,5-trimethylcyclohexyl)-
Formula: C15H23NO2S
CAS: 306743-91-9
Molecular weight: 281
m/z	intensity
33	6
34	1
35	0
36	1
37	14
39	346
41	706
42	170
43	261
44	31
45	8
46	1
48	5
50	144
51	455
53	117
54	38
55	242
56	168
57	93
58	10
59	1
60	1
61	3
62	7
63	18
64	12
65	42
66	17
67	81
68	75
69	67
70	56
71	7
73	6
74	27
75	33
77	999
78	83
79	30
80	14
81	48
82	68
83	82
84	32
85	1
86	0
87	1
88	0
89	2
90	5
91	19
92	27
93	16
94	12
95	20
96	16
97	27
98	7
99	1
100	0
101	0
102	2
103	1
104	1
105	2
106	2
107	4
108	7
109	39
110	36
111	3
112	0
113	0
114	0
115	0
116	0
117	2
118	12
119	14
120	1
121	0
122	1
123	8
124	59
125	19
126	3
127	1
128	0
129	1
130	1
131	0
132	0
133	0
134	0
135	0
136	0
138	0
139	1
141	151
142	9
143	8
144	0
146	1
149	0
155	0
156	0
157	0
158	3
159	0
160	0
162	0
169	0
170	2
171	0
183	1
184	6
185	1
186	0
196	0
204	0
207	1
210	60
211	6
212	3
213	0
214	0
220	0
221	0
222	1
224	47
225	5
226	2
229	0
230	0
266	1
267	0
268	0
278	0
281	1
282	0
284	0
