Mass Spectrum: Phenol, 4-(4-amino-3-furazanylazo)-
Formula: C8H7N5O2
CAS: 306746-98-5
Molecular weight: 205
m/z	intensity
44	828
45	118
49	41
50	22
51	194
52	401
53	550
54	366
55	218
59	114
61	130
62	114
63	293
64	135
65	980
66	137
69	25
77	90
78	85
79	41
80	303
84	45
93	999
94	142
107	42
112	7
122	499
123	53
134	181
148	27
205	422
206	153
