Mass Spectrum: Oxazol-5(4H)-one, 4-(3,4-dimethoxybenzylideno)-2-(2,2-dimethylethyl)-
Formula: C16H19NO4
CAS: 306743-32-8
Molecular weight: 289
m/z	intensity
36	3
37	11
39	229
41	561
42	114
43	52
44	14
45	6
50	30
51	43
52	16
53	33
54	10
55	55
57	999
58	36
59	4
62	16
63	72
64	28
65	25
66	4
67	4
69	33
70	20
71	2
75	30
76	54
77	23
78	25
79	16
80	2
81	1
85	74
86	5
88	11
89	20
90	47
91	23
92	6
93	2
102	17
103	36
104	22
105	18
106	15
114	9
115	22
116	17
117	7
118	4
119	12
120	2
121	2
122	0
130	35
131	38
132	32
133	17
134	12
135	2
136	0
160	14
162	77
164	5
166	0
174	3
175	12
176	96
177	229
178	29
179	2
187	0
188	0
189	0
218	1
219	0
274	0
288	6
289	40
290	5
291	0
