Mass Spectrum: Methyl 3-ethoxycarbonyl-2-octylcyclopropeneoctanoate
Formula: C23H40O4
CAS: 30689-71-5
Molecular weight: 380
m/z	intensity
27	290
29	900
39	180
41	970
42	430
43	900
45	40
53	140
55	999
56	110
57	280
58	40
59	280
65	120
67	610
68	110
69	340
71	150
74	90
77	220
78	90
79	460
80	120
81	430
82	90
83	170
91	240
92	60
93	330
94	100
95	260
96	50
97	120
98	60
105	120
107	210
108	100
109	130
110	60
111	150
112	40
119	90
121	160
123	100
126	60
131	30
133	70
135	70
137	50
139	70
147	50
149	50
151	70
161	50
165	40
199	30
207	40
209	100
213	30
221	90
223	50
227	40
235	30
237	70
249	10
251	30
267	20
281	10
282	10
291	10
295	10
307	450
308	120
318	20
319	10
320	30
321	10
348	10
380	10
