Mass Spectrum: 4-(1,4-Benzoquinonyl)benzoic acid
Formula: C13H8O4
CAS: 30681-28-8
Molecular weight: 228
m/z	intensity
37	29
38	50
39	79
40	48
43	27
44	83
45	112
50	268
51	259
52	41
53	186
54	882
55	45
59	33
61	44
62	80
63	146
65	71
74	244
75	290
76	70
77	155
82	999
83	39
86	25
89	35
98	49
99	27
101	377
102	66
105	28
115	29
126	69
127	206
128	282
129	254
130	27
146	94
155	254
156	462
157	69
182	37
183	188
184	277
185	56
228	413
229	55
230	9
