Mass Spectrum: Benzenamine, N-[3-(trimethoxysilyl)propyl]-
Formula: C12H21NO3Si
CAS: 3068-76-6
Molecular weight: 255
m/z	intensity
29	2
30	3
39	9
41	4
45	7
47	4
50	4
51	22
52	5
59	46
60	13
61	38
62	3
63	5
65	12
66	4
74	6
75	4
76	7
77	109
78	21
79	35
80	2
87	3
90	27
91	124
92	14
93	15
104	28
105	18
106	999
107	94
108	5
117	9
118	10
119	5
120	15
121	98
122	10
123	5
130	5
132	7
150	3
152	3
160	2
167	4
182	2
190	7
192	21
193	2
194	2
222	16
223	16
224	8
255	82
256	14
257	4
