Mass Spectrum: Aziridine, 1-hexyl-
Formula: C8H17N
CAS: 30691-59-9
Molecular weight: 127
m/z	intensity
27	100
28	90
29	110
30	50
39	80
40	20
41	250
42	350
43	450
44	220
55	140
56	999
57	170
69	40
70	200
71	300
84	390
85	70
98	250
100	40
112	120
113	10
126	180
127	150
128	10
