Mass Spectrum: Sucrose, 6-O-trityl-2,3,4,1',3',4',6'-hepta-O-acetyl-
Formula: C45H50O18
CAS: 30694-60-1
Molecular weight: 878
m/z	intensity
27	5
28	14
29	9
30	1
31	4
36	0
37	1
38	1
39	9
40	2
41	8
42	12
43	999
44	22
45	11
46	0
47	0
50	1
51	6
52	1
53	4
54	1
55	5
56	1
57	3
58	0
59	0
60	7
61	7
62	0
63	2
64	0
65	2
66	0
67	0
68	6
69	24
70	5
71	6
72	1
73	35
74	2
75	1
76	1
77	22
78	3
79	0
80	1
81	19
82	5
83	5
84	1
85	20
86	8
87	2
88	0
89	1
90	0
91	8
92	0
93	1
94	1
95	2
96	5
97	55
98	10
99	12
100	1
101	41
102	6
103	19
104	2
105	89
106	7
107	1
108	0
109	140
110	23
111	15
112	3
113	11
114	4
115	26
116	5
117	0
118	0
119	1
120	0
121	0
122	0
123	1
124	0
125	7
126	9
127	34
128	8
129	4
130	0
131	2
132	1
133	0
134	1
135	4
136	2
137	2
138	3
139	29
140	3
141	6
142	1
143	3
144	3
145	6
146	1
147	1
148	0
149	0
150	1
151	3
152	6
153	18
154	10
155	5
156	2
157	6
158	0
159	0
160	0
161	1
162	0
163	3
164	3
165	166
166	30
167	13
168	3
169	147
170	12
171	3
172	1
173	2
174	0
175	0
176	1
177	0
178	1
179	1
180	0
181	4
182	3
183	24
184	4
185	4
186	4
187	4
188	1
189	2
190	0
191	0
192	0
194	0
195	1
196	0
197	1
198	0
199	0
200	1
201	1
202	5
203	3
204	0
205	0
206	1
207	1
208	1
209	1
210	1
211	276
212	35
213	14
214	2
215	11
216	3
217	1
218	0
219	0
221	0
222	0
223	0
225	1
226	3
227	6
228	16
229	12
230	2
231	1
232	1
233	2
234	0
235	0
237	1
238	1
239	7
240	5
241	21
242	17
243	791
244	174
245	26
246	1
247	0
249	0
253	0
254	0
255	0
256	0
257	2
258	12
259	15
260	3
261	0
262	0
263	0
269	0
270	1
271	2
272	1
273	1
274	0
275	3
277	0
281	0
282	0
283	0
284	0
286	0
287	3
288	1
289	22
290	3
291	1
293	0
294	0
299	0
301	2
302	0
310	0
313	0
314	0
317	0
318	0
320	0
323	0
325	0
327	0
328	0
329	1
331	214
332	28
333	5
334	0
338	0
343	0
346	0
347	0
348	0
350	0
351	3
352	0
354	0
355	0
363	0
368	0
377	0
378	0
388	0
389	0
393	1
394	0
395	1
396	0
410	0
411	1
412	0
419	0
420	0
422	0
427	0
428	0
429	0
467	0
469	0
470	1
471	30
472	10
473	2
474	0
476	0
477	0
478	0
479	0
480	0
487	0
500	0
506	0
528	0
530	7
531	3
532	0
542	0
545	0
546	1
547	31
548	10
549	1
550	0
571	0
578	0
589	0
597	0
603	0
617	0
619	3
620	1
621	0
683	0
