Mass Spectrum: Hexanoic acid, 4-chlorobenzyl ester
Formula: C13H17ClO2
CAS: 30692-70-7
Molecular weight: 240
m/z	intensity
25	2
26	39
27	291
28	54
29	286
30	6
31	11
36	8
37	10
38	22
39	196
40	39
41	271
42	115
43	637
44	53
45	17
49	6
50	55
51	89
52	13
53	19
55	159
56	26
57	25
58	4
59	2
60	10
61	10
62	31
63	88
64	33
65	25
66	2
67	2
68	10
69	211
70	22
71	268
72	19
73	116
74	29
75	55
76	11
77	117
78	18
79	15
82	8
83	6
85	12
87	6
88	6
89	249
90	79
91	39
92	5
97	169
98	15
99	481
100	37
101	11
105	5
107	52
108	5
111	37
112	5
113	24
114	7
115	165
116	15
121	2
123	2
124	125
125	999
126	245
127	321
128	69
129	6
138	2
139	25
140	6
141	45
142	118
143	23
144	44
145	2
240	39
241	3
242	13
243	1
