Mass Spectrum: Perfluorooctane
Formula: C8F18
CAS: 307-34-6
Molecular weight: 438
m/z	intensity
50	52
69	999
70	11
81	11
93	79
94	2
100	238
101	5
112	12
119	437
120	15
131	426
132	15
150	10
169	258
170	9
181	70
182	3
219	87
220	4
231	19
232	1
269	26
270	2
281	4
319	2
331	8
