Mass Spectrum: Benzenepropanoic acid, .alpha.-methylene-, methyl ester
Formula: C11H12O2
CAS: 3070-71-1
Molecular weight: 176
m/z	intensity
13	3
14	12
15	259
16	3
18	2
25	1
26	22
27	46
28	9
29	34
30	8
31	13
33	1
37	6
38	26
39	202
40	23
41	25
42	3
43	4
44	2
45	10
49	2
50	56
51	187
52	40
53	25
54	8
55	19
56	2
57	12
58	32
59	56
60	2
61	15
62	51
63	136
64	30
65	148
66	11
67	1
68	1
69	1
71	1
72	1
73	6
74	31
75	30
76	22
77	72
78	54
79	23
80	1
83	1
85	5
86	12
87	18
88	11
89	80
90	21
91	350
92	29
93	2
94	1
95	1
98	2
99	56
101	3
102	36
103	17
104	7
105	31
106	3
107	9
108	2
109	1
110	1
111	1
113	16
114	42
115	670
116	999
117	517
118	51
119	6
120	1
121	43
122	4
127	2
128	2
129	6
130	2
131	18
132	3
133	32
134	4
142	1
143	25
144	145
145	169
146	18
147	4
148	3
158	1
159	1
160	2
161	34
162	4
175	60
176	372
177	45
178	4
