Mass Spectrum: N-Benzoyl-2,2-difluoro-3,3-bis(trifluoromethyl)aziridine
Formula: C11H5F8NO
CAS: 30718-58-2
Molecular weight: 319
m/z	intensity
28	122
44	46
69	53
76	50
77	722
78	49
91	26
105	999
106	79
107	5
119	26
319	98
320	12
321	1
