Mass Spectrum: N,N'-(4-Methyl-m-phenylene)dibenzamide
Formula: C21H18N2O2
CAS: 30716-47-3
Molecular weight: 330
m/z	intensity
27	2
28	4
39	2
41	2
43	3
50	4
51	32
52	3
53	1
55	2
56	1
57	4
63	1
65	3
66	2
67	1
69	2
70	1
71	3
74	1
75	2
76	8
77	363
78	26
79	1
81	1
82	1
83	2
85	2
91	1
92	1
93	2
95	1
97	2
99	1
103	2
104	4
105	999
106	79
107	5
109	1
111	2
121	1
122	19
123	2
124	1
125	1
135	1
147	1
149	2
152	1
153	1
167	1
180	1
181	2
195	1
197	2
207	1
208	4
209	8
210	4
211	1
223	2
224	3
225	257
226	44
227	12
228	2
251	1
253	1
301	3
302	5
303	1
311	1
313	2
314	1
315	2
329	8
330	412
331	98
332	12
333	1
