Mass Spectrum: Ethyl 1-methylpipecolinate
Formula: C9H17NO2
CAS: 30727-18-5
Molecular weight: 171
m/z	intensity
14	2
15	38
16	1
18	4
26	10
27	67
28	45
29	76
30	20
31	6
32	1
38	1
39	27
40	5
41	51
42	216
43	21
44	34
45	4
51	2
52	2
53	9
54	17
55	40
56	16
57	9
58	3
59	1
65	1
66	1
67	10
68	30
69	11
70	246
71	11
73	1
79	1
80	4
81	5
82	14
83	5
84	3
86	1
88	1
94	7
96	33
98	999
99	66
100	2
112	1
114	2
142	3
171	21
172	2
