Mass Spectrum: 2-Carbethoxy-N-methylpyrrolidine
Formula: C8H15NO2
CAS: 30727-23-2
Molecular weight: 157
m/z	intensity
28	42
29	3
41	11
42	116
43	11
70	376
71	11
72	19
82	32
83	11
84	999
85	63
86	11
157	23
158	11
