Mass Spectrum: Pyridine, 2-amino-3,5-dinitro-
Formula: C5H4N4O4
CAS: 3073-30-1
Molecular weight: 184
m/z	intensity
29	19
30	999
31	5
32	4
37	218
38	249
39	68
40	233
41	79
42	34
43	47
44	115
45	4
46	36
49	3
50	274
51	49
52	391
53	247
54	25
55	6
56	1
57	3
60	0
62	1
63	86
64	221
65	258
66	127
67	23
68	15
69	21
70	3
71	1
75	3
76	4
77	29
78	2
79	15
80	93
81	15
83	27
84	0
89	0
90	11
91	35
92	87
93	16
94	5
95	2
96	0
97	0
106	0
108	21
109	0
120	1
121	0
122	0
123	1
124	0
126	39
127	0
129	0
138	41
139	1
153	0
154	333
155	22
167	10
168	21
169	0
184	669
185	41
186	4
187	0
