Mass Spectrum: Pentan-2-one, 4-(4-acetylaminophenylsulfonyl)-4-methyl-
Formula: C14H19NO4S
CAS: 307332-23-6
Molecular weight: 297
m/z	intensity
33	0
34	0
36	0
37	3
38	13
39	101
41	115
43	999
44	16
45	5
46	0
47	0
48	1
49	1
50	10
51	13
52	10
53	20
54	5
55	24
56	25
57	9
58	2
59	0
61	1
62	6
63	25
64	19
65	62
66	10
67	2
69	3
70	1
71	1
73	0
74	2
75	2
76	6
77	4
78	3
79	3
80	6
81	1
83	4
84	3
85	0
86	0
87	0
88	0
89	1
90	5
91	11
92	28
93	20
94	1
95	0
96	0
97	1
98	1
99	16
100	0
101	0
102	0
103	0
104	3
106	3
107	0
108	12
109	1
110	0
111	0
112	1
113	0
115	0
117	0
118	0
119	1
120	1
121	0
123	1
124	2
125	0
126	0
127	0
130	0
131	1
133	2
134	16
135	62
136	6
137	0
138	0
139	1
140	11
141	2
142	0
149	0
150	1
151	0
152	0
154	0
155	0
156	1
157	11
158	0
159	0
166	0
167	0
171	0
172	0
175	1
176	0
177	2
178	0
179	0
182	1
188	0
190	5
191	1
194	0
196	0
198	2
199	7
200	0
201	0
233	0
241	0
297	0
298	0
