Mass Spectrum: Phenacyl 4-(3,4-dicyanophenoxy)benzoate
Formula: C23H14N2O4
CAS: 307330-33-2
Molecular weight: 382
m/z	intensity
33	2
38	18
39	21
40	5
41	3
42	2
43	3
44	6
45	1
50	81
51	57
52	4
53	2
55	1
63	44
64	31
65	14
66	2
74	14
75	22
77	240
78	10
82	2
86	1
87	2
88	2
89	3
91	22
92	16
93	2
94	1
99	2
100	5
101	2
105	999
106	48
107	3
110	1
112	1
113	1
114	1
115	2
118	5
119	6
120	1
121	1
123	1
124	1
126	1
127	2
137	2
138	2
139	2
140	5
141	2
152	1
162	2
164	42
165	22
166	3
186	1
189	4
191	28
192	5
193	1
218	6
219	3
220	1
247	98
248	11
249	1
264	2
266	1
382	5
383	1
