Mass Spectrum: Imidazolidine, 2-(5-nitro-2-thienyl)-1,3-diphenyl-
Formula: C19H17N3O2S
CAS: 307338-84-7
Molecular weight: 351
m/z	intensity
33	2
34	1
38	40
39	90
40	30
41	30
42	27
43	9
44	31
45	95
46	7
47	4
50	47
51	251
52	42
53	12
54	5
55	6
57	9
58	14
62	7
63	39
64	32
65	89
66	19
67	4
68	6
69	61
70	29
71	14
72	3
74	7
75	21
77	992
78	93
79	24
80	9
81	19
82	31
83	12
84	7
85	5
86	1
87	1
89	33
91	791
92	108
93	33
95	407
96	59
97	38
98	10
99	6
100	1
101	8
102	19
104	999
105	177
106	80
107	10
108	2
109	10
110	5
111	4
112	10
113	29
114	10
115	50
116	17
117	53
118	116
119	91
120	69
121	9
122	6
123	11
124	3
125	3
126	23
127	17
128	28
129	12
130	14
131	1
132	1
134	3
136	3
138	1
139	7
140	11
141	15
142	31
143	173
144	19
145	12
146	7
147	3
151	1
152	28
154	38
155	9
156	34
157	5
158	6
159	13
160	6
166	20
167	61
168	37
169	14
170	1
171	21
172	10
173	5
174	3
176	25
177	1
180	4
182	28
183	14
184	4
185	24
186	18
187	6
188	3
189	0
194	2
195	6
196	15
197	4
198	22
199	65
200	63
201	25
202	7
203	1
208	1
211	1
212	3
213	3
215	5
216	3
217	1
218	10
219	2
220	1
221	6
223	353
224	56
225	5
227	5
229	70
230	16
231	104
232	31
233	9
243	5
244	10
245	72
246	315
247	70
248	22
249	1
259	0
260	3
271	2
272	0
274	67
275	10
276	3
303	4
304	2
305	24
306	5
322	4
323	2
347	0
348	2
350	55
351	164
352	36
353	9
