Mass Spectrum: Acetamide, N,N'-1,4-butanediylbis-
Formula: C8H16N2O2
CAS: 3073-57-2
Molecular weight: 172
m/z	intensity
25	9
26	45
27	166
29	999
31	79
38	5
39	40
40	10
41	84
42	81
43	693
44	191
45	109
46	7
51	3
52	4
53	9
54	25
55	33
56	51
57	26
58	177
59	25
60	79
61	3
66	1
67	2
68	18
69	10
70	488
71	27
72	413
73	417
74	17
75	1
82	3
84	12
85	24
86	173
87	268
88	20
89	1
95	5
96	1
98	18
99	4
100	228
101	136
102	11
111	6
112	266
113	64
114	14
115	22
129	268
130	25
131	3
154	2
157	9
172	78
