Mass Spectrum: Nicotinamide, N-mesityl-
Formula: C15H16N2O
CAS: 307330-87-6
Molecular weight: 240
m/z	intensity
37	5
38	17
39	123
40	25
41	59
42	23
43	8
44	5
45	0
49	12
50	198
51	522
52	115
53	91
54	18
55	6
56	2
57	2
59	0
61	1
62	9
63	41
64	21
65	113
66	33
67	19
68	6
69	1
71	0
73	0
74	4
75	19
76	37
77	152
78	891
79	151
80	18
81	4
83	0
86	1
87	2
88	1
89	27
90	17
91	350
92	61
93	31
94	14
95	3
96	0
97	0
98	1
100	0
101	2
102	16
103	40
104	36
105	85
106	999
107	109
108	9
109	0
111	0
115	75
116	38
117	82
118	108
119	100
120	15
121	19
122	2
123	0
127	1
128	2
129	1
130	23
131	10
132	83
133	47
134	897
135	116
136	138
137	15
138	0
139	0
140	0
141	1
142	1
143	1
144	2
145	1
146	13
147	4
149	1
152	2
153	0
154	1
155	1
156	1
158	0
160	9
161	3
162	5
163	0
166	2
167	4
168	3
169	1
171	0
178	1
179	1
180	4
181	5
182	2
184	2
185	0
192	1
193	0
194	2
195	6
196	10
197	4
199	1
204	0
205	1
207	3
208	4
209	7
210	2
211	4
212	6
221	2
222	1
223	20
224	5
225	53
226	8
227	0
238	1
239	9
240	656
241	106
242	9
