Mass Spectrum: 5,7-Diaminofurazano[3,4-d]pyrimidine
Formula: C4H4N6O
CAS: 30745-07-4
Molecular weight: 152
m/z	intensity
41	55
42	208
43	999
45	15
52	17
53	535
54	49
68	85
69	45
70	60
80	29
81	1
95	37
96	3
122	566
123	36
152	313
153	83
