Mass Spectrum: Benzenesulfonamide, N-(3,5,6-trichloro-2,5-dimethyl-4-oxo-2-cyclohexenyl)-4-methyl-
Formula: C15H14Cl3NO3S
CAS: 307553-93-1
Molecular weight: 393
m/z	intensity
34	0
35	4
36	15
38	24
39	124
40	14
41	21
42	3
43	6
45	5
46	0
47	4
49	39
50	15
51	47
52	14
53	10
54	1
55	1
56	0
57	1
58	0
60	0
61	3
62	15
63	64
64	40
65	266
66	52
67	37
68	3
69	2
70	1
71	3
73	27
74	19
75	33
76	16
77	64
78	22
79	13
80	2
81	0
83	5
84	1
85	5
86	4
87	6
88	4
89	96
90	43
91	999
92	80
94	15
95	2
96	0
97	3
98	1
99	5
100	37
101	6
102	28
103	24
104	24
105	15
106	7
107	9
108	3
109	5
110	6
111	10
112	8
113	13
114	3
115	5
116	2
117	1
118	0
119	0
121	5
122	1
123	3
124	2
125	5
126	2
127	3
128	36
129	4
130	10
131	1
132	5
133	9
134	4
135	3
136	3
137	4
138	7
139	26
140	26
141	10
142	8
143	3
144	1
145	0
147	3
149	2
150	2
151	1
152	2
153	3
155	756
156	66
157	37
158	3
159	1
160	1
161	1
162	1
163	0
164	0
165	1
166	2
167	6
168	33
169	7
170	49
171	7
172	12
173	1
174	2
175	7
176	2
177	4
178	1
179	1
180	3
181	2
182	0
183	0
184	1
185	0
186	0
187	1
188	6
189	0
190	4
191	0
192	1
193	2
194	3
195	3
196	1
197	0
198	0
199	0
201	0
202	2
203	4
204	33
205	4
206	21
207	2
208	3
209	0
210	0
212	0
214	0
215	0
216	0
221	1
222	0
223	2
224	8
225	2
226	0
228	0
229	0
231	0
232	0
238	1
240	0
242	0
243	0
244	4
245	0
246	1
247	0
257	0
258	4
259	3
260	2
261	1
270	0
288	0
292	0
293	0
294	2
295	0
296	1
298	0
314	0
316	0
322	18
323	6
324	8
325	8
326	2
327	1
328	1
329	0
330	0
332	0
357	1
358	48
359	11
360	31
361	7
362	6
363	2
364	0
393	15
394	2
395	14
396	3
397	5
398	0
399	0
