Mass Spectrum: Benzamide, N-(1,4-dihydro-2,3-dichloro-4-oxo-1-naphthylidene)-
Formula: C17H9Cl2NO2
CAS: 307553-57-7
Molecular weight: 329
m/z	intensity
34	0
35	1
36	8
37	2
38	6
39	12
40	12
41	3
42	1
43	5
44	9
45	1
47	0
48	0
49	1
50	51
51	140
52	8
53	3
54	0
55	2
56	1
57	3
58	0
59	0
60	1
61	2
62	4
63	7
64	1
65	2
66	0
67	0
68	0
69	1
70	1
71	1
73	5
74	17
75	26
76	41
77	436
78	27
79	1
80	0
81	1
82	0
83	1
84	2
85	3
86	4
87	10
88	2
89	3
90	0
91	2
92	0
94	2
95	0
96	1
97	3
98	3
99	11
100	6
101	3
102	22
103	5
105	999
106	68
107	4
108	2
109	2
110	2
111	4
112	1
113	1
114	0
115	0
119	1
120	2
121	1
122	1
123	1
124	3
125	2
126	7
127	2
128	1
130	21
131	1
132	0
133	2
134	2
135	4
136	1
137	1
138	1
139	1
141	0
145	0
147	3
148	4
149	2
150	1
151	1
152	1
154	1
155	0
160	2
161	22
162	3
163	10
164	2
165	3
166	0
167	0
168	0
169	0
170	0
171	1
172	0
173	0
174	0
175	0
176	1
177	0
182	0
188	0
189	0
190	1
191	1
192	0
193	0
196	1
197	0
198	1
199	0
200	0
201	1
202	1
203	1
204	0
210	0
211	0
224	3
225	0
226	3
227	0
228	1
230	0
237	0
252	1
253	0
254	0
266	0
267	0
283	0
294	12
295	4
296	16
297	3
298	4
299	0
329	18
330	3
331	14
332	2
333	3
334	0
