Mass Spectrum: Butanethioic acid, 3-oxo-, S-ethyl ester
Formula: C6H10O2S
CAS: 3075-23-8
Molecular weight: 146
m/z	intensity
27	100
28	160
29	100
42	21
43	999
44	45
45	26
46	21
47	43
61	26
62	50
69	43
84	41
85	934
86	54
87	17
118	82
119	15
146	497
147	43
148	28
