Mass Spectrum: Acethydrazide, 2-(2-thienyl)-N2-(4-nitrobenzylideno)-
Formula: C13H11N3O3S
CAS: 307509-66-6
Molecular weight: 289
m/z	intensity
33	0
37	3
38	16
39	46
41	10
42	4
43	6
45	93
46	12
50	46
51	30
52	22
53	71
54	3
55	1
57	10
58	12
59	2
61	4
62	28
63	78
64	22
65	11
66	3
67	2
69	31
70	19
71	11
72	1
73	2
74	11
75	22
76	54
77	10
78	4
79	3
80	1
81	2
82	5
83	2
84	3
85	8
86	6
87	8
89	50
90	21
91	32
92	9
93	5
95	29
97	999
98	103
99	40
100	5
101	3
102	9
103	20
104	8
105	4
106	2
107	1
108	0
110	7
111	16
112	29
113	5
114	2
115	2
117	19
118	56
119	10
120	3
121	4
124	108
125	17
126	5
127	1
128	1
129	1
130	2
131	0
132	2
133	2
134	4
135	6
136	0
137	1
138	4
140	141
141	38
142	8
144	1
145	0
146	2
147	3
148	17
149	8
150	3
151	8
152	2
153	0
154	0
157	0
161	1
164	54
166	19
167	1
168	0
169	0
171	1
172	0
175	0
176	7
177	1
178	1
179	0
181	0
182	0
183	0
184	1
186	1
190	0
192	15
193	2
194	0
196	0
197	0
198	0
199	1
200	0
201	0
205	1
206	0
207	0
209	0
210	0
211	0
212	0
222	0
225	0
226	0
231	0
234	1
235	2
237	0
241	0
242	0
243	0
244	1
245	0
246	1
247	0
248	0
251	0
252	0
253	0
256	0
258	0
259	4
260	0
261	0
263	6
264	1
266	0
267	0
268	0
271	0
272	0
273	2
275	0
276	0
277	1
278	0
280	0
281	0
283	0
284	0
285	1
286	5
287	9
289	363
290	55
291	22
292	3
293	0
