Mass Spectrum: Benzene, 1,3-bis(tetrahydropyran-2-yloxy)-
Formula: C16H22O4
CAS: 30778-88-2
Molecular weight: 278
m/z	intensity
26	2
27	35
28	1
29	163
30	3
31	9
37	0
38	3
39	28
41	150
42	7
43	165
44	4
45	1
50	2
51	3
52	3
53	9
54	6
55	67
56	12
57	144
58	6
59	0
62	0
63	9
64	18
65	11
66	1
67	132
68	7
69	7
70	0
71	1
74	0
75	0
76	1
77	5
78	1
79	2
80	0
81	8
82	4
83	15
84	288
85	999
86	52
87	3
89	0
90	0
91	1
92	8
93	4
94	0
95	1
97	0
101	0
103	1
105	0
106	0
107	3
108	0
109	0
110	616
111	51
112	2
113	0
117	0
119	0
120	0
121	1
122	0
123	2
124	0
125	0
131	0
133	0
135	1
136	7
137	1
139	0
147	1
148	0
149	5
150	1
151	1
155	0
163	1
164	2
165	0
166	0
169	0
170	0
175	0
176	0
177	0
181	0
183	0
192	0
193	2
194	154
195	20
196	2
206	0
250	0
254	0
277	0
278	19
279	3
280	0
