Mass Spectrum: Octanamide, N,N-bis(2-hydroxyethyl)-
Formula: C12H25NO3
CAS: 3077-30-3
Molecular weight: 231
m/z	intensity
27	7
28	10
29	17
30	6
31	3
39	18
40	4
41	55
42	37
43	60
44	23
45	24
53	9
54	7
55	71
56	61
57	175
58	19
59	4
60	18
62	26
64	14
65	12
67	14
68	8
69	25
70	42
71	14
72	17
73	18
74	999
75	33
79	8
81	7
82	5
83	11
84	6
85	12
86	18
87	26
91	6
97	6
98	17
99	43
100	2
103	19
104	124
105	9
106	26
109	12
110	5
111	5
112	45
113	13
114	175
124	5
126	28
127	40
129	32
131	6
132	5
140	9
147	57
148	3
168	4
174	4
182	4
183	3
184	2
188	80
189	10
198	2
200	78
201	11
202	2
212	4
213	9
214	2
215	1
231	3
