Mass Spectrum: Benzoin N-methylcarbamate
Formula: C16H15NO3
CAS: 307950-20-5
Molecular weight: 269
m/z	intensity
41	6
42	24
43	3
44	3
45	2
50	59
51	250
52	49
53	14
54	1
55	3
56	12
57	7
58	56
59	2
61	1
62	12
63	43
64	13
65	17
66	5
67	0
70	43
71	1
73	0
74	7
75	10
76	35
77	552
78	86
79	135
80	7
81	0
82	9
83	3
84	0
86	1
87	3
88	3
89	70
90	41
91	60
92	4
93	0
94	1
95	2
97	3
98	0
101	1
102	4
103	9
105	999
106	96
107	121
108	8
109	0
113	1
114	1
115	8
116	11
117	7
118	105
119	9
120	3
121	1
126	2
127	1
128	2
130	1
131	1
132	0
133	4
134	553
135	236
136	93
137	6
139	4
140	0
141	1
146	1
148	5
149	0
150	1
151	3
152	17
153	3
154	0
155	0
161	0
162	53
163	249
164	25
165	24
166	7
167	21
168	3
176	1
177	1
178	3
179	1
180	0
181	1
192	1
193	2
194	6
195	9
196	3
206	1
207	0
208	2
212	4
213	1
224	1
225	0
251	4
252	15
253	2
267	0
268	1
269	74
270	12
271	1
