Mass Spectrum: Thiazolidine-2,4-dione, 5-(2-methylphenylamino)-
Formula: C10H10N2O2S
CAS: 307975-42-4
Molecular weight: 222
m/z	intensity
33	6
34	5
35	1
36	2
37	8
38	23
39	142
40	62
41	55
42	14
43	48
44	62
45	98
46	9
47	9
48	2
49	4
50	39
51	85
52	40
53	27
54	11
55	26
56	10
57	25
58	14
59	21
60	50
61	12
62	28
63	80
64	40
65	241
66	22
67	14
68	8
69	20
70	17
71	17
72	4
73	14
75	83
76	19
77	121
78	49
79	82
80	17
81	11
82	9
83	26
84	11
85	17
86	6
87	9
89	102
90	63
91	448
92	44
93	6
94	3
95	8
96	6
97	10
98	7
99	4
100	1
101	3
102	4
103	3
104	26
106	605
107	96
108	13
109	17
110	5
111	6
112	4
113	2
114	1
115	4
116	29
117	131
118	999
119	128
120	16
121	10
122	3
123	12
124	15
125	4
126	3
127	2
128	1
129	11
130	2
131	2
132	4
133	25
134	19
136	342
137	29
138	17
139	3
140	1
141	1
142	1
143	4
144	4
145	5
146	8
147	145
148	20
149	20
150	76
151	110
152	15
153	6
154	2
155	1
157	1
158	0
159	1
161	29
162	13
163	2
164	1
165	2
167	1
169	1
171	2
172	0
173	0
175	0
177	0
178	0
179	4
180	1
181	1
182	0
183	0
184	0
185	1
186	1
187	1
189	11
190	7
191	1
192	0
193	1
194	3
195	0
197	0
198	1
199	0
201	0
203	0
204	0
205	1
206	1
207	1
208	0
209	0
210	0
211	1
212	0
213	2
219	0
220	9
222	839
223	102
224	44
225	6
