Mass Spectrum: Sulfoxide, hexadecyl methyl
Formula: C17H36OS
CAS: 3079-32-1
Molecular weight: 288
m/z	intensity
15	19
26	7
27	92
29	264
30	11
35	11
39	72
40	16
41	614
42	128
43	999
44	52
45	81
46	45
47	87
48	100
49	51
50	7
53	36
54	69
55	705
56	325
57	988
58	54
59	9
60	10
61	247
62	36
63	57
64	223
65	26
66	21
67	99
68	103
69	513
70	279
71	484
72	30
73	7
74	11
75	90
76	20
77	13
78	59
79	17
80	8
81	54
82	112
83	444
84	171
85	264
86	19
87	30
89	48
91	11
95	28
96	51
97	312
98	97
99	43
101	6
103	61
104	5
105	6
109	10
110	25
111	137
112	56
113	37
117	18
119	12
123	4
124	13
125	16
126	34
127	11
129	3
131	8
138	7
139	20
140	21
141	7
143	3
145	6
152	4
153	10
154	14
155	3
159	7
167	5
168	9
173	7
175	2
181	3
182	5
187	7
189	3
196	11
201	5
203	2
215	7
217	2
224	13
225	2
229	11
231	2
243	62
244	14
245	7
255	11
257	154
258	30
259	12
271	491
272	161
273	49
274	11
287	2
288	6
