Mass Spectrum: Tetradecane, 1-(methylsulfinyl)-
Formula: C15H32OS
CAS: 3079-31-0
Molecular weight: 260
m/z	intensity
15	12
26	7
27	91
29	239
30	10
35	10
39	70
40	16
41	563
42	116
43	999
44	43
45	40
46	20
47	55
48	71
49	35
50	6
53	33
54	51
55	574
56	221
57	990
58	48
59	8
60	8
61	225
62	27
63	58
64	280
65	31
66	21
67	71
68	80
69	398
70	182
71	470
72	28
73	7
74	9
75	45
76	13
77	9
78	84
79	14
80	8
81	36
82	65
83	287
84	108
85	248
86	18
87	27
89	16
91	10
95	18
96	31
97	185
98	57
99	30
101	5
103	46
105	6
109	7
110	11
111	73
112	32
113	13
117	16
119	15
124	7
125	30
126	19
127	7
129	2
131	8
139	9
140	10
141	4
145	5
152	3
153	4
154	5
159	7
161	2
168	10
173	7
175	3
185	1
187	6
189	3
194	1
196	9
197	2
201	4
203	2
215	7
217	2
227	10
228	2
229	133
230	23
231	10
243	688
244	176
245	58
246	11
259	3
260	101
