Mass Spectrum: Sulfoxide, decyl methyl
Formula: C11H24OS
CAS: 3079-28-5
Molecular weight: 204
m/z	intensity
15	17
26	7
27	128
29	263
30	9
35	12
39	85
40	16
41	498
42	102
43	999
44	43
45	35
46	18
47	48
48	53
49	24
50	5
51	5
53	28
54	5
55	342
56	137
57	621
58	31
59	7
60	6
61	153
62	17
63	17
64	233
65	24
66	14
67	29
68	27
69	154
70	100
71	181
72	11
73	4
74	5
75	23
76	8
77	6
78	59
79	7
80	5
81	13
82	17
83	109
84	42
85	127
86	9
87	13
89	7
91	6
95	5
96	6
97	51
98	20
99	8
103	19
105	3
110	3
111	14
112	13
117	6
119	9
129	1
131	3
133	1
140	7
141	2
145	1
147	1
159	2
161	1
171	2
173	40
174	6
175	3
187	340
188	81
189	7
203	1
205	5
