Mass Spectrum: l-Alanyl-l-alanyl-l-alanine methyl ester
Formula: C10H19N3O4
CAS: 30802-27-8
Molecular weight: 245
m/z	intensity
14	2
15	30
16	1
26	9
27	27
28	53
29	9
30	5
31	11
32	8
33	2
36	1
38	2
39	5
40	5
41	13
42	54
43	26
44	999
45	30
51	2
52	3
53	3
54	7
55	16
56	23
57	6
58	8
59	8
60	3
67	1
68	3
69	4
70	23
71	19
72	7
73	2
79	1
80	1
81	2
82	2
83	3
84	4
85	1
86	1
87	20
88	2
89	1
91	1
95	2
96	1
97	3
98	4
99	36
100	7
101	1
102	9
103	2
104	23
105	1
107	1
109	1
111	1
112	1
113	7
114	2
115	36
116	5
125	2
126	1
127	11
128	1
130	1
131	1
141	12
142	2
143	32
144	4
145	1
152	1
159	88
160	7
161	1
169	3
170	1
174	5
185	2
196	1
201	2
202	19
203	3
214	1
245	1
