Mass Spectrum: Trans-3-methylpent-3-ene-5-ol
Formula: C6H12O
CAS: 30801-95-7
Molecular weight: 100
m/z	intensity
31	35
39	440
40	35
41	680
42	40
43	350
44	25
53	100
54	30
55	280
56	125
57	133
67	350
68	30
69	150
70	20
71	999
72	40
82	125
83	20
100	130
101	9
