Mass Spectrum: Cis-3-methylpent-3-ene-5-ol
Formula: C6H12O
CAS: 30804-75-2
Molecular weight: 100
m/z	intensity
31	30
39	175
40	25
41	575
42	40
43	330
44	15
53	155
54	10
55	165
56	100
57	140
58	15
67	240
68	35
69	90
70	10
71	999
72	45
82	160
83	25
100	99
101	6
