Mass Spectrum: Pregnane-3,6,20-trione
Formula: C21H30O3
CAS: 30802-24-5
Molecular weight: 330
m/z	intensity
41	303
42	27
43	999
45	14
50	12
51	23
52	19
53	120
54	26
55	372
56	14
57	35
58	5
63	8
65	44
66	19
67	233
68	97
69	109
70	9
71	251
76	12
77	143
78	35
79	250
80	46
81	201
82	46
83	66
84	416
85	162
91	181
92	51
93	236
94	64
95	173
96	21
97	33
99	25
103	14
104	9
105	108
106	30
107	162
108	68
109	104
110	6
111	68
115	13
117	32
118	15
119	102
120	45
121	107
122	98
123	79
124	23
125	11
126	5
128	8
129	19
132	18
133	26
134	70
136	45
137	112
138	47
139	77
140	6
143	33
145	62
146	12
147	72
148	10
149	135
150	17
151	5
152	14
153	6
157	11
158	10
159	86
160	9
161	63
162	29
163	31
168	5
170	7
171	15
173	35
174	29
175	81
176	11
177	72
178	30
179	7
182	13
185	13
187	44
189	37
191	34
197	10
199	32
201	14
203	12
211	10
214	8
216	26
217	18
224	8
225	11
227	19
228	13
229	26
231	73
233	7
234	23
241	13
242	4
244	12
245	260
246	48
247	37
248	12
257	15
259	102
260	112
261	25
269	32
270	14
271	7
272	65
273	40
274	13
275	6
283	80
284	29
287	89
288	10
297	34
298	6
301	100
312	198
313	42
315	91
316	13
329	10
330	339
332	5
