Mass Spectrum: (2S)-2-((1R,3aR,4R,5S,7aS)-1,7a-Dimethyloctahydro-1H-1,2,4-(epimethanetriyl)inden-5-yl)propan-1-ol
Formula: C15H24O
CAS: 30810-34-5
Molecular weight: 220
m/z	intensity
27	28
29	47
30	2
31	107
38	3
39	104
40	19
41	263
42	17
43	53
45	6
50	6
51	48
52	22
53	124
54	17
55	260
56	15
57	31
58	5
62	3
63	22
64	9
65	134
66	51
67	176
68	22
69	115
70	15
71	9
72	4
73	4
74	2
75	4
76	6
77	316
78	83
79	359
80	147
81	528
82	27
83	39
84	12
85	12
87	2
89	11
90	4
91	699
92	201
93	466
94	633
95	306
96	36
97	24
98	5
99	15
100	9
101	5
102	10
103	72
104	41
105	999
106	232
107	462
108	165
111	14
114	2
115	126
116	47
117	206
118	104
119	803
120	380
121	473
122	102
123	106
124	75
125	44
126	5
127	15
128	68
129	82
130	43
131	327
132	142
133	453
134	125
135	100
136	32
137	24
138	83
139	13
140	4
141	18
142	15
143	26
144	22
145	228
146	56
147	179
148	23
149	7
150	25
152	65
153	13
154	3
157	8
159	126
160	73
161	822
162	231
163	45
164	12
165	10
166	5
173	22
174	8
177	23
178	5
179	58
180	5
181	4
182	3
187	57
188	7
189	320
190	51
191	30
192	10
202	15
205	42
206	11
220	341
221	55
222	5
