Mass Spectrum: L-Theanine
Formula: C7H14N2O3
CAS: 3081-61-6
Molecular weight: 174
m/z	intensity
12	2
14	6
15	41
16	6
17	35
18	101
25	2
26	27
27	152
28	442
29	257
30	512
31	10
32	3
36	3
37	3
38	9
39	55
40	21
41	310
42	127
43	128
44	363
45	81
46	990
47	26
48	2
50	1
51	4
52	16
53	16
54	94
55	101
56	546
57	106
58	30
59	39
60	9
64	2
65	2
66	33
67	16
68	37
69	27
70	36
71	19
72	427
73	39
74	47
75	48
76	2
77	2
78	2
79	4
80	10
81	41
82	39
83	159
84	999
85	57
86	87
87	524
88	33
89	2
91	1
92	1
93	9
94	5
95	19
96	6
97	7
98	5
99	7
100	88
101	88
102	16
103	5
106	6
107	8
108	16
109	10
110	38
111	428
112	75
113	7
114	1
120	1
124	1
125	1
126	5
127	8
128	176
129	598
130	66
131	5
140	7
141	6
149	1
152	1
154	1
155	5
156	51
157	5
158	1
174	3
