Mass Spectrum: 2H-Thiazolo[3,2-a]pyridine-6,8-dicarbonitrile, 3,5,6,7-tetrahydro-5-oxo-7,4'-spiro-(1-methylpiperidine)-
Formula: C14H16N4OS
CAS: 308124-25-6
Molecular weight: 288
m/z	intensity
33	28
34	9
35	7
36	2
37	3
38	11
39	70
40	50
42	999
43	418
44	360
45	84
46	13
47	3
51	22
52	40
53	28
54	36
55	36
57	337
58	85
59	110
60	79
61	37
62	9
63	19
64	33
65	30
67	69
68	24
70	460
71	84
73	17
75	5
76	18
77	28
78	24
79	14
80	13
81	15
82	18
83	17
84	5
85	5
86	15
87	4
88	13
89	8
90	14
91	13
92	12
93	14
94	51
96	162
97	11
98	3
101	4
102	9
103	9
104	13
105	11
106	8
107	9
108	11
109	12
110	5
111	1
114	0
115	2
116	5
117	10
118	9
119	15
120	9
121	16
122	9
123	5
124	3
126	2
127	1
129	7
131	15
134	341
135	264
136	52
137	6
139	4
142	3
143	3
144	7
145	4
146	8
147	5
148	4
149	6
150	7
151	3
152	2
153	0
157	2
158	5
159	6
160	26
161	44
162	12
163	17
164	6
165	3
172	0
174	5
175	8
177	26
178	7
179	5
188	6
189	10
190	3
191	4
192	5
193	5
194	0
201	1
202	8
203	15
204	9
205	16
206	14
207	4
216	10
217	10
218	11
220	17
221	2
228	2
229	5
230	12
231	34
232	28
233	5
234	1
283	1
284	5
285	6
287	31
288	75
289	11
290	3
