Mass Spectrum: Naphthalene, decahydro-1,4a-dimethyl-7-(1-methylethyl)-, [1S-(1.alpha.,4a.alpha.,7.alpha.,8a.beta.)]-
Formula: C15H28
CAS: 30824-81-8
Molecular weight: 208
m/z	intensity
23	10
27	70
29	60
30	10
32	10
33	10
34	20
38	10
39	80
41	414
42	70
43	252
45	10
46	20
51	30
52	10
53	100
54	30
55	656
56	70
57	100
64	20
65	10
66	50
67	474
68	121
69	575
77	40
78	30
79	131
80	60
81	656
82	191
83	535
84	262
85	40
86	20
91	60
92	20
93	80
94	50
95	828
96	636
97	454
98	50
100	10
102	10
103	20
105	10
106	10
107	50
108	70
109	999
110	181
111	80
112	20
117	10
119	20
121	30
122	30
123	303
124	111
125	90
126	30
135	10
136	20
137	181
138	141
139	30
145	10
147	20
149	20
151	50
152	50
163	20
165	464
166	90
167	20
174	10
179	20
193	151
194	30
208	212
209	40
210	10
