Mass Spectrum: L-Alanine, ethyl ester
Formula: C5H11NO2
CAS: 3082-75-5
Molecular weight: 117
m/z	intensity
15	15
18	46
26	10
27	49
29	51
30	22
41	20
42	82
43	34
44	999
45	38
46	11
55	11
56	10
72	32
74	39
102	10
