Mass Spectrum: t-Boc-.beta.-benzyl-l-aspartic acid
Formula: C16H21NO6
CAS: 30825-37-7
Molecular weight: 323
m/z	intensity
41	309
42	53
43	155
44	26
45	33
50	10
51	37
52	12
53	6
55	34
56	26
57	884
58	40
59	142
63	22
65	114
70	33
71	11
72	7
74	3
77	61
78	14
79	39
87	14
88	64
89	79
90	58
91	999
92	82
105	20
107	66
108	105
114	12
132	96
133	18
160	19
162	22
178	179
179	18
181	3
222	80
223	76
224	75
225	7
250	12
267	250
268	256
269	34
278	29
314	44
322	3
323	13
