Mass Spectrum: L-Methionine, ethyl ester
Formula: C7H15NO2S
CAS: 3082-77-7
Molecular weight: 177
m/z	intensity
27	94
28	163
29	103
30	60
39	34
41	51
42	60
43	69
44	25
45	51
46	43
47	51
48	25
49	25
54	43
55	51
56	646
57	103
58	51
59	25
60	17
61	999
62	43
63	51
74	198
75	103
83	51
87	34
88	43
100	137
101	17
102	86
103	34
104	586
105	43
106	25
114	25
116	60
129	103
130	25
131	120
148	43
160	25
177	129
178	34
179	25
