Mass Spectrum: 1,2-Naphthoquinone, 3,8-dimethoxy-
Formula: C12H10O4
CAS: 30839-37-3
Molecular weight: 218
m/z	intensity
50	160
62	130
63	100
75	100
76	320
88	130
89	260
104	100
119	999
120	100
130	80
147	160
160	100
161	649
162	130
175	420
190	799
191	130
218	290
219	50
220	100
