Mass Spectrum: Oxirane, (2,2,2-trichloroethyl)-
Formula: C4H5Cl3O
CAS: 3083-25-8
Molecular weight: 174
m/z	intensity
13	1
14	9
15	37
24	1
25	10
26	52
27	110
28	1
29	221
30	16
31	174
32	2
35	24
36	21
37	76
38	94
39	195
40	10
41	37
42	58
43	163
44	6
47	70
48	24
49	149
50	51
51	64
52	14
53	9
54	1
55	7
56	1
57	199
58	7
59	5
60	58
61	418
62	33
63	161
64	5
65	9
67	2
68	2
69	4
70	1
71	7
72	37
73	178
74	28
75	509
76	20
77	151
78	22
79	67
80	7
81	22
82	70
83	120
84	49
85	86
86	10
87	21
88	1
89	10
90	4
91	3
92	1
94	2
95	26
96	59
97	295
98	43
99	181
100	10
101	31
102	1
103	22
104	2
105	8
106	1
107	14
108	1
109	999
110	39
111	646
112	23
113	105
114	4
117	56
119	55
121	20
123	8
125	21
126	1
127	12
129	2
130	1
131	2
132	1
133	2
138	3
139	81
140	5
141	52
142	3
143	21
144	44
145	13
146	41
147	5
148	13
150	1
