Mass Spectrum: Azetidine, 1-chloro-2-phenyl-
Formula: C9H10ClN
CAS: 30839-64-6
Molecular weight: 167
m/z	intensity
27	18
28	150
29	7
36	27
39	15
51	75
52	5
65	15
76	15
77	207
78	105
79	15
91	117
92	21
103	210
104	999
105	180
106	66
107	5
117	21
118	15
130	36
131	30
132	66
167	81
168	5
169	30
170	2
