Mass Spectrum: 4H-1,3-Benzoxazin-4-one, 2-phenyl-
Formula: C14H9NO2
CAS: 3084-52-4
Molecular weight: 223
m/z	intensity
34	0
37	59
38	147
39	277
40	45
41	7
42	2
43	3
44	15
45	4
50	439
51	518
52	69
53	41
54	1
58	4
61	27
62	91
63	215
64	141
65	19
66	4
69	3
73	21
74	138
75	124
76	205
77	999
78	70
83	3
86	2
87	8
88	21
89	22
90	343
91	29
92	7
98	10
99	3
100	1
102	7
103	15
105	525
106	41
107	2
111	2
117	1
118	16
130	3
139	8
140	6
146	132
147	14
151	10
152	18
153	7
166	6
167	16
176	2
177	8
178	51
179	397
180	60
195	16
196	3
222	13
223	359
224	64
225	4
