Mass Spectrum: 1,3,5,7-Cyclooctatetraene, 1-(methoxymethyl)-
Formula: C10H12O
CAS: 30844-13-4
Molecular weight: 148
m/z	intensity
45	390
50	180
51	360
52	120
63	210
65	210
77	700
78	40
89	120
91	430
102	180
103	580
105	150
106	490
107	30
115	750
116	690
117	999
118	210
133	190
147	190
148	390
149	30
