Mass Spectrum: 1,3,5,7-Cyclooctatetraene-1-carboxaldehyde
Formula: C9H8O
CAS: 30844-12-3
Molecular weight: 132
m/z	intensity
40	350
41	730
42	30
74	80
75	100
76	120
77	900
78	620
102	90
103	999
104	530
105	40
131	60
132	380
133	30
