Mass Spectrum: 2-Propenamide, N,N-di-2-propenyl-
Formula: C9H13NO
CAS: 3085-68-5
Molecular weight: 151
m/z	intensity
25	1
26	19
27	300
28	66
29	13
30	21
31	1
37	3
38	9
39	177
40	17
41	420
42	45
43	12
44	6
45	0
50	0
51	2
52	5
53	10
54	67
55	999
56	754
57	46
58	6
59	0
60	0
61	0
62	0
63	0
64	0
65	5
66	9
67	54
68	118
69	29
70	250
71	11
72	20
73	2
75	0
77	2
78	1
79	12
80	37
81	37
82	66
83	17
84	55
85	24
86	5
87	0
89	0
91	1
92	2
93	4
94	30
95	16
96	107
97	40
98	6
99	0
105	0
106	2
107	2
108	43
109	20
110	192
111	13
112	1
117	0
118	0
119	0
120	0
121	1
122	28
123	52
124	30
125	3
126	0
132	0
133	0
134	3
135	0
136	64
137	5
138	1
139	1
146	0
148	0
149	0
150	52
151	131
152	21
153	1
