Mass Spectrum: Benzoic acid, 1-benzoyl-2,2-dimethylhydrazide
Formula: C16H16N2O2
CAS: 30859-86-0
Molecular weight: 268
m/z	intensity
39	10
42	45
43	60
51	100
77	400
78	30
105	999
106	80
163	70
225	7
226	20
268	90
269	28
