Mass Spectrum: Phenylselenoacetic acid, Se-phenyl ester
Formula: C14H12OSe
CAS: 30876-65-4
Molecular weight: 276
m/z	intensity
26	2
27	10
28	2
29	7
31	10
37	3
38	11
39	96
40	8
41	25
42	3
43	5
44	1
45	6
49	2
50	42
51	94
52	13
53	2
55	2
56	0
57	4
59	7
60	0
61	4
62	17
63	58
64	18
65	228
66	15
67	0
68	2
69	3
70	2
71	3
72	3
73	2
74	14
75	16
76	19
77	119
78	37
79	3
80	2
81	0
83	1
84	0
85	2
86	2
87	4
88	2
89	72
90	62
91	999
92	190
93	7
95	1
97	0
98	2
101	1
102	2
103	3
104	2
105	7
106	3
107	5
108	0
109	1
110	4
111	0
113	3
114	4
115	10
116	1
117	21
118	218
119	495
120	47
121	3
125	0
126	2
127	3
128	3
129	6
130	5
131	6
132	1
133	1
136	13
137	1
139	1
141	1
149	3
150	0
151	3
152	7
153	37
154	39
155	82
156	27
157	153
158	33
159	28
160	6
163	0
164	0
165	10
166	3
167	4
168	0
169	3
170	1
171	1
181	0
182	0
197	1
219	0
228	0
229	0
230	5
231	4
232	11
233	4
234	20
235	3
236	4
237	1
238	0
239	0
245	1
246	0
247	1
248	1
249	1
270	1
272	14
273	14
274	42
275	7
276	78
277	14
278	16
279	2
