Mass Spectrum: Pregnane-3,11,20,21-tetrol, cyclic 20,21-(methylboronate), (3.alpha.,5.alpha.,11.beta.,20S)-
Formula: C22H37BO4
CAS: 30882-70-3
Molecular weight: 376
m/z	intensity
39	150
40	80
41	890
42	180
43	999
44	70
45	100
51	40
52	30
53	280
54	90
55	940
56	260
57	570
58	40
59	30
65	110
66	70
67	780
68	170
69	370
70	150
71	150
72	40
73	100
75	40
77	320
78	120
79	790
80	200
81	880
82	150
83	250
84	320
85	870
86	50
87	30
91	670
92	180
93	170
94	310
95	640
96	120
97	200
98	40
99	40
103	40
104	40
105	550
106	320
107	660
108	260
109	340
110	190
111	240
112	50
113	20
115	60
116	30
117	190
118	110
119	420
120	240
121	330
122	140
123	190
124	320
125	140
126	30
127	30
128	40
129	90
130	40
131	310
132	110
133	430
134	150
135	130
136	60
137	100
138	40
139	30
141	30
142	30
143	100
144	60
145	250
146	100
147	430
148	130
149	260
150	50
151	40
155	40
157	110
158	60
159	210
160	90
161	210
162	70
163	80
164	40
165	90
166	40
167	30
168	30
169	40
171	110
172	70
173	220
174	90
175	110
176	40
177	70
178	60
179	40
183	50
185	90
186	50
187	100
188	40
189	40
190	30
191	60
192	50
193	60
195	30
197	60
199	70
200	40
201	70
203	40
204	30
205	30
206	20
207	50
208	40
209	50
211	50
213	410
214	90
215	110
216	30
217	100
218	50
219	40
221	60
223	30
225	40
226	30
227	60
228	140
229	110
230	50
231	300
232	180
233	90
234	50
235	40
239	50
241	40
242	40
243	40
244	100
245	360
247	200
248	60
249	30
255	150
256	40
257	30
258	30
259	30
260	20
261	40
265	70
267	30
269	40
271	50
272	40
273	100
274	40
281	40
283	40
285	80
286	90
287	30
298	50
299	60
300	30
301	20
303	40
313	30
314	50
317	20
324	50
325	210
326	40
339	150
340	540
341	170
342	190
343	510
344	120
345	30
355	40
356	50
357	200
358	700
359	170
376	40
