Mass Spectrum: 5.beta.-Pregnane-3.alpha.,17,20.beta.-triol, cyclic 17,20-methaneboronate, TMS derivative
Formula: C25H45BO3Si
CAS: 30882-48-5
Molecular weight: 432
m/z	intensity
41	200
42	50
43	270
44	30
45	240
47	40
53	50
54	20
55	340
56	20
57	50
59	40
60	20
61	70
65	30
66	20
67	310
68	60
69	150
71	70
72	20
73	660
74	70
75	999
76	90
77	150
78	20
79	300
80	50
81	420
82	40
83	140
85	20
86	70
87	250
89	40
91	300
92	70
93	390
94	170
95	350
96	70
97	180
98	60
99	40
101	50
103	30
105	340
106	200
107	400
108	150
109	200
110	100
111	300
112	70
113	80
115	40
116	40
117	160
118	50
119	200
120	100
121	230
122	100
123	170
124	320
125	320
126	70
127	30
128	20
129	120
130	40
131	100
132	30
133	150
134	130
135	160
136	40
137	40
142	60
143	50
144	20
145	150
146	50
147	200
148	70
149	110
150	20
155	60
157	40
159	150
160	80
161	220
162	100
163	40
171	40
172	40
173	110
174	70
175	120
176	60
177	20
183	20
185	40
186	30
187	70
188	50
189	60
199	50
201	110
202	50
203	40
213	40
214	30
215	540
216	170
217	430
218	90
225	20
227	70
228	50
229	50
230	200
231	70
239	30
241	30
243	30
246	30
247	30
253	20
254	30
255	230
256	70
257	30
267	50
268	20
281	20
282	40
283	130
284	30
285	20
287	40
288	80
289	20
300	20
301	20
326	20
327	70
328	20
341	130
342	460
343	130
417	20
431	20
432	60
433	20
