Mass Spectrum: Pregnan-11-one, 3,20-dihydroxy-17,21-[(methylborylene)bis(oxy)]-, (3.alpha.,5.beta.,20S)-
Formula: C22H35BO5
CAS: 30888-49-4
Molecular weight: 390
m/z	intensity
39	200
40	50
41	940
42	230
43	999
44	470
45	120
50	10
51	30
52	50
53	360
54	130
55	880
56	190
57	390
58	30
59	20
61	20
63	30
65	180
66	100
67	810
68	220
69	320
70	40
71	50
72	20
75	20
77	550
78	140
79	999
80	180
81	730
82	120
83	130
84	200
85	670
86	70
87	30
91	970
92	210
93	950
94	310
95	520
96	170
97	400
98	70
99	30
101	20
103	80
104	50
105	820
106	250
107	730
108	400
109	430
110	190
111	270
112	30
113	20
114	10
115	90
116	50
117	190
118	200
119	430
120	170
121	580
122	190
123	320
124	230
125	100
126	20
127	50
128	70
129	20
130	60
131	290
132	80
133	400
134	110
135	250
136	90
137	90
138	50
139	90
140	60
141	140
142	50
143	120
144	50
145	250
146	80
147	370
148	130
149	250
150	70
151	60
152	10
153	30
154	20
155	60
156	40
157	160
158	60
159	270
160	110
161	390
162	90
163	150
164	90
165	50
166	30
167	40
168	10
169	60
170	30
171	140
172	40
173	350
174	100
175	290
176	90
177	140
178	60
179	40
181	20
183	50
184	20
185	60
186	70
187	110
188	50
189	70
190	60
191	140
193	50
195	50
196	20
197	60
199	160
200	50
201	70
202	20
203	50
204	20
205	50
209	30
211	120
212	50
213	70
214	50
215	180
216	70
217	60
218	20
219	30
223	20
225	50
226	60
227	100
228	40
229	110
230	60
231	60
232	80
233	60
234	10
235	30
237	20
239	30
241	60
242	30
243	90
244	40
245	50
246	40
247	20
248	30
249	50
250	30
251	270
252	60
253	70
254	20
255	60
257	20
258	30
259	60
260	20
263	30
264	120
265	20
267	20
268	20
269	420
270	110
271	80
272	30
276	60
277	230
278	50
279	70
285	20
286	40
287	390
288	80
299	40
300	120
301	30
303	30
305	30
317	180
318	750
319	150
329	10
338	20
339	130
340	30
341	20
342	10
353	20
354	100
356	80
357	290
358	70
359	10
371	150
372	560
373	140
374	30
375	50
388	30
389	70
390	250
391	70
