Mass Spectrum: Propanenitrile, 3-(ethylthio)-
Formula: C5H9NS
CAS: 3088-46-8
Molecular weight: 115
m/z	intensity
25	5
26	112
27	405
29	338
30	7
33	8
34	11
35	64
37	2
38	5
39	9
41	220
42	63
43	2
44	7
45	272
46	114
47	645
48	15
49	24
50	1
51	23
52	71
53	37
54	352
55	37
56	4
57	35
58	69
59	265
60	78
61	137
62	35
63	2
64	8
68	1
69	7
73	35
74	6
75	999
76	38
77	43
82	2
83	2
84	2
85	1
86	7
87	55
88	1
98	1
100	46
114	2
115	346
116	19
117	11
