Mass Spectrum: 2-Propanamine, N-methyl-N-nitro-
Formula: C4H10N2O2
CAS: 30893-20-0
Molecular weight: 118
m/z	intensity
29	154
30	164
31	16
38	11
39	62
40	30
41	151
42	880
43	202
44	66
45	13
46	15
52	15
54	32
55	29
56	466
57	946
58	104
59	12
61	20
70	30
71	44
72	64
73	42
77	10
102	22
103	999
104	40
118	196
119	11
