Mass Spectrum: 5.beta.-Pregnane-3,20-dione, bis(O-methyloxime)
Formula: C23H38N2O2
CAS: 3091-37-0
Molecular weight: 374
m/z	intensity
41	470
42	570
43	120
44	120
45	70
46	5
47	5
48	10
50	5
51	15
52	15
53	200
54	160
55	410
56	90
57	150
58	150
59	40
60	15
63	5
64	5
65	80
66	55
67	400
68	230
69	200
70	470
71	80
72	35
73	85
74	90
75	30
76	10
77	240
78	60
79	480
80	170
81	390
82	200
83	85
84	75
85	30
86	30
87	580
88	45
89	15
90	5
91	370
92	85
93	380
94	190
95	250
96	120
97	40
98	50
99	95
100	999
101	85
102	10
103	35
104	35
105	300
106	140
107	250
108	150
109	120
110	60
111	30
112	65
113	160
114	80
115	60
116	35
117	100
118	55
119	210
120	170
121	160
122	90
123	55
124	45
125	25
126	90
127	25
128	35
129	55
130	40
131	140
132	70
133	160
134	120
135	85
136	60
137	25
138	50
139	40
140	35
141	20
142	20
143	60
144	40
145	150
146	70
147	120
148	60
149	40
150	30
151	15
152	45
153	30
154	45
155	35
156	20
157	70
158	45
159	90
160	65
161	60
162	35
163	20
164	20
165	10
166	30
167	10
168	15
169	30
170	15
171	65
172	40
173	55
174	50
175	60
176	55
177	20
178	15
179	10
180	15
181	10
182	10
183	25
184	20
185	50
186	40
187	75
188	45
189	25
190	15
191	10
192	15
193	15
194	10
195	10
196	10
197	30
198	25
199	30
200	35
201	40
202	40
203	20
204	15
205	5
206	25
207	60
208	25
209	15
210	10
211	25
212	20
213	40
214	35
215	25
216	25
217	15
218	20
219	15
220	20
221	20
222	10
223	15
224	10
225	30
226	25
227	35
228	50
229	25
230	25
231	10
232	10
233	10
234	10
235	5
236	5
237	15
238	15
239	30
240	20
241	20
242	50
243	35
244	230
245	50
246	20
247	5
248	5
249	5
251	5
252	10
253	20
254	35
255	20
256	45
257	15
258	20
259	25
260	85
261	30
262	30
263	10
264	5
265	5
266	10
267	10
268	15
269	10
270	70
271	30
272	25
273	10
274	150
275	450
276	150
277	25
278	5
279	10
280	10
281	25
282	10
283	25
284	10
285	10
286	40
287	30
288	640
289	150
290	20
294	25
295	15
296	40
297	30
298	15
299	10
300	40
301	50
302	30
303	10
310	10
311	70
312	35
313	35
314	20
315	15
316	10
317	5
319	10
325	5
326	65
327	40
328	30
329	10
330	5
343	999
344	270
345	40
346	10
359	40
360	10
372	5
373	15
374	190
375	60
376	15
