Mass Spectrum: 1-Cyclopropyl-3-(2-thienyl)-1,3-propanedione
Formula: C10H10O2S
CAS: 30923-68-3
Molecular weight: 194
m/z	intensity
15	3
26	5
27	24
28	16
29	9
31	2
32	5
34	1
37	7
38	22
39	269
40	19
41	226
42	16
43	12
44	7
45	64
46	2
47	5
49	3
50	11
51	17
52	5
53	46
54	4
55	24
56	2
57	30
58	22
59	4
60	2
61	4
62	6
63	14
64	3
65	21
66	8
67	6
68	15
69	781
70	35
71	10
72	2
73	5
74	6
75	4
76	2
77	9
78	2
79	5
80	1
81	17
82	33
83	101
84	112
85	43
86	7
87	2
89	4
90	1
91	6
92	2
93	3
94	2
95	7
96	8
97	46
98	5
99	3
100	1
103	3
104	1
105	8
106	1
107	2
108	62
109	127
110	40
111	999
112	69
113	49
114	3
115	6
119	1
120	1
121	5
122	3
123	14
124	372
125	36
126	52
127	5
128	2
131	2
132	1
133	9
134	4
135	7
136	3
137	34
138	36
139	13
140	3
141	1
143	1
147	16
148	6
149	5
150	3
151	35
152	15
153	325
154	27
155	17
156	1
157	1
160	1
161	64
162	8
163	2
164	1
165	8
166	446
167	44
168	27
169	2
175	2
176	5
177	32
178	5
179	57
180	6
181	3
190	1
192	1
193	50
194	395
195	48
196	22
197	2
