Mass Spectrum: Piperidine-4-carboxamide, 1-(4-fluorophenylsulfonyl)-
Formula: C12H15FN2O3S
CAS: 309279-85-4
Molecular weight: 286
m/z	intensity
33	3
37	2
39	72
40	21
41	82
42	208
44	362
45	12
46	3
48	2
49	5
50	31
51	27
52	13
53	44
54	65
55	161
56	50
57	18
58	1
59	1
61	1
62	3
63	7
64	3
65	6
66	2
67	18
68	27
69	38
70	17
71	15
72	74
73	7
74	33
75	150
76	14
77	2
78	2
80	44
81	112
82	999
83	72
84	7
85	5
86	1
87	0
88	0
89	0
92	4
93	6
94	49
95	312
96	34
97	4
98	8
99	3
100	0
104	0
105	0
106	0
107	0
108	2
109	8
110	15
111	5
112	4
113	1
115	13
116	0
117	0
122	1
123	0
124	0
126	64
127	442
128	32
129	2
135	1
143	11
144	1
145	0
158	7
159	57
160	4
161	2
