Mass Spectrum: Benzamide, 2-benzylsulfonyl-4,6-dinitro-
Formula: C14H11N3O7S
CAS: 309272-28-4
Molecular weight: 365
m/z	intensity
33	0
36	0
37	1
38	2
39	19
40	4
41	11
42	4
43	24
44	16
45	69
46	2
47	0
48	0
50	2
51	7
52	2
53	1
55	1
56	0
57	1
58	2
59	3
60	1
61	0
62	4
63	13
64	5
65	71
66	3
67	0
68	0
69	1
70	0
71	0
73	1
74	13
75	11
76	2
77	4
78	2
79	2
80	0
81	0
82	0
83	0
84	0
85	0
86	0
87	0
89	16
91	999
92	71
93	2
94	0
95	0
97	0
98	1
99	0
100	0
101	0
102	0
103	0
104	1
105	7
106	3
107	3
108	6
109	0
110	0
112	0
113	0
115	0
116	0
117	0
118	1
119	0
120	2
121	0
122	2
123	0
126	0
127	0
128	0
129	0
131	0
132	0
133	0
134	1
135	0
136	0
137	0
138	0
139	0
140	0
141	0
147	0
148	2
149	0
150	4
151	0
152	1
153	0
154	0
155	0
160	0
162	0
163	2
164	1
165	1
166	1
167	0
169	0
171	0
172	0
178	3
179	1
180	0
181	0
182	0
183	0
189	0
192	0
193	0
194	1
195	7
196	0
197	0
198	0
199	0
201	0
202	0
203	0
206	0
207	1
208	1
209	0
210	0
211	0
212	0
213	0
218	0
222	0
224	0
225	1
226	1
227	0
228	0
230	0
236	0
237	0
238	0
240	2
241	3
242	1
243	0
253	0
254	3
255	2
256	1
257	0
258	1
259	0
266	2
267	0
270	0
271	3
272	0
274	0
283	4
284	30
285	5
286	1
298	0
300	0
301	6
302	1
303	0
327	0
328	0
365	4
366	0
367	0
