Mass Spectrum: Isoxazole-4-carboxamide, 3-(2-chloro-6-fluorophenyl)-5-methyl-N-(2-chloro-5-trifluoromethylphenyl)-
Formula: C18H10Cl2F4N2O2
CAS: 309267-96-7
Molecular weight: 432
m/z	intensity
33	35
34	4
35	1
36	10
38	14
40	151
41	20
43	999
44	33
45	3
50	3
51	2
55	3
57	13
60	2
61	5
62	1
63	5
65	7
69	6
75	15
77	3
78	1
83	7
91	8
94	15
95	3
104	1
106	7
107	5
109	5
112	2
117	3
120	4
121	1
124	4
125	1
131	2
132	50
133	3
136	4
141	18
143	11
145	3
147	3
148	3
155	2
156	2
157	2
158	4
161	3
165	1
167	13
168	48
169	8
170	21
174	2
179	3
180	3
193	7
194	14
196	468
197	57
198	126
199	16
237	5
238	85
240	46
241	1
350	3
397	118
398	18
399	30
400	4
432	10
434	1
