Mass Spectrum: Pyrimidin-4-one, hexahydro-1-(2,2,6,6-tetramethylpiperidin-4-yl)-2-thioxo-
Formula: C13H23N3OS
CAS: 309286-65-5
Molecular weight: 269
m/z	intensity
33	4
34	3
35	0
36	0
39	34
40	30
41	127
42	175
43	36
44	24
45	4
46	1
47	1
50	0
51	2
53	26
55	138
56	40
58	266
60	38
61	2
62	1
63	0
65	10
66	6
67	29
68	16
69	18
70	19
71	9
72	6
73	2
74	1
75	1
76	3
77	8
79	23
80	9
81	29
82	49
83	20
84	18
85	3
86	6
87	1
88	1
89	0
91	11
92	5
93	8
94	11
95	9
96	15
97	4
98	32
99	21
100	12
101	10
102	3
103	1
105	4
107	42
108	26
109	9
110	12
111	2
112	5
113	3
114	2
115	6
116	0
117	0
118	0
120	6
121	4
122	20
124	999
125	77
127	12
128	1
129	1
130	2
131	8
132	0
133	0
134	0
135	1
136	1
137	1
138	11
139	4
140	10
141	3
142	0
143	0
148	0
149	0
150	0
151	1
152	0
153	1
155	28
156	79
157	8
158	3
159	0
163	0
164	1
165	3
166	1
167	0
169	13
170	1
171	1
177	0
179	1
180	0
181	1
182	0
183	1
184	0
195	0
197	1
198	0
209	2
211	15
212	11
213	2
214	0
222	0
235	0
236	0
238	0
251	0
252	1
254	47
255	6
256	2
267	1
269	92
270	14
271	4
272	0
