Mass Spectrum: Morpholine, 4-(3,4-difluoro-6-nitrobenzoyl)-
Formula: C11H10F2N2O4
CAS: 309280-92-0
Molecular weight: 272
m/z	intensity
33	5
37	4
38	4
41	98
42	142
43	23
44	28
45	14
46	8
47	2
50	26
51	9
52	11
54	94
56	999
58	46
59	3
62	185
63	46
64	97
66	0
68	36
70	49
72	65
73	20
74	31
75	30
76	8
77	6
78	3
81	58
82	4
86	732
88	8
90	6
92	30
93	38
94	22
95	5
96	1
97	0
99	20
100	43
101	28
102	13
103	0
104	0
105	1
106	3
107	5
108	1
112	562
113	98
114	138
115	26
116	1
117	0
118	0
119	3
120	4
122	25
123	2
125	15
126	52
127	33
128	23
129	14
130	0
134	0
135	0
137	0
138	3
140	211
141	59
142	7
143	8
144	0
148	0
149	0
150	0
151	1
152	5
153	13
154	10
155	12
156	26
157	36
158	2
159	0
164	1
165	2
166	6
167	5
168	13
170	69
171	35
172	3
179	0
180	0
182	48
183	27
184	4
186	244
187	72
188	5
189	0
195	68
196	12
197	3
198	1
199	1
208	2
209	4
210	1
212	9
213	2
214	4
217	0
219	2
225	24
226	4
227	1
229	1
237	26
238	3
241	28
242	4
243	0
253	0
254	0
255	3
257	45
258	5
259	0
272	155
273	20
274	2
