Mass Spectrum: Furane-2-carboxylic acid, 1-(2-thienyl)ethylidenamino ester
Formula: C11H9NO3S
CAS: 309282-71-1
Molecular weight: 235
m/z	intensity
33	89
34	5
36	2
37	23
38	68
39	303
40	101
41	11
42	7
44	35
45	49
46	1
47	1
48	0
50	12
51	20
52	6
53	9
54	4
55	6
57	32
58	20
59	4
62	2
63	7
64	8
65	20
66	29
67	17
69	16
70	7
71	6
72	0
75	1
76	2
77	10
78	3
80	10
81	7
82	12
83	14
84	18
85	0
91	10
92	3
95	999
96	50
97	26
99	16
103	1
104	2
105	5
107	0
109	54
110	31
111	5
112	5
113	1
119	0
120	1
121	0
122	2
124	89
125	8
126	4
132	1
133	1
141	3
152	1
189	5
235	126
236	14
237	6
