Mass Spectrum: Oxamide, N-[2-(4-chlorophenyl)ethyl]-N'-cyclopropyl-
Formula: C13H15ClN2O2
CAS: 309277-41-6
Molecular weight: 266
m/z	intensity
36	3
37	1
38	8
39	124
41	382
42	25
43	17
44	43
45	8
46	5
49	1
50	15
51	42
52	12
53	6
54	27
56	718
57	318
58	21
59	3
60	1
61	2
62	8
63	37
64	9
65	18
66	3
67	3
68	7
69	6
70	35
72	24
73	15
74	7
75	33
76	13
77	205
78	41
79	6
80	2
82	5
84	999
85	134
86	17
87	4
89	71
90	27
91	44
92	5
93	0
95	2
96	7
97	2
99	30
100	23
101	30
102	45
103	397
104	79
105	21
106	2
107	2
108	0
109	2
110	1
111	18
112	33
113	105
114	14
115	4
116	2
117	9
118	8
119	11
120	4
121	0
123	10
124	13
125	150
126	21
127	51
128	38
129	3
130	3
131	2
132	2
133	0
135	1
138	811
139	453
140	288
141	301
142	23
143	2
145	1
146	0
147	0
148	2
149	0
152	5
153	13
154	18
155	12
156	7
157	3
158	1
159	0
160	0
162	2
164	7
165	69
166	104
167	35
168	35
169	3
171	0
174	1
175	2
176	0
177	0
178	1
179	52
180	11
181	17
182	58
183	17
184	19
185	6
186	3
189	0
191	6
192	1
193	3
194	1
195	1
197	55
198	7
199	19
200	1
203	4
204	1
208	0
209	6
210	4
211	38
212	5
213	11
214	0
220	6
221	30
222	6
223	11
224	2
225	0
231	0
232	0
233	0
237	36
238	78
239	21
240	23
241	3
256	0
266	136
267	22
268	46
269	6
