Mass Spectrum: Piperazine, 4-methyl-1-[5-nitro-2-(1-piperazinyl)phenylsulfonyl]-
Formula: C15H23N5O4S
CAS: 309276-00-4
Molecular weight: 369
m/z	intensity
33	2
39	7
42	198
43	177
44	60
45	2
46	0
48	1
50	6
51	13
52	11
54	57
56	605
57	112
58	117
63	16
64	13
65	17
66	2
68	26
70	173
71	30
72	34
74	10
75	21
76	41
77	36
78	19
79	5
80	5
81	7
82	9
83	24
84	15
85	12
87	1
89	24
90	18
91	15
92	8
93	2
95	8
97	236
99	999
101	71
102	13
103	38
104	19
105	14
106	8
107	2
108	3
109	1
111	2
113	6
114	0
115	4
116	7
117	23
118	11
119	16
120	14
122	10
123	1
124	0
125	6
126	0
128	3
129	7
130	39
131	36
132	12
133	4
134	7
135	10
136	17
137	2
138	0
139	2
140	0
143	1
144	7
145	5
146	4
147	3
148	5
149	29
150	11
151	8
152	4
153	1
155	0
156	1
157	8
158	13
159	17
160	18
161	4
162	2
163	7
164	8
165	26
167	0
169	1
170	1
171	1
172	1
173	1
174	2
175	4
176	13
177	29
178	10
179	4
180	1
181	2
183	0
185	2
187	2
188	6
189	6
190	20
191	5
192	4
193	2
194	4
195	3
197	0
198	0
202	0
203	1
204	6
205	25
206	33
207	9
208	5
209	0
213	1
215	0
219	1
221	0
222	3
223	4
224	1
225	0
227	1
229	0
231	0
232	1
233	0
235	1
236	1
240	1
241	0
245	1
251	2
252	4
253	1
254	4
256	2
257	0
266	0
268	1
269	4
270	40
271	4
272	3
275	0
276	1
281	1
282	1
283	4
285	1
287	0
296	0
297	14
299	88
300	12
301	5
305	0
311	0
313	108
314	24
315	8
316	0
321	0
323	0
325	0
326	9
327	6
328	0
339	2
340	4
341	2
351	38
352	49
353	11
354	4
367	0
369	80
370	16
371	5
372	0
