Mass Spectrum: [1,2,4]-Triazolo[2,3-a]pyrimidin-2-amine, N-acetyl-7-hydroxy-5-trifluoromethyl-
Formula: C8H6F3N5O2
CAS: 309280-29-3
Molecular weight: 261
m/z	intensity
33	13
36	1
38	39
39	92
40	145
41	93
42	380
43	999
45	47
46	20
47	2
50	35
51	57
52	176
53	302
54	39
55	17
56	30
57	14
58	21
60	2
62	1
63	17
64	2
65	52
66	71
67	145
68	364
69	349
70	29
71	36
75	261
76	21
78	27
79	14
80	6
81	4
82	5
83	6
85	10
86	1
89	28
90	43
91	33
92	11
93	67
94	49
95	63
96	13
98	12
100	28
101	37
103	22
104	1
108	6
109	2
113	4
115	7
116	13
117	2
120	36
121	39
122	50
123	7
128	7
129	24
136	51
137	75
138	8
142	1
143	3
144	7
148	54
149	16
150	80
151	9
162	6
163	53
164	73
171	18
172	5
177	12
180	2
190	6
191	147
192	6
200	23
218	1
219	447
220	26
242	6
261	50
262	1
