Mass Spectrum: Benzoic acid, 1-(2-thienyl)ethylidenamino ester
Formula: C13H11NO2S
CAS: 309282-70-0
Molecular weight: 245
m/z	intensity
33	26
34	3
37	7
39	139
40	53
42	7
44	19
45	36
46	1
47	1
50	47
51	104
52	7
53	5
54	2
55	2
56	2
57	20
58	15
59	3
60	0
61	0
62	2
63	5
64	5
65	14
66	18
67	0
69	11
70	5
71	4
72	0
74	9
75	7
77	300
78	14
80	6
81	5
82	8
83	10
84	12
85	0
86	0
90	0
91	1
95	4
96	2
97	13
99	13
101	0
105	999
106	54
107	4
109	36
110	27
111	3
112	1
120	0
122	8
124	11
125	4
139	1
141	1
189	0
245	54
246	7
247	2
