Mass Spectrum: 1-Piperidin-1-yl-2-(1H-[1,2,4]triazol-3-ylsulfanyl)-ethanone
Formula: C9H14N4OS
CAS: 309266-77-1
Molecular weight: 226
m/z	intensity
33	0
39	67
41	201
42	259
43	69
44	59
45	106
46	36
47	11
48	1
50	1
51	4
52	5
53	22
54	49
55	148
56	118
57	33
58	23
59	18
60	8
61	0
62	0
63	0
65	2
67	23
68	25
69	209
70	148
71	151
72	26
73	21
74	6
75	1
76	0
77	1
78	0
79	2
80	8
81	6
82	50
83	232
84	270
85	55
86	11
87	4
88	0
89	0
91	1
92	0
93	0
94	1
97	999
98	238
99	25
100	19
101	74
102	16
103	4
104	0
105	1
107	0
108	7
109	11
110	31
112	295
114	228
116	46
117	3
118	0
121	0
123	0
125	573
126	981
127	109
128	9
129	1
130	1
139	0
140	1
141	10
142	55
143	5
144	2
145	0
152	0
153	0
156	0
157	0
158	0
159	0
165	0
167	0
171	0
209	1
226	47
227	5
228	1
