Mass Spectrum: Benzofurane-2-carboxylic acid, 3-[1-oxo-2-(1-pyrrolidinyl)ethylamino]-, methyl ester
Formula: C16H18N2O4
CAS: 309279-73-0
Molecular weight: 302
m/z	intensity
29	13
30	21
39	1
41	5
42	139
43	11
44	5
45	0
53	1
54	2
55	72
56	24
57	12
58	0
59	1
60	0
68	3
69	7
70	83
71	6
72	0
73	0
74	0
76	0
77	1
79	1
80	2
81	5
82	15
83	32
84	999
85	58
86	0
87	0
89	0
90	0
91	3
92	0
93	1
95	1
97	0
98	0
99	0
100	0
101	0
102	2
103	5
104	1
107	2
108	0
110	5
111	38
112	3
115	0
116	0
117	0
119	2
120	1
121	2
122	1
123	0
124	0
130	2
131	0
132	1
133	4
134	4
135	0
137	0
141	0
145	0
147	0
151	0
153	0
157	0
159	5
160	2
161	0
162	1
170	0
171	0
172	9
173	0
180	0
186	9
190	0
191	14
192	0
201	1
202	0
203	0
204	0
211	0
212	0
213	0
231	0
233	1
243	0
262	0
271	1
273	0
291	0
301	1
302	48
303	8
304	0
