Mass Spectrum: Ethanediamide, N-allyl-N'-(4-piperidylmethyl))-
Formula: C11H19N3O2
CAS: 309276-02-6
Molecular weight: 225
m/z	intensity
37	1
39	340
41	785
42	210
43	134
44	149
45	3
51	15
52	25
53	67
54	126
55	299
56	477
57	207
58	34
59	1
65	14
66	9
67	102
68	140
69	177
70	40
71	17
77	2
79	28
80	83
82	754
84	589
85	46
86	5
93	1
95	999
96	778
98	229
99	8
110	13
111	23
113	403
114	34
122	30
123	8
124	15
125	6
126	1
127	6
139	139
141	723
142	44
143	16
150	3
153	5
166	80
167	112
168	39
169	3
179	1
180	2
182	2
184	543
185	43
195	4
206	37
207	26
208	15
224	22
225	126
226	19
