Mass Spectrum: Pyrazolo[1,5-a]pyrimidine-2-carbohydrazide, 7-trifluoromethyl-5-(2-thienyl)-N2-cyclopropanoyl-
Formula: C16H12F3N5O2S
CAS: 309281-07-0
Molecular weight: 395
m/z	intensity
33	21
34	1
35	2
36	4
39	360
41	734
43	12
44	23
45	47
47	2
49	1
50	8
51	7
52	6
53	8
55	11
56	3
57	10
58	18
59	4
60	2
61	2
63	27
64	10
65	16
66	15
69	999
73	2
75	25
76	8
77	3
78	2
79	2
81	11
82	12
83	6
84	4
85	2
86	1
87	3
88	3
90	27
91	3
93	7
94	7
95	5
96	5
97	1
98	1
99	2
100	2
101	2
102	2
103	1
104	1
105	2
106	4
107	13
108	33
109	63
110	6
111	2
112	0
113	1
114	0
115	1
116	1
117	0
118	1
119	3
120	5
121	17
122	12
123	2
124	2
125	1
126	0
127	1
128	1
129	1
130	1
131	1
132	4
134	43
135	4
136	1
138	2
139	4
140	1
141	0
143	0
144	3
145	8
146	11
147	4
148	6
150	0
151	1
152	1
154	2
155	0
157	1
158	5
160	2
161	0
164	2
165	1
169	1
170	3
171	3
172	4
173	3
174	1
175	1
176	1
177	5
178	1
179	0
182	1
183	3
184	8
185	2
186	1
187	1
189	17
190	4
191	1
194	0
195	1
196	1
197	2
198	5
199	4
201	0
202	1
203	2
204	4
205	0
209	0
211	0
213	0
214	6
215	2
216	1
217	0
218	1
219	3
221	3
222	4
223	2
224	4
225	0
228	0
229	2
230	0
235	1
238	0
239	2
241	26
242	4
243	1
244	0
248	25
249	6
250	2
251	0
267	1
268	8
269	28
270	4
271	1
275	0
277	2
278	3
283	0
292	0
293	3
296	262
298	11
299	1
302	1
303	0
308	0
310	0
312	1
325	2
327	126
329	5
330	5
331	0
332	1
336	0
337	0
340	0
354	0
356	0
360	0
361	2
362	0
363	1
364	0
376	4
377	0
390	0
392	1
395	226
396	37
397	12
398	1
