Mass Spectrum: Propenamide, 2-(2-furfuryl)-2-(3-thenoilamino)-N-(2-furfuryl)-
Formula: C17H14N2O4S
CAS: 309286-55-3
Molecular weight: 342
m/z	intensity
33	6
34	1
39	174
41	21
42	4
43	8
44	10
45	10
50	13
51	38
52	66
53	107
54	9
55	4
57	16
58	5
59	0
60	0
61	0
62	2
63	6
64	4
65	7
66	4
68	11
69	15
70	2
71	2
72	0
74	0
75	1
76	2
78	24
79	31
81	278
83	81
84	7
85	4
86	0
89	1
91	27
92	18
94	9
96	97
97	16
98	0
103	0
105	1
107	55
108	49
111	999
113	78
114	1
115	0
116	0
117	1
118	1
119	1
120	1
121	3
122	4
123	9
124	1
125	0
127	24
128	2
130	1
131	0
133	1
134	2
135	2
136	15
137	0
140	0
145	2
146	1
147	4
148	0
149	0
152	4
153	1
157	0
158	1
159	1
160	1
161	1
162	2
163	4
164	0
165	0
170	0
171	1
172	0
173	1
174	1
175	4
176	1
177	0
179	3
185	1
186	5
187	2
188	6
189	1
190	2
191	3
192	1
193	0
200	3
201	3
202	2
203	2
204	0
205	1
206	0
207	0
213	15
214	6
215	6
216	2
217	6
218	7
219	7
220	0
228	0
229	1
230	2
231	21
232	4
233	1
243	1
245	216
246	403
247	75
248	27
249	3
250	0
254	2
255	0
256	1
257	1
258	0
259	0
261	32
262	5
263	2
274	8
275	1
280	0
295	1
296	0
298	0
299	1
307	0
312	1
313	1
315	0
324	4
325	2
326	0
340	0
342	357
343	69
344	25
345	4
346	2
347	0
