Mass Spectrum: Thiophene-2-carboxamide, N-(benzo[c]1,2,5-thiadiazol-3-yl)-
Formula: C11H7N3OS2
CAS: 309281-06-9
Molecular weight: 261
m/z	intensity
33	7
34	1
37	20
39	373
42	4
43	2
45	92
46	25
47	3
48	2
49	7
50	21
51	17
52	54
53	22
57	62
58	21
59	6
60	1
61	2
62	4
63	7
64	20
65	7
66	13
67	3
69	8
70	26
71	22
72	14
73	2
75	10
76	15
77	22
79	28
81	23
83	158
84	12
85	7
86	1
87	0
88	1
89	1
90	2
91	7
92	2
94	2
96	12
97	7
98	3
99	0
100	1
101	1
102	0
103	3
104	2
105	1
107	0
108	3
109	4
111	999
113	43
114	2
116	1
117	2
118	2
119	0
120	0
123	60
125	5
127	0
131	0
133	0
134	0
135	1
136	0
138	0
141	0
145	3
146	0
147	1
148	0
150	23
151	8
152	1
153	0
156	0
161	0
163	0
173	0
174	0
175	0
176	0
177	0
186	0
188	1
189	0
191	0
199	0
200	0
205	0
228	0
231	0
232	0
233	0
242	0
260	1
261	129
262	19
263	13
264	1
265	0
