Mass Spectrum: Piperidine-4-carboxamide, 1-(4-methylphenylsulfonyl)-
Formula: C13H18N2O3S
CAS: 309279-87-6
Molecular weight: 282
m/z	intensity
33	2
34	1
36	0
37	2
39	130
40	27
41	95
42	192
44	269
45	10
46	3
48	3
50	20
51	33
52	17
53	37
54	52
55	147
56	54
57	14
58	1
59	1
60	1
61	2
62	15
63	46
65	207
66	12
67	19
68	12
69	11
70	12
71	16
72	83
73	4
74	3
75	4
76	6
77	15
78	8
79	9
80	32
81	125
82	999
83	68
84	9
85	6
86	3
87	2
89	52
90	59
91	315
92	49
93	4
94	1
95	2
96	2
97	3
98	9
99	2
100	0
101	0
102	0
103	1
104	1
105	4
106	3
107	4
108	3
109	9
110	17
111	3
112	3
113	0
114	0
115	1
116	1
117	4
118	7
119	2
120	1
121	1
122	1
123	1
124	0
125	1
126	80
127	562
128	44
129	4
130	2
131	1
132	0
133	0
134	0
135	0
139	8
140	1
141	0
142	0
144	1
145	1
146	2
147	0
149	0
152	0
153	0
154	5
155	33
156	3
157	2
158	1
159	4
160	2
161	0
163	0
170	0
171	1
172	1
173	0
174	2
175	0
178	0
179	0
184	3
186	0
188	9
189	10
190	1
191	0
200	0
201	1
202	0
204	0
207	0
216	0
217	2
218	0
221	0
222	0
236	3
237	0
238	0
282	0
283	0
