Mass Spectrum: Furazan, 3-methyl-4-penylsulfonylamino-
Formula: C9H9N3O3S
CAS: 309288-05-9
Molecular weight: 239
m/z	intensity
33	121
34	11
35	3
36	10
37	5
38	19
40	228
41	56
42	34
44	56
45	7
46	1
48	15
50	96
51	273
53	45
54	3
55	6
56	5
57	14
58	4
59	1
60	2
61	3
62	17
63	11
64	17
65	19
66	5
67	6
68	6
69	8
70	4
71	3
72	1
74	21
75	17
77	999
78	52
79	4
80	1
81	2
82	4
83	2
84	3
85	1
86	0
87	0
89	1
90	2
91	6
92	3
93	3
94	4
95	1
97	11
98	2
99	1
100	1
102	0
103	1
104	1
105	1
106	1
107	2
108	3
109	3
110	4
111	1
112	3
113	0
114	0
115	0
117	8
118	45
119	5
120	1
121	1
123	0
125	10
126	2
127	0
128	0
129	0
131	0
134	0
137	0
141	451
142	27
143	20
144	3
145	6
146	0
148	0
157	1
158	3
160	0
161	0
168	1
171	0
173	0
175	49
176	4
180	0
182	44
183	4
184	2
193	0
209	0
238	0
239	12
240	1
241	0
