Mass Spectrum: Halcinonide
Formula: C24H32ClFO5
CAS: 3093-35-4
Molecular weight: 454
m/z	intensity
15	7
27	59
29	68
31	44
39	94
40	28
41	436
42	50
43	830
45	27
47	16
49	125
51	52
52	21
53	235
54	35
55	999
56	47
57	78
58	27
59	637
60	29
61	13
63	7
65	133
66	51
67	266
68	31
69	163
70	8
71	32
72	12
73	43
74	9
75	11
76	7
77	530
78	73
79	509
80	76
81	218
82	30
83	98
84	24
85	54
86	6
87	22
89	23
91	454
92	79
93	281
94	43
95	332
96	128
97	204
98	33
99	64
100	11
101	31
102	19
103	85
104	24
105	300
106	72
107	223
108	102
109	451
110	68
111	113
112	12
113	45
114	7
115	147
116	59
117	157
118	37
119	194
120	43
121	357
122	156
123	464
124	117
125	77
126	16
127	59
128	91
129	165
130	49
131	203
132	53
133	186
134	65
135	236
136	110
137	177
138	86
139	69
140	19
141	106
142	97
143	162
144	52
145	112
146	81
147	227
148	58
149	141
150	45
151	83
152	122
153	81
154	35
155	96
156	31
157	124
158	31
159	156
160	77
161	409
162	266
163	156
164	40
165	76
166	41
167	71
168	46
169	98
170	37
171	111
172	38
173	147
174	35
175	131
176	188
177	172
178	108
179	107
180	51
181	107
182	45
183	102
184	55
185	82
186	31
187	80
188	29
189	63
190	45
191	63
192	34
193	50
194	24
195	78
196	42
197	112
198	43
199	76
200	42
201	73
202	55
203	69
204	53
205	46
206	22
207	47
208	35
209	73
210	29
211	160
212	40
213	51
214	30
215	66
216	20
217	63
218	30
219	39
220	28
221	87
222	42
223	88
224	25
225	103
226	77
227	92
228	40
229	57
230	15
231	150
232	38
233	34
234	14
235	68
236	33
237	108
238	58
239	187
240	35
241	62
242	16
243	31
244	46
245	61
246	410
247	107
248	21
249	31
250	9
251	32
252	19
253	72
254	26
255	62
256	20
257	34
258	18
259	82
260	22
261	12
262	9
263	122
264	337
265	133
266	31
267	17
268	12
269	36
270	17
271	49
272	11
273	34
274	10
275	7
276	13
277	128
278	382
279	111
280	17
281	159
282	45
283	24
289	14
290	25
291	66
292	11
295	12
298	11
299	39
300	7
301	67
302	9
303	36
304	37
305	18
306	9
307	28
308	7
309	9
311	8
316	9
317	35
318	39
319	474
320	97
321	11
322	13
323	54
324	8
325	14
329	43
330	8
340	12
341	57
342	30
343	36
344	6
357	24
358	13
359	14
360	118
361	180
362	48
363	8
375	17
377	858
378	221
379	42
381	4
396	105
397	28
398	26
399	7
403	5
418	32
419	259
420	68
421	10
439	11
454	28
455	13
456	10
