Mass Spectrum: Glycolaldehyde dimethyl acetal
Formula: C4H10O3
CAS: 30934-97-5
Molecular weight: 106
m/z	intensity
14	4
15	86
16	2
17	1
18	2
19	3
26	4
27	13
29	141
30	17
31	298
32	11
33	28
41	1
42	15
43	233
44	19
45	273
46	6
47	203
48	4
58	5
59	17
60	5
61	2
73	4
74	12
75	999
76	33
77	4
105	1
