Mass Spectrum: 5-0xopyrrolidine-3-carboxylic acid
Formula: C5H7NO3
CAS: 30948-17-5
Molecular weight: 129
m/z	intensity
34	6
35	3
36	8
37	58
38	95
39	261
40	156
41	422
42	175
43	95
44	463
45	230
46	22
48	9
50	6
51	17
52	36
53	44
54	61
55	489
56	330
57	51
58	37
59	7
60	14
62	1
63	7
64	49
65	19
66	17
67	19
68	126
69	260
70	173
71	43
72	111
73	191
74	19
82	71
83	285
84	133
85	81
86	4
87	999
88	174
89	6
99	3
100	67
101	478
102	15
103	10
111	21
112	40
113	12
114	2
129	174
130	14
131	3
