Mass Spectrum: 3-Pyrazolin-5-one, 2,3-dimethyl-1-phenyl-4-(salicylideneamino)-
Formula: C18H17N3O2
CAS: 30957-66-5
Molecular weight: 307
m/z	intensity
38	10
39	30
40	7
41	10
42	16
43	19
44	5
51	121
52	24
53	11
54	32
56	999
57	25
62	8
63	29
64	49
65	51
66	11
67	21
68	5
69	3
74	5
75	11
77	245
78	37
79	5
81	3
82	5
83	12
84	4
89	6
91	99
92	16
93	20
94	7
95	10
96	4
102	9
103	14
104	36
105	29
106	7
107	12
108	2
115	10
116	5
117	9
118	13
119	57
121	343
122	23
123	8
128	3
129	6
130	14
131	15
132	38
133	11
134	26
135	3
143	10
144	8
145	15
146	16
147	3
152	3
154	76
156	11
157	21
158	16
159	25
160	21
161	3
169	5
171	59
172	9
173	31
174	5
185	9
186	30
187	80
188	308
189	42
190	3
195	2
196	37
197	32
198	21
199	3
212	2
213	30
214	102
215	258
216	35
217	3
223	4
230	7
264	4
265	6
275	3
278	5
279	23
280	10
289	4
290	10
292	10
304	2
307	721
308	127
309	15
