Mass Spectrum: 8-Nonynoic acid
Formula: C9H14O2
CAS: 30964-01-3
Molecular weight: 154
m/z	intensity
12	4
13	5
14	20
15	90
16	10
17	50
18	100
19	10
20	1
24	2
25	10
26	150
27	900
28	300
29	640
30	20
31	140
32	4
33	1
34	1
35	1
36	3
37	70
38	200
39	990
40	350
41	990
42	390
43	400
44	20
45	850
46	20
47	10
48	2
49	10
50	190
51	190
52	200
53	650
54	840
55	999
56	100
57	90
58	30
59	70
60	640
61	50
62	40
63	90
64	10
65	200
66	120
67	830
68	330
69	600
70	80
71	200
72	10
73	370
74	40
75	10
76	5
77	190
78	60
79	820
80	180
81	600
82	100
83	70
84	60
85	20
86	20
87	20
88	20
89	4
90	2
91	100
92	40
93	280
94	870
95	500
96	70
97	130
98	30
99	30
100	30
101	7
102	2
103	3
104	1
105	7
106	2
107	30
108	150
109	80
110	10
111	50
112	40
113	30
114	90
115	30
116	3
117	5
118	8
119	4
120	1
121	50
122	5
123	2
124	1
125	20
126	20
127	3
128	1
129	1
131	1
133	1
134	1
135	9
136	20
137	7
138	2
139	26
140	2
141	1
142	1
152	1
153	2
154	3
155	1
156	1
