Mass Spectrum: 1,2,4-Triazaspiro[4.5]decane-3-thione, 8-tert-butyl-2-(4-chlorophenyl)-
Formula: C17H24ClN3S
CAS: 309741-07-9
Molecular weight: 337
m/z	intensity
33	12
34	8
35	3
36	22
37	5
38	21
39	152
40	98
41	689
42	92
43	231
44	102
45	22
46	7
47	4
48	4
49	3
50	27
51	38
52	16
53	110
54	119
55	286
57	999
58	60
59	82
60	27
61	9
62	14
63	48
64	25
65	40
66	24
67	181
68	34
69	162
70	45
71	32
72	18
73	18
74	12
75	75
76	22
77	87
78	24
79	104
80	39
81	252
82	112
83	96
84	37
85	20
86	8
87	5
88	4
89	16
90	78
91	45
92	17
93	44
94	79
95	141
96	164
97	38
98	26
99	79
100	27
101	63
102	17
103	8
104	10
105	23
106	17
107	24
108	35
109	30
111	231
112	43
113	60
114	13
115	12
116	6
117	11
118	9
119	9
120	7
121	15
122	20
123	19
124	22
125	99
126	178
127	302
128	108
129	92
130	19
131	23
132	17
133	8
134	7
135	12
136	37
137	88
138	126
139	46
140	84
141	53
142	106
143	36
144	39
145	21
146	5
147	0
148	4
149	29
150	82
151	28
152	114
153	40
154	43
155	17
156	13
157	14
158	13
159	24
160	7
161	3
162	2
163	2
164	8
165	14
166	13
167	21
168	13
169	32
170	30
171	25
172	5
177	9
178	10
179	44
180	12
181	16
182	4
183	7
184	11
185	162
186	27
187	28
188	4
189	7
190	4
191	4
192	7
193	165
194	51
195	62
196	235
197	34
198	12
199	2
200	0
202	0
203	1
204	11
205	2
206	11
207	8
208	3
209	2
210	3
211	4
213	1
219	3
220	6
221	28
222	8
223	11
224	12
225	78
227	42
228	4
234	1
235	4
236	4
237	8
238	294
239	37
240	105
241	14
242	7
243	13
244	3
246	3
248	1
249	1
250	1
261	2
262	4
263	44
264	9
265	13
266	6
275	2
276	10
277	42
278	536
279	117
280	223
281	35
282	18
283	3
305	3
307	0
320	2
321	0
322	8
324	1
336	3
337	199
338	37
339	71
340	12
341	2
