Mass Spectrum: Propanamide, 3-(4-methyl-1-piperidyl)-N-(2-thiazolyl)-
Formula: C12H19N3OS
CAS: 309740-39-4
Molecular weight: 253
m/z	intensity
29	9
30	14
31	1
32	1
39	4
40	1
41	45
42	62
43	16
44	33
45	12
46	0
53	3
54	6
55	51
56	30
57	15
58	11
59	2
60	0
65	0
67	8
68	2
69	9
70	13
71	4
72	0
73	1
74	0
79	0
80	0
81	2
82	10
83	5
84	18
85	2
86	7
88	0
91	1
92	1
93	0
94	2
95	2
96	13
97	24
98	99
99	27
100	43
101	123
102	4
103	1
106	0
108	0
109	0
110	84
111	87
112	999
113	168
114	7
115	1
116	0
123	0
124	10
125	100
126	35
127	40
128	2
129	0
136	0
137	1
142	1
149	0
151	0
152	25
153	259
154	28
155	31
156	4
157	0
158	1
184	0
196	0
252	0
253	18
254	10
255	2
256	0
