Mass Spectrum: Ethanone, 1-(5-methoxy-2-methyl-3-benzofuryl)-2-(4-methyl-1-piperazinyl)-
Formula: C17H22N2O3
CAS: 309727-84-2
Molecular weight: 302
m/z	intensity
36	11
38	3
41	11
42	38
43	43
44	3
54	9
55	8
56	21
57	7
58	8
62	0
63	3
64	3
67	1
70	279
72	7
74	0
75	1
76	4
77	4
79	3
80	0
82	14
83	6
84	3
88	0
89	14
90	14
91	4
93	0
96	2
97	26
98	46
99	40
100	3
102	8
103	10
104	2
105	0
107	1
113	999
114	50
116	0
117	6
118	26
119	2
131	5
132	20
133	19
134	2
144	1
145	2
146	6
147	1
149	0
157	2
158	1
159	7
160	24
161	13
162	2
168	0
170	0
171	0
172	1
174	48
175	73
176	10
186	1
187	1
188	12
189	121
190	13
191	1
192	1
198	1
201	1
204	13
205	1
206	1
210	0
211	1
214	2
230	0
235	0
238	2
239	4
240	2
244	1
245	3
252	2
253	8
255	12
258	0
267	8
269	7
282	0
286	0
299	1
300	9
302	779
303	138
304	17
305	0
