Mass Spectrum: 1-Piperazinecarboxylic acid, 4-(2-furanylcarbonyl)-, ethyl ester
Formula: C12H16N2O4
CAS: 309726-32-7
Molecular weight: 252
m/z	intensity
33	13
37	34
39	371
42	373
43	62
44	60
45	10
49	0
50	4
51	19
53	38
54	42
56	713
57	65
58	52
66	21
67	63
69	219
70	96
72	40
73	7
74	4
77	2
78	1
79	4
81	75
82	30
83	33
84	50
85	78
86	4
87	4
88	3
92	1
95	999
96	39
97	10
98	11
100	41
101	9
102	4
103	0
106	2
107	10
109	64
110	19
111	20
113	22
115	32
116	56
119	2
120	4
122	24
124	87
125	11
126	1
128	138
129	32
130	2
135	7
137	88
138	33
139	7
141	60
142	9
143	13
144	1
150	44
151	14
152	3
153	0
155	9
157	107
158	5
159	1
162	0
163	35
164	4
165	5
167	2
168	0
169	0
171	14
178	6
179	13
180	2
181	1
182	1
184	66
185	8
186	2
187	0
193	0
195	0
197	0
201	0
206	103
207	38
208	6
209	5
223	12
224	0
235	0
237	50
238	4
241	0
250	3
252	304
253	36
254	3
