Mass Spectrum: Hexanamide, 2-butyl-2-hydroxy-N-(2-pyridyl)-
Formula: C15H24N2O2
CAS: 309725-49-3
Molecular weight: 264
m/z	intensity
33	2
37	0
39	46
41	148
43	79
45	18
46	0
50	1
51	19
52	7
53	9
55	92
57	82
58	17
59	11
60	0
63	0
64	1
65	5
67	88
69	163
71	12
73	12
76	0
78	69
79	6
81	6
83	42
85	18
87	20
88	0
89	0
91	1
94	999
95	126
96	5
97	1
98	0
99	0
100	1
101	0
105	2
107	1
108	0
109	0
111	0
113	2
114	0
115	0
119	1
121	27
122	115
123	21
124	0
131	0
132	0
133	0
135	0
136	0
137	0
141	0
143	98
144	6
145	0
147	1
148	0
149	1
150	0
151	0
157	2
158	0
161	1
162	0
163	0
164	0
165	3
166	0
173	0
175	0
177	0
179	0
189	0
203	0
207	7
208	12
209	1
217	0
219	0
221	0
222	0
236	1
245	0
247	0
263	0
264	4
265	1
