Mass Spectrum: 1-Piperidineacetamide, N-[5-chloro-2-(4-fluorobenzoyl)-3-benzofuranyl]-
Formula: C22H20ClFN2O3
CAS: 309731-75-7
Molecular weight: 414
m/z	intensity
33	8
35	1
36	16
38	2
39	10
41	57
42	49
43	15
44	22
45	2
46	0
50	1
51	2
52	1
53	3
55	42
56	9
57	3
58	0
59	0
63	1
65	2
67	2
68	9
69	20
70	27
71	1
73	2
75	14
76	2
77	3
78	1
79	0
80	1
81	1
82	2
84	50
85	3
86	1
87	1
88	0
89	0
91	4
92	1
95	64
96	22
98	999
99	49
100	3
102	6
103	1
104	0
105	1
106	5
107	8
108	3
109	3
110	2
111	1
112	1
113	0
115	4
116	0
117	0
118	1
119	4
120	7
121	3
123	80
125	94
126	5
127	0
128	0
129	0
130	0
131	0
132	1
133	1
134	2
136	9
137	5
138	3
139	2
140	0
142	0
143	0
144	0
145	1
146	0
147	2
148	3
149	1
150	1
151	0
152	0
156	0
157	0
159	0
160	0
161	2
162	1
164	8
165	1
166	3
167	0
168	1
169	1
170	3
171	1
173	0
174	0
175	1
176	2
177	1
178	0
179	1
180	1
181	2
182	1
183	1
185	1
186	0
188	1
189	1
190	3
191	2
192	1
193	2
194	1
195	3
196	5
197	4
198	1
203	0
204	1
205	1
206	3
207	1
208	3
209	1
210	0
211	0
213	0
214	0
217	3
218	0
220	24
221	2
222	7
223	1
224	1
225	9
226	1
231	3
232	10
233	2
234	3
235	0
236	0
237	1
238	0
239	0
242	0
246	1
247	0
252	0
253	2
254	1
255	0
256	0
257	0
259	6
260	3
261	4
262	1
263	0
267	0
268	0
269	0
270	0
272	2
273	0
274	3
275	0
276	0
283	0
286	0
287	5
288	29
289	16
290	12
291	8
292	1
293	1
296	0
300	0
301	0
302	1
304	2
314	1
315	0
316	7
317	1
318	2
319	0
323	3
324	0
330	0
331	1
332	0
333	0
336	0
337	0
338	14
339	3
340	0
350	0
356	0
370	0
380	1
381	0
412	0
413	1
414	65
415	17
416	22
417	5
418	0
