Mass Spectrum: Pyrrol-2(5H)-one, 4-acetyl-5-(4-fluorophenyl)-3-hydroxy-1-[2-(1-piperazinyl)ethyl]-
Formula: C18H22FN3O3
CAS: 309724-51-4
Molecular weight: 347
m/z	intensity
33	10
38	4
42	322
44	69
45	19
46	7
50	3
51	4
56	264
57	27
58	19
59	0
60	0
63	2
65	1
66	0
67	6
70	152
71	9
72	6
74	3
75	7
76	2
77	3
78	0
80	1
81	3
84	47
85	10
87	0
89	0
91	0
93	1
95	14
99	999
101	10
102	1
103	1
104	0
105	4
107	2
108	3
109	9
110	4
112	21
113	6
114	0
115	1
119	2
120	22
122	11
123	6
124	1
125	1
127	2
133	6
135	5
136	1
140	0
145	0
146	4
147	3
149	47
150	4
151	0
152	0
161	0
162	1
163	1
164	1
166	0
177	0
189	0
191	11
193	1
203	2
204	0
205	0
207	0
218	0
219	1
220	0
229	2
247	0
262	2
263	0
289	0
305	1
317	0
345	0
347	22
348	3
