Mass Spectrum: Carbamic acid, N-(1,4-dihydro-1-benzyl-4-quinolinylidene)-, ethyl ester
Formula: C19H18N2O2
CAS: 309734-84-7
Molecular weight: 306
m/z	intensity
34	3
36	1
37	0
38	3
39	21
40	52
41	12
42	3
43	9
44	20
45	2
50	2
51	11
52	3
53	0
55	3
56	1
57	3
58	0
60	0
62	4
63	14
65	95
66	4
67	0
68	0
69	1
70	0
71	1
73	0
74	0
75	1
76	1
77	4
78	2
79	0
81	0
83	1
87	0
88	8
89	21
91	999
92	59
93	3
102	2
103	1
104	0
106	0
112	0
114	7
115	10
116	6
117	2
118	0
119	3
127	0
128	1
129	0
130	0
132	2
140	0
141	3
142	9
143	4
144	1
149	0
152	0
155	1
156	0
157	0
159	0
160	2
169	2
170	2
171	3
172	0
183	2
187	0
188	0
204	0
206	0
208	0
209	3
210	0
216	1
229	1
230	1
231	2
232	1
233	3
234	3
238	2
259	0
261	44
262	6
263	0
277	2
278	3
294	1
298	0
303	0
304	2
306	186
307	35
308	4
