Mass Spectrum: Indole-2,3-dione, 2,3-dihydro-1-(perhydro-1,3-oxazin-3-yl)methyl-
Formula: C13H14N2O3
CAS: 309731-12-2
Molecular weight: 246
m/z	intensity
33	10
34	0
36	0
37	1
39	25
41	143
42	199
43	23
44	6
45	6
50	14
51	27
53	3
54	3
55	5
58	438
61	1
63	11
64	6
65	4
66	3
68	8
70	180
73	0
74	3
77	77
78	6
79	0
80	0
83	0
86	47
88	1
90	16
91	3
92	6
93	1
94	0
95	0
100	999
103	4
104	10
105	10
106	0
109	0
116	0
117	0
119	11
120	0
128	0
129	1
130	3
132	77
134	0
144	0
146	11
147	6
148	0
149	0
159	1
160	5
161	3
162	0
173	0
177	0
187	1
188	2
189	0
246	14
247	1
248	0
