Mass Spectrum: Thiophene-2-carboxamide, N-[1-(4,5,6,7-tetrahydro-3-cyano-2-benzothienylamino)-2,2,2-trifluoro-1-trifluoromethyl)ethyl]-
Formula: C17H13F6N3OS2
CAS: 309731-56-4
Molecular weight: 453
m/z	intensity
33	9
34	0
36	0
37	15
39	371
41	41
42	3
44	35
45	76
46	9
47	10
48	2
49	5
50	20
51	33
52	19
53	23
54	4
55	2
57	64
58	37
59	17
60	4
61	5
63	16
64	21
65	26
66	8
67	5
69	141
70	11
71	14
72	2
73	1
74	4
76	28
77	23
78	22
79	16
80	6
81	25
83	148
84	23
85	12
86	0
87	1
88	9
89	25
90	19
91	17
92	11
93	8
94	16
95	15
96	11
97	5
98	0
100	1
101	1
102	4
103	3
104	6
105	4
106	8
107	4
108	10
109	19
111	999
112	55
113	44
114	7
116	51
117	21
118	5
119	2
120	2
121	10
122	39
123	8
124	1
125	1
126	6
127	58
128	50
129	7
130	3
131	4
133	4
134	33
135	9
136	5
137	2
138	0
140	1
141	3
143	40
144	12
145	4
146	7
147	10
148	10
150	97
152	12
153	0
154	0
158	5
159	11
160	37
161	17
162	14
163	3
171	0
172	0
173	1
175	11
177	63
178	116
179	15
180	4
182	0
185	2
186	0
187	5
188	3
190	1
191	0
196	0
202	1
204	1
207	1
209	12
210	1
211	1
227	1
229	26
230	2
235	3
237	3
245	3
248	3
253	0
254	1
256	3
257	44
258	5
259	1
272	3
274	0
276	1
285	6
287	3
288	26
289	2
290	1
291	0
293	6
294	12
295	12
296	13
298	181
299	18
300	6
305	0
307	15
308	0
311	1
320	1
321	12
322	19
323	29
325	86
326	290
327	45
328	12
448	12
449	15
450	17
451	27
452	33
453	169
454	31
455	12
