Mass Spectrum: Methanone, [3-amino-4-(methoxymethyl)-6-methylthieno[2,3-b]pyridin-2-yl](4-methylphenyl)-
Formula: C18H18N2O2S
CAS: 309740-80-5
Molecular weight: 326
m/z	intensity
33	5
36	1
37	1
38	12
39	157
40	50
41	77
42	35
43	30
44	23
45	114
46	4
47	2
50	19
51	63
52	32
53	24
54	9
55	19
56	8
57	26
58	7
59	4
60	7
61	3
62	16
63	75
64	49
65	343
66	29
67	12
68	10
69	33
70	21
71	20
72	11
73	4
74	6
75	15
76	31
77	80
78	36
79	18
80	6
81	9
82	12
83	15
84	14
85	4
86	1
87	5
88	7
89	80
91	884
92	67
93	21
94	12
95	23
96	10
97	10
98	9
99	1
102	28
103	28
104	61
105	44
106	12
107	9
108	12
109	14
110	6
111	9
112	14
113	7
114	5
115	16
116	20
117	27
119	999
120	96
122	17
123	9
124	5
125	10
126	7
127	5
128	2
129	12
130	10
131	62
132	50
133	37
134	33
135	49
136	35
137	9
138	4
139	10
140	6
141	8
142	14
143	3
145	6
146	21
147	30
148	34
149	43
150	14
151	5
152	6
153	1
154	2
155	3
159	6
160	5
161	13
163	141
164	60
165	17
166	5
167	7
168	0
169	0
171	4
173	7
174	22
175	109
176	20
177	21
178	5
179	3
180	2
189	0
190	7
191	8
192	22
193	5
194	3
195	1
196	0
197	0
201	5
202	0
203	61
204	11
205	8
206	5
207	17
208	8
209	4
210	3
211	0
212	0
216	1
217	9
219	419
220	46
221	24
222	5
223	6
224	5
225	2
226	0
231	2
232	3
233	10
234	7
235	24
236	7
237	6
238	5
239	2
249	25
250	13
251	20
252	17
253	6
254	1
262	1
263	6
264	7
265	36
266	12
267	4
276	0
277	8
278	7
279	29
280	7
281	13
282	2
283	0
290	0
291	8
293	405
294	111
295	99
296	20
297	7
307	1
309	15
311	246
312	45
313	14
321	6
322	14
323	21
325	627
326	955
327	202
328	58
329	8
