Mass Spectrum: 1,3,5-Triazine, 2-tert-butylamino-6-chloro-4-cyclohexylamino-
Formula: C13H22ClN5
CAS: 309736-14-9
Molecular weight: 283
m/z	intensity
33	18
35	18
36	93
37	68
39	526
41	999
42	305
43	391
44	60
45	4
46	1
47	0
49	12
50	73
51	86
53	208
55	475
56	302
57	199
58	53
59	3
60	4
62	72
64	35
65	16
67	94
68	357
69	108
70	36
71	9
72	7
74	23
75	12
77	77
78	318
79	118
81	195
83	329
84	18
85	6
87	29
89	16
90	3
91	17
93	43
94	72
95	35
96	17
98	160
99	18
100	4
102	3
104	180
106	126
107	22
108	56
109	28
110	65
111	9
112	43
114	12
115	2
117	16
119	34
120	14
121	17
122	15
123	30
124	8
125	9
126	1
127	2
129	28
130	35
131	12
132	12
134	39
135	11
136	10
137	4
138	2
139	1
140	1
142	5
144	28
146	904
148	321
149	21
150	21
151	3
152	3
153	0
154	1
155	6
156	2
157	6
158	19
159	48
160	14
161	12
162	6
163	2
164	3
165	6
166	31
167	8
169	13
170	145
172	96
173	11
174	13
175	3
176	4
177	1
178	0
180	0
181	2
182	4
183	8
184	149
185	30
186	270
187	25
188	73
189	8
190	6
191	7
192	42
193	6
194	1
195	3
196	6
198	60
199	18
200	52
201	311
202	162
203	110
204	51
205	6
206	0
207	2
208	0
209	2
210	22
211	5
212	51
213	8
214	18
215	5
216	1
217	1
218	0
220	0
221	0
222	0
224	8
225	16
226	109
227	213
228	74
229	70
230	15
231	1
232	2
233	0
234	1
238	2
239	1
240	26
241	9
242	12
243	3
244	1
246	0
247	1
248	24
249	5
250	0
252	0
254	12
255	2
256	4
257	2
263	0
264	1
265	2
266	12
268	374
269	58
270	116
271	17
272	0
274	0
277	0
279	0
280	4
282	31
283	285
284	53
285	96
286	14
287	0
