Mass Spectrum: 3H-Pyridazino[4,3-b]indol-3-one, 2,5-dihydro-5-benzyl-2-(4-fluorophenyl)-
Formula: C23H16FN3O
CAS: 309731-78-0
Molecular weight: 369
m/z	intensity
33	45
34	1
39	35
40	12
41	10
43	3
44	11
45	0
51	30
52	5
53	0
55	1
57	7
62	3
63	22
65	79
66	3
69	3
70	2
71	0
75	40
76	12
77	10
78	2
83	37
84	1
85	0
86	1
87	3
89	24
91	999
92	56
93	3
95	79
96	4
97	0
100	8
102	22
103	7
104	2
105	1
106	1
107	1
108	2
110	35
111	2
112	0
114	25
115	4
116	1
117	0
118	0
122	149
123	9
124	0
126	0
127	20
129	28
130	1
133	0
137	1
139	1
140	2
141	8
142	0
150	2
151	0
152	1
153	0
157	0
158	0
159	0
161	1
163	1
164	0
165	1
167	0
168	0
169	8
170	0
171	0
175	1
176	1
177	0
178	0
181	0
182	0
183	1
185	4
187	0
189	6
190	4
191	2
194	0
195	1
196	0
201	0
202	0
203	1
204	1
205	1
210	0
214	2
215	2
216	15
217	28
218	5
219	1
220	1
221	1
222	1
223	0
229	2
230	2
231	3
232	0
235	0
237	0
244	1
245	0
246	0
248	0
249	0
250	3
251	0
259	1
264	1
277	2
278	2
279	0
340	1
341	1
343	0
350	3
351	1
368	16
369	167
370	44
371	5
