Mass Spectrum: Acetic acid, (4,6,8,9-tetramethyl-3-oxabicyclo[3.3.1]non-6-en-1-yl)methyl ester
Formula: C15H24O3
CAS: 309722-81-4
Molecular weight: 252
m/z	intensity
33	0
34	7
39	58
40	28
41	230
42	52
43	999
44	29
45	1
51	19
52	2
53	95
54	2
55	77
57	31
59	7
65	20
67	65
69	19
71	0
73	13
74	2
77	132
78	18
79	44
80	1
81	33
82	18
83	54
84	4
85	7
91	238
92	50
93	86
94	42
95	18
97	11
102	0
103	9
104	4
105	241
106	190
107	151
108	31
109	4
115	1
117	4
118	9
119	307
120	244
121	122
123	28
124	7
125	3
131	34
132	5
133	958
134	242
135	120
136	9
145	1
146	53
147	38
148	145
149	78
150	5
161	256
162	42
163	26
177	2
192	40
252	27
