Mass Spectrum: 1,2,4-Triazolo[3,4-a]phthalazin-6-amine, N-benzyl-3-(1,1,2,2,2-pentafluoroethyl)-
Formula: C18H12F5N5
CAS: 309741-28-4
Molecular weight: 393
m/z	intensity
33	14
34	12
36	1
38	8
39	62
40	25
41	19
42	3
43	12
44	78
50	20
51	52
52	14
53	3
55	1
57	3
61	1
62	13
63	28
64	16
65	128
66	7
69	14
74	3
75	24
76	24
77	51
78	20
79	46
80	2
81	0
82	5
84	2
86	1
87	5
88	22
89	44
91	999
92	68
93	2
96	14
97	1
100	1
101	9
102	88
103	13
104	76
105	32
106	164
107	11
109	18
110	16
113	4
114	20
115	11
116	5
117	2
118	0
119	3
123	7
124	0
126	0
127	0
128	10
129	65
130	6
131	6
140	2
141	4
142	1
144	1
145	14
146	0
149	0
152	2
162	22
163	2
164	2
165	2
167	0
171	49
172	4
177	22
187	8
189	1
190	11
191	59
192	8
194	4
205	1
206	1
217	3
218	20
219	105
220	24
221	6
232	10
233	1
234	1
239	0
241	53
242	4
244	10
246	39
247	10
248	1
253	17
254	2
255	4
259	2
263	2
264	0
267	4
269	7
274	4
276	4
289	764
290	99
291	5
296	5
316	6
322	10
324	6
343	0
364	2
365	3
372	8
374	84
375	17
376	0
377	2
392	296
393	899
394	208
395	19
