Mass Spectrum: 1H-Pyrazolo[3,4-b]pyridine, 4,6-bis(trifluoromethyl)-3-methyl-1-phenyl-
Formula: C15H9F6N3
CAS: 309735-37-3
Molecular weight: 345
m/z	intensity
33	20
34	7
38	37
39	148
40	124
42	64
44	43
45	0
50	98
51	630
52	35
53	3
55	1
56	3
57	9
62	17
63	85
64	55
65	62
66	4
69	165
70	2
74	31
75	92
77	999
78	123
79	7
80	1
81	6
82	11
83	1
87	7
88	15
89	19
90	25
91	42
92	7
93	8
94	5
95	6
96	5
99	15
100	18
101	10
102	29
103	27
104	26
105	14
106	16
107	7
108	5
109	1
111	0
113	26
114	15
115	7
116	11
117	11
118	14
119	6
120	6
121	4
122	0
123	7
124	14
125	11
126	11
127	12
128	14
129	7
130	9
131	5
132	17
133	6
134	6
137	7
138	14
139	16
140	8
141	1
142	7
143	15
144	14
145	6
146	4
147	2
148	5
150	11
151	12
152	17
153	15
155	21
156	16
157	3
158	10
162	28
163	29
164	5
165	11
166	17
167	3
168	1
169	2
170	19
171	8
173	68
175	2
176	1
177	3
178	3
179	7
180	3
181	4
182	5
183	6
184	3
185	11
187	0
188	9
189	27
190	18
191	3
192	2
193	0
194	7
195	13
196	7
197	4
198	2
199	1
200	3
201	5
202	10
203	4
204	5
205	3
206	17
207	17
208	17
209	8
210	8
211	5
212	1
213	7
214	32
215	73
216	13
217	1
218	1
219	6
220	22
221	13
222	7
223	5
224	1
226	10
227	11
228	10
229	6
230	1
233	5
234	17
235	57
236	16
237	2
238	3
239	6
240	6
241	11
242	3
245	5
246	4
247	8
248	10
249	6
252	3
253	2
254	11
255	8
256	8
257	1
258	1
259	1
260	6
261	11
263	2
264	5
265	17
266	5
268	13
270	1
274	5
275	6
276	5
277	2
278	3
279	1
280	5
283	8
284	53
285	11
286	2
292	6
293	31
294	3
297	1
298	0
303	5
304	208
305	39
306	5
310	8
311	1
317	15
318	2
323	3
324	49
325	8
326	43
327	6
329	1
330	91
331	12
344	54
345	472
346	83
347	5
