Mass Spectrum: Furazano[3,4-b]pyrazine-5,6-diamine, N-cyclohexyl-N'-(3,4-dimethylphenyl)-
Formula: C18H22N6O
CAS: 309731-57-5
Molecular weight: 338
m/z	intensity
33	4
37	1
38	11
39	216
41	637
43	136
45	2
50	10
51	28
52	29
53	108
55	999
57	30
62	9
63	24
65	79
66	41
67	159
68	53
69	39
70	7
72	0
75	10
77	314
79	303
81	225
82	86
83	103
84	6
86	0
87	2
88	5
89	40
91	118
93	30
94	30
95	31
96	47
97	63
98	63
99	3
101	7
102	34
103	145
105	459
106	75
108	21
109	7
110	5
112	2
115	1
116	111
117	31
118	29
119	24
121	480
122	41
123	31
125	15
126	7
128	12
129	12
130	40
131	87
132	219
133	28
134	9
135	15
137	3
138	5
140	7
141	5
142	9
143	16
145	69
146	42
147	89
148	15
150	11
151	0
153	2
156	39
157	78
158	34
159	27
160	45
162	9
163	4
165	3
166	0
167	2
168	5
169	14
170	37
172	129
173	23
174	17
175	5
177	6
181	2
182	15
184	81
185	21
186	9
187	8
188	4
189	1
191	10
195	11
196	8
197	25
198	22
199	37
200	21
201	64
202	11
203	2
208	6
209	12
210	75
211	25
212	8
213	6
214	1
215	1
216	0
217	0
218	23
219	1
221	2
222	6
223	19
224	35
225	39
226	25
227	10
228	0
229	1
233	4
235	9
236	6
237	11
238	19
239	23
241	289
242	132
243	14
249	1
250	5
251	6
252	25
254	21
255	95
256	56
257	40
258	2
262	1
263	3
264	10
265	4
266	1
268	6
269	13
271	2
276	1
278	5
279	2
280	10
281	57
282	18
283	3
288	0
291	12
293	3
294	6
295	37
296	4
304	4
307	8
308	8
317	1
321	0
323	3
333	2
334	4
335	2
338	564
339	92
