Mass Spectrum: Benzothiophene-3-carboxylic acid, 4,5,6,7-tetrahydro-2-[2,2,2-trifluoro-1-trifluoromethyl-1-(2-methyl-1-oxopropylaminoethyl]amino-, methyl ester
Formula: C17H20F6N2O3S
CAS: 309731-50-8
Molecular weight: 446
m/z	intensity
33	124
39	38
40	74
41	321
43	999
44	73
45	26
51	17
52	2
54	6
55	9
58	8
59	19
65	22
66	5
69	21
70	47
71	217
72	6
77	29
79	16
80	6
82	1
85	1
88	20
89	7
91	26
93	5
96	11
97	3
110	6
111	4
116	13
117	8
121	2
122	17
123	19
124	2
125	2
134	11
135	2
136	7
144	4
149	2
151	42
160	1
177	21
178	58
179	59
180	10
208	3
210	21
211	63
230	15
231	2
246	11
258	2
262	3
274	10
275	19
282	2
290	15
297	12
299	166
300	23
301	8
324	6
325	14
326	42
327	185
328	39
329	9
345	7
354	5
356	2
357	18
358	30
359	216
360	30
441	5
442	11
444	16
445	40
446	162
447	19
