Mass Spectrum: Benzoxazole, 6-ethylsulfonyl-2-(4-nitrobenzylthio)-
Formula: C16H14N2O5S2
CAS: 309741-76-2
Molecular weight: 378
m/z	intensity
34	1
35	0
37	6
38	48
39	145
40	68
41	19
42	5
43	20
44	20
45	47
46	7
47	2
48	5
49	7
50	65
51	160
52	77
53	15
54	11
55	14
56	2
57	14
58	5
59	13
60	2
61	20
62	87
63	342
64	121
65	31
66	9
67	4
69	40
70	56
71	14
72	4
73	0
74	7
75	27
76	46
77	564
78	999
79	128
80	10
82	28
83	32
84	10
85	7
86	16
87	11
89	575
90	516
91	92
92	11
93	18
94	39
95	47
96	13
97	5
98	2
102	5
103	1
104	7
106	594
107	48
108	10
109	22
110	12
111	11
112	4
113	0
114	1
115	3
116	1
118	1
120	232
121	165
122	57
123	11
124	1
125	0
126	3
127	5
128	2
129	0
133	2
134	6
136	970
137	86
138	83
139	21
140	9
141	14
148	2
149	29
150	28
151	22
152	19
153	8
154	3
163	0
164	3
166	218
167	37
168	13
169	3
170	2
171	5
177	5
178	10
179	8
180	3
181	0
182	3
183	0
184	2
193	1
197	5
198	16
199	1
206	4
209	0
210	7
211	2
212	2
213	0
214	3
224	31
225	3
226	2
238	4
239	7
240	1
242	9
243	11
244	1
252	2
253	0
255	1
256	2
267	1
285	11
286	4
299	23
300	2
301	1
328	1
332	3
333	1
345	25
346	3
349	3
350	1
362	0
378	325
379	58
380	32
381	3
