Mass Spectrum: Butan-1-one, 1-[4-(2-fluoro-4-nitrophenyl)-1-piperazinyl]-
Formula: C14H18FN3O3
CAS: 309740-00-9
Molecular weight: 295
m/z	intensity
33	3
34	1
36	0
37	1
38	5
39	51
40	36
41	260
42	201
43	773
44	84
45	5
46	3
47	0
50	13
51	15
52	8
53	6
54	48
55	114
56	999
57	159
58	33
59	9
60	2
61	1
62	3
63	10
64	3
65	3
66	2
67	3
68	22
69	115
70	84
71	228
72	13
73	5
74	6
75	38
76	19
77	8
78	5
79	1
80	3
81	14
82	12
83	23
84	22
85	283
86	17
87	4
88	2
89	6
90	4
91	2
92	2
93	10
94	52
95	48
96	30
97	6
98	73
99	41
100	71
101	13
102	22
103	5
104	4
105	2
106	2
107	18
108	30
109	16
110	12
111	12
112	98
113	221
114	50
115	4
116	4
117	2
118	2
119	1
120	6
121	57
122	35
123	30
124	15
125	7
126	13
127	4
128	2
129	1
130	2
131	1
132	1
133	1
134	4
135	14
136	18
137	54
138	36
139	9
140	7
141	4
142	0
143	0
144	0
145	0
146	0
147	2
148	13
149	55
150	16
151	27
152	22
153	14
154	25
155	9
156	3
157	1
158	1
159	1
160	1
161	2
162	4
163	4
164	8
165	16
166	22
167	69
168	40
169	16
170	8
171	1
172	0
173	0
174	0
175	1
176	5
177	14
178	80
179	129
180	15
181	5
182	86
183	262
184	27
185	2
186	0
188	2
189	1
190	1
191	1
192	3
193	5
195	580
196	90
197	19
198	3
199	0
202	0
203	0
204	2
205	41
206	13
207	10
208	54
209	10
210	38
211	4
212	0
219	0
220	0
221	0
222	2
223	13
224	125
225	24
226	7
227	1
228	0
229	0
232	1
233	0
234	0
235	0
236	0
237	0
238	1
239	3
240	0
247	0
248	0
249	0
250	0
252	38
253	15
254	1
263	1
264	0
265	6
266	7
267	4
268	0
275	13
276	2
277	0
278	2
279	2
280	45
281	7
282	0
293	1
295	176
296	28
297	3
