Mass Spectrum: Naphthalene-1-carboxylic acid, 2-benzoylaminoethyl ester
Formula: C20H17NO3
CAS: 309741-30-8
Molecular weight: 319
m/z	intensity
34	5
36	2
37	0
38	3
39	10
40	73
41	6
42	12
43	10
44	28
45	1
50	26
51	91
52	8
53	2
54	0
55	3
56	2
57	4
58	0
62	3
63	15
65	4
66	0
68	0
69	1
70	4
71	2
73	0
74	12
75	25
76	29
77	382
78	26
79	2
80	0
81	0
82	0
83	1
84	0
85	0
86	2
87	4
88	1
89	3
90	2
91	5
92	1
93	0
94	0
95	0
96	0
98	3
99	3
100	3
101	24
102	4
103	3
105	999
106	71
107	4
108	0
109	0
110	0
111	0
112	1
113	1
114	2
115	8
117	26
118	4
119	11
120	1
121	1
122	2
123	0
124	0
125	7
126	68
127	434
128	65
129	7
130	1
134	29
135	4
136	0
139	0
140	0
141	1
142	0
143	0
144	1
145	1
146	12
147	99
148	219
149	20
150	1
151	0
152	1
153	4
155	599
156	76
157	5
158	0
161	0
162	0
164	233
165	24
166	2
167	0
168	7
169	2
170	2
172	294
173	33
174	2
180	0
185	0
186	0
189	0
196	0
198	5
199	0
200	0
201	0
202	2
203	1
231	1
276	0
319	103
320	23
321	2
