Mass Spectrum: 1,2-Benzisothiazole, 3-(hexahydro-1H-azepin-1-yl)-, 1,1-dioxide
Formula: C13H16N2O2S
CAS: 309735-29-3
Molecular weight: 264
m/z	intensity
34	8
36	2
37	5
38	30
39	374
40	188
41	999
42	695
43	235
44	286
45	25
46	5
48	27
50	180
51	195
52	66
53	107
54	204
55	448
56	209
57	71
58	12
59	4
60	9
61	3
62	15
63	66
64	79
65	53
66	22
67	117
68	369
69	541
70	137
71	36
72	19
73	11
74	54
75	243
76	443
77	255
78	50
79	46
80	25
81	91
82	567
83	85
84	36
85	21
86	3
87	5
88	10
89	50
90	90
91	81
92	25
93	8
94	13
95	25
96	264
97	453
98	276
99	30
100	14
102	989
103	719
104	648
105	88
106	13
107	6
108	17
109	10
110	6
111	5
112	17
113	8
114	3
115	22
116	83
117	211
118	90
119	54
120	11
121	11
122	16
123	4
124	1
125	4
126	1
127	6
128	25
129	66
130	112
131	365
132	138
133	30
134	20
135	25
136	10
137	3
140	2
142	31
143	148
144	304
145	536
146	396
147	40
148	2
149	6
150	23
151	18
152	15
153	6
154	21
155	15
156	40
157	481
158	194
159	44
160	4
161	1
163	2
164	2
166	216
167	26
168	23
169	21
170	36
171	571
172	260
173	37
174	1
175	0
181	7
182	42
183	50
184	60
185	180
186	23
193	6
195	161
196	89
197	27
199	434
200	256
201	30
206	0
207	10
209	169
210	28
211	6
221	36
222	4
223	6
235	11
236	1
249	15
260	4
261	5
262	12
263	137
264	164
265	31
266	7
