Mass Spectrum: Benzamide, N-(1-methyl-5-benzimidazolyl)-
Formula: C15H13N3O
CAS: 309724-61-6
Molecular weight: 251
m/z	intensity
33	9
39	59
42	56
44	4
45	1
46	0
51	191
53	28
54	2
55	1
61	3
63	43
65	68
66	19
67	4
68	3
74	12
77	479
78	29
79	5
80	1
81	0
87	1
88	2
91	59
92	35
93	5
94	1
95	1
101	0
102	7
105	999
110	0
115	1
116	2
118	16
119	38
120	4
121	7
122	0
123	0
124	0
127	0
128	0
129	2
131	14
132	2
133	0
139	0
146	103
147	25
148	30
149	1
151	1
152	0
153	1
154	0
166	0
167	0
172	0
173	1
179	1
180	0
181	1
195	0
206	2
207	2
208	1
219	5
220	5
221	5
222	3
223	1
224	1
234	0
235	0
247	1
248	5
251	788
252	115
254	0
