Mass Spectrum: Benzenesulfonamide, 2,4-dichloro-3-methyl-N-(3-pyridyl)-
Formula: C12H10Cl2N2O2S
CAS: 309741-69-3
Molecular weight: 316
m/z	intensity
33	11
34	7
35	5
36	33
37	26
38	169
39	999
40	255
41	50
42	26
43	17
44	35
45	11
47	1
48	13
49	7
50	19
51	41
52	19
53	8
54	5
55	3
56	8
57	4
58	0
60	1
61	10
62	43
63	121
64	66
65	84
66	275
67	35
68	7
69	12
70	9
71	3
73	67
74	14
75	36
76	5
77	17
78	12
79	7
81	11
82	3
83	6
84	5
85	13
86	17
87	28
88	12
89	122
90	10
91	6
93	579
94	64
95	7
96	6
97	47
98	10
99	50
101	16
102	3
103	1
105	3
107	11
108	8
109	15
110	3
111	24
112	7
113	10
114	3
115	2
117	0
119	0
120	1
121	5
123	152
124	60
125	76
126	29
127	17
128	9
129	2
131	3
133	26
135	17
136	0
137	4
138	0
139	1
140	2
141	3
142	4
143	6
144	6
145	2
146	3
147	3
148	1
149	2
150	0
152	1
153	2
154	6
155	7
156	2
157	4
159	359
160	33
161	217
162	18
163	41
164	3
165	2
171	0
173	0
175	86
177	62
179	16
180	2
181	18
182	16
183	1
188	1
189	2
190	7
191	2
192	1
197	0
202	1
205	4
207	33
208	3
209	21
210	1
211	3
215	3
216	16
217	204
218	33
219	65
220	8
223	171
224	15
225	118
226	10
227	22
228	1
251	16
252	5
253	11
254	2
255	0
260	1
303	9
304	0
305	3
316	147
317	23
318	96
319	16
320	18
321	2
