Mass Spectrum: Benzenesulfonamide, 4-(1,2,3,4-tetrahydro-1-quinolinylcarbonyl)-N,N-dipropyl-
Formula: C22H28N2O3S
CAS: 309735-22-6
Molecular weight: 400
m/z	intensity
38	2
39	40
40	33
41	236
42	182
43	473
44	31
45	1
48	2
50	36
51	35
52	8
53	6
54	11
55	10
56	31
57	9
58	32
59	1
62	2
63	14
64	30
65	28
66	4
67	0
68	5
69	7
70	80
71	13
72	50
73	2
75	66
76	467
77	284
78	44
79	30
80	6
81	2
82	6
83	4
84	5
88	1
89	18
90	22
91	35
92	18
93	10
95	4
96	11
97	4
98	5
99	2
100	15
101	12
102	22
103	123
104	999
105	543
106	139
107	8
108	8
109	4
111	1
112	4
113	2
115	29
116	11
117	96
118	27
119	12
120	15
121	51
122	3
123	3
124	32
125	6
126	3
127	4
128	11
129	21
130	125
131	49
132	173
133	61
134	9
135	2
136	5
137	6
139	7
140	67
141	8
142	4
143	2
144	1
145	3
146	3
147	40
148	22
149	2
150	4
152	94
153	25
154	8
155	1
156	3
160	6
162	9
163	1
164	1
165	9
166	5
167	17
168	14
169	29
170	2
171	14
172	0
174	2
176	1
177	6
178	17
179	17
180	82
181	13
182	2
186	48
187	1
190	2
191	7
192	18
193	13
194	16
196	282
197	26
198	14
199	0
202	3
203	0
204	95
205	16
206	16
207	22
208	40
209	6
210	1
211	17
212	1
219	15
220	5
221	3
224	4
226	5
232	3
233	7
235	421
236	564
237	102
238	10
264	0
265	7
266	5
268	334
269	49
270	18
284	3
327	4
328	21
329	8
367	0
368	2
369	6
371	358
372	80
373	24
374	2
398	5
400	235
401	51
402	14
403	1
