Mass Spectrum: Propanamide, N-(4-trifluoromethoxyphenyl)-3-(1-piperidyl)-
Formula: C15H19F3N2O2
CAS: 309742-74-3
Molecular weight: 316
m/z	intensity
33	0
39	27
40	19
41	116
42	155
43	35
44	62
45	2
47	4
48	0
50	5
51	13
52	18
53	17
54	25
55	142
56	63
57	26
58	4
59	0
60	0
61	0
62	2
63	10
64	8
65	7
66	2
67	8
68	19
69	91
70	40
71	4
72	1
73	0
74	1
75	4
76	3
77	13
78	11
79	9
80	13
81	5
82	15
83	31
84	372
85	45
86	4
87	0
89	2
90	4
91	9
92	6
93	3
94	4
95	16
96	84
97	83
98	999
99	62
101	7
102	1
103	1
104	3
105	9
106	8
107	2
108	20
109	3
110	10
111	14
112	43
113	3
115	4
116	1
117	1
118	1
119	1
120	4
121	3
122	1
123	0
124	0
125	0
126	0
127	0
128	1
129	0
130	0
131	0
132	1
133	2
134	6
135	7
136	1
137	1
138	5
139	2
140	6
141	1
142	0
144	0
146	1
147	0
148	1
149	9
150	5
151	1
152	2
153	0
154	0
156	0
158	1
160	0
161	1
162	2
163	0
164	0
165	0
166	0
168	0
169	0
170	0
171	0
172	0
175	3
176	22
177	18
178	2
181	0
183	1
184	0
185	0
188	2
189	1
190	13
191	1
192	1
196	0
197	0
199	3
200	0
201	1
203	2
204	3
205	0
207	0
211	0
214	0
215	1
216	0
217	0
218	1
219	0
225	0
226	0
229	0
230	0
231	7
232	2
233	0
239	0
247	1
248	0
251	0
252	0
253	2
254	0
255	0
268	0
273	1
274	0
277	0
282	0
283	1
284	0
287	1
293	4
294	4
295	1
297	2
298	0
314	0
315	3
316	35
317	5
318	0
