Mass Spectrum: Pyrimidine-5-carboxylic acid, 1,2,3,4-tetrahydro-4-(4-bromophenyl)-1-(2-hydroxyethyl)-6-methyl-2-oxo-, ethyl ester
Formula: C16H19BrN2O4
CAS: 309740-66-7
Molecular weight: 382
m/z	intensity
39	26
40	14
41	26
42	97
43	160
44	92
45	29
46	1
50	21
51	22
52	8
53	8
54	34
55	136
56	56
57	9
58	1
59	2
62	3
63	16
65	9
66	4
67	7
68	14
69	27
70	106
71	6
72	2
73	3
74	18
75	40
76	54
77	45
78	11
79	7
80	6
81	7
82	8
83	3
84	14
85	169
86	999
87	51
88	8
89	33
90	18
91	17
92	2
94	1
95	6
96	62
97	4
98	10
99	5
100	3
101	32
102	154
103	54
104	18
105	6
106	2
107	1
108	1
109	2
110	13
111	14
112	38
113	10
114	12
115	41
116	40
117	26
118	11
119	4
121	0
124	3
126	15
127	18
128	47
129	43
130	42
131	42
132	15
133	2
134	1
135	2
137	1
138	4
139	88
140	10
141	21
142	22
143	12
144	7
145	17
147	19
148	4
149	2
153	1
155	67
156	23
157	68
158	11
159	4
160	1
161	6
162	3
167	1
169	21
170	7
171	27
172	34
173	5
174	1
175	4
176	1
180	9
181	44
182	101
183	73
184	130
185	31
186	12
187	7
188	1
189	0
193	4
194	6
195	8
196	12
197	10
198	7
199	7
200	13
201	3
206	7
207	3
208	11
209	177
210	334
211	202
212	309
213	43
214	7
215	21
216	3
217	0
222	2
223	6
224	9
225	14
226	52
227	18
228	44
229	6
230	1
233	9
234	1
236	4
237	1
238	5
239	5
240	2
241	4
242	5
243	1
244	3
249	2
250	19
251	6
252	41
253	12
254	88
255	17
256	67
257	9
258	0
259	4
260	2
265	7
266	3
267	5
268	5
269	2
270	3
271	1
272	1
278	0
279	1
280	4
281	2
282	4
283	1
287	4
288	6
289	4
293	43
294	10
295	50
296	10
297	11
298	2
304	5
305	0
309	25
310	4
311	25
312	4
314	0
324	2
326	2
334	0
337	16
338	3
339	16
340	4
341	2
342	1
353	1
355	1
367	103
368	17
369	101
370	17
371	2
382	154
383	29
384	151
385	29
386	3
