Mass Spectrum: Pyrrol-2(5H)-one, 4-acetyl-5-(2-fluorophenyl)-3-hydroxy-1-[2-(1-piperazinyl)ethyl]-
Formula: C18H22FN3O3
CAS: 309724-53-6
Molecular weight: 347
m/z	intensity
33	5
34	0
39	8
42	156
43	118
44	70
45	14
46	4
49	1
50	2
51	4
56	272
57	23
58	21
59	1
60	0
61	0
62	1
63	1
64	0
65	0
66	0
68	13
70	154
72	6
73	1
75	10
77	3
80	0
81	2
84	47
85	8
86	1
87	1
88	1
89	0
91	0
93	0
94	3
95	5
99	999
101	12
102	3
103	1
104	0
105	1
107	3
109	12
112	39
113	6
114	1
115	2
116	0
118	0
121	26
122	5
123	4
124	1
125	1
126	1
127	1
128	1
129	0
130	0
131	0
133	5
134	1
135	2
136	1
137	0
138	0
139	0
140	0
141	0
143	0
144	1
145	1
146	1
147	3
149	48
150	4
151	0
152	0
154	0
161	0
162	1
163	2
164	1
165	0
167	0
171	0
172	0
173	0
174	0
177	0
178	0
179	0
189	0
191	9
192	2
193	0
202	0
203	0
205	0
206	0
217	0
218	0
219	1
220	1
221	0
234	0
235	0
236	0
242	0
262	2
263	0
291	0
304	0
305	3
306	0
345	0
347	18
348	3
349	0
