Mass Spectrum: Propanamide, 3-chloro-2-oxo-N-phenyl-
Formula: C9H8ClNO2
CAS: 309727-94-4
Molecular weight: 197
m/z	intensity
33	40
34	0
35	9
36	24
39	379
40	56
42	170
43	29
45	5
46	7
49	254
51	385
52	33
53	7
54	4
56	1
58	0
59	0
60	3
61	10
63	111
65	415
66	48
67	3
69	1
73	3
74	17
77	999
79	26
80	1
87	1
92	694
93	190
95	0
102	0
103	2
104	5
105	3
106	10
112	3
114	0
115	3
119	614
120	990
122	2
127	0
132	0
133	0
134	1
142	0
147	0
152	0
155	56
157	22
158	1
161	0
162	2
163	3
195	13
197	344
198	41
199	96
200	10
201	0
204	1
