Mass Spectrum: Benzenamine, N-(2-phenylethyl)-N-(diphenylphosphoryl)methyl-
Formula: C27H26NOP
CAS: 309731-96-2
Molecular weight: 411
m/z	intensity
33	5
34	2
36	1
39	34
40	43
41	18
42	8
43	5
44	15
45	1
47	59
51	79
52	6
53	2
55	4
56	1
57	5
63	12
65	101
66	5
67	0
69	4
70	2
71	3
73	0
74	1
75	3
77	194
78	27
79	12
80	0
81	1
82	0
83	2
84	0
89	12
91	999
92	66
93	3
95	23
96	3
97	1
101	0
102	2
103	9
104	14
105	24
106	9
107	7
108	3
109	2
110	0
111	1
112	0
113	0
115	5
116	1
117	4
118	30
119	6
120	14
121	2
122	0
123	12
124	7
125	15
126	1
127	1
128	12
129	9
130	1
133	22
134	2
135	3
136	0
139	1
140	0
141	3
144	0
145	1
146	0
147	2
148	1
149	1
150	1
152	57
153	20
154	23
155	15
156	1
157	1
160	0
165	4
166	1
167	3
168	0
170	3
171	16
172	1
173	13
174	1
181	1
182	0
183	21
184	3
185	1
186	0
199	5
201	608
202	105
203	9
204	0
208	0
209	1
210	10
211	1
213	0
215	0
219	0
228	0
230	1
247	2
264	2
283	0
291	6
292	1
306	2
307	1
320	594
321	129
322	15
323	0
411	0
