Mass Spectrum: Benzamide, N-(5-methyl-2-thienyl)-
Formula: C12H11NOS
CAS: 309736-18-3
Molecular weight: 217
m/z	intensity
33	1
37	1
38	5
39	11
40	5
41	8
42	0
44	6
45	24
46	1
47	1
49	2
50	39
51	102
52	14
53	7
54	0
56	1
57	3
58	6
59	14
60	1
61	1
62	0
63	1
65	0
66	1
67	6
69	14
70	6
71	4
72	2
74	6
75	19
77	448
78	47
79	3
81	0
82	1
83	1
84	7
85	20
86	1
87	0
93	0
95	1
96	6
97	2
98	0
101	0
102	2
105	999
106	47
107	3
108	0
110	0
111	5
112	22
113	2
114	1
115	0
121	0
136	0
138	0
139	0
183	0
186	0
188	0
214	4
217	443
218	56
219	20
220	3
