Mass Spectrum: Benzofurane-2-carboxylic acid, 5-bromo-3-[1-oxo-3-(1-piperidyl)propylamino]-, ethyl ester
Formula: C19H23BrN2O4
CAS: 309740-38-3
Molecular weight: 422
m/z	intensity
29	37
30	14
31	1
32	33
33	0
39	0
40	1
41	69
42	113
43	20
44	17
45	2
53	0
54	3
55	78
56	37
57	12
58	0
60	0
67	3
68	4
69	18
70	25
71	4
73	0
74	0
81	1
82	11
83	25
84	240
85	35
86	4
87	0
91	0
93	0
94	0
95	1
96	122
97	79
98	999
99	89
100	3
101	4
102	11
103	8
108	0
109	0
110	15
111	32
112	31
113	5
114	0
115	1
118	0
122	0
125	0
128	0
129	1
131	0
132	0
133	0
134	0
135	0
136	0
137	0
138	55
139	5
140	8
143	1
145	0
155	1
157	1
169	0
170	0
171	2
172	0
175	0
180	5
181	11
182	11
183	15
184	6
185	3
188	1
189	2
194	0
198	5
199	1
200	1
204	0
208	3
210	9
211	3
212	5
213	2
214	0
223	1
224	1
225	0
226	3
228	1
235	0
236	0
237	13
238	5
239	12
240	2
250	25
251	2
252	34
253	1
255	2
257	1
262	0
263	0
264	23
265	2
266	16
267	0
268	0
276	0
281	0
282	0
283	13
284	3
285	16
292	0
293	1
294	1
296	4
337	0
339	0
348	9
350	12
351	0
369	1
377	0
391	2
392	157
393	47
394	152
395	43
420	0
421	116
422	106
423	137
424	109
425	30
