Mass Spectrum: Isoxazole-4-carbohydrazide, 5-methyl-3-phenyl-N2,N2-dimethyl-
Formula: C13H15N3O2
CAS: 309740-21-4
Molecular weight: 245
m/z	intensity
33	110
34	6
36	8
39	140
43	871
44	243
50	37
51	108
52	8
53	3
55	5
56	8
59	999
62	10
63	22
64	9
65	9
66	3
68	2
69	3
71	2
74	10
75	16
77	136
78	13
79	0
84	0
85	1
87	4
88	19
89	12
91	14
92	4
93	7
97	0
99	2
101	2
102	8
103	14
104	8
105	4
107	0
108	6
109	0
110	1
114	2
116	33
117	3
118	1
125	1
126	1
127	3
128	5
130	2
131	3
132	4
142	4
144	471
146	2
150	2
158	0
160	16
161	0
171	0
173	0
174	0
178	0
183	0
185	4
186	27
187	5
188	1
201	46
202	53
203	138
204	11
245	48
246	4
