Mass Spectrum: Cyclopropanecarbohydrazide, 2,2-dichloro-1-methyl-N2-phenyl-
Formula: C11H12Cl2N2O
CAS: 309720-08-9
Molecular weight: 258
m/z	intensity
33	26
34	4
35	8
36	31
37	22
38	65
39	229
40	56
41	103
42	31
43	27
44	26
45	3
46	2
47	7
50	144
51	414
52	107
53	189
54	22
55	16
56	13
57	4
58	1
61	53
62	23
63	72
65	273
66	36
67	11
68	13
69	42
70	3
71	3
73	20
74	15
75	20
77	575
78	82
80	73
81	29
82	10
83	14
84	8
85	17
87	194
89	94
90	16
91	69
92	185
93	201
94	26
96	14
97	3
98	4
99	1
100	1
101	1
102	8
103	15
104	16
105	51
107	999
108	78
109	4
111	4
112	4
113	1
116	39
117	16
118	43
119	13
120	7
121	6
123	156
125	106
127	22
128	3
130	21
131	18
132	24
133	9
134	9
135	1
137	5
138	24
139	3
140	10
142	36
143	7
144	12
145	4
146	2
147	11
148	1
149	1
151	52
152	7
153	32
154	3
155	5
156	1
157	7
159	103
160	12
161	4
162	1
163	0
164	0
165	1
166	2
167	7
168	2
169	7
170	3
171	3
172	0
173	1
174	2
175	24
176	3
178	19
179	4
180	10
181	2
182	3
183	1
185	33
187	679
188	76
189	7
190	1
191	1
193	28
194	5
195	10
196	1
197	0
201	0
202	0
204	0
205	1
206	8
207	13
208	5
209	3
210	0
211	1
213	2
214	3
215	1
216	2
217	0
218	0
221	18
222	22
223	26
224	11
225	7
226	0
229	0
230	14
232	11
233	1
234	1
239	0
240	0
241	0
243	0
256	2
258	194
259	28
260	114
261	16
262	19
263	2
267	0
