Mass Spectrum: Oxazol-5(4H)-one, 4-(4-trifluoromethylbenzylidene)-2-(2-methylphenyl)-
Formula: C18H12F3NO2
CAS: 309734-09-6
Molecular weight: 331
m/z	intensity
33	6
34	1
39	52
40	41
41	16
43	11
44	6
50	9
51	18
52	1
53	0
55	5
57	7
60	0
63	41
65	130
66	3
69	6
70	1
71	1
74	5
75	8
76	5
77	4
81	2
83	4
85	0
87	4
89	55
91	368
92	13
93	0
97	0
101	0
102	2
103	1
105	0
107	5
108	1
114	4
115	3
116	4
119	999
125	0
134	27
135	2
137	3
138	1
141	0
144	1
145	0
146	2
149	2
151	2
155	1
157	0
158	0
159	1
164	0
165	9
169	1
184	8
185	1
217	1
219	0
236	0
286	0
304	0
312	8
331	163
332	28
333	4
