Mass Spectrum: Indole-2(3H)-one, 3-(4-bromophenylimino)-1-(3-methyl-1-piperidylmethyl)-
Formula: C21H22BrN3O
CAS: 309735-21-5
Molecular weight: 411
m/z	intensity
33	1
34	4
37	2
38	7
39	21
40	46
41	47
42	39
43	19
44	61
45	4
46	0
48	14
50	45
51	16
52	6
53	3
54	3
55	48
56	9
57	8
58	15
59	1
60	1
61	1
62	7
63	19
64	15
65	9
66	1
67	2
68	4
69	42
70	11
71	3
73	2
74	14
75	67
76	80
77	21
78	3
79	1
80	2
81	2
82	5
83	8
84	7
85	0
87	1
89	9
90	21
91	14
92	3
93	1
94	0
95	1
96	5
97	13
98	37
99	5
100	1
101	0
102	12
103	8
104	7
105	2
109	1
112	999
113	75
114	4
115	2
116	4
117	9
118	14
119	3
120	2
121	0
127	0
128	0
129	5
130	1
131	3
132	0
137	0
139	5
140	5
143	1
144	4
145	5
146	1
147	0
149	2
150	6
151	6
152	2
153	1
155	37
156	4
157	35
158	1
164	4
165	9
166	17
167	4
171	2
173	2
175	1
176	1
177	2
178	3
179	3
180	0
181	0
182	0
191	2
192	18
193	10
194	1
204	0
205	9
206	5
219	0
220	4
221	1
245	4
246	0
247	4
248	0
270	1
271	14
272	63
273	19
274	59
275	8
285	3
286	1
287	3
288	0
299	8
300	43
301	13
302	40
303	5
313	3
314	16
315	5
316	16
317	1
411	1
413	1
