Mass Spectrum: Pyrrol-2(5H)-one, 4-benzoyl-3-hydroxy-1-(2-methoxyethyl)-5-phenyl-
Formula: C20H19NO4
CAS: 309724-58-1
Molecular weight: 337
m/z	intensity
33	14
34	0
37	0
39	29
40	18
41	9
42	15
43	23
45	134
51	107
53	30
55	8
56	4
58	15
59	23
60	1
62	3
63	12
65	14
66	0
69	14
70	5
71	0
73	14
74	13
75	15
77	385
79	2
80	0
82	0
87	0
88	6
89	10
91	61
94	1
99	0
102	53
105	999
107	3
109	0
114	1
115	10
117	10
118	11
119	8
120	1
121	1
123	0
127	1
129	28
130	30
131	17
132	4
133	0
135	11
136	0
137	0
139	0
142	0
144	16
146	5
147	5
150	0
151	3
152	8
153	0
157	3
158	1
159	0
163	0
165	12
167	26
168	1
171	3
172	4
173	1
174	1
176	3
178	37
179	16
180	3
181	0
186	0
189	5
190	2
191	4
192	0
193	0
199	5
200	5
201	9
202	2
204	31
205	5
207	25
208	15
209	1
218	0
220	1
222	54
223	41
224	1
227	1
231	4
232	14
233	7
235	181
236	28
237	4
248	2
249	0
250	5
251	0
259	0
260	0
261	0
263	3
264	7
265	1
274	3
276	1
279	23
280	4
292	7
305	13
306	2
308	2
309	0
322	0
333	0
337	323
338	58
339	6
