Mass Spectrum: Benzamide, 4-methyl-N-(4-methylphenyl)-3-phenylaminosulfonyl-
Formula: C21H20N2O3S
CAS: 309734-93-8
Molecular weight: 380
m/z	intensity
33	14
37	15
39	477
40	58
41	30
42	18
44	38
45	30
51	124
52	80
53	27
62	7
63	199
65	999
66	37
76	99
77	257
78	109
79	155
80	4
87	4
89	614
90	621
91	229
92	696
93	115
94	4
104	73
105	35
106	170
107	53
108	19
109	5
117	54
118	490
119	31
125	9
129	32
135	14
139	7
152	69
153	52
154	11
165	24
166	86
167	22
179	32
180	157
181	262
182	52
184	108
185	83
192	9
194	13
195	12
198	342
199	16
224	41
225	8
260	5
271	13
272	5
274	887
275	63
276	44
377	7
378	16
379	80
380	508
381	111
382	31
