Mass Spectrum: 1-[5-(3-Bromo-phenyl)-[1,3,4]oxadiazol-2-ylsulfanyl]-propan-2-one
Formula: C11H9BrN2O2S
CAS: 309734-81-4
Molecular weight: 312
m/z	intensity
33	2
34	3
35	1
36	2
37	12
38	33
39	62
40	52
41	32
42	125
43	999
44	57
45	79
46	307
47	14
48	14
49	9
50	165
51	63
52	12
53	7
54	1
55	11
56	11
57	78
58	14
59	8
60	15
61	32
62	116
63	46
64	16
65	6
66	0
67	1
68	1
69	11
70	6
71	8
72	8
73	14
74	68
75	268
76	300
77	32
78	4
79	7
80	7
81	6
82	8
83	3
84	4
85	11
86	31
87	52
88	134
89	163
90	41
91	18
92	6
93	4
94	1
95	2
96	1
97	2
98	1
99	5
100	9
101	9
102	181
103	37
104	25
105	8
106	2
107	3
108	0
109	1
110	0
111	2
112	3
113	1
115	4
116	8
117	23
118	9
119	17
120	11
121	3
122	0
123	0
124	0
125	0
126	0
127	1
128	3
129	8
130	4
131	11
132	1
133	1
134	4
135	2
136	1
137	2
139	1
140	0
141	4
142	1
143	7
144	13
145	2
146	2
147	1
148	14
149	4
150	1
151	0
152	1
153	4
155	302
156	29
157	288
158	34
159	3
160	2
161	2
162	1
163	20
164	4
165	1
166	0
167	10
168	3
169	13
170	3
171	4
172	0
173	2
176	0
178	0
179	0
180	2
181	84
182	116
183	407
184	131
185	325
186	24
187	1
189	1
190	2
191	12
192	2
193	0
194	0
195	9
196	13
197	23
198	14
199	52
200	8
201	39
202	6
203	0
208	0
209	4
210	2
211	2
212	1
213	1
215	0
217	1
218	14
219	2
223	82
224	9
225	79
226	8
227	6
228	1
229	4
231	0
233	3
234	0
235	1
237	5
238	1
239	5
240	1
241	2
243	1
256	1
258	1
270	504
271	73
272	475
273	52
274	22
312	117
313	21
314	116
315	16
316	6
317	0
