Mass Spectrum: Benzimidazol-2-methamine, 1-benzyl-N-(2-methoxyphenyl)-
Formula: C22H21N3O
CAS: 309724-69-4
Molecular weight: 343
m/z	intensity
33	1
39	136
41	46
42	4
43	0
45	0
47	0
51	159
52	52
53	14
55	3
56	0
59	0
63	88
65	326
67	5
69	0
77	180
78	33
79	17
80	7
81	0
82	0
84	0
91	999
94	9
95	2
96	0
98	0
99	0
100	1
102	24
103	22
104	27
105	6
106	11
107	5
108	4
109	1
110	2
112	0
113	0
114	1
115	3
116	6
119	136
120	47
121	16
122	4
123	3
125	1
126	2
127	2
129	10
131	78
132	19
134	11
136	5
137	3
139	1
140	1
141	1
143	6
144	7
145	3
146	3
147	0
148	0
151	6
152	6
153	3
155	1
156	1
157	0
158	0
164	1
165	1
166	2
167	1
168	1
169	0
170	0
171	0
178	5
179	5
180	4
181	3
182	1
183	0
190	0
192	2
193	4
194	3
195	1
196	1
197	1
198	0
202	0
205	8
206	11
207	14
208	6
209	6
210	2
212	3
213	0
219	93
220	76
221	66
222	23
224	0
225	0
231	0
234	5
236	11
237	2
238	0
248	0
250	5
252	122
283	0
308	0
309	0
312	59
313	9
314	1
326	2
328	0
329	0
339	0
340	0
343	76
344	18
