Mass Spectrum: Ethanone, 2-[(4,5-diphenyl-4H-1,2,4-triazol-3-yl)thio]-1-(2-thienyl)-
Formula: C20H15N3OS2
CAS: 309742-66-3
Molecular weight: 377
m/z	intensity
33	0
34	0
36	0
37	3
39	165
40	11
41	6
42	6
43	8
45	65
46	17
47	5
48	0
50	31
51	135
52	14
53	31
55	4
57	20
58	9
59	5
60	1
61	1
62	7
63	28
64	19
65	61
66	4
67	1
69	15
70	6
71	8
72	1
73	2
74	5
75	10
76	35
77	336
78	25
79	2
81	6
82	10
83	54
84	9
85	5
86	1
87	2
88	2
89	10
90	7
91	66
92	9
93	3
94	1
95	3
96	11
97	107
98	6
99	5
100	0
101	1
102	5
103	53
104	124
105	23
106	2
107	0
108	3
109	9
111	999
113	101
114	3
115	5
116	2
117	31
118	32
119	8
120	2
121	14
122	5
123	3
124	15
125	4
126	15
127	6
128	3
129	3
131	48
132	6
133	3
134	3
135	14
136	8
137	2
138	1
140	34
141	4
142	2
143	1
144	0
145	1
146	9
147	6
148	4
149	25
150	5
151	5
152	6
153	2
154	3
155	0
156	1
157	0
158	1
159	0
160	0
161	2
162	1
163	4
164	3
165	4
166	3
167	2
168	0
169	0
170	0
171	1
173	19
174	3
175	2
176	0
177	2
178	3
180	55
181	8
182	0
186	0
187	0
188	1
189	4
190	2
191	1
192	2
193	3
194	7
195	1
196	0
199	0
200	4
201	2
202	0
203	0
204	0
205	0
206	0
207	1
208	0
213	14
214	1
215	1
216	0
217	0
219	0
220	2
221	1
222	3
223	1
224	0
225	0
229	0
231	0
232	0
233	4
234	20
235	7
236	1
237	0
238	0
240	8
241	1
242	0
245	0
246	0
250	1
252	34
253	27
254	6
255	1
258	0
263	0
264	0
266	141
267	24
268	9
269	1
272	0
294	0
302	0
316	1
317	0
329	0
334	6
335	83
336	16
337	8
338	1
344	0
349	3
350	0
351	0
377	38
378	7
379	4
380	0
