Mass Spectrum: Acetamide, N-[5-(2,3,5,6-tetrafluoro-4-triflyoromethylphenylamino)pentyl]-
Formula: C14H15F7N2O
CAS: 309732-21-6
Molecular weight: 360
m/z	intensity
33	12
35	1
36	3
37	4
39	99
41	262
43	999
44	157
46	31
48	2
49	0
50	3
51	7
52	6
53	17
54	23
55	53
56	71
57	19
58	26
59	25
60	64
62	1
63	1
64	3
65	3
67	39
68	44
69	62
70	27
72	236
73	165
75	2
76	0
78	0
79	2
80	3
81	3
82	11
84	91
86	185
87	74
89	0
91	0
93	8
94	1
95	1
96	2
100	346
104	0
105	1
106	1
108	0
109	0
110	1
111	3
112	12
115	203
117	13
119	1
120	0
122	0
123	2
124	3
126	32
128	112
130	11
131	1
132	0
136	2
137	3
138	0
139	0
140	0
141	0
142	0
143	2
144	2
145	0
146	0
147	1
148	8
149	4
150	2
151	0
153	0
155	9
156	3
157	6
158	3
159	0
160	0
161	2
162	3
163	2
164	1
165	1
167	6
168	4
170	3
171	7
172	2
173	0
174	0
175	2
176	6
177	6
179	11
180	5
181	3
182	3
183	4
184	1
186	11
187	2
188	1
189	2
190	2
191	1
192	0
193	1
194	1
195	1
198	22
199	18
200	1
201	0
202	1
203	2
205	21
206	10
207	1
208	0
209	0
211	1
213	19
214	15
217	21
218	3
219	1
220	2
221	1
222	1
223	1
224	5
226	12
227	7
228	2
229	0
230	0
231	2
232	9
233	16
234	5
236	0
237	0
239	7
240	8
241	5
244	46
246	239
247	17
249	0
251	1
252	7
253	3
254	3
255	0
256	0
259	20
260	7
261	1
262	0
265	0
266	1
267	1
268	4
269	1
270	1
272	18
273	2
274	0
278	0
281	21
282	3
283	0
286	0
287	0
288	0
291	0
297	1
298	2
300	27
302	0
317	0
339	2
341	63
342	7
343	0
345	0
346	0
360	142
361	16
362	1
