Mass Spectrum: Phthalazine-1,4(2H,3H)-dione, 2-(3-trifluoromethyl-1,2,4-triazolo[4,3-b]pyridazin-6-yl)-
Formula: C14H7F3N6O2
CAS: 309725-44-8
Molecular weight: 348
m/z	intensity
37	132
38	143
39	68
40	36
41	13
42	18
43	58
44	11
45	9
47	3
48	7
50	308
51	124
52	153
53	27
54	4
55	5
56	3
57	5
60	5
61	8
62	22
63	69
64	90
65	20
66	9
67	6
69	62
70	9
71	4
74	103
75	138
76	445
77	119
78	43
79	68
80	12
81	5
82	5
83	0
85	1
87	4
88	7
90	81
91	16
92	4
93	0
94	0
95	0
96	3
98	2
99	2
100	4
102	80
104	999
105	108
106	6
107	0
109	2
110	7
113	2
114	3
115	0
117	3
118	1
119	1
126	1
127	3
129	55
130	37
132	63
133	12
134	0
138	1
139	4
140	16
141	7
142	0
147	8
153	0
160	0
164	8
165	0
166	0
168	1
169	4
170	0
171	1
173	0
186	1
189	1
197	0
198	1
203	1
218	10
224	1
235	10
236	1
241	0
260	2
327	3
328	53
329	23
330	3
345	6
348	369
349	47
350	5
