Mass Spectrum: Propenal, 3-dimethylamino-2-(4-nitro-3-pyrazolyl)-
Formula: C8H10N4O3
CAS: 309727-44-4
Molecular weight: 210
m/z	intensity
37	32
39	169
40	54
42	999
44	520
45	137
46	48
48	2
50	81
52	266
53	134
54	142
55	106
57	157
58	48
63	556
65	93
66	115
67	132
68	177
69	66
70	24
72	109
74	120
76	26
77	62
78	34
79	63
80	114
81	294
82	96
83	84
84	41
85	50
86	15
87	2
88	5
90	82
92	177
93	124
94	125
95	173
96	93
97	30
98	14
99	4
104	20
106	288
107	84
108	239
111	46
112	12
113	3
114	1
117	2
120	172
121	121
122	170
123	45
124	13
125	8
127	8
132	12
134	201
135	36
136	29
138	15
139	6
145	1
146	6
149	232
150	86
160	1
162	75
163	43
164	31
165	17
166	33
175	12
176	8
177	4
178	5
181	5
182	4
192	1
193	35
194	4
199	0
200	0
210	663
211	65
212	8
