Mass Spectrum: Isocarbamid
Formula: C8H15N3O2
CAS: 30979-48-7
Molecular weight: 185
m/z	intensity
12	0
15	80
17	1
18	21
26	9
27	107
28	171
29	125
30	999
31	17
36	0
37	2
38	5
39	64
40	18
41	138
42	171
43	82
44	54
45	2
50	0
51	1
52	2
53	5
54	8
55	28
56	97
57	49
58	55
59	19
60	1
68	2
70	204
71	30
72	51
73	3
82	1
83	1
84	9
85	134
86	65
87	37
88	1
97	1
98	2
99	5
100	2
111	1
113	154
114	11
115	1
127	1
130	144
131	8
132	0
139	0
142	957
143	67
144	6
156	0
157	1
170	11
171	1
184	3
185	23
186	3
