Mass Spectrum: Benzo[b]thiophene-3-carboxamide, 2-[[1-(acetylamino)-2,2,2-trifluoro-1-(trifluoromethyl)ethyl]amino]-4,5,6,7-tetrahydro-
Formula: C14H15F6N3O2S
CAS: 309730-84-5
Molecular weight: 403
m/z	intensity
33	59
38	19
39	51
40	31
41	63
43	999
44	114
45	38
46	6
50	18
51	31
53	29
55	6
56	1
58	14
59	18
60	17
62	3
63	11
64	13
65	49
67	30
69	112
70	9
71	15
73	1
76	20
77	27
78	56
79	28
80	8
81	2
82	2
83	6
84	6
85	2
89	18
91	76
93	24
95	14
96	27
97	13
98	1
103	11
104	8
106	13
108	8
109	6
112	4
115	2
116	22
117	18
118	21
119	10
121	20
122	22
123	41
124	11
125	3
126	1
133	10
134	18
135	42
136	7
142	2
144	5
147	8
150	22
151	39
152	38
153	2
160	2
161	18
164	1
175	3
176	10
177	16
178	91
179	93
180	9
195	8
196	33
198	1
203	2
204	7
208	2
226	1
228	17
229	1
230	26
232	10
245	2
246	17
247	1
255	25
259	1
272	15
273	47
275	338
276	37
277	14
278	7
295	2
297	5
299	154
300	15
301	8
304	1
305	5
324	1
325	12
326	24
327	100
328	18
329	2
341	6
342	11
343	27
344	127
345	21
400	7
401	11
403	116
404	8
405	3
