Mass Spectrum: Propanoic acid, 3,3,3-trifluoro-2-(3,3-dimethylureido)-2-(4,5,6,7-tetrahydro-3-aminocarbonyl-2-benzothienylamino)-, ethyl ester
Formula: C17H23F3N4O4S
CAS: 309730-83-4
Molecular weight: 436
m/z	intensity
33	26
38	2
39	13
40	9
41	25
42	70
44	133
45	24
46	19
47	3
51	8
52	2
53	7
54	2
55	7
56	23
58	15
59	6
60	1
63	5
64	1
65	20
67	16
69	29
70	13
72	999
75	3
76	1
77	20
78	14
79	10
80	10
82	8
83	7
84	5
85	3
87	1
88	5
89	35
91	60
92	10
93	7
95	3
96	25
97	10
99	5
100	0
102	0
103	4
104	8
105	1
106	7
108	8
109	2
110	4
111	6
113	1
114	1
116	10
117	18
118	21
119	18
120	2
121	15
122	16
123	33
124	15
125	7
126	1
129	1
133	9
134	15
135	18
136	12
137	3
138	1
139	2
142	0
143	0
144	6
145	2
146	10
147	2
149	6
150	30
151	129
152	14
153	5
154	0
159	2
160	6
161	16
162	11
163	2
166	3
167	5
168	5
169	2
174	2
175	1
176	13
177	24
178	128
179	378
180	38
181	20
186	1
187	0
188	2
189	3
190	2
191	1
193	8
194	18
196	516
197	62
198	24
199	4
200	3
203	0
204	15
205	27
206	26
207	10
208	6
209	1
210	12
211	3
212	1
213	0
218	1
221	1
222	20
223	4
224	1
225	0
226	2
227	8
228	20
229	3
230	3
231	4
233	24
234	3
238	1
240	18
241	7
242	0
245	10
246	26
247	9
248	1
250	19
251	5
252	1
253	8
254	11
255	74
257	23
258	20
259	11
260	1
271	32
274	288
275	457
276	88
277	23
278	12
279	74
280	9
281	3
284	10
285	0
292	1
299	0
300	2
301	10
302	7
303	12
304	3
318	7
328	6
329	1
331	0
332	1
346	8
347	3
348	14
350	4
431	2
432	5
433	0
434	3
435	5
436	52
437	8
438	1
