Mass Spectrum: Thiophene-3-carboxylic acid, 4,5-dimethyl-2-(1-methyl-5-pyrazolylcarbonylamino)-, methyl ester
Formula: C13H15N3O3S
CAS: 309923-07-7
Molecular weight: 293
m/z	intensity
33	1
34	1
36	0
37	1
38	9
39	23
40	53
41	12
42	18
43	14
44	16
45	13
46	0
47	2
49	0
50	1
51	6
52	20
53	42
54	79
55	13
56	1
57	3
58	15
59	61
60	7
61	3
62	0
63	2
64	4
65	15
66	43
67	9
68	2
69	4
70	4
71	4
72	1
73	1
74	0
75	1
76	1
77	3
78	3
79	5
80	12
81	16
82	13
83	7
84	3
85	6
86	2
87	1
88	2
89	0
90	2
91	3
92	3
93	3
94	3
95	7
96	2
97	22
98	5
99	2
100	0
102	0
103	0
104	0
105	0
106	1
107	4
109	999
110	67
111	5
112	1
113	1
114	0
115	0
116	0
117	0
118	1
119	1
120	0
121	0
122	3
123	3
124	11
125	7
126	2
127	0
129	0
130	1
131	1
133	0
134	0
135	1
136	3
137	1
138	2
139	2
140	1
141	1
142	0
143	0
145	0
146	0
147	0
148	0
149	0
150	1
151	7
152	56
153	19
154	11
155	1
156	0
157	0
159	0
161	0
162	0
163	0
164	0
165	1
166	4
167	1
168	0
169	0
170	0
171	0
172	1
173	1
174	0
175	0
176	0
177	0
179	7
180	13
181	1
182	0
183	0
184	19
185	2
186	1
187	0
188	0
189	0
190	0
191	1
192	0
193	0
198	0
200	8
201	1
202	1
203	0
204	3
205	4
206	2
207	0
208	0
211	1
212	0
215	0
216	2
217	2
218	15
219	9
220	3
221	0
228	1
229	0
230	0
231	0
232	12
233	45
234	7
235	2
236	0
243	2
244	3
246	19
247	2
248	0
259	0
260	21
261	65
262	16
263	4
264	0
293	221
294	38
295	14
296	1
297	0
