Mass Spectrum: 1,3,5-Triazine-2,4-diamine, 6-(4-amino-3-furazanyl)-
Formula: C5H6N8O
CAS: 309922-32-5
Molecular weight: 194
m/z	intensity
33	3
34	0
36	0
38	14
39	29
40	20
41	84
42	372
43	999
44	30
45	1
46	0
48	0
50	2
53	227
54	61
55	5
56	2
58	28
59	0
60	0
63	0
64	7
65	7
66	9
68	283
69	72
70	53
71	3
72	0
73	2
76	0
77	2
78	10
79	6
80	7
81	6
83	2
84	11
85	1
86	0
91	0
92	2
93	7
95	124
96	29
97	1
106	0
107	1
108	1
109	4
110	23
111	75
112	3
120	0
121	2
123	55
124	43
125	2
134	1
136	37
137	290
138	15
139	0
150	2
151	1
152	2
153	0
162	1
164	0
192	2
193	3
194	67
195	4
