Mass Spectrum: 1H-1,2,4-Triazole, 1-[1-(3-chlorophenoxy)ethyl]-
Formula: C10H10ClN3O
CAS: 309945-47-9
Molecular weight: 223
m/z	intensity
36	0
37	2
38	14
39	20
40	40
41	27
42	152
43	15
44	1
49	2
50	10
51	6
53	9
54	7
55	1
61	3
62	15
63	45
64	22
65	16
66	2
69	247
70	19
72	2
73	30
74	10
75	54
76	8
77	3
84	0
85	6
87	1
89	2
91	23
92	10
93	2
94	1
96	999
97	39
99	77
100	12
101	24
102	4
111	60
113	23
114	1
119	4
120	3
122	0
125	6
128	203
130	70
131	2
139	0
153	1
154	2
155	31
157	13
158	0
179	0
181	0
192	0
207	0
223	40
224	4
225	13
226	1
