Mass Spectrum: Benzamide, N-[2-[2-(2-chlorophenoxy)ethylamino]ethyl-2-oxo]-2-fluoro-
Formula: C17H16ClFN2O3
CAS: 309921-45-7
Molecular weight: 350
m/z	intensity
35	0
36	4
37	1
38	5
39	10
40	6
41	4
42	29
43	15
44	60
45	4
46	0
49	0
50	12
51	11
52	1
53	2
54	0
55	2
56	9
57	5
58	1
59	0
61	1
62	3
63	18
64	12
65	10
66	2
67	0
68	3
69	7
70	55
71	4
72	7
73	12
74	8
75	78
76	13
77	19
78	3
79	1
81	0
82	0
83	1
84	1
85	6
86	0
87	1
88	0
89	2
90	1
91	25
92	7
93	5
94	22
95	165
96	15
97	1
99	36
100	4
101	10
102	3
103	1
104	4
105	10
106	2
107	2
108	0
109	3
111	33
112	3
113	13
114	1
115	1
116	1
117	1
118	1
119	23
120	12
121	5
122	11
123	999
124	77
125	12
126	1
127	9
128	35
129	6
130	11
131	2
132	3
133	2
134	27
135	11
136	4
137	0
138	0
139	1
140	6
141	4
142	2
143	1
144	0
145	0
146	0
148	0
150	0
152	293
153	60
154	196
155	20
156	62
157	9
158	0
159	1
162	0
166	1
167	0
168	0
169	0
170	1
171	0
172	1
173	0
174	0
180	63
181	6
182	0
185	0
186	1
188	0
189	0
190	0
194	0
197	1
198	1
199	2
200	0
201	0
202	0
204	0
205	53
206	6
207	0
210	4
211	0
221	0
223	768
224	99
225	9
226	0
249	0
257	1
259	0
267	0
281	0
308	0
346	0
350	5
351	0
352	1
