Mass Spectrum: Thiazole, 4-(2,4-dichlorophenyl)-2-(2,3-dihydro-1-indolyl)-
Formula: C17H12Cl2N2S
CAS: 309921-42-4
Molecular weight: 346
m/z	intensity
35	2
36	10
37	2
38	10
39	42
40	13
41	8
42	1
43	1
44	3
45	55
46	1
47	3
49	1
50	23
51	54
52	15
53	8
54	1
55	0
57	2
58	3
59	1
60	0
61	5
62	17
63	53
64	20
65	51
66	5
67	1
69	17
70	4
71	2
72	2
73	14
74	22
75	35
76	23
77	134
78	31
79	6
81	6
82	11
83	4
84	5
85	6
86	11
87	26
88	14
89	88
90	74
91	114
92	11
93	20
94	3
95	2
96	3
97	8
98	8
99	20
100	13
101	22
102	43
103	62
104	24
105	9
106	7
107	5
108	5
109	13
110	5
111	8
112	3
113	2
114	20
115	22
116	72
117	999
118	499
119	45
120	6
121	14
122	20
123	94
124	25
125	33
126	4
127	4
128	63
129	37
130	47
131	26
132	50
133	17
134	11
135	14
136	21
137	81
138	77
139	9
140	4
141	4
142	22
143	52
144	19
145	8
146	10
147	6
148	21
149	13
150	6
151	2
152	1
153	1
154	8
155	41
156	26
157	22
158	12
159	35
160	8
161	18
162	3
163	3
164	1
166	32
167	79
168	87
169	34
170	113
171	16
172	70
173	74
174	75
175	22
176	10
177	2
178	1
180	5
181	3
182	4
183	4
184	2
185	3
186	1
188	0
189	4
190	1
191	2
193	16
194	3
195	8
196	2
197	2
198	0
199	4
201	6
202	50
203	10
204	34
205	5
206	6
207	2
208	4
209	1
210	1
215	1
216	1
217	0
229	8
230	169
232	129
234	33
235	2
236	0
238	2
239	0
240	1
241	0
242	4
243	1
246	0
247	1
248	1
249	1
251	1
252	1
265	1
273	0
274	2
275	3
276	2
277	2
278	4
279	1
280	1
281	1
282	0
283	3
284	3
285	1
286	0
295	1
309	3
310	8
311	13
312	7
313	39
314	8
315	22
316	4
317	3
318	2
319	5
320	1
321	3
331	7
332	1
333	4
344	4
345	92
346	398
347	151
348	298
349	70
350	62
351	11
352	2
