Mass Spectrum: Benzenamine, 4-benzyloxy-N-nitro-N-[2-(4-pyridyl)ethyl]-
Formula: C20H19N3O3
CAS: 309922-85-8
Molecular weight: 349
m/z	intensity
29	2
30	32
31	0
32	10
39	28
40	0
41	10
42	0
43	7
44	9
45	1
51	9
52	4
53	3
54	2
55	0
57	0
63	7
64	9
65	97
66	11
67	7
70	0
71	1
73	0
74	0
77	15
78	10
79	6
80	4
82	0
83	1
84	0
85	1
89	6
90	34
91	999
92	122
93	38
94	3
95	0
96	0
97	0
98	0
104	3
105	7
106	47
107	4
108	5
111	0
119	4
120	142
121	25
122	0
123	0
129	0
151	0
152	0
154	0
155	0
166	0
181	1
182	4
183	98
184	21
185	0
196	11
197	1
210	0
211	13
212	9
213	128
214	16
301	0
302	22
303	755
304	248
305	34
