Mass Spectrum: Acetic acid, (3-acetyl-6,7-dichloro-5-benzofuryl) ester
Formula: C12H8Cl2O4
CAS: 309922-90-5
Molecular weight: 286
m/z	intensity
29	1
31	0
35	0
36	0
37	0
39	0
41	1
42	16
43	999
44	26
45	0
46	0
48	0
50	2
51	0
52	0
53	2
55	0
56	1
57	0
62	0
63	4
65	1
66	0
70	0
71	1
73	1
74	18
75	13
76	2
77	1
78	0
81	1
84	3
86	6
87	30
88	0
89	25
90	1
91	0
95	0
96	2
97	3
98	1
99	0
101	0
103	0
106	0
107	0
108	2
109	25
110	7
111	12
112	0
116	0
117	0
121	2
122	1
123	12
124	6
125	2
126	4
133	0
135	0
136	6
137	34
138	4
139	8
140	1
141	0
144	10
145	25
146	10
147	21
148	1
151	0
152	0
157	3
159	1
165	5
166	2
167	5
168	0
172	3
173	18
174	3
175	10
176	3
177	6
180	0
181	11
182	1
183	0
187	0
191	0
193	0
194	0
195	0
197	0
200	0
201	16
202	3
203	12
205	1
206	0
207	0
208	0
209	1
211	0
212	0
215	12
216	1
217	7
218	0
219	0
227	2
228	11
229	551
230	59
231	362
232	30
233	64
234	2
236	0
237	0
242	0
243	20
244	599
245	82
246	356
247	54
248	71
249	1
251	0
257	0
261	0
271	0
277	0
278	2
286	106
287	24
288	80
289	7
290	6
