Mass Spectrum: 4H-Chromen-4-one, 7-methyl-3-(2-thenoyl)-
Formula: C15H10O3S
CAS: 309923-38-4
Molecular weight: 270
m/z	intensity
33	2
34	6
36	0
37	19
39	742
40	46
41	21
42	4
43	20
44	17
45	83
46	2
47	3
48	0
50	91
51	165
52	101
53	319
54	13
55	19
57	69
58	31
59	4
60	4
61	16
62	68
63	159
64	31
65	39
66	11
67	8
69	62
70	14
71	12
72	2
73	6
74	38
75	47
76	56
77	277
78	176
79	42
80	6
81	25
82	45
83	189
84	47
85	20
86	20
87	22
88	12
89	75
90	27
91	24
92	9
93	8
94	3
95	6
96	4
97	5
98	10
99	22
100	4
101	10
102	50
103	56
105	121
106	157
107	61
108	98
109	14
111	999
112	61
113	54
114	10
115	49
116	19
117	3
118	14
119	18
120	7
121	4
122	1
123	1
124	1
126	9
127	6
128	6
129	6
130	5
131	7
132	5
134	874
135	625
136	64
137	5
138	1
139	9
140	3
141	8
142	4
143	9
144	3
145	3
146	0
147	1
148	1
149	4
150	2
151	4
152	12
153	7
154	1
155	2
156	1
157	2
158	5
159	20
160	6
161	2
163	4
164	0
165	1
167	1
168	1
169	8
170	3
171	64
172	8
173	3
174	1
181	12
182	41
183	8
184	18
185	45
186	37
187	238
188	29
189	3
195	1
196	0
197	11
198	12
199	9
200	1
201	6
202	0
209	10
210	4
211	3
212	3
213	43
214	165
215	27
216	21
217	3
218	0
224	0
225	12
226	6
227	13
228	1
229	0
237	3
238	3
239	7
241	350
242	500
243	92
244	28
245	3
253	9
254	1
255	3
256	13
257	2
266	3
269	133
270	573
271	105
272	36
273	5
274	0
