Mass Spectrum: 2-Butanone, 3,3-dimethyl-1-[[5-phenyl-4-(phenylmethyl)-4H-1,2,4-triazol-3-yl]thio]-
Formula: C21H23N3OS
CAS: 309921-43-5
Molecular weight: 365
m/z	intensity
34	0
36	0
37	0
38	2
39	41
40	11
41	111
42	14
43	17
44	2
45	7
46	2
47	1
49	0
50	6
51	19
52	5
53	5
54	1
55	18
56	7
57	258
58	33
59	5
60	2
61	1
62	3
63	16
64	5
65	73
66	4
67	5
68	0
69	4
70	1
71	1
72	1
73	0
74	3
75	4
76	18
77	46
78	7
79	4
80	0
81	1
82	0
83	3
85	14
86	2
87	6
88	7
89	23
90	10
91	999
92	79
93	3
94	0
95	0
96	0
97	0
98	0
99	0
100	4
101	1
102	5
103	100
104	115
105	27
106	2
107	0
108	0
109	11
110	1
111	1
112	0
113	0
114	2
115	5
116	5
117	10
118	8
119	2
120	1
121	6
122	1
123	5
124	0
125	0
126	0
127	0
128	5
129	5
130	2
131	83
132	10
133	1
134	5
135	6
136	3
137	1
138	0
139	0
140	0
141	0
142	0
143	1
144	0
145	2
146	9
147	10
148	3
149	1
150	1
151	1
152	1
153	0
154	0
155	0
156	0
157	0
158	1
159	27
160	4
161	11
162	2
163	8
164	2
165	5
166	2
167	1
168	0
169	0
170	0
171	1
172	1
173	0
174	0
175	0
177	52
178	13
179	8
180	20
181	3
182	0
185	0
188	0
190	124
191	17
192	10
193	2
194	0
196	0
199	2
200	0
202	0
203	0
204	8
205	2
206	1
207	12
208	2
209	0
212	0
216	0
217	0
218	0
219	0
225	0
230	2
231	0
232	1
234	34
235	7
236	1
237	0
238	0
239	0
246	1
248	41
249	7
250	0
252	0
263	0
264	0
265	0
266	23
267	54
268	10
269	3
270	0
275	0
280	102
281	109
282	26
283	7
284	0
308	205
309	44
310	14
311	2
312	0
313	0
322	0
345	0
346	2
347	0
348	2
349	0
350	2
351	0
364	1
365	56
366	13
367	4
368	0
