Mass Spectrum: Oxazol-5(4H)-one, 4-(4-chlorophenylamino)methylene-2-phenyl-
Formula: C16H11ClN2O2
CAS: 309936-96-7
Molecular weight: 298
m/z	intensity
36	0
38	8
39	15
40	8
41	1
43	0
44	5
45	1
51	195
52	12
53	6
54	0
55	1
57	0
61	3
62	8
63	29
64	6
65	2
66	0
69	1
70	0
71	0
73	7
75	129
77	537
78	25
79	0
82	0
85	9
86	2
87	5
89	36
90	6
91	1
92	0
95	0
97	0
99	8
100	3
102	17
103	18
105	999
106	48
107	2
108	0
109	1
111	100
113	35
114	5
115	5
116	9
117	2
123	4
124	4
125	3
126	2
127	4
128	5
129	4
130	2
131	0
132	1
133	0
138	48
140	18
141	1
142	1
149	12
151	36
153	10
154	0
163	3
165	49
166	6
167	12
168	0
177	3
178	1
179	0
187	0
188	0
190	1
192	2
193	0
199	0
207	0
213	0
214	8
216	3
218	6
219	1
226	3
227	2
228	0
229	1
234	0
235	0
250	1
252	1
253	112
254	30
255	38
256	9
257	0
263	5
264	1
269	0
277	0
279	14
280	2
281	5
282	0
293	0
294	2
295	2
296	15
298	434
299	78
300	156
301	24
302	2
