Mass Spectrum: Ethanone, 1-(2-trifluoromethyl-10-phenothiazinyl)-2-(2-methyl-1-imidazolyl)-
Formula: C19H14F3N3OS
CAS: 309921-30-0
Molecular weight: 389
m/z	intensity
33	0
34	1
36	1
37	0
38	3
39	22
40	55
41	77
42	135
43	9
44	13
45	43
46	1
47	4
50	7
51	9
52	22
53	17
54	114
55	10
56	2
57	4
58	3
59	10
60	0
61	0
62	4
63	18
64	4
65	3
66	7
67	19
68	79
69	55
70	8
71	6
72	0
73	1
74	10
75	9
76	4
77	6
78	8
79	11
80	1
81	7
82	13
83	3
84	1
85	0
86	1
87	2
88	2
89	2
90	1
91	0
93	13
94	23
95	999
96	67
97	3
98	1
99	2
100	1
101	4
102	3
103	0
104	0
105	1
106	2
107	3
108	9
109	6
110	1
111	1
112	1
113	2
114	1
115	1
116	0
117	1
118	0
119	2
120	3
121	3
122	3
123	42
124	4
125	3
126	5
127	3
128	2
129	0
130	0
131	1
132	4
134	10
135	0
136	0
137	1
138	2
139	3
140	3
141	0
142	0
143	1
144	2
145	4
146	2
147	0
149	0
150	0
151	2
152	4
153	10
154	3
155	0
156	0
157	5
158	3
159	1
161	0
162	0
164	7
165	3
166	1
167	0
168	0
169	4
170	5
171	6
172	2
173	0
174	0
175	3
176	3
177	1
178	0
179	0
181	0
182	3
183	1
184	4
185	1
186	0
187	1
188	2
189	2
190	1
191	0
193	0
194	2
195	4
196	31
197	21
198	6
199	1
200	1
202	14
203	5
204	0
206	1
207	1
208	2
209	0
210	0
211	1
212	0
213	3
214	4
215	5
216	4
217	0
218	0
219	1
220	2
221	3
222	21
223	3
224	0
226	1
227	1
228	2
229	0
232	0
233	2
234	13
235	10
236	1
238	1
239	6
240	3
241	0
245	3
246	5
247	14
248	13
249	2
250	0
254	0
258	0
259	0
260	1
262	0
264	1
265	5
266	442
267	113
268	31
269	5
270	0
278	0
279	2
280	197
281	31
282	11
283	1
291	0
292	0
306	0
307	1
308	0
342	1
361	0
370	3
371	0
389	118
390	26
391	8
392	1
