Mass Spectrum: Acetamide, N-(6-methyl-8-oxo-1-phenylamino-8H-furo[2,3-H]chromen-4-yl)-
Formula: C20H16N2O4
CAS: 309921-32-2
Molecular weight: 348
m/z	intensity
33	100
34	7
35	1
36	18
37	10
39	246
40	92
41	96
43	999
45	18
49	1
50	63
51	169
52	72
53	40
54	17
55	43
56	20
57	49
58	1
59	2
60	12
62	9
63	87
64	49
65	134
66	43
67	21
68	15
69	19
70	29
71	21
73	6
74	18
75	38
76	74
77	317
78	68
79	18
80	9
81	5
82	6
83	17
84	8
85	3
86	3
87	11
88	22
89	50
90	43
91	57
92	42
93	74
94	9
95	6
97	13
98	3
99	5
100	9
101	31
102	46
103	46
104	58
105	67
106	5
110	13
111	14
112	10
113	13
114	10
115	28
116	29
117	52
118	36
119	11
120	9
121	6
122	1
125	3
127	25
128	44
129	30
130	37
131	10
132	8
134	3
135	2
137	1
139	14
140	5
141	7
142	5
143	10
144	10
145	14
146	16
147	7
148	7
149	36
150	5
151	7
152	12
153	14
154	10
155	15
156	15
157	9
158	10
159	1
165	12
166	10
167	26
168	3
171	10
172	7
173	13
174	10
175	4
176	3
177	5
178	11
179	7
180	11
182	2
188	1
190	6
191	8
192	14
193	11
194	13
201	3
202	9
204	40
205	16
206	18
207	7
211	1
216	2
219	21
220	8
221	16
222	4
231	6
232	8
233	10
234	9
235	5
248	12
249	43
250	22
251	1
259	1
260	1
261	5
274	8
275	12
276	21
277	55
278	55
279	11
288	1
290	1
291	8
302	15
303	73
305	91
306	258
307	32
308	3
344	97
346	79
348	547
349	74
350	7
