Mass Spectrum: 4-Isoxazoline-4,5-dione, 3-tert-butyl-, 4-oxime
Formula: C7H10N2O3
CAS: 309922-30-3
Molecular weight: 170
m/z	intensity
36	1
37	9
38	22
39	78
41	217
42	41
43	12
44	13
45	9
50	17
51	22
52	90
53	46
54	43
57	999
58	27
59	4
62	2
63	14
64	18
65	25
66	31
67	74
68	102
69	27
70	14
71	11
75	2
76	11
77	17
78	14
79	46
80	78
81	48
82	68
83	24
84	11
85	12
91	3
92	5
93	43
94	164
95	143
96	52
97	97
98	1
104	3
105	1
106	1
107	8
108	26
109	48
111	50
112	17
113	1
115	21
125	2
137	2
140	0
141	3
142	24
144	0
151	2
152	1
155	9
168	1
170	3
