Mass Spectrum: Furo[2,3-H]quinolin-6-amine, 1,2-dihydro-2,2-dimethyl-N-(3-diethylaminopropyl)-
Formula: C20H29N3O
CAS: 31011-17-3
Molecular weight: 327
m/z	intensity
41	28
42	42
43	20
44	41
45	5
46	0
47	12
48	5
49	6
50	3
51	2
52	3
53	3
54	5
55	9
56	38
57	16
58	138
59	8
63	5
64	1
65	4
66	2
67	2
68	1
69	2
70	22
71	29
72	239
73	18
74	4
75	3
76	3
77	8
78	5
79	2
82	0
83	2
84	10
85	33
86	999
87	57
88	6
89	3
90	2
91	9
92	5
97	3
98	96
99	22
100	128
101	12
102	4
103	3
104	2
105	3
106	7
111	2
112	9
113	69
114	16
115	6
116	3
117	4
118	1
127	4
128	6
129	3
130	3
131	1
140	2
141	4
142	4
143	3
144	3
145	2
149	37
154	6
155	7
156	16
157	6
158	1
164	11
167	2
168	5
169	9
170	5
171	9
172	11
173	4
181	3
182	6
183	18
184	14
185	7
186	3
195	3
196	3
197	17
198	17
199	19
200	3
209	3
210	5
211	24
212	8
213	61
214	13
215	10
222	3
223	3
225	26
227	137
228	106
229	14
237	2
239	90
240	19
241	56
242	20
243	3
253	13
254	12
255	10
256	2
268	3
284	1
298	21
299	9
300	0
310	2
312	7
313	3
326	1
327	214
328	45
329	11
