Mass Spectrum: 2,2-Dimethyl-6-[1-diethylamino-4-pentylamino]-2,3-dihydrofuro[3,2-H]quinoline
Formula: C22H33N3O
CAS: 31011-09-3
Molecular weight: 355
m/z	intensity
41	71
42	49
43	25
44	36
45	4
46	3
47	2
49	10
50	2
51	8
52	3
53	6
54	4
55	16
56	46
57	13
58	136
59	5
62	0
63	4
64	2
65	5
66	2
67	5
68	4
69	19
70	14
71	23
72	27
73	36
74	5
75	2
76	3
77	11
78	5
79	3
80	2
81	0
82	5
83	3
84	30
86	999
87	59
88	3
89	3
90	3
91	7
92	5
93	2
94	0
96	3
97	2
98	15
99	38
100	5
101	4
102	4
103	4
104	3
105	2
106	2
108	1
110	3
111	3
112	31
113	17
114	6
115	5
116	4
117	7
118	3
119	1
124	2
125	0
126	18
127	5
128	6
129	4
130	4
131	8
132	3
138	0
139	2
140	15
141	4
142	10
143	5
144	3
145	9
146	1
149	4
152	0
153	1
154	5
155	4
156	9
157	6
158	2
159	2
160	1
163	21
167	2
168	3
169	8
170	9
171	15
172	5
173	6
174	1
180	0
181	3
182	5
183	13
184	6
185	11
186	8
187	2
193	0
195	3
196	2
197	9
198	10
199	23
200	15
201	2
208	0
209	2
210	2
211	9
212	2
213	7
214	9
215	30
216	4
223	3
224	2
225	9
226	4
227	5
228	2
237	0
239	8
240	1
241	33
242	11
243	2
253	5
254	1
255	29
256	7
257	0
265	2
267	9
268	3
269	10
270	2
280	1
281	9
282	5
283	15
284	9
285	1
298	1
326	58
327	14
328	2
340	4
341	0
354	0
355	37
356	13
357	2
