Mass Spectrum: 5-Acetamido-2,2-dinethyl-2,3-dihydrobenzofuran
Formula: C12H15NO2
CAS: 31010-91-0
Molecular weight: 205
m/z	intensity
41	215
42	115
43	999
44	28
45	9
47	33
48	15
49	181
50	44
51	195
52	133
53	172
54	56
55	100
56	17
57	8
58	5
59	7
60	1
61	5
62	15
63	51
64	26
65	160
66	83
67	43
68	13
69	8
70	6
74	14
75	12
76	23
77	170
78	65
79	79
80	104
81	31
82	15
83	14
84	112
86	70
88	20
89	19
90	12
91	136
92	44
93	84
94	61
95	14
96	4
101	4
102	15
103	51
104	53
105	44
106	63
107	30
108	26
109	20
115	34
116	14
117	57
118	53
119	39
120	197
121	197
122	99
123	37
124	2
127	10
128	10
129	4
130	44
131	35
132	20
133	39
134	63
135	24
136	5
143	5
144	18
145	18
146	98
147	56
148	578
149	81
150	7
160	10
161	7
162	100
163	962
164	120
165	9
172	1
174	8
176	1
189	2
190	34
191	5
204	9
205	518
206	82
207	9
