Mass Spectrum: Morpholine, 4-[3-(trimethoxysilyl)propyl]-
Formula: C10H23NO4Si
CAS: 31024-54-1
Molecular weight: 249
m/z	intensity
15	2
27	5
28	12
29	11
31	2
39	4
41	22
42	45
43	10
44	5
45	8
47	2
54	5
55	7
56	45
57	5
58	3
59	31
60	8
61	33
62	2
63	2
68	4
69	4
70	29
71	5
72	10
73	4
74	4
75	3
76	2
77	8
82	2
84	8
85	2
86	9
87	3
88	1
90	17
91	125
92	10
93	5
96	1
98	11
99	4
100	999
101	66
102	5
103	2
104	6
105	3
107	4
114	2
116	2
117	4
118	5
119	4
120	3
121	121
122	11
123	5
126	5
127	1
128	1
130	3
131	11
132	3
133	2
144	5
146	2
158	3
159	5
160	3
162	4
174	2
176	4
179	2
186	1
207	8
216	1
218	10
249	10
250	1
