Mass Spectrum: Cyclopentane, 1,2-dichloro-, cis-
Formula: C5H8Cl2
CAS: 31025-65-7
Molecular weight: 138
m/z	intensity
38	30
39	110
40	50
41	320
42	50
43	80
61	15
62	100
63	30
64	30
65	50
66	30
67	999
68	65
75	110
76	160
77	30
78	30
138	24
