Mass Spectrum: exo-Norborneol, trifluoroacetate
Formula: C9H11F3O2
CAS: 31024-13-2
Molecular weight: 208
m/z	intensity
15	6
26	9
27	104
28	26
29	65
30	1
31	7
33	1
37	4
38	19
39	313
40	70
41	345
42	45
43	28
44	6
45	6
46	5
47	12
50	44
51	60
52	36
53	223
54	124
55	234
56	12
57	8
58	1
59	50
60	2
61	2
62	6
63	15
64	5
65	136
66	999
67	883
68	838
69	479
70	8
71	2
72	4
73	7
74	1
75	1
77	128
78	41
79	792
80	63
81	50
82	5
83	11
84	2
85	9
86	1
89	3
91	66
92	9
93	80
94	705
95	579
96	41
97	53
98	2
99	9
103	1
109	1
110	1
111	4
112	5
113	2
115	2
119	1
121	3
125	12
126	1
132	1
137	1
138	1
139	7
140	2
141	1
149	1
151	4
152	1
153	13
154	1
164	2
166	51
167	13
168	1
178	1
179	8
180	5
