Mass Spectrum: Phosphoric acid, 2-[(trimethylsilyl)oxy]-1,3-propanediyl tetrakis(trimethylsilyl) ester
Formula: C18H50O9P2Si5
CAS: 31038-36-5
Molecular weight: 612
m/z	intensity
41	51
42	7
43	22
44	26
45	81
46	7
47	15
53	4
54	11
55	15
56	4
57	11
58	7
59	51
60	4
61	15
63	7
65	7
67	4
69	7
70	4
71	7
72	29
73	999
74	85
75	176
76	11
77	18
78	4
79	7
81	4
83	4
85	11
87	7
89	7
93	51
94	7
95	22
99	7
101	48
102	7
103	15
105	7
107	4
108	4
111	4
113	37
114	7
115	22
116	15
117	15
119	15
121	15
123	7
127	7
128	15
129	96
130	22
131	37
132	7
133	96
134	15
135	44
136	7
137	15
145	7
147	110
148	22
149	22
151	11
153	7
155	7
163	4
165	7
167	7
169	4
177	4
179	7
181	15
183	7
189	4
191	15
192	4
193	29
194	7
195	37
196	7
197	15
205	7
207	66
208	15
209	22
210	7
211	213
212	37
213	26
221	7
223	4
225	81
226	18
227	66
228	15
229	7
237	4
240	4
241	26
242	4
243	59
244	11
245	4
253	15
255	7
256	7
257	7
267	7
269	18
270	7
271	7
281	33
282	7
283	368
284	74
285	88
286	18
287	7
291	7
297	15
298	37
299	735
300	176
301	99
302	15
303	7
313	26
314	59
315	184
316	48
317	22
318	7
328	81
329	22
330	15
341	22
342	18
343	7
344	4
352	7
355	66
356	29
357	463
358	125
359	66
360	15
361	4
363	7
365	4
369	7
370	88
371	88
372	33
373	26
374	7
375	4
379	11
381	4
387	51
388	18
389	11
395	11
396	4
434	4
435	4
437	11
438	4
442	4
451	48
452	15
453	15
454	7
467	4
469	4
509	15
510	4
511	4
522	63
523	26
524	15
525	7
541	4
597	88
598	44
599	26
600	7
601	4
