Mass Spectrum: Cyclobutane, 1-bromo-1-chloro-
Formula: C4H6BrCl
CAS: 31038-07-0
Molecular weight: 168
m/z	intensity
39	40
41	20
51	10
52	10
53	240
54	60
61	120
62	30
63	50
64	20
75	10
89	999
91	340
132	10
134	10
140	460
142	599
144	140
168	3
170	4
172	1
