Mass Spectrum: N-(Acetoacetyl)glycine
Formula: C6H9NO4
CAS: 3103-38-6
Molecular weight: 159
m/z	intensity
13	1
14	10
15	61
16	1
17	1
18	4
25	1
26	9
27	30
28	99
29	41
30	962
31	43
32	3
34	1
36	1
37	2
38	5
39	20
40	9
41	24
42	107
43	999
44	152
45	24
46	3
48	5
49	1
51	1
52	2
53	4
54	24
55	19
56	100
57	87
58	88
59	9
60	4
61	1
66	1
67	2
68	3
69	72
70	6
71	44
72	85
73	25
74	94
75	95
76	140
77	5
78	1
81	2
82	1
83	3
84	65
85	358
86	18
87	44
88	7
89	54
90	2
91	1
94	1
95	1
96	1
97	4
98	9
99	143
100	15
101	3
102	8
108	1
109	1
110	1
111	2
112	1
113	8
114	442
115	148
116	11
117	262
118	13
119	2
121	1
125	1
126	5
131	9
135	1
141	372
142	32
143	4
144	6
159	135
160	51
161	5
