Mass Spectrum: [1,2,4]Triazolo[1,5-a]pyridine, 6-nitro-
Formula: C6H4N4O2
CAS: 31040-14-9
Molecular weight: 164
m/z	intensity
50	50
51	70
52	110
53	130
54	70
61	60
62	90
63	150
64	480
65	70
78	50
79	50
80	130
90	200
91	999
92	70
107	100
118	50
134	619
148	60
164	480
165	80
