Mass Spectrum: (2-Bromo-phenyl)-(4-pyridin-2-yl-piperazin-1-yl)-methanone
Formula: C16H16BrN3O
CAS: 310456-58-7
Molecular weight: 345
m/z	intensity
33	0
34	1
36	0
37	4
38	11
39	42
40	38
41	55
42	72
43	30
44	19
45	4
48	0
49	4
50	84
51	102
52	83
53	22
54	31
55	62
56	267
57	44
58	6
59	0
60	1
61	0
62	2
63	10
64	8
65	18
66	13
67	13
68	10
69	9
70	7
71	10
72	1
73	4
74	28
75	88
76	106
77	154
78	385
79	280
80	43
81	9
82	4
83	8
84	5
85	1
86	3
87	0
88	0
89	6
90	7
91	21
92	23
93	45
94	35
95	31
96	2
97	1
98	1
100	18
101	2
102	5
103	8
104	15
105	174
106	40
107	999
108	80
109	2
111	3
112	2
113	1
115	3
116	4
117	8
118	28
119	356
120	540
121	236
122	18
123	0
125	1
127	1
128	2
129	3
130	5
131	28
132	27
133	399
134	51
135	24
136	1
139	3
140	0
141	0
142	1
143	1
144	5
145	59
146	46
147	10
148	66
149	10
150	0
152	0
153	0
155	99
156	10
157	95
158	10
159	2
160	36
161	15
162	41
163	4
167	0
169	2
171	3
172	3
173	0
176	2
181	2
183	144
184	15
185	128
186	9
187	0
188	0
190	0
195	0
197	2
198	0
210	1
211	0
212	0
223	1
224	1
225	1
226	4
228	3
238	4
239	0
240	2
248	0
251	7
252	1
253	7
254	0
261	0
262	5
263	1
264	6
265	10
266	11
267	4
268	0
269	1
277	2
279	2
288	0
290	0
301	0
318	0
319	0
330	3
331	0
332	4
344	23
345	73
346	32
347	67
348	12
349	1
