Mass Spectrum: Acetamide, 2-(1-methyl-3-phenylthio-2-indolyl)-N-benzyl-
Formula: C24H22N2OS
CAS: 310456-81-6
Molecular weight: 386
m/z	intensity
33	1
34	0
36	3
37	32
38	54
39	139
41	24
42	29
43	18
48	2
49	23
50	190
51	322
52	70
54	21
55	9
56	6
62	41
63	95
64	28
65	217
66	14
67	3
68	1
76	56
77	263
78	121
79	43
80	4
90	121
91	999
92	73
93	5
103	20
104	59
105	16
106	38
107	11
109	31
110	12
111	2
115	29
116	17
117	19
118	17
120	18
121	8
122	1
130	15
131	5
132	10
133	5
134	7
135	3
143	5
144	18
145	3
146	2
147	6
148	1
203	6
204	15
205	3
206	0
217	4
218	24
219	18
220	7
221	3
235	7
236	17
237	7
238	4
239	1
250	15
251	6
252	36
253	17
254	5
255	1
276	0
277	2
278	0
325	0
326	0
386	18
387	3
388	1
