Mass Spectrum: Hycanthone
Formula: C20H24N2O2S
CAS: 3105-97-3
Molecular weight: 356
m/z	intensity
42	254
43	57
44	140
45	31
46	2
47	4
48	6
49	15
50	20
51	29
52	20
53	15
54	26
55	27
56	143
57	51
58	333
59	16
60	2
61	3
62	8
63	22
64	15
65	20
66	10
67	11
68	12
69	26
70	50
71	38
72	103
73	45
74	10
75	10
76	14
77	22
78	14
79	28
80	16
81	10
82	14
83	7
84	56
86	999
87	65
88	5
89	8
90	5
91	14
92	13
93	17
94	9
95	10
96	11
97	10
98	13
99	44
100	105
101	26
102	6
103	4
104	7
105	8
106	13
107	9
108	24
109	17
110	10
111	8
112	11
113	11
114	14
115	10
116	3
117	5
118	5
119	6
120	17
121	10
122	7
123	8
124	5
125	9
126	8
127	21
128	6
129	5
130	3
131	3
132	4
133	4
134	7
135	6
136	8
137	6
138	6
139	18
140	6
141	4
142	16
143	5
144	4
145	6
146	4
147	5
148	3
149	4
150	7
151	7
152	16
153	6
154	4
155	2
157	8
158	4
159	2
160	2
162	2
163	5
164	6
165	11
166	4
167	5
168	3
169	3
170	5
171	22
172	11
173	3
174	2
175	1
176	3
177	3
178	3
179	2
180	5
181	2
182	3
183	5
184	20
185	6
186	3
187	2
188	2
189	2
190	3
191	2
193	2
194	2
195	8
196	9
197	14
198	10
199	19
200	5
201	2
202	2
203	3
204	3
207	2
208	8
209	6
210	8
211	7
212	22
213	13
214	4
215	1
216	2
221	2
222	5
223	10
224	8
225	7
226	16
227	121
228	19
229	8
230	2
233	1
234	2
235	11
236	13
237	10
238	10
239	4
240	78
241	99
242	19
243	6
246	2
247	2
248	7
249	16
250	16
251	20
252	14
253	9
254	51
255	32
256	8
257	2
262	4
263	8
264	14
265	18
266	10
267	7
268	6
269	7
270	2
274	2
276	2
277	3
278	4
279	5
280	3
281	2
288	2
291	3
292	2
293	2
298	6
299	1
305	2
312	2
325	2
326	9
327	2
339	5
340	8
341	4
355	1
356	2
