Mass Spectrum: 2H-Pyran, tetrahydro-2-(methylthio)-
Formula: C6H12OS
CAS: 31053-11-9
Molecular weight: 132
m/z	intensity
41	610
42	20
43	360
44	40
45	220
46	50
47	310
48	250
49	20
50	20
51	10
53	70
54	80
55	550
56	110
57	360
58	10
59	10
61	30
67	250
69	30
74	40
75	20
76	10
77	10
83	70
84	190
85	999
86	50
87	20
132	60
