Mass Spectrum: Pteridine, 6-methyl-2,4,7-tris(trimethylsiloxy)-
Formula: C16H30N4O3Si3
CAS: 31053-50-6
Molecular weight: 410
m/z	intensity
42	20
43	80
44	40
45	180
47	20
52	10
53	10
54	10
55	20
56	20
57	20
58	30
59	40
60	10
61	20
66	20
68	10
69	10
70	30
71	10
72	30
73	999
74	90
75	220
76	20
77	10
79	10
84	30
85	10
86	30
87	10
93	20
95	10
98	10
99	10
100	130
101	20
102	10
103	10
105	10
107	10
111	10
113	10
114	30
115	10
116	170
117	30
118	10
124	10
130	10
131	50
132	10
133	30
134	10
137	10
144	10
147	460
148	50
149	40
150	10
158	20
159	10
160	10
171	10
172	10
174	50
182	10
188	30
189	30
190	10
198	10
203	50
204	10
205	10
206	10
233	10
262	10
263	10
264	10
279	10
280	10
307	50
308	10
309	10
321	20
322	10
323	10
335	10
336	20
337	10
369	10
380	10
395	330
396	110
397	50
409	20
410	400
411	140
412	50
413	20
414	10
