Mass Spectrum: Chloramphenicol, [R-(R*,R*)]-, TMS derivative
Formula: C14H20Cl2N2O5Si
CAS: 31068-41-4
Molecular weight: 394
m/z	intensity
15	2
18	2
26	1
27	5
28	21
29	10
30	18
31	3
35	3
36	15
37	1
38	7
39	11
40	3
41	6
42	14
43	39
44	23
45	76
46	7
47	31
48	6
49	6
50	13
51	31
52	15
53	5
54	11
55	12
56	4
57	8
58	30
59	45
60	10
61	29
62	5
63	15
64	7
65	20
66	18
67	4
68	2
69	5
70	157
71	10
72	23
73	999
74	98
75	380
76	67
77	119
78	88
79	40
80	6
81	10
82	10
83	36
84	7
85	27
86	11
87	9
88	28
89	42
90	35
91	31
92	18
93	88
94	46
95	47
96	3
97	7
98	14
99	5
100	31
101	14
102	19
103	174
104	41
105	133
106	119
107	20
108	11
109	3
110	2
111	3
112	2
113	6
114	6
115	36
116	95
117	38
118	90
119	24
120	44
121	48
122	78
123	16
124	5
125	3
126	3
127	3
128	8
129	13
130	16
131	35
132	15
133	8
134	20
135	35
136	68
137	16
138	3
139	1
140	4
141	2
142	7
143	10
144	8
145	10
146	9
147	9
148	5
149	10
150	40
151	20
152	73
153	611
154	40
155	325
156	27
157	57
158	13
159	4
160	7
161	8
162	8
163	6
164	13
165	7
166	3
167	1
169	1
170	2
171	1
172	6
173	2
174	3
175	4
176	7
177	8
178	4
179	6
180	6
181	6
182	1
183	1
184	7
185	1
186	4
187	1
188	2
189	1
190	5
191	5
192	13
193	4
194	8
195	3
196	9
197	2
198	4
199	1
200	3
201	1
202	3
203	1
204	3
205	2
206	4
207	5
208	14
209	5
210	7
211	2
212	4
213	1
214	2
215	1
216	1
217	1
218	1
219	1
220	6
221	5
222	6
223	2
224	5
225	8
226	15
227	5
228	11
229	2
230	2
231	1
233	1
234	1
235	1
236	2
237	12
238	5
239	1
240	2
241	7
242	284
243	43
244	190
245	27
246	38
247	6
248	2
249	1
250	6
251	3
252	20
253	5
254	1
257	1
258	1
259	1
261	1
263	2
264	1
265	1
266	1
267	7
268	2
269	1
270	1
272	1
273	2
274	8
275	6
276	6
277	3
278	1
279	1
280	1
281	1
285	1
287	1
289	1
291	2
293	3
294	1
295	1
297	1
301	1
303	1
304	2
306	1
307	1
311	12
312	4
313	2
314	1
315	1
316	1
327	1
329	5
330	1
331	10
332	2
333	6
334	1
335	1
346	2
347	1
348	1
349	16
350	4
351	10
352	2
353	2
361	8
362	1
363	5
364	1
365	1
379	10
380	2
381	7
382	1
383	1
