Mass Spectrum: Aldrin-transdiol
Formula: C12H10Cl6O2
CAS: 3106-29-4
Molecular weight: 396
m/z	intensity
50	40
51	96
52	16
53	171
54	59
55	610
56	267
57	936
58	396
59	43
60	235
61	64
62	26
63	70
64	107
65	198
66	140
67	668
68	150
69	963
70	305
71	679
72	91
73	155
74	75
75	150
76	64
77	160
78	150
79	551
80	235
81	877
82	235
83	999
84	251
85	578
86	86
87	80
88	11
89	33
90	6
91	182
92	70
93	219
94	48
95	400
96	400
97	647
98	262
99	240
100	96
101	80
102	16
103	54
104	70
105	171
106	43
107	800
108	203
109	310
110	123
111	262
112	112
113	140
114	40
115	118
116	66
117	102
118	40
119	155
120	123
121	134
122	70
123	144
124	32
125	384
126	203
127	107
128	91
129	80
130	40
131	134
132	48
133	96
134	27
135	112
136	102
137	107
138	21
139	54
140	27
141	123
142	11
143	118
144	16
145	70
146	22
147	66
148	70
149	283
150	54
151	91
152	30
153	27
154	59
155	70
156	11
157	75
158	16
159	86
160	140
161	96
162	112
163	70
164	27
165	102
166	16
167	107
168	27
169	132
170	102
171	54
172	70
173	91
174	21
175	40
177	27
178	40
179	48
180	32
181	102
182	42
183	134
184	32
185	84
186	16
187	16
188	6
189	32
190	16
191	112
192	16
193	140
194	70
195	102
196	364
197	118
198	177
199	86
200	27
201	102
202	27
203	102
204	80
205	112
206	91
207	118
208	40
209	107
210	32
211	48
212	11
213	11
214	40
215	11
216	48
217	132
218	48
219	144
220	32
221	32
222	16
223	16
224	11
225	44
226	27
227	54
228	32
229	44
230	150
231	220
232	350
233	251
234	160
235	375
236	96
237	615
238	91
239	384
240	64
241	128
242	43
243	230
244	64
245	192
246	54
247	54
248	27
249	16
250	27
251	22
252	16
253	80
254	11
255	70
256	11
257	16
258	16
259	16
260	16
261	210
262	69
263	336
264	64
265	400
266	310
267	310
268	344
269	273
270	294
271	172
272	198
273	75
274	182
275	27
276	86
277	160
278	48
279	209
280	32
281	219
282	22
283	102
289	96
290	11
291	91
292	5
293	54
294	5
295	91
296	43
297	96
298	54
299	43
300	497
301	182
302	810
303	258
304	567
305	160
306	198
307	86
308	16
309	54
311	40
315	54
316	5
317	70
318	5
319	27
324	43
325	230
326	108
327	256
328	54
329	150
330	40
331	54
332	5
333	54
334	5
335	54
337	11
343	43
345	54
347	33
349	5
361	219
362	16
363	481
364	11
365	224
366	11
367	40
378	5
380	5
382	5
396	7
398	13
400	11
