Mass Spectrum: Trifluoroacetyl-.alpha.-fenchol
Formula: C12H17F3O2
CAS: 31076-73-0
Molecular weight: 250
m/z	intensity
27	140
29	110
39	170
41	410
43	140
51	30
53	110
54	70
55	310
56	30
57	20
59	20
65	40
66	40
67	310
68	80
69	190
70	60
77	80
78	70
79	270
80	100
81	999
82	120
83	130
91	70
93	220
94	40
95	40
105	20
107	160
108	20
109	50
121	130
122	190
123	130
125	20
136	100
137	30
153	10
167	10
168	20
180	10
207	10
235	20
250	10
