Mass Spectrum: .beta.-D-Glucopyranose, 2-deoxy-2-fluoro-, tetraacetate
Formula: C14H19FO9
CAS: 31077-89-1
Molecular weight: 350
m/z	intensity
41	2
42	15
43	999
44	29
45	15
56	4
57	4
58	4
60	5
61	6
70	6
71	2
72	2
73	9
85	4
86	21
87	5
88	14
96	4
97	5
98	27
99	5
100	21
101	14
102	5
103	112
104	12
110	6
112	6
113	6
114	9
115	42
116	26
117	35
118	18
126	9
127	5
128	21
129	5
130	35
131	14
145	118
146	29
147	2
155	13
156	5
157	12
158	5
159	6
160	35
161	2
163	6
169	14
170	9
171	6
172	2
175	29
176	2
188	59
189	14
190	1
197	19
198	2
202	6
203	19
204	2
205	11
211	19
217	11
218	2
228	2
229	1
230	18
231	2
245	5
248	14
249	2
263	2
277	5
278	1
297	6
298	1
307	2
