Mass Spectrum: 2-Diisopropylaminoethyl ethyl disulfide
Formula: C10H23NS2
CAS: 310882-85-0
Molecular weight: 221
m/z	intensity
39	61
41	253
42	215
43	287
44	138
56	131
58	47
59	38
70	172
71	31
72	497
84	55
85	26
93	86
98	17
102	27
112	12
114	999
115	82
121	78
144	9
146	5
206	1
221	8
