Mass Spectrum: 6-Propyl-2,4,7-pteridinetriol, 3TMS derivative
Formula: C18H34N4O3Si3
CAS: 31083-63-3
Molecular weight: 438
m/z	intensity
73	999
74	100
75	440
76	50
77	20
83	10
84	30
85	10
86	20
87	10
93	50
94	10
95	20
98	10
99	10
100	80
101	10
102	10
114	20
115	10
116	270
117	40
118	10
119	10
124	10
129	10
130	10
131	50
132	20
133	30
134	10
135	10
144	10
145	10
146	10
147	300
148	60
149	30
158	10
171	10
174	20
188	20
189	10
198	10
203	30
204	20
205	10
207	10
261	10
307	10
321	10
322	10
335	20
336	10
337	10
349	10
350	10
351	10
365	10
379	10
393	10
395	30
396	10
397	10
409	50
410	150
411	60
412	20
413	10
423	280
424	120
425	60
426	10
437	30
438	400
439	150
440	70
441	20
