Mass Spectrum: 2-Propyloctanoic acid
Formula: C11H22O2
CAS: 31080-41-8
Molecular weight: 186
m/z	intensity
14	0
15	7
18	5
26	16
27	171
28	66
29	182
30	9
31	15
32	10
39	98
40	22
41	352
42	62
43	255
44	20
45	68
51	7
53	38
54	25
55	264
56	46
57	87
59	29
60	23
67	24
68	18
69	103
70	22
71	23
72	18
73	999
74	40
81	11
82	11
83	38
84	25
85	27
86	15
87	107
88	13
97	13
98	9
99	11
100	9
101	173
102	561
103	29
115	196
116	17
129	20
143	32
144	86
157	60
