Mass Spectrum: Tricyclo[4.3.1.1(3,8)]undecan-1-amine
Formula: C11H19N
CAS: 31083-61-1
Molecular weight: 165
m/z	intensity
38	20
39	80
40	90
41	130
42	70
43	200
44	999
45	50
46	20
47	20
48	20
50	20
51	30
52	20
53	50
54	50
55	80
56	50
57	140
58	60
59	20
60	20
64	20
65	30
66	20
67	60
68	40
69	60
70	60
71	30
72	20
73	20
75	70
76	20
77	80
78	70
79	70
80	50
81	60
82	60
83	80
84	40
85	20
90	10
91	70
92	40
93	60
94	999
95	270
96	50
97	30
98	40
99	20
103	20
104	20
105	40
106	30
107	60
108	160
109	80
110	190
111	30
112	20
115	30
119	30
120	30
121	30
122	60
123	40
124	40
125	20
126	20
128	20
133	40
135	30
136	30
137	30
138	20
139	20
147	20
148	20
149	30
150	30
151	20
163	20
164	20
165	80
166	40
167	20
