Mass Spectrum: 3,5-Hexadiyn-2-one
Formula: C6H4O
CAS: 31097-80-0
Molecular weight: 92
m/z	intensity
15	30
43	600
44	20
49	150
50	10
63	80
64	130
65	10
77	999
78	50
92	320
93	20
