Mass Spectrum: 1H-Pyrazole-4-carbonitrile
Formula: C4H3N3
CAS: 31108-57-3
Molecular weight: 93
m/z	intensity
24	4
25	7
26	9
27	42
28	235
29	9
36	9
37	52
38	115
39	198
40	35
41	8
42	33
50	10
51	26
52	11
53	5
62	5
63	11
64	38
65	38
66	354
67	25
68	7
92	8
93	999
94	56
