Mass Spectrum: 2-Methylamino-N-phenyl-acetamide
Formula: C9H12N2O
CAS: 31110-53-9
Molecular weight: 164
m/z	intensity
27	0
28	1
29	0
30	4
31	0
33	0
34	0
36	0
37	0
39	0
40	0
41	0
42	5
43	2
44	999
45	14
46	0
48	0
49	0
50	0
51	0
52	0
53	0
54	0
55	0
56	0
57	3
58	0
59	0
60	0
61	0
62	0
63	0
65	4
66	4
67	0
68	0
69	0
70	0
71	0
72	0
73	0
74	0
76	0
77	4
78	0
79	0
80	0
81	0
82	0
83	0
84	0
85	0
86	0
87	0
88	0
89	0
90	0
91	1
92	5
93	120
94	3
95	0
96	0
97	0
98	0
100	0
101	0
102	0
103	0
104	0
105	0
106	1
107	0
108	0
109	0
110	0
111	0
112	0
113	0
114	0
115	0
116	0
117	0
118	0
119	1
120	0
121	0
122	0
123	0
124	0
125	0
127	0
129	0
130	0
131	0
132	1
133	0
134	0
135	3
136	0
141	0
142	0
146	0
148	0
149	2
150	0
151	0
152	0
153	0
154	0
155	0
160	0
162	0
164	51
165	3
166	0
