Mass Spectrum: Diacetyl-6-hydroxy-powelline
Formula: C21H23NO7
CAS: 31129-01-8
Molecular weight: 401
m/z	intensity
41	70
43	999
44	92
45	48
47	17
49	80
51	74
52	5
53	47
54	46
55	53
56	139
57	49
58	17
60	35
61	7
63	42
65	46
67	52
68	21
69	25
70	17
71	18
72	9
73	14
74	8
75	17
77	124
78	23
79	21
80	36
81	17
82	22
84	67
85	5
86	36
87	11
88	15
89	27
90	8
91	56
92	12
93	15
94	17
95	9
96	7
97	12
98	6
99	9
101	16
102	23
103	21
104	10
105	36
106	13
107	8
111	8
113	14
114	12
115	76
116	18
117	16
118	22
119	7
120	19
121	6
123	8
126	31
127	47
128	40
129	22
130	13
131	14
132	8
133	13
134	5
135	5
139	27
140	19
141	35
142	17
143	14
144	12
145	11
146	6
147	10
148	5
149	32
150	9
151	10
152	32
153	60
154	29
155	17
156	13
157	16
158	9
159	9
160	6
161	5
163	5
164	6
165	22
166	16
167	23
168	19
169	24
170	16
171	19
172	9
173	10
175	6
177	10
178	9
179	11
180	18
181	40
182	29
183	19
184	13
185	16
186	6
187	13
188	7
189	19
190	10
191	8
192	6
193	7
194	8
195	11
196	36
197	19
198	15
199	11
200	12
201	15
202	18
203	15
204	10
205	14
206	5
207	9
208	25
209	15
210	21
211	23
212	16
213	13
214	10
215	34
216	18
217	16
218	10
219	9
220	5
222	11
223	12
224	24
225	15
226	67
227	49
228	55
229	24
230	12
231	12
232	6
233	8
237	6
238	25
239	109
240	39
241	48
242	32
243	36
244	57
245	40
246	8
252	23
253	114
254	199
255	63
256	43
257	19
258	8
261	5
262	7
263	7
265	7
266	21
267	46
268	29
269	17
270	91
271	26
272	45
273	9
280	72
281	43
282	419
283	81
284	17
286	20
287	6
289	10
298	69
299	27
300	27
301	5
304	6
314	10
315	14
316	23
317	4
328	28
329	6
331	181
332	32
333	5
340	15
341	8
342	720
343	156
344	23
358	161
359	43
360	7
373	25
374	7
401	247
402	55
403	9
