Mass Spectrum: Benzonitrile, 4-nitroso-
Formula: C7H4N2O
CAS: 31125-07-2
Molecular weight: 132
m/z	intensity
25	5
26	30
27	65
28	25
30	110
36	10
37	80
38	65
39	35
40	5
41	5
48	5
49	40
50	190
51	250
52	75
60	5
61	30
62	50
63	50
64	30
65	5
73	20
74	75
75	320
76	190
77	15
86	5
87	10
88	10
89	15
90	10
91	10
99	20
100	15
101	10
102	999
103	90
104	5
132	490
133	45
134	5
