Mass Spectrum: Sulfone, butyl isopropyl
Formula: C7H16O2S
CAS: 31124-40-0
Molecular weight: 164
m/z	intensity
26	20
27	130
28	70
29	180
34	10
38	10
39	50
40	20
41	310
42	120
43	999
44	40
45	10
53	10
55	40
56	50
57	930
58	40
63	20
64	10
66	10
67	10
76	10
80	20
81	10
85	10
89	10
104	1
105	32
106	5
107	6
108	34
109	17
110	2
111	1
121	5
122	48
123	47
124	5
125	2
132	1
147	2
148	2
149	1
164	23
165	2
166	1
