Mass Spectrum: 6-Hydroxyundulatine
Formula: C18H21NO6
CAS: 31129-05-2
Molecular weight: 347
m/z	intensity
42	622
43	168
44	128
45	381
47	11
49	24
50	54
51	179
52	70
53	203
54	150
55	182
56	999
57	103
58	74
59	93
60	16
61	23
62	39
63	132
64	55
65	158
66	45
67	74
68	259
69	85
70	76
71	265
72	85
73	61
74	52
75	64
76	85
77	268
78	103
79	91
80	101
81	66
82	118
83	67
84	319
85	77
86	83
87	50
88	52
89	130
90	68
91	140
92	49
93	38
94	94
95	31
96	32
97	23
98	87
99	99
100	168
101	80
102	93
103	110
104	62
105	72
106	43
107	34
108	26
109	19
110	17
111	23
112	69
113	105
114	59
115	163
116	63
117	64
118	71
119	44
120	31
121	32
122	19
123	15
124	15
126	59
127	51
128	57
129	68
130	69
131	78
132	54
133	70
134	32
135	25
136	10
137	28
139	11
140	14
141	29
142	27
143	52
144	52
145	66
146	58
147	54
148	20
149	26
150	10
151	16
152	19
153	13
154	15
155	16
156	31
157	44
158	38
159	50
160	33
161	48
162	17
163	20
164	12
165	80
166	13
167	10
168	11
169	18
170	20
171	37
172	31
173	69
174	32
175	50
176	22
177	37
178	18
179	48
180	10
183	12
184	16
185	37
186	24
187	40
188	38
189	102
190	63
191	58
192	20
193	20
195	11
196	9
197	10
198	39
199	48
200	25
201	34
202	74
203	154
204	222
205	112
206	33
207	35
211	10
212	11
213	17
214	33
215	111
216	86
217	139
218	164
219	804
220	122
221	25
225	9
226	18
227	28
228	28
229	258
230	86
231	166
232	88
233	49
234	29
235	19
239	12
240	11
241	24
242	35
243	42
244	60
245	66
246	92
247	71
248	50
249	15
254	10
256	186
257	132
258	54
259	26
260	48
261	55
262	10
269	9
270	20
271	19
272	22
273	12
274	228
276	350
277	46
284	9
286	24
287	11
288	21
289	28
290	14
291	14
297	23
298	28
299	9
300	28
302	21
314	36
315	12
316	39
317	10
318	22
329	23
330	23
331	16
332	13
347	457
348	100
349	18
