Mass Spectrum: Pyrazole, 4,5-dihydro-1-(4-pyridylcarbonyl)-3,5-dimethyl-5-hydroxy-
Formula: C11H13N3O2
CAS: 311316-75-3
Molecular weight: 219
m/z	intensity
33	0
34	0
36	0
37	5
38	18
39	109
40	47
41	146
42	157
43	634
44	51
45	25
46	0
49	9
50	138
51	532
52	64
53	28
54	44
55	103
56	39
57	22
58	14
59	1
60	0
61	4
62	2
63	5
64	8
65	13
66	8
67	21
68	8
69	31
70	20
71	62
72	10
73	37
75	9
76	14
78	846
79	226
80	17
81	4
82	3
83	8
84	5
85	2
86	1
89	0
91	5
92	3
93	18
94	4
95	18
96	23
97	38
98	5
99	29
100	2
101	0
102	0
103	1
104	7
105	46
106	999
107	110
108	10
109	3
110	0
111	0
113	9
114	0
115	1
116	0
117	1
118	3
119	6
120	14
121	14
122	4
123	8
124	9
125	0
127	0
128	0
129	0
130	2
131	3
132	2
133	4
135	162
136	30
137	4
138	0
139	0
141	1
144	0
145	0
146	1
147	2
148	4
149	6
150	0
151	0
153	0
156	0
157	0
158	1
159	4
160	33
162	746
163	68
164	4
165	0
166	3
167	0
171	0
172	2
173	2
174	1
176	21
177	98
178	10
179	0
184	0
185	0
186	1
187	0
188	0
190	0
191	0
200	11
201	8
202	14
204	116
205	13
206	1
216	0
218	4
219	257
220	36
221	3
222	0
