Mass Spectrum: Pyrrolidine-2,5-dione, 1-dimethylamino-3-(1-piperidinyl)-
Formula: C11H19N3O2
CAS: 311316-73-1
Molecular weight: 225
m/z	intensity
34	0
39	51
41	195
42	214
43	242
44	60
45	6
46	0
50	1
51	3
52	6
53	21
54	98
55	203
56	60
57	37
58	36
59	37
60	3
61	0
63	1
65	3
66	3
67	20
68	45
69	86
70	60
71	6
72	4
73	1
76	0
77	2
78	1
79	2
80	11
81	8
82	70
83	64
84	123
85	46
86	9
87	3
89	0
91	1
92	0
93	2
94	9
96	422
97	32
98	19
99	9
100	3
105	0
106	2
108	8
109	8
110	135
111	999
112	74
113	5
114	3
115	0
119	0
120	1
122	0
123	1
124	3
125	2
126	1
127	1
129	0
131	0
135	0
137	13
138	27
139	52
140	4
141	2
142	1
143	0
149	0
151	2
152	0
153	12
154	13
155	2
156	1
163	0
170	0
179	2
180	2
181	31
182	4
183	2
195	3
197	436
198	50
199	4
208	0
212	0
222	0
223	1
224	0
225	54
226	6
227	0
