Mass Spectrum: 1-Phenethyl-3-(4-pyrimidin-2-yl-piperazin-1-yl)-pyrrolidine-2,5-dione
Formula: C20H23N5O2
CAS: 311330-03-7
Molecular weight: 365
m/z	intensity
35	0
36	2
37	0
38	1
39	10
40	9
41	18
42	31
43	7
44	4
45	0
50	2
51	9
52	11
53	38
54	42
55	110
56	99
57	21
58	13
60	0
61	1
62	1
63	5
65	40
66	7
67	12
68	26
69	17
70	14
71	5
72	1
73	0
74	1
75	1
77	36
78	32
79	100
80	195
81	40
82	47
83	26
84	19
85	2
86	0
87	0
89	10
91	186
92	16
93	15
94	28
95	39
96	108
97	8
99	16
100	0
101	1
104	294
105	78
106	40
108	999
109	122
110	31
111	13
112	21
113	2
115	2
116	2
117	8
118	6
120	264
121	325
122	279
123	62
124	8
125	3
126	1
127	1
128	9
129	2
130	2
131	3
132	13
134	231
135	53
136	129
137	46
138	6
139	7
140	1
141	1
142	0
143	1
144	2
146	46
147	28
148	79
149	47
150	8
151	3
152	1
153	9
154	17
155	4
156	1
157	1
158	2
159	3
160	7
161	21
162	72
163	420
164	69
166	37
167	9
168	1
169	0
170	1
171	5
172	2
173	6
174	3
175	29
176	3
177	2
179	6
180	0
181	0
182	6
183	6
184	1
185	4
186	1
187	2
188	8
189	15
190	10
191	8
192	1
194	0
195	0
196	0
197	1
198	1
199	6
201	50
202	8
203	26
204	4
205	0
206	0
207	0
208	0
209	0
210	1
211	0
212	0
213	0
214	1
215	10
216	4
217	55
218	9
219	1
224	0
227	3
228	2
229	11
230	2
231	5
232	2
233	0
236	0
237	0
238	0
241	1
242	1
243	5
244	6
245	27
246	6
247	0
250	0
251	0
252	0
253	1
254	0
255	2
257	180
258	223
259	38
260	4
261	3
262	0
267	0
268	1
270	184
271	32
272	4
273	0
281	0
283	1
284	0
294	1
295	1
296	0
297	0
301	0
307	0
308	1
309	1
310	0
321	0
322	1
323	6
324	1
336	2
337	1
350	5
351	1
365	191
366	42
367	5
368	0
