Mass Spectrum: N-Benzyl-2-(5-furan-2-yl-[1,3,4]oxadiazol-2-ylsulfanyl)-acetamide
Formula: C15H13N3O3S
CAS: 311315-80-7
Molecular weight: 315
m/z	intensity
34	0
37	10
38	36
39	175
40	31
41	28
42	42
43	30
44	30
45	34
46	72
47	9
48	3
49	4
50	58
51	108
52	48
53	98
54	15
55	11
56	6
57	8
58	6
59	2
60	6
61	2
62	4
63	26
64	28
65	178
66	20
67	25
68	3
69	5
70	5
71	4
72	3
73	2
74	7
75	9
76	13
77	143
78	63
79	96
80	20
81	7
82	5
83	5
84	3
87	1
88	5
89	42
90	22
91	999
92	90
93	175
94	58
95	563
96	30
97	5
98	0
99	0
100	0
102	4
103	26
104	213
105	153
106	147
107	152
108	64
109	27
110	4
111	62
112	7
113	3
114	2
115	15
116	4
118	362
119	391
120	40
121	16
122	2
123	3
124	1
125	13
126	7
127	7
128	7
129	3
130	6
131	5
132	40
133	5
134	2
135	56
136	7
137	6
139	4
140	3
141	6
142	2
143	15
144	3
146	204
147	978
148	379
149	80
150	8
152	2
153	36
154	4
155	2
156	3
157	2
159	1
168	39
169	35
170	4
171	5
174	0
180	5
181	3
182	70
183	6
184	4
185	7
186	0
240	0
241	0
315	86
316	16
317	4
