Mass Spectrum: 1,2,5-Triazole, 1-(2-butyl)-3-nitro-4-formamido-, 2-oxide
Formula: C7H11N5O4
CAS: 311314-77-9
Molecular weight: 229
m/z	intensity
33	2
34	2
35	2
36	17
37	0
38	15
39	83
40	112
41	575
42	108
43	108
44	265
45	16
46	7
47	0
48	1
50	1
51	2
52	9
53	70
54	56
55	70
56	137
57	999
58	49
59	4
60	2
67	10
68	20
69	120
70	58
71	236
72	25
73	6
80	3
81	4
82	15
83	10
84	10
85	12
86	4
87	14
93	0
94	0
95	10
96	12
97	9
98	7
99	111
100	5
107	1
109	6
110	8
111	7
112	7
113	7
114	1
115	36
116	0
120	0
121	6
122	4
123	1
124	3
125	4
126	2
127	15
128	2
129	12
130	5
137	3
138	0
139	3
140	1
141	2
142	0
146	2
150	2
153	0
154	8
155	12
156	13
157	2
158	1
166	1
167	0
169	0
170	2
171	2
173	19
174	148
175	6
176	0
183	7
184	4
185	7
197	1
212	1
213	6
228	0
229	73
230	6
