Mass Spectrum: Benzonitrile, 4-diisopropylphosphino-
Formula: C13H18NP
CAS: 311327-43-2
Molecular weight: 219
m/z	intensity
33	1
34	7
37	11
38	22
39	253
40	127
41	686
42	81
43	999
44	51
45	48
47	338
48	14
49	14
50	36
51	60
52	16
53	7
55	15
56	30
57	81
58	10
59	8
60	1
61	5
62	11
63	41
64	21
65	33
66	6
67	2
68	11
69	32
70	4
71	19
72	9
73	23
74	24
75	63
76	49
77	53
78	15
79	9
80	21
81	31
82	12
83	23
84	1
87	3
88	4
89	31
90	18
91	18
92	6
93	5
94	6
95	7
96	4
99	2
100	2
101	5
102	29
103	40
104	131
105	23
106	19
107	178
108	60
109	18
110	1
113	1
114	1
115	5
116	48
117	18
118	5
119	14
120	8
121	25
122	3
123	3
124	7
125	10
127	2
128	5
129	4
130	55
131	12
132	71
133	86
134	178
135	457
136	39
137	5
138	1
139	1
140	7
141	8
142	3
144	10
145	10
146	13
147	2
148	42
149	25
150	303
151	208
152	19
153	3
154	3
155	5
156	10
157	6
158	6
159	3
160	6
161	3
162	37
163	4
164	14
165	8
166	18
167	13
168	8
169	13
170	3
171	11
172	4
173	0
174	4
175	2
176	41
177	153
178	19
179	5
181	4
182	0
183	5
184	3
185	1
188	1
190	1
191	4
192	110
193	383
194	49
195	2
196	0
197	10
198	1
199	6
201	2
204	20
205	1
207	1
208	6
209	0
210	9
211	3
213	5
215	2
218	0
219	175
220	29
221	4
