Mass Spectrum: 1-Formyl-3-ethyl-5-phenyl-5-hydroxy-2-pyrazoline
Formula: C12H14N2O2
CAS: 311328-84-4
Molecular weight: 218
m/z	intensity
48	1
49	3
50	36
51	92
52	23
65	22
66	8
74	19
75	18
76	30
77	368
78	69
79	22
84	5
85	17
86	12
89	21
90	10
91	40
97	11
98	23
99	28
105	999
106	113
107	9
108	3
115	37
116	16
119	9
120	34
121	11
127	30
128	80
129	25
145	22
146	7
157	208
158	37
159	11
169	7
170	19
171	152
172	332
173	78
174	47
175	17
189	19
190	6
191	1
199	25
200	72
201	22
202	3
217	6
218	104
219	16
