Mass Spectrum: 1-(4-Amino-furazan-3-yl)-5-piperidin-1-ylmethyl-1H-[1,2,3]triazole-4-carboxylic acid ethyl ester
Formula: C13H19N7O3
CAS: 311314-85-9
Molecular weight: 321
m/z	intensity
33	2
34	0
36	0
37	1
38	6
39	38
40	26
41	184
42	160
43	42
44	56
45	5
46	0
50	1
51	5
52	24
53	39
54	55
55	144
56	40
57	12
58	3
59	0
63	0
64	7
65	8
66	13
67	23
68	21
69	50
70	36
71	3
72	1
77	2
78	9
79	11
80	18
81	10
82	20
83	23
84	152
85	14
86	2
91	2
92	3
93	9
94	7
95	7
96	23
98	999
99	67
100	1
104	0
105	5
106	5
107	8
108	7
109	6
110	5
111	3
112	1
113	0
118	0
119	2
120	7
121	8
122	12
123	7
124	3
125	1
126	1
132	0
133	4
134	7
135	8
136	8
137	5
138	2
145	0
147	14
148	5
149	3
150	3
151	3
152	4
153	0
154	0
160	1
161	4
162	15
163	11
164	2
165	1
166	2
167	0
173	0
174	1
175	1
176	0
177	0
178	1
179	1
180	3
181	3
187	0
189	17
190	30
191	9
192	1
193	1
194	2
195	0
202	0
203	1
206	0
207	0
208	0
209	3
210	0
215	1
217	15
218	3
219	2
220	23
221	8
222	0
230	1
231	0
232	4
233	0
234	0
235	1
236	6
237	2
247	0
261	0
263	5
264	2
276	4
277	0
292	1
293	0
321	10
322	1
