Mass Spectrum: 9,13-Pentadecadien-2-one, 6,10,14-trimethyl-, (E)-
Formula: C18H32O
CAS: 31138-32-6
Molecular weight: 264
m/z	intensity
41	840
42	120
43	999
44	70
53	200
54	50
55	400
56	50
58	50
59	30
67	180
68	50
69	910
70	80
71	50
72	70
78	60
79	10
80	190
81	70
82	20
83	10
90	40
91	20
92	60
93	20
94	150
95	60
96	30
105	40
106	20
107	150
108	30
119	80
120	30
121	160
122	50
135	50
136	30
137	70
138	30
139	100
140	30
148	20
149	50
150	30
163	50
164	10
175	50
176	20
177	50
199	20
201	50
202	20
221	300
222	50
249	50
250	20
264	70
265	20
