Mass Spectrum: N-[5-Acetyl-5H-dibenzo[b,f]azepine-10-yl]-N'-carbethoxy piperazine
Formula: C23H25N3O3
CAS: 31150-27-3
Molecular weight: 391
m/z	intensity
41	43
42	188
43	999
44	67
45	13
49	10
51	20
54	30
55	23
56	261
57	37
58	35
63	21
68	30
69	14
70	84
71	12
73	3
75	4
77	17
78	3
81	3
82	7
83	25
84	15
88	49
89	19
91	3
97	15
100	13
102	26
113	11
114	17
115	15
116	33
118	3
128	21
130	22
132	3
139	12
140	16
141	22
142	12
143	3
151	22
152	32
153	13
155	3
156	23
163	31
164	27
165	84
166	20
167	11
176	3
177	17
178	51
179	125
180	284
181	34
188	8
189	12
190	103
191	74
192	139
193	120
194	96
195	18
196	3
203	3
204	61
205	37
206	56
207	21
208	15
216	10
217	38
218	95
219	118
220	54
221	69
222	16
231	31
232	45
233	78
234	45
235	17
236	16
243	19
245	22
246	20
247	37
248	13
260	6
261	15
263	50
264	7
274	25
275	47
276	42
277	25
289	75
290	19
301	3
302	10
304	12
318	32
319	12
320	17
333	3
346	29
347	18
348	153
349	42
362	20
376	58
377	15
390	81
391	569
392	141
393	27
