Mass Spectrum: 4-Thia-1-azabicyclo[3.2.0]heptane-2-carboxylic acid, 6-amino-3,3-dimethyl-7-oxo-
Formula: C8H12N2O3S
CAS: 3115-55-7
Molecular weight: 216
m/z	intensity
26	8
27	55
28	152
29	117
30	216
31	10
33	20
34	46
35	2
36	3
38	9
39	76
40	19
41	110
42	80
43	82
44	999
45	86
46	18
47	31
48	21
49	2
50	5
51	8
52	9
53	53
54	25
55	93
56	36
57	79
58	20
59	55
60	21
61	28
62	16
64	4
65	4
66	4
67	12
68	18
69	96
70	63
71	30
72	13
73	27
74	95
75	439
76	27
77	26
79	4
80	7
81	14
82	54
83	49
84	15
85	26
86	16
87	82
88	24
89	16
90	3
91	4
93	4
94	11
95	11
96	14
97	37
98	176
99	47
100	108
101	13
102	7
104	9
105	3
107	4
109	7
110	7
111	8
112	12
113	8
114	256
115	44
116	152
117	12
118	8
121	3
123	7
124	6
125	4
126	10
127	18
128	11
129	7
130	3
132	3
137	6
138	6
139	10
140	4
141	6
142	21
144	4
159	5
160	657
161	56
162	37
163	4
172	34
173	6
174	5
183	45
184	8
185	7
215	4
216	68
217	10
218	8
219	0
