Mass Spectrum: Furazan-3-carboxylic acid, 4-acetylamino-, ethyl ester
Formula: C7H9N3O4
CAS: 311774-00-2
Molecular weight: 199
m/z	intensity
33	0
36	0
37	0
38	11
39	12
40	15
41	32
42	164
43	999
45	46
46	1
47	0
50	0
51	3
52	12
53	88
54	71
55	33
56	7
58	57
60	0
61	0
63	0
64	0
66	3
67	5
68	8
69	9
70	40
72	7
73	1
74	0
75	0
76	0
77	0
78	0
79	0
80	1
81	2
82	4
83	5
84	5
85	9
86	0
88	2
92	0
93	0
94	0
95	0
96	3
97	1
98	2
99	2
100	3
101	0
108	0
109	0
110	6
111	3
112	6
113	6
114	1
115	0
116	0
122	0
124	2
125	10
126	17
127	13
129	33
130	1
131	0
136	0
138	11
139	0
140	1
141	1
142	3
143	1
144	0
149	0
153	4
154	75
157	698
158	52
159	5
160	0
161	0
169	0
171	113
172	8
173	1
178	0
182	0
184	1
185	0
197	0
199	171
200	25
201	2
202	0
