Mass Spectrum: 2-Thiazoline, 5-methyl-2-(2-pyridylmethyl)amino-
Formula: C10H13N3S
CAS: 311776-62-2
Molecular weight: 207
m/z	intensity
33	7
34	12
35	5
36	3
37	11
38	39
39	276
40	108
41	213
42	56
43	20
44	25
45	84
46	23
47	19
48	2
49	5
50	44
51	109
52	96
53	47
54	22
55	82
56	24
57	15
58	56
59	85
60	59
61	17
62	13
63	43
64	45
65	278
66	93
67	23
68	8
69	10
70	14
71	12
72	48
73	29
74	48
75	15
76	13
77	12
78	108
79	133
80	46
81	5
82	3
83	3
84	3
85	3
86	4
87	1
88	4
89	3
90	10
92	472
93	999
94	69
95	4
96	2
97	2
98	3
99	3
100	10
101	5
102	6
103	3
104	8
105	44
106	31
107	106
108	12
109	1
110	1
111	4
112	1
113	4
114	2
115	6
116	4
117	6
118	31
119	24
120	9
121	2
122	4
123	9
124	14
125	4
126	1
127	7
129	130
130	11
131	15
132	61
133	121
134	39
135	7
136	11
137	37
138	5
139	9
140	0
141	3
142	1
143	3
144	4
145	29
146	341
147	69
148	8
149	25
150	119
151	25
152	7
153	1
154	0
155	0
156	0
157	1
158	1
159	1
160	3
161	2
162	0
163	2
164	2
165	34
166	10
167	2
168	0
169	1
170	1
171	1
172	2
173	2
174	33
175	5
176	0
177	2
178	2
179	2
180	0
181	3
182	1
183	1
184	1
185	0
188	0
189	2
190	1
191	7
192	6
193	1
194	0
195	0
196	1
197	0
198	1
199	0
201	0
202	0
203	1
204	2
205	14
206	99
207	468
208	67
209	25
210	3
211	0
