Mass Spectrum: Ethyl 2-(3,4-dichloroanilino)-3,3,3-trifluoro-2-propionamidopropionate
Formula: C14H15Cl2F3N2O3
CAS: 311774-26-2
Molecular weight: 386
m/z	intensity
33	2
34	5
35	4
36	12
37	5
38	9
39	10
40	79
41	17
42	12
43	39
44	180
45	19
46	3
47	4
48	2
49	4
50	17
51	8
52	7
53	3
54	9
55	32
56	35
57	999
58	35
59	5
60	3
61	7
62	14
63	29
64	9
65	5
66	2
67	3
69	54
70	5
71	14
72	23
73	83
74	64
75	59
76	8
77	5
78	3
79	2
80	2
81	5
82	3
83	9
84	16
85	17
86	7
87	6
88	5
89	5
90	23
91	8
92	3
93	2
94	2
95	5
96	23
97	9
98	6
99	30
100	15
101	10
102	2
103	2
107	4
108	3
109	93
110	35
111	34
112	12
113	5
114	4
115	7
116	1
117	2
118	2
119	3
120	2
121	2
123	4
124	10
125	15
126	17
127	14
128	7
129	5
130	2
133	13
134	7
135	11
136	13
137	5
138	5
139	5
140	1
141	1
142	7
143	3
144	4
145	195
146	15
147	119
148	9
149	21
150	3
151	3
152	7
153	4
154	3
155	2
156	1
159	3
160	12
161	147
162	21
163	99
164	12
165	18
166	3
167	1
169	2
170	8
171	20
172	79
173	15
174	47
175	6
176	7
181	3
185	2
186	7
187	20
188	5
189	10
190	3
191	2
197	1
198	1
200	23
201	5
202	13
203	2
204	3
205	2
206	1
207	1
213	2
215	2
217	2
220	1
221	5
222	7
223	4
224	3
225	2
233	6
234	3
235	6
236	3
237	3
240	148
241	14
242	100
243	9
244	17
245	3
250	2
255	24
256	8
257	285
258	30
259	175
260	16
261	43
262	4
263	11
265	2
269	1
271	1
283	5
285	5
313	149
314	21
315	100
316	13
317	18
318	2
319	1
386	32
387	5
388	21
389	3
390	4
