Mass Spectrum: p-Benzoquinone, trimethoxy-
Formula: C9H10O5
CAS: 3117-05-3
Molecular weight: 198
m/z	intensity
13	2
14	8
15	171
16	2
24	1
25	13
26	24
27	72
28	46
29	49
30	7
31	11
32	2
33	1
36	4
37	33
38	17
39	24
40	9
41	97
42	24
43	72
44	9
45	9
47	1
48	1
49	8
50	8
51	9
52	22
53	299
54	44
55	37
56	58
57	33
58	2
59	79
60	2
61	2
63	1
64	4
65	22
66	51
67	22
68	41
69	999
70	40
71	25
72	6
75	2
77	8
78	6
79	9
80	17
81	26
82	48
83	82
84	102
85	56
86	10
87	2
92	4
93	19
94	23
95	65
96	20
97	66
98	7
99	782
100	45
101	6
105	3
106	12
107	9
108	7
109	76
110	64
111	36
112	26
113	37
114	4
115	6
120	6
121	10
122	28
123	64
124	36
125	305
126	35
127	649
128	44
129	7
132	1
133	3
134	30
135	12
136	6
137	102
138	41
139	54
140	31
141	72
142	17
143	5
144	1
148	1
149	9
150	39
151	159
152	132
153	589
154	61
155	466
156	40
157	11
158	1
162	9
163	3
165	33
166	12
167	49
168	49
169	287
170	101
171	11
172	2
178	3
179	28
180	99
181	21
182	10
183	366
184	33
185	9
186	1
191	1
195	1
197	40
198	826
199	111
200	39
201	3
