Mass Spectrum: Urea, 1-methyl-3-(2-methyl-4-nitrophenyl)-1-phenyl-
Formula: C15H15N3O3
CAS: 311793-03-0
Molecular weight: 285
m/z	intensity
33	1
34	1
35	5
36	20
37	14
38	48
39	159
40	42
41	28
42	32
43	7
44	7
46	13
47	0
48	1
50	79
51	245
52	102
53	47
54	24
55	8
56	8
57	2
58	1
59	0
60	0
61	5
62	20
63	78
64	49
65	108
66	65
67	14
68	4
69	1
70	0
71	0
72	0
73	2
74	15
75	19
77	741
78	162
79	208
80	23
81	2
82	1
83	1
84	1
85	1
86	2
87	3
88	4
89	52
90	37
91	51
92	20
93	59
94	33
95	2
96	0
97	1
98	1
99	2
100	1
101	0
102	6
103	9
104	108
106	999
107	622
108	53
109	3
110	1
111	2
112	5
113	1
114	1
115	1
116	1
117	2
118	8
119	48
120	9
121	3
122	9
123	1
124	0
125	0
126	0
127	1
128	1
129	0
130	0
131	2
132	13
134	866
135	77
136	8
137	1
138	0
139	0
140	3
141	3
143	8
144	0
145	0
146	1
147	4
148	4
149	4
150	2
152	156
153	12
154	2
155	0
156	0
157	0
159	0
160	0
161	3
162	2
163	1
164	0
165	1
166	1
167	1
168	3
169	5
170	1
171	2
172	0
173	0
174	0
175	0
176	0
177	0
178	11
179	8
180	4
181	2
182	1
183	1
184	0
185	0
187	0
189	0
190	0
191	1
192	1
193	1
194	1
195	2
196	1
197	0
198	0
199	0
205	0
206	0
207	0
208	0
209	1
210	0
211	0
212	0
213	2
214	0
221	0
222	1
223	1
224	1
225	3
226	0
227	0
228	0
233	0
235	0
236	0
237	1
238	7
239	3
240	4
241	1
242	0
248	0
250	0
251	0
252	1
253	0
254	0
255	3
256	0
260	0
262	0
264	0
266	1
268	74
269	13
270	5
271	1
272	0
282	0
283	2
285	253
286	47
287	6
288	0
289	0
