Mass Spectrum: Ethanone, 1-[5-(2-thienyl)thien-2-yl]-, phenylhydrazone
Formula: C16H14N2S2
CAS: 311764-85-9
Molecular weight: 298
m/z	intensity
33	1
34	2
37	5
38	43
39	211
40	32
42	28
43	14
45	118
47	9
48	0
49	1
50	59
51	216
52	41
53	7
54	3
55	1
57	22
58	39
59	12
60	3
61	5
62	31
63	115
64	88
65	516
66	38
67	3
69	115
70	19
71	29
72	2
73	3
74	23
75	23
77	294
78	35
79	3
81	15
82	47
83	26
84	13
85	5
86	9
87	17
88	7
89	22
91	999
92	282
93	55
94	20
95	30
96	20
97	11
98	4
99	4
100	8
101	6
102	12
103	11
104	7
105	17
106	19
107	21
108	46
109	18
110	4
111	1
112	3
113	5
114	11
115	40
116	5
117	7
118	7
119	21
121	666
122	53
123	31
124	2
125	2
126	7
127	47
128	8
129	5
130	4
131	7
132	240
133	34
134	17
135	6
136	2
137	0
139	12
140	7
141	3
142	0
143	0
144	1
145	9
146	28
147	50
148	15
149	54
150	9
151	3
152	7
153	8
154	1
155	0
156	0
157	3
158	14
159	20
160	9
161	2
162	2
163	2
164	14
165	102
166	52
167	16
168	5
169	2
170	0
171	6
172	3
173	2
174	0
175	0
176	0
177	8
178	3
179	8
180	5
181	2
182	1
184	0
185	0
186	0
187	0
190	31
191	107
192	41
193	55
194	9
195	4
196	0
197	1
198	0
201	0
202	0
203	0
204	3
205	5
206	97
207	18
208	22
209	3
210	2
211	0
212	3
213	2
214	1
215	0
219	1
220	0
221	1
222	1
223	9
224	3
225	1
227	0
229	0
230	0
231	0
232	0
233	0
234	0
236	1
237	1
238	0
239	0
240	0
242	1
248	1
249	1
250	1
251	0
252	0
253	2
254	1
255	3
256	2
257	3
258	0
262	0
263	2
264	8
265	8
266	1
267	1
268	0
269	0
270	0
280	0
281	1
282	4
283	1
284	1
285	0
293	0
294	1
295	3
296	4
297	23
298	523
299	105
300	54
301	9
302	2
