Mass Spectrum: N'-(2-Iodobenzylidene)decanesulfonohydrazide
Formula: C17H27IN2O2S
CAS: 311788-51-9
Molecular weight: 450
m/z	intensity
33	1
34	2
35	1
37	28
39	289
41	555
43	999
44	35
45	11
46	3
47	9
48	16
49	16
50	83
51	38
52	12
53	27
55	322
57	720
58	28
59	6
60	9
61	47
62	121
63	361
64	66
65	44
66	14
67	27
69	117
70	57
71	221
72	13
73	9
74	20
75	16
76	37
77	20
78	9
79	8
80	5
81	11
82	9
83	53
85	219
86	41
87	28
89	786
90	95
91	116
92	20
93	5
95	7
97	24
98	6
99	12
100	2
101	4
102	9
103	9
104	9
105	8
106	2
107	2
108	6
109	2
110	1
111	4
112	4
113	1
115	4
118	678
119	69
120	9
122	9
123	4
124	2
125	2
127	73
128	28
129	2
130	2
131	8
132	2
133	2
134	1
135	1
137	1
139	1
140	3
141	1
142	1
143	1
145	2
146	1
152	4
153	1
154	3
155	1
159	1
160	1
164	1
165	3
169	1
171	6
173	28
174	4
175	2
176	2
177	1
178	3
179	1
183	3
187	1
189	38
191	8
203	7
204	2
216	270
217	30
218	6
219	2
229	4
230	6
231	8
232	9
233	2
242	1
244	227
245	63
246	38
247	7
248	2
250	1
259	9
260	1
272	1
273	1
286	1
287	1
342	1
356	1
357	1
370	1
385	3
386	6
387	1
432	2
433	1
450	8
451	2
