Mass Spectrum: Ethyl 2-acetamido-2-(3,4-dichloroanilino)-3,3,3-trifluoropropionate
Formula: C13H13Cl2F3N2O3
CAS: 311785-65-6
Molecular weight: 372
m/z	intensity
33	19
34	3
35	6
36	22
37	8
38	11
39	8
40	70
41	17
43	999
44	89
45	12
46	2
47	2
49	6
50	17
51	8
52	7
54	5
55	3
56	3
57	3
59	35
60	15
61	7
62	18
63	35
64	9
65	6
66	2
67	1
69	48
70	4
71	3
72	7
73	21
74	43
75	47
76	8
77	4
78	2
79	2
81	3
82	3
83	3
84	13
85	11
86	8
87	5
88	5
89	7
90	27
91	9
92	3
95	4
96	27
97	10
99	36
100	11
101	10
102	2
103	1
107	4
109	77
110	26
111	29
112	9
113	4
114	8
115	1
117	1
118	1
119	2
120	1
121	1
123	3
124	11
125	17
126	22
127	21
128	7
129	6
133	14
134	7
135	10
136	10
137	4
138	4
139	3
140	3
142	27
144	3
145	145
147	104
148	7
149	14
150	2
151	2
152	8
153	3
154	3
155	2
156	2
160	13
161	157
162	25
163	94
164	12
165	17
166	3
167	4
168	1
170	24
172	71
173	10
174	35
175	4
176	7
179	1
181	1
184	1
185	2
186	6
187	27
188	5
189	13
190	2
191	3
197	1
199	1
200	15
201	3
202	10
203	3
204	2
205	1
207	1
213	2
215	1
216	1
221	6
222	8
223	4
224	2
233	6
234	3
235	7
236	2
237	2
238	1
240	115
242	87
243	7
244	11
245	1
250	2
255	28
257	302
259	198
260	13
261	37
263	6
264	1
265	2
279	1
283	1
285	1
299	74
301	50
303	15
305	1
313	61
315	47
316	4
317	7
372	30
373	5
374	18
375	3
376	3
