Mass Spectrum: Propanamide, 3-(1-piperidyl)-N-(4-benzyloxyphenyl)-
Formula: C21H26N2O2
CAS: 311764-34-8
Molecular weight: 338
m/z	intensity
33	1
39	23
41	58
42	102
44	56
45	0
51	9
52	6
53	7
55	107
56	31
57	11
58	3
59	0
61	0
63	9
65	42
67	5
69	29
70	43
71	3
72	0
74	0
75	0
76	1
77	1
78	2
79	3
80	6
82	8
84	248
85	23
86	1
89	6
91	201
93	1
94	1
96	54
98	999
99	43
100	1
101	0
103	0
104	0
105	0
106	2
108	23
109	3
112	39
113	3
115	0
117	0
118	0
119	0
120	2
121	1
122	0
123	0
127	0
128	0
132	0
134	1
135	0
136	0
138	3
140	8
141	0
146	0
149	0
150	1
151	2
152	0
153	0
155	0
162	3
163	0
164	1
165	0
167	0
168	0
171	0
174	0
178	0
180	0
196	0
198	0
199	9
200	1
205	0
206	0
210	0
212	0
235	0
241	1
242	0
245	0
247	49
248	5
249	1
250	0
252	0
253	6
254	1
255	2
256	0
261	0
262	0
263	0
269	0
274	0
280	0
305	0
306	0
309	0
334	0
335	0
338	109
339	22
340	2
341	0
