Mass Spectrum: 4H-1,3,5-Oxadiazine, 2-pentafluoroethyl-4,4-bis(trifluoromethyl)-6-(1-piperidyl)-
Formula: C12H10F11N3O
CAS: 311794-09-9
Molecular weight: 421
m/z	intensity
33	7
34	10
36	6
37	4
38	16
39	202
40	165
41	715
42	405
43	144
44	303
45	92
46	8
47	17
48	1
50	67
51	56
52	18
53	74
54	143
55	405
56	296
57	79
58	6
59	5
60	2
61	1
62	3
63	3
64	4
65	11
66	14
67	79
68	144
69	999
70	84
71	7
72	3
73	13
74	7
75	3
76	33
77	12
78	18
79	6
80	23
81	27
82	179
83	542
84	219
85	54
86	4
87	2
88	1
89	2
90	3
91	15
92	120
93	9
94	13
95	13
96	68
97	39
98	5
99	9
100	70
101	4
102	1
103	1
104	3
105	3
106	1
107	3
108	4
109	28
110	35
112	668
113	52
114	21
115	3
116	8
117	6
119	280
120	7
121	3
122	2
123	30
124	6
125	2
126	5
127	12
128	20
129	1
130	1
131	2
132	1
133	1
134	0
135	1
136	1
137	5
138	3
139	9
140	2
142	140
143	5
144	8
145	6
146	27
147	55
148	3
149	2
150	2
151	4
152	0
153	1
154	4
155	1
157	1
158	2
159	4
160	0
161	1
162	3
163	3
164	24
165	5
166	29
167	1
169	2
170	0
171	2
173	29
174	6
175	1
176	8
177	2
178	11
179	4
180	2
181	2
182	1
184	1
185	0
186	1
187	2
188	0
189	11
190	3
192	109
193	5
194	3
195	0
199	0
200	0
201	7
202	0
203	0
204	5
205	2
206	2
207	9
208	1
209	8
210	1
214	7
215	2
216	0
218	1
219	1
221	2
226	0
228	0
229	0
230	0
232	3
233	2
234	4
235	11
236	2
237	0
246	1
247	1
248	0
257	9
258	1
259	22
260	1
261	9
262	4
264	5
268	0
274	2
275	14
276	12
277	1
281	1
282	0
283	1
284	0
285	2
286	1
292	2
295	3
302	15
303	1
305	2
312	9
313	0
333	3
334	0
335	0
337	0
352	330
353	44
354	4
355	6
357	0
371	3
374	6
375	0
392	1
393	0
400	1
402	57
403	7
404	0
421	88
422	11
423	0
