Mass Spectrum: N-[1-(2,4-Difluoroanilino)-2,2,2-trifluoro-1-(trifluoromethyl)ethyl]isovaleramide
Formula: C14H14F8N2O
CAS: 311764-38-2
Molecular weight: 378
m/z	intensity
33	23
34	11
35	4
36	19
37	8
38	19
39	127
40	217
41	428
42	106
43	237
44	115
45	8
46	4
47	4
48	1
50	24
51	29
52	11
53	12
55	73
57	999
58	58
59	122
60	6
61	7
62	17
63	72
64	10
65	4
66	3
67	5
69	278
70	10
71	9
72	3
73	4
74	7
75	25
76	9
77	6
78	3
79	2
81	24
82	35
83	39
85	334
86	47
87	7
88	6
89	5
90	1
91	3
92	8
93	10
94	8
95	7
96	19
97	4
98	4
100	24
101	108
102	37
103	3
106	2
107	2
108	12
109	15
110	4
112	23
113	95
114	11
115	2
116	1
117	1
119	3
120	8
125	1
126	4
127	9
128	50
129	550
130	35
131	2
132	1
133	1
135	1
139	21
140	9
142	10
145	1
146	1
147	1
149	1
151	1
154	9
155	9
156	2
158	13
159	1
163	6
165	4
166	2
170	2
171	1
178	1
181	7
185	2
188	4
189	3
190	1
192	5
203	1
204	2
205	25
206	4
208	443
209	32
210	1
223	2
225	84
226	7
235	1
251	15
252	2
258	2
274	20
275	2
277	328
278	68
279	5
309	14
310	2
358	4
378	73
379	10
