Mass Spectrum: Pyrazolo[5,1-c]pyrido[2,3-e][1,2,4]-triazine-7-carbonitrile, 6,8-diamino-2-methyl-
Formula: C10H8N8
CAS: 311775-88-9
Molecular weight: 240
m/z	intensity
33	2
34	11
35	12
36	53
37	89
38	368
39	973
40	62
41	637
42	627
43	307
44	350
45	88
46	22
48	2
49	15
50	110
51	192
52	292
53	369
54	434
55	160
56	44
57	63
58	14
59	43
60	22
61	13
62	45
63	61
64	177
65	337
66	999
67	548
68	128
69	47
70	27
71	22
72	13
73	5
74	8
75	26
76	69
77	320
78	82
79	47
80	45
81	109
82	103
83	26
84	2
85	7
86	8
87	1
88	41
89	26
90	28
91	74
92	206
93	149
94	31
95	11
96	84
97	156
98	17
99	2
100	2
101	4
102	11
103	29
104	100
105	30
106	33
107	14
108	62
109	91
110	10
111	12
112	6
113	6
114	3
115	15
116	15
117	32
118	26
119	126
120	94
121	36
122	34
123	110
124	13
126	7
127	12
128	10
129	9
130	12
131	19
132	25
133	37
134	16
135	17
136	4
139	4
140	3
142	6
143	19
144	67
145	129
146	171
147	108
148	21
149	8
157	20
158	36
159	29
160	29
161	17
162	2
164	6
168	3
169	3
170	25
171	114
172	61
173	7
174	5
175	6
183	2
184	25
185	17
187	20
188	125
189	16
195	18
196	7
197	40
198	18
199	244
200	29
205	5
211	18
212	24
213	44
214	37
215	8
225	2
238	6
239	22
240	376
241	55
