Mass Spectrum: 9-Decenoic acid, 2,4-dimethyl-, methyl ester, (2S,4R)-(+)-
Formula: C13H24O2
CAS: 31183-24-1
Molecular weight: 212
m/z	intensity
15	64
16	1
26	3
27	94
28	28
29	156
30	5
31	7
33	4
37	2
38	3
39	120
40	24
41	464
42	99
43	133
44	5
45	27
46	1
51	6
52	5
53	68
54	47
55	466
56	70
57	128
58	7
59	212
60	8
61	3
65	12
66	8
67	84
68	53
69	572
70	60
71	26
72	3
73	118
74	16
75	2
77	8
78	1
79	15
80	5
81	59
82	35
83	210
84	21
85	12
86	2
87	75
88	999
89	61
90	6
91	3
93	8
94	3
95	58
96	24
97	84
98	7
99	7
100	2
101	345
102	38
103	3
105	2
107	5
108	3
109	36
110	32
111	45
112	33
113	11
114	1
115	5
116	5
121	2
122	12
123	15
124	53
125	212
126	30
127	12
128	5
129	68
130	7
131	2
133	2
137	16
138	31
139	8
140	1
141	15
142	36
143	9
144	1
147	3
151	7
153	7
155	9
156	2
157	3
162	3
163	18
164	2
165	9
169	8
170	4
171	12
172	1
179	1
180	22
181	41
182	5
212	18
213	2
