Mass Spectrum: 9-Decenoic acid, 2,4-dimethyl-, methyl ester, (R,R)-(-)-
Formula: C13H24O2
CAS: 31183-23-0
Molecular weight: 212
m/z	intensity
15	49
27	65
28	30
29	132
30	3
31	5
32	1
39	121
40	24
41	450
42	82
43	99
44	3
45	21
51	5
52	3
53	56
54	38
55	379
56	71
57	121
58	8
59	185
60	5
61	3
65	8
66	5
67	79
68	41
69	483
70	51
71	23
72	3
73	101
74	13
77	6
79	13
80	3
81	53
82	31
83	195
84	19
85	10
87	68
88	999
89	53
90	3
91	3
93	6
94	3
95	53
96	19
97	92
98	6
99	5
101	310
102	35
103	5
109	28
110	26
111	46
112	31
113	10
122	10
123	17
124	48
125	178
126	26
127	11
128	4
129	78
130	5
137	13
138	28
139	8
141	13
142	35
143	8
147	3
151	6
152	8
153	5
155	5
157	3
163	15
165	8
169	5
170	5
171	10
180	24
181	33
182	5
212	15
