Mass Spectrum: 1-[3-Hydroxypropyl]-aziridine
Formula: C5H11NO
CAS: 31190-87-1
Molecular weight: 101
m/z	intensity
41	119
42	216
43	125
44	645
45	63
47	8
50	6
51	26
52	7
53	5
54	17
55	29
56	305
57	159
58	373
59	31
60	3
61	8
62	1
63	6
65	9
67	6
68	22
69	21
70	265
71	76
72	130
73	28
74	83
75	17
76	16
77	12
78	24
79	8
80	8
81	2
82	29
83	39
84	162
85	74
99	36
100	173
101	999
103	134
104	13
