Mass Spectrum: Benzenesulfonamide, 4-fluoro-N-(4-fluorophenyl)-
Formula: C12H9F2NO2S
CAS: 312-58-3
Molecular weight: 269
m/z	intensity
33	8
34	0
37	6
38	19
39	38
40	15
41	5
42	1
43	3
44	4
45	15
46	1
48	7
49	4
50	50
51	39
52	22
53	3
54	1
55	3
56	20
57	209
58	10
59	3
60	1
61	8
62	32
63	71
64	22
65	23
66	1
68	23
69	57
70	12
71	8
72	3
73	4
74	35
75	256
76	21
77	7
78	2
79	1
80	2
81	39
82	70
83	599
84	49
85	3
86	1
87	2
88	3
89	20
90	18
91	54
92	17
93	9
94	25
95	410
96	38
97	4
98	1
99	4
100	1
101	0
102	1
103	0
104	2
105	2
106	2
107	3
108	11
109	44
110	999
111	83
112	2
113	1
114	1
115	17
116	1
117	1
118	1
119	7
120	1
121	0
122	1
123	0
124	3
125	1
126	4
127	5
128	1
129	0
130	0
131	0
132	1
133	4
134	0
135	2
136	8
137	1
138	0
139	0
140	0
141	0
142	0
143	20
144	2
145	1
146	0
149	2
150	0
151	4
152	1
154	0
155	0
156	0
157	5
158	3
159	109
160	11
161	7
162	1
163	0
164	1
165	1
166	0
167	3
169	2
170	0
171	1
172	0
173	0
175	2
176	1
177	8
178	4
179	1
180	0
181	0
182	2
183	1
184	6
185	5
186	2
187	0
188	0
189	0
190	0
191	0
192	0
193	0
194	8
195	5
196	11
197	2
198	1
200	0
201	0
202	5
203	18
204	23
205	7
206	0
216	0
218	0
219	0
220	0
221	0
222	0
227	0
231	0
236	0
250	0
251	2
252	0
253	0
255	0
257	0
260	0
264	4
265	0
266	0
268	0
269	500
270	72
271	28
272	3
273	0
274	0
