Mass Spectrum: 3,4,5-Trimethylpyrazole, TMS derivative
Formula: C9H18N2Si
CAS: 31209-63-9
Molecular weight: 182
m/z	intensity
26	4
27	42
28	5
29	34
30	4
31	21
37	1
38	1
39	29
40	9
41	76
42	58
43	129
44	39
45	169
46	12
47	8
50	2
51	5
52	3
53	11
54	10
55	40
56	75
57	58
58	63
59	197
60	17
61	7
63	2
65	2
66	9
67	5
68	9
69	24
70	44
71	19
72	27
73	408
74	41
75	64
76	26
77	8
79	2
80	1
81	4
82	4
83	22
84	248
85	999
86	105
87	35
88	1
89	3
91	1
92	1
95	7
96	11
97	15
98	14
99	122
100	14
101	4
102	0
103	6
105	0
108	1
109	14
110	15
111	9
112	14
113	4
114	32
115	3
116	1
117	1
119	1
123	2
124	4
125	23
126	247
127	29
128	10
129	1
130	3
131	17
132	3
133	19
134	2
135	1
137	2
139	2
140	21
141	24
142	5
145	2
148	1
151	2
152	1
153	25
154	6
155	1
165	3
166	6
167	671
168	106
169	32
170	5
179	1
181	38
182	522
183	90
184	24
