Mass Spectrum: Thiirane, (bromomethyl)-
Formula: C3H5BrS
CAS: 31207-14-4
Molecular weight: 152
m/z	intensity
25	5
26	29
27	104
29	14
30	0
31	6
33	3
34	1
35	0
36	2
37	20
38	36
39	191
40	16
41	69
42	2
43	2
44	3
45	500
46	84
47	109
48	5
49	4
56	1
57	19
58	39
59	37
60	2
61	1
64	0
68	2
69	10
70	1
71	24
72	8
73	999
74	39
75	45
76	2
77	2
79	5
80	2
81	5
82	2
91	1
92	1
93	10
94	1
95	8
104	4
105	1
106	2
107	2
108	2
109	0
111	0
112	0
113	0
117	0
118	0
119	22
120	1
121	21
122	1
123	0
124	0
125	2
126	0
127	1
136	0
137	0
138	0
139	1
140	0
149	0
151	0
152	287
153	13
154	294
155	12
156	12
157	0
