Mass Spectrum: Imidazolidine, 2-(4-methylthiophenyl)-1,3-dibenzyl-
Formula: C24H26N2S
CAS: 312274-28-5
Molecular weight: 374
m/z	intensity
33	2
34	0
35	0
36	2
37	0
39	25
40	10
41	15
42	13
43	2
45	36
46	2
47	3
48	0
50	8
51	16
52	4
53	2
54	3
56	21
58	3
59	1
60	0
61	1
62	3
63	16
65	111
66	4
67	0
69	8
70	1
71	2
72	0
74	2
75	3
76	6
77	31
78	17
79	13
81	2
82	3
83	2
84	0
85	0
86	0
87	1
89	43
91	999
92	68
93	5
94	1
95	1
96	1
97	3
98	0
99	0
101	0
102	3
103	10
104	23
105	16
106	3
108	12
109	3
110	1
111	0
112	0
113	0
114	0
116	20
117	76
118	17
119	3
120	7
121	22
122	16
123	10
124	2
125	0
126	0
127	0
128	0
129	1
130	8
131	4
132	15
133	7
134	17
135	13
137	146
138	13
139	6
141	1
142	0
143	0
144	0
145	0
146	1
148	21
149	15
150	10
151	4
152	4
153	0
154	0
156	0
157	0
158	0
159	3
160	1
161	1
163	36
164	157
165	23
166	10
167	2
168	0
171	0
174	0
175	1
176	2
177	2
178	3
179	1
180	1
181	1
182	0
185	0
187	0
189	1
190	1
191	3
192	5
193	2
194	1
195	0
196	0
197	0
198	0
203	0
204	0
205	1
206	0
207	1
208	1
209	0
210	3
211	0
212	0
213	0
214	0
222	0
223	0
224	0
225	0
226	0
227	0
232	0
234	0
235	0
236	0
237	4
238	1
239	1
240	8
241	2
242	8
243	1
244	0
245	0
247	1
249	18
251	333
252	59
254	18
255	6
256	2
257	0
267	0
268	0
269	0
279	0
280	0
281	2
282	3
283	26
284	5
285	1
286	0
295	1
296	1
297	0
298	0
326	0
327	0
358	0
359	0
360	0
368	0
369	1
370	2
373	45
374	21
375	6
376	1
377	0
