Mass Spectrum: Benzaldehyde, 4-acetoxy-3-methoxy-, azine
Formula: C20H20N2O6
CAS: 312282-37-4
Molecular weight: 384
m/z	intensity
33	2
34	1
36	1
37	3
38	17
39	67
40	30
41	66
43	999
44	44
45	7
49	1
50	36
51	111
52	90
53	41
54	9
55	54
56	13
57	37
58	1
59	1
60	2
61	3
62	12
63	54
64	50
65	115
66	27
67	27
68	7
69	18
70	15
71	20
72	1
73	3
74	3
75	7
76	27
77	77
78	44
79	111
80	45
81	26
82	7
83	11
84	8
85	4
86	1
87	1
88	1
89	7
90	16
91	21
92	46
93	41
94	14
95	24
96	3
97	6
98	4
99	1
101	2
102	5
103	6
104	12
105	32
106	40
107	42
108	50
109	27
110	7
111	4
112	13
113	7
114	3
115	8
116	3
117	4
118	9
119	10
120	22
121	38
122	44
123	55
124	12
125	5
126	2
127	5
128	7
129	7
130	5
131	5
132	4
133	12
134	44
135	43
136	23
137	20
138	3
139	4
140	4
141	7
142	4
143	3
144	2
145	5
146	5
147	10
148	19
149	60
150	109
151	44
152	22
153	6
154	4
155	5
156	3
157	6
158	4
159	3
160	4
161	5
162	29
163	6
164	4
165	3
166	3
167	3
168	8
169	12
170	10
171	26
172	4
173	3
174	3
175	14
176	19
177	350
178	37
179	6
180	3
181	5
182	3
183	4
184	5
185	9
186	6
187	3
188	1
189	2
191	2
192	0
193	2
194	1
195	3
196	8
197	14
198	7
199	5
200	3
201	3
202	1
207	5
208	4
209	4
210	3
211	13
212	9
213	13
214	7
215	3
219	1
223	1
224	6
225	7
226	5
227	26
228	13
229	6
230	3
237	3
238	2
239	8
240	8
241	12
242	5
243	2
252	3
253	3
254	2
255	7
256	18
257	11
258	59
259	8
267	3
268	2
269	8
270	5
271	10
272	47
273	74
274	11
275	1
281	1
282	1
283	12
284	17
285	20
286	3
295	2
297	15
298	11
299	159
300	487
301	85
302	10
303	0
338	0
339	1
341	8
342	138
343	26
344	3
382	0
384	75
385	15
386	2
