Mass Spectrum: (3S,3aS,6R,7S,8aS)-3,7,8,8-Tetramethyloctahydro-1H-3a,6-methanoazulen-7-ol
Formula: C15H26O
CAS: 312296-11-0
Molecular weight: 222
m/z	intensity
27	32
28	7
29	47
30	1
38	2
39	77
40	14
41	328
42	29
43	631
44	16
45	44
46	1
47	1
50	4
51	21
52	10
53	101
54	14
55	246
56	32
57	59
58	19
61	2
62	3
63	8
64	6
65	71
66	32
67	396
68	43
69	294
70	138
71	999
72	50
73	7
75	6
76	4
77	144
78	28
79	203
80	20
81	207
82	538
83	150
84	124
85	75
86	46
87	8
91	170
92	23
93	184
94	126
95	482
96	112
97	50
98	27
99	27
100	2
102	2
103	10
104	4
105	120
106	43
107	179
109	492
110	66
111	163
112	21
113	19
114	2
115	8
116	5
117	19
119	368
120	79
121	195
122	45
123	163
125	23
126	9
127	22
131	13
132	18
133	230
135	173
137	420
138	141
139	31
140	13
146	6
147	58
148	107
151	54
152	53
153	31
154	3
161	325
162	93
163	23
165	22
166	38
167	6
173	21
175	86
176	28
177	96
178	60
179	580
180	84
181	6
188	23
189	286
190	51
191	36
192	11
193	3
194	1
204	140
205	106
207	88
208	14
209	1
214	1
222	182
223	27
224	2
