Mass Spectrum: 2-Pyrazolin-4-one, 3-amino-5-imino-, 3-trifluoromethylphenylhydrazone
Formula: C10H9F3N6
CAS: 312276-14-5
Molecular weight: 270
m/z	intensity
37	9
38	28
39	58
40	39
42	999
43	265
44	25
45	6
46	1
48	0
50	41
51	31
52	24
53	59
54	29
55	34
56	9
57	40
58	8
59	2
60	5
61	6
62	17
63	62
64	24
65	13
66	25
67	303
68	259
69	225
70	16
71	7
72	1
73	5
74	13
75	64
76	17
77	9
78	2
79	3
80	4
81	18
82	10
83	23
84	4
85	2
86	1
87	5
88	14
89	7
90	11
91	12
92	3
93	9
94	6
95	65
96	9
97	7
98	6
99	9
100	5
101	4
102	1
103	1
104	2
105	3
106	5
107	7
108	5
109	15
111	11
112	8
113	21
114	20
115	3
116	2
117	3
118	2
119	8
120	10
121	2
122	1
123	1
125	699
126	46
127	8
128	2
129	2
130	0
131	3
132	8
133	9
134	4
135	11
136	1
137	1
138	3
139	12
140	21
141	4
142	7
143	2
144	4
145	131
146	12
147	2
148	1
149	7
150	1
151	1
152	2
153	1
154	1
155	0
156	2
157	2
158	3
159	13
160	37
161	19
162	2
163	0
164	1
165	1
166	2
167	2
168	0
169	0
170	0
171	3
172	8
173	6
174	1
175	3
176	1
177	1
178	1
179	1
180	7
181	3
182	0
183	0
184	1
185	2
186	1
187	2
188	0
197	2
198	1
199	2
200	7
201	1
202	7
203	4
204	0
205	2
206	4
207	0
211	2
212	1
213	1
214	4
215	0
216	1
217	0
221	7
222	1
223	5
224	1
225	1
226	0
228	0
241	6
242	6
243	0
253	1
254	0
255	0
269	3
270	168
271	22
272	1
