Mass Spectrum: Acetamide, 2-(4-trifluoromethyl-2-nitrophenylthio)-N-(3-fluorophenyl)-
Formula: C15H10F4N2O3S
CAS: 312290-41-8
Molecular weight: 374
m/z	intensity
33	4
34	1
36	4
37	2
38	7
39	13
40	23
41	5
42	17
43	14
44	8
45	69
46	13
47	8
48	1
50	9
51	13
52	9
56	5
57	53
58	11
59	1
62	9
63	36
64	12
65	4
66	1
67	1
69	54
70	11
71	6
72	3
74	8
75	53
76	8
77	27
78	27
79	2
81	13
82	24
83	134
84	44
85	4
86	11
87	2
88	3
89	9
90	7
91	7
92	3
93	6
95	166
96	43
97	33
98	4
99	4
100	2
101	9
102	1
103	1
104	7
105	2
106	5
107	11
108	16
109	46
110	134
111	999
112	84
114	20
115	5
116	2
117	1
118	1
119	8
120	6
121	17
122	27
123	22
124	183
125	25
126	66
127	22
128	2
129	2
130	1
131	4
132	25
133	10
134	5
135	34
136	16
137	52
138	98
139	24
140	10
141	4
142	8
143	5
144	8
145	29
146	67
147	8
148	7
149	3
150	21
151	12
152	26
153	6
154	2
155	3
156	3
157	60
158	37
159	21
160	7
161	13
162	2
163	7
164	41
165	5
166	22
167	6
168	23
169	3
170	5
171	11
172	12
173	7
174	172
175	25
176	53
177	15
178	11
179	47
180	6
181	3
182	2
183	13
184	9
185	2
186	2
187	5
188	14
189	87
190	80
191	15
192	22
193	4
194	1
198	0
199	3
200	7
201	2
202	4
203	15
204	25
205	19
206	263
207	224
208	56
209	16
210	2
213	1
214	1
215	1
216	1
217	5
218	2
219	2
220	25
221	3
222	11
223	2
224	1
230	2
231	0
232	2
233	10
234	4
235	1
236	13
237	4
238	1
241	2
249	3
253	1
254	1
255	1
263	1
265	1
266	3
267	4
268	2
281	24
282	4
283	1
284	1
285	2
286	0
290	1
291	1
293	6
294	1
295	1
296	2
298	0
299	1
300	22
301	3
306	0
309	87
310	24
311	3
312	2
325	3
326	6
328	142
329	22
330	6
339	1
340	5
344	0
355	11
356	3
371	1
374	408
375	68
376	25
377	4
