Mass Spectrum: Furazan-3-amine, 4-[hydroximino(1-piperidyl)methyl-
Formula: C8H13N5O2
CAS: 312269-01-5
Molecular weight: 211
m/z	intensity
36	6
37	17
38	78
39	396
40	29
41	615
42	445
43	293
44	390
45	31
50	18
51	34
52	55
53	176
54	185
55	467
56	331
57	137
58	52
59	64
60	11
63	8
64	14
65	35
66	38
67	115
68	97
69	189
70	71
71	51
72	35
73	3
74	1
76	3
77	19
78	19
79	86
80	139
81	116
82	223
83	203
84	999
85	116
86	10
91	22
92	9
93	16
94	33
95	58
96	89
97	32
98	49
99	0
105	5
106	3
107	11
108	43
109	63
110	53
111	122
112	18
113	0
115	2
119	12
120	6
121	12
123	49
124	17
125	8
126	9
127	9
128	5
134	5
135	16
136	43
137	35
138	44
139	5
143	1
147	7
148	52
149	16
151	3
152	14
153	10
154	85
155	2
162	0
163	45
164	138
165	14
171	1
173	2
175	4
194	183
195	15
211	135
212	4
