Mass Spectrum: Ethanol, 2-[4-(2-chloro-4-nitrophenyl)piperazin-1-yl]-
Formula: C12H16ClN3O3
CAS: 312269-35-5
Molecular weight: 285
m/z	intensity
33	1
35	5
36	18
38	28
39	41
42	999
43	121
44	93
45	126
46	10
47	1
50	52
51	44
52	31
54	88
56	353
57	64
58	45
59	2
61	11
62	22
63	55
64	17
65	17
66	6
68	26
70	484
71	30
73	90
74	50
75	126
76	56
77	34
78	22
79	5
80	6
82	26
83	11
84	15
85	10
86	23
87	8
88	15
89	36
90	23
91	12
92	6
93	2
94	1
95	4
97	39
98	23
99	23
100	36
102	66
103	32
104	15
105	6
106	8
107	2
110	38
111	33
112	29
113	15
114	6
115	5
116	17
117	15
118	7
119	5
120	4
121	3
123	8
124	16
125	8
126	12
127	10
128	7
129	4
130	17
131	13
132	4
133	1
134	1
135	0
137	37
138	22
139	19
140	10
141	5
142	3
143	5
144	3
145	2
146	1
147	0
149	6
150	2
151	5
152	5
153	15
154	30
155	8
156	11
157	3
158	1
159	1
160	0
161	0
163	1
164	7
165	22
166	8
167	12
168	5
169	3
170	4
171	1
172	3
173	1
174	0
175	0
177	10
179	7
180	3
181	2
183	34
184	19
185	14
186	6
187	2
188	0
189	0
190	1
191	1
193	10
194	4
195	4
196	1
197	1
198	1
199	5
200	1
201	1
202	0
203	0
204	1
205	2
206	5
207	3
208	33
211	92
212	9
213	24
214	3
215	0
216	0
217	0
218	2
219	4
220	1
221	0
222	0
223	1
224	4
225	1
226	6
227	1
228	1
229	0
232	0
233	0
234	0
235	1
236	1
238	14
239	28
240	10
241	10
242	2
243	0
244	0
246	0
247	0
249	3
251	10
252	14
254	359
255	47
256	116
257	13
258	1
266	0
267	1
268	0
269	0
270	0
271	0
281	0
282	1
283	1
284	2
285	25
287	12
288	1
