Mass Spectrum: Furan-2-carboxamide, N-[4-(1-naphthyl-2-thiazolyl)]-
Formula: C18H12N2O2S
CAS: 312290-01-0
Molecular weight: 320
m/z	intensity
35	0
36	2
37	9
38	26
39	88
40	5
41	2
42	1
43	1
44	4
45	13
47	0
50	4
51	10
53	7
55	0
57	0
61	0
62	4
63	8
64	2
65	3
66	5
67	17
68	1
69	3
70	1
71	1
73	0
74	7
75	12
76	7
77	11
78	2
79	3
81	0
82	1
83	0
85	1
86	7
87	7
89	9
90	1
91	4
92	4
95	999
96	38
98	6
99	7
100	6
101	11
102	5
103	2
104	2
105	1
106	1
109	0
110	2
112	9
113	10
114	8
115	18
116	1
117	1
118	0
119	1
120	0
121	0
122	0
124	2
125	16
126	43
127	58
128	15
129	3
130	0
131	1
132	1
133	1
135	0
136	2
137	8
139	116
140	19
141	3
145	1
147	0
148	0
149	3
150	16
151	38
152	165
153	53
154	25
155	4
156	0
157	2
158	3
159	1
160	0
161	1
162	0
164	34
165	15
166	16
167	32
169	11
170	11
171	33
172	3
173	0
174	0
175	4
176	1
177	2
178	2
179	10
180	3
181	8
182	14
183	53
184	160
185	24
186	9
187	1
189	1
190	2
191	7
192	12
193	5
194	2
195	3
196	28
197	10
198	12
199	2
200	0
204	7
205	5
208	99
209	80
210	19
211	8
212	2
218	0
219	1
221	2
222	2
223	4
224	18
225	32
226	62
227	10
228	3
229	0
231	2
232	3
234	1
235	1
236	6
237	5
238	4
239	0
247	3
248	1
249	2
250	1
251	3
252	2
253	2
259	1
260	0
261	1
262	4
263	31
264	18
265	9
266	7
267	0
273	0
274	0
275	1
276	0
277	3
278	0
287	0
289	1
291	72
292	129
293	27
294	8
295	0
316	1
317	2
320	336
321	60
322	20
323	2
