Mass Spectrum: Phthalazine-1,4(2H,3H)-dione, 5-[(5-bromo-2-thienyl)methylenamino]-
Formula: C13H8BrN3O2S
CAS: 312271-75-3
Molecular weight: 349
m/z	intensity
33	0
34	1
36	1
37	53
38	105
39	77
40	36
41	68
42	9
43	15
44	21
45	188
46	4
47	7
48	1
49	13
50	65
51	89
52	126
53	27
54	11
55	7
56	4
57	53
58	6
59	6
60	9
61	39
62	88
63	199
64	234
65	232
66	23
67	4
68	9
69	94
70	14
71	8
73	8
74	28
75	49
76	25
77	30
78	35
79	16
80	9
81	32
82	51
83	11
84	3
85	0
86	1
87	4
88	14
89	27
90	86
91	999
92	161
93	66
94	10
95	370
96	29
97	18
98	3
100	0
101	2
102	3
103	32
104	12
105	40
106	14
107	6
108	8
109	9
110	3
111	1
112	1
113	1
115	6
116	9
117	47
118	199
119	506
120	130
121	14
122	1
123	8
124	0
125	8
126	0
127	2
128	1
129	1
130	1
131	1
132	2
133	5
134	3
135	6
136	4
137	1
138	3
139	0
140	2
141	1
142	0
143	1
144	52
145	35
146	19
147	19
148	10
149	2
151	0
152	2
153	1
154	1
157	0
158	2
159	1
160	2
161	7
162	993
163	103
164	9
165	1
170	2
171	5
172	0
173	2
174	52
175	8
176	56
177	210
178	23
179	2
180	1
181	1
182	0
184	0
185	2
186	4
187	29
188	9
189	28
190	9
191	5
192	0
194	0
197	0
198	2
199	1
202	6
204	6
205	2
208	1
209	1
210	0
213	1
214	1
215	0
216	0
222	0
225	1
240	1
241	1
242	1
243	0
270	3
271	1
283	0
316	2
324	0
333	0
348	1
349	151
350	30
351	159
352	25
353	9
354	0
