Mass Spectrum: Benzene, 1-(4-acetoxy-3-methoxybenzylidenamino)-4-acetylamino-
Formula: C18H18N2O4
CAS: 312282-34-1
Molecular weight: 326
m/z	intensity
37	1
38	8
39	22
40	5
41	17
43	999
44	18
50	14
51	31
52	25
53	12
54	3
55	4
56	0
57	1
60	0
62	8
63	36
64	35
65	69
66	20
67	6
69	2
70	0
71	0
73	0
74	3
75	6
76	14
77	27
78	13
79	20
80	18
81	12
82	1
83	1
85	1
86	0
87	1
88	2
89	13
90	25
91	32
92	96
93	138
95	30
96	1
97	0
98	0
99	1
100	1
101	4
102	6
103	5
104	8
105	8
106	9
107	7
108	18
109	10
110	1
111	0
113	3
114	6
115	22
116	11
117	13
118	15
119	18
120	6
121	3
122	2
123	4
124	5
125	2
126	6
127	15
128	10
129	5
130	6
131	5
132	8
133	4
134	17
135	24
137	6
138	1
139	7
140	11
141	14
142	13
143	15
144	13
145	8
146	2
147	2
148	2
149	2
150	18
151	4
152	7
153	12
154	37
155	13
156	6
157	4
159	21
160	2
161	5
162	1
163	1
164	2
165	2
166	10
167	12
168	16
169	48
170	29
171	13
172	6
173	0
174	0
175	0
177	0
178	1
179	7
180	8
181	38
182	36
183	27
184	8
185	3
186	2
187	0
188	0
190	0
191	1
192	4
193	4
194	5
195	13
196	17
197	24
198	43
199	16
200	4
201	0
205	0
206	1
207	5
208	5
209	23
210	15
211	25
212	21
213	13
214	4
215	2
219	1
220	1
221	3
222	3
223	15
224	19
225	44
226	83
227	24
228	3
229	0
233	0
234	1
235	1
236	1
237	5
238	6
239	13
241	288
242	319
243	53
244	5
245	0
247	0
248	2
249	1
250	1
251	4
252	5
253	9
254	6
255	9
256	2
264	0
265	4
266	2
267	14
268	12
269	5
270	1
276	0
277	0
279	1
280	3
281	8
283	165
284	695
285	123
286	16
287	1
295	0
297	0
310	0
311	0
322	0
323	2
326	187
327	35
328	6
329	0
