Mass Spectrum: 13,17-Seco-5.alpha.-pregn-13(18)-en-20-one
Formula: C21H34O
CAS: 31239-27-7
Molecular weight: 302
m/z	intensity
63	20
64	20
65	180
66	100
67	999
68	190
69	360
70	30
71	260
72	40
73	20
74	10
75	10
76	20
77	360
78	110
79	770
80	230
81	890
82	150
83	270
84	300
85	340
86	60
87	10
89	10
91	610
92	170
93	630
94	250
95	730
96	120
97	150
98	30
99	50
101	20
102	20
103	50
104	60
105	450
106	210
107	510
108	310
109	780
110	110
111	60
113	30
115	50
116	50
117	100
118	80
119	320
120	170
121	540
122	250
123	160
124	30
125	40
127	30
128	50
129	60
130	40
131	100
132	100
133	220
134	400
135	470
136	130
137	40
138	30
139	20
141	20
142	20
143	40
144	40
145	110
146	60
147	300
148	210
149	330
150	80
151	30
152	20
153	20
155	30
157	30
158	20
159	120
160	60
161	200
162	170
163	130
164	30
165	30
171	30
172	20
173	90
174	90
175	260
176	70
177	40
178	20
179	20
185	30
187	70
188	40
189	70
190	40
191	40
192	190
193	70
194	20
199	40
200	20
201	70
202	50
203	130
204	30
205	30
206	20
207	20
213	30
214	20
215	130
216	80
217	990
218	270
219	60
220	30
227	30
228	30
229	130
230	50
231	60
232	50
233	20
241	30
242	40
243	30
244	190
245	80
246	30
247	30
255	40
256	40
257	40
258	30
259	30
260	30
269	90
270	40
271	30
273	30
274	40
283	30
284	100
285	50
286	30
287	370
288	110
289	30
300	40
301	30
302	390
303	100
304	40
