Mass Spectrum: 2-Octanol, 8,8-dimethoxy-
Formula: C10H22O3
CAS: 312305-55-8
Molecular weight: 190
m/z	intensity
26	0
27	20
28	6
29	27
30	1
31	38
33	3
39	15
40	2
41	83
42	5
43	60
44	7
45	148
46	3
47	75
48	1
51	0
53	6
54	6
55	33
56	2
57	8
58	47
59	16
60	0
61	6
63	1
65	2
66	0
67	35
68	4
69	8
70	0
71	256
72	10
73	4
74	2
75	999
76	32
77	2
78	0
79	2
80	1
81	17
82	15
83	15
84	4
85	15
86	1
87	0
88	0
89	0
91	2
92	0
93	9
94	0
95	4
97	5
98	5
99	4
101	5
102	0
105	0
107	2
108	2
109	69
110	6
111	10
112	1
113	2
114	15
115	1
116	1
123	1
125	7
126	3
127	19
128	1
130	1
139	0
141	6
142	1
143	9
144	0
157	1
159	62
160	7
161	0
167	0
173	0
189	0
190	1
