Mass Spectrum: Benzene, 1-bromo-2,4-dimethoxy-5-phenyliminomethyl-
Formula: C15H14BrNO2
CAS: 312315-76-7
Molecular weight: 319
m/z	intensity
33	8
34	2
35	0
37	22
38	59
39	159
40	23
41	20
42	8
43	16
44	4
45	5
46	0
47	1
48	1
50	220
51	505
52	57
53	64
54	6
55	7
56	3
57	4
59	13
60	3
61	32
62	115
63	217
64	73
65	84
66	31
67	3
69	70
71	7
73	10
74	67
75	82
76	133
77	999
78	129
79	45
80	7
81	5
82	5
83	10
84	5
85	3
86	9
87	16
88	33
89	45
90	54
91	63
92	46
93	256
94	20
95	2
96	1
97	1
98	3
99	7
100	8
101	10
102	16
103	19
104	88
105	40
106	13
107	11
108	4
109	3
110	1
111	2
113	14
114	9
115	12
116	10
117	19
118	26
119	24
120	26
121	6
122	4
123	1
124	1
125	3
126	14
127	26
128	17
129	16
130	8
131	16
132	16
133	88
134	15
135	2
136	1
137	4
138	8
139	33
140	24
141	22
142	7
143	19
144	7
145	7
146	5
148	649
149	64
150	7
151	7
152	17
153	31
154	32
155	14
156	8
157	18
158	7
159	15
160	4
161	2
162	3
163	14
164	11
165	14
166	30
167	35
168	17
169	7
170	12
171	5
172	8
173	10
175	10
176	1
177	2
178	6
179	5
180	10
181	7
182	21
183	8
184	12
185	12
186	12
187	10
188	2
189	0
192	1
193	3
194	16
195	11
196	13
197	7
198	16
199	16
200	17
201	15
202	3
203	0
206	1
208	6
209	29
210	12
211	10
212	6
213	9
214	6
215	2
216	1
217	1
219	0
220	0
221	0
222	0
224	12
225	9
226	37
227	173
228	49
229	168
230	17
231	5
232	2
233	0
234	1
235	0
238	1
239	1
240	1
241	5
242	3
243	5
244	4
245	3
246	2
247	2
248	0
258	0
260	8
261	2
262	6
263	2
272	0
273	1
274	0
275	2
276	0
277	0
287	1
288	7
289	2
290	7
291	1
292	0
303	3
304	2
305	3
306	2
307	0
315	0
316	0
317	1
318	4
319	17
320	5
321	16
322	2
323	0
