Mass Spectrum: 5-Amino-3-methylpyrazole
Formula: C4H7N3
CAS: 31230-17-8
Molecular weight: 97
m/z	intensity
13	0
15	19
17	2
18	8
25	2
26	13
27	27
28	20
29	56
30	40
31	7
35	4
36	21
37	38
38	90
39	268
40	74
41	295
42	175
43	101
44	22
48	7
49	13
50	9
51	21
52	48
53	39
54	108
55	35
56	20
57	38
58	4
62	1
63	3
64	7
65	15
66	123
67	36
68	97
69	22
70	9
79	14
80	13
81	17
82	7
96	273
97	999
98	59
99	1
