Mass Spectrum: Methanone, (1-methyl-4-nitro-3-pyrazolyl)(5-methyl-3-nitro-1-pyrazolyl)-
Formula: C9H8N6O5
CAS: 312535-17-4
Molecular weight: 280
m/z	intensity
33	11
34	0
37	11
39	59
40	56
42	999
43	153
46	25
50	16
51	45
52	77
53	26
54	14
55	3
56	2
63	0
65	21
66	8
67	19
68	5
69	2
70	0
77	18
78	5
79	14
80	19
81	3
82	3
83	2
92	0
94	0
97	2
104	0
105	14
106	0
108	68
109	7
110	19
111	1
121	0
124	0
125	1
127	14
138	78
139	4
145	0
150	0
152	6
154	805
155	46
156	4
173	0
187	1
188	7
189	0
214	1
231	9
232	5
234	678
235	81
236	8
264	1
280	0
