Mass Spectrum: Isoxazole-4-carboxamide, 3-(2-chloro-6-fluorophenyl)-5-methyl-N-(3-chloro-4-fluorophenyl)-
Formula: C17H10Cl2F2N2O2
CAS: 312538-12-8
Molecular weight: 382
m/z	intensity
33	4
34	0
35	0
36	6
38	5
39	6
40	10
43	999
45	2
47	0
50	7
51	3
52	2
53	1
54	2
55	2
57	19
58	0
60	0
61	2
62	3
63	9
64	2
65	1
67	9
68	4
69	5
70	1
71	0
72	2
73	3
74	7
75	8
76	2
77	0
78	0
81	16
82	11
83	7
84	2
85	1
86	0
87	2
88	2
89	2
91	8
93	15
94	14
95	5
96	0
98	2
99	2
100	3
101	0
102	1
105	2
106	7
107	4
108	14
109	26
110	3
111	1
112	0
114	0
115	1
116	2
117	27
118	4
119	11
120	7
121	3
122	2
123	1
124	1
125	1
126	0
127	0
128	2
129	13
130	3
131	6
132	15
133	23
134	1
135	1
136	1
137	0
138	1
140	1
141	19
142	2
143	9
144	14
145	14
146	5
147	4
148	2
149	0
150	1
151	0
153	0
154	1
155	4
156	6
157	4
158	3
159	2
160	0
161	1
162	7
163	0
165	0
166	2
168	49
169	6
170	15
171	2
172	0
173	0
174	0
175	0
176	0
178	1
180	1
181	1
182	1
183	0
184	0
185	0
188	0
191	0
194	13
196	480
197	51
198	142
199	13
200	1
202	0
203	0
204	1
208	0
210	0
212	0
213	0
215	0
220	0
221	0
234	0
235	1
236	4
238	112
239	13
240	32
241	4
242	1
244	0
258	0
269	0
275	0
276	0
285	0
286	0
297	0
303	0
304	0
305	1
307	0
310	0
312	0
329	0
339	0
343	1
344	0
345	0
347	69
348	12
349	22
350	4
351	0
378	0
380	0
381	2
382	50
383	11
384	29
385	6
386	5
387	1
