Mass Spectrum: Pyrrol-2(5H)-one, 4-acetyl-5-(2-fluorophenyl)-3-hydroxy-
Formula: C12H10FNO3
CAS: 312533-12-3
Molecular weight: 235
m/z	intensity
33	10
34	3
36	2
37	6
39	81
40	43
41	58
43	999
44	129
45	55
46	20
47	0
49	3
50	50
51	78
52	19
53	59
54	12
55	23
56	11
57	39
58	5
59	4
60	12
61	6
62	16
63	35
64	9
65	13
67	40
68	69
69	119
70	101
71	10
72	9
74	48
75	166
76	35
77	17
78	3
79	3
80	6
81	19
82	17
83	27
84	12
85	13
86	6
87	7
88	9
89	35
91	8
92	8
93	14
94	49
95	65
96	44
97	27
98	11
99	20
100	32
101	238
102	94
103	11
104	4
105	4
106	5
107	28
108	16
109	44
110	5
111	5
112	16
113	4
115	12
116	34
117	21
118	8
120	171
121	167
122	117
123	115
124	103
125	33
126	11
127	8
128	6
129	4
130	3
131	7
133	26
134	31
135	33
136	41
137	5
138	0
139	4
140	6
141	1
142	0
144	23
145	46
146	40
147	108
149	576
150	60
151	4
157	2
158	0
159	4
160	10
161	21
163	72
164	135
165	14
169	6
170	9
171	7
172	7
173	13
174	5
175	2
176	0
177	8
178	10
179	4
186	3
187	4
188	28
189	16
191	59
192	204
193	683
194	75
195	3
198	2
206	17
207	4
209	0
214	1
216	24
217	5
218	1
219	0
220	46
221	4
235	545
236	63
237	4
