Mass Spectrum: Pyridine-2,6-dicarboxamide, N,N'-bis(3-trifluoromethylphenyl)-
Formula: C21H13F6N3O2
CAS: 312592-76-0
Molecular weight: 453
m/z	intensity
33	5
34	4
36	12
37	15
38	68
39	153
40	65
41	33
42	12
43	28
44	29
45	18
46	4
47	15
50	261
51	312
52	118
53	74
54	14
55	12
57	76
58	18
59	10
61	8
63	222
64	100
65	72
66	54
67	11
69	122
70	14
71	9
73	4
75	152
76	186
77	825
78	332
79	37
80	10
81	19
83	115
84	16
85	3
86	3
88	72
89	22
90	59
91	97
92	28
93	59
94	32
95	123
96	26
97	4
98	8
99	14
100	13
101	10
102	13
103	75
105	999
106	380
107	39
108	16
109	39
110	9
111	24
113	182
114	141
115	20
116	6
117	6
118	5
119	33
120	57
121	16
122	40
123	50
124	18
125	56
126	48
127	12
128	4
129	3
131	47
132	52
133	135
134	15
135	2
136	4
137	10
139	53
140	161
141	44
142	48
143	17
145	349
146	31
147	5
148	3
149	1
150	5
151	7
152	21
153	7
154	2
155	1
156	2
157	4
158	15
159	37
160	177
161	170
162	34
163	7
164	5
165	5
166	14
167	19
168	114
169	45
171	359
172	38
173	5
174	2
175	2
176	6
177	5
178	4
179	9
180	1
181	1
182	5
183	7
184	4
185	7
186	8
187	35
188	35
189	11
190	16
191	6
192	3
193	2
194	7
195	45
196	38
197	59
198	15
199	3
200	3
201	1
202	9
203	3
205	2
207	3
208	7
209	2
210	7
211	4
212	4
213	1
214	4
215	8
216	9
217	53
218	27
219	9
220	4
221	3
222	9
223	4
224	2
225	10
226	16
227	4
228	1
233	1
234	2
235	11
236	32
237	49
238	177
239	448
240	57
241	6
243	11
244	31
245	20
246	31
247	8
248	25
249	5
252	4
263	58
264	52
265	78
266	302
267	41
268	4
272	4
273	3
274	8
275	1
289	2
290	3
291	6
292	10
293	32
294	4
310	3
335	1
384	3
414	12
415	2
424	4
425	3
432	1
434	30
435	6
445	1
446	2
448	3
449	3
450	7
451	5
453	328
454	63
455	9
