Mass Spectrum: Benzamide, 4-(2,2-dimethylpropionylamino)-N-(2-methylpropyl)-
Formula: C16H24N2O2
CAS: 312512-35-9
Molecular weight: 276
m/z	intensity
37	0
39	35
41	216
42	16
43	30
44	7
45	0
50	5
51	3
52	3
53	5
54	1
55	20
57	999
58	35
59	1
62	0
63	14
64	24
65	40
66	4
67	1
68	0
69	12
70	5
71	1
72	1
74	3
75	5
76	8
77	6
78	2
79	1
80	2
81	1
82	3
83	3
85	84
86	4
88	0
90	22
91	55
92	72
93	12
94	7
95	0
97	1
98	0
102	0
103	8
104	11
105	5
106	8
107	6
108	5
109	2
115	1
117	2
118	11
119	108
120	225
121	64
122	5
127	0
129	0
130	1
131	1
132	1
133	5
134	4
135	7
136	86
137	9
138	0
145	0
146	35
147	5
148	9
149	3
150	6
151	1
152	1
153	0
160	3
161	2
162	4
163	9
164	2
171	0
174	8
175	6
176	10
177	5
178	4
179	0
180	1
181	3
182	0
188	2
189	1
190	2
191	3
192	114
193	15
194	1
201	0
202	3
204	532
205	72
206	7
207	0
210	0
217	0
218	3
219	21
220	492
221	78
222	7
223	0
232	0
233	30
234	9
235	1
259	4
260	1
261	9
262	1
274	1
276	202
277	30
278	4
