Mass Spectrum: Benzothiazole, 6-nitro-2-(2-pyridylthio)-
Formula: C12H7N3O2S2
CAS: 312535-30-1
Molecular weight: 289
m/z	intensity
33	9
34	0
37	2
38	22
39	64
40	10
41	1
43	1
44	4
45	30
46	3
47	1
49	2
50	37
51	276
52	54
54	3
56	2
57	20
58	10
59	2
60	4
61	13
63	335
64	23
65	4
67	6
69	91
70	33
71	10
72	2
73	2
74	14
75	22
76	16
78	999
79	43
81	37
82	63
83	37
84	13
85	3
86	0
87	3
88	13
89	7
90	2
91	1
93	17
94	21
95	34
96	10
97	5
98	0
99	2
100	2
101	3
102	5
103	1
104	3
105	9
106	25
107	108
108	13
109	22
110	24
111	6
112	3
113	2
114	4
115	2
116	1
117	0
118	2
119	3
120	26
122	110
123	4
124	1
126	4
127	3
128	2
129	3
133	28
134	7
135	4
136	2
137	2
138	6
139	20
140	22
141	20
142	8
143	1
144	10
145	11
146	3
147	2
148	1
150	1
151	1
152	5
153	16
155	21
156	1
157	0
158	3
159	3
160	2
161	0
163	3
165	80
166	23
167	127
168	17
169	0
170	1
172	8
173	17
174	6
175	1
179	10
180	4
181	1
182	2
183	6
184	31
185	120
186	31
187	11
188	2
189	0
190	1
193	0
195	2
196	0
197	3
198	14
199	37
200	7
201	7
202	2
203	0
204	0
208	0
210	20
211	30
212	8
213	2
215	21
216	11
217	4
218	2
220	1
221	1
222	0
225	0
227	0
230	4
231	9
232	14
233	2
234	0
236	0
240	0
241	12
242	133
243	110
244	25
245	31
246	2
247	1
253	0
256	2
257	1
258	6
259	18
260	2
261	3
273	4
288	519
289	881
290	170
291	90
292	12
293	2
294	0
