Mass Spectrum: Ethane, 1,1'-oxybis[2-(2-bromoethoxy)-
Formula: C8H16Br2O3
CAS: 31255-26-2
Molecular weight: 318
m/z	intensity
25	0
26	20
27	294
28	109
29	61
30	7
31	45
38	0
39	2
40	1
41	11
42	10
43	132
44	32
45	129
46	2
47	0
50	0
51	14
52	0
53	0
54	0
55	3
56	0
57	11
58	15
59	137
60	5
61	0
65	0
66	0
67	0
68	0
69	1
70	2
71	53
72	3
73	210
74	6
75	3
76	0
77	1
78	0
79	1
80	1
81	2
82	1
83	0
84	0
85	1
86	1
87	93
88	9
89	7
90	0
91	0
92	0
93	15
94	3
95	14
96	2
97	4
98	0
99	1
100	0
101	6
102	0
103	10
104	0
105	82
106	13
107	999
108	34
109	978
110	20
115	31
116	2
117	30
118	1
119	0
120	0
121	2
122	0
123	3
125	1
127	0
128	0
130	0
131	0
133	0
137	28
138	0
139	27
140	0
141	6
142	0
143	0
150	148
151	233
152	145
153	218
154	9
155	0
157	0
159	11
160	1
161	0
164	0
165	0
166	0
167	0
168	0
169	0
171	0
178	0
179	0
181	85
182	4
183	79
184	4
185	0
186	0
187	0
193	0
194	2
195	34
196	4
197	35
198	2
199	0
202	0
207	0
215	0
223	0
225	1
227	1
229	0
230	0
239	1
240	0
241	1
242	0
