Mass Spectrum: Oxazole, 5-(2-furfurylamino)-2-(4-methylphenyl)-4-phenylsulfonyl-
Formula: C21H18N2O4S
CAS: 312538-13-9
Molecular weight: 394
m/z	intensity
33	1
34	0
35	0
36	3
38	4
39	26
41	26
42	21
43	13
44	2
45	2
46	0
48	0
50	6
51	31
53	112
54	6
55	2
56	0
57	1
59	0
60	0
62	2
63	9
65	53
66	3
67	2
68	2
69	3
70	1
71	3
72	2
73	0
74	1
75	3
77	41
78	11
81	999
82	60
83	3
84	1
85	0
87	1
88	2
89	18
91	242
92	15
94	5
95	3
96	5
97	5
98	0
99	0
100	0
101	3
102	9
103	11
104	1
105	3
106	2
107	2
108	2
109	2
110	0
111	0
112	0
113	0
114	0
115	1
116	3
119	862
120	50
121	5
122	3
125	31
126	3
127	3
128	7
129	4
130	5
131	0
132	1
133	2
134	0
136	11
137	0
138	0
139	0
141	1
142	0
143	1
144	0
145	0
146	0
147	0
149	1
150	3
151	0
152	0
153	0
154	0
155	1
156	0
157	1
158	4
159	0
160	0
162	0
163	0
164	0
165	0
166	0
168	1
169	0
170	0
171	1
172	0
176	0
177	0
178	0
179	1
180	0
181	0
183	0
184	0
185	0
190	0
193	0
195	0
196	4
197	2
198	1
199	1
200	0
205	0
206	0
208	0
209	0
210	0
211	0
216	0
223	0
224	1
225	2
226	0
235	0
236	0
238	0
239	0
247	0
248	0
249	0
250	1
251	2
253	72
254	11
255	1
256	0
257	0
259	0
269	0
297	0
298	1
299	0
300	0
301	0
311	0
312	0
313	4
314	0
315	0
327	0
328	0
329	0
349	0
359	0
361	0
370	0
377	0
380	0
388	0
389	0
390	1
391	3
393	12
394	183
395	45
396	14
397	2
398	2
399	0
405	0
