Mass Spectrum: Pyrrolidine-3-carboxamide, 5-oxo-1-phenyl-N-(3-chlorophenyl)-
Formula: C17H15ClN2O2
CAS: 312502-73-1
Molecular weight: 314
m/z	intensity
33	4
35	0
36	2
39	59
41	179
42	7
43	2
44	3
50	13
51	30
52	7
53	5
55	135
56	5
57	1
58	0
61	0
62	3
63	20
64	15
65	17
66	3
68	17
69	4
70	0
71	0
72	0
73	5
75	19
77	130
78	17
79	17
80	1
81	0
82	4
83	0
84	1
85	0
86	0
88	0
89	2
90	13
91	24
92	11
93	17
94	1
95	0
98	1
99	15
100	4
101	5
102	3
104	78
106	999
107	54
108	1
111	20
113	7
114	0
115	1
117	29
118	9
119	28
120	8
121	0
125	3
127	70
128	12
129	24
130	57
131	21
132	59
133	8
134	0
138	0
139	3
140	1
141	0
142	1
143	0
145	14
146	30
147	3
152	1
153	4
154	3
155	2
156	2
157	5
159	49
160	71
161	14
162	3
164	7
165	0
166	2
167	2
178	0
180	22
181	8
182	7
183	2
186	1
187	0
188	0
193	1
194	2
195	0
196	0
208	2
209	18
210	3
211	4
216	14
217	2
218	4
219	0
223	0
228	0
267	0
272	0
280	0
286	0
310	0
311	0
314	175
315	34
316	50
317	8
318	0
