Mass Spectrum: 3-(2-Fluoro-benzylsulfanyl)-1H-[1,2,4]triazole
Formula: C9H8FN3S
CAS: 312502-18-4
Molecular weight: 209
m/z	intensity
38	2
39	16
40	3
41	9
42	20
43	1
45	78
46	8
47	2
50	4
51	6
56	0
57	25
58	3
59	13
62	8
63	27
64	1
65	1
69	7
70	35
71	60
73	8
74	1
75	6
76	0
81	19
83	139
84	4
86	0
87	6
89	32
90	1
94	1
95	6
96	6
100	21
101	3
107	74
109	999
110	61
111	2
114	1
121	1
122	4
135	2
139	57
140	10
141	1
142	0
149	4
159	10
160	4
161	7
176	140
177	8
189	8
190	2
209	674
210	57
211	26
212	0
