Mass Spectrum: Furazano[3,4-b]tetrazolo[1,5-d]pyrazin-5-amine, N-(4-iodophenyl)-
Formula: C10H5IN8O
CAS: 312632-44-3
Molecular weight: 380
m/z	intensity
35	5
36	22
37	60
38	173
39	162
40	73
41	97
42	23
43	46
44	37
45	29
46	18
50	565
51	164
52	110
53	182
54	10
55	10
56	5
57	16
58	8
60	9
61	37
62	130
63	309
64	272
65	90
66	18
67	20
68	16
69	10
70	7
71	11
72	7
73	37
74	147
75	259
76	999
77	127
78	106
79	20
80	5
82	6
83	5
84	5
86	9
87	27
88	85
89	52
90	349
91	203
92	24
93	16
99	6
100	9
101	23
102	122
103	50
104	8
105	8
109	10
113	5
114	14
115	36
116	115
117	79
118	11
127	89
128	37
129	9
130	9
135	10
141	12
142	32
143	278
144	28
152	6
153	5
154	21
155	6
165	7
168	213
169	45
181	6
184	6
191	26
194	32
195	389
196	50
203	371
204	24
218	61
219	9
229	8
230	12
243	27
244	116
245	14
255	175
256	15
269	24
270	49
271	8
295	7
322	52
323	6
352	8
354	7
380	194
381	24
