Mass Spectrum: Thiazole-5-carboxylic acid, 2-tert-butylthio-4-methyl-
Formula: C9H13NO2S2
CAS: 312616-95-8
Molecular weight: 231
m/z	intensity
33	11
34	21
36	7
37	35
38	86
39	473
40	207
41	739
42	108
43	100
44	133
45	323
46	20
47	12
49	11
50	52
51	58
52	28
53	48
54	25
55	96
57	999
58	105
59	124
60	27
61	16
62	13
63	29
64	17
65	47
66	9
67	18
69	122
70	109
71	157
72	38
73	17
74	20
75	20
76	33
77	43
78	14
80	23
81	16
82	19
83	38
84	79
85	49
86	29
87	26
88	48
89	24
90	18
91	147
92	15
93	3
95	47
96	14
97	6
98	15
99	2
102	13
103	5
104	3
105	13
106	2
109	1
110	4
111	4
112	5
113	7
114	8
115	6
116	12
117	1
118	1
119	15
120	1
123	18
126	4
128	107
129	349
130	43
131	42
132	5
133	2
134	2
135	1
139	1
141	8
142	3
144	6
152	1
154	5
155	5
156	7
157	23
158	10
159	2
171	8
173	12
175	685
176	76
177	64
178	2
181	1
183	11
184	1
185	14
200	3
217	1
218	3
231	35
232	2
