Mass Spectrum: Benzamide, 4-bromo-N-(3-acetamidophenyl)-
Formula: C15H13BrN2O2
CAS: 312632-93-2
Molecular weight: 332
m/z	intensity
33	121
34	11
35	12
36	61
37	20
38	62
39	77
40	140
41	72
43	999
44	80
45	16
46	2
48	0
49	11
50	232
51	118
52	166
53	170
54	38
55	39
56	16
57	40
58	10
59	1
60	6
61	8
62	20
63	49
64	27
65	34
66	14
67	13
68	6
69	16
70	13
71	16
72	4
73	17
74	80
75	225
76	310
77	60
78	36
79	71
80	199
81	37
82	22
83	8
84	7
85	6
86	2
87	5
88	4
89	5
90	13
91	11
92	8
93	8
94	2
95	4
96	1
97	4
98	4
99	5
101	4
102	4
103	11
104	109
105	50
106	38
107	294
108	76
109	61
110	7
111	19
112	8
113	9
114	3
115	10
116	1
117	0
119	4
120	2
121	3
122	4
123	4
124	0
125	1
126	1
127	3
128	3
129	6
130	1
131	3
132	0
133	1
134	3
135	1
136	6
137	1
139	40
140	7
141	12
142	2
143	2
144	1
145	0
147	0
148	0
149	12
150	14
151	9
152	2
153	4
155	193
156	26
157	170
158	11
166	3
167	5
168	3
169	2
171	6
178	3
179	1
181	19
183	442
185	445
186	26
187	1
192	0
195	1
200	1
210	1
211	3
225	0
252	0
253	2
254	0
281	2
283	0
287	0
288	2
289	4
290	29
292	34
293	3
328	3
329	3
330	14
332	56
333	13
334	39
335	7
