Mass Spectrum: Cyclohexanecarboxamide, N-(4-methylphenyl)-N-(2-naphthyl)-
Formula: C24H25NO
CAS: 312603-36-4
Molecular weight: 343
m/z	intensity
33	1
34	0
36	0
37	4
38	11
39	299
41	756
43	83
45	0
47	0
48	0
49	1
50	18
51	50
52	26
53	131
55	999
56	26
57	3
59	0
60	0
61	0
62	5
63	37
65	106
67	71
68	11
69	5
70	0
71	0
73	1
74	5
75	17
77	106
78	29
79	53
81	55
83	525
84	28
86	2
87	5
88	7
89	45
91	62
92	5
93	2
94	0
95	3
96	0
98	1
99	2
100	3
101	19
102	8
104	5
105	4
106	4
107	3
109	14
110	6
111	39
113	13
114	17
115	113
116	32
117	3
118	4
119	19
120	2
121	2
122	1
123	0
124	0
125	5
126	37
127	53
128	17
129	2
130	0
131	0
132	0
133	0
134	0
135	0
137	0
138	0
139	4
140	15
141	8
142	2
143	2
144	1
145	0
146	0
149	0
150	2
151	4
152	9
153	11
154	3
155	1
156	0
157	0
162	0
163	2
164	3
165	7
166	2
167	1
168	0
169	0
170	0
172	0
174	0
175	0
176	3
177	6
178	5
179	2
180	1
181	0
183	0
184	0
185	0
186	0
187	1
188	2
189	15
190	9
191	5
192	1
193	0
194	0
195	0
196	0
199	0
200	8
201	3
202	10
203	6
204	5
205	2
206	0
208	0
209	0
210	0
212	1
213	2
214	7
215	13
216	55
217	164
218	35
219	5
220	0
222	0
223	0
225	2
226	2
227	5
228	15
230	59
231	35
232	83
233	234
234	43
235	3
236	0
237	0
240	0
244	0
245	0
246	0
254	0
257	0
258	0
259	0
260	0
272	0
273	0
285	0
328	0
329	0
336	0
337	0
339	0
340	0
341	0
342	1
343	16
344	3
345	0
346	0
