Mass Spectrum: 8-Methyl-2,3,3a,4,5,6-hexahydro-1H-pyrazino[3,2,1-jk]carbazole-3-carboxamide
Formula: C16H19N3O
CAS: 312607-77-5
Molecular weight: 269
m/z	intensity
33	41
34	2
35	3
36	6
37	8
39	71
40	68
41	103
42	90
44	999
45	30
46	2
50	18
51	35
52	19
53	21
54	32
55	20
56	30
57	17
59	3
60	2
62	14
63	39
64	14
65	33
67	14
68	13
69	10
70	11
71	9
72	4
73	7
74	7
75	18
77	73
78	16
79	6
80	7
81	6
82	6
83	14
84	18
85	20
86	6
87	15
89	41
90	21
91	47
92	7
94	5
95	7
96	10
97	22
98	39
99	64
100	11
101	9
102	15
103	16
104	21
105	28
106	5
107	1
109	4
110	7
111	14
112	39
113	63
115	83
116	23
117	8
118	3
119	1
123	2
125	8
126	14
127	34
128	42
129	26
130	15
131	7
135	3
137	1
138	5
139	11
140	28
141	41
142	37
143	35
144	11
145	3
148	1
149	8
150	5
152	40
153	21
154	44
155	27
156	26
157	14
158	5
161	2
163	5
164	8
165	19
166	32
167	53
168	57
169	33
170	34
171	14
172	3
175	3
176	3
177	6
178	16
179	23
180	47
181	77
182	67
183	40
184	12
186	3
188	1
189	1
190	3
191	8
192	18
193	16
194	64
195	63
196	102
197	189
198	257
199	25
200	2
204	2
205	3
206	8
208	21
209	24
210	6
211	7
212	1
213	1
217	1
218	1
219	5
220	11
221	17
223	83
224	80
225	65
226	40
227	6
235	4
236	4
237	8
238	14
239	37
241	212
242	23
243	2
251	2
253	1
254	6
260	1
263	2
264	2
265	6
266	16
268	26
269	144
270	16
271	2
