Mass Spectrum: Pyrrolidine-1-carboxylic acid, 2-(6-methyl-2-benzothiazolyl)aminocarbonyl-, tert-butyl ester
Formula: C18H23N3O3S
CAS: 312713-76-1
Molecular weight: 361
m/z	intensity
33	4
34	3
35	0
36	2
37	5
39	128
40	57
41	441
42	79
43	141
44	35
45	45
46	1
47	2
48	0
49	1
50	10
51	25
52	12
53	25
54	12
55	51
57	807
58	35
59	19
60	4
61	2
62	4
63	12
64	8
65	24
66	11
67	12
68	81
70	999
71	50
73	4
74	2
75	4
76	9
77	41
78	34
79	7
80	2
81	6
82	9
83	6
84	4
85	3
86	4
87	5
88	1
89	4
90	5
91	11
92	24
93	5
94	4
95	7
96	11
97	9
98	3
100	1
101	6
102	7
103	7
104	17
105	13
106	4
107	2
109	29
110	16
111	4
114	558
115	109
116	13
117	4
118	11
119	22
120	9
121	39
122	27
123	8
124	5
125	0
126	1
127	0
128	1
129	8
130	10
131	9
132	2
133	2
134	4
135	6
136	29
137	11
138	3
139	1
140	0
141	3
142	4
143	1
144	1
145	0
146	2
147	3
148	8
149	7
150	6
151	1
152	0
156	0
157	0
158	0
159	0
160	2
161	9
163	144
164	339
165	132
166	26
167	6
168	2
169	2
170	7
171	28
172	3
173	1
174	0
175	2
176	3
177	3
178	0
180	0
183	0
185	1
189	56
191	815
192	90
193	35
194	4
195	0
199	0
200	0
201	0
202	0
203	1
204	1
205	1
206	0
210	0
213	0
215	0
216	1
217	1
218	1
219	3
220	1
231	0
232	1
233	0
234	0
236	7
237	0
238	0
239	0
240	1
241	1
242	0
243	0
244	2
245	0
256	0
257	0
258	1
259	2
260	13
261	28
262	5
263	1
271	0
284	0
285	0
287	5
288	25
289	4
290	1
291	0
304	0
305	4
306	0
318	0
319	0
333	0
347	0
355	0
356	1
357	2
359	4
361	60
362	13
363	3
364	0
