Mass Spectrum: Pyrrolidine-1-carboxylic acid, 2-(2-methyl-5-nitrophenylaminocarbonyl)-, tert-butyl ester
Formula: C17H23N3O5
CAS: 312713-75-0
Molecular weight: 349
m/z	intensity
33	0
34	0
36	0
37	1
39	49
40	21
41	187
42	37
43	70
44	13
45	8
46	0
49	0
50	6
51	15
52	13
53	12
54	8
55	34
57	712
58	27
59	6
60	1
61	0
62	2
63	11
64	6
65	10
66	5
68	63
70	999
71	38
72	1
73	0
74	1
75	2
76	4
77	35
78	24
79	10
80	2
81	2
82	2
83	1
84	0
85	1
86	1
87	8
89	27
90	16
91	5
92	4
93	14
94	4
95	1
96	2
97	1
98	1
99	0
100	0
101	0
102	2
103	4
104	28
105	15
106	15
107	3
108	0
109	0
110	0
114	876
115	56
116	5
117	2
118	2
119	1
120	2
121	3
122	3
123	0
124	2
126	3
127	1
128	1
130	2
131	2
132	5
133	6
134	1
135	3
136	3
137	1
138	0
140	0
141	1
142	7
143	1
144	1
145	1
146	1
147	1
148	1
149	1
150	1
152	41
153	4
154	1
155	0
156	1
157	0
158	1
159	1
160	2
161	1
162	3
163	11
164	2
165	0
166	0
167	1
170	271
171	27
172	2
173	1
174	0
175	0
176	0
177	1
178	2
179	11
180	3
181	1
183	0
184	0
185	0
186	0
187	0
188	0
189	0
190	0
191	0
193	0
195	0
197	0
198	0
199	1
200	0
201	0
202	0
203	0
204	0
205	0
206	0
207	1
208	0
213	0
214	1
215	0
216	0
217	0
218	0
219	0
220	0
230	0
232	2
233	0
234	0
245	0
246	0
247	1
248	12
249	2
250	1
258	0
259	0
274	0
276	29
277	4
278	0
292	0
293	6
294	1
319	0
347	0
349	11
350	2
351	0
