Mass Spectrum: 4,5-Dihydro-4-(4-methoxybenzylidene)-2-(p-tolyl)-5-oxazolone
Formula: C18H15NO3
CAS: 312725-72-7
Molecular weight: 293
m/z	intensity
37	12
39	120
41	25
43	17
44	6
45	16
50	61
51	45
52	18
53	12
54	2
55	2
59	5
62	61
63	86
65	220
73	2
74	17
76	67
77	37
78	10
79	3
85	2
86	16
88	26
89	111
91	447
93	2
99	2
101	3
102	17
103	75
105	11
111	2
114	24
116	16
117	33
119	999
121	8
130	2
131	3
132	3
146	110
147	9
289	3
291	13
293	147
294	30
