Mass Spectrum: Pyridine-4-carboxylic acid, 4-(4-nitrophenoxy)phenyl ester
Formula: C18H12N2O5
CAS: 312741-98-3
Molecular weight: 336
m/z	intensity
37	2
38	11
39	13
40	3
41	5
43	5
44	0
46	2
49	4
50	74
51	134
52	17
53	7
54	2
55	3
57	3
61	2
63	77
64	49
65	8
66	3
67	1
68	1
69	4
70	0
71	0
73	0
74	11
75	19
76	33
78	455
79	27
80	8
81	3
83	2
85	1
87	1
88	2
89	2
90	1
91	5
92	23
93	3
95	0
101	4
102	16
103	7
106	999
107	54
108	5
109	2
111	1
113	3
114	4
115	7
116	2
117	1
119	1
121	0
122	0
126	3
127	38
128	64
129	8
130	3
131	0
135	0
139	10
140	2
141	2
143	2
144	1
145	1
149	1
154	4
155	29
156	36
157	4
158	1
168	2
171	1
173	0
181	1
183	18
184	33
185	6
186	1
202	0
203	0
213	7
214	2
221	0
229	0
230	5
231	12
232	1
262	4
290	2
305	0
306	15
307	3
320	7
321	0
332	2
333	3
334	6
336	687
337	121
338	11
