Mass Spectrum: Pyrrolidine-1-carboxylic acid, 2-(2,5-dimethylphenylaminocarbonyl)-, tert-butyl ester
Formula: C18H26N2O3
CAS: 312713-74-9
Molecular weight: 318
m/z	intensity
33	1
34	0
36	0
37	1
39	56
40	28
41	204
42	41
43	55
44	12
45	1
46	0
50	5
51	13
52	9
53	17
54	7
55	27
57	590
58	25
59	9
60	1
62	1
63	6
64	5
65	16
66	6
67	8
68	59
70	999
71	42
72	1
74	1
75	2
77	69
78	19
79	27
80	6
81	2
82	2
83	1
84	0
85	1
86	1
87	7
89	7
90	5
91	48
92	12
93	16
94	1
95	0
96	1
97	1
98	2
99	0
100	0
101	2
102	5
103	19
104	14
105	49
106	29
107	5
109	9
110	0
114	749
115	71
116	9
117	6
118	21
119	20
120	67
121	107
122	18
123	0
124	1
125	0
126	2
127	0
128	1
129	0
130	3
131	3
132	13
133	2
134	1
135	0
140	0
142	10
143	1
144	2
145	2
146	8
147	20
148	29
149	18
150	2
154	0
156	2
157	1
158	1
159	1
160	5
161	2
162	2
163	0
168	2
170	90
171	9
172	2
173	1
174	2
175	3
176	1
187	0
188	0
189	0
198	1
199	1
200	0
201	1
202	0
217	12
218	3
219	0
243	0
245	29
246	4
261	0
262	31
263	4
264	0
290	0
316	1
318	65
319	12
320	0
