Mass Spectrum: Pyrido[1,2-a]benzimidazole-4-carbonitrile, 3-methyl-1-(4-methyl-1-piperazinyl)-
Formula: C18H19N5
CAS: 312757-54-3
Molecular weight: 305
m/z	intensity
34	1
36	0
37	3
38	13
39	56
40	39
41	55
42	675
43	833
44	120
45	4
46	0
49	0
50	38
51	59
52	28
53	14
54	29
55	30
56	117
57	164
58	130
59	3
60	0
61	1
62	12
63	35
64	37
65	20
66	11
67	6
68	7
70	999
71	277
72	21
73	19
74	9
75	29
76	50
77	76
78	46
79	6
80	2
81	3
82	12
83	30
84	20
85	97
86	6
87	4
88	11
89	16
90	26
91	13
92	8
93	3
94	0
95	2
96	3
97	16
98	26
99	19
100	8
101	10
102	56
103	28
104	9
105	6
106	1
107	1
108	0
109	1
110	2
111	2
112	3
113	5
114	10
115	11
116	7
117	12
118	9
119	3
120	1
123	2
124	5
125	7
126	6
127	7
128	9
129	27
130	9
131	6
132	2
133	0
135	0
137	0
138	2
139	6
140	10
141	3
142	14
143	6
144	3
145	0
146	0
148	0
149	1
150	2
151	5
152	24
153	37
154	9
155	5
156	4
157	3
158	1
160	0
164	3
165	11
166	8
167	20
168	8
169	2
170	1
171	6
172	1
173	1
177	4
178	8
179	35
180	15
181	12
182	4
183	1
185	0
187	0
188	1
189	0
190	1
191	4
192	10
193	27
194	35
195	13
196	2
197	0
198	0
199	1
202	0
203	0
204	18
205	30
206	74
207	42
208	22
209	4
210	1
217	3
218	19
219	27
220	206
221	157
222	41
223	14
224	2
230	1
231	13
232	59
233	303
234	104
235	75
236	12
237	2
244	0
245	11
246	15
247	64
248	72
249	47
250	48
251	8
252	0
257	0
259	3
260	3
261	16
262	7
263	9
264	1
273	2
274	1
275	1
276	2
277	2
278	0
279	0
283	0
284	0
288	1
289	1
290	17
291	13
292	2
301	0
302	1
303	4
304	40
305	778
306	167
307	16
308	1
