Mass Spectrum: Pyrrolidine-1-carboxylic acid, 2-(3-methylphenylaminocarbonyl)-, phenyl ester
Formula: C19H20N2O3
CAS: 312713-93-2
Molecular weight: 324
m/z	intensity
34	1
38	4
39	46
40	65
41	76
42	30
43	30
44	17
50	7
51	36
52	8
53	12
55	33
56	16
57	1
63	9
64	5
65	77
66	19
68	47
70	999
71	50
72	1
77	248
78	38
79	20
80	4
81	1
82	3
86	4
89	4
91	107
92	7
93	17
94	59
95	3
96	15
97	2
98	4
103	0
104	40
105	18
106	66
107	33
108	10
112	0
113	0
114	14
115	3
116	2
117	12
118	17
119	4
120	4
121	3
128	2
129	1
130	10
131	5
132	13
133	28
134	33
135	3
142	2
143	2
144	15
145	11
146	47
147	16
148	2
158	0
159	1
160	6
161	3
162	4
163	1
171	1
172	1
173	7
179	0
185	1
186	5
187	1
188	10
189	15
190	915
191	126
192	9
201	0
203	8
204	1
228	0
229	2
230	22
231	869
232	128
233	12
323	0
324	99
325	20
326	1
