Mass Spectrum: 1-Benzyl-4-(4-chlorobenzyl)pyrrolidin-2,5-dione
Formula: C18H16ClNO2
CAS: 312705-15-0
Molecular weight: 313
m/z	intensity
49	7
50	72
51	146
52	49
53	28
54	32
55	443
56	58
57	50
58	13
60	6
61	7
62	29
63	119
64	31
65	201
66	21
67	22
68	8
69	121
70	44
71	15
73	33
74	25
75	57
76	34
77	160
78	87
79	45
89	172
90	100
91	999
92	141
93	18
99	50
100	9
101	29
102	25
103	44
104	238
105	91
106	609
107	63
115	241
116	121
117	218
118	49
119	46
120	6
125	753
126	66
127	245
128	31
130	23
131	46
132	87
133	53
138	34
139	17
140	16
146	80
147	36
149	46
150	19
151	212
152	102
153	80
154	34
158	14
159	181
160	489
161	61
162	16
163	7
171	3
172	22
173	94
174	13
188	73
189	9
313	451
314	95
315	158
316	33
