Mass Spectrum: 4-(2,4-Dichlorobenzylidene)-2-(p-tolyl)-5(4H)-oxazolone
Formula: C17H11Cl2NO2
CAS: 312725-56-7
Molecular weight: 331
m/z	intensity
34	5
36	22
37	25
39	116
41	54
42	9
44	22
45	9
47	1
49	5
50	31
51	41
52	8
53	6
55	5
56	2
57	5
59	4
61	11
62	28
63	73
65	261
67	2
69	3
70	2
71	2
73	19
74	15
75	15
76	8
77	4
78	1
79	1
80	1
81	1
83	4
84	4
85	8
86	9
87	18
88	15
89	51
91	431
92	23
95	1
96	1
97	8
98	7
99	10
100	3
101	1
102	1
104	1
105	1
106	1
107	2
109	5
110	2
111	3
112	4
114	18
116	8
119	999
120	78
121	7
122	3
123	5
124	5
125	2
126	2
133	3
134	2
135	5
136	2
148	9
149	7
150	4
151	2
152	1
157	13
158	2
159	8
160	1
161	2
165	4
166	3
167	1
170	3
172	3
173	1
174	1
184	19
185	3
186	11
187	1
188	2
296	9
297	2
298	3
328	2
329	3
331	61
332	12
333	39
334	8
335	7
336	1
