Mass Spectrum: 1-Cyclopentene-1,2-dicarboxylic acid
Formula: C7H8O4
CAS: 3128-15-2
Molecular weight: 156
m/z	intensity
50	65
51	109
53	153
54	102
55	260
63	151
64	58
65	546
66	609
67	999
68	136
69	121
79	131
81	107
82	341
83	190
84	165
93	360
94	146
110	190
111	131
112	529
113	68
138	829
139	139
156	121
157	19
