Mass Spectrum: 4-Thiazoline-5-carboxylic acid, 4-amino-3-benzyl-2-thioxo-, ethyl ester
Formula: C13H14N2O2S2
CAS: 312922-30-8
Molecular weight: 294
m/z	intensity
33	5
34	8
35	0
36	1
37	2
38	9
39	68
40	22
41	25
42	7
43	15
44	20
45	98
46	9
47	7
48	0
50	13
51	31
52	8
53	4
54	4
55	3
56	3
57	2
58	3
59	7
60	48
61	4
62	11
63	35
64	20
65	144
66	9
67	3
68	12
69	5
70	12
71	28
72	85
73	11
74	6
75	4
76	10
77	20
78	6
79	4
80	1
81	0
82	1
83	1
85	46
86	38
87	10
88	11
89	49
91	999
92	68
93	3
94	0
95	0
96	0
97	0
98	1
99	5
100	2
101	1
102	3
103	4
104	9
105	2
106	2
107	0
108	0
109	1
110	0
111	0
112	0
114	2
116	51
117	33
118	6
119	2
120	1
121	18
122	3
123	3
124	2
125	0
126	0
127	1
129	43
130	29
131	10
132	3
133	2
134	3
135	3
136	1
137	0
139	0
140	0
141	0
142	1
143	4
144	29
145	3
146	3
147	8
148	12
149	3
150	1
151	0
152	0
153	0
154	0
155	0
157	19
158	3
159	15
160	3
161	2
162	1
163	0
164	0
165	0
170	0
171	1
172	0
173	0
175	7
176	0
177	1
178	0
179	0
180	0
181	0
183	0
184	0
185	3
187	5
188	1
189	0
190	1
191	0
192	0
193	0
194	1
195	0
196	0
199	0
201	3
203	131
204	11
205	11
206	0
207	0
213	0
215	11
216	1
217	1
218	0
219	6
220	7
221	2
222	1
223	0
231	0
233	6
234	0
235	0
238	0
245	0
247	4
248	9
249	12
250	2
251	1
252	0
257	0
258	2
261	54
262	8
263	2
264	0
265	0
266	1
288	0
294	280
295	36
296	22
297	3
298	0
