Mass Spectrum: Coumarin-3-carboxamide, 6-methoxy-N-(2-pyridyl)-
Formula: C16H12N2O4
CAS: 312915-02-9
Molecular weight: 296
m/z	intensity
33	8
34	12
36	14
37	68
38	253
39	650
40	281
41	224
43	150
44	82
45	32
46	7
47	4
48	4
50	399
51	569
52	170
53	186
54	146
55	83
56	23
57	61
58	23
59	8
60	10
61	34
62	170
63	193
64	93
65	341
66	185
67	174
69	76
71	50
73	19
74	72
75	135
76	498
77	356
78	999
79	186
80	18
81	20
82	49
83	23
84	18
85	32
86	43
87	77
88	129
89	111
90	41
91	55
92	54
93	40
94	123
95	40
96	8
97	15
98	22
99	17
100	15
101	69
102	28
103	49
104	94
105	137
106	18
107	15
108	12
109	9
110	5
111	14
112	18
113	14
114	9
115	15
116	125
119	924
121	791
122	52
123	13
124	3
125	6
127	108
128	8
129	7
130	10
131	46
132	70
133	121
134	27
135	9
136	23
137	6
139	5
140	12
141	8
142	6
143	10
144	7
145	12
146	39
147	38
148	134
149	35
150	6
151	3
152	6
153	6
154	6
155	7
156	3
157	6
158	6
159	16
160	30
161	75
162	30
163	5
164	1
165	3
166	2
167	4
168	9
169	11
170	7
171	22
172	15
173	32
174	19
175	102
176	101
177	13
178	8
179	7
180	4
181	5
182	3
183	8
184	3
185	13
186	4
188	8
189	3
190	2
191	1
192	1
193	1
194	2
195	6
196	5
197	33
198	7
199	7
200	7
201	16
203	924
204	98
205	14
207	5
208	6
209	8
210	5
211	28
212	6
213	11
214	1
215	1
216	0
217	1
218	0
219	1
220	0
221	1
222	1
223	3
224	9
225	66
226	10
227	2
228	5
229	1
230	3
235	2
236	3
237	6
238	6
240	358
241	56
242	5
244	1
248	2
249	0
251	35
252	14
253	220
254	41
255	4
259	0
260	0
263	3
264	3
265	13
266	25
267	345
268	388
269	66
270	8
271	1
272	0
277	0
279	40
280	9
281	17
282	3
283	2
291	1
292	4
293	13
294	13
295	28
296	729
297	128
298	18
299	1
300	1
