Mass Spectrum: Isoxazole-4-carboxamide, N-(1-adamantyl)-5-methyl-3-phenyl-
Formula: C21H24N2O2
CAS: 312952-16-2
Molecular weight: 336
m/z	intensity
38	2
39	152
41	347
43	999
44	26
45	3
50	15
51	126
53	85
54	57
55	59
56	26
57	27
58	12
62	7
63	17
65	31
67	155
68	18
69	15
70	3
74	6
75	10
77	341
79	201
80	35
81	27
82	9
84	0
88	10
89	26
91	156
92	87
93	165
94	76
96	2
97	2
101	3
102	19
104	25
105	26
106	19
107	50
108	16
116	87
117	19
118	6
119	10
120	9
121	8
127	5
128	2
130	1
131	4
133	11
135	273
136	11
139	55
140	10
144	863
145	71
146	33
147	3
149	2
150	30
151	3
159	9
160	3
177	1
186	193
188	153
189	9
190	7
201	10
203	11
229	2
243	69
244	8
245	8
253	3
267	17
268	2
277	10
279	551
280	88
293	20
294	3
295	2
319	17
321	57
322	3
336	615
337	110
338	9
