Mass Spectrum: Benzamide, 3-bromo-N-(4-bromo-2-methylphenyl)-
Formula: C14H11Br2NO
CAS: 312930-30-6
Molecular weight: 367
m/z	intensity
34	17
36	18
37	46
38	126
39	222
40	99
41	37
42	10
43	20
44	68
45	4
46	0
50	750
51	547
52	274
53	76
54	15
55	10
56	4
57	10
61	29
62	63
63	126
64	38
65	55
66	10
67	5
69	7
70	4
71	4
73	35
74	224
75	583
76	999
77	557
78	445
79	94
80	86
81	46
82	79
83	2
84	2
85	5
86	7
87	13
88	13
89	49
90	46
91	30
93	25
94	1
95	3
97	1
98	3
99	2
100	4
101	7
102	32
103	62
104	400
105	217
106	54
107	21
108	7
109	1
111	1
112	1
113	2
114	1
115	7
116	3
117	5
118	3
119	23
120	0
123	0
125	0
126	4
127	6
128	9
129	13
130	6
131	11
132	13
133	1
139	8
140	3
141	3
142	0
143	5
144	4
150	1
151	6
152	17
153	13
155	527
157	540
158	25
159	8
164	1
165	4
166	5
167	1
168	0
169	2
170	0
171	2
177	1
178	6
179	11
180	46
181	36
183	859
184	164
185	839
186	89
187	11
188	3
191	0
200	1
202	2
207	1
208	16
209	35
210	17
211	3
217	0
219	1
241	1
258	1
260	1
261	1
262	7
263	1
264	5
288	468
289	33
290	474
291	65
292	6
329	0
366	6
367	24
368	10
369	36
370	8
371	17
372	2
