Mass Spectrum: 5-(2-Methoxybenzylidene)-3-piperidinomethyl-2,4-thiazolidinedione
Formula: C17H20N2O3S
CAS: 312913-91-0
Molecular weight: 332
m/z	intensity
39	102
41	289
42	208
43	48
44	76
45	23
46	3
47	2
48	1
51	61
52	10
53	14
55	147
56	68
57	17
58	5
60	9
63	49
65	10
67	14
69	72
70	54
71	8
74	9
75	8
77	73
78	8
79	4
82	30
84	36
85	8
86	3
87	4
89	30
91	35
93	15
94	9
96	49
98	999
99	73
100	4
101	1
102	3
103	4
104	1
105	4
106	2
107	1
108	2
109	1
110	2
111	1
112	1
113	1
115	2
116	2
118	24
119	18
121	80
122	7
123	3
124	1
131	25
132	4
133	4
134	2
135	3
136	1
137	1
139	7
145	2
146	1
149	60
150	5
151	3
159	1
161	2
162	2
164	70
165	6
166	4
176	1
177	3
191	4
204	1
235	7
236	1
332	3
