Mass Spectrum: Urea, N-[1,1-di(trifluoromethyl)propyl]-N'-(2-phenylethyl)-
Formula: C14H16F6N2O
CAS: 312932-43-7
Molecular weight: 342
m/z	intensity
33	2
34	0
35	0
36	1
37	1
38	9
39	71
40	13
41	25
42	21
43	15
44	69
45	4
47	104
48	4
50	19
51	62
52	17
53	9
54	10
55	6
56	32
57	7
58	5
59	6
60	3
61	1
62	6
63	27
65	137
66	18
69	43
70	6
71	2
73	18
74	21
75	10
76	10
77	90
78	39
79	43
80	3
81	0
82	1
83	1
84	1
85	1
86	2
87	1
89	34
91	375
92	112
93	13
95	16
96	9
97	0
98	2
100	1
101	1
102	7
104	999
105	219
106	22
107	3
108	2
109	9
110	0
111	0
112	2
113	5
114	0
115	1
116	4
117	7
118	22
119	23
120	42
121	14
122	3
123	1
124	8
125	2
126	23
127	2
128	2
129	0
130	0
131	0
132	2
133	0
134	1
135	1
136	2
137	2
138	1
139	5
140	0
142	7
143	0
145	7
146	3
147	7
148	14
149	3
150	0
152	31
153	2
154	1
156	2
157	1
158	0
159	11
160	0
161	1
162	2
163	7
164	1
165	0
166	4
167	1
168	0
169	0
171	1
172	0
173	2
174	0
176	19
177	1
178	1
179	0
180	0
181	0
182	0
183	0
188	0
189	0
192	1
194	0
196	0
206	0
207	0
208	0
210	1
211	0
219	0
220	0
222	4
223	0
225	0
231	0
233	0
235	0
236	0
237	0
239	0
249	0
251	15
252	1
253	0
265	0
273	1
280	0
323	2
324	0
325	0
327	0
328	2
329	0
340	0
342	110
343	16
344	1
