Mass Spectrum: 4-Methoxymethylbenzamide
Formula: C9H11NO2
CAS: 312959-10-7
Molecular weight: 165
m/z	intensity
41	21
42	4
44	551
45	212
46	6
47	2
49	3
50	149
51	242
52	56
53	32
54	9
55	7
56	2
57	3
59	9
60	105
62	98
63	265
64	72
65	108
66	16
67	7
68	3
69	4
70	0
71	1
73	6
74	58
75	56
76	39
77	503
78	92
79	130
80	13
81	2
82	2
83	2
84	3
85	4
86	22
87	17
89	752
90	313
91	278
92	77
93	29
94	5
95	2
97	2
99	0
102	2
103	29
104	131
105	999
106	588
107	67
108	2
109	10
111	1
114	0
115	0
116	7
118	143
119	41
121	658
122	68
123	4
125	8
127	3
132	38
133	715
134	352
135	69
136	10
137	2
149	525
150	679
151	54
152	14
164	234
165	571
166	59
167	2
