Mass Spectrum: Benzothiophene-3-carboxamide, 4,5,6,7-tetrahydro-7-methyl-2-(4-methylbenzoylamino)-N-(2-furfuryl)-
Formula: C23H24N2O3S
CAS: 312949-95-4
Molecular weight: 408
m/z	intensity
33	26
34	0
39	22
40	20
41	12
43	7
44	8
45	3
51	7
53	55
54	3
55	3
56	0
57	1
58	1
59	2
60	1
61	0
63	8
65	66
67	2
68	1
69	4
70	1
71	1
73	0
77	4
78	5
79	9
81	267
83	1
84	2
85	1
87	1
89	16
91	327
93	1
96	40
97	17
98	7
99	0
102	0
103	1
104	2
105	3
106	1
107	0
110	0
111	0
115	2
119	999
121	5
122	3
123	2
124	1
125	1
127	1
128	0
129	0
130	1
131	0
132	3
133	1
134	0
135	1
136	2
137	0
138	0
147	0
148	1
149	2
150	4
151	10
152	2
153	0
162	0
163	0
165	2
166	2
167	0
171	2
176	0
177	0
178	2
179	0
182	0
190	1
191	2
192	8
193	23
194	67
195	7
196	3
210	0
225	0
228	0
230	0
232	0
243	0
244	3
245	4
246	1
247	0
260	7
261	1
269	35
270	5
271	3
272	12
273	5
274	1
282	0
283	1
284	8
285	2
286	0
289	8
290	0
296	5
297	0
311	170
312	102
313	24
314	6
315	0
327	3
328	0
403	0
404	2
406	6
408	230
409	45
410	14
411	2
412	0
