Mass Spectrum: 5-Nitro-3-cyano-2(1H)-pyridone
Formula: C6H3N3O3
CAS: 31309-38-3
Molecular weight: 165
m/z	intensity
37	34
38	23
39	16
40	16
41	33
42	74
43	111
44	999
45	56
46	14
50	16
51	33
52	39
53	26
54	13
55	22
56	11
57	15
60	13
61	7
62	18
64	173
65	17
66	10
67	23
68	12
69	12
70	7
71	8
73	25
75	22
76	10
77	25
78	18
80	62
87	11
89	12
91	54
92	23
93	13
94	8
95	6
97	9
104	8
105	9
107	48
108	9
118	19
119	36
121	39
135	72
149	19
150	3
165	113
166	8
167	3
