Mass Spectrum: Oxamide, N-(2-ethylphenyl)-N'-(2-furfuryl)-
Formula: C15H16N2O3
CAS: 313069-98-6
Molecular weight: 272
m/z	intensity
33	2
34	5
35	1
36	8
37	19
38	58
39	232
40	105
41	93
42	47
43	45
44	58
45	5
46	1
48	0
49	3
50	58
51	170
52	116
53	525
54	48
55	22
56	13
57	9
58	6
59	2
60	0
61	3
62	14
63	47
64	27
65	88
66	28
67	22
68	37
69	59
70	7
71	4
72	0
73	3
74	9
75	14
76	27
77	278
78	88
79	126
81	999
82	127
83	12
84	3
85	1
86	1
87	2
88	3
89	32
90	22
91	88
92	34
93	30
94	53
95	92
96	788
97	78
98	17
99	3
100	1
101	4
102	20
103	90
104	60
105	62
106	131
107	21
108	4
109	3
110	7
111	3
112	1
113	1
114	1
115	5
116	8
117	25
118	79
119	76
120	204
121	87
122	84
123	16
124	4
125	11
126	1
128	36
129	7
130	84
131	16
132	78
133	13
134	6
135	1
136	1
140	0
141	0
142	0
143	1
144	2
145	9
146	42
147	67
148	189
149	20
150	2
151	4
152	1
156	3
157	0
158	2
159	1
160	1
161	1
162	4
163	2
165	1
167	1
170	0
171	2
172	1
173	2
174	1
175	11
176	2
177	1
178	1
179	0
184	0
186	0
188	2
189	4
191	143
192	16
193	2
194	0
198	0
199	0
200	5
201	0
203	3
204	3
205	4
206	8
207	4
208	2
210	0
215	0
219	0
220	5
221	4
222	6
223	1
228	1
229	2
239	5
240	0
241	2
243	2
244	8
245	1
249	0
269	0
270	2
271	2
272	177
273	29
274	4
