Mass Spectrum: Acetamide, N-[2-ethyl-5-(3,5-dimethyl-1-pyrazolyl)-1,2,4-triazol-4-yl)-
Formula: C11H16N6O
CAS: 313273-38-0
Molecular weight: 248
m/z	intensity
33	24
34	5
36	27
37	17
38	73
39	423
40	55
41	228
42	524
43	999
44	59
45	4
49	2
50	14
51	51
52	81
53	156
54	232
55	112
56	128
57	70
58	6
59	6
60	2
62	1
63	26
64	34
65	90
66	186
67	316
68	63
69	30
70	19
71	44
73	6
74	1
75	2
77	12
78	16
79	33
80	84
81	127
82	53
83	37
84	7
85	2
89	4
91	10
92	18
93	48
94	25
95	217
96	198
97	88
98	21
99	4
107	696
108	100
109	24
110	21
111	20
112	16
113	19
114	0
120	24
121	32
122	260
123	53
124	10
125	10
126	2
129	1
133	3
134	17
135	31
136	10
137	12
138	2
139	2
140	1
141	2
146	1
147	3
148	8
149	21
150	54
151	25
152	90
153	349
154	28
155	1
159	15
160	7
161	15
162	46
163	12
164	5
165	2
168	0
175	4
176	3
177	10
178	7
179	6
183	1
188	8
189	17
190	168
191	63
192	11
203	2
205	115
206	94
207	9
219	0
225	1
231	7
233	77
234	8
239	1
245	1
246	6
248	292
249	35
250	3
