Mass Spectrum: N-(4-Biphenylyl)-p-toluamide
Formula: C20H17NO
CAS: 313251-13-7
Molecular weight: 287
m/z	intensity
34	8
35	6
36	8
39	109
40	120
41	60
43	40
44	59
45	6
50	16
51	50
52	10
53	8
54	5
55	26
57	45
59	3
61	5
62	13
63	64
65	198
66	10
67	4
68	3
69	12
70	9
71	10
73	7
74	9
75	9
76	11
77	20
78	6
79	4
80	3
81	4
82	4
83	9
84	5
85	7
86	8
88	11
89	53
91	495
92	28
93	3
95	2
96	1
97	3
98	5
99	3
100	10
101	4
102	7
103	3
104	3
105	6
106	2
109	2
110	2
111	3
112	5
113	8
115	77
119	999
120	58
121	5
124	2
125	2
126	5
127	7
128	4
129	2
135	2
137	2
139	13
140	27
141	45
142	23
143	12
144	3
149	4
150	3
151	6
152	9
153	4
154	2
157	1
163	1
164	1
165	3
166	8
167	10
168	20
169	11
170	4
171	5
180	2
183	2
185	3
270	7
271	1
283	2
284	4
285	6
286	9
287	149
288	31
289	4
