Mass Spectrum: Phenethyl piperidino sulfone
Formula: C13H19NO2S
CAS: 313276-26-5
Molecular weight: 253
m/z	intensity
41	86
42	186
43	60
44	97
45	4
47	2
48	1
49	15
50	13
51	68
52	14
53	18
54	17
55	104
56	61
57	37
58	1
60	0
62	2
63	11
64	4
65	21
66	2
67	5
68	4
69	17
70	29
71	1
74	2
75	4
76	10
77	160
78	97
79	125
80	8
82	13
83	53
84	935
85	999
86	79
87	3
88	0
89	4
90	2
91	43
92	3
96	1
98	22
99	1
101	0
102	8
103	81
104	348
105	393
106	38
107	1
108	2
112	1
117	0
126	1
130	0
131	1
132	28
133	2
134	2
138	2
139	2
140	0
148	13
149	23
150	2
151	1
160	1
170	2
174	2
188	6
189	18
190	3
191	1
252	1
253	6
254	1
255	0
