Mass Spectrum: 1,3,4-Oxadiazole, 2-(2,4-dinitrophenyl)-5-phenyl-
Formula: C14H8N4O5
CAS: 313276-21-0
Molecular weight: 312
m/z	intensity
33	1
37	7
38	28
39	34
40	26
41	8
42	4
43	11
44	40
45	5
46	4
47	0
48	10
49	0
50	40
51	73
52	18
53	20
54	1
55	6
56	2
57	6
60	2
61	6
62	27
63	70
64	53
65	12
66	9
67	1
69	3
70	1
71	3
72	0
74	33
75	93
76	35
77	346
78	26
79	7
80	13
81	5
82	4
85	1
86	5
87	5
88	7
89	89
90	26
91	35
92	13
93	2
94	2
95	0
96	2
97	1
99	1
101	0
103	67
105	999
106	70
107	10
108	8
110	1
116	1
117	6
118	18
119	23
120	17
121	7
122	41
123	2
124	1
128	1
131	3
133	3
134	4
135	6
136	3
137	0
145	3
146	9
147	13
148	6
149	47
150	4
151	3
152	2
162	7
163	7
164	13
165	10
166	2
167	1
168	8
171	1
177	1
178	3
179	39
180	9
182	10
183	1
191	2
192	2
194	1
195	55
196	16
197	0
199	0
202	2
208	0
209	9
212	4
213	1
221	9
222	6
282	2
312	7
