Mass Spectrum: 5-(2-Methoxybenzylidene)-3-morpholinomethyl-2,4-thiazolidinedione
Formula: C16H18N2O4S
CAS: 313226-28-7
Molecular weight: 334
m/z	intensity
36	1
37	4
39	69
40	77
41	99
42	176
43	46
44	54
45	36
46	4
47	2
50	27
51	37
52	8
54	43
56	300
57	39
59	3
60	5
61	5
62	17
63	31
64	5
65	7
67	4
69	45
70	64
71	15
72	16
74	10
75	9
77	84
78	8
79	2
81	8
82	12
83	7
84	6
85	5
86	11
87	6
89	35
90	9
91	26
93	17
94	5
95	7
96	3
100	999
101	51
102	6
103	5
105	7
107	2
108	1
109	1
110	1
112	2
113	1
115	1
118	22
119	17
121	88
122	5
123	3
131	23
133	7
134	4
135	3
136	1
137	1
141	2
144	1
145	1
147	2
149	50
150	6
151	2
152	1
160	1
161	2
162	3
164	57
165	5
166	3
171	1
177	3
191	6
192	1
235	4
248	1
334	5
335	1
