Mass Spectrum: Benzenesulfonamide, N-[1-(4-propyl-4H-[1,2,4]triazol-3-yl)ethyl]-
Formula: C13H18N4O2S
CAS: 313276-62-9
Molecular weight: 294
m/z	intensity
37	2
38	9
39	91
40	47
41	267
42	168
43	319
44	68
45	10
46	1
48	6
50	58
51	263
52	32
53	24
54	69
55	67
56	35
57	14
58	6
59	0
60	1
62	2
63	9
64	15
65	27
66	10
67	15
68	28
69	54
70	220
71	13
72	0
73	1
74	11
75	14
76	28
77	999
78	94
79	5
80	4
81	11
82	23
83	83
84	51
85	8
86	0
89	3
90	5
91	31
92	16
93	12
94	11
95	37
96	274
97	101
98	16
99	1
100	0
102	1
103	3
104	33
105	60
106	21
107	2
108	11
109	45
110	60
111	208
112	63
113	4
114	0
115	0
116	1
117	7
118	29
119	37
120	13
121	3
122	33
123	35
124	8
125	55
126	18
127	2
128	1
129	1
130	2
131	4
132	2
133	1
134	1
135	1
136	7
137	28
138	167
139	180
140	20
141	344
142	24
143	16
144	3
145	18
146	127
147	12
148	0
149	0
151	6
152	9
153	684
154	60
155	2
156	1
157	5
158	4
159	22
160	23
161	2
167	0
170	3
171	19
172	151
173	182
174	22
175	1
182	0
183	0
184	15
185	9
186	25
187	412
188	86
189	7
199	0
201	11
202	5
203	0
210	1
212	2
214	27
215	235
216	34
217	4
222	0
228	2
229	61
230	355
231	54
232	3
236	3
237	16
238	1
249	9
250	6
251	0
253	1
258	2
263	0
264	3
265	0
279	78
280	14
281	4
294	0
