Mass Spectrum: Furan-2-carboxamide, N-[4-chloro-2-(2-chlorobenzoyl)phenyl]-
Formula: C18H11Cl2NO3
CAS: 313254-33-0
Molecular weight: 359
m/z	intensity
35	0
36	1
37	7
38	31
39	183
40	12
41	2
42	1
43	1
44	0
49	1
50	18
51	26
52	7
53	9
54	0
55	1
61	3
62	9
63	28
64	6
65	4
66	7
67	46
68	3
69	1
72	1
73	8
74	15
75	65
76	13
77	11
78	4
79	0
80	0
83	2
84	1
85	5
86	4
87	7
88	7
89	6
90	8
91	2
92	1
95	999
96	56
97	9
98	10
99	10
100	7
101	6
102	4
109	1
110	5
111	83
112	9
113	33
114	5
115	2
116	0
117	0
122	0
124	25
125	11
126	18
127	5
128	5
129	1
135	0
136	2
137	6
138	12
139	84
140	17
141	23
142	1
147	1
148	1
149	4
150	7
151	6
152	2
153	1
154	1
155	0
156	1
157	0
161	0
162	1
163	2
164	27
165	13
166	42
167	7
168	0
173	7
174	3
175	4
176	2
177	3
178	0
179	0
180	25
181	1
182	7
183	0
184	0
185	2
186	3
187	1
188	0
189	0
190	1
191	0
192	4
193	1
194	6
195	1
198	0
199	2
200	18
201	20
202	8
203	7
204	5
205	1
206	0
212	0
213	0
214	0
218	1
220	382
221	51
222	128
223	16
224	1
228	3
229	43
230	7
231	17
232	4
233	1
234	0
235	10
236	1
237	7
238	1
239	1
240	0
242	0
246	0
247	0
248	18
249	2
250	6
251	1
252	0
256	1
263	2
264	41
265	8
266	32
267	5
268	7
269	1
270	1
274	0
276	0
277	1
279	0
281	0
288	0
292	0
294	0
295	0
296	23
297	3
298	6
299	0
302	0
305	0
323	0
324	20
325	3
326	7
327	0
330	9
331	1
332	6
333	1
334	0
359	129
360	28
361	81
362	13
363	13
364	2
