Mass Spectrum: N-(4-Fluorophenyl)-N-(4-nitrophthalimidomethyl)benzamide
Formula: C22H14FN3O5
CAS: 313258-43-4
Molecular weight: 419
m/z	intensity
33	1
35	1
37	16
38	18
39	16
40	5
41	6
42	9
43	7
44	11
46	17
51	413
52	25
53	9
54	1
56	14
57	12
58	1
62	33
63	31
64	7
65	6
66	2
68	4
69	5
70	4
75	380
77	954
78	41
83	43
85	1
86	1
88	7
89	8
90	4
91	4
92	3
93	3
95	108
96	6
97	1
99	1
101	14
103	112
105	999
106	62
109	15
110	6
111	8
117	3
119	21
120	3
122	87
123	11
124	1
129	13
130	3
131	4
132	4
133	1
135	1
136	1
137	2
138	1
139	2
140	1
145	2
147	9
149	7
150	1
159	132
160	9
161	1
163	1
164	1
165	1
166	1
170	3
175	6
184	4
185	5
186	4
189	1
192	2
193	1
196	2
198	1
205	69
206	5
207	1
214	6
215	1
226	1
227	3
314	6
315	1
419	3
420	1
