Mass Spectrum: 2-Propanol, 1-(9-carbazolyl)-3-(1-piperazinyl)-
Formula: C19H23N3O
CAS: 313266-54-5
Molecular weight: 309
m/z	intensity
33	11
34	2
36	1
38	2
39	16
40	29
41	30
42	78
43	48
44	189
45	346
46	174
48	1
50	4
51	9
52	4
53	3
54	10
56	262
57	40
58	78
59	3
60	0
61	0
62	3
63	8
64	2
65	3
66	1
67	2
68	10
70	124
71	12
72	9
73	1
74	5
75	7
76	8
77	15
78	4
79	3
80	3
82	10
83	11
84	33
85	16
86	15
87	6
88	3
89	4
90	6
91	2
93	4
94	3
95	4
97	26
99	999
100	77
101	6
102	3
103	2
104	1
105	3
106	5
107	1
109	1
110	1
111	3
112	2
113	5
114	3
115	5
116	2
117	1
118	0
119	0
120	1
121	0
122	0
123	1
125	41
126	10
127	16
129	413
130	28
132	6
134	40
135	3
136	0
137	2
138	3
139	14
140	18
141	4
142	0
143	0
144	0
145	0
147	0
150	10
151	32
152	93
153	22
154	9
157	0
160	0
161	0
164	7
166	36
167	38
168	6
169	0
171	1
175	0
176	1
177	6
178	21
180	283
181	209
182	31
183	1
187	1
190	0
191	2
192	2
193	2
194	5
195	1
196	0
199	3
200	0
202	1
204	7
205	3
206	18
207	5
208	1
209	9
210	2
214	1
218	0
219	0
220	0
221	1
222	1
223	1
224	0
227	0
228	0
235	0
236	0
241	0
246	0
250	0
251	0
267	1
271	0
291	0
305	0
307	0
308	1
309	17
310	3
