Mass Spectrum: 2-[3-[2-Oxo-3-oxazolidinyl]propyl]-1,2-benzisothiazolin-3-one-1,1-dioxide
Formula: C13H14N2O5S
CAS: 31327-88-5
Molecular weight: 310
m/z	intensity
41	121
42	264
43	46
44	38
45	12
47	3
48	1
49	14
50	162
51	72
52	15
54	137
56	999
57	124
58	2
59	0
60	2
62	5
63	31
64	9
65	23
66	0
68	90
70	421
71	18
72	11
74	24
76	298
77	180
78	18
80	24
81	52
82	38
83	86
84	49
86	15
88	34
90	38
91	15
92	11
93	3
95	8
96	15
97	312
98	18
100	199
102	30
104	125
105	268
106	13
108	7
109	1
113	11
114	259
115	7
117	20
118	5
120	19
121	9
122	7
123	0
125	3
126	21
127	6
128	10
130	26
132	90
133	99
134	19
136	4
141	60
142	2
143	1
144	3
146	83
147	5
148	1
152	27
153	2
156	0
158	8
159	21
160	14
161	1
166	8
167	0
169	19
170	3
172	3
173	21
174	8
184	8
185	1
187	89
188	5
196	46
197	1
198	2
201	11
202	3
210	2
224	28
225	0
226	0
266	11
267	1
310	19
311	2
