Mass Spectrum: Benzamide, 2-iodo-N-[3-(4-morpholyl)propyl]-
Formula: C14H19IN2O2
CAS: 313231-61-7
Molecular weight: 374
m/z	intensity
36	96
38	45
39	49
40	35
41	181
42	285
43	107
44	89
45	19
46	0
50	128
51	67
53	20
54	54
55	104
56	284
57	89
58	42
59	3
61	0
62	2
63	17
64	16
65	13
67	21
68	47
69	67
70	109
71	36
72	22
74	40
76	189
77	136
78	22
79	28
80	14
81	19
82	37
83	20
84	29
86	106
87	15
88	4
89	2
90	4
91	14
92	5
93	15
94	6
96	50
97	26
98	39
100	999
103	10
105	171
106	10
107	6
108	7
109	22
110	1
112	21
114	88
116	2
117	4
118	2
119	3
120	3
121	3
122	4
123	0
127	407
128	109
130	0
132	4
134	30
135	75
136	6
141	0
142	1
143	0
145	0
146	1
147	0
148	0
149	0
160	3
161	2
162	12
163	0
171	2
172	2
178	80
179	7
191	1
203	56
205	4
217	2
231	111
232	4
247	2
248	13
254	19
260	12
261	1
274	0
275	0
288	17
289	1
316	2
331	43
332	3
343	19
344	1
374	3
