Mass Spectrum: 5-O-Tolylcarbamoyl-3H-imidazole-4-carboxylic acid ethyl ester
Formula: C14H15N3O3
CAS: 313251-31-9
Molecular weight: 273
m/z	intensity
50	2
51	10
56	20
57	17
58	27
59	3
64	5
65	47
66	8
67	82
68	145
69	40
70	5
77	62
78	28
79	46
80	6
86	78
87	4
91	62
92	10
93	13
94	74
95	71
96	70
97	7
105	23
106	277
107	999
108	91
109	5
110	2
119	6
120	4
121	330
122	30
123	15
124	2
137	1
138	3
139	422
140	60
141	7
142	2
151	2
153	38
154	10
155	5
165	3
166	12
167	204
168	37
169	7
180	2
181	4
182	10
183	55
184	18
185	7
197	2
198	21
199	273
200	198
201	9
202	3
209	49
210	29
211	5
226	24
227	9
228	27
229	3
231	4
232	1
242	1
243	1
244	8
245	178
246	12
255	87
256	10
257	3
273	379
274	46
275	9
