Mass Spectrum: 2,4-O-Methylene-1,3,5-O-tritosyl-xylitol
Formula: C27H30O11S3
CAS: 31320-27-1
Molecular weight: 626
m/z	intensity
41	21
42	7
43	24
44	3
45	12
48	8
50	11
51	18
52	7
53	10
54	4
55	30
56	3
57	19
59	3
62	7
63	31
64	16
65	161
66	11
67	5
68	11
69	4
70	3
71	12
72	4
73	7
74	2
75	2
76	3
77	31
78	11
79	15
80	2
81	47
82	11
83	13
84	2
85	195
86	11
87	2
89	62
90	55
91	999
92	105
93	8
95	1
97	12
98	61
99	19
100	7
101	2
103	2
104	1
105	12
106	2
107	39
108	15
109	2
110	1
111	53
112	3
113	12
114	4
115	8
116	1
117	2
118	9
119	8
121	6
123	1
126	8
127	16
128	4
129	8
130	1
131	18
132	2
133	1
139	44
140	7
141	4
145	2
146	2
152	1
153	2
154	11
155	974
156	79
157	48
158	5
159	1
162	2
165	6
166	2
167	4
169	1
171	8
172	30
173	11
174	2
181	6
182	5
183	3
185	5
188	1
197	8
199	3
210	4
211	14
215	4
217	1
219	13
224	4
225	4
227	59
228	7
229	5
239	29
240	4
241	2
252	9
253	13
254	4
257	7
262	91
263	13
264	11
269	59
270	9
271	5
282	71
283	30
284	8
285	1
299	4
301	2
326	2
327	28
328	4
329	2
369	1
382	1
424	2
425	1
454	8
455	8
456	1
