Mass Spectrum: (4-Chloro-benzo[1,2,5]thiadiazol-5-yloxy)-acetic acid butyl ester
Formula: C12H13ClN2O3S
CAS: 313267-93-5
Molecular weight: 300
m/z	intensity
26	1
27	108
28	101
29	824
30	7
31	27
32	7
39	48
40	2
41	602
42	113
43	96
44	7
45	20
46	15
52	19
53	3
55	88
56	45
57	999
58	29
59	3
68	12
69	11
70	40
71	2
74	2
75	3
76	22
79	3
80	46
81	1
83	18
84	4
85	3
86	2
107	5
108	22
109	3
110	3
111	1
122	1
123	2
124	1
125	7
127	2
133	8
134	47
135	49
136	11
137	4
142	12
144	3
152	3
153	2
157	51
158	10
159	10
160	1
168	3
169	47
170	25
171	108
172	10
173	19
180	71
181	20
185	43
186	338
187	36
188	111
189	2
199	215
200	24
201	71
202	2
208	59
209	958
210	103
211	37
212	2
244	219
245	16
246	68
247	2
300	415
301	54
302	158
303	8
