Mass Spectrum: 3-(2-Benzamido-5-methoxyphenyl)-2(1H)-quinoxalinone
Formula: C22H17N3O3
CAS: 313367-15-6
Molecular weight: 371
m/z	intensity
36	3
37	3
38	9
39	27
40	4
41	15
42	5
43	19
44	20
45	4
46	1
47	1
49	2
50	26
51	94
52	41
53	14
54	4
55	13
56	6
57	21
58	2
60	5
61	2
62	6
63	29
64	18
65	40
66	7
67	5
68	3
69	10
70	6
71	14
72	1
73	6
74	5
75	10
77	642
78	52
79	28
80	12
81	5
82	3
83	10
84	5
85	11
86	1
87	2
88	3
89	7
90	42
91	22
92	31
93	4
94	1
95	12
96	3
97	9
98	5
99	5
100	1
101	3
102	18
103	13
105	999
106	73
107	9
108	1
109	2
110	1
111	5
112	2
113	3
114	3
115	5
116	6
117	4
118	10
119	4
120	3
121	2
122	11
123	2
124	1
125	4
126	3
127	4
128	3
129	5
130	1
131	2
133	15
134	5
135	5
136	1
137	1
138	1
139	3
140	6
141	4
142	8
143	73
144	9
145	3
146	1
147	2
148	4
149	2
150	1
151	1
152	4
153	6
154	4
155	3
156	2
157	1
159	1
160	1
164	1
165	1
166	3
167	8
168	12
169	20
171	18
172	2
177	1
178	1
179	7
180	4
181	5
182	3
183	2
185	1
191	1
192	2
193	4
194	33
195	23
196	5
197	4
198	1
204	1
205	2
206	7
207	9
208	6
209	13
210	6
211	2
219	1
220	1
221	1
222	12
223	28
224	6
225	5
226	4
227	1
234	85
235	27
236	6
238	152
239	24
240	3
249	239
250	214
251	45
252	8
253	9
254	1
256	1
264	1
266	82
267	15
268	10
269	1
270	1
279	1
294	9
295	2
299	3
300	1
324	1
325	2
326	4
327	3
328	1
342	2
343	1
353	3
354	2
355	1
371	250
372	62
