Mass Spectrum: 3,13-Dioxatetracyclo[7.5.0.0(2.6).0(12.14)]tetradecan-4-one, 8,12-dimethyl-5-(4-methyl-1-piperidyl)methyl-
Formula: C21H33NO3
CAS: 313360-99-5
Molecular weight: 347
m/z	intensity
33	0
34	0
39	15
40	10
41	44
42	33
43	39
44	25
45	1
50	1
51	2
53	12
55	52
56	10
57	5
58	3
59	0
60	0
61	0
63	0
65	6
66	3
67	12
68	9
69	27
70	18
71	4
72	0
73	0
74	0
75	0
77	13
79	18
80	6
81	12
82	10
83	4
84	5
85	2
86	0
87	0
88	0
89	0
91	23
92	4
93	15
94	7
95	11
96	14
98	214
99	21
100	23
103	3
105	21
106	4
107	10
108	5
109	8
110	35
112	999
115	3
116	2
117	5
118	3
119	7
120	2
121	6
122	3
123	3
124	11
125	5
126	5
127	1
128	2
129	2
130	1
131	5
132	2
133	6
134	2
135	4
136	4
137	1
138	4
139	1
140	0
141	0
143	2
144	1
145	4
146	5
147	4
148	2
149	2
150	2
151	1
152	3
153	1
154	2
155	0
156	0
157	0
158	0
159	2
160	1
161	3
162	2
163	2
164	1
165	1
166	1
167	1
169	21
170	3
171	2
173	0
174	0
175	2
176	2
177	2
178	1
179	0
180	0
181	0
182	1
183	0
185	0
186	0
187	0
188	1
189	2
190	1
191	0
192	0
193	0
194	0
199	0
201	0
202	0
203	0
204	1
205	0
206	1
207	0
213	0
214	0
215	0
216	0
217	0
218	0
219	0
220	0
230	0
231	0
232	1
233	0
234	0
246	0
247	0
248	0
259	0
260	0
261	0
262	0
274	0
275	0
276	2
277	0
278	0
280	0
285	0
286	0
287	0
288	5
290	4
291	0
303	2
304	0
305	0
318	0
330	0
331	0
332	2
333	0
345	0
346	2
347	5
348	1
