Mass Spectrum: N-[4-Chloro-2-(2-chlorobenzoyl)phenyl]-4-(diethylaminosulfonyl)benzamide
Formula: C24H22Cl2N2O4S
CAS: 313395-60-7
Molecular weight: 504
m/z	intensity
34	33
35	40
36	140
38	74
40	625
42	975
44	641
45	18
48	32
49	22
50	246
51	88
53	57
54	47
56	464
57	148
58	161
62	41
63	84
64	141
65	42
68	14
69	37
70	106
71	63
72	147
73	64
75	501
76	999
77	305
78	35
83	19
84	18
87	16
89	16
90	33
92	241
95	25
96	22
97	25
98	16
99	19
101	51
103	746
104	970
105	513
106	32
111	188
112	34
113	54
118	30
119	44
120	160
121	60
122	16
124	85
125	20
126	22
128	17
132	25
133	41
137	18
139	314
140	75
141	72
150	16
152	84
153	20
164	27
165	27
166	64
167	18
169	22
171	17
174	20
176	207
177	27
195	14
196	69
197	43
200	16
201	25
228	24
229	81
230	25
231	26
238	22
240	484
241	58
242	18
244	30
246	21
264	17
365	60
366	17
367	63
368	104
369	48
370	64
488	56
489	151
490	69
491	84
492	27
493	18
503	18
504	109
505	44
506	65
507	24
