Mass Spectrum: Acetic acid, 2-cyano-2-(1,2-dihydro-3-nitropyridin-2-ylideno)-, ethyl ester
Formula: C10H9N3O4
CAS: 313366-96-0
Molecular weight: 235
m/z	intensity
33	1
34	1
37	66
38	193
39	308
40	79
41	48
42	22
43	60
44	49
45	26
46	16
47	0
49	25
50	156
51	248
52	188
53	999
54	53
55	13
56	19
57	2
58	1
59	3
61	81
62	225
63	220
64	108
65	120
66	58
67	21
68	8
69	3
70	3
72	6
73	6
74	5
75	24
76	73
77	142
78	363
79	83
80	251
81	28
82	66
83	4
84	1
86	11
87	42
88	124
89	232
90	198
91	203
92	206
93	72
94	11
95	18
96	1
99	0
100	0
101	2
103	35
104	94
105	170
106	115
107	23
108	73
109	10
110	3
111	0
112	1
113	1
115	49
116	154
117	91
118	32
119	13
120	6
121	19
122	1
123	0
128	0
129	2
130	3
131	5
132	19
133	46
134	27
136	363
137	28
138	2
142	4
143	5
144	9
145	7
146	31
147	48
148	4
149	0
151	0
156	0
158	1
159	5
160	4
161	25
162	38
163	124
164	12
165	0
167	0
171	0
174	1
175	0
187	0
189	13
190	25
191	2
205	1
213	0
227	0
228	0
235	2
236	0
