Mass Spectrum: Acetamide, N-[2-(4-fluorobenzoyl)-3-benzofuryl)-2-(1-piperidyl)-
Formula: C22H21FN2O3
CAS: 313400-57-6
Molecular weight: 380
m/z	intensity
29	6
30	27
33	0
39	6
40	1
41	107
42	103
43	37
44	37
45	16
53	5
54	9
55	122
56	28
57	9
58	1
64	0
67	2
68	9
69	16
70	25
71	3
73	0
75	7
76	10
77	3
80	0
81	1
82	13
83	11
84	117
85	16
86	1
87	0
89	0
91	0
93	0
94	7
95	87
96	61
97	84
98	999
99	245
100	11
101	0
102	19
103	26
104	6
105	1
107	2
108	3
109	6
110	0
111	1
112	1
114	2
115	0
116	7
120	1
122	7
123	363
124	70
125	518
126	46
127	6
128	0
129	2
130	16
131	0
132	0
133	2
134	0
135	0
136	2
137	0
144	0
145	1
146	2
151	0
157	0
159	0
160	0
162	0
170	3
171	0
172	6
174	0
175	0
181	0
182	0
183	9
184	0
185	1
186	68
187	5
194	0
195	0
196	4
197	14
198	18
199	1
208	0
224	0
225	9
226	18
227	1
228	0
236	0
237	0
238	2
239	0
253	19
254	94
255	52
256	4
257	23
258	3
266	2
267	0
268	1
279	0
280	3
281	0
282	16
283	1
296	3
378	8
379	278
380	477
381	148
382	33
