Mass Spectrum: Benzoic acid, 3-cyano-4-hexyloxy-
Formula: C14H17NO3
CAS: 313492-48-7
Molecular weight: 247
m/z	intensity
33	2
34	0
36	0
37	2
39	95
41	342
43	999
45	8
50	6
51	14
52	17
53	20
55	184
56	197
57	94
60	5
62	12
63	43
64	8
65	8
66	3
67	7
69	114
71	3
73	4
74	5
75	11
76	5
77	7
78	6
79	5
80	3
81	3
84	390
85	139
86	6
87	2
88	4
90	46
91	7
92	5
93	1
94	1
95	1
96	1
97	2
98	1
99	1
100	4
101	5
102	3
103	2
104	2
106	9
107	1
108	2
109	1
110	0
111	1
112	0
113	0
114	0
115	1
116	2
118	34
119	6
120	6
121	3
122	0
123	0
125	0
126	0
127	0
128	1
129	3
130	1
131	1
132	1
134	3
135	4
136	1
138	11
139	1
140	0
142	0
143	2
144	2
146	128
148	3
149	0
150	0
151	0
152	0
153	0
154	0
157	0
158	0
159	1
160	1
163	306
164	210
167	0
170	0
171	0
172	1
173	0
174	1
176	8
177	1
178	0
179	0
185	1
186	0
188	1
190	3
191	0
192	0
197	0
199	3
201	3
202	1
204	1
205	0
213	1
214	0
216	22
218	25
219	5
220	0
222	1
227	0
229	0
230	1
231	0
232	1
233	0
243	0
244	0
245	1
247	48
248	7
