Mass Spectrum: 14-Azadispiro[5.1.5.2]pentadeca-1,4,14-trien-3-one, 15-benzylthio-
Formula: C21H23NOS
CAS: 313474-17-8
Molecular weight: 337
m/z	intensity
33	65
34	32
36	23
37	10
39	254
40	29
41	209
42	42
43	70
44	80
45	58
46	5
47	3
48	0
50	36
51	72
52	48
53	85
54	70
55	104
57	49
58	19
59	10
60	9
61	7
63	71
65	210
67	173
68	17
69	33
70	18
72	76
73	5
74	6
75	8
77	116
78	83
79	89
81	274
82	49
83	16
84	18
85	5
86	5
87	1
89	43
91	999
92	65
93	11
94	19
95	9
96	5
97	10
98	23
99	5
100	5
102	6
103	20
104	14
105	17
107	398
108	49
109	9
110	5
111	5
112	8
113	2
115	21
116	10
117	21
118	9
119	22
120	59
121	37
122	9
123	6
124	6
125	2
127	4
128	6
129	7
130	8
131	16
132	9
133	7
134	4
135	2
136	3
137	2
138	3
140	67
141	7
142	4
143	3
145	24
146	23
147	5
148	1
149	3
150	5
151	1
152	2
153	1
155	1
157	4
158	0
159	18
160	21
161	4
162	0
164	0
165	4
166	7
167	2
168	0
171	13
172	2
173	1
178	2
180	2
181	1
184	6
185	3
188	269
189	28
190	3
193	2
194	0
197	107
198	23
199	6
201	0
203	1
215	0
218	0
222	0
226	1
238	1
246	3
247	7
248	2
253	1
276	0
278	2
283	0
307	1
309	1
336	1
337	38
338	7
339	2
