Mass Spectrum: Coumarine, 8-ethoxy-3-phenylsulfonyl-
Formula: C17H14O5S
CAS: 313479-96-8
Molecular weight: 330
m/z	intensity
33	10
34	2
37	7
38	22
39	74
40	20
41	7
42	6
43	18
44	12
45	14
46	1
48	6
50	263
51	476
52	38
53	61
54	9
55	21
56	4
57	8
58	3
59	1
60	3
62	82
63	93
64	57
65	74
66	13
67	4
69	21
70	6
71	6
74	78
75	124
76	417
77	999
78	91
79	29
80	7
81	19
82	13
83	4
84	3
85	5
86	13
87	31
88	53
89	94
90	15
91	20
92	91
93	87
94	19
95	46
96	11
97	67
98	6
99	5
100	2
101	7
102	17
103	49
104	172
105	440
106	35
107	15
108	20
109	37
110	9
111	3
112	2
113	4
114	5
115	17
116	28
117	17
118	10
119	21
120	21
121	11
122	6
123	7
125	197
126	26
127	20
128	7
129	4
130	7
131	44
132	51
133	75
134	22
135	8
136	14
137	48
138	36
139	9
141	47
142	5
143	6
144	9
145	14
146	7
147	6
148	5
149	33
150	12
151	18
152	57
153	45
154	11
155	3
156	12
157	2
158	4
159	21
160	130
161	108
162	18
163	10
164	10
165	33
166	26
167	4
168	2
169	1
170	1
171	4
173	35
174	4
175	0
176	1
177	3
178	1
179	2
180	5
181	36
182	10
183	2
184	5
185	2
186	1
187	6
188	8
189	12
190	3
191	0
192	2
193	3
194	2
195	1
196	0
197	3
198	1
199	0
200	0
201	0
205	0
206	0
207	2
208	8
209	17
210	241
211	34
212	4
213	2
214	0
219	1
220	3
221	11
222	13
223	7
224	1
225	1
227	1
228	1
229	0
232	0
233	1
237	896
238	238
239	33
240	3
241	1
245	2
246	0
247	1
248	1
249	2
250	5
251	36
252	6
253	1
254	0
255	0
256	0
260	0
261	1
262	2
264	48
265	319
266	79
267	10
268	1
270	1
273	6
274	1
284	1
298	1
299	1
301	13
302	57
303	9
304	4
312	0
313	1
314	0
315	1
316	0
325	0
326	3
327	2
328	5
330	200
331	37
332	13
333	1
