Mass Spectrum: 2-[4-(Pentyloxy)benzylidene]-1,3-indandione
Formula: C21H20O3
CAS: 313494-08-5
Molecular weight: 320
m/z	intensity
33	6
39	241
41	646
43	999
44	31
50	103
51	63
53	53
55	139
56	11
57	20
60	7
61	7
62	31
63	75
64	15
65	14
67	14
69	45
70	11
71	39
74	57
75	111
76	221
77	50
78	6
79	7
81	10
82	7
83	8
85	5
86	11
87	24
88	48
89	51
90	9
91	9
94	6
98	10
99	9
100	9
101	46
102	14
104	155
105	23
107	8
110	5
111	9
112	7
113	20
114	8
115	32
116	11
117	10
118	9
121	5
125	7
126	11
127	7
128	5
129	12
137	13
138	19
139	54
140	9
143	5
145	47
146	5
149	12
150	18
151	28
152	10
157	6
163	53
164	112
165	294
166	47
167	7
173	5
174	7
175	14
176	59
177	24
178	9
181	6
192	12
193	31
194	60
195	9
205	26
219	7
220	15
221	86
222	85
223	15
233	187
234	27
235	6
245	11
249	994
250	630
251	100
252	12
263	7
315	5
317	14
320	401
321	69
322	11
