Mass Spectrum: Phenol, 2-(1-benzyl-2-methyl-5-benzimidazolylaminomethyl)-
Formula: C22H21N3O
CAS: 313483-28-2
Molecular weight: 343
m/z	intensity
33	23
34	2
39	134
40	36
41	37
42	26
43	4
44	2
46	0
49	2
51	123
52	52
53	22
54	6
55	4
57	2
60	0
61	2
63	86
65	209
66	18
67	3
68	1
69	1
71	2
73	1
74	8
75	9
77	158
78	103
79	51
80	4
82	0
83	5
86	1
87	2
91	999
92	68
94	2
95	1
97	4
100	1
101	2
102	7
103	11
105	100
107	120
109	1
111	0
112	0
113	1
114	2
115	8
116	5
117	8
118	10
119	38
120	6
121	8
122	1
123	0
126	2
128	6
129	6
130	6
131	10
132	4
133	1
134	0
138	0
139	3
140	5
141	1
143	1
146	622
147	45
149	0
150	1
151	2
152	4
153	3
154	4
155	1
156	0
157	1
158	4
160	4
161	1
163	0
164	0
165	4
166	8
167	4
168	1
171	1
176	0
177	1
178	1
179	1
180	2
181	3
182	2
183	0
191	0
192	3
193	4
194	3
195	2
196	0
205	1
206	1
207	1
208	1
209	1
218	0
219	2
220	4
221	7
222	6
223	2
231	0
232	1
234	18
237	839
238	101
239	9
248	1
249	4
250	17
251	10
252	6
253	0
267	0
271	0
311	0
312	1
325	1
340	5
341	14
343	263
344	51
345	6
