Mass Spectrum: 5,7-Dibromo-2,1,3-benzothiadiazole-4-ylimino-dimethylaminomethane
Formula: C9H8Br2N4S
CAS: 313521-39-0
Molecular weight: 362
m/z	intensity
33	33
40	62
42	999
44	821
45	67
46	75
57	114
58	21
63	18
69	33
70	26
75	30
79	31
81	26
82	21
83	31
88	20
89	42
101	24
133	24
159	22
160	19
212	42
213	20
214	37
215	25
239	40
240	28
241	47
242	158
244	151
256	25
283	334
285	347
286	36
294	22
307	18
318	33
320	142
322	174
323	84
334	51
336	86
338	38
362	151
364	308
366	171
