Mass Spectrum: Benzamide, 4-fluoro-N-[4-(2-naphthyl)-2-thiazolyl]-
Formula: C20H13FN2OS
CAS: 313528-48-2
Molecular weight: 348
m/z	intensity
33	0
38	3
39	8
40	2
41	1
42	2
43	3
45	31
47	0
50	16
51	13
52	2
53	1
55	0
57	2
60	1
62	3
63	16
64	3
65	12
66	0
68	6
69	15
70	2
71	1
73	1
74	14
75	101
76	17
77	12
78	2
79	1
81	1
82	1
83	0
85	0
86	4
87	5
88	3
89	9
91	46
92	8
93	8
95	365
96	7
98	4
99	5
100	4
101	8
102	6
103	2
105	3
106	0
108	0
110	0
111	1
112	3
113	8
114	4
115	14
116	2
117	2
119	77
120	9
121	12
123	999
124	47
125	12
126	36
127	46
128	11
129	2
134	1
135	1
136	0
137	4
138	10
139	58
140	13
141	2
145	1
146	1
147	7
148	6
149	1
150	5
151	15
152	39
153	27
154	13
155	0
157	0
158	4
159	0
164	5
165	2
166	1
167	0
169	3
170	5
171	26
172	5
174	3
175	0
178	0
179	6
181	12
182	9
184	247
185	33
186	11
187	1
189	1
190	0
191	1
192	2
193	0
195	1
196	25
197	5
198	8
199	1
200	0
208	4
209	2
210	0
223	1
224	11
225	37
226	61
227	10
228	2
252	0
253	3
254	0
279	0
280	0
307	1
308	38
309	8
310	1
315	1
319	6
320	11
321	2
344	0
345	3
346	2
348	551
349	118
350	36
351	6
