Mass Spectrum: 2H-Isoindole-1,3(1H,3H)-dione, 5-amino-2-(2-methoxyphenyl)-
Formula: C15H12N2O3
CAS: 313515-42-3
Molecular weight: 268
m/z	intensity
33	4
34	0
35	0
36	4
37	82
38	201
39	300
41	650
42	39
43	23
44	25
45	24
46	19
47	1
49	16
50	215
51	753
52	401
53	104
54	41
55	15
56	3
57	3
60	26
61	91
62	325
63	807
64	666
65	330
66	74
67	24
68	13
69	5
71	6
73	16
74	78
75	54
76	106
77	148
78	474
79	65
80	33
81	3
82	0
83	5
84	0
85	5
86	8
87	20
88	47
89	83
90	206
91	999
92	142
93	54
94	13
95	104
96	5
97	2
99	6
100	4
101	6
102	11
103	13
104	22
105	44
106	265
108	41
109	2
111	2
112	1
113	4
114	6
115	20
116	23
117	75
118	123
119	291
120	276
121	29
123	31
124	1
125	1
127	22
128	9
129	15
130	10
131	3
132	5
134	98
135	5
136	0
138	1
139	3
140	10
141	9
142	9
143	12
145	183
146	12
148	40
149	8
150	1
151	2
152	11
153	6
154	14
155	7
156	1
157	0
160	1
161	16
162	12
163	0
164	4
165	2
166	5
167	13
168	19
169	16
170	4
171	0
172	0
173	1
175	1
176	0
177	1
178	1
179	6
180	9
181	13
182	6
183	3
184	1
190	1
191	1
192	5
193	21
194	57
195	44
196	11
197	9
198	3
205	0
206	0
207	1
208	3
209	8
210	16
211	13
212	3
221	3
222	16
223	22
224	13
225	17
226	2
235	1
236	1
237	14
238	5
239	18
240	4
248	2
249	2
250	35
251	10
252	1
253	0
259	0
261	0
263	1
265	1
266	5
268	112
269	20
270	2
