Mass Spectrum: Acetic acid, 2-[3-hydroxy-4-[1-oxo-2-(2-pyridyl)ethyl]phenyloxy]-, methyl ester
Formula: C16H15NO5
CAS: 313550-25-3
Molecular weight: 301
m/z	intensity
33	3
37	2
39	61
40	12
41	9
42	19
43	19
45	142
50	14
51	32
52	34
53	36
55	16
59	22
62	19
63	44
64	48
65	97
66	38
67	10
69	21
70	2
73	29
74	3
75	3
76	5
77	12
78	33
79	20
80	14
81	5
89	7
93	999
94	39
95	13
104	6
105	7
106	28
107	21
108	54
109	4
117	11
119	61
120	131
121	29
122	9
123	8
128	4
130	7
131	3
132	8
133	2
134	2
136	18
137	20
140	2
141	2
142	3
143	5
144	6
149	34
151	35
152	3
154	14
155	4
156	4
164	3
165	13
170	4
171	3
172	4
180	2
181	10
182	31
183	11
184	13
185	2
186	2
198	8
200	54
201	3
205	2
209	958
210	67
211	18
212	26
213	4
224	4
228	11
242	18
256	34
257	6
258	9
270	25
271	4
272	20
273	28
274	3
281	8
282	4
284	172
285	24
286	9
287	2
298	6
299	18
301	571
302	82
303	13
