Mass Spectrum: Benzamide, 2-methyl-N-[4-(2-naphthyl)-2-thiazolyl]-
Formula: C21H16N2OS
CAS: 313549-65-4
Molecular weight: 344
m/z	intensity
33	3
37	0
38	4
39	71
41	24
42	3
43	6
45	44
47	0
50	23
51	42
52	5
53	3
55	0
57	2
62	10
63	30
65	203
66	7
69	5
70	3
71	1
73	0
74	9
75	17
77	80
78	5
79	2
82	0
86	5
87	8
89	70
91	581
92	37
93	2
95	0
98	3
99	4
100	5
101	7
102	5
103	3
105	86
106	3
112	2
113	8
114	4
115	17
119	999
120	62
121	4
123	0
125	4
126	42
127	55
128	13
129	1
134	2
136	2
137	6
138	9
139	60
140	14
141	1
146	0
147	6
148	3
149	0
150	7
151	14
152	43
153	30
154	14
155	1
158	4
164	6
166	2
169	2
170	5
171	24
172	3
173	1
174	0
179	7
180	0
181	3
182	6
183	20
184	228
185	29
186	11
189	0
191	0
192	1
196	25
197	3
198	9
208	3
209	3
223	1
224	11
225	41
226	34
227	6
228	1
283	1
294	16
295	2
311	6
316	4
330	7
331	1
341	0
342	3
344	299
345	69
346	21
347	1
