Mass Spectrum: Thiophene, 2,3-dimethyl-4-cyano-5-benzamido-
Formula: C14H12N2OS
CAS: 313533-21-0
Molecular weight: 256
m/z	intensity
33	11
34	18
38	29
39	56
40	4
41	34
42	13
43	24
44	55
45	33
46	3
47	6
48	2
49	4
50	77
51	295
52	27
53	29
55	16
56	5
57	15
58	28
59	88
60	7
61	7
62	6
63	21
64	26
65	20
66	13
67	4
68	2
69	13
70	16
71	11
72	2
73	3
74	21
75	19
76	43
77	624
78	41
79	8
80	9
81	4
83	10
84	5
85	6
86	3
87	1
88	1
89	2
90	15
91	11
92	6
93	3
97	17
98	2
99	1
100	0
101	1
102	2
103	4
105	999
106	65
107	11
109	4
110	4
111	0
112	1
113	1
115	1
116	1
117	5
118	6
119	2
120	1
122	5
123	3
124	6
125	0
134	1
135	2
136	1
137	2
151	15
152	6
153	1
163	0
170	0
171	2
172	0
173	0
177	0
179	0
194	0
195	0
254	1
255	2
256	82
257	13
258	4
259	0
