Mass Spectrum: 1,4-Bis-(2-furoyl)piperazine
Formula: C14H14N2O4
CAS: 31350-27-3
Molecular weight: 274
m/z	intensity
38	291
42	98
55	56
56	85
67	59
69	113
81	130
82	31
95	999
96	83
109	25
110	22
123	32
124	51
135	20
137	20
138	49
149	18
150	70
163	173
165	23
178	5
179	44
191	2
193	13
206	153
207	17
217	1
218	1
231	1
245	1
246	3
256	1
259	7
274	145
275	28
