Mass Spectrum: 1,3-Dioxo-2-[4-(phenacyloxycarbonyl)phenyl]-5-isoindolinecarboxylic acid
Formula: C24H15NO7
CAS: 313509-24-9
Molecular weight: 429
m/z	intensity
33	1
37	4
39	48
40	13
41	10
43	26
44	36
45	9
50	58
51	60
52	9
53	8
55	6
57	6
60	2
63	47
64	16
65	21
66	4
69	2
71	1
73	4
74	39
75	62
77	238
78	16
79	8
83	1
87	1
88	2
90	34
91	21
92	7
102	34
103	49
105	999
106	54
107	3
115	2
118	32
119	19
120	49
121	4
127	3
128	5
129	1
132	1
138	6
139	9
140	5
146	6
148	63
149	7
150	2
152	3
153	4
154	7
164	12
165	9
166	17
167	3
174	7
177	1
181	2
182	5
183	1
192	4
193	9
194	4
196	2
210	3
220	2
238	1
249	3
266	43
267	8
282	1
294	171
295	21
296	2
311	7
350	1
387	34
388	6
429	13
430	2
