Mass Spectrum: N,N,N',N'-Tetrakis(2-hydroxyethyl)-4,4'-bis(benzenesulfonamide)
Formula: C20H28N2O8S2
CAS: 313521-09-4
Molecular weight: 488
m/z	intensity
39	68
40	93
41	225
42	412
43	169
44	169
45	187
48	15
50	17
51	13
54	27
56	999
57	61
58	13
60	15
63	20
64	25
65	10
69	14
70	23
71	19
72	33
73	61
74	95
75	13
76	12
77	17
86	11
87	9
88	11
91	11
102	20
126	40
139	9
144	18
149	9
151	604
153	48
200	17
216	26
287	11
289	174
290	29
291	11
453	9
457	202
458	32
459	12
