Mass Spectrum: Thiazolidine-2,4-dione, 5-benzylideno-3-dimethylaminomethyl-
Formula: C13H14N2O2S
CAS: 313663-02-4
Molecular weight: 262
m/z	intensity
33	5
34	2
37	9
38	20
39	50
40	22
42	119
43	32
44	32
45	29
47	3
50	46
51	59
52	10
53	7
54	9
56	45
58	999
59	26
61	15
62	27
63	62
64	12
65	7
67	81
69	56
70	41
71	5
72	3
73	6
74	21
75	19
76	15
77	26
78	2
79	1
81	13
82	20
83	4
84	8
85	4
86	5
87	6
89	142
90	90
91	12
93	21
95	16
96	1
97	2
98	4
99	10
102	31
103	5
104	2
105	5
106	7
107	8
108	34
109	3
110	1
114	0
115	0
116	1
117	1
118	3
119	2
121	3
122	0
123	0
127	0
128	2
129	3
130	2
134	794
135	63
136	32
137	2
145	0
147	23
148	2
149	1
150	0
158	0
159	0
161	16
162	13
163	2
164	0
175	0
178	0
185	0
189	0
190	2
191	0
201	0
205	160
206	16
207	8
208	0
216	0
218	25
219	4
220	1
221	0
246	1
247	2
248	0
257	0
258	0
261	85
262	25
263	6
264	1
