Mass Spectrum: 1,3-Dioxolane, 2-[4-(4-methyl-3-pentenyl)-6-methyl-3-cyclohexenyl]-4-(1-piperidylmethyl)-
Formula: C22H37NO2
CAS: 313697-70-0
Molecular weight: 347
m/z	intensity
39	10
40	3
41	95
42	36
43	21
44	20
45	3
47	0
50	0
51	1
52	0
53	8
54	5
55	52
56	12
57	8
58	2
59	1
63	0
65	3
66	1
67	10
68	9
69	41
70	14
71	4
72	1
73	1
75	0
77	8
78	2
79	11
80	3
81	6
82	5
83	5
84	17
85	20
86	61
87	4
91	12
92	2
93	8
94	2
95	4
96	16
98	999
99	71
100	2
101	0
102	0
103	1
104	0
105	10
106	2
107	6
108	1
109	2
110	2
111	1
112	2
113	2
114	0
115	1
116	0
117	1
118	1
119	4
120	1
121	4
122	2
123	3
124	37
125	5
126	43
127	5
128	1
129	0
130	0
131	1
132	0
133	2
134	0
135	1
136	0
137	0
138	0
139	0
140	3
141	1
142	13
143	2
144	0
145	1
146	0
147	1
148	0
149	0
150	0
151	0
152	0
153	0
154	0
155	0
156	0
157	0
158	1
159	1
160	0
161	1
162	0
163	1
164	0
165	0
166	0
167	0
168	0
170	29
171	3
172	0
173	0
174	0
175	1
176	0
177	0
178	0
179	0
181	0
184	0
185	0
187	0
188	0
189	0
190	0
191	0
193	0
196	0
200	0
201	0
205	0
206	0
207	0
208	0
210	0
212	0
213	0
219	0
221	0
229	0
247	0
262	0
264	0
272	0
274	0
276	0
278	13
279	2
280	0
292	0
298	0
322	0
332	0
333	1
334	0
345	0
346	1
347	17
348	4
349	0
350	0
