Mass Spectrum: N-(3-Cyano-4,5,6,7-tetrahydro-2-benzo[b]thienyl)-2-thiophenecarboxamide
Formula: C14H12N2OS2
CAS: 313662-16-7
Molecular weight: 288
m/z	intensity
33	21
34	23
35	16
36	61
38	44
39	300
40	233
41	37
42	16
43	15
44	61
45	52
48	5
50	10
51	42
52	19
53	10
55	12
57	45
58	12
63	9
65	16
66	68
68	3
69	6
70	3
71	9
78	8
81	3
82	12
83	70
84	66
85	4
97	8
111	999
112	35
113	51
122	5
127	9
128	17
150	32
178	5
288	9
