Mass Spectrum: N-[1-(2-Benzoxazolyl)-5-oxo-2-pyrazolin-3-yl]benzamide
Formula: C17H12N4O3
CAS: 313668-58-5
Molecular weight: 320
m/z	intensity
33	1
36	5
37	9
38	18
39	35
40	7
41	18
42	8
43	10
44	10
45	3
46	1
51	172
52	32
53	11
54	5
55	7
56	4
57	4
60	4
63	42
64	30
65	34
68	106
69	5
70	2
71	2
73	5
74	9
77	459
78	32
79	12
80	3
81	2
82	1
83	2
84	2
85	1
87	1
88	2
90	19
91	18
92	25
93	14
95	2
96	1
97	1
98	1
99	1
100	1
105	999
106	60
108	5
109	2
111	2
113	1
114	1
115	2
116	2
117	3
118	7
119	10
120	12
121	3
122	2
125	1
127	1
128	1
129	2
130	2
131	2
132	4
133	10
134	18
135	15
136	2
143	2
144	3
145	4
146	2
148	8
149	4
150	1
152	1
159	13
160	9
161	3
162	1
163	1
165	1
166	1
167	1
171	1
172	4
174	37
175	4
176	1
178	2
179	1
181	1
185	1
187	7
188	1
189	1
195	1
196	1
197	1
199	6
200	1
203	3
210	1
211	1
215	3
216	1
221	2
223	1
225	2
239	1
243	5
249	3
250	1
263	1
273	3
274	1
275	1
276	1
278	2
290	1
292	18
293	3
320	316
321	45
322	6
