Mass Spectrum: Pyridinium, 1-o-toluidino-, hydroxide, inner salt
Formula: C12H12N2
CAS: 31378-89-9
Molecular weight: 184
m/z	intensity
41	40
50	130
51	290
52	400
53	180
54	10
62	10
63	60
64	20
65	130
66	20
75	10
76	50
77	240
78	560
79	740
80	910
81	60
89	10
90	10
91	30
92	30
93	10
103	20
104	999
105	400
106	160
107	100
108	10
144	40
168	30
169	30
181	60
182	60
183	140
184	660
185	100
