Mass Spectrum: 2-Cyclohexenone, 3-(4-fluorobenzylamino)-5-phenyl-
Formula: C19H18FNO
CAS: 313703-00-3
Molecular weight: 295
m/z	intensity
33	4
34	0
39	113
40	19
41	30
42	12
43	6
44	2
45	1
51	76
52	18
53	15
54	28
55	19
57	30
58	7
59	13
60	1
63	48
65	28
67	49
68	69
69	7
70	6
71	1
72	0
74	8
75	16
77	68
78	48
80	5
81	10
83	157
85	1
86	3
87	3
89	30
91	55
95	20
96	11
97	4
98	2
99	2
101	11
103	60
104	50
105	14
109	999
112	1
115	41
116	12
117	27
118	5
120	9
122	89
123	32
124	18
127	30
128	26
129	13
131	36
134	76
135	9
136	3
137	1
138	0
139	2
141	9
143	16
144	26
145	14
146	7
148	49
149	11
150	5
151	2
152	1
154	2
156	8
158	23
162	688
163	142
165	3
166	0
167	0
168	0
169	1
170	2
171	2
172	5
174	9
176	16
177	2
178	0
179	0
181	0
183	1
185	23
186	10
191	603
193	2
194	0
196	0
198	1
199	1
200	0
201	0
202	1
204	18
205	1
206	0
209	0
211	1
212	0
216	0
217	0
218	5
219	0
220	0
221	0
222	0
224	1
225	0
230	0
235	0
236	1
238	11
239	3
240	1
248	0
249	1
250	2
252	39
253	7
254	0
257	4
258	0
263	2
264	4
266	56
267	77
268	11
269	1
276	0
277	0
278	3
280	5
281	0
288	0
289	0
295	645
296	87
297	10
