Mass Spectrum: Propanamide, N-(4-fluorophenyl)-3-[4-(2-hydroxyethyl)-1-piperazinyl]-
Formula: C15H22FN3O2
CAS: 313702-52-2
Molecular weight: 295
m/z	intensity
34	13
39	32
40	322
42	924
43	168
44	219
45	89
51	19
52	6
55	396
56	423
57	205
58	127
63	26
64	4
65	8
68	44
69	49
70	416
71	56
72	51
74	135
75	27
76	4
77	35
78	6
79	3
81	29
82	106
83	204
84	293
85	64
86	14
88	48
89	5
91	23
92	2
94	3
95	84
96	34
97	151
98	167
99	151
100	164
101	44
102	16
103	3
104	9
105	30
106	4
107	2
109	73
110	193
111	999
112	132
113	52
114	8
115	15
118	2
120	5
121	8
122	31
123	25
124	88
125	111
126	12
127	103
128	48
129	25
130	6
132	16
135	1
136	5
137	13
138	57
139	27
141	100
143	206
144	15
149	14
152	4
153	82
157	42
158	3
165	54
166	53
167	32
178	8
185	2
186	1
194	5
195	149
196	16
207	14
208	57
209	154
210	20
221	111
222	70
223	37
234	3
235	10
236	17
249	51
250	12
253	14
255	8
262	24
264	627
265	196
266	22
277	213
278	48
279	7
280	7
281	5
282	3
293	9
295	53
296	31
