Mass Spectrum: 2-(p-Tolylsulfonyl)acetophenone
Formula: C15H14O3S
CAS: 31378-03-7
Molecular weight: 274
m/z	intensity
15	2
17	2
18	3
26	2
27	20
28	3
29	2
37	2
38	11
39	118
40	9
41	30
42	11
43	5
44	3
45	9
48	3
50	52
51	172
52	17
53	7
55	1
61	3
62	19
63	76
64	27
65	281
66	15
67	5
69	4
70	1
71	2
74	12
75	10
77	362
78	36
79	13
80	2
85	1
86	2
87	2
89	60
91	459
92	40
93	2
95	2
101	1
102	8
103	32
105	999
106	77
108	210
109	16
110	2
111	3
115	2
118	1
119	3
120	1
121	3
122	2
128	1
137	1
139	19
140	2
141	2
152	4
153	1
155	37
156	3
157	2
165	8
166	3
167	2
178	1
181	1
195	10
196	1
210	179
211	30
212	2
274	2
