Mass Spectrum: Pyridinium, 1-p-toluidino-, hydroxide, inner salt
Formula: C12H12N2
CAS: 31378-92-4
Molecular weight: 184
m/z	intensity
41	70
42	10
43	40
44	20
45	30
50	90
51	210
52	320
53	120
54	20
55	40
56	10
57	40
58	20
63	60
64	30
65	120
66	20
67	10
68	20
69	10
70	10
76	30
77	230
78	330
79	380
80	999
81	80
89	10
90	10
91	70
92	60
93	10
102	10
103	20
104	510
105	710
106	270
107	180
149	40
163	30
181	10
182	20
183	20
184	590
185	90
186	10
