Mass Spectrum: Pyridinium, 1-m-toluidino-, hydroxide, inner salt
Formula: C12H12N2
CAS: 31378-90-2
Molecular weight: 184
m/z	intensity
41	60
51	130
52	250
53	400
54	130
62	10
63	40
64	30
65	190
66	40
77	250
78	570
79	470
80	880
81	60
90	30
91	100
92	30
103	10
104	999
105	720
106	180
107	150
168	10
169	10
181	10
182	10
183	60
184	999
185	150
186	10
