Mass Spectrum: 1-Propanone, 1-[2-methyl-5-(1-methylethyl)-2-cyclohexen-1-yl]-
Formula: C13H22O
CAS: 31375-17-4
Molecular weight: 194
m/z	intensity
26	10
27	190
29	480
30	10
31	10
39	100
40	30
41	300
42	20
43	190
51	30
52	10
53	80
54	10
55	100
56	10
57	890
58	30
59	50
65	40
66	20
67	80
68	30
69	170
70	10
71	10
77	130
78	30
79	120
80	20
81	999
82	70
83	20
91	80
92	70
93	220
94	30
95	260
96	30
103	10
105	20
107	10
109	20
115	10
119	10
121	20
122	10
123	20
133	10
134	10
135	10
136	70
137	250
138	30
151	10
161	10
165	60
166	10
194	40
195	10
