Mass Spectrum: Pyridinium, 1-(p-chloroanilino)-, hydroxide, inner salt
Formula: C11H9ClN2
CAS: 31378-96-8
Molecular weight: 204
m/z	intensity
50	100
51	170
52	300
61	20
62	80
63	280
64	20
65	50
73	40
74	10
75	70
76	10
77	10
78	70
79	560
80	580
81	50
89	130
90	670
91	70
92	50
98	80
99	40
100	60
101	10
102	60
103	10
111	40
112	10
113	10
114	10
124	10
125	999
126	100
127	430
128	50
129	50
139	10
140	10
141	10
142	10
143	10
168	30
169	220
170	30
204	600
205	80
206	200
207	30
