Mass Spectrum: Pyridinium, 1-anilino-, hydroxide, inner salt
Formula: C11H10N2
CAS: 31378-82-2
Molecular weight: 170
m/z	intensity
50	60
51	200
52	230
53	70
62	20
63	140
64	520
65	120
66	60
72	20
77	50
78	60
79	520
80	540
81	50
84	20
85	50
90	50
91	999
92	70
93	70
141	20
142	20
143	20
168	20
169	80
170	720
171	80
