Mass Spectrum: 3-Picolinium, 1-anilino-, hydroxide, inner salt
Formula: C12H12N2
CAS: 31382-88-4
Molecular weight: 184
m/z	intensity
41	130
50	30
51	110
52	80
53	30
54	30
63	160
64	480
65	290
66	220
67	50
77	90
78	60
79	30
80	30
90	30
91	999
92	250
93	950
94	410
95	20
156	10
157	10
158	10
168	10
169	10
181	10
182	10
183	130
184	910
185	130
