Mass Spectrum: Benzoic acid, 4-(phenylazoxy)-, ethyl ester
Formula: C15H14N2O3
CAS: 31389-05-6
Molecular weight: 270
m/z	intensity
27	94
28	35
29	235
38	47
39	117
40	11
43	94
45	4
50	141
51	247
52	47
53	28
54	4
55	58
56	11
57	82
62	35
63	164
64	188
65	517
66	18
67	18
68	11
69	23
70	4
71	40
75	94
76	235
77	999
78	117
79	11
82	28
84	28
86	35
89	47
90	94
91	294
92	105
93	188
94	18
95	35
96	11
103	235
104	176
105	270
106	40
107	58
109	35
115	70
117	70
118	35
119	23
121	164
122	23
135	75
137	58
139	35
140	11
141	117
142	23
149	348
150	42
151	16
152	28
153	16
165	23
166	16
167	11
168	47
169	188
170	28
178	28
179	11
180	11
195	18
196	23
197	47
198	18
213	94
214	47
225	105
226	18
241	23
242	94
243	23
254	23
270	400
271	75
272	11
