Mass Spectrum: N-[5-(2-Iodo-phenyl)-[1,3,4]thiadiazol-2-yl]-2-phenyl-acetamide
Formula: C16H12IN3OS
CAS: 313965-07-0
Molecular weight: 421
m/z	intensity
38	4
39	68
40	12
41	22
42	3
46	4
47	0
48	0
49	0
50	38
51	74
53	0
54	0
59	0
60	5
61	57
62	42
63	72
64	17
65	258
66	18
68	0
69	37
70	24
71	4
72	3
73	1
74	104
75	32
76	67
77	21
78	3
80	2
81	2
82	2
83	1
84	1
86	8
87	6
88	22
89	60
90	88
91	999
92	77
93	16
94	33
95	2
96	0
100	3
101	2
102	33
103	12
104	22
105	9
106	4
107	6
108	2
109	0
110	0
112	0
113	0
114	0
115	2
116	4
117	21
118	381
119	55
120	250
121	39
122	20
123	4
124	2
125	0
127	4
128	5
129	2
130	1
131	9
132	2
133	8
134	63
135	26
136	5
137	1
140	1
142	0
143	1
144	1
145	34
146	7
147	0
148	2
149	26
150	4
151	5
152	3
153	1
154	0
156	0
157	1
159	4
161	1
162	0
163	3
164	3
165	5
166	3
167	12
168	12
169	8
170	1
171	0
172	0
174	0
175	1
176	24
177	20
178	13
179	7
180	0
181	0
182	0
183	0
184	1
185	14
186	1
187	0
188	0
189	1
190	1
191	2
192	45
193	5
194	1
195	6
196	4
197	1
198	0
201	0
202	1
203	10
204	1
205	0
206	0
207	0
208	0
209	0
210	0
211	0
213	0
214	0
215	7
216	1
217	0
220	0
222	0
223	0
224	0
228	0
229	21
230	33
231	5
232	1
233	1
234	0
235	0
236	6
237	1
238	0
239	0
242	0
243	0
244	31
245	4
246	1
247	99
248	8
249	4
250	0
251	0
260	0
261	7
262	2
263	0
264	0
265	0
266	0
268	0
269	0
270	0
271	1
272	0
275	0
276	0
282	0
287	2
288	0
289	0
290	0
291	0
293	0
294	0
295	1
296	0
297	0
300	0
301	0
302	12
303	344
304	250
305	46
306	12
307	0
311	0
312	0
313	0
320	0
321	0
322	0
328	0
329	4
330	46
331	6
332	2
333	0
335	0
337	0
339	0
349	0
351	0
352	0
354	0
360	0
361	0
362	1
363	0
364	0
366	0
367	0
368	0
373	0
378	0
379	2
380	0
381	0
382	0
387	0
388	0
389	0
390	1
391	5
392	7
393	5
406	1
420	15
421	572
422	115
423	40
