Mass Spectrum: Pyridine, 2-butyl-, 1-oxide
Formula: C9H13NO
CAS: 31396-32-4
Molecular weight: 151
m/z	intensity
32	40
38	30
39	200
40	20
41	70
43	20
50	50
51	150
52	110
53	70
54	20
62	20
63	50
64	30
65	180
66	70
67	20
74	10
75	10
76	10
77	60
78	240
79	180
80	40
89	20
90	20
91	30
92	540
93	740
94	70
103	10
104	80
105	120
106	350
107	50
108	20
109	999
110	70
117	100
118	150
119	50
120	80
121	20
122	600
123	80
130	30
131	20
132	50
133	20
134	110
135	50
136	120
137	20
146	10
148	20
150	50
151	210
152	50
