Mass Spectrum: 1H-Imidazole-4,5-dicarboxylic acid 4-[(2-benzoyl-4-chloro-phenyl)-amide] 5-phenylamide
Formula: C24H17ClN4O3
CAS: 313976-83-9
Molecular weight: 444
m/z	intensity
50	32
51	141
52	12
61	3
62	18
63	66
64	48
65	124
66	82
67	166
68	90
69	12
70	8
76	10
77	561
78	43
79	6
80	6
81	4
89	8
90	9
91	109
92	54
93	999
94	166
95	161
96	10
97	4
98	2
103	24
104	25
105	483
106	54
107	4
108	4
118	4
119	27
120	76
121	71
122	5
123	7
124	31
125	12
126	26
127	27
128	3
140	3
141	14
142	43
143	91
144	16
145	4
151	11
152	43
153	3
154	43
155	16
156	50
157	8
158	2
165	1
166	28
167	30
168	22
169	43
170	18
171	4
172	2
173	1
179	4
180	59
181	6
182	5
183	31
184	17
185	6
186	10
194	1
195	5
196	126
197	5
198	1
212	37
213	47
214	144
215	43
216	28
217	3
228	12
229	51
230	382
231	484
232	170
233	120
234	16
235	2
244	5
245	6
246	198
247	11
248	58
249	12
250	2
281	50
282	7
283	1
284	2
296	23
297	1
321	2
322	35
323	4
324	3
325	8
327	2
332	1
333	4
334	48
335	2
336	9
339	421
340	61
341	153
342	10
343	2
351	2
352	41
353	2
354	15
355	2
442	16
443	61
444	500
445	210
446	189
447	46
448	10
