Mass Spectrum: N-Furfuryl-p-toluidine
Formula: C12H13NO
CAS: 3139-27-3
Molecular weight: 187
m/z	intensity
26	1
27	26
28	4
29	1
30	1
37	1
38	5
39	27
40	3
41	9
42	2
43	2
50	9
51	30
52	21
53	140
54	9
55	5
58	2
62	4
63	14
64	6
65	41
66	4
67	2
68	5
69	1
71	1
74	2
75	3
76	4
77	58
78	24
79	31
80	5
81	999
82	63
83	4
86	1
87	1
89	12
90	9
91	71
92	12
93	5
94	2
95	8
96	3
102	2
103	3
104	8
105	21
106	61
107	25
108	2
115	9
116	5
117	7
118	20
119	5
120	88
121	8
127	3
128	6
129	4
130	9
131	6
132	5
133	2
140	1
141	4
142	8
143	17
144	29
145	4
146	1
154	3
155	1
156	8
157	7
158	33
159	46
160	6
167	1
168	2
170	17
171	3
172	4
184	5
185	9
186	346
187	554
188	72
189	5
