Mass Spectrum: N-Acetyl-N-3,4-dichlorophenyl-.beta.-alanine
Formula: C11H11Cl2NO3
CAS: 31399-37-8
Molecular weight: 275
m/z	intensity
41	6
42	49
43	999
45	87
47	2
49	5
50	11
51	11
52	6
53	2
55	30
60	4
61	8
62	18
63	33
64	7
65	3
72	6
73	38
74	22
75	33
76	6
77	6
78	2
84	5
85	6
86	3
87	4
88	9
89	11
90	12
91	4
97	11
98	5
99	12
100	3
101	3
102	8
104	8
107	3
109	37
110	8
111	22
112	5
113	4
114	13
116	4
117	11
118	4
123	4
124	14
125	11
126	7
127	7
129	1
133	9
135	7
137	1
138	12
139	12
140	5
141	5
145	45
146	7
147	25
148	5
149	5
151	16
152	7
153	10
154	2
159	5
160	1
161	22
163	15
165	2
172	48
173	49
174	391
175	58
176	266
177	23
178	42
179	3
186	6
187	8
188	11
189	5
190	6
203	2
215	21
216	8
217	14
218	5
219	1
230	1
232	5
233	277
234	12
235	184
236	12
237	32
238	2
240	2
258	11
260	8
275	50
276	30
277	36
278	20
279	5
280	2
