Mass Spectrum: Terephthalamide-N,N'-di-tetrahydrofurfuryl
Formula: C18H24N2O4
CAS: 313960-92-8
Molecular weight: 332
m/z	intensity
41	210
42	62
43	668
44	23
50	17
51	12
52	1
53	12
54	6
55	22
56	35
57	3
58	11
65	12
66	5
67	6
69	7
71	999
72	31
73	1
75	12
76	86
77	26
78	3
79	5
81	4
82	6
83	4
84	216
85	47
86	2
89	1
90	1
91	10
92	2
98	7
100	8
102	46
103	34
104	174
105	75
106	10
116	1
117	4
118	7
120	7
121	9
128	1
130	3
132	33
133	33
134	20
135	7
145	6
146	1
148	28
149	3
160	12
161	4
162	32
163	7
165	1
175	5
177	12
179	1
187	3
190	1
191	4
202	1
203	17
204	1
205	370
206	46
207	6
229	3
231	18
232	82
233	220
234	31
235	3
247	7
248	11
249	121
250	17
251	2
261	35
262	99
263	14
266	4
289	6
330	3
331	15
332	42
333	8
