Mass Spectrum: 4'-Chloro-3-morpholinopropionanilide
Formula: C13H17ClN2O2
CAS: 313962-89-9
Molecular weight: 268
m/z	intensity
33	12
39	13
40	34
42	248
43	32
44	28
45	12
47	0
48	0
50	4
51	4
52	3
54	36
55	106
56	173
57	90
58	18
59	2
60	0
61	1
62	5
63	14
64	9
65	5
66	0
67	2
68	8
69	19
70	56
71	22
72	17
73	8
74	4
75	13
76	4
77	4
78	1
79	1
80	1
82	9
84	73
86	178
87	29
88	10
89	3
90	9
91	9
92	6
93	2
94	0
95	1
96	8
98	99
100	999
101	40
102	11
104	4
105	4
106	0
110	3
111	14
112	15
113	19
114	41
115	5
116	0
117	1
118	1
119	6
120	1
123	0
124	3
125	12
126	29
127	98
128	16
129	31
130	2
132	1
133	2
134	0
138	10
139	7
140	21
141	4
142	12
143	0
144	0
146	1
147	0
152	0
153	8
154	4
155	3
156	1
164	0
165	0
166	1
167	0
168	1
169	2
170	0
171	0
179	0
181	20
182	11
183	9
184	3
185	0
190	0
202	0
209	2
210	1
211	2
212	0
213	0
221	0
223	2
225	182
226	23
227	53
228	6
229	0
235	6
237	66
238	9
239	21
240	3
241	0
249	1
250	32
251	5
252	10
253	6
254	1
255	1
266	1
268	73
269	12
270	20
271	2
