Mass Spectrum: Ethanone, 1-[1-(4-amino-1,2,5-oxadiazol-3-yl)-5-methyl-1H-1,2,3-triazol-4-yl]-
Formula: C7H8N6O2
CAS: 313952-93-1
Molecular weight: 208
m/z	intensity
33	0
34	1
36	1
37	13
38	30
39	85
40	33
41	28
43	999
44	21
45	2
49	0
50	9
51	21
52	42
53	152
54	112
55	52
56	28
58	9
59	1
61	0
62	2
63	6
64	12
66	129
67	130
69	32
70	2
72	3
75	1
76	1
77	4
78	11
79	9
80	29
81	180
82	19
83	16
84	19
85	19
86	0
89	0
91	9
92	2
93	5
94	3
95	10
96	9
97	3
98	28
99	1
103	0
105	4
106	5
107	25
108	218
109	44
110	21
111	1
112	0
118	0
119	0
120	0
121	1
123	36
125	19
126	1
132	10
133	3
134	3
135	2
136	0
137	1
138	9
139	0
143	0
144	0
145	0
146	0
148	0
149	1
150	18
151	2
160	0
163	0
165	6
166	0
171	0
172	0
173	0
180	0
183	1
188	0
193	8
194	0
208	115
209	12
210	0
215	0
