Mass Spectrum: Pyrazine, methyl-, 1-oxide
Formula: C5H6N2O
CAS: 31396-35-7
Molecular weight: 110
m/z	intensity
37	100
38	167
39	510
40	194
41	100
42	369
46	26
51	60
52	201
53	100
66	587
67	134
82	47
93	416
94	87
110	999
111	87
