Mass Spectrum: Pyrimidine-2,4,6-trione, hexahydro-5-[3-(2-phenoxyethoxy)benzylidene]-
Formula: C19H16N2O5
CAS: 314041-26-4
Molecular weight: 352
m/z	intensity
36	1
37	4
38	30
39	219
40	36
41	59
42	240
43	178
44	53
45	101
46	41
47	1
49	0
50	38
51	154
52	44
53	32
54	9
55	28
56	9
57	11
58	1
59	0
60	26
61	23
62	46
63	169
64	65
65	646
66	93
67	15
68	12
69	41
70	57
71	6
72	0
73	9
74	21
75	41
76	48
77	999
78	100
79	66
80	14
81	10
82	4
83	7
84	2
85	24
86	6
87	17
88	34
89	226
90	43
91	178
92	43
93	175
94	148
95	30
96	3
97	3
98	8
99	3
100	8
101	46
102	31
103	72
104	58
105	36
106	8
107	148
108	20
109	5
110	1
111	1
112	1
113	2
114	12
115	92
116	110
117	31
118	34
119	33
120	116
121	285
122	39
123	5
124	1
125	0
126	8
127	16
128	81
129	13
130	9
131	144
132	61
133	37
134	9
135	4
136	2
137	4
138	106
139	10
140	2
141	15
142	5
143	9
144	29
145	83
146	18
147	7
148	3
149	7
150	1
151	2
152	3
153	5
154	2
155	2
156	3
157	3
159	54
160	17
161	14
162	2
163	1
164	0
165	11
166	2
167	1
168	0
169	1
170	9
171	19
172	347
173	79
174	12
175	1
176	1
177	0
178	1
180	0
181	2
184	0
185	1
186	3
187	7
188	23
189	5
190	2
196	3
197	1
198	11
199	19
200	2
201	2
202	2
203	1
204	2
205	0
214	8
215	714
216	92
217	12
218	2
219	0
224	0
228	0
229	1
230	4
231	16
232	43
233	6
234	1
241	0
242	1
243	0
244	0
245	9
246	1
252	0
256	0
258	20
259	20
260	2
305	1
350	0
351	0
352	185
353	33
354	5
355	0
