Mass Spectrum: Morpholine-4-dithiocarboxylic acid, [2-(3,5-dibromo-2-hydroxyphenyl)-2-oxoethyl] ester
Formula: C13H13Br2NO3S2
CAS: 314034-59-8
Molecular weight: 453
m/z	intensity
33	2
34	4
36	1
37	7
38	9
39	18
40	75
41	28
42	40
43	50
44	28
45	58
46	12
47	5
48	2
49	2
50	18
51	26
52	6
53	19
54	16
55	28
56	92
57	21
58	67
59	37
60	72
61	22
62	46
63	47
64	8
65	7
66	4
67	3
68	9
69	13
70	14
71	6
72	28
73	15
74	17
75	21
76	28
77	64
78	10
79	9
80	2
81	6
82	6
83	3
84	12
85	56
86	400
87	25
88	21
89	3
90	10
91	22
92	5
93	4
94	2
95	3
96	3
97	2
98	1
99	0
100	3
101	0
102	2
103	3
104	3
105	14
106	4
107	7
108	19
109	7
110	4
111	2
112	2
114	17
115	2
116	3
117	6
118	4
119	7
120	2
121	2
122	2
123	3
124	2
125	1
126	0
128	19
130	999
131	75
132	55
133	8
134	3
135	3
136	33
137	6
138	3
139	1
140	3
141	25
142	8
143	27
144	7
145	2
146	1
147	1
149	3
150	1
151	1
152	9
153	4
154	7
155	9
156	18
157	8
158	19
159	2
160	1
161	23
162	84
163	12
164	9
165	3
166	1
167	3
168	1
169	6
170	21
171	11
172	21
173	6
174	4
175	2
176	3
177	0
179	0
181	1
183	4
184	4
185	6
186	3
187	0
188	0
194	0
195	1
196	1
197	4
198	2
199	4
200	1
201	2
204	1
211	1
212	11
213	2
214	11
215	4
216	7
217	3
218	7
219	1
220	1
221	11
222	3
223	24
224	2
225	10
226	1
228	0
234	0
235	2
236	1
237	2
244	4
245	1
246	4
247	1
248	1
249	1
250	4
251	3
252	2
253	1
254	0
260	0
261	1
262	0
263	6
264	0
265	8
266	0
267	4
276	2
277	34
278	5
279	66
280	5
281	32
282	2
283	1
290	2
291	1
292	14
293	2
294	24
295	3
296	11
297	1
326	0
327	0
420	44
421	7
422	88
423	14
424	47
425	6
426	3
453	17
454	2
455	33
456	6
457	19
458	2
459	2
