Mass Spectrum: 3-(4-Methoxyphenyl)-5-methyl-4H-1,3,4-triazole
Formula: C10H11N3O
CAS: 31409-49-1
Molecular weight: 189
m/z	intensity
26	157
27	261
28	100
29	75
30	21
38	57
39	147
40	107
41	224
42	143
44	202
50	197
51	269
52	53
53	17
55	53
56	999
57	48
62	75
63	195
64	130
65	99
66	12
74	19
75	89
76	202
77	170
78	170
79	35
89	53
90	256
91	152
92	35
102	44
103	175
104	71
105	292
106	30
107	12
117	26
118	84
119	125
120	66
121	89
133	107
134	57
135	3
146	17
148	62
149	3
158	3
159	3
160	3
174	39
175	3
189	287
190	35
191	3
