Mass Spectrum: ONN-Azoxybenzene, 4-butyl-4'-methoxy-
Formula: C17H20N2O2
CAS: 31401-35-1
Molecular weight: 284
m/z	intensity
27	52
28	19
29	54
36	97
38	18
39	63
41	144
42	22
43	190
44	37
50	14
51	53
52	19
53	23
55	125
56	36
57	261
63	43
64	85
65	65
67	37
68	14
69	81
70	51
71	167
73	3
76	18
77	469
78	117
79	92
80	31
81	28
83	76
84	23
85	117
89	39
90	34
91	205
92	189
93	40
94	4
95	24
96	10
97	45
98	13
99	34
103	14
104	28
105	32
106	51
107	999
108	85
109	9
111	29
113	28
116	5
118	8
121	174
122	123
123	18
125	11
133	70
134	20
135	326
136	23
137	108
138	8
141	13
145	1
149	37
154	5
165	11
167	14
185	23
186	6
200	6
213	32
241	44
255	3
256	12
266	37
268	29
270	2
284	203
285	26
