Mass Spectrum: 1-Benzamido-N-benzyl-1-[.alpha.-(2-pyridylthio)benzylidene]acetamide
Formula: C28H23N3O2S
CAS: 314027-83-3
Molecular weight: 465
m/z	intensity
37	78
38	106
39	282
40	42
41	57
44	46
45	79
49	44
50	243
51	540
52	122
53	34
57	81
58	50
59	25
62	33
63	87
64	34
65	141
67	397
68	24
69	49
70	25
74	30
75	46
76	93
77	999
78	269
79	138
81	27
82	33
83	55
84	28
89	119
90	51
91	443
92	37
103	24
104	114
105	978
106	577
107	64
110	82
111	351
115	24
116	36
117	40
121	39
