Mass Spectrum: Acetic acid 2-acetoxy-1,2-bis-phenylcarbamoyl-ethyl ester
Formula: C20H20N2O6
CAS: 314034-78-1
Molecular weight: 384
m/z	intensity
50	3
51	25
52	6
55	16
56	10
57	24
58	4
60	28
61	52
63	6
64	6
65	34
66	19
67	5
69	13
70	4
71	42
72	2
73	7
74	2
77	86
78	9
79	7
82	3
83	7
84	3
85	8
89	4
90	3
91	21
92	36
93	999
94	135
95	10
96	2
97	4
102	5
103	10
104	8
105	26
106	8
107	4
108	1
112	1
113	8
117	6
118	2
119	28
120	85
121	9
122	3
128	1
129	7
131	1
132	3
133	3
134	12
135	22
136	1
138	1
144	21
145	7
146	3
147	1
149	4
150	6
151	13
152	1
161	2
162	50
163	17
164	35
165	4
178	2
179	7
180	129
181	29
182	1
188	1
189	14
190	40
191	8
192	2
193	1
205	3
206	4
208	17
221	2
222	68
223	15
224	1
232	7
250	31
251	4
264	11
265	2
291	1
292	48
293	6
384	56
385	12
386	1
