Mass Spectrum: 4-Nitrobenzoylmethyl-.beta.-phenylpropionate
Formula: C17H15NO5
CAS: 314027-52-6
Molecular weight: 313
m/z	intensity
41	7
42	8
43	5
44	1
45	0
47	1
48	0
49	7
50	36
51	40
52	10
53	6
55	6
62	3
63	17
64	12
65	47
66	3
74	6
75	18
76	58
77	75
78	37
79	53
80	3
84	3
86	2
87	0
88	0
89	21
91	409
92	53
93	2
101	0
102	5
103	11
104	999
105	336
106	31
107	27
108	3
118	1
119	0
120	24
121	3
122	1
128	1
131	11
132	6
133	77
134	28
135	7
136	0
149	16
150	98
151	28
152	3
153	0
163	0
165	32
166	2
167	2
178	0
179	0
267	0
282	9
283	3
295	0
313	3
314	0
