Mass Spectrum: Pyrrolidine-2,5-dione, 1-(2-phenylethyl)-3-(4-thiomorpholyl)-
Formula: C16H20N2O2S
CAS: 314038-47-6
Molecular weight: 304
m/z	intensity
33	4
34	5
35	6
36	1
37	1
39	35
40	19
41	78
42	163
43	32
44	27
45	55
46	81
47	13
48	5
49	1
50	6
51	20
52	8
54	155
55	408
56	201
57	77
58	36
59	40
60	32
61	30
62	4
63	11
65	49
66	4
67	10
68	34
69	28
70	31
71	26
72	6
74	105
75	35
76	9
77	39
78	24
79	21
80	4
82	73
83	27
84	42
85	11
86	38
87	15
88	21
89	10
91	137
92	9
93	1
94	3
96	30
97	6
99	130
100	27
102	999
103	129
104	454
105	108
106	7
107	1
108	2
110	22
112	127
114	111
115	12
116	15
117	7
118	4
119	6
120	3
121	1
122	2
123	1
124	1
125	3
126	5
127	9
128	45
129	31
130	9
131	3
132	4
133	0
134	1
135	0
136	0
137	0
138	1
139	5
140	3
141	1
142	3
143	12
144	7
145	2
146	3
147	0
148	1
149	0
151	0
152	1
153	2
154	4
155	7
156	45
157	36
158	5
159	2
160	2
161	1
163	0
167	2
168	0
171	5
172	3
173	2
174	7
175	0
176	0
182	0
183	1
185	36
186	3
187	1
189	4
190	0
192	0
199	5
200	2
201	19
202	13
203	99
204	12
205	1
211	0
212	0
213	0
214	0
215	0
216	0
217	1
218	0
219	0
220	0
226	0
227	0
229	9
231	177
232	23
233	2
242	0
243	10
244	13
245	41
246	6
247	1
248	0
254	1
256	3
257	98
258	15
259	1
270	0
271	2
272	0
275	1
276	1
277	0
287	0
289	15
290	2
291	0
299	0
300	1
304	268
305	45
306	14
307	2
