Mass Spectrum: 1,3-bis(Morpholin-4-ylmethyl)thiourea
Formula: C11H22N4O2S
CAS: 31411-59-3
Molecular weight: 274
m/z	intensity
28	16
29	27
30	14
33	6
34	1
38	3
39	15
40	59
41	141
42	287
43	122
44	141
45	60
46	8
47	4
48	3
51	2
52	6
53	9
54	55
55	60
56	480
57	226
58	61
59	30
60	108
61	11
62	4
64	2
65	2
67	2
68	12
69	24
70	131
71	50
72	121
73	15
74	18
75	8
76	34
77	8
78	3
82	2
83	28
84	30
85	29
86	205
87	94
88	85
89	10
90	4
91	3
97	10
98	47
99	55
100	999
101	141
102	56
103	14
104	3
111	7
112	2
113	32
114	50
115	88
116	8
117	1
118	2
124	2
125	3
126	30
127	7
128	2
129	4
130	4
131	4
132	123
133	6
134	5
140	3
144	5
154	24
155	1
157	33
158	2
159	2
173	2
174	22
175	106
176	11
177	4
186	2
187	370
188	40
189	19
274	31
275	5
