Mass Spectrum: 1H-Imidazole, 1-(2-propenyl)-
Formula: C6H8N2
CAS: 31410-01-2
Molecular weight: 108
m/z	intensity
39	420
40	200
41	999
53	140
54	220
68	140
80	140
81	170
107	430
108	529
