Mass Spectrum: Cyclohexane, 2,4-cyclopentadien-1-ylidene-
Formula: C11H14
CAS: 3141-04-6
Molecular weight: 146
m/z	intensity
38	18
39	111
40	11
41	29
50	22
51	44
52	22
63	29
64	14
65	63
66	14
67	29
68	14
76	14
77	92
78	248
79	111
80	18
89	29
90	22
91	200
92	177
93	18
102	22
103	63
104	129
105	185
106	22
115	999
116	22
117	296
118	140
119	25
120	44
127	14
128	22
129	22
130	14
131	148
132	22
145	44
146	355
147	48
