Mass Spectrum: 1,3-Cyclopentadiene, 5-(1-methylpropylidene)-
Formula: C9H12
CAS: 3141-02-4
Molecular weight: 120
m/z	intensity
38	40
39	224
40	40
41	81
50	40
51	173
52	20
53	40
55	71
62	30
63	81
64	20
65	173
66	71
76	30
77	224
78	102
79	224
80	40
89	61
90	40
91	551
92	102
93	30
102	40
103	122
104	51
105	999
106	71
117	40
118	51
119	102
120	612
121	51
