Mass Spectrum: Indole, 2,3-dihydro-1-(4-aminophenylsulfonyl)-
Formula: C14H14N2O2S
CAS: 314284-67-8
Molecular weight: 274
m/z	intensity
39	210
41	82
42	14
43	7
44	4
45	22
47	4
48	7
50	49
51	74
52	59
53	19
54	13
55	1
56	1
59	48
63	168
65	629
66	52
69	6
70	2
71	1
72	0
74	8
75	9
76	9
77	17
78	12
79	8
80	17
81	2
82	1
83	0
84	1
85	3
86	2
87	4
89	102
91	668
92	250
93	52
95	1
96	1
97	1
98	0
99	0
100	0
101	0
102	1
103	1
104	2
105	1
106	3
108	151
112	2
113	0
114	1
118	999
119	329
122	1
123	3
124	3
125	1
126	0
127	0
128	0
129	0
130	0
131	0
132	0
133	0
134	0
135	0
140	40
141	3
142	2
143	0
144	0
150	0
151	0
152	1
153	1
156	245
157	30
158	11
159	1
160	0
163	0
165	3
166	1
167	2
168	1
169	0
170	0
177	0
178	0
180	3
181	2
182	5
183	1
184	0
190	0
191	3
192	2
193	3
194	1
195	1
196	0
198	1
199	0
205	0
206	0
207	2
208	5
209	23
210	10
211	1
212	0
255	0
269	0
274	445
275	61
276	22
277	2
278	0
