Mass Spectrum: 2-(2-Nitro-benzenesulfonylamino)-N-phenyl-benzamide
Formula: C19H15N3O5S
CAS: 314279-42-0
Molecular weight: 397
m/z	intensity
34	0
36	0
37	3
38	16
39	95
40	21
41	16
42	5
43	5
44	7
45	5
46	1
48	1
50	38
51	65
52	36
53	19
54	4
55	3
56	1
57	2
58	0
60	0
61	1
62	9
63	67
64	99
65	218
66	40
67	5
68	2
69	4
70	4
71	2
72	0
73	1
74	7
75	12
76	36
77	72
78	35
79	9
80	8
81	3
82	1
83	3
84	2
85	0
86	0
87	0
88	1
89	6
90	38
91	72
92	350
93	999
94	76
95	5
96	4
97	3
98	6
99	1
100	0
101	1
102	3
103	3
104	9
105	12
106	25
107	5
108	4
109	6
110	4
111	1
112	1
113	2
114	3
115	10
116	3
117	10
118	29
119	220
120	402
121	40
122	5
123	2
124	1
125	1
126	2
127	6
128	8
129	5
130	4
131	1
132	1
133	2
134	9
135	2
136	1
137	2
138	5
139	28
140	21
141	6
142	1
143	1
144	0
146	4
147	1
148	1
149	1
150	2
151	4
152	12
153	6
154	13
155	5
156	3
157	2
158	0
159	0
160	0
163	1
164	4
165	6
166	53
167	62
168	24
169	10
170	10
171	4
172	3
173	1
174	0
177	1
178	2
179	12
180	86
181	36
182	52
183	23
184	6
185	3
186	24
187	2
188	1
189	0
190	0
191	1
192	4
193	6
194	16
195	62
196	16
197	10
198	6
199	4
200	5
201	0
202	0
203	1
204	0
205	0
206	0
207	1
208	2
209	7
210	22
211	25
212	129
213	19
214	1
217	0
221	0
223	7
224	6
225	4
226	1
227	1
228	6
229	1
230	0
231	1
232	0
240	0
241	2
242	0
244	2
245	0
254	0
255	0
256	0
257	1
258	3
259	2
260	0
269	0
270	0
271	0
272	0
273	0
274	0
275	0
282	0
283	0
285	0
286	2
287	6
288	1
289	0
300	1
301	3
305	181
306	23
307	8
308	1
318	1
319	0
320	1
367	3
368	0
384	0
397	222
398	43
399	15
400	2
