Mass Spectrum: Phenol, 4-bromo-2-(1,3-diphenyl-2-imidazolidinyl)-
Formula: C21H19BrN2O
CAS: 314282-57-0
Molecular weight: 394
m/z	intensity
33	1
34	1
36	1
37	1
38	6
39	27
40	13
41	9
42	16
43	2
44	9
45	0
50	18
51	100
52	13
53	10
54	2
55	2
57	0
62	5
63	26
64	17
65	52
66	9
67	2
69	0
70	0
71	0
74	3
75	13
76	33
77	464
78	65
79	25
80	6
81	1
82	4
83	1
84	0
86	0
87	1
88	2
89	11
90	21
91	208
92	46
93	88
94	10
95	1
97	0
98	0
99	0
100	0
101	1
102	5
104	317
105	106
106	164
107	41
108	3
110	0
111	1
112	0
113	1
114	1
115	7
116	8
117	32
118	190
119	999
120	138
121	9
122	1
125	0
126	1
127	3
128	3
129	2
130	8
131	3
132	5
133	6
134	2
136	0
137	0
139	8
140	5
141	5
143	6
144	1
145	3
146	1
147	5
149	28
150	1
151	3
152	10
153	6
154	5
155	5
156	4
158	35
159	0
163	0
164	2
165	8
166	10
167	21
168	9
169	3
170	1
171	2
172	1
173	0
174	1
176	0
177	1
178	3
179	3
180	26
181	20
182	18
183	5
184	3
185	9
186	5
187	7
188	4
189	0
191	3
192	4
193	17
194	8
195	9
196	15
197	15
198	18
199	5
200	7
201	1
202	2
204	0
205	0
206	0
207	2
208	12
209	49
210	85
211	16
212	10
213	2
214	2
215	0
218	0
219	0
220	2
221	12
223	559
224	85
225	7
226	0
228	0
230	0
231	0
235	0
237	0
238	1
245	1
246	0
247	0
248	0
255	0
256	0
257	0
258	2
259	6
260	3
261	5
262	1
263	0
269	0
270	0
271	1
272	10
273	11
274	45
275	85
276	153
277	88
278	118
279	15
280	1
284	0
285	2
286	7
288	119
289	45
290	112
291	41
292	6
293	0
297	0
299	0
300	2
301	1
302	9
303	2
304	7
305	1
307	0
313	3
314	4
315	2
317	11
318	2
319	9
320	1
355	0
366	0
367	0
368	0
377	0
379	0
392	1
393	12
394	72
395	27
396	78
397	16
398	2
