Mass Spectrum: Hydrazinecarboximidothioic acid, ethyl ester
Formula: C3H9N3S
CAS: 31424-47-2
Molecular weight: 119
m/z	intensity
25	8
26	81
27	481
28	312
29	603
30	74
31	332
32	443
33	24
34	18
35	54
36	4
39	23
40	4
41	71
42	103
43	305
44	999
45	90
46	37
47	52
48	13
49	5
53	4
54	5
55	38
56	27
57	125
58	922
59	87
60	537
61	88
62	59
63	12
64	26
66	5
67	2
68	5
69	14
70	16
71	6
72	5
73	8
74	62
75	16
76	41
77	3
84	6
85	7
86	38
87	13
88	27
90	6
91	607
92	19
93	26
94	4
98	10
99	4
100	24
101	13
102	26
103	9
104	6
119	359
120	24
121	16
122	6
