Mass Spectrum: 5-Methoxypyrimidine
Formula: C5H6N2O
CAS: 31458-33-0
Molecular weight: 110
m/z	intensity
37	2
38	12
39	35
40	130
41	14
42	24
43	1
44	1
50	3
51	35
52	66
53	12
54	6
55	5
56	413
57	14
66	14
67	11
68	211
69	7
77	3
79	13
80	6
81	2
82	4
83	92
84	4
94	10
95	2
96	2
109	7
110	999
111	73
112	4
