Mass Spectrum: Phthalamic acid, N-(.alpha.-methylbenzyl)-
Formula: C16H15NO3
CAS: 31458-29-4
Molecular weight: 269
m/z	intensity
25	3
26	14
27	51
29	1
30	7
31	1
36	2
37	49
38	77
39	70
41	8
42	167
43	67
44	160
45	3
46	1
48	3
49	27
50	257
51	121
52	51
53	65
54	3
60	4
61	13
62	13
63	26
64	10
65	46
66	9
67	0
68	0
69	1
72	1
73	25
74	80
75	67
76	368
77	238
78	70
79	278
80	21
86	1
87	0
88	1
89	10
90	5
91	16
92	11
93	30
94	3
95	0
101	1
102	25
103	58
104	514
105	153
106	999
107	82
108	3
111	0
116	2
117	4
118	8
119	4
120	333
121	54
122	13
123	1
128	1
129	2
130	70
131	8
132	12
133	15
134	1
145	2
146	7
147	4
148	175
149	95
150	11
151	3
152	6
153	3
160	10
161	1
164	1
165	2
173	2
174	6
178	2
179	1
180	3
181	10
182	2
194	4
195	1
204	2
205	1
206	1
207	1
208	27
209	4
210	3
222	19
223	7
224	1
225	4
226	1
232	19
233	34
234	5
236	102
237	18
238	1
250	3
251	107
252	25
253	3
254	2
269	35
270	6
271	1
