Mass Spectrum: 1-Methyl-2-phenylcyclopropane
Formula: C10H12
CAS: 3145-76-4
Molecular weight: 132
m/z	intensity
24	0
28	0
29	2
33	0
34	0
37	2
38	14
39	95
40	8
41	17
42	0
43	0
46	1
49	1
50	37
51	108
52	24
53	33
54	31
55	7
56	1
57	26
58	9
59	0
60	0
61	4
62	14
63	69
64	39
65	98
66	5
67	1
69	0
71	0
72	0
73	2
74	15
75	13
76	17
77	88
78	90
79	16
80	1
85	1
86	4
87	7
88	2
89	44
90	11
91	309
92	27
93	1
97	0
98	1
99	1
100	0
101	5
102	22
103	49
104	52
105	20
106	1
107	1
108	0
110	0
111	0
112	1
113	11
114	9
115	265
116	85
117	999
118	96
119	4
125	1
126	2
127	12
128	22
129	25
130	4
131	113
132	455
133	47
