Mass Spectrum: Hydrazinecarboxylic acid, 2-ethyl-, methyl ester
Formula: C4H10N2O2
CAS: 31457-73-5
Molecular weight: 118
m/z	intensity
15	486
28	432
29	432
30	126
31	972
33	162
43	70
44	999
45	120
58	48
59	783
71	576
76	198
85	60
103	234
118	120
119	6
