Mass Spectrum: Tazettine, 6a-deoxy-
Formula: C18H21NO4
CAS: 31460-81-8
Molecular weight: 315
m/z	intensity
42	616
43	100
44	561
45	371
46	8
47	20
48	9
49	100
50	28
51	107
52	22
53	48
54	27
55	68
56	28
57	68
58	31
59	10
60	3
61	2
62	14
63	61
64	25
65	55
66	15
67	24
68	18
70	999
71	33
72	20
73	1
74	22
75	34
76	53
77	107
78	33
79	22
80	9
81	19
82	37
84	93
85	16
86	46
87	13
88	18
89	45
90	17
91	53
92	21
93	10
94	36
95	11
96	11
97	11
98	16
99	10
100	23
101	25
102	43
103	52
104	15
105	18
106	18
107	13
108	13
109	4
110	5
111	5
112	10
113	28
114	29
115	196
116	39
117	29
118	12
119	8
120	16
121	17
122	6
123	2
124	21
125	5
126	34
127	66
128	82
129	38
130	22
131	35
132	27
133	7
134	13
135	33
136	6
137	2
138	5
139	52
140	24
141	70
142	26
143	33
144	24
145	8
146	4
147	11
148	10
149	10
150	11
151	22
152	84
153	70
154	24
155	37
156	16
157	17
158	7
159	60
160	26
161	19
162	5
163	14
164	4
165	15
166	8
167	14
168	21
169	37
170	11
171	29
172	27
173	48
174	14
175	12
176	7
177	2
178	2
179	3
180	8
181	52
182	14
183	30
184	11
185	122
186	27
187	81
188	24
189	86
190	15
191	2
192	1
193	7
194	4
195	7
196	7
197	84
198	23
199	31
200	17
201	32
202	42
203	11
204	5
205	2
206	1
208	1
209	14
210	9
211	47
212	18
213	46
214	22
215	16
216	42
217	78
218	10
219	1
221	1
222	3
223	17
224	9
225	16
226	16
227	29
228	15
229	17
230	102
231	710
232	134
233	6
234	2
235	1
237	1
238	14
239	19
240	16
241	11
242	16
243	14
244	11
245	50
246	7
247	2
251	1
252	4
253	5
254	6
255	4
256	5
257	16
258	11
259	1
264	2
266	2
268	1
269	1
270	3
271	5
272	4
282	3
283	1
284	23
285	5
286	1
298	1
300	359
301	72
302	10
303	1
314	9
315	312
316	73
317	10
318	1
