Mass Spectrum: 3-Oxatricyclo[3.2.1.0(2,4)]octane, (1.alpha.,2.beta.,4.beta.,5.alpha.)-
Formula: C7H10O
CAS: 3146-39-2
Molecular weight: 110
m/z	intensity
26	14
27	106
29	46
31	10
33	9
36	0
37	10
38	22
39	245
40	38
41	214
42	18
43	23
44	2
45	3
49	2
50	34
51	62
52	30
53	210
54	305
55	129
56	18
57	6
58	8
59	0
61	1
62	2
63	12
64	1
65	60
66	332
67	347
68	86
69	74
70	12
71	3
72	0
73	10
74	4
75	1
76	0
77	151
78	132
79	811
80	114
81	999
82	289
83	29
84	5
85	0
89	2
91	199
92	206
93	28
94	25
95	267
96	15
97	6
98	1
105	2
107	4
108	2
109	99
110	181
111	25
112	1
