Mass Spectrum: Phosphoramidothioic acid, methyl-, O,O-dimethyl ester
Formula: C3H10NO2PS
CAS: 31464-99-0
Molecular weight: 155
m/z	intensity
14	1
15	38
16	0
18	2
27	1
28	32
29	18
30	522
31	31
32	32
33	7
34	1
35	2
36	0
41	0
42	6
43	3
44	25
45	24
46	33
47	165
48	9
49	19
50	2
51	0
57	0
58	1
59	11
60	199
61	15
62	99
63	199
64	31
65	13
66	1
73	0
74	2
75	1
76	39
77	29
78	60
79	99
80	14
81	3
82	1
88	0
90	4
91	1
92	286
93	999
94	39
95	18
96	5
97	2
106	4
107	0
108	19
109	7
110	7
111	14
112	1
113	0
122	56
123	5
124	134
125	164
126	138
127	13
136	2
138	1
140	2
154	3
155	972
156	50
157	46
158	2
