Mass Spectrum: Bicyclo[2.2.2]oct-2-ene, 1,4,5,5,6,6-hexafluoro-
Formula: C8H6F6
CAS: 31463-41-9
Molecular weight: 216
m/z	intensity
69	80
95	80
96	80
97	80
115	380
116	999
117	80
119	160
121	60
188	60
216	120
