Mass Spectrum: 3,7-Diazabicyclo[3.3.1]nonane, 1,5-dibenzoyl-3,7-dimethyl-
Formula: C23H26N2O2
CAS: 314727-53-2
Molecular weight: 362
m/z	intensity
33	4
34	0
37	0
39	17
40	21
41	35
42	186
43	40
44	190
45	8
46	0
49	0
50	11
51	46
52	6
53	14
54	5
55	12
57	175
58	999
59	33
60	2
62	0
63	2
65	14
66	6
67	12
68	13
69	3
70	9
71	1
72	1
73	1
74	2
77	409
78	31
79	10
80	5
81	7
82	22
83	4
84	11
85	2
86	1
87	0
88	0
89	3
91	46
92	9
93	11
94	24
95	4
96	11
97	2
98	2
99	1
101	0
102	3
103	9
105	596
106	50
107	29
108	89
109	11
110	7
111	14
112	3
113	1
114	1
115	20
116	5
117	8
118	3
119	2
120	6
121	11
122	22
123	4
124	2
125	9
126	1
127	4
128	12
129	8
130	2
131	6
132	2
133	2
134	2
135	2
136	9
137	4
138	0
139	1
141	6
142	3
143	5
144	10
145	11
146	2
147	1
148	0
149	0
150	1
151	5
152	3
153	2
154	1
155	4
156	1
157	6
158	8
159	6
160	4
161	0
162	0
163	0
164	0
165	1
166	1
167	1
168	2
169	5
170	8
171	28
172	10
173	9
174	89
175	11
176	5
177	1
178	0
179	0
180	1
181	4
182	4
183	5
184	4
185	4
186	13
187	15
188	34
189	5
190	0
191	0
193	0
194	1
195	2
196	7
197	4
198	16
199	9
200	56
201	9
202	1
203	6
204	0
205	0
208	0
209	1
211	31
212	149
213	60
214	187
215	43
216	22
217	46
218	7
219	0
224	0
225	1
226	8
227	2
228	2
229	1
231	0
234	0
239	0
240	0
241	1
242	1
243	2
244	0
248	0
254	1
255	3
257	95
258	16
259	1
260	0
272	1
273	4
274	2
275	4
276	21
277	4
278	0
286	0
287	0
288	1
289	0
290	0
291	0
298	0
299	1
300	6
302	43
303	151
304	311
305	143
306	31
307	4
313	0
314	0
317	2
318	4
319	1
320	0
331	0
332	1
345	0
347	0
357	0
358	1
359	2
361	88
362	160
363	35
364	4
365	0
