Mass Spectrum: N-(2,6-Dimethyl-phenyl)-2-(4-methyl-piperazin-1-yl)-acetamide
Formula: C15H23N3O
CAS: 314769-17-0
Molecular weight: 261
m/z	intensity
39	39
40	25
41	75
42	431
43	217
44	93
45	5
50	6
51	14
52	16
53	17
54	34
55	40
56	159
57	55
58	55
63	10
64	3
65	35
66	8
68	9
70	794
71	122
72	18
76	9
77	81
79	69
80	11
81	2
82	29
83	32
84	22
85	17
86	1
89	8
91	127
92	32
93	16
95	5
96	2
97	34
98	92
99	100
103	31
104	21
105	55
106	21
108	1
112	49
113	999
114	146
115	4
116	2
117	17
118	50
119	46
120	115
121	32
122	4
131	5
132	27
133	9
134	48
141	21
144	5
146	10
147	23
148	14
160	4
162	4
171	1
172	3
188	1
191	42
200	2
204	49
205	46
217	8
218	30
219	25
229	2
261	150
262	19
