Mass Spectrum: Thiosemicarbazide, 1-benzoyl-4-(4-fluorophenyl)-
Formula: C14H12FN3OS
CAS: 314766-82-0
Molecular weight: 289
m/z	intensity
33	6
34	3
35	2
36	3
37	16
38	24
39	39
40	25
41	10
42	5
43	13
44	37
45	18
46	4
47	5
48	1
49	9
50	102
51	205
52	27
53	7
54	1
55	7
56	12
57	56
58	11
59	7
60	16
61	12
62	18
63	33
64	17
65	11
66	3
67	2
68	16
69	36
70	26
71	6
72	2
73	9
74	45
75	150
76	46
77	557
78	43
79	9
80	3
81	18
82	25
83	84
84	22
85	4
86	1
87	2
88	3
89	8
90	6
91	15
92	8
93	9
94	26
95	246
96	50
97	4
98	2
99	2
100	2
101	0
102	3
103	10
105	999
106	75
107	11
108	17
109	38
110	36
111	208
112	14
113	1
114	2
115	2
117	8
118	12
119	11
120	4
121	36
122	19
123	4
124	2
126	25
127	39
128	6
129	2
132	0
133	13
134	5
135	16
136	198
137	22
138	2
139	0
140	0
141	2
142	1
144	0
145	11
146	1
147	1
148	0
149	1
150	1
151	4
152	4
153	355
154	102
155	22
156	5
157	0
161	0
162	1
164	0
165	0
167	6
168	4
169	1
170	1
171	1
178	7
179	16
180	2
184	1
185	1
198	5
199	1
213	0
218	0
255	9
256	16
257	1
271	0
289	69
290	11
291	3
293	0
