Mass Spectrum: Pyrazole-4,5(5H)-dione, 3-(4-methyl-3-furazanyl)-, dioxime
Formula: C6H6N6O3
CAS: 314728-60-4
Molecular weight: 210
m/z	intensity
33	143
34	5
35	1
36	35
38	257
39	134
40	126
41	178
42	230
43	252
44	98
45	38
48	16
50	84
51	157
53	999
54	319
55	80
58	694
59	78
60	31
61	19
62	56
63	65
64	92
65	100
66	73
67	114
68	134
69	148
70	69
71	144
73	25
75	46
77	348
78	79
79	73
80	43
81	32
82	26
83	26
84	21
85	13
86	5
87	10
88	15
89	38
90	30
91	32
93	252
94	91
95	42
96	52
97	11
101	9
102	11
103	19
104	44
105	52
106	34
107	32
108	38
109	32
110	39
111	17
112	5
116	3
117	2
119	19
120	21
121	23
122	34
123	62
124	9
126	1
129	1
130	5
132	110
133	24
134	39
135	61
136	34
137	29
138	15
139	11
145	15
146	3
147	1
148	11
149	30
150	39
151	17
153	104
154	2
159	3
162	471
164	8
167	14
176	7
177	2
179	3
180	15
192	202
193	144
194	57
195	5
207	1
208	16
210	373
211	23
