Mass Spectrum: 2,2,2-Trichloro-1-(4-ethoxyphenyl)ethyl n-butylcarbamate
Formula: C15H20Cl3NO3
CAS: 314753-88-3
Molecular weight: 367
m/z	intensity
35	36
36	35
37	24
39	409
41	999
42	146
43	392
44	48
45	14
47	10
49	13
50	55
51	102
52	21
53	38
55	127
56	188
57	273
58	19
61	19
62	63
63	153
64	38
65	119
66	34
67	14
68	7
70	9
73	41
74	71
75	53
76	29
77	151
78	40
79	14
81	6
82	18
83	10
84	15
85	14
86	15
87	24
89	178
90	26
91	20
92	14
93	47
94	51
95	95
96	10
97	20
98	12
99	43
100	37
101	19
105	37
106	15
107	13
109	14
111	9
112	11
113	6
115	9
117	98
118	85
119	79
121	212
122	47
123	181
124	31
125	43
126	9
127	7
128	9
133	12
134	11
135	20
136	18
141	78
143	26
149	18
151	649
152	95
153	59
154	16
155	15
159	29
161	18
169	16
171	7
175	11
177	8
179	9
187	30
188	77
189	24
190	46
191	6
192	7
197	7
204	6
216	11
218	8
223	8
225	13
232	57
233	8
234	33
251	9
253	9
