Mass Spectrum: Verrucarin A
Formula: C27H34O9
CAS: 3148-09-2
Molecular weight: 502
m/z	intensity
39	82
41	423
44	505
52	223
53	152
55	276
56	58
57	123
65	70
67	170
69	141
77	147
79	335
80	429
81	494
82	76
83	100
85	964
86	88
91	352
92	194
93	235
94	88
95	288
96	152
97	370
105	999
106	264
107	247
108	523
109	335
110	435
111	88
117	94
119	164
120	70
121	264
122	294
123	176
124	70
125	294
126	205
129	88
131	200
132	70
133	117
135	82
143	111
145	152
147	123
149	70
156	70
157	117
158	70
159	182
160	70
161	111
163	70
169	64
171	100
173	152
174	82
175	158
183	64
184	70
185	82
186	88
187	129
189	76
195	76
197	82
199	105
200	82
201	100
202	100
203	105
204	76
212	111
215	70
217	217
219	70
229	70
230	164
231	88
247	270
248	176
249	76
502	100
503	47
504	29
