Mass Spectrum: .beta.-D-Glucopyranoside, methyl 2,3,4,6-tetra-O-methyl-
Formula: C11H22O6
CAS: 3149-65-3
Molecular weight: 250
m/z	intensity
26	3
27	36
28	7
29	63
30	4
31	36
33	24
38	0
39	19
40	5
41	70
42	13
43	29
44	6
45	310
46	6
47	20
48	0
50	0
51	1
52	0
53	14
54	4
55	18
56	9
57	17
58	7
59	39
60	1
61	5
63	0
64	0
65	1
66	0
67	2
68	6
69	12
70	3
71	134
72	18
73	150
74	31
75	470
76	15
77	2
79	0
81	6
82	2
83	8
84	3
85	24
86	2
87	7
88	999
89	87
90	6
91	0
95	4
96	1
97	5
98	9
99	9
100	1
101	408
102	37
103	5
104	0
105	0
111	6
112	1
113	4
114	5
115	5
116	1
117	8
118	0
119	2
125	0
127	15
128	1
129	3
130	0
131	12
132	1
133	0
141	0
143	4
144	1
145	9
146	0
149	64
150	4
151	0
155	1
157	1
158	0
159	3
173	2
175	0
176	15
177	1
185	0
187	1
205	0
