Mass Spectrum: .alpha.-D-Glucopyranoside, phenyl 2,3,4,6-tetra-O-methyl-
Formula: C16H24O6
CAS: 3149-61-9
Molecular weight: 312
m/z	intensity
45	650
55	90
57	120
59	140
69	70
70	10
71	480
73	190
74	50
75	410
77	50
81	70
83	80
85	120
88	120
89	260
94	50
95	180
99	170
101	840
102	60
111	999
112	80
113	60
115	60
116	60
127	240
129	60
131	60
143	50
145	70
155	240
187	930
188	120
218	210
219	100
