Mass Spectrum: 1,3,6,7-Tetramethyl-8-phenylimidazo[1,2-g]purine-2,4-dione
Formula: C17H17N5O2
CAS: 31493-88-6
Molecular weight: 323
m/z	intensity
37	16
38	53
39	211
40	94
41	158
42	352
43	44
44	21
45	2
50	215
51	482
52	288
53	320
54	88
55	67
56	184
57	40
58	65
59	7
61	7
62	15
63	49
64	54
65	108
66	93
67	287
68	55
69	27
70	41
71	5
72	2
73	5
74	76
75	96
77	999
78	183
79	126
80	195
81	136
82	194
83	21
84	5
85	3
87	4
88	12
89	47
90	46
91	113
92	57
93	107
94	75
95	21
96	6
97	6
99	10
100	2
101	14
102	47
103	148
104	111
105	36
106	25
107	30
108	14
109	16
110	6
111	12
112	4
113	2
114	12
115	75
116	45
117	100
118	510
119	97
120	99
121	20
122	9
123	5
125	2
126	4
127	24
128	71
129	118
130	76
131	32
132	20
133	50
134	32
135	21
136	6
140	38
141	16
142	41
143	88
144	96
145	37
146	18
147	9
148	8
149	14
150	1
151	4
152	7
153	5
154	18
155	84
156	47
157	15
158	76
159	17
160	5
161	201
167	14
168	27
169	88
170	42
171	68
172	13
173	5
174	4
175	2
179	6
180	15
181	31
182	60
183	50
184	39
185	20
186	41
187	16
188	5
189	35
190	2
194	12
195	13
196	108
197	39
198	22
199	4
202	3
206	1
207	2
208	11
209	10
210	76
211	95
212	24
213	3
216	5
217	1
220	3
221	8
222	26
223	78
224	19
225	9
226	2
235	7
236	23
237	388
238	258
239	77
240	12
246	38
247	4
249	2
250	3
251	7
252	3
253	2
263	1
264	6
265	95
266	265
267	49
268	4
278	2
280	1
281	1
294	50
295	11
308	8
321	3
322	50
323	691
324	142
325	7
