Mass Spectrum: .alpha.-D-Mannopyranoside, methyl 2,3,4,6-tetra-O-methyl-
Formula: C11H22O6
CAS: 3149-62-0
Molecular weight: 250
m/z	intensity
41	105
42	55
43	112
44	33
45	697
46	21
47	31
49	1
50	0
51	3
52	1
53	20
54	10
55	54
56	23
57	65
58	42
59	114
60	40
61	51
62	1
63	1
65	1
66	1
67	3
68	12
69	37
70	12
71	257
72	43
73	227
74	257
75	557
76	22
77	5
81	10
82	3
83	14
84	12
85	80
86	10
87	168
88	999
89	79
90	24
91	3
93	1
95	7
96	2
97	10
98	13
99	31
101	580
102	69
103	19
104	4
105	4
109	1
111	24
112	6
113	15
114	10
115	20
116	8
117	22
118	4
119	8
125	2
126	1
127	23
128	4
129	11
130	9
131	19
132	3
133	5
134	0
135	4
139	0
141	6
142	1
143	9
144	7
145	39
146	5
147	5
149	90
150	5
151	1
155	10
156	1
157	3
158	4
159	13
160	4
161	17
162	2
163	2
165	0
169	0
171	1
172	2
173	21
174	3
175	3
176	22
177	6
179	0
185	1
187	40
188	5
189	3
190	1
191	8
192	0
201	1
203	2
204	2
205	17
206	1
207	0
209	0
217	1
219	43
220	5
221	2
223	2
231	0
233	1
234	0
235	2
236	0
250	1
251	0
