Mass Spectrum: 2,4,6-Trifluoronitrobenzene
Formula: C6H2F3NO2
CAS: 315-14-0
Molecular weight: 177
m/z	intensity
16	2
25	0
26	0
28	6
30	999
31	181
32	6
36	6
37	47
38	14
44	12
45	2
46	64
48	2
49	8
50	27
51	46
55	11
56	33
57	53
58	1
60	7
61	107
62	117
63	11
64	4
67	3
68	80
69	98
70	3
72	1
73	8
74	43
75	163
76	17
79	29
80	10
81	106
82	6
83	0
86	33
87	34
88	7
91	5
92	34
93	50
94	16
95	15
98	6
99	86
100	25
101	0
105	5
106	2
110	6
111	22
112	38
113	3
117	3
118	9
119	476
120	23
126	2
130	51
131	394
132	25
144	1
145	7
147	694
148	41
149	2
161	90
162	5
177	873
178	56
179	5
