Mass Spectrum: .alpha.-D-Glucopyranosiduronic acid, methyl 2-O-methyl-, methyl ester
Formula: C9H16O7
CAS: 31506-20-4
Molecular weight: 236
m/z	intensity
45	151
55	22
57	37
59	162
60	27
61	62
69	14
71	205
73	63
74	999
75	112
85	78
87	940
88	103
89	53
90	62
101	17
102	10
103	118
104	9
111	5
113	6
115	9
117	19
127	30
129	4
132	114
145	33
147	4
155	1
158	3
159	1
173	1
177	11
187	24
204	1
205	3
