Mass Spectrum: (4Balpha,5alpha,9alpha,9aalpha)-4b,9,9a,10-tetrahydro-5,9-ethenobenz(a)azulen-8(5H)-one
Formula: C16H14O
CAS: 31502-98-4
Molecular weight: 222
m/z	intensity
26	1
27	6
28	9
32	1
38	1
39	20
40	2
41	2
43	1
50	8
51	19
52	8
53	5
55	11
57	4
58	2
62	5
63	22
64	5
65	14
66	4
69	7
70	3
71	1
74	4
75	8
76	18
77	31
78	14
79	16
81	7
82	25
83	22
84	2
86	2
87	4
88	9
89	57
90	5
91	11
92	1
93	2
94	12
95	10
96	18
97	5
98	1
101	4
102	7
103	5
104	2
105	2
106	9
107	573
108	43
109	3
110	6
111	12
113	5
114	6
115	243
116	999
117	100
118	5
126	5
127	16
128	126
129	96
130	9
131	7
138	1
139	12
140	3
141	25
142	17
143	3
144	1
150	3
151	9
152	45
153	21
154	5
155	1
156	2
157	1
162	1
163	8
164	8
165	86
166	36
167	59
168	9
176	7
177	7
178	74
179	68
180	11
181	5
187	2
188	1
189	16
190	9
191	16
192	6
193	18
194	9
195	3
201	1
202	8
203	26
204	18
205	20
206	4
207	10
208	2
220	1
221	32
222	462
223	80
224	7
