Mass Spectrum: Methyl(methyl-4-deoxy-2,3-di-O-methyl.beta.l-threo-hex-4-enopyranosid)uronate
Formula: C10H16O6
CAS: 31506-21-5
Molecular weight: 232
m/z	intensity
45	111
55	13
57	4
59	29
71	6
73	163
75	123
85	96
88	999
89	34
98	13
101	12
111	14
114	6
127	4
131	2
141	14
169	16
201	3
232	1
