Mass Spectrum: .alpha.-D-Glucopyranosiduronic acid, methyl 3-O-methyl-, methyl ester
Formula: C9H16O7
CAS: 31506-19-1
Molecular weight: 236
m/z	intensity
45	230
47	16
55	49
57	83
59	210
60	59
61	79
69	35
71	329
74	874
75	999
76	58
85	118
87	146
101	63
103	131
112	47
113	47
115	34
116	18
117	30
127	24
129	16
132	67
144	41
145	59
147	22
164	31
172	54
173	39
177	13
187	3
204	6
205	4
