Mass Spectrum: Bicyclo[2.2.2]oct-5-ene-2,3-dicarboxylic acid, dimethyl ester
Formula: C12H16O4
CAS: 31517-37-0
Molecular weight: 224
m/z	intensity
26	5
27	37
28	10
29	13
30	2
31	4
38	4
39	64
40	9
41	41
42	5
43	8
44	1
45	15
50	15
51	58
52	42
53	39
54	8
55	54
56	3
57	4
58	2
59	199
60	6
61	2
62	2
63	12
64	4
65	38
66	14
67	26
68	8
69	5
71	8
74	16
75	6
76	6
77	199
78	166
79	290
80	999
81	93
82	6
83	3
84	4
85	24
86	8
87	54
88	4
89	7
90	3
91	119
92	21
93	123
94	13
95	4
96	3
97	3
98	3
99	7
100	2
101	2
102	4
103	32
104	80
105	203
106	29
107	10
108	3
109	9
110	3
111	10
112	3
113	234
114	256
115	29
116	5
117	6
118	9
119	5
120	4
121	14
122	3
123	3
126	3
131	20
132	78
133	190
134	22
135	6
136	13
137	58
138	6
139	2
145	128
146	292
147	25
148	4
149	9
150	6
151	7
158	2
159	2
160	30
161	5
163	9
164	68
165	249
166	30
167	4
177	5
191	10
192	105
193	241
194	32
195	4
196	7
223	2
224	90
225	15
226	3
