Mass Spectrum: 7-Chloro-4-[3-benzylmethylamino]-1-methylpropylamino]quinoline
Formula: C21H24ClN3
CAS: 31510-42-6
Molecular weight: 353
m/z	intensity
41	14
42	125
44	164
45	3
47	2
49	14
50	1
51	18
52	5
53	4
54	1
55	21
56	11
57	21
58	64
59	2
61	0
62	2
63	13
65	71
66	2
67	2
68	3
70	30
71	3
73	2
74	5
75	7
76	2
77	10
78	5
79	1
82	3
84	28
85	1
86	9
87	2
88	3
89	17
91	999
92	54
93	1
98	20
99	19
100	6
101	4
102	3
103	0
104	5
105	3
106	2
109	1
111	4
113	2
114	6
115	7
116	5
117	6
118	12
120	132
121	18
122	10
123	6
124	1
125	4
126	8
127	7
128	11
129	3
130	1
132	45
134	443
135	47
136	6
137	6
138	2
139	1
140	2
141	2
142	5
143	7
144	2
146	34
148	87
149	4
150	25
151	3
152	8
153	3
155	21
156	6
160	30
162	24
163	19
164	13
165	5
166	2
169	49
170	27
171	4
174	26
175	22
176	12
178	20
179	6
180	16
181	7
182	4
183	2
184	0
188	0
190	42
191	54
192	9
193	18
194	2
197	2
200	3
201	1
203	26
205	314
206	134
207	102
208	50
209	2
215	5
217	78
219	86
221	23
222	1
231	19
232	18
233	26
234	13
235	9
236	3
246	0
250	0
261	0
262	19
263	3
264	4
338	11
339	1
340	3
352	1
353	115
354	28
355	37
356	12
357	3
