Mass Spectrum: 7-Chloro-4-[1-methyl-4-[N-methyl-N-benzylamino]butylamino]quinoline
Formula: C22H26ClN3
CAS: 31510-56-2
Molecular weight: 367
m/z	intensity
41	67
42	136
43	25
44	84
45	0
50	1
51	11
52	6
53	6
54	0
55	16
56	15
57	28
58	8
63	10
64	2
65	83
66	0
67	10
68	7
69	12
70	13
71	1
72	5
73	0
74	4
75	7
77	11
78	2
79	5
81	0
82	5
83	0
84	23
85	0
87	0
88	0
89	13
91	999
92	67
93	2
96	1
97	1
98	133
99	17
100	6
101	2
102	3
104	3
105	3
106	0
111	2
112	9
114	2
115	7
116	4
117	4
118	11
120	96
121	51
122	2
123	6
126	7
127	10
128	9
129	2
132	19
134	683
135	79
136	1
137	9
138	1
140	2
142	2
143	3
144	0
146	26
147	19
148	11
150	10
151	1
152	2
155	16
156	8
160	10
161	14
162	15
163	7
164	15
165	1
166	6
168	11
169	29
170	20
174	5
177	5
178	14
179	33
180	5
181	11
188	7
189	6
190	17
191	9
192	5
194	1
195	0
196	0
203	10
205	50
206	14
207	16
208	4
217	10
218	2
219	36
220	2
221	12
231	7
233	8
245	20
246	4
247	21
248	26
249	8
250	7
276	167
277	17
278	56
279	9
352	14
353	1
354	4
367	63
368	15
369	20
370	5
