Mass Spectrum: 7-Chloro-4-[3-[1-indanylamino]-1-methylpropylamino]quinoline
Formula: C22H24ClN3
CAS: 31510-48-2
Molecular weight: 365
m/z	intensity
41	41
42	63
43	40
44	83
45	18
47	8
49	54
50	28
51	70
52	24
53	15
54	11
55	38
56	44
57	10
58	20
59	4
60	7
61	5
62	16
63	43
64	4
65	36
66	6
68	11
69	6
70	27
71	26
72	6
73	12
74	18
75	26
76	29
77	59
78	37
79	10
82	4
83	2
84	45
86	29
87	12
88	13
89	59
90	19
91	129
92	11
96	4
97	2
98	6
99	36
100	8
101	18
102	23
103	57
104	64
105	17
107	3
111	11
113	9
114	5
115	295
116	134
117	999
118	72
119	7
123	19
124	10
125	5
126	15
127	20
128	28
129	13
130	56
131	30
132	343
133	38
135	34
136	3
137	14
138	12
140	7
141	2
142	22
143	41
144	50
145	211
146	13
147	70
148	12
150	35
151	27
152	16
153	15
154	4
155	27
156	12
158	39
159	26
160	14
162	35
163	37
164	21
165	15
166	5
167	3
168	13
169	70
170	57
171	11
172	13
177	11
178	213
179	105
180	81
181	44
182	29
183	5
184	8
185	6
187	373
188	40
190	37
191	35
192	14
193	13
194	9
195	3
196	6
197	4
200	2
201	2
202	5
203	34
205	597
206	250
207	198
208	87
214	4
215	5
217	55
219	261
220	20
221	85
222	8
231	45
232	5
233	98
234	88
235	20
236	33
241	11
246	12
247	6
248	24
249	3
250	13
263	13
264	11
265	2
266	3
277	3
363	2
364	13
365	48
366	12
367	16
368	4
