Mass Spectrum: 2-Nitrodiphenylsulfone
Formula: C12H9NO4S
CAS: 31515-43-2
Molecular weight: 263
m/z	intensity
28	296
29	62
30	91
31	15
32	12
33	15
34	19
36	15
38	37
39	190
40	25
41	95
42	41
43	126
44	126
45	107
46	15
48	19
50	176
51	591
52	95
53	56
54	25
55	97
56	37
57	122
60	69
61	19
62	19
63	88
64	85
65	291
66	41
67	34
68	28
69	82
70	41
71	50
73	63
74	44
75	72
76	150
77	999
78	423
79	44
80	37
81	46
82	24
83	44
84	28
85	24
90	12
91	37
92	60
93	212
94	44
95	37
96	47
97	100
98	31
99	15
105	15
106	34
107	19
108	31
109	60
110	22
111	24
112	12
115	82
116	19
117	19
122	12
123	15
124	19
125	145
126	44
127	50
128	25
129	28
139	41
140	31
141	138
142	25
143	53
144	12
150	31
151	87
152	214
153	69
154	87
155	46
156	12
166	31
167	44
168	125
169	76
170	566
171	87
172	37
180	15
181	37
182	264
183	50
184	12
233	95
234	15
246	12
262	41
263	94
264	10
