Mass Spectrum: Methanone, (2,3-dihydro-1-indolyl)(2-methylphenyl)-
Formula: C16H15NO
CAS: 315248-40-9
Molecular weight: 237
m/z	intensity
34	0
37	1
39	60
40	11
41	15
42	1
43	1
44	1
45	1
50	9
51	25
52	6
53	2
54	0
55	0
56	0
57	0
58	0
59	0
61	1
62	9
63	35
65	163
66	7
67	0
70	0
73	0
74	2
75	3
76	4
77	9
78	3
79	0
82	0
83	0
85	0
86	2
87	1
89	54
90	43
91	399
92	28
93	0
94	0
96	0
98	0
101	0
102	1
103	1
104	0
105	1
106	0
108	0
111	0
114	0
115	1
116	3
117	25
119	999
120	81
121	5
122	0
126	0
127	0
128	1
129	0
130	0
139	0
143	0
145	0
146	0
149	0
150	0
151	0
152	0
153	0
164	0
165	1
166	0
167	0
176	0
178	0
179	0
180	0
190	0
191	0
192	0
193	0
194	0
204	0
205	0
206	0
207	0
208	0
217	0
218	0
219	0
220	0
221	0
234	1
235	2
237	153
238	28
239	2
