Mass Spectrum: Thiophene-2-carboxylic acid (5-bromo-thiophen-2-ylmethylene)-hydrazide
Formula: C10H7BrN2OS2
CAS: 315206-42-9
Molecular weight: 314
m/z	intensity
37	4
38	7
39	49
40	3
41	1
42	0
43	1
44	2
45	28
46	0
47	1
49	1
50	7
51	9
52	2
53	3
54	1
55	1
57	23
58	5
59	1
60	0
61	1
62	2
63	3
64	3
65	1
66	0
67	0
69	23
70	8
71	3
72	0
73	1
74	1
75	1
76	1
77	3
78	1
79	1
80	2
81	14
82	26
83	57
84	7
85	3
86	0
87	0
88	0
89	0
90	0
91	2
92	2
93	12
95	104
96	15
97	13
98	2
99	1
100	1
101	0
102	0
103	0
104	1
105	2
106	2
107	2
108	3
109	8
111	999
112	59
113	47
114	2
115	1
116	1
117	7
118	1
119	7
120	1
121	1
123	6
124	60
125	8
127	436
128	26
129	20
130	4
131	1
132	1
133	3
134	2
135	1
136	2
137	1
138	2
139	2
140	0
141	2
142	0
143	0
145	4
146	1
147	2
149	7
150	1
151	3
152	1
153	0
154	0
155	1
156	0
157	0
158	0
159	1
160	0
161	2
162	0
163	1
164	0
165	0
166	0
167	0
171	2
172	0
173	12
174	6
175	8
176	7
177	4
178	3
179	0
180	0
181	0
185	0
187	5
188	3
189	8
190	4
191	3
192	2
193	0
194	0
202	0
203	2
204	0
205	2
206	0
207	0
220	0
225	0
235	1
236	0
238	0
239	0
255	0
257	1
258	0
259	1
272	0
282	0
283	0
287	0
314	41
315	7
316	40
317	5
318	3
319	0
