Mass Spectrum: (4-Ethoxy-benzylidene)-[4-(morpholine-4-sulfonyl)-phenyl]-amine
Formula: C19H22N2O4S
CAS: 315248-90-9
Molecular weight: 374
m/z	intensity
33	8
34	1
35	0
36	1
37	1
38	6
39	36
40	28
41	28
42	40
43	16
44	21
45	6
46	0
48	5
50	48
51	57
52	12
53	6
54	24
56	750
57	39
58	6
59	4
60	2
61	1
62	6
63	34
64	19
65	49
66	8
67	1
68	1
69	6
70	6
71	3
72	4
74	8
75	22
76	108
77	60
78	16
79	6
80	1
81	1
82	2
84	17
86	999
87	48
88	6
89	11
90	9
91	11
92	7
93	11
94	6
95	3
96	2
97	2
98	12
100	1
101	2
102	7
103	10
104	6
105	8
106	2
107	3
108	3
109	1
110	0
111	1
112	3
113	4
114	7
115	31
116	6
117	3
118	2
119	9
120	4
121	5
122	1
123	1
124	2
125	1
126	3
127	6
128	6
129	3
130	8
131	3
132	3
133	1
134	0
135	1
136	0
137	1
139	29
140	22
141	32
142	5
143	2
144	5
145	1
146	0
147	0
148	0
149	2
150	7
151	36
152	16
153	9
154	5
155	4
156	4
157	3
158	1
162	0
164	2
165	6
166	28
167	51
168	28
169	21
170	4
171	1
172	0
176	2
177	8
178	13
179	5
180	3
181	1
182	1
183	3
184	0
185	0
187	0
192	0
194	14
195	28
196	46
197	9
198	1
199	0
208	0
209	2
210	5
211	3
212	25
213	3
214	0
220	0
222	10
224	122
225	63
226	13
227	2
228	0
235	0
236	2
238	27
239	37
240	78
241	13
242	3
243	2
244	4
245	0
251	0
252	2
253	1
254	0
256	0
259	0
260	0
270	0
272	6
273	0
274	0
279	0
280	0
283	0
285	1
286	2
288	29
289	7
290	1
291	0
309	0
310	1
316	0
374	126
375	20
376	6
377	1
