Mass Spectrum: Benzoic acid, 2-(2,3-dihydro-1-indolylcarbonyl)-
Formula: C16H13NO3
CAS: 315248-39-6
Molecular weight: 267
m/z	intensity
36	3
37	8
38	20
39	120
40	15
41	15
42	3
43	6
44	6
45	9
50	84
51	72
52	16
53	15
54	1
55	2
56	1
57	3
59	9
60	2
61	3
62	12
63	44
65	312
66	13
67	2
68	0
69	1
70	1
71	1
72	0
73	5
74	23
75	26
76	80
77	55
78	10
79	2
80	0
81	0
82	1
83	2
84	1
85	0
86	1
87	2
89	65
90	51
91	126
92	18
93	111
94	7
95	2
97	0
98	1
99	0
100	0
101	1
102	4
104	51
105	25
106	2
107	0
109	0
110	0
111	0
112	0
113	0
114	1
115	3
116	9
117	88
118	555
119	999
120	85
121	59
122	4
123	0
125	0
126	0
127	2
128	3
129	0
130	0
131	0
133	1
134	0
137	0
139	1
140	1
141	0
143	2
144	0
145	0
149	449
150	35
151	5
152	2
154	0
163	1
164	1
165	4
166	1
167	2
168	0
171	1
176	0
177	0
178	1
190	1
191	3
192	2
193	1
194	0
195	0
196	1
203	0
204	2
205	0
217	0
219	1
220	4
221	3
222	5
223	1
232	0
242	0
250	0
264	0
265	0
267	110
268	19
269	2
