Mass Spectrum: 1-Oxaspiro[4.5]decan-4-carboxanilide-2-oxo-
Formula: C16H19NO3
CAS: 31537-06-1
Molecular weight: 273
m/z	intensity
33	28
34	14
35	1
36	4
37	6
38	22
39	153
40	26
41	216
42	74
43	77
44	96
45	13
46	3
47	1
48	2
49	1
50	20
51	67
52	28
53	52
54	46
55	690
56	44
57	24
58	5
59	5
60	6
61	3
62	6
63	25
64	29
65	110
66	49
67	59
68	13
69	33
70	19
71	15
72	3
73	6
74	5
75	6
76	10
77	146
78	27
79	56
80	15
81	46
82	19
83	23
84	6
85	3
86	1
87	2
88	1
89	4
90	8
91	58
92	110
93	999
94	139
95	24
96	6
97	12
98	17
99	24
100	4
101	2
103	7
104	8
105	16
106	14
107	23
108	27
109	15
110	8
111	16
112	8
113	3
114	2
115	3
116	2
117	9
118	18
119	54
120	46
121	11
122	8
123	7
124	5
125	5
126	1
127	2
128	11
129	3
130	8
131	3
132	5
133	4
134	11
135	39
136	48
137	12
138	5
139	2
141	5
142	1
143	2
144	3
146	77
147	62
148	172
149	24
150	3
151	3
152	14
153	30
154	13
155	2
156	2
157	2
158	1
159	1
160	1
161	1
162	4
163	2
164	1
165	2
166	0
167	1
168	1
169	1
170	1
171	2
172	3
173	5
174	24
175	167
176	33
177	4
178	1
179	1
180	6
181	3
182	1
183	0
184	1
185	1
186	1
187	1
188	2
189	1
190	0
191	0
192	0
193	1
194	0
196	0
197	0
198	1
199	1
200	1
201	1
202	1
203	0
204	0
205	0
206	0
207	0
208	0
209	0
210	1
211	2
212	4
214	96
215	16
217	11
218	1
221	0
222	0
224	0
226	4
227	4
228	2
230	11
231	1
232	0
234	0
235	0
236	0
238	0
239	0
240	0
242	0
243	0
244	2
245	6
246	1
249	0
250	0
252	1
253	2
255	33
256	5
257	0
262	0
268	0
269	1
270	3
271	4
273	127
274	22
275	2
276	0
