Mass Spectrum: Benzene, 1-((dichloromethyl)sulfonyl)-4-methyl-
Formula: C8H8Cl2O2S
CAS: 31540-75-7
Molecular weight: 238
m/z	intensity
41	57
42	4
43	6
44	14
45	26
46	3
47	29
48	37
49	39
50	66
51	93
52	24
53	13
54	1
55	3
56	1
57	3
58	2
59	1
60	2
61	10
62	41
63	125
64	47
65	404
66	23
67	14
68	1
69	9
70	3
71	5
72	0
73	4
74	11
75	11
76	8
77	47
78	18
79	8
80	2
81	2
82	6
83	70
84	20
85	49
86	17
87	14
88	5
89	108
90	51
91	999
92	118
93	6
94	1
95	3
96	1
97	1
98	1
99	1
101	1
102	3
103	11
104	7
105	2
106	1
107	17
108	8
109	2
110	1
111	5
112	1
113	0
115	0
117	1
119	1
121	5
122	3
123	2
124	0
125	1
126	11
127	1
128	3
129	0
135	1
137	1
138	2
139	88
140	8
141	6
142	0
149	0
154	4
155	768
156	87
157	54
158	4
159	0
172	4
173	0
174	12
175	1
176	4
177	0
184	16
185	2
186	1
200	8
201	1
202	0
204	0
223	0
236	0
238	54
239	6
240	36
241	3
242	7
243	0
