Mass Spectrum: Diphenyl oxalate
Formula: C14H10O4
CAS: 3155-16-6
Molecular weight: 242
m/z	intensity
26	11
27	29
28	29
29	1
30	0
31	1
36	0
37	13
38	55
39	326
40	13
41	3
42	1
43	2
44	4
45	0
46	0
47	0
48	0
49	3
50	50
51	210
52	11
53	5
54	1
55	14
56	1
57	3
58	0
60	0
61	6
62	16
63	52
64	28
65	279
66	24
67	0
68	8
69	0
70	0
71	5
72	0
73	2
74	10
75	7
76	15
77	999
78	57
79	2
81	0
83	0
84	0
85	0
86	0
87	0
89	1
90	0
91	2
92	4
93	39
94	70
95	5
96	0
99	0
101	0
102	2
103	1
104	0
105	2
107	0
111	1
113	0
114	1
115	33
116	9
119	4
120	3
121	29
122	2
123	0
124	0
125	0
126	0
127	1
128	3
129	5
130	1
131	1
132	0
135	1
136	1
137	0
138	0
139	4
140	14
141	276
142	243
143	28
144	3
145	0
151	0
152	1
153	3
154	0
155	3
156	0
157	1
158	0
165	0
166	0
167	0
168	13
169	146
170	244
171	30
172	3
175	0
176	0
185	0
189	3
190	2
191	0
194	0
202	0
204	1
205	0
206	0
207	0
209	0
211	0
212	0
214	336
215	42
216	5
217	0
242	147
243	21
244	3
