Mass Spectrum: 3-Hydroxy-3-phenylbutan-2-one
Formula: C10H12O2
CAS: 3155-01-9
Molecular weight: 164
m/z	intensity
31	1
38	3
39	19
40	1
41	5
42	4
43	999
44	18
45	2
50	21
51	65
52	14
53	6
59	8
60	1
62	3
63	10
64	2
65	10
66	1
74	8
75	8
76	10
77	110
78	34
79	8
89	3
91	13
92	1
102	5
103	14
104	5
105	43
106	7
107	1
115	1
117	1
118	1
119	2
120	4
121	392
122	33
123	2
131	1
146	1
