Mass Spectrum: 6-Hydroxymethyl-1-methyl-2-methylthiouracil
Formula: C7H10N2O2S
CAS: 31555-15-4
Molecular weight: 186
m/z	intensity
42	318
43	65
44	14
45	233
46	102
47	109
48	34
49	18
51	26
52	106
53	130
54	144
55	259
56	96
57	37
58	27
59	14
60	1
61	20
63	5
64	5
65	12
66	28
67	38
68	45
69	55
70	55
71	30
72	51
73	26
74	22
75	5
76	1
77	4
78	3
79	12
80	33
82	999
83	177
84	45
85	5
86	52
88	18
89	2
91	5
93	15
95	23
96	6
97	50
98	13
99	18
100	9
101	1
102	2
107	6
108	15
109	9
110	1
111	31
112	35
113	49
114	12
115	9
116	3
117	0
121	0
123	35
124	3
125	100
126	1
127	24
129	10
130	3
134	1
135	2
137	1
138	0
139	150
140	10
141	107
142	17
143	19
144	1
145	1
149	5
152	1
153	22
154	1
155	33
156	14
157	17
158	7
159	1
168	1
169	28
170	83
171	66
172	4
173	1
185	2
186	261
187	75
188	16
189	3
