Mass Spectrum: 4-Benzoyl-3-methoxyisocoumarin
Formula: C17H12O4
CAS: 3155-99-5
Molecular weight: 280
m/z	intensity
15	3
27	1
28	11
29	1
38	1
39	5
41	1
43	1
44	1
50	7
51	30
52	2
53	1
55	1
57	2
59	2
61	1
62	9
63	8
64	1
65	2
69	3
70	1
71	2
74	4
75	6
76	21
77	398
78	26
79	1
81	3
82	5
83	2
85	1
86	3
87	5
88	19
89	9
90	1
91	3
92	1
95	1
96	4
97	1
98	1
99	1
101	2
102	1
103	1
104	24
105	999
106	76
107	4
110	2
111	1
112	1
113	1
115	4
116	1
118	1
119	3
124	1
125	3
126	3
127	1
132	2
135	2
137	2
138	1
139	6
140	17
144	7
145	1
147	8
149	4
150	3
151	4
152	9
153	6
160	1
162	2
163	17
164	15
165	30
166	4
175	5
176	4
177	1
178	1
180	2
181	2
192	2
193	13
194	16
195	3
203	8
204	1
205	5
206	1
208	2
209	90
210	13
211	1
220	3
221	12
222	4
223	3
224	1
236	1
237	152
238	25
239	3
247	1
248	5
249	66
250	11
251	2
252	308
253	54
254	6
264	1
265	2
279	7
280	715
281	135
282	17
283	2
