Mass Spectrum: 3Beta-acetoxy-6-nitroandrost-5-en-17-one
Formula: C21H29NO5
CAS: 31559-86-1
Molecular weight: 375
m/z	intensity
13	2
14	10
15	42
16	4
17	23
18	11
25	1
26	2
27	60
28	49
29	109
30	24
31	7
38	1
39	90
40	19
41	413
42	59
43	999
44	44
45	90
46	3
47	1
50	4
51	31
52	19
53	169
54	38
55	512
56	34
57	78
58	9
59	6
60	88
61	9
62	2
63	12
64	9
65	122
66	42
67	392
68	68
69	171
70	21
71	55
72	8
73	5
74	2
75	4
76	9
77	312
78	82
79	555
80	92
81	851
82	101
83	118
84	25
85	48
86	9
87	6
88	3
89	18
90	13
91	702
92	121
93	685
94	165
95	609
96	83
97	526
98	52
99	24
100	7
101	10
102	15
103	90
104	66
105	779
106	182
107	820
108	162
109	323
110	105
111	69
112	13
113	9
114	7
115	149
116	78
117	254
118	116
119	579
120	182
121	592
122	133
123	217
124	72
125	92
126	24
127	45
128	140
129	218
130	107
131	359
132	125
133	559
134	156
135	304
136	98
137	100
138	29
139	19
140	10
141	113
142	102
143	279
144	141
145	503
146	170
147	337
148	142
149	340
150	97
151	50
152	61
153	56
154	39
155	154
156	89
157	369
158	143
159	297
160	110
161	228
162	86
163	593
164	97
165	89
166	81
167	66
168	48
169	178
170	90
171	240
172	111
173	222
174	95
175	190
176	64
177	62
178	32
179	34
180	26
181	76
182	56
183	187
184	88
185	158
186	88
187	122
188	89
189	88
190	58
191	46
192	22
193	40
194	34
195	83
196	68
197	185
198	92
199	175
200	83
201	116
202	75
203	52
204	37
205	35
206	22
207	52
208	34
209	157
210	78
211	165
212	96
213	152
214	89
215	147
216	105
217	49
218	26
219	26
220	33
221	33
222	29
223	92
224	61
225	157
226	78
227	127
228	77
229	97
230	154
231	612
232	131
233	29
234	33
235	23
236	31
237	35
238	36
239	175
240	146
241	115
242	84
243	101
244	153
245	48
246	36
247	17
248	23
249	71
250	28
251	35
252	38
253	41
254	97
255	95
256	109
257	229
258	463
259	116
260	38
261	16
262	17
263	6
264	10
265	11
266	15
267	234
268	141
269	148
270	381
271	121
272	328
273	92
274	69
275	20
276	43
277	9
280	51
281	21
282	62
283	92
284	177
285	741
286	412
287	407
288	115
289	17
290	6
296	18
297	44
298	424
299	105
300	182
301	45
302	163
303	36
304	9
305	5
306	1
313	3
314	33
315	343
316	350
317	67
318	10
319	2
328	2
329	13
330	6
331	2
332	42
333	16
334	3
340	1
342	2
343	2
344	12
345	3
346	4
347	1
357	1
358	35
359	10
360	6
361	1
362	1
375	10
376	4
