Mass Spectrum: 2,3-Dicarbaheptaborane(7), 2,3-dimethyl-
Formula: C4H11B5
CAS: 31566-10-6
Molecular weight: 114
m/z	intensity
80	49
81	62
82	66
83	74
84	56
85	49
86	26
87	31
88	5
89	7
90	13
91	22
92	33
93	44
94	51
95	77
96	105
97	116
98	79
99	63
100	23
101	17
102	11
103	13
104	15
105	14
106	21
107	45
108	101
109	288
110	542
111	662
112	684
113	999
114	782
115	61
116	12
