Mass Spectrum: Acetoxy(3-aminopropyl)isoamylborane
Formula: C10H22BNO2
CAS: 31569-49-0
Molecular weight: 199
m/z	intensity
29	129
30	59
39	169
41	419
42	529
43	369
45	299
53	69
54	149
55	309
56	69
60	159
65	59
66	79
67	189
68	619
69	119
70	149
81	49
82	339
83	999
84	69
95	59
96	189
97	59
109	49
110	249
139	339
