Mass Spectrum: N'-(2,5-Dihydroxy-.alpha.-methylbenzylidene)acethydrazide
Formula: C10H12N2O3
CAS: 315699-49-1
Molecular weight: 208
m/z	intensity
34	1
37	7
38	21
39	142
41	92
42	181
43	999
45	4
48	1
50	62
51	137
52	150
53	155
54	48
55	76
57	42
59	3
60	9
61	6
62	20
63	53
65	92
66	25
67	35
68	23
69	18
70	5
71	2
73	3
74	9
75	9
77	124
78	46
79	113
80	60
81	53
82	19
83	7
84	4
85	1
86	3
87	3
88	2
89	16
91	40
92	16
93	23
94	33
95	16
96	23
97	5
99	7
101	1
102	2
103	2
105	10
106	35
107	79
108	38
109	32
110	10
111	3
117	1
118	4
119	16
120	46
121	30
122	15
123	16
124	8
125	4
130	1
131	1
132	2
134	27
135	32
136	20
137	49
138	10
139	1
145	1
148	204
149	242
150	31
151	9
152	1
161	1
162	1
163	2
165	82
166	46
167	5
190	3
191	33
192	5
193	10
194	1
208	88
209	9
210	1
