Mass Spectrum: 1-Bromo-4-(2-nitrovinyl)benzene
Formula: C8H6BrNO2
CAS: 3156-37-4
Molecular weight: 227
m/z	intensity
33	5
34	3
36	19
37	52
38	94
39	142
40	61
41	64
42	19
43	68
44	48
45	9
46	24
47	2
49	63
50	517
51	423
52	97
53	18
54	11
55	64
56	23
57	42
58	6
59	9
60	13
61	57
62	118
63	203
64	43
65	205
66	20
67	18
68	12
69	36
70	20
71	20
72	9
73	51
74	275
75	520
76	405
77	137
78	32
79	50
80	20
81	21
82	18
83	16
84	13
85	20
86	20
87	30
88	25
89	164
90	179
91	42
92	152
93	52
94	9
95	12
96	48
97	20
98	44
99	24
101	424
102	999
103	102
104	42
105	20
106	10
107	7
108	3
109	5
110	2
111	5
112	4
113	2
114	5
115	8
116	33
118	431
119	50
120	71
121	61
122	7
123	3
124	1
125	2
126	1
127	2
128	4
129	8
130	11
131	17
132	40
133	8
134	2
135	4
136	1
137	1
139	1
141	2
142	1
143	9
144	21
145	8
146	21
148	209
149	25
150	3
151	1
152	2
153	1
154	3
155	32
156	12
157	31
158	9
159	2
160	0
161	1
163	1
165	1
167	1
169	43
170	8
171	41
172	12
173	4
174	7
175	1
177	0
178	3
180	242
181	44
182	220
183	56
184	13
185	24
186	6
187	0
191	0
193	1
194	2
195	6
196	4
197	10
198	5
199	9
200	2
201	4
202	0
207	1
208	0
210	11
211	2
212	9
213	2
220	0
227	156
228	19
229	150
230	14
231	0
