Mass Spectrum: 2-(.alpha.-p-toluenesulfonylanilino)-4-p-toluenesulfonylimino-1-naphthalenone
Formula: C30H24N2O5S2
CAS: 315698-58-9
Molecular weight: 556
m/z	intensity
34	1
37	5
38	18
39	154
40	12
41	36
42	4
43	15
44	24
45	51
48	19
49	3
50	68
51	187
52	36
53	22
54	4
55	4
56	3
57	12
58	5
59	1
60	14
61	15
62	38
63	105
64	71
65	428
66	39
67	34
68	8
69	28
70	9
71	10
72	2
73	9
74	22
75	54
76	91
77	461
78	82
79	41
80	14
81	5
82	9
83	9
84	5
85	10
86	8
87	13
88	22
89	260
90	230
91	999
92	282
93	47
94	4
95	18
96	9
97	9
98	2
99	4
100	5
101	21
102	283
103	66
104	57
105	73
106	8
107	44
108	31
109	41
111	13
112	2
113	4
114	23
115	43
116	117
117	114
118	18
119	6
120	4
121	21
122	12
123	44
124	97
125	11
126	13
127	12
128	27
130	593
131	49
132	16
133	4
137	1
138	4
139	239
140	58
141	26
142	20
143	20
144	80
145	35
146	5
147	4
149	2
151	9
152	17
153	11
154	2
155	112
156	64
157	12
158	2
160	6
163	3
164	10
165	53
166	12
167	8
168	4
169	8
171	8
175	1
176	4
177	9
178	9
179	5
180	1
181	11
182	7
183	2
190	31
191	18
192	16
193	41
194	8
201	1
202	6
203	53
204	87
205	17
206	7
207	25
208	456
209	70
210	2
216	5
217	18
218	76
219	282
220	66
221	15
229	9
231	4
232	33
233	14
234	25
235	13
236	6
245	17
246	90
247	241
248	212
249	36
250	2
261	33
262	5
281	3
294	3
295	7
309	13
310	3
311	1
321	4
322	7
323	15
324	1
336	2
337	82
338	182
339	39
340	2
401	26
402	155
403	37
404	9
556	3
