Mass Spectrum: 3-Iodo-4-methoxy-N-(tetrahydro-furan-2-ylmethyl)-benzamide
Formula: C13H16INO3
CAS: 315671-54-6
Molecular weight: 361
m/z	intensity
37	1
38	4
39	35
40	13
41	134
42	66
43	403
44	76
45	4
46	0
47	0
49	0
50	34
51	15
52	7
53	13
54	3
55	3
56	16
57	2
58	5
59	0
60	1
61	4
62	28
63	107
64	16
65	9
66	3
67	4
68	2
69	5
70	23
71	999
72	57
73	3
74	7
75	23
76	76
77	24
78	42
79	7
80	1
81	1
82	2
83	11
84	250
85	25
86	2
87	0
88	0
89	0
90	2
91	16
92	6
93	1
94	0
97	0
98	0
99	0
100	0
101	0
102	0
103	12
104	40
105	28
106	16
107	2
108	1
109	0
110	0
111	0
113	0
114	0
115	0
116	0
117	1
118	1
119	24
120	5
121	5
122	1
123	0
126	0
127	2
128	1
129	0
130	0
131	1
132	2
133	26
134	22
135	12
136	1
138	0
139	0
140	0
141	0
142	0
144	0
145	0
146	0
147	0
148	1
149	0
150	2
151	1
152	0
156	0
157	0
158	0
159	0
160	0
161	0
162	5
163	6
164	104
165	12
166	1
169	2
171	0
172	0
173	0
174	0
175	0
176	0
177	0
178	0
179	0
184	0
188	0
189	3
190	11
191	2
192	0
198	0
199	0
200	0
201	1
202	0
203	32
204	2
205	2
206	0
215	0
217	1
218	46
219	4
220	0
221	0
229	0
230	0
232	0
233	17
234	3
235	0
236	0
242	0
243	0
244	0
245	0
246	3
247	1
248	0
258	0
259	0
260	9
261	278
262	25
263	2
264	0
265	0
273	0
274	0
275	0
276	0
277	30
278	107
279	12
280	0
287	0
288	0
289	2
290	94
291	85
292	16
293	1
301	0
302	1
303	0
304	0
316	1
317	27
318	9
319	0
330	0
331	0
332	0
333	3
360	3
361	79
362	15
363	1
