Mass Spectrum: 2-Chloro-.beta.-nitrostyrene
Formula: C8H6ClNO2
CAS: 3156-34-1
Molecular weight: 183
m/z	intensity
16	1
25	1
26	10
27	19
29	2
30	76
35	2
36	2
37	24
38	37
39	73
40	4
41	3
42	1
43	8
44	3
46	26
47	3
48	2
49	29
50	226
51	339
52	46
53	6
54	2
55	5
56	1
57	2
58	2
60	7
61	50
62	87
63	149
64	25
65	98
66	11
67	3
68	16
69	5
71	1
72	7
73	52
74	213
75	662
76	152
77	71
78	12
79	6
80	2
81	3
84	21
85	40
86	34
87	41
88	16
89	214
90	83
91	27
92	58
93	20
94	3
95	2
96	4
97	21
98	42
99	83
100	66
101	999
102	483
103	49
104	15
105	7
106	8
107	3
108	5
109	4
110	8
111	42
112	24
113	18
114	16
115	14
116	51
117	31
118	638
119	60
120	29
121	7
122	1
123	9
124	13
125	237
126	27
127	80
128	13
129	1
130	9
131	6
132	33
133	3
134	3
136	579
137	153
138	204
139	101
140	23
141	19
142	5
148	585
149	55
150	7
151	23
152	7
153	18
154	5
155	4
156	1
166	3
167	1
168	1
183	308
184	30
185	102
186	9
187	1
