Mass Spectrum: 1-Nitro-2-propanol
Formula: C3H7NO3
CAS: 3156-73-8
Molecular weight: 105
m/z	intensity
12	10
13	19
14	41
15	142
16	20
17	5
18	9
19	9
24	3
25	12
26	40
27	65
28	15
29	281
30	316
31	151
33	2
36	2
37	11
38	24
39	170
40	22
41	211
42	105
43	346
44	458
45	268
46	314
47	3
48	2
51	4
52	5
53	4
54	2
55	12
56	3
57	26
58	89
59	213
60	102
61	999
62	206
63	9
69	2
70	4
71	4
72	3
73	2
74	2
75	4
76	2
86	3
87	63
88	4
90	95
91	4
104	1
