Mass Spectrum: 4-Isobutoxy-2-butanone
Formula: C8H16O2
CAS: 31576-33-7
Molecular weight: 144
m/z	intensity
14	5
15	41
17	2
18	7
25	1
26	12
27	108
28	30
29	89
30	5
31	44
32	4
33	42
37	3
38	6
39	53
40	9
41	157
42	62
43	999
44	26
45	16
49	1
50	3
51	3
52	1
53	6
54	3
55	97
56	42
57	171
58	23
59	8
61	9
69	3
70	58
71	392
72	212
73	58
74	11
75	2
79	1
83	1
85	1
86	1
87	63
88	9
89	73
90	3
97	2
101	96
102	6
103	1
107	1
122	2
125	1
129	10
130	1
144	2
