Mass Spectrum: (R,1E,5E,9E)-1,5,9-Trimethyl-12-(prop-1-en-2-yl)cyclotetradeca-1,5,9-triene
Formula: C20H32
CAS: 31570-39-5
Molecular weight: 272
m/z	intensity
27	24
29	45
39	111
40	65
41	317
42	44
52	15
53	309
55	296
65	92
66	46
67	712
68	999
69	208
77	211
78	44
79	419
80	129
81	601
82	70
91	252
92	127
93	738
94	298
95	285
96	32
105	213
106	91
107	590
108	262
109	186
117	23
119	268
120	154
121	564
122	181
123	142
133	248
134	167
135	206
136	73
145	45
146	28
147	163
148	119
149	75
150	17
159	60
160	23
161	126
162	53
163	29
173	47
174	15
175	63
176	21
177	24
187	32
189	91
190	22
191	17
201	42
215	39
216	31
217	18
229	31
230	13
257	144
258	30
272	64
273	13
