Mass Spectrum: Thiazole, 4-(3,4-dimethoxyphenyl)-2-(2-pyridylamino)-
Formula: C16H15N3O2S
CAS: 315705-34-1
Molecular weight: 313
m/z	intensity
33	8
34	6
35	10
36	67
37	24
38	97
39	216
40	152
41	83
42	26
43	42
44	56
45	302
46	12
47	15
48	1
49	8
50	131
51	549
52	202
53	89
54	17
55	32
56	13
57	33
58	112
59	17
60	8
61	11
62	51
63	187
64	74
65	104
66	41
67	40
68	12
69	123
70	44
71	43
72	12
73	8
74	21
75	58
76	103
77	186
78	999
79	515
80	522
81	229
82	572
83	30
84	23
85	19
86	10
87	17
88	23
89	88
90	64
91	103
92	79
93	51
94	58
95	116
96	31
97	19
98	10
99	7
100	8
101	14
102	21
103	24
104	34
105	151
106	75
107	186
108	179
109	41
110	20
111	23
112	15
114	112
115	9
116	34
117	22
118	44
119	200
120	482
121	171
122	102
123	86
124	18
125	12
126	14
127	87
128	12
129	5
130	5
131	9
132	28
133	108
134	231
135	67
136	162
137	137
138	27
139	24
140	12
141	125
142	46
143	8
144	29
145	9
146	27
147	30
148	65
149	114
150	87
151	183
152	28
153	11
154	4
155	6
157	156
159	5
160	11
161	45
162	79
163	28
164	52
165	28
166	227
167	29
168	14
169	5
170	1
171	3
172	2
173	4
174	7
175	6
176	16
177	24
179	136
180	26
181	13
182	6
183	3
184	1
185	1
186	1
187	1
188	2
189	15
190	8
191	4
192	5
193	15
194	95
195	15
196	7
197	2
198	2
199	4
200	3
201	2
203	1
204	12
205	4
206	5
207	7
208	12
209	3
210	3
211	5
212	2
213	3
214	2
215	3
219	2
220	3
221	1
222	6
223	3
224	4
225	7
226	49
227	24
228	6
229	1
234	1
235	6
236	6
237	4
238	9
239	11
240	5
241	4
242	2
243	2
250	2
251	2
252	8
253	8
254	13
255	8
256	4
264	2
265	2
266	6
267	10
268	21
269	14
270	43
271	8
272	1
280	7
281	2
282	11
283	6
284	3
297	19
298	49
299	9
300	2
312	45
313	469
314	87
315	29
316	4
