Mass Spectrum: 3,5,7-Triamino-1-azaadamantane
Formula: C9H18N4
CAS: 31588-69-9
Molecular weight: 182
m/z	intensity
27	3
28	62
29	6
30	25
39	16
40	8
41	41
42	150
43	28
44	24
51	5
52	5
53	17
54	24
55	16
56	53
57	64
58	52
59	5
63	2
65	9
66	16
67	20
68	21
69	28
70	36
71	10
77	14
78	7
79	9
80	47
81	31
82	57
83	72
84	10
85	13
91	6
92	9
93	11
94	30
95	55
96	45
97	100
98	12
104	3
105	4
106	13
107	51
108	20
109	68
110	14
111	13
112	4
118	4
119	6
120	8
121	38
122	34
123	110
124	999
125	80
126	9
135	9
136	8
137	9
138	16
139	4
147	3
150	5
164	2
182	120
183	14
184	1
