Mass Spectrum: Dichotine, 1-acetyl-2-deoxytetrahydro-11-methoxy-, acetate (ester)
Formula: C27H36N2O8
CAS: 31592-09-3
Molecular weight: 516
m/z	intensity
41	20
42	30
43	410
44	60
45	20
53	10
55	30
56	20
57	50
58	70
59	10
60	10
67	10
69	20
70	50
71	10
72	50
73	10
74	20
75	10
79	10
80	10
81	20
82	10
83	20
85	10
93	10
94	10
96	10
97	10
109	10
110	20
111	20
112	10
117	999
118	60
119	20
124	10
126	10
130	10
174	10
175	10
176	10
188	10
189	20
190	50
191	10
218	10
228	10
229	20
230	10
231	10
232	10
243	10
271	25
272	10
273	10
285	10
286	5
287	10
289	5
297	5
298	5
299	15
300	5
301	5
317	10
318	5
319	5
327	5
328	5
329	5
330	15
331	5
341	10
356	5
357	20
358	15
359	5
372	15
373	5
383	10
384	5
385	5
399	10
400	160
401	45
402	10
443	40
444	10
485	10
486	5
516	30
517	5
