Mass Spectrum: 2-Phenyl-4-anilino-5-phenylazo-6[1H]-pyrimidinonef
Formula: C22H17N5O
CAS: 31595-56-9
Molecular weight: 367
m/z	intensity
49	23
50	10
51	93
52	11
54	17
63	20
64	17
65	71
66	12
69	4
75	10
76	43
77	999
78	70
79	4
84	25
86	18
88	6
89	96
90	20
91	35
92	58
93	143
94	6
102	18
103	86
104	351
105	100
106	5
114	18
115	24
116	104
117	33
118	26
119	11
128	4
129	849
130	100
131	220
132	72
133	6
141	26
142	20
143	14
144	48
145	20
147	9
151	4
152	8
153	5
156	6
157	8
158	20
159	362
160	45
165	24
166	6
167	6
168	8
169	5
170	4
172	90
173	7
180	26
181	5
184	24
186	4
190	14
191	10
192	8
193	8
194	4
205	9
206	14
207	12
208	6
217	6
218	23
219	321
220	76
221	6
232	7
233	5
235	32
236	24
244	48
245	32
246	6
247	5
248	4
260	16
261	25
262	311
263	75
264	7
273	4
275	232
276	38
290	97
291	16
338	189
339	43
340	4
367	619
368	184
369	28
