Mass Spectrum: 1,3-Dithiane, 2-benzyl
Formula: C11H14S2
CAS: 31593-52-9
Molecular weight: 210
m/z	intensity
25	1
26	3
27	32
28	1
29	5
30	1
31	1
33	1
34	1
35	1
37	1
38	8
39	102
40	9
41	179
42	16
43	18
44	5
45	194
46	60
47	60
48	3
49	3
50	31
51	111
52	25
53	9
54	2
55	15
56	1
57	3
58	25
59	63
60	9
61	17
62	10
63	53
64	26
65	174
66	14
67	6
68	2
69	16
70	2
71	16
72	7
73	86
74	36
75	177
76	29
77	151
78	83
79	24
80	2
81	3
82	5
83	3
84	5
85	99
86	14
87	12
88	3
89	42
90	25
91	496
92	51
93	12
94	1
95	20
96	3
97	4
98	2
99	3
100	2
101	8
102	47
103	166
104	145
105	48
106	67
107	11
108	17
109	13
110	5
111	2
112	1
113	2
114	2
115	24
116	11
117	13
118	3
119	999
120	240
121	380
122	25
123	14
124	1
125	1
126	1
127	2
128	8
129	25
130	5
131	1
132	1
133	8
134	86
135	232
136	67
137	20
138	3
139	1
141	2
143	1
144	3
145	1
146	1
147	1
148	5
149	2
150	8
209	4
210	222
211	34
212	23
213	3
214	1
