Mass Spectrum: Pyridine, 2-neopentyl-
Formula: C10H15N
CAS: 31590-84-8
Molecular weight: 149
m/z	intensity
13	1
14	5
15	42
16	1
17	1
18	3
25	7
26	16
27	79
28	30
29	87
30	29
31	0
36	0
37	6
38	18
39	124
40	20
41	102
42	8
43	14
44	1
45	1
46	0
47	0
49	1
50	18
51	46
52	28
53	19
54	5
55	13
56	7
57	122
58	6
59	4
60	0
61	1
62	5
63	15
64	10
65	56
66	49
67	11
68	1
69	3
70	1
71	1
73	2
74	1
75	1
76	2
77	10
78	32
79	15
80	4
81	0
82	0
83	2
84	1
85	1
86	0
87	0
88	0
89	3
90	3
91	86
92	35
93	999
94	78
95	3
97	2
98	1
99	5
100	0
102	0
103	1
104	3
105	3
106	10
107	6
108	0
112	2
113	2
116	1
117	18
118	24
119	9
120	1
121	0
122	1
126	0
130	3
131	1
132	7
133	1
134	109
135	12
136	0
146	0
148	2
150	1
