Mass Spectrum: 10H-Phenothiazin-3-ol, 10-[3-(dimethylamino)propyl]-
Formula: C17H20N2OS
CAS: 316-85-8
Molecular weight: 300
m/z	intensity
17	110
18	540
28	60
29	10
30	30
41	10
42	60
43	10
44	40
57	10
58	999
59	40
70	10
72	10
84	20
85	80
86	360
87	10
167	10
201	30
214	140
215	150
216	20
228	90
229	20
242	10
254	160
255	60
256	10
300	550
301	110
302	30
