Mass Spectrum: Carbamic acid, bis(1-methylethyl)-, methyl ester
Formula: C8H17NO2
CAS: 31603-49-3
Molecular weight: 159
m/z	intensity
40	32
41	231
42	209
43	298
44	112
45	11
54	14
55	10
56	95
57	33
58	401
59	191
68	12
70	137
71	10
72	69
73	33
84	70
86	82
101	15
102	999
103	54
116	47
128	37
129	12
143	11
144	572
145	48
159	132
160	18
