Mass Spectrum: Benzene, [(methoxymethoxy)methyl]-
Formula: C9H12O2
CAS: 31600-55-2
Molecular weight: 152
m/z	intensity
26	2
27	12
28	3
29	43
30	7
31	15
33	0
37	2
38	11
39	76
40	6
41	20
42	2
43	5
44	7
45	447
46	12
47	3
48	0
49	1
50	31
51	78
52	21
53	7
54	0
55	4
56	1
57	3
58	0
60	0
61	6
62	15
63	52
64	14
65	152
66	9
67	1
68	0
69	2
70	1
71	2
73	1
74	8
75	9
76	7
77	110
78	50
79	108
80	8
81	2
82	0
83	1
84	0
85	1
86	2
87	2
88	1
89	51
90	67
91	999
92	621
93	46
94	1
95	1
96	0
97	1
98	0
102	0
103	0
104	0
105	40
106	11
107	21
108	10
109	0
110	0
111	0
112	0
113	0
115	1
117	0
118	2
119	90
120	269
121	61
122	27
123	2
124	1
125	0
126	0
127	0
128	0
129	0
132	0
133	0
134	1
135	1
136	0
137	0
152	7
153	2
