Mass Spectrum: 1-Butanol, 4-(1-methylethoxy)-
Formula: C7H16O2
CAS: 31600-69-8
Molecular weight: 132
m/z	intensity
43	999
44	130
45	260
53	30
55	580
56	60
57	40
58	30
59	130
60	30
61	10
71	380
72	40
73	520
74	30
86	10
87	10
89	210
90	10
102	20
117	3
