Mass Spectrum: 5-Undecene, 5-methyl-
Formula: C12H24
CAS: 31613-73-7
Molecular weight: 168
m/z	intensity
26	7
27	95
28	99
29	132
30	3
32	20
38	2
39	63
40	15
41	328
42	121
43	209
44	15
46	5
47	1
53	40
54	16
55	720
56	537
57	282
58	15
59	11
65	9
66	5
67	55
68	62
69	999
70	278
71	41
72	6
74	4
77	5
79	14
80	2
81	28
82	21
83	135
84	103
85	22
86	2
87	8
91	6
92	2
93	1
94	3
95	12
96	4
97	35
98	60
99	12
100	1
109	5
110	15
111	209
112	37
113	2
119	3
122	1
125	2
126	35
127	4
131	2
140	2
151	1
166	1
168	144
169	20
170	1
