Mass Spectrum: 2-Methyl-benzoic acid [1-(3-nitro-phenyl)-ethylidene]-hydrazide
Formula: C16H15N3O3
CAS: 316138-28-0
Molecular weight: 297
m/z	intensity
33	6
34	5
36	2
37	1
38	9
39	54
40	9
41	19
42	13
43	11
44	25
45	2
46	0
48	2
50	33
51	42
52	13
53	7
54	0
55	3
56	1
57	3
60	0
61	1
62	9
63	36
64	22
65	124
66	7
67	0
68	0
69	2
70	1
71	1
73	0
74	8
75	18
76	47
77	56
78	10
79	3
80	1
81	1
82	2
83	1
84	0
85	1
86	0
87	1
88	2
89	34
90	42
91	364
92	31
93	2
94	0
101	2
102	17
103	19
104	10
105	4
106	1
107	0
113	0
115	6
116	13
117	35
119	999
120	81
121	6
127	1
128	0
129	0
131	16
132	10
133	4
134	2
135	1
136	1
143	0
144	6
145	0
148	1
149	3
150	3
151	0
158	1
161	4
162	0
163	3
164	0
165	2
175	0
177	2
178	1
204	3
218	0
263	0
265	3
280	1
282	3
297	68
298	9
299	0
