Mass Spectrum: 1,3-Cyclohexanedione, 2-[(2-hydroxy-4,4-dimethyl-6-oxo-1-cyclohexen-1-yl)(4-methoxyphenyl)methyl]-5,5-dimethyl-
Formula: C24H30O5
CAS: 316138-91-7
Molecular weight: 398
m/z	intensity
35	15
36	4
37	12
39	475
41	693
42	255
43	260
44	19
45	8
47	26
48	13
49	10
50	59
51	99
53	188
55	817
56	594
57	72
58	8
59	11
63	200
64	38
65	42
66	18
67	35
69	227
70	142
71	14
72	3
74	33
75	54
76	62
77	135
78	43
79	34
80	8
81	16
83	999
84	393
85	73
86	11
87	25
89	280
90	40
91	50
92	23
93	10
94	11
95	13
97	71
98	10
99	10
102	452
103	163
104	34
105	14
106	9
107	22
108	22
109	9
110	4
112	144
113	18
115	145
116	44
117	53
118	30
119	10
121	41
122	9
123	6
124	6
125	28
126	8
127	24
128	39
129	32
130	92
131	124
132	73
133	27
134	43
135	26
136	9
137	5
140	161
141	32
142	10
143	22
144	27
145	41
146	213
147	28
148	5
149	3
150	6
151	4
152	10
153	10
154	5
155	8
156	4
157	15
159	136
160	32
161	38
162	6
163	3
164	2
165	9
166	4
167	4
169	12
171	175
172	29
173	38
174	114
175	56
176	8
177	2
178	5
179	4
180	2
181	6
182	7
183	6
184	5
185	12
187	67
188	21
189	8
190	3
191	2
193	3
195	3
196	3
197	9
198	5
199	23
201	93
202	16
203	15
204	3
207	2
209	2
210	2
211	6
212	4
213	9
214	5
215	46
216	7
217	5
218	2
225	7
227	614
228	86
229	34
230	18
231	10
239	2
240	4
241	8
243	95
244	13
245	2
253	3
255	8
257	375
258	373
259	85
260	13
261	4
262	3
265	2
268	9
269	3
271	60
272	10
273	16
274	3
275	4
281	3
283	9
284	2
285	4
286	13
287	3
295	2
296	8
297	9
298	2
299	5
313	4
314	4
380	9
381	2
398	81
399	19
400	3
