Mass Spectrum: Acethydrazide, 2-phenoxy, N2-[1-(4-aminophenyl)ethylideno]-
Formula: C16H17N3O2
CAS: 316133-03-6
Molecular weight: 283
m/z	intensity
33	2
34	1
36	2
37	13
38	60
39	336
40	71
41	84
42	131
43	55
44	29
45	99
46	3
47	2
49	3
50	96
51	375
52	87
53	57
54	42
55	29
56	15
57	27
58	6
59	17
60	4
61	7
62	27
63	102
64	65
65	422
66	102
67	25
68	7
69	43
70	7
71	7
72	2
73	26
74	21
75	25
76	44
77	999
78	126
79	179
80	278
81	23
82	10
83	12
84	4
85	10
86	2
87	2
88	6
89	33
90	53
91	229
92	237
93	118
94	238
95	39
96	3
97	3
98	3
99	1
100	1
101	11
102	14
103	16
104	55
105	46
106	228
107	498
108	53
109	7
110	2
111	2
112	3
113	4
114	1
115	3
116	18
117	106
118	521
119	441
120	96
121	98
122	11
123	1
125	0
126	0
127	2
128	2
129	3
130	7
131	78
132	94
133	602
134	564
135	60
136	7
137	1
139	0
141	2
143	2
144	2
145	9
146	22
147	50
148	474
149	111
150	16
151	10
152	3
153	1
154	1
157	1
158	1
159	1
160	50
161	15
162	23
163	4
164	1
165	2
166	30
167	4
168	1
169	0
170	0
171	6
172	4
173	2
174	14
175	12
176	364
177	42
178	3
179	5
180	1
181	0
182	0
183	1
184	0
185	3
186	1
187	0
188	1
189	4
190	155
191	26
192	3
193	0
194	0
195	0
196	1
197	0
198	2
199	0
200	0
203	0
205	0
206	19
207	4
208	1
209	0
210	1
220	0
221	0
223	0
224	1
225	3
226	0
236	1
237	0
238	0
239	0
250	0
251	6
252	2
253	0
254	2
255	0
265	0
266	5
267	1
268	5
269	0
280	0
282	8
283	905
284	157
285	18
286	1
