Mass Spectrum: 3-Phenyl-propionic acid (2-hydroxy-5-nitro-benzylidene)-hydrazide
Formula: C16H15N3O4
CAS: 316136-71-7
Molecular weight: 313
m/z	intensity
33	10
34	4
35	2
36	12
37	8
38	32
39	109
40	64
41	49
42	26
43	60
44	96
45	52
46	2
48	1
50	72
51	174
52	73
53	62
54	15
55	42
56	8
57	19
58	4
59	4
60	3
61	5
62	25
63	69
64	34
65	132
66	15
67	11
68	7
69	20
70	9
71	13
72	11
73	5
74	13
75	21
76	37
77	179
78	107
79	141
80	21
81	7
82	7
83	9
84	4
85	7
86	2
87	3
88	4
89	23
91	999
92	90
93	16
94	4
95	6
96	2
97	4
98	1
99	2
100	1
101	4
103	106
104	349
105	781
106	145
107	19
108	5
109	4
110	3
111	4
112	3
113	1
115	1
116	1
117	2
118	8
119	18
120	8
121	4
122	2
123	2
124	1
125	2
126	0
127	1
128	1
129	2
130	6
131	21
132	43
133	76
134	37
135	6
136	8
137	2
138	0
139	0
141	0
145	1
146	9
147	8
148	29
149	136
150	18
151	5
152	4
153	1
155	0
157	1
161	2
162	3
163	19
164	13
165	10
166	10
167	6
171	2
175	1
176	0
177	0
179	2
180	9
181	27
182	3
183	1
185	0
193	2
194	0
208	0
209	0
222	0
237	7
238	1
253	0
254	4
255	3
267	0
268	2
269	15
270	6
271	0
294	0
296	17
297	3
311	2
313	39
314	5
