Mass Spectrum: 7-Chloro-4-[1-methyl-4-[N-ethyl-N-benzylamino]butylamino]quinoline
Formula: C23H28ClN3
CAS: 31610-14-7
Molecular weight: 381
m/z	intensity
41	67
42	77
43	21
44	56
45	1
49	2
50	3
51	10
52	5
53	5
54	6
55	15
56	45
57	12
58	24
62	0
63	9
64	2
65	74
66	3
67	6
68	5
69	15
70	13
71	8
72	6
74	4
75	5
76	2
77	11
78	2
79	4
82	5
83	2
84	22
85	2
86	8
87	0
89	12
91	999
92	70
93	2
96	4
97	0
98	19
99	10
100	4
101	3
102	4
104	8
105	6
106	2
111	2
112	71
113	3
114	5
115	5
116	4
117	4
118	6
120	32
121	0
123	5
125	1
126	11
127	8
128	7
129	3
132	8
134	59
135	35
136	3
137	6
142	3
143	4
144	0
146	14
148	697
149	61
150	7
151	0
152	3
153	1
155	19
156	10
160	11
161	2
162	22
163	5
164	13
165	3
166	3
167	0
168	8
169	26
170	20
171	1
174	17
175	9
176	3
177	2
178	10
179	18
180	5
181	7
182	2
183	0
188	7
189	3
190	8
191	9
192	5
193	2
194	1
195	2
196	2
202	5
203	10
204	10
205	40
206	10
207	12
208	3
217	8
218	3
219	18
220	1
221	7
231	12
232	4
233	6
234	0
245	24
246	2
247	32
248	16
249	7
250	4
264	0
290	144
291	22
292	47
293	8
337	3
352	42
353	9
354	15
355	3
366	3
380	4
381	71
382	44
383	23
384	7
385	3
