Mass Spectrum: 2-[4-Hydroxy-.alpha.-(2-hydroxy-4,4-dimethyl-6-oxo-1-cyclohexen-1-yl)-3-methoxybenzyl]-5,5-dimethyl-1,3-cyclohexanedione
Formula: C24H30O6
CAS: 316134-38-0
Molecular weight: 414
m/z	intensity
33	57
34	12
37	2
39	480
40	307
41	593
42	292
43	271
44	144
45	8
50	82
51	187
52	58
53	169
55	875
56	652
57	81
58	11
59	9
60	2
61	4
62	37
63	73
64	21
65	71
66	26
67	37
69	247
70	157
71	20
72	4
74	16
75	30
76	56
77	128
78	36
79	39
80	9
81	26
83	999
84	389
85	29
87	23
89	101
91	110
92	9
93	18
94	14
95	14
96	2
97	78
98	7
101	21
102	57
103	34
105	252
106	22
107	22
109	56
110	4
112	178
113	15
115	41
116	20
117	28
118	65
119	60
120	16
121	9
122	10
123	10
124	20
125	25
127	9
128	26
129	22
130	57
131	57
132	23
133	175
134	27
135	21
136	4
137	41
140	165
141	25
142	5
143	16
144	12
145	42
146	46
147	108
148	59
150	115
151	20
152	3
157	16
158	13
159	37
160	23
161	166
162	230
163	25
171	20
173	28
175	140
177	54
185	6
186	31
187	129
188	22
190	144
191	32
192	4
199	11
200	4
201	42
202	9
203	31
204	16
213	5
215	3
217	63
218	9
219	4
227	3
229	4
230	3
231	65
232	9
241	5
243	200
244	28
245	11
246	10
257	249
258	53
259	114
260	10
273	528
274	466
275	111
276	8
287	9
414	32
415	5
