Mass Spectrum: 3-Phenyl-propionic acid (4-cyano-benzylidene)-hydrazide
Formula: C17H15N3O
CAS: 316137-34-5
Molecular weight: 277
m/z	intensity
38	4
39	24
40	26
41	6
42	3
43	7
44	9
45	1
50	12
51	39
52	9
53	4
55	6
57	2
61	0
62	12
63	32
64	14
65	64
66	5
69	0
70	1
71	1
72	5
73	0
74	5
75	19
76	19
77	128
78	59
79	80
80	4
81	0
83	1
84	1
86	0
87	6
88	27
89	40
90	64
91	901
92	75
93	15
94	2
95	1
97	0
99	0
100	2
101	8
102	56
103	120
104	328
105	999
106	149
107	18
108	0
109	7
110	2
111	0
112	1
114	26
115	40
116	12
117	43
118	21
119	12
120	3
121	1
125	2
126	0
127	10
128	24
129	36
130	17
131	53
132	84
133	119
134	11
135	2
139	2
140	0
141	9
142	2
143	7
144	66
145	269
146	52
147	9
148	44
149	300
150	30
151	2
152	0
153	0
154	0
155	1
156	1
157	40
158	7
161	3
166	2
171	4
172	13
173	6
174	33
175	26
176	3
181	0
183	0
184	0
185	1
186	8
187	1
190	0
191	2
192	1
193	0
200	0
207	0
208	3
216	0
218	24
219	38
220	7
231	6
232	15
233	51
234	12
235	1
240	1
243	0
259	0
260	3
276	59
277	187
278	34
279	2
