Mass Spectrum: Sulfur trioxide trimethylamine complex
Formula: C3H9NO3S
CAS: 3162-58-1
Molecular weight: 139
m/z	intensity
14	10
15	176
16	2
26	5
27	21
28	103
29	44
30	254
31	9
32	9
34	2
38	3
39	5
40	23
41	37
42	262
43	64
44	29
45	1
48	57
50	2
51	1
52	2
54	3
55	2
56	22
57	43
58	999
59	701
60	26
64	106
65	3
66	5
76	9
80	66
81	1
82	4
107	1
139	147
140	14
141	8
