Mass Spectrum: 4,6-Benzylidene-.alpha.-methyl-D-glucoside
Formula: C14H18O6
CAS: 3162-96-7
Molecular weight: 282
m/z	intensity
14	1
15	31
17	3
18	10
26	4
27	40
28	24
29	68
30	9
31	76
32	14
33	34
37	1
38	4
39	41
40	9
41	55
42	24
43	90
44	27
45	307
46	7
47	5
49	1
50	17
51	57
52	15
53	17
54	17
55	49
56	15
57	119
58	18
59	51
60	125
61	74
62	4
63	9
64	4
65	8
66	2
67	2
68	20
69	120
70	86
71	58
72	18
73	399
74	362
75	182
76	15
77	221
78	55
79	192
80	14
81	29
82	16
83	16
84	7
85	76
86	53
87	164
88	12
89	21
90	28
91	280
92	41
93	3
94	2
95	6
96	6
97	34
98	33
99	38
100	10
101	44
102	9
103	101
104	25
105	931
106	234
107	999
108	87
109	31
110	8
111	6
112	2
113	9
114	4
115	60
116	67
117	23
118	23
119	27
120	28
121	25
122	6
123	30
124	7
125	2
126	8
127	63
128	10
129	8
130	3
131	12
132	12
133	383
134	28
135	10
136	32
137	7
138	1
140	1
141	8
142	2
143	4
144	37
145	100
146	20
147	10
148	8
149	115
150	30
151	4
157	4
158	8
159	4
160	12
161	11
162	173
163	92
164	9
165	2
166	5
167	26
168	3
173	13
174	3
175	30
176	9
177	14
178	10
179	343
180	40
181	5
186	3
187	3
189	1
190	12
191	41
192	6
193	4
203	3
204	7
205	10
206	1
207	28
208	4
209	4
221	12
222	11
223	4
231	1
232	3
233	2
234	1
239	9
240	1
248	1
249	27
250	19
251	37
252	5
281	103
282	248
283	46
284	7
