Mass Spectrum: Pregna-1,4-diene-3,20-dione, 11,17,21-triacetoxy-
Formula: C27H34O8
CAS: 316374-42-2
Molecular weight: 486
m/z	intensity
43	999
54	21
71	10
73	94
77	49
79	49
91	86
97	28
101	11
102	15
105	12
107	6
115	22
117	35
119	24
121	149
122	63
123	23
129	53
130	7
132	28
133	10
135	77
138	7
143	38
144	9
145	52
147	147
159	42
161	11
163	24
171	45
173	73
185	19
186	18
187	24
193	23
196	17
197	9
211	41
221	7
223	87
224	46
225	14
226	24
232	17
236	15
237	30
239	10
249	62
250	70
251	18
263	80
265	887
266	154
267	17
278	63
279	30
281	14
282	33
283	301
284	56
291	34
306	168
307	104
309	11
325	147
326	42
343	13
366	18
384	12
385	10
413	49
426	10
443	38
486	34
