Mass Spectrum: 5-Methyl-6-keto-bicyclo(2.2.0)-5-aza-hex-2-ene
Formula: C6H7NO
CAS: 31638-95-6
Molecular weight: 109
m/z	intensity
27	81
38	77
39	286
40	53
42	291
50	121
51	164
52	999
53	121
55	88
63	17
64	18
65	45
66	32
68	21
78	22
79	58
80	211
81	306
82	32
89	13
92	185
93	7
94	7
108	26
109	281
110	26
