Mass Spectrum: 2-Piperidnobicyclo[3.3.1]nonan-9-ol
Formula: C14H25NO
CAS: 316365-51-2
Molecular weight: 223
m/z	intensity
41	307
42	155
43	77
44	69
45	7
47	3
48	2
49	1
50	2
51	1
52	5
53	41
54	45
55	176
56	75
57	78
58	8
59	1
60	1
63	2
65	14
66	7
67	77
68	36
69	58
70	46
71	7
72	1
75	1
77	25
78	6
79	49
80	18
81	35
82	33
83	29
84	228
85	169
86	49
87	2
88	1
89	0
91	24
92	4
93	22
94	15
95	19
96	76
97	31
98	999
99	73
100	4
101	1
103	2
104	1
105	5
106	3
107	3
108	6
109	7
110	49
111	71
112	17
113	7
114	5
115	3
116	1
117	2
118	1
119	3
120	4
121	9
122	16
123	15
124	746
125	78
126	6
127	6
128	3
129	8
130	2
131	1
133	2
134	3
135	2
136	5
137	4
138	9
139	3
140	5
141	1
143	2
144	19
145	4
147	1
148	2
149	0
150	6
151	2
152	10
153	1
154	2
162	2
163	1
164	3
165	1
166	5
167	3
168	2
176	3
177	1
178	2
179	0
180	4
181	1
182	3
183	2
192	2
194	4
195	5
196	18
197	4
198	1
199	1
204	4
205	2
206	45
207	10
208	8
209	2
220	2
221	1
222	27
223	143
224	30
225	18
226	5
227	1
229	0
