Mass Spectrum: Pyrido[3,4-b]pyrimido[5,4-d]thiophene-2(1H)-thione, 5,6,7,8-tetrahydro-4-amino-7-benzyl-
Formula: C16H16N4S2
CAS: 316360-90-4
Molecular weight: 328
m/z	intensity
33	13
34	37
36	11
38	12
39	47
40	40
41	37
42	91
43	47
44	17
45	32
46	3
48	11
50	10
51	34
52	14
53	11
54	7
55	23
57	17
58	12
59	18
60	29
62	5
63	25
64	45
65	141
66	17
67	8
68	5
69	19
70	15
71	12
72	3
73	7
74	8
75	5
76	16
77	49
78	21
79	12
80	10
81	8
82	9
83	13
84	11
85	20
86	6
87	3
88	6
89	23
91	999
92	126
93	18
94	14
95	11
96	28
97	14
98	5
99	3
101	4
102	15
103	12
104	17
105	58
106	24
107	18
108	10
109	8
110	8
111	7
112	8
113	4
114	2
115	5
116	6
117	18
118	36
119	19
120	40
121	23
122	36
123	14
124	20
125	11
126	5
127	2
128	4
129	5
130	5
131	7
132	8
133	9
134	23
135	20
136	11
137	14
138	6
139	3
140	4
142	5
143	34
144	13
145	5
146	6
147	17
148	18
149	37
150	211
151	200
152	39
153	13
154	5
156	3
157	4
159	5
160	8
161	28
162	12
163	15
164	10
165	9
166	3
167	5
168	12
169	10
170	4
171	10
172	2
173	2
174	6
175	32
176	118
177	62
178	71
179	16
180	8
181	8
182	3
184	3
185	2
186	3
187	3
188	4
189	2
190	5
191	6
192	18
193	14
194	11
195	6
196	3
197	5
198	1
199	1
200	1
201	7
202	18
203	16
204	8
205	16
206	7
207	13
208	120
209	780
210	204
211	86
212	20
213	5
215	1
216	17
217	5
218	8
219	3
220	8
221	4
222	17
223	6
224	5
225	1
226	1
227	2
233	3
234	77
235	47
236	43
237	294
238	55
239	34
240	6
241	3
250	18
251	17
252	5
253	4
256	1
257	4
264	12
265	4
266	7
267	3
268	62
269	17
270	103
271	19
272	8
273	1
279	1
283	2
291	5
293	4
295	11
296	18
297	3
298	2
299	5
300	5
308	2
310	1
322	4
323	1
324	10
325	5
326	5
327	137
328	479
329	102
330	45
331	7
