Mass Spectrum: 8-Nonenoic acid
Formula: C9H16O2
CAS: 31642-67-8
Molecular weight: 156
m/z	intensity
41	640
42	150
43	160
44	40
45	110
50	10
51	30
52	10
53	100
54	200
55	999
56	180
57	50
58	40
59	80
60	420
61	40
65	20
66	10
67	180
68	360
69	500
70	100
71	60
72	10
73	290
74	90
77	30
79	40
80	30
81	150
82	170
83	130
84	130
85	30
86	20
87	80
88	10
91	10
94	130
95	70
96	350
97	150
98	20
99	50
100	100
101	70
105	10
109	70
110	60
113	30
114	130
115	20
120	10
123	40
124	40
127	10
138	220
139	30
156	10
