Mass Spectrum: 3,3-Dimethyl-2-butanol, TMS derivative
Formula: C9H22OSi
CAS: 31650-04-1
Molecular weight: 174
m/z	intensity
15	2
26	1
27	11
28	4
29	28
30	1
31	3
38	1
39	19
40	3
41	53
42	7
43	49
44	18
45	75
46	6
47	27
48	1
49	1
50	1
51	4
52	1
53	7
54	1
55	17
56	5
57	36
58	26
59	38
60	8
61	32
62	2
63	2
64	4
65	1
67	3
68	1
69	15
70	5
71	7
72	26
73	784
74	80
75	335
76	24
77	12
83	2
84	1
85	4
86	1
87	17
88	2
89	2
97	1
99	3
101	26
102	11
103	4
104	1
113	1
115	19
117	999
118	125
119	47
120	3
127	1
129	1
143	4
144	1
157	1
159	155
160	22
161	7
162	1
173	4
174	1
