Mass Spectrum: Sulfonium, dimethyl[[(4-nitrophenyl)sulfonyl]amino]-, hydroxide, inner salt
Formula: C8H10N2O4S2
CAS: 31657-43-9
Molecular weight: 262
m/z	intensity
14	12
15	57
16	26
17	127
18	546
19	18
26	6
27	75
28	55
29	44
30	463
34	6
35	62
37	23
38	47
39	77
40	5
41	31
42	6
43	44
44	46
45	147
46	300
47	311
48	54
49	18
50	279
51	59
52	13
53	4
55	30
56	5
57	25
58	4
60	127
61	999
62	806
63	225
64	103
65	9
69	37
70	14
71	7
73	4
74	63
75	268
76	779
77	82
78	33
80	3
81	10
83	9
90	38
92	96
93	6
96	8
97	3
106	20
108	11
122	934
123	61
124	430
126	47
136	132
137	45
138	6
140	271
141	6
142	22
149	3
153	45
154	39
155	3
166	17
167	11
171	40
182	118
183	527
184	44
185	38
186	326
187	20
188	65
198	158
199	17
200	5
215	5
246	27
247	135
248	10
249	4
262	697
263	208
265	26
