Mass Spectrum: .alpha.-Naphthylphosphoryl dichloride
Formula: C10H7Cl2O2P
CAS: 31651-76-0
Molecular weight: 260
m/z	intensity
26	2
27	6
28	25
29	1
31	1
32	4
35	5
36	25
37	4
38	12
39	60
40	3
41	6
42	1
43	2
44	2
47	34
49	2
50	36
51	39
52	7
53	3
55	2
56	1
57	7
58	2
60	1
61	10
62	51
63	111
64	18
65	57
66	4
68	1
69	1
72	1
73	4
74	39
75	45
76	22
77	25
78	3
79	1
81	1
82	6
83	1
84	2
85	6
86	20
87	33
88	38
89	96
90	8
91	4
92	2
93	2
94	1
97	1
98	9
99	9
100	6
101	13
102	6
103	3
104	1
105	1
107	1
109	2
110	3
111	3
112	1
113	37
114	56
115	999
116	106
117	18
119	11
121	2
122	2
123	1
124	1
125	14
126	127
127	52
128	7
129	2
130	3
131	4
132	1
133	3
140	1
141	1
142	4
143	703
144	91
145	8
146	1
149	10
150	2
151	3
155	1
157	1
159	1
160	1
161	4
162	6
163	1
164	2
165	1
173	4
177	3
178	3
179	2
180	2
189	94
190	28
191	3
192	1
193	1
194	1
195	1
196	1
197	1
208	2
209	1
223	2
224	108
225	70
226	44
227	21
228	4
239	1
241	2
244	6
245	1
246	2
257	1
258	1
259	2
260	981
261	114
262	642
263	74
264	108
265	12
266	1
