Mass Spectrum: Pentanoic acid, 5-(phenylmethoxy)-, methyl ester
Formula: C13H18O3
CAS: 31662-20-1
Molecular weight: 222
m/z	intensity
41	70
42	50
43	30
44	10
45	20
50	20
51	60
52	20
53	10
55	80
56	30
57	20
59	50
63	20
64	10
65	100
66	10
70	10
71	70
72	10
73	210
74	50
75	10
77	110
78	30
79	60
83	30
84	20
85	20
87	260
88	20
89	30
90	20
91	999
92	150
93	10
99	210
100	20
101	10
104	10
105	110
106	70
107	250
108	40
114	20
115	120
116	180
117	20
118	10
131	50
161	20
162	20
190	10
222	30
