Mass Spectrum: Benzene, [(2-chlorohexyl)sulfonyl]-
Formula: C12H17ClO2S
CAS: 31662-29-0
Molecular weight: 260
m/z	intensity
25	1
26	18
27	477
28	33
29	418
30	8
31	1
33	0
34	1
35	1
36	5
37	4
38	10
39	266
40	32
41	829
42	127
43	434
44	14
45	14
46	1
47	2
48	2
49	14
50	90
51	441
52	35
53	100
54	44
55	999
56	155
57	109
58	6
59	1
60	0
61	4
62	16
63	31
64	8
65	41
66	15
67	93
68	7
69	58
70	3
71	1
73	2
74	15
75	34
76	41
77	930
78	480
79	95
80	6
81	54
82	659
83	985
84	81
85	4
86	0
87	1
88	1
89	7
90	4
91	34
92	4
93	5
94	41
95	5
96	1
97	28
98	1
99	2
100	0
102	1
103	4
104	2
105	5
108	2
109	6
110	4
111	2
112	4
113	1
114	1
115	5
116	2
117	16
118	12
119	133
120	13
121	41
122	2
123	2
124	0
125	94
126	25
127	7
128	1
129	1
131	1
139	0
140	0
141	67
142	161
143	742
144	56
145	34
146	2
147	0
153	0
159	19
160	3
167	1
169	1
177	5
179	2
182	1
183	3
184	0
192	0
193	0
195	2
196	1
197	0
198	0
201	0
204	0
205	0
224	2
225	102
226	14
227	5
228	1
231	0
260	19
261	4
262	6
263	1
264	0
