Mass Spectrum: 5-Allyl-2-norbornene
Formula: C10H14
CAS: 31663-53-3
Molecular weight: 134
m/z	intensity
27	26
38	12
39	94
40	31
41	46
50	13
51	29
52	12
53	26
63	18
65	80
66	999
67	118
68	14
77	80
78	28
79	64
80	38
91	91
92	52
93	31
105	22
106	12
119	36
132	11
134	42
