Mass Spectrum: Diethyl chloromethanephosphonate
Formula: C5H12ClO3P
CAS: 3167-63-3
Molecular weight: 186
m/z	intensity
14	3
15	18
16	1
18	2
25	1
26	21
27	146
28	96
29	363
30	9
31	80
32	5
33	3
35	1
36	9
38	3
39	3
41	10
42	9
43	52
44	10
45	203
46	5
47	80
48	37
49	113
50	4
51	35
55	2
57	2
59	3
61	8
62	8
63	5
64	3
65	201
66	1
67	3
68	1
76	2
77	16
78	23
79	8
80	3
81	767
82	5
83	77
84	1
85	23
91	316
92	10
93	144
94	4
95	30
96	6
97	9
99	9
100	1
101	1
105	2
106	1
107	4
108	2
109	999
110	24
111	8
112	13
113	248
114	33
115	84
116	9
117	2
121	2
123	2
125	2
127	5
129	1
130	69
131	423
132	28
133	136
134	2
135	1
137	374
138	17
139	3
141	117
142	58
143	95
144	19
145	19
151	1
155	6
157	55
158	58
159	676
160	42
161	214
162	7
163	1
171	31
172	1
173	9
185	8
186	50
187	24
188	17
189	7
