Mass Spectrum: 7-Benzyloxytryptamine
Formula: C17H18N2O
CAS: 31677-75-5
Molecular weight: 266
m/z	intensity
41	12
51	13
63	16
64	7
65	109
77	21
89	45
91	999
92	111
101	20
102	12
103	8
116	11
117	83
118	49
128	31
129	13
130	17
145	109
146	398
147	46
158	18
159	6
160	4
173	6
174	8
175	17
204	3
206	2
208	6
218	2
220	5
222	3
234	16
236	204
237	387
238	65
248	5
249	5
266	143
267	27
