Mass Spectrum: 3-[3-Succinimidopropyl]-2-oxazolidinone
Formula: C10H14N2O4
CAS: 31673-60-6
Molecular weight: 226
m/z	intensity
41	194
42	190
43	21
44	126
45	5
47	2
49	9
51	4
52	5
53	2
54	76
55	208
56	999
57	265
58	30
59	1
63	9
66	2
67	1
68	72
70	441
71	13
72	11
73	4
74	0
80	9
82	23
83	337
84	57
85	15
86	6
88	9
94	2
96	8
98	21
100	138
101	19
102	0
109	4
110	7
112	32
114	121
115	5
124	1
125	3
126	20
127	12
128	0
138	1
139	3
140	92
141	4
153	19
154	5
167	4
168	4
182	19
183	0
210	1
226	12
227	1
