Mass Spectrum: 2-Furanacetaldehyde, .alpha.-propyl-
Formula: C9H12O2
CAS: 31681-26-2
Molecular weight: 152
m/z	intensity
41	85
43	15
44	5
50	15
51	50
52	25
53	110
54	5
55	40
57	5
62	5
63	20
64	5
65	50
66	25
67	30
68	5
69	5
77	45
78	5
79	30
80	5
81	999
82	60
91	15
93	5
94	30
95	30
96	5
97	5
107	15
108	5
109	5
110	5
121	5
122	5
123	215
124	20
152	60
153	5
