Mass Spectrum: 16-Pregnenolone
Formula: C21H32O2
CAS: 31686-13-2
Molecular weight: 316
m/z	intensity
41	187
43	999
44	34
45	27
53	80
55	218
57	206
59	6
65	31
67	142
68	18
69	87
70	19
71	57
77	102
78	32
79	200
81	191
83	82
84	36
85	74
86	18
91	190
92	11
93	170
94	24
95	105
96	35
97	46
98	30
99	6
100	23
105	159
106	41
107	190
108	25
109	101
110	7
111	83
113	53
115	83
117	71
118	6
119	79
120	7
121	114
122	18
123	41
124	6
128	59
129	28
131	67
132	6
133	99
134	8
135	122
136	11
137	40
142	32
143	31
145	70
147	90
148	19
149	33
150	20
157	17
158	7
159	63
160	13
161	156
162	6
163	34
171	18
173	35
175	39
177	14
185	21
187	40
189	30
199	16
201	25
203	7
213	6
215	17
255	75
256	7
265	34
271	13
272	6
273	240
274	53
283	59
284	7
301	80
302	7
314	6
316	220
317	68
