Mass Spectrum: S-2-[2-Succinimidoethylamino]ethyl thiosulfuric acid
Formula: C8H14N2O5S2
CAS: 31701-74-3
Molecular weight: 282
m/z	intensity
41	81
42	168
43	166
44	440
45	105
46	23
47	24
48	507
49	8
50	28
51	2
52	12
53	12
54	65
55	234
56	263
57	48
58	54
59	100
60	156
61	140
62	12
64	999
65	97
66	58
67	30
68	37
69	44
70	45
71	17
72	14
73	11
74	7
75	2
76	127
77	8
78	16
79	3
80	13
81	26
82	17
83	16
84	27
85	16
86	24
87	11
88	29
89	1
90	115
91	7
92	7
93	14
94	6
95	21
96	38
97	15
98	38
99	24
100	12
101	13
102	21
103	7
104	2
105	1
106	1
107	4
108	4
109	29
110	10
111	6
112	8
113	7
114	20
115	4
116	14
117	8
118	3
119	9
120	3
121	7
122	6
123	37
124	41
125	63
126	294
127	29
128	12
129	7
130	2
131	1
132	1
133	2
134	0
135	1
136	2
137	17
138	23
139	8
140	6
141	11
142	21
143	13
144	3
145	1
146	3
148	5
149	2
150	2
151	28
152	4
153	26
155	399
156	37
157	5
158	1
159	0
160	1
161	1
162	1
163	1
165	1
166	1
167	1
168	5
169	10
170	4
171	3
172	0
177	0
178	1
179	1
180	2
181	5
182	29
183	18
184	63
185	21
186	6
187	2
188	0
192	1
194	0
195	1
196	1
197	0
198	1
199	0
200	6
201	6
202	3
203	27
204	5
205	1
206	0
224	1
225	0
226	6
227	1
228	0
229	0
233	1
234	6
235	1
236	0
282	0
