Mass Spectrum: S-2-[4-Succinimidobutylamino]ethyl thiosulfuric acid
Formula: C10H18N2O5S2
CAS: 31701-76-5
Molecular weight: 310
m/z	intensity
41	243
42	237
43	180
44	380
45	259
46	15
47	34
48	500
49	1
50	26
51	5
52	7
53	32
54	61
55	569
56	360
57	87
58	67
59	77
60	68
61	209
62	7
63	9
64	999
65	32
66	56
67	16
68	36
69	39
70	170
71	33
72	71
73	10
74	8
75	1
76	32
77	11
78	10
79	7
80	22
81	11
82	57
83	20
84	305
85	46
86	38
87	14
88	52
89	6
90	139
91	3
92	18
93	11
94	6
95	3
96	16
97	23
98	32
99	12
100	589
101	12
102	52
103	5
105	1
106	1
108	1
110	10
112	265
113	54
114	76
115	13
116	18
117	4
118	6
119	4
120	12
121	3
122	4
123	8
124	13
125	9
126	19
127	17
128	10
129	4
130	4
131	3
132	1
133	7
138	3
140	23
141	11
142	6
143	4
144	1
146	7
150	1
151	11
152	12
154	233
155	20
160	8
162	1
165	6
168	1
169	8
170	22
171	27
172	3
181	8
183	938
184	95
185	9
192	3
194	2
195	6
196	5
197	18
198	1
199	4
209	6
210	4
211	11
212	1
224	4
226	5
227	1
229	12
231	90
232	10
233	4
236	1
237	8
239	21
241	39
242	2
243	6
253	3
254	17
255	4
256	3
260	6
262	9
263	2
267	138
268	21
269	11
270	3
272	6
273	1
280	12
282	2
286	4
294	1
310	6
311	1
