Mass Spectrum: S-2-[4-Glutarimidobutylamino]ethyl thiosulfuric acid
Formula: C11H20N2O5S2
CAS: 31701-78-7
Molecular weight: 324
m/z	intensity
41	74
42	127
43	101
44	133
45	221
46	79
48	480
50	27
53	7
54	11
55	163
56	79
57	22
58	17
59	11
60	10
61	48
64	999
65	9
66	51
67	5
68	11
69	16
70	53
71	7
72	22
73	4
74	5
77	2
79	26
80	51
81	18
82	66
83	3
84	140
86	45
87	4
88	14
90	56
91	2
92	1
93	1
95	3
96	9
97	17
98	53
99	7
100	3
101	1
102	5
105	0
107	2
108	1
109	2
110	1
111	3
112	3
114	52
115	7
116	5
126	69
127	12
129	1
130	1
132	1
136	19
138	18
140	6
142	2
143	5
154	3
165	4
166	4
168	65
169	4
183	5
185	1
194	9
195	5
197	344
198	40
199	1
210	2
211	8
212	2
213	1
223	10
225	0
237	5
243	3
245	14
246	1
255	5
257	2
281	5
283	1
324	1
