Mass Spectrum: N-Methyl-N-[2-methyl-2-[7-chloro-4-quinolylaminno]ethyl]hydrazine
Formula: C13H17ClN4
CAS: 31702-54-2
Molecular weight: 264
m/z	intensity
42	254
44	999
45	20
50	5
51	6
52	14
53	1
54	2
55	1
56	7
57	11
58	11
59	28
60	1
61	1
62	8
63	15
64	3
65	2
68	1
69	1
71	4
73	9
74	6
75	9
76	2
85	4
87	15
88	8
89	8
90	1
97	1
98	1
99	16
100	7
101	1
102	1
109	1
111	1
114	15
115	9
116	8
117	1
123	20
124	5
125	7
126	4
127	3
128	1
135	6
136	3
137	1
140	1
141	1
142	8
143	7
144	1
150	65
151	7
152	29
153	5
155	1
160	1
162	7
163	3
164	2
169	3
170	3
176	1
177	28
178	191
179	21
180	78
181	8
184	6
185	1
188	1
189	0
191	14
192	10
193	5
194	3
204	5
205	16
206	12
207	7
208	2
218	1
220	36
221	14
222	13
223	3
236	1
237	1
263	4
264	87
265	47
266	29
267	15
268	3
