Mass Spectrum: Furan-2(5H)-one, 4-benzylamino-3-bromo-5-(2-oxopropyl)-
Formula: C14H14BrNO3
CAS: 317326-66-2
Molecular weight: 323
m/z	intensity
33	8
36	1
37	2
39	89
41	44
43	244
44	57
51	65
52	17
53	8
54	9
55	2
56	0
57	2
58	6
59	0
63	36
65	163
66	8
67	6
68	5
69	2
70	1
71	2
74	5
75	4
77	30
78	10
79	12
80	8
81	5
82	6
83	1
85	2
87	3
89	35
91	999
92	54
94	0
96	2
97	2
98	0
99	1
100	1
102	14
103	12
104	10
105	8
106	9
107	3
108	0
110	0
112	3
113	0
114	1
115	3
116	2
117	3
118	5
119	2
120	2
121	0
122	1
124	1
126	0
127	2
128	13
129	11
130	11
131	9
132	4
133	2
134	0
140	1
141	1
142	1
143	1
144	1
146	7
147	4
148	3
149	0
151	0
153	1
154	2
156	12
158	18
159	4
160	2
162	0
167	0
168	0
169	0
170	1
171	1
172	2
174	4
175	0
176	0
180	0
182	3
184	67
186	37
187	4
188	2
190	26
192	24
193	1
196	0
198	4
200	30
202	40
203	1
208	1
209	0
210	0
214	0
216	3
217	0
225	0
226	2
227	0
232	1
234	2
236	4
237	1
238	3
239	1
240	0
241	1
242	10
244	188
245	25
246	3
247	0
248	0
250	0
262	1
263	0
264	1
265	4
266	1
267	4
268	0
277	0
280	7
282	6
283	0
323	31
325	33
326	3
327	0
329	0
