Mass Spectrum: 1,3,2-Benzoxazaborole, 2-butyl-2,3-dihydro-
Formula: C10H14BNO
CAS: 31748-13-7
Molecular weight: 175
m/z	intensity
30	2
37	7
38	10
39	40
40	5
41	27
42	10
43	20
44	10
45	2
49	2
50	10
51	17
52	20
53	15
54	5
55	12
56	7
61	5
62	10
63	35
64	35
65	60
66	10
67	5
72	10
73	10
74	5
75	5
76	10
77	30
78	20
79	10
80	2
84	2
85	4
87	2
88	5
89	7
90	35
91	55
92	55
93	5
101	2
102	5
103	15
104	20
105	45
106	5
115	2
116	5
117	20
118	245
119	999
120	87
121	5
128	10
131	25
132	165
133	275
134	24
140	4
141	2
142	3
143	15
144	20
145	77
146	140
147	20
148	5
156	2
157	2
158	5
159	4
160	4
173	5
174	105
175	450
176	52
177	5
