Mass Spectrum: Tartaric acid, anhydride with 1-butaneboronic acid (1:2), cyclic 1,3:4,2-diester
Formula: C12H20B2O6
CAS: 31748-02-4
Molecular weight: 282
m/z	intensity
37	15
38	17
39	208
40	57
41	600
42	370
43	860
44	60
45	55
50	8
51	18
52	32
53	430
54	270
55	999
56	267
57	222
58	26
59	22
65	26
66	32
67	110
68	168
69	580
70	375
71	283
72	20
73	27
77	14
78	8
79	30
80	30
81	104
82	178
83	215
84	255
85	328
86	196
87	82
93	15
94	12
95	52
96	260
97	540
98	155
99	315
100	45
101	10
107	10
108	12
109	50
110	113
111	260
112	334
113	510
114	84
115	124
121	10
122	15
123	55
124	220
125	500
126	230
127	195
128	50
129	18
136	10
137	50
138	135
139	265
140	80
141	118
142	100
143	20
150	16
151	33
152	123
153	402
154	405
155	412
156	325
157	360
158	30
162	8
163	15
164	10
165	20
166	78
167	155
168	103
169	138
170	98
171	15
179	53
180	354
181	700
182	93
183	72
184	23
194	40
195	238
196	500
197	240
198	183
199	50
200	5
206	15
207	70
209	55
210	65
211	40
212	35
222	5
223	10
224	13
225	40
226	48
227	5
235	8
236	55
237	104
238	34
239	135
240	262
241	30
242	5
251	10
252	28
253	20
281	1
282	5
283	6
284	1
