Mass Spectrum: 2'-Acetonaphthone, 1',2'.alpha.,3',4',4'a,5',6',7',8',8'a.alpha.-decahydro-5'.beta.-hydroxy-4'a.beta.,8'.beta.-dimethyl-, (.+-.)-
Formula: C14H24O2
CAS: 31756-49-7
Molecular weight: 224
m/z	intensity
26	2
27	208
28	91
29	333
30	10
38	1
39	233
40	40
41	608
42	71
43	999
44	179
45	121
46	1
50	2
51	35
52	6
53	197
54	36
55	509
56	44
57	99
58	31
59	4
63	3
64	1
65	75
66	30
67	375
68	65
69	284
70	35
71	208
72	112
73	3
77	150
78	38
79	250
80	69
81	458
82	91
83	166
84	391
85	190
86	21
87	2
90	1
91	183
92	39
93	316
94	108
95	441
96	130
97	116
98	41
99	14
100	0
103	3
104	2
105	108
106	33
107	408
108	100
109	191
110	104
111	275
112	41
113	12
114	25
115	60
116	1
119	17
120	45
121	250
122	116
123	258
124	53
125	75
133	42
135	70
136	60
137	83
138	57
139	9
147	40
148	54
149	141
150	62
151	31
159	21
161	43
162	47
163	591
164	106
165	82
167	87
168	60
173	32
177	38
180	27
181	68
188	24
191	82
206	316
207	56
224	350
225	54
