Mass Spectrum: S-[2-[3-[cis-1,2-Cyclohexanedicarboximido]propylamino]ethylthiosulfuric acid
Formula: C13H22N2O5S2
CAS: 31750-86-4
Molecular weight: 350
m/z	intensity
41	346
42	181
43	113
44	999
45	86
46	10
47	14
48	439
50	34
51	20
52	20
53	111
54	164
55	126
56	397
57	79
58	83
59	59
60	55
61	140
62	3
64	953
65	34
66	53
67	183
68	62
69	32
70	115
71	16
72	3
73	3
75	3
76	5
77	40
78	10
79	100
80	73
81	271
82	184
83	51
84	132
85	5
86	26
88	118
90	147
91	6
92	10
93	17
95	75
96	18
97	20
98	17
99	8
100	3
101	4
102	55
103	5
104	7
106	3
108	23
109	51
110	45
111	10
112	17
113	6
114	51
115	3
116	33
117	4
124	17
125	8
126	10
127	17
128	12
130	9
131	4
133	4
134	3
135	7
136	9
137	14
138	40
139	7
142	3
146	3
151	4
152	12
153	32
154	17
156	3
160	4
162	7
163	21
164	16
166	180
167	26
179	3
180	13
181	32
185	11
186	8
187	5
189	5
190	6
191	9
192	28
193	8
194	829
195	91
196	9
207	10
210	22
211	4
212	5
217	7
218	5
219	9
221	28
223	846
224	116
225	9
226	4
235	11
237	25
246	3
249	6
250	5
267	6
270	7
271	44
272	3
279	3
281	13
284	3
294	18
300	3
302	3
350	3
