Mass Spectrum: 1H-Imidazo[1,2-a]pyridin-4-ium, 3-(chloroacetyl)-2-hydroxy-1-(phenylmethyl)-, hydroxide, inner salt
Formula: C16H13ClN2O2
CAS: 31757-80-9
Molecular weight: 300
m/z	intensity
17	12
18	58
26	7
27	18
28	41
29	1
32	6
35	1
36	9
37	1
38	10
39	61
40	7
41	26
42	12
43	3
44	1
47	1
49	20
50	15
51	66
52	27
53	12
60	1
62	6
63	38
64	20
65	160
66	10
75	1
76	10
77	41
78	58
79	18
80	1
83	10
85	3
89	33
91	999
92	73
93	1
100	3
101	4
102	10
103	27
104	53
105	61
106	7
111	15
112	1
114	1
115	9
116	13
117	10
118	92
119	7
120	4
121	12
125	6
126	1
127	4
128	4
129	4
131	12
132	3
133	4
134	1
139	9
140	9
141	1
144	4
145	15
146	7
147	15
149	4
150	10
151	3
153	4
154	4
155	1
159	4
160	20
161	18
181	18
182	1
183	20
184	1
192	7
193	9
194	9
195	27
196	3
197	1
219	1
220	1
221	7
222	1
223	30
224	15
225	1
235	7
237	49
238	10
240	3
250	7
251	676
252	104
253	10
265	10
266	12
299	10
300	492
301	87
302	164
303	27
304	1
