Mass Spectrum: Androst-5-en-4-one, 3.beta.-fluoro-17.beta.-hydroxy-, acetate
Formula: C21H29FO3
CAS: 31756-72-6
Molecular weight: 348
m/z	intensity
41	430
43	999
44	100
53	208
55	375
65	166
67	236
77	333
78	104
79	354
80	100
81	263
91	625
92	118
93	361
94	152
95	208
97	100
105	416
106	138
107	222
108	152
109	138
115	208
116	100
117	277
118	166
119	388
120	138
121	166
123	100
126	111
128	201
129	208
130	263
131	388
132	138
133	486
134	375
135	100
141	166
142	125
143	291
144	131
145	340
146	277
147	763
148	263
149	118
151	104
153	125
154	100
155	347
156	131
157	134
159	118
165	111
167	100
177	104
179	194
181	194
193	111
199	111
215	118
219	131
245	291
247	118
260	472
273	444
274	208
288	375
289	100
291	277
300	125
306	100
320	333
330	569
331	145
333	100
348	999
349	250
