Mass Spectrum: Thiosulfuric acid, S-ester with N-[2-[(2-mercaptoethyl)amino]ethyl]-1,2-cyclohexanedicarboximide, cis-
Formula: C12H20N2O5S2
CAS: 31750-85-3
Molecular weight: 336
m/z	intensity
41	374
42	340
43	781
44	293
45	157
46	47
47	63
48	610
49	3
50	66
51	48
52	43
53	216
54	234
55	210
56	445
57	47
58	86
59	110
60	94
61	267
64	999
65	157
66	66
67	219
68	68
69	24
70	302
71	7
72	51
73	20
74	21
75	12
76	44
77	90
79	198
80	17
81	420
82	104
83	28
84	20
85	19
86	45
87	12
88	152
90	483
91	30
92	18
93	32
95	51
96	33
97	19
98	79
99	44
100	12
101	24
102	57
103	36
104	17
105	13
106	11
107	18
108	36
109	75
110	32
111	6
112	20
114	120
115	14
116	56
117	51
118	9
119	19
120	19
121	20
122	23
123	9
124	64
125	18
127	31
128	4
129	10
130	22
131	11
132	8
133	11
134	9
135	10
136	10
137	6
138	22
139	7
140	2
142	16
143	7
144	6
145	11
146	12
147	11
148	12
149	31
150	16
151	4
152	89
153	13
154	23
155	7
157	6
158	3
159	2
160	10
161	11
162	6
163	14
164	5
166	19
167	34
168	6
170	22
171	28
172	22
173	19
174	13
175	16
176	26
177	26
178	31
180	653
181	59
182	5
185	14
186	10
187	2
189	6
190	5
191	2
192	6
194	4
195	13
197	63
198	5
199	7
203	31
204	27
205	24
206	2
207	37
209	608
210	72
211	9
213	2
218	2
220	2
221	2
222	14
223	53
224	8
225	7
230	5
231	4
232	22
233	16
234	3
235	10
236	19
237	18
238	18
239	9
241	2
249	2
251	5
252	2
253	2
255	20
256	2
257	145
258	22
259	12
261	3
264	8
265	30
267	83
268	10
269	7
278	8
279	2
280	24
281	8
282	2
283	3
286	4
288	20
289	7
335	2
336	2
