Mass Spectrum: trans-5,6-Dimethyl-3,7,9-trioxabicyclo[4.2.1]nonane
Formula: C8H14O3
CAS: 31759-27-0
Molecular weight: 158
m/z	intensity
39	69
41	130
43	999
55	49
57	60
58	29
61	30
67	10
69	30
71	10
73	19
85	40
86	438
98	19
99	20
100	79
115	100
116	99
129	9
158	19
