Mass Spectrum: 1H-Imidazo[1,2-a]pyridin-4-ium, 2-(chloroacetyl)-3-hydroxy-1-(phenylmethyl)-, hydroxide, inner salt
Formula: C16H13ClN2O2
CAS: 31757-85-4
Molecular weight: 300
m/z	intensity
39	103
40	16
41	86
42	30
43	76
44	16
45	6
49	33
50	50
51	138
52	58
53	16
54	5
55	25
56	33
57	16
58	1
60	3
61	6
62	13
63	46
64	20
65	171
66	13
67	5
68	1
69	10
70	10
71	10
73	5
74	15
75	13
76	50
77	80
78	466
79	80
80	5
81	5
83	5
84	5
89	50
90	30
91	999
92	83
93	10
94	1
95	1
96	1
97	5
102	5
103	11
104	83
105	933
106	63
107	5
115	15
116	10
117	13
118	28
119	5
120	3
161	13
165	11
166	16
167	11
181	88
182	11
183	33
193	11
194	11
195	60
196	11
209	153
210	20
211	50
212	5
223	78
224	28
225	5
237	16
238	3
251	10
265	30
266	5
300	166
301	33
302	56
303	11
