Mass Spectrum: Manganese, dicarbonyl[(4a,4b,8a,9,9a-.eta.)-9H-fluoren-9-yl](triphenylphosphine)-
Formula: C33H24MnO2P
CAS: 31760-88-0
Molecular weight: 538
m/z	intensity
55	110
82	94
83	118
107	110
108	999
139	55
165	692
166	566
183	606
219	15
220	15
240	39
262	944
317	70
482	795
538	4
