Mass Spectrum: 3-Phenyl-[1,2,4]triazolo[3,4-b][1,3,4]thiadiazol-6-amine
Formula: C9H7N5S
CAS: 3176-53-2
Molecular weight: 217
m/z	intensity
33	15
34	57
36	4
37	36
38	66
39	181
40	18
41	64
42	340
43	37
44	304
45	59
46	43
47	9
48	2
49	23
50	290
51	257
52	103
53	145
54	10
58	118
59	536
60	686
61	76
62	110
63	124
64	45
65	21
69	28
70	81
71	2
72	18
73	13
74	59
75	122
76	481
77	246
78	13
84	4
85	26
86	116
87	14
88	20
89	12
90	2
91	1
92	1
94	3
95	3
98	1
99	6
100	3
101	3
102	33
103	999
104	455
105	48
109	2
117	4
120	2
121	3
128	2
129	14
142	6
146	4
147	9
148	2
161	6
173	5
175	3
189	9
190	1
201	8
202	1
203	1
217	202
218	31
219	13
