Mass Spectrum: S-3-[5-Phthalimidopentylamino]propyl dihydrogen phosphorothioate
Formula: C16H23N2O5PS
CAS: 31786-69-3
Molecular weight: 386
m/z	intensity
41	261
42	94
44	999
45	21
47	116
48	1
49	4
50	37
51	23
52	1
53	12
54	12
56	188
57	28
58	17
59	4
61	85
63	26
64	4
65	17
67	13
68	10
69	29
70	54
71	3
72	15
73	8
74	6
75	61
76	58
77	74
78	7
80	2
81	28
82	98
84	37
86	7
90	43
91	61
92	8
95	1
96	7
98	79
99	3
102	24
104	500
105	50
106	22
112	3
116	3
117	3
118	1
119	7
124	3
130	57
131	1
132	3
133	38
134	1
146	24
147	1
148	13
158	3
160	216
161	10
174	2
186	9
213	1
231	13
245	195
246	27
273	6
306	20
307	11
