Mass Spectrum: Cyclohexane, 1,1'-methylenebis-
Formula: C13H24
CAS: 3178-23-2
Molecular weight: 180
m/z	intensity
25	2
27	49
28	2
29	82
30	2
31	0
37	1
38	1
39	72
40	11
41	342
42	23
43	38
44	0
47	0
49	0
50	1
51	6
52	5
53	43
54	88
55	861
56	45
57	8
58	0
59	0
60	0
61	0
63	1
64	0
65	11
66	17
67	349
68	62
69	57
70	7
71	1
72	0
73	0
74	0
75	0
76	0
77	14
78	3
79	21
80	10
81	162
82	958
83	999
84	60
85	2
89	0
91	5
92	2
93	4
94	2
95	31
96	279
97	196
98	20
99	1
103	0
105	0
107	1
108	2
109	39
110	11
111	1
112	0
121	0
122	0
123	6
124	5
125	0
135	0
136	0
137	2
138	4
139	0
151	1
152	4
153	0
174	0
178	0
179	1
180	190
181	26
182	1
