Mass Spectrum: S-2-[3-Phthalimidopropylamino]-2-methylpropyl hydrogen thiosulfate
Formula: C15H20N2O5S2
CAS: 31786-59-1
Molecular weight: 372
m/z	intensity
41	299
42	152
43	86
44	85
45	193
46	42
47	60
48	404
49	13
50	198
51	105
52	37
53	129
54	95
55	428
56	305
57	152
58	162
59	80
60	27
61	18
62	21
63	8
64	999
65	31
66	47
67	15
68	21
69	38
70	114
71	166
72	51
73	66
74	64
75	115
76	314
77	166
78	25
79	14
80	32
81	24
82	33
83	5
84	113
85	67
86	42
87	192
88	158
89	61
90	34
91	15
92	5
93	6
94	10
95	8
96	45
97	5
98	89
99	34
100	16
101	26
102	210
103	238
104	228
105	115
106	15
107	9
108	8
109	37
110	12
111	7
112	2
114	8
115	19
116	63
117	86
118	37
119	27
120	19
121	2
125	6
126	6
127	5
128	21
129	20
130	447
131	135
132	38
133	70
134	10
138	2
141	13
142	39
143	16
144	7
145	7
146	16
147	144
148	71
149	56
150	12
151	8
152	11
154	2
155	2
156	7
157	52
158	47
159	10
160	711
161	108
162	9
169	18
170	5
171	66
172	9
173	7
174	23
175	13
183	11
184	7
185	403
186	576
187	105
188	370
189	47
192	11
201	7
202	4
203	11
204	9
205	12
206	3
215	13
216	2
217	18
224	4
229	2
234	10
242	2
243	25
244	4
245	972
246	152
247	16
248	5
256	2
257	2
258	14
259	14
277	10
288	2
289	9
290	2
291	40
292	7
293	10
371	14
372	14
373	5
