Mass Spectrum: 2-[2-[2-Oxo-3-oxazolidinyl]ethyl]-1,2-benzisothiazolin-3-one, 1,1-dioxide
Formula: C12H12N2O5S
CAS: 31792-25-3
Molecular weight: 296
m/z	intensity
42	118
43	3
44	15
45	6
47	12
49	26
50	55
51	15
54	80
56	999
57	6
58	0
61	1
63	11
64	7
65	11
69	271
71	1
73	0
74	16
76	132
77	84
78	7
80	0
81	1
82	1
83	43
84	12
86	12
88	7
89	3
90	13
91	13
92	6
95	2
96	8
97	0
100	424
101	12
102	11
104	98
105	50
106	2
108	2
112	1
113	338
114	11
115	1
116	0
117	11
118	4
119	3
120	5
121	4
127	5
130	8
132	25
133	3
134	6
136	2
145	28
146	19
147	6
148	0
152	6
159	42
160	2
161	2
166	0
169	13
173	4
184	0
188	3
196	59
210	5
252	23
296	4
