Mass Spectrum: 3H-1,2,4-Triazole-3-thione, 1,2-dihydro-
Formula: C2H3N3S
CAS: 3179-31-5
Molecular weight: 101
m/z	intensity
12	9
13	17
14	11
15	5
16	3
18	0
26	12
27	49
28	153
29	52
30	3
31	0
32	58
33	18
34	5
35	2
38	10
39	8
40	5
41	36
42	216
43	179
44	74
45	108
46	44
47	38
48	4
50	18
52	3
53	2
55	4
58	18
59	64
60	67
61	6
67	3
68	4
69	6
70	29
71	30
72	10
73	3
74	191
75	7
76	9
101	999
102	39
103	38
