Mass Spectrum: 6-Dodecanone, 5,8-diethyl-7-hydroxy-
Formula: C16H32O2
CAS: 31814-59-2
Molecular weight: 256
m/z	intensity
41	382
42	57
43	333
55	387
56	64
57	999
58	60
59	257
69	646
70	82
71	87
72	101
73	109
83	33
85	42
87	119
88	50
99	281
100	34
101	33
102	51
111	363
112	51
127	222
128	230
129	639
130	84
158	163
200	29
256	16
