Mass Spectrum: 2-Propanamine, N-nitro-
Formula: C3H8N2O2
CAS: 3182-74-9
Molecular weight: 104
m/z	intensity
30	726
39	183
41	368
42	500
43	433
44	224
46	180
55	161
57	73
59	870
89	999
104	47
