Mass Spectrum: N-(Furan-3-ylmethylene-hydrazinocarbonylmethyl)-benzamide
Formula: C14H13N3O3
CAS: 318259-19-7
Molecular weight: 271
m/z	intensity
37	3
38	11
39	47
40	10
41	5
42	3
43	6
44	6
45	6
46	0
49	1
50	33
51	108
52	54
53	19
54	16
55	10
56	5
57	3
58	0
59	0
61	0
62	1
63	3
64	4
65	5
66	8
67	2
68	2
69	3
70	1
71	1
73	1
74	7
75	8
76	24
77	423
78	34
79	7
80	16
81	44
82	6
83	4
84	3
85	0
89	1
90	1
91	5
92	1
93	6
94	24
95	11
96	15
97	2
98	0
99	0
101	0
102	0
104	25
105	999
106	78
107	6
108	6
109	42
110	906
111	70
112	5
113	0
114	0
115	1
116	2
117	4
118	1
119	1
120	1
121	5
122	14
123	3
124	1
125	0
126	0
127	0
128	0
129	0
130	0
131	0
132	2
134	207
135	56
136	6
137	32
138	3
139	0
140	0
141	0
142	0
143	0
144	0
147	0
148	2
149	2
150	19
151	2
152	1
153	0
154	0
155	0
156	0
157	0
160	1
161	7
162	62
163	6
164	1
165	0
166	7
167	0
171	1
178	0
182	0
185	0
191	0
203	0
205	0
206	0
213	0
214	0
215	0
227	0
228	0
229	0
230	0
231	0
232	0
271	34
272	5
273	0
