Mass Spectrum: Pentanoic acid, 3,3-dimethyl-4-semicarbazono-
Formula: C8H15N3O3
CAS: 318271-31-7
Molecular weight: 201
m/z	intensity
33	14
34	15
35	12
36	55
37	12
38	51
39	381
40	308
41	742
42	506
43	559
44	581
45	121
46	7
47	2
48	3
50	25
51	49
52	31
53	127
54	52
55	315
56	261
57	752
58	125
59	217
60	103
61	45
62	6
63	13
64	8
65	29
66	16
67	79
68	35
69	131
70	36
71	46
72	191
73	21
74	16
75	9
76	8
77	22
78	7
79	30
80	37
81	71
82	128
83	307
84	55
85	43
86	11
87	36
88	3
89	7
90	8
91	8
92	4
93	5
94	15
95	25
96	82
97	114
98	85
99	224
100	999
101	70
102	16
103	5
104	5
105	9
106	5
107	10
108	5
109	18
110	14
111	29
112	20
113	157
114	18
115	119
116	38
117	6
118	3
119	2
120	4
121	3
122	6
123	10
124	31
125	184
126	24
127	59
128	8
129	4
130	0
131	0
132	1
133	2
134	2
135	2
136	2
137	3
138	7
139	72
140	211
141	37
142	87
143	20
144	7
145	2
146	1
147	0
148	1
149	4
150	2
151	8
152	3
153	1
154	5
155	9
156	71
157	16
158	12
159	16
160	1
161	0
163	1
164	2
165	6
166	13
167	5
168	4
169	2
170	0
171	11
172	9
173	1
174	1
175	0
177	0
178	0
181	1
182	1
183	8
184	3
185	1
186	5
187	3
188	0
189	4
191	3
192	0
193	1
194	1
196	0
198	0
199	1
200	2
201	58
202	8
203	0
205	0
