Mass Spectrum: (1,2,3,3a,4,6a-Hexahydropentalen-2-yl)-dimethyl-amine
Formula: C10H17N
CAS: 31824-29-0
Molecular weight: 151
m/z	intensity
27	94
29	56
30	40
38	10
39	175
40	38
41	213
42	313
43	125
44	243
45	150
46	60
50	18
51	70
52	41
53	98
54	46
55	117
56	244
57	66
58	172
59	12
60	9
63	21
64	9
65	91
66	59
67	111
68	69
69	34
70	212
71	999
72	127
73	8
75	11
76	9
77	171
78	97
79	206
80	63
81	80
82	164
83	40
84	249
85	168
86	18
89	10
91	201
92	34
93	53
94	221
95	129
96	120
97	87
98	26
99	14
102	14
103	25
104	15
105	87
106	90
107	109
108	157
109	101
110	312
111	38
117	8
118	10
119	8
120	32
121	28
122	696
123	180
124	48
132	8
134	25
135	13
136	331
137	94
138	9
148	16
149	18
150	243
151	798
152	146
153	10
