Mass Spectrum: 1H-Pyrrole-3-propanoic acid, 5-benzyloxycarbonyl-2-t-butoxycarbonyl-4-methyl-, methyl ester
Formula: C22H27NO6
CAS: 31837-46-4
Molecular weight: 401
m/z	intensity
27	8
28	6
29	29
31	1
39	24
40	3
41	67
42	7
43	29
44	4
45	6
50	2
51	8
52	4
53	8
54	2
55	27
56	21
57	104
58	5
59	9
60	4
61	1
63	5
64	3
65	60
66	6
67	9
68	3
69	15
70	5
71	16
73	5
75	1
76	3
77	24
78	11
79	19
80	5
81	8
82	4
83	12
84	5
85	10
86	0
87	1
89	11
90	10
91	999
92	111
93	8
94	7
95	8
96	4
97	11
98	3
99	4
102	1
103	1
104	20
105	14
106	8
107	29
108	10
109	5
110	2
111	8
112	2
113	2
115	1
117	1
118	1
119	9
120	6
121	11
122	5
123	7
124	3
125	6
126	1
127	2
128	1
129	5
131	4
132	16
133	12
134	6
135	4
136	6
137	8
138	4
139	3
140	0
141	3
146	4
147	3
148	10
149	59
150	27
151	35
152	9
153	3
154	1
155	3
158	4
159	4
160	36
161	8
162	7
163	7
164	34
165	16
166	24
167	56
168	12
169	3
170	2
173	2
174	3
176	35
177	14
178	83
179	49
180	11
181	6
182	19
183	5
184	6
185	2
186	2
188	11
189	1
190	6
191	5
192	73
193	21
194	178
195	25
196	11
197	4
198	3
204	9
205	6
206	35
207	30
208	21
209	15
210	136
211	32
212	11
214	3
215	3
218	4
220	31
221	12
222	79
223	17
224	11
225	3
226	9
227	2
228	120
229	21
236	13
238	79
239	19
240	15
241	17
242	16
243	11
250	2
254	164
255	19
256	19
257	6
258	12
259	9
266	4
267	13
268	10
269	3
270	9
271	10
272	145
273	21
282	3
284	8
285	835
286	312
287	50
294	4
295	8
299	134
300	123
301	455
302	93
303	11
312	46
313	72
314	222
315	40
316	5
326	6
327	10
328	75
329	15
330	4
331	14
343	5
344	13
345	790
346	183
347	27
348	3
401	403
402	102
403	16
