Mass Spectrum: Cycloheptanone, 2-ethyl-
Formula: C9H16O
CAS: 3183-41-3
Molecular weight: 140
m/z	intensity
26	32
27	374
28	173
29	284
30	4
31	13
37	3
38	15
39	333
40	71
41	765
42	453
43	337
44	21
45	44
46	0
47	1
48	2
50	11
51	29
52	19
53	86
54	151
55	999
56	477
57	97
58	33
59	13
62	1
63	7
65	14
66	11
67	100
68	108
69	373
70	257
71	55
72	49
73	8
74	0
75	1
76	0
77	14
78	4
79	49
80	23
81	100
82	83
83	397
84	328
85	32
86	5
87	4
88	2
89	6
91	6
92	1
93	68
94	28
95	13
96	123
97	322
98	571
99	37
100	0
101	0
102	0
103	1
107	23
108	1
109	12
110	0
111	153
112	718
113	63
114	1
117	0
121	0
122	9
123	3
125	75
126	5
127	0
131	1
133	1
140	281
141	22
142	1
143	0
