Mass Spectrum: 2-Azabicyclo[2.2.2]octane-4,5,5-tricarbonitrile, 7-bromo-1-hydroxy-3-oxo-8-phenyl-
Formula: C16H11BrN4O2
CAS: 318466-17-0
Molecular weight: 370
m/z	intensity
33	14
38	70
39	143
40	61
41	163
42	213
44	670
46	2
50	184
51	449
52	342
53	118
54	27
55	27
56	5
57	12
58	6
61	7
62	73
63	189
64	81
65	76
66	26
67	13
68	43
69	29
70	38
73	1
74	90
75	116
77	999
78	144
79	74
80	91
81	31
82	29
83	8
84	1
85	4
86	16
87	42
88	59
89	96
90	68
91	106
92	24
93	12
94	7
95	12
96	55
97	125
98	19
99	19
100	31
102	435
103	961
104	387
105	99
107	602
108	45
109	6
110	2
111	10
113	69
114	61
115	130
117	718
118	75
120	58
121	8
123	318
124	66
125	14
126	30
127	93
128	113
129	65
130	325
131	703
132	247
133	31
135	20
137	23
138	33
139	76
140	281
141	67
142	20
143	18
144	65
145	74
146	91
147	37
148	4
151	17
152	37
153	37
154	39
155	260
156	36
157	4
158	6
159	12
160	84
161	12
162	21
163	9
164	53
165	82
166	91
167	67
168	94
169	130
170	21
171	11
175	2
176	11
177	12
178	17
179	34
180	28
181	46
182	152
183	653
184	191
185	589
186	52
188	401
189	43
191	43
192	43
193	33
194	27
195	50
196	8
197	4
202	4
203	16
204	8
205	6
206	8
207	6
208	5
209	15
210	10
211	8
217	8
218	25
219	31
220	57
221	54
222	15
223	11
224	19
225	15
226	14
227	1
230	6
231	8
232	1
235	2
243	1
245	22
246	73
247	38
248	131
249	23
250	19
251	1
252	11
261	2
262	3
263	16
264	14
265	1
273	5
274	21
275	2
290	31
291	300
292	61
293	7
326	0
327	2
328	1
329	2
352	1
354	2
370	55
371	13
372	54
373	10
