Mass Spectrum: Benzothiophene-3-carboxylic acid, 4,5,6,7-tetrahydro-2-(2,3,4,5-tetraacetoxypentanoylamino)-, ethyl ester
Formula: C24H31NO11S
CAS: 318466-50-1
Molecular weight: 541
m/z	intensity
33	6
34	2
39	7
40	23
41	15
43	999
45	28
47	3
50	1
51	4
52	2
53	3
54	1
55	9
56	2
57	6
58	2
60	13
61	6
63	1
64	1
65	8
66	5
67	6
68	3
69	11
71	16
73	23
77	11
78	5
79	9
80	3
81	2
82	2
83	4
84	6
85	46
86	10
87	1
89	3
91	23
92	3
93	2
94	1
95	3
96	3
97	10
98	2
99	2
101	1
102	2
103	14
104	3
105	1
106	4
107	2
108	2
109	4
110	10
111	7
112	3
113	7
115	13
116	10
117	7
118	11
119	6
120	2
121	4
122	6
123	16
124	7
125	20
127	25
128	4
129	2
131	3
133	1
134	4
135	5
136	4
138	6
139	1
143	1
144	5
145	15
146	7
147	1
148	2
149	5
150	13
151	61
152	14
153	7
154	2
155	7
157	1
161	3
162	2
163	2
164	3
165	3
166	3
167	1
168	2
171	1
173	5
175	2
176	4
177	11
178	53
179	198
180	43
181	14
182	2
187	20
188	2
189	1
190	3
191	3
192	6
193	5
194	2
195	4
196	4
197	7
202	1
203	2
204	10
205	7
206	70
207	9
208	19
209	3
210	2
215	16
216	2
217	2
218	3
219	1
220	5
221	16
222	22
223	13
224	38
225	478
226	68
227	27
228	3
232	4
233	25
234	6
235	3
236	29
237	12
238	6
245	2
246	3
247	1
248	9
249	5
250	5
251	16
252	11
253	2
256	1
260	4
261	2
262	5
263	1
264	1
265	2
266	3
267	11
268	1
272	1
273	11
274	15
275	64
276	9
277	14
278	9
279	3
280	1
281	4
282	1
290	10
291	15
292	5
293	1
304	3
306	3
307	7
308	4
319	6
320	2
321	1
323	10
324	2
325	1
332	1
333	12
334	3
335	1
336	2
337	3
350	2
351	3
352	2
353	1
365	1
375	1
379	11
380	2
392	3
393	3
394	1
425	2
435	1
436	1
473	4
481	3
496	1
498	4
499	9
500	2
541	255
542	67
543	25
544	5
