Mass Spectrum: Pyridine, 4-methoxy-3-nitro-
Formula: C6H6N2O3
CAS: 31872-62-5
Molecular weight: 154
m/z	intensity
50	330
51	600
52	170
53	180
54	140
55	40
64	50
65	150
66	300
67	80
68	40
69	80
70	40
76	40
77	50
78	999
79	80
80	70
81	60
93	560
94	550
95	40
96	90
107	240
108	20
124	400
125	40
126	1
139	1
154	370
155	27
