Mass Spectrum: S-3-[4-Phthalimidobutylamino]propyl thiosulfuric acid
Formula: C15H20N2O5S2
CAS: 31888-57-0
Molecular weight: 372
m/z	intensity
41	184
42	143
43	92
44	204
45	89
46	24
47	49
48	418
49	11
50	77
51	41
52	8
53	22
54	26
55	71
56	121
57	36
58	31
59	29
60	83
61	58
62	10
63	7
64	715
65	16
66	40
67	8
68	33
69	22
70	210
71	35
72	16
73	101
74	95
75	56
76	112
77	124
78	14
79	3
80	8
81	5
82	34
83	22
84	62
85	8
86	12
87	6
88	18
89	27
90	22
91	18
92	3
94	10
95	3
96	17
97	11
98	2
99	2
100	7
101	3
102	999
103	73
104	207
105	62
106	13
107	4
108	2
109	4
110	9
111	2
114	3
115	17
116	54
117	15
118	10
128	22
129	7
130	80
131	8
132	12
133	35
134	8
142	7
144	7
147	4
148	11
149	1
160	208
161	30
162	2
172	4
174	4
202	11
217	1
229	8
231	39
232	6
243	3
290	47
291	14
292	6
316	4
372	6
