Mass Spectrum: Cycloundecanone, oxime
Formula: C11H21NO
CAS: 3189-61-5
Molecular weight: 183
m/z	intensity
12	5
13	3
14	19
15	35
16	13
26	54
27	356
29	346
30	98
31	25
37	20
38	32
39	359
40	103
41	999
42	291
43	288
45	18
46	13
50	16
51	44
52	45
53	174
54	291
55	500
56	193
57	394
58	37
59	23
60	30
63	12
64	10
65	40
66	52
67	287
68	148
69	295
70	326
71	63
72	31
73	585
74	30
77	50
78	24
79	100
80	110
81	220
82	288
83	210
84	77
85	37
86	230
87	53
91	39
92	16
93	62
94	113
95	356
96	216
97	98
98	91
99	44
100	29
101	10
105	14
106	16
107	53
108	76
109	149
110	171
111	52
112	92
113	63
114	15
115	7
120	10
121	34
122	78
123	25
124	204
125	28
126	129
127	32
128	20
134	11
135	30
136	59
137	19
138	53
139	9
140	87
141	14
142	37
143	6
148	6
149	8
150	68
151	135
152	24
153	5
154	16
155	6
164	11
165	13
166	68
167	48
168	19
182	4
183	44
184	6
