Mass Spectrum: 22-Ketocarpesterol
Formula: C37H52O4
CAS: 31893-27-3
Molecular weight: 560
m/z	intensity
41	272
43	999
44	35
45	11
47	16
49	77
50	3
51	89
52	5
53	43
55	381
57	908
58	25
63	1
65	16
67	89
69	183
70	26
71	21
72	233
73	14
74	1
76	7
77	254
78	8
79	77
81	110
83	190
84	217
85	199
86	40
88	4
91	94
93	111
94	5
95	135
96	12
97	22
98	2
99	8
103	10
105	830
106	63
107	81
109	424
110	31
111	10
113	27
115	17
116	2
117	31
119	68
121	81
122	12
123	40
124	2
125	19
127	241
128	13
129	23
130	3
131	41
133	60
134	36
135	41
137	34
141	9
142	7
143	21
144	9
145	45
146	12
147	56
148	7
149	17
151	1
153	7
154	1
155	14
156	5
157	23
158	9
159	32
160	11
161	33
162	8
163	7
165	5
167	1
169	10
171	28
172	2
173	67
174	11
175	74
176	12
177	4
181	5
182	1
183	11
185	25
186	5
187	37
188	14
189	23
190	4
195	7
197	13
199	20
200	2
201	28
202	7
203	12
204	1
209	4
211	11
212	2
213	23
214	13
215	16
223	6
225	12
227	30
228	5
229	17
237	6
239	12
241	19
243	58
244	14
246	6
247	8
249	4
253	9
254	1
255	17
256	12
257	286
258	46
259	6
265	10
267	29
268	8
269	11
271	2
273	4
281	8
282	18
283	149
284	33
286	73
287	18
293	12
295	14
297	38
298	9
299	6
310	12
311	44
312	60
313	19
325	1
326	6
336	4
337	7
339	74
340	12
342	2
344	1
352	2
353	4
354	457
355	520
356	91
357	15
365	11
367	1
370	10
371	14
379	24
380	4
389	8
395	9
397	10
398	1
399	3
403	14
404	12
405	48
406	6
407	5
409	8
410	3
411	1
417	2
423	30
424	61
425	9
433	23
434	70
435	15
437	7
438	607
439	228
440	8
441	1
455	8
457	2
459	12
460	1
461	2
476	11
477	112
478	52
517	31
518	14
531	1
545	5
546	1
560	66
561	30
562	8
