Mass Spectrum: 1,3-Propanediamine, N,N',2,2-tetramethyl-
Formula: C7H18N2
CAS: 31892-15-6
Molecular weight: 130
m/z	intensity
28	130
30	170
32	110
41	110
42	180
44	999
55	70
56	150
70	90
71	70
84	330
86	70
87	70
99	220
