Mass Spectrum: 1-Butaneboronic acid, cyclic 1,2-diphenylethylene ester, meso-
Formula: C18H21BO2
CAS: 31899-53-3
Molecular weight: 280
m/z	intensity
38	5
39	40
40	10
41	32
42	5
43	5
44	2
50	10
51	40
52	7
53	7
55	12
56	10
57	35
62	10
63	50
64	30
65	30
66	4
67	4
68	7
69	17
70	5
73	4
74	4
75	7
76	15
77	90
78	20
79	22
85	5
87	5
88	17
89	400
90	999
91	800
92	90
93	7
96	5
97	5
101	2
102	10
103	15
104	80
105	225
106	20
107	310
108	25
111	12
112	22
113	45
114	4
115	15
116	30
117	280
118	440
119	60
120	5
125	12
128	7
129	12
130	17
131	37
132	52
133	45
134	5
139	5
141	5
143	7
144	15
145	140
146	160
147	20
148	2
150	2
151	7
152	27
153	5
154	2
159	5
160	5
163	5
164	5
165	50
166	15
167	52
168	10
173	22
174	74
175	10
176	12
177	20
178	80
179	82
180	77
181	17
182	2
187	2
188	7
189	25
190	5
191	2
192	2
193	7
194	2
195	30
196	50
197	15
198	2
201	70
202	290
203	45
204	7
205	2
207	2
221	5
222	10
223	20
224	5
225	2
251	2
277	30
278	220
279	600
280	120
281	15
