Mass Spectrum: Benzophenone, 4,4'-methylenebis-
Formula: C27H20O2
CAS: 31948-16-0
Molecular weight: 376
m/z	intensity
50	12
51	72
55	13
56	6
57	14
63	13
65	7
69	6
71	8
75	6
76	21
77	692
78	51
82	24
83	13
84	10
89	28
90	21
91	40
96	6
104	7
105	999
106	77
107	6
111	6
115	27
139	9
149	9
152	25
153	6
163	11
164	17
165	126
166	36
167	34
181	53
182	7
193	6
194	22
195	6
196	36
202	8
215	6
228	18
239	7
241	8
243	6
271	17
299	372
300	89
301	10
376	189
377	54
378	7
