Mass Spectrum: Acetamide, 2-(2-methoxyphenoxy)-N-(3-aminophenyl)-
Formula: C15H16N2O2
CAS: 319489-63-9
Molecular weight: 256
m/z	intensity
33	108
34	3
39	231
40	129
41	56
42	44
43	54
44	13
50	40
51	85
52	100
53	175
54	20
62	18
63	52
65	352
66	37
67	19
69	6
77	185
78	73
80	463
81	29
87	25
89	20
91	523
92	183
93	180
94	53
104	40
106	68
108	999
109	88
121	876
122	99
128	4
132	5
134	98
135	109
136	14
147	16
149	111
150	217
151	4
193	10
256	774
257	89
258	3
