Mass Spectrum: Cyclooctane, 1,2,5,6-tetrabromo-
Formula: C8H12Br4
CAS: 3194-57-8
Molecular weight: 424
m/z	intensity
26	26
27	247
28	53
29	101
30	5
31	2
36	4
37	10
38	34
39	372
40	46
41	356
42	22
43	41
44	10
45	9
49	5
50	46
51	163
52	164
53	418
54	84
55	76
56	14
57	30
60	15
61	11
62	13
63	32
64	11
65	153
66	72
67	148
68	16
69	20
70	9
71	17
72	4
73	13
74	13
75	12
76	8
77	156
78	80
79	448
80	73
81	46
82	14
83	15
84	7
85	11
86	4
87	6
89	8
90	6
91	203
92	39
93	79
94	44
95	21
96	7
97	14
98	8
99	8
101	7
102	8
103	29
104	17
105	999
106	381
107	239
108	27
109	32
110	4
111	8
112	4
113	4
115	4
117	7
119	91
120	5
121	88
122	5
123	5
125	5
131	17
132	12
133	56
134	24
135	43
139	4
143	4
144	6
145	34
146	8
147	33
148	3
149	7
157	65
158	9
159	82
160	10
161	23
162	2
171	4
185	423
186	77
187	427
188	77
189	9
197	5
199	12
201	7
211	8
213	13
215	7
223	5
225	9
227	6
265	142
266	23
267	253
268	39
269	120
270	19
345	51
346	6
347	143
348	14
349	141
350	13
351	48
352	5
