Mass Spectrum: 1,2,5,6,9,10-Hexabromocyclododecane
Formula: C12H18Br6
CAS: 3194-55-6
Molecular weight: 636
m/z	intensity
15	3
26	8
27	152
28	32
29	108
30	2
31	4
36	2
38	8
39	335
40	35
41	600
42	26
43	39
44	5
45	4
47	4
50	13
51	69
52	42
53	378
54	355
55	237
56	10
57	38
58	11
59	10
60	3
61	1
62	3
63	16
64	19
65	327
66	170
67	999
68	73
69	57
70	7
71	11
72	7
73	3
74	3
75	5
76	4
77	236
78	146
79	827
80	286
81	463
82	274
83	37
84	4
85	46
86	4
87	2
89	6
90	4
91	575
92	124
93	322
94	49
95	104
96	10
97	14
98	4
99	6
100	2
101	3
102	3
103	23
104	34
105	252
106	88
107	194
108	33
109	25
110	15
111	8
112	2
113	4
114	1
115	32
116	19
117	177
118	56
119	209
120	47
121	153
122	7
123	9
124	2
125	6
126	1
127	5
128	11
129	86
130	33
131	159
132	44
133	128
134	30
135	79
136	4
137	6
138	1
139	3
141	6
142	13
143	15
144	12
145	115
146	21
147	124
148	11
149	21
150	2
151	4
152	1
153	2
155	7
156	7
157	584
158	216
159	488
160	117
161	330
162	47
163	14
164	1
165	5
169	29
170	6
171	75
172	11
173	89
174	10
175	64
176	9
177	9
178	2
179	3
183	25
184	7
185	54
186	9
187	43
188	5
189	14
190	2
191	3
192	2
193	17
194	4
195	19
196	4
197	44
198	9
199	45
200	9
201	20
202	3
203	3
205	3
207	4
209	18
210	3
211	42
212	8
213	39
214	6
215	15
216	2
217	1
223	6
225	14
226	2
227	13
228	1
229	7
231	1
235	3
236	2
237	381
238	89
239	548
240	113
241	204
242	28
243	26
244	3
245	2
247	2
249	3
251	17
252	2
253	29
254	4
255	27
256	5
257	20
258	3
259	5
261	1
263	5
265	10
266	1
267	9
268	1
269	4
271	1
272	1
273	12
274	3
275	15
276	2
277	11
278	2
279	12
280	2
281	7
283	4
285	6
286	1
287	3
289	3
291	8
292	1
293	10
294	2
295	5
307	1
315	2
317	223
318	34
319	479
320	73
321	297
322	46
323	44
324	8
331	2
333	3
335	14
336	2
337	26
338	4
339	12
340	2
353	2
355	3
357	4
359	3
361	2
363	2
365	6
367	6
369	2
397	46
398	7
399	133
400	18
401	134
402	18
403	47
404	7
405	2
415	6
417	15
418	2
419	14
420	2
421	5
445	4
447	4
477	3
479	10
480	2
481	15
482	3
483	9
484	2
485	2
495	1
497	2
499	1
557	11
559	56
561	108
562	2
563	105
564	7
565	51
566	2
567	9
