Mass Spectrum: 2-Methylperhydro-1,3-oxazine
Formula: C5H11NO
CAS: 31951-98-1
Molecular weight: 101
m/z	intensity
15	60
27	130
28	390
29	140
30	430
31	170
41	210
42	530
43	510
44	150
45	100
56	930
57	740
58	530
59	70
70	70
71	520
72	150
86	999
87	50
100	250
101	120
