Mass Spectrum: Piperidine, 1,1'-(1,3-propanediyl)bis-
Formula: C13H26N2
CAS: 31951-46-9
Molecular weight: 210
m/z	intensity
41	170
42	141
44	68
55	112
56	58
69	66
70	82
83	56
84	138
85	30
96	111
97	64
98	999
99	85
110	677
111	85
112	114
124	127
125	657
126	80
210	199
