Mass Spectrum: Ethanol, 1-(1-cyclohexenyl)-
Formula: C8H14O
CAS: 3197-68-0
Molecular weight: 126
m/z	intensity
34	2
36	6
37	4
38	19
39	353
40	121
41	489
43	999
45	498
46	6
47	8
48	1
50	50
51	112
52	71
53	221
54	203
55	499
56	35
57	81
58	161
59	166
60	2
61	2
62	9
63	23
65	98
66	70
67	882
68	179
69	175
71	326
72	25
74	4
75	1
77	272
78	82
79	485
80	91
81	196
82	157
83	272
84	97
85	55
86	3
89	1
91	195
92	31
93	391
94	32
95	26
97	384
98	34
99	1
103	8
104	10
105	12
106	6
107	18
108	135
109	33
111	423
112	27
113	1
124	1
126	496
127	39
128	1
