Mass Spectrum: Copper, bis(4-bromo-3,5-cyclohexadiene-1,2-dione 2-oximato-N2,O1)-
Formula: C12H6Br2CuN2O4
CAS: 31971-31-0
Molecular weight: 463
m/z	intensity
26	80
27	50
28	130
30	50
37	90
38	110
39	90
41	40
44	310
49	50
50	170
51	170
52	50
53	210
54	80
55	30
60	30
61	150
62	270
63	999
64	250
65	70
66	50
67	70
68	70
74	50
75	90
76	170
77	70
78	190
79	80
91	50
92	70
93	90
94	30
117	60
119	60
121	50
123	30
142	40
143	190
144	40
145	190
156	50
157	40
158	50
159	50
168	30
170	40
171	100
172	60
173	110
174	40
175	40
184	170
185	30
186	170
187	40
197	50
199	50
201	290
202	50
203	290
204	20
205	150
207	20
213	50
215	50
217	100
219	100
233	25
235	40
237	15
249	15
251	15
263	40
265	50
267	20
326	10
328	15
342	10
354	20
356	30
358	10
392	40
394	65
396	30
420	7
422	10
463	10
465	30
467	25
