Mass Spectrum: 1-(4-Ethoxyphenyl)-2-propanone oxime
Formula: C11H15NO2
CAS: 319913-93-4
Molecular weight: 193
m/z	intensity
38	122
51	112
52	67
53	47
63	51
77	278
78	156
79	48
89	62
91	59
94	57
105	79
107	999
108	108
119	27
122	31
132	195
133	139
134	211
135	239
146	300
147	91
148	155
160	55
175	71
176	92
177	20
193	463
194	54
