Mass Spectrum: Azacitidine
Formula: C8H12N4O5
CAS: 320-67-2
Molecular weight: 244
m/z	intensity
41	200
42	560
43	999
44	586
45	202
46	77
53	76
55	215
56	146
57	265
60	178
61	82
68	136
69	305
70	482
71	328
72	86
73	210
74	84
83	77
84	103
85	154
86	207
97	92
99	83
110	37
111	207
112	751
113	602
114	105
141	300
142	72
152	98
153	37
171	120
172	39
212	43
213	39
214	22
226	36
227	20
