Mass Spectrum: Phenyl(3-hydroxy-6-methyl-2-pyridylthio)acetic acid
Formula: C14H13NO3S
CAS: 32002-83-8
Molecular weight: 275
m/z	intensity
50	72
51	206
52	189
53	372
54	30
55	74
56	8
57	61
58	24
59	14
60	28
61	10
62	33
63	121
64	45
65	217
66	17
67	45
68	26
69	84
70	121
71	31
72	15
73	7
74	10
75	8
76	7
77	178
78	93
79	206
80	144
81	77
82	15
83	37
84	12
85	30
86	5
87	5
89	173
90	212
91	999
92	121
93	15
94	7
95	33
96	70
97	104
98	12
99	10
105	22
106	17
107	95
108	24
109	51
110	12
111	19
112	141
113	33
114	10
115	10
116	7
118	137
119	10
121	416
122	137
123	28
124	12
125	17
126	7
127	67
128	14
134	21
135	37
136	121
137	10
139	8
140	47
141	420
142	30
143	19
149	10
151	8
152	83
153	8
154	72
155	10
156	14
157	7
166	7
167	14
168	26
169	12
170	10
180	5
181	7
182	10
183	10
184	12
185	8
186	8
191	7
196	242
197	148
198	669
199	98
200	24
212	7
214	19
216	8
227	12
228	224
229	148
230	114
231	503
232	81
233	28
243	5
257	544
258	81
259	26
275	141
276	19
277	7
