Mass Spectrum: Thiazolo[3,2-a]pyridinium, 3,8-dihydroxy-2-methyl-, bromide
Formula: C8H8BrNO2S
CAS: 32002-90-7
Molecular weight: 261
m/z	intensity
39	740
40	90
41	120
42	120
43	120
44	100
45	190
46	20
49	20
50	40
51	50
52	70
53	60
54	130
55	390
56	70
57	20
58	80
59	280
60	70
61	180
64	70
65	160
66	110
67	140
68	30
69	70
70	130
71	150
72	140
78	30
79	390
80	999
81	390
82	999
83	500
84	40
92	30
93	90
94	90
95	110
96	80
97	50
98	120
99	140
100	30
108	20
109	50
110	60
111	70
112	20
120	160
121	20
122	30
124	60
125	60
126	20
127	190
128	20
135	30
136	20
137	20
138	540
139	50
140	50
141	40
148	30
151	30
152	690
153	160
154	120
155	20
156	20
178	20
179	60
180	190
181	999
182	140
183	60
