Mass Spectrum: 2-(3-Hydroxy-2-pyridylthio)propionic acid
Formula: C8H9NO3S
CAS: 32002-81-6
Molecular weight: 199
m/z	intensity
32	16
34	6
39	999
40	76
41	67
42	16
43	40
44	86
45	241
46	14
47	6
50	19
51	25
52	48
53	42
54	116
55	177
56	29
57	16
58	52
59	179
60	78
61	27
63	8
64	69
65	107
66	118
67	325
68	38
69	44
70	107
71	118
72	65
73	19
74	8
76	8
77	6
78	16
79	19
80	27
81	12
82	40
83	207
84	6
92	59
93	57
94	118
95	167
96	97
97	38
98	207
99	67
100	16
104	19
108	8
109	25
110	25
111	38
112	19
120	207
121	16
122	718
123	65
124	27
125	46
126	27
127	338
128	67
129	19
138	298
139	25
140	188
141	19
142	8
148	16
152	300
153	76
154	327
155	549
156	59
157	16
166	14
180	16
181	266
182	27
183	14
186	6
199	10
