Mass Spectrum: 2-Oxazoline, 4-octyl-2-phenyl-
Formula: C17H25NO
CAS: 32014-89-4
Molecular weight: 259
m/z	intensity
77	600
78	40
91	400
92	20
104	350
105	999
106	70
117	20
122	150
123	10
130	120
131	10
146	720
161	250
162	20
202	100
203	10
216	160
217	20
259	100
260	20
