Mass Spectrum: 3H-Pyrazol-3-one, 2,4-dihydro-4,4,5-trimethyl-
Formula: C6H10N2O
CAS: 3201-20-5
Molecular weight: 126
m/z	intensity
39	370
40	50
41	999
42	720
43	40
53	80
55	70
56	110
57	150
58	10
67	30
68	130
69	390
70	50
82	230
83	20
97	300
98	20
111	130
112	10
125	120
126	980
127	70
