Mass Spectrum: 2-Oxazoline, 5-octyl-2-phenyl-
Formula: C17H25NO
CAS: 32014-90-7
Molecular weight: 259
m/z	intensity
77	450
78	30
91	210
92	20
104	120
105	950
106	70
117	999
118	80
122	250
123	20
130	10
146	150
147	10
161	70
202	50
216	35
259	80
260	20
