Mass Spectrum: o-(4,6-Diphenyl-1,3,5-triazin-2-yl)phenol
Formula: C21H15N3O
CAS: 3202-86-6
Molecular weight: 325
m/z	intensity
26	1
27	5
28	1
37	3
38	7
39	22
40	2
41	7
43	1
45	1
49	1
50	24
51	43
52	22
53	4
55	1
57	1
61	1
62	5
63	36
64	51
65	15
66	1
69	1
71	1
73	1
74	6
75	21
76	101
77	182
78	14
79	1
83	1
87	1
88	3
89	3
90	37
91	203
92	27
93	2
96	1
97	4
99	2
100	1
101	1
102	19
103	208
104	999
105	82
106	3
108	1
111	7
118	13
119	815
120	70
121	4
128	1
129	3
135	1
139	1
140	1
141	1
147	1
148	31
149	7
151	1
162	53
163	12
166	1
192	1
193	2
194	1
205	4
206	1
221	12
222	2
297	5
298	1
324	1
325	732
326	176
327	20
328	1
