Mass Spectrum: Acetylacetone mono[2,4-dichloroanil]
Formula: C11H11Cl2NO
CAS: 320369-25-3
Molecular weight: 243
m/z	intensity
41	54
42	123
43	999
44	18
45	4
47	4
49	19
50	33
51	44
52	29
53	22
54	24
55	17
56	1
57	10
58	3
59	1
60	3
61	18
62	34
63	66
64	30
65	25
66	5
67	23
68	23
69	15
70	2
71	14
72	7
73	33
74	42
75	57
76	12
77	20
78	10
79	6
80	1
81	5
82	23
83	6
84	137
85	16
86	13
87	14
88	15
89	18
90	16
91	4
92	1
93	2
94	2
95	3
96	2
97	17
98	12
99	20
100	11
101	15
102	16
103	10
104	3
107	5
109	67
110	13
111	27
112	6
113	5
114	15
115	10
116	4
117	2
119	1
121	6
123	18
124	17
125	16
126	12
127	9
128	13
129	10
130	29
131	17
133	30
135	20
136	8
137	7
138	5
139	4
140	2
141	2
142	1
143	3
144	2
145	47
146	4
147	21
148	3
149	8
150	8
151	12
152	5
153	4
154	4
155	2
156	1
157	6
158	9
159	10
160	11
161	41
162	10
163	22
164	61
165	88
166	56
167	38
168	13
169	2
171	5
172	6
173	10
174	4
175	1
176	1
177	1
178	12
179	1
180	7
182	0
184	4
185	7
186	65
187	10
188	44
189	5
190	8
191	3
192	7
193	62
194	13
195	22
196	4
198	9
199	3
200	26
201	17
202	22
203	13
204	7
205	3
206	2
207	5
208	288
209	31
210	93
211	11
212	5
213	1
214	5
215	1
216	1
224	1
226	11
227	4
228	352
229	39
230	262
231	18
232	53
233	3
241	0
242	3
243	234
244	89
245	165
246	62
247	23
248	9
249	1
