Mass Spectrum: 1,2,4-Thiadiazole, 5-amino-3-propyl-
Formula: C5H9N3S
CAS: 32039-20-6
Molecular weight: 143
m/z	intensity
27	310
41	330
42	100
43	240
45	140
46	170
47	80
55	90
59	200
60	330
70	130
72	270
73	659
74	559
75	240
86	170
100	140
101	490
115	999
116	180
117	150
128	819
142	180
143	749
