Mass Spectrum: 4,4'-Carbonylbis[N-(2,3-dimethyl-5-oxo-1-phenyl-3-pyrazolin-4-yl)phthalimide]
Formula: C39H28N6O7
CAS: 320368-60-3
Molecular weight: 692
m/z	intensity
33	17
34	10
36	26
37	27
39	46
40	145
41	79
42	38
43	143
44	91
45	12
46	1
49	2
50	15
51	64
53	12
55	106
56	999
58	6
60	9
61	3
63	15
64	27
65	17
66	6
67	27
68	18
69	33
70	19
71	24
73	4
74	9
75	66
77	370
78	22
79	7
80	13
81	22
82	19
83	27
84	17
85	12
87	2
91	59
92	15
93	20
94	3
95	7
96	7
97	6
98	3
99	4
101	9
103	94
105	65
106	26
107	1
109	5
110	6
111	8
112	12
113	6
115	9
116	3
118	33
119	23
120	7
121	2
123	3
124	2
125	4
126	2
127	4
128	3
129	11
130	5
131	4
132	3
133	1
135	3
139	7
141	4
142	1
143	8
145	8
146	4
149	13
150	24
151	18
153	1
155	10
157	9
158	6
159	9
161	1
164	4
165	2
169	2
171	27
173	3
174	3
175	4
176	5
178	11
179	4
183	8
184	12
185	9
186	6
187	9
188	4
190	3
198	4
199	2
200	5
201	1
203	9
204	4
206	59
207	9
211	2
212	7
217	2
219	1
229	1
230	2
232	40
234	7
245	2
259	3
260	5
261	1
264	2
265	21
267	1
271	3
274	18
275	6
278	3
283	6
285	1
286	4
287	3
288	2
289	3
300	2
301	3
303	1
315	4
322	1
325	1
346	7
434	3
435	14
436	5
437	2
462	2
463	1
506	1
544	1
545	2
546	1
691	22
692	18
693	6
694	2
