Mass Spectrum: Pyrazine, methyl-, 1,4-dioxide
Formula: C5H6N2O2
CAS: 32046-26-7
Molecular weight: 126
m/z	intensity
38	313
39	679
40	313
41	333
42	333
43	150
44	173
45	153
50	73
51	153
52	273
53	266
54	366
55	273
56	73
57	73
60	26
66	366
67	316
68	73
79	73
80	66
81	146
82	73
93	200
94	206
109	53
110	999
111	113
126	153
