Mass Spectrum: Dimethyl-t-butylphosphonite
Formula: C6H15O2P
CAS: 32045-17-3
Molecular weight: 150
m/z	intensity
26	3
27	25
28	3
29	75
30	1
31	6
33	2
35	0
37	0
38	2
39	31
40	4
41	89
42	5
43	7
44	0
45	12
46	1
47	36
48	3
49	2
50	1
51	2
52	0
53	2
54	1
55	14
56	7
57	107
58	4
59	3
60	4
61	2
62	18
63	127
64	2
65	1
67	1
68	0
69	1
70	0
71	3
72	0
73	3
74	0
75	0
76	0
77	13
78	2
79	22
80	2
81	1
82	0
83	1
84	0
85	3
86	4
87	24
88	37
89	5
90	1
91	4
92	1
93	999
94	74
95	9
96	0
97	0
99	0
101	0
102	0
103	8
104	0
105	0
106	2
107	0
108	2
109	0
110	4
111	0
118	0
119	3
120	0
124	0
127	1
129	1
133	0
135	1
136	0
143	0
144	9
145	1
149	0
150	115
151	7
152	0
