Mass Spectrum: Methanone, [3-[1,1'-biphenyl]-4-yl-1-(1-methylethyl)-2-aziridinyl]phenyl-, trans-
Formula: C24H23NO
CAS: 32044-36-3
Molecular weight: 341
m/z	intensity
39	38
41	54
43	79
51	65
77	328
78	31
89	37
90	21
91	50
92	11
104	17
105	999
106	82
107	9
115	38
116	27
117	17
145	8
146	45
147	11
152	57
153	27
164	24
165	260
166	54
167	106
168	24
169	5
180	27
181	41
182	11
188	95
189	17
190	8
193	54
194	104
195	16
228	13
236	191
237	41
238	16
241	27
242	16
243	74
244	13
282	38
283	41
284	71
285	27
298	189
299	43
300	9
324	82
325	23
326	21
327	6
340	43
341	484
342	119
343	21
