Mass Spectrum: Pyrazine, methoxy-, 1-oxide
Formula: C5H6N2O2
CAS: 32046-05-2
Molecular weight: 126
m/z	intensity
37	86
38	200
39	320
40	999
41	283
42	206
43	126
44	116
45	46
46	53
51	146
52	539
53	260
54	126
55	100
56	160
57	80
68	146
78	433
79	273
80	100
95	40
109	153
110	50
125	53
126	106
127	40
