Mass Spectrum: 5-(1-Naphthyl)tetrazole
Formula: C11H8N4
CAS: 32051-82-4
Molecular weight: 196
m/z	intensity
31	60
39	90
51	70
63	100
64	240
77	50
91	999
92	60
127	60
140	40
143	50
153	50
168	170
196	90
