Mass Spectrum: 6-(Phenacylthio)-2-phenyl-5-(triphenylphosphonio)-4-pyrimidinolate
Formula: C36H27N2O2PS
CAS: 320580-28-7
Molecular weight: 582
m/z	intensity
33	22
34	16
35	3
37	12
38	27
39	85
41	27
42	33
43	17
45	45
46	8
47	8
50	142
51	500
55	12
57	24
58	4
59	5
60	7
62	54
64	186
65	43
66	17
68	4
69	23
70	6
71	6
74	56
77	946
79	5
80	3
81	9
82	6
83	6
84	9
85	5
87	5
89	15
91	41
92	6
93	3
96	36
98	9
99	2
101	3
102	9
105	999
106	64
107	26
108	16
109	17
110	9
111	2
112	3
113	3
115	12
116	2
118	5
120	33
121	8
122	7
123	3
125	1
126	3
128	30
129	9
131	7
133	8
134	6
135	3
136	1
137	1
139	33
141	9
142	1
143	1
144	2
145	1
146	1
147	6
149	2
150	4
151	7
152	33
153	6
154	4
155	1
157	7
160	31
161	2
162	7
163	17
165	8
166	1
167	1
168	1
169	4
171	7
172	1
175	1
176	1
177	1
178	2
179	7
181	9
183	113
184	19
185	60
186	9
187	2
189	3
191	16
192	9
194	7
195	1
196	2
197	1
199	1
200	1
201	3
202	2
203	1
204	1
205	1
206	1
207	4
208	3
209	1
211	1
213	1
214	6
216	14
218	2
219	3
220	2
221	1
222	1
224	17
225	5
227	1
228	2
229	1
230	1
231	1
233	3
234	1
236	15
237	4
238	2
239	1
240	1
246	1
247	6
248	3
249	9
250	2
251	1
252	1
253	1
254	1
256	19
257	9
259	4
260	5
261	9
262	16
263	4
264	1
265	1
266	1
267	2
268	3
269	1
270	1
274	1
275	6
277	6
278	3
279	1
280	1
281	3
282	1
283	1
284	1
288	1
289	2
290	4
293	72
294	79
295	17
296	5
297	1
300	1
301	1
302	2
303	1
309	1
311	10
312	2
313	1
322	1
323	2
324	1
328	1
332	2
335	1
349	1
352	22
353	5
354	6
355	2
367	1
368	2
369	1
387	1
463	2
464	2
