Mass Spectrum: 5-Octen-4-one, 7-methyl-
Formula: C9H16O
CAS: 32064-78-1
Molecular weight: 140
m/z	intensity
39	110
40	20
41	530
42	80
43	490
44	30
53	40
55	150
56	30
67	30
68	30
69	380
70	40
71	470
72	30
97	999
98	50
112	30
140	50
