Mass Spectrum: 6-Decen-5-one
Formula: C10H18O
CAS: 32064-79-2
Molecular weight: 154
m/z	intensity
26	20
27	240
28	60
29	230
30	10
38	10
39	200
40	50
41	60
42	120
43	10
44	10
50	10
51	20
52	10
53	50
54	10
55	999
56	30
57	90
58	20
60	20
65	10
66	10
67	20
68	70
69	90
70	160
71	10
73	10
79	10
81	10
82	50
84	20
97	870
98	50
111	190
112	280
113	20
125	20
