Mass Spectrum: 4-Undecen-6-one
Formula: C11H20O
CAS: 32064-74-7
Molecular weight: 168
m/z	intensity
27	180
28	30
29	150
39	151
40	50
41	373
42	30
43	171
53	50
54	10
55	798
56	30
57	10
58	30
67	20
68	90
69	90
70	191
71	40
73	20
77	10
79	10
81	10
83	60
96	10
97	999
98	70
99	60
112	505
113	30
125	282
126	20
168	10
