Mass Spectrum: 3-Hepten-2-one, 3-propyl-
Formula: C10H18O
CAS: 32064-69-0
Molecular weight: 154
m/z	intensity
39	120
40	10
41	350
42	20
43	999
44	70
45	20
51	30
52	20
53	100
54	30
55	330
56	30
57	30
65	20
67	70
68	20
69	530
70	40
71	30
72	20
77	30
79	30
81	50
83	50
84	70
85	20
91	20
93	20
95	20
97	70
98	20
107	40
111	200
112	30
125	250
126	50
139	290
140	30
154	360
155	50
