Mass Spectrum: Quinoline, decahydro-1,7-dimethyl-
Formula: C11H21N
CAS: 32064-85-0
Molecular weight: 167
m/z	intensity
41	30
42	40
44	20
55	20
67	20
68	20
70	20
82	30
94	30
96	80
97	70
108	20
110	999
111	90
124	30
152	20
164	30
165	20
166	40
167	150
168	20
