Mass Spectrum: 3-Octen-2-one, 3-butyl-
Formula: C12H22O
CAS: 32064-71-4
Molecular weight: 182
m/z	intensity
39	100
40	20
41	280
42	20
43	999
44	20
51	20
52	10
53	80
54	40
55	390
56	20
57	40
67	70
68	20
69	150
70	10
71	50
72	30
77	40
79	40
81	70
82	10
83	130
84	70
85	30
91	30
93	30
95	50
97	90
98	20
107	20
109	20
111	120
121	30
125	270
126	30
139	100
140	10
153	180
154	20
167	150
168	20
182	230
183	30
