Mass Spectrum: p-Toluenesulfonamide, N-(4-diazo-3-oxobutyl)-
Formula: C11H13N3O3S
CAS: 32065-38-6
Molecular weight: 267
m/z	intensity
55	160
56	140
65	240
84	290
91	999
120	175
139	60
146	40
155	540
175	130
184	50
211	140
239	120
267	2
