Mass Spectrum: 2-Heptanone, 3-propylidene-
Formula: C10H18O
CAS: 32064-70-3
Molecular weight: 154
m/z	intensity
39	150
40	30
41	370
42	50
43	999
44	30
45	20
50	20
51	40
52	20
53	80
54	30
55	370
56	30
58	30
65	40
66	10
67	100
68	30
69	470
70	40
71	30
72	20
77	30
79	40
81	50
83	100
84	20
91	20
93	20
95	30
97	80
99	20
100	10
107	30
109	70
110	30
111	370
112	50
121	30
125	270
126	20
139	150
140	10
154	260
155	20
