Mass Spectrum: Butanethiol, 1,3-diimino-
Formula: C4H8N2S
CAS: 32081-55-3
Molecular weight: 116
m/z	intensity
33	12
34	17
35	3
36	3
37	11
38	23
39	71
40	82
41	127
42	720
43	70
44	91
45	42
46	23
47	14
48	7
49	2
50	4
51	9
52	26
53	7
54	36
55	12
56	17
57	31
58	53
59	29
60	115
61	10
62	6
63	2
64	5
65	7
66	46
67	63
68	8
69	42
70	8
71	17
72	27
73	13
74	23
75	8
76	2
77	2
78	0
79	1
80	1
81	10
82	73
83	438
84	57
85	3
86	4
88	36
89	3
90	2
91	0
93	0
94	0
95	0
96	1
97	1
98	16
99	36
100	40
101	7
102	2
103	0
104	0
105	0
106	0
107	0
112	0
113	1
115	171
116	999
117	72
118	46
119	3
120	0
