Mass Spectrum: 2-Propenoic acid, 2-benzoylamino-3-phenyl-, ethyl ester
Formula: C18H17NO3
CAS: 32089-78-4
Molecular weight: 295
m/z	intensity
33	0
34	0
35	0
36	1
37	1
38	4
39	16
40	8
41	5
42	2
43	7
44	9
45	10
46	3
47	0
48	0
50	24
51	92
52	9
53	2
54	0
55	3
56	1
57	2
58	0
59	7
60	1
61	1
62	4
63	16
64	7
65	6
66	1
67	0
68	0
69	1
70	0
71	1
72	3
73	2
74	5
75	9
76	34
77	416
78	32
79	5
80	0
81	1
82	0
83	1
84	0
85	0
86	1
87	1
88	4
89	42
90	39
91	12
92	1
93	0
94	0
95	0
96	0
97	0
98	1
99	0
100	0
101	1
102	4
105	999
106	89
107	7
108	0
109	0
110	0
111	0
112	0
113	0
114	1
115	2
116	16
117	39
118	10
119	1
120	0
121	0
122	1
123	0
125	2
126	1
127	0
128	0
129	2
130	0
131	0
132	0
133	0
134	0
135	1
136	0
137	0
138	0
139	0
140	0
141	0
142	0
143	1
144	1
145	0
146	1
147	0
149	1
150	0
151	0
152	0
153	0
154	0
157	0
159	0
161	0
162	0
163	0
164	0
165	2
166	0
167	0
168	0
171	0
172	0
173	0
176	0
177	0
178	0
179	0
180	0
185	0
187	0
189	1
190	1
191	0
192	1
193	0
194	0
195	0
196	0
202	0
203	0
204	0
205	0
206	0
207	0
208	0
217	0
218	0
219	0
220	1
221	1
222	2
223	0
224	0
238	0
247	0
249	61
250	23
251	3
252	0
266	0
267	0
269	0
278	0
281	0
284	0
293	0
295	111
296	21
297	2
298	0
