Mass Spectrum: 5.alpha.-Pregnan-20.beta.-ol, 18-(benzylamino)-3.beta.-(benzylmethylamino)-
Formula: C36H52N2O
CAS: 32095-46-8
Molecular weight: 528
m/z	intensity
78	30
79	10
80	40
81	10
82	60
83	20
84	20
85	50
86	20
89	20
90	20
91	999
92	120
93	40
94	20
95	40
96	50
97	20
104	20
105	30
106	50
107	40
108	20
109	20
110	20
117	30
118	30
119	40
120	699
121	100
122	50
123	10
131	20
132	30
133	20
134	40
135	20
145	10
146	100
147	70
148	10
158	30
159	20
160	549
161	100
174	40
175	10
186	180
187	40
264	350
265	180
266	30
392	30
406	20
407	20
408	20
409	130
410	30
484	30
485	20
495	50
496	20
509	20
510	50
511	20
527	20
528	40
529	20
