Mass Spectrum: Benzamide, N-(18-benzamido-20.beta.-hydroxy-5.alpha.-pregnan-3.beta.-yl)-N-methyl-
Formula: C36H48N2O3
CAS: 32095-52-6
Molecular weight: 556
m/z	intensity
57	50
58	20
59	30
60	100
61	20
77	200
78	50
79	70
80	10
81	70
82	10
83	60
84	50
91	50
92	20
93	50
94	20
95	50
96	50
97	20
105	999
106	100
107	60
108	30
109	20
110	20
117	30
118	20
119	40
120	20
121	50
122	50
130	30
133	50
134	160
135	250
136	400
137	60
145	30
147	50
148	30
149	30
150	20
158	30
159	30
160	50
161	30
403	30
404	40
405	30
406	10
407	10
417	10
420	20
421	40
422	230
423	80
424	20
432	20
433	10
435	10
450	30
451	30
452	20
512	20
513	10
555	30
556	220
557	70
558	30
