Mass Spectrum: Ehyl 5-(Chloromethyl)-1,2-oxazole-3-carboxylate
Formula: C7H8ClNO3
CAS: 3209-40-3
Molecular weight: 189
m/z	intensity
25	10
26	117
27	425
28	165
29	999
30	129
31	7
32	5
35	7
36	22
37	16
38	33
39	94
40	45
41	19
42	70
43	47
44	58
45	69
47	5
48	17
49	199
50	57
51	131
52	81
53	62
54	40
55	4
61	9
63	5
64	4
67	125
68	717
69	29
70	5
73	22
76	5
77	76
78	7
79	32
81	15
82	5
84	3
87	3
88	4
89	41
96	57
109	20
110	9
112	4
117	30
119	8
126	7
140	25
143	8
144	424
145	60
146	137
147	17
154	47
162	4
189	39
190	4
191	13
