Mass Spectrum: Coralox
Formula: C14H16ClO6P
CAS: 321-54-0
Molecular weight: 346
m/z	intensity
12	5
13	2
14	15
15	67
16	15
17	54
18	191
19	12
25	5
26	74
27	400
28	303
29	999
30	34
31	45
32	9
33	1
34	3
35	6
36	29
37	6
38	29
39	95
40	11
41	25
42	12
43	71
44	18
45	111
46	5
47	41
48	3
49	8
50	48
51	136
52	24
53	31
54	4
55	16
56	1
57	4
58	3
59	2
60	2
61	12
62	45
63	157
64	55
65	129
66	12
67	11
69	77
70	3
71	2
72	2
73	31
74	40
75	114
76	38
77	77
78	13
79	22
81	502
82	11
83	7
84	5
85	10
86	13
87	25
89	256
90	102
91	192
92	16
93	17
94	2
95	2
96	3
97	12
99	154
100	18
101	92
102	54
103	18
104	3
105	11
106	2
107	7
109	316
110	13
111	18
112	6
113	10
114	11
115	6
116	3
117	23
118	58
119	107
120	10
121	7
122	1
123	7
125	124
126	15
127	77
128	13
129	19
130	4
131	25
133	8
134	2
135	7
136	16
137	62
138	11
139	18
140	3
141	12
142	2
143	1
144	1
145	10
146	11
147	87
148	12
149	4
150	2
151	2
153	62
154	67
155	23
156	22
157	57
158	7
159	2
162	1
163	4
164	12
165	21
166	7
167	6
168	3
169	2
170	1
173	1
175	16
176	2
181	91
182	194
183	45
184	62
185	17
186	2
192	61
193	15
194	21
195	6
196	1
197	3
198	1
199	4
207	1
209	51
210	234
211	40
212	72
213	8
217	1
219	22
220	103
221	23
222	34
223	11
225	4
227	14
228	2
237	18
238	4
239	6
240	1
243	2
244	13
245	3
246	4
255	5
256	1
262	38
264	14
272	12
273	5
274	4
275	1
283	1
290	88
291	12
292	26
293	2
303	14
304	4
317	10
318	52
319	9
320	15
321	1
331	1
346	157
347	74
349	7
