Mass Spectrum: 1-Phenyl-3-trifluoromethyl-2-pyrazolin-5-one
Formula: C10H7F3N2O
CAS: 321-07-3
Molecular weight: 228
m/z	intensity
20	1
25	1
26	6
27	20
29	5
31	8
36	1
37	13
38	33
39	70
40	21
41	15
42	23
43	2
44	3
45	4
49	4
50	78
51	272
52	39
53	41
54	3
55	1
56	4
57	2
58	3
61	5
62	15
63	62
64	92
65	71
66	10
67	6
68	11
69	95
70	3
71	2
73	5
74	23
75	60
76	38
77	999
78	139
79	10
80	1
81	3
86	1
87	2
88	4
89	10
90	16
91	208
92	47
93	15
94	10
95	28
96	9
100	1
101	1
102	7
103	15
104	89
105	332
106	27
107	4
108	7
114	10
115	1
116	6
117	3
118	1
119	11
120	3
121	2
122	17
123	4
127	1
129	5
130	4
131	44
132	34
133	15
134	2
136	1
138	2
141	1
142	5
143	1
144	1
145	1
148	1
151	35
152	6
153	2
154	1
158	5
159	47
160	7
161	3
165	8
166	2
167	1
168	1
169	1
170	1
171	5
172	1
174	1
179	7
180	7
181	4
185	1
186	1
188	1
189	2
199	94
200	12
201	1
202	1
207	1
208	2
209	56
210	6
211	2
212	2
227	7
228	555
229	64
230	4
