Mass Spectrum: Isoindole-1,3(2H)-dione, 3a,4,7,7a-tetrahydro-2-(3-hydroxypropyl)-4,7-methano-
Formula: C12H15NO3
CAS: 321170-80-3
Molecular weight: 221
m/z	intensity
37	1
39	32
40	9
41	5
42	6
43	7
44	3
45	3
51	23
52	8
53	10
54	14
55	15
56	16
57	5
58	1
59	1
60	1
61	4
63	58
66	999
69	19
70	13
71	3
72	2
74	6
75	4
77	41
79	56
80	65
82	87
83	17
84	8
85	3
86	6
89	59
91	540
92	136
93	18
96	33
98	80
99	70
102	3
103	3
104	6
105	14
106	6
107	6
110	348
111	130
114	1
115	2
116	6
118	39
119	56
120	37
121	6
124	49
126	109
127	8
128	2
129	2
130	2
132	10
134	13
138	675
142	0
143	0
144	1
146	40
147	11
148	5
149	2
150	1
151	2
152	4
155	442
156	285
158	3
159	2
160	2
161	2
162	4
163	1
164	2
165	1
166	0
167	0
168	0
169	0
170	0
171	0
172	0
174	16
175	21
176	12
177	30
178	3
179	0
180	1
181	0
183	0
184	0
185	1
186	0
188	0
189	1
191	89
192	8
193	2
194	0
195	0
198	0
199	0
200	3
201	5
203	215
204	41
205	3
206	1
209	0
217	0
221	44
222	36
223	3
224	0
