Mass Spectrum: 2-Methyl-1-cyclopentene-1,4-dicarboxylic acid
Formula: C8H10O4
CAS: 32116-55-5
Molecular weight: 170
m/z	intensity
27	190
39	200
41	170
43	190
45	93
50	52
51	128
52	80
53	178
55	67
65	63
67	66
77	233
78	101
79	836
80	192
81	235
95	89
96	119
97	132
107	999
108	101
124	227
125	386
152	897
153	129
