Mass Spectrum: 1,2-Cyclobutanedicarbonitrile, cis-
Formula: C6H6N2
CAS: 3211-19-6
Molecular weight: 106
m/z	intensity
15	20
24	11
25	39
26	455
27	270
28	443
29	13
36	14
37	67
38	97
39	122
40	38
41	26
42	3
48	2
49	11
50	61
51	224
52	444
53	999
54	833
55	31
61	2
62	5
63	12
64	27
65	5
66	225
67	10
74	1
75	11
76	15
77	16
78	24
79	171
80	12
91	11
105	19
106	5
