Mass Spectrum: Benzene, 1,3-bis(benzyloxy)-5-(2-nitro-1-propenyl)-
Formula: C23H21NO4
CAS: 321125-60-4
Molecular weight: 375
m/z	intensity
39	10
41	7
51	5
63	6
65	58
77	5
89	9
91	999
92	75
180	27
181	51
182	7
329	8
375	71
376	18
