Mass Spectrum: 1,2,3-Oxadiazol-3-ium, 5-trifluoroacetylamidato-3-methyl-
Formula: C5H4F3N3O2
CAS: 321195-23-7
Molecular weight: 195
m/z	intensity
33	1
37	1
38	72
39	118
40	175
41	358
42	999
43	217
44	33
45	71
46	3
47	13
50	282
51	38
52	15
53	28
54	38
55	49
56	8
58	12
64	7
65	9
66	44
67	113
69	795
70	118
71	5
75	5
76	8
77	3
78	25
89	1
95	5
97	8
99	7
111	1
118	1
126	311
127	8
148	17
195	15
