Mass Spectrum: Azetidine, 1-chloro-
Formula: C3H6ClN
CAS: 32115-53-0
Molecular weight: 91
m/z	intensity
26	169
27	517
28	999
29	445
30	195
31	11
36	47
37	9
38	16
39	29
40	34
41	107
42	705
43	55
44	34
45	104
46	9
53	23
54	75
55	62
56	78
57	13
62	31
63	450
64	78
65	153
66	26
91	127
92	8
93	42
94	3
