Mass Spectrum: 5-exo-Methyl-5-norbornenol
Formula: C8H12O
CAS: 3212-13-3
Molecular weight: 124
m/z	intensity
26	7
27	42
28	13
29	13
31	10
37	5
38	10
39	78
40	38
41	37
42	9
43	210
44	5
45	13
50	9
51	27
52	9
53	23
54	7
55	13
57	7
58	102
59	15
63	8
65	58
66	999
67	130
68	7
77	27
78	10
79	60
80	33
81	73
82	7
91	15
95	7
107	3
109	32
124	80
125	7
