Mass Spectrum: 1-Penten-3-one, 2,4-dimethyl-
Formula: C7H12O
CAS: 3212-68-8
Molecular weight: 112
m/z	intensity
26	1
27	21
28	16
40	6
41	281
42	37
43	510
44	21
45	1
53	6
55	6
67	21
68	11
69	999
70	37
79	1
81	6
93	1
97	16
111	21
112	255
113	6
