Mass Spectrum: 2-Hydroxy-2,4-dimethyl-3-pentanone
Formula: C7H14O2
CAS: 3212-67-7
Molecular weight: 130
m/z	intensity
15	40
17	31
18	137
26	18
27	78
28	193
29	32
31	240
32	13
38	16
39	81
40	24
41	267
42	47
43	314
44	22
45	18
55	17
57	14
58	35
59	999
60	46
69	111
70	19
71	24
87	28
97	25
112	18
130	6
