Mass Spectrum: 3-Buten-2-one, 3-phenyl-
Formula: C10H10O
CAS: 32123-84-5
Molecular weight: 146
m/z	intensity
27	23
28	9
31	75
32	1
33	0
37	3
38	11
39	55
40	3
41	14
42	4
43	569
44	12
45	10
46	0
49	2
50	69
51	207
52	31
53	10
54	0
55	12
56	0
57	0
58	0
61	4
62	17
63	50
64	6
65	30
66	2
73	2
74	0
75	30
76	46
77	347
78	39
79	2
85	0
86	2
87	4
88	1
89	9
90	3
91	22
92	9
93	0
97	0
98	3
99	0
101	8
102	79
103	999
104	129
105	8
113	0
115	11
116	2
117	2
118	2
119	1
126	0
127	1
128	1
129	1
130	1
131	134
132	13
133	0
145	9
146	289
147	31
148	2
