Mass Spectrum: 2-Phenyl-4-formyl-2H,1,2,3-triazole
Formula: C9H7N3O
CAS: 3213-80-7
Molecular weight: 173
m/z	intensity
41	49
42	5
43	71
44	6
45	5
49	12
50	129
51	350
52	65
53	21
54	22
55	1
61	16
62	35
63	179
64	307
65	115
66	9
67	7
68	8
69	1
73	9
74	39
75	23
76	20
77	336
78	28
81	1
85	5
86	12
87	7
88	8
89	80
90	46
91	999
92	86
93	4
99	2
103	1
105	14
115	6
116	60
117	21
118	109
119	10
144	28
145	21
172	112
173	954
174	131
175	11
