Mass Spectrum: 2-Piperidinone, 3,6-bis(1-methylethenyl)-1-phenyl-, trans-
Formula: C17H21NO
CAS: 32138-52-6
Molecular weight: 255
m/z	intensity
25	0
26	8
27	173
28	61
29	92
30	12
31	1
36	0
37	5
38	17
39	324
40	112
41	453
42	74
43	48
44	4
49	1
50	28
51	213
52	46
53	273
54	43
55	126
56	11
57	6
58	0
61	0
62	3
63	32
64	41
65	128
66	52
67	576
68	999
69	103
70	9
71	2
72	1
74	3
75	7
77	681
78	76
79	154
80	68
81	122
82	52
83	41
84	5
85	3
87	1
88	1
89	13
90	18
91	226
92	123
93	588
94	164
95	336
96	37
97	14
98	38
99	9
101	2
102	9
103	24
104	153
105	60
106	59
107	154
108	64
109	15
110	8
111	3
112	1
113	2
115	32
116	17
117	90
118	87
119	364
120	54
121	152
122	29
123	8
124	6
125	1
126	0
127	10
128	25
129	23
130	132
131	56
132	70
133	27
134	5
135	34
136	20
137	6
138	1
139	1
140	2
141	7
142	26
143	47
144	257
145	71
146	179
147	36
148	10
150	145
151	182
152	21
153	3
154	7
155	6
156	22
157	20
158	82
159	21
160	10
161	9
162	10
163	11
164	100
165	11
166	2
167	6
168	11
169	7
170	36
171	15
172	81
173	164
174	51
175	6
176	1
177	0
178	1
179	0
180	3
181	2
182	6
183	5
184	43
185	17
186	83
187	32
188	3
189	1
191	1
192	0
193	0
194	2
195	1
196	3
197	5
198	26
199	10
200	17
201	3
206	0
208	1
209	2
210	6
212	69
213	22
214	39
215	7
216	0
223	0
224	0
226	43
227	44
228	9
229	0
237	0
240	73
241	10
242	0
246	0
248	0
250	0
251	1
252	1
254	104
255	478
256	84
257	9
258	0
