Mass Spectrum: Benzo[d]isothiazol-3(2H)-one, 4,6-dinitro-, 1,1-dioxide
Formula: C7H3N3O7S
CAS: 321372-60-5
Molecular weight: 273
m/z	intensity
33	21
34	2
35	9
36	70
37	68
38	68
39	29
40	42
41	30
44	313
46	153
48	55
49	20
50	55
51	25
52	18
53	19
54	7
55	12
56	44
57	14
58	0
59	2
61	104
62	295
63	51
64	51
65	32
66	12
67	9
68	8
69	31
71	4
74	999
76	29
77	38
78	11
79	10
80	9
81	6
82	7
83	6
84	0
85	3
86	9
87	23
88	38
89	52
90	116
91	22
92	16
93	35
95	39
96	3
98	2
99	8
100	15
101	10
102	8
103	7
104	9
105	20
106	7
107	6
108	1
109	3
111	3
116	8
117	9
118	8
120	176
123	40
125	3
127	1
133	3
134	0
135	5
136	3
137	2
138	3
139	4
148	29
149	7
150	10
164	4
178	6
179	9
180	9
181	1
192	0
193	5
194	22
195	3
206	28
207	6
209	151
210	11
211	1
227	4
244	2
271	1
273	79
275	2
