Mass Spectrum: 4,5-Cyclopentene, 1-oxa-2-phospha-2-ethyl-5-methyl-, p-oxide
Formula: C6H11O2P
CAS: 32135-32-3
Molecular weight: 146
m/z	intensity
36	11
38	21
39	203
40	128
41	71
42	95
43	779
44	36
45	9
47	370
48	81
49	16
50	40
51	88
52	24
53	999
54	107
55	135
57	35
65	179
117	441
118	238
119	9
146	335
147	50
