Mass Spectrum: 2-Norbornanone, 1,3,7,7-tetramethyl-, oxime
Formula: C11H19NO
CAS: 32134-53-5
Molecular weight: 181
m/z	intensity
39	230
40	40
41	310
42	50
43	80
50	30
51	70
52	50
53	150
54	70
55	220
56	40
57	30
63	30
65	70
66	40
67	250
68	120
69	130
70	40
77	130
78	30
79	170
80	50
81	150
82	60
83	160
84	50
91	110
92	40
93	230
94	160
95	999
96	150
97	30
105	30
106	60
107	100
108	140
109	190
110	50
120	80
121	60
122	80
123	30
124	60
125	50
134	60
135	50
136	30
137	20
138	110
139	30
148	350
149	140
150	60
163	90
164	50
165	70
166	50
181	50
182	10
