Mass Spectrum: Butanoic acid, 2-cyano-3-methyl-, ethyl ester
Formula: C8H13NO2
CAS: 3213-49-8
Molecular weight: 155
m/z	intensity
27	14
28	32
29	31
39	14
41	21
43	19
68	999
82	25
83	15
85	56
96	22
110	24
112	12
113	30
128	3
140	8
155	4
