Mass Spectrum: 1,2,4-Triazole, 3-(4-methylphenyl)-4-phenyl-5-phenylthio-
Formula: C21H17N3S
CAS: 321579-76-4
Molecular weight: 343
m/z	intensity
33	2
34	2
35	1
36	4
37	8
38	29
39	159
40	34
41	46
42	8
43	17
44	18
45	64
46	16
47	3
48	1
50	88
51	331
52	40
53	9
54	3
55	11
56	5
57	13
58	3
59	3
60	3
61	7
62	27
63	100
64	51
65	283
66	17
67	4
68	2
69	17
70	9
71	8
72	1
73	3
74	13
75	26
76	92
77	726
78	61
79	11
80	2
81	4
82	5
83	5
84	4
85	3
86	4
87	6
88	6
89	56
91	999
92	78
93	8
94	3
95	5
96	7
97	16
98	5
99	3
100	1
101	3
102	9
103	62
104	66
105	18
106	3
107	2
108	5
109	8
110	8
111	4
112	4
113	3
114	2
115	5
116	3
117	12
118	43
119	8
121	56
122	14
123	11
124	2
125	6
126	6
127	6
128	3
129	5
130	3
131	26
132	3
135	157
136	66
137	28
138	6
139	5
140	4
141	1
142	0
143	1
144	1
145	0
146	3
147	2
148	42
149	54
150	10
151	9
152	16
153	6
154	2
155	1
156	0
157	0
158	1
159	2
160	0
161	2
162	3
163	9
164	6
165	19
166	17
167	255
168	37
169	3
170	0
171	6
173	1
175	0
176	2
177	5
178	10
180	189
181	27
182	20
183	3
184	0
185	0
188	0
189	0
190	2
191	2
192	4
193	9
194	15
195	3
196	1
197	1
198	0
202	0
203	1
204	3
205	12
206	28
207	434
208	68
209	5
210	1
211	0
212	0
214	0
216	0
217	0
218	0
219	1
220	7
221	6
222	6
223	4
224	2
225	2
226	0
230	1
231	2
232	6
234	336
235	55
236	5
237	1
238	1
239	17
240	4
241	1
249	1
250	2
251	4
252	52
253	36
254	7
255	2
256	0
259	1
260	0
261	0
264	2
265	3
266	18
267	4
268	1
269	0
278	1
280	0
283	1
284	0
296	1
307	0
308	1
309	3
310	33
311	8
312	1
327	0
328	3
329	0
337	0
339	2
340	5
342	43
343	225
344	55
345	15
346	2
