Mass Spectrum: Propanethial, S-oxide
Formula: C3H6OS
CAS: 32157-29-2
Molecular weight: 90
m/z	intensity
15	1
25	3
26	23
27	109
28	9
29	41
30	1
31	3
32	14
33	7
34	6
35	8
36	5
37	46
38	90
39	484
40	104
41	999
42	324
43	145
44	16
45	243
46	69
47	77
48	140
49	31
50	24
56	5
57	73
58	64
59	40
60	8
61	27
62	49
63	66
64	8
65	4
68	11
69	35
70	7
71	51
72	60
73	141
74	19
75	37
76	3
87	5
89	8
90	508
91	23
92	30
