Mass Spectrum: Morpholine, 4-(2,4,6-trinitrobenzoyl)-
Formula: C11H10N4O8
CAS: 321596-14-9
Molecular weight: 326
m/z	intensity
33	71
34	4
36	14
37	15
38	19
40	134
42	751
44	184
45	67
46	16
50	18
51	29
52	14
55	554
56	999
57	51
58	26
59	5
60	5
61	29
62	120
63	34
64	16
65	9
66	5
67	4
70	122
72	127
74	578
75	146
76	37
77	29
78	20
79	6
80	10
81	2
84	165
85	227
86	564
87	39
88	28
90	111
91	20
92	12
93	3
100	161
101	21
102	40
103	26
104	9
105	4
107	3
108	2
114	4
115	3
116	5
117	7
118	7
120	122
121	14
122	0
128	1
129	3
130	5
131	2
132	2
134	15
135	4
136	6
143	0
144	7
145	5
146	12
148	115
149	19
150	7
151	3
157	1
158	8
159	2
160	2
162	5
163	3
164	5
165	11
166	0
167	22
168	1
174	8
175	1
176	5
178	21
179	10
181	0
187	0
188	1
189	1
190	8
191	18
192	85
194	162
195	23
196	4
204	2
205	5
207	2
208	6
209	4
210	9
213	1
217	0
220	10
221	5
222	21
224	62
225	10
233	1
234	0
236	0
237	36
238	10
240	133
241	15
242	1
249	69
250	10
251	6
266	30
267	7
268	9
269	1
279	19
280	1
281	0
291	29
292	3
295	22
296	3
309	3
311	8
323	2
324	5
326	105
327	11
328	0
