Mass Spectrum: trans-8a-Methylperhydroazulen-4(1H)-one
Formula: C11H18O
CAS: 32166-45-3
Molecular weight: 166
m/z	intensity
39	90
41	190
55	170
67	230
81	190
95	100
109	999
110	90
151	90
166	80
