Mass Spectrum: 2-Oxazoline, 4,5-dibutyl-2-phenyl-, cis-
Formula: C17H25NO
CAS: 32161-19-6
Molecular weight: 259
m/z	intensity
77	710
78	40
104	730
105	999
106	70
130	550
131	50
202	650
203	120
204	10
214	40
257	15
259	70
260	12
