Mass Spectrum: .beta.-L-Arabinopyranose, 4TMS derivative
Formula: C17H42O5Si4
CAS: 32166-73-7
Molecular weight: 438
m/z	intensity
15	10
27	10
31	10
41	10
43	10
45	70
47	10
59	50
61	10
69	40
72	20
73	999
74	90
75	100
101	50
103	50
116	30
117	30
119	10
129	50
131	40
133	60
143	20
147	250
148	40
149	30
169	10
175	10
189	50
190	20
191	420
192	80
193	30
204	580
205	120
206	40
215	10
217	580
218	110
219	60
221	10
229	3
230	8
231	18
232	6
233	2
243	9
244	2
245	2
258	2
259	18
260	3
261	2
265	7
266	3
279	7
280	2
291	18
292	8
293	4
303	2
304	2
305	33
306	10
307	7
308	2
318	2
319	2
333	19
334	8
335	4
336	2
393	1
394	1
423	2
