Mass Spectrum: Benzenesulfonamide, 2,3,4,5,6-pentamethyl-N-(2-diethylamino)ethyl-
Formula: C17H30N2O2S
CAS: 321716-57-8
Molecular weight: 326
m/z	intensity
36	0
38	0
39	4
40	2
41	16
42	23
43	11
44	16
45	1
48	0
50	0
51	1
52	0
53	5
54	1
55	9
56	21
57	15
58	57
59	2
63	1
64	1
65	3
66	0
67	1
68	2
69	3
70	7
71	5
72	12
73	1
74	1
77	5
78	1
79	3
80	0
81	0
82	0
83	1
84	11
86	999
87	84
88	2
91	18
92	2
93	1
96	1
97	1
98	1
99	7
100	4
101	0
103	2
105	10
106	1
107	2
111	0
112	1
113	5
115	17
116	6
117	12
118	2
119	8
120	1
121	0
127	1
128	3
129	3
130	2
131	10
132	4
133	4
134	1
135	0
144	0
145	2
146	2
147	25
148	5
149	1
159	0
160	23
161	5
162	1
163	1
164	0
165	0
171	0
180	1
297	7
298	1
299	0
309	1
311	1
325	0
326	2
327	0
