Mass Spectrum: Cyclopentanecarboxamide
Formula: C6H11NO
CAS: 3217-94-5
Molecular weight: 113
m/z	intensity
36	2
37	19
38	41
39	275
41	556
42	175
43	41
44	325
45	15
46	32
47	1
48	0
49	4
50	19
51	20
52	20
53	59
54	166
55	125
56	21
57	1
58	1
59	26
60	1
61	4
62	8
63	15
64	14
65	32
66	38
67	139
68	81
69	267
70	29
71	8
72	999
73	34
74	2
75	1
77	3
78	2
79	1
80	8
82	5
83	9
84	10
85	275
86	13
87	0
89	0
91	3
92	5
93	8
94	8
95	11
96	12
97	11
98	9
101	0
102	0
104	0
106	0
107	0
108	0
109	2
110	5
111	13
112	43
113	104
114	12
115	0
