Mass Spectrum: Ethanone, 1-phenyl-2-(4H-1,2,4-triazol-3-ylthio)-
Formula: C10H9N3OS
CAS: 32189-00-7
Molecular weight: 219
m/z	intensity
33	6
34	6
35	2
36	8
37	7
38	22
39	65
40	37
41	54
42	61
43	62
44	36
45	76
46	21
47	6
48	3
50	90
51	202
52	19
53	9
54	4
55	30
56	9
57	23
58	15
59	10
60	18
61	9
62	12
63	27
64	12
65	62
66	5
67	6
68	5
69	21
70	31
71	42
72	7
73	20
74	26
75	18
76	49
77	469
78	58
79	7
80	3
81	6
82	6
83	8
84	4
85	11
86	2
87	4
88	2
89	11
91	99
92	10
93	2
94	1
95	3
96	4
97	7
98	4
99	2
100	2
101	13
102	7
103	23
105	999
106	68
107	8
108	3
109	2
110	1
111	2
112	2
113	2
114	10
115	3
116	2
117	5
118	87
119	18
120	21
121	6
122	1
123	3
125	5
126	1
127	0
128	0
129	5
130	0
131	0
132	0
133	1
134	3
135	1
136	0
137	0
138	0
140	4
141	1
143	0
144	0
145	0
146	0
147	1
149	9
150	1
151	0
152	0
153	0
155	0
156	0
157	1
158	1
159	0
161	0
162	0
165	0
166	0
167	1
168	0
170	0
171	4
172	0
173	0
174	1
175	1
177	31
178	3
179	1
183	0
184	0
185	1
186	4
187	0
188	0
189	0
191	21
192	2
193	0
199	1
200	1
201	7
202	1
203	0
211	0
212	0
213	1
214	1
215	0
216	0
218	6
219	30
220	4
221	1
224	0
