Mass Spectrum: 2-Propanol, 1-(dimethylamino)-, acetate (ester)
Formula: C7H15NO2
CAS: 32188-28-6
Molecular weight: 145
m/z	intensity
14	2
15	58
17	1
18	5
27	4
28	9
29	8
30	35
31	2
39	6
40	2
41	13
42	56
43	86
44	31
45	13
46	3
47	2
48	1
55	1
56	10
57	17
58	999
59	45
60	1
61	1
68	2
69	1
70	11
71	18
72	13
73	1
84	10
85	60
86	37
87	5
88	26
89	1
91	8
92	5
93	25
100	2
101	6
102	12
144	1
145	6
146	1
