Mass Spectrum: cis-1,3-Diacetamidocyclohexane
Formula: C10H18N2O2
CAS: 32189-20-1
Molecular weight: 198
m/z	intensity
43	999
44	160
56	260
58	30
59	60
60	590
69	380
70	150
79	50
80	200
81	100
85	250
86	50
96	460
97	420
98	130
111	150
112	30
113	140
139	960
140	140
155	110
198	20
