Mass Spectrum: Phenol, p-[3-(methylamino)propyl]-
Formula: C10H15NO
CAS: 32180-92-0
Molecular weight: 165
m/z	intensity
15	25
28	30
30	30
42	120
43	20
44	20
45	10
58	999
63	20
64	10
65	25
77	100
78	40
81	10
82	10
91	40
92	20
93	20
94	20
103	20
104	10
105	10
106	10
107	80
116	10
119	10
120	40
121	70
122	10
144	10
149	10
162	25
164	20
165	110
