Mass Spectrum: N'-(5-Bromo-2-ethoxybenzylidene)bicyclo[4.1.0]heptane-7-carbohydrazide
Formula: C17H21BrN2O2
CAS: 321905-56-0
Molecular weight: 364
m/z	intensity
33	6
36	4
39	363
40	31
41	420
43	193
44	118
45	41
46	12
50	52
51	153
53	307
55	999
56	45
57	46
59	226
60	66
61	24
63	155
65	134
67	451
68	47
69	33
70	18
71	22
72	35
73	15
74	28
75	63
77	239
78	132
79	265
81	369
82	37
83	19
84	17
85	32
86	9
88	23
89	40
90	40
91	59
93	108
95	650
96	227
97	25
98	14
99	4
100	5
101	3
103	19
105	85
106	28
107	10
108	7
109	9
110	37
111	78
112	11
113	3
115	9
117	17
118	22
119	23
120	16
121	50
123	649
124	54
126	4
129	5
130	5
131	20
132	64
134	95
135	10
136	1
137	13
139	268
140	28
141	5
143	23
145	18
147	6
148	1
149	6
151	4
154	14
155	15
156	13
157	16
158	8
159	4
160	2
161	2
162	5
163	3
165	1
168	1
169	19
171	43
172	9
173	9
174	3
180	1
182	7
183	16
184	14
185	24
187	16
188	1
195	1
197	96
199	160
200	39
201	43
202	14
209	5
210	10
211	44
212	20
213	34
214	9
215	4
223	7
225	191
227	201
228	43
230	25
241	8
242	8
243	6
244	6
256	1
282	1
283	2
285	13
286	2
295	2
297	1
318	2
319	7
320	10
321	12
322	6
323	5
363	26
364	34
365	26
366	27
367	4
