Mass Spectrum: N-(3-Cyano-4,5-dimethyl-2-thienyl)propionamide
Formula: C10H12N2OS
CAS: 321945-14-6
Molecular weight: 208
m/z	intensity
33	16
34	2
35	2
37	11
39	220
40	35
41	47
42	64
43	83
45	106
47	31
49	15
50	38
51	30
52	56
53	56
55	139
57	999
59	348
60	26
61	23
63	84
64	159
65	89
66	61
67	10
69	33
70	58
71	33
73	5
74	9
75	9
76	40
77	14
78	22
80	60
81	18
82	14
83	23
84	12
85	13
86	6
88	11
90	90
91	40
92	28
93	17
94	15
95	11
96	25
97	80
98	9
99	5
103	5
104	5
105	8
106	9
107	28
108	11
109	12
110	5
112	2
114	2
115	5
116	13
117	33
118	56
119	134
121	13
122	26
123	25
124	35
125	4
131	2
132	5
133	9
134	18
135	23
136	76
137	174
138	16
139	9
143	3
144	4
145	14
146	14
147	27
148	63
149	131
151	612
152	915
153	86
154	46
155	4
163	10
164	3
165	3
175	3
178	4
179	6
194	6
203	4
205	19
206	13
207	21
208	175
209	11
210	2
