Mass Spectrum: N,N'-(1,5-Naphthalene)bis(2-isopentyl-1-cyclopropanecarboxamide)
Formula: C28H38N2O2
CAS: 321918-38-1
Molecular weight: 434
m/z	intensity
36	20
37	8
39	66
41	453
43	357
44	30
45	5
48	1
50	4
51	10
53	65
55	999
57	111
59	11
60	1
61	1
63	5
64	4
65	11
67	93
69	512
71	19
73	7
75	6
77	23
79	33
81	57
83	53
85	9
86	3
87	3
88	2
89	4
91	9
93	31
95	122
97	33
98	6
99	2
101	9
102	19
103	16
105	9
106	3
107	3
109	10
111	16
112	4
113	6
114	9
115	14
116	4
117	4
118	4
119	2
121	15
123	9
125	4
126	3
127	6
128	9
130	83
131	9
132	3
133	2
134	1
137	4
139	52
140	9
141	8
142	6
143	10
144	3
145	1
149	1
151	1
152	2
153	3
154	9
155	22
158	749
159	94
160	5
161	1
165	3
166	2
167	4
168	6
169	14
170	7
171	9
172	2
178	1
179	3
180	5
181	9
182	9
183	18
184	21
185	19
186	4
187	1
189	1
191	1
192	1
193	3
194	3
195	9
197	120
198	36
199	16
200	29
201	4
206	1
207	2
208	2
209	4
210	10
211	11
212	15
213	6
214	1
217	1
219	1
220	1
221	2
222	3
223	4
224	4
225	8
226	3
227	1
235	1
236	2
237	4
238	3
239	9
240	8
241	3
248	4
249	1
250	1
251	2
252	2
253	7
254	2
265	1
266	1
267	5
268	4
269	1
270	1
277	1
278	1
279	4
280	12
281	6
282	2
291	1
293	7
296	588
297	115
298	12
299	1
302	1
321	1
322	1
323	1
335	3
336	3
337	6
338	5
339	1
349	1
351	1
377	1
391	1
418	8
419	10
420	3
434	186
435	52
436	9
437	1
