Mass Spectrum: N2-Benzoyl-3-phenylalanine N'-(1-benzylethylidene)hydrazide
Formula: C25H25N3O2
CAS: 321905-63-9
Molecular weight: 399
m/z	intensity
33	2
39	35
41	28
42	18
43	14
44	5
45	8
51	77
57	60
60	6
63	13
65	51
69	1
70	1
71	1
77	343
81	1
83	4
85	4
87	1
89	12
91	178
97	1
105	999
112	7
115	10
117	25
118	11
119	3
120	9
122	9
128	3
130	14
131	22
132	13
133	14
134	36
144	2
145	3
146	5
148	47
149	18
152	1
157	1
159	1
161	3
162	2
165	1
173	1
175	11
181	1
187	74
188	7
189	1
206	1
210	2
217	2
224	112
225	109
226	15
227	2
250	6
252	28
253	4
263	1
278	5
279	3
280	2
294	2
295	1
308	197
309	37
310	4
399	3
400	1
