Mass Spectrum: Benserazide
Formula: C10H15N3O5
CAS: 322-35-0
Molecular weight: 257
m/z	intensity
41	29
42	332
43	93
45	32
57	20
58	20
59	20
60	999
61	32
70	52
73	20
82	10
84	9
88	111
89	9
110	9
119	10
126	9
138	29
