Mass Spectrum: 2'-Amino-2-nitro-4-trifluoromethyldiphenylsulfide
Formula: C13H9F3N2O2S
CAS: 322-71-4
Molecular weight: 314
m/z	intensity
41	48
42	23
43	27
45	95
47	7
50	25
51	16
52	97
53	73
54	15
55	2
56	15
57	34
58	7
60	4
62	7
63	105
65	171
66	15
67	7
69	92
70	26
71	15
72	4
74	9
75	37
77	30
78	26
80	330
81	15
82	16
83	7
85	22
86	13
87	2
88	11
90	15
91	39
92	27
93	13
95	44
96	32
97	32
98	7
99	23
100	3
101	14
102	2
103	2
104	4
105	9
106	7
108	999
109	17
110	15
112	14
113	14
114	5
115	13
116	3
117	5
119	7
120	2
122	24
124	71
125	4
126	26
127	13
128	6
130	3
132	13
133	8
134	4
136	1
137	1
138	1
140	86
141	2
142	1
143	7
145	13
146	5
147	3
149	2
151	6
154	106
155	9
157	21
158	6
159	3
164	11
166	14
167	36
168	2
169	12
171	54
172	11
173	4
175	8
176	5
177	5
179	12
181	117
182	15
183	2
184	12
185	9
186	2
187	8
188	6
189	7
190	3
194	2
195	9
196	15
197	37
198	68
199	50
200	5
201	9
202	12
203	14
204	5
206	31
207	18
208	4
209	2
210	3
211	5
213	9
214	2
215	18
216	17
217	4
219	1
220	10
222	68
223	26
224	5
226	1
227	3
228	3
229	35
230	17
231	10
233	14
234	27
235	24
236	4
237	3
239	19
240	12
241	7
242	1
246	14
247	12
249	270
250	74
251	12
252	5
253	2
254	10
261	1
266	40
267	65
268	17
269	7
279	5
281	4
295	40
296	8
297	4
314	359
315	49
316	17
