Mass Spectrum: Pregnan-20-one, 3,11,17,21-tetrahydroxy-, O-methyloxime, (3.alpha.,5.beta.,11.beta.)- (9CI), 4TMS derivative
Formula: C34H69NO5Si4
CAS: 32206-70-5
Molecular weight: 683
m/z	intensity
41	380
42	81
43	490
44	400
45	300
46	30
47	161
48	10
49	15
50	30
51	40
52	31
53	80
54	110
55	630
56	100
57	120
58	85
59	280
60	50
61	123
62	20
63	20
64	10
65	40
66	60
67	480
68	120
69	320
70	100
71	80
72	110
73	999
74	520
75	999
76	160
77	240
78	60
79	470
80	100
81	680
82	130
83	230
84	500
85	115
86	61
87	31
88	30
89	430
90	51
91	550
92	100
93	670
94	200
95	620
96	80
97	130
98	40
99	50
100	120
101	150
102	35
103	999
104	130
105	560
106	160
107	600
108	170
109	280
110	60
111	80
112	30
113	81
114	490
115	221
116	130
117	230
118	163
119	380
120	120
121	300
122	90
123	106
124	43
125	20
126	40
127	75
128	160
129	440
130	180
131	400
132	207
133	340
134	101
135	180
136	43
137	50
138	40
139	20
140	40
141	115
142	110
143	480
144	200
145	360
146	110
147	890
148	210
149	240
150	60
151	43
152	20
153	35
154	101
155	200
156	143
157	230
158	120
159	300
160	110
161	165
162	60
163	65
164	35
165	60
166	30
167	70
168	360
169	270
170	163
171	220
172	250
173	201
174	120
175	160
176	40
177	60
178	30
179	40
180	60
181	90
182	180
183	161
184	125
185	130
186	60
187	80
188	110
189	40
190	20
191	70
192	40
193	50
194	50
195	80
196	85
197	120
198	300
199	170
200	70
201	120
202	300
203	80
204	80
205	60
206	40
207	110
208	70
209	80
210	50
211	130
212	61
213	160
214	140
215	120
216	150
217	61
218	81
219	40
220	53
221	80
222	60
223	60
224	60
225	120
226	60
227	120
228	140
229	60
230	50
231	60
232	81
233	60
234	40
235	40
236	40
237	80
238	41
239	70
240	30
241	40
242	60
243	61
244	300
245	180
246	370
247	100
248	50
249	30
250	30
251	120
252	161
253	350
254	117
255	70
256	40
257	60
258	120
259	60
260	130
261	40
262	20
263	70
264	40
265	20
266	20
267	20
268	30
269	77
270	110
271	100
272	40
273	60
274	40
275	60
276	310
277	100
278	48
279	30
280	20
281	60
282	20
283	20
284	20
285	13
286	40
287	90
288	150
289	40
290	30
291	30
292	140
293	50
294	11
295	10
296	30
297	11
298	20
299	27
300	30
301	20
302	30
303	11
304	17
305	13
307	10
309	40
310	100
311	30
312	20
313	30
314	20
315	30
316	11
317	10
318	20
319	11
321	10
322	17
323	30
324	10
325	20
326	20
327	60
328	40
329	25
330	7
331	10
332	7
333	11
335	10
336	7
339	7
340	17
341	70
342	50
343	120
344	41
345	20
346	10
350	7
351	10
352	7
354	17
355	17
356	15
357	11
358	15
359	25
360	40
361	40
362	17
363	11
364	8
365	17
366	17
367	10
368	25
369	35
370	32
371	11
372	20
374	11
375	7
376	15
377	11
378	21
379	10
380	7
381	15
382	160
383	80
384	40
385	11
386	15
387	25
388	13
389	10
390	7
391	5
393	17
394	10
397	10
398	25
399	21
400	120
401	30
402	30
403	15
405	10
413	17
414	20
415	10
416	17
417	20
418	30
419	15
420	10
421	7
422	5
429	13
430	10
431	30
432	41
433	35
434	20
435	40
436	17
437	11
438	7
441	37
442	17
443	11
444	11
445	7
446	7
447	20
448	11
449	30
450	61
451	55
452	15
453	10
456	15
458	11
459	21
460	30
461	12
462	27
463	15
464	7
468	40
469	11
470	20
471	30
472	223
473	90
474	40
475	20
476	10
477	10
478	7
487	6
488	40
489	80
490	440
491	160
492	90
493	30
494	15
501	20
502	30
503	11
504	30
505	17
506	60
507	30
508	17
519	10
520	10
521	120
522	60
523	50
524	15
560	7
561	10
562	250
563	160
564	60
578	60
579	50
580	840
581	400
582	220
583	70
584	11
593	23
594	13
595	11
596	30
597	13
609	11
610	11
611	220
612	130
613	61
614	25
650	30
651	50
652	440
653	280
654	120
655	50
656	20
682	20
683	200
684	100
685	60
686	27
687	10
