Mass Spectrum: Manganese, tricarbonyl[(1,2,3,4,5-.eta.)-1-[(dimethylamino)sulfonyl]-2-(1-ferrocenyl-1-hydroxyethyl)-2,4-cyclopentadien-1-yl]-
Formula: C22H22FeMnNO6S
CAS: 32200-57-0
Molecular weight: 539
m/z	intensity
39	224
41	138
42	138
43	193
50	161
51	193
52	193
55	230
56	115
57	171
58	230
63	46
87	257
88	999
89	92
91	69
104	57
105	57
120	57
121	115
139	69
152	138
153	276
154	115
155	193
185	46
208	46
209	69
210	123
211	92
276	92
317	193
328	148
329	123
330	112
437	172
455	161
521	34
539	338
540	92
