Mass Spectrum: Proline, 3,4-didehydro-
Formula: C5H7NO2
CAS: 3220-74-4
Molecular weight: 113
m/z	intensity
41	323
42	39
43	56
44	86
45	77
47	27
52	19
53	5
54	22
55	13
56	4
57	10
58	2
60	1
62	1
63	5
64	7
65	11
66	19
67	122
68	999
69	86
70	18
71	6
73	3
74	2
76	1
77	9
78	7
80	9
81	6
82	6
94	1
95	5
96	1
97	7
98	1
111	1
112	6
113	17
114	8
