Mass Spectrum: 5.beta.-Androstan-17-one, 3.alpha.,11.beta.-bis(trimethylsiloxy)-, O-methyloxime
Formula: C26H49NO3Si2
CAS: 32206-64-7
Molecular weight: 479
m/z	intensity
41	324
42	100
43	249
44	100
45	204
46	9
47	89
51	9
52	9
53	100
54	49
55	304
56	64
57	54
58	49
59	149
60	89
61	124
65	49
66	49
67	349
68	100
69	124
70	54
71	49
72	54
73	999
74	289
75	999
76	109
77	174
78	89
79	349
80	74
81	360
82	74
83	100
84	49
85	24
87	100
88	24
89	100
90	9
91	374
92	100
93	400
94	200
95	274
96	94
97	49
98	24
99	44
100	44
101	249
102	24
103	100
104	49
105	349
106	149
107	324
108	124
109	124
110	49
111	24
112	9
113	54
114	24
115	54
116	49
117	149
118	100
119	200
120	100
121	100
122	54
123	44
124	49
125	989
126	200
127	74
128	49
129	194
130	60
131	200
132	74
133	224
134	100
135	64
136	24
137	9
138	104
139	60
140	24
141	49
142	74
143	274
144	104
145	149
146	94
147	189
148	74
149	149
150	49
151	49
152	49
153	9
154	9
155	94
156	60
157	109
158	124
159	149
160	124
161	49
162	49
163	9
164	24
165	24
166	40
167	44
168	100
169	140
170	74
171	100
172	89
173	54
174	109
175	40
176	24
177	9
178	9
179	24
180	24
181	60
182	340
183	154
184	89
185	74
186	74
187	40
188	24
189	9
190	24
191	24
192	24
193	40
194	49
195	74
196	60
197	49
198	280
199	74
200	49
201	24
202	9
204	9
205	20
206	24
207	49
208	44
209	109
210	100
211	149
212	100
213	924
214	189
215	174
216	24
217	9
218	9
219	24
220	9
221	24
222	9
223	9
224	20
225	29
226	89
227	49
228	24
232	9
233	9
234	9
235	20
236	9
237	9
238	20
239	20
240	100
241	49
242	49
243	9
244	20
249	24
250	9
251	49
252	49
253	149
254	49
258	40
266	9
267	49
268	724
269	200
270	49
273	40
284	94
285	24
286	24
298	24
299	49
300	49
301	40
302	29
303	9
340	9
341	49
342	74
343	24
357	24
358	349
359	100
360	44
361	9
362	24
363	49
364	9
375	49
376	9
377	44
388	49
389	74
390	89
391	24
432	9
433	20
434	9
447	49
448	999
449	400
450	149
451	44
464	100
465	40
466	9
479	109
480	49
481	9
