Mass Spectrum: Pregnan-20-one, 3,11,21-tris[(trimethylsilyl)oxy]-, O-methyloxime, (3.alpha.,5.beta.,11.beta.)-
Formula: C31H61NO4Si3
CAS: 32206-68-1
Molecular weight: 595
m/z	intensity
41	30
42	10
43	20
44	15
45	50
46	5
47	15
50	5
51	5
52	5
53	15
54	15
55	70
56	10
57	10
58	15
59	50
60	10
61	25
62	5
63	5
65	5
66	5
67	80
68	15
69	30
70	15
71	5
72	25
73	999
74	105
75	490
76	35
77	45
78	10
79	90
80	30
81	125
82	20
83	25
84	15
85	15
86	5
87	10
88	15
89	145
90	15
91	105
92	30
93	125
94	45
95	105
96	15
97	10
98	85
99	15
100	15
101	30
102	15
103	180
104	25
105	110
106	70
107	110
108	30
109	40
110	15
111	10
112	5
113	15
114	15
115	20
116	20
117	45
118	35
119	95
120	45
121	50
122	15
123	15
124	5
125	5
126	15
127	15
128	20
129	90
130	45
131	90
132	70
133	75
134	25
135	25
136	10
137	5
138	5
139	5
140	5
141	15
142	55
143	200
144	80
145	90
146	40
147	90
148	25
149	40
150	10
151	5
152	5
153	5
154	10
155	50
156	50
157	45
158	125
159	95
160	40
161	35
162	20
163	10
164	5
165	10
166	10
167	15
168	15
169	50
170	35
171	40
172	105
173	55
174	55
175	150
176	45
177	15
178	10
179	15
180	10
181	25
182	25
183	35
184	30
185	35
186	25
187	25
188	999
189	135
190	40
191	10
192	10
193	20
194	15
195	25
196	20
197	30
198	25
199	35
200	30
201	35
202	15
203	20
204	20
205	10
206	5
207	20
208	20
209	20
210	15
211	20
212	25
213	60
214	40
215	35
216	10
217	5
218	5
219	10
220	10
221	15
222	15
223	40
224	25
225	30
226	30
227	30
228	100
229	20
230	10
231	5
232	5
233	10
234	10
235	15
236	10
237	10
238	20
239	45
240	35
241	30
242	10
243	5
244	5
245	5
246	5
247	5
248	10
249	25
250	10
251	15
252	20
253	45
254	35
255	80
256	30
257	5
258	5
259	10
260	10
261	10
262	10
263	10
264	10
265	15
266	35
267	10
268	10
269	5
270	5
271	5
272	5
273	5
274	5
275	15
276	15
277	20
278	10
279	10
280	50
281	60
282	35
283	10
284	5
285	5
286	5
287	5
288	10
289	10
290	10
291	5
292	5
293	5
294	30
295	10
296	5
297	5
298	5
299	5
300	5
301	5
302	5
303	5
304	5
305	5
308	5
310	5
311	5
312	120
313	30
314	10
315	15
316	10
317	10
318	20
319	5
320	5
324	5
325	5
326	5
327	5
328	5
329	10
330	20
331	10
332	5
334	5
338	5
339	5
340	5
341	5
342	10
343	10
344	10
345	10
346	5
349	5
352	5
353	5
354	10
355	5
356	25
357	10
358	10
360	15
361	5
362	5
367	10
368	10
369	5
370	40
371	35
372	20
373	5
374	5
376	5
382	5
383	5
384	170
385	60
386	15
387	5
400	15
401	5
402	70
403	25
404	5
405	5
406	5
414	5
415	10
416	5
417	5
418	5
419	5
420	5
428	5
432	5
433	5
442	5
443	10
444	5
445	5
446	35
447	15
448	20
449	10
452	5
457	5
458	15
459	5
460	10
461	10
462	5
472	5
473	15
474	380
475	140
476	55
477	20
478	5
479	5
488	5
490	15
491	5
492	20
493	10
494	5
504	15
505	30
506	15
507	5
532	5
534	25
535	10
536	5
548	5
549	5
550	15
551	5
552	5
562	5
563	5
564	190
565	115
566	60
567	15
568	5
580	30
581	15
582	10
583	5
593	5
594	5
595	130
596	75
597	40
598	10
599	5
