Mass Spectrum: 3,20-Dihydroxypregnan-11-one, (3.alpha.,5.beta.)-, 2TMS derivative
Formula: C27H50O3Si2
CAS: 32206-53-4
Molecular weight: 478
m/z	intensity
67	7
69	10
71	4
73	105
74	11
75	46
77	4
79	6
80	3
81	18
82	4
83	9
85	4
91	15
92	4
93	21
94	26
95	30
96	5
97	4
101	4
103	13
104	6
105	30
106	23
107	52
108	45
109	46
110	8
111	6
116	8
117	999
118	118
119	80
120	38
121	47
122	43
123	17
124	6
125	3
129	14
130	11
131	27
132	11
133	23
134	23
135	50
136	11
137	6
138	7
141	3
142	5
143	32
144	12
145	34
146	11
147	47
148	20
149	18
150	5
151	7
155	7
156	7
157	24
158	13
159	31
160	16
161	36
162	15
163	7
164	5
169	18
170	10
171	15
172	16
173	27
174	41
175	95
176	22
177	25
178	9
179	82
180	16
181	8
182	28
183	16
184	7
185	19
186	22
187	20
188	23
189	14
190	27
191	14
192	8
193	6
194	4
195	7
196	7
197	23
198	12
199	17
200	18
201	15
202	10
203	24
204	9
205	9
206	13
209	8
210	3
211	46
212	34
213	27
214	22
215	22
216	14
217	7
218	3
219	3
223	5
225	27
226	25
227	43
228	66
229	34
230	116
231	23
232	4
233	3
237	4
238	3
239	17
240	16
241	37
242	10
243	39
244	124
245	25
249	4
251	6
252	4
253	19
254	32
255	26
256	13
257	10
259	3
263	12
264	3
265	35
266	11
267	84
268	18
269	16
270	15
271	9
272	6
273	3
280	22
281	18
282	146
283	186
284	40
285	7
289	3
290	4
291	4
293	21
294	5
297	7
298	175
299	43
300	8
303	3
304	3
314	4
315	5
316	5
317	5
318	4
329	22
330	8
331	5
333	3
334	56
335	15
336	3
344	33
345	13
346	4
357	9
358	4
359	3
360	4
361	5
370	3
371	5
372	5
373	39
374	65
375	21
376	4
377	4
386	3
387	10
388	254
389	76
390	23
391	5
434	19
435	8
436	3
447	9
448	3
462	4
463	66
464	27
465	11
466	3
477	4
478	118
479	51
480	21
481	4
