Mass Spectrum: Pregn-4-ene-3,20-dione, 11,21-bis[(trimethylsilyl)oxy]-, bis(O-methyloxime), (11.beta.)-
Formula: C29H52N2O4Si2
CAS: 32206-60-3
Molecular weight: 548
m/z	intensity
14	2
15	3
26	1
27	3
28	3
29	22
30	13
31	9
32	3
33	1
39	5
40	1
41	35
42	16
43	19
44	11
45	83
46	5
47	10
48	2
49	1
50	1
51	2
52	3
53	17
54	15
55	39
56	11
57	7
58	22
59	65
60	9
61	10
62	1
63	1
65	9
66	7
67	31
68	11
69	9
70	11
71	6
72	20
73	999
74	90
75	142
76	10
77	40
78	12
79	70
80	30
81	40
82	15
83	5
84	15
85	9
86	4
87	3
88	21
89	213
90	23
91	122
92	30
93	77
94	28
95	30
96	8
97	6
98	61
99	8
100	12
101	13
102	9
103	297
104	59
105	104
106	39
107	46
108	23
109	15
110	17
111	9
112	9
113	8
114	13
115	28
116	30
117	72
118	69
119	100
120	82
121	35
122	33
123	16
124	11
125	23
126	17
127	12
128	30
129	72
130	62
131	92
132	60
133	54
134	44
135	21
136	26
137	24
138	15
139	26
140	8
141	21
142	39
143	112
144	79
145	88
146	66
147	44
148	20
149	35
150	33
151	73
152	78
153	52
154	18
155	32
156	39
157	42
158	96
159	40
160	40
161	18
162	19
163	10
164	13
165	21
166	19
167	19
168	18
169	30
170	39
171	26
172	66
173	20
174	15
175	36
176	31
177	14
178	12
179	13
180	13
181	21
182	20
183	18
184	26
185	14
186	18
187	11
188	172
189	29
190	30
191	21
192	38
193	22
194	15
195	23
196	19
197	14
198	16
199	9
200	7
201	7
202	11
203	5
204	10
205	8
206	9
207	3
208	14
209	14
210	16
211	9
212	9
213	3
214	9
215	3
216	6
217	8
218	8
219	10
220	11
221	19
222	17
223	14
224	26
225	13
226	10
227	4
228	4
229	3
230	5
231	7
232	7
233	14
234	12
235	13
236	19
237	12
238	20
239	11
240	25
241	8
242	8
243	4
244	6
245	15
246	11
247	12
248	15
249	14
250	20
251	27
252	25
253	7
254	9
255	3
256	29
257	9
258	8
259	6
260	15
261	11
262	12
263	9
264	14
265	10
266	41
267	27
268	11
269	4
270	8
271	19
272	8
273	5
274	11
275	6
276	13
277	17
278	11
279	5
280	4
281	8
282	13
283	7
284	10
285	4
286	3
287	2
288	7
289	5
290	7
291	23
292	22
293	43
294	14
295	5
296	15
297	10
298	22
299	6
300	2
301	2
302	1
303	2
304	2
305	26
306	12
307	7
308	4
309	10
310	6
311	3
312	2
313	1
314	3
315	2
316	2
317	1
318	1
319	1
320	4
321	4
322	3
323	27
324	13
325	6
326	9
327	4
328	3
329	2
330	6
331	2
332	1
333	1
334	2
335	1
336	2
337	7
338	3
339	2
340	4
341	3
342	3
343	1
344	1
345	1
346	2
347	1
348	3
349	2
350	2
351	3
352	4
353	3
354	4
355	20
356	10
357	3
358	2
359	1
360	2
361	133
362	38
363	11
364	5
365	20
366	8
367	5
368	4
369	3
370	1
371	1
372	2
373	2
374	53
375	14
376	4
377	1
378	3
379	3
380	5
381	17
382	8
383	17
384	6
385	3
386	5
387	2
388	2
389	1
393	2
394	1
395	23
396	61
397	23
398	6
399	6
400	2
401	2
402	1
408	1
410	1
411	8
412	6
413	7
414	8
415	3
416	1
425	2
426	44
427	103
428	34
429	9
430	2
431	1
441	1
443	6
444	2
445	9
446	3
447	1
455	1
456	1
457	1
458	22
459	8
460	2
461	1
471	3
472	1
473	1
485	3
486	4
487	4
488	2
489	1
501	2
502	1
503	5
504	2
505	1
516	3
517	64
518	26
519	9
520	3
533	2
534	1
535	1
548	51
549	22
550	8
551	2
