Mass Spectrum: Manganese, tricarbonyl[(1,2,3,4,5-.eta.)-1-[(dimethylamino)sulfonyl]-2-(1-hydroxy-1-methylethyl)-2,4-cyclopentadien-1-yl]-
Formula: C13H16MnNO6S
CAS: 32201-20-0
Molecular weight: 369
m/z	intensity
39	204
41	187
43	999
55	511
58	238
59	324
72	136
77	238
78	662
79	156
83	272
91	136
97	102
101	136
106	136
120	85
134	136
148	255
160	136
203	156
267	238
285	204
354	10
369	68
