Mass Spectrum: Pregnan-20-one, 3,11,21-tris[(trimethylsilyl)oxy]-, O-methyloxime, (3.alpha.,5.alpha.,11.beta.)-
Formula: C31H61NO4Si3
CAS: 32206-69-2
Molecular weight: 595
m/z	intensity
41	120
42	50
43	90
44	45
46	20
47	80
50	18
51	20
52	18
53	40
54	40
55	150
56	40
57	37
58	50
59	150
60	30
61	80
62	10
63	10
65	20
66	18
67	140
68	40
69	60
70	40
71	20
72	41
73	999
74	200
75	999
76	95
77	90
78	20
79	155
80	50
81	190
82	37
83	37
84	40
85	21
86	11
87	11
88	40
89	320
90	38
91	180
92	45
93	180
94	55
95	115
96	21
97	17
98	120
99	20
100	30
101	55
102	20
103	285
104	50
105	185
106	60
107	165
108	50
109	80
110	20
111	20
112	10
113	20
114	30
115	35
116	40
117	75
118	45
119	150
120	65
121	75
122	25
123	20
124	10
126	20
127	20
128	30
129	120
130	55
131	110
132	110
133	120
134	40
135	40
136	10
137	10
141	25
142	65
143	170
144	85
145	125
146	60
147	160
148	40
149	40
150	10
154	10
155	50
156	60
157	60
158	165
159	100
160	40
161	40
162	20
163	10
165	10
166	10
167	20
168	20
169	50
170	35
171	40
172	135
173	55
174	27
175	280
176	60
177	25
179	10
180	10
181	30
182	25
183	30
184	25
185	30
186	30
187	40
188	999
189	160
190	60
191	10
193	15
194	15
195	30
196	20
197	30
198	25
199	30
200	20
201	27
202	10
203	15
204	50
205	10
207	20
208	15
209	20
210	10
211	20
212	15
213	75
214	40
215	35
216	10
221	20
222	15
223	30
224	20
225	25
226	15
227	15
228	60
229	11
235	15
236	10
237	10
238	10
239	50
240	25
241	30
249	15
251	11
253	37
254	25
255	75
256	20
266	20
276	10
277	25
278	10
280	30
281	40
282	15
294	27
295	10
312	75
313	20
315	15
318	30
329	10
330	20
339	15
344	10
356	20
368	11
370	10
371	10
384	75
385	21
402	50
403	15
446	30
447	10
458	10
473	50
474	300
475	150
476	65
477	20
490	10
492	20
505	20
506	10
564	200
565	110
566	50
567	20
580	10
595	110
596	60
597	30
598	10
