Mass Spectrum: (Chloromethyl)thiirane
Formula: C3H5ClS
CAS: 3221-15-6
Molecular weight: 108
m/z	intensity
14	3
15	4
24	1
25	6
26	35
27	75
28	5
29	5
32	22
33	9
34	4
35	14
36	13
37	54
38	79
39	332
40	25
41	98
42	4
44	17
45	635
46	444
47	184
48	33
49	82
50	5
51	24
52	1
56	7
57	49
58	140
59	181
60	19
61	18
62	14
63	6
64	4
65	1
67	2
68	10
69	43
70	6
71	92
72	38
73	999
74	45
75	615
76	30
77	185
78	10
79	6
80	21
81	7
82	8
83	2
91	1
92	3
93	8
94	4
95	3
96	1
103	1
105	2
108	727
109	32
110	267
111	11
112	10
