Mass Spectrum: 5.beta.-Androstan-3.alpha.,11.alpha.,17.beta.-triol
Formula: C19H32O3
CAS: 32212-61-6
Molecular weight: 308
m/z	intensity
41	757
43	716
44	167
45	69
47	6
51	17
53	221
55	775
57	469
58	36
59	14
60	12
61	3
63	4
65	74
67	439
68	76
69	275
70	108
71	101
73	21
75	2
77	168
79	458
81	520
82	48
83	140
84	28
85	24
87	5
89	6
91	302
93	390
94	190
95	288
96	102
97	146
98	26
99	6
100	9
103	15
105	289
106	292
107	276
108	186
109	170
110	75
111	37
112	4
113	7
114	4
115	17
117	77
118	74
119	148
120	124
121	134
122	81
124	999
125	103
126	17
127	4
129	33
131	174
133	179
134	64
135	109
136	63
137	34
138	22
139	5
141	6
143	52
145	146
146	49
147	113
148	75
149	118
150	42
151	62
152	19
153	7
154	12
155	5
157	47
158	10
159	124
160	37
161	69
162	36
163	29
164	165
165	41
166	17
167	7
169	13
171	37
172	15
173	34
174	25
175	29
176	19
177	39
178	82
179	30
180	7
181	4
183	14
185	29
187	30
188	10
189	14
190	26
191	10
192	4
193	7
197	17
199	28
200	13
201	16
202	4
203	10
204	3
205	2
211	8
212	3
213	66
214	9
215	31
216	13
217	12
218	21
219	3
225	3
227	3
228	28
229	17
230	3
231	32
232	4
233	16
234	3
239	48
240	5
243	7
244	2
245	2
246	11
251	15
253	4
254	38
255	39
257	78
258	10
271	4
272	129
273	42
275	35
276	3
289	3
290	80
291	15
