Mass Spectrum: 5.alpha.-Androstan-17-one, 3.alpha.,11.beta.-bis(trimethylsiloxy)-, O-methyloxime
Formula: C26H49NO3Si2
CAS: 32221-29-7
Molecular weight: 479
m/z	intensity
41	209
42	54
43	200
44	49
45	109
47	54
53	60
54	34
55	234
56	49
57	100
58	44
59	100
60	24
61	104
65	44
66	40
67	260
68	74
69	100
70	60
71	60
72	49
73	999
74	174
75	999
76	94
77	124
78	24
79	254
80	60
81	300
82	74
83	69
84	49
85	49
87	74
88	24
89	84
91	274
92	74
93	274
94	124
95	174
96	54
97	40
98	9
99	20
100	20
101	100
102	9
103	74
104	24
105	249
106	100
107	274
108	100
109	124
110	49
111	24
112	24
113	49
114	9
115	44
116	44
117	100
118	60
119	149
120	74
121	100
122	49
123	29
124	44
125	500
126	124
127	60
128	40
129	149
130	49
131	124
132	54
133	149
134	89
135	60
136	24
137	9
138	89
139	40
140	24
141	49
142	60
143	180
144	74
145	124
146	74
147	224
148	74
149	109
150	40
151	24
152	49
153	24
154	20
155	60
156	44
157	54
158	109
159	140
160	124
161	60
162	40
163	9
164	20
165	20
166	24
167	24
168	24
169	100
170	49
171	49
172	60
173	74
174	49
175	24
176	20
179	20
180	20
181	49
182	260
183	109
184	49
185	49
186	40
187	24
188	20
191	20
192	20
193	20
194	24
195	49
196	80
197	49
198	200
199	49
200	24
207	40
208	24
209	74
210	60
211	100
212	60
213	694
214	124
215	149
216	24
217	24
219	9
226	40
227	24
228	20
237	9
238	9
240	89
241	24
242	20
251	40
252	49
253	74
254	24
266	24
267	24
268	474
269	100
270	20
284	89
285	24
298	24
299	24
300	24
301	24
322	20
339	49
340	20
341	9
342	24
343	54
344	9
357	29
358	474
359	160
360	49
361	9
362	9
363	20
374	49
375	20
376	54
377	9
388	40
389	54
390	24
422	24
423	29
424	20
448	999
449	424
450	149
451	49
464	49
465	24
479	74
480	24
481	9
