Mass Spectrum: Androsta-3,5-dien-7-one
Formula: C19H26O
CAS: 32222-21-2
Molecular weight: 270
m/z	intensity
41	999
42	120
43	280
44	50
45	20
50	30
51	130
52	80
53	340
54	40
55	520
56	20
57	40
58	10
63	50
64	20
65	250
66	70
67	390
68	40
69	200
70	20
71	20
77	420
78	160
79	560
80	80
81	330
82	40
83	60
84	10
85	10
89	30
90	20
91	820
92	120
93	330
94	50
95	160
96	20
97	10
102	20
103	80
104	40
105	310
106	110
107	170
108	40
109	70
110	10
111	40
115	150
116	50
117	120
118	30
119	230
120	40
121	80
122	10
127	40
128	100
129	100
130	30
131	120
132	40
133	130
134	240
135	200
136	20
141	80
142	30
143	60
144	30
145	150
146	70
147	140
148	70
149	20
152	10
153	20
154	10
155	20
156	10
157	50
158	20
159	790
160	150
161	530
162	120
163	30
165	20
166	10
167	10
169	20
170	10
171	40
172	20
173	170
174	440
175	160
176	20
181	10
183	20
184	10
185	60
186	10
187	450
188	80
189	20
199	50
200	10
201	30
202	10
213	40
214	10
227	70
228	160
229	30
237	10
241	30
242	50
243	10
255	420
256	70
257	10
269	20
270	920
271	200
272	10
