Mass Spectrum: Silane, [[(3.beta.,11.beta.,20S)-pregn-5-ene-3,11,17,20-tetrayl]tetrakis(oxy)]tetrakis[trimethyl-
Formula: C33H66O4Si4
CAS: 32221-72-0
Molecular weight: 638
m/z	intensity
41	75
42	15
43	100
44	50
45	165
46	15
47	60
48	10
49	10
50	10
51	15
52	10
53	25
54	10
55	190
56	40
57	30
58	40
59	95
60	20
61	65
62	10
63	15
64	5
65	15
66	10
67	80
68	20
69	55
70	15
71	25
72	60
73	999
74	365
75	999
76	75
77	70
78	15
79	110
80	20
81	140
82	20
83	35
84	5
85	25
86	10
87	15
88	10
89	30
91	190
92	35
93	135
94	25
95	75
96	10
97	20
98	10
99	20
101	75
102	20
103	140
104	25
105	235
106	45
107	155
108	25
109	30
110	5
111	15
113	25
115	70
116	50
117	900
118	135
119	195
120	40
121	45
122	10
123	15
125	10
126	5
127	40
128	40
129	530
130	120
131	300
132	50
133	160
134	25
135	25
136	5
137	10
138	5
139	10
140	10
141	75
142	55
143	430
144	95
145	190
146	80
147	650
148	115
149	95
150	20
151	25
152	15
153	25
154	25
155	160
156	75
157	240
158	55
159	75
160	25
161	25
162	5
163	20
164	10
165	35
166	15
167	60
168	50
169	295
170	100
171	125
172	150
173	65
174	15
175	20
176	5
177	15
178	15
179	75
180	30
181	115
182	65
183	115
184	40
185	65
186	40
187	25
188	5
189	15
190	5
191	85
192	30
193	70
194	45
195	180
196	75
197	140
198	35
199	35
200	15
201	10
202	5
203	15
204	10
205	30
206	20
207	65
208	40
209	180
210	55
211	125
212	55
213	25
214	10
215	15
216	10
217	65
218	140
219	55
220	35
221	80
222	40
223	75
224	35
225	75
226	25
227	15
228	5
229	10
230	10
231	70
232	35
233	40
234	20
235	45
236	55
237	40
238	15
239	25
240	10
241	10
243	15
244	15
245	40
246	35
247	45
248	20
249	45
250	35
251	999
252	210
253	50
254	5
255	10
256	5
257	10
258	10
259	15
260	10
261	20
262	10
263	40
264	15
265	15
266	5
267	15
268	10
269	25
270	20
271	20
272	10
273	15
274	10
275	10
276	15
277	15
278	50
279	55
280	20
281	10
282	5
283	10
284	10
285	20
286	10
287	20
288	10
289	5
295	10
296	5
297	10
298	10
299	40
300	15
301	25
302	15
303	5
304	35
305	15
306	20
307	10
308	15
309	5
310	5
325	15
326	10
327	10
337	45
338	20
339	20
340	30
341	750
342	230
343	75
344	20
345	5
353	35
354	15
355	10
356	10
357	10
368	15
369	25
370	10
371	10
429	10
430	15
431	145
432	60
433	30
434	5
458	20
459	10
460	5
519	10
520	30
521	115
522	60
523	30
524	10
533	15
534	10
535	5
548	15
549	5
550	5
623	2
638	5
639	5
640	2
641	2
