Mass Spectrum: Pregn-4-ene-3,20-dione, 11,17,21-tris[(trimethylsilyl)oxy]-, bis(O-methyloxime), (11.beta.)-
Formula: C32H60N2O5Si3
CAS: 32221-26-4
Molecular weight: 636
m/z	intensity
41	70
42	35
43	100
44	35
45	170
46	10
47	35
48	5
50	5
51	5
52	5
53	25
54	30
55	160
56	25
57	25
58	30
59	110
60	15
61	30
62	5
63	5
65	15
66	15
67	55
68	25
69	45
70	20
71	20
72	55
73	999
74	320
75	475
76	30
77	65
78	20
79	110
80	40
81	80
82	45
83	20
84	80
85	25
86	10
87	10
88	15
89	180
90	20
91	170
92	45
93	140
94	60
95	60
96	25
97	20
98	15
99	15
100	35
101	40
102	15
103	440
104	90
105	185
106	65
107	75
108	40
109	30
110	25
111	15
112	15
113	25
114	90
115	70
116	60
117	115
118	100
119	130
120	110
121	60
122	45
123	30
124	15
125	25
126	25
127	30
128	70
129	150
130	90
131	160
132	95
133	140
134	60
135	40
136	35
137	60
138	20
139	20
140	20
141	50
142	60
143	225
144	115
145	115
146	80
147	285
148	70
149	70
150	60
151	120
152	95
153	50
154	55
155	70
156	90
157	85
158	80
159	60
160	70
161	40
162	25
163	35
164	25
165	40
166	30
167	50
168	160
169	140
170	110
171	65
172	170
173	75
174	35
175	30
176	50
177	45
178	30
179	45
180	45
181	80
182	115
183	80
184	75
185	45
186	40
187	30
188	45
189	25
190	70
191	95
192	40
193	70
194	55
195	95
196	70
197	60
198	110
199	45
200	30
201	25
202	120
203	45
204	55
205	45
206	35
207	90
208	70
209	70
210	60
211	50
212	55
213	25
214	50
215	20
216	65
217	40
218	30
219	40
220	50
221	90
222	75
223	65
224	75
225	50
226	50
227	30
228	30
229	20
230	40
231	40
232	50
233	70
234	50
235	60
236	55
237	65
238	65
239	50
240	155
241	40
242	75
243	50
244	105
245	195
246	260
247	125
248	65
249	45
250	55
251	25
252	25
253	15
254	30
255	15
256	105
257	60
258	95
259	40
260	70
261	40
262	60
263	55
264	110
265	75
266	40
267	20
268	20
269	20
270	50
271	155
272	50
273	20
274	25
275	20
276	100
277	30
278	20
279	20
280	40
281	80
282	65
283	25
284	20
285	20
286	25
287	15
288	60
289	25
290	15
291	15
292	50
293	20
294	50
295	40
296	205
297	55
298	35
299	20
300	45
301	15
302	20
303	50
304	30
305	15
306	10
307	15
308	10
309	10
310	15
311	15
312	35
313	30
314	20
315	10
316	10
317	5
318	15
319	10
320	15
321	40
322	20
323	10
324	15
325	10
326	15
327	10
328	15
329	10
330	50
331	25
332	15
333	5
334	15
335	55
336	20
337	15
338	15
339	20
340	20
341	15
342	10
343	5
344	5
345	5
346	10
347	5
348	15
349	5
350	10
351	15
352	25
353	20
354	50
355	35
356	25
357	10
358	10
359	5
360	20
361	295
362	95
363	35
364	15
365	10
366	30
367	20
368	10
369	10
370	25
371	15
372	25
373	10
374	15
375	5
376	10
377	5
378	10
379	15
380	10
381	25
382	10
383	10
384	30
385	35
386	65
387	25
388	10
389	5
392	5
393	45
394	45
395	30
396	15
397	15
398	10
399	10
400	5
401	15
402	30
403	20
404	10
408	5
409	10
410	10
411	30
412	20
413	10
414	5
415	5
416	5
423	5
424	10
425	210
426	70
427	25
428	10
429	15
430	10
431	5
438	5
439	10
440	10
441	15
442	10
443	15
444	35
445	15
446	10
447	5
448	5
452	5
453	5
454	5
455	5
456	30
457	15
458	5
459	5
460	5
461	10
462	5
463	10
464	5
468	5
469	10
470	5
471	10
472	5
473	5
474	15
475	15
476	55
477	25
478	10
483	25
484	35
485	30
486	15
487	30
488	15
489	10
490	5
493	10
494	5
498	5
499	5
500	5
501	15
502	10
503	10
504	5
505	5
513	5
514	30
515	380
516	170
517	70
518	20
519	5
531	10
532	5
533	40
534	15
535	5
545	5
546	65
547	35
548	15
549	5
550	5
573	15
574	25
575	55
576	45
577	35
578	20
579	15
580	5
581	5
589	5
590	5
591	10
592	5
604	5
605	999
606	550
607	250
608	80
609	20
610	5
621	20
622	10
623	5
635	30
636	430
637	235
638	110
639	35
640	10
