Mass Spectrum: Silane, (pregn-5-ene-3.beta.,11.beta.,17,20.beta.-tetrayltetraoxy)tetrakis[trimethyl-
Formula: C33H66O4Si4
CAS: 32221-73-1
Molecular weight: 638
m/z	intensity
41	55
42	10
43	85
44	35
45	135
46	10
47	40
48	5
49	5
50	5
51	5
52	5
53	20
54	5
55	185
56	15
57	20
58	15
59	75
60	15
61	50
62	5
63	5
65	10
66	5
67	65
68	15
69	45
70	10
71	15
72	55
73	999
74	340
75	840
76	60
77	65
78	10
79	75
80	15
81	85
82	10
83	25
85	20
87	15
88	5
89	25
90	5
91	190
92	35
93	135
94	20
95	65
96	10
97	15
98	5
99	15
100	5
101	65
102	15
103	145
104	25
105	225
106	40
107	155
108	20
109	25
110	5
111	10
113	25
114	5
115	65
116	40
117	860
118	130
119	190
120	40
121	45
122	5
123	10
124	5
125	10
126	5
127	40
128	35
129	395
130	100
131	275
132	50
133	130
134	20
135	25
136	5
137	5
138	5
139	10
140	5
141	65
142	50
143	455
144	105
145	200
146	80
147	500
148	85
149	80
150	15
151	20
152	10
153	20
154	20
155	145
156	80
157	250
158	50
159	75
160	20
161	20
162	5
163	15
164	5
165	25
166	15
167	50
168	45
169	280
170	95
171	120
172	120
173	65
174	15
175	20
176	5
177	15
178	10
179	60
180	25
181	110
182	50
183	110
184	40
185	65
186	30
187	20
188	5
189	10
190	5
191	90
192	25
193	60
194	40
195	170
196	65
197	135
198	35
199	35
200	10
201	10
202	5
203	15
204	5
205	30
206	15
207	55
208	30
209	160
210	55
211	140
212	45
213	20
214	5
215	10
216	5
217	75
218	185
219	65
220	35
221	75
222	35
223	75
224	35
225	75
226	30
227	10
228	5
229	10
230	10
231	85
232	45
233	45
234	20
235	40
236	45
237	40
238	15
239	20
240	10
241	5
242	5
243	10
244	15
245	55
246	50
247	50
248	20
249	45
250	35
251	999
252	230
253	45
254	10
255	5
256	5
257	10
258	5
259	10
260	5
261	15
262	10
263	60
264	25
265	15
266	5
267	10
268	5
269	20
270	15
271	15
272	10
273	15
274	15
275	10
276	10
277	15
278	75
279	70
280	15
281	10
282	5
283	10
284	5
285	15
286	10
287	20
288	5
289	5
295	5
296	5
297	10
298	5
299	35
300	15
301	25
302	15
303	5
309	5
310	5
311	30
312	10
313	15
314	10
315	20
316	5
325	15
326	10
327	15
328	5
329	5
336	5
337	80
338	25
339	20
340	30
341	950
342	290
343	85
344	15
345	5
353	60
354	20
355	10
356	5
357	10
358	5
367	5
368	35
369	50
370	15
371	5
391	5
405	10
406	5
415	5
429	5
430	15
431	195
432	75
433	30
434	10
443	25
444	10
445	5
457	5
458	40
459	20
460	10
519	10
520	20
521	210
522	95
523	45
524	15
533	45
534	25
535	10
547	5
548	75
549	35
550	15
551	5
623	1
637	5
638	15
639	10
640	5
