Mass Spectrum: Mandelic acid, 4-hydroxy-3-methoxy-, methyl ester, 2TMS derivative
Formula: C16H28O5Si2
CAS: 3223-45-8
Molecular weight: 356
m/z	intensity
40	10
42	6
43	38
44	36
45	204
46	12
47	12
51	5
57	8
58	16
59	116
60	10
61	9
63	4
72	9
73	999
74	89
75	67
76	9
77	24
83	7
89	116
90	11
91	17
103	5
105	7
107	5
119	5
121	5
126	5
131	5
133	8
135	11
137	8
147	7
149	8
151	6
161	5
163	25
164	6
165	10
166	6
177	7
178	6
179	13
192	8
193	41
194	63
195	12
206	5
207	10
209	31
210	6
223	46
224	11
237	9
239	5
251	6
265	9
267	56
268	15
269	5
281	6
297	807
298	195
299	69
300	12
313	26
314	6
341	48
342	14
343	5
356	31
357	10
