Mass Spectrum: Isoindole-1,3(3aH,7aH)-dione, 4,7-dihydro-4-methyl-2-(2-naphthyl)-
Formula: C19H17NO2
CAS: 322417-19-6
Molecular weight: 291
m/z	intensity
33	13
37	10
38	98
39	924
41	585
42	83
43	36
44	16
45	14
46	14
47	1
50	139
51	348
52	177
53	418
54	111
55	92
56	8
57	10
58	2
59	0
61	4
62	63
63	179
64	59
65	301
66	117
67	237
68	142
69	15
70	8
71	6
72	0
73	2
74	32
75	50
76	60
77	999
78	266
79	969
80	59
81	18
82	10
83	1
85	4
86	18
87	38
88	61
89	62
90	35
91	434
93	421
94	290
95	17
96	0
97	1
98	6
99	7
100	9
101	20
102	7
103	3
104	6
105	19
106	7
107	5
108	0
109	2
111	6
112	9
113	116
114	219
115	196
116	43
117	5
118	2
119	13
120	15
121	27
122	4
123	0
125	3
126	13
127	183
129	33
131	3
132	0
135	1
136	1
138	5
139	17
140	386
141	236
142	59
143	64
144	12
145	0
147	0
149	0
150	1
151	2
152	10
153	43
154	15
156	3
157	0
163	0
165	3
166	11
167	41
169	242
170	47
171	7
172	0
178	3
180	2
181	2
182	4
183	0
194	3
195	2
196	4
206	4
209	1
218	1
220	2
221	0
222	8
223	29
224	52
225	10
227	0
229	0
234	2
237	0
243	0
247	0
248	2
262	2
263	0
276	0
282	0
288	2
289	2
291	89
292	15
293	0
