Mass Spectrum: Carbamic acid, methyl[(4-methylphenyl)sulfonyl]-, methyl ester
Formula: C10H13NO4S
CAS: 32258-50-7
Molecular weight: 243
m/z	intensity
15	36
18	27
28	58
39	81
41	31
51	31
59	18
63	54
64	22
65	239
66	18
71	31
89	67
90	27
91	999
92	99
107	13
118	13
139	22
155	800
156	81
157	45
184	800
185	86
186	40
243	131
244	4
