Mass Spectrum: Erythronolide a, 12-deoxy-
Formula: C21H38O7
CAS: 3225-82-9
Molecular weight: 402
m/z	intensity
41	282
43	999
55	230
56	100
57	506
58	139
69	393
70	100
71	415
85	341
86	227
95	134
96	79
97	143
98	99
99	710
100	79
103	71
109	173
110	174
111	132
113	812
114	93
115	94
125	412
126	123
127	98
137	103
143	381
155	312
165	150
172	103
173	56
183	119
184	97
187	27
193	86
195	44
198	26
201	47
211	25
212	19
213	31
221	104
223	541
224	89
239	129
240	18
241	92
242	13
251	24
257	44
259	21
268	20
269	20
279	16
286	10
287	10
296	9
297	17
314	50
315	83
316	13
317	2
324	4
325	4
326	3
342	2
343	4
344	6
354	5
355	2
384	8
385	4
