Mass Spectrum: S-Benzyl-N2-(4-nitrobenzoyl)cysteine N'-(1-methylpentylidene)hydrazide
Formula: C23H28N4O4S
CAS: 322682-80-4
Molecular weight: 456
m/z	intensity
33	12
34	8
36	2
37	5
38	11
39	77
40	108
41	147
42	248
43	63
44	80
45	72
46	8
47	8
48	3
50	41
51	34
52	12
53	13
54	14
55	91
56	32
57	185
58	25
59	9
60	4
61	7
62	13
63	42
64	23
65	122
66	10
67	9
68	10
69	21
70	37
71	26
72	227
73	23
74	16
75	35
76	111
77	41
78	13
79	11
80	5
81	11
82	11
83	18
84	11
85	33
86	9
87	8
88	4
89	23
91	999
92	202
93	11
94	5
95	4
96	9
97	13
98	64
99	22
100	106
101	14
102	12
103	18
104	227
105	26
106	11
107	4
108	3
109	5
110	2
111	15
112	9
113	17
114	28
115	299
116	21
117	7
118	9
119	10
120	237
121	45
122	20
123	15
124	56
125	14
126	9
127	6
128	2
129	4
130	2
131	2
132	4
133	3
134	33
135	10
136	8
137	12
138	3
139	6
140	7
141	159
142	14
143	3
145	4
146	4
147	4
148	8
149	77
150	413
151	39
152	9
153	14
154	3
156	2
157	30
158	5
159	4
160	2
161	5
162	5
163	6
164	5
165	4
166	8
167	68
168	9
169	13
171	9
175	5
176	4
177	44
178	7
179	5
182	7
183	2
184	5
185	1
187	2
188	2
189	4
190	2
191	10
192	6
193	18
194	6
198	2
199	58
200	8
201	3
203	5
204	2
206	2
207	1
217	4
218	2
219	34
220	7
221	9
222	6
223	3
225	8
233	12
234	7
235	3
236	5
248	5
249	1
251	31
252	6
253	3
257	3
262	2
264	42
265	9
266	2
275	4
277	6
290	9
291	9
292	17
293	2
317	2
319	2
332	2
333	17
334	18
335	10
336	1
363	2
365	204
366	37
367	12
414	5
415	1
456	7
