Mass Spectrum: 2-n-Hexylphenol
Formula: C12H18O
CAS: 3226-32-2
Molecular weight: 178
m/z	intensity
39	40
40	10
41	40
42	10
43	20
51	20
52	10
53	20
55	20
64	10
65	20
66	10
77	90
78	30
79	20
91	20
93	10
94	20
105	10
107	999
108	110
109	10
115	10
119	10
120	20
121	10
133	10
178	160
179	30
