Mass Spectrum: Na-(3,5-dinitrobenzoyl)tyrosine N'-[4-(allyloxy)benzylidene]hydrazide
Formula: C26H23N5O8
CAS: 322682-74-6
Molecular weight: 533
m/z	intensity
36	9
37	34
38	39
39	258
41	712
42	35
43	52
44	232
45	12
46	18
47	4
49	13
50	71
51	147
52	79
53	66
54	16
55	48
56	15
57	12
58	9
59	4
61	14
62	36
63	91
64	57
65	77
66	20
67	15
68	7
69	7
70	9
71	4
73	8
74	72
75	297
76	73
77	255
78	131
79	98
80	66
81	17
85	9
86	4
87	6
89	33
90	44
91	123
92	41
93	34
94	38
95	17
96	6
98	6
99	9
100	9
101	21
102	42
103	135
104	58
105	128
106	119
107	999
108	93
109	14
115	33
116	31
117	62
118	29
119	117
120	114
121	60
122	20
123	11
127	27
128	9
129	4
130	24
131	38
132	97
133	61
134	98
135	397
136	79
137	14
138	8
140	7
141	6
144	24
145	34
146	124
147	336
148	64
149	249
150	33
151	12
153	5
158	13
159	50
160	106
161	91
162	596
163	156
165	68
166	7
168	4
173	4
174	9
175	86
176	267
177	65
178	6
179	28
181	4
187	10
188	14
189	16
190	23
191	6
195	320
196	25
202	21
203	99
204	20
207	6
211	12
216	98
217	18
218	3
219	8
232	17
250	8
251	3
252	6
281	7
302	4
321	5
322	71
323	19
327	5
329	22
330	31
397	6
427	5
533	13
