Mass Spectrum: N.alpha.-[N-(tert-butoxycarbonyl)methionyl]tyrosine N'-isopropylidenehydrazide
Formula: C22H34N4O5S
CAS: 322682-68-8
Molecular weight: 466
m/z	intensity
33	5
38	29
39	211
40	7
41	546
42	158
43	106
44	223
45	58
46	15
47	46
48	22
49	14
50	23
51	35
52	22
53	41
54	43
55	169
56	788
57	999
58	275
59	143
61	807
62	29
63	38
64	7
65	29
66	8
67	7
68	18
69	21
70	28
71	30
72	119
73	409
74	39
75	40
76	7
77	93
78	29
79	25
80	10
81	10
82	20
83	28
84	27
85	60
86	17
87	16
88	48
89	17
90	18
91	123
92	11
93	8
94	22
95	6
96	13
97	12
98	13
99	129
100	31
101	22
102	22
104	475
105	36
106	50
107	364
108	62
109	12
110	10
111	101
112	18
113	16
114	28
115	11
116	39
117	14
118	26
119	58
120	85
121	28
122	8
123	5
125	6
126	9
127	15
128	283
129	32
130	31
131	75
132	18
133	21
134	63
135	96
136	683
137	73
138	9
139	7
140	31
144	45
145	14
146	24
147	446
148	100
149	64
150	8
151	5
154	6
155	7
156	5
157	7
158	38
159	15
160	9
161	12
162	100
163	43
164	22
165	6
166	7
167	9
168	7
171	8
172	5
173	6
174	7
175	25
176	45
177	23
178	25
179	9
182	7
185	5
186	5
188	7
189	9
190	15
191	12
192	79
193	51
194	7
195	5
200	7
201	7
203	130
204	27
205	10
216	6
217	19
218	454
219	111
220	142
221	22
222	9
230	6
234	6
236	63
237	10
238	10
243	6
249	13
259	9
260	8
261	6
262	16
263	10
264	22
265	8
267	26
268	6
274	8
277	5
281	7
292	52
293	21
294	25
295	9
296	8
304	18
311	10
312	11
318	12
326	7
336	71
337	14
338	7
339	21
366	19
368	9
370	8
392	82
393	32
394	8
410	9
466	10
