Mass Spectrum: 7H-[1,3]Thiazolo[3,2-a]pyrimidin-7-one
Formula: C6H4N2OS
CAS: 32278-38-9
Molecular weight: 152
m/z	intensity
33	16
34	14
37	87
38	193
39	329
40	190
41	237
42	104
43	123
44	218
45	690
46	122
47	31
48	6
50	11
51	68
52	215
53	289
54	352
55	96
56	52
57	359
58	999
59	120
60	51
61	9
62	60
63	14
64	38
65	35
66	26
67	94
68	86
69	82
70	205
71	164
72	104
73	25
74	4
76	16
77	14
78	6
79	37
80	47
81	106
82	21
83	46
84	72
85	10
86	43
87	3
91	8
92	11
93	15
94	12
95	12
96	13
97	110
98	62
99	17
100	12
107	5
111	28
112	18
113	8
123	13
124	809
125	57
126	370
127	24
128	17
135	15
151	4
152	764
153	73
154	40
