Mass Spectrum: 2,2'-Bis[(3-dimethylaminopropyl)aminocarbonyl]diphenyl disulfide
Formula: C24H34N4O2S2
CAS: 32276-24-7
Molecular weight: 474
m/z	intensity
41	23
42	100
43	33
44	71
45	27
46	8
47	1
48	3
50	10
51	8
52	2
53	2
54	6
55	4
56	47
57	38
58	999
59	52
60	3
61	1
62	3
63	12
64	10
65	26
66	2
68	5
69	34
70	80
71	53
72	76
73	5
74	4
75	5
76	12
77	12
78	3
80	1
81	4
82	21
83	15
84	325
85	47
86	17
87	1
90	2
91	2
92	3
93	1
95	2
96	5
97	15
98	13
99	25
100	3
101	1
102	1
103	2
104	4
105	8
106	5
107	2
108	43
109	42
110	5
111	2
113	2
118	2
121	1
122	4
123	1
127	1
132	0
134	4
135	4
136	99
137	48
138	8
139	2
148	1
149	1
150	5
151	9
152	3
153	2
154	3
162	0
163	3
164	11
165	3
166	2
167	1
178	2
191	4
192	5
193	2
194	2
206	1
222	1
236	33
237	11
238	30
239	6
240	1
474	0
