Mass Spectrum: Na-(3,5-dinitrobenzoyl)tyrosine N'-(1-methylhexylidene)hydrazide
Formula: C23H27N5O7
CAS: 322756-53-6
Molecular weight: 485
m/z	intensity
32	37
33	5
34	10
38	22
39	100
40	175
41	259
42	308
43	319
44	177
45	13
46	5
50	23
51	34
52	32
53	49
54	39
55	193
56	86
57	335
58	52
59	10
60	7
61	3
62	10
63	48
64	30
65	35
66	14
67	23
68	35
69	48
70	108
71	111
72	579
73	57
74	45
75	350
76	40
77	137
78	49
79	43
80	16
81	31
82	37
83	53
84	30
85	105
86	26
87	7
89	19
90	19
91	95
92	15
93	11
94	56
95	23
96	44
97	66
98	37
99	34
100	4
102	10
103	132
104	29
105	19
106	57
107	999
108	108
109	20
110	18
111	50
112	97
113	25
114	71
115	10
116	18
117	11
118	18
119	78
120	47
121	18
122	8
123	8
124	9
125	19
126	14
127	46
128	35
129	48
130	8
132	24
133	27
134	74
135	115
136	32
137	18
138	5
139	8
141	3
142	2
144	9
145	15
147	737
148	75
149	305
150	35
151	12
152	8
153	9
155	118
156	13
157	4
160	6
162	53
163	42
164	14
165	82
166	14
167	42
168	5
171	8
174	3
175	5
176	8
177	14
178	43
179	43
181	9
182	6
184	19
185	3
188	2
189	14
190	15
191	10
192	3
193	8
195	390
196	37
197	6
201	3
203	248
204	31
207	3
208	3
209	3
210	5
211	2
212	8
217	31
218	313
219	39
220	6
231	16
232	20
233	10
236	2
237	3
245	5
246	5
250	2
252	3
259	17
260	5
261	3
274	212
275	88
276	14
277	4
279	4
283	6
284	4
290	2
300	5
301	2
308	13
309	2
313	4
314	18
315	4
322	5
323	9
327	2
328	4
330	87
331	14
332	4
336	10
356	7
378	22
379	41
380	7
429	69
430	13
443	4
485	18
486	6
