Mass Spectrum: 19-Norbrassicaster-3-one, 7,8,9,10-detetrahydro-
Formula: C27H38O
CAS: 32277-76-2
Molecular weight: 378
m/z	intensity
41	305
43	999
44	38
45	21
47	15
48	2
49	51
50	4
51	31
53	70
55	568
56	35
57	68
58	8
59	18
60	4
63	8
65	33
67	152
68	8
69	260
70	56
71	50
72	2
73	10
74	6
77	58
78	17
79	54
81	132
82	55
83	103
84	45
85	21
86	23
87	4
89	4
91	68
93	57
94	16
95	67
96	34
97	45
98	15
99	10
101	8
102	8
103	12
105	39
106	13
107	32
108	11
109	85
110	13
111	14
112	3
113	7
115	88
116	23
117	15
119	9
121	15
123	43
124	17
125	24
127	41
128	72
129	82
130	14
131	23
133	6
135	7
137	43
138	3
139	10
141	130
142	52
143	58
144	12
145	9
146	3
147	3
149	4
151	13
152	55
153	81
154	67
155	141
156	39
157	46
158	9
159	23
160	3
161	3
163	4
165	92
166	42
167	72
168	31
169	68
170	23
171	17
172	3
173	10
174	2
175	6
176	3
177	9
178	27
179	37
180	17
181	52
182	29
183	55
184	28
185	64
186	13
187	9
188	2
189	8
190	3
191	12
192	9
193	22
194	18
195	53
196	30
197	125
198	39
199	76
200	15
201	14
202	8
203	8
204	3
205	9
206	4
207	20
208	11
209	43
210	27
211	176
212	61
213	55
214	15
215	14
216	3
217	3
219	3
221	11
222	9
223	28
224	30
225	63
226	149
227	50
228	23
229	8
230	3
231	2
233	3
234	2
235	17
236	12
237	72
238	31
239	26
240	9
241	8
242	7
243	7
244	3
247	3
248	4
249	14
250	25
251	149
252	48
253	122
254	35
255	13
256	3
257	2
263	8
264	7
265	41
266	17
267	28
268	10
269	7
277	8
278	3
279	19
280	44
281	22
282	10
283	4
293	4
294	15
295	7
296	9
297	3
298	2
308	6
310	2
324	2
335	11
336	3
350	3
351	3
362	3
363	7
364	2
376	34
378	181
379	51
380	12
381	2
