Mass Spectrum: 1,2,3,6-Tetrahydro-3'-methyl-3,6-diphenylphthalanilic acid
Formula: C27H25NO3
CAS: 322756-02-5
Molecular weight: 411
m/z	intensity
39	288
40	9
41	37
42	22
44	153
51	334
52	103
53	163
55	10
57	9
63	167
65	146
66	19
67	10
68	5
69	6
70	5
71	4
74	37
77	500
78	115
79	158
80	44
81	9
83	18
84	3
86	25
89	188
91	793
95	53
99	28
101	100
102	87
103	62
104	49
106	999
107	979
110	3
113	33
115	264
117	85
118	12
119	3
120	5
121	3
122	3
123	2
128	362
129	125
131	48
132	10
133	3
134	2
135	2
136	2
139	25
141	137
142	29
144	18
146	2
147	1
149	6
152	152
153	82
154	81
155	41
157	20
158	3
159	1
160	6
161	5
163	9
165	59
166	9
167	9
168	4
169	3
170	1
171	3
172	5
173	2
174	2
175	3
176	10
178	48
179	22
181	12
182	3
183	6
186	32
187	7
189	39
190	28
191	114
192	17
193	2
197	1
198	3
199	2
200	8
202	79
203	61
204	59
205	178
206	710
207	108
208	8
210	3
211	1
213	6
215	71
216	41
217	33
218	6
219	1
220	1
224	2
225	5
226	13
227	9
228	23
229	24
230	43
231	115
232	232
233	44
234	3
237	1
239	1
241	4
242	1
244	1
249	1
250	1
255	1
256	4
257	7
258	11
259	7
260	2
262	1
263	4
264	1
274	1
276	84
277	16
278	2
287	1
300	5
301	2
302	6
304	128
305	28
306	4
314	1
393	3
394	1
411	14
412	4
