Mass Spectrum: 3,4:9,10-Bis(dicarboximido)perylene, N,N'-bis(4-aminophenyl)-
Formula: C36H20N4O4
CAS: 32283-91-3
Molecular weight: 572
m/z	intensity
20	4
26	4
27	28
28	76
29	22
30	3
31	0
35	0
36	0
37	12
38	36
39	126
40	31
41	52
42	14
43	59
44	107
45	4
46	0
47	11
49	2
50	39
51	54
52	59
53	39
54	49
55	14
56	5
57	14
58	2
59	0
60	2
61	13
62	28
63	57
64	26
65	188
66	319
67	42
68	3
69	12
70	3
71	5
73	2
74	10
75	8
76	14
77	43
78	31
79	20
80	103
81	50
82	5
83	5
84	1
85	3
86	0
87	2
88	0
89	15
90	9
91	175
92	185
93	999
94	69
95	5
96	2
97	3
98	0
99	0
101	0
102	1
103	4
104	5
105	22
106	23
107	79
108	275
109	25
110	1
111	1
112	0
113	0
114	1
115	45
116	31
117	6
118	9
119	3
120	1
121	2
122	0
123	2
124	1
125	0
127	1
128	7
129	4
130	3
131	1
132	1
133	3
134	6
135	1
136	1
137	2
138	0
139	0
140	0
141	2
142	0
143	2
144	0
145	4
146	0
147	0
149	16
150	2
151	3
152	1
153	2
154	3
155	1
157	0
158	1
159	0
162	0
163	1
165	2
166	4
167	9
168	9
169	8
170	1
173	3
174	0
175	0
176	0
177	1
178	0
179	1
180	4
181	2
182	6
183	8
184	22
185	4
189	0
190	1
191	2
192	1
193	1
194	0
195	4
196	3
197	1
198	0
199	4
202	1
204	0
205	0
206	0
207	28
208	4
209	2
210	1
211	0
214	0
215	1
216	0
217	0
218	10
219	1
220	0
221	2
222	0
223	1
224	4
225	0
226	1
227	1
228	1
229	1
230	0
232	5
233	1
234	0
235	1
236	0
237	0
238	2
240	1
241	0
242	0
243	0
246	1
247	1
248	4
249	1
250	0
252	0
256	0
260	2
261	1
262	5
263	2
264	1
270	1
271	1
272	0
273	5
274	9
275	5
276	1
277	0
281	4
282	0
283	0
284	0
285	1
286	22
287	2
288	2
289	3
290	0
296	0
297	0
298	0
299	1
300	21
301	9
302	7
303	0
305	0
311	1
312	1
313	0
314	0
319	0
321	1
323	1
324	0
325	2
326	1
327	0
328	47
329	14
330	1
336	1
337	2
338	3
339	3
340	3
341	0
342	0
345	6
346	3
347	0
348	0
349	1
350	3
351	2
352	1
353	2
354	0
355	0
360	0
362	1
363	4
364	5
365	8
366	6
367	1
368	0
373	27
374	5
375	1
376	2
377	2
378	0
379	1
388	0
389	0
390	33
391	18
392	31
393	6
394	0
403	0
408	1
409	1
410	0
412	0
413	0
414	0
418	0
420	3
421	0
427	0
429	0
430	0
432	0
433	0
435	7
436	92
437	34
438	4
440	0
442	0
451	0
453	0
454	0
455	0
456	2
457	1
463	0
464	128
465	41
466	7
467	0
468	1
471	0
478	0
479	0
480	2
481	48
482	17
483	8
484	4
485	0
505	0
512	0
527	3
528	5
529	0
571	20
572	385
573	136
574	27
575	2
