Mass Spectrum: Cyclopentane, 2-isopropyl-1,3-dimethyl-
Formula: C10H20
CAS: 32281-85-9
Molecular weight: 140
m/z	intensity
27	263
28	43
29	212
30	4
31	1
32	0
37	2
38	7
39	274
40	45
41	694
42	92
43	347
44	9
45	0
46	0
48	0
50	9
51	29
52	14
53	115
54	45
55	999
56	513
57	116
58	5
59	2
62	0
63	7
64	1
65	28
66	12
67	98
68	24
69	425
70	181
71	17
72	0
73	0
74	0
75	1
76	0
77	30
78	6
79	34
80	6
81	361
82	69
83	577
84	108
85	30
86	1
89	0
91	11
92	1
93	6
94	1
95	20
96	290
97	656
98	73
99	4
103	0
105	1
107	0
109	3
110	1
111	11
112	5
113	0
123	3
124	1
125	61
126	7
127	0
138	1
139	0
140	28
141	2
