Mass Spectrum: 2-Acetyl-2-methyltetrahydrofuran
Formula: C7H12O2
CAS: 32318-87-9
Molecular weight: 128
m/z	intensity
43	999
55	10
69	3
83	7
85	430
86	40
100	3
113	1
128	7
