Mass Spectrum: N,N-Bis(2-cyanoethyl)benzamide
Formula: C13H13N3O
CAS: 3232-12-0
Molecular weight: 227
m/z	intensity
25	1
26	17
27	8
28	9
37	1
38	3
39	5
40	2
41	3
42	9
49	1
50	22
51	80
52	35
53	39
54	9
55	1
56	2
62	1
63	2
64	1
65	1
74	6
75	9
76	31
77	295
78	22
79	1
81	2
83	1
89	1
91	1
102	1
103	68
104	10
105	999
106	85
107	5
116	1
121	8
122	6
130	1
132	2
133	1
134	9
135	1
144	1
145	2
146	2
147	1
157	1
160	1
173	8
174	23
175	2
185	5
186	2
187	25
188	3
198	1
199	1
200	3
226	26
227	309
228	47
229	4
