Mass Spectrum: Salicylidene benzhydrazide
Formula: C14H12N2O2
CAS: 3232-37-9
Molecular weight: 240
m/z	intensity
26	1
27	7
28	7
29	1
37	1
38	4
39	22
40	1
41	1
43	2
44	6
50	19
51	79
52	16
53	8
54	1
55	2
62	3
63	13
64	8
65	11
66	3
68	1
74	4
75	5
76	12
77	374
78	38
79	21
80	8
81	1
89	1
90	6
91	9
92	3
93	2
102	4
103	5
104	16
105	999
106	80
107	8
108	3
117	2
118	3
119	61
120	15
121	49
122	474
123	39
124	2
133	3
134	1
135	3
147	2
149	1
165	1
181	1
183	1
238	1
239	2
240	165
241	28
242	3
