Mass Spectrum: Benzene, (2,2-dibromocyclopropyl)-
Formula: C9H8Br2
CAS: 3234-51-3
Molecular weight: 274
m/z	intensity
27	35
28	95
29	5
31	1
32	15
34	0
35	0
36	1
37	14
38	35
39	131
40	12
41	22
42	8
43	19
44	5
45	2
46	1
47	0
49	6
50	79
51	120
52	20
53	5
54	0
55	8
56	7
57	180
58	107
59	1
60	1
61	20
62	54
63	129
64	24
65	57
66	5
67	3
68	2
69	4
70	3
71	5
73	5
74	29
75	28
76	18
77	31
78	21
79	10
80	3
81	10
82	3
83	9
84	2
85	7
86	18
87	23
88	20
89	95
90	23
91	36
92	5
93	9
94	3
95	1
96	1
97	9
98	9
99	2
100	1
101	2
102	10
103	15
104	11
105	2
106	1
107	2
108	1
109	0
110	2
111	1
112	2
113	15
114	32
115	999
116	733
117	87
118	9
119	9
121	3
128	1
129	1
131	0
132	1
133	0
138	1
139	1
140	1
141	1
142	0
143	1
149	0
151	12
152	1
153	4
158	1
160	1
162	0
169	3
170	2
171	12
172	4
173	21
174	3
175	10
180	0
182	0
183	0
184	0
186	0
191	1
192	0
193	6
194	4
195	201
196	26
197	189
198	17
199	6
200	0
201	4
203	2
206	0
207	0
234	4
235	1
249	2
250	0
251	6
252	2
253	6
254	3
255	2
256	0
263	1
265	0
274	12
275	3
276	29
277	4
278	13
279	1
