Mass Spectrum: Oxetane, 2,3,4-trimethyl-, (2.alpha.,3.alpha.,4.beta.)-
Formula: C6H12O
CAS: 32347-12-9
Molecular weight: 100
m/z	intensity
15	60
27	160
28	150
29	170
39	130
40	40
41	680
42	90
43	210
44	40
45	70
55	110
56	999
57	80
59	70
71	30
100	5
