Mass Spectrum: Butyl phenyl telluride
Formula: C10H14Te
CAS: 32343-98-9
Molecular weight: 264
m/z	intensity
38	10
39	101
40	9
41	316
42	9
50	130
51	317
52	30
55	119
57	547
58	20
74	40
75	49
76	79
77	786
78	999
79	79
91	118
92	9
105	10
122	9
124	19
125	29
126	100
127	10
128	150
129	10
130	158
131	10
154	20
200	30
201	9
202	60
203	90
204	240
205	9
206	382
207	20
208	429
209	19
256	59
257	10
258	99
259	159
260	382
261	40
262	630
263	69
264	671
265	90
