Mass Spectrum: 1,2-Naphthoquinone, 3,5-dimethoxy-
Formula: C12H10O4
CAS: 32358-78-4
Molecular weight: 218
m/z	intensity
50	310
62	190
63	160
75	130
76	499
88	110
89	270
104	190
116	110
119	999
120	110
147	400
160	110
161	170
162	110
175	280
190	549
191	130
218	250
219	40
220	30
