Mass Spectrum: 4-Oxopentanoic acid, 5-(2-pyrrolidinylidene)-, methyl ester
Formula: C10H15NO3
CAS: 32357-59-8
Molecular weight: 197
m/z	intensity
26	11
27	68
29	47
30	25
31	15
38	9
39	47
40	19
41	73
42	28
43	51
44	75
45	18
50	6
51	15
52	20
53	40
54	67
55	110
56	19
57	16
59	26
60	10
61	4
63	4
64	5
65	20
66	8
67	45
68	43
69	21
70	6
71	8
73	5
77	14
78	7
79	16
80	48
81	31
82	43
83	96
84	18
85	5
87	6
91	22
92	7
93	10
94	9
95	14
96	19
97	8
98	7
103	5
104	7
105	12
106	7
107	7
108	24
109	19
110	999
111	102
112	10
115	15
116	5
117	13
118	15
119	6
120	16
121	4
122	6
123	8
124	6
128	4
129	7
131	6
136	19
137	14
138	70
139	9
145	5
149	9
157	7
165	9
166	133
167	16
168	5
197	212
198	25
199	4
