Mass Spectrum: Ether, hexyl pentyl
Formula: C11H24O
CAS: 32357-83-8
Molecular weight: 172
m/z	intensity
39	20
41	140
42	110
43	999
44	30
45	20
55	110
56	190
57	100
69	120
70	130
71	580
72	20
83	70
84	90
85	290
86	20
87	10
89	30
101	20
