Mass Spectrum: Levulinic acid, 5-bromo-3,3-dimethyl-
Formula: C7H11BrO3
CAS: 32357-60-1
Molecular weight: 222
m/z	intensity
25	1
26	16
27	94
28	47
29	102
30	12
31	11
33	3
34	12
35	2
36	22
37	7
38	23
39	137
40	46
41	362
42	94
43	48
44	12
45	7
48	1
49	2
50	8
51	10
52	4
53	19
54	11
55	81
56	999
57	125
58	7
59	8
60	6
61	2
62	0
63	1
64	0
65	2
66	1
67	5
68	6
69	29
70	48
71	11
72	5
73	6
74	1
75	0
76	0
77	1
78	1
79	45
80	118
81	48
82	113
83	26
84	16
85	5
86	137
87	10
88	1
89	0
93	2
95	3
96	7
97	4
98	3
99	5
100	1
101	4
102	1
103	0
105	1
106	0
107	1
108	1
109	1
110	1
111	2
112	8
113	2
114	36
115	4
116	1
117	1
119	1
120	0
122	0
124	1
125	1
126	0
127	4
128	1
129	5
131	1
132	1
133	1
138	1
142	176
143	16
144	2
