Mass Spectrum: 4(3H)-Pyrimidinone, 2-ethyl-3,6-dimethyl-
Formula: C8H12N2O
CAS: 32363-54-5
Molecular weight: 152
m/z	intensity
42	650
43	30
52	30
53	30
54	130
55	110
56	100
67	80
68	300
69	710
70	999
71	50
81	30
82	130
83	80
95	30
96	70
97	30
109	100
110	30
123	200
124	280
125	30
137	180
151	280
152	980
153	120
