Mass Spectrum: Carbamic acid, [(4-methylphenyl)sulfonyl]-, 2,2-dimethylpropyl ester
Formula: C13H19NO4S
CAS: 32363-28-3
Molecular weight: 285
m/z	intensity
41	308
43	384
51	100
55	260
56	260
57	520
63	115
65	308
69	100
71	146
89	100
91	999
92	169
107	93
108	435
151	69
155	940
156	100
197	430
221	230
