Mass Spectrum: Benzene, (1-azido-1-methylethyl)-
Formula: C9H11N3
CAS: 32366-26-0
Molecular weight: 161
m/z	intensity
39	210
41	210
43	130
50	160
51	390
52	70
56	80
58	70
63	90
65	90
74	50
75	50
76	80
77	669
78	290
79	90
91	400
92	60
102	70
103	400
104	60
115	140
116	60
117	450
118	759
119	999
120	100
133	30
161	5
