Mass Spectrum: 4(3H)-Pyrimidinone, 2,3,6-trimethyl-
Formula: C7H10N2O
CAS: 32363-51-2
Molecular weight: 138
m/z	intensity
42	200
43	20
54	120
55	120
56	999
66	20
67	40
68	80
69	60
81	20
82	30
94	40
95	60
109	110
110	150
123	30
138	460
139	60
