Mass Spectrum: Benzene, (1-azidoethyl)-
Formula: C8H9N3
CAS: 32366-25-9
Molecular weight: 147
m/z	intensity
39	130
43	140
50	200
51	390
52	120
63	70
76	70
77	699
78	220
79	120
91	50
103	170
104	499
105	999
106	100
118	70
119	130
147	50
