Mass Spectrum: 6-Heptenophenone, 7-phenyl-
Formula: C19H20O
CAS: 32363-57-8
Molecular weight: 264
m/z	intensity
39	40
41	20
50	30
51	110
52	10
53	10
55	40
63	30
65	30
66	40
67	10
74	10
75	10
76	20
77	460
78	80
79	20
89	20
91	240
92	30
102	20
103	30
104	120
105	999
106	80
107	30
115	210
116	80
117	360
118	50
120	680
121	110
122	10
127	20
128	80
129	290
130	80
131	30
132	10
133	760
134	80
141	10
142	50
143	100
144	320
145	70
146	60
147	80
148	10
154	10
155	80
156	10
157	10
158	30
159	80
160	40
167	5
168	5
173	280
174	50
196	35
197	5
209	10
223	10
246	20
263	10
264	680
265	150
266	20
