Mass Spectrum: Benzene, (3-azido-3-methylbutyl)-
Formula: C11H15N3
CAS: 32366-28-2
Molecular weight: 189
m/z	intensity
39	180
41	150
42	90
43	50
50	60
51	140
56	350
63	60
65	150
70	50
77	140
78	70
79	70
91	999
92	80
103	70
104	290
105	200
106	120
131	190
146	110
160	90
161	30
