Mass Spectrum: Carbamic acid, (p-tolylsulfonyl)-, .alpha.-methylbenzyl ester
Formula: C16H17NO4S
CAS: 32363-30-7
Molecular weight: 319
m/z	intensity
43	450
44	142
50	172
51	374
52	105
54	124
63	157
65	180
77	715
78	435
80	120
91	705
103	150
104	255
105	232
107	999
108	154
121	112
122	487
155	412
171	487
197	314
