Mass Spectrum: 2-Oxazolin-5-one, 4-(p-chlorobenzylidene)-2-methyl-
Formula: C11H8ClNO2
CAS: 3237-71-6
Molecular weight: 221
m/z	intensity
35	7
37	9
38	17
39	20
40	16
42	129
43	999
49	8
50	27
51	19
52	4
61	9
62	26
63	31
64	6
72	3
73	15
74	20
75	22
76	4
86	9
87	14
88	22
89	49
90	3
97	4
99	14
100	4
101	9
114	25
115	13
116	28
123	33
124	16
125	11
126	4
136	9
151	330
152	40
153	92
154	3
193	74
195	29
220	3
221	215
222	26
223	57
224	6
