Mass Spectrum: Formamide, N-[1-[(1-cyanopropyl)hydroxyamino]-2-methylpropyl]-
Formula: C9H17N3O2
CAS: 32375-09-0
Molecular weight: 199
m/z	intensity
26	44
27	221
28	393
29	126
30	82
31	15
32	4
34	10
36	2
37	9
38	20
39	133
40	39
41	311
42	89
43	163
44	74
45	111
46	148
47	5
50	5
51	15
52	27
53	34
54	104
55	526
56	341
57	104
58	59
59	13
60	8
61	23
62	3
63	3
64	7
65	5
66	25
67	18
68	163
69	53
70	89
71	29
72	341
73	100
74	27
75	5
76	2
77	4
78	3
79	5
80	10
81	12
82	44
83	21
84	36
85	8
86	71
87	9
88	10
89	3
91	2
92	4
93	10
94	7
95	25
96	23
97	9
98	20
99	20
100	999
101	89
102	10
103	2
104	2
105	3
106	3
107	11
108	11
109	40
110	29
111	104
112	12
113	13
114	2
115	2
120	3
121	6
122	5
123	11
124	5
125	27
126	8
127	4
128	33
129	7
135	3
136	6
137	48
138	17
139	27
140	6
141	5
149	8
150	2
152	2
153	8
154	32
155	34
156	57
157	7
158	2
166	2
167	2
172	4
173	2
181	4
182	2
185	4
186	2
199	2
