Mass Spectrum: Formamide, N-[1-[(1-cyano-2-methylpropyl)hydroxyamino]butyl]-
Formula: C10H19N3O2
CAS: 32375-05-6
Molecular weight: 213
m/z	intensity
26	38
27	283
28	301
29	180
30	312
31	16
37	13
38	21
39	161
40	39
41	264
42	132
43	282
44	95
45	190
46	190
50	10
51	18
52	28
53	73
54	132
55	453
56	132
57	30
58	245
59	50
60	24
61	18
63	5
64	12
65	10
66	33
67	95
68	75
69	33
70	156
71	113
72	208
73	18
74	4
75	4
76	4
77	7
78	6
79	10
80	35
81	56
82	321
83	46
84	38
85	9
86	40
87	15
88	42
89	7
91	4
92	5
93	15
94	10
95	15
96	15
97	73
98	50
99	24
100	999
101	75
105	6
106	5
107	15
108	18
109	160
110	25
111	18
112	9
113	7
114	10
115	5
119	4
120	4
121	7
122	8
123	104
124	43
125	293
126	38
127	9
128	6
129	4
134	5
135	9
136	6
137	11
138	5
139	7
140	25
141	14
142	11
143	5
149	20
150	8
151	95
152	25
153	34
154	11
155	4
166	4
167	14
168	50
169	36
170	18
171	4
176	6
180	6
185	5
186	5
195	6
208	5
213	4
