Mass Spectrum: Methanone, [3-(1-methylethyl)phenyl]phenyl-
Formula: C16H16O
CAS: 32388-73-1
Molecular weight: 224
m/z	intensity
51	405
52	62
53	19
59	17
62	31
63	100
64	17
65	62
74	71
75	74
76	140
77	999
78	178
79	36
86	12
87	17
88	7
89	40
90	22
91	178
92	19
102	55
103	172
104	107
105	833
106	86
115	69
116	14
117	41
118	29
119	93
120	14
131	40
145	22
146	7
147	357
148	48
151	14
152	40
153	24
163	12
164	7
165	36
166	22
178	19
179	12
180	7
181	98
182	17
194	29
195	22
207	10
208	12
209	239
210	50
222	12
223	126
224	262
225	45
226	2
