Mass Spectrum: Arabinonic acid, 2,3,5-tris-O-(trimethylsilyl)-, .gamma.-lactone, d-
Formula: C14H32O5Si3
CAS: 32384-55-7
Molecular weight: 364
m/z	intensity
41	20
43	20
44	20
45	90
47	10
55	10
57	20
59	50
61	10
69	30
72	20
73	999
74	90
75	100
89	30
101	20
102	80
103	70
104	10
117	240
118	30
119	20
129	20
130	80
131	30
133	60
143	10
147	160
148	30
149	40
189	120
190	20
191	20
203	20
204	80
205	30
215	80
216	20
217	120
218	40
219	20
231	120
232	30
233	20
243	1
244	12
245	5
246	68
247	16
248	7
249	1
257	1
259	56
260	13
261	6
262	1
274	1
275	1
277	1
291	4
292	1
293	1
305	4
306	2
307	2
308	1
320	1
321	5
322	1
349	31
350	10
351	5
352	1
364	73
365	24
366	12
367	2
368	1
