Mass Spectrum: meso-2,5-Dimethyl-3,4-hexanediol
Formula: C8H18O2
CAS: 32388-93-5
Molecular weight: 146
m/z	intensity
27	70
29	80
41	130
43	150
55	310
56	60
57	110
71	70
72	260
73	999
85	90
146	10
