Mass Spectrum: Gluconolactone (3R,4S,5R,6R)-, 4TMS derivative
Formula: C18H42O6Si4
CAS: 32384-65-9
Molecular weight: 466
m/z	intensity
27	1
28	2
29	2
31	1
39	1
41	3
42	1
43	10
44	12
45	72
46	5
47	9
49	1
52	1
53	5
54	3
55	13
56	2
57	4
58	6
59	36
60	4
61	7
65	1
66	1
67	2
68	1
69	6
70	2
71	3
72	17
73	999
74	83
75	88
76	5
77	5
79	1
81	14
82	1
83	6
84	1
85	4
86	1
87	5
88	2
89	19
90	2
91	1
95	1
96	1
97	4
98	1
99	7
100	1
101	22
102	33
103	116
104	12
105	7
106	1
107	1
109	1
111	4
112	1
113	10
114	2
115	12
116	8
117	87
118	9
119	13
120	2
121	1
125	2
126	1
127	5
128	2
129	299
130	66
131	50
132	8
133	116
134	16
135	13
136	1
137	1
139	1
140	1
141	4
142	4
143	54
144	7
145	12
146	2
147	418
148	65
149	55
150	6
151	5
152	1
153	2
154	1
155	10
156	3
157	62
158	8
159	7
160	1
161	6
162	1
163	6
164	1
165	1
168	1
169	46
170	7
171	9
172	1
173	5
174	1
175	6
176	4
177	11
178	2
179	1
183	1
185	2
187	2
188	1
189	97
190	20
191	56
192	9
193	5
194	1
197	6
198	1
199	2
201	12
202	3
203	17
204	96
205	27
206	9
207	7
208	1
209	1
215	16
216	4
217	92
218	24
219	40
220	112
221	31
222	11
223	2
227	2
228	1
229	82
230	27
231	20
232	5
233	3
234	1
241	1
242	3
243	39
244	8
245	13
246	3
247	2
257	12
258	5
259	10
260	2
261	1
262	1
265	2
271	13
272	3
273	3
274	1
277	2
278	1
287	3
288	1
289	1
291	9
292	4
293	3
294	1
303	1
304	1
305	18
306	7
307	4
308	1
317	8
318	3
319	185
320	54
321	28
322	6
323	1
331	22
332	7
333	34
334	10
335	15
336	4
337	2
343	1
345	1
347	1
348	1
359	1
361	12
362	4
363	3
364	1
376	2
377	2
378	1
379	1
393	1
451	7
452	3
453	2
466	5
467	2
468	1
