Mass Spectrum: Ribitol, 5TMS derivative
Formula: C20H52O5Si5
CAS: 32381-53-6
Molecular weight: 512
m/z	intensity
25	0
26	2
27	4
28	9
29	3
30	0
31	2
32	1
35	0
36	0
38	0
39	3
40	0
41	24
42	1
43	13
44	18
45	103
46	7
47	12
48	0
49	0
50	0
51	0
52	1
53	5
54	5
55	16
56	4
57	7
58	10
59	55
60	5
61	7
63	0
65	1
66	3
67	5
68	2
69	10
70	3
71	5
72	29
73	999
74	130
75	116
76	6
77	5
78	0
79	1
80	0
81	7
82	2
83	7
84	0
85	3
86	0
87	6
88	6
89	28
90	3
91	2
92	0
93	0
94	0
95	1
96	1
97	3
98	1
99	4
100	0
101	29
102	4
103	421
104	45
105	23
106	3
107	1
108	0
109	0
110	0
111	2
112	1
113	7
114	0
115	6
116	16
117	157
118	16
119	13
120	1
121	0
122	0
123	0
124	0
125	0
126	0
127	2
128	1
129	209
130	26
131	41
132	5
133	93
134	12
135	8
136	0
137	0
139	0
140	0
141	2
142	2
143	13
144	1
145	6
146	2
147	406
148	73
149	44
150	4
151	2
152	1
154	4
155	7
156	1
157	30
158	4
159	4
160	0
161	8
162	1
163	7
164	1
165	1
166	0
167	0
168	0
169	1
170	2
171	3
172	0
173	1
174	0
175	15
176	2
177	8
178	1
179	1
180	0
181	0
183	0
185	0
187	1
188	0
189	127
190	28
191	56
192	9
193	5
194	0
195	0
196	0
197	0
199	0
201	2
202	1
203	37
204	124
205	368
206	85
207	40
208	5
209	1
210	0
213	0
214	0
215	2
217	454
218	143
219	57
220	10
221	22
222	4
223	2
224	0
229	19
230	4
231	4
232	0
233	0
237	0
239	0
242	1
243	42
244	9
245	5
246	0
247	1
248	0
249	0
250	0
251	0
252	0
253	7
254	1
255	0
259	0
260	0
262	1
263	0
264	0
265	1
266	0
277	40
278	13
279	10
280	2
281	0
289	0
290	0
291	16
292	5
293	2
294	0
303	0
304	0
305	7
306	13
307	208
308	60
309	29
310	5
311	1
315	0
316	0
317	20
318	9
319	234
320	71
321	34
322	6
323	1
331	5
332	35
333	13
334	5
335	1
395	3
396	1
397	0
407	3
408	1
409	1
422	22
423	8
424	4
425	1
