Mass Spectrum: 2,3,6-Tri-O-methyl-D-glucopyranose, 2TMS derivative
Formula: C15H34O6Si2
CAS: 32388-39-9
Molecular weight: 366
m/z	intensity
29	20
31	30
41	20
43	20
44	20
45	190
53	10
58	10
59	110
60	10
61	10
71	150
72	20
73	440
74	40
75	110
81	20
85	50
88	999
89	280
90	30
91	20
99	20
101	100
103	30
105	10
111	10
113	30
116	30
117	20
119	10
127	30
129	90
130	10
131	70
132	10
133	770
134	80
135	30
145	50
146	100
147	50
149	20
159	470
160	90
161	30
169	4
171	3
172	3
173	12
174	2
175	38
176	5
177	2
185	16
186	3
187	5
188	2
189	14
190	3
191	17
192	3
193	1
197	1
199	2
201	27
202	5
203	6
204	5
205	4
207	13
208	2
209	1
213	2
215	2
216	1
217	19
218	4
219	2
221	1
229	4
230	2
231	2
232	32
233	11
234	3
235	1
243	1
245	3
246	1
247	1
259	2
260	2
261	3
277	2
287	3
289	1
319	4
320	1
351	4
352	1
