Mass Spectrum: Ethanone, 1-(1,3,4,4a,5,6,7-hexahydro-2,5,5-trimethyl-2H-2,4a-ethanonaphthalen-8-yl)-
Formula: C17H26O
CAS: 32388-56-0
Molecular weight: 246
m/z	intensity
27	190
29	120
39	200
41	380
43	999
51	110
53	140
55	220
57	90
65	120
67	100
77	250
79	170
81	160
91	250
93	180
95	200
105	250
107	200
109	130
117	80
118	90
119	260
120	130
121	240
131	220
132	100
133	190
134	100
135	90
145	110
146	150
147	170
148	200
149	80
161	500
162	140
163	90
175	160
189	80
203	670
204	100
217	70
218	310
219	60
231	240
232	60
246	450
247	100
