Mass Spectrum: 2,3,4-Tri-O-methyl-d-galactopyranose, 2TMS derivative
Formula: C15H34O6Si2
CAS: 32388-38-8
Molecular weight: 366
m/z	intensity
29	30
31	10
41	30
43	20
44	10
45	110
47	10
55	10
58	10
59	90
61	20
69	10
71	90
72	20
73	450
74	50
75	160
81	10
85	20
88	999
89	260
90	20
91	20
99	20
101	330
102	20
103	90
105	20
111	20
113	10
116	30
117	160
118	20
119	20
121	10
127	10
129	60
131	60
132	10
133	950
134	100
135	40
145	40
146	40
147	20
149	30
159	90
160	30
161	10
168	2
169	5
171	4
172	4
173	24
174	34
175	27
176	5
177	5
183	2
185	27
186	7
187	8
188	3
189	12
190	4
191	9
192	2
193	1
197	7
199	2
201	9
202	3
203	7
204	4
205	82
206	16
207	10
208	2
213	5
214	1
215	5
216	5
217	8
218	2
219	2
220	1
221	2
229	10
230	1
231	6
233	3
234	2
245	2
246	1
251	1
259	2
260	1
261	2
262	2
263	2
264	1
265	4
267	2
287	11
288	3
289	2
319	21
320	6
321	2
351	2
