Mass Spectrum: .alpha.-L-Lyxo-Hexopyranoside, methyl 3-(acetylamino)-2,3,6-trideoxy-
Formula: C9H17NO4
CAS: 32385-07-2
Molecular weight: 203
m/z	intensity
26	10
27	60
28	30
29	110
30	60
31	50
39	40
40	30
41	110
42	60
43	570
44	300
45	60
53	10
54	10
55	50
56	50
57	100
58	280
59	999
60	260
61	40
67	30
68	30
69	90
70	20
71	90
72	190
73	30
83	40
84	80
85	50
86	260
87	30
88	10
94	20
95	80
96	20
97	10
98	10
99	30
100	140
101	680
102	60
111	10
112	80
113	180
114	70
115	10
126	40
127	20
128	40
129	90
130	20
138	10
142	40
143	50
144	20
145	5
153	50
154	10
157	10
158	10
159	50
171	80
172	110
173	10
185	40
