Mass Spectrum: Methyl cycloheptatriene-7-carboxylate
Formula: C9H10O2
CAS: 32399-46-5
Molecular weight: 150
m/z	intensity
39	89
63	90
65	198
89	110
90	109
91	999
92	99
119	271
135	99
150	198
