Mass Spectrum: Morpholine, 4-(2-chloroethyl)-
Formula: C6H12ClNO
CAS: 3240-94-6
Molecular weight: 149
m/z	intensity
14	3
15	47
17	1
18	3
26	16
27	123
28	130
29	46
30	35
31	8
35	11
36	108
37	3
38	33
39	5
40	5
41	39
42	720
43	25
44	10
45	9
49	5
50	5
51	2
52	3
53	2
54	25
55	24
56	155
57	92
58	7
59	3
61	2
62	2
63	29
64	2
65	9
68	4
69	7
70	36
71	4
72	8
76	1
82	1
83	1
84	28
85	4
86	2
88	1
89	1
90	4
91	36
92	7
93	11
94	1
98	4
100	999
101	57
102	3
104	3
106	1
112	2
114	8
118	6
120	3
148	9
149	46
150	8
151	14
152	2
