Mass Spectrum: Ethanone, 1-(2-furyl)-, 4-(3-methylphenyl)thiosemicarbazone
Formula: C14H15N3OS
CAS: 324055-34-7
Molecular weight: 273
m/z	intensity
37	13
38	51
39	438
40	84
41	111
42	96
43	24
44	22
45	48
50	24
51	68
52	50
53	112
54	58
55	94
56	64
57	25
59	13
60	12
62	15
63	58
64	43
65	312
66	131
67	50
68	30
69	22
71	10
73	13
76	15
77	158
78	67
79	114
80	36
81	91
82	35
83	34
89	47
90	39
91	365
92	63
93	193
94	178
95	171
96	24
98	15
101	30
102	33
104	46
105	28
106	196
107	999
108	223
109	137
110	183
111	22
112	28
116	15
117	15
118	19
121	18
122	26
123	231
124	537
125	45
126	10
131	50
132	51
133	30
136	19
137	26
138	10
141	51
148	30
149	46
150	187
151	23
152	11
163	44
164	47
165	100
166	65
167	80
168	12
206	10
240	42
244	13
258	319
259	49
260	17
273	927
274	157
275	54
