Mass Spectrum: N'-(3-Nitrobenzylidene)-2,2-diphenyl-1-cyclopropanecarbohydrazide
Formula: C23H19N3O3
CAS: 324060-53-9
Molecular weight: 385
m/z	intensity
33	40
34	9
36	9
37	15
39	194
40	199
41	66
43	53
44	99
45	8
46	7
47	1
50	102
51	184
52	50
53	19
55	145
57	38
59	4
60	6
61	8
62	45
63	305
65	216
66	9
67	9
69	20
70	15
71	14
73	6
74	25
75	54
76	118
77	212
78	25
79	15
80	12
82	17
83	24
84	8
85	9
86	11
87	34
89	240
91	668
94	12
95	9
96	8
97	8
98	7
99	5
100	6
101	9
102	31
103	89
105	248
106	18
107	4
108	4
109	3
110	4
111	5
112	8
113	23
115	999
117	41
118	91
119	11
120	9
122	11
123	2
124	1
125	3
126	14
128	29
130	131
131	18
132	4
133	5
134	6
135	8
136	2
137	6
138	8
139	35
140	10
141	13
143	61
144	10
145	4
147	13
148	8
149	27
151	83
152	100
153	11
154	4
155	3
156	1
157	2
158	15
159	4
160	6
161	3
162	9
163	50
164	57
165	230
166	45
167	13
168	3
169	1
171	7
175	4
176	16
178	249
179	43
180	19
181	6
182	4
183	4
184	2
185	2
186	2
187	7
189	92
191	486
192	679
193	328
194	53
195	6
200	2
201	8
202	66
203	82
204	15
206	44
207	15
208	9
209	2
216	3
217	5
218	18
219	43
220	171
221	116
222	23
223	3
224	1
232	2
233	2
234	17
235	23
236	26
237	7
238	2
239	2
283	2
330	9
331	2
355	2
368	6
369	2
384	9
385	105
386	23
387	3
