Mass Spectrum: Coumarin-3-carboxylic acid, benzyl ester
Formula: C17H12O4
CAS: 324065-51-2
Molecular weight: 280
m/z	intensity
33	15
35	0
38	58
39	317
40	91
41	57
43	21
44	59
45	11
46	1
48	2
49	5
50	99
51	178
52	38
53	36
55	15
56	7
57	10
58	3
59	2
61	31
62	104
63	305
65	344
66	14
68	7
69	6
70	4
71	4
73	4
74	30
75	47
76	16
77	130
78	29
79	65
80	4
81	2
82	1
83	2
84	2
85	7
86	16
87	23
89	399
91	999
92	69
93	3
94	1
95	1
96	0
97	2
98	3
99	1
101	79
102	14
103	3
105	33
106	8
107	133
108	11
109	1
110	0
111	0
112	1
113	1
114	1
115	7
116	7
118	112
119	9
120	1
121	0
122	0
123	0
125	0
126	0
127	1
128	1
130	13
131	9
132	1
133	0
134	0
135	0
137	0
138	0
139	0
141	0
143	2
145	63
146	736
147	72
148	7
149	4
150	0
151	0
152	3
153	0
157	0
159	0
162	0
163	0
164	1
165	5
166	0
168	0
169	0
170	1
171	3
173	117
174	282
175	32
176	4
177	1
178	7
179	5
180	1
181	1
182	0
183	0
189	3
190	1
191	4
192	0
193	0
194	0
195	0
196	0
204	0
205	1
206	2
207	20
208	5
209	0
213	0
216	0
218	0
219	3
220	0
221	0
223	0
224	0
233	0
234	0
235	5
236	1
252	0
260	0
262	8
263	1
276	0
278	1
279	1
280	33
281	6
282	0
283	0
