Mass Spectrum: Benzohydrazide, N'-[1-(3-oxo-3H-naphtho[2,1-b]pyran-2-yl)ethylidene]-
Formula: C22H16N2O3
CAS: 324063-41-4
Molecular weight: 356
m/z	intensity
33	3
34	1
36	10
38	11
39	34
40	77
41	19
42	14
43	45
44	52
45	20
50	33
51	76
52	7
53	2
55	13
56	3
57	10
62	4
63	20
64	4
65	5
67	2
68	0
69	8
70	2
71	2
73	0
74	8
75	15
76	64
77	364
78	23
79	3
80	1
81	2
82	7
83	2
84	1
86	2
87	7
88	2
89	6
91	3
92	1
97	0
98	0
102	1
105	999
106	61
107	0
110	0
112	3
113	5
114	2
115	10
121	5
126	1
127	2
133	5
134	92
135	47
136	1
137	4
138	13
139	78
140	9
144	2
149	1
150	2
151	8
152	27
153	3
161	2
162	0
163	15
164	28
165	66
166	15
167	5
168	3
171	2
176	2
177	0
178	1
192	0
193	9
194	21
195	16
196	2
210	5
221	1
222	8
223	49
224	9
234	11
235	68
236	9
237	1
238	20
239	1
251	5
339	2
340	6
341	68
342	12
355	0
356	29
357	3
