Mass Spectrum: Oxazole, 5-benzylamino-4-dimethylphosphonato-2-phenyl-
Formula: C18H19N2O4P
CAS: 324070-16-8
Molecular weight: 358
m/z	intensity
33	4
34	5
36	5
37	9
38	56
40	87
41	28
42	32
43	25
44	22
45	6
47	15
48	4
50	29
51	112
52	17
53	6
55	14
57	27
58	1
60	4
62	11
63	44
65	80
66	6
67	2
68	5
70	6
71	5
73	4
74	9
75	26
77	322
78	62
79	49
80	15
81	3
82	2
83	4
84	2
85	3
86	6
89	54
91	465
92	33
93	25
95	21
96	4
97	2
98	1
99	1
100	0
101	1
105	999
106	87
107	17
109	21
110	26
112	4
114	6
115	9
116	12
117	11
118	5
119	5
120	5
121	6
122	2
123	0
124	1
125	0
126	1
127	3
128	5
129	2
130	2
131	1
132	3
133	2
134	1
135	1
136	13
137	1
138	0
139	1
140	0
141	1
142	2
143	3
145	21
146	17
147	2
149	6
151	51
152	3
153	1
155	2
156	1
157	1
158	2
159	2
160	0
161	0
162	0
163	1
165	2
166	0
167	0
168	0
169	1
170	2
171	3
172	0
173	0
174	0
175	0
176	0
177	1
178	2
179	1
180	0
181	0
182	0
183	0
184	0
185	0
186	0
187	0
189	0
190	1
191	0
192	0
193	5
194	2
195	1
196	0
197	0
198	0
200	0
201	0
202	0
203	0
204	1
205	0
206	1
207	0
208	0
210	1
211	0
212	0
213	0
214	0
215	0
217	0
218	0
219	0
221	3
222	2
223	1
224	5
225	2
226	0
227	2
228	0
231	0
232	0
233	0
235	0
236	5
237	2
238	3
239	0
240	0
241	0
242	0
243	0
245	0
246	0
247	1
248	12
249	23
250	4
251	1
252	4
253	40
254	29
255	5
256	0
263	0
264	0
265	0
266	0
267	1
268	1
269	0
277	0
279	0
281	5
282	0
283	0
295	0
298	1
299	0
301	0
308	0
309	0
325	0
326	0
327	3
328	0
329	1
330	0
340	0
343	0
350	0
352	0
353	0
354	1
355	1
357	10
358	184
359	37
360	5
361	0
