Mass Spectrum: Cyclopropanecarboxamide, 2,2-dichloro-1-phenyl-N-(2-methylphenyl)-
Formula: C17H15Cl2NO
CAS: 324060-51-7
Molecular weight: 319
m/z	intensity
33	14
35	8
36	20
39	382
41	74
42	8
43	9
44	8
45	0
47	9
51	408
52	127
53	71
54	16
55	7
57	10
58	8
59	0
63	421
65	331
66	20
67	5
69	1
71	2
73	15
74	48
75	85
77	713
79	302
81	15
82	16
83	13
84	11
85	16
86	29
87	44
89	350
91	471
93	31
94	1
95	5
96	9
97	15
98	8
99	13
103	326
104	98
106	380
107	263
108	66
110	11
111	11
115	999
117	94
118	214
119	17
120	8
121	3
123	130
125	40
126	6
127	12
128	20
129	7
130	32
131	41
133	291
134	220
135	18
136	8
138	21
139	36
140	17
141	12
142	30
143	10
144	4
146	16
147	15
149	951
151	532
152	65
153	31
154	7
156	2
158	0
159	3
160	0
161	2
164	10
165	20
166	13
167	7
170	7
171	0
174	4
177	151
178	44
179	46
180	19
181	4
183	7
184	13
185	27
186	14
187	15
188	7
189	6
190	4
191	5
192	9
194	148
195	23
196	1
201	0
202	7
203	7
204	30
205	15
206	51
208	43
209	2
212	58
213	25
214	27
215	16
216	6
218	60
220	219
222	173
223	99
224	11
228	5
229	1
230	15
231	4
232	6
233	6
234	2
236	76
237	10
239	0
240	12
241	2
242	3
243	0
246	9
248	214
249	31
250	2
254	18
256	58
257	12
258	15
259	1
282	2
283	31
284	55
285	17
286	15
287	1
316	1
319	640
321	496
322	66
323	66
324	7
