Mass Spectrum: 5-Hexen-2-one, 5-methyl-
Formula: C7H12O
CAS: 3240-09-3
Molecular weight: 112
m/z	intensity
26	9
27	87
28	7
29	47
31	4
37	4
38	14
39	132
40	17
41	401
42	33
43	999
44	21
45	6
50	9
51	17
52	6
53	39
54	10
55	104
56	8
57	7
58	11
59	2
63	2
65	5
66	2
67	23
68	29
69	294
70	84
71	22
72	2
77	8
78	1
79	16
80	1
81	2
83	4
84	2
85	0
91	1
93	2
94	3
95	2
97	170
98	10
100	1
111	3
112	51
113	4
