Mass Spectrum: 2,5-Cyclohexadiene-1,4-dione, 3-chloro-5-isopropyl-2-methyl-, 1-oxime, o-benzoyl-
Formula: C17H16ClNO3
CAS: 324051-67-4
Molecular weight: 317
m/z	intensity
33	5
34	0
36	2
37	1
39	28
40	9
41	16
42	2
43	9
44	2
45	0
47	0
49	5
51	74
52	7
53	8
54	1
55	2
56	0
57	0
59	0
60	0
61	0
62	1
63	4
64	3
65	8
66	5
67	11
68	1
69	0
71	0
72	0
73	3
74	3
75	7
77	223
78	13
79	3
80	1
81	0
82	0
83	0
84	0
85	0
86	0
87	1
89	3
90	2
91	8
92	1
93	1
94	1
95	0
97	0
99	0
100	2
101	1
102	4
105	999
106	52
107	4
108	0
109	0
110	0
111	0
112	0
113	0
115	3
116	1
117	2
118	1
119	2
120	0
122	5
123	0
124	0
125	0
126	0
127	0
128	2
129	0
130	1
131	1
132	1
133	0
134	0
135	0
139	1
140	0
141	1
142	0
143	0
144	0
145	0
146	1
147	0
148	0
149	0
150	0
152	0
154	2
155	0
156	0
160	0
162	0
165	0
166	0
167	0
168	0
169	0
170	0
171	0
178	0
180	0
182	3
183	0
184	2
185	0
186	0
194	0
195	0
196	0
197	1
199	1
283	0
317	2
318	0
319	1
