Mass Spectrum: 1-Methylcyclododecanol
Formula: C13H26O
CAS: 32400-09-2
Molecular weight: 198
m/z	intensity
26	3
27	66
28	27
29	119
30	4
31	15
38	1
39	62
40	14
41	310
42	55
43	422
44	12
45	52
46	1
50	1
51	5
52	3
53	35
54	41
55	208
56	54
57	88
58	656
59	319
60	13
61	1
63	1
65	8
66	7
67	79
68	72
69	91
70	38
71	999
72	72
73	8
77	10
78	3
79	14
80	9
81	89
82	172
83	110
84	28
85	117
86	15
87	2
91	4
93	5
94	5
95	103
96	139
97	79
98	21
99	26
100	49
101	5
107	2
108	2
109	56
110	69
111	32
112	17
113	44
114	27
115	3
123	19
124	41
125	7
126	1
127	73
128	11
129	1
137	7
138	157
139	19
140	115
141	22
142	15
143	2
149	5
151	8
152	5
153	1
154	3
155	46
156	19
157	2
164	1
165	5
166	1
169	16
170	6
171	1
180	53
181	10
182	1
183	302
184	43
185	4
186	1
197	1
198	181
199	29
200	2
