Mass Spectrum: N-Benzyl-3-nitro-N-phenyl-benzenesulfonamide
Formula: C19H16N2O4S
CAS: 324065-80-7
Molecular weight: 368
m/z	intensity
34	1
37	0
38	2
39	15
40	30
41	6
42	1
43	3
44	12
45	2
48	1
50	19
51	33
52	6
53	1
54	0
55	1
56	1
57	1
62	1
63	12
64	14
65	54
66	2
67	0
69	2
70	2
71	0
73	1
74	3
75	19
76	30
77	167
78	19
79	5
80	0
81	0
82	0
83	1
84	0
85	0
87	0
89	10
91	999
92	89
93	4
94	0
95	1
96	1
97	0
102	1
103	2
104	76
105	19
106	6
107	0
108	0
112	0
113	0
114	0
115	4
116	1
117	0
119	2
120	3
122	21
123	2
124	2
125	0
126	1
127	2
128	3
129	1
130	0
136	0
137	0
138	0
139	2
140	1
141	1
142	0
147	0
149	0
150	0
151	2
152	9
153	6
154	8
155	2
164	0
165	4
166	3
167	6
168	1
170	2
171	0
177	0
178	2
179	3
180	45
181	103
182	45
183	11
184	1
186	3
187	0
196	0
197	0
224	0
239	1
364	0
365	0
366	1
368	174
369	35
370	11
371	2
