Mass Spectrum: Butanethioic acid, S-(1-methyl-2-oxopropyl) ester
Formula: C8H14O2S
CAS: 32425-98-2
Molecular weight: 174
m/z	intensity
26	27
27	169
28	41
29	25
30	1
31	2
33	2
34	2
35	10
36	0
37	2
38	7
39	104
40	13
41	182
42	61
43	999
44	43
45	50
46	5
47	8
48	0
49	0
50	1
51	2
52	1
53	9
54	2
55	42
56	20
57	9
58	25
59	71
60	66
61	82
62	6
63	4
67	0
68	1
69	6
70	12
71	648
72	65
73	5
74	1
75	3
76	4
77	0
78	0
83	0
85	1
86	5
87	7
88	0
89	3
102	1
103	7
104	15
105	11
106	1
107	0
113	22
114	5
115	1
116	0
117	3
128	0
129	0
130	0
131	43
132	66
133	7
134	3
146	2
156	0
174	59
175	14
176	3
177	0
