Mass Spectrum: Cyclopentanecarboxylic acid, 1-methyl-3-oxo-, methyl ester
Formula: C8H12O3
CAS: 32436-10-5
Molecular weight: 156
m/z	intensity
26	24
27	169
28	134
29	128
30	9
31	15
33	4
34	2
37	5
38	15
39	214
40	63
41	686
42	89
43	191
44	17
45	46
46	1
47	1
48	1
49	1
50	11
51	20
52	11
53	92
54	54
55	345
56	118
57	20
58	16
59	152
60	7
61	4
62	1
63	3
64	0
65	9
66	7
67	65
68	182
69	954
70	66
71	56
72	25
73	29
74	17
75	2
77	3
78	2
79	5
80	1
81	34
82	117
83	24
84	2
85	67
86	45
87	9
88	3
89	0
91	4
92	0
93	0
94	0
95	14
96	128
97	999
98	80
99	109
100	448
101	72
102	6
103	1
104	0
105	0
107	0
108	0
109	8
110	1
111	2
112	2
113	45
114	44
115	4
116	5
117	1
119	0
123	2
124	3
125	90
126	6
127	25
128	662
129	47
130	7
137	0
141	4
142	0
156	21
157	8
158	0
