Mass Spectrum: Valeric acid, 5-bromo-2,4-dimethyl-, methyl ester, (2RS,4SR)-
Formula: C8H15BrO2
CAS: 32443-03-1
Molecular weight: 222
m/z	intensity
26	10
27	132
28	44
29	112
30	6
31	17
33	4
38	10
39	205
40	43
41	619
42	146
43	164
44	5
45	37
50	4
51	12
52	5
53	50
54	10
55	570
56	69
57	55
58	4
59	248
60	8
61	4
65	10
66	4
67	52
68	11
69	268
70	21
71	22
73	126
74	16
75	3
77	3
79	7
81	18
82	22
83	999
85	16
86	3
87	115
88	59
93	11
95	16
97	13
99	4
101	914
102	57
103	6
107	7
109	7
110	8
111	262
112	19
113	3
120	4
121	39
122	5
123	37
127	15
128	6
129	33
142	13
143	336
144	28
163	37
164	3
165	34
166	3
179	17
180	1
181	17
182	1
190	6
191	55
192	10
193	54
194	3
207	4
208	0
209	4
210	0
222	5
223	0
224	5
225	0
