Mass Spectrum: Thiazolidin-4-one, 5-(3-cyclohexenylmethylene)-3-(4-methylphenyl)-2-thioxo-
Formula: C17H17NOS2
CAS: 324565-16-4
Molecular weight: 315
m/z	intensity
33	16
34	3
35	1
36	8
37	5
39	242
40	50
41	103
42	13
43	38
45	146
47	11
48	0
50	35
51	79
52	46
53	105
54	41
55	20
58	163
59	39
60	94
62	27
63	61
64	33
65	159
66	42
67	30
69	60
70	23
71	97
72	11
73	9
74	7
75	12
77	212
78	122
79	255
80	333
81	32
82	18
84	999
85	52
86	49
87	16
88	22
89	69
91	495
92	58
93	46
94	10
95	12
97	134
98	14
99	7
100	8
101	4
102	14
103	54
104	76
105	143
106	24
107	16
108	12
109	30
110	111
112	348
113	20
114	17
116	74
117	34
118	13
119	5
120	7
121	36
122	21
123	62
124	12
125	9
126	1
127	2
128	3
129	15
131	37
132	29
133	55
134	18
135	23
137	104
138	133
139	16
140	7
141	2
142	3
143	4
144	4
145	3
146	8
148	161
149	342
150	86
151	29
152	5
153	1
154	0
155	1
156	0
158	5
159	0
160	0
161	1
162	1
163	2
164	3
165	24
166	67
167	10
168	4
169	0
170	0
171	1
172	0
173	0
174	0
175	1
176	0
177	0
178	0
179	1
180	4
181	5
182	5
183	2
184	1
185	0
186	0
187	0
188	0
189	0
190	0
191	0
192	2
193	0
194	0
199	0
200	0
202	0
204	1
206	2
207	2
208	0
209	0
210	0
216	0
218	1
219	0
220	1
221	0
222	1
223	6
224	10
225	1
226	1
231	0
232	4
234	38
235	75
236	242
237	41
238	24
239	4
240	0
246	0
248	1
249	4
250	0
258	0
259	1
260	10
261	49
262	8
263	4
264	0
274	1
282	0
286	1
287	7
288	0
289	0
299	0
300	0
311	2
312	4
315	318
316	56
317	30
318	5
319	0
