Mass Spectrum: 3-(-Bromoethyl)-8-cyclohexyl-2,3,3a,4,5,6-hexahydro-1H-pyrazino[3,2,1-jk]carbazole
Formula: C22H29BrN2
CAS: 324531-26-2
Molecular weight: 400
m/z	intensity
36	46
39	227
41	999
42	280
43	213
44	335
45	20
51	30
53	96
55	492
56	146
57	49
58	43
63	67
65	29
67	44
68	35
69	50
70	20
71	31
72	32
73	152
77	81
79	58
80	47
81	46
82	45
83	90
89	34
91	47
96	34
97	48
102	44
103	27
104	19
105	49
107	86
109	92
111	111
114	21
115	54
117	30
118	51
119	30
126	145
127	32
128	43
129	20
132	41
139	39
140	25
141	32
142	21
151	28
152	33
153	51
154	66
155	29
156	22
165	35
166	48
167	90
168	58
169	27
178	27
180	122
181	88
182	101
183	30
191	31
192	50
193	66
194	91
195	39
196	40
204	28
205	28
206	57
207	50
208	91
209	54
210	32
219	19
220	27
221	46
222	39
223	48
235	24
238	28
249	29
263	20
264	35
265	70
266	49
273	45
279	35
293	21
317	41
319	54
321	39
328	114
329	32
330	47
356	23
372	132
373	28
374	120
375	21
400	28
402	24
