Mass Spectrum: trans-2-Dodecenoic acid
Formula: C12H22O2
CAS: 32466-54-9
Molecular weight: 198
m/z	intensity
14	3
15	9
16	2
17	3
18	10
26	13
27	230
28	23
29	441
30	9
31	13
32	6
36	2
37	3
38	9
39	239
40	48
41	725
42	213
43	999
44	33
45	46
46	2
47	2
50	8
51	22
52	12
53	112
54	124
55	573
56	444
57	535
58	30
59	15
60	80
61	15
62	2
63	5
64	2
65	19
66	20
67	179
68	204
69	429
70	381
71	220
72	13
73	761
74	35
75	6
76	1
77	20
78	7
79	40
80	26
81	223
82	194
83	313
84	325
85	68
86	278
87	107
88	12
89	2
91	10
92	4
93	17
94	32
95	152
96	224
97	263
98	195
99	271
100	101
101	90
102	20
103	2
104	1
105	8
106	3
107	12
108	10
109	84
110	115
111	72
112	63
113	136
114	131
115	55
116	16
117	2
118	1
119	14
120	7
121	7
122	7
123	86
124	55
125	27
126	106
127	85
128	21
129	34
130	28
131	3
132	1
133	15
134	5
135	2
136	74
137	72
138	160
139	29
140	4
141	18
142	5
143	9
144	2
147	3
148	1
149	3
150	2
151	39
152	17
153	2
154	2
155	15
156	3
157	9
158	1
162	18
163	3
164	1
165	4
166	1
167	3
169	6
170	2
171	2
179	2
180	55
181	15
182	2
183	1
196	1
198	5
199	2
