Mass Spectrum: 2-Tridecenoic acid, (E)-
Formula: C13H24O2
CAS: 32466-55-0
Molecular weight: 212
m/z	intensity
15	9
17	2
18	7
26	10
27	243
28	51
29	475
30	10
31	12
37	1
38	6
39	200
40	42
41	722
42	179
43	999
44	32
45	36
46	1
47	1
50	3
51	12
52	9
53	98
54	111
55	537
56	375
57	445
58	23
59	15
60	112
61	25
62	1
63	2
65	14
66	17
67	177
68	164
69	401
70	306
71	187
72	10
73	570
74	30
75	4
77	10
78	5
79	30
80	26
81	186
82	197
83	278
84	269
85	88
86	231
87	97
88	10
89	1
91	8
92	3
93	14
94	34
95	133
96	198
97	262
98	224
99	268
100	82
101	79
102	14
103	1
105	4
106	3
107	9
108	20
109	69
110	140
111	129
112	73
113	125
114	112
115	59
116	22
117	2
118	1
119	14
120	6
121	9
122	7
123	70
124	62
125	36
126	38
127	97
128	21
129	56
130	15
131	1
133	14
134	17
135	5
136	5
137	52
138	40
139	16
140	58
141	17
142	7
143	32
144	24
145	2
147	9
148	3
149	1
150	60
151	41
152	115
153	23
154	2
155	12
156	4
157	8
158	2
161	1
163	1
165	20
166	10
167	3
168	1
169	12
170	3
171	2
172	1
176	17
177	3
179	2
180	2
181	4
183	4
184	2
186	11
187	1
193	1
194	63
195	15
196	2
197	3
199	2
210	1
212	14
213	8
214	1
