Mass Spectrum: Silver hexanoate
Formula: C6H11AgO2
CAS: 32461-90-8
Molecular weight: 222
m/z	intensity
26	12
27	121
28	59
29	115
31	10
39	104
40	22
41	219
42	136
43	317
44	59
45	101
53	20
54	10
55	181
56	63
57	68
59	20
60	593
61	58
69	49
70	61
71	264
72	23
73	414
74	63
83	18
87	125
97	14
98	31
99	999
100	76
101	7
107	20
109	20
115	6
117	10
135	2
137	2
151	2
153	2
177	1
179	1
214	15
215	10
216	27
217	19
218	12
219	9
221	7
223	7
225	1
230	0
231	0
232	1
233	1
234	0
235	0
245	1
247	1
328	1
329	32
330	4
331	57
332	5
333	27
334	2
357	3
359	6
361	3
400	0
402	1
404	0
551	0
553	1
555	1
557	0
