Mass Spectrum: .alpha.-D-Xylofuranoside, methyl 2-O-methyl-
Formula: C7H14O5
CAS: 32469-86-6
Molecular weight: 178
m/z	intensity
45	288
55	157
57	128
58	42
59	109
61	66
68	40
69	48
71	131
73	96
74	72
75	42
85	50
86	34
87	999
88	152
100	53
101	32
115	8
117	5
118	32
129	24
147	58
