Mass Spectrum: 2-Oxazolidinone, 3-methyl-4,5-diphenyl-, cis-
Formula: C16H15NO2
CAS: 32461-34-0
Molecular weight: 253
m/z	intensity
41	100
51	60
52	20
63	20
65	20
76	30
77	150
78	80
79	20
89	50
90	30
91	80
92	10
104	30
105	30
106	10
107	30
117	40
118	999
119	570
120	80
147	450
148	50
152	20
153	10
165	40
166	20
167	20
209	20
253	310
254	50
