Mass Spectrum: 2-Oxazolidinone, 3-methyl-4,5-diphenyl-, trans-
Formula: C16H15NO2
CAS: 32461-35-1
Molecular weight: 253
m/z	intensity
41	172
51	75
77	164
78	82
91	112
117	45
118	999
119	604
120	89
147	410
148	45
165	45
253	179
254	37
