Mass Spectrum: Periplocymarin
Formula: C30H46O8
CAS: 32476-67-8
Molecular weight: 534
m/z	intensity
41	624
43	999
45	375
46	4
47	6
49	3
51	36
53	179
55	642
57	527
58	231
59	357
61	58
62	3
63	8
65	90
67	366
69	632
71	290
72	25
74	389
75	20
77	124
79	226
81	364
83	163
85	219
87	839
88	33
89	3
91	182
93	228
95	369
96	81
97	121
98	70
99	42
100	12
101	73
103	26
105	172
107	207
109	132
111	242
113	661
114	36
115	24
117	72
118	11
119	100
121	157
122	10
124	268
125	40
126	17
127	51
128	35
129	27
131	73
133	81
134	15
135	64
136	9
137	47
138	8
139	13
141	20
143	64
145	411
146	29
147	69
148	7
149	47
150	8
151	13
153	27
155	23
157	34
159	64
160	13
161	94
162	7
163	43
164	12
165	17
167	13
168	5
169	16
171	22
172	18
173	32
175	102
176	7
177	34
179	50
181	48
182	4
183	15
185	28
186	2
187	36
189	22
190	9
191	10
192	6
193	9
195	33
196	1
197	16
199	26
201	197
202	11
203	44
204	5
205	7
207	8
208	9
209	11
211	15
212	1
213	13
215	14
216	1
217	21
219	86
220	10
221	9
223	3
225	9
226	7
227	10
228	2
229	31
230	2
231	13
233	5
235	4
237	5
239	5
241	1
243	6
244	11
245	9
246	6
247	22
248	9
249	2
251	1
253	4
255	7
257	12
259	5
261	1
262	13
263	1
269	4
271	7
273	9
275	14
277	4
281	1
285	2
289	3
295	7
300	17
301	4
303	3
311	2
318	196
319	37
320	2
321	10
335	4
336	17
337	35
338	20
339	14
340	3
341	6
353	11
354	63
355	102
356	44
357	14
370	2
371	7
372	39
373	28
374	9
375	4
390	16
391	21
392	4
399	6
401	13
457	5
458	1
534	1
