Mass Spectrum: 2,4,6(1H,3H,5H)-Pyrimidinetrione, 1,3-diethyl-
Formula: C8H12N2O3
CAS: 32479-73-5
Molecular weight: 184
m/z	intensity
37	0
38	4
39	14
40	69
41	144
42	999
43	339
44	467
45	12
46	2
51	1
52	6
53	5
54	15
56	563
57	238
58	26
59	3
60	0
66	1
67	5
68	24
69	187
70	663
71	46
72	94
73	7
74	4
75	0
81	0
82	1
83	6
85	376
86	90
87	48
88	2
89	0
95	1
96	2
98	376
99	101
100	28
101	2
102	0
110	3
112	25
113	202
114	126
115	34
116	2
117	0
125	1
126	3
128	70
129	8
130	0
138	1
139	1
141	161
142	126
143	377
144	27
145	3
146	0
155	21
156	20
157	39
158	3
159	0
167	0
169	115
170	9
171	1
184	738
185	81
186	8
187	0
