Mass Spectrum: Benzoic acid, 4-chloro-, 4-benzyloxyphenyl ester
Formula: C20H15ClO3
CAS: 324776-27-4
Molecular weight: 338
m/z	intensity
35	3
36	18
38	28
39	74
40	18
41	21
42	3
43	4
44	9
45	1
46	0
47	0
48	0
50	71
51	47
52	19
53	13
54	25
55	4
56	1
57	2
58	0
60	1
61	6
62	11
63	42
65	147
66	6
67	0
68	0
69	1
70	1
71	1
73	5
74	23
75	99
76	33
77	11
78	2
79	2
80	2
81	4
82	8
83	1
84	2
85	10
86	2
87	5
89	35
91	999
92	71
94	0
95	0
96	0
97	0
98	0
99	0
100	0
101	0
102	0
104	11
105	4
106	1
107	1
108	4
111	161
112	1
113	62
114	0
115	2
116	0
119	0
120	0
121	0
123	0
126	0
127	0
128	1
129	0
131	0
133	0
139	372
140	22
141	142
142	7
144	0
151	0
152	0
153	0
155	0
156	0
158	0
165	0
166	0
168	0
169	0
170	0
171	0
172	0
181	0
182	0
183	0
184	0
185	0
195	0
196	0
197	0
198	0
199	0
200	2
201	0
212	0
215	0
247	0
248	0
250	0
288	0
289	0
290	3
291	0
331	0
332	0
333	0
334	0
335	2
338	47
339	8
340	8
341	1
342	0
