Mass Spectrum: 2-butenedioic acid, monoethyl ester
Formula: C6H8O4
CAS: 3249-53-4
Molecular weight: 144
m/z	intensity
21	0
25	17
26	160
27	274
28	37
29	48
30	8
31	10
36	0
37	2
38	1
39	2
40	10
41	6
42	13
43	38
44	11
45	104
46	3
47	0
50	0
51	0
52	2
53	82
54	61
55	48
56	2
57	1
58	1
60	0
65	0
66	0
68	2
69	3
70	7
71	71
72	35
73	2
74	0
75	0
77	0
80	0
81	103
82	151
83	8
84	0
85	0
86	6
87	0
88	4
89	1
91	0
97	2
98	50
99	999
100	121
101	11
102	0
105	0
108	0
113	1
114	0
115	0
116	2
117	89
118	4
119	1
125	0
126	165
127	35
128	3
129	5
130	0
133	0
135	0
143	0
145	2
146	0
