Mass Spectrum: Thiazolidine, 3-acetyl-2-methylene-
Formula: C6H9NOS
CAS: 32503-99-4
Molecular weight: 143
m/z	intensity
41	133
42	60
43	407
45	174
46	48
47	19
55	97
56	117
58	117
59	252
60	518
61	371
62	35
63	19
73	39
99	19
100	93
101	999
102	74
103	58
115	270
116	21
117	19
143	311
144	48
145	29
