Mass Spectrum: Pyrimido[5,4-E]1,2,4-triazine-5,7-dione, 1,5,6,7-tetrahydro-1,6-dimethyl-3-phenyl-
Formula: C13H11N5O2
CAS: 32502-63-9
Molecular weight: 269
m/z	intensity
33	16
34	1
37	8
38	17
39	72
40	40
41	7
42	12
43	21
44	11
45	3
46	0
47	0
50	71
51	82
52	33
53	21
54	38
56	102
57	10
58	5
59	0
61	8
62	25
63	72
64	14
66	166
67	205
69	26
70	16
71	0
72	0
73	2
74	12
75	35
76	154
77	89
78	7
80	13
81	8
82	22
83	85
84	8
85	3
86	4
87	7
89	83
90	6
91	1
92	1
94	7
95	2
96	0
99	5
103	999
104	306
105	27
106	3
108	19
109	69
110	19
111	3
112	1
114	4
115	3
116	1
117	2
118	0
120	1
123	0
127	0
128	0
129	1
130	0
131	5
132	6
133	0
135	8
137	2
138	3
139	0
141	16
142	3
143	1
144	0
145	2
149	0
154	0
155	0
156	0
157	0
158	0
163	2
166	0
167	0
169	4
170	1
171	1
182	0
183	1
184	1
185	5
186	2
197	2
198	6
199	3
200	1
201	0
210	1
212	97
213	42
214	6
218	1
226	3
227	4
228	0
239	0
240	20
241	55
242	8
243	0
254	0
255	1
256	0
265	1
266	2
269	443
270	62
271	8
272	0
