Mass Spectrum: Benzene, [(2,2-dimethoxyethyl)sulfonyl]-
Formula: C10H14O4S
CAS: 32501-95-4
Molecular weight: 230
m/z	intensity
25	1
26	10
27	68
28	22
29	65
30	11
31	102
33	2
34	0
36	0
37	1
38	6
39	26
40	26
41	3
42	27
43	163
44	6
45	43
46	2
47	101
48	3
49	2
50	67
51	236
52	15
53	8
54	0
55	1
56	0
57	17
58	127
59	51
60	2
61	1
62	3
63	9
64	3
65	26
66	6
67	0
68	0
69	6
70	1
71	1
72	0
73	20
74	19
75	999
76	42
77	560
78	54
79	5
80	0
81	2
82	2
83	0
84	1
85	0
86	0
87	0
88	101
89	16
90	3
91	33
92	4
93	2
94	3
95	1
96	0
97	20
98	1
99	1
101	0
102	1
103	7
104	1
105	11
106	0
107	0
108	40
109	11
110	6
111	1
112	0
115	0
117	0
118	0
119	3
120	0
121	19
122	1
123	1
124	0
125	27
126	4
127	1
128	0
133	0
134	4
135	28
136	3
137	1
140	2
141	247
142	19
143	13
144	0
149	0
151	0
153	0
155	0
157	0
163	0
165	0
167	2
168	0
169	4
170	0
171	0
181	0
183	0
184	0
185	0
186	0
187	1
198	6
199	68
200	8
201	3
202	0
218	0
229	7
230	4
231	1
232	0
