Mass Spectrum: 6-Undecanone oxime
Formula: C11H23NO
CAS: 32504-26-0
Molecular weight: 185
m/z	intensity
29	210
32	150
39	90
41	310
42	170
43	200
54	100
55	230
57	110
69	70
70	60
71	30
73	999
86	210
87	110
96	120
97	220
98	40
113	10
114	130
129	160
142	150
156	40
168	20
185	40
