Mass Spectrum: N'-Benzoyl-N,N-diethylurea, TMS derivative
Formula: C15H24N2O2Si
CAS: 32519-59-8
Molecular weight: 292
m/z	intensity
14	1
15	16
17	3
25	1
26	10
27	68
28	83
29	116
30	388
31	6
36	1
37	11
38	23
39	23
40	7
41	16
42	67
43	15
44	301
45	9
49	7
50	78
51	205
52	15
53	4
54	3
55	4
56	77
57	13
58	893
59	35
60	2
61	3
62	5
63	15
64	19
65	6
66	2
67	1
68	1
69	4
70	195
71	47
72	846
73	205
74	28
75	21
76	39
77	678
78	48
79	8
81	1
83	1
84	3
85	1
87	6
88	2
90	5
91	9
92	1
93	1
94	1
95	1
96	1
97	2
99	7
100	35
101	8
102	5
103	12
104	16
105	999
106	76
107	5
109	1
110	1
111	1
113	2
114	1
115	8
116	9
117	1
119	1
120	1
121	9
122	54
123	5
127	19
128	1
130	3
131	1
132	1
133	1
134	2
139	1
141	1
142	6
143	18
144	1
146	1
147	394
148	139
149	15
150	1
162	1
163	1
168	2
173	1
175	4
176	17
177	17
178	2
191	21
192	17
193	2
197	1
202	1
203	3
205	2
215	5
219	2
220	200
221	30
222	3
225	7
226	1
