Mass Spectrum: 2,4-Disilapentane, 3-(tert-butoxyvinylidene)-2,2,4,4-tetramethyl-
Formula: C13H28OSi2
CAS: 32516-17-9
Molecular weight: 256
m/z	intensity
20	24
25	1
26	8
29	95
31	11
32	9
34	19
37	1
38	3
39	48
40	65
41	131
43	132
45	181
46	26
47	9
50	11
51	11
52	7
53	20
54	15
55	35
56	31
57	189
58	28
59	41
60	7
61	7
62	5
64	0
65	1
66	8
67	13
69	14
71	8
72	9
73	999
74	74
75	81
76	5
77	5
78	2
81	13
82	13
83	64
84	14
85	14
86	2
87	10
93	1
95	105
96	10
97	46
99	21
106	1
109	22
110	81
111	22
112	544
113	58
114	32
115	3
117	13
118	1
119	3
125	9
127	2
129	5
131	5
133	23
140	1
141	16
142	5
143	19
144	3
147	71
148	15
149	3
153	16
155	40
156	2
157	61
158	9
168	1
169	22
170	4
171	1
183	6
185	6
187	3
199	20
200	195
201	38
202	19
241	2
256	33
257	7
258	5
