Mass Spectrum: 2-Propen-1-one, 3,3'-(1,4-phenylene)bis[1-phenyl-
Formula: C24H18O2
CAS: 3251-38-5
Molecular weight: 338
m/z	intensity
37	0
39	39
40	9
41	15
42	9
43	26
44	1
45	2
50	73
51	318
52	28
53	15
55	0
62	6
63	30
64	7
65	7
66	0
76	49
77	999
78	79
79	7
80	0
88	5
89	16
90	1
91	11
92	0
93	0
101	3
102	42
103	84
104	63
105	630
106	40
107	3
114	3
115	18
116	8
117	1
125	3
126	34
127	116
128	68
129	9
130	10
131	31
132	6
133	1
140	2
141	31
142	0
151	8
152	14
153	4
154	3
155	44
156	7
157	0
163	1
164	1
165	25
166	5
167	1
168	0
175	0
176	11
177	10
178	59
179	23
180	6
183	26
184	2
189	40
190	24
191	15
192	0
202	43
203	52
204	25
205	34
206	14
207	43
208	11
209	0
214	0
215	18
216	3
217	0
218	5
219	3
220	0
232	13
233	513
234	90
235	10
236	0
261	9
262	0
292	0
309	8
310	7
311	0
337	20
338	94
339	20
340	2
