Mass Spectrum: N-[1-(4-Chlorobenzyl)-4-(1,2,4-triazolio)]benzenesulfonamidate
Formula: C15H13ClN4O2S
CAS: 32539-61-0
Molecular weight: 348
m/z	intensity
26	16
27	32
28	99
29	10
35	10
36	61
37	14
38	30
39	100
40	27
41	14
42	8
43	6
44	63
45	8
48	6
49	12
50	148
51	313
52	32
53	12
54	6
55	12
56	21
61	16
62	43
63	118
64	27
65	58
66	33
69	16
73	36
74	65
75	107
76	50
77	770
78	78
79	6
81	6
82	10
84	6
85	12
86	8
87	10
88	6
89	256
90	87
91	17
92	6
93	131
94	60
95	6
97	17
99	65
100	6
101	19
102	39
103	14
104	17
106	8
108	6
109	38
110	23
111	56
112	19
113	21
114	8
115	3
116	50
117	6
123	10
124	38
125	999
126	82
127	274
128	21
131	21
137	43
138	71
139	49
140	71
141	159
142	32
143	10
151	21
152	14
153	10
154	4
157	120
158	16
159	4
165	38
166	126
167	27
168	38
169	4
179	10
192	98
193	219
194	49
195	60
196	6
206	10
207	14
208	16
209	4
218	38
219	4
220	3
224	5
234	4
241	4
250	27
251	3
259	5
300	7
301	20
302	6
303	8
348	4
