Mass Spectrum: Methyl-2,3,4--tri-O-methyl.alpha.l-rhamnopyranoside
Formula: C10H20O5
CAS: 3253-23-4
Molecular weight: 220
m/z	intensity
45	5
59	5
71	8
72	77
73	10
74	15
75	597
88	999
99	16
101	175
119	84
129	18
131	9
145	10
157	7
176	135
189	45
