Mass Spectrum: Imidazole-2,4(3H,5H)-dione, 5-hydroxy-3-methyl-1-phenyl-
Formula: C10H10N2O3
CAS: 32533-76-9
Molecular weight: 206
m/z	intensity
33	1
34	1
35	0
36	3
37	19
38	57
39	150
40	60
41	51
42	106
43	14
44	28
45	4
47	0
48	0
50	95
51	243
52	60
53	12
54	17
55	7
56	53
57	37
58	179
59	48
60	8
61	9
62	23
63	106
64	168
65	215
66	274
67	29
68	2
70	24
71	2
72	9
73	5
74	27
75	33
76	55
77	485
78	46
79	6
80	3
81	1
82	0
83	0
84	0
85	2
86	6
87	2
88	5
89	3
90	27
91	252
92	180
93	999
94	100
95	5
97	0
98	0
99	1
101	30
102	4
103	12
104	119
105	347
106	39
107	81
108	8
109	0
110	0
111	0
112	0
115	0
117	2
119	978
120	463
121	295
122	23
123	2
124	0
125	0
126	0
127	0
129	0
130	0
131	1
132	4
133	4
134	33
135	5
136	2
137	0
145	0
146	1
148	9
149	45
150	13
151	2
153	0
159	0
160	0
161	2
162	0
163	1
171	0
176	1
177	27
178	25
179	3
187	1
189	10
190	4
191	0
199	0
200	0
202	1
203	3
204	15
206	537
207	51
208	6
209	0
