Mass Spectrum: 2-Propenoic acid, 2-methyl-, 2,2-bis[[(2-methyl-1-oxo-2-propenyl)oxy]methyl]-1,3-propanediyl ester
Formula: C21H28O8
CAS: 3253-41-6
Molecular weight: 408
m/z	intensity
14	1
16	5
17	2
18	6
27	2
28	70
29	6
31	8
32	13
38	2
39	63
40	24
41	315
42	18
43	8
44	3
45	4
53	5
54	6
55	11
56	4
57	5
59	8
67	5
68	33
69	999
70	57
71	11
73	15
75	2
77	7
79	7
81	11
82	24
83	25
84	3
87	15
94	10
95	47
96	7
97	2
98	8
99	14
100	6
101	1
105	1
107	1
108	15
109	11
110	26
111	4
115	1
122	11
125	19
126	2
133	4
135	3
136	18
137	3
138	5
139	29
140	15
141	5
143	1
145	4
147	7
148	2
155	22
168	2
176	8
185	2
187	5
207	10
221	5
224	6
253	17
254	6
255	33
256	3
281	8
322	22
323	74
324	15
355	1
380	4
