Mass Spectrum: .alpha.-D-Xylofuranoside, methyl 3,5-di-O-methyl-
Formula: C8H16O5
CAS: 3253-83-6
Molecular weight: 192
m/z	intensity
45	761
57	88
58	44
59	102
71	184
73	105
74	85
75	341
85	44
87	999
88	41
100	20
101	208
102	17
115	47
117	17
129	17
132	92
147	88
161	17
