Mass Spectrum: cis-(-)-1,2-Epoxy-p-menth-8-ene
Formula: C10H16O
CAS: 32543-51-4
Molecular weight: 152
m/z	intensity
15	1
18	1
26	6
27	114
28	20
29	84
30	2
31	4
32	3
37	4
38	19
39	326
40	75
41	467
42	53
43	999
44	148
45	29
46	2
49	1
50	21
51	62
52	32
53	194
54	64
55	233
56	42
57	27
58	20
59	9
61	2
62	8
63	22
64	5
65	81
66	37
67	732
68	146
69	127
70	16
71	281
72	14
73	1
74	3
75	3
76	1
77	124
78	24
79	341
80	50
81	278
82	241
83	96
84	86
85	7
89	3
90	1
91	118
92	35
93	294
94	105
95	146
96	31
97	27
98	2
102	1
103	7
104	2
105	43
106	22
107	64
108	196
109	355
110	98
111	22
112	2
115	5
116	1
117	9
118	2
119	131
120	12
121	62
122	9
123	132
124	53
125	5
128	1
133	4
134	31
135	5
136	3
137	283
138	15
151	3
152	23
153	3
