Mass Spectrum: 4-(5-Norbornen-2-yl)-1,1-diphenyl-2-pentyne-1,4-diol
Formula: C24H24O2
CAS: 325462-81-5
Molecular weight: 344
m/z	intensity
37	1
39	165
40	67
41	92
43	357
45	15
51	195
53	149
55	68
57	9
58	3
62	6
63	33
66	999
67	67
69	18
71	32
74	10
75	19
77	673
78	122
79	94
80	14
81	11
82	5
83	3
84	1
86	2
87	6
88	6
89	24
91	290
92	27
93	57
94	18
95	19
96	8
97	1
98	1
99	2
101	15
102	32
103	47
105	677
106	47
107	10
108	4
109	3
110	1
111	1
113	11
115	137
116	20
117	29
118	12
119	7
120	2
121	3
122	1
123	1
126	19
127	49
128	81
129	126
130	31
131	55
132	10
133	6
134	1
135	1
137	3
139	34
140	6
141	36
142	9
143	20
144	7
145	20
146	4
147	3
150	10
151	20
152	64
153	40
154	22
155	102
156	15
157	19
158	7
159	6
161	3
162	3
163	19
165	158
166	41
167	67
168	12
169	8
170	3
171	7
173	10
174	20
176	29
177	16
178	117
179	89
180	20
181	19
183	81
184	16
185	8
186	3
187	15
188	10
189	89
190	39
191	124
192	36
193	26
194	16
195	16
196	17
197	3
198	2
199	1
200	8
201	19
202	96
203	69
204	48
205	71
206	30
207	104
208	29
209	7
210	1
211	2
213	13
215	95
216	34
217	128
218	50
219	31
220	16
221	81
222	16
223	11
224	3
225	2
226	10
227	11
228	26
229	55
230	16
231	48
232	35
233	81
234	72
235	26
236	5
237	2
239	22
240	9
241	34
242	22
243	42
244	36
245	51
246	27
247	39
248	15
249	18
250	10
251	4
252	12
253	20
254	14
255	75
256	37
257	86
259	66
260	76
261	88
262	15
263	26
264	5
265	6
267	19
268	18
269	24
270	14
271	30
272	88
273	23
274	6
275	2
276	1
277	3
278	5
279	6
281	6
282	21
283	64
284	28
285	166
286	35
287	5
289	1
291	1
292	1
293	12
294	3
295	2
296	1
297	17
298	17
299	4
301	1
307	4
308	8
309	4
311	45
312	9
313	1
325	16
326	102
327	22
328	3
329	6
330	1
