Mass Spectrum: Pyridine-4-carbohydrazide, N2-(2-hydroxy-5-methoxybenzylideno)-
Formula: C14H13N3O3
CAS: 325472-20-6
Molecular weight: 271
m/z	intensity
37	19
38	65
39	156
40	40
41	55
42	18
43	32
44	36
45	2
49	40
50	350
51	826
52	200
53	136
54	60
55	67
56	199
57	12
60	0
61	6
62	33
63	78
64	72
65	167
66	84
67	63
68	24
69	18
70	2
71	1
74	18
75	30
76	76
77	221
78	999
79	569
80	76
81	16
82	17
83	5
84	1
89	12
90	13
91	51
92	52
93	38
94	58
95	58
96	5
97	1
102	0
103	5
104	33
105	105
106	730
107	406
108	73
109	29
110	11
111	2
115	2
116	3
117	8
118	7
119	27
120	24
121	44
122	64
123	77
124	4
133	78
134	251
135	65
136	27
137	49
138	42
143	6
144	2
145	1
146	2
148	51
149	360
150	148
151	17
159	4
160	1
165	23
170	0
171	6
172	1
186	1
187	1
188	9
199	1
200	11
212	1
214	4
215	25
216	1
224	1
226	12
228	1
229	9
253	4
254	6
255	0
256	3
270	1
271	214
272	30
