Mass Spectrum: p-Nitrophenyl adipate
Formula: C18H16N2O8
CAS: 32564-25-3
Molecular weight: 388
m/z	intensity
26	11
27	29
28	39
29	21
30	17
31	1
37	4
38	12
39	86
40	9
41	44
42	22
43	9
44	20
45	1
46	1
49	2
50	17
51	11
52	10
53	32
54	31
55	372
56	34
57	9
60	1
61	4
62	9
63	30
64	25
65	117
66	11
67	8
68	12
69	13
70	2
71	5
73	1
74	6
75	22
76	23
77	4
78	2
79	4
80	7
81	28
82	10
83	247
84	21
85	4
89	1
90	1
91	4
92	18
93	56
94	17
95	3
96	2
97	4
98	1
99	2
103	2
105	2
106	5
107	11
108	5
109	61
110	93
111	999
112	71
113	7
115	1
119	9
120	2
121	2
122	23
123	45
124	7
125	2
127	1
128	1
129	1
131	2
132	2
133	2
134	9
135	3
136	1
139	292
140	40
141	4
147	2
148	1
149	3
152	3
157	1
158	2
163	3
164	1
165	1
166	5
167	1
176	2
178	3
180	56
181	6
194	1
204	34
205	6
206	2
208	1
220	2
221	3
222	125
223	15
224	2
250	613
251	84
252	11
253	1
