Mass Spectrum: Vinyl ethyl sulfoxide
Formula: C4H8OS
CAS: 32568-51-7
Molecular weight: 104
m/z	intensity
45	99
47	135
48	112
50	72
58	193
59	234
60	136
61	59
63	143
73	47
75	158
76	999
77	63
78	79
88	102
90	7
104	583
105	85
106	35
