Mass Spectrum: 3-Tolyl trifluoromethanesulfonate
Formula: C8H7F3O3S
CAS: 32578-31-7
Molecular weight: 240
m/z	intensity
38	70
39	370
50	109
51	221
52	139
53	190
63	90
64	48
65	60
69	507
77	848
78	240
79	827
80	71
90	149
91	390
92	48
107	999
108	199
109	100
175	261
240	528
