Mass Spectrum: s-Benzyl-N-carbobenzyloxy-L-cysteine
Formula: C18H19NO4S
CAS: 3257-18-9
Molecular weight: 345
m/z	intensity
14	1
15	5
16	1
17	3
18	10
26	5
27	23
28	24
29	8
30	3
32	1
36	1
37	5
38	11
39	60
40	9
41	21
42	7
43	21
44	19
45	47
46	9
47	5
49	3
50	29
51	63
52	17
53	10
54	2
55	5
56	2
57	1
58	3
59	4
60	2
61	5
62	11
63	35
64	9
65	112
66	7
69	4
70	1
71	1
72	2
73	3
74	10
75	6
76	5
77	102
78	27
79	178
80	19
81	1
85	2
86	4
87	3
88	2
89	31
90	24
91	999
92	86
93	4
97	1
101	1
102	3
103	2
104	2
105	8
106	5
107	113
108	157
109	12
110	1
113	3
114	1
115	1
116	1
117	1
118	1
121	17
122	14
123	40
124	24
125	4
126	1
132	2
133	1
134	1
135	3
137	153
138	15
139	8
140	1
148	4
149	2
150	1
164	2
165	2
166	1
169	1
176	7
177	1
193	3
194	1
209	1
210	11
211	2
214	1
236	2
237	109
238	15
239	7
254	9
255	1
301	1
