Mass Spectrum: 4-Aminophenyl trifluoromethanesulfonate
Formula: C7H6F3NO3S
CAS: 32578-29-3
Molecular weight: 241
m/z	intensity
39	71
41	58
50	70
51	68
52	199
53	288
54	79
64	178
69	161
78	49
79	70
80	479
107	89
108	999
241	119
