Mass Spectrum: 3-Nitrophenyl trifluoromethanesulfonate
Formula: C7H4F3NO5S
CAS: 32578-25-9
Molecular weight: 271
m/z	intensity
38	188
39	91
50	78
62	88
63	478
64	547
65	168
69	999
75	140
80	59
83	59
92	667
93	49
95	748
111	49
122	50
149	59
161	407
225	89
271	209
