Mass Spectrum: Benzaldehyde, [4-(3,4-dichlorophenyl)-2-thiazolyl]hydrazone
Formula: C16H11Cl2N3S
CAS: 325767-36-0
Molecular weight: 347
m/z	intensity
33	2
34	0
35	16
36	1
37	30
38	46
39	106
40	16
41	32
42	38
43	38
45	308
47	28
48	6
50	255
51	587
52	66
53	18
54	4
55	5
56	1
57	11
58	15
59	35
60	50
61	22
62	53
63	105
64	38
65	32
66	4
67	1
69	17
70	12
71	10
72	8
73	28
74	88
75	80
76	158
77	999
78	120
79	15
80	11
81	14
82	17
84	11
85	12
86	16
87	21
89	120
90	73
91	16
92	9
93	9
94	3
95	2
96	4
97	4
98	9
99	18
100	20
102	13
103	133
104	135
105	18
107	10
108	2
109	20
110	4
111	9
112	5
114	1
115	1
116	1
117	3
118	6
119	6
120	1
121	3
122	1
123	13
124	1
125	5
129	4
130	2
132	10
133	4
134	2
135	6
136	11
137	7
138	5
139	0
143	1
144	3
145	13
146	7
147	7
148	6
149	4
150	1
153	0
154	9
155	3
157	6
158	1
159	3
160	0
161	0
163	2
165	1
166	8
167	7
168	3
169	7
170	13
171	14
172	13
173	13
174	10
175	2
176	2
179	0
180	16
181	6
182	4
184	2
185	1
189	4
191	4
192	0
193	4
194	0
195	0
197	2
199	1
201	1
202	33
203	4
204	21
205	2
206	5
207	3
208	50
209	11
210	17
211	1
215	1
217	1
218	0
219	0
241	0
243	6
244	39
246	35
247	2
248	5
249	0
270	2
272	1
310	0
347	3
349	3
351	0
