Mass Spectrum: Carbamic acid, (.alpha.-methylbenzyl)-, 1,2,2-trimethylpropyl ester
Formula: C15H23NO2
CAS: 32589-42-7
Molecular weight: 249
m/z	intensity
41	170
42	60
43	480
44	30
45	20
51	30
55	30
56	20
57	230
69	90
77	80
78	20
79	60
84	20
85	220
86	10
87	50
88	10
103	20
104	60
105	999
106	380
107	20
120	60
132	30
149	20
150	280
151	30
164	240
165	360
166	30
234	30
249	20
