Mass Spectrum: Ethyl 2-(3-acetylureido)-3,3,3-trifluorolactate
Formula: C8H11F3N2O5
CAS: 325819-41-8
Molecular weight: 272
m/z	intensity
33	10
34	3
36	1
37	1
38	5
39	10
40	59
41	44
42	186
43	999
44	525
45	46
46	6
47	17
48	1
50	59
51	16
52	1
53	1
54	4
55	9
56	11
57	21
58	5
59	368
60	35
61	21
62	4
63	1
64	1
65	1
66	2
67	7
69	574
70	33
71	9
72	2
73	27
74	41
75	2
76	2
77	4
78	17
79	4
81	3
82	2
83	3
84	3
85	3
86	21
87	15
89	1
90	9
91	1
92	2
93	2
94	14
95	8
96	9
97	42
98	6
99	68
100	2
102	73
103	3
104	1
105	1
107	1
109	1
110	1
111	1
112	4
113	8
114	182
115	11
116	1
118	8
119	1
120	4
121	1
123	4
124	1
125	2
126	3
127	9
129	3
130	1
135	1
137	1
138	4
139	3
140	5
141	3
143	5
144	1
147	1
148	3
149	1
152	1
157	115
158	5
159	1
161	3
163	1
168	5
170	2
171	4
183	2
185	2
193	1
199	111
200	6
203	2
227	2
