Mass Spectrum: Mannitol, O-2,3,4,6-tetra-O-methyl-.alpha.-D-mannopyranosyl-(1.fwdarw.2)-O-3,4,6-tri-O-methyl-.alpha.-D-mannopyranosyl-(1.fwdarw.2)-1,3,4,5,6-penta-O-methyl-, D-
Formula: C30H58O16
CAS: 32581-25-2
Molecular weight: 674
m/z	intensity
45	799
71	639
75	440
88	999
89	559
101	959
103	70
111	350
115	190
133	140
143	90
145	260
155	160
159	40
171	200
175	20
177	30
187	829
201	40
203	20
219	539
235	789
303	2
305	8
359	4
365	5
375	3
391	100
407	82
423	34
439	5
499	35
541	1
585	6
