Mass Spectrum: Benzamide, 2-hydroxy-N-(1-cyclopropylethyl)-N-phenyl-
Formula: C18H19NO2
CAS: 325851-76-1
Molecular weight: 281
m/z	intensity
33	1
37	3
39	110
41	275
42	15
43	1
44	1
49	0
50	13
51	27
52	9
53	21
54	2
55	2
57	1
63	30
65	193
66	15
67	17
69	229
70	10
71	0
74	2
75	4
77	118
78	9
79	2
89	1
91	44
93	999
94	57
102	3
103	6
104	27
106	58
107	5
115	9
117	18
118	26
120	218
121	436
122	22
123	1
127	3
128	6
129	8
130	16
132	46
133	31
134	4
139	3
141	4
143	3
144	19
146	162
147	18
149	1
152	0
154	3
156	4
157	0
158	2
161	142
162	23
163	3
164	0
166	11
167	7
168	2
169	3
171	1
173	1
176	22
177	2
182	0
183	2
184	3
185	1
188	4
189	14
190	3
193	2
194	8
195	9
196	31
197	9
198	0
209	0
210	3
211	6
213	287
214	44
215	2
225	2
226	2
238	11
240	7
252	12
253	2
262	1
263	2
264	2
278	1
279	1
281	178
282	29
283	3
