Mass Spectrum: N-(4H-1,2,4-Triazol-4-yl)-p-toluenesulfonamide
Formula: C9H10N4O2S
CAS: 32585-76-5
Molecular weight: 238
m/z	intensity
33	1
34	3
36	5
37	5
38	22
39	134
40	84
41	59
42	68
43	20
44	27
45	15
46	2
47	0
48	11
49	3
50	31
51	52
52	20
53	16
54	4
55	10
56	6
57	11
58	2
59	1
60	5
61	6
62	22
63	70
64	34
65	264
66	17
67	8
69	96
70	7
71	4
73	3
74	7
75	5
76	6
77	35
78	13
79	20
80	6
81	2
82	2
83	5
84	10
85	4
86	4
87	5
89	57
91	999
92	90
93	5
94	0
95	2
96	1
97	1
98	0
101	0
103	1
104	2
105	7
106	14
107	37
108	22
109	3
110	0
111	3
112	0
113	0
115	0
117	1
118	2
119	1
121	4
122	2
123	2
124	4
125	0
127	0
129	0
132	1
138	0
139	12
140	2
141	0
147	0
149	6
150	0
155	429
156	37
157	20
158	1
171	41
172	3
173	2
218	1
238	90
239	10
240	4
