Mass Spectrum: 3-Methyl-3,4,5,6,7,8,9,10,11,12,13,14-dodecahydro-2H-1-oxabenzocyclododecene
Formula: C16H28O
CAS: 32585-37-8
Molecular weight: 236
m/z	intensity
26	2
27	70
28	18
29	110
30	2
31	5
39	81
40	33
41	333
42	47
43	146
44	5
45	6
51	9
52	8
53	64
54	32
55	239
56	25
57	32
58	7
59	7
63	2
65	22
66	15
67	140
68	44
69	95
70	16
71	28
72	3
77	40
78	10
79	71
80	19
81	142
82	45
83	64
84	22
85	16
91	40
92	7
93	45
94	18
95	137
96	38
97	65
98	34
99	10
103	3
104	2
105	15
106	4
107	32
108	15
109	125
110	35
111	68
112	999
113	104
114	7
115	2
117	3
119	19
120	4
121	22
122	12
123	69
124	133
125	448
126	123
127	11
131	2
133	7
134	3
135	14
136	10
137	402
138	74
139	41
140	13
141	2
147	6
148	2
149	13
150	7
151	84
152	41
153	10
154	20
155	3
161	3
163	9
164	4
165	125
166	26
167	18
168	10
177	5
178	2
179	70
180	25
181	24
182	4
191	3
192	3
193	39
194	12
195	11
207	20
208	7
221	22
222	5
234	22
235	20
236	300
237	61
238	7
