Mass Spectrum: Bambuterol, methyl boronate
Formula: C19H30BN3O5
CAS: 325837-05-6
Molecular weight: 391
m/z	intensity
54	5
56	12
57	13
69	6
70	5
72	999
73	35
78	6
81	5
84	5
104	5
133	5
263	6
303	5
304	14
305	7
334	215
335	36
336	5
375	116
376	523
377	97
