Mass Spectrum: Carbamic acid, (.alpha.-methylbenzyl)-, 1,1,2-trimethylpropyl ester
Formula: C15H23NO2
CAS: 32589-46-1
Molecular weight: 249
m/z	intensity
41	227
42	79
43	485
44	39
45	69
55	39
56	49
57	336
69	108
70	9
77	128
78	39
79	79
84	29
85	217
87	79
88	9
103	39
104	99
105	999
106	405
107	9
120	79
132	128
147	39
149	29
150	346
151	9
164	306
165	425
166	39
234	29
249	29
