Mass Spectrum: 2-(4-Chlorobenzylthio)-5-chloro-1H-benzimidazole
Formula: C14H10Cl2N2S
CAS: 325822-98-8
Molecular weight: 308
m/z	intensity
48	4
49	7
50	24
51	36
52	24
53	17
54	8
55	28
56	15
57	31
58	5
59	18
61	12
62	28
63	73
64	25
65	26
67	17
68	13
69	55
70	15
71	16
73	30
74	15
75	29
76	24
77	40
78	17
89	101
90	55
91	51
92	18
93	15
99	48
100	10
101	18
107	94
108	21
125	999
126	95
127	330
129	33
130	6
150	16
151	6
152	43
153	8
154	15
155	22
156	68
157	14
158	28
159	5
165	22
166	6
167	8
168	2
181	12
182	4
183	46
184	85
185	26
186	33
188	3
189	2
240	28
241	6
242	9
243	3
275	67
276	17
277	46
278	10
279	5
280	1
308	204
309	40
310	137
311	24
312	27
313	6
