Mass Spectrum: Glucitol, O-2,3,4,6-tetra-O-methyl-.beta.-D-galactopyranosyl-(1.fwdarw.4)-O-2,3,6-tri-O-methyl-.beta.-D-galactopyranosyl-(1.fwdarw.4)-1,2,3,5,6-penta-O-methyl-, D-
Formula: C30H58O16
CAS: 32581-18-3
Molecular weight: 674
m/z	intensity
45	509
71	360
75	370
88	999
89	330
101	589
111	390
115	280
133	90
143	80
145	60
155	140
159	60
171	150
175	10
187	490
201	20
203	30
219	210
235	470
295	30
303	6
305	6
319	3
335	4
347	2
359	1
363	1
375	8
391	1
407	20
423	3
439	4
499	15
585	3
