Mass Spectrum: Fenoterol, 4TMS derivative
Formula: C29H53NO4Si4
CAS: 325836-78-0
Molecular weight: 591
m/z	intensity
55	4
56	76
57	102
58	29
60	4
65	11
67	5
69	24
70	4
72	5
73	999
74	99
75	32
77	20
79	4
85	5
87	5
90	13
94	8
97	16
99	5
100	5
103	17
115	9
117	13
119	4
128	6
131	14
133	30
134	14
135	30
145	5
149	25
150	18
152	18
162	5
164	21
166	14
168	6
174	5
175	13
177	10
178	26
179	143
181	6
191	21
192	17
193	10
199	5
206	7
207	471
208	34
210	5
219	5
220	5
225	13
232	13
233	13
236	617
237	139
238	38
239	17
240	5
249	4
250	13
251	5
264	10
265	21
266	25
267	5
276	5
281	51
282	15
283	12
289	5
291	8
293	6
307	9
308	17
309	10
320	7
322	779
323	102
324	33
326	5
339	4
340	17
341	8
354	5
355	147
356	455
357	65
359	16
360	5
368	9
396	13
398	5
410	5
412	559
413	123
414	29
415	5
429	5
487	5
576	45
577	33
578	17
