Mass Spectrum: Carbamic acid, (.alpha.-methylbenzyl)-, propyl ester
Formula: C12H17NO2
CAS: 32589-32-5
Molecular weight: 207
m/z	intensity
41	257
42	425
43	613
44	168
50	39
51	178
52	39
60	39
61	9
76	9
77	415
78	148
79	287
80	9
91	19
103	118
104	287
105	703
106	999
107	59
119	9
120	584
121	19
132	386
147	138
148	49
150	148
164	643
165	49
192	465
193	29
207	297
208	19
