Mass Spectrum: Butanamide, 4-furfurylidenhydrazino-4-oxo-N-(4-fluorophenyl)-
Formula: C15H14FN3O3
CAS: 325973-28-2
Molecular weight: 303
m/z	intensity
33	2
34	0
35	0
36	1
37	7
38	18
39	108
40	20
41	30
42	19
43	42
44	39
45	6
46	1
47	0
48	0
49	1
50	17
51	37
52	72
53	33
54	39
55	389
56	59
57	103
58	6
59	2
60	4
61	2
62	5
63	13
64	19
65	13
66	30
67	11
68	12
69	28
70	30
71	40
72	22
73	7
74	3
75	28
76	4
77	5
78	2
79	9
80	18
81	63
82	36
83	120
84	54
85	8
86	1
87	1
88	0
89	4
90	3
91	6
92	5
93	38
94	224
95	106
96	20
97	22
98	11
99	8
100	63
101	6
102	1
103	2
104	1
105	1
106	1
107	4
108	7
109	58
110	999
111	549
112	93
113	12
114	1
115	2
116	0
117	1
119	2
120	3
121	11
122	13
123	12
124	17
125	28
126	2
127	1
128	1
129	5
130	0
131	0
132	0
133	1
134	1
135	3
136	5
137	30
138	118
139	10
140	0
141	0
142	0
143	1
144	1
145	0
146	1
147	2
148	16
149	5
150	5
151	5
152	7
153	1
154	0
155	0
156	0
157	2
158	0
161	0
162	0
163	2
164	5
165	25
166	60
167	7
168	0
169	0
170	1
171	33
172	3
173	0
174	0
175	0
176	1
177	0
178	0
179	0
183	0
184	0
185	1
186	0
187	0
188	0
189	2
190	1
191	2
192	12
193	132
194	344
195	37
196	3
197	0
198	0
199	2
200	0
201	0
202	0
203	0
205	0
207	0
208	0
209	0
210	1
213	0
217	0
218	0
221	0
227	0
235	0
239	0
240	0
241	0
242	0
254	0
255	0
256	0
267	0
268	0
269	0
277	0
278	0
281	0
283	4
284	1
285	1
286	0
287	0
297	0
301	1
303	28
304	4
305	0
