Mass Spectrum: Hexanoic acid, 2-bromo-4-fluorophenyl ester
Formula: C12H14BrFO2
CAS: 3259-26-5
Molecular weight: 288
m/z	intensity
25	7
26	75
27	360
28	60
29	445
30	8
39	229
40	67
41	567
42	310
43	999
44	32
50	37
51	59
52	25
53	48
54	18
55	509
56	89
57	105
58	7
59	3
60	28
61	23
62	31
63	63
64	13
65	27
66	12
67	13
68	20
69	113
70	89
71	893
72	55
73	24
74	15
75	13
76	4
77	21
78	10
79	37
80	27
81	104
82	145
83	76
84	6
87	2
90	2
91	24
92	7
93	24
94	151
95	19
96	6
97	34
98	90
99	968
100	148
101	14
102	3
105	7
106	3
107	8
108	37
109	8
110	46
111	27
112	19
113	17
115	11
116	3
117	9
119	23
120	2
121	8
122	4
125	4
127	3
128	23
129	6
130	14
133	5
134	2
135	20
136	9
137	13
138	4
139	4
140	11
141	4
143	3
149	4
150	3
151	2
152	4
153	18
154	2
157	3
161	70
162	6
163	61
164	5
165	4
173	27
174	2
175	23
178	2
187	8
189	37
190	215
191	41
192	229
193	19
232	4
288	33
289	5
290	30
291	4
