Mass Spectrum: Piperazine, 1-benzyl-4-(5-bromofuro-2-yl)-
Formula: C16H17BrN2O2
CAS: 325980-83-4
Molecular weight: 348
m/z	intensity
33	4
34	9
35	56
36	165
37	40
38	134
39	94
40	83
41	100
42	237
43	34
44	42
45	4
48	0
49	0
50	13
51	30
52	16
53	25
54	34
55	70
56	61
57	31
58	9
59	0
60	0
61	0
62	10
63	28
64	28
65	122
66	38
67	10
68	8
69	13
70	9
71	8
72	24
73	1
74	0
75	1
76	5
77	21
78	11
79	12
80	16
81	15
82	15
83	23
84	13
85	7
86	0
87	2
88	8
89	48
91	999
92	83
93	9
94	10
95	26
96	9
97	2
98	1
102	0
103	5
104	16
105	24
106	7
107	3
108	8
109	4
110	0
111	2
112	0
115	17
116	32
117	61
118	28
119	29
120	16
121	32
122	13
123	2
128	3
129	2
130	6
131	29
132	210
133	59
134	241
135	29
136	23
137	1
141	0
143	46
144	135
145	71
146	528
147	62
148	4
149	4
150	8
151	0
157	1
158	9
159	48
160	12
161	23
162	11
163	9
164	20
165	1
166	1
167	11
169	0
171	3
173	123
174	28
175	139
176	9
177	0
189	1
190	1
191	0
192	0
203	2
204	0
206	0
215	0
216	7
217	2
218	8
219	3
230	0
232	1
233	0
234	8
235	0
239	28
240	2
242	1
244	0
256	0
257	3
258	0
259	2
266	0
269	8
270	0
271	0
273	0
347	1
348	11
349	3
350	10
351	0
