Mass Spectrum: Butanoic acid, monoamide, monohydrazide, N-(4-fluorophenyl)-N2-(2-fluorobenzylideno)-
Formula: C17H15F2N3O2
CAS: 325973-33-9
Molecular weight: 331
m/z	intensity
33	3
34	3
36	1
37	5
38	9
39	27
40	55
41	37
42	25
43	62
44	80
45	12
46	3
48	1
49	2
50	20
51	21
52	12
53	6
54	24
55	426
56	87
57	148
58	11
59	7
60	9
61	8
62	18
63	34
64	18
65	11
66	3
67	7
68	13
69	45
70	52
71	52
72	39
73	13
74	12
75	75
76	13
77	8
78	2
79	3
80	6
81	25
82	55
83	158
84	82
85	13
86	2
87	5
88	4
89	12
90	26
91	16
92	10
93	8
94	31
95	168
96	34
97	21
98	18
99	17
100	82
101	10
102	53
103	6
104	2
105	3
107	58
108	37
109	50
110	187
111	999
112	123
113	16
114	2
115	4
116	1
117	10
118	27
119	14
120	6
121	78
122	239
123	40
124	25
125	12
126	3
127	3
128	1
129	8
130	1
131	2
132	1
133	1
134	1
135	7
136	12
137	56
138	279
139	30
140	3
141	1
142	0
143	2
144	2
145	1
146	2
147	2
148	18
149	13
150	10
151	4
152	6
153	2
154	1
155	1
156	0
157	4
158	0
159	0
161	0
162	0
163	4
164	8
165	17
166	40
167	5
168	0
169	1
171	45
172	4
173	1
174	0
176	1
177	1
178	0
179	6
180	2
181	0
184	0
185	2
189	2
190	0
191	4
192	9
193	46
194	293
195	33
196	3
199	1
200	1
201	2
203	1
210	2
211	0
213	0
218	1
219	1
221	92
222	11
223	1
231	0
241	1
242	0
255	0
256	0
257	0
269	1
277	0
278	0
281	0
283	6
284	1
285	0
301	1
313	1
331	10
332	2
