Mass Spectrum: Phenol, 2-(4-fluorophenyliminomethyl)-6-nitro-
Formula: C13H9FN2O3
CAS: 326020-08-0
Molecular weight: 260
m/z	intensity
33	29
34	5
35	4
37	77
38	349
39	480
40	101
41	69
42	34
43	43
44	33
46	151
47	2
48	3
50	657
51	585
52	197
53	352
54	88
55	72
56	44
57	261
58	20
59	6
61	92
62	267
63	596
64	260
65	261
66	58
67	19
68	67
69	166
70	74
71	12
73	32
74	269
75	999
76	264
77	74
78	41
79	121
80	51
81	93
82	83
83	251
84	29
85	11
86	24
87	36
88	42
89	39
90	62
91	77
92	100
93	83
94	94
95	969
96	162
97	18
98	9
99	19
100	19
101	79
102	20
103	10
104	12
105	17
106	30
107	73
108	74
109	51
110	31
111	27
112	9
113	9
114	8
115	10
116	6
117	8
118	21
119	78
120	48
121	43
122	318
123	30
125	14
126	15
127	31
128	15
129	8
130	7
131	27
132	47
133	175
134	55
135	68
136	9
137	11
138	23
139	51
140	25
141	7
142	2
143	8
145	25
146	84
147	62
148	106
149	14
150	4
151	2
152	7
153	5
154	26
155	11
156	16
157	134
158	96
159	104
160	30
161	10
162	7
163	3
164	27
165	57
166	45
167	24
168	8
169	15
170	14
171	17
172	59
173	26
174	51
175	8
176	3
177	2
178	1
180	1
181	1
182	16
183	21
184	204
185	569
186	177
187	23
188	15
189	3
190	0
192	0
193	2
194	8
195	14
196	19
197	14
198	6
199	5
200	11
201	33
202	108
203	16
204	1
205	1
206	0
208	0
209	1
210	4
211	8
212	26
213	314
214	111
215	16
216	2
217	1
218	0
219	0
220	0
223	0
225	0
226	2
227	3
228	9
229	26
230	290
231	42
232	4
233	0
240	0
241	3
242	2
243	10
244	17
245	2
247	0
249	0
252	0
254	1
255	1
256	6
257	19
258	18
259	181
260	847
261	130
262	15
263	0
264	0
