Mass Spectrum: 5-Ethyl-2-(furfurylidenehydrazino)-2-thiazolin-4-one
Formula: C10H11N3O2S
CAS: 326095-41-4
Molecular weight: 237
m/z	intensity
37	39
38	188
39	897
40	319
41	581
42	139
43	55
44	72
45	367
46	31
47	15
50	246
51	356
52	999
53	64
55	336
58	7
59	51
60	13
66	9
68	9
69	67
70	22
71	11
73	60
74	289
75	3
79	42
80	316
81	15
94	166
95	317
96	132
108	22
136	5
237	49
238	2
239	1
