Mass Spectrum: Piperidin-4-ol, 1-methyl-4-[3-(methyl)(phenyl)amino-1-propynyl]-
Formula: C16H22N2O
CAS: 326019-35-6
Molecular weight: 258
m/z	intensity
33	75
34	2
38	9
39	60
40	101
41	90
42	498
43	378
44	257
45	7
50	12
51	53
52	18
53	40
54	14
55	59
56	53
57	191
58	59
59	6
60	4
63	19
64	15
65	39
66	23
67	38
68	38
70	999
71	133
72	21
74	4
77	184
79	77
80	19
81	35
82	68
83	32
84	17
91	58
92	17
93	33
94	76
95	52
96	106
97	17
98	28
99	18
100	1
102	1
103	10
104	41
105	38
106	84
107	233
108	81
109	37
110	33
112	67
113	5
114	17
115	28
117	12
118	13
120	139
121	18
122	43
123	49
124	102
125	324
126	26
127	3
128	15
129	10
130	11
131	17
132	49
134	74
135	76
136	127
138	49
142	1
143	22
144	72
145	30
146	19
149	2
150	66
151	383
152	253
153	202
154	22
155	2
157	22
158	22
159	2
160	1
167	2
168	7
170	10
172	9
173	1
180	1
181	1
182	7
183	3
184	2
186	17
188	38
189	3
194	1
196	39
197	25
198	18
199	1
200	14
201	6
214	2
239	3
257	86
258	363
259	74
