Mass Spectrum: Piperidine, 1-(3-chloro-4-isopropoxybenzyl)-
Formula: C15H22ClNO
CAS: 32600-15-0
Molecular weight: 267
m/z	intensity
33	3
34	0
35	24
37	6
39	29
40	27
41	139
42	97
43	93
44	32
45	0
51	35
52	6
53	8
54	14
55	85
56	32
57	14
58	0
62	0
63	5
64	1
65	4
66	1
68	28
69	28
70	14
71	1
73	0
74	0
75	5
77	101
78	13
79	4
80	3
81	0
82	19
84	999
85	56
86	2
87	0
89	19
90	11
91	7
92	0
93	1
94	1
96	10
97	61
98	308
99	25
100	1
101	0
102	0
103	1
104	6
105	27
106	5
107	58
108	4
110	0
111	1
112	9
113	5
114	2
115	2
117	1
118	2
119	1
120	1
123	5
124	5
125	7
126	5
127	2
128	0
130	1
132	2
133	3
134	1
138	2
139	4
141	626
142	153
143	201
144	49
145	4
147	1
148	1
149	5
150	0
153	7
154	4
155	3
156	4
158	0
160	5
162	1
166	0
168	4
169	2
170	1
171	1
173	1
181	3
182	10
183	32
184	40
185	15
186	14
187	0
188	3
189	2
190	4
196	7
197	0
208	4
209	9
210	3
222	0
224	87
225	13
226	25
227	4
232	10
233	0
238	1
252	5
264	0
265	0
266	56
267	190
268	51
269	60
270	9
