Mass Spectrum: Triazene, 1,3-diphenyl-1-cyanomethyl-
Formula: C14H12N4
CAS: 326017-39-4
Molecular weight: 236
m/z	intensity
33	4
34	1
36	3
37	20
38	42
39	97
40	38
41	11
42	1
43	2
44	8
45	0
46	0
50	113
51	285
52	67
53	4
54	1
55	1
56	0
57	1
59	0
60	1
61	5
62	11
63	36
64	33
65	58
66	11
67	0
68	0
69	1
70	1
71	1
73	6
74	19
75	23
77	999
78	192
79	13
80	0
81	0
84	6
86	0
87	1
88	1
89	4
90	9
91	14
92	44
93	9
94	2
95	0
96	0
97	0
98	0
99	0
100	0
101	1
102	8
103	41
104	92
105	309
106	37
107	3
108	0
109	0
110	0
111	0
112	0
113	1
114	1
115	6
116	2
117	0
118	1
119	1
120	1
121	0
126	1
127	2
129	27
130	41
131	43
132	53
133	5
134	0
139	3
140	2
141	4
142	1
143	0
144	0
145	0
146	0
150	1
151	5
152	14
153	18
154	12
155	2
156	0
157	0
158	0
159	2
160	0
164	0
165	1
166	5
167	17
168	16
169	6
170	0
171	0
177	0
178	1
179	2
180	11
181	12
182	3
183	0
184	0
190	0
191	0
192	0
193	0
194	0
195	0
196	0
197	0
205	3
206	5
207	5
208	13
209	5
210	0
234	1
235	1
236	5
237	0
