Mass Spectrum: 3-Pyridinamine, N-methyl-2-nitro-
Formula: C6H7N3O2
CAS: 32605-06-4
Molecular weight: 153
m/z	intensity
50	280
51	530
52	540
53	430
54	100
55	50
63	100
64	360
65	380
66	350
67	170
68	110
75	100
76	140
77	70
78	999
79	270
80	380
81	80
91	80
92	450
93	60
95	70
105	200
106	60
107	480
108	100
123	40
136	2
152	2
153	100
154	6
155	0
