Mass Spectrum: Cycloheptane, 1,3-dichloro-, trans-
Formula: C7H12Cl2
CAS: 32616-84-5
Molecular weight: 166
m/z	intensity
43	5
54	145
55	60
66	20
67	120
68	170
69	10
78	5
79	305
80	15
81	220
88	45
89	10
90	10
91	5
93	15
94	305
95	999
96	70
102	120
104	40
130	25
132	8
