Mass Spectrum: Cycloheptane, 1,2-dichloro-, trans-
Formula: C7H12Cl2
CAS: 32616-83-4
Molecular weight: 166
m/z	intensity
38	25
39	390
40	55
41	360
42	120
49	40
50	20
51	90
52	20
53	185
54	245
55	325
62	70
63	40
64	15
65	70
66	75
67	305
68	275
69	40
75	80
76	15
77	85
78	15
79	345
80	35
81	190
88	65
89	35
90	20
91	50
93	40
94	455
95	999
96	75
102	40
104	30
130	30
132	10
