Mass Spectrum: Butanedioic acid, 2,3-bis[(4-methylbenzoyl)oxy]-, [R-(R*,R*)]-
Formula: C20H18O8
CAS: 32634-66-5
Molecular weight: 386
m/z	intensity
14	2
15	3
16	1
17	9
18	35
26	2
27	7
28	36
29	4
37	3
38	8
39	56
40	6
41	17
42	7
43	7
44	25
45	11
49	1
50	16
51	26
52	6
53	7
54	1
55	2
58	2
59	8
60	1
61	5
62	13
63	41
64	11
65	127
66	9
68	1
69	5
70	3
71	4
74	4
75	4
76	6
77	12
78	2
79	3
85	1
86	3
87	3
88	1
89	38
90	30
91	451
92	62
93	4
105	3
107	9
108	2
118	10
119	999
120	86
121	6
134	1
135	6
136	242
137	22
138	2
154	1
167	1
168	3
169	6
176	1
212	2
230	1
233	3
250	9
251	1
255	1
368	17
369	4
