Mass Spectrum: (2R,5S)-5-Methyl-2-(2-(methylthio)propan-2-yl)cyclohexanone, rel-
Formula: C11H20OS
CAS: 32637-94-8
Molecular weight: 200
m/z	intensity
27	29
29	33
39	109
40	29
41	377
42	48
43	127
45	38
47	53
48	10
49	54
51	18
52	12
53	101
54	20
55	247
56	33
57	52
58	14
59	54
61	39
65	29
66	9
67	183
68	39
69	742
70	57
71	66
73	13
74	10
75	30
77	40
78	9
79	44
81	273
82	106
83	166
84	16
85	16
87	27
88	11
89	999
90	51
91	55
93	90
94	33
95	131
96	8
97	74
99	8
101	22
102	8
107	45
108	14
109	586
110	62
111	56
112	25
119	13
123	31
125	25
126	11
135	56
137	26
152	46
153	206
154	28
161	15
200	238
201	32
202	9
