Mass Spectrum: Cytidine, 2'-deoxy-N-(trimethylsilyl)-3'-O-(trimethylsilyl)-, 5'-[bis(trimethylsilyl) phosphate]
Formula: C21H46N3O7PSi4
CAS: 32645-72-0
Molecular weight: 595
m/z	intensity
40	7
41	13
42	12
43	40
44	32
45	108
46	12
47	19
52	11
53	29
54	12
55	20
56	7
57	9
58	12
59	43
60	11
61	13
66	8
67	13
68	13
69	11
70	17
71	10
72	19
73	726
74	240
75	150
76	16
77	22
79	8
80	11
81	999
82	64
83	10
84	18
85	12
86	11
87	5
94	9
95	15
96	12
97	11
98	45
99	22
100	81
101	27
102	7
103	20
105	6
107	5
109	5
111	11
112	36
113	25
114	9
115	14
116	8
117	12
119	10
121	11
122	8
123	6
124	7
125	27
126	7
127	31
128	9
129	82
130	16
131	21
132	5
133	72
134	11
135	25
136	9
137	14
138	9
139	7
140	8
141	11
142	22
143	17
145	7
146	7
147	122
148	22
149	17
150	6
151	11
152	12
153	12
154	7
155	98
156	17
157	11
161	9
164	7
165	9
166	8
167	19
168	288
169	142
170	225
171	70
172	18
173	5
179	6
181	13
182	44
183	122
184	178
185	28
186	8
189	5
191	22
192	34
193	22
194	12
195	22
196	9
197	43
198	9
205	6
207	45
208	25
209	17
210	16
211	230
212	37
213	24
219	5
221	9
222	5
223	5
224	7
225	73
226	18
227	101
228	17
229	10
236	30
237	64
238	26
239	13
240	118
241	35
242	17
243	165
244	28
245	15
248	5
250	5
253	31
254	100
255	70
256	72
257	20
258	9
263	32
264	128
265	27
266	12
267	8
268	8
269	26
270	5
271	5
281	5
282	11
283	27
284	12
285	30
286	7
287	5
295	5
297	30
298	15
299	521
300	130
301	75
302	13
303	5
310	9
311	24
312	8
313	8
314	80
315	248
316	70
317	41
318	9
320	8
322	10
323	108
324	28
325	20
326	6
328	7
336	8
338	8
353	22
354	24
355	8
357	9
359	5
369	9
373	10
387	102
388	36
389	23
390	6
395	7
397	24
398	10
399	6
451	6
485	18
486	8
487	5
490	30
491	10
492	5
580	6
595	5
596	15
597	7
