Mass Spectrum: N-[3,5-Dinitropyridin-2-yl]proline
Formula: C10H10N4O6
CAS: 3264-09-3
Molecular weight: 282
m/z	intensity
41	170
42	128
44	999
45	617
46	11
47	9
48	1
49	11
50	15
51	23
52	17
53	21
54	14
55	70
56	50
57	156
58	17
59	31
60	207
61	69
62	27
63	21
64	21
65	32
66	19
67	29
68	26
69	28
70	47
71	25
72	21
73	88
74	46
75	25
76	24
77	30
78	25
79	22
80	7
81	7
82	8
83	20
84	17
85	20
86	20
87	63
88	17
89	17
90	12
91	41
92	13
93	23
94	15
95	6
96	4
97	6
98	5
99	7
100	9
101	13
102	3
103	13
104	30
105	28
106	8
107	41
108	7
109	4
110	2
111	19
112	7
113	3
114	1
115	4
116	7
117	13
118	10
119	12
120	4
121	7
122	4
123	9
124	9
125	3
126	1
127	2
128	2
129	6
130	5
131	8
132	7
133	9
134	3
135	11
136	2
137	1
138	2
139	4
140	1
141	1
142	2
143	8
144	33
145	37
146	9
147	7
148	3
149	30
150	9
151	4
152	8
153	4
154	3
155	2
156	1
157	4
158	5
159	2
160	4
161	2
162	3
163	12
164	14
165	17
166	5
167	7
168	1
169	1
170	2
171	1
172	1
173	3
174	2
175	7
176	5
177	6
178	5
179	6
180	2
181	27
182	3
183	0
184	1
185	1
186	0
187	0
188	1
189	3
190	78
191	50
192	10
193	17
194	4
195	2
196	0
197	0
199	0
200	0
201	0
202	1
203	7
204	9
205	3
206	4
207	5
208	2
209	1
210	1
211	0
213	0
215	0
216	0
217	0
218	0
219	3
220	5
221	19
222	5
223	1
224	0
225	0
227	0
230	0
231	0
232	0
233	0
234	2
235	1
237	220
238	31
239	4
240	1
256	0
265	1
266	0
281	1
282	7
283	1
