Mass Spectrum: 4-Pyridinecarbaldehyde 4-propyl-3-thiosemicarbazone
Formula: C10H14N4S
CAS: 32646-23-4
Molecular weight: 222
m/z	intensity
14	1
15	5
16	2
25	2
26	29
27	127
28	152
29	33
30	298
31	6
32	32
33	15
34	42
35	1
36	3
37	14
38	32
39	108
40	24
41	357
42	89
43	641
44	52
45	18
46	6
47	9
48	6
49	10
50	100
51	260
52	97
53	34
54	25
55	127
56	113
57	98
58	794
59	87
60	259
61	64
62	34
63	60
64	98
65	60
66	37
67	41
68	12
69	8
70	9
71	5
72	61
73	10
74	36
75	39
76	95
77	208
78	290
79	161
80	36
81	6
82	3
83	91
84	36
85	65
86	6
87	4
88	4
89	9
90	43
91	79
92	137
93	127
94	95
95	8
96	2
97	4
98	1
99	1
100	8
101	167
102	130
103	63
104	347
105	212
106	181
107	999
108	83
109	5
110	2
111	8
112	3
113	1
114	1
115	6
116	62
117	286
118	88
119	72
120	100
121	195
122	26
123	11
124	3
125	3
129	7
130	1
131	2
132	3
133	5
134	3
135	2
136	6
137	5
138	3
139	2
141	1
142	1
143	2
144	59
145	6
146	7
147	9
148	2
149	2
150	2
151	1
158	2
159	1
160	1
162	3
163	126
164	34
165	16
166	3
167	1
171	2
175	2
178	8
179	14
180	2
181	1
187	1
188	4
189	6
190	3
191	2
193	9
194	1
220	4
221	10
222	712
223	98
224	36
225	4
