Mass Spectrum: Propanehydrazide, 2-[5-(4-pyridyl)-1,3,4-oxadiazol-2-ylthio]-
Formula: C10H11N5O2S
CAS: 326488-96-4
Molecular weight: 265
m/z	intensity
33	8
34	10
35	24
36	4
37	10
38	28
39	45
40	56
41	34
42	81
43	308
44	109
45	161
46	13
47	27
48	7
50	227
51	809
52	188
53	57
54	24
55	124
56	149
57	175
58	114
59	288
60	361
61	109
62	28
63	13
64	20
65	12
66	16
67	9
68	6
69	56
70	13
71	14
72	11
73	32
74	159
75	89
76	41
77	54
78	954
79	248
80	29
81	4
82	3
83	5
84	7
86	457
87	208
88	31
89	2
90	2
91	32
92	13
93	8
94	9
95	4
96	1
97	2
98	2
99	5
101	58
102	6
103	20
104	44
105	134
106	999
107	106
108	9
109	2
110	3
111	2
112	2
113	2
114	1
115	4
116	11
117	4
118	7
119	45
120	28
121	29
122	78
123	37
124	3
125	1
126	0
127	0
128	4
129	1
130	4
131	27
132	3
133	4
134	2
135	5
136	2
137	36
138	4
139	1
140	0
142	0
143	3
144	45
145	7
146	47
147	14
148	24
149	6
150	3
151	1
152	1
153	2
154	0
155	0
159	24
160	9
161	2
162	16
163	6
164	9
165	2
166	0
167	0
171	2
172	0
174	186
175	22
176	5
177	52
178	15
179	77
180	432
181	45
182	23
183	1
187	6
188	0
189	8
190	0
192	2
193	0
194	0
202	0
204	2
205	0
206	4
207	13
208	2
209	0
221	1
222	2
232	0
234	72
235	9
236	5
237	0
248	0
250	2
264	0
265	432
266	55
267	23
268	2
