Mass Spectrum: Propanoic acid, 2-[[5-(4-pyridinyl)-1,3,4-oxadiazol-2-yl]thio]-, methyl ester
Formula: C11H11N3O3S
CAS: 326488-95-3
Molecular weight: 265
m/z	intensity
33	6
34	11
35	0
36	5
37	18
38	26
39	27
40	99
41	46
42	56
43	57
44	37
45	68
46	15
47	10
48	2
49	9
50	124
51	454
52	42
53	19
55	107
56	67
57	22
59	563
60	106
61	32
62	78
63	112
64	40
65	14
66	5
67	4
69	10
70	11
71	19
72	6
73	4
74	9
75	17
76	37
77	69
78	831
79	62
80	2
81	1
82	1
83	2
84	3
85	2
86	5
87	60
88	5
89	2
90	4
91	19
92	7
93	5
94	1
95	2
96	0
97	0
101	0
102	23
103	24
104	55
106	999
107	66
108	5
109	1
110	1
112	2
113	0
116	1
117	3
118	6
119	122
120	11
121	3
122	77
123	7
124	3
128	1
131	2
132	1
133	1
134	1
135	3
136	0
137	7
138	5
146	321
147	32
148	13
149	2
150	9
151	2
152	0
161	3
162	1
163	4
164	0
165	4
171	2
174	99
175	11
178	13
179	231
180	25
181	11
182	0
187	0
188	7
189	0
193	1
205	11
206	198
207	26
208	9
209	0
232	5
233	0
234	1
265	156
266	21
267	9
268	0
