Mass Spectrum: Methyl 6-methyl-3-pyridyl ketone 4-cyclohexylthiosemicarbazone
Formula: C15H22N4S
CAS: 32646-30-3
Molecular weight: 290
m/z	intensity
12	1
13	1
14	3
15	9
16	14
17	11
25	2
26	26
27	192
28	144
29	82
30	144
31	33
32	427
33	31
34	96
35	2
36	6
37	7
38	19
39	194
40	45
41	442
42	127
43	161
44	56
45	22
46	7
47	6
48	8
49	4
50	30
51	53
52	36
53	89
54	296
55	656
56	457
57	49
58	21
59	58
60	93
61	10
62	26
63	19
64	29
65	136
66	55
67	432
68	50
69	60
70	58
71	12
72	11
73	7
74	15
75	50
76	19
77	80
78	30
79	100
80	29
81	297
82	237
83	374
84	29
85	7
86	15
87	24
88	6
89	6
90	10
91	57
92	165
93	105
94	20
95	17
96	52
97	43
98	999
99	128
100	14
101	11
102	67
103	16
104	31
105	9
106	13
107	13
108	9
109	7
110	11
111	4
112	3
113	9
114	23
115	8
116	16
117	21
118	79
119	117
120	23
121	8
122	5
123	108
124	23
125	8
126	3
127	93
128	44
129	9
130	9
131	8
132	23
133	81
134	131
135	411
136	58
137	5
138	1
139	4
140	8
141	86
142	21
143	19
144	7
145	2
146	3
147	6
148	33
149	19
150	5
151	7
152	7
153	2
154	2
155	27
156	110
157	148
158	25
159	11
160	4
161	2
162	1
163	1
164	1
165	4
166	3
167	2
168	1
171	1
172	6
173	350
174	51
175	22
176	4
177	2
178	1
181	1
183	10
184	19
185	365
186	48
187	19
188	2
191	80
192	14
193	41
194	5
195	2
197	1
198	2
199	7
200	1
213	1
225	1
227	5
228	1
239	2
240	2
241	2
248	4
249	1
251	1
255	6
256	4
257	5
258	1
261	1
275	3
276	1
289	1
290	105
291	23
292	7
293	1
