Mass Spectrum: 4,4-Dichloro-12-phenyl-10,11,12-triazapentacyclo[6.5.1.0(2,7).0(3,5).0(9,13)]tetradec-10-ene
Formula: C17H17Cl2N3
CAS: 3265-86-9
Molecular weight: 333
m/z	intensity
35	9
36	54
37	6
38	36
39	162
40	30
41	83
42	9
43	24
44	5
47	2
49	9
50	48
51	306
52	51
53	63
54	30
55	28
56	9
57	31
58	2
61	6
62	11
63	56
64	34
65	122
66	70
67	36
68	8
69	18
70	8
71	19
73	23
74	9
75	40
77	999
78	144
79	70
80	44
81	14
82	9
83	25
84	9
85	23
86	4
87	14
88	4
89	37
90	19
91	201
92	45
93	172
94	43
95	13
96	8
97	16
99	28
100	5
101	21
102	25
103	58
104	346
105	45
106	211
107	20
109	34
111	41
112	19
113	53
114	15
115	145
116	71
117	103
118	135
119	218
120	30
121	5
122	2
123	7
124	3
125	43
126	9
127	48
128	78
129	69
130	129
131	38
132	74
133	9
135	8
136	2
137	8
138	5
139	18
140	12
141	149
142	106
143	333
144	89
145	23
146	6
147	7
148	4
149	18
150	6
151	58
152	12
153	22
154	28
156	919
157	195
158	93
159	17
160	1
161	4
162	9
163	8
164	9
165	9
166	7
167	20
168	23
169	11
170	16
171	3
174	4
175	9
176	16
177	73
178	20
179	26
180	18
181	9
182	139
183	51
184	6
187	3
188	1
189	3
190	24
191	9
192	28
193	14
194	30
195	11
196	39
197	8
200	2
201	1
202	4
203	4
204	15
205	5
206	11
207	5
208	4
209	1
210	4
211	2
213	8
214	3
215	6
216	6
217	6
218	8
219	5
220	4
222	13
223	2
226	7
227	2
228	9
229	3
230	5
231	2
232	11
233	6
234	32
235	8
236	2
239	3
240	4
241	2
242	5
254	2
268	10
269	7
270	129
271	24
272	40
273	8
304	6
305	14
306	8
307	9
308	4
309	1
