Mass Spectrum: Cytidine, N-(trimethylsilyl)-2',3'-bis-O-(trimethylsilyl)-, 5'-[bis(trimethylsilyl) phosphate]
Formula: C24H54N3O8PSi5
CAS: 32653-16-0
Molecular weight: 683
m/z	intensity
53	10
55	13
56	11
58	16
59	37
61	11
63	12
67	11
68	13
69	13
72	27
73	999
74	117
75	147
76	13
77	73
79	13
81	29
85	10
86	15
93	32
95	24
97	10
98	21
99	19
100	46
101	22
102	11
103	12
112	17
113	21
115	16
116	14
117	13
122	12
123	13
125	17
127	12
129	71
130	14
131	19
133	55
135	15
140	20
141	19
142	21
143	23
147	194
148	30
149	24
151	10
152	12
153	14
166	10
167	30
168	93
169	255
170	49
171	33
181	10
182	24
183	21
184	80
185	17
193	11
195	48
196	13
207	21
208	11
211	76
212	17
215	35
217	30
223	10
225	24
227	26
230	50
231	14
234	10
240	51
241	22
242	15
243	87
244	17
245	11
253	12
254	36
255	33
256	56
257	20
258	101
259	28
260	12
279	58
280	27
281	10
283	13
284	15
285	31
296	10
298	16
299	183
300	44
301	36
308	10
313	35
314	32
315	235
316	33
336	13
338	10
351	227
352	79
353	29
368	7
369	10
370	17
371	9
372	4
373	14
374	5
375	3
382	13
383	10
384	4
385	13
386	6
387	49
388	19
389	14
390	4
392	5
393	3
394	4
395	3
408	6
409	3
410	11
411	5
412	4
413	4
425	3
426	3
437	3
441	3
442	4
455	3
482	14
483	5
484	4
485	11
486	5
501	4
502	3
505	4
578	22
579	10
580	7
593	7
596	8
597	5
668	33
669	17
670	10
671	4
684	7
685	3
686	2
