Mass Spectrum: 2-Propanol, 1-[4-(1,1-dimethylethyl)phenoxy]-3-[(1-methylpropyl)amino]-
Formula: C17H29NO2
CAS: 326618-54-6
Molecular weight: 279
m/z	intensity
55	66
56	203
57	276
58	127
60	58
61	34
62	36
64	36
65	71
66	50
67	40
68	38
69	30
70	89
71	29
75	31
76	48
77	225
78	117
79	117
80	39
82	100
84	50
85	14
86	999
87	70
89	94
90	67
91	565
92	48
94	27
95	83
98	22
99	24
100	111
102	39
103	100
104	47
105	217
106	152
107	605
108	50
109	28
110	40
112	23
113	6
114	34
115	153
116	122
117	142
118	111
119	153
120	48
121	34
124	21
127	19
128	39
129	23
130	67
132	26
133	152
134	84
135	416
136	74
137	18
147	33
149	62
150	36
157	20
159	11
161	21
163	17
171	17
176	24
177	102
178	15
189	40
191	179
193	19
194	29
203	22
204	26
206	28
208	18
209	36
212	18
221	11
222	18
227	18
229	29
230	15
232	21
234	34
235	182
236	32
237	22
247	15
248	10
250	580
251	99
262	6
264	54
265	17
276	11
277	11
278	18
279	18
280	8
281	13
