Mass Spectrum: Butanoic acid, 3-methyl-, 1-methylethyl ester
Formula: C8H16O2
CAS: 32665-23-9
Molecular weight: 144
m/z	intensity
26	20
27	209
28	42
29	126
31	19
37	12
38	19
39	190
40	46
41	541
42	188
43	999
44	35
45	57
55	32
56	63
57	603
58	24
59	221
60	711
61	84
69	19
85	709
86	35
87	145
102	230
103	238
104	10
129	20
