Mass Spectrum: 8-Azabicyclo[3.2.1]octan-3-ol, 8-methyl-, 8-oxide, (endo,syn)-
Formula: C8H15NO2
CAS: 32663-71-1
Molecular weight: 157
m/z	intensity
27	241
28	640
29	275
30	133
39	270
41	386
42	684
43	275
44	142
53	103
54	142
55	288
56	236
57	337
58	73
77	69
80	103
81	162
82	999
83	603
84	251
94	83
95	142
96	625
97	251
98	71
99	113
102	73
110	123
112	113
113	197
124	241
127	71
141	197
157	137
