Mass Spectrum: meso-5,6-Decanediol
Formula: C10H22O2
CAS: 3266-25-9
Molecular weight: 174
m/z	intensity
27	150
29	150
41	510
42	70
43	370
55	350
56	80
57	250
68	110
69	999
84	60
85	170
86	250
87	350
