Mass Spectrum: N-(2-Methylbenzyl)benzimidazole
Formula: C15H14N2
CAS: 326607-90-3
Molecular weight: 222
m/z	intensity
50	33
51	69
52	27
53	23
63	51
64	33
65	41
66	5
77	186
78	52
79	114
89	19
90	30
91	74
92	9
102	18
103	92
104	91
105	999
106	118
107	21
108	4
110	51
111	10
118	80
119	14
120	4
169	6
219	15
220	14
221	28
222	325
223	54
224	4
