Mass Spectrum: Methional
Formula: C4H8OS
CAS: 3268-49-3
Molecular weight: 104
m/z	intensity
26	105
27	277
28	116
29	173
30	7
31	9
32	5
33	7
34	4
35	69
36	3
37	13
38	14
39	42
40	4
41	110
42	14
43	1
44	20
45	284
46	111
47	428
48	999
49	104
50	49
51	4
53	13
54	4
55	111
56	129
57	89
58	56
59	84
60	33
61	282
62	10
63	11
68	5
69	5
71	3
73	10
74	5
75	49
76	334
77	17
78	13
83	9
85	3
87	8
89	13
102	4
103	3
104	509
105	27
106	23
