Mass Spectrum: Benzimidazole, 1-benzyl-2-(5-nitro-2-furfurylidenamino)-
Formula: C19H14N4O3
CAS: 326900-46-3
Molecular weight: 346
m/z	intensity
33	0
34	0
36	0
37	3
38	18
39	59
40	13
41	20
42	2
43	5
44	6
45	0
46	1
50	32
51	93
52	17
53	6
54	5
55	6
56	2
57	5
58	0
59	1
60	0
62	8
63	26
64	23
65	121
66	8
67	2
68	2
69	2
70	2
71	2
72	0
73	0
74	2
75	10
76	27
77	40
78	12
79	35
80	4
81	0
82	2
83	1
84	1
85	0
86	0
87	1
88	3
89	27
91	999
92	71
93	4
94	0
95	0
96	2
97	0
98	0
99	0
100	0
101	4
102	18
103	22
104	8
105	2
106	0
107	0
108	0
109	0
110	0
111	0
112	1
113	1
114	1
115	4
116	8
117	4
118	4
119	1
120	0
121	0
122	0
124	0
125	0
126	1
127	8
128	12
129	10
130	2
131	1
132	1
133	1
134	0
135	2
136	1
138	0
139	2
140	2
141	2
142	2
143	4
144	4
145	0
146	0
150	1
151	2
152	4
153	6
154	10
155	4
156	1
157	1
158	0
164	0
165	0
166	1
167	1
168	2
169	2
170	1
171	2
172	0
173	0
175	0
176	0
177	1
178	2
179	4
180	12
181	13
182	2
183	0
184	0
185	0
186	0
189	0
190	0
191	0
192	0
193	1
194	4
195	1
196	0
197	0
203	0
205	7
206	4
207	3
208	1
209	17
210	2
211	0
215	0
216	0
217	0
218	0
219	1
220	3
221	0
222	1
223	1
224	0
230	0
231	0
232	0
233	1
234	2
235	0
242	0
243	0
244	0
255	1
256	0
257	0
258	0
260	0
268	0
269	0
270	2
271	1
272	1
283	0
285	0
286	0
295	0
296	0
297	2
298	2
300	158
301	31
302	3
313	0
314	0
315	0
316	0
342	0
343	0
344	0
346	48
347	9
348	1
