Mass Spectrum: Butanoic acid, 2-(2-chlorophenylhydrazono)-3-oxo-, methyl ester
Formula: C11H11ClN2O3
CAS: 326909-92-6
Molecular weight: 254
m/z	intensity
33	0
35	1
36	2
37	12
38	33
39	66
40	20
41	27
42	71
43	999
44	26
45	13
46	0
47	1
49	7
50	45
51	29
52	33
53	9
54	25
55	25
56	2
57	0
59	67
60	2
61	12
62	34
63	126
64	65
65	34
66	5
67	6
68	3
69	23
70	12
71	3
72	12
73	70
74	33
75	122
76	22
77	17
78	2
79	1
83	62
84	11
85	18
86	9
87	9
88	9
89	22
90	96
91	61
92	15
93	1
97	3
98	7
99	264
101	109
102	5
103	1
104	1
105	4
106	1
111	98
112	11
113	31
115	13
116	3
117	8
118	6
119	0
123	0
124	3
125	103
126	164
127	128
128	68
129	32
130	1
132	0
134	2
139	26
140	15
141	7
142	4
143	52
144	3
145	6
146	0
152	267
153	26
154	86
155	8
159	8
160	1
166	0
169	0
171	1
179	3
187	1
188	0
194	109
195	12
196	36
197	3
211	3
213	0
220	2
221	2
222	16
223	16
224	6
225	3
239	0
240	0
254	258
255	34
256	91
257	10
