Mass Spectrum: 1H-Imidazole-4-carboxamide, 5-hydrazinocarbonyl-N-(2-pyridyl)-
Formula: C10H10N6O2
CAS: 326903-28-0
Molecular weight: 246
m/z	intensity
36	23
37	6
38	30
39	101
40	116
41	78
42	19
43	41
44	24
45	4
49	1
50	9
51	92
52	48
53	25
54	13
55	20
56	5
57	13
63	2
64	7
65	31
66	36
67	278
68	200
69	25
70	4
71	4
77	6
78	411
79	42
80	12
81	14
82	5
83	2
91	3
92	7
93	19
94	381
95	999
96	215
97	11
98	5
104	3
105	15
106	4
107	6
108	16
109	2
110	1
119	2
120	31
121	234
122	29
123	10
132	2
133	8
134	2
135	21
136	8
144	5
145	1
152	86
153	67
154	4
159	3
160	21
161	2
169	3
170	1
171	8
172	3
184	37
185	4
186	6
187	73
188	20
189	1
197	70
198	5
215	375
216	45
217	2
218	1
245	1
246	595
247	79
248	4
