Mass Spectrum: D-Norleucine
Formula: C6H13NO2
CAS: 327-56-0
Molecular weight: 131
m/z	intensity
12	1
14	4
15	39
16	3
17	4
18	14
19	1
25	1
26	17
27	175
28	305
29	135
30	999
31	33
32	6
37	3
38	8
39	82
40	12
41	233
42	90
43	170
44	203
45	19
46	55
47	2
50	5
51	6
52	6
53	10
54	18
55	24
56	70
57	45
58	5
59	2
60	9
61	2
63	1
65	3
66	2
67	11
68	7
69	85
70	16
71	9
72	2
73	12
74	208
75	25
76	2
77	1
79	1
80	2
81	5
82	4
83	4
84	11
85	4
86	908
87	52
88	2
89	5
91	1
95	3
96	2
97	3
98	3
99	2
102	1
109	1
111	2
113	1
115	1
131	3
