Mass Spectrum: Trichloronat
Formula: C10H12Cl3O2PS
CAS: 327-98-0
Molecular weight: 332
m/z	intensity
13	11
17	28
18	76
26	26
27	52
28	37
29	217
30	12
32	10
36	36
38	13
39	10
43	30
44	20
45	15
47	42
49	26
51	11
53	11
55	12
56	61
61	25
62	28
63	156
64	12
65	35
69	92
75	17
76	15
77	26
80	23
81	188
83	21
85	14
91	15
92	36
93	229
94	18
97	64
98	11
99	30
100	10
107	29
109	999
110	39
111	52
119	21
121	56
127	14
131	31
132	22
133	29
134	15
135	15
137	231
138	11
143	15
145	13
160	25
161	26
162	16
163	16
164	11
167	44
169	47
171	15
179	10
181	17
182	12
195	25
196	102
197	21
198	95
199	18
200	38
207	23
209	13
217	12
219	12
223	20
225	15
231	11
236	21
240	14
242	10
243	25
244	12
245	23
247	12
259	10
262	13
263	10
265	19
267	10
269	394
270	49
271	271
272	33
273	69
274	11
275	20
277	10
287	21
289	17
290	12
293	22
297	538
298	72
299	377
300	46
301	90
302	13
303	10
