Mass Spectrum: Trifluoroacetic acid, 4-methylpentyl ester
Formula: C8H13F3O2
CAS: 327-71-9
Molecular weight: 198
m/z	intensity
15	7
26	7
27	105
28	21
29	87
31	5
33	3
37	2
39	139
40	31
41	651
42	338
43	897
44	32
45	4
47	5
50	19
51	11
52	4
53	34
54	9
55	136
56	671
57	84
58	3
59	4
60	1
61	2
62	1
63	2
65	7
66	3
67	46
69	999
70	42
71	3
77	2
78	12
79	2
80	3
81	2
82	13
83	43
84	58
85	123
86	8
87	43
88	2
95	2
97	39
99	39
101	1
112	1
113	5
115	3
125	2
127	5
129	10
139	6
141	4
143	1
153	1
155	125
156	9
157	3
183	2
