Mass Spectrum: Propenamide, 2-cyano-3-(2-furyl)-N-(2-pyridyl)-
Formula: C13H9N3O2
CAS: 327062-71-5
Molecular weight: 239
m/z	intensity
33	17
34	2
37	120
38	289
39	801
40	165
41	46
42	31
43	13
44	53
45	2
50	99
51	308
52	133
53	41
54	9
55	11
56	2
57	1
58	3
59	3
61	52
63	999
64	313
65	76
66	116
67	156
68	13
69	3
71	2
73	35
74	7
75	18
76	30
78	543
79	119
80	10
81	8
82	0
84	3
86	7
87	18
88	64
90	738
91	111
94	326
95	15
96	1
98	0
99	2
100	3
101	3
102	3
103	3
104	14
105	31
106	8
107	1
108	0
111	3
113	1
114	1
115	2
118	202
119	53
121	264
122	14
126	1
127	2
128	4
129	4
130	15
131	21
132	33
133	5
134	7
140	1
142	7
143	17
144	53
146	954
147	70
148	6
153	0
155	35
156	28
157	29
159	90
160	14
161	1
162	0
166	1
167	3
168	5
169	8
170	8
171	5
172	11
173	32
174	3
180	17
181	33
182	165
183	80
184	55
185	72
186	7
190	0
194	248
195	37
196	13
197	4
198	4
199	1
208	3
210	658
211	466
212	68
213	32
214	3
221	0
222	1
223	2
235	2
238	875
239	802
240	116
241	11
242	1
