Mass Spectrum: 2-(3-Bromostyryl)-3-phenyl-4(3H)-quinazolinone
Formula: C22H15BrN2O
CAS: 327099-73-0
Molecular weight: 402
m/z	intensity
33	2
34	6
36	4
37	24
39	213
40	30
41	36
42	13
43	38
44	38
45	3
47	1
50	271
51	367
52	44
53	7
55	23
56	9
57	21
58	9
59	1
60	2
63	188
64	93
65	63
66	8
67	3
68	3
69	10
70	9
71	9
74	84
75	165
77	999
78	44
79	8
80	9
81	11
82	9
83	11
84	6
85	4
86	6
88	60
89	45
90	108
91	54
92	50
93	57
95	9
96	7
97	7
98	8
99	14
101	178
102	184
103	36
105	12
106	7
107	2
108	3
109	6
110	8
111	4
112	9
113	12
114	15
115	16
116	22
117	9
119	91
120	27
121	4
123	20
124	4
125	6
126	15
128	140
129	18
130	9
131	3
132	8
133	9
134	4
137	3
139	28
140	17
141	4
143	6
144	11
145	14
146	56
147	44
149	19
150	10
151	23
152	20
153	10
154	9
155	7
156	3
157	6
158	3
161	313
164	17
165	23
166	25
167	16
168	4
169	3
171	8
174	3
176	52
177	30
178	28
179	13
180	19
182	24
183	6
188	2
189	7
190	19
191	19
192	18
193	18
194	14
195	7
196	1
199	3
201	25
202	46
203	98
204	102
205	27
206	7
207	5
208	6
209	4
214	1
215	4
216	9
217	13
218	22
219	40
221	56
222	6
227	2
228	4
229	21
230	15
231	43
233	59
234	9
235	1
240	1
241	2
242	3
244	9
245	24
247	272
248	31
249	4
256	7
258	6
259	1
265	1
266	2
267	2
268	1
271	3
273	3
278	1
279	2
280	2
282	8
283	11
284	10
285	5
286	3
290	2
292	20
293	33
294	11
295	5
296	2
297	1
298	1
305	2
306	2
307	4
310	118
311	26
312	81
313	14
314	1
318	1
319	6
320	7
321	73
322	31
323	51
324	16
325	8
326	3
327	6
372	1
373	7
374	2
375	5
401	421
402	287
403	385
404	255
405	56
406	5
