Mass Spectrum: 1-Methyl-3-ethoxycarbonyl-imidazo(1,5-a)pyrimidine
Formula: C10H11N3O2
CAS: 32704-66-8
Molecular weight: 205
m/z	intensity
42	427
43	500
52	282
53	277
79	386
105	99
106	999
107	429
123	210
132	459
133	460
160	557
161	109
177	109
205	350
206	69
