Mass Spectrum: 4H-Pyrane-3-carboxylic acid, 6-amino-5-cyano-2-methyl-4-(2-thienyl)-, benzyl ester
Formula: C19H16N2O3S
CAS: 327068-32-6
Molecular weight: 352
m/z	intensity
33	2
34	5
36	0
37	2
38	11
39	78
40	101
41	18
42	6
43	147
44	60
45	37
46	2
47	2
48	1
49	1
50	12
51	35
52	15
53	8
54	2
55	6
56	1
57	11
58	17
59	4
60	2
61	2
62	8
63	36
64	20
65	140
66	22
67	54
68	5
69	19
70	6
71	6
72	1
73	1
74	3
75	7
76	8
77	37
78	11
79	21
80	3
81	4
82	7
83	5
84	12
85	10
86	2
87	3
88	5
89	28
90	33
91	999
92	78
93	5
94	3
95	4
96	4
97	9
98	1
99	2
100	2
101	3
102	7
103	5
104	2
105	12
106	6
107	15
108	16
109	17
110	6
111	17
112	4
113	2
114	2
115	4
116	3
117	2
118	2
119	3
120	3
121	10
122	4
123	2
124	1
125	0
126	0
127	2
128	4
129	3
130	3
131	1
132	2
133	13
134	44
135	14
136	2
137	10
138	1
139	1
140	3
141	2
142	1
143	1
144	1
145	9
146	11
147	14
148	7
149	9
150	3
151	1
152	4
153	2
154	0
155	2
156	1
157	1
158	1
159	8
160	14
161	18
162	9
163	2
164	1
165	1
166	0
169	0
170	2
171	4
172	19
173	10
174	13
175	8
176	2
177	5
178	2
179	4
180	3
181	0
182	0
183	0
184	1
185	1
186	1
187	8
188	9
189	3
190	1
191	2
192	1
193	0
195	1
197	2
198	2
199	2
200	18
201	19
202	5
203	1
204	0
205	0
206	0
207	0
208	1
209	0
211	0
213	0
214	0
215	8
216	19
217	44
218	9
219	5
220	0
223	0
225	4
226	6
227	1
228	0
229	1
230	0
231	0
232	0
233	1
234	5
235	2
236	0
241	0
242	0
243	14
244	13
245	5
246	1
247	0
251	0
258	0
259	0
261	455
262	63
263	26
264	3
265	0
269	9
270	1
283	0
286	1
287	0
290	0
291	0
293	0
294	0
308	0
309	0
310	0
335	0
350	0
351	1
352	37
353	8
354	3
355	0
