Mass Spectrum: Pyrimido[5,4-e]-1,2,4-triazin-7-amine, 3-methyl-5-(trifluoromethyl)-
Formula: C7H5F3N6
CAS: 32709-28-7
Molecular weight: 230
m/z	intensity
40	42
41	57
42	999
43	51
52	27
53	80
64	38
65	38
66	148
68	51
69	112
70	31
71	42
91	170
92	229
100	110
101	34
120	229
141	38
161	536
162	38
202	716
203	68
230	27
