Mass Spectrum: Imidazo[4,5-c][1,2,5]-thiadiazol-5-one, perhydro-4,6-dimethyl-, 2,2-dioxide
Formula: C5H10N4O3S
CAS: 327040-82-4
Molecular weight: 206
m/z	intensity
33	2
34	3
35	0
36	3
37	0
38	4
40	109
42	999
43	211
44	60
45	18
46	29
48	89
49	6
50	7
51	4
53	28
56	316
57	148
58	249
59	22
60	14
61	3
62	5
64	90
65	22
67	44
68	213
69	435
70	82
71	58
72	38
73	11
74	2
75	2
76	3
77	5
80	164
81	8
83	203
84	26
85	26
86	13
87	14
88	5
89	1
90	5
91	8
92	3
93	1
94	2
96	40
97	75
98	69
99	63
100	5
101	2
102	1
103	2
104	1
105	6
106	3
107	1
108	4
109	2
110	2
112	133
113	12
114	4
115	10
116	2
117	1
119	17
120	12
121	11
122	3
123	4
124	11
125	113
126	775
127	159
128	12
129	5
130	0
131	1
132	0
133	12
134	1
135	2
136	4
137	1
138	2
139	2
140	14
141	46
142	15
143	3
144	1
145	0
146	1
147	11
148	13
149	19
150	4
151	3
152	2
153	2
154	3
155	0
156	0
157	3
158	0
159	0
160	0
161	0
162	0
163	0
164	1
165	1
166	1
167	2
168	0
169	0
170	2
171	2
172	1
173	0
174	4
175	0
176	4
177	4
178	2
179	1
180	1
181	1
182	0
183	0
184	0
185	2
186	0
187	1
188	4
189	2
190	22
191	1
192	2
193	1
194	1
195	0
196	13
197	3
198	1
199	0
200	0
202	0
203	0
204	1
205	1
206	207
207	16
208	11
209	0
210	0
