Mass Spectrum: (1-Bromo-naphthalen-2-yloxy)-acetic acid dicyclopropylmethylene-hydrazide
Formula: C19H19BrN2O2
CAS: 327066-70-6
Molecular weight: 386
m/z	intensity
33	7
34	8
35	0
36	2
37	9
38	33
39	267
40	132
41	999
42	148
43	94
44	53
45	150
46	20
47	1
48	0
49	3
50	39
51	63
52	37
53	84
54	47
55	111
56	59
57	49
58	24
59	8
60	4
61	10
62	37
63	84
64	38
65	91
66	77
67	78
68	118
69	55
70	20
71	44
72	7
73	13
74	39
75	42
76	40
77	116
78	27
79	106
80	54
81	52
82	33
83	21
84	8
85	12
86	21
87	35
88	41
89	15
90	4
91	39
92	14
93	34
94	39
95	36
96	12
97	8
98	18
99	22
100	16
101	15
102	12
103	5
104	4
105	5
106	25
107	26
108	132
109	31
110	21
111	9
112	9
113	71
114	170
115	94
116	16
117	6
118	4
120	9
121	17
122	22
123	82
124	26
125	48
126	415
127	153
128	103
129	25
130	9
131	5
132	1
133	2
134	1
135	7
136	6
137	26
138	3
139	4
140	4
141	8
142	11
143	15
144	46
145	7
146	1
147	1
148	2
149	13
150	3
151	16
152	3
154	13
155	81
156	149
157	33
158	16
159	30
160	13
161	1
162	0
165	226
166	23
167	3
168	1
169	3
170	12
171	16
172	5
173	1
175	0
178	0
179	0
180	0
181	3
182	4
183	11
184	27
185	8
186	1
187	0
189	0
190	1
191	2
193	64
195	65
196	6
197	3
198	30
199	25
200	14
201	3
203	3
205	59
207	63
208	7
209	2
210	0
212	2
213	4
215	219
216	28
217	2
218	0
219	1
220	3
222	123
223	21
224	104
225	11
227	8
228	1
229	0
233	3
234	4
235	7
236	5
237	4
238	1
240	6
241	2
248	0
249	0
250	0
255	3
256	0
262	0
263	0
264	1
265	4
266	1
267	0
269	1
277	0
278	0
279	0
280	0
281	2
282	0
283	3
284	0
290	0
294	12
295	3
296	10
297	12
298	2
300	0
302	1
303	17
307	636
308	129
309	17
310	1
321	0
339	2
340	0
345	1
385	3
386	7
387	3
388	6
389	1
