Mass Spectrum: Ethyl 2-acetamido-2-(3-chloroanilino)-3,3,3-trifluoropropionate
Formula: C13H14ClF3N2O3
CAS: 327098-24-8
Molecular weight: 338
m/z	intensity
35	2
36	9
37	3
38	12
39	22
40	11
41	16
43	999
44	42
45	8
46	3
47	2
48	1
49	3
50	24
51	20
52	11
53	2
54	2
55	6
56	4
57	9
58	3
59	10
60	19
61	6
62	9
63	31
64	21
65	47
66	9
67	2
69	29
70	4
71	4
73	15
74	13
75	92
76	34
77	17
78	9
79	3
81	1
82	2
83	3
84	4
85	9
86	2
87	3
88	2
89	5
90	16
91	20
92	39
93	44
94	3
96	30
97	4
98	5
99	26
100	14
101	9
102	10
103	3
104	1
105	2
108	1
109	3
111	207
112	20
113	64
114	8
115	1
116	2
117	5
118	20
119	5
120	1
121	1
123	2
124	2
125	11
126	22
127	238
128	66
129	75
130	19
131	2
132	1
133	1
134	2
136	3
137	8
138	62
139	8
140	23
141	4
142	25
143	2
145	1
147	1
149	1
152	9
153	33
154	6
155	11
156	3
157	1
161	1
163	2
164	1
166	16
167	8
168	8
169	3
170	18
171	6
172	1
176	1
178	1
179	2
180	1
181	3
182	2
183	2
184	2
185	2
186	3
187	8
188	13
189	3
194	1
195	1
196	1
197	3
199	15
200	6
201	11
202	2
203	4
204	3
206	125
207	14
208	37
209	5
210	3
211	1
212	1
213	2
216	2
218	1
219	1
220	3
221	69
223	818
224	86
225	251
226	24
227	33
229	14
230	3
231	1
234	1
235	1
237	2
239	1
247	1
248	1
249	4
250	2
251	2
252	2
253	1
257	3
259	1
260	1
262	2
263	3
265	247
266	31
267	83
268	9
269	8
270	1
271	3
277	2
279	41
280	8
281	14
282	3
283	1
335	1
336	1
338	87
339	11
340	26
341	3
