Mass Spectrum: Furo[2,3-H]coumarine, 1-acetoxy-4-acetylamino-6-methyl-
Formula: C16H13NO6
CAS: 327043-33-4
Molecular weight: 315
m/z	intensity
33	14
38	10
39	70
40	52
41	32
43	999
44	23
45	6
49	1
50	10
51	31
52	32
53	36
54	7
55	9
56	1
57	4
59	1
61	3
63	33
64	26
65	85
66	16
67	11
68	10
69	4
71	4
73	1
74	9
75	20
76	17
77	32
78	22
79	17
80	6
81	1
83	2
85	1
86	2
88	6
89	69
90	51
91	90
92	15
93	21
94	3
98	5
100	5
101	13
102	73
103	44
104	41
105	12
106	8
107	1
109	6
110	2
111	6
112	1
114	4
115	15
116	53
117	121
118	156
119	41
120	10
121	6
127	2
128	16
129	14
130	25
131	12
132	10
133	3
134	0
135	0
136	85
143	2
144	20
145	31
146	75
147	38
148	12
149	2
157	1
158	13
159	5
160	18
161	2
170	1
171	3
172	11
173	18
174	46
175	52
176	3
186	4
187	13
188	33
189	15
199	2
200	8
201	31
202	152
203	224
204	29
205	5
214	8
215	26
216	69
217	213
218	23
219	2
228	8
229	10
230	38
231	732
232	99
233	8
243	0
244	52
245	8
257	5
258	4
269	2
272	60
273	749
274	83
275	15
315	123
316	22
317	0
