Mass Spectrum: Pyrimido[5,4-e]-1,2,4-triazin-7-amine, N-methyl-5-(trifluoromethyl)-
Formula: C7H5F3N6
CAS: 32709-24-3
Molecular weight: 230
m/z	intensity
52	31
53	51
55	229
56	999
57	59
69	112
78	42
80	59
91	34
100	53
106	53
133	55
155	80
175	180
202	272
203	34
230	234
231	34
