Mass Spectrum: N,N'-Bis(2-carboxyethyl)-N,N'-ethylenediglycine
Formula: C12H20N2O8
CAS: 32701-19-2
Molecular weight: 320
m/z	intensity
12	9
13	12
14	33
15	139
16	9
17	30
18	117
24	9
25	36
26	251
27	628
28	406
29	185
30	245
31	36
32	1
36	4
37	7
38	9
39	24
40	33
41	133
42	834
43	771
44	381
45	219
46	15
47	2
49	7
50	2
51	7
52	15
53	28
54	88
55	625
56	999
57	291
58	95
59	9
60	113
61	4
62	4
63	12
64	16
65	8
66	8
67	9
68	25
69	33
70	104
71	68
72	524
73	54
74	23
75	11
76	4
77	7
78	4
79	5
80	6
81	20
82	28
83	67
84	60
85	457
86	59
87	9
88	510
89	33
90	9
91	5
92	48
93	6
94	4
95	11
96	19
97	31
98	25
99	162
100	23
101	171
102	57
103	15
104	5
105	2
106	3
107	4
108	4
109	9
110	14
111	26
112	39
113	84
114	69
115	82
116	16
117	27
118	4
119	4
120	5
121	7
122	6
123	7
124	6
125	16
126	8
127	66
128	30
129	118
130	19
131	7
132	5
133	5
134	4
135	4
136	6
137	9
138	9
139	13
140	15
141	15
142	13
143	160
144	15
145	4
146	2
147	3
148	3
149	5
150	8
151	4
152	7
153	6
154	4
155	15
156	12
157	99
158	623
159	47
160	12
161	9
162	2
163	4
164	6
165	9
166	8
167	4
168	6
169	14
170	8
171	387
172	46
173	8
174	2
175	1
177	6
178	28
179	4
180	2
181	1
182	6
183	5
184	41
185	10
186	37
187	5
190	1
191	2
192	2
193	1
194	2
195	2
196	3
197	4
198	3
199	5
200	1
201	140
202	17
203	3
209	2
210	5
211	3
212	61
213	10
214	3
215	2
226	1
228	9
229	5
230	179
231	22
232	5
243	2
256	4
257	2
272	7
273	1
274	71
275	11
276	2
284	1
302	2
