Mass Spectrum: Pyrimido[5,4-e]-1,2,4-triazine, 7-(1-pyrrolidinyl)-5-(trifluoromethyl)-
Formula: C10H9F3N6
CAS: 32709-25-4
Molecular weight: 270
m/z	intensity
40	59
41	238
42	629
43	127
52	31
53	100
54	161
55	110
67	38
68	100
69	131
77	42
78	42
95	121
96	999
97	70
100	63
104	53
120	42
145	27
173	59
187	27
214	59
215	100
241	42
242	536
243	59
251	38
270	361
271	59
