Mass Spectrum: 9-Oximino-2,7-diethoxyfluorene
Formula: C17H17NO3
CAS: 327041-58-7
Molecular weight: 283
m/z	intensity
55	153
56	84
57	316
58	999
59	216
60	68
61	32
62	10
63	22
65	47
66	32
67	68
68	37
69	195
70	79
71	116
72	26
73	63
74	11
75	20
76	11
77	47
78	13
79	34
80	14
81	121
82	37
83	105
84	47
85	53
86	18
87	27
88	12
89	15
90	10
91	29
92	11
93	31
94	79
95	74
96	53
97	68
98	37
99	18
100	17
101	53
102	18
103	12
104	8
105	30
106	12
107	27
108	19
109	53
110	21
111	34
112	20
113	18
114	11
115	42
116	20
117	13
118	8
119	20
120	9
121	21
122	18
123	29
124	14
125	22
126	21
127	16
128	9
129	26
130	14
131	12
132	5
133	13
134	8
135	23
136	18
137	24
138	16
139	21
140	13
141	32
142	8
143	13
144	5
145	11
146	8
147	5
148	4
149	58
150	13
151	13
152	16
153	26
154	13
155	13
156	7
157	12
158	6
159	8
160	6
161	5
162	7
163	16
164	9
165	7
166	10
167	16
168	14
169	17
170	17
171	8
172	7
173	8
174	4
175	7
176	5
177	8
178	4
179	9
180	11
181	22
182	16
183	11
184	5
185	13
186	11
187	8
188	5
198	20
209	17
210	42
211	26
212	16
213	8
226	90
227	53
228	12
238	16
239	16
254	79
255	47
256	11
266	33
267	12
282	7
283	121
284	29
