Mass Spectrum: Piperidin-4-ol, 2,3-dimethyl-, trans-
Formula: C7H15NO
CAS: 327175-92-8
Molecular weight: 129
m/z	intensity
39	109
40	47
41	221
42	303
43	250
44	266
45	29
46	8
49	1
50	9
51	15
52	10
53	39
54	31
55	99
56	999
57	277
58	92
59	3
60	1
62	1
63	4
64	1
65	9
66	3
67	23
68	44
69	145
70	396
71	149
72	32
73	3
74	8
75	0
76	0
77	5
78	2
79	6
80	9
81	6
82	23
83	34
84	52
85	14
86	3
87	1
89	0
91	1
92	1
93	4
94	12
95	8
96	314
97	20
98	5
100	10
101	1
103	0
105	0
106	0
107	1
108	3
110	35
111	12
112	326
114	823
115	44
116	2
117	0
121	1
122	2
126	1
128	31
129	217
130	17
131	1
