Mass Spectrum: Cycloheptane, 1,3-dichloro-, cis-
Formula: C7H12Cl2
CAS: 32718-94-8
Molecular weight: 166
m/z	intensity
38	25
39	410
40	55
41	395
42	105
49	40
50	25
51	90
52	25
53	225
54	315
55	350
56	20
62	75
63	50
64	20
65	75
66	105
67	385
68	245
69	35
75	100
76	25
77	100
78	25
79	655
80	40
81	315
88	125
89	60
90	35
91	55
93	75
94	725
95	999
96	75
102	165
104	55
130	45
132	15
