Mass Spectrum: 3-Acetonyl-3-(alpha-nitrobenzyl)-2-indolinone
Formula: C18H16N2O4
CAS: 32710-31-9
Molecular weight: 324
m/z	intensity
14	3
15	20
16	2
26	5
27	14
28	11
29	1
30	35
31	15
32	11
37	9
38	24
39	87
40	10
41	20
42	9
43	424
44	15
45	7
46	4
49	6
50	62
51	127
52	40
53	11
54	3
55	8
56	2
57	10
58	24
59	2
60	5
61	13
62	45
63	113
64	50
65	164
66	18
67	5
68	2
69	8
70	3
71	7
72	6
73	6
74	30
75	62
76	69
77	224
78	64
79	12
80	3
81	4
82	5
83	7
84	2
85	7
86	16
87	16
88	30
89	175
90	89
91	999
92	123
93	12
94	9
95	7
96	3
97	7
98	4
99	5
100	5
101	32
102	49
103	215
104	141
105	65
106	13
107	5
108	2
109	4
110	3
111	5
112	2
113	7
114	21
115	81
116	310
117	102
118	22
119	87
120	18
121	28
122	4
123	2
124	2
125	3
126	6
127	11
128	47
129	23
130	138
131	152
132	619
133	171
134	21
135	12
136	2
137	10
138	2
139	8
140	13
141	12
142	7
143	19
144	172
145	104
146	122
147	66
148	9
149	5
150	4
151	9
152	11
153	6
154	4
155	3
156	8
157	7
158	31
159	105
160	21
161	9
162	5
163	6
164	5
165	20
166	6
167	4
168	2
169	22
170	23
171	7
172	532
173	61
174	7
175	3
176	11
177	19
178	29
179	14
180	8
181	2
185	3
186	8
187	425
188	751
189	127
190	22
191	15
192	7
193	9
194	3
201	2
202	6
203	10
204	47
205	17
206	80
207	22
208	151
209	25
210	3
214	3
215	6
216	53
217	36
218	30
219	13
220	32
221	8
222	2
223	1
229	2
230	5
231	3
232	15
233	26
234	231
235	864
236	275
237	37
238	3
245	5
246	5
247	27
248	12
249	8
250	7
251	2
257	3
258	2
259	5
260	7
261	5
262	10
263	8
264	6
265	3
274	4
275	5
276	3
277	45
278	25
279	5
290	14
291	5
292	2
293	6
306	4
308	1
324	64
325	12
