Mass Spectrum: N-[1-(Benzylamino)-2,2,2-trifluoro-1-(trifluoromethyl)ethyl]-p-toluamide
Formula: C18H16F6N2O
CAS: 327100-24-3
Molecular weight: 390
m/z	intensity
33	8
34	4
37	6
38	9
39	77
40	63
41	33
42	6
43	20
44	63
45	9
48	1
50	27
51	51
52	19
53	9
55	19
56	6
57	18
58	1
59	2
60	1
62	7
63	58
64	25
65	217
66	15
67	3
69	20
70	6
71	8
73	2
74	6
75	7
76	11
77	68
78	28
79	70
80	6
81	2
82	4
83	8
84	3
85	3
86	2
87	4
89	78
91	831
92	66
93	127
94	10
95	4
96	9
97	3
99	2
100	2
101	2
102	1
103	7
104	26
106	999
107	84
108	6
109	7
110	2
111	5
112	3
113	4
115	1
116	12
117	41
119	732
120	64
121	5
122	1
124	2
125	3
126	1
127	7
128	2
131	1
132	2
133	3
136	623
137	54
138	7
140	4
141	1
143	1
145	3
146	2
147	1
149	2
150	1
151	1
152	1
158	3
159	1
164	2
165	11
166	10
167	1
171	7
172	1
177	9
178	2
181	2
184	4
185	14
186	94
187	9
194	2
195	3
196	2
201	9
204	1
207	7
208	1
214	6
216	3
224	9
225	2
227	1
234	3
235	1
236	3
245	1
253	5
254	94
255	26
256	3
268	2
270	4
279	1
284	8
285	5
286	1
297	2
321	8
322	2
