Mass Spectrum: Iron, tricarbonyl[(2,3,4,5-.eta.)-2,4-cycloheptadien-1-ol]-
Formula: C10H10FeO4
CAS: 32716-70-4
Molecular weight: 250
m/z	intensity
39	177
50	21
51	72
52	34
53	31
56	23
63	72
65	200
66	59
77	154
78	86
79	86
91	999
92	163
93	36
105	3
106	3
107	2
108	5
110	7
121	9
122	8
128	1
129	2
134	2
147	23
148	45
149	10
164	3
166	2
176	9
177	10
178	2
186	3
192	0
194	2
204	9
205	3
220	0
222	2
248	0
250	0
