Mass Spectrum: Ethyl 2-(3-chlorophenyl)-6-piperidino-4-(trifluoromethyl)-4H-1,3,5-oxadiazine-4-carboxylate
Formula: C18H19ClF3N3O3
CAS: 327101-16-6
Molecular weight: 417
m/z	intensity
35	1
36	5
37	1
38	3
39	14
41	214
42	58
43	27
44	10
45	2
50	10
51	8
52	2
53	9
54	17
55	64
56	78
57	8
58	1
61	1
62	1
63	1
64	1
65	1
67	15
69	328
70	35
71	3
72	1
73	2
75	36
76	13
77	3
78	1
79	1
80	3
82	14
83	25
84	40
85	7
86	2
87	1
91	1
92	1
96	10
97	2
98	1
99	1
100	3
102	16
103	3
104	2
105	1
109	3
112	999
113	74
114	5
123	1
124	3
125	1
126	1
127	9
128	1
129	1
130	1
137	56
139	107
140	9
141	24
142	2
149	1
151	1
152	1
155	1
163	1
164	1
165	1
168	2
169	1
172	2
173	1
206	1
207	1
240	3
251	1
260	5
261	1
262	1
278	1
279	1
309	1
344	200
345	28
346	61
347	9
348	1
