Mass Spectrum: 1,3-Dioxane, 2-heptyl-4-methyl-
Formula: C12H24O2
CAS: 3271-56-5
Molecular weight: 200
m/z	intensity
25	0
26	7
27	120
28	25
29	180
30	4
31	70
33	0
37	0
38	1
39	56
40	12
41	210
42	73
43	187
44	75
45	83
46	2
47	1
49	0
50	1
51	2
52	0
53	15
54	17
55	999
56	102
57	165
58	11
59	5
60	2
61	1
63	0
65	1
66	7
67	32
68	28
69	109
70	15
71	41
72	66
73	26
74	6
75	1
77	0
78	0
79	2
80	3
81	23
82	22
83	15
84	41
85	15
86	3
87	6
88	4
89	12
90	0
91	2
93	1
95	8
96	1
97	3
98	3
99	5
100	13
101	951
102	84
103	9
104	0
107	0
108	0
109	14
110	21
111	19
112	1
113	2
114	4
115	1
116	29
117	3
118	0
123	0
125	1
126	3
127	77
128	13
129	6
130	0
141	0
143	0
145	17
146	1
147	0
155	1
156	27
157	3
158	0
159	0
169	0
172	8
173	1
185	1
198	0
199	68
200	9
201	3
202	0
