Mass Spectrum: Cyclohexane, (2-bromocyclopropyl)-, trans-
Formula: C9H15Br
CAS: 32728-86-2
Molecular weight: 202
m/z	intensity
12	2
13	4
14	12
15	87
16	2
17	3
18	10
25	3
26	71
27	581
28	142
29	248
30	5
32	4
36	1
37	18
38	59
39	691
40	103
41	999
42	63
43	64
44	4
45	7
46	8
49	3
50	95
51	189
52	108
53	371
54	365
55	875
56	59
57	20
58	6
59	5
60	4
61	11
62	25
63	58
64	15
65	140
66	121
67	978
68	342
69	252
70	16
71	4
73	3
74	9
75	8
76	4
77	112
78	31
79	146
80	53
81	892
82	147
83	316
84	20
85	3
86	1
87	1
89	4
90	1
91	61
92	12
93	56
94	18
95	125
96	814
97	65
98	2
103	2
104	1
105	2
106	9
107	17
108	9
109	22
110	4
111	8
117	3
119	34
120	2
121	34
122	7
123	187
124	19
125	2
127	3
128	5
132	8
133	9
134	8
135	8
137	2
147	2
163	3
165	2
174	2
176	2
189	2
190	1
202	54
203	6
204	53
205	5
