Mass Spectrum: Butanoic acid, 3-amino-2-methyl-
Formula: C5H11NO2
CAS: 32723-74-3
Molecular weight: 117
m/z	intensity
27	3
28	12
29	9
30	5
36	2
39	1
41	19
42	20
43	9
44	999
45	38
46	15
55	14
56	54
57	27
58	4
70	9
71	5
72	3
73	2
74	5
84	71
85	4
98	4
102	20
116	2
