Mass Spectrum: Thiophene, 2-(2-methylpropyl)-
Formula: C8H12S
CAS: 32741-05-2
Molecular weight: 140
m/z	intensity
36	1
37	10
38	21
39	106
40	8
41	18
42	5
43	47
44	2
45	125
46	5
47	11
48	1
49	3
50	15
51	24
52	9
53	53
54	3
55	6
56	2
57	11
58	24
59	8
60	3
61	6
62	8
63	17
64	3
65	12
66	4
67	2
68	1
69	24
70	9
71	15
72	2
73	2
74	2
75	2
76	1
77	10
78	4
79	6
80	1
81	4
82	6
83	3
84	11
85	6
86	1
87	1
89	1
90	1
91	7
92	2
93	3
94	1
95	7
96	6
97	999
98	133
99	54
100	5
101	1
103	1
104	1
105	1
106	1
107	1
108	2
109	7
110	6
111	4
112	1
113	1
121	3
122	1
123	9
124	3
125	12
126	1
127	1
137	1
138	1
139	5
140	262
141	26
142	12
143	1
