Mass Spectrum: 2,5-Cyclohexadien-1-one, 4-methyl-4-(trichloromethyl)-
Formula: C8H7Cl3O
CAS: 3274-12-2
Molecular weight: 224
m/z	intensity
12	8
13	7
14	12
15	46
16	2
25	9
26	78
27	154
28	24
29	63
30	1
31	5
32	4
35	19
36	28
37	38
38	61
39	159
40	14
41	82
42	38
43	80
44	9
45	6
46	3
47	24
48	6
49	40
50	192
51	204
52	102
53	113
54	14
55	18
56	24
57	52
58	2
59	4
60	16
61	56
62	73
63	139
64	41
65	59
66	6
67	3
68	2
69	2
71	5
72	14
73	74
74	44
75	77
76	16
77	351
78	80
79	261
80	19
81	4
82	39
83	17
84	47
85	50
86	25
87	20
88	4
89	51
90	21
91	117
92	10
93	3
94	2
95	2
96	4
97	9
98	3
99	52
100	8
101	17
102	3
105	1
106	3
107	999
108	97
109	19
110	4
111	32
112	6
113	15
114	2
115	2
117	102
118	2
119	102
120	7
121	34
122	4
123	7
124	3
125	102
126	42
127	36
128	14
129	1
133	3
134	1
135	9
136	2
137	5
138	1
139	3
144	2
145	6
146	32
147	7
148	20
149	2
150	3
153	13
154	7
155	5
156	2
159	7
160	5
161	66
162	9
163	45
164	5
165	10
174	3
176	2
188	3
189	124
190	13
191	80
192	7
193	13
194	1
224	34
225	3
226	33
227	3
228	11
