Mass Spectrum: 5-.alpha.-Androst-2-en-17-.beta.-ol, 17-methyl-
Formula: C20H32O
CAS: 3275-64-7
Molecular weight: 288
m/z	intensity
38	2
39	135
40	36
41	540
42	33
43	777
44	157
45	30
46	1
50	5
51	32
52	20
53	211
54	67
55	472
56	29
57	151
58	80
59	47
60	2
62	1
63	7
64	4
65	119
66	49
67	451
68	72
69	223
70	19
71	229
72	73
73	9
74	5
75	3
76	5
77	393
78	92
79	775
80	142
81	577
82	65
83	267
84	26
85	41
86	9
87	1
88	7
89	7
90	3
91	999
92	249
93	811
94	216
95	499
96	57
97	147
98	23
99	11
100	5
101	4
102	9
103	52
104	87
105	758
106	488
107	708
108	435
109	313
110	43
111	127
112	16
113	15
114	4
115	75
116	30
117	171
118	127
119	371
120	235
121	316
122	109
123	184
124	26
125	46
126	3
127	16
128	50
129	71
130	29
131	196
132	55
133	270
134	205
135	234
136	43
137	42
138	8
139	12
141	20
142	14
143	56
144	23
145	315
146	90
147	532
148	179
149	155
150	23
151	37
152	14
153	10
154	4
155	9
156	4
157	33
158	16
159	260
160	149
161	482
162	203
163	144
164	55
165	28
166	14
167	7
168	2
169	5
170	2
171	22
172	15
173	141
174	130
175	173
176	548
177	85
178	15
179	13
180	8
183	1
184	1
185	20
186	7
187	97
188	78
189	58
190	10
191	5
192	1
193	8
197	1
199	33
200	13
201	204
202	54
203	23
204	3
207	5
213	45
214	42
215	241
216	473
217	142
218	21
219	5
227	6
228	38
229	10
230	285
231	79
232	11
233	7
234	199
235	37
236	1
241	8
242	3
246	6
253	2
254	1
255	418
256	90
257	9
258	1
268	1
269	2
270	131
271	29
272	4
273	39
274	9
288	114
289	24
290	2
