Mass Spectrum: Piperidine, 1-(ethoxymethyl)-
Formula: C8H17NO
CAS: 3275-13-6
Molecular weight: 143
m/z	intensity
40	20
41	210
42	340
43	170
44	100
45	120
46	50
53	20
54	30
55	110
56	50
57	50
58	40
59	80
67	20
68	50
69	50
70	60
71	20
82	30
85	50
86	20
94	20
96	80
97	60
98	999
99	110
114	50
142	20
143	40
