Mass Spectrum: 4H-1,4-Epoxy-4a,7-methanonaphthalene, 1,5,6,7,8,8a-hexahydro-, (1.alpha.,4.alpha.,4a.alpha.,7.alpha.,7a.beta.)-
Formula: C11H14O
CAS: 32763-64-7
Molecular weight: 162
m/z	intensity
26	10
27	139
29	49
30	10
31	5
33	0
34	0
36	0
37	8
38	33
39	303
40	76
41	203
42	21
43	28
44	6
45	6
46	2
47	1
48	0
49	4
50	71
51	170
52	101
53	181
54	45
55	170
56	19
57	46
58	54
59	18
60	5
61	9
62	35
63	112
64	38
65	234
66	303
67	391
68	154
69	66
70	19
71	27
72	8
73	9
74	21
75	29
76	19
77	531
78	225
79	665
80	253
81	682
82	178
83	137
84	27
85	29
86	7
87	6
88	3
89	29
90	17
91	667
92	237
93	161
94	999
95	535
96	149
97	22
98	3
99	1
100	15
101	39
102	19
103	120
104	53
105	390
106	132
107	365
108	135
109	22
110	11
114	6
115	96
116	103
117	149
118	175
119	194
120	143
121	374
122	45
123	4
124	1
125	2
126	10
127	11
128	29
129	72
130	13
131	64
132	28
133	821
134	370
135	51
136	5
137	1
138	1
142	2
143	13
144	24
145	16
146	6
147	118
148	14
149	3
150	1
151	0
152	0
153	1
154	1
155	1
156	0
157	1
158	0
159	1
160	8
161	242
162	770
163	99
164	9
