Mass Spectrum: 2H-1,2-Oxaborin, 3,6-dihydro-2,3,3-tripropyl-
Formula: C13H25BO
CAS: 32765-45-0
Molecular weight: 208
m/z	intensity
38	14
39	147
40	18
41	454
42	100
43	450
44	599
45	21
53	130
54	109
55	521
56	127
57	400
58	25
59	40
60	36
77	109
78	30
79	181
80	61
81	400
82	218
83	210
84	105
85	200
91	87
92	18
93	109
94	58
95	999
96	327
97	249
98	40
99	50
119	14
120	1
121	20
122	21
123	290
124	38
125	61
126	18
127	32
129	23
135	18
136	29
137	50
138	705
139	109
140	18
141	32
142	12
