Mass Spectrum: 2-Pentoxy-tetrahydropyran
Formula: C10H20O2
CAS: 32767-70-7
Molecular weight: 172
m/z	intensity
27	49
29	99
41	179
42	68
43	297
55	129
56	370
57	99
67	58
70	88
71	191
84	120
85	999
86	60
101	80
172	9
