Mass Spectrum: 4,4-Dimethyl-cyclohex-1-enecarboxylic acid, methyl ester
Formula: C10H16O2
CAS: 32767-49-0
Molecular weight: 168
m/z	intensity
26	28
27	637
28	62
29	397
30	13
31	133
33	19
37	10
38	25
39	583
40	88
41	993
42	47
43	215
44	35
45	231
46	19
47	7
50	38
51	123
52	73
53	556
54	94
55	280
56	999
57	62
58	63
59	390
60	22
61	32
62	11
63	44
64	13
65	156
66	62
67	359
68	49
69	364
70	33
71	19
72	7
73	18
74	10
75	18
76	8
77	351
78	78
79	268
80	39
81	829
82	186
83	73
84	10
85	35
86	4
87	22
88	9
89	24
90	12
91	230
92	45
93	918
94	128
95	53
96	11
97	54
98	9
99	16
100	46
101	6
102	4
103	8
105	30
106	7
107	102
108	441
109	520
110	45
111	45
112	192
113	614
114	47
115	6
117	3
119	12
120	4
121	371
122	31
123	14
124	8
125	87
126	57
127	8
134	11
136	534
137	366
138	32
139	47
140	170
141	14
149	5
151	5
152	7
153	200
154	26
167	4
168	886
169	103
170	11
