Mass Spectrum: 2-(1-Methylpropoxy)-tetrahydropyran
Formula: C9H18O2
CAS: 32767-69-4
Molecular weight: 158
m/z	intensity
29	79
41	198
42	11
43	82
44	34
45	22
55	79
56	627
57	267
67	92
83	22
84	11
85	999
86	45
101	232
102	46
129	184
