Mass Spectrum: 9-Heptadecene-4,6-diyn-8-ol, (Z)-
Formula: C17H26O
CAS: 32768-90-4
Molecular weight: 246
m/z	intensity
18	40
25	10
26	40
27	400
28	70
29	560
30	10
31	20
37	10
38	10
39	330
40	60
41	830
42	100
43	760
44	40
45	20
50	50
51	180
52	70
53	230
54	60
55	690
56	60
57	230
58	10
59	10
61	10
62	60
63	190
64	60
65	260
66	80
67	270
68	70
69	200
70	170
71	80
72	10
73	10
74	40
75	80
76	60
77	410
78	180
79	410
80	80
81	200
82	40
83	230
84	40
85	20
86	10
87	30
88	10
89	120
90	60
91	999
92	190
93	160
94	100
95	140
96	30
97	40
98	20
99	10
100	10
102	70
103	190
104	90
105	590
106	100
107	30
108	90
109	80
110	110
111	30
112	10
113	10
114	10
115	310
116	110
117	270
118	100
119	440
120	190
121	190
122	30
123	30
126	10
127	90
128	190
129	220
130	60
131	220
132	80
133	700
134	210
135	60
136	60
137	10
139	10
141	60
142	50
143	100
144	40
145	160
146	60
147	560
148	120
149	110
150	10
151	10
152	10
153	10
154	190
155	50
156	10
157	50
158	20
159	100
160	30
161	370
162	90
163	30
164	10
165	10
171	10
175	200
176	60
177	10
178	10
185	10
187	10
189	70
190	10
199	30
203	140
204	30
205	10
215	10
216	380
217	90
218	10
223	10
228	30
230	10
244	10
245	20
246	20
247	10
