Mass Spectrum: 2,2-Dimethylpropionic acid, hexadecyl ester
Formula: C21H42O2
CAS: 32767-89-8
Molecular weight: 326
m/z	intensity
26	6
27	71
28	10
29	178
31	8
36	3
38	6
39	95
40	21
41	378
42	95
43	295
44	27
50	6
51	9
52	8
53	28
54	22
55	227
56	158
57	999
58	39
59	8
65	8
67	46
68	23
69	112
70	75
71	117
72	6
77	8
79	11
81	13
82	35
83	97
84	41
85	148
86	8
87	15
89	7
95	8
96	13
97	71
98	22
99	6
103	459
104	19
105	6
110	6
111	23
112	11
113	8
125	16
126	11
139	6
140	6
151	4
152	4
153	11
168	3
173	3
182	1
196	6
224	26
225	8
269	3
