Mass Spectrum: 1-Ethyl-3,3-bis(trifluoromethyl)diaziridine
Formula: C5H6F6N2
CAS: 32770-47-1
Molecular weight: 208
m/z	intensity
27	250
28	300
29	999
30	50
42	260
43	60
44	220
45	8
51	150
52	10
69	150
70	2
96	150
97	10
111	130
112	80
113	5
139	67
180	180
181	9
193	230
194	15
208	120
209	8
