Mass Spectrum: Acetonitrile, isothiocyanato-
Formula: C3H2N2S
CAS: 32772-75-1
Molecular weight: 98
m/z	intensity
12	9
18	19
26	16
27	27
38	51
39	48
40	247
44	116
45	86
48	28
53	10
54	5
58	93
59	24
60	9
66	7
70	103
71	417
72	109
73	23
76	13
81	3
96	10
97	284
98	999
99	64
100	49
