Mass Spectrum: 4-(3-Nitrobenzylideneamino)-4H-1,2,4-triazole
Formula: C9H7N5O2
CAS: 32787-80-7
Molecular weight: 217
m/z	intensity
37	106
38	184
39	269
40	196
41	95
42	64
43	77
44	9
46	242
47	3
49	30
50	248
51	999
53	80
54	10
55	7
57	32
58	1
60	8
61	46
62	113
63	265
64	52
65	90
66	9
67	2
68	2
69	12
70	4
73	21
74	341
75	246
76	444
77	359
78	33
79	2
81	1
84	319
85	18
86	24
89	545
90	39
92	24
93	5
94	2
98	1
99	1
100	3
102	6
103	29
104	101
105	190
106	19
107	2
115	21
116	62
117	14
118	4
119	3
121	8
122	6
123	2
129	1
132	5
133	1
134	2
135	25
136	2
143	2
145	5
147	1
148	3
150	246
151	243
152	27
153	2
162	8
163	1
169	3
170	12
171	3
216	32
217	39
218	5
