Mass Spectrum: Propylamine, 3-chloro-2,2,3-trifluoro-N,N,1,1-tetramethyl-
Formula: C7H13ClF3N
CAS: 32786-66-6
Molecular weight: 203
m/z	intensity
14	80
27	30
28	70
39	40
41	40
42	140
43	40
44	110
56	110
70	50
71	30
76	70
86	999
121	30
188	30
203	6
