Mass Spectrum: Methoxyacetic acid, benzyl ester
Formula: C10H12O3
CAS: 32786-24-6
Molecular weight: 180
m/z	intensity
26	3
27	2
28	1
29	12
30	3
31	2
35	1
36	10
38	3
39	18
40	2
41	6
42	4
43	2
45	271
46	8
50	10
51	25
52	11
53	2
61	2
62	4
63	16
64	5
65	58
66	5
71	1
74	3
75	2
76	3
77	40
78	13
79	17
80	1
89	28
90	25
91	999
92	82
93	7
104	19
105	32
106	10
107	12
108	2
120	3
121	2
148	6
152	1
154	2
180	38
181	5
