Mass Spectrum: 1,2,3-Butanetrione, 1-phenyl-, 2,3-dioxime
Formula: C10H10N2O3
CAS: 32796-72-8
Molecular weight: 206
m/z	intensity
51	160
77	650
105	999
106	70
122	12
131	10
132	3
161	50
162	5
188	16
206	100
