Mass Spectrum: Propanamide, 3-(4-methyl-1-piperazainyl)-N-(2-thienyl)-
Formula: C11H18N4OS
CAS: 327982-70-7
Molecular weight: 254
m/z	intensity
33	13
40	66
42	936
43	551
44	197
45	78
47	10
49	0
50	0
51	3
52	7
53	18
55	537
56	348
57	219
58	604
59	50
60	5
66	3
67	8
68	31
70	999
71	400
72	86
73	21
74	3
75	6
77	1
78	1
79	2
80	10
82	81
83	145
84	256
85	127
86	16
87	1
93	1
94	4
95	12
96	36
98	320
99	179
100	295
101	253
102	17
103	9
106	1
108	2
111	234
112	356
113	613
114	38
115	6
122	3
123	5
125	71
126	132
127	171
128	16
129	5
137	8
138	4
139	11
140	5
141	7
142	9
143	0
150	2
153	78
154	125
155	275
156	27
157	14
158	0
166	2
167	5
168	3
169	7
170	14
172	20
173	0
179	1
181	25
184	751
185	54
186	29
187	1
192	4
193	13
194	3
195	5
197	159
198	267
199	32
200	13
208	3
210	55
211	106
212	114
213	18
214	5
221	0
223	32
224	51
225	8
226	2
237	7
239	22
240	3
251	0
252	4
254	86
255	11
256	5
