Mass Spectrum: Butanamide, N-(1-oxopropyl)-
Formula: C7H13NO2
CAS: 32796-69-3
Molecular weight: 143
m/z	intensity
26	26
27	162
28	112
29	143
39	86
41	160
42	95
43	450
44	113
55	112
56	105
57	999
59	230
60	30
70	74
71	535
72	311
73	562
74	384
87	183
88	157
115	198
128	41
129	10
143	91
