Mass Spectrum: Oxamide, N'-4-fluorophenyl-N''-2-ethylhexyl-
Formula: C16H23FN2O2
CAS: 327988-78-3
Molecular weight: 294
m/z	intensity
37	5
38	18
39	167
40	13
41	674
43	745
46	22
50	21
51	24
53	53
55	283
57	999
59	75
61	0
62	9
63	24
64	10
65	14
67	15
69	108
71	579
75	56
77	11
78	2
79	2
80	4
81	15
82	49
83	182
84	51
85	4
86	0
89	5
90	5
91	21
92	4
93	1
95	93
96	9
97	4
98	9
100	16
101	0
106	1
110	319
111	463
112	61
113	22
122	1
123	0
124	0
128	142
129	8
137	149
138	113
139	64
140	5
154	4
156	270
157	16
178	2
182	241
183	63
184	2
195	25
196	42
197	0
203	1
237	2
294	213
295	28
