Mass Spectrum: Acetamide, 2-(3-indolyl)-2-oxo-N-[3-(4-morpholyl)propyl]-
Formula: C17H21N3O3
CAS: 327983-02-8
Molecular weight: 315
m/z	intensity
33	1
34	0
36	0
37	0
39	19
40	9
41	40
42	65
43	23
44	25
45	5
46	0
50	3
51	3
52	2
54	18
55	24
56	81
57	18
58	13
62	17
63	24
64	3
65	3
66	1
68	10
70	44
71	9
72	11
73	2
75	4
76	2
77	2
78	0
80	1
82	11
84	34
85	14
86	30
87	15
89	179
90	17
91	2
92	0
94	1
96	16
97	16
98	39
100	999
101	36
102	9
103	1
104	0
105	0
106	0
107	0
109	7
111	6
112	14
113	37
114	76
116	254
117	23
118	6
119	0
120	0
122	2
123	2
126	321
127	94
128	13
129	4
130	5
131	1
132	0
133	0
134	0
135	0
136	0
137	0
139	1
140	2
141	8
144	783
145	67
146	8
147	0
148	0
149	0
150	0
151	1
152	0
153	0
154	0
155	1
156	2
157	5
158	4
159	5
160	0
161	0
162	0
164	0
165	0
166	0
171	542
172	41
173	4
174	2
175	0
178	0
179	0
180	0
182	0
183	0
184	0
185	0
186	0
187	0
188	0
189	0
190	0
191	0
194	0
197	0
198	0
199	0
200	0
201	0
202	1
203	1
204	0
205	0
208	0
211	0
212	0
213	1
214	0
215	0
225	0
226	0
227	0
228	1
229	3
230	1
231	0
240	0
241	0
243	0
257	0
258	0
267	0
269	0
270	0
272	15
273	1
274	0
281	0
283	0
284	11
285	2
286	0
297	0
298	0
300	0
311	0
312	0
313	2
315	55
316	9
317	1
318	0
