Mass Spectrum: Butanoic acid, 2-hydroxy-2-methyl-, methyl ester
Formula: C6H12O3
CAS: 32793-34-3
Molecular weight: 132
m/z	intensity
31	129
33	32
37	1
38	4
39	47
40	6
41	45
42	31
43	759
44	39
45	137
46	3
47	0
49	0
50	3
51	4
52	1
53	14
54	4
55	456
56	21
57	132
58	9
59	37
60	1
61	10
69	9
70	0
71	9
72	25
73	999
74	43
75	41
76	1
82	1
83	4
84	1
85	1
87	0
88	0
89	3
99	1
102	1
103	57
104	4
105	0
115	0
117	4
