Mass Spectrum: tert-Butyl methyl carbonate
Formula: C6H12O3
CAS: 32793-05-8
Molecular weight: 132
m/z	intensity
43	123
44	623
56	345
57	999
59	150
73	753
117	247
132	103
