Mass Spectrum: Acecainide
Formula: C15H23N3O2
CAS: 32795-44-1
Molecular weight: 277
m/z	intensity
15	5
17	2
18	7
26	1
27	6
28	14
29	18
30	61
38	1
39	4
41	4
42	16
43	24
44	7
50	1
51	1
52	1
54	2
55	2
56	20
57	7
58	58
59	2
63	4
64	5
65	13
66	2
68	1
69	1
70	9
71	17
72	9
73	1
76	1
77	1
83	1
84	13
85	4
86	999
87	57
88	1
90	3
91	9
92	18
93	2
97	1
98	1
99	110
100	8
104	1
106	1
113	2
118	8
119	7
120	40
121	6
132	2
133	1
135	1
146	2
160	1
161	1
162	23
163	4
164	1
204	2
205	14
206	2
260	1
275	3
277	1
