Mass Spectrum: Acetic acid, 1-(4-bromo-2-methylphenyliminomethyl)naphth-2-yl ester
Formula: C20H16BrNO2
CAS: 327997-34-2
Molecular weight: 381
m/z	intensity
33	3
34	0
36	0
37	4
38	16
39	92
40	10
41	13
43	999
45	3
48	0
50	51
51	91
52	31
53	12
54	2
55	2
57	3
58	2
59	0
60	0
61	4
62	50
63	118
64	27
65	37
66	3
67	0
68	0
69	1
71	2
72	0
73	2
74	26
75	41
76	30
77	61
78	21
79	4
80	1
81	1
82	1
83	0
85	2
86	12
87	24
88	27
89	120
90	83
91	27
92	2
93	0
94	0
95	1
96	0
98	3
99	8
100	5
101	15
102	11
103	6
104	7
105	1
106	1
107	1
108	0
109	1
110	1
111	1
112	2
113	30
114	57
115	86
116	14
117	3
119	2
120	0
121	1
122	1
123	0
125	3
126	30
127	29
128	10
129	3
130	3
131	1
132	0
135	0
136	0
137	1
138	1
139	3
140	24
141	21
142	4
143	6
144	2
145	1
146	0
148	0
149	0
150	1
151	3
152	6
153	2
154	1
155	0
156	0
157	0
162	0
163	1
164	1
165	1
166	0
167	0
168	1
169	19
170	8
171	4
172	0
174	0
175	0
176	1
177	1
178	0
181	0
182	0
184	0
186	0
187	0
188	1
189	3
190	1
191	0
193	0
194	0
196	0
198	0
199	0
200	1
201	1
202	5
203	2
204	1
205	0
206	0
212	0
214	2
215	2
216	2
217	3
218	1
219	0
220	0
226	0
227	1
228	2
229	2
230	5
231	5
232	1
233	0
240	0
241	0
242	0
243	1
244	1
245	0
246	0
255	0
256	0
257	1
258	5
260	22
261	3
262	0
296	0
322	0
324	0
332	0
336	0
337	1
338	5
339	3
340	4
341	2
342	0
381	1
383	1
