Mass Spectrum: Carbazole, 1,2,3,4-tetrahydro-1-benzylamino-6-nitro-
Formula: C19H19N3O2
CAS: 327990-63-6
Molecular weight: 321
m/z	intensity
39	138
40	85
41	75
42	24
43	33
44	31
46	9
47	0
50	63
51	158
52	60
53	29
54	18
55	26
56	13
57	29
59	3
62	32
63	84
65	261
67	6
68	6
69	13
70	18
71	20
74	32
75	42
77	207
78	74
79	126
81	6
82	8
83	30
85	5
86	8
87	13
88	17
89	63
91	999
95	4
97	4
98	7
99	6
100	10
101	30
102	50
103	30
104	58
106	229
107	70
108	14
110	3
111	4
112	6
113	19
114	27
115	77
116	27
117	32
118	13
119	3
120	3
121	3
122	3
123	2
124	1
125	4
126	13
127	54
128	68
129	101
130	54
131	13
132	13
133	5
135	1
137	5
138	6
139	49
140	47
141	38
142	27
143	21
144	10
145	7
146	3
147	0
148	0
149	3
150	2
151	4
152	10
153	23
154	56
155	70
156	185
157	31
158	10
159	4
160	5
164	8
165	8
166	79
167	271
168	265
169	188
171	14
172	5
173	2
174	2
175	9
176	2
177	2
178	1
179	3
180	3
181	14
182	31
183	65
184	124
185	34
186	8
187	3
188	20
189	6
190	2
191	1
192	1
193	0
194	1
195	1
196	11
197	17
198	32
199	15
200	7
202	266
203	35
204	4
205	1
208	0
210	1
212	14
213	78
214	407
215	261
216	64
217	8
218	3
219	1
220	1
221	0
223	0
227	0
228	7
229	13
230	107
231	20
232	3
233	0
234	0
235	0
241	0
242	2
243	3
244	2
245	3
246	3
247	5
248	1
249	3
250	0
251	1
252	0
256	0
257	0
258	0
259	0
260	0
261	0
262	1
263	0
264	0
265	2
266	0
269	0
270	0
272	0
273	1
274	3
275	7
276	7
277	6
278	14
279	2
283	1
289	1
290	1
291	6
292	16
293	247
294	45
295	5
301	0
303	1
304	8
305	4
306	1
320	28
321	170
322	40
323	4
