Mass Spectrum: N'-(5-Hydroxy-2-nitrobenzylidene)isonicotinohydrazide
Formula: C13H10N4O4
CAS: 327987-95-1
Molecular weight: 286
m/z	intensity
34	4
37	21
38	46
39	124
40	17
41	29
42	23
43	37
44	78
45	14
46	3
50	173
51	578
52	151
53	67
54	15
55	22
56	7
57	14
58	0
60	2
61	6
62	26
63	59
64	29
65	39
66	14
67	11
68	12
69	7
78	809
79	126
80	19
81	17
82	8
83	1
84	0
85	0
87	0
88	0
89	1
90	5
91	6
92	13
93	7
94	7
95	11
96	1
106	999
107	96
108	13
109	1
112	0
118	2
119	12
120	10
122	271
123	55
124	8
127	0
128	0
134	10
135	5
136	3
137	7
148	8
149	1
151	1
152	0
155	1
157	1
162	5
163	2
164	0
239	0
240	9
241	2
269	2
286	30
287	2
