Mass Spectrum: 2-Oxopentanedioic acid
Formula: C5H6O5
CAS: 328-50-7
Molecular weight: 146
m/z	intensity
26	107
27	431
28	222
29	604
31	58
35	3
36	21
37	6
38	9
39	16
40	3
41	9
42	87
43	141
44	124
45	698
46	38
47	9
51	3
53	20
54	11
55	548
56	84
57	18
60	22
71	3
72	6
73	419
74	170
75	8
82	8
83	22
84	12
85	4
100	4
101	999
102	48
103	8
128	1
129	9
130	2
131	1
