Mass Spectrum: DL-Leucine
Formula: C6H13NO2
CAS: 328-39-2
Molecular weight: 131
m/z	intensity
26	6
27	105
28	138
29	81
30	811
31	13
34	3
35	3
38	5
39	71
40	11
41	182
42	88
43	272
44	748
45	21
46	46
50	3
51	6
52	4
53	11
54	10
55	13
56	23
57	67
58	3
59	8
65	3
67	6
68	8
69	20
70	36
71	10
73	10
74	363
75	57
76	4
81	3
84	5
86	999
87	58
88	8
89	3
99	7
114	3
