Mass Spectrum: N-Benzylsuccinamic acid N'-(4-bromobenzylidene)hydrazide
Formula: C18H18BrN3O2
CAS: 328019-36-9
Molecular weight: 387
m/z	intensity
37	2
38	4
39	27
40	5
41	10
42	7
43	10
44	28
45	4
46	1
49	1
50	21
51	27
52	9
53	4
54	9
55	58
56	15
57	15
58	1
59	2
60	1
61	2
62	9
63	38
64	9
65	73
66	5
67	1
68	1
69	2
70	3
71	4
72	16
73	6
74	7
75	23
76	26
77	38
78	18
79	34
80	9
81	4
82	14
83	3
84	9
85	3
86	2
87	3
89	85
91	999
92	134
93	6
97	2
98	3
100	88
101	6
102	17
103	14
104	39
106	346
107	43
108	4
111	1
112	6
113	1
115	3
116	3
117	12
118	43
119	12
120	3
125	1
127	1
128	1
129	2
130	4
131	3
132	8
133	5
134	2
141	1
142	1
143	3
144	4
145	3
146	3
147	1
148	3
149	5
150	1
152	1
153	1
155	27
156	5
157	27
158	5
160	66
161	47
162	11
163	6
164	1
165	1
168	2
169	2
170	3
171	6
172	1
173	2
174	1
175	1
176	1
177	1
178	18
179	3
181	12
182	22
183	18
184	40
185	8
186	17
187	5
189	103
190	637
191	75
192	8
193	1
196	1
197	7
198	23
199	9
200	21
201	4
204	4
205	1
206	5
207	1
208	1
209	1
210	1
211	1
212	1
213	1
225	3
226	1
227	4
239	6
240	1
241	6
242	1
253	9
254	2
255	9
256	1
279	1
280	1
281	6
282	1
283	5
284	1
387	4
389	5
390	1
