Mass Spectrum: Piperazine, 1-methyl-4-(2-phenoxyethyl)-
Formula: C13H20N2O
CAS: 328002-65-9
Molecular weight: 220
m/z	intensity
39	39
40	15
41	34
42	252
43	145
44	34
45	2
49	1
50	6
51	29
52	3
53	3
54	28
55	48
56	143
57	39
58	40
59	2
60	1
62	2
63	9
64	4
65	46
66	9
67	3
68	10
69	17
70	665
71	60
72	12
73	1
74	2
75	1
76	4
77	91
78	8
79	8
80	5
81	5
82	22
83	15
84	39
85	15
86	1
89	1
91	23
92	3
93	8
94	16
95	5
97	17
98	87
99	21
100	4
101	1
107	14
108	1
112	20
113	999
114	78
115	3
117	1
119	13
120	15
121	6
122	1
125	6
126	111
127	418
128	34
129	2
148	4
149	2
150	3
151	0
162	1
163	0
176	2
177	0
204	0
205	0
219	3
220	16
221	2
222	0
