Mass Spectrum: 3',4'-Dichloro-3-(propionylhydrazono)butyranilide
Formula: C13H15Cl2N3O2
CAS: 328019-34-7
Molecular weight: 315
m/z	intensity
33	3
35	15
36	73
37	11
38	39
39	115
40	50
41	243
42	113
43	100
44	68
45	10
46	2
47	3
48	2
49	8
50	9
51	12
52	13
53	9
54	52
55	81
56	99
57	999
58	39
59	8
60	4
61	12
62	32
63	60
64	16
65	10
66	4
67	15
68	11
69	43
70	46
71	224
72	851
73	218
74	29
75	33
76	6
77	6
78	3
79	2
80	3
81	9
82	13
83	18
84	40
85	14
87	557
88	37
89	13
90	44
91	13
92	4
93	3
94	2
95	3
96	5
97	54
98	221
99	856
100	50
101	15
102	6
103	3
104	4
105	2
107	9
109	43
110	22
111	34
112	30
113	332
114	23
115	5
116	2
117	2
118	2
119	3
120	4
121	4
122	2
124	41
125	54
126	41
127	58
128	235
129	24
130	3
131	2
133	50
134	13
135	28
136	9
137	7
138	7
139	8
140	4
141	5
142	1
143	3
145	41
146	8
147	24
148	5
149	6
150	2
151	3
152	4
153	8
154	38
155	246
156	20
157	4
159	23
160	103
161	784
162	120
163	493
164	47
165	81
166	8
167	9
168	3
169	4
170	1
171	9
172	5
173	4
174	12
175	3
176	7
177	2
178	2
179	2
180	1
181	2
182	1
185	3
186	11
187	23
188	20
189	15
190	10
191	4
192	2
193	2
194	2
196	1
198	1
199	1
200	2
201	2
202	3
203	4
204	2
205	2
206	2
207	2
208	1
209	1
210	1
212	3
213	1
214	3
215	2
216	1
217	1
218	1
220	1
221	1
228	6
229	1
230	4
231	1
232	1
240	3
241	18
242	6
243	10
244	4
245	3
246	2
274	1
283	2
297	3
298	1
299	1
300	3
301	1
302	2
315	24
317	20
318	3
319	3
