Mass Spectrum: Methyl 3-butynoate
Formula: C5H6O2
CAS: 32804-66-3
Molecular weight: 98
m/z	intensity
14	14
15	296
28	80
29	65
37	102
38	185
39	999
40	62
42	32
43	23
51	11
52	12
53	126
55	10
59	353
66	35
67	336
68	521
69	152
70	11
98	117
99	8
