Mass Spectrum: 3-(Acetylhydrazono)-N-mesitylbutyramide
Formula: C15H21N3O2
CAS: 328018-64-0
Molecular weight: 275
m/z	intensity
33	22
34	19
36	9
37	6
38	23
39	197
40	359
41	247
42	159
43	660
44	191
45	14
50	20
51	49
52	36
53	54
54	57
55	78
56	46
57	91
58	11
59	27
62	7
63	25
65	113
66	17
67	50
68	20
69	40
70	42
71	161
72	614
73	999
74	42
75	9
76	15
77	134
78	37
79	66
80	19
81	13
83	21
84	57
85	9
88	3
89	22
90	19
91	233
92	33
93	28
94	13
95	7
96	15
97	62
98	174
99	352
100	13
101	3
102	12
103	49
104	35
105	49
106	31
107	19
108	3
111	2
112	7
114	498
115	72
116	30
117	68
118	51
119	124
120	332
121	37
128	9
129	5
130	13
131	13
132	61
133	73
134	297
135	873
136	94
137	6
139	10
140	36
141	23
142	5
144	9
145	11
146	58
147	11
148	3
157	4
158	6
159	12
160	39
161	84
162	32
171	9
173	9
175	9
177	9
187	2
199	8
200	6
201	6
202	16
203	4
214	3
215	10
217	4
252	3
257	12
275	20
