Mass Spectrum: Acetamide, 2-(4-tolyloxy)-N-(3-pyridyl)-
Formula: C14H14N2O2
CAS: 328002-55-7
Molecular weight: 242
m/z	intensity
33	23
34	11
35	1
36	9
37	24
38	108
39	504
40	239
41	85
42	53
43	48
44	82
45	7
46	2
48	2
49	5
50	63
51	179
52	80
53	74
55	35
56	10
57	13
58	14
59	2
60	4
61	6
62	19
63	67
64	56
65	330
66	108
67	41
68	8
69	7
70	6
71	6
72	1
73	3
74	7
75	8
76	18
77	217
78	223
79	101
80	43
81	9
82	3
83	5
84	4
85	5
86	41
87	6
89	64
90	64
91	739
92	99
93	194
94	102
95	19
96	3
97	3
98	2
99	4
100	3
101	8
103	9
104	8
105	39
106	68
107	999
108	309
109	27
110	3
111	2
112	1
113	1
114	1
115	3
116	1
117	3
118	6
119	30
120	40
121	394
122	80
123	7
124	1
125	1
126	1
127	1
128	1
129	1
130	1
131	1
132	2
133	10
135	312
136	392
137	36
138	4
139	1
140	1
141	1
142	0
143	1
144	1
145	0
146	1
147	1
148	3
149	8
150	1
151	1
152	1
153	1
154	1
155	0
156	1
157	1
158	0
159	1
160	0
161	0
162	1
163	1
164	3
165	1
166	0
167	2
168	2
169	1
170	1
171	2
172	0
173	0
175	0
176	0
178	1
179	0
180	0
181	1
182	0
183	2
184	3
185	1
186	0
187	0
189	0
190	0
191	0
192	0
193	0
194	0
196	1
197	1
198	1
199	0
200	0
201	0
203	0
205	0
206	0
207	0
208	0
209	0
210	0
211	0
212	0
213	2
214	2
215	0
219	0
220	0
221	0
223	0
224	0
225	0
226	1
227	0
228	0
230	0
234	0
235	0
236	0
237	1
238	2
239	8
240	12
242	388
243	55
244	4
245	0
