Mass Spectrum: N'-(5-Nitrosalicylidene)mandelohydrazide
Formula: C15H13N3O5
CAS: 328018-51-5
Molecular weight: 315
m/z	intensity
33	1
34	1
36	1
37	7
38	18
39	63
40	21
41	10
42	9
43	23
44	24
45	7
46	5
49	3
50	62
51	189
52	86
53	80
54	14
55	12
56	2
57	4
58	1
60	2
61	5
62	24
63	81
64	38
65	40
66	12
67	7
68	8
69	5
70	3
71	3
72	1
73	4
74	14
75	17
76	41
77	563
78	121
79	841
80	76
81	8
82	2
83	2
84	1
85	2
86	2
87	4
88	5
89	27
90	75
91	52
92	46
93	16
94	7
95	5
96	2
97	2
99	1
100	1
101	3
102	2
103	5
104	17
105	316
106	95
107	999
108	146
109	10
110	2
111	2
112	1
113	1
115	1
116	2
117	6
118	68
119	57
120	16
121	15
122	9
123	3
124	1
127	1
128	2
129	1
130	1
131	3
132	6
133	44
134	83
135	17
136	29
137	5
138	1
139	3
140	1
141	1
146	1
147	7
148	15
149	21
150	17
151	23
152	13
153	2
161	1
162	6
163	41
164	41
165	66
166	122
167	28
168	4
171	1
177	1
178	5
179	5
180	32
181	308
182	26
183	3
191	6
192	9
193	2
194	2
195	1
196	1
206	1
208	34
209	15
210	2
218	1
221	1
222	1
223	1
225	3
226	1
238	1
239	3
240	1
250	1
252	1
253	1
255	4
266	1
267	1
268	1
271	1
281	1
282	1
283	3
285	4
286	1
287	3
297	2
299	2
313	3
315	22
316	5
