Mass Spectrum: N-(2-Morpholino-2-oxoethyl)-4-nitropyrazole-3-carboxamide
Formula: C10H13N5O5
CAS: 328071-10-9
Molecular weight: 283
m/z	intensity
36	3
37	46
38	157
39	109
40	91
41	179
42	517
43	132
44	166
45	127
46	20
48	2
50	11
51	24
52	44
53	82
54	91
55	101
56	372
57	233
58	43
59	19
60	4
63	5
64	10
65	80
66	113
67	23
68	20
69	241
70	999
71	48
72	19
73	5
74	5
75	3
76	6
77	15
78	4
79	3
80	6
81	6
82	6
83	13
84	30
85	49
86	679
87	197
88	46
89	5
91	3
94	74
95	16
96	33
97	11
98	5
99	18
100	18
101	3
102	3
105	9
108	3
110	9
111	19
112	22
114	674
115	50
116	9
119	2
120	2
122	5
123	29
124	66
125	31
126	4
127	10
133	4
134	2
136	10
137	3
140	300
141	92
142	7
143	12
149	7
152	160
153	26
154	4
156	1
164	7
166	4
169	161
170	11
171	6
177	2
180	140
181	14
182	5
193	1
197	7
198	3
210	8
212	21
213	1
219	0
240	3
247	0
283	19
284	1
