Mass Spectrum: N-(2-Bromophenyl)-N'-(4-methylbenzyl)succinamide
Formula: C18H19BrN2O2
CAS: 328019-20-1
Molecular weight: 374
m/z	intensity
36	1
37	4
38	9
39	37
40	3
41	12
42	7
43	7
44	13
45	4
46	2
50	11
51	22
52	17
53	11
54	10
55	100
56	15
57	9
59	3
60	1
61	2
62	8
63	36
64	28
65	65
66	9
67	1
69	1
70	1
71	1
72	3
73	5
74	6
75	9
76	11
77	99
78	30
79	78
80	13
81	4
82	9
83	1
84	8
85	1
86	1
87	2
88	2
89	14
90	31
91	100
92	46
93	60
94	7
98	1
99	1
100	7
101	7
102	7
103	54
104	17
105	999
106	94
107	5
112	1
115	4
116	5
117	16
118	48
119	43
120	307
121	33
122	2
127	3
128	3
129	5
130	4
131	7
132	14
133	6
134	2
140	1
143	6
144	3
145	8
146	16
147	7
148	7
149	1
155	5
156	1
157	6
158	3
159	2
160	64
161	7
162	1
169	1
170	10
171	92
172	18
173	84
174	49
175	30
176	5
180	1
184	2
185	1
186	1
194	1
195	1
197	1
198	5
199	2
200	5
201	1
202	3
203	95
204	101
205	13
206	2
208	1
210	2
226	4
228	3
254	20
255	2
256	18
257	2
277	2
295	1
374	11
375	1
376	11
377	2
