Mass Spectrum: Octanoic acid, hydrazide, N2-(4-phenylcyclohexylideno)-
Formula: C20H30N2O
CAS: 328045-67-6
Molecular weight: 314
m/z	intensity
34	2
35	4
36	10
37	9
38	26
39	282
40	88
41	636
42	217
43	557
44	101
45	84
46	5
49	1
50	34
51	85
52	35
53	99
54	53
55	444
56	125
57	999
58	115
59	163
60	166
61	22
62	11
63	28
64	15
65	55
66	19
67	74
68	28
69	90
70	44
71	45
72	46
73	139
74	92
75	26
76	22
77	137
78	126
79	62
80	22
81	44
82	43
83	108
84	220
85	49
86	75
87	29
88	6
89	24
90	17
91	321
92	33
93	13
94	15
95	23
96	15
97	33
98	32
99	7
100	18
101	34
102	24
103	82
104	267
105	104
106	20
107	16
108	11
109	30
110	23
111	54
112	23
113	12
114	14
115	154
116	39
117	187
118	73
119	76
120	25
121	7
122	10
123	15
124	8
125	23
126	41
127	217
128	84
129	80
130	79
131	49
132	28
133	16
134	3
135	5
137	5
138	6
139	38
140	12
141	18
142	32
143	95
144	49
145	43
146	42
147	5
148	5
149	10
150	3
151	3
152	9
153	17
154	16
155	18
156	33
157	31
158	147
159	83
160	47
161	9
162	4
163	3
165	2
167	9
168	2
169	21
170	99
171	76
172	102
173	28
174	134
175	23
176	7
178	3
179	1
181	2
182	84
183	15
184	6
185	5
186	14
187	33
188	134
189	31
190	11
191	1
192	2
194	5
195	529
196	63
197	5
198	2
199	2
200	16
201	2
202	1
204	0
205	1
206	1
210	5
211	2
212	7
213	3
214	3
215	2
216	2
217	1
223	2
224	0
225	5
226	1
227	2
228	1
229	3
230	27
231	8
232	3
239	0
241	2
242	3
243	26
244	4
250	1
253	0
254	1
255	0
257	4
258	1
263	1
264	2
270	1
271	3
272	4
273	1
278	0
283	3
284	4
285	1
287	1
288	1
299	2
300	0
302	1
313	1
314	59
315	15
316	1
