Mass Spectrum: 1-Benzoyl-2-(3-bromo-phenyl)-3-hydroxy-imidazolidin-4-one
Formula: C16H13BrN2O3
CAS: 328003-96-9
Molecular weight: 360
m/z	intensity
33	3
34	2
35	0
36	5
37	2
38	10
39	25
40	33
41	16
42	9
43	14
44	17
45	4
46	1
48	2
50	61
51	125
52	12
53	4
54	2
55	6
56	15
57	8
58	1
59	1
60	2
61	1
62	6
63	18
64	11
65	12
66	2
67	1
68	0
69	5
70	4
71	4
72	0
73	2
74	15
75	39
76	64
77	398
78	30
79	6
80	8
81	4
82	8
83	2
84	1
85	0
86	0
87	1
88	3
89	28
90	29
91	10
92	5
93	3
94	1
95	0
96	1
97	0
98	0
99	0
100	1
102	13
103	17
105	999
106	75
107	4
108	0
109	0
110	0
111	0
112	2
113	1
114	0
115	1
116	5
117	12
118	6
119	2
120	3
121	2
122	3
123	0
125	0
127	0
128	0
129	1
130	0
131	1
132	4
134	179
135	16
136	1
139	0
141	0
145	0
146	0
147	2
148	0
149	0
150	1
151	1
152	1
153	0
154	1
155	13
156	3
157	13
158	3
159	1
161	40
162	233
163	23
164	2
165	1
166	0
167	1
169	15
170	2
171	17
172	3
173	0
174	1
177	0
178	1
179	2
180	1
181	3
182	7
183	6
184	7
185	3
186	0
189	2
190	0
194	0
195	2
196	7
197	3
198	7
199	6
200	5
201	4
202	4
203	0
205	0
206	0
208	0
210	1
211	1
212	1
213	0
224	0
225	1
226	0
227	0
238	0
239	3
240	0
241	3
265	0
266	0
267	0
270	0
283	0
301	0
341	1
343	17
344	5
345	14
346	4
360	0
362	0
