Mass Spectrum: N'-(4-Methylsalicylidene)mandelohydrazide
Formula: C16H16N2O3
CAS: 328018-59-3
Molecular weight: 284
m/z	intensity
34	2
36	5
37	3
38	37
39	179
40	84
41	64
42	22
43	85
44	35
45	9
49	3
50	84
51	250
52	104
53	127
54	25
55	52
56	13
57	37
59	2
60	9
61	5
62	19
63	73
64	33
65	113
66	21
67	30
68	7
69	15
70	15
71	22
73	9
74	17
75	16
77	999
78	236
79	930
80	78
81	14
82	7
83	12
84	9
85	7
87	6
89	105
90	84
91	290
92	118
93	25
94	43
95	16
96	2
97	8
98	5
99	2
101	1
102	11
103	13
104	114
105	193
106	212
107	656
108	166
109	16
111	6
112	9
113	5
115	7
116	44
117	11
118	32
119	43
120	76
121	156
122	40
123	18
124	4
127	15
128	20
129	8
131	18
132	44
133	294
134	706
135	422
136	59
137	3
138	2
145	2
147	7
148	19
149	223
150	344
151	57
152	22
161	6
163	2
165	2
171	17
172	1
175	8
177	713
178	81
179	8
180	2
194	1
195	1
207	2
210	5
222	1
223	2
224	24
225	3
240	1
241	1
251	4
267	1
268	8
269	2
276	2
282	4
284	167
285	29
286	2
