Mass Spectrum: N-Benzylsuccinamic acid N'-[(2-hydroxy-1-naphthyl)methylene]hydrazide
Formula: C22H21N3O3
CAS: 328019-08-5
Molecular weight: 375
m/z	intensity
37	8
38	15
39	74
41	24
42	22
43	19
44	83
45	8
46	3
49	4
50	51
51	90
52	34
53	19
54	30
55	88
56	30
57	29
58	9
59	4
60	5
61	15
62	28
63	85
64	23
65	108
66	9
67	7
68	4
70	15
71	24
72	39
73	20
74	27
75	38
76	39
77	124
78	53
79	85
80	9
82	16
83	10
84	21
85	11
86	14
87	25
88	36
89	57
91	999
92	77
93	2
97	5
98	3
99	14
100	65
101	15
102	26
103	30
104	120
105	75
106	371
107	99
108	13
109	1
110	5
111	9
112	9
113	42
114	106
115	141
116	22
117	14
118	18
119	21
120	9
121	4
122	3
125	10
126	17
127	42
128	85
129	23
130	20
131	7
132	44
133	12
134	8
135	6
139	21
140	47
141	66
142	23
143	16
144	23
145	3
146	5
148	18
149	4
151	3
152	17
153	3
154	17
155	9
156	12
157	18
158	8
160	101
161	51
162	9
163	4
165	2
168	64
169	297
170	164
171	51
172	12
178	9
181	1
182	5
184	2
185	31
186	150
187	27
188	25
189	104
190	122
191	15
206	2
207	2
216	2
241	3
251	2
268	35
269	9
308	5
375	57
376	14
