Mass Spectrum: 2-(4-Chlorophenyl)-1,3-bis(m-tolyl)imidazolidine
Formula: C23H23ClN2
CAS: 328045-94-9
Molecular weight: 362
m/z	intensity
33	3
34	3
36	29
37	5
38	14
39	77
40	37
41	54
42	19
43	9
44	25
45	2
50	15
51	59
52	17
53	14
54	5
55	4
56	3
57	6
61	1
63	60
65	352
66	20
67	4
69	3
70	3
71	3
73	5
75	42
76	18
77	120
78	41
79	68
80	9
81	2
82	3
84	5
85	4
87	2
88	2
89	126
91	999
92	79
93	9
96	3
97	1
99	8
100	1
101	7
102	13
103	41
105	438
106	100
107	15
108	3
110	1
111	21
112	8
113	8
114	5
115	10
116	20
117	57
118	517
119	101
120	42
121	6
123	5
125	94
126	20
127	25
128	8
130	15
131	10
132	60
133	48
134	28
135	4
137	2
138	8
139	6
140	6
141	2
142	1
144	1
148	4
150	9
151	23
152	17
153	9
154	3
155	9
157	5
159	2
160	3
162	2
163	9
164	8
165	24
166	36
167	4
168	2
172	2
174	3
176	3
177	4
178	14
179	12
180	13
181	35
182	16
183	10
185	11
190	4
191	9
192	16
193	14
194	8
204	2
205	3
206	16
207	82
208	49
209	8
210	21
211	4
215	3
217	1
221	1
222	1
226	1
228	116
229	36
230	33
231	13
232	5
240	2
242	581
243	123
244	180
245	37
246	4
249	1
250	9
251	846
252	138
253	9
270	1
271	32
273	9
360	1
361	58
362	131
363	44
364	43
365	9
