Mass Spectrum: Acetic acid, 2-phenoxy-, (1,7,7-trimethylbicyclo[2.2.1]hept-2-ylidenamino) ester
Formula: C18H23NO3
CAS: 328023-79-6
Molecular weight: 301
m/z	intensity
33	0
34	2
37	17
38	57
39	422
40	105
41	391
42	94
43	103
44	40
45	50
46	1
47	0
50	101
51	299
52	65
53	173
54	54
55	169
56	26
57	24
58	7
59	12
60	5
61	10
62	24
63	74
64	34
65	230
66	77
67	294
68	65
69	94
70	18
71	8
73	7
74	26
75	20
76	38
77	999
78	130
79	405
80	64
81	104
82	116
83	24
84	14
85	4
86	1
87	1
88	1
89	10
91	241
92	51
93	768
94	381
95	76
96	36
97	4
98	4
99	1
100	1
101	0
102	4
103	15
104	9
105	55
106	50
107	826
108	441
109	733
110	82
111	7
112	2
113	0
114	0
115	7
116	7
117	27
118	12
119	16
120	21
121	19
122	18
123	19
124	18
125	3
126	1
127	1
128	1
129	3
130	2
131	4
132	12
133	42
134	910
135	96
136	22
137	4
138	2
139	5
140	0
141	0
143	0
144	3
145	0
146	0
147	1
148	20
149	205
150	168
151	31
152	550
153	49
154	5
155	0
160	0
162	0
163	0
164	14
165	1
166	7
167	8
168	2
171	2
173	1
175	1
178	12
179	1
180	3
189	2
192	0
207	0
208	61
209	8
210	0
228	0
257	0
258	0
285	1
301	27
302	5
303	0
