Mass Spectrum: Benzenamine, N-ethyl-, N-(1-methyl-2,2-dichlorocyclopropanecarbonyl)-
Formula: C13H15Cl2NO
CAS: 328003-03-8
Molecular weight: 271
m/z	intensity
34	20
35	29
36	89
38	236
39	268
40	168
41	224
42	86
43	91
44	46
45	10
46	20
49	138
50	385
51	791
52	225
53	280
54	56
55	61
56	16
57	19
60	50
61	114
62	81
63	136
64	135
65	156
66	44
67	21
68	11
69	64
70	9
72	16
73	39
74	35
75	47
77	999
78	78
79	23
80	20
81	33
82	25
83	39
84	21
85	36
86	91
87	250
88	61
89	110
90	69
91	129
92	52
93	28
94	14
95	24
96	25
98	25
101	7
103	82
104	332
105	108
106	37
107	9
109	7
115	46
117	58
118	93
119	111
120	117
121	23
122	105
123	82
124	57
125	57
126	7
127	31
128	45
129	26
130	22
132	256
133	20
142	16
143	32
144	45
145	30
146	42
147	10
148	22
151	34
153	16
156	11
158	9
159	52
160	50
161	9
172	32
174	73
175	209
176	14
178	19
180	9
192	10
194	9
206	10
208	34
210	6
271	33
273	16
