Mass Spectrum: 4-[2-Diethylaminoethyl]thiosemicarbazide
Formula: C7H18N4S
CAS: 32806-52-3
Molecular weight: 190
m/z	intensity
42	200
43	67
44	132
45	21
46	5
47	9
48	4
49	26
51	9
52	3
53	4
54	30
55	47
56	199
57	55
58	277
59	50
60	38
61	15
62	3
64	4
65	1
66	1
67	5
68	16
69	30
70	176
71	352
72	92
73	25
74	46
75	25
76	3
77	2
78	3
79	1
80	1
81	2
82	5
83	6
84	223
86	999
87	80
90	1
91	1
92	2
93	0
94	1
95	1
96	5
97	10
98	29
99	751
100	89
101	15
102	8
103	14
104	1
105	1
106	0
107	1
108	0
109	1
110	2
111	3
112	2
113	4
114	3
115	9
116	8
117	6
118	34
119	2
120	2
121	0
122	0
123	1
124	3
125	2
126	8
128	62
129	7
130	8
131	13
132	1
133	1
135	1
137	1
138	0
139	1
140	2
141	1
142	14
143	6
144	2
145	1
149	1
151	1
152	0
153	1
155	1
157	3
158	1
159	30
160	3
161	2
174	1
175	1
176	2
177	0
188	1
189	1
190	176
191	20
192	9
193	1
