Mass Spectrum: N-(4-Fluorophenyl)-3-[2-(N-phenyloxamoyl)hydrazono]butyramide
Formula: C18H17FN4O3
CAS: 328018-38-8
Molecular weight: 356
m/z	intensity
33	24
34	6
36	11
37	38
38	87
39	306
40	177
41	405
42	241
43	121
44	180
45	39
46	11
47	2
48	6
49	10
50	84
51	248
52	76
53	22
54	116
55	111
56	220
57	384
58	33
59	25
60	10
61	24
62	44
63	124
64	164
65	251
66	121
67	56
68	33
69	76
70	104
71	165
72	283
73	57
74	23
75	83
77	845
78	66
79	10
80	8
81	41
82	98
83	347
84	294
85	69
86	6
87	5
88	7
89	26
90	26
91	164
92	367
93	669
94	144
95	122
96	36
97	193
98	632
99	994
100	52
101	7
102	5
103	12
104	22
105	22
106	18
107	9
108	16
109	152
110	311
111	999
112	124
113	9
114	2
115	5
116	3
117	7
119	205
120	233
121	35
122	22
123	13
124	97
125	477
126	32
127	6
128	1
129	3
130	3
131	1
132	4
133	11
134	17
135	15
136	28
137	106
138	78
139	14
140	2
141	3
143	4
144	2
145	3
146	11
147	14
148	8
149	9
150	7
151	9
152	23
153	28
154	3
155	1
158	1
159	4
160	7
162	7
163	5
164	27
165	11
166	3
171	8
173	3
174	9
175	15
176	3
177	8
178	11
179	9
185	2
187	2
188	6
189	1
190	2
191	15
192	21
193	9
194	11
195	1
201	5
202	4
203	1
204	5
207	3
209	2
217	2
218	20
219	278
220	35
221	6
228	4
234	7
236	773
237	89
238	9
245	23
246	97
247	12
248	2
250	1
258	3
265	1
356	87
357	18
358	1
