Mass Spectrum: N-Phenyl-N'-(2-hydroxy-5-methoxybenzylidene) hydrazine
Formula: C14H14N2O2
CAS: 328076-84-2
Molecular weight: 242
m/z	intensity
26	10
27	18
28	39
29	11
36	4
37	10
38	36
39	130
40	17
41	39
42	6
43	9
47	4
50	40
51	103
52	111
53	65
54	34
55	29
57	8
61	7
62	23
63	66
64	68
65	331
66	94
67	21
68	4
69	12
70	4
71	5
74	8
75	8
76	16
77	133
78	51
79	73
80	45
81	9
82	6
83	7
85	5
89	5
90	10
91	47
92	235
93	999
94	124
95	100
96	7
102	6
104	6
105	27
106	44
107	55
108	75
109	16
115	5
117	16
118	9
119	82
120	11
121	22
122	14
123	108
124	19
134	192
135	54
136	72
137	101
138	36
139	9
143	4
144	4
149	84
150	155
151	42
152	7
154	7
169	9
170	5
171	8
181	12
182	11
183	6
197	7
198	7
199	9
209	5
210	14
211	7
212	6
215	5
225	50
226	20
227	32
228	4
241	79
242	600
243	86
