Mass Spectrum: S-Benzyl-N2-(4-nitrobenzoyl)cysteine N'-(4-propoxybenzylidene)hydrazide
Formula: C27H28N4O5S
CAS: 328019-32-5
Molecular weight: 520
m/z	intensity
33	7
34	4
36	2
37	9
38	17
39	91
40	28
41	85
42	45
43	105
44	27
45	73
46	7
47	7
48	3
50	49
51	59
52	21
53	14
54	4
55	17
56	6
57	16
58	4
59	5
60	8
61	12
62	26
63	56
64	34
65	156
66	13
67	5
68	12
69	14
70	12
71	11
72	3
73	5
74	12
75	29
76	86
77	69
78	47
79	17
80	18
81	10
82	4
83	7
84	6
85	5
86	4
87	9
89	44
91	999
92	141
93	28
94	32
95	7
96	2
97	5
98	3
99	2
101	5
102	75
103	20
104	168
105	47
106	40
107	27
108	14
109	6
110	3
111	3
112	6
113	4
114	2
115	5
116	4
117	9
119	129
120	172
121	110
122	33
123	17
124	162
125	17
126	9
127	2
128	2
129	4
130	2
131	4
132	6
133	8
134	33
135	65
136	164
137	24
138	4
139	2
140	2
145	3
146	6
147	5
148	51
149	58
150	303
151	28
152	7
154	6
155	2
159	3
160	7
161	26
162	65
163	104
164	72
165	10
166	9
167	7
168	2
171	10
172	2
173	4
174	3
175	5
176	13
177	74
178	200
179	185
180	20
181	5
182	2
187	4
188	12
189	17
190	7
191	8
192	7
193	9
194	3
199	2
201	2
203	19
204	10
205	102
206	13
207	3
208	2
215	3
216	3
217	4
218	9
219	16
220	5
221	3
223	2
225	4
229	8
230	9
231	28
232	18
233	7
234	3
235	3
237	2
246	17
247	3
248	2
250	2
251	15
252	3
253	2
263	13
264	3
266	2
267	3
268	2
283	2
313	2
326	2
328	74
329	12
330	5
352	2
353	4
354	19
355	7
367	3
383	2
396	28
397	12
398	4
399	2
427	2
429	69
430	14
431	6
520	3
