Mass Spectrum: Benzeneethanol, .alpha.,.alpha.,.beta.-trimethyl-
Formula: C11H16O
CAS: 3280-08-8
Molecular weight: 164
m/z	intensity
28	80
29	40
31	170
39	100
41	120
43	610
51	150
52	40
53	40
59	999
60	50
65	80
71	60
77	375
79	260
91	999
92	160
103	200
104	210
105	900
106	990
107	275
115	60
117	40
121	310
131	100
145	30
146	50
147	60
149	260
150	30
164	100
