Mass Spectrum: 1,2,4-Triazole, 4-(4-dimethylamino-3-nitrobenzylidenamino)-
Formula: C11H12N6O2
CAS: 328012-64-2
Molecular weight: 260
m/z	intensity
33	10
34	1
36	16
38	133
39	155
40	447
42	999
44	193
45	32
46	65
47	2
48	9
50	238
51	252
52	107
53	56
54	34
55	30
57	29
58	36
59	35
60	20
61	31
62	133
63	433
64	146
65	371
66	306
67	56
70	887
71	29
73	19
74	125
75	148
76	253
77	248
78	91
79	42
80	22
82	19
84	45
86	76
87	92
89	750
90	395
91	178
92	108
93	40
94	6
95	3
97	4
98	3
99	12
100	19
101	65
102	101
103	158
104	144
105	89
106	49
107	18
109	2
112	8
113	32
114	41
116	196
117	323
118	556
119	600
120	85
121	5
123	1
125	5
126	2
127	13
128	32
129	149
130	219
131	164
132	171
134	133
135	58
136	135
137	13
138	6
139	3
140	4
141	26
143	70
144	337
145	154
146	165
147	168
148	62
150	4
152	3
154	11
156	27
157	51
158	48
160	54
161	19
162	16
163	17
164	23
165	4
166	7
167	2
168	3
169	5
170	12
171	30
172	30
174	128
175	16
176	4
177	1
178	4
180	2
181	4
182	7
183	21
184	41
185	173
186	25
188	2
190	4
191	1
192	2
198	9
199	7
200	2
201	4
209	1
211	2
212	5
213	8
214	17
215	66
216	3
223	6
224	1
225	24
226	8
228	10
229	5
230	2
231	1
238	1
240	3
241	5
242	9
243	42
244	5
250	1
252	2
253	9
254	4
255	7
256	25
258	23
259	41
260	281
261	26
262	1
