Mass Spectrum: .alpha.-Benzamido-N'-(2-benzylidenepropylidene)-4-(diethylamino)cinnamohydrazide
Formula: C30H32N4O2
CAS: 328018-62-8
Molecular weight: 480
m/z	intensity
32	12
34	8
36	13
37	5
38	22
39	104
40	134
41	28
42	26
43	48
44	78
45	8
50	57
51	176
52	32
53	16
54	15
55	34
56	26
57	20
58	11
59	4
60	5
61	9
62	28
63	72
64	21
65	65
66	9
67	5
68	4
69	8
70	11
71	13
72	12
73	14
74	23
75	38
76	57
77	553
78	93
79	20
80	6
81	9
82	4
83	33
84	5
85	6
86	8
87	12
88	20
89	93
90	39
91	184
92	17
93	5
97	4
99	5
101	33
102	43
103	85
104	104
105	999
106	89
107	7
114	29
115	444
116	189
117	200
118	58
119	13
120	7
121	6
122	6
126	4
127	25
128	77
129	78
130	84
131	66
132	34
133	20
134	25
135	10
138	3
140	13
141	12
142	83
143	325
144	266
145	162
146	81
147	21
149	23
152	10
155	5
156	9
157	78
158	103
159	310
160	112
161	19
162	89
163	10
165	4
170	8
171	26
172	124
173	156
174	28
175	7
176	8
177	5
184	5
185	20
186	44
187	887
188	169
189	66
190	11
192	4
198	4
199	8
200	7
201	10
202	8
203	8
204	7
205	4
214	17
215	65
216	22
217	11
218	5
219	5
231	16
232	9
238	9
245	4
246	9
247	14
248	5
249	5
260	7
261	11
262	6
263	4
265	5
266	89
267	20
274	35
275	23
276	11
277	40
278	8
279	9
288	8
289	6
290	6
291	12
292	10
293	15
294	11
302	8
304	136
305	58
306	9
307	5
316	6
317	11
318	146
319	114
320	361
321	332
322	79
323	10
332	4
333	5
335	7
337	10
343	4
344	4
357	5
358	6
359	7
360	4
375	4
385	4
447	13
448	4
460	5
462	169
463	52
464	9
465	5
478	4
480	124
481	41
482	6
