Mass Spectrum: N'-(4-Cyanobenzylidene)-2-phenylacethydrazide
Formula: C16H13N3O
CAS: 328045-84-7
Molecular weight: 263
m/z	intensity
39	320
40	30
41	48
42	9
43	18
44	19
46	17
50	105
51	97
52	25
53	5
55	2
59	5
62	105
63	127
65	316
72	4
74	22
75	37
76	25
77	13
78	6
79	4
91	999
99	5
102	62
103	6
104	5
105	4
106	4
114	38
115	38
118	306
119	26
128	24
129	15
130	3
131	3
134	107
135	208
144	94
145	46
146	5
156	6
172	7
190	3
263	45
264	7
