Mass Spectrum: Acetamide, N-[3-(2-hydroxybenzylidenamino)phenyl]-
Formula: C15H14N2O2
CAS: 328033-07-4
Molecular weight: 254
m/z	intensity
34	1
38	34
39	150
40	6
41	46
42	79
43	999
44	37
45	6
50	37
51	75
52	41
53	21
54	5
63	83
64	79
65	186
66	77
67	12
68	0
76	25
77	94
78	33
79	0
90	32
91	66
92	145
93	275
94	33
95	0
101	6
102	33
103	10
104	18
105	25
106	10
107	0
119	25
120	55
121	20
122	13
123	53
124	4
127	60
128	60
129	18
130	13
131	0
135	24
136	2
139	17
140	15
141	7
142	0
144	3
145	6
146	2
154	36
155	19
156	19
157	9
158	0
166	41
167	53
168	31
169	10
170	9
171	4
172	0
181	12
182	25
183	49
184	26
185	7
186	2
187	0
194	18
195	128
196	141
197	24
198	2
211	508
212	374
213	49
214	4
215	1
222	14
223	1
236	11
237	22
238	11
239	89
240	16
241	2
253	69
254	760
255	132
256	14
257	1
