Mass Spectrum: Cyclopropane, 1-bromo-2-butyl-, trans-
Formula: C7H13Br
CAS: 32816-30-1
Molecular weight: 176
m/z	intensity
12	1
13	3
14	9
15	30
16	1
17	1
18	3
25	2
26	46
27	369
28	65
29	207
30	4
31	0
32	0
36	1
37	12
38	33
39	302
40	43
41	438
42	316
43	121
44	4
45	1
46	1
47	0
48	0
49	2
50	38
51	58
52	27
53	193
54	97
55	999
56	76
57	72
58	3
60	0
61	4
62	7
63	12
64	2
65	20
66	11
67	82
68	18
69	73
70	236
71	13
74	1
75	0
77	5
78	1
79	9
80	4
81	18
82	4
83	2
91	2
92	3
93	13
94	3
95	12
96	17
97	263
98	20
99	2
104	0
105	4
106	19
107	8
108	18
109	4
117	1
119	16
120	5
121	15
122	4
127	2
128	4
132	0
133	6
134	7
135	10
136	6
137	3
147	0
148	2
149	1
150	2
176	9
177	1
178	9
179	1
