Mass Spectrum: N-(3-Dimethylamino-propyl)-2-iodo-benzamide
Formula: C12H17IN2O
CAS: 328126-11-0
Molecular weight: 332
m/z	intensity
36	1
38	1
39	3
40	3
41	9
42	45
43	15
44	31
45	7
46	2
50	19
51	8
52	1
53	0
54	1
55	2
56	19
58	999
59	52
60	1
62	0
63	2
64	2
65	1
68	1
69	1
70	30
71	16
72	76
73	5
74	7
75	9
76	48
77	28
78	4
79	0
82	2
83	4
84	26
85	14
86	1
89	0
90	1
91	3
92	1
99	2
100	0
101	5
102	1
103	3
104	7
105	45
106	3
111	0
115	0
116	1
117	3
118	1
119	1
120	0
121	0
127	19
128	29
129	2
130	0
131	1
132	4
133	3
134	8
135	1
142	0
146	2
147	1
148	1
158	0
159	1
160	1
161	1
162	1
165	0
171	0
174	0
175	0
176	0
177	0
189	0
191	0
192	0
201	0
203	68
204	7
205	2
206	5
207	0
215	9
216	1
217	0
229	1
231	97
232	7
233	1
234	0
245	0
247	2
248	2
254	3
259	0
260	22
261	4
262	0
274	2
275	0
287	0
288	6
289	3
290	0
291	0
292	1
317	13
318	1
329	0
330	3
332	117
333	14
334	1
