Mass Spectrum: Cyclopentanecarboxylic acid, 3-oxo-, methyl ester
Formula: C7H10O3
CAS: 32811-75-9
Molecular weight: 142
m/z	intensity
27	316
28	138
29	205
30	23
31	21
32	19
33	5
36	0
37	3
38	10
39	159
40	19
41	136
42	86
43	115
44	13
45	23
46	4
47	0
49	1
50	8
51	19
52	9
53	64
54	125
55	999
56	86
57	31
58	79
59	216
60	9
61	3
62	0
63	1
64	0
65	2
66	2
67	7
68	25
69	60
70	5
71	27
72	65
73	16
74	21
75	6
76	0
77	4
78	0
79	2
80	0
81	18
82	91
83	758
84	46
85	78
86	160
87	83
88	10
89	2
90	0
91	0
92	0
93	1
94	0
95	6
96	4
97	12
98	6
99	91
100	32
101	22
102	3
103	3
104	0
105	1
106	0
107	1
108	1
109	3
110	4
111	189
112	19
113	39
114	711
115	61
116	6
117	1
118	0
121	0
122	1
123	1
124	1
125	6
126	3
127	9
128	14
129	9
130	3
131	5
132	1
133	1
134	0
135	0
137	0
138	0
139	1
140	5
141	6
142	187
143	25
144	3
