Mass Spectrum: Furan-2-carboxamide, N-(2,4-dimethoxyphenyl)-
Formula: C13H13NO4
CAS: 328258-35-1
Molecular weight: 247
m/z	intensity
34	0
35	1
37	101
38	261
39	923
40	62
41	67
42	28
43	22
44	18
45	5
47	0
49	8
50	69
51	165
52	211
53	110
54	28
55	20
56	7
57	6
58	3
59	15
60	0
61	8
62	28
63	42
64	27
65	75
66	70
67	101
68	41
69	72
70	3
71	0
73	1
74	6
75	12
76	22
77	48
78	51
79	124
80	64
81	28
82	13
83	2
84	2
86	1
87	1
88	3
89	6
90	24
91	21
92	61
93	110
95	999
97	32
98	0
99	1
100	0
101	1
102	2
103	1
104	4
105	4
106	14
107	53
108	42
109	61
110	26
111	3
112	0
115	1
116	2
117	3
118	1
119	2
120	5
121	7
122	71
123	26
124	71
125	17
126	0
128	1
130	1
131	1
132	1
133	1
134	3
135	4
136	18
138	48
139	8
145	3
146	0
147	1
148	1
149	2
150	8
152	98
153	9
154	17
155	0
156	0
158	0
159	0
160	3
161	0
164	3
165	0
172	0
173	1
175	1
176	2
179	0
184	0
188	0
190	2
192	0
200	0
202	1
204	1
215	1
216	6
218	0
230	0
231	0
232	10
246	26
247	103
248	12
249	1
