Mass Spectrum: 1-(4-Bromo-phenyl)-3-(2-butoxy-phenyl)-urea
Formula: C17H19BrN2O2
CAS: 328281-17-0
Molecular weight: 362
m/z	intensity
33	0
34	6
36	1
37	6
38	17
39	101
40	123
41	273
42	22
43	27
44	38
45	6
49	0
50	24
51	39
52	102
53	79
54	16
55	54
56	15
57	113
58	4
60	0
61	2
62	13
63	65
64	66
65	150
66	21
67	6
68	2
69	8
70	10
71	11
72	1
73	1
74	5
75	23
76	29
77	22
78	26
79	102
80	306
81	39
82	11
83	8
84	5
85	2
87	0
88	1
89	4
90	64
91	99
92	136
93	54
94	20
95	7
96	2
97	3
98	1
99	0
102	0
103	1
104	3
105	8
106	14
108	289
109	999
110	80
111	6
112	7
113	3
115	0
117	5
118	6
119	13
120	45
121	7
122	39
123	6
127	10
128	3
129	4
130	0
131	1
132	1
133	4
135	226
136	97
137	8
139	1
143	11
144	2
145	10
146	2
147	1
148	2
149	5
150	8
151	1
152	2
153	1
154	2
155	16
157	17
162	0
164	31
165	343
166	39
167	4
169	32
171	810
172	98
173	707
174	44
175	1
181	2
182	1
184	2
191	14
192	4
193	1
197	41
198	10
199	36
200	5
210	0
226	5
227	1
283	4
284	5
305	3
306	0
307	3
318	1
320	0
362	297
363	70
364	247
365	45
366	5
