Mass Spectrum: Ethyl 2-chloro-3,3,3-trifluoro-2-propionamidopropionate
Formula: C8H11ClF3NO3
CAS: 328270-31-1
Molecular weight: 261
m/z	intensity
33	1
35	4
36	14
37	2
38	6
39	3
40	6
41	6
42	11
43	17
44	26
45	23
46	2
47	3
48	1
49	1
50	5
51	6
52	1
53	2
54	6
55	25
56	148
57	999
58	34
59	3
60	1
62	11
63	2
64	4
65	1
66	1
67	2
69	32
70	4
71	8
72	4
73	7
74	2
75	1
76	3
77	5
78	4
79	3
81	1
82	1
83	2
84	2
85	4
87	3
90	2
91	1
92	1
93	1
94	1
95	5
96	23
97	5
98	3
99	1
100	4
101	1
103	1
104	1
105	1
108	3
109	1
110	1
112	7
113	13
114	7
115	9
116	2
117	1
118	2
120	1
121	1
123	4
124	2
125	5
126	1
129	1
130	7
131	1
132	11
133	2
134	5
135	1
136	2
137	1
138	1
139	1
140	1
141	16
142	13
143	7
144	2
146	1
147	1
149	2
150	1
151	3
152	1
153	7
154	4
155	1
158	6
159	1
160	3
161	1
162	1
167	1
168	3
169	28
170	18
171	10
172	1
173	2
174	1
176	8
177	1
178	2
181	2
182	1
186	1
188	3
189	33
190	4
191	11
192	1
198	4
199	1
204	5
205	1
206	2
214	1
216	14
217	2
218	5
219	1
