Mass Spectrum: Ethyl 2-benzamido-3,3,3-trifluoro-2-(3-fluoroanilino)propionate
Formula: C18H16F4N2O3
CAS: 328270-37-7
Molecular weight: 384
m/z	intensity
33	4
34	1
36	2
37	3
38	7
39	11
40	10
41	5
42	2
43	8
44	16
45	3
46	1
47	1
50	34
51	88
52	9
53	3
54	1
55	4
56	3
57	12
58	2
61	1
62	3
63	6
64	5
65	4
66	1
67	1
69	16
70	3
71	3
72	1
74	10
75	38
77	367
78	24
79	2
81	3
83	23
84	14
85	3
86	1
89	1
90	1
91	3
92	2
93	2
94	8
95	121
96	14
97	1
102	1
103	8
105	999
106	70
107	5
108	1
109	4
110	10
111	47
112	4
113	1
117	1
121	24
122	34
123	3
124	1
135	1
136	2
137	10
138	2
150	9
151	1
163	1
165	1
171	2
185	3
186	1
187	1
190	57
191	5
194	1
205	21
206	3
208	1
212	1
263	19
264	2
293	1
294	1
311	78
312	11
313	1
315	3
384	14
385	3
