Mass Spectrum: d-Arabinosamine, N-(3-carboxyphenyl)-
Formula: C12H15NO6
CAS: 328241-63-0
Molecular weight: 269
m/z	intensity
37	72
38	259
39	744
40	191
41	312
42	369
43	828
44	311
45	999
46	15
50	224
51	224
52	161
53	105
54	34
55	75
56	13
57	159
58	23
60	18
61	72
62	43
63	173
64	95
65	556
66	53
68	154
69	22
73	16
74	15
75	63
76	56
77	70
78	26
80	14
81	12
87	21
90	16
91	51
92	255
93	25
104	14
105	17
106	11
120	160
121	41
122	3
137	405
138	7
148	126
149	9
165	100
166	10
