Mass Spectrum: Acetic acid, 2-(5-methyl-2-benzimidazolyl)thio-, benzyl ester
Formula: C17H16N2O2S
CAS: 328284-78-2
Molecular weight: 312
m/z	intensity
33	15
35	1
36	8
37	4
38	12
39	104
41	42
42	21
43	12
45	62
46	14
47	3
50	26
51	121
52	42
53	12
54	3
55	3
57	2
58	11
60	2
61	1
62	9
63	27
65	197
66	11
67	2
69	5
70	8
72	3
74	3
76	32
77	205
78	95
79	61
80	4
81	1
82	2
83	3
84	5
85	0
87	1
88	3
89	42
91	999
92	69
93	3
95	2
96	3
102	9
103	15
104	67
105	23
106	39
107	20
108	15
109	11
110	3
113	1
115	0
116	15
117	7
118	19
119	7
120	5
121	12
123	7
124	0
125	0
129	8
131	46
133	187
134	16
136	79
137	6
138	3
139	0
143	21
145	22
146	23
147	9
148	8
149	5
150	3
151	2
159	4
161	4
162	5
163	113
164	279
165	25
166	13
167	2
171	1
172	4
173	53
175	15
176	42
177	439
178	86
179	26
180	5
181	1
191	1
193	2
194	0
195	0
204	28
205	12
206	1
209	1
219	1
220	9
221	53
222	15
223	2
232	0
233	12
235	50
236	7
237	3
238	3
239	1
251	1
253	36
254	4
255	0
265	4
266	1
267	12
268	2
269	1
309	1
310	2
311	3
312	235
313	39
314	14
315	2
