Mass Spectrum: Ethyl 2-benzamido-3,3,3-trifluoro-2-morpholinopropionate
Formula: C16H19F3N2O4
CAS: 328270-47-9
Molecular weight: 360
m/z	intensity
33	1
37	1
38	1
39	5
40	9
41	9
42	16
43	12
44	23
45	19
46	1
47	1
50	14
51	47
52	5
53	2
54	7
55	13
56	35
57	19
58	6
59	2
60	1
63	1
64	1
65	1
67	1
68	2
69	14
70	6
71	3
72	2
73	2
74	5
75	6
76	26
77	256
78	19
79	2
81	1
82	1
83	4
84	3
86	189
87	15
88	2
89	1
90	2
91	2
92	1
95	1
96	8
97	2
98	2
100	2
101	1
103	12
105	999
106	69
107	5
108	2
109	4
110	2
111	1
112	2
113	3
114	2
115	1
116	1
117	1
118	1
119	1
121	1
122	8
123	2
124	3
125	5
126	1
129	1
130	1
131	1
132	2
133	1
134	1
135	2
136	1
137	2
138	2
139	2
140	1
142	1
145	1
146	3
147	3
148	5
149	2
151	2
152	1
153	1
154	2
157	1
161	1
162	1
163	1
164	1
165	1
166	3
167	3
168	3
170	1
171	2
172	1
180	1
181	4
182	2
184	25
185	2
187	1
188	2
189	1
190	1
191	5
192	2
193	1
196	1
200	1
201	1
202	1
207	3
208	1
209	2
210	9
211	2
212	2
217	1
219	18
220	2
221	1
226	1
229	8
230	2
238	2
239	9
240	5
241	1
245	1
253	1
258	1
270	1
274	1
275	5
276	1
281	1
284	1
285	1
286	2
287	60
288	8
289	1
291	2
315	1
317	35
318	5
319	1
360	2
