Mass Spectrum: Propanamide, 3-(1-pyrrolidinyl)-N-(2-thiazolyl)-
Formula: C10H15N3OS
CAS: 328285-46-7
Molecular weight: 225
m/z	intensity
33	4
34	1
38	0
39	15
40	26
41	54
42	158
43	65
44	13
45	23
46	2
47	0
48	0
50	0
51	0
53	8
54	14
55	120
56	38
58	24
59	9
60	1
63	0
65	0
66	0
67	3
68	14
69	45
70	195
71	36
72	6
73	2
74	0
75	0
77	2
78	0
79	2
80	2
82	31
83	67
84	999
85	50
86	3
89	0
91	1
94	0
96	26
97	162
98	31
99	5
100	22
101	29
102	2
103	1
104	0
105	12
106	3
108	0
111	0
112	7
113	8
114	0
115	0
123	1
124	32
125	157
126	16
127	20
128	2
129	1
137	0
139	0
140	2
142	2
143	0
153	1
154	1
155	11
156	10
157	1
171	0
183	1
185	1
197	0
224	0
225	12
226	1
227	0
