Mass Spectrum: Ethyl 2-acetamido-2-(benzylamino)-3,3,3-trifluoropropionate
Formula: C14H17F3N2O3
CAS: 328270-15-1
Molecular weight: 318
m/z	intensity
32	6
34	1
37	1
38	4
39	30
40	21
41	15
43	300
44	36
45	5
46	1
47	1
50	10
51	22
52	8
53	3
54	2
55	3
56	1
57	2
59	15
60	12
61	1
62	5
63	17
65	93
66	5
67	1
69	14
70	2
71	1
72	1
73	1
74	2
75	2
76	5
77	33
78	12
79	33
80	3
81	1
83	1
85	1
86	1
87	1
88	2
89	33
91	999
92	65
93	3
96	9
97	3
98	1
101	1
102	1
103	5
104	14
106	340
107	33
108	3
109	5
110	1
113	8
114	2
115	1
116	6
117	12
118	3
119	1
123	2
125	5
126	2
127	1
129	2
131	2
132	2
133	4
134	1
135	3
139	2
140	2
141	1
142	3
143	1
145	1
146	1
147	1
148	1
154	1
155	1
158	1
159	2
162	2
165	20
166	7
167	3
170	1
171	1
179	3
185	71
186	21
187	4
190	1
194	1
201	11
203	125
204	9
205	1
207	7
208	1
210	1
213	2
214	9
215	1
225	2
230	5
237	1
245	72
246	6
247	1
249	2
257	1
259	8
260	1
