Mass Spectrum: Ethyl 2-acetamido-3,3,3-trifluoro-2-[4-(trifluoromethyl)anilino]propionate
Formula: C14H14F6N2O3
CAS: 328270-16-2
Molecular weight: 372
m/z	intensity
33	6
35	1
36	4
37	3
38	8
39	15
40	78
41	20
43	999
44	77
45	10
46	2
47	2
48	1
50	14
51	9
52	6
53	2
54	3
55	6
56	4
57	9
58	4
59	10
60	12
61	2
62	4
63	11
64	7
65	7
66	3
67	1
68	2
69	28
70	3
71	2
72	1
73	3
74	4
75	14
76	6
77	7
78	5
79	2
80	1
81	3
82	2
83	7
84	3
85	2
87	2
88	4
89	2
90	3
91	6
92	3
93	10
94	4
95	19
96	19
97	2
99	4
100	2
101	1
102	2
103	1
104	1
105	1
106	1
107	2
108	1
109	2
110	1
111	12
112	3
113	8
114	12
115	3
116	1
118	7
119	5
120	3
121	3
122	1
123	2
124	1
125	11
126	10
127	3
128	2
132	2
133	4
134	1
136	1
137	1
139	3
140	9
141	6
142	36
143	5
145	97
146	8
149	1
150	1
151	1
152	3
153	1
156	1
158	1
159	3
160	11
161	82
162	17
163	2
166	1
167	5
168	2
169	1
170	12
171	4
172	27
173	3
174	1
185	1
186	3
187	16
188	3
189	2
197	1
198	1
200	9
201	1
202	1
213	1
215	1
220	1
221	2
231	1
233	6
234	1
235	3
236	2
237	4
238	5
240	41
241	6
242	1
252	1
253	3
254	4
255	26
257	331
258	29
259	2
261	11
262	2
266	1
269	1
282	1
283	2
291	3
292	1
294	6
295	1
296	2
299	95
300	10
301	1
303	2
311	1
313	8
314	2
353	2
372	16
373	2
