Mass Spectrum: Ethyl 2-benzamido-3,3,3-trifluoro-2-(4-fluoroanilino)propionate
Formula: C18H16F4N2O3
CAS: 328270-36-6
Molecular weight: 384
m/z	intensity
33	1
37	1
38	2
39	5
40	6
41	3
42	1
43	4
44	7
45	1
46	1
47	1
50	14
51	52
52	5
53	1
54	1
55	2
56	2
57	9
58	1
61	1
62	1
63	3
64	3
65	2
66	1
67	1
68	1
69	8
70	2
71	2
73	2
74	4
75	18
76	25
77	306
78	19
79	2
81	2
82	3
83	18
84	10
85	1
89	1
90	1
91	2
92	1
93	2
95	68
96	9
97	1
103	9
105	999
106	72
107	4
108	1
109	3
110	14
111	48
112	5
113	1
120	1
121	9
122	31
123	3
133	1
135	1
136	3
137	9
138	2
147	1
150	8
151	1
163	1
165	1
170	1
171	3
184	1
185	3
186	1
187	1
188	1
190	66
191	7
194	2
196	1
204	1
205	19
206	3
207	2
208	1
209	1
212	1
215	1
219	1
229	1
254	1
261	1
262	1
263	39
264	4
293	1
294	1
308	1
309	2
311	110
312	16
313	2
315	7
316	1
383	1
384	31
385	6
386	1
