Mass Spectrum: Pyrazole, 4-chloro-1-(2-methylbenzoyl)-
Formula: C11H9ClN2O
CAS: 328251-54-3
Molecular weight: 220
m/z	intensity
33	3
35	0
36	2
37	9
38	37
39	83
40	10
41	23
42	1
43	0
44	0
45	2
47	15
48	2
49	6
50	17
51	32
52	9
53	2
54	0
59	0
60	2
61	3
62	17
63	50
65	223
66	10
67	0
73	10
74	10
75	11
76	7
77	7
78	3
79	3
80	0
83	0
85	0
86	3
87	2
89	63
91	606
92	34
96	0
97	0
99	0
101	4
102	7
103	3
104	2
105	1
109	4
110	2
111	0
112	0
114	0
116	3
118	642
119	999
120	84
121	4
122	0
123	0
126	0
128	3
129	1
130	1
131	0
132	0
133	0
136	0
140	0
145	0
154	0
155	2
156	0
157	1
158	0
160	0
163	0
164	1
168	0
173	0
174	0
183	2
185	3
186	0
190	0
191	0
192	0
202	0
203	1
205	4
206	0
207	1
217	0
220	80
221	10
222	24
223	2
