Mass Spectrum: 1,3-Dioxo-2-(4-pyridyl)isoindoline-5-carboxylic acid
Formula: C14H8N2O4
CAS: 328265-52-7
Molecular weight: 268
m/z	intensity
37	128
38	431
39	608
40	157
41	164
42	197
43	44
44	176
45	309
50	574
51	493
52	189
53	173
54	9
55	11
56	4
57	3
58	0
60	1
61	16
62	71
63	242
64	264
65	256
66	118
67	53
68	0
69	4
70	8
73	173
74	696
75	999
76	161
77	78
78	335
79	26
80	3
85	0
86	5
87	11
88	12
89	11
90	75
91	54
92	160
93	11
94	3
97	14
99	2
100	9
101	62
102	325
103	504
104	44
105	3
106	5
111	0
113	3
114	2
119	133
120	513
121	40
128	1
129	20
130	10
134	5
139	1
140	18
141	3
146	90
147	20
148	329
149	27
152	1
153	24
154	5
167	3
168	19
174	52
178	16
179	165
180	132
181	7
195	14
196	4
197	8
207	23
223	27
224	289
225	30
251	0
268	542
269	74
270	1
