Mass Spectrum: Ethyl 5-(diacetylamino)-3-phenyl-2(3H)-thioxothiazole-4-carboxylate
Formula: C16H16N2O4S2
CAS: 328267-36-3
Molecular weight: 364
m/z	intensity
34	1
36	0
37	1
38	2
39	11
40	16
41	12
42	39
43	999
45	47
46	2
47	18
48	1
50	10
51	64
52	7
54	2
55	4
56	1
57	6
58	2
59	1
60	2
61	6
62	4
63	6
64	9
65	6
66	2
68	1
69	4
70	21
71	22
72	11
73	8
74	5
75	4
76	23
77	173
78	20
79	3
80	1
81	1
82	2
83	2
84	6
85	3
86	2
87	2
88	5
89	6
90	10
91	10
92	6
93	4
94	2
95	3
96	1
97	1
98	1
99	36
100	3
101	2
102	4
103	19
104	37
105	5
106	1
107	1
108	7
109	22
110	4
111	2
112	2
113	1
114	2
115	3
116	5
117	18
118	7
119	25
120	3
121	4
122	3
123	3
124	1
125	1
127	1
128	3
129	4
130	2
131	7
132	8
133	0
134	5
135	31
136	169
137	17
138	7
139	1
140	1
141	5
142	3
143	25
144	4
145	18
146	5
147	13
148	4
149	3
150	1
151	1
152	1
153	1
156	1
157	3
158	1
159	1
160	0
161	5
162	3
163	4
164	7
165	0
166	4
167	11
168	6
169	5
171	2
172	0
173	3
174	1
175	3
176	1
178	2
179	1
180	2
188	0
189	4
190	3
191	3
192	2
194	0
201	0
202	0
203	2
204	5
205	7
206	17
207	7
208	27
209	3
210	1
212	0
221	0
223	0
232	0
233	24
234	18
235	23
236	8
237	2
238	0
239	1
245	0
247	0
250	2
251	15
252	125
253	17
254	11
255	0
261	2
264	1
265	0
275	8
276	2
277	22
278	4
279	26
280	505
281	88
282	53
283	6
284	0
292	0
307	2
308	0
309	0
321	0
322	109
323	15
324	8
325	1
348	0
364	33
365	5
366	3
