Mass Spectrum: Ethyl 2-acetamido-2-(2,4-difluoroanilino)-3,3,3-trifluoropropionate
Formula: C13H13F5N2O3
CAS: 328270-23-1
Molecular weight: 340
m/z	intensity
33	24
34	7
38	4
40	139
41	18
43	999
44	114
45	11
46	2
50	14
51	14
52	7
54	3
55	9
56	8
57	23
58	5
59	25
60	8
61	5
62	14
63	68
64	8
67	1
69	156
70	6
71	3
72	2
73	6
75	22
76	8
77	7
78	6
79	2
81	18
82	25
83	15
84	3
85	2
87	4
88	8
89	5
90	2
91	2
92	4
93	11
94	7
96	35
97	4
98	2
99	4
101	96
102	33
103	1
108	24
109	17
110	14
111	3
112	15
113	97
114	13
120	20
121	3
123	1
125	3
126	3
127	10
128	51
129	548
130	52
131	3
132	1
135	1
136	3
137	1
138	1
139	24
140	134
141	12
142	37
153	3
154	9
155	50
156	6
157	1
158	9
165	1
168	29
170	27
171	4
181	4
184	5
185	6
189	7
201	9
204	7
205	70
206	9
208	295
209	27
223	5
225	641
226	49
227	1
229	21
230	3
251	2
259	1
267	151
268	14
269	1
271	5
281	66
282	7
340	45
341	7
