Mass Spectrum: Ethyl 2-acetamido-3,3,3-trifluoro-2-[2-(trifluoromethyl)anilino]propionate
Formula: C14H14F6N2O3
CAS: 328270-18-4
Molecular weight: 372
m/z	intensity
37	1
43	999
44	23
45	5
46	8
47	5
50	15
51	9
52	6
58	2
59	12
60	9
61	2
62	5
63	16
64	7
65	6
66	2
69	94
74	9
75	34
76	15
77	11
78	4
83	1
87	2
88	9
89	4
90	8
91	9
92	4
93	4
94	6
95	45
96	33
97	2
98	1
99	6
100	5
101	4
102	42
103	4
106	1
107	6
108	1
109	2
110	1
111	1
113	20
114	91
115	7
116	3
117	1
118	4
119	6
120	12
121	6
122	9
123	6
125	34
126	29
127	11
128	2
129	6
130	1
131	1
132	4
133	5
134	2
136	1
139	8
140	16
141	120
142	50
143	6
145	187
146	12
147	25
148	3
149	6
150	1
151	1
152	36
153	4
154	2
159	1
161	300
162	24
163	2
165	1
167	88
168	11
169	16
170	30
171	5
172	70
173	7
174	2
176	1
180	1
187	61
188	7
189	3
190	2
195	1
197	196
198	18
199	1
200	26
201	3
203	1
213	3
215	9
217	102
218	63
219	6
221	9
222	1
231	1
233	10
234	2
235	35
237	53
238	12
240	152
241	17
242	1
255	16
257	622
258	52
259	3
261	29
262	4
263	1
266	6
267	1
269	2
283	3
291	4
292	1
294	4
299	228
300	24
301	1
303	4
313	34
314	5
372	52
373	5
