Mass Spectrum: 5-Acetyl-3-(2-aminoethyl)indole-2-carboxylic acid
Formula: C13H14N2O3
CAS: 3283-93-0
Molecular weight: 246
m/z	intensity
33	3
36	28
37	27
39	196
40	26
41	115
43	999
44	740
45	175
46	25
50	99
51	191
53	105
54	20
55	114
56	63
57	106
58	5
60	71
62	25
63	99
64	26
65	73
67	16
69	27
70	28
71	24
72	5
74	33
75	31
76	37
77	98
78	85
79	12
80	1
81	16
82	9
83	27
84	8
85	11
87	4
88	13
89	41
91	13
92	42
93	6
95	1
97	8
98	6
99	7
100	20
101	58
102	16
103	8
104	9
105	11
106	16
107	15
108	8
109	5
112	4
114	12
115	47
116	40
117	11
122	18
123	16
126	11
127	64
128	82
129	66
130	38
134	9
135	20
140	16
141	13
142	33
143	32
144	52
145	22
149	1
154	3
155	26
156	76
157	8
158	4
171	186
172	19
173	9
174	8
183	3
184	23
185	16
198	19
199	82
200	12
201	15
202	10
213	123
214	25
215	9
216	1
217	185
218	34
219	5
220	1
228	76
229	14
230	1
246	11
247	1
