Mass Spectrum: Imidazolidine-4-one, 5-phenylmethylene-3-phenyl-2-thioxo-
Formula: C16H12N2OS
CAS: 32832-07-8
Molecular weight: 280
m/z	intensity
33	11
37	3
39	97
40	14
41	7
42	0
44	4
45	11
50	35
51	159
52	23
53	3
57	1
59	6
61	3
62	11
63	87
64	44
65	26
66	2
69	8
70	3
74	14
75	23
77	325
78	19
79	2
82	6
84	4
86	5
87	4
89	212
90	245
91	53
92	5
93	5
94	0
95	0
96	7
97	1
100	0
102	51
103	11
104	22
105	5
106	5
107	1
108	10
109	38
110	5
111	6
112	4
113	2
114	6
117	999
118	67
120	2
121	3
122	1
123	1
124	5
125	9
126	7
127	0
128	4
129	4
131	0
133	7
134	8
136	215
137	15
138	8
139	1
140	20
142	1
143	0
144	15
145	1
148	4
149	0
150	4
159	0
160	38
161	3
162	2
165	3
169	0
174	0
175	16
176	1
182	1
188	4
189	0
191	1
192	2
193	5
203	0
204	0
218	0
219	0
220	0
222	6
223	6
224	4
225	0
247	5
248	1
250	1
251	32
252	4
264	3
276	5
278	14
279	253
280	614
281	100
282	35
283	3
