Mass Spectrum: Xylofuranose, 1,2-O-isopropylidene-4-thio-, .alpha.-D-
Formula: C8H14O4S
CAS: 32848-97-8
Molecular weight: 206
m/z	intensity
39	110
41	250
42	90
43	999
44	90
45	290
46	60
47	80
55	180
56	220
57	160
58	120
59	999
60	270
61	160
69	70
71	499
72	80
73	310
74	440
75	100
85	310
89	180
100	410
101	999
102	90
103	60
129	90
130	80
131	130
143	400
148	450
149	60
191	410
192	60
193	60
206	350
207	50
