Mass Spectrum: Benzenesulfonamide, N-(4-bromophenyl)-4-methyl-
Formula: C13H12BrNO2S
CAS: 32857-48-0
Molecular weight: 325
m/z	intensity
33	13
34	2
35	0
36	3
37	19
38	75
39	195
40	51
41	57
42	3
43	4
44	17
45	23
48	9
50	46
51	62
52	38
53	11
54	2
55	2
56	0
57	2
58	1
59	1
61	16
62	61
63	231
64	165
65	336
66	21
67	10
69	6
70	2
71	3
72	0
73	2
74	8
75	11
76	10
77	31
78	14
79	12
80	9
81	5
82	7
83	1
84	1
85	2
86	5
87	5
89	79
90	132
91	999
92	104
93	7
94	1
95	3
96	0
97	0
98	0
100	0
101	0
102	0
103	0
104	1
105	2
106	4
107	5
108	3
109	1
110	1
111	5
112	1
113	0
114	0
115	3
116	2
117	13
119	14
120	2
121	2
122	1
123	2
124	1
125	0
126	0
127	2
128	3
129	1
130	0
131	0
139	32
140	6
141	3
143	38
145	36
146	2
151	1
152	4
153	9
155	312
156	28
157	14
158	1
159	0
164	0
165	1
166	4
167	16
168	7
170	209
171	44
172	174
173	23
174	1
178	1
180	19
181	16
182	28
183	4
184	0
197	0
245	1
246	0
247	1
248	0
260	4
261	1
262	3
263	1
301	0
319	0
320	2
322	5
323	7
325	89
326	8
327	88
328	8
329	3
330	0
