Mass Spectrum: 1H-Indole-2(3H)-one, 3-(2,2,6,6-tetramethylpiperidin-4-yl)imino-
Formula: C17H23N3O
CAS: 328556-29-2
Molecular weight: 285
m/z	intensity
33	1
34	2
36	1
37	3
38	7
39	84
40	46
41	297
42	368
43	121
44	42
45	36
46	2
48	0
49	1
50	8
51	19
52	11
53	32
54	17
55	177
56	87
57	156
58	545
59	21
60	3
61	1
62	5
63	18
64	15
65	26
66	9
67	40
68	26
69	26
70	43
71	41
72	8
73	2
74	2
75	7
76	23
77	27
78	7
79	21
80	10
81	22
82	52
83	51
84	56
85	7
86	7
87	2
88	2
89	7
90	29
91	45
92	18
93	12
94	12
95	14
96	17
97	16
98	299
99	78
100	5
101	3
102	15
103	25
104	13
105	6
106	6
107	49
108	28
109	9
110	49
111	7
112	16
113	9
114	1
115	5
116	9
117	22
118	53
119	13
120	4
121	5
122	15
123	16
124	999
125	101
126	7
128	17
129	9
130	8
131	5
132	20
133	6
134	2
135	20
136	4
138	32
139	14
140	40
141	9
142	4
143	7
144	22
145	8
146	17
147	26
148	5
149	1
150	0
151	1
152	3
153	2
154	1
155	6
156	2
157	3
158	8
159	3
160	2
161	1
162	0
163	0
165	1
167	3
168	4
169	5
170	5
171	21
172	18
173	9
174	2
175	1
178	0
180	0
181	1
182	1
183	4
184	4
185	39
186	13
187	5
188	1
189	1
191	0
192	0
194	1
195	1
196	3
197	5
198	4
199	4
200	2
201	1
202	0
203	0
205	0
207	0
209	0
210	1
211	2
212	1
213	10
214	2
215	0
221	0
224	0
226	0
227	2
228	3
229	1
238	0
240	0
241	1
242	0
244	0
253	0
254	2
255	1
262	0
264	0
267	0
268	3
270	363
271	63
272	6
273	0
277	0
278	0
283	3
284	2
285	17
286	5
287	0
