Mass Spectrum: 1(H)-Indole, 2,3-dihydro-2,3-dioxo-, 3-(2-thenoyl)hydrazone
Formula: C13H9N3O2S
CAS: 328585-95-1
Molecular weight: 271
m/z	intensity
33	7
34	8
35	3
37	68
38	215
39	294
41	198
42	34
43	95
44	47
45	186
47	9
48	13
49	33
50	241
51	288
52	98
53	91
54	30
57	255
58	39
59	17
61	33
62	57
63	111
64	81
65	51
66	18
67	11
68	10
69	51
70	27
71	12
72	0
74	57
75	107
76	229
77	399
78	80
79	19
81	75
82	78
83	221
84	32
85	14
86	8
87	1
88	18
89	32
90	70
91	37
92	20
93	9
94	1
95	4
96	6
97	9
98	0
103	89
104	174
105	50
106	5
107	3
110	11
111	999
112	56
113	45
115	6
116	19
117	21
118	16
119	7
120	4
121	0
131	26
132	177
133	18
134	5
135	0
144	6
145	4
146	3
147	0
159	59
160	168
161	15
162	2
163	0
170	1
171	13
172	1
173	0
181	1
182	2
183	0
186	11
187	1
188	0
214	2
215	1
216	0
227	1
237	0
243	36
244	4
245	1
270	2
271	53
272	8
273	2
274	0
