Mass Spectrum: 1,3,5-Triazine, 2,4-diacetamido-6-(2-methoxyphenyl)-
Formula: C14H15N5O3
CAS: 328556-23-6
Molecular weight: 301
m/z	intensity
37	0
38	5
39	22
40	6
41	16
43	999
44	25
45	3
50	18
51	37
52	16
53	18
54	5
55	33
56	9
57	7
58	2
59	4
60	10
61	3
62	16
63	77
64	67
65	25
66	8
67	17
68	110
69	45
70	6
71	4
72	1
73	5
74	9
75	29
76	54
77	123
78	42
79	27
80	7
81	6
82	10
83	33
84	24
85	64
86	17
87	4
88	8
89	28
90	128
91	89
92	43
93	17
94	9
95	3
96	1
97	14
98	17
99	10
100	5
101	9
102	84
103	111
104	241
105	107
106	26
107	88
108	9
109	4
110	6
111	25
112	18
113	6
114	1
115	4
116	30
117	23
118	35
119	74
120	51
121	8
122	3
123	1
125	36
127	56
129	33
130	13
131	41
132	120
133	86
134	99
135	43
136	3
138	0
140	2
141	0
142	2
143	8
144	44
145	17
146	33
147	18
148	8
149	26
150	6
151	0
153	7
154	13
155	2
156	17
157	16
158	23
159	38
160	22
161	4
162	0
169	14
170	6
171	16
172	42
173	15
174	56
175	13
176	6
177	1
178	0
182	0
184	3
186	218
187	169
188	99
189	15
190	2
191	0
195	0
196	8
198	78
199	97
200	37
201	66
202	23
203	6
211	0
212	7
214	74
216	590
217	65
218	9
224	0
225	0
226	1
228	28
229	34
230	55
231	13
232	0
241	110
242	26
243	26
244	19
245	2
248	0
255	0
258	333
259	47
260	3
271	7
272	19
273	10
279	0
281	1
282	5
283	130
284	22
285	1
286	2
300	29
301	59
302	7
303	0
