Mass Spectrum: Morpholine, 4-[3-(1-piperidylsulfonyl)benzoyl]-
Formula: C16H22N2O4S
CAS: 328549-13-9
Molecular weight: 338
m/z	intensity
33	8
34	0
36	2
38	1
39	30
42	288
43	16
44	15
45	6
46	0
48	1
50	36
51	18
53	12
56	358
57	21
58	3
59	1
60	0
62	0
63	6
65	13
67	6
70	69
72	7
76	221
77	61
78	7
79	4
80	2
84	999
86	256
87	7
89	4
91	24
93	9
95	4
96	6
97	1
98	3
99	0
100	0
102	1
104	179
105	169
108	4
110	10
111	1
112	1
114	11
115	3
116	4
117	6
118	7
119	5
121	44
122	4
124	10
126	10
128	3
130	9
132	28
133	10
134	4
136	1
137	2
138	0
140	2
141	4
142	1
143	0
144	2
146	9
147	3
148	6
149	1
150	0
152	9
153	11
155	0
156	0
157	0
158	2
159	8
160	9
161	23
163	13
164	0
166	1
167	2
169	67
170	4
171	3
172	0
173	0
174	1
175	4
176	15
177	1
178	0
179	0
180	0
182	0
183	0
184	0
186	0
187	2
189	24
191	573
192	52
193	4
194	0
196	13
198	0
201	0
202	0
203	2
204	7
205	1
206	0
207	0
208	0
209	0
210	1
212	1
213	0
214	0
215	0
217	0
218	0
219	0
222	0
223	2
224	2
225	2
226	0
236	0
237	0
238	1
239	7
240	2
241	0
242	0
243	0
245	0
248	0
250	10
252	89
253	11
254	7
255	14
256	4
257	1
258	0
268	0
269	0
272	1
274	30
275	4
276	0
279	0
281	1
283	1
287	0
293	0
295	2
296	0
297	1
307	5
309	1
311	0
323	1
324	0
335	0
337	38
338	11
339	3
340	0
343	0
