Mass Spectrum: 1-[N-Benzoylamino]-4-[7-chloro-4-quinolylamino]piperazine
Formula: C20H20ClN5O
CAS: 32863-72-2
Molecular weight: 381
m/z	intensity
41	18
42	211
43	143
44	90
45	14
49	2
50	12
51	96
52	16
54	45
55	77
56	311
57	117
58	166
59	8
62	9
63	16
64	3
65	2
67	2
68	5
69	19
71	155
72	8
73	22
74	12
75	16
77	436
78	28
79	5
81	16
83	444
84	43
85	28
86	3
87	8
88	7
89	10
91	15
97	2
98	37
99	31
100	15
101	8
102	4
105	999
106	75
107	3
109	2
110	2
111	5
114	25
115	13
116	12
117	2
122	70
123	39
124	9
125	9
126	11
127	18
128	16
129	3
131	30
132	2
134	4
135	31
136	12
137	11
138	6
140	2
141	8
142	26
143	13
144	4
145	2
146	11
147	15
148	308
150	273
151	20
152	74
153	10
154	10
155	13
156	16
157	3
161	43
162	70
163	43
164	26
165	8
168	4
169	6
170	26
173	3
174	10
175	45
177	92
178	171
179	153
180	57
181	33
182	4
183	6
189	20
190	33
191	56
192	26
193	26
194	7
197	3
202	2
203	98
204	138
205	149
206	159
207	52
208	49
209	3
216	7
217	10
218	94
219	30
220	51
221	9
230	4
232	60
233	21
234	26
235	2
259	2
260	35
261	428
262	68
263	153
264	24
276	2
381	292
382	65
383	99
384	22
385	6
