Mass Spectrum: 7-Chloroso-4-[4-nitroso-1-piperazinyl]quinoline
Formula: C13H13ClN4O
CAS: 32863-63-1
Molecular weight: 276
m/z	intensity
41	52
42	107
43	2
44	56
47	1
49	22
50	24
51	31
52	13
54	47
55	44
56	999
57	29
58	115
59	1
61	5
62	11
63	27
64	9
65	4
67	1
68	5
71	4
73	7
74	31
75	37
76	11
77	13
78	4
81	12
82	1
83	5
84	21
85	8
86	15
87	9
88	10
89	7
91	1
95	2
97	2
98	10
99	98
100	32
101	29
102	11
109	8
111	6
113	8
114	18
115	11
116	2
123	9
124	1
125	4
126	31
127	38
128	55
129	14
135	67
136	17
137	20
138	6
140	13
141	19
142	18
149	13
150	8
151	6
152	1
153	6
154	11
155	92
156	38
157	3
161	5
162	81
163	28
164	28
165	8
166	3
167	13
168	43
169	87
170	20
176	38
177	9
178	14
179	5
181	25
182	49
183	19
184	11
188	7
189	67
190	47
191	59
192	18
193	18
194	5
201	5
202	10
203	107
204	23
205	50
206	8
207	5
209	7
210	40
211	84
212	11
215	6
216	5
217	42
218	13
219	18
220	5
229	8
244	4
245	5
246	565
247	91
248	197
249	30
276	174
277	39
278	61
279	13
