Mass Spectrum: 1,2,3-Thiadiazolium, 3-(2-chloro-5-methylphenyl)-4-hydroxy-, hydroxide, inner salt
Formula: C9H7ClN2OS
CAS: 32864-80-5
Molecular weight: 226
m/z	intensity
39	140
45	160
50	40
51	60
62	50
63	170
73	60
75	50
89	390
90	120
99	140
101	40
125	999
126	90
127	330
153	370
155	130
191	60
226	120
228	40
