Mass Spectrum: Isobarbituric acid, 3TMS derivative
Formula: C13H28N2O3Si3
CAS: 32865-92-2
Molecular weight: 344
m/z	intensity
23	0
25	0
26	0
27	8
28	9
29	10
30	1
31	4
36	1
37	1
38	0
39	1
40	1
41	0
42	2
43	31
44	29
45	226
46	19
47	10
48	0
49	1
50	0
51	0
52	3
53	1
55	7
56	4
57	10
58	14
59	40
60	4
61	3
62	2
63	2
64	1
66	3
67	2
68	1
69	3
70	10
71	5
72	24
73	999
74	87
75	51
76	3
77	13
78	1
80	1
81	0
82	1
83	3
84	12
85	6
86	6
87	3
88	1
89	1
90	0
91	0
92	1
93	5
94	1
95	1
97	2
98	4
99	11
100	37
101	6
102	4
103	4
104	3
105	3
106	1
107	1
108	2
110	1
111	3
112	1
113	5
114	2
115	4
116	3
117	15
118	0
119	10
120	2
121	1
123	1
124	1
125	1
126	2
127	2
128	7
129	3
130	4
131	46
132	11
133	23
134	4
135	2
136	1
138	1
139	1
140	1
141	1
142	3
143	2
144	7
145	4
146	3
147	114
148	21
149	7
151	1
152	0
153	1
154	2
155	5
156	3
157	5
158	49
159	9
160	6
161	1
162	1
163	1
164	0
165	0
166	2
167	1
168	1
169	1
170	2
171	2
172	3
173	4
174	10
175	5
176	8
177	7
180	2
181	1
182	2
183	2
185	2
186	2
187	2
189	3
190	2
191	2
192	1
193	1
194	2
195	1
196	1
197	2
198	3
199	2
201	3
203	1
204	2
205	2
206	1
207	1
211	3
212	4
213	5
214	10
215	2
216	1
218	0
219	1
220	0
221	2
223	2
225	2
227	2
228	4
229	10
230	4
231	1
232	0
233	1
234	0
235	1
237	0
239	15
240	8
241	93
242	24
243	10
244	3
245	5
247	1
249	1
250	0
253	2
254	5
255	54
256	13
257	11
258	3
259	2
260	1
261	0
264	0
266	0
267	1
268	1
269	6
270	42
271	15
272	8
273	3
280	1
281	1
288	0
290	1
296	1
297	2
298	2
301	1
302	1
304	0
307	0
308	0
309	1
310	3
311	4
312	5
313	15
317	4
318	4
320	2
321	2
325	3
327	13
329	427
330	130
331	69
332	15
333	5
334	2
335	1
336	2
340	2
343	94
344	147
345	53
346	22
347	5
348	2
349	0
