Mass Spectrum: Nickel, di-.mu.-bromobis[(1,2,3-.eta.)-2-cyclohexen-1-yl]di-
Formula: C12H18Br2Ni2
CAS: 32877-98-8
Molecular weight: 436
m/z	intensity
27	303
28	233
29	53
30	3
32	13
33	0
34	0
35	4
36	26
37	26
38	61
39	354
40	62
41	278
42	25
43	11
44	7
45	66
46	2
47	1
48	1
49	19
50	122
51	188
52	131
53	309
54	131
55	56
56	6
57	8
58	21
59	3
60	9
61	5
62	8
63	26
64	6
65	82
66	117
67	119
68	9
69	2
70	3
73	22
74	22
75	16
76	12
77	351
78	145
79	999
80	638
81	714
82	76
83	6
84	2
85	1
86	0
87	2
88	16
89	0
90	4
91	8
92	1
93	1
94	2
95	3
97	1
98	0
101	1
102	0
103	1
104	1
105	4
107	2
109	1
110	0
111	1
116	2
117	0
119	1
122	1
123	2
125	0
127	3
128	2
129	1
133	0
135	1
136	74
137	6
138	38
139	4
140	8
141	1
142	3
149	1
153	0
154	2
158	0
159	0
160	1
162	3
163	2
164	3
165	1
166	0
194	1
195	7
196	1
197	12
198	2
199	6
200	1
201	1
203	0
212	0
214	1
216	0
218	2
219	0
220	7
221	0
222	2
223	1
226	0
232	0
236	0
242	1
249	0
250	0
252	1
270	0
272	12
273	6
274	39
275	16
276	51
277	15
278	31
279	5
280	11
281	2
282	1
308	0
310	0
312	1
351	0
352	15
353	1
354	34
355	4
356	37
357	5
358	17
359	2
360	4
361	1
362	0
396	0
436	6
438	17
439	2
440	16
441	3
442	8
443	1
444	2
