Mass Spectrum: Acetohydrazide, 2-(5-phenyltetrazol-2-yl)-N2-(3-phenylpropenylideno)-
Formula: C18H16N6O
CAS: 328929-60-8
Molecular weight: 332
m/z	intensity
33	0
34	1
35	0
36	3
37	11
38	26
39	147
40	26
41	26
42	137
43	50
44	30
45	9
46	0
48	0
49	6
50	94
51	219
52	50
53	13
54	3
55	12
56	3
57	8
58	2
59	1
60	2
61	10
62	42
63	128
64	27
65	52
66	7
67	5
68	8
69	72
70	4
71	3
72	1
73	4
74	20
75	46
76	139
77	668
78	66
79	8
80	2
81	4
82	2
83	1
84	1
85	3
86	7
87	11
88	12
89	75
90	20
91	99
92	11
93	4
94	1
95	2
96	4
97	2
98	2
99	3
100	2
101	13
102	73
103	344
104	999
105	145
106	13
107	3
108	1
109	1
110	1
111	1
112	1
113	6
115	281
116	92
117	45
118	63
119	14
120	4
121	2
122	1
123	1
124	2
125	2
126	1
127	5
128	33
129	226
130	392
131	474
132	56
133	4
134	1
135	1
136	1
137	1
138	0
139	0
140	0
141	3
142	3
143	8
144	103
145	93
146	45
147	8
148	1
149	1
150	2
151	1
152	1
153	0
154	1
155	3
156	10
157	21
158	7
159	11
160	6
161	2
162	0
163	1
164	1
165	2
166	0
167	1
168	0
169	3
170	4
171	55
172	13
173	16
174	18
175	26
176	3
177	1
178	2
179	1
180	2
181	1
182	0
183	0
184	1
185	13
186	21
187	3
188	0
189	0
190	0
191	0
192	0
193	2
194	3
195	2
196	0
197	0
198	0
199	4
200	1
201	0
202	0
203	1
204	1
205	1
206	17
207	3
208	0
209	0
210	0
211	0
213	0
215	0
216	0
217	0
218	0
219	1
220	0
221	0
222	0
223	0
225	0
227	13
228	1
229	0
231	0
232	0
233	1
234	0
235	0
236	0
237	0
240	0
245	0
246	1
247	0
248	0
249	0
260	0
261	0
262	0
263	0
270	0
275	1
276	0
278	0
283	0
302	0
303	2
304	6
305	1
306	0
331	0
332	18
333	4
334	0
