Mass Spectrum: Benzothiazole-2-carboxamide, 6-bromo-
Formula: C8H5BrN2OS
CAS: 328961-29-1
Molecular weight: 256
m/z	intensity
33	4
34	2
37	90
38	111
39	45
40	16
41	16
42	17
43	97
44	999
45	89
46	6
47	5
48	5
49	33
50	117
51	69
52	29
53	38
55	28
56	13
57	82
58	32
60	27
61	122
62	194
63	476
64	62
66	20
67	17
69	410
70	56
71	32
73	44
74	186
75	159
76	56
77	9
79	39
80	29
81	165
82	183
83	51
84	12
85	9
86	18
87	39
88	93
89	29
90	64
91	12
92	13
93	59
94	55
95	28
96	5
97	6
99	24
100	15
101	5
102	3
104	16
105	44
106	136
107	324
108	32
109	19
110	1
111	4
112	0
113	2
114	13
115	15
116	7
117	22
118	11
119	20
120	6
121	5
122	4
123	5
124	2
125	4
126	1
128	7
129	5
130	6
131	8
133	375
134	551
135	63
136	29
137	3
138	2
139	1
141	7
142	5
143	5
144	4
145	1
146	0
147	4
148	5
149	9
150	2
151	2
152	4
153	2
154	4
155	25
156	4
157	22
158	2
159	4
160	2
161	0
162	2
163	1
164	2
165	1
166	0
168	22
169	7
170	20
171	10
172	1
173	3
174	0
175	0
176	1
177	6
178	1
179	0
181	1
182	2
183	8
185	11
186	58
188	65
189	4
190	3
191	1
192	1
196	0
197	0
200	0
201	0
202	0
208	2
210	2
211	7
212	30
213	377
214	68
215	380
216	35
217	16
218	2
227	0
228	13
229	3
230	14
231	2
239	0
240	2
241	0
242	3
243	0
244	0
247	0
252	0
253	2
254	4
256	347
257	42
258	330
259	37
260	18
261	1
262	2
264	1
