Mass Spectrum: S-Benzyl-N2-(4-nitrobenzoyl)cysteine N'-(4-hydroxybenzylidene)hydrazide
Formula: C24H22N4O5S
CAS: 328938-47-2
Molecular weight: 478
m/z	intensity
33	9
34	6
37	9
38	19
39	88
40	11
41	23
42	15
43	40
44	14
45	67
46	9
47	8
48	7
49	6
50	56
51	73
52	26
53	19
54	7
55	18
56	4
57	15
58	4
59	7
60	7
61	11
62	21
63	54
64	43
65	181
66	15
67	3
68	10
69	12
70	13
71	12
72	4
73	8
74	17
75	38
76	107
77	95
78	38
79	14
80	15
81	11
82	4
83	5
84	7
85	5
86	6
87	13
88	4
89	37
91	999
92	166
93	36
94	33
95	7
96	5
97	6
99	2
100	3
102	112
103	25
104	202
105	70
106	72
107	24
108	15
109	7
113	11
115	11
116	4
117	11
118	9
119	54
120	212
121	102
122	147
123	29
124	76
125	9
126	7
127	2
129	4
130	4
131	8
132	7
133	6
134	44
135	73
136	276
137	310
138	27
139	6
140	5
142	3
143	3
144	3
145	4
146	7
147	17
148	14
149	84
150	397
151	39
152	9
153	3
154	2
159	3
160	4
161	10
163	133
164	17
166	19
167	13
168	4
170	7
171	11
172	3
173	6
174	9
175	8
176	12
177	61
178	9
179	5
181	4
182	4
183	3
187	9
189	77
190	30
191	18
192	12
193	21
194	6
195	4
196	3
199	3
203	4
204	8
205	3
206	5
208	8
217	8
218	6
219	15
220	9
221	43
222	7
223	8
224	4
225	8
226	3
227	3
234	9
235	4
236	3
237	3
241	3
250	4
251	33
252	5
253	4
255	3
266	4
268	4
282	3
283	6
284	5
286	178
287	31
288	12
289	3
295	3
298	3
311	5
312	22
313	11
314	4
324	3
339	3
341	8
343	8
344	3
353	3
354	9
355	10
356	6
357	3
369	3
371	3
387	110
388	20
389	9
390	2
478	4
