Mass Spectrum: (.+/-.)-Epinephrine
Formula: C9H13NO3
CAS: 329-65-7
Molecular weight: 183
m/z	intensity
15	9
17	1
18	3
26	1
27	10
28	20
29	5
30	26
31	9
37	1
38	3
39	19
40	2
41	4
42	88
43	12
44	999
45	55
46	26
50	5
51	15
52	6
53	7
54	2
55	8
56	1
57	2
58	1
61	1
62	3
63	9
64	5
65	44
66	5
67	2
74	1
75	1
76	1
77	14
78	9
79	3
80	1
81	7
82	3
83	1
89	3
90	2
91	2
92	2
93	44
94	6
95	2
104	2
105	2
106	4
107	4
108	1
109	4
110	6
111	9
117	2
118	3
119	1
121	1
122	3
123	21
124	54
125	4
132	2
133	1
134	2
135	2
136	9
137	12
138	6
139	20
140	8
146	4
147	1
148	3
149	1
152	1
162	2
163	9
164	4
165	31
166	4
183	19
184	2
