Mass Spectrum: 2-Furancarboxamide, N-[2-[4-(methylphenyl)carbamoyl]phenyl]-
Formula: C19H16N2O3
CAS: 329067-78-9
Molecular weight: 320
m/z	intensity
34	0
36	0
37	2
38	9
39	88
40	10
41	8
42	3
43	5
44	8
45	15
46	0
47	0
50	5
51	15
52	10
53	9
54	2
55	2
56	1
57	1
58	0
59	0
60	1
62	3
63	14
64	20
65	50
66	8
67	21
68	2
69	1
70	0
71	1
73	1
74	1
75	3
76	8
77	36
78	9
79	15
80	3
81	0
82	0
83	0
84	0
85	0
87	0
88	1
89	8
90	45
91	27
92	50
93	12
95	366
96	18
97	2
98	0
99	0
100	0
101	2
102	7
103	6
104	7
106	166
107	999
108	81
109	3
110	0
111	0
112	0
113	1
114	2
115	5
116	2
117	2
118	12
119	13
120	31
121	5
122	0
125	0
126	0
127	1
128	3
129	7
130	10
131	2
132	2
133	1
134	0
135	0
136	0
137	0
138	0
139	1
140	2
141	1
142	1
143	1
144	5
146	356
147	30
148	2
149	1
151	0
152	1
153	0
154	1
155	0
156	1
157	4
158	2
159	0
160	1
162	0
164	0
165	0
166	0
167	1
168	1
169	1
170	0
171	0
172	0
177	0
178	0
179	0
180	2
181	3
182	5
183	1
184	2
185	3
186	2
187	0
189	0
190	0
192	0
193	0
194	0
195	3
196	1
197	0
198	0
200	0
201	0
203	0
204	0
205	0
206	0
207	1
208	1
209	1
210	1
211	1
212	5
214	292
215	38
216	3
217	0
218	0
222	1
223	1
224	1
225	2
226	0
228	0
229	0
230	0
233	0
235	1
236	0
237	0
246	0
247	0
248	2
249	0
250	0
251	0
252	0
253	0
258	0
259	0
260	0
261	0
272	0
273	1
274	1
275	0
283	0
285	6
286	1
287	0
301	4
302	6
303	1
304	0
306	0
307	1
308	0
318	1
319	1
320	34
321	6
322	1
