Mass Spectrum: 3-(Anilinomethyl)-5-(2-methoxyphenyl)-1,3,4-oxadiazole-2(3H)-thione
Formula: C16H15N3O2S
CAS: 329081-06-3
Molecular weight: 313
m/z	intensity
33	148
34	20
37	51
39	518
41	21
44	138
46	9
51	703
52	201
55	9
56	9
57	6
59	17
60	12
61	27
63	111
64	54
65	51
66	10
68	4
69	6
70	3
71	3
74	99
77	999
78	87
79	12
80	3
81	2
82	3
83	2
84	2
86	2
87	3
88	5
91	202
92	40
93	29
95	1
99	1
104	875
105	804
106	76
108	5
119	59
120	67
121	15
122	2
131	14
132	10
133	12
135	33
136	3
147	37
148	57
149	9
150	4
151	2
161	2
163	6
175	1
176	2
178	2
179	2
183	2
208	271
209	27
210	12
313	1
