Mass Spectrum: 3-(8-Methyl-2,3,3a,4,5,6-hexahydro-1H-pyrazino[3,2,1-jk]carbazol-3-yl)propionitrile
Formula: C18H21N3
CAS: 329070-85-1
Molecular weight: 279
m/z	intensity
38	10
39	152
40	138
41	416
42	999
43	172
44	33
45	3
50	17
51	69
52	76
53	56
54	328
55	58
56	72
57	21
58	15
62	10
63	44
64	10
65	43
66	8
67	14
68	11
69	1
70	0
71	0
74	5
75	14
76	15
77	63
78	20
79	7
80	5
81	8
82	1
84	15
85	2
87	4
88	4
89	36
90	30
91	49
92	7
93	0
97	9
98	6
99	4
101	6
102	15
103	13
104	22
106	138
110	2
111	15
112	17
113	10
114	10
115	82
116	25
117	13
118	11
119	54
126	15
127	31
128	54
129	26
130	17
131	2
139	22
140	26
141	27
142	26
143	17
144	9
151	7
152	26
153	19
154	41
155	20
156	25
157	7
158	0
165	9
166	23
167	80
168	54
169	33
170	32
171	4
178	6
179	9
180	59
181	70
182	91
183	38
184	10
191	0
192	4
193	7
194	29
195	18
196	58
197	86
198	46
199	5
208	2
209	5
210	2
211	146
212	20
222	0
223	6
224	2
225	6
226	2
237	3
238	0
239	5
251	180
252	32
264	1
278	7
279	48
280	7
