Mass Spectrum: N'-(2-Furylmethylene)hydrocinnamohydrazide
Formula: C14H14N2O2
CAS: 329049-25-4
Molecular weight: 242
m/z	intensity
33	0
34	1
36	2
37	21
38	58
39	280
40	53
41	39
42	29
43	21
44	20
45	2
46	0
48	0
49	5
50	109
51	258
52	251
53	98
54	90
55	64
56	8
57	8
58	2
59	0
60	0
61	2
62	12
63	49
64	22
65	169
66	28
67	6
68	10
69	5
70	1
71	3
72	10
73	1
74	12
75	13
76	18
77	252
78	109
79	159
80	39
81	194
82	22
83	13
84	10
85	1
86	1
87	2
88	0
89	28
90	14
91	999
92	81
93	25
94	44
95	48
96	32
97	2
98	0
99	0
100	1
101	2
102	19
103	136
104	443
105	664
106	100
107	15
108	6
109	94
110	826
111	57
112	4
113	0
115	4
116	2
117	5
118	3
119	4
120	1
121	5
122	46
123	8
124	4
125	0
127	1
128	6
129	2
130	5
131	19
132	53
133	38
134	4
135	0
136	0
137	4
138	0
139	0
141	1
142	1
143	2
144	0
145	1
146	5
147	3
148	24
149	113
150	13
151	2
152	1
153	1
154	1
155	1
156	1
157	4
158	0
161	1
162	0
165	0
167	0
168	2
169	2
170	4
171	2
173	0
174	0
175	3
176	1
180	0
181	1
182	1
183	30
184	26
185	4
196	3
197	12
198	105
199	81
200	12
201	0
209	0
211	2
213	2
214	0
218	0
224	0
225	14
226	1
241	20
242	153
243	27
244	2
