Mass Spectrum: Propenenitrile, 2-(5-amino-4-cyano-1-phenylpyrazol-3-yl)-3-(4-fluorophenyl)-
Formula: C19H12FN5
CAS: 329041-64-7
Molecular weight: 329
m/z	intensity
33	7
36	3
37	10
38	39
39	108
40	58
41	34
42	17
43	56
44	12
45	13
46	7
50	95
51	405
52	62
53	23
54	9
55	11
56	8
57	46
58	3
59	2
61	8
62	26
63	67
64	105
65	116
66	67
67	45
68	11
69	18
70	21
71	8
72	2
73	5
74	33
75	97
77	999
78	89
79	18
80	10
81	20
82	7
83	15
84	5
85	5
86	7
87	11
88	21
89	17
90	22
91	104
92	95
93	147
94	40
95	56
96	10
97	4
98	9
99	30
100	24
101	14
102	26
103	44
104	51
105	16
106	14
107	61
108	25
109	38
110	6
111	5
112	10
113	6
114	22
115	19
116	17
117	22
118	151
119	297
120	43
121	23
122	9
123	15
124	23
125	11
126	42
127	11
128	12
129	37
130	62
131	47
132	21
133	17
134	15
135	5
138	84
139	3
140	5
141	28
142	35
143	32
144	54
145	48
146	53
147	10
148	7
149	5
150	37
151	82
153	14
154	12
155	12
156	57
157	141
158	64
159	11
160	3
161	3
165	54
166	3
167	6
168	15
169	54
170	45
171	48
172	24
173	24
174	4
175	5
176	4
177	5
178	3
179	6
180	43
181	11
182	16
183	36
184	14
185	6
186	3
188	2
190	2
192	2
193	2
194	5
195	19
196	32
197	23
198	161
199	22
200	5
205	2
206	3
207	12
208	7
209	10
210	23
211	56
212	12
213	24
214	3
217	2
220	3
221	4
222	19
223	40
224	11
225	5
226	6
232	6
233	15
234	39
235	15
236	9
237	16
238	3
245	2
246	2
247	13
248	5
249	9
250	3
251	5
252	5
256	4
257	3
258	5
259	18
260	37
261	18
262	14
263	4
264	4
272	2
273	6
274	25
275	12
276	14
277	4
281	2
282	2
283	6
284	10
285	17
286	37
287	16
288	4
289	4
298	3
299	5
300	18
301	101
302	49
303	247
304	47
305	5
308	3
309	2
310	9
311	38
312	23
313	10
314	3
323	4
325	10
328	607
329	634
330	135
331	15
