Mass Spectrum: Cyclopropanecarboxamide, N-(2,6-dichlorophenyl)-2,2,3,3-tetramethyl-
Formula: C14H17Cl2NO
CAS: 329069-24-1
Molecular weight: 285
m/z	intensity
33	21
34	3
35	2
36	18
37	7
38	20
39	217
40	83
41	384
43	181
44	11
45	1
47	0
49	5
50	8
51	21
52	17
53	105
55	795
57	266
58	7
59	1
60	0
61	5
62	17
63	37
64	12
65	24
66	13
67	91
68	16
69	162
70	12
72	4
73	26
74	9
75	18
76	4
77	19
79	44
81	135
82	48
83	275
84	26
85	4
86	2
87	2
88	5
89	6
90	21
91	9
92	2
93	3
94	2
95	43
96	68
97	563
98	73
99	15
100	4
101	4
102	2
103	2
104	2
105	0
106	0
107	6
108	16
109	76
110	26
111	8
112	2
113	1
114	0
115	1
116	1
117	3
118	3
119	1
122	1
123	5
124	54
125	999
126	100
127	17
128	4
129	6
130	2
131	1
133	39
134	2
135	24
136	5
137	4
138	2
139	1
140	1
141	1
142	0
144	0
145	3
146	2
147	2
148	1
149	2
151	2
152	1
153	2
154	2
155	0
156	5
157	49
158	7
160	39
161	101
162	31
163	60
164	13
165	11
166	4
167	3
168	5
169	1
170	1
171	1
172	4
173	0
174	3
175	0
176	1
177	9
178	2
179	5
180	2
182	0
184	0
186	1
187	2
188	12
189	2
190	9
191	4
192	157
193	22
194	51
195	7
196	1
197	0
198	0
201	0
202	3
203	1
204	3
205	0
206	1
207	0
208	16
209	2
210	6
212	0
214	1
216	1
218	0
220	1
226	2
227	48
228	7
229	30
230	5
231	4
232	0
234	1
235	1
236	1
242	17
243	7
244	23
245	5
246	8
247	1
248	0
250	138
251	20
252	45
253	6
254	2
255	1
256	1
257	0
258	0
268	1
270	245
271	38
272	157
273	22
274	25
275	2
285	25
286	3
287	15
288	2
289	2
