Mass Spectrum: Cyclopropanecarbohydrazide, 2,2,3,3-tetramethyl-N2-(4-nitrophenyl)-
Formula: C14H19N3O3
CAS: 329069-29-6
Molecular weight: 277
m/z	intensity
33	1
36	0
37	0
38	3
39	34
40	9
41	68
42	8
43	26
44	3
46	1
50	9
51	11
52	11
53	20
55	161
57	74
58	3
59	1
60	0
61	0
62	2
63	14
64	14
65	12
66	3
67	28
68	3
69	49
70	3
71	1
72	0
73	0
74	2
75	7
76	17
77	13
79	27
80	6
81	23
82	15
83	46
84	4
85	1
86	0
88	0
89	0
90	5
91	11
92	6
93	3
94	1
95	22
96	6
97	63
98	4
99	0
100	0
101	0
102	0
103	0
105	9
106	33
107	6
108	10
109	10
110	15
111	2
112	0
113	0
115	0
116	1
117	0
118	0
119	0
120	2
121	2
122	5
123	5
125	999
126	84
127	6
128	0
129	0
130	0
131	2
132	1
133	1
134	0
135	1
136	2
137	2
138	6
139	1
140	1
141	0
142	0
143	0
144	0
145	0
146	0
147	0
148	0
149	2
150	2
151	2
152	20
153	8
154	1
155	0
156	0
157	0
158	0
159	0
160	0
162	0
163	2
164	0
165	0
166	0
167	0
169	0
170	0
171	1
172	0
173	0
174	0
175	0
177	0
178	0
179	2
180	0
181	0
183	0
186	0
187	0
188	0
191	0
193	2
194	1
195	0
200	1
201	2
202	0
203	0
204	0
205	0
206	0
215	0
216	1
217	0
218	0
220	1
229	0
230	0
231	0
232	0
233	0
234	0
236	0
237	0
244	0
245	1
246	0
247	0
260	0
261	1
262	15
263	2
264	0
277	83
278	14
279	1
