Mass Spectrum: Pyridine-4-carbohydrazide, N2-(3,4-methylenedioxy-6-nitrobenzylideno)-
Formula: C14H10N4O5
CAS: 329062-08-0
Molecular weight: 314
m/z	intensity
33	2
34	0
36	1
37	17
38	37
39	76
40	27
41	24
42	36
43	21
44	24
45	4
46	1
48	1
50	213
51	444
52	152
53	104
54	38
55	68
56	439
57	28
58	1
59	0
61	30
62	77
63	117
64	60
65	63
66	28
67	28
68	30
69	35
70	4
71	2
74	61
75	74
76	71
77	160
78	758
79	160
80	34
81	7
82	4
83	27
84	11
85	2
87	7
88	23
89	10
90	31
91	46
92	18
93	18
94	12
95	5
96	3
97	1
98	2
99	2
100	2
101	9
102	4
103	11
104	26
106	999
107	69
108	11
109	6
110	0
111	1
112	1
113	1
114	1
115	3
116	4
117	6
119	61
120	57
121	40
122	71
123	199
124	18
125	2
126	1
127	2
128	3
129	3
130	4
131	4
132	14
133	17
134	39
135	79
136	21
137	7
138	1
139	1
140	1
141	1
142	1
143	2
144	3
145	6
146	23
147	17
148	40
149	42
150	15
152	91
153	8
154	2
155	2
156	2
157	2
158	3
159	2
160	2
161	10
162	72
163	27
164	12
165	10
166	2
167	2
168	0
169	1
170	1
171	4
172	3
173	6
174	7
175	7
176	9
178	27
179	26
180	15
181	2
182	1
183	1
184	1
185	1
186	3
187	4
188	6
189	10
190	19
192	161
193	21
194	3
195	1
196	0
198	0
199	1
200	2
201	7
202	45
203	14
204	3
205	0
206	0
208	0
209	0
210	0
211	0
212	0
213	1
214	2
215	4
216	11
217	9
218	4
219	1
220	1
223	0
224	2
225	2
226	0
227	0
228	2
229	2
230	5
231	3
232	9
233	1
234	0
236	0
237	1
238	0
239	1
240	1
241	2
242	1
243	2
244	13
245	3
246	3
247	0
248	0
254	0
256	0
257	0
258	3
259	1
260	3
261	1
265	0
266	1
268	39
269	8
270	1
277	0
282	1
283	1
284	2
285	0
288	2
289	0
290	0
291	0
292	1
294	0
297	19
298	3
305	0
306	1
309	0
314	13
315	3
