Mass Spectrum: Ethyl 3,3,3-trifluoro-2-isovaleramidolactate
Formula: C10H16F3NO4
CAS: 329182-54-9
Molecular weight: 271
m/z	intensity
33	37
34	14
36	2
37	4
39	158
40	129
41	384
42	164
43	291
44	282
45	37
46	9
47	12
48	1
50	35
51	28
52	6
53	12
54	8
55	77
56	104
57	730
58	35
59	377
60	13
61	1
62	3
63	5
64	4
65	3
66	1
67	12
69	328
70	25
71	10
72	8
73	24
74	5
75	3
76	2
77	5
78	17
79	5
80	2
81	4
82	6
83	23
85	999
86	101
87	15
88	2
89	4
90	15
91	7
92	3
93	3
94	13
95	13
96	10
97	20
98	5
99	28
100	5
101	5
102	2
103	1
105	3
107	1
108	1
109	2
110	1
111	7
112	6
114	63
115	16
116	1
118	24
119	2
120	4
122	4
123	1
124	1
127	14
128	4
129	1
132	1
135	2
136	4
137	4
138	1
139	1
140	2
141	1
142	11
143	24
144	3
148	1
149	3
152	1
153	1
155	24
157	4
158	2
166	1
168	2
170	42
171	17
172	1
176	1
183	45
184	3
188	2
198	72
199	5
211	4
226	4
229	47
230	3
243	1
