Mass Spectrum: 3-Isopropyl-1,5,7-trimethyl-3H-pyrazolo[3,4-b]pyridine
Formula: C12H17N3
CAS: 329180-69-0
Molecular weight: 203
m/z	intensity
34	60
37	22
39	474
40	999
41	407
42	231
43	302
44	293
50	24
51	120
52	86
53	72
54	34
55	45
56	24
57	34
63	53
64	51
65	115
66	68
67	50
68	17
69	16
70	13
76	32
77	160
78	65
79	74
80	26
81	26
89	32
90	24
91	46
92	26
93	19
94	13
97	233
103	32
104	37
105	32
106	30
107	11
116	28
117	56
118	20
119	21
120	18
124	42
130	38
131	62
132	136
133	21
139	12
140	16
145	27
146	19
147	15
159	26
160	110
161	434
162	71
171	14
172	12
181	17
186	36
188	986
189	130
190	18
203	373
204	39
