Mass Spectrum: Ethyl 2-benzamido-3,3,3-trifluoro-2-(isopropylamino)propionate
Formula: C15H19F3N2O3
CAS: 329182-48-1
Molecular weight: 332
m/z	intensity
37	1
38	2
39	9
40	9
41	36
42	20
43	69
44	87
45	11
46	1
47	1
48	1
50	14
51	48
52	5
53	1
54	2
55	3
56	6
57	7
58	120
59	8
60	1
62	1
63	1
64	1
65	1
66	1
67	1
69	8
70	7
71	3
73	3
74	4
75	6
76	19
77	248
78	18
79	5
82	1
83	2
84	1
85	1
86	1
88	1
89	1
90	1
91	1
92	2
93	1
96	8
97	1
98	2
101	1
102	2
103	9
105	999
106	69
107	5
110	1
111	1
112	5
113	3
114	2
118	1
119	1
120	1
121	5
122	18
123	3
124	1
125	1
127	1
129	1
130	1
131	1
132	2
133	1
135	1
136	1
137	7
138	4
139	13
140	1
142	10
143	1
147	1
148	9
149	1
151	1
152	1
153	2
154	1
156	11
157	1
160	3
161	1
164	1
165	2
167	1
168	7
169	1
170	6
171	2
181	1
182	2
187	2
188	1
189	1
191	1
193	1
195	1
196	3
197	1
207	4
208	1
209	1
210	1
211	1
212	1
215	2
217	3
221	1
229	1
244	1
257	2
259	172
260	21
261	2
263	5
264	1
317	2
