Mass Spectrum: 1-Benzyl-1-(5-methyl-2-thiazolin-2-yl)-3-phenylurea
Formula: C18H19N3OS
CAS: 329182-68-5
Molecular weight: 325
m/z	intensity
33	12
34	9
35	2
36	5
37	57
38	98
39	206
40	140
41	174
42	46
43	15
44	35
45	63
46	26
47	9
48	3
49	11
50	67
51	113
52	47
53	12
55	143
56	21
57	21
58	39
59	52
60	61
61	52
62	38
63	128
64	207
65	227
66	13
67	3
68	6
69	8
70	9
71	7
72	24
73	20
74	77
75	19
76	18
77	66
78	22
79	31
80	4
81	2
82	1
83	3
84	2
85	2
86	8
87	5
88	7
89	36
91	999
92	174
93	13
95	2
97	1
98	1
100	10
101	15
102	9
103	8
104	69
105	63
106	273
107	20
109	1
111	1
112	2
113	1
115	5
116	6
117	12
118	39
119	424
120	31
121	11
122	27
123	4
124	1
128	2
129	9
130	3
131	11
132	8
133	3
135	17
136	4
137	2
143	1
145	46
146	12
148	8
149	6
150	1
163	8
164	9
165	3
173	2
175	1
178	4
187	2
191	3
201	1
203	5
205	141
206	242
207	32
208	10
325	8
326	1
