Mass Spectrum: Ethyl 2-acetamido-3,3,3-trifluoro-2-isopropoxypropionate
Formula: C10H16F3NO4
CAS: 329182-34-5
Molecular weight: 271
m/z	intensity
33	4
34	1
37	1
39	23
40	17
41	77
43	999
44	50
45	39
46	2
47	7
48	1
50	3
51	5
54	1
55	1
56	1
57	2
58	4
59	18
60	3
61	1
62	1
63	1
67	1
69	33
70	2
71	3
72	1
73	3
74	1
75	6
76	1
77	3
78	2
79	1
86	3
87	9
88	4
90	10
91	1
92	1
94	8
95	9
96	11
97	4
98	1
99	1
101	1
109	1
110	1
112	1
114	267
115	9
116	6
118	14
119	1
120	1
123	6
125	14
126	1
128	11
136	1
137	1
138	1
139	4
140	3
142	26
143	8
144	1
148	5
151	1
156	297
157	12
158	1
160	2
167	21
168	3
170	57
171	9
172	1
184	6
196	1
198	8
199	1
212	3
213	2
226	1
256	2
