Mass Spectrum: Ethyl 2-chloro-3,3,3-trifluoro-2-isovaleramidopropionate
Formula: C10H15ClF3NO3
CAS: 329182-55-0
Molecular weight: 289
m/z	intensity
33	8
34	2
35	22
36	98
37	7
38	41
39	122
40	50
41	418
42	136
43	203
44	50
45	22
46	2
47	3
48	2
50	9
51	8
52	3
53	12
54	12
55	66
57	999
58	40
59	33
60	2
62	7
63	2
64	2
65	2
67	4
69	126
70	9
71	6
72	3
73	8
74	3
76	6
77	7
78	5
79	2
80	1
81	1
82	4
83	19
85	864
86	50
87	5
88	1
90	2
91	3
92	1
93	1
95	6
96	40
97	6
98	5
99	2
100	1
101	1
103	1
104	1
105	1
108	3
109	3
110	2
111	3
112	8
113	6
114	6
115	6
116	1
117	1
118	1
119	2
120	2
121	1
122	1
123	10
124	5
125	7
126	1
127	2
129	3
131	1
132	16
133	1
134	5
135	1
136	2
137	3
138	3
139	2
140	2
142	40
143	5
144	5
145	3
146	2
147	2
148	1
149	3
150	1
151	8
152	3
155	6
156	1
158	6
159	1
160	2
161	1
163	8
164	4
165	2
166	4
168	13
170	149
171	13
172	3
174	2
175	8
176	6
177	3
178	4
180	1
183	9
184	1
189	1
190	1
196	2
197	2
198	2
201	2
202	6
204	8
206	2
207	1
208	1
210	2
213	2
217	2
219	1
228	1
229	1
230	1
244	7
247	34
249	12
