Mass Spectrum: Indole-3-carboxylic acid, 6-bromo-5-methoxy-1-phenyl-2-(1-pyrrolidinylmethyl-, ethyl ester
Formula: C23H25BrN2O3
CAS: 329212-53-5
Molecular weight: 456
m/z	intensity
29	426
30	28
31	10
32	46
36	0
39	8
40	10
41	42
42	101
43	37
44	24
45	11
50	0
51	0
52	0
53	1
54	8
55	99
56	14
57	13
58	0
60	7
61	2
62	0
63	0
65	0
66	0
67	3
68	17
69	17
70	999
71	63
72	12
73	11
74	0
75	0
76	0
77	13
78	0
79	1
80	6
81	1
82	20
83	48
84	97
85	7
86	0
87	1
90	0
91	12
92	2
93	1
96	4
97	5
98	8
99	0
100	1
101	3
102	1
103	1
104	2
105	6
106	1
109	1
110	4
111	106
112	12
113	8
114	0
115	0
116	0
117	4
118	0
120	0
121	2
122	0
123	5
124	1
127	1
128	1
129	3
130	0
131	5
132	3
139	0
140	1
141	1
142	1
143	3
144	3
145	0
146	1
147	0
150	0
151	5
152	8
153	4
154	0
155	1
156	1
157	6
161	0
163	1
164	0
165	8
166	5
167	1
168	0
169	0
170	0
171	9
172	4
173	4
174	4
175	28
176	0
177	2
178	7
179	0
180	1
181	1
182	0
183	5
184	1
185	0
187	0
189	2
190	31
191	95
192	77
193	14
194	3
199	0
202	5
203	24
204	97
205	25
206	35
207	8
208	8
210	0
212	0
214	4
215	2
216	0
217	2
218	14
219	26
220	101
221	20
222	3
223	3
224	2
228	0
230	4
231	6
232	20
233	21
234	166
235	90
236	47
237	10
238	0
239	2
241	0
243	0
244	2
245	4
246	2
247	10
248	21
249	9
250	5
251	8
252	3
253	10
254	1
256	0
257	0
258	1
259	3
260	4
261	13
262	11
263	12
264	29
265	6
266	0
267	1
268	0
269	7
270	9
271	17
272	14
273	17
274	5
275	2
276	1
277	4
278	49
279	84
280	18
281	0
282	9
283	5
284	9
285	3
286	2
287	4
288	2
289	0
291	2
292	31
293	4
294	1
295	0
297	17
298	71
299	38
300	85
301	25
302	15
303	6
304	3
306	0
307	3
308	2
309	0
310	1
311	9
312	72
313	63
314	150
315	80
316	68
317	16
318	6
319	3
320	0
323	1
324	11
325	18
326	36
327	43
328	52
329	57
330	41
331	1
332	1
333	1
334	0
338	1
339	30
340	48
341	133
342	180
343	140
344	147
345	25
346	2
347	3
352	2
353	125
354	65
355	144
356	117
357	44
358	140
359	56
360	115
361	8
364	5
365	4
366	6
367	18
368	72
369	34
370	44
371	86
372	32
373	100
374	31
375	6
378	1
379	0
380	2
381	123
382	74
383	308
384	122
385	177
386	109
387	167
388	103
389	199
390	32
393	6
394	7
395	25
396	4
397	11
398	5
399	23
400	8
401	21
402	2
404	1
405	3
407	0
408	7
409	486
410	309
411	601
412	324
413	129
414	28
415	22
416	12
423	1
424	4
425	14
426	14
427	680
428	179
429	768
430	137
431	8
439	0
440	3
441	39
442	1
443	38
444	7
454	2
455	13
456	345
457	118
458	340
459	111
460	8
