Mass Spectrum: 1-Acetyl-4-amino-5-ethyl-2,5-dihydro-1H-pyrrole-3-carbonitrile
Formula: C9H13N3O
CAS: 329202-43-9
Molecular weight: 179
m/z	intensity
14	4
15	33
16	1
17	1
18	3
26	11
27	52
28	82
29	36
30	17
31	1
37	4
38	9
39	36
40	19
41	48
42	59
43	447
44	15
45	1
50	3
51	19
52	94
53	113
54	87
55	16
56	20
57	3
58	4
60	3
62	1
63	6
64	10
65	14
66	24
67	25
68	16
69	8
70	3
71	1
75	2
76	4
77	12
78	9
79	41
80	73
81	162
82	24
83	2
90	2
91	4
92	13
93	22
94	13
95	13
96	3
97	2
103	1
104	2
105	19
106	15
107	132
108	999
109	88
110	10
111	3
117	1
118	2
119	33
120	89
121	30
122	123
123	11
125	1
132	1
134	6
136	121
137	69
138	6
139	1
147	2
149	1
150	23
151	4
152	1
162	7
164	26
165	3
179	162
180	18
181	1
