Mass Spectrum: 1-Acetyl-4-amino-5-isobutyl-2,5-dihydro-1H-pyrrole-3-carbonitrile
Formula: C11H17N3O
CAS: 329202-51-9
Molecular weight: 207
m/z	intensity
14	2
15	21
16	1
17	1
18	2
26	4
27	43
28	46
29	46
30	15
31	1
37	2
38	6
39	62
40	16
41	101
42	46
43	380
44	15
45	2
50	3
51	12
52	52
53	78
54	68
55	21
56	12
57	11
58	1
60	4
62	1
63	3
64	5
65	8
66	17
67	17
68	11
69	5
70	4
71	1
72	1
75	1
76	3
77	10
78	11
79	29
80	58
81	135
82	22
83	2
84	2
89	1
90	2
91	4
92	8
93	15
94	8
95	18
96	4
97	1
102	1
103	2
104	3
105	27
106	17
107	123
108	999
109	118
110	7
111	1
116	1
117	2
118	4
119	6
120	33
121	13
122	275
123	29
124	2
130	1
131	3
132	3
133	18
134	5
135	2
136	5
137	5
138	1
139	1
145	1
146	2
147	6
148	34
149	10
150	67
151	41
152	3
162	1
164	126
165	34
166	4
175	1
190	4
191	1
192	6
193	1
207	94
208	13
209	1
