Mass Spectrum: Propanamide, 3-(4-morpholyl)-N-(4-benzyloxyphenyl)-
Formula: C20H24N2O3
CAS: 329210-46-0
Molecular weight: 340
m/z	intensity
33	2
34	1
36	2
37	5
38	12
39	87
40	45
41	80
42	206
43	45
44	44
45	12
49	1
50	23
51	47
52	44
53	33
54	43
55	156
56	225
57	85
58	13
60	0
61	3
62	14
63	50
64	27
65	174
66	13
67	6
68	7
69	19
70	81
71	27
72	31
73	2
74	7
75	13
76	9
77	34
78	11
79	18
80	24
81	14
82	7
83	17
84	43
85	25
86	136
87	26
88	1
89	37
91	632
92	52
93	9
94	4
95	7
96	3
98	80
100	999
101	45
102	5
103	2
104	3
105	14
106	8
107	12
108	55
109	20
110	3
111	3
112	6
113	12
114	28
115	24
116	3
119	3
120	4
121	7
122	4
123	3
127	3
128	4
129	1
131	0
132	1
134	8
135	5
136	2
137	1
139	6
140	3
141	3
142	16
143	2
146	2
149	1
150	1
151	1
152	3
153	1
155	3
156	1
162	6
164	3
166	0
169	1
171	3
172	1
179	1
180	1
181	1
182	0
183	5
185	5
191	2
194	1
198	1
199	5
202	0
205	3
209	1
210	4
212	1
218	2
219	3
225	3
226	0
231	6
249	26
250	2
253	11
254	4
255	3
283	1
285	0
287	1
295	0
297	13
298	1
307	3
309	5
322	4
325	3
340	14
341	2
347	0
