Mass Spectrum: Pyridine-2-carboxylic acid (5-iodo-furan-2-ylmethylene)-hydrazide
Formula: C11H8IN3O2
CAS: 329206-99-7
Molecular weight: 341
m/z	intensity
33	1
36	0
37	10
38	26
39	16
40	5
41	3
42	1
43	2
44	7
45	0
47	0
49	5
50	55
51	175
52	142
53	20
54	2
55	4
56	0
57	0
61	1
62	0
63	3
64	24
65	7
66	2
67	3
68	0
69	1
70	0
71	0
75	3
76	8
77	17
78	425
79	999
80	81
81	6
82	2
83	2
84	0
89	0
91	1
92	1
93	4
94	6
95	1
101	0
102	1
103	3
104	8
105	82
106	239
107	40
108	21
109	1
110	2
111	0
112	0
113	1
115	1
116	1
117	1
118	0
119	0
120	1
122	436
123	35
124	2
125	0
127	36
128	31
129	10
130	20
131	7
132	1
133	0
134	0
135	0
136	4
137	0
139	0
140	1
141	1
142	1
143	3
144	0
146	0
148	1
149	0
152	1
153	1
155	3
156	1
157	3
158	15
159	8
160	1
161	1
163	7
164	4
165	20
166	0
168	2
169	0
171	7
172	1
173	3
175	0
178	0
179	6
180	2
184	0
185	3
186	11
187	1
192	3
193	1
194	0
196	3
197	0
206	10
207	22
208	1
212	0
214	34
215	6
216	1
219	206
220	16
221	7
222	2
223	0
231	0
234	2
235	1
237	0
242	3
243	0
254	2
263	3
283	0
293	6
294	0
295	6
296	0
313	1
338	0
339	2
341	308
342	39
343	3
