Mass Spectrum: Benzoic acid, 3-methyl-, [2-(2-benzotriazolyl)-4-methylphenyl] ester
Formula: C21H17N3O2
CAS: 329212-33-1
Molecular weight: 343
m/z	intensity
37	0
38	3
39	5
40	1
41	2
42	0
48	0
50	5
51	8
52	5
53	2
54	0
55	0
59	0
60	0
61	1
63	24
65	112
66	7
67	0
68	0
70	0
71	0
72	0
74	5
76	9
77	18
78	6
80	0
83	0
84	1
86	1
87	4
91	546
95	0
96	0
98	0
99	0
101	1
102	1
103	2
104	2
105	5
106	3
107	0
108	0
109	0
111	0
112	0
113	1
115	19
119	999
122	0
123	0
124	0
125	1
126	2
127	3
128	4
129	0
130	0
132	0
133	0
134	1
135	0
137	0
139	5
140	4
141	4
142	3
143	0
148	0
150	0
151	1
152	2
153	10
154	1
155	0
156	0
159	0
161	0
162	0
163	6
164	5
166	25
167	19
169	1
170	0
177	0
178	0
179	0
180	1
181	0
182	0
187	0
189	0
190	0
191	0
193	1
195	26
197	1
207	0
209	0
222	0
224	11
225	1
241	0
255	0
268	0
271	0
284	0
339	0
340	0
343	63
344	6
345	1
346	0
