Mass Spectrum: Furazan-3-amine, 4-(4-morpholylcarbonyl)-
Formula: C7H10N4O3
CAS: 329206-54-4
Molecular weight: 198
m/z	intensity
38	1
39	4
40	16
41	47
42	162
43	36
44	25
45	68
50	0
53	130
54	191
55	166
56	269
57	46
58	49
59	5
60	0
64	0
66	10
67	27
68	58
70	999
72	89
74	20
75	0
76	0
78	8
79	10
81	114
82	40
83	108
84	68
85	169
86	314
87	22
88	3
91	0
92	0
93	3
94	8
95	18
96	47
97	90
98	28
99	7
100	2
101	0
105	0
106	0
107	0
108	2
109	14
110	39
111	107
112	229
114	439
115	20
116	1
121	7
123	176
124	19
125	14
126	8
127	4
135	1
136	22
137	13
138	57
139	45
141	661
142	30
150	6
151	11
152	3
153	19
155	21
156	1
157	0
164	1
165	5
166	8
168	353
169	22
170	1
181	8
182	2
183	25
184	0
195	1
198	377
199	26
200	3
