Mass Spectrum: 3-(3-Pyridyl)-5-hydroxymethylisoxazoline
Formula: C9H10N2O2
CAS: 329219-31-0
Molecular weight: 178
m/z	intensity
49	8
50	108
51	307
52	76
53	14
54	6
63	39
64	36
65	58
66	12
67	11
68	9
75	42
76	80
77	141
78	999
79	126
80	18
90	20
91	29
92	127
93	23
102	7
103	53
104	246
105	259
106	35
117	37
118	88
119	586
120	137
121	19
122	3
130	24
131	103
132	25
133	6
143	8
144	38
145	75
146	228
147	978
148	129
149	39
158	12
160	36
161	13
174	8
178	387
179	43
180	8
