Mass Spectrum: Thiophene-2-carboxamide, N-[4-(4-pyridylmethyl)phenyl]-
Formula: C17H14N2OS
CAS: 329265-77-2
Molecular weight: 294
m/z	intensity
37	9
39	357
40	16
41	11
42	3
43	6
44	5
45	45
46	2
47	1
49	4
50	51
51	106
52	41
53	26
54	11
55	2
56	1
57	51
58	15
59	1
60	0
61	0
62	8
63	33
64	14
65	25
66	4
67	1
69	6
70	0
71	2
74	5
75	10
76	14
77	43
78	56
79	12
80	8
81	20
82	32
83	142
84	14
85	6
86	0
87	2
88	1
89	12
90	5
91	13
92	14
93	11
94	0
96	0
99	0
100	1
101	6
102	15
103	9
104	12
105	3
106	10
107	0
111	999
112	63
113	63
114	5
115	11
116	5
117	9
118	1
120	0
125	0
126	7
127	27
128	31
129	12
130	9
131	1
132	2
139	6
140	7
141	4
142	3
143	4
144	0
152	1
153	4
154	32
155	10
156	39
157	4
166	5
167	11
168	11
169	0
172	0
173	1
179	2
180	0
181	23
182	10
183	29
184	5
185	0
201	2
211	1
294	72
295	13
296	3
