Mass Spectrum: 4-Methyl-1-piperazinyl(decahydro-1-naphthyl)methanone
Formula: C16H28N2O
CAS: 329368-07-2
Molecular weight: 264
m/z	intensity
39	75
40	56
41	266
42	272
43	197
44	136
45	3
50	0
51	7
53	61
54	42
55	197
56	310
57	183
58	694
59	16
60	0
63	1
65	21
67	156
68	24
70	999
71	126
72	91
73	2
77	36
79	79
80	15
81	133
83	828
85	162
86	10
87	1
91	30
92	4
93	37
94	10
95	86
96	11
97	24
98	59
99	370
100	46
101	55
102	1
103	1
104	0
105	3
106	0
107	10
108	2
109	4
110	5
111	3
112	22
113	19
114	4
115	4
116	0
119	0
120	0
121	2
122	1
124	3
125	2
126	4
127	36
128	9
129	1
130	0
131	1
133	1
134	1
135	20
136	6
137	35
138	7
139	0
142	0
149	0
150	0
152	0
155	8
162	1
163	0
164	12
165	5
166	0
171	0
178	2
179	0
182	0
192	7
193	0
196	0
206	1
207	5
208	5
220	0
249	0
264	28
265	3
