Mass Spectrum: Bicyclo[2.2.1]heptan-2-one, 5,5,6-trimethyl-, thiosemicarbazone
Formula: C11H19N3S
CAS: 329325-56-6
Molecular weight: 225
m/z	intensity
33	7
34	4
39	258
41	915
43	999
44	57
45	35
46	7
48	21
51	53
53	210
55	347
56	67
57	63
58	40
60	438
62	28
63	13
65	96
67	260
68	67
69	165
70	42
71	27
72	10
73	26
75	89
77	238
79	228
80	52
81	147
82	56
83	94
84	28
85	261
86	17
87	2
89	6
90	8
91	173
93	190
94	96
95	246
96	63
97	55
98	50
99	53
100	45
101	12
102	24
103	16
104	12
105	53
106	159
107	131
108	148
109	164
110	65
111	31
112	19
113	23
114	120
115	90
116	163
117	31
118	17
119	24
120	29
121	64
122	71
123	135
124	63
125	160
126	60
127	26
128	31
129	34
130	5
131	8
132	13
133	24
134	150
135	41
136	25
137	51
138	41
139	87
140	66
141	29
142	197
143	18
144	10
145	0
146	3
147	4
148	51
149	35
150	168
151	63
152	35
153	22
154	82
155	72
156	35
157	3
160	2
163	1
164	5
165	114
166	42
167	39
168	67
169	9
170	24
171	9
172	1
175	1
176	0
177	0
179	4
180	47
182	46
183	461
184	149
185	36
186	6
191	1
192	5
193	195
194	26
195	2
196	1
197	1
206	1
207	8
208	127
209	23
210	822
211	113
212	49
213	5
224	22
225	491
226	74
227	28
228	3
