Mass Spectrum: 7-Oxa-bicyclo[2.2.1]heptan-2-ol, 1,5-diacetyl-2-methyl-6-(1-methylethyl)-
Formula: C14H22O4
CAS: 329362-13-2
Molecular weight: 254
m/z	intensity
33	1
34	0
36	0
37	1
39	58
41	136
43	999
45	9
46	0
47	0
50	3
51	10
52	6
53	28
54	7
55	48
57	10
58	3
59	2
60	0
61	3
62	1
63	3
65	17
66	5
67	26
69	35
71	13
73	1
74	0
75	0
77	20
79	36
80	24
81	32
83	43
85	53
86	1
87	1
88	0
89	0
91	17
92	2
93	10
94	7
95	26
97	174
98	11
99	4
100	24
101	4
103	2
104	0
105	4
107	32
109	274
110	23
111	49
112	30
113	67
114	5
115	1
116	0
117	0
119	3
120	1
121	5
123	66
124	18
125	15
127	20
128	1
129	0
131	0
133	5
134	2
135	7
136	3
137	7
138	1
139	2
140	1
142	24
143	2
144	0
145	0
147	1
148	1
151	182
152	26
153	8
155	2
156	0
159	0
161	3
162	0
163	0
165	12
166	1
167	0
169	3
170	0
175	0
176	2
177	1
179	9
180	1
193	43
194	8
195	1
196	0
197	0
208	0
210	0
211	1
212	0
218	0
221	0
235	0
236	5
237	1
238	0
239	0
254	0
