Mass Spectrum: Phenol, 2,2'-thiobis[4-(1,1,3,3-tetramethylbutyl)-
Formula: C28H42O2S
CAS: 3294-03-9
Molecular weight: 442
m/z	intensity
34	9
35	1
36	8
38	18
39	160
41	629
43	999
44	68
45	44
46	3
47	2
50	14
51	21
53	67
55	237
57	596
58	52
60	7
61	6
63	16
65	42
66	11
67	23
69	57
71	294
72	15
73	14
74	8
76	5
77	71
78	23
79	53
80	12
81	9
82	10
83	30
84	16
85	9
86	4
87	5
88	1
89	11
91	99
93	42
94	17
95	31
96	20
97	19
98	9
99	2
101	5
103	42
104	21
105	64
107	126
108	10
109	11
110	6
111	9
112	9
113	7
114	1
115	26
116	11
117	17
118	11
119	46
120	15
121	44
122	26
123	13
124	5
125	20
127	16
128	10
129	14
130	6
131	21
133	107
134	129
135	305
136	58
137	48
138	29
139	18
140	4
141	5
142	4
143	17
145	23
146	13
147	30
148	19
149	29
150	36
151	40
152	13
153	6
154	2
155	1
157	4
158	3
159	7
160	11
161	12
162	7
163	8
165	48
166	188
167	79
168	13
169	7
170	1
171	11
172	2
173	3
174	2
175	4
176	1
177	9
178	7
179	9
180	7
181	6
182	1
184	1
185	2
187	3
188	2
189	5
190	2
191	3
192	1
193	2
194	1
197	2
199	1
200	2
205	3
206	2
207	3
208	2
209	1
211	1
213	2
218	1
219	2
220	1
221	3
222	1
223	3
225	2
229	1
231	7
232	1
233	1
237	2
238	1
239	1
241	1
245	8
246	1
253	1
255	1
256	1
257	4
259	225
260	35
261	13
262	2
267	1
271	1
273	5
274	1
281	1
283	3
285	7
286	1
297	2
299	45
300	18
301	13
302	3
313	7
314	3
315	2
327	2
329	1
341	2
343	5
344	1
355	2
357	6
358	1
365	1
366	6
367	9
368	16
369	19
371	837
372	194
373	66
374	10
375	1
383	1
385	58
386	12
387	5
399	1
405	1
413	5
427	2
438	1
440	2
442	42
443	11
444	4
