Mass Spectrum: 3,3'-Bi-p-menthane
Formula: C20H38
CAS: 3294-50-6
Molecular weight: 278
m/z	intensity
26	12
27	25
28	21
29	38
30	1
31	2
32	1
35	1
36	21
37	2
38	6
39	23
40	6
41	165
42	26
43	163
44	6
45	2
47	2
48	1
49	2
50	3
51	2
52	1
53	27
54	28
55	627
56	60
57	335
58	15
59	2
65	5
66	7
67	137
68	71
69	488
70	47
71	80
72	4
73	2
74	0
75	6
77	14
78	4
79	37
80	57
81	391
82	133
83	999
84	72
85	11
86	2
87	1
91	9
92	3
93	27
94	50
95	456
96	285
97	534
98	48
99	5
103	0
105	1
106	1
107	7
108	4
109	80
110	22
111	81
112	19
113	3
115	0
116	0
119	3
120	1
121	7
122	4
123	115
124	14
125	98
126	10
127	1
133	1
135	3
136	13
137	61
138	584
139	447
140	97
141	8
147	1
149	4
150	2
151	8
152	5
153	6
154	3
155	2
163	1
165	11
166	2
167	2
173	0
178	1
179	21
180	3
191	1
192	0
199	0
207	1
233	2
234	9
235	35
236	7
276	2
277	1
278	22
279	4
