Mass Spectrum: Butanoic acid, 4-(2-oxocyclopentyl)-
Formula: C9H14O3
CAS: 3296-46-6
Molecular weight: 170
m/z	intensity
34	21
35	3
36	6
37	14
38	44
39	413
40	97
41	581
42	202
43	402
44	42
45	211
46	14
47	24
48	13
49	1
50	14
51	8
52	16
53	124
54	129
55	634
56	103
57	61
58	75
59	28
60	318
61	28
62	17
63	1
64	11
65	33
66	29
67	189
68	167
69	131
70	34
71	36
72	11
73	86
74	13
75	10
79	47
80	41
81	92
82	87
83	278
84	999
85	71
86	21
87	6
88	17
89	5
90	6
91	3
92	7
93	20
94	17
95	71
96	121
97	273
98	49
99	27
100	22
101	5
102	5
103	3
106	6
107	44
108	18
109	27
110	48
111	39
112	24
113	19
114	24
115	7
116	2
117	4
118	1
119	0
121	10
122	17
123	40
124	93
125	21
126	18
127	7
128	18
129	5
133	3
134	23
135	40
137	75
140	9
145	2
147	1
148	1
150	43
151	24
152	160
153	36
155	5
170	32
