Mass Spectrum: 3-(2-Pyridyl)-5-hydroxymethylisoxazoline
Formula: C9H10N2O2
CAS: 329694-52-2
Molecular weight: 178
m/z	intensity
49	13
50	83
51	169
52	137
53	32
54	11
55	1
61	6
62	15
63	32
64	39
65	31
66	14
67	16
68	8
75	32
76	64
77	123
78	999
79	397
80	35
81	4
90	20
91	21
92	44
93	32
94	12
95	14
103	33
104	318
105	353
106	55
107	4
115	3
116	12
117	40
118	65
119	90
120	170
121	25
122	12
123	5
131	44
132	32
133	8
143	5
144	36
145	32
146	48
147	603
148	68
149	29
159	10
160	86
161	10
162	3
178	17
179	4
