Mass Spectrum: Ethyl 4-amino-1-methyl-5-oxo-2,5-dihydro-1H-pyrrole-3-carboxylate
Formula: C8H12N2O3
CAS: 329695-21-8
Molecular weight: 184
m/z	intensity
14	2
15	16
16	1
18	2
19	1
26	21
27	93
28	91
29	119
30	21
31	11
32	2
37	2
38	4
39	7
40	22
41	32
42	204
43	30
44	35
45	12
46	1
47	1
51	7
52	89
53	74
54	224
55	50
56	40
57	23
58	13
59	1
64	1
65	2
66	10
67	13
68	65
69	10
70	9
71	4
72	3
73	1
77	1
78	1
79	3
80	38
81	29
82	38
83	139
84	26
85	2
86	3
93	1
94	1
95	4
96	1
97	3
98	37
99	5
100	2
101	4
109	18
111	999
112	85
113	7
114	2
123	1
126	2
127	6
128	1
129	3
137	47
138	18
139	158
140	13
141	1
155	4
156	2
184	203
185	20
186	2
