Mass Spectrum: Acetamide, N-[5-(4-pyridyl)-1,2,4-triazol-3-yl]-
Formula: C9H9N5O
CAS: 329710-13-6
Molecular weight: 203
m/z	intensity
33	0
34	1
36	2
37	15
38	19
39	16
40	19
41	37
43	999
44	25
45	4
46	0
47	0
48	1
50	95
51	156
52	40
53	26
54	5
55	3
57	76
58	2
59	1
60	2
61	6
62	19
63	30
64	43
65	17
66	11
67	7
68	4
69	4
70	8
71	1
72	0
73	0
75	19
76	49
77	105
78	119
79	54
80	4
81	0
82	0
83	0
84	0
85	0
87	2
88	2
89	2
91	46
92	30
93	4
94	0
97	0
98	0
99	0
100	0
101	1
102	2
103	13
104	87
105	155
106	53
107	4
108	0
109	0
111	0
112	0
113	0
114	0
115	0
116	1
119	213
120	20
121	1
122	0
125	0
127	0
128	0
129	0
130	3
131	1
132	5
133	4
134	1
135	0
143	0
144	0
145	1
146	0
147	0
153	0
154	0
155	0
156	0
157	1
161	695
162	61
163	2
164	0
169	0
171	0
172	0
173	0
174	1
175	1
176	0
183	0
185	0
187	1
188	2
189	0
197	0
198	0
199	0
203	245
204	26
205	2
