Mass Spectrum: Aniline, 3,5-bis(3-tolyloxy)-
Formula: C20H19NO2
CAS: 329726-24-1
Molecular weight: 305
m/z	intensity
33	1
35	33
36	51
37	19
38	52
39	426
41	249
42	39
43	26
44	25
45	1
46	0
50	84
51	250
52	223
53	122
54	52
55	22
56	5
57	10
58	0
59	0
61	6
62	58
63	302
65	999
66	63
67	42
68	92
69	16
70	9
71	4
72	1
73	1
74	18
75	26
77	273
78	148
79	162
80	62
81	14
82	4
83	5
84	5
85	9
87	12
89	165
90	75
91	689
92	155
93	19
94	11
95	10
96	10
97	2
98	5
99	2
100	2
101	6
102	17
103	20
104	15
105	26
106	11
107	73
108	27
109	52
110	86
111	6
113	5
114	7
115	105
116	34
117	23
118	13
119	7
120	4
121	1
122	1
123	1
124	0
125	1
126	10
127	42
128	106
129	48
130	35
131	24
132	8
133	2
134	2
135	1
136	0
137	0
139	23
140	17
141	44
142	20
143	81
144	34
145	22
146	5
147	2
148	0
149	1
150	2
151	9
152	29
153	40
154	50
155	38
156	28
157	16
158	20
159	5
160	2
161	0
162	0
163	0
164	1
165	4
166	7
167	18
168	38
169	51
170	260
171	50
172	8
173	3
174	2
175	0
176	0
177	0
178	2
179	4
180	8
181	13
182	9
183	57
184	42
185	17
186	45
187	6
188	1
189	1
190	0
191	1
192	1
193	3
194	5
195	5
196	71
197	119
198	76
199	36
200	5
201	0
202	3
203	2
204	1
205	1
206	1
207	0
208	0
209	0
210	1
211	2
212	23
213	62
214	30
215	7
216	1
217	3
218	2
219	4
220	3
221	2
222	0
226	0
227	0
229	0
230	0
231	2
232	2
233	2
234	3
235	2
236	1
241	0
242	0
243	1
244	1
245	5
246	1
247	1
248	2
249	0
257	0
258	1
259	2
260	4
261	2
262	3
263	2
264	0
271	0
272	0
273	0
275	1
276	9
277	36
278	7
279	0
284	0
286	0
287	0
288	2
289	1
290	0
291	0
300	0
301	3
302	4
303	7
304	16
305	146
306	29
307	3
308	0
