Mass Spectrum: 1-(4-Methoxy-2-nitroanilino)-1-deoxy-a-d-arabinofuranose
Formula: C12H16N2O7
CAS: 329736-54-1
Molecular weight: 300
m/z	intensity
33	56
34	2
39	343
41	293
42	424
43	860
45	603
47	61
49	12
50	57
51	251
52	304
53	168
54	79
55	147
57	365
58	61
60	999
61	242
62	92
63	334
64	109
65	208
66	116
67	82
68	87
69	119
71	150
73	402
74	44
75	59
76	77
77	196
78	168
79	233
80	179
81	35
82	25
84	17
85	53
86	40
87	27
88	21
89	34
90	56
91	91
92	139
93	100
94	53
95	164
96	34
97	13
98	4
99	4
100	4
101	11
103	68
104	83
106	284
107	144
108	151
109	73
110	87
111	9
112	3
113	2
115	19
116	12
117	22
118	22
119	38
120	102
121	128
122	340
123	57
124	15
125	3
126	2
127	2
128	2
129	5
130	9
131	14
132	38
133	83
134	123
135	60
136	33
137	48
138	22
139	5
140	1
142	1
143	2
144	4
145	7
146	10
147	49
148	74
149	130
151	409
152	86
153	207
154	14
155	2
157	2
158	3
159	5
160	15
161	13
162	27
163	46
164	59
165	67
166	60
167	95
168	926
169	204
170	18
171	5
172	1
173	2
174	4
175	4
176	8
177	13
178	5
179	7
180	17
181	22
182	3
187	2
188	2
189	3
190	10
191	6
192	15
193	10
194	9
196	54
197	77
198	9
202	1
203	1
205	2
206	2
207	4
208	5
209	7
210	26
211	3
221	1
222	2
223	5
237	1
239	3
246	3
265	1
269	3
291	1
292	1
293	2
294	3
295	3
296	6
297	9
298	9
299	12
300	81
301	10
302	1
