Mass Spectrum: Acetic acid, 2-(2-pyridylthio)-, 2-(4-bromophenyl)-2-oxoethyl ester
Formula: C15H12BrNO3S
CAS: 329715-12-0
Molecular weight: 365
m/z	intensity
33	1
34	0
37	7
38	25
39	114
40	9
42	100
43	14
44	6
45	80
46	63
47	8
48	3
50	216
51	237
52	108
53	23
54	2
55	1
57	42
58	13
59	5
60	6
61	4
62	16
63	38
64	17
65	12
66	15
67	22
69	30
70	11
71	7
72	3
73	11
74	95
75	200
76	245
77	38
78	635
79	142
80	46
81	18
82	38
83	92
84	30
85	7
86	5
87	4
89	73
90	86
91	12
92	5
93	15
94	2
96	9
97	19
98	2
99	2
100	0
101	2
102	4
103	4
104	44
105	8
106	2
107	4
108	3
109	8
110	87
111	48
112	13
113	2
114	0
115	1
116	0
117	3
118	9
119	6
120	4
121	1
122	21
123	301
124	999
125	105
126	51
127	6
129	15
130	3
131	11
132	0
133	0
134	0
135	0
137	54
138	6
139	0
140	3
141	1
143	3
144	0
145	3
146	0
149	0
151	581
152	261
153	46
155	393
156	30
157	363
158	20
159	1
166	0
167	2
168	17
169	60
170	6
171	58
172	4
180	0
181	1
183	538
184	43
185	518
186	46
187	2
188	0
196	0
197	2
198	3
199	4
200	4
201	1
202	0
203	0
211	0
212	0
213	0
214	4
215	0
216	0
217	0
226	0
227	0
228	0
233	0
243	0
244	0
246	0
260	0
264	1
265	0
266	1
267	0
274	0
276	0
277	0
278	0
280	0
286	0
288	3
290	4
291	0
292	0
303	0
365	14
366	3
367	14
368	2
369	0
