Mass Spectrum: Naphthalene-2-carbonitrile, 1,2,3,4-tetrahydro-1-oxo-spiro-3-cyclopentane-
Formula: C15H15NO
CAS: 329715-62-0
Molecular weight: 225
m/z	intensity
33	15
34	8
35	0
36	2
37	4
38	13
39	92
40	111
41	60
42	23
43	18
44	40
45	4
46	1
47	0
48	0
49	1
50	24
51	42
52	18
53	15
54	5
55	12
56	3
57	6
58	4
59	2
60	2
61	3
62	17
63	55
64	24
65	27
66	6
67	11
68	3
69	4
70	6
71	6
72	1
73	2
74	9
75	16
76	24
77	35
78	13
79	8
80	4
81	3
82	5
83	5
84	4
86	6
87	8
88	11
89	111
90	260
91	45
92	4
93	1
94	0
95	1
96	1
97	2
98	2
99	5
100	2
101	8
102	13
103	10
104	5
105	4
106	2
107	1
108	0
109	1
110	1
111	1
112	2
113	9
114	15
115	56
118	999
119	90
120	8
121	1
122	0
123	1
124	0
125	2
126	10
127	28
128	34
129	13
130	4
131	7
132	2
133	1
134	1
135	1
136	0
137	1
138	2
139	7
140	22
141	16
142	4
143	6
144	4
145	7
146	1
147	0
148	0
149	1
150	1
151	3
152	8
153	13
154	11
155	4
156	4
157	6
158	2
159	2
160	0
161	0
162	0
163	0
164	1
165	4
166	7
167	6
168	4
169	6
170	5
171	2
172	0
173	0
175	0
176	0
177	1
178	2
179	2
180	2
182	19
183	29
184	5
185	2
186	0
187	0
189	0
190	0
191	0
192	0
193	0
194	1
195	1
196	7
197	3
198	2
199	0
200	1
201	0
204	0
205	0
206	0
207	0
208	0
209	0
210	0
211	0
212	0
213	0
214	0
218	0
220	0
221	0
222	1
223	4
224	11
225	112
226	17
227	2
228	0
229	0
