Mass Spectrum: Indeno[1,2-E]tetrazolo[1,5-b]-1,2,4-triazin-5-one
Formula: C10H4N6O
CAS: 329710-24-9
Molecular weight: 224
m/z	intensity
33	52
36	2
37	22
38	88
39	98
40	39
41	43
43	59
44	68
45	3
50	143
51	47
52	11
53	18
55	21
56	22
57	28
58	1
60	5
61	42
62	137
63	136
64	78
65	9
69	59
70	50
71	3
73	19
74	46
75	109
76	88
77	20
78	4
84	17
85	23
86	44
88	999
89	55
90	2
97	5
98	9
99	13
100	14
101	30
102	74
103	3
104	34
105	1
111	14
112	23
113	119
114	117
115	20
116	6
128	1
130	23
138	3
140	418
141	36
142	4
144	35
145	7
153	24
158	36
168	318
169	33
170	11
171	12
196	68
197	9
198	2
224	63
225	2
227	1
