Mass Spectrum: Propane, 1-(1,1-dimethylethoxy)-2,2-dimethyl-
Formula: C9H20O
CAS: 32970-46-0
Molecular weight: 144
m/z	intensity
25	0
26	4
27	37
28	17
29	100
30	2
31	13
32	0
35	0
36	0
37	1
38	2
39	45
40	11
41	226
42	22
43	168
44	5
45	4
48	0
49	0
50	2
51	3
52	1
53	10
54	3
55	55
56	147
57	999
58	45
59	92
60	3
65	0
67	1
68	0
69	2
70	7
71	135
72	9
73	17
74	0
85	0
86	2
87	35
88	1
89	1
114	0
129	57
130	5
131	0
