Mass Spectrum: Butanedioic acid, monohydrazide, N''-(2-pyridylcarbonyl)-
Formula: C10H11N3O4
CAS: 329712-58-5
Molecular weight: 237
m/z	intensity
35	47
36	6
37	25
38	27
39	37
40	24
41	53
42	50
43	63
44	61
45	194
46	12
47	43
48	27
49	33
50	151
51	311
52	67
53	43
54	10
55	152
56	58
57	24
58	2
59	5
60	5
61	2
62	2
63	7
64	14
65	6
66	5
67	4
68	2
69	9
70	8
71	5
72	12
73	77
74	51
75	18
76	24
77	33
78	793
79	106
80	11
81	5
82	8
83	77
84	8
85	38
86	8
87	6
89	0
91	6
92	2
93	3
95	1
97	1
98	2
100	19
101	89
102	2
104	5
105	11
106	999
107	93
108	11
109	2
110	0
111	1
112	2
113	0
115	1
116	1
119	0
120	4
121	6
122	10
123	3
124	4
132	1
133	0
134	2
135	1
136	6
137	339
138	29
143	0
149	1
150	1
163	0
164	6
171	8
173	0
174	4
175	5
176	9
177	0
184	0
185	3
190	1
191	1
192	0
201	1
212	2
219	18
220	3
237	115
238	16
239	2
