Mass Spectrum: 5-Methyl-2-(2,2,2-trifluoro-1-methoxycarbonyl-ethylidene)-[1,3]oxathiole-4-carboxylic acid ethyl ester
Formula: C11H11F3O5S
CAS: 329735-48-0
Molecular weight: 312
m/z	intensity
33	3
34	1
35	1
37	12
38	33
39	124
40	11
41	19
43	999
45	653
46	21
47	39
48	2
49	1
50	4
51	30
52	3
53	14
54	6
55	23
56	6
57	8
59	410
60	15
61	11
62	5
63	27
65	6
67	343
69	807
70	249
71	416
72	81
73	25
74	9
75	33
76	2
77	15
79	1
81	75
82	11
83	36
84	19
85	20
87	72
88	152
89	23
90	34
91	26
92	1
93	9
94	6
95	5
96	3
97	10
98	90
99	185
100	20
101	41
102	6
103	7
105	8
106	22
107	13
108	2
109	12
110	5
111	7
113	38
114	10
115	25
116	75
117	31
118	44
119	20
120	3
121	14
122	2
123	7
124	3
125	16
126	5
127	4
128	1
129	4
130	5
131	6
132	5
133	15
135	6
137	694
138	42
139	25
140	3
141	3
143	19
144	11
145	9
146	3
147	20
149	93
150	6
151	10
152	19
153	38
154	6
155	6
156	3
157	4
158	4
159	1
160	1
161	3
163	48
164	5
165	16
166	6
167	11
168	4
169	27
170	2
171	3
173	43
174	142
175	16
176	19
177	5
178	1
179	8
180	11
181	9
182	9
183	5
184	4
185	3
186	3
187	1
188	2
189	2
190	3
191	28
192	4
193	7
194	3
195	5
196	23
197	8
198	2
199	1
201	81
202	148
203	20
204	11
205	45
206	7
207	39
208	15
209	12
210	5
211	8
212	1
213	2
215	1
216	1
218	1
219	1
220	1
221	1
222	2
223	11
224	17
226	574
227	55
228	31
229	4
230	1
231	2
233	3
235	72
236	8
237	6
238	13
239	10
240	2
241	2
242	1
245	1
246	1
247	1
250	8
251	18
253	550
254	314
255	61
256	17
257	2
259	1
263	7
264	7
265	14
267	244
268	28
269	17
270	2
271	1
277	1
278	1
281	421
282	56
283	60
284	50
285	8
286	3
287	1
290	1
293	102
294	14
295	6
296	1
312	965
313	140
314	63
315	8
316	1
