Mass Spectrum: Uracil, 6-acetamido-
Formula: C6H7N3O3
CAS: 32970-34-6
Molecular weight: 169
m/z	intensity
14	41
15	100
16	16
29	15
40	44
42	86
43	999
45	204
55	28
57	3
60	99
68	125
69	7
84	113
85	10
99	30
100	21
127	722
128	28
169	334
170	8
