Mass Spectrum: 3-Fluoro-3-(2-oxo-2-phenyl-ethylsulfanyl)-2-trifluoromethyl-acrylic acid methyl ester
Formula: C13H10F4O3S
CAS: 329735-34-4
Molecular weight: 322
m/z	intensity
33	1
34	1
35	1
36	1
37	2
38	6
39	33
40	2
41	7
42	11
43	3
45	66
46	28
47	3
48	2
50	53
51	170
52	11
53	2
54	1
55	1
56	1
57	1
59	18
60	1
61	2
62	7
63	32
65	62
66	4
67	1
69	18
70	2
71	12
72	1
73	2
74	13
75	18
77	406
78	34
79	2
81	5
82	1
83	1
84	1
85	1
86	1
87	4
89	10
91	141
92	12
93	13
94	13
95	2
96	1
97	3
98	1
99	1
100	2
101	1
103	7
105	999
106	102
107	8
108	1
109	1
110	1
112	4
113	11
114	1
115	1
116	1
117	1
118	1
119	15
120	4
121	4
122	1
123	1
125	6
126	1
127	3
128	1
129	1
130	1
131	1
132	1
133	1
135	26
136	2
138	4
139	1
140	1
141	3
142	1
144	10
145	1
146	1
147	3
148	1
149	2
150	1
153	5
154	1
155	1
156	1
157	1
158	6
159	1
160	1
161	1
162	1
163	1
164	1
165	1
166	1
167	1
168	1
169	1
170	1
171	1
172	2
173	1
174	1
175	1
176	1
177	1
178	1
179	1
180	1
181	1
182	1
183	1
184	1
185	1
186	1
187	1
188	1
189	1
190	1
193	1
197	1
198	1
199	1
200	1
201	1
203	8
204	1
205	1
206	1
207	1
208	1
209	1
211	1
212	1
213	1
214	1
215	1
217	2
218	1
219	1
220	1
221	1
222	1
223	1
224	1
225	1
226	1
227	1
228	1
229	1
230	1
233	1
234	1
235	1
236	1
239	1
241	1
242	1
243	1
247	1
248	1
249	1
250	1
253	1
257	1
258	1
260	1
261	1
263	1
265	1
268	1
270	1
280	1
283	21
284	3
285	1
286	1
287	1
289	5
290	6
291	23
292	3
293	1
294	1
302	10
303	2
304	1
305	1
306	1
322	2
323	1
324	1
