Mass Spectrum: Oxazol-5(4H)-one, 4-[5-(2,5-dichlorophenyl)-2-furfurylidene]-2-phenyl-
Formula: C20H11Cl2NO3
CAS: 329795-32-6
Molecular weight: 383
m/z	intensity
33	1
34	0
35	1
36	1
38	11
39	10
40	4
41	1
43	21
44	1
45	0
47	0
51	172
52	8
53	6
54	0
55	1
56	1
57	1
58	0
59	0
60	0
62	14
63	15
64	1
65	0
66	0
67	1
69	1
70	0
72	2
73	5
74	18
75	26
77	532
78	18
79	2
80	1
81	0
82	0
83	0
84	2
85	2
86	6
87	6
88	1
89	1
90	0
93	0
94	0
95	0
96	0
97	2
98	2
99	4
100	2
101	2
105	999
106	45
107	3
109	10
110	3
111	5
112	2
113	8
114	0
115	0
116	0
119	0
120	0
121	0
122	1
123	3
124	2
125	5
126	3
127	0
128	0
129	0
130	0
133	1
135	1
136	1
137	1
138	1
139	0
140	0
143	0
144	0
145	11
147	12
148	6
149	3
150	5
151	13
152	12
153	1
154	0
157	0
159	1
160	4
161	2
162	1
163	0
164	0
170	0
171	1
173	10
175	6
176	0
177	0
180	1
181	0
182	0
183	5
185	5
186	7
187	26
188	5
189	8
190	1
191	1
192	0
194	0
195	1
196	0
198	0
199	0
200	0
201	0
214	0
215	0
216	0
217	0
218	0
221	0
222	0
223	0
224	0
225	1
227	0
236	0
238	0
240	0
241	0
242	0
247	0
250	22
251	7
252	12
253	3
254	2
255	0
268	0
270	0
320	0
321	0
322	0
323	0
348	0
377	0
378	1
380	2
381	2
383	23
384	5
385	11
386	2
387	2
388	0
