Mass Spectrum: Bicyclo[2.2.1]hept-5-ene-2-carboxamide, N-(2,3-dihydro-1,5-dimethyl-3-oxo-2-phenyl-1H-pyrazol-4-yl)-
Formula: C19H21N3O2
CAS: 329717-06-8
Molecular weight: 323
m/z	intensity
34	0
37	1
38	7
39	61
40	31
41	38
42	40
43	8
44	3
45	0
49	0
50	7
51	33
52	14
53	21
54	29
55	374
56	999
57	93
58	3
60	0
61	0
62	2
63	14
64	22
65	71
66	130
67	23
68	6
69	4
70	3
71	2
74	1
75	1
76	4
77	118
78	20
79	17
80	4
81	5
82	7
83	263
84	210
85	10
86	0
87	0
88	1
89	3
90	5
91	119
92	23
93	52
94	8
95	7
96	3
97	2
98	2
99	0
101	0
103	5
104	8
105	6
106	5
107	1
108	2
109	14
110	10
111	3
112	1
113	0
115	1
116	0
117	2
118	8
119	27
120	17
121	27
122	3
123	5
124	1
125	1
126	1
128	1
129	2
130	4
131	3
132	5
133	1
134	1
135	2
136	5
137	11
138	15
139	5
140	1
141	0
142	0
143	1
144	2
145	4
146	3
147	6
148	5
149	4
150	0
151	0
152	1
153	1
155	0
156	0
157	1
158	6
159	5
160	1
161	2
162	1
163	1
164	2
165	2
166	1
167	0
168	0
169	0
171	7
172	4
173	3
174	3
175	6
176	2
177	0
182	0
183	0
184	6
185	4
186	3
187	5
188	12
189	3
190	0
194	0
197	0
198	0
199	1
200	3
201	5
202	213
203	355
204	59
205	5
206	0
208	0
209	0
210	0
211	1
212	3
213	9
214	7
215	8
216	2
217	0
218	0
223	0
224	0
226	1
227	1
228	10
229	14
230	74
231	14
232	1
235	0
237	0
238	1
239	1
240	21
241	5
242	2
243	0
244	0
245	1
246	0
249	0
252	0
254	0
255	1
256	8
257	326
258	74
259	10
260	0
262	0
263	0
265	0
266	2
267	1
268	1
269	11
270	1
273	0
274	0
275	0
276	1
277	0
278	1
279	0
280	1
282	12
283	3
284	0
290	1
291	0
293	0
294	2
295	1
296	0
301	0
304	5
305	5
306	2
307	1
308	2
309	0
319	1
321	1
323	549
324	118
325	16
326	1
