Mass Spectrum: Propanedioic acid, oxo-, dimethyl ester
Formula: C5H6O5
CAS: 3298-40-6
Molecular weight: 146
m/z	intensity
25	0
26	1
27	2
28	42
29	216
30	65
31	58
33	10
40	4
41	2
42	1
43	37
44	43
45	175
46	4
47	0
50	0
56	19
57	0
58	1
59	999
60	27
61	6
62	0
68	1
69	1
74	44
75	1
76	0
80	0
81	0
82	0
89	1
90	1
96	0
100	0
101	1
104	0
113	0
118	15
119	0
145	0
146	10
147	0
