Mass Spectrum: (3-Nitro-phenoxy)-acetic acid pyridin-2-ylmethylene-hydrazide
Formula: C14H12N4O4
CAS: 329963-07-7
Molecular weight: 300
m/z	intensity
33	5
34	4
35	1
36	16
37	54
38	330
39	919
40	129
41	127
42	171
43	102
44	86
45	28
46	10
47	2
50	414
51	899
52	321
53	195
54	23
55	31
56	18
57	18
58	47
59	6
60	8
61	25
62	125
63	787
64	726
65	582
66	312
67	64
68	17
69	11
70	29
71	7
72	0
73	6
74	46
75	78
76	217
77	230
78	950
79	223
80	110
81	44
82	5
83	5
84	6
85	1
86	1
87	3
88	3
89	7
90	39
91	451
92	651
93	271
94	245
95	75
96	13
97	2
98	1
99	1
100	2
101	4
102	5
103	66
104	126
105	999
106	544
107	128
108	94
109	51
110	7
111	2
112	3
114	27
115	5
116	3
117	14
118	17
119	64
120	348
121	189
122	736
123	287
124	66
125	5
126	2
127	2
128	1
129	2
130	1
132	143
133	80
134	78
135	20
136	50
138	364
139	90
140	10
141	2
142	1
143	1
144	1
145	1
146	5
148	283
149	136
150	741
151	68
152	28
153	6
154	4
155	2
160	11
161	5
162	33
163	4
164	7
165	28
166	10
167	4
168	6
169	2
170	1
171	2
174	3
176	0
178	21
179	6
180	1
181	1
182	1
189	1
193	0
194	6
195	14
196	88
197	12
198	1
209	2
210	1
224	0
225	4
242	9
243	1
252	3
254	39
255	10
256	0
265	0
282	1
283	4
300	61
301	9
302	0
