Mass Spectrum: 1,2,5-Oxadiazole-3-carboxamide, 4-amino-N-(2-aminoethyl)-
Formula: C5H9N5O2
CAS: 329922-36-3
Molecular weight: 171
m/z	intensity
33	13
34	6
36	0
38	19
39	45
40	160
41	144
42	459
43	999
44	513
45	36
46	0
50	4
51	9
52	33
53	141
54	135
55	102
56	60
57	75
58	50
59	30
60	6
63	2
64	2
65	1
66	4
67	12
68	21
69	67
70	179
71	19
72	1
73	0
74	0
75	0
76	5
77	5
78	1
79	1
80	1
81	3
82	16
83	23
84	56
85	30
86	45
87	12
89	1
91	2
92	0
93	1
94	3
95	9
96	12
97	65
98	4
99	2
103	2
104	3
105	3
106	0
110	12
111	44
112	79
113	13
114	10
115	0
117	0
118	0
119	1
122	0
123	2
124	3
125	3
126	0
127	0
128	0
129	1
133	0
141	3
142	14
149	0
154	28
155	1
171	1
172	0
