Mass Spectrum: 2-Diisopropylaminoethyl ethyl ether
Formula: C10H23NO
CAS: 32996-95-5
Molecular weight: 173
m/z	intensity
41	280
42	246
43	359
44	248
45	195
54	48
56	131
58	75
70	197
72	925
73	94
84	36
86	80
91	21
98	31
112	57
113	12
114	999
115	112
116	45
123	17
126	17
128	18
173	39
