Mass Spectrum: Propanamide, 3,3-diphenyl-N-(4-fluorophenyl)-
Formula: C21H18FNO
CAS: 329931-49-9
Molecular weight: 319
m/z	intensity
33	3
34	0
37	1
39	29
40	3
41	2
42	8
43	7
44	2
45	0
50	8
51	48
52	9
53	3
54	0
56	2
57	30
58	4
59	1
63	29
64	6
65	12
66	1
69	2
70	1
71	0
75	16
77	117
78	22
79	4
81	3
83	97
84	11
85	1
87	2
88	7
89	15
91	17
93	11
95	27
96	7
97	5
98	1
99	0
101	3
103	120
104	21
105	10
106	1
108	1
111	999
112	43
113	3
115	29
116	2
121	5
122	3
124	37
126	6
127	5
128	20
129	3
131	29
132	2
133	0
135	0
137	2
138	5
139	14
141	14
142	1
149	0
152	193
153	19
154	2
160	1
165	354
167	821
170	0
173	0
175	0
176	8
178	48
179	31
180	34
181	20
182	3
183	1
184	0
185	4
186	10
187	72
188	7
189	0
191	0
193	0
196	0
197	0
198	2
199	0
200	1
201	0
205	0
207	5
208	9
209	2
210	0
214	8
215	0
222	0
224	0
226	3
228	0
239	0
240	5
241	6
242	2
243	0
254	0
276	1
300	1
301	2
314	1
316	2
317	4
319	459
320	105
322	0
