Mass Spectrum: Cyclohexanone, 3-(1,2,4-triazol-1-yl)methyl-
Formula: C9H13N3O
CAS: 329933-49-5
Molecular weight: 179
m/z	intensity
33	28
34	23
39	423
40	41
41	755
42	270
43	100
44	76
45	22
48	7
51	36
53	176
54	687
55	810
56	304
57	29
58	19
64	3
65	6
67	748
68	450
69	170
70	858
71	28
77	27
79	74
80	27
81	157
82	999
83	268
84	29
91	9
95	137
96	75
97	103
98	21
99	33
104	5
105	75
106	6
108	61
109	59
110	457
111	44
122	35
123	119
124	23
129	26
135	3
136	285
137	30
150	29
151	102
152	8
171	7
179	315
180	29
