Mass Spectrum: 2-Chloro-4,5-difluoro-N-phenethyl-benzamide
Formula: C15H12ClF2NO
CAS: 329920-20-9
Molecular weight: 295
m/z	intensity
34	0
36	5
37	1
38	5
39	41
40	14
41	13
42	3
43	3
44	6
45	0
50	12
51	31
52	9
53	4
54	0
55	1
56	2
57	2
58	0
60	0
61	5
62	23
63	31
64	9
65	102
66	6
67	0
68	4
69	1
70	0
71	1
72	0
73	1
74	6
75	5
76	5
77	41
78	36
79	13
80	2
81	9
82	1
83	0
84	1
85	0
86	1
87	1
88	2
89	20
90	13
91	196
92	26
93	10
94	1
95	1
96	3
97	41
98	3
99	14
100	1
101	1
102	10
104	999
105	92
106	2
107	0
108	0
109	0
110	1
111	8
112	51
113	18
114	3
115	1
116	1
117	3
118	6
119	3
120	2
121	1
122	0
123	0
125	1
126	1
127	3
128	4
129	1
130	1
131	0
135	0
137	0
138	2
139	2
140	15
141	15
142	1
143	0
147	189
148	18
149	57
150	4
151	0
152	1
153	0
154	0
155	0
156	2
157	0
158	0
159	0
161	0
163	0
164	0
165	1
166	0
167	2
168	4
169	1
170	0
171	1
172	9
175	769
176	66
177	228
178	17
179	1
181	0
182	1
183	1
184	0
185	0
187	0
188	0
189	0
191	0
192	0
193	0
194	0
195	1
198	0
201	1
202	2
204	30
205	3
206	9
207	0
208	0
211	0
214	0
215	0
216	0
225	0
227	0
239	0
242	0
259	0
260	1
261	0
280	0
295	158
296	26
297	47
298	7
299	0
305	0
