Mass Spectrum: 3-[(4-Fluorophenacyl)thio]-5,6,7,8-tetrahydro-1-methyl-4-isoquinolinecarbonitrile
Formula: C19H17FN2OS
CAS: 329924-74-5
Molecular weight: 340
m/z	intensity
33	2
39	149
41	141
43	25
45	63
46	13
47	5
50	43
51	62
52	22
53	31
54	7
55	23
57	47
59	9
60	3
61	4
62	11
63	45
64	18
65	28
66	10
67	8
68	11
69	49
71	14
75	147
76	28
77	54
78	18
79	23
80	5
81	9
82	8
83	39
84	11
86	8
89	40
90	13
91	34
92	6
93	11
95	449
98	3
99	2
100	3
101	15
102	18
103	17
104	14
105	9
107	13
109	47
110	5
112	6
113	5
114	8
115	33
116	33
117	21
118	9
119	4
120	8
121	13
123	999
125	6
127	15
128	13
129	13
130	10
131	9
132	5
133	4
134	6
135	5
136	3
138	9
139	6
140	9
141	6
142	12
143	16
144	21
145	9
146	4
147	3
148	2
149	4
150	1
152	14
153	5
154	8
155	20
156	21
157	8
158	2
159	3
160	4
161	3
162	11
163	2
164	1
165	1
166	1
167	2
168	5
169	12
170	7
171	23
172	10
173	8
174	4
175	3
176	4
177	1
181	1
182	2
183	4
184	3
185	1
186	1
187	5
188	5
189	10
190	4
191	1
198	2
200	10
202	8
203	7
204	6
205	1
213	1
215	25
217	736
218	104
219	40
220	6
245	2
250	1
265	1
269	1
270	1
278	1
279	2
280	1
283	1
293	1
297	2
298	1
305	1
307	17
308	4
309	1
311	2
312	4
313	1
322	1
323	5
324	1
325	1
339	31
340	107
341	21
342	6
343	1
