Mass Spectrum: Butan-2-one, 1-(5-benzofurazanyloxy)-3,3-dimethyl-
Formula: C12H14N2O3
CAS: 329933-46-2
Molecular weight: 234
m/z	intensity
33	0
36	0
37	4
38	14
39	47
41	204
42	29
43	52
44	2
45	1
46	0
49	0
50	12
51	11
52	7
53	7
54	4
55	16
57	999
58	41
60	1
61	2
62	11
63	12
64	16
65	18
66	3
67	9
68	1
69	10
70	6
71	9
72	0
73	0
75	2
76	8
77	17
78	5
79	3
80	1
81	1
83	3
85	95
86	5
87	1
88	2
89	3
90	2
91	13
92	12
93	11
94	8
95	2
96	0
97	0
98	0
99	0
100	0
101	0
102	0
103	2
104	1
105	7
106	2
107	1
108	1
109	1
110	0
116	0
119	31
120	6
121	8
122	3
123	0
129	0
132	4
133	8
134	1
135	0
136	3
137	0
138	0
146	0
147	0
148	1
149	3
150	53
151	5
152	0
159	0
160	0
161	1
162	0
163	0
173	0
174	0
175	0
177	0
178	0
179	0
189	0
191	2
192	0
219	0
232	0
234	73
235	10
236	1
237	0
