Mass Spectrum: Carbonofluoridic acid, trifluoromethyl ester
Formula: C2F4O2
CAS: 3299-24-9
Molecular weight: 132
m/z	intensity
12	51
19	7
28	237
44	999
47	399
50	180
66	281
69	362
85	400
113	6
132	12
