Mass Spectrum: 1H-Pyrrole, 2-ethyl-3,5-dimethyl-
Formula: C8H13N
CAS: 32990-59-3
Molecular weight: 123
m/z	intensity
41	27
42	55
53	24
54	15
65	30
66	17
67	45
77	28
79	37
80	12
91	10
92	20
93	130
94	31
106	45
107	130
108	999
109	89
118	8
120	56
121	18
122	83
123	366
124	29
