Mass Spectrum: Furan-2-carboxamide, N-(4-benzyloxyphenyl)-
Formula: C18H15NO3
CAS: 329939-25-5
Molecular weight: 293
m/z	intensity
35	0
37	11
39	62
41	7
42	0
43	0
44	1
45	0
47	0
48	1
49	5
51	27
52	37
53	16
54	1
55	0
56	0
57	0
58	0
59	0
60	1
62	28
63	44
65	181
67	60
68	1
70	0
71	0
72	0
73	1
74	3
75	4
77	13
78	7
79	16
80	10
81	4
82	0
83	0
85	1
86	2
91	865
92	41
95	999
96	9
99	0
100	0
101	0
102	1
103	1
105	3
106	2
107	6
108	7
109	0
110	0
114	0
115	2
116	3
117	4
118	2
119	3
120	0
121	0
124	0
125	0
126	0
127	0
128	1
129	1
130	0
131	0
132	0
134	0
135	0
137	0
139	0
140	1
141	1
143	0
144	0
145	2
146	0
147	0
148	0
151	0
152	1
153	1
154	1
155	0
156	0
157	0
158	0
159	0
162	0
163	0
166	0
167	1
168	2
169	0
170	1
171	0
172	0
173	1
174	0
177	0
178	0
179	0
181	1
182	0
185	0
186	0
189	0
195	0
196	2
198	7
199	3
202	197
203	12
204	0
227	0
234	0
235	0
236	0
237	0
248	0
251	0
276	0
293	264
294	37
295	4
296	0
