Mass Spectrum: Tungsten, tricarbonyl(.eta.5-2,4-cyclopentadien-1-yl)(2-pyridinylmethyl)-
Formula: C14H11NO3W
CAS: 32992-62-4
Molecular weight: 425
m/z	intensity
39	590
40	140
50	90
51	168
52	136
65	590
66	636
78	190
79	150
92	304
93	999
157	33
184	9
223	90
236	27
249	209
263	13
277	127
288	122
305	168
314	245
333	86
341	454
369	163
397	300
425	2
