Mass Spectrum: Propanamide, 3,3-diphenyl-N-(2-fluorophenyl)-
Formula: C21H18FNO
CAS: 329931-42-2
Molecular weight: 319
m/z	intensity
33	6
38	3
39	34
40	4
41	5
42	8
43	5
44	1
51	60
52	11
53	3
54	0
55	0
57	31
58	1
62	3
63	17
64	17
65	15
66	1
68	0
69	1
70	1
75	17
77	136
78	21
79	7
81	2
83	113
84	11
85	1
86	0
87	2
89	13
90	19
91	16
92	0
93	5
95	13
96	2
97	0
100	1
101	3
102	22
103	98
104	18
105	10
106	0
109	11
111	999
112	48
113	4
115	29
116	1
121	5
122	2
123	0
124	35
125	3
126	4
128	18
129	12
130	0
131	23
132	2
137	3
139	19
141	12
142	0
152	184
153	21
154	0
163	11
165	341
167	718
169	3
171	0
175	0
176	10
178	53
179	40
180	44
181	19
182	3
183	0
185	2
186	4
187	62
198	0
200	2
207	5
208	12
209	0
214	5
215	0
226	2
240	8
241	3
242	1
276	0
314	0
315	1
316	2
317	4
319	373
320	68
