Mass Spectrum: Ethanol, 2-[[2-[(4-nitrophenyl)amino]ethyl]amino]-
Formula: C10H15N3O3
CAS: 329922-39-6
Molecular weight: 225
m/z	intensity
39	5
40	7
41	10
42	39
43	75
44	39
45	34
46	1
50	26
51	10
52	8
54	10
56	210
57	17
63	11
64	9
65	28
74	999
75	46
76	57
77	33
78	27
79	16
82	7
86	8
89	10
90	16
91	45
92	9
93	22
97	5
104	87
105	266
106	31
107	6
108	4
117	26
118	53
119	71
120	14
121	31
122	30
134	377
135	330
136	78
150	2
151	155
152	287
153	18
163	2
165	79
190	4
192	13
193	4
194	28
195	10
206	11
207	24
225	293
226	23
