Mass Spectrum: N-(4-Fluorophenyl)-N'-phenyl-urea
Formula: C13H11FN2O
CAS: 330-98-3
Molecular weight: 230
m/z	intensity
64	500
65	722
66	720
77	179
82	220
83	257
84	312
91	351
92	118
93	847
94	79
109	289
110	80
111	999
112	78
119	448
120	49
137	398
138	50
149	80
230	149
