Mass Spectrum: 4-(5-Chloro-2-pyridylazo)-m-phenylenediamine
Formula: C11H10ClN5
CAS: 33006-91-6
Molecular weight: 247
m/z	intensity
14	3
15	5
16	1
26	7
27	17
28	40
29	5
30	11
31	2
35	1
36	7
37	8
38	13
39	33
40	13
41	29
42	30
43	10
44	8
45	4
47	2
48	1
49	3
50	18
51	21
52	52
53	86
54	30
55	7
56	3
57	5
60	3
61	3
62	6
63	34
64	19
65	17
66	33
67	29
68	6
69	5
70	2
71	2
72	1
73	9
74	3
75	6
76	42
77	12
78	29
79	44
80	321
81	22
82	2
83	3
84	3
85	6
86	2
87	2
89	2
90	49
91	9
92	27
93	9
94	9
95	5
96	6
97	3
98	2
99	3
100	4
101	17
102	2
103	6
104	2
105	27
106	28
107	999
108	80
109	3
110	1
111	1
112	23
113	6
114	9
115	2
116	1
117	1
118	1
119	5
120	9
121	4
122	2
123	7
124	1
126	2
127	5
128	24
129	4
130	8
131	1
132	1
133	1
134	1
135	136
136	11
138	1
139	1
140	1
141	1
142	1
151	3
152	1
153	1
154	1
155	4
156	3
157	2
164	2
165	1
166	2
167	2
168	1
176	1
178	1
181	1
182	6
183	11
184	9
185	2
189	2
190	1
191	10
192	2
193	4
194	1
199	1
201	2
202	2
203	1
204	1
205	1
210	1
211	3
216	2
217	8
218	488
219	78
220	157
221	24
222	2
225	1
227	8
228	1
244	4
245	39
246	9
247	158
248	22
249	46
250	6
