Mass Spectrum: 5-Fluoromethyl-3-phenyloxazolidin-2-one
Formula: C10H10FNO2
CAS: 330199-03-6
Molecular weight: 195
m/z	intensity
40	27
41	20
42	31
43	5
50	92
51	330
52	51
53	6
56	4
57	16
59	38
60	5
63	90
64	82
65	53
66	11
76	45
77	999
78	95
79	11
90	14
91	246
92	13
103	42
104	990
105	187
106	25
107	4
117	12
118	25
119	33
120	3
130	247
131	20
132	7
150	125
151	13
195	514
196	44
197	5
