Mass Spectrum: Ethyl 2-(2-imino-3-[4-(isopropylamino)-6-(methylthio)-1,3,5-triazin-2-yl]-5-oxo-1-imidazolidinyl)acetate
Formula: C14H21N7O3S
CAS: 330180-31-9
Molecular weight: 367
m/z	intensity
33	21
34	3
36	3
38	11
39	103
40	69
41	420
42	494
43	637
45	203
47	126
48	11
49	10
50	7
51	12
53	79
55	999
56	119
57	74
58	154
59	24
60	10
61	41
62	6
63	3
65	5
66	17
68	457
69	253
70	41
71	63
72	63
74	274
76	13
77	9
78	7
79	11
80	81
81	59
82	48
83	78
84	50
85	88
86	10
87	8
88	4
90	3
91	6
93	59
94	70
95	36
96	88
97	34
99	103
100	16
101	22
103	56
105	8
106	19
107	14
108	26
109	33
110	116
111	25
112	14
113	9
114	9
115	5
116	16
119	3
120	5
121	11
122	21
123	27
125	46
127	34
128	9
130	4
133	6
134	7
135	7
136	14
137	23
138	12
139	21
140	23
141	24
142	10
143	4
147	3
148	4
149	22
150	18
151	14
152	16
153	9
154	11
155	6
156	3
158	3
161	4
162	6
163	6
164	14
165	26
166	21
167	26
168	16
169	31
170	71
171	9
172	4
176	8
177	8
178	8
179	20
180	8
181	10
182	13
183	22
184	31
185	9
186	14
190	2
191	8
192	13
193	17
194	14
195	44
196	101
197	13
198	9
199	3
204	3
205	5
206	7
207	12
208	14
209	29
210	43
211	34
212	131
213	15
214	6
219	7
220	6
221	13
222	10
223	30
224	29
225	37
226	6
227	4
228	3
232	2
235	6
236	6
237	14
238	7
239	8
246	3
247	6
248	8
249	14
250	21
251	11
253	21
254	3
260	3
261	3
262	6
263	10
264	14
265	34
266	41
267	14
268	5
276	4
277	9
278	12
279	10
280	6
289	3
290	5
291	7
292	17
293	23
295	105
296	12
297	6
305	8
306	6
307	6
308	5
310	14
316	3
317	3
318	5
319	6
321	26
322	26
323	7
324	9
325	5
333	3
334	5
335	9
336	4
338	9
339	5
345	3
346	4
347	6
348	9
349	8
350	22
352	56
353	8
354	3
359	3
360	4
361	6
363	11
364	22
365	14
366	23
367	85
368	13
369	6
