Mass Spectrum: 1,2-Dimethyl-4-trifluoroacetoxycyclohexane
Formula: C10H15F3O2
CAS: 330154-34-2
Molecular weight: 224
m/z	intensity
37	17
38	24
39	357
40	82
41	910
42	232
43	267
44	54
45	64
46	2
47	24
50	59
51	68
52	18
53	165
54	161
55	664
56	198
57	59
59	30
60	16
61	5
63	9
64	3
65	33
66	63
67	361
68	662
69	999
70	49
71	14
73	3
75	3
77	51
78	21
79	65
80	44
81	745
82	151
83	14
85	3
91	27
92	7
93	37
94	18
95	954
96	76
97	23
99	12
108	10
109	51
110	573
111	217
112	19
113	6
125	8
139	2
140	2
141	4
153	10
167	6
