Mass Spectrum: Cycloheptanone, 2-(3-buten-1-yl)-
Formula: C11H18O
CAS: 33015-80-4
Molecular weight: 166
m/z	intensity
26	15
27	215
28	30
29	149
30	3
31	5
37	2
38	11
39	299
40	47
41	547
42	82
43	162
44	4
45	2
46	0
47	1
50	8
51	29
52	14
53	102
54	199
55	678
56	69
57	30
58	89
59	3
61	1
62	2
63	7
64	1
65	26
66	19
67	245
68	142
69	141
70	127
71	24
72	1
74	0
75	1
77	26
78	8
79	81
80	34
81	146
82	29
83	259
84	453
85	26
86	0
91	18
92	3
93	17
94	60
95	69
96	16
97	366
98	54
99	3
103	1
105	7
106	1
107	13
108	7
109	25
110	8
111	58
112	999
113	104
114	4
115	0
117	0
119	4
121	1
122	3
123	36
124	10
125	27
126	2
133	0
137	17
138	13
139	0
148	7
149	2
151	9
165	2
166	157
167	21
168	0
