Mass Spectrum: Benzene, 1-azido-2-bromo-
Formula: C6H4BrN3
CAS: 3302-39-4
Molecular weight: 197
m/z	intensity
14	10
25	10
26	50
27	40
28	60
36	20
37	130
38	240
39	430
40	30
45	60
49	30
50	130
51	70
52	40
60	10
61	60
62	120
63	460
64	220
65	30
73	10
74	30
75	30
76	30
79	30
80	20
81	30
82	20
87	20
88	30
89	20
90	999
91	80
92	10
117	10
119	10
169	190
170	20
171	180
172	10
197	60
199	60
