Mass Spectrum: 2-Chloro-5,6,7,8-tetrahydro-thiazolo[5,4-c]azepin-4-one
Formula: C7H7ClN2OS
CAS: 330203-57-1
Molecular weight: 202
m/z	intensity
50	59
51	98
52	77
53	85
54	17
55	15
56	38
57	54
58	175
59	18
60	10
62	54
63	26
64	74
65	42
66	34
67	17
68	44
69	315
70	258
71	83
72	34
73	9
77	21
78	31
79	107
80	57
81	70
82	82
83	94
84	999
85	88
86	56
87	7
88	2
91	100
92	55
93	7
94	4
95	33
96	22
97	34
98	9
99	1
104	2
105	48
106	6
109	2
110	69
111	13
112	40
113	60
114	3
115	3
117	12
118	3
119	10
120	3
121	1
132	7
133	26
134	3
135	6
137	10
138	27
139	157
140	11
141	12
142	2
144	13
145	80
146	60
147	77
148	17
149	19
158	6
159	48
160	5
161	15
167	76
168	5
169	2
170	3
171	3
172	80
173	314
174	154
175	121
176	39
177	3
200	2
201	13
202	563
203	51
204	200
205	13
206	3
