Mass Spectrum: 3-[(Cyclohexyl-methyl-amino)-methyl]-3H-benzooxazol-2-one
Formula: C15H20N2O2
CAS: 330221-02-8
Molecular weight: 260
m/z	intensity
33	2
34	2
36	2
37	10
38	24
39	91
40	46
41	184
42	206
43	57
44	999
45	24
46	1
48	1
49	3
50	25
51	73
52	81
53	35
54	28
55	179
56	33
57	45
58	16
59	1
60	3
61	3
62	7
63	24
64	27
65	21
66	6
67	16
68	21
70	189
71	24
72	1
74	1
75	4
76	13
77	111
78	32
79	83
80	9
81	13
82	30
83	71
84	73
85	5
86	0
90	5
91	26
92	4
93	3
94	2
95	1
96	12
97	5
98	4
102	1
103	0
104	9
105	2
106	10
107	1
109	15
110	2
111	0
112	4
113	16
114	0
118	0
119	0
120	2
121	0
122	0
124	24
126	930
127	84
128	3
130	0
135	116
136	11
137	0
148	25
149	2
260	2
