Mass Spectrum: Pentanoic acid, 2,2,4,4-tetramethyl-
Formula: C9H18O2
CAS: 3302-12-3
Molecular weight: 158
m/z	intensity
26	3
27	87
28	12
29	174
30	4
31	11
37	0
38	3
39	85
40	14
41	305
42	18
43	128
44	5
45	25
46	1
47	1
48	0
49	1
50	2
51	4
52	2
53	20
54	4
55	118
56	187
57	999
58	43
59	238
60	10
61	2
62	0
63	0
65	3
66	1
67	8
68	1
69	26
70	7
71	69
72	3
73	29
74	0
77	2
79	3
80	0
81	2
82	1
83	33
84	2
85	20
86	1
87	225
88	89
89	5
90	0
91	0
94	0
95	0
96	0
97	151
98	10
99	1
100	0
101	71
102	80
103	311
104	17
105	1
111	2
112	1
113	14
114	1
115	5
116	2
117	0
125	4
126	0
127	0
129	1
140	0
141	3
142	0
143	171
144	14
145	1
157	0
158	0
159	61
160	6
