Mass Spectrum: 4H-1,2,4-Triazol-4-amine, N-[5-(4-bromophenyl)-2-furfurylideno]-
Formula: C13H9BrN4O
CAS: 330220-45-6
Molecular weight: 316
m/z	intensity
33	5
34	4
35	3
36	17
37	49
38	136
39	154
40	231
41	90
42	60
43	41
44	58
45	5
46	0
47	0
50	558
51	709
52	50
53	62
54	20
55	29
56	29
57	112
60	9
61	41
62	187
63	999
65	20
66	4
67	5
68	11
69	62
70	57
71	11
73	33
74	203
75	402
76	392
77	151
79	597
80	64
81	22
82	29
83	6
84	10
85	24
86	79
87	145
88	168
89	41
90	31
91	29
92	5
93	3
95	6
96	27
98	34
99	34
100	21
101	98
103	296
104	334
106	8
107	5
108	17
109	8
110	15
111	18
113	321
114	387
115	63
116	9
117	14
118	7
119	8
120	4
121	1
122	2
123	4
125	37
126	146
127	778
128	93
129	18
131	90
132	63
133	26
134	4
135	1
136	1
137	1
138	5
139	18
140	133
141	34
142	6
143	9
145	8
146	1
149	0
150	2
151	2
152	7
153	23
155	623
156	79
157	182
158	31
159	27
161	43
162	3
163	1
164	1
165	1
166	3
167	13
168	27
169	20
170	5
171	8
172	2
173	0
175	0
178	3
179	7
180	99
181	23
182	121
183	224
184	28
185	202
186	14
187	1
189	2
190	2
191	8
192	32
193	233
194	52
195	214
196	22
197	1
202	0
203	6
206	290
207	48
208	246
209	30
210	3
211	1
218	0
219	1
220	2
221	1
222	3
223	1
224	1
230	1
231	3
232	7
234	203
235	38
236	171
237	28
238	7
245	1
246	5
247	42
248	19
249	53
250	25
251	15
252	8
253	1
259	5
260	12
261	19
262	12
263	15
264	3
265	0
266	0
272	0
274	1
282	0
283	1
285	0
287	3
288	3
289	14
290	3
291	12
292	3
294	1
299	4
300	1
301	4
302	1
309	0
310	3
312	12
316	787
317	154
318	683
319	109
320	9
