Mass Spectrum: 1-Butanol, 4-bromo-
Formula: C4H9BrO
CAS: 33036-62-3
Molecular weight: 152
m/z	intensity
25	2
26	35
27	262
28	27
29	134
30	8
31	416
33	3
34	1
35	5
36	39
37	14
38	37
39	246
40	99
41	628
42	999
43	395
44	121
45	43
46	1
47	0
48	0
49	2
50	8
51	9
52	3
53	29
54	11
55	942
56	55
57	50
58	3
59	3
60	2
61	0
62	1
63	0
64	2
67	3
68	3
69	15
70	8
71	383
72	377
73	107
74	6
81	6
82	9
92	1
93	16
94	3
95	16
96	3
105	4
106	78
107	23
108	81
109	22
110	1
124	13
125	1
126	11
127	2
134	269
135	37
136	273
137	36
138	2
