Mass Spectrum: Propane, 1-bromo-2,3-dichloro-
Formula: C3H5BrCl2
CAS: 33037-07-9
Molecular weight: 190
m/z	intensity
14	7
15	15
25	6
26	28
27	61
28	3
29	13
35	8
36	13
37	37
38	58
39	291
40	24
41	77
42	5
47	13
48	12
49	259
50	13
51	89
52	4
55	3
57	4
58	3
59	6
60	10
61	142
62	80
63	53
64	27
69	2
71	3
72	4
73	20
74	9
75	969
76	48
77	313
78	19
79	19
80	8
81	17
82	7
83	29
86	20
87	9
89	3
91	5
92	6
93	88
94	9
95	85
96	14
97	59
98	11
99	39
100	4
101	14
102	10
103	5
104	4
105	96
106	13
107	96
108	12
109	12
110	62
111	999
112	73
113	647
114	30
115	105
116	7
117	6
118	4
119	53
120	38
121	50
140	8
141	103
142	13
143	137
144	7
145	36
146	2
147	4
148	3
149	2
153	4
154	7
155	284
156	18
157	377
158	17
159	91
160	5
163	2
164	2
173	3
174	3
178	4
179	2
180	3
183	7
185	2
187	4
189	3
190	31
191	2
192	44
193	2
194	20
196	5
