Mass Spectrum: L-Leucine, N-L-leucyl-
Formula: C12H24N2O3
CAS: 3303-31-9
Molecular weight: 244
m/z	intensity
41	62
42	25
43	118
44	233
45	13
46	3
49	2
51	1
53	5
54	3
55	25
56	9
57	15
58	2
59	1
60	2
67	4
68	3
69	14
70	23
71	5
72	4
73	9
74	3
77	0
81	2
82	2
83	2
84	11
86	999
87	54
88	2
95	2
96	2
97	4
98	5
99	1
100	5
111	0
112	4
113	4
114	1
115	0
116	1
124	0
126	1
127	0
128	1
129	0
130	1
132	6
140	23
141	10
142	2
144	2
155	1
169	0
170	4
183	8
184	1
187	4
188	4
199	1
201	0
229	2
244	39
245	5
