Mass Spectrum: Proline, 5-oxo-, 2,4,5-trichlorophenyl ester
Formula: C11H8Cl3NO3
CAS: 3303-65-9
Molecular weight: 307
m/z	intensity
39	25
41	167
54	25
55	36
56	91
57	12
61	18
62	30
84	999
85	85
91	6
96	12
97	67
98	6
99	24
107	24
109	18
132	18
133	12
134	12
135	6
167	30
169	30
179	6
181	6
196	73
197	12
198	73
200	24
279	24
281	24
