Mass Spectrum: 3-Hydroxydecanoic acid
Formula: C10H20O3
CAS: 33044-91-6
Molecular weight: 188
m/z	intensity
15	3
16	1
17	3
18	9
26	1
27	31
28	11
29	56
30	1
31	6
39	24
40	5
41	111
42	49
43	184
44	30
45	14
47	9
51	2
52	1
53	9
54	15
55	143
56	88
57	81
58	22
59	7
60	38
61	9
65	2
66	7
67	35
68	30
69	227
70	44
71	335
72	17
73	19
74	2
77	2
78	1
79	6
80	3
81	37
82	26
83	36
84	113
85	24
86	13
87	43
88	52
89	999
90	43
91	11
92	1
93	3
94	4
95	19
96	34
97	24
98	28
99	14
100	24
101	13
102	9
103	1
104	6
105	3
106	1
107	1
108	16
109	17
110	99
111	88
112	8
113	11
114	31
115	6
116	3
117	1
119	2
123	22
124	9
125	1
126	8
127	31
128	20
129	35
130	4
133	1
134	13
135	4
137	3
141	5
142	4
151	1
152	78
153	11
154	1
169	1
170	49
171	9
172	1
187	3
189	2
