Mass Spectrum: 6-Hepten-2-one, 7-phenyl-
Formula: C13H16O
CAS: 33046-88-7
Molecular weight: 188
m/z	intensity
41	10
43	161
51	30
64	10
78	30
79	10
89	10
91	80
102	10
103	7
104	15
105	15
106	15
115	202
116	20
117	90
128	30
129	323
130	999
131	101
188	50
189	10
