Mass Spectrum: Thiophene-2-carbohydrazide, N2-(diphenylacetyl)-
Formula: C19H16N2O2S
CAS: 330458-99-6
Molecular weight: 336
m/z	intensity
33	1
34	2
35	0
36	6
37	8
38	23
39	212
40	60
41	29
42	5
43	9
44	26
45	38
46	1
47	1
49	4
50	20
51	32
52	7
53	8
54	4
55	7
56	5
57	35
58	17
59	3
60	1
61	2
62	7
63	22
64	7
65	13
66	2
67	2
69	32
70	14
71	7
72	2
73	1
74	7
75	7
76	9
77	28
78	8
79	2
80	1
81	14
82	40
83	99
84	10
85	6
86	20
87	7
88	4
89	17
90	5
91	9
92	2
93	3
94	2
95	4
96	5
97	5
98	4
99	2
100	3
101	5
102	6
103	1
104	3
105	5
106	0
107	1
108	1
109	10
111	999
112	56
113	51
115	36
116	3
117	2
118	4
119	1
120	3
121	2
122	1
123	3
124	2
125	3
126	8
128	85
129	6
130	2
132	5
133	1
134	5
135	1
136	1
137	2
139	29
140	4
141	13
142	3
143	0
145	0
147	0
148	0
149	1
152	193
153	28
154	2
155	0
161	1
163	28
165	460
166	210
167	890
168	132
169	24
171	5
172	0
173	2
174	0
175	1
177	27
178	25
179	17
180	12
181	3
182	1
183	0
184	1
185	2
190	0
191	0
192	4
194	492
195	65
196	5
197	0
205	0
206	0
207	1
208	5
209	1
210	0
212	27
213	3
215	0
218	0
226	6
227	0
228	1
229	1
234	37
235	6
236	3
237	1
238	0
247	0
252	35
253	6
254	3
255	0
261	2
262	0
279	6
280	0
281	0
283	0
289	1
317	72
318	104
319	22
320	6
321	2
336	4
337	0
