Mass Spectrum: Furane, 2-(2,3-dichlorophenyl)-5-(1,2,4-triazol-4-yliminomethyl)-
Formula: C13H8Cl2N4O
CAS: 330449-10-0
Molecular weight: 306
m/z	intensity
33	4
34	3
35	21
36	85
37	42
38	101
39	92
40	130
41	58
42	39
43	33
44	31
45	3
47	6
49	43
50	218
51	658
52	46
53	47
54	15
55	29
56	57
57	6
59	4
60	13
61	49
62	109
63	219
64	27
65	12
66	5
67	11
68	14
69	39
70	17
71	5
72	16
73	91
74	200
75	198
76	51
77	100
79	999
80	344
81	131
84	64
85	76
86	105
87	110
88	21
89	12
90	6
91	17
92	34
94	76
95	41
96	23
97	44
98	107
99	117
100	25
101	7
102	5
103	8
105	247
106	77
107	17
108	31
109	184
110	74
111	91
112	73
113	200
114	27
115	4
116	7
117	3
118	5
119	9
120	9
121	18
122	40
123	42
124	17
125	65
126	182
127	62
128	22
130	9
131	7
133	72
134	15
135	28
136	9
137	10
138	13
139	13
140	14
141	3
142	2
143	5
145	182
146	27
147	162
148	118
149	56
150	38
151	11
152	10
153	29
154	17
155	7
156	3
157	12
158	5
159	35
160	41
161	226
162	41
163	52
164	10
165	2
166	2
167	3
168	4
170	102
171	17
172	72
173	212
174	70
175	139
176	25
177	23
178	7
179	8
180	8
181	9
182	21
183	196
184	35
185	120
186	17
187	30
188	30
189	224
190	35
191	75
192	14
193	4
194	7
196	423
197	56
198	241
199	31
200	40
201	6
202	3
203	6
204	1
205	1
207	1
208	5
209	8
210	4
211	2
212	5
213	3
214	5
215	6
216	14
217	7
218	4
219	2
221	2
222	5
223	21
224	150
225	28
226	92
227	18
228	15
229	3
233	1
235	1
236	3
237	27
238	12
239	27
240	17
241	11
242	7
243	3
244	2
249	2
250	6
251	17
252	7
253	10
254	4
255	2
256	1
257	1
269	2
271	89
272	16
273	28
274	5
277	1
278	1
279	14
280	3
281	9
282	5
283	2
284	2
286	1
288	1
289	2
291	1
293	1
300	1
301	1
302	6
304	15
306	500
307	92
308	297
309	48
310	42
311	7
