Mass Spectrum: Thiophene-3-carboxylic acid, 2-benzoylamino-4-(2-thienyl-), ethyl ester
Formula: C18H15NO3S2
CAS: 330460-21-4
Molecular weight: 357
m/z	intensity
33	5
34	10
35	0
36	2
37	3
38	7
40	18
41	15
42	11
43	18
44	38
45	53
46	2
47	3
48	3
50	28
51	155
52	15
53	7
54	3
55	10
56	3
57	11
58	9
59	2
60	2
61	2
62	4
63	19
64	8
65	11
66	2
67	2
69	29
70	9
71	11
72	3
73	2
74	9
75	14
77	655
78	38
79	2
81	8
82	5
83	6
84	6
85	5
86	1
87	2
88	3
89	4
90	12
91	5
92	2
93	7
94	6
95	6
96	6
97	6
98	2
100	4
101	2
102	3
103	5
105	999
106	70
107	12
108	16
109	12
110	3
111	3
112	2
113	3
114	0
115	4
116	1
117	2
118	1
119	2
120	4
121	4
122	2
123	1
124	0
125	1
126	2
127	4
128	1
129	2
130	0
131	0
133	3
134	41
135	8
136	4
137	3
138	1
139	1
140	5
141	3
142	1
146	6
147	1
148	0
149	3
151	24
152	10
153	21
154	3
155	3
156	0
157	2
158	0
159	0
162	2
163	1
164	0
165	2
166	1
167	1
168	2
169	1
170	1
171	2
172	0
175	0
177	2
178	25
179	15
180	6
181	6
182	6
183	0
185	0
189	0
190	0
191	0
192	0
194	0
195	1
196	7
197	3
198	0
199	0
206	4
207	13
208	3
209	1
210	0
211	0
222	0
223	1
224	3
225	0
234	0
239	0
240	0
252	3
254	1
282	0
283	0
284	0
311	51
312	10
313	6
314	1
315	0
343	0
353	0
354	0
355	0
357	139
358	28
359	16
360	2
361	0
