Mass Spectrum: 2-Hexenoic acid, 6-phenyl-, ethyl ester
Formula: C14H18O2
CAS: 33046-77-4
Molecular weight: 218
m/z	intensity
41	78
43	39
50	19
51	68
52	29
53	58
54	19
55	58
63	29
65	156
66	19
67	39
68	39
71	9
73	58
77	137
78	58
79	78
81	78
86	186
87	39
88	19
89	19
90	19
91	999
92	294
93	29
99	323
100	29
101	39
103	78
104	558
105	303
106	29
107	58
114	460
115	68
116	39
117	78
118	39
127	392
128	127
129	137
130	362
131	186
132	29
143	58
144	411
145	98
172	39
173	147
174	29
218	19
