Mass Spectrum: 5-Hepten-2-one, 7-phenyl-
Formula: C13H16O
CAS: 33046-89-8
Molecular weight: 188
m/z	intensity
41	30
43	270
51	30
53	10
63	10
65	40
67	10
77	20
78	10
91	190
92	20
97	30
103	10
104	20
115	130
116	30
117	60
127	10
128	50
129	260
130	999
131	120
132	10
