Mass Spectrum: .beta.-D-Glucofuranoside, benzyl-, 2,3,5,6-tetraacetate
Formula: C21H26O10
CAS: 330477-67-3
Molecular weight: 438
m/z	intensity
26	9
27	21
28	7
29	22
30	4
37	6
38	9
39	56
40	4
41	33
42	8
43	761
44	24
45	15
50	21
51	82
52	70
53	8
54	4
59	13
60	6
61	11
62	6
63	23
64	5
65	55
66	5
73	24
74	24
75	13
76	22
77	91
78	380
79	76
80	8
89	16
90	21
91	999
92	126
93	11
94	4
95	8
96	4
97	80
98	31
99	10
101	7
102	5
103	32
104	7
105	13
106	3
107	41
108	45
109	21
110	46
111	11
112	14
113	6
114	3
115	60
116	8
117	29
118	23
119	27
120	21
121	10
122	6
123	4
125	24
126	10
127	35
128	19
129	10
130	3
131	7
132	3
133	14
134	13
135	4
137	4
139	145
140	20
141	17
142	4
143	17
144	6
145	22
146	2
151	5
152	69
153	10
154	3
155	2
157	52
158	13
159	3
161	5
162	3
163	6
165	4
167	8
168	11
169	47
170	16
171	7
173	4
175	8
179	4
180	3
181	5
183	3
185	5
186	7
187	6
188	17
189	4
191	5
193	14
194	3
199	6
200	6
201	4
203	9
211	8
212	5
213	4
215	4
216	7
217	15
218	4
229	6
230	21
231	5
242	3
243	3
245	143
246	17
247	5
259	12
260	3
272	18
273	3
276	3
287	4
289	8
290	3
293	20
294	4
302	3
305	4
331	52
332	10
347	16
348	3
