Mass Spectrum: Benzamide, N-(5-chloro-2-methoxyphenyl)-2-fluoro-
Formula: C14H11ClFNO2
CAS: 330469-06-2
Molecular weight: 279
m/z	intensity
50	3
51	6
52	2
63	4
69	2
74	2
75	25
76	5
78	7
79	2
90	3
93	4
94	7
95	126
96	9
99	6
101	2
122	3
123	999
124	61
125	4
126	3
127	3
129	2
142	12
144	3
156	8
158	8
248	38
249	6
250	13
279	353
280	50
281	123
282	16
