Mass Spectrum: Butanamide, N-(1-benzyl-2-benzimidazolyl)-2,2,3,3,4,4,4-heptafluoro-
Formula: C18H12F7N3O
CAS: 330462-16-3
Molecular weight: 419
m/z	intensity
33	4
34	0
36	0
39	33
41	14
43	1
45	10
47	0
50	10
51	17
52	6
53	1
54	1
55	0
56	0
57	0
58	0
60	0
63	23
65	97
69	31
71	0
74	0
75	3
77	20
78	4
79	1
80	0
82	3
83	0
84	0
86	0
87	1
91	999
94	1
95	0
96	0
97	0
98	0
100	5
101	1
102	3
104	15
105	4
106	0
107	0
109	2
110	3
111	2
112	0
113	0
114	0
115	0
116	2
117	4
118	3
119	6
120	0
124	0
125	0
126	0
127	0
129	3
131	13
132	4
133	0
134	0
139	0
140	0
141	0
143	1
144	5
145	0
146	0
147	0
150	2
151	1
152	2
153	0
154	0
157	0
159	34
160	4
162	0
164	0
165	0
166	0
167	0
169	7
170	0
172	3
173	0
176	0
177	0
178	1
179	1
180	2
181	0
182	0
192	1
193	1
194	1
195	0
197	0
204	0
205	2
206	3
207	3
208	0
209	0
220	12
221	4
222	14
223	11
224	2
225	0
234	0
240	0
246	0
248	12
250	265
251	44
253	0
272	0
309	0
312	0
328	0
342	0
351	0
369	2
372	5
373	0
397	0
400	2
401	2
402	0
414	0
415	0
419	178
420	25
421	3
