Mass Spectrum: Butan-1-one, 4-(2,4-dichlorophenoxy)-1-(2,3-dihydro-1-indolyl)-
Formula: C18H17Cl2NO2
CAS: 330467-82-8
Molecular weight: 349
m/z	intensity
33	10
35	2
36	5
37	10
39	140
41	355
42	77
43	8
44	2
45	0
47	0
50	20
51	38
52	10
53	4
55	25
56	4
57	2
59	0
60	0
61	9
63	138
65	120
66	5
69	206
72	9
73	31
75	57
77	66
78	9
79	6
80	0
83	7
84	7
85	6
86	2
87	5
89	80
91	278
92	12
93	2
97	12
98	24
100	32
101	8
102	6
103	22
104	4
105	8
106	2
107	3
109	31
111	36
112	6
113	6
114	3
115	8
118	602
119	999
120	65
125	3
126	12
128	84
130	20
133	111
134	19
135	24
137	9
139	1
141	2
142	1
143	2
145	34
146	77
147	17
148	3
149	3
153	1
154	1
155	0
156	1
158	6
159	3
161	154
162	42
163	26
164	12
165	6
166	2
167	1
168	2
170	2
171	0
172	0
173	0
175	22
177	11
179	0
185	7
188	990
189	111
190	8
191	2
203	0
231	4
232	0
233	2
347	0
349	81
351	60
352	7
353	6
354	0
