Mass Spectrum: 3-Hexen-2-one, 6-phenyl-
Formula: C12H14O
CAS: 33046-41-2
Molecular weight: 174
m/z	intensity
41	19
43	198
50	9
51	29
52	9
53	9
55	9
63	19
65	79
77	29
78	9
89	19
91	999
92	79
103	9
104	29
105	9
115	19
116	207
117	39
128	19
129	19
130	9
131	79
132	19
156	9
159	29
174	69
175	9
