Mass Spectrum: 2-Pentenal, 5-phenyl-
Formula: C11H12O
CAS: 33046-84-3
Molecular weight: 160
m/z	intensity
41	19
50	9
51	39
63	29
65	99
77	29
78	19
89	19
91	999
92	89
104	39
115	29
116	188
117	49
128	15
129	25
131	29
142	20
160	30
