Mass Spectrum: N'-[(1-Benzyl-3-indolyl)methylene]-2-[4-(1,1,3,3-tetramethylbutyl)phenoxy]acethydrazide
Formula: C32H37N3O2
CAS: 330573-34-7
Molecular weight: 495
m/z	intensity
33	2
36	6
37	5
39	251
41	159
43	80
44	125
45	6
50	14
51	26
53	16
55	47
57	169
58	4
60	6
61	2
62	6
63	16
65	85
66	8
68	5
69	8
70	7
71	8
72	1
73	4
74	4
75	11
76	9
77	37
78	10
79	9
81	4
82	1
83	3
84	4
85	2
86	1
87	7
89	37
91	999
92	51
93	5
94	3
95	11
96	1
97	5
99	3
100	1
101	20
102	12
103	18
105	15
106	12
107	34
108	3
111	2
112	1
113	2
115	34
116	12
117	25
118	30
119	19
120	3
121	3
122	1
123	5
127	3
128	9
129	13
130	9
131	16
132	7
133	23
135	134
136	7
141	6
142	22
143	19
144	5
145	5
147	16
148	5
149	8
150	1
155	4
156	7
157	11
158	8
159	3
160	1
163	1
170	11
171	4
172	4
173	1
174	10
175	3
176	1
178	1
186	1
187	1
189	4
190	8
191	42
192	52
193	1
200	5
203	4
204	6
205	3
206	4
207	6
212	12
216	1
217	7
218	8
219	11
220	11
221	7
229	2
230	4
232	81
233	31
234	19
235	9
236	1
247	83
248	25
249	6
260	3
262	19
263	3
276	6
287	2
288	4
290	134
291	21
292	2
422	1
424	58
425	16
426	2
495	72
496	18
497	3
