Mass Spectrum: Benzamide, N-[2-[4-[[5-(3,3-dimethyloxiranyl)-4-hydroxy-3-methyl-2-pentenyl]oxy]phenyl]ethyl]-
Formula: C25H31NO4
CAS: 33055-25-3
Molecular weight: 409
m/z	intensity
39	180
41	460
43	999
44	940
45	120
53	140
55	140
57	100
59	330
60	100
71	160
77	340
79	100
86	100
91	500
105	600
107	140
120	840
121	100
122	120
202	120
