Mass Spectrum: Furazan-3-carbohydrazide, 4-methyl-N2-benzylideno-
Formula: C11H10N4O2
CAS: 330578-70-6
Molecular weight: 230
m/z	intensity
33	8
36	7
37	95
38	314
39	708
40	346
41	254
42	268
43	200
44	160
45	14
46	10
49	42
50	426
51	999
52	603
53	235
54	232
55	75
57	245
58	18
59	17
61	59
62	240
63	686
64	357
65	903
66	92
67	38
68	26
70	827
71	30
73	15
74	84
75	111
76	213
77	742
78	86
79	21
80	59
81	37
82	13
83	48
84	109
85	18
86	37
87	35
89	940
90	701
91	227
92	586
93	34
95	3
97	21
98	2
99	2
102	117
103	880
104	923
105	69
106	6
111	315
112	19
114	5
115	3
116	15
117	12
118	68
119	154
120	14
129	7
130	3
131	2
132	20
145	3
147	4
172	2
230	31
231	2
