Mass Spectrum: 2-Methoxy-N'-(2-oxoindolin-3-ylidene)acethydrazide
Formula: C11H11N3O3
CAS: 330591-23-6
Molecular weight: 233
m/z	intensity
34	3
36	24
37	41
38	77
39	122
40	52
41	52
42	89
43	75
45	999
49	16
50	157
51	195
52	78
53	26
54	9
55	16
56	9
57	14
58	5
59	15
60	31
61	21
62	52
63	84
64	55
65	37
66	21
67	5
68	2
69	7
70	12
71	6
74	55
75	80
76	193
77	295
78	81
79	19
80	8
81	3
82	1
83	2
84	3
85	4
86	8
87	9
88	26
89	41
90	113
91	40
92	10
93	4
94	0
95	1
96	0
97	1
98	1
99	6
100	5
102	67
104	457
105	87
106	18
107	2
108	1
109	2
110	0
111	1
112	1
113	4
114	1
115	5
116	39
117	90
118	44
119	8
120	2
121	1
122	0
123	0
126	0
128	7
129	4
132	560
133	80
134	7
135	2
139	0
141	0
144	31
145	60
146	42
147	16
149	11
150	0
152	0
155	0
160	489
161	158
162	12
163	1
165	0
171	0
172	3
174	12
175	4
176	1
182	0
184	0
188	27
189	2
190	0
191	3
192	0
200	1
203	64
205	57
206	5
207	0
218	0
230	2
233	208
234	20
235	2
