Mass Spectrum: Benzoic acid, 4-[3-(4-benzyl-1-piperazinyl)-1-oxopropylamino]-, methyl ester
Formula: C22H27N3O3
CAS: 330556-86-0
Molecular weight: 381
m/z	intensity
29	38
30	25
31	0
32	28
33	0
35	0
36	6
37	0
38	3
39	8
40	4
41	25
42	346
43	42
44	145
45	7
46	1
50	1
51	8
52	3
53	5
54	17
55	175
56	230
57	86
58	163
59	25
60	2
61	1
62	1
63	5
64	3
65	25
66	1
67	3
68	17
69	15
70	167
71	36
72	73
73	18
74	1
75	2
76	3
77	12
78	6
79	3
80	7
81	5
82	22
83	47
84	329
85	164
86	16
87	2
89	3
90	20
91	999
92	99
93	9
94	2
95	14
96	13
97	94
98	63
99	19
100	1
101	0
102	0
103	11
104	48
105	32
106	31
107	14
108	1
109	2
110	7
111	34
112	43
113	22
114	2
115	2
116	2
117	16
118	70
119	133
120	283
121	29
122	14
123	2
125	1
126	6
127	17
128	1
129	3
130	10
131	37
132	125
133	61
134	157
135	37
136	3
137	2
138	1
139	15
140	0
142	1
143	1
144	12
145	10
146	219
147	126
148	39
149	5
150	30
151	128
152	28
153	4
154	0
155	0
156	0
157	1
158	5
159	8
160	69
161	57
162	13
163	12
164	61
165	3
167	0
168	0
169	1
170	0
171	0
172	3
173	3
174	21
175	60
176	27
177	9
178	26
179	1
181	0
182	0
183	1
184	0
185	0
186	0
187	27
188	16
189	212
190	30
191	2
192	1
193	11
194	1
201	0
202	2
203	59
204	12
205	44
206	24
207	14
208	1
211	0
213	0
214	0
217	3
218	5
219	1
220	0
221	8
222	5
223	0
229	2
230	0
231	1
232	1
233	3
234	7
235	177
236	25
237	3
238	0
239	0
243	0
244	0
245	0
246	0
247	6
248	19
249	112
250	41
251	10
252	0
254	0
258	0
259	0
260	0
261	19
262	22
263	58
264	10
265	0
274	0
275	0
276	2
277	0
282	0
283	0
284	0
288	0
289	15
290	35
291	7
292	0
294	0
295	0
304	1
309	0
311	16
312	3
323	5
324	3
325	2
335	0
338	0
339	12
340	1
349	0
350	49
351	14
352	12
353	4
354	1
355	0
366	3
369	0
379	4
380	21
381	382
382	109
383	34
