Mass Spectrum: Acetamide, N-[(1-cyclopropanoyl)-3-benzofuryl]-2-(1-pyrrolidinyl)-
Formula: C18H20N2O3
CAS: 330557-09-0
Molecular weight: 312
m/z	intensity
29	17
30	37
32	2
41	31
42	304
43	29
44	6
55	149
56	42
57	31
69	42
70	138
71	20
81	1
82	36
83	156
84	999
85	184
97	1
99	0
110	43
111	288
112	16
160	0
172	2
186	25
200	0
201	27
243	14
312	141
313	8
