Mass Spectrum: N-(2-Fluorobenzyl)-4-iodobenzamide
Formula: C14H11FINO
CAS: 330591-28-1
Molecular weight: 355
m/z	intensity
34	1
37	30
38	61
39	120
40	90
41	14
42	5
43	15
44	48
45	4
46	0
50	745
51	199
52	36
53	20
54	2
55	4
56	11
57	87
59	28
60	0
61	11
62	36
63	97
64	25
65	17
66	0
68	1
69	2
70	31
71	2
74	253
75	338
76	999
77	248
78	35
79	15
81	24
83	7
84	5
85	0
86	1
87	1
89	31
90	15
91	24
92	6
94	24
95	92
96	71
97	50
98	1
99	0
101	3
102	21
104	416
105	214
107	81
109	403
110	21
114	14
115	0
121	9
122	105
123	44
124	173
125	16
127	112
128	69
132	7
133	5
148	0
150	1
152	2
153	0
164	2
165	5
170	1
171	0
180	0
183	14
184	3
185	5
198	2
199	8
200	16
203	197
204	11
210	0
211	0
227	5
228	28
229	45
231	696
232	49
233	1
325	1
336	2
337	7
338	0
354	139
355	372
356	49
357	0
