Mass Spectrum: N-[1-(4-Nitrophenyl)pyrrol-2-ylmethylene]benzylamine
Formula: C18H15N3O2
CAS: 330593-23-2
Molecular weight: 305
m/z	intensity
33	14
34	19
36	2
37	3
38	22
39	116
40	83
41	54
42	10
43	32
44	11
45	208
50	62
51	78
52	33
53	10
54	1
55	17
56	16
57	14
58	2
62	15
63	67
64	35
65	183
66	16
67	7
68	3
69	6
70	1
71	3
73	13
74	12
75	28
76	54
77	63
78	26
79	44
80	27
81	4
83	2
87	2
88	9
89	53
90	78
91	999
92	139
93	17
94	7
95	28
100	9
101	8
102	8
103	15
104	22
105	16
106	21
107	5
112	14
113	9
114	19
115	25
116	13
117	151
118	29
119	6
121	2
126	9
127	23
128	26
129	19
130	5
139	6
140	28
141	21
142	7
143	5
144	4
149	15
150	2
152	13
153	53
154	72
155	44
156	73
157	36
158	2
165	4
166	18
167	36
168	98
169	17
171	2
179	12
180	5
181	10
182	9
183	26
189	15
190	1
193	2
195	2
197	4
199	8
200	4
201	25
202	9
212	37
213	9
214	27
215	4
216	1
218	2
225	19
227	1
228	11
230	6
231	3
257	7
258	10
259	3
275	1
277	2
304	118
305	117
306	20
