Mass Spectrum: Acetamide, 2-diethylamino-N-(1,3-dimethylindol-2-yl)-
Formula: C16H23N3O
CAS: 330593-22-1
Molecular weight: 273
m/z	intensity
33	0
39	9
40	14
41	14
42	45
43	28
44	20
45	13
46	0
50	2
51	7
52	3
53	2
54	4
55	6
56	33
57	23
58	122
59	5
60	1
61	0
62	1
63	5
64	2
65	4
66	1
67	1
68	1
69	2
70	6
71	4
72	4
73	1
74	2
75	3
76	4
77	15
78	3
79	3
80	1
81	0
82	1
83	1
84	14
86	999
87	68
88	3
89	8
90	6
91	5
92	0
93	0
94	0
95	0
96	1
97	1
98	0
99	0
100	0
101	3
102	4
103	6
104	2
105	2
106	1
107	0
108	0
109	0
110	0
111	0
112	1
113	1
114	1
115	6
116	8
117	18
118	3
119	0
120	0
121	0
122	0
123	0
124	0
125	0
126	0
127	0
128	4
129	7
130	14
131	5
132	7
133	1
134	1
135	0
137	7
139	0
140	0
141	1
142	4
143	14
144	14
145	4
146	1
147	0
148	0
149	2
150	0
152	0
153	0
154	0
155	1
156	1
157	4
158	6
159	29
160	12
161	9
162	1
163	0
168	0
169	0
170	0
171	2
172	2
173	2
174	0
175	0
176	0
177	0
178	0
181	0
182	0
183	0
185	13
186	12
187	4
188	0
189	0
191	0
193	0
198	0
199	2
200	2
201	0
202	2
203	0
210	0
219	0
221	0
229	0
244	0
271	0
273	53
274	10
275	0
