Mass Spectrum: Acetamide, N-[2-(4-fluorobenzoyl)-3-benzofuryl]-2-(4-morpholyl)-
Formula: C21H19FN2O4
CAS: 330556-99-5
Molecular weight: 382
m/z	intensity
29	11
41	2
42	30
43	29
44	15
55	2
56	138
70	31
71	10
72	14
84	0
86	32
95	4
97	0
98	17
99	56
100	999
101	59
123	26
127	161
128	0
186	0
254	14
255	9
259	19
382	112
383	13
