Mass Spectrum: Pyridine-4-carbohydrazide, N2-(3-methoxy-4-prop-2-ynyloxybenzylidene)-
Formula: C17H15N3O3
CAS: 330591-12-3
Molecular weight: 309
m/z	intensity
34	10
35	10
36	78
37	44
38	175
39	468
40	205
41	135
42	80
43	144
44	127
45	12
46	0
50	201
51	560
52	104
53	59
55	49
56	64
57	61
58	11
60	11
62	21
63	120
64	66
65	94
66	56
67	31
69	39
70	57
71	17
73	4
74	9
75	24
78	999
79	154
80	23
81	12
82	7
83	8
84	5
85	2
87	2
88	1
90	15
92	206
93	68
94	15
95	38
96	0
97	4
98	5
99	8
100	1
102	32
103	13
104	23
106	860
107	61
108	6
109	3
111	1
113	29
115	2
116	2
117	6
118	10
119	20
120	81
121	97
122	19
123	8
131	5
132	3
133	17
134	15
135	18
137	18
138	3
144	8
146	22
148	591
149	73
150	22
151	25
152	19
156	0
159	5
160	3
161	1
162	1
163	12
164	10
165	0
171	1
172	3
174	1
176	0
187	236
188	15
189	2
190	11
203	13
204	1
270	39
271	6
307	2
309	345
310	44
311	2
