Mass Spectrum: 3-[(3,4-Dimethylphenoxy)methyl]-2-furoic acid
Formula: C14H14O4
CAS: 330593-12-9
Molecular weight: 246
m/z	intensity
36	4
39	253
40	4
41	250
43	62
44	125
45	1
51	321
52	154
53	146
54	23
55	30
57	16
60	6
63	50
65	89
67	41
69	100
71	12
72	2
74	9
77	251
79	110
81	253
83	5
84	3
85	4
86	2
87	2
89	13
91	167
93	55
95	20
97	88
98	4
99	2
101	1
103	32
105	36
107	199
108	18
109	5
111	2
112	3
113	1
115	12
117	5
121	184
122	426
123	53
125	999
127	11
128	11
129	13
131	14
132	3
134	23
135	5
136	1
137	1
138	1
139	3
140	3
141	7
142	3
143	5
144	5
145	8
146	5
147	2
149	3
151	1
152	1
153	1
155	5
157	10
158	10
159	20
160	3
161	3
165	2
166	1
169	3
170	2
171	7
173	33
174	6
175	2
182	1
183	3
184	7
185	16
186	6
187	13
188	3
189	3
199	18
200	17
201	38
202	37
203	10
204	9
205	8
206	8
211	7
213	122
214	15
215	3
217	2
228	136
229	20
230	3
231	3
246	367
247	50
248	7
