Mass Spectrum: Benzofurane-2-carboxylic acid, 3-[3-diethylamino-1-oxopropylamino)-, ethyl ester
Formula: C18H24N2O4
CAS: 330556-81-5
Molecular weight: 332
m/z	intensity
29	66
30	100
31	3
32	10
33	0
40	0
41	7
42	53
43	25
44	32
45	2
53	1
54	3
55	52
56	77
57	41
58	151
59	4
60	2
64	0
65	0
67	1
68	3
69	18
70	19
71	22
72	214
73	28
74	3
76	2
77	6
78	0
79	0
80	1
81	8
82	1
83	5
84	53
85	32
86	999
87	51
88	2
89	0
91	0
92	0
93	2
94	2
95	5
96	2
97	3
98	129
99	17
100	9
101	1
102	4
103	15
104	8
105	1
108	2
109	1
110	0
111	0
112	9
113	1
114	1
115	0
116	1
117	0
119	0
120	2
121	0
123	3
124	1
125	2
126	30
127	2
128	0
129	1
130	8
132	7
133	9
134	2
135	2
136	3
137	0
143	0
144	0
145	6
146	2
148	4
149	2
153	0
154	0
156	0
158	1
159	17
160	14
161	0
163	0
165	0
170	0
172	44
173	5
174	0
175	0
176	0
177	2
184	3
185	2
186	29
187	2
188	0
203	1
204	0
205	18
206	3
214	4
215	0
216	0
218	15
219	1
226	0
231	0
232	0
236	0
243	0
257	0
259	5
260	0
271	0
276	0
285	0
287	0
301	0
302	0
303	82
304	15
305	1
316	0
317	87
318	15
331	0
332	64
333	8
334	0
