Mass Spectrum: N'-(4-Phenylcyclohexanylidene)nicotinohydrazide
Formula: C18H19N3O
CAS: 330591-39-4
Molecular weight: 293
m/z	intensity
39	215
41	145
42	40
43	49
45	3
50	174
51	503
52	106
53	108
54	46
55	57
56	42
57	41
58	5
59	0
60	0
62	5
63	42
65	94
66	17
67	43
69	37
70	4
71	3
73	1
74	9
75	23
78	999
79	198
80	32
81	24
82	17
83	70
85	58
86	1
87	1
88	1
89	23
91	334
92	25
93	10
94	10
95	7
96	3
97	0
98	0
101	3
102	24
103	90
104	161
106	764
107	29
108	4
109	1
111	3
112	0
113	2
115	126
116	39
117	83
118	22
119	15
120	12
121	7
122	24
123	21
124	0
126	2
127	16
128	51
129	48
130	24
131	16
132	14
133	6
135	113
136	27
137	3
138	3
139	2
141	14
142	15
143	28
144	9
145	6
146	3
147	6
148	10
149	5
150	0
152	1
153	3
154	2
155	6
156	17
157	11
159	39
161	365
162	39
163	2
168	3
170	26
171	39
172	73
174	679
175	41
176	2
183	2
185	3
187	8
188	26
189	42
190	2
202	1
264	2
265	2
278	4
293	209
294	31
295	1
