Mass Spectrum: Indole, 2,3-dihydro-1-(5-methyl-3-phenyl-4-isoxazolylcarbonyl)-
Formula: C19H16N2O2
CAS: 330657-72-2
Molecular weight: 304
m/z	intensity
39	139
40	154
43	999
45	2
50	51
51	126
52	18
53	2
54	1
55	5
57	1
62	25
63	56
64	29
65	79
66	6
74	14
75	21
77	230
78	24
79	1
88	15
89	102
90	61
91	117
92	12
102	11
103	20
104	12
105	3
114	8
116	93
117	69
118	85
119	87
120	6
128	10
130	18
135	4
142	13
144	753
145	48
181	4
184	1
186	160
187	12
188	2
302	1
304	311
305	33
306	2
