Mass Spectrum: 3-(4-Acetylamino-furazan-3-ylamino)-but-2-enoic acid ethyl ester
Formula: C10H14N4O4
CAS: 330656-18-3
Molecular weight: 254
m/z	intensity
33	1
34	2
36	1
37	3
39	185
40	84
41	146
42	241
43	999
45	37
47	1
48	0
50	2
51	7
52	12
53	28
54	36
55	33
56	28
57	31
58	6
59	4
60	7
61	2
62	1
63	2
64	4
65	6
66	27
67	107
68	113
69	53
70	30
71	13
72	3
73	3
74	1
75	1
76	1
77	7
78	3
79	4
80	4
81	12
82	34
83	54
84	73
85	117
87	4
88	5
89	1
90	0
91	3
93	21
94	74
95	21
96	7
97	6
98	5
99	3
100	4
101	2
102	2
103	0
105	6
106	4
108	133
109	240
110	188
112	246
113	41
115	2
116	0
117	0
118	0
119	1
120	3
121	16
122	6
123	16
124	10
125	9
126	10
127	11
128	3
129	1
130	3
131	1
132	0
133	1
134	6
136	106
137	49
138	38
139	23
140	129
142	3
143	0
144	0
145	0
146	0
147	0
148	1
149	6
150	5
151	11
152	15
154	78
155	11
156	2
157	0
160	0
161	0
162	0
163	1
165	24
166	32
167	68
168	10
169	1
170	0
171	2
172	0
178	19
179	2
180	3
182	66
184	0
185	0
186	0
189	0
190	1
191	0
192	1
193	4
194	1
195	3
196	1
197	0
198	0
205	0
208	21
209	27
210	3
212	24
213	1
221	0
224	12
225	1
226	2
227	0
239	1
240	0
251	1
254	94
255	11
256	1
