Mass Spectrum: 3-[(2-Methyl-5-nitrophenyl)hydrazono]-2,4-pentanedione
Formula: C12H13N3O4
CAS: 330631-50-0
Molecular weight: 263
m/z	intensity
34	0
36	0
37	1
38	7
39	34
40	3
41	14
42	20
43	999
44	30
45	4
46	0
48	0
50	15
51	45
52	33
53	13
54	6
55	13
56	2
57	6
58	0
59	0
60	0
61	1
62	5
63	21
64	10
65	20
66	9
67	8
68	1
69	5
70	12
71	8
72	1
73	1
74	2
75	3
76	11
77	63
78	51
79	17
80	2
81	1
82	4
83	7
84	2
85	7
86	1
87	1
88	1
89	24
90	16
91	5
92	4
93	59
94	11
95	1
96	0
97	1
98	1
99	44
100	11
101	2
102	3
103	3
104	56
105	36
106	31
107	3
108	0
109	0
110	0
111	1
112	43
113	4
114	1
115	1
116	0
117	1
118	1
119	2
120	3
121	5
122	3
123	0
124	0
125	0
127	27
128	2
129	1
130	1
131	3
132	1
133	1
134	0
135	5
136	38
137	3
138	0
141	0
142	0
143	0
144	0
145	1
146	1
147	1
148	1
149	2
150	2
151	40
152	62
153	6
154	0
155	0
156	0
157	0
158	0
159	1
160	0
161	2
162	1
163	2
164	8
165	13
166	1
167	0
169	0
170	0
171	2
172	0
173	0
174	1
175	1
176	0
177	2
178	3
179	0
184	0
185	0
186	0
187	0
188	0
189	0
190	0
193	0
194	0
195	6
196	0
198	0
199	0
200	0
201	0
202	1
203	0
204	2
205	0
206	0
207	0
208	0
214	0
215	0
216	1
217	0
218	0
219	0
220	8
221	1
222	0
228	0
230	3
231	0
233	1
234	0
237	0
241	0
245	8
246	11
247	2
248	0
261	0
262	5
263	95
264	12
265	1
266	0
