Mass Spectrum: 3-Cyclohexen-1-ol, 1-methyl-
Formula: C7H12O
CAS: 33061-16-4
Molecular weight: 112
m/z	intensity
14	24
15	166
16	8
17	35
18	119
19	8
25	3
26	47
27	301
28	78
29	142
30	11
31	65
32	2
37	16
38	42
39	313
40	50
41	247
42	66
43	847
44	95
45	35
46	3
47	5
48	4
49	4
50	31
51	57
52	23
53	83
54	132
55	149
56	40
57	279
58	999
59	40
60	3
61	4
62	9
63	17
64	4
65	28
66	16
67	110
68	37
69	81
70	21
71	51
72	17
73	1
74	3
75	4
76	2
77	67
78	15
79	190
80	16
81	16
82	94
83	25
84	9
85	4
86	1
89	2
90	1
91	23
92	4
93	18
94	220
95	59
96	6
97	163
98	11
99	3
100	6
108	1
111	4
112	88
113	7
