Mass Spectrum: Cyclohexano[b]thioxan-4-ol, 4-ethyl-2-methyl-, 1,1-dioxide
Formula: C12H22O3S
CAS: 330625-11-1
Molecular weight: 246
m/z	intensity
33	3
38	5
39	97
41	282
43	232
45	26
47	2
48	3
51	22
53	107
54	98
55	180
57	497
58	19
59	17
60	3
61	2
62	0
63	9
65	46
67	295
69	262
71	576
72	81
73	43
74	3
75	3
77	95
78	28
79	130
81	258
82	77
83	122
85	405
86	32
87	4
89	4
91	66
93	96
95	81
96	15
97	37
99	794
100	999
101	67
102	4
103	4
105	31
107	49
109	193
111	825
112	55
113	20
114	53
115	9
116	1
117	4
119	14
121	16
122	16
123	22
124	3
125	7
127	1
128	0
129	8
130	2
131	8
133	49
134	23
135	52
136	8
137	16
140	572
141	52
142	1
147	732
148	50
149	52
151	751
152	120
153	26
154	2
155	0
161	10
163	41
165	221
166	14
167	16
168	0
169	0
174	1
175	1
179	1
181	25
182	5
196	3
199	559
200	56
201	28
202	2
204	16
205	0
214	0
217	262
218	30
219	11
220	1
229	1
230	4
245	0
246	6
247	3
