Mass Spectrum: N-[2-(4-Chloro-phenyl)-ethyl]-c-phenyl-methanesulfonamide
Formula: C15H16ClNO2S
CAS: 330640-83-0
Molecular weight: 309
m/z	intensity
35	0
36	1
37	0
39	27
40	5
41	8
42	2
43	2
44	2
45	1
47	0
48	1
50	6
51	13
52	4
53	1
55	2
56	1
57	2
58	0
61	2
62	6
63	33
65	105
66	3
67	0
68	0
69	1
70	1
71	1
73	6
74	2
75	9
76	3
77	18
78	4
79	1
80	0
81	0
82	0
83	1
84	1
85	2
86	1
87	2
89	101
91	999
92	69
93	2
95	1
97	1
99	26
101	12
102	5
103	20
104	5
105	2
106	1
107	1
108	0
109	0
110	0
111	2
112	2
113	1
114	0
115	1
116	2
117	10
118	14
120	184
121	17
122	1
123	1
125	208
126	32
127	66
128	11
129	2
130	2
132	1
133	0
134	0
135	0
136	0
137	1
138	40
139	15
140	14
141	5
142	0
143	0
145	0
146	0
147	0
148	0
149	2
150	0
151	1
152	7
153	31
154	8
155	13
156	2
158	34
159	4
160	0
163	0
165	3
166	1
167	0
168	0
169	0
170	0
171	3
172	0
173	0
175	0
176	0
177	0
178	2
179	2
180	1
181	1
182	1
184	225
185	21
186	11
187	1
188	0
189	0
190	0
191	0
192	0
193	0
194	0
195	0
197	0
199	0
200	1
201	0
202	0
203	0
206	0
207	0
209	0
210	0
215	0
216	1
217	0
218	0
222	0
225	5
226	0
244	0
283	0
301	0
307	0
309	33
310	5
311	12
312	2
313	0
