Mass Spectrum: Paclitaxel
Formula: C47H51NO14
CAS: 33069-62-4
Molecular weight: 853
m/z	intensity
41	62
42	65
43	677
44	56
45	345
46	3
47	6
49	19
50	44
51	133
52	19
53	16
54	5
55	49
56	7
57	26
58	3
60	130
61	8
62	3
63	10
64	3
65	21
66	6
67	25
68	5
69	29
70	7
71	19
73	6
74	13
75	9
76	24
77	424
78	52
79	34
80	5
81	19
82	7
83	21
84	13
85	13
86	7
89	11
90	9
91	74
92	9
93	27
94	10
95	30
96	6
97	18
98	4
99	5
103	10
104	36
105	999
106	122
107	30
108	9
109	32
110	6
111	15
112	4
113	3
115	10
116	5
117	8
118	13
119	28
120	42
121	57
122	121
123	45
124	17
125	10
126	3
127	5
128	6
129	7
131	23
132	17
133	35
134	10
135	19
136	12
137	26
138	10
139	7
141	8
142	4
143	6
144	3
145	11
146	10
147	20
148	32
149	58
150	18
151	16
152	6
153	7
155	5
157	5
158	5
159	17
160	9
161	18
162	7
163	11
164	6
165	16
166	9
167	11
168	4
169	7
171	6
173	7
175	9
176	10
177	19
178	10
179	19
180	6
181	7
182	4
183	8
184	3
185	6
186	3
187	7
188	3
189	7
190	4
191	13
192	6
193	18
194	6
195	10
196	5
197	8
198	3
199	7
200	3
201	6
202	3
203	5
204	3
205	8
206	3
207	4
208	6
209	13
210	194
211	58
212	9
213	9
214	3
215	5
217	3
219	4
221	7
222	37
223	13
224	5
225	9
226	5
227	8
228	4
229	7
231	3
233	3
234	3
235	6
236	4
237	8
238	5
239	12
240	67
241	15
242	4
243	4
247	3
249	3
250	4
251	7
252	5
253	10
254	8
255	8
256	3
257	4
263	6
264	3
265	9
266	4
267	16
268	53
269	14
270	4
271	4
272	3
279	3
280	5
281	10
282	5
283	7
286	52
287	10
293	4
296	6
297	7
298	8
299	11
300	4
308	4
311	4
315	4
316	3
325	4
326	12
327	5
328	4
343	4
344	3
358	3
368	3
386	10
387	8
480	3
508	7
509	4
