Mass Spectrum: 1,2,4-Oxadiazole, 3-(4-bromophenyl)-5-(2,2,3,3-tetramethylcyclopropyl)-
Formula: C15H17BrN2O
CAS: 330656-05-8
Molecular weight: 320
m/z	intensity
33	2
34	4
36	8
37	10
39	432
40	202
41	714
42	89
43	191
44	45
45	2
50	103
51	91
52	50
53	227
54	85
55	508
56	61
57	155
58	56
59	19
60	0
62	46
63	76
64	25
65	67
66	55
67	261
68	70
69	151
70	25
71	8
72	25
73	5
74	34
75	117
76	109
77	71
79	200
81	906
82	265
83	999
84	73
85	9
86	10
87	76
88	62
90	234
91	45
92	10
93	30
94	80
95	121
96	291
97	84
98	31
99	21
100	8
102	133
103	22
104	4
105	5
106	13
107	11
108	59
109	564
110	99
111	25
112	4
114	0
115	2
116	5
117	11
118	3
119	6
121	3
122	16
124	417
125	81
126	9
127	7
128	1
129	2
131	1
138	5
139	6
143	1
153	9
154	11
155	32
156	2
157	29
158	0
165	3
167	4
169	12
170	0
171	5
181	49
182	57
183	53
184	55
185	5
195	2
196	38
197	54
198	45
199	57
200	3
201	13
206	2
208	3
211	7
223	8
224	0
225	12
226	3
227	2
237	37
238	7
239	43
240	7
241	8
252	0
263	0
264	3
265	6
266	4
267	3
277	0
278	0
279	9
280	1
281	6
305	114
306	16
307	103
308	15
320	50
321	8
322	49
323	6
