Mass Spectrum: Nicotinic acid (3-ethoxy-2-hydroxy-5-iodo-benzylidene)-hydrazide
Formula: C15H14IN3O3
CAS: 330684-77-0
Molecular weight: 411
m/z	intensity
37	2
38	35
39	173
40	29
41	11
42	10
43	39
45	4
48	0
49	4
50	145
51	580
52	126
53	105
54	17
61	4
62	38
63	163
64	80
65	101
66	98
67	76
68	21
69	7
70	3
74	7
75	55
76	42
77	100
78	929
79	510
80	70
81	6
82	1
86	0
87	0
88	1
89	3
90	4
91	9
92	14
93	27
94	23
95	12
96	2
97	0
101	0
102	0
103	10
104	25
105	165
106	999
107	95
108	11
109	0
115	0
116	1
117	3
118	4
119	7
120	12
121	71
122	310
123	161
124	18
125	1
126	0
127	18
128	2
129	0
131	0
132	4
133	11
134	31
135	32
136	8
137	3
138	0
140	0
141	1
142	1
143	1
144	0
145	1
146	2
147	1
148	30
149	111
150	56
152	0
153	1
154	2
155	3
156	1
160	0
161	3
162	7
163	8
164	3
165	2
170	5
171	1
172	0
177	6
178	8
179	3
181	2
182	2
184	0
189	8
191	5
192	1
197	0
198	5
199	4
200	2
201	0
202	2
203	0
204	2
205	1
206	6
207	1
210	1
211	0
212	0
213	0
216	0
218	1
219	3
220	11
221	4
222	0
223	0
226	1
227	4
228	1
230	0
231	8
232	6
233	4
234	9
235	0
236	0
237	0
238	2
239	0
240	3
241	1
244	0
245	0
246	0
247	3
248	4
249	8
250	0
253	0
254	10
255	1
256	0
259	6
260	6
261	70
262	8
263	0
264	0
268	0
269	0
270	2
271	12
272	3
273	0
274	3
275	1
276	1
277	16
278	0
284	0
286	3
287	0
288	4
289	72
290	32
291	3
298	0
305	0
309	0
310	0
326	2
336	0
337	0
338	0
339	0
348	0
350	0
354	15
355	0
365	0
366	5
367	16
368	5
369	0
378	0
381	0
382	15
383	9
393	19
394	50
395	7
396	58
410	24
411	528
412	94
413	23
