Mass Spectrum: N-(5-Iodo-furan-2-ylmethylene)-N'-(5-phenyl-[1,2,4]triazin-3-yl)-hydrazine
Formula: C14H10IN5O
CAS: 330820-18-3
Molecular weight: 391
m/z	intensity
36	8
37	46
38	231
39	127
40	48
41	30
42	14
43	18
44	44
45	4
49	6
50	116
51	276
52	118
53	28
54	18
55	13
56	3
57	10
59	4
60	2
61	4
62	22
63	78
64	93
65	97
66	35
67	13
68	8
69	10
70	4
71	5
72	3
73	5
74	41
75	65
76	191
77	147
78	41
79	427
80	69
81	12
82	6
83	4
84	5
85	3
86	3
87	10
88	16
89	148
90	43
91	25
92	9
93	64
94	15
95	3
96	1
97	2
98	3
99	3
100	6
102	999
103	191
104	112
105	26
106	199
107	31
108	6
109	5
110	16
111	6
112	8
113	4
114	11
115	32
116	275
117	53
118	21
119	15
120	1
121	1
122	1
123	1
126	3
127	43
128	42
129	20
130	5
131	10
132	11
133	26
134	57
135	8
138	7
139	8
140	9
141	6
142	10
143	8
144	14
145	3
146	1
149	5
152	1
153	2
154	6
155	3
156	2
157	4
158	6
159	2
161	2
164	4
165	49
166	3
167	3
168	9
169	4
171	31
172	45
173	12
174	1
177	2
178	1
179	4
180	2
181	13
182	5
183	1
184	1
185	4
186	1
187	1
192	36
193	4
194	7
195	2
198	2
204	1
206	4
207	15
208	20
209	22
210	2
216	1
217	1
219	18
220	7
221	21
222	2
232	2
234	3
235	5
236	52
237	62
238	8
239	2
245	1
254	3
261	32
262	11
264	531
265	121
266	9
267	9
391	18
392	2
