Mass Spectrum: 5-Allyl-4-[1-(p-aminophenyl)ethylidenehydrazono]-6-methyl-2-phenylpyrimidine
Formula: C22H23N5
CAS: 330819-78-8
Molecular weight: 357
m/z	intensity
34	2
35	6
36	19
37	23
38	172
39	237
40	241
41	500
42	221
43	50
44	6
46	4
47	2
50	124
51	248
52	334
53	264
54	101
55	27
56	16
57	5
58	10
60	4
61	2
62	10
63	107
65	999
66	254
67	72
68	25
69	10
71	7
74	11
75	39
77	731
78	195
79	303
80	236
81	48
82	9
83	3
84	3
85	2
87	5
88	9
89	57
90	87
91	387
92	668
93	206
94	167
95	23
96	2
99	4
101	14
102	72
103	190
104	845
105	122
106	195
107	61
108	13
109	3
110	3
111	8
112	4
113	8
115	26
116	42
117	174
118	831
119	990
120	132
121	77
122	9
127	8
128	12
129	17
130	14
131	40
132	54
133	359
134	469
135	224
136	20
137	2
139	2
140	15
141	15
142	10
143	16
144	14
145	13
146	20
147	20
148	22
149	5
152	3
153	6
154	10
155	9
156	8
157	8
158	28
159	15
160	8
161	4
162	3
163	2
