Mass Spectrum: Ethanone, 1-(2,3-dihydro-2-methyl-1-indolyl)-2-(4-nitrophenyl)-
Formula: C17H16N2O3
CAS: 330829-52-2
Molecular weight: 296
m/z	intensity
34	0
36	0
38	7
39	41
40	20
41	14
42	3
43	2
44	4
45	0
46	1
50	11
51	29
52	13
53	3
54	1
55	1
56	0
57	0
60	0
61	1
62	12
63	51
64	26
65	59
66	5
67	1
68	0
69	0
71	0
73	0
74	2
75	5
76	10
77	46
78	76
79	10
80	1
81	0
82	0
83	1
84	0
85	0
86	1
87	3
89	160
90	141
91	170
92	13
93	1
94	0
95	1
96	3
97	0
101	2
102	11
103	17
104	10
105	14
106	27
107	5
108	2
109	1
111	6
112	0
113	0
115	36
116	23
117	178
118	999
119	89
120	12
121	2
122	0
123	0
124	0
125	2
126	0
127	0
128	4
129	4
130	56
131	32
132	186
133	562
134	60
136	54
137	5
138	0
139	0
140	2
141	1
142	23
143	4
144	1
145	2
146	0
147	0
148	0
149	1
150	1
151	0
152	1
153	0
154	0
157	0
158	1
160	123
161	12
162	1
163	1
164	1
165	2
166	0
167	0
168	0
171	0
176	0
178	2
179	1
180	2
181	0
190	0
191	1
192	1
193	0
194	0
203	0
204	1
205	1
206	2
207	0
208	0
217	0
218	0
219	0
220	1
221	0
222	0
249	0
250	0
251	0
253	0
266	0
267	0
280	1
281	1
282	1
290	0
292	2
296	406
297	64
298	7
299	0
