Mass Spectrum: 5-Allyl-4-methyl-6-(4-nitroanilino)-2-phenylpyrimidine
Formula: C20H18N4O2
CAS: 330819-79-9
Molecular weight: 346
m/z	intensity
36	12
38	48
39	115
41	999
42	274
43	36
44	24
46	131
50	183
51	245
52	238
53	276
54	54
55	21
62	22
63	199
64	131
65	241
66	92
67	19
68	10
74	41
75	111
76	327
77	564
78	187
79	214
80	93
81	23
88	15
89	39
90	81
91	72
92	52
93	25
94	27
101	32
102	78
103	304
104	522
105	85
106	56
107	19
108	32
113	11
114	18
115	58
116	27
117	30
118	25
119	12
121	12
122	20
126	11
127	40
128	93
129	92
130	28
136	24
137	19
138	12
140	23
141	37
142	42
143	17
149	18
150	35
152	14
153	19
154	74
155	93
156	40
166	12
167	54
168	28
169	35
173	20
179	12
180	17
181	53
182	27
194	15
195	17
196	25
197	16
198	10
202	10
209	35
210	44
224	26
242	11
244	10
271	10
272	35
273	18
284	26
285	84
286	21
299	46
300	13
301	14
316	14
317	12
331	179
332	34
345	102
346	248
347	39
