Mass Spectrum: N'-(3-Bromobenzylidene)-2-(4-chlorophenylthio)acethydrazide
Formula: C15H12BrClN2OS
CAS: 330818-97-8
Molecular weight: 382
m/z	intensity
33	6
34	3
35	4
36	18
37	16
38	42
39	150
40	44
41	21
42	39
43	49
45	999
46	41
47	61
48	5
49	12
50	135
51	91
52	19
53	6
54	5
55	11
56	5
57	12
58	16
59	4
60	6
61	21
62	79
63	279
64	56
65	52
66	6
67	3
69	67
70	8
71	10
72	6
73	38
74	52
75	215
76	105
77	119
78	37
79	21
80	15
81	22
82	40
83	7
84	9
85	16
86	11
87	19
89	387
90	137
91	118
92	43
93	15
94	2
95	5
96	5
97	5
98	3
99	48
100	11
101	17
102	51
103	25
104	19
105	10
106	14
107	16
108	153
109	44
110	16
111	44
112	27
113	22
114	10
115	5
116	6
117	31
118	249
119	92
120	31
121	91
122	61
123	27
125	78
127	447
128	34
129	126
130	10
131	21
132	14
133	6
134	4
135	4
136	2
137	2
138	2
139	19
140	4
141	8
142	13
143	94
144	62
145	43
146	25
147	35
148	6
149	28
150	5
151	3
152	7
153	32
154	22
155	186
156	121
157	601
158	121
159	185
160	36
161	13
162	2
164	31
165	11
166	20
167	9
168	18
169	13
170	12
171	24
172	9
173	13
174	2
178	1
181	14
182	57
183	59
184	130
185	31
186	71
187	6
188	1
191	3
192	3
193	1
194	5
196	12
197	93
198	64
199	108
200	101
201	81
202	22
203	24
204	3
205	2
209	4
210	2
211	10
212	3
213	8
214	2
222	1
223	3
225	211
226	26
227	209
228	20
229	3
230	1
231	2
238	4
239	23
240	6
241	21
242	3
244	1
246	1
264	1
277	1
304	11
305	4
306	5
307	2
308	3
310	2
321	1
323	1
349	2
351	3
382	97
384	149
385	21
386	36
387	6
388	2
