Mass Spectrum: 2-(4-Chlorophenylthio)-N'-(3-methoxybenzylidene)acethydrazide
Formula: C16H15ClN2O2S
CAS: 330818-99-0
Molecular weight: 334
m/z	intensity
33	5
35	4
36	18
37	12
38	42
39	123
41	34
42	33
43	46
44	23
45	999
46	37
47	62
48	6
49	2
50	122
51	271
52	94
53	39
54	24
55	23
56	10
57	16
58	17
59	3
60	5
61	15
62	43
63	185
64	115
65	128
66	20
67	14
68	5
69	63
70	9
71	12
72	5
73	37
74	37
75	154
76	86
77	439
78	165
79	118
80	39
81	19
82	30
83	10
84	9
85	16
86	4
87	10
88	2
89	113
90	110
91	227
92	151
93	40
94	18
95	41
96	7
97	7
98	2
99	46
100	12
101	16
102	18
103	50
104	36
105	135
106	111
107	199
108	282
109	66
110	19
111	46
112	31
113	26
114	10
115	6
116	9
117	19
118	59
119	135
120	59
121	169
122	126
123	107
124	14
125	58
126	9
127	681
128	61
129	206
130	17
131	9
132	15
133	140
134	364
135	261
136	137
137	14
138	2
139	11
140	4
141	6
142	10
143	91
144	58
145	38
146	38
147	14
148	35
149	389
150	151
151	38
152	17
153	58
154	39
155	107
156	66
157	478
158	95
159	166
160	30
161	22
162	9
163	19
164	10
165	12
166	20
167	22
168	20
169	5
170	4
171	9
172	6
173	2
174	1
175	3
176	9
177	627
178	63
179	6
182	9
183	18
184	11
185	9
186	2
189	2
190	12
191	47
192	6
193	1
199	3
200	20
201	132
202	17
203	49
204	5
231	1
245	1
261	1
273	1
301	3
332	1
334	301
335	59
336	108
337	19
338	6
