Mass Spectrum: Hydrazinecarboximidamide, 2-isopropylideno-N-nitro-
Formula: C4H9N5O2
CAS: 330816-80-3
Molecular weight: 159
m/z	intensity
33	57
37	12
38	33
39	357
41	784
42	942
43	999
44	122
46	178
48	0
52	8
54	42
56	194
58	316
59	5
68	8
69	11
71	727
72	76
73	2
83	39
84	25
85	1
98	48
99	3
111	1
113	475
114	22
159	142
