Mass Spectrum: Phenol, 2-(1,3,5-triaza-7-adamantyl)iminomethyl-4-nitro-
Formula: C14H17N5O3
CAS: 330828-56-3
Molecular weight: 303
m/z	intensity
37	1
38	4
39	32
40	29
41	123
42	999
43	60
44	11
45	2
46	3
50	12
51	19
52	10
53	17
54	12
55	12
56	9
57	5
58	1
62	5
63	19
64	10
65	16
66	10
67	12
68	21
69	12
70	3
71	6
74	5
75	10
76	24
77	20
78	9
79	9
80	15
81	15
82	17
83	8
84	3
85	10
89	19
90	18
91	16
92	10
93	5
94	2
95	7
96	4
97	3
101	1
102	4
103	14
104	14
105	8
106	8
107	4
108	4
109	6
110	4
111	5
112	0
115	3
116	8
117	17
118	23
119	19
120	7
121	3
122	0
123	1
124	1
128	1
129	5
130	21
131	20
132	13
133	8
134	5
135	5
136	5
138	13
139	0
140	0
141	0
142	2
143	7
144	7
145	32
146	10
147	5
148	3
149	3
150	1
151	0
152	1
156	2
157	13
158	16
159	31
160	12
161	4
162	0
164	14
165	35
166	5
167	3
168	1
169	8
170	4
171	5
172	5
173	3
174	6
175	6
176	4
177	16
178	2
179	3
181	1
184	2
185	14
186	37
187	32
188	9
189	39
190	18
191	42
192	8
193	2
198	2
199	1
200	2
201	2
202	1
203	9
204	59
205	39
206	43
207	4
214	1
215	13
216	12
217	8
218	11
219	3
220	1
229	1
230	5
231	7
232	53
233	129
234	26
235	2
244	2
245	7
246	33
247	72
248	13
249	1
258	3
259	2
261	122
262	20
263	1
274	56
275	113
276	17
277	0
303	183
304	28
305	1
