Mass Spectrum: Spiro[2.3]hexane-1-carboxylic acid, [[5-bromo-3-(1,1-dimethylethyl)-2-hydroxyphenyl]methylidene]hydrazide
Formula: C18H23BrN2O2
CAS: 330966-62-6
Molecular weight: 378
m/z	intensity
33	2
34	2
37	1
38	8
39	129
40	60
41	301
42	34
43	60
44	37
45	2
50	19
51	58
52	57
53	377
54	84
55	330
57	136
59	16
60	2
61	1
62	8
63	27
64	12
65	74
66	50
67	105
68	26
69	51
70	16
71	18
72	13
73	2
74	5
75	16
76	20
77	124
78	55
79	485
80	100
81	999
82	77
83	19
84	11
85	8
86	7
87	4
88	6
89	28
90	23
91	87
92	18
93	14
94	13
95	36
96	291
97	162
98	85
99	9
100	2
101	7
102	29
103	52
104	31
105	39
106	27
107	56
109	559
110	56
111	11
112	5
113	5
114	8
115	60
116	23
117	49
118	34
119	18
120	10
121	7
122	7
123	24
124	72
125	45
126	67
127	14
128	20
129	18
130	26
131	51
132	63
133	21
134	19
135	7
136	1
137	3
138	2
139	3
140	4
141	6
142	5
143	10
144	12
145	19
146	27
147	20
148	5
149	4
150	2
151	13
152	2
153	2
154	4
155	3
156	6
157	9
158	15
159	20
160	14
161	10
162	5
163	2
164	1
167	4
168	5
169	7
170	4
171	7
172	6
173	6
174	14
175	22
176	18
177	2
182	3
183	6
184	5
185	7
186	2
187	3
188	3
189	2
190	3
191	3
194	1
195	2
196	2
197	5
198	4
199	7
200	3
201	3
203	1
204	2
208	1
209	3
210	23
211	10
212	36
213	19
214	16
215	12
216	2
219	1
220	1
222	3
223	2
224	8
225	5
226	7
227	13
228	3
229	9
230	1
235	3
236	3
237	6
238	26
239	10
240	36
241	14
242	12
243	9
252	2
253	9
254	27
255	22
256	30
257	12
258	5
266	1
267	2
268	3
269	4
270	13
271	4
272	12
273	2
279	1
280	1
281	5
282	2
283	4
293	2
295	2
297	4
299	2
307	2
308	1
309	1
310	2
312	3
319	1
321	2
323	2
328	1
335	2
337	1
347	2
349	3
350	3
352	2
363	4
365	2
375	2
376	2
378	49
379	10
380	40
381	7
