Mass Spectrum: Benzaldehyde, 3-nitro-, (2-methyl-6-(1-piperidyl)-pyrimid-4-yl)hydrazone
Formula: C17H20N6O2
CAS: 330992-55-7
Molecular weight: 340
m/z	intensity
33	2
34	5
36	9
37	6
38	22
39	171
40	82
41	531
42	630
43	176
44	107
45	13
46	4
50	98
51	67
52	95
53	102
54	112
55	275
56	201
57	42
58	7
59	27
60	6
61	3
62	18
63	74
64	36
65	54
66	174
67	827
68	326
69	138
70	28
71	17
72	2
73	5
74	17
75	68
76	199
77	67
78	29
79	104
80	111
81	96
82	115
83	184
84	999
85	58
86	6
88	16
89	56
90	24
91	37
92	46
93	56
94	65
95	52
96	35
97	48
98	11
100	3
102	42
103	84
104	45
105	37
106	27
107	61
108	138
109	231
110	48
111	9
112	8
113	7
114	12
115	13
116	12
117	11
118	26
119	31
120	44
121	62
122	66
123	75
124	42
125	15
126	8
127	6
128	10
129	11
130	8
131	9
132	13
133	33
134	40
135	126
136	155
137	111
138	33
140	12
141	11
142	9
143	10
144	7
145	9
146	15
147	18
148	38
149	133
150	185
151	68
152	11
153	4
154	8
155	13
156	8
157	6
158	4
159	6
160	12
161	44
162	55
163	205
164	44
165	10
166	3
167	4
168	12
169	12
170	24
171	13
172	5
173	9
174	10
175	37
176	141
177	158
178	20
179	7
180	3
181	4
182	6
183	6
184	8
185	4
187	3
189	27
190	62
191	232
192	888
193	105
194	8
195	3
196	3
197	4
198	3
199	6
207	3
208	2
209	4
210	6
211	6
212	6
213	2
215	10
216	12
218	418
219	54
220	4
223	3
224	2
225	2
226	2
227	2
229	2
230	7
236	3
237	4
238	7
239	9
240	4
241	3
251	2
252	4
253	3
254	4
255	6
256	24
257	134
258	35
259	4
264	18
265	13
266	2
268	4
269	13
270	6
271	14
272	3
281	6
282	7
283	11
284	89
285	89
286	13
293	4
294	3
295	5
296	4
297	41
298	38
299	15
307	4
308	5
309	10
311	238
312	45
313	5
323	4
324	4
325	12
326	2
335	3
336	5
337	14
338	14
339	82
340	423
341	86
342	10
