Mass Spectrum: 4-(4-Acetylanilino)-5-allyl-6-methyl-2-phenylpyrimidine
Formula: C22H21N3O
CAS: 330998-12-4
Molecular weight: 343
m/z	intensity
38	10
39	100
40	345
42	999
43	973
44	24
50	33
51	275
52	152
53	186
54	35
55	10
63	126
64	91
65	146
66	51
67	17
68	7
74	19
75	72
76	254
77	471
78	130
79	128
80	48
81	8
87	7
88	12
89	48
90	83
91	115
92	57
93	11
94	15
101	22
102	74
103	186
104	552
105	71
106	30
107	5
114	18
115	28
116	21
117	22
118	17
119	50
120	41
121	9
126	6
127	29
128	53
129	35
130	25
131	9
132	6
136	7
139	7
140	18
141	19
142	15
143	21
144	8
145	17
146	7
151	5
152	9
153	10
154	47
155	53
156	46
157	17
166	9
167	20
168	23
169	23
170	8
171	6
179	5
180	10
181	25
182	22
183	10
184	11
193	8
194	6
195	12
196	7
197	10
198	7
209	16
210	26
211	6
222	7
223	6
224	18
239	6
245	5
260	6
272	12
284	7
285	11
286	8
300	15
301	8
328	132
329	33
342	51
343	88
344	23
