Mass Spectrum: Imidazol, 4-fluoro-5-carbhydrazino-
Formula: C4H5FN4O
CAS: 330953-77-0
Molecular weight: 144
m/z	intensity
41	16
42	23
43	46
44	34
45	6
46	37
52	7
53	43
54	16
55	7
57	108
58	529
59	87
60	17
67	43
68	33
69	9
70	40
71	36
85	735
86	68
87	16
113	999
114	51
117	48
144	595
145	71
