Mass Spectrum: 5-Hydroxy-4,4-dimethoxy-4,5,6,7-tetrahydrobenzofuroxane
Formula: C8H12N2O5
CAS: 330982-47-3
Molecular weight: 216
m/z	intensity
40	32
41	165
42	134
43	147
44	52
45	98
47	119
50	11
51	58
52	66
53	255
54	146
55	176
56	79
57	97
58	61
59	314
60	7
61	25
63	15
64	8
65	129
66	177
67	157
68	111
69	101
70	66
71	71
72	18
74	61
75	140
76	9
77	16
78	43
79	41
80	52
81	151
82	158
83	83
84	29
85	41
86	31
87	176
88	10
89	21
90	11
91	50
92	9
93	38
94	39
95	72
96	93
97	68
98	249
99	70
100	999
101	103
102	11
104	112
105	7
106	17
107	11
108	35
109	77
110	30
111	107
112	295
113	67
114	8
116	73
117	66
121	19
122	28
123	39
124	35
125	150
126	367
127	40
128	17
129	6
130	6
136	5
137	15
138	7
139	30
140	20
141	30
142	134
143	16
149	13
150	6
152	8
153	398
154	49
155	143
156	20
157	7
158	124
159	10
167	25
168	7
169	24
170	74
171	118
172	13
183	7
184	7
185	201
186	26
187	21
199	242
200	22
215	49
216	157
217	27
