Mass Spectrum: 2,3'-Bi-1H-indole, 1-(3,4-dihydro-2H-pyrrol-5-yl)-2,3-dihydro-
Formula: C20H19N3
CAS: 33090-98-1
Molecular weight: 301
m/z	intensity
41	999
77	260
89	320
90	200
115	140
117	230
130	340
144	170
158	100
217	100
232	480
233	240
258	70
272	70
300	170
301	280
302	100
