Mass Spectrum: 1-Piperazinepropanamide, N-(4-fluorophenyl)-4-methyl-
Formula: C14H20FN3O
CAS: 330952-43-7
Molecular weight: 265
m/z	intensity
33	1
34	1
37	0
40	94
42	999
43	534
44	195
45	4
50	5
51	9
52	7
55	302
56	427
57	257
58	246
59	14
60	1
62	5
63	14
64	7
65	6
66	0
68	40
70	794
71	323
72	75
73	5
75	27
76	4
77	9
78	3
79	1
81	10
83	315
84	377
85	127
86	5
87	0
89	7
90	3
91	8
92	1
93	3
95	95
96	36
97	61
98	113
99	165
100	41
101	3
102	0
103	2
104	3
105	7
106	7
107	3
109	53
110	169
111	555
113	709
114	34
115	2
118	1
119	1
120	3
122	32
123	23
124	96
125	10
127	134
128	8
129	0
133	1
135	4
136	7
137	15
138	48
139	3
146	1
147	0
148	5
149	4
150	6
151	3
152	4
153	17
154	4
155	3
161	0
162	0
163	5
164	4
165	71
166	74
167	16
168	0
171	0
177	6
178	3
179	1
181	5
182	0
185	1
191	0
193	2
194	17
195	246
196	30
197	2
207	33
208	69
209	287
210	39
211	2
221	141
222	166
223	118
224	14
225	0
234	0
235	30
236	10
237	1
248	0
250	14
251	2
263	7
265	278
266	44
267	2
