Mass Spectrum: 4,4,7,7-Tetranitro-2-phenyl-4,5,6,7-tetrahydro(2H)benzotriazole
Formula: C12H9N7O8
CAS: 330982-33-7
Molecular weight: 379
m/z	intensity
33	1
34	0
35	0
36	0
37	5
38	22
39	53
40	17
41	35
42	8
43	5
44	10
46	74
47	4
48	1
50	38
51	207
52	47
53	9
54	10
55	17
56	4
57	1
60	1
61	2
62	13
63	93
64	228
65	78
66	19
67	4
68	1
69	1
70	1
71	1
73	4
74	6
75	19
77	999
78	86
79	8
80	6
81	2
82	2
83	3
84	0
85	1
87	4
88	7
89	34
90	46
91	650
92	103
93	12
94	7
95	0
96	1
97	0
98	1
99	0
100	0
101	3
102	6
103	13
104	24
105	86
106	15
107	8
108	2
109	2
110	4
111	1
113	6
114	8
115	38
116	13
117	13
118	26
119	8
120	2
121	1
122	0
125	0
126	4
127	8
128	11
129	8
130	11
131	3
132	1
134	16
135	2
136	0
137	1
138	3
139	32
140	41
141	10
142	17
143	58
144	10
145	2
146	1
147	1
149	1
150	0
151	1
152	2
153	5
154	9
155	14
156	8
157	5
158	2
159	0
163	1
164	4
165	4
166	23
167	12
168	5
169	8
170	12
171	10
172	3
173	0
179	0
180	1
181	4
182	22
183	24
184	10
185	2
186	1
187	0
192	1
193	3
194	14
195	60
196	39
197	14
198	27
199	13
200	2
207	1
208	1
209	5
210	24
211	133
212	55
213	12
214	5
215	0
221	1
222	0
223	3
224	16
225	8
226	22
227	200
228	28
229	3
234	0
235	1
236	1
238	1
239	10
240	167
241	56
242	30
243	5
244	0
255	2
257	68
258	11
259	1
267	0
269	1
270	13
271	3
272	4
273	0
276	0
281	1
283	1
285	20
286	114
287	706
288	115
289	14
290	1
331	2
333	217
334	32
335	4
336	0
355	0
379	7
380	1
