Mass Spectrum: Benzaldehyde, 2-nitro-, (2-methyl-6-(1-piperidyl)-pyrimid-4-yl)hydrazone
Formula: C17H20N6O2
CAS: 330992-58-0
Molecular weight: 340
m/z	intensity
36	7
37	11
38	36
39	235
40	173
41	788
42	771
43	188
44	98
45	14
46	2
50	111
51	162
52	206
53	163
54	145
55	363
56	228
57	33
58	7
59	33
60	7
61	5
62	21
63	82
64	83
65	159
66	254
67	844
68	287
69	210
70	27
71	11
72	1
74	20
75	48
76	138
77	144
78	87
79	221
80	176
81	119
82	115
83	173
84	999
85	58
86	5
87	5
88	9
89	48
90	57
91	95
92	112
93	107
94	79
95	52
96	43
97	51
98	11
100	4
102	71
103	64
104	59
105	72
106	40
107	73
108	205
109	270
110	59
111	9
112	4
113	4
114	11
115	18
116	21
117	18
118	45
119	50
120	84
121	75
122	147
123	86
124	48
125	14
126	6
127	5
128	11
129	16
130	12
131	12
132	16
133	29
134	54
135	148
136	183
137	134
138	36
139	4
140	7
141	12
142	13
143	13
144	10
145	9
146	13
147	16
148	42
149	123
150	187
151	72
152	11
153	4
154	4
155	10
156	9
157	6
158	5
159	5
160	8
161	35
162	40
163	246
164	52
165	11
166	2
167	3
168	12
169	11
170	10
171	7
172	3
173	4
174	11
175	28
176	183
177	195
178	23
179	3
181	4
182	7
183	6
184	14
185	6
186	2
187	2
188	4
189	19
190	52
191	240
192	905
193	118
194	7
195	3
196	5
197	4
198	2
199	2
205	2
206	4
207	3
208	2
209	5
210	7
211	8
212	4
215	3
216	8
218	366
219	49
220	4
221	11
222	3
223	5
224	4
225	3
230	3
236	4
237	7
238	11
239	4
240	2
250	2
251	2
252	3
253	3
254	2
255	2
257	72
258	20
264	10
265	4
266	2
267	2
268	3
269	6
270	2
271	3
280	2
281	3
282	9
284	50
285	43
286	7
292	50
293	13
294	12
295	4
296	2
297	18
298	23
299	9
307	3
308	10
309	7
310	17
311	114
312	22
313	3
320	2
321	7
323	156
324	32
325	8
336	2
338	12
339	34
340	218
341	44
342	5
