Mass Spectrum: Benzenemethanol, 4-nitro-.alpha.-phenyl-
Formula: C13H11NO3
CAS: 33091-15-5
Molecular weight: 229
m/z	intensity
26	2
27	30
28	9
29	20
30	21
37	2
38	9
39	57
40	6
41	17
42	3
43	22
45	4
46	2
49	2
50	84
51	197
52	48
53	22
54	3
55	19
56	7
57	26
58	3
59	3
60	4
61	3
62	17
63	54
64	20
65	27
66	17
67	6
68	4
69	16
70	7
71	16
72	2
73	7
74	31
75	52
76	120
77	578
78	307
79	689
80	49
81	10
82	17
83	11
84	4
85	10
86	7
87	15
88	7
89	19
90	8
91	20
92	24
93	7
94	31
95	7
96	4
97	9
98	5
99	5
100	3
101	6
102	13
103	7
104	110
105	999
106	139
107	456
108	34
109	5
110	2
111	5
112	3
113	9
114	6
115	42
116	6
119	4
120	22
121	8
122	16
123	7
124	14
125	4
126	11
127	18
128	19
129	8
130	3
131	3
132	4
133	2
134	85
135	9
136	2
137	4
138	3
139	29
140	5
150	265
151	147
152	108
153	58
154	34
155	14
156	3
162	3
163	28
164	34
165	144
166	40
167	10
168	4
169	2
170	4
174	2
180	4
181	21
182	60
183	21
184	6
194	3
195	2
196	5
197	2
199	2
200	3
210	3
211	8
212	46
213	10
214	2
227	5
228	126
229	344
230	54
231	7
