Mass Spectrum: Acetamide, N-[3-(3-chloro-2-hydroxy-5-nitrobenzylidenamino)phenyl]-
Formula: C15H12ClN3O4
CAS: 330965-12-3
Molecular weight: 333
m/z	intensity
33	4
35	3
36	13
37	8
38	38
39	80
40	34
41	50
42	79
43	999
44	50
45	9
47	3
49	5
50	37
51	63
52	74
53	54
54	16
55	11
56	6
57	7
59	6
61	15
62	49
63	165
64	126
65	224
66	54
67	15
68	5
69	8
70	5
71	7
72	6
73	22
74	32
75	85
76	50
77	66
78	47
79	39
80	95
81	32
82	6
83	6
84	8
85	9
86	8
87	16
88	16
89	30
90	80
91	157
92	299
93	255
94	25
95	4
96	4
97	34
98	15
99	33
100	21
101	20
102	16
103	13
104	21
105	29
106	25
107	32
108	185
110	45
111	11
112	17
113	14
114	14
115	15
116	14
117	14
118	30
119	52
120	8
121	8
122	4
123	8
124	12
125	27
126	41
127	49
128	27
129	13
130	11
131	9
132	14
133	13
134	33
135	12
136	10
137	8
138	17
139	17
140	19
141	11
142	20
143	10
144	8
145	18
147	5
148	5
149	23
150	116
151	22
152	49
153	62
154	100
155	27
156	12
158	4
159	6
161	19
162	10
163	10
164	21
165	27
166	21
167	17
168	15
169	26
170	11
171	9
173	5
175	5
176	11
177	13
178	14
179	48
180	48
181	126
182	131
183	23
184	8
185	4
186	4
187	10
188	19
189	15
190	14
191	9
192	11
193	14
194	24
195	8
196	4
197	9
198	9
199	4
200	7
201	9
202	4
203	6
204	6
205	4
207	6
208	14
209	35
210	17
211	6
213	11
215	52
216	45
217	33
218	25
219	10
220	9
222	45
223	6
225	7
227	11
228	11
229	39
230	10
231	9
232	5
233	12
235	5
238	7
239	7
242	16
243	60
244	80
245	37
246	26
247	10
255	7
256	13
257	7
258	8
260	4
269	6
271	7
272	11
273	49
274	33
275	23
276	9
277	4
284	4
285	13
286	14
288	23
291	604
292	106
293	130
294	22
298	5
303	8
314	7
316	50
317	14
318	21
328	5
330	20
333	454
334	77
335	107
336	19
