Mass Spectrum: 5-Hydroxy-4,4-dimethoxy-4,5,6,7-tetrahydrobenzofurazan
Formula: C8H12N2O4
CAS: 330982-38-2
Molecular weight: 200
m/z	intensity
40	48
41	185
42	219
43	165
44	74
45	230
46	24
47	88
50	6
51	20
52	92
53	93
54	177
55	245
56	168
57	132
58	76
59	449
60	33
61	41
64	10
65	19
66	117
67	94
68	136
69	61
70	202
71	66
72	71
73	120
74	139
75	47
76	8
78	16
79	55
80	64
81	154
82	225
83	96
84	68
85	31
86	45
87	30
88	57
89	47
90	7
91	177
92	18
93	42
94	31
95	41
96	105
97	69
98	101
99	31
100	999
101	263
102	26
103	5
104	121
105	6
106	15
107	27
108	37
109	306
110	224
111	151
112	30
113	17
114	45
115	24
116	68
117	166
118	12
121	7
122	5
123	58
124	30
125	190
126	110
127	15
128	21
130	9
136	9
137	108
138	43
139	185
140	54
141	58
142	50
143	45
151	27
153	117
154	12
155	41
156	91
157	425
158	42
167	8
168	37
169	915
170	94
171	18
183	100
184	10
185	126
186	13
200	33
201	6
