Mass Spectrum: Glycine, N-[N-(N-acetyl-L-alanyl)glycyl]-, methyl ester
Formula: C10H17N3O5
CAS: 33105-22-5
Molecular weight: 259
m/z	intensity
14	5
15	47
16	5
17	36
18	200
26	5
27	22
28	73
29	22
30	218
31	13
32	4
33	2
39	2
40	4
41	13
42	64
43	171
44	999
45	40
53	2
54	4
55	13
56	65
57	20
58	5
59	15
60	20
68	4
69	5
70	7
71	7
72	69
73	13
74	4
83	2
84	7
85	47
86	509
87	618
88	40
89	7
90	29
91	1
97	4
98	1
99	11
100	2
101	7
102	5
103	5
104	1
111	1
112	2
113	35
114	164
115	16
116	3
125	1
126	1
127	5
128	1
129	3
130	1
131	51
132	3
141	9
142	1
143	8
144	47
145	5
146	8
147	10
155	2
157	2
170	4
171	73
172	7
173	18
174	3
175	4
185	5
186	1
200	2
216	2
227	1
228	5
229	1
241	1
259	13
260	2
