Mass Spectrum: Acetamide, 2-chloro-2-phenylhydrazono-N-phenyl-
Formula: C14H12ClN3O
CAS: 33101-93-8
Molecular weight: 273
m/z	intensity
33	12
34	0
36	7
37	6
38	24
39	160
40	29
41	17
42	2
43	6
44	2
46	1
47	0
50	21
51	77
52	23
53	3
54	4
55	1
57	0
59	0
61	2
62	20
63	49
64	106
65	397
66	51
67	3
69	0
72	0
73	0
74	3
75	5
77	295
78	21
79	2
80	1
81	0
89	11
91	509
92	453
93	999
94	82
99	1
101	0
102	1
103	3
104	10
105	15
107	45
108	3
112	0
114	0
115	0
116	1
118	128
119	47
120	53
121	2
125	3
126	1
127	1
128	0
131	4
132	22
133	4
134	0
137	4
138	3
140	1
145	29
146	10
147	2
152	14
153	5
154	5
155	1
156	0
160	12
161	1
165	0
167	41
168	5
169	14
170	1
179	0
180	12
181	18
182	3
183	6
184	0
194	0
208	13
209	27
210	16
211	2
220	1
237	260
238	39
239	4
255	0
270	1
271	5
273	660
274	111
275	208
276	36
277	3
281	6
282	1
