Mass Spectrum: Bicyclo[2.2.0]hex-2-ene, 1,4,5,5,6,6-hexafluoro-
Formula: C6H2F6
CAS: 33103-48-9
Molecular weight: 188
m/z	intensity
69	190
75	80
88	320
119	999
120	50
137	80
138	160
150	50
168	50
169	80
188	160
