Mass Spectrum: Tricyclo[3.2.2.0]nonane-2-carboxylic acid
Formula: C10H14O2
CAS: 33101-05-2
Molecular weight: 166
m/z	intensity
41	709
42	29
43	317
45	283
47	22
49	37
50	71
51	227
52	114
53	383
54	106
55	396
57	67
58	9
59	13
60	11
62	25
63	79
64	27
65	286
66	31
67	357
68	64
69	59
70	17
71	20
73	36
74	29
75	6
77	501
78	132
79	668
80	139
81	113
82	42
83	44
84	40
85	22
86	28
87	3
89	12
91	592
92	57
93	999
94	199
95	73
97	72
98	91
99	13
103	51
105	693
106	120
107	149
108	13
109	36
111	159
112	19
115	16
117	17
119	86
120	307
121	684
122	35
123	52
124	33
125	19
133	77
136	7
137	73
138	52
147	8
148	16
149	11
151	80
152	6
166	39
167	3
