Mass Spectrum: 2,3-Diazabicyclo[2.2.2]oct-2-ene
Formula: C6H10N2
CAS: 3310-62-1
Molecular weight: 110
m/z	intensity
25	7
26	123
27	448
28	234
29	68
30	4
31	1
36	2
37	16
38	41
39	547
40	90
41	918
42	67
43	17
44	1
45	1
49	4
50	42
51	75
52	56
53	131
54	999
55	100
56	11
57	7
59	1
61	2
62	4
63	14
64	4
65	44
66	25
67	811
68	47
69	6
70	1
71	2
73	2
74	3
75	3
76	3
77	36
78	18
79	48
80	15
81	93
82	185
83	14
84	1
85	1
91	6
92	2
93	4
94	7
95	8
96	1
106	1
107	6
108	6
109	2
110	197
111	16
112	1
