Mass Spectrum: (2,2-Dichloro-1-phenylcyclopropyl)-(piperidin-1-yl)-methanone
Formula: C15H17Cl2NO
CAS: 331241-15-7
Molecular weight: 297
m/z	intensity
47	3
48	5
49	10
50	64
51	122
52	44
55	221
56	285
57	127
58	23
69	720
70	129
71	53
72	5
77	209
78	46
79	30
80	11
84	639
85	93
86	5
89	269
90	104
91	132
92	27
93	3
103	299
104	76
105	110
112	387
113	96
114	117
115	999
116	154
117	49
118	175
119	43
120	16
149	782
150	219
151	304
152	88
153	37
154	11
155	16
156	145
157	25
178	303
179	88
180	115
181	37
182	14
198	353
199	62
200	13
212	43
213	37
214	115
215	32
216	11
220	18
221	5
222	5
224	11
225	9
226	165
227	41
232	46
233	21
234	646
235	107
236	206
237	34
259	3
260	18
261	77
262	206
263	56
264	64
265	9
280	12
281	4
282	13
283	3
295	9
296	35
297	996
298	194
299	643
300	111
301	115
302	16
