Mass Spectrum: Anthracene-9,10(9H,10H)-dione, 2-(1-pyrrolidinylsulfonyl)-
Formula: C18H15NO4S
CAS: 331274-62-5
Molecular weight: 341
m/z	intensity
33	0
34	0
36	0
37	3
39	101
41	420
42	711
43	154
44	13
45	2
46	0
48	7
49	3
50	34
51	25
52	4
53	16
54	10
55	27
56	5
57	2
58	1
59	1
60	1
61	2
62	9
63	21
64	5
65	5
66	2
68	89
70	999
71	39
74	68
75	150
76	93
77	48
78	4
79	0
80	0
81	0
82	1
83	1
84	1
85	2
86	10
87	13
88	4
89	8
90	3
91	2
92	1
93	1
94	0
95	1
96	1
98	22
99	27
100	13
101	24
102	5
103	11
104	12
105	5
106	1
107	1
108	0
109	1
110	6
111	8
112	2
113	5
114	1
115	2
116	1
117	3
118	9
119	1
120	1
121	1
122	6
123	7
124	9
125	46
126	14
127	3
128	0
129	2
130	0
131	0
132	0
133	0
134	3
135	2
136	0
137	4
138	5
139	18
140	2
141	0
142	0
143	0
144	1
145	0
146	1
147	1
150	355
151	448
152	90
153	10
154	1
155	0
156	3
157	0
158	0
161	1
162	1
163	3
164	3
165	6
166	1
167	2
168	3
170	14
171	7
172	0
173	0
175	0
176	1
177	2
178	8
179	59
180	38
181	5
182	2
183	2
184	1
185	0
187	0
188	0
189	0
190	1
191	2
192	1
193	6
194	1
195	2
196	12
197	2
198	0
199	3
200	0
201	0
202	0
203	0
204	2
205	4
207	242
208	93
209	15
210	4
211	1
212	0
213	0
216	0
217	0
218	0
219	1
220	2
221	7
222	3
223	2
224	19
225	3
226	0
227	1
228	0
229	0
230	0
231	0
232	0
233	0
234	1
235	2
236	0
238	0
239	0
240	1
241	0
243	0
244	0
246	0
247	1
248	3
249	2
250	0
254	0
255	3
256	1
257	0
258	0
259	0
260	1
261	0
262	0
269	0
271	9
272	3
273	2
274	1
276	31
277	25
278	4
279	0
283	0
300	0
301	0
328	0
332	0
334	0
335	0
336	1
338	4
340	122
341	232
342	50
343	17
344	2
345	0
