Mass Spectrum: 2-Pyrazolin-5-ol, 5-(4-chlorophenyl)-3-trifluoromethyl-1-(4-pyridylcarbonyl)-
Formula: C16H11ClF3N3O2
CAS: 331238-92-7
Molecular weight: 369
m/z	intensity
36	0
38	3
39	0
40	0
43	1
44	0
47	0
48	2
49	8
50	71
51	118
52	12
53	3
55	0
58	0
60	0
61	3
62	5
63	14
65	4
67	1
69	17
70	3
72	1
73	12
74	23
75	50
76	30
78	501
79	27
80	0
83	0
84	2
85	3
86	6
87	6
88	3
89	5
90	2
92	0
93	0
96	0
97	3
98	3
99	8
101	77
102	63
103	53
106	999
107	61
109	2
110	4
111	24
112	9
113	8
114	5
115	1
116	0
117	1
118	0
119	0
121	7
122	3
123	4
124	1
125	6
127	1
129	1
131	11
132	4
133	3
134	2
135	4
136	22
137	80
138	31
139	20
140	10
141	1
142	0
143	5
144	1
145	3
148	0
149	6
150	4
151	11
152	6
153	1
154	0
157	0
159	0
160	0
161	4
163	3
164	3
165	9
166	5
167	9
168	2
169	1
177	0
178	0
179	1
181	1
182	3
183	4
187	4
189	2
194	0
195	1
196	0
197	1
198	0
199	2
200	3
201	0
215	0
217	1
218	0
225	1
227	0
228	0
246	1
250	0
255	0
256	2
258	69
259	10
260	16
262	2
263	7
265	1
266	0
297	0
298	1
300	54
301	9
302	12
303	1
350	1
351	0
365	2
366	6
369	396
371	153
372	18
373	1
