Mass Spectrum: 1,3,4-Thiadiazole, 2-acetylamino-5-(1-acetylbenzimidazol-2-yl)-
Formula: C14H13N5O2S
CAS: 331246-48-1
Molecular weight: 315
m/z	intensity
33	4
34	2
36	1
37	7
38	21
39	48
40	53
41	28
43	999
44	94
45	14
46	6
47	2
48	1
50	18
51	27
52	24
53	5
54	3
55	5
57	11
58	29
59	17
60	22
61	5
62	17
63	60
64	59
65	47
66	5
67	4
69	22
70	11
71	3
72	6
73	27
74	20
75	23
76	35
77	64
78	17
79	3
80	1
82	2
83	6
84	15
85	4
86	3
87	2
88	8
89	22
90	91
91	36
92	41
93	6
94	1
95	3
96	0
97	0
98	0
99	0
100	3
102	71
103	59
104	54
105	14
106	4
107	5
108	2
109	0
112	2
114	24
115	20
116	16
117	14
118	65
119	10
120	6
121	1
122	2
123	1
124	1
127	5
128	7
129	44
131	389
132	424
133	39
134	21
135	3
136	1
139	0
140	0
141	2
142	17
143	52
144	17
145	8
146	6
147	1
148	1
149	1
150	0
152	0
156	98
157	109
158	40
159	4
161	9
162	11
163	4
170	1
171	3
172	3
173	5
174	16
175	91
176	50
177	8
178	1
188	11
189	26
190	5
192	0
203	4
205	0
212	0
217	5
223	0
228	1
229	6
231	323
232	40
233	13
234	1
258	15
270	1
271	5
273	285
274	39
275	14
276	1
315	33
316	5
317	1
