Mass Spectrum: 2,4-Pentanedione, 3-[2,5-di(p-tolylsulfonylamino)]phenyl-
Formula: C25H26N2O6S2
CAS: 331254-02-5
Molecular weight: 514
m/z	intensity
26	6
27	11
28	1
29	4
36	3
38	7
39	57
40	6
41	19
42	12
43	89
44	54
45	14
48	31
50	19
51	31
52	18
53	14
54	4
55	3
60	4
61	6
62	14
63	47
64	83
65	169
66	15
67	9
69	8
71	3
73	3
74	6
75	12
76	9
77	43
78	20
79	34
80	20
81	3
86	9
87	4
89	67
90	47
91	999
92	217
93	28
94	6
95	3
101	3
102	7
103	9
104	7
105	15
106	10
107	89
108	33
109	4
111	5
115	10
116	34
117	41
118	42
119	30
120	16
121	30
122	9
123	17
124	25
125	3
128	8
129	6
130	16
131	13
132	9
133	11
134	11
135	5
139	115
140	44
141	11
142	17
143	39
144	69
145	245
146	46
147	18
148	4
155	398
156	88
157	44
158	21
159	23
160	28
161	124
162	48
163	50
164	8
165	4
167	3
168	2
169	7
170	6
171	203
172	52
173	68
174	9
181	3
185	71
186	41
187	526
188	119
189	16
190	3
191	4
192	3
193	4
194	3
195	6
196	4
197	3
203	43
204	42
205	17
206	7
207	20
208	6
209	7
218	4
219	8
220	8
224	4
233	11
234	12
235	17
236	6
237	3
261	231
262	48
263	19
264	5
275	34
276	11
277	21
278	7
299	263
300	62
301	19
302	4
314	3
315	11
316	6
317	260
318	53
319	17
326	4
327	6
341	683
342	343
343	97
344	23
345	3
359	50
360	26
361	6
416	81
417	20
418	8
454	46
455	14
456	6
470	3
472	28
473	7
474	3
496	367
497	111
498	52
499	11
514	34
515	10
516	4
