Mass Spectrum: Phosphoric acid, 1,2-ethanediyl tetrakis(2-chloroethyl) ester
Formula: C10H20Cl4O8P2
CAS: 33125-86-9
Molecular weight: 470
m/z	intensity
43	80
44	60
45	260
47	30
49	50
57	40
62	150
63	999
64	70
65	350
69	10
71	20
77	10
79	10
81	120
82	10
89	10
91	20
99	250
107	40
109	10
113	15
117	80
119	30
121	5
123	10
124	100
125	400
126	10
127	10
137	20
139	10
143	140
145	60
151	200
152	5
157	5
159	10
161	320
163	15
171	10
173	5
175	20
177	10
179	30
185	10
186	30
187	250
188	20
189	70
190	5
191	5
205	230
207	40
213	510
214	30
215	170
221	5
223	50
225	25
227	3
248	15
249	190
250	20
251	110
252	5
253	10
267	60
268	3
269	21
270	1
279	2
283	1
285	7
287	5
289	0
291	1
293	1
299	2
301	1
303	2
317	1
319	1
329	26
330	2
331	17
332	1
333	2
347	1
349	1
355	1
359	1
365	2
367	3
369	1
391	31
392	2
393	30
394	2
395	10
396	1
397	1
405	1
407	1
421	8
422	0
423	8
425	2
427	5
429	7
430	1
431	3
435	11
436	1
437	10
438	1
439	2
