Mass Spectrum: Acetamide, N-acetyl-N-(5,6,7,8-tetrahydro-2-methylbenzo[4,5]thieno[2,3-d]pyrimidin-3(4H)-yl]-
Formula: C15H17N3O3S
CAS: 331255-79-9
Molecular weight: 319
m/z	intensity
37	5
38	24
39	39
40	28
41	79
43	999
44	35
45	30
46	3
47	5
50	22
51	31
52	24
53	12
54	5
55	9
57	54
58	32
59	12
61	4
63	49
64	37
65	28
66	9
67	9
69	43
70	20
71	16
72	3
74	4
75	8
77	56
78	21
79	19
80	5
82	36
83	12
84	11
85	6
87	4
89	29
91	80
92	15
93	24
95	75
96	11
97	8
99	26
102	12
103	13
104	6
105	6
106	5
108	42
110	15
111	5
116	28
117	8
118	5
119	3
121	40
122	16
123	10
132	7
134	29
135	43
136	12
137	5
138	4
144	7
146	3
148	14
149	24
150	13
151	6
161	9
162	7
164	28
165	9
166	7
174	8
176	29
177	35
178	13
179	7
190	3
191	4
192	7
204	4
205	5
206	9
207	12
217	43
219	156
220	18
221	6
234	39
235	32
236	5
248	3
249	3
260	57
261	9
262	6
276	17
277	34
278	7
319	52
320	9
321	4
