Mass Spectrum: Acetamide, N-[3-(2-nitrophenylsulfonylamino)phenyl]-
Formula: C14H13N3O5S
CAS: 331256-08-7
Molecular weight: 335
m/z	intensity
33	16
34	7
35	19
36	90
37	15
38	67
39	134
40	88
41	60
43	912
44	44
45	9
46	3
48	14
50	145
51	171
52	188
53	157
54	31
55	22
56	17
57	15
58	4
59	1
60	2
61	4
63	113
64	103
65	81
66	32
67	42
68	18
69	21
70	19
71	7
72	2
73	6
74	32
75	39
76	82
77	94
78	123
80	999
81	90
82	21
83	26
84	6
85	3
86	1
87	2
89	15
90	29
91	79
92	77
93	52
94	57
95	95
96	22
97	11
98	11
99	6
100	1
101	4
102	6
103	9
105	121
106	80
107	258
108	180
109	21
110	5
111	8
112	3
113	4
114	3
115	12
116	8
117	11
118	15
119	20
120	26
121	21
122	73
123	281
124	23
125	13
126	6
127	19
128	16
129	16
130	17
131	7
132	11
133	14
134	16
135	3
136	2
137	3
139	14
140	13
141	7
142	5
143	13
144	11
145	12
146	12
147	26
148	47
149	77
150	66
152	18
153	9
154	33
155	31
156	23
157	13
158	6
159	4
160	6
161	4
162	3
164	5
165	18
166	41
167	48
168	20
169	16
170	13
171	16
172	9
173	5
174	4
175	5
176	1
178	1
179	5
181	39
182	80
183	66
184	38
185	17
186	43
187	15
188	6
189	2
190	0
192	0
193	2
194	10
195	24
196	9
197	4
198	8
199	12
200	14
201	3
202	1
203	0
204	7
205	2
206	0
207	2
209	3
210	5
212	133
213	23
214	3
215	3
217	0
218	2
219	0
225	0
228	2
229	3
230	0
231	0
232	1
233	9
234	1
235	3
236	1
237	1
240	1
241	1
243	2
244	0
245	1
246	4
247	7
248	6
249	1
250	1
251	0
254	7
255	0
260	9
261	1
264	1
268	3
269	0
271	0
276	1
286	0
288	0
289	2
290	7
291	4
293	247
294	35
295	12
302	0
305	5
306	0
331	3
333	2
335	219
336	34
337	14
338	1
