Mass Spectrum: Acetamide, 2-(4-methylphenoxy)-N-(4-methoxy-2-nitrophenyl)-
Formula: C16H16N2O5
CAS: 331240-76-7
Molecular weight: 316
m/z	intensity
33	8
34	1
37	6
39	128
40	48
41	39
42	30
43	18
44	25
45	3
46	0
50	57
51	119
52	99
53	66
54	24
55	15
56	7
57	5
58	5
59	5
60	4
62	42
63	83
65	339
66	44
67	17
68	32
69	11
70	4
71	1
72	0
74	10
75	12
77	325
78	110
79	178
80	79
81	13
82	9
83	3
84	2
85	1
86	3
87	3
89	83
91	999
93	283
95	80
96	14
97	2
98	1
100	1
102	2
103	34
104	32
105	43
106	133
107	208
108	496
109	58
110	19
111	3
112	1
113	1
115	3
116	2
117	5
119	65
120	180
121	287
122	119
123	40
124	7
125	2
127	12
128	2
129	1
130	1
131	3
133	29
134	85
135	67
136	56
137	38
138	8
139	1
141	1
143	0
145	1
146	2
148	79
149	28
150	41
151	101
152	13
153	20
154	3
155	1
158	19
159	0
162	213
163	72
164	19
165	23
167	27
168	89
169	9
171	2
172	0
175	0
176	5
177	9
178	35
179	30
180	158
181	653
182	55
183	7
184	0
191	0
192	2
193	8
194	2
195	1
196	1
197	0
198	0
201	0
207	2
209	62
210	6
211	1
212	0
223	0
241	0
253	0
258	1
270	8
271	1
286	3
312	1
313	3
314	5
316	402
317	67
318	9
319	0
