Mass Spectrum: 2(5H)-Furanone, 4-methyl-3-phenyl-
Formula: C11H10O2
CAS: 33131-14-5
Molecular weight: 174
m/z	intensity
26	7
27	38
29	28
30	1
37	10
38	19
39	149
40	6
41	12
43	7
45	2
49	5
50	66
51	128
52	30
53	12
55	4
56	2
57	10
58	16
61	13
62	37
63	114
64	40
65	59
66	4
67	2
68	1
71	2
73	5
74	22
75	35
76	26
77	67
78	28
79	5
85	5
86	17
87	22
88	13
89	57
90	13
91	154
92	8
95	3
97	2
98	5
99	6
101	5
102	22
103	60
104	5
105	1
110	3
113	26
114	26
115	383
116	93
117	999
118	100
119	4
126	4
127	20
128	35
129	35
130	3
131	70
132	10
144	5
145	187
146	72
147	5
158	4
159	1
174	417
175	40
176	4
