Mass Spectrum: 2-[(5-Bromo-1-methyl-2-oxo-3-indolinyl)methyl]-3-phenyl-4(3H)-quinazolinone
Formula: C24H18BrN3O2
CAS: 331465-18-0
Molecular weight: 459
m/z	intensity
33	3
39	231
40	21
41	45
42	56
43	29
44	22
50	187
51	278
52	38
53	14
54	7
55	24
56	10
57	24
58	8
62	66
63	160
64	90
65	71
66	31
67	7
68	4
69	12
70	10
71	9
75	179
77	999
78	73
80	49
81	18
82	27
84	24
85	4
87	24
89	243
90	239
91	82
92	83
93	23
94	5
95	6
97	9
98	7
99	7
102	150
103	69
104	49
105	31
106	8
109	3
110	3
112	10
114	38
115	43
116	109
117	191
119	236
120	63
121	6
123	15
124	3
125	4
126	7
127	23
128	33
129	77
130	116
131	59
132	92
133	9
138	4
139	16
140	18
141	10
142	12
143	19
144	19
145	33
146	22
147	23
148	4
149	8
151	9
152	17
153	10
155	38
156	10
157	12
158	16
159	26
160	43
161	24
163	5
164	13
165	22
166	38
167	45
168	29
169	26
170	9
171	25
173	97
174	14
175	31
176	10
178	18
179	9
180	12
181	9
182	19
183	16
184	14
185	11
186	4
187	4
190	134
192	36
193	59
194	53
195	25
196	15
197	8
198	7
199	3
200	5
201	6
202	5
203	9
204	13
205	28
206	35
207	25
208	64
209	32
210	41
211	29
212	6
213	6
215	8
217	7
218	9
219	15
221	151
222	45
223	47
224	56
226	66
227	9
229	35
231	30
232	30
233	42
234	129
235	164
236	96
237	47
238	40
239	45
240	19
241	9
245	4
246	8
247	15
248	4
258	6
259	9
260	7
261	7
262	3
263	4
264	9
266	9
271	16
272	5
273	14
274	6
275	4
284	4
285	9
286	6
287	12
288	4
296	3
297	5
300	129
301	30
302	93
303	14
304	3
310	3
311	8
312	5
313	9
314	13
315	5
316	10
320	4
321	5
322	3
336	4
337	5
339	24
341	22
350	4
352	7
354	6
367	9
369	8
378	4
380	24
381	14
382	22
383	6
384	18
385	3
401	4
403	3
459	241
460	99
461	230
462	59
463	9
