Mass Spectrum: 3-Iodo-benzoic acid N'-(thiophene-2-carbonyl)-hydrazide
Formula: C12H9IN2O2S
CAS: 331421-25-1
Molecular weight: 372
m/z	intensity
37	0
38	11
39	240
40	10
45	26
46	0
49	1
50	131
51	18
52	2
53	8
54	1
57	36
58	11
59	1
62	1
63	4
64	3
69	2
70	1
71	1
74	18
75	31
76	274
77	19
78	1
79	0
81	3
82	8
83	54
84	6
85	1
86	0
88	0
90	0
91	0
92	0
102	0
103	3
104	15
105	2
106	0
110	27
111	999
112	61
113	73
114	73
116	0
127	10
128	5
135	0
171	3
177	0
201	0
202	0
203	313
204	25
205	0
230	2
231	461
232	38
233	1
234	1
252	0
261	0
262	18
263	1
354	22
355	3
371	0
372	238
373	51
374	12
