Mass Spectrum: N'-(3-Bromobenzyliden)-tetrazole-1,5-diamine
Formula: C8H7BrN6
CAS: 331431-12-0
Molecular weight: 266
m/z	intensity
50	108
51	72
52	16
53	4
54	6
55	21
56	11
57	68
58	19
59	3
61	23
62	61
63	133
64	16
65	15
69	21
70	3
71	9
73	18
74	49
75	119
76	113
77	82
78	17
79	26
80	56
81	27
82	61
83	8
84	11
85	44
86	16
87	23
88	23
89	999
90	120
91	40
92	7
102	147
103	51
104	24
105	13
111	4
116	11
117	12
118	11
119	4
131	41
132	3
155	76
156	26
157	74
158	23
159	4
167	8
168	140
169	38
170	149
171	32
172	12
181	112
182	134
183	176
184	142
185	70
186	9
195	4
196	47
197	12
198	46
199	7
200	13
201	2
202	10
208	8
209	45
210	30
211	43
212	21
223	15
224	4
225	14
226	1
238	87
239	11
240	92
241	11
242	5
266	31
267	4
268	29
269	3
