Mass Spectrum: N-(5-Ethyl-1,3,4-thiadiazol-2-yl)-4-[3-(2-furoyl)-2-thioureido)benzenesulfonamide
Formula: C16H15N5O4S3
CAS: 331445-76-2
Molecular weight: 437
m/z	intensity
33	12
34	5
36	24
37	186
38	334
39	956
41	92
42	16
44	63
45	51
46	9
47	11
49	13
50	14
51	57
53	66
54	14
55	14
56	9
58	143
59	17
60	10
61	4
63	33
64	19
65	106
67	154
68	19
70	45
71	17
73	34
74	6
75	7
76	4
77	6
79	8
80	9
81	4
83	7
84	3
86	20
87	2
88	2
89	2
90	6
92	113
93	35
95	999
97	7
98	1
99	1
100	1
101	1
102	1
103	1
104	1
106	50
108	66
109	14
111	27
113	6
114	1
116	1
117	1
118	2
119	3
120	1
121	2
122	1
123	3
124	2
125	1
127	1
128	2
129	5
130	3
131	2
132	2
133	2
134	6
135	8
136	1
137	1
138	1
140	6
142	1
146	1
148	2
149	5
150	8
151	3
153	97
154	9
155	7
156	44
157	4
158	2
159	1
160	1
161	4
162	1
163	1
164	2
165	2
171	1
172	1
173	1
175	1
176	8
178	2
187	1
191	1
192	1
198	1
203	1
207	1
213	1
214	1
215	2
216	1
217	1
218	1
219	5
220	21
221	3
222	1
245	1
246	1
261	1
262	2
281	1
282	2
284	53
285	7
286	4
287	1
326	3
327	1
437	1
