Mass Spectrum: Benzamide, N-dodecyl-
Formula: C19H31NO
CAS: 33140-65-7
Molecular weight: 289
m/z	intensity
41	118
42	21
43	120
44	28
45	0
50	6
51	48
52	2
53	4
54	4
55	68
56	24
57	25
65	0
67	4
68	0
69	16
70	6
71	1
75	0
77	310
78	22
79	21
81	0
83	2
84	0
91	0
97	0
103	0
104	17
105	999
106	81
107	2
120	0
121	1
122	71
123	2
134	215
135	257
136	19
142	0
148	104
149	29
150	0
162	75
163	19
164	0
176	67
177	14
190	21
191	4
204	14
205	1
218	12
219	0
232	9
233	0
246	7
247	0
260	2
288	3
289	29
290	4
