Mass Spectrum: [4-Bromo-.alpha.-(1,3,5-triazaadamantan-7-yl)benzylidene]hydrazine
Formula: C14H18BrN5
CAS: 331465-21-5
Molecular weight: 335
m/z	intensity
33	2
36	1
37	3
39	83
40	15
42	999
43	65
44	34
45	12
50	30
51	26
52	11
53	14
54	30
55	59
56	16
57	17
58	4
59	2
60	1
62	9
63	20
64	7
65	9
66	14
68	111
69	11
71	38
72	2
75	49
76	32
77	17
78	8
79	7
80	21
81	13
82	20
83	17
84	6
85	4
86	4
87	6
88	9
89	9
90	8
91	6
92	4
93	7
95	9
96	2
97	5
98	3
99	4
100	4
102	46
103	11
104	4
105	1
106	1
107	1
108	1
109	4
110	3
111	4
113	13
114	25
115	24
116	11
117	6
118	4
119	1
123	2
124	2
125	1
127	27
128	51
129	32
130	26
131	7
132	2
133	1
137	1
138	3
139	2
140	8
141	9
142	13
143	14
144	6
145	1
149	2
151	1
152	1
155	69
156	57
157	44
158	13
159	5
167	3
169	34
170	12
171	7
172	1
180	1
181	10
182	11
183	9
184	10
185	4
186	3
187	1
193	11
195	14
196	4
197	6
198	3
199	7
200	1
206	2
207	4
208	10
209	7
210	8
211	5
212	1
219	1
220	2
221	5
222	9
223	7
224	7
225	2
226	1
227	1
228	1
232	1
235	84
236	126
237	74
238	99
239	23
240	4
241	1
246	1
247	9
249	70
250	19
251	49
252	9
253	2
254	1
261	1
263	22
264	52
265	33
266	45
267	16
268	7
269	1
275	1
276	4
278	38
279	9
280	26
281	4
282	2
289	1
290	2
291	3
292	16
293	6
294	11
295	2
306	26
307	16
308	18
309	13
319	59
320	12
321	47
322	8
323	1
334	8
335	40
336	12
337	34
338	5
