Mass Spectrum: 2-Benzimidazolidone, N-methyl-N'-benzyl
Formula: C15H14N2O
CAS: 33158-52-0
Molecular weight: 238
m/z	intensity
50	20
51	51
52	18
53	6
63	34
64	19
65	132
66	12
76	13
77	49
78	22
79	7
89	23
90	31
91	999
92	125
93	9
105	12
106	10
118	22
119	53
120	5
121	1
147	37
148	22
149	10
150	3
161	10
162	2
221	13
222	4
223	2
224	1
237	12
238	352
239	61
240	5
