Mass Spectrum: Tungsten, tricarbonyl(.eta.5-2,4-cyclopentadien-1-yl)(trifluoroacetyl)-
Formula: C10H5F3O4W
CAS: 33155-47-4
Molecular weight: 430
m/z	intensity
39	203
50	46
51	125
63	132
65	78
66	70
77	999
89	718
105	140
184	46
223	351
242	312
249	562
268	273
277	320
298	539
305	398
318	781
327	54
333	179
336	54
346	179
355	179
361	164
383	15
402	601
430	23
