Mass Spectrum: 2-Furylcarboxamide, N-dibenzylmethyl-
Formula: C20H19NO2
CAS: 331670-00-9
Molecular weight: 305
m/z	intensity
33	2
34	2
36	0
37	5
38	27
39	279
40	46
41	36
42	14
43	16
44	10
45	1
46	0
48	1
50	13
51	49
52	14
53	12
54	4
55	13
56	4
57	10
58	0
59	0
60	0
61	1
63	39
65	166
67	52
68	9
69	6
70	4
71	4
73	1
74	3
75	4
76	4
77	28
78	12
79	3
80	3
81	3
82	1
83	4
84	3
85	1
87	2
89	33
91	346
92	40
95	999
96	46
97	5
98	1
99	0
100	0
101	1
102	4
103	13
104	6
105	7
106	1
107	2
108	2
109	1
110	0
111	5
112	19
113	2
115	23
116	14
117	12
118	11
119	4
120	6
121	1
122	1
123	0
124	0
125	0
126	1
127	2
128	9
129	3
130	2
131	0
132	0
133	0
135	0
136	1
138	0
139	1
141	3
143	6
144	1
146	14
147	1
148	0
149	1
150	0
151	0
152	2
153	3
154	0
156	2
157	2
158	1
159	0
163	0
165	2
166	3
167	1
168	0
169	1
170	1
171	18
172	2
173	0
175	0
176	0
177	0
178	6
179	7
180	1
182	0
184	1
185	1
186	0
187	0
188	0
189	1
190	0
191	2
192	1
193	12
194	25
195	3
196	0
197	0
198	0
206	0
208	0
209	0
210	0
211	1
212	3
214	447
215	60
216	5
217	0
235	0
237	0
241	0
283	0
301	0
305	5
306	0
