Mass Spectrum: 1,3,4-Oxadiazole-2(3H)-thione, 5-(2-chlorophenyl)-3-(1-piperidylmethyl)-
Formula: C14H16ClN3OS
CAS: 331670-14-5
Molecular weight: 309
m/z	intensity
33	2
34	2
35	1
36	5
37	5
38	9
39	32
40	28
41	124
42	124
43	35
44	62
45	4
46	1
47	2
48	1
49	3
50	23
51	16
52	5
53	7
54	11
55	82
56	35
57	13
58	4
59	6
60	7
61	8
62	12
63	14
64	5
65	3
66	0
67	5
68	8
69	33
70	47
71	4
72	4
73	8
74	9
75	41
76	14
77	3
79	0
80	1
81	1
82	5
83	8
84	27
85	13
86	4
87	4
88	5
89	7
90	18
91	2
92	0
93	0
94	1
95	1
96	18
98	999
99	79
100	5
101	2
102	27
103	3
106	1
107	0
110	4
111	21
112	4
113	8
114	1
116	1
117	6
118	1
119	0
121	0
123	3
124	2
125	21
126	1
127	6
137	15
138	8
139	25
140	4
141	4
142	0
152	50
153	4
154	16
155	1
165	1
167	0
179	0
180	0
212	23
213	2
214	8
