Mass Spectrum: N-[2-(4-Iodo-phenyl)-benzooxazol-5-yl]-benzamide
Formula: C20H13IN2O2
CAS: 331654-72-9
Molecular weight: 440
m/z	intensity
38	2
39	13
40	2
41	3
42	3
43	4
45	1
46	0
47	0
48	2
50	37
51	215
52	150
53	51
54	8
55	8
56	2
57	6
58	0
59	0
60	2
61	2
62	6
63	20
64	2
65	0
66	0
67	0
70	0
73	1
74	2
75	12
76	61
77	760
78	122
79	41
80	129
81	8
82	0
84	1
85	0
87	0
88	1
89	1
90	0
91	2
92	0
93	0
94	0
95	1
97	1
98	0
99	0
100	1
101	1
102	17
103	15
104	8
105	999
106	96
107	9
108	0
110	0
113	0
114	0
116	0
118	1
119	0
120	0
121	0
122	0
124	0
125	0
126	2
127	7
128	6
129	0
130	0
131	0
133	0
134	0
135	0
136	0
137	0
138	0
139	0
140	0
141	0
143	0
146	0
151	0
152	3
153	6
154	3
155	1
159	0
160	0
161	1
168	2
177	0
178	1
179	5
180	3
181	2
182	1
183	0
189	0
192	0
195	0
199	0
201	0
203	4
207	1
208	12
209	2
210	4
211	0
213	0
215	1
220	0
228	0
229	5
230	14
231	2
232	0
235	0
240	0
241	0
248	0
254	1
260	0
266	0
281	0
283	0
300	0
307	0
308	3
309	0
311	0
312	0
313	8
314	3
315	0
321	0
329	0
335	42
336	14
337	4
338	1
362	0
423	0
438	0
439	3
440	494
441	105
442	17
