Mass Spectrum: Pyrimidine-5-carboxamide, 1,2,3,4-tetrahydro-6-methyl-2-oxo-4-phenyl-N-(4-methylphenyl)-
Formula: C19H19N3O2
CAS: 331675-94-6
Molecular weight: 321
m/z	intensity
33	2
34	1
37	15
38	23
39	94
40	42
41	52
42	270
43	50
44	34
45	31
46	2
47	0
48	6
49	9
50	63
51	170
52	79
53	53
54	21
55	16
56	8
57	13
58	2
59	4
60	15
61	7
62	18
63	47
64	21
65	59
66	38
67	52
68	30
69	28
70	12
71	9
72	2
73	8
74	17
75	22
76	52
77	390
78	138
79	104
80	13
81	11
82	19
83	12
84	12
85	5
86	3
87	3
88	6
89	30
90	22
91	83
92	11
93	18
94	18
95	11
96	13
97	5
98	2
99	3
101	15
102	54
103	131
104	120
105	74
106	327
107	999
108	79
109	15
110	59
111	62
112	6
113	4
114	5
115	45
116	25
117	21
118	10
119	7
120	5
122	28
123	2
124	2
125	4
126	5
127	19
128	31
129	35
130	39
131	203
132	231
133	80
134	14
135	2
136	8
137	40
138	4
139	4
140	4
141	8
142	19
143	27
144	77
145	11
146	4
148	7
149	6
150	4
151	3
152	6
153	1
154	2
155	4
156	8
157	15
158	7
159	6
160	4
161	5
162	0
165	2
166	0
167	3
168	2
169	11
170	10
172	255
173	88
174	9
175	4
176	1
178	0
179	0
180	1
181	0
183	21
184	57
185	67
186	48
187	77
188	25
189	4
190	1
191	2
193	2
194	3
195	3
196	6
197	2
198	2
199	3
200	1
201	1
204	1
206	0
207	1
208	1
210	3
211	1
212	5
213	19
214	91
215	377
216	53
217	6
218	1
219	2
224	0
226	2
228	7
229	5
230	0
231	0
232	0
233	1
234	0
236	0
237	0
238	0
242	1
243	1
244	10
245	1
246	0
249	0
259	6
260	4
261	4
262	1
275	3
276	1
277	3
278	2
283	0
303	2
306	4
307	1
312	0
318	0
319	3
321	197
322	40
324	9
326	1
330	0
