Mass Spectrum: 4-Isopropoxy-N-(morpholinomethyl)phthalimide
Formula: C16H20N2O4
CAS: 331649-12-8
Molecular weight: 304
m/z	intensity
37	11
38	38
39	135
40	93
41	330
42	232
43	356
44	56
45	16
50	13
51	18
52	12
53	24
54	44
55	111
56	398
57	60
58	29
61	12
62	58
63	153
64	46
65	72
66	13
67	8
68	17
69	39
70	74
71	67
72	33
73	10
74	27
75	46
76	22
77	16
78	9
79	8
80	10
81	8
82	6
83	11
85	360
86	999
88	7
89	8
90	13
91	38
92	78
93	20
94	16
97	12
98	83
99	180
100	338
101	39
103	28
104	8
105	10
106	16
108	5
117	10
118	38
119	183
120	115
121	36
133	19
134	16
145	11
146	33
147	41
148	43
149	88
150	8
151	0
157	0
159	13
160	6
161	12
162	36
163	95
164	17
165	1
171	0
173	2
174	18
175	115
176	306
177	93
178	8
179	0
188	7
189	8
190	16
191	6
192	0
201	0
202	2
203	7
204	19
205	15
206	5
207	0
216	6
217	27
218	160
219	39
220	4
230	0
231	1
232	4
233	6
234	0
245	15
246	62
247	15
248	1
258	8
259	5
260	15
261	59
262	8
273	6
274	1
275	6
276	0
286	0
289	0
302	0
303	7
304	35
305	5
306	0
