Mass Spectrum: Malonodihydrazide, 2-(3-butoxy-2-hydroxypropyl)-
Formula: C10H22N4O4
CAS: 331648-87-4
Molecular weight: 262
m/z	intensity
33	261
34	104
36	22
37	20
40	260
41	966
42	182
43	551
44	579
45	125
46	6
48	14
49	5
50	32
51	49
52	43
53	114
55	712
57	999
58	59
59	100
60	26
61	24
62	8
63	17
64	18
65	26
66	12
67	26
68	59
69	140
70	66
71	100
72	44
73	35
74	15
75	7
76	7
77	25
78	12
79	14
81	59
82	37
83	79
84	55
85	92
86	68
87	155
88	9
89	6
90	5
91	48
92	8
93	6
94	9
95	19
96	43
97	107
98	37
99	84
100	112
101	146
102	13
103	12
104	7
105	11
106	12
107	9
108	16
109	22
111	217
112	50
113	240
114	31
115	20
116	8
117	7
118	19
119	4
120	4
122	6
123	17
125	138
126	14
127	36
128	38
129	19
130	9
131	7
132	7
133	3
134	4
135	4
136	2
137	5
138	19
139	62
140	58
141	25
142	39
143	84
144	11
145	13
146	2
147	1
149	7
152	1
153	5
154	6
155	13
156	29
157	189
158	18
159	4
160	6
161	0
169	5
170	9
171	10
172	2
173	5
174	16
175	20
176	1
185	1
187	2
188	1
189	1
199	13
200	0
212	5
213	11
214	1
230	21
231	95
232	7
244	9
262	1
