Mass Spectrum: Acethydrazide, 2-(2-methylphenoxy)-N2-(2,3-dihydro-5-methyl-3-indolylidene)-
Formula: C18H17N3O3
CAS: 331649-30-0
Molecular weight: 323
m/z	intensity
36	3
39	262
40	59
41	72
42	29
43	23
44	25
45	15
46	4
50	55
51	139
52	81
53	4
62	29
63	101
64	7
65	486
66	21
67	7
76	25
77	247
78	96
79	45
80	1
89	166
90	23
91	999
92	61
93	35
94	4
95	0
102	31
103	29
104	47
105	12
106	9
107	48
108	32
109	4
110	0
116	66
117	87
118	119
119	33
120	3
121	99
122	11
123	1
124	0
129	9
130	28
131	106
132	61
133	13
134	17
135	5
136	0
146	530
147	71
148	31
149	5
150	0
159	172
160	80
161	69
162	3
164	21
165	4
166	0
173	68
174	267
175	390
176	40
177	3
178	0
188	183
189	31
190	3
191	0
202	20
203	2
204	0
216	31
217	30
218	4
219	1
220	0
237	1
238	0
248	1
249	0
265	1
266	0
267	0
295	2
296	0
305	0
306	0
323	68
324	12
325	1
326	0
