Mass Spectrum: Thiazolidin-4-one, 5-benzylideno-3-(3-methylbenzoyl)-2-thioxo-
Formula: C18H13NO2S2
CAS: 331647-74-6
Molecular weight: 339
m/z	intensity
38	4
39	18
40	3
41	5
42	0
43	1
44	2
45	6
50	7
51	16
52	4
53	2
54	0
55	1
57	2
58	3
59	12
60	2
61	1
62	5
63	20
64	6
65	61
66	4
67	1
69	12
70	2
71	2
72	3
73	1
74	5
75	6
76	7
77	11
78	6
79	0
81	2
82	5
83	1
84	2
85	1
86	41
87	2
88	3
89	60
90	56
91	253
92	20
93	5
94	0
95	2
98	1
101	2
102	14
103	1
104	0
105	6
106	1
108	20
109	1
110	0
112	0
114	1
115	0
119	999
120	89
121	6
122	0
128	0
129	2
130	0
132	1
133	22
134	424
135	41
136	21
137	2
147	1
148	2
149	1
150	0
152	0
156	2
161	8
162	17
163	2
164	0
165	0
170	1
171	2
176	1
177	7
178	1
219	0
221	170
222	22
223	18
224	1
281	1
306	13
307	3
308	1
311	21
312	5
313	2
325	1
339	146
340	30
341	18
342	2
