Mass Spectrum: Furan-2-carboxylic acid, 5-bromo-, 2-oxo-2-phenylethyl ester
Formula: C13H9BrO4
CAS: 331672-66-3
Molecular weight: 308
m/z	intensity
34	0
37	9
38	42
39	11
40	2
41	2
42	2
43	1
44	1
45	0
50	14
51	54
52	3
53	7
54	1
55	0
61	0
62	1
63	3
65	16
66	16
67	1
68	0
73	0
74	3
75	2
77	225
78	14
79	2
80	0
81	0
82	2
84	0
87	0
89	2
91	27
92	2
93	2
94	4
95	1
101	0
102	0
103	3
105	999
106	78
107	5
108	0
109	0
111	0
113	0
114	0
115	1
116	1
117	24
118	24
119	25
120	1
121	0
127	0
128	0
129	0
131	0
132	0
133	1
135	0
136	0
137	0
142	0
145	3
146	0
147	3
148	0
155	0
157	0
161	0
171	0
173	53
174	3
175	50
176	3
177	0
183	0
184	0
185	0
190	0
192	0
195	0
199	0
215	0
229	3
230	0
237	0
238	0
261	0
268	0
274	0
308	26
309	4
310	24
311	3
312	0
