Mass Spectrum: 1,3-Bis[p-bromophenyl]-1,3-propanedione
Formula: C15H10Br2O2
CAS: 33170-68-2
Molecular weight: 380
m/z	intensity
41	20
42	17
43	56
44	16
45	16
50	303
51	154
52	16
53	32
55	15
59	10
62	45
63	123
64	29
65	34
66	2
69	999
70	9
71	8
73	12
74	94
75	305
76	313
77	165
78	18
79	16
81	4
82	53
83	112
86	10
87	15
89	240
90	103
91	15
93	27
97	157
99	14
100	6
101	54
102	60
103	22
104	49
105	67
106	123
107	4
111	12
117	8
118	57
119	5
120	2
121	6
129	9
131	10
136	2
137	2
146	18
147	9
148	12
150	11
151	25
152	12
154	2
155	190
157	214
158	34
163	9
164	2
165	44
166	28
167	4
168	2
169	13
170	7
171	11
175	2
176	58
177	11
178	5
180	10
181	9
182	3
183	330
185	371
186	21
194	24
196	14
198	13
211	2
222	10
223	4
224	3
225	209
226	8
227	179
228	15
301	35
302	9
303	41
304	15
365	2
379	42
380	137
381	80
382	273
383	43
384	135
385	25
