Mass Spectrum: (2-Iodo-phenyl)-carbamic acid hexyl ester
Formula: C13H18INO2
CAS: 331726-82-0
Molecular weight: 347
m/z	intensity
36	0
37	1
38	11
39	52
40	1
41	237
42	174
43	999
44	168
45	10
46	0
49	0
50	12
51	7
52	16
53	9
54	8
55	92
56	28
57	50
58	13
59	4
61	0
62	10
63	92
64	73
65	41
66	8
67	1
68	0
69	4
70	0
73	0
74	2
75	5
76	17
77	2
78	0
79	1
80	1
81	0
82	0
83	3
84	1
85	12
86	2
88	0
89	1
90	29
91	62
92	35
93	11
94	1
101	0
103	0
104	1
106	0
108	0
114	0
115	0
116	0
117	0
118	33
119	42
120	9
121	0
125	0
126	0
127	2
130	0
132	4
133	1
134	3
135	64
136	871
137	147
138	13
139	0
141	0
146	0
150	0
153	0
154	0
156	0
163	0
164	0
165	1
166	0
174	0
177	1
191	3
192	0
195	0
202	0
203	17
204	0
214	0
216	0
217	0
218	26
219	357
220	30
221	2
222	0
224	0
231	0
232	17
233	1
244	0
245	11
246	50
247	4
253	0
254	0
259	0
260	15
261	1
262	2
263	36
264	39
265	3
274	14
275	2
276	0
287	0
288	2
296	0
298	0
304	0
305	0
311	0
313	0
346	8
347	408
348	88
349	17
350	1
