Mass Spectrum: Acethydrazide, 2-(1-piperidyl)-N2-(2,3(1H)-dihydro-2-oxoindol-3-ylideno)-
Formula: C15H18N4O2
CAS: 331737-90-7
Molecular weight: 286
m/z	intensity
33	0
34	0
37	2
38	6
39	24
41	115
42	96
43	24
44	34
45	2
47	0
48	0
49	1
50	11
51	18
52	7
53	8
54	11
55	65
56	21
57	8
58	1
59	0
60	0
61	1
62	4
63	9
64	8
65	5
66	2
67	6
68	12
69	33
70	30
71	2
72	0
74	4
75	8
76	21
77	34
78	7
79	1
80	2
81	1
82	6
84	114
85	6
86	1
87	0
88	1
89	4
90	16
91	6
92	5
93	1
94	2
96	37
98	999
99	58
100	2
102	10
103	9
104	21
105	5
106	0
108	0
109	0
111	1
112	1
113	0
114	0
116	4
117	13
118	6
119	5
120	0
121	0
122	0
123	0
124	3
125	1
126	0
127	0
128	0
129	0
131	3
132	10
133	2
134	0
137	0
139	22
140	15
141	10
142	1
144	3
145	7
146	3
147	4
148	0
149	0
152	0
153	0
154	0
157	0
158	0
160	2
161	4
162	0
167	0
169	0
171	0
172	0
174	1
175	1
182	0
184	0
188	0
198	0
199	0
200	0
201	0
202	0
203	1
213	0
228	0
243	2
244	0
269	0
282	0
284	0
285	0
286	5
287	0
