Mass Spectrum: Acetamide, 2-(1-piperidyl)-N-(2-methyl-5-nitrophenyl)-
Formula: C14H19N3O3
CAS: 331845-58-0
Molecular weight: 277
m/z	intensity
33	0
34	0
36	0
37	1
38	4
39	35
40	21
41	145
42	140
43	42
44	52
45	5
46	1
48	0
50	7
51	18
52	14
53	9
54	13
55	77
56	27
57	10
58	1
59	0
60	0
61	0
62	2
63	9
64	4
65	10
66	4
67	6
68	11
69	29
70	39
71	3
72	0
73	0
74	1
75	2
76	4
77	23
78	17
79	6
80	2
81	2
82	4
83	6
84	47
85	3
86	0
87	0
89	14
90	8
91	4
92	2
93	11
94	3
96	33
98	999
99	65
100	8
101	1
102	1
103	2
104	17
105	10
106	6
107	2
108	0
109	0
110	0
111	0
112	0
113	0
114	0
115	0
116	1
117	1
118	3
119	2
120	1
121	0
122	0
123	0
124	1
125	0
126	0
127	0
128	0
129	0
130	0
131	0
132	1
133	2
134	1
135	0
136	0
137	0
139	0
140	0
141	0
142	0
143	0
144	0
145	0
146	2
147	1
148	0
149	1
150	0
151	0
152	3
153	0
154	0
157	0
158	0
159	0
160	0
161	0
162	0
163	0
164	0
165	1
168	0
170	0
171	1
172	0
173	0
174	0
176	0
177	0
178	0
179	1
180	0
181	0
187	0
189	0
190	0
191	0
202	0
203	0
207	0
246	0
247	0
275	0
276	1
277	3
278	0
