Mass Spectrum: 4-Bromo-2-([(4-chlorophenyl)imino]methyl)-6-iodophenol
Formula: C13H8BrClINO
CAS: 331820-45-2
Molecular weight: 435
m/z	intensity
33	46
34	6
36	63
37	77
38	102
39	123
40	64
41	18
43	78
44	43
45	21
46	6
47	5
50	331
51	136
53	129
54	9
55	12
56	9
57	9
58	8
61	138
62	213
63	323
64	71
65	30
66	8
67	6
69	119
75	999
76	103
77	71
78	15
80	28
83	335
85	66
86	28
87	63
88	59
89	59
90	57
91	45
92	19
93	4
95	5
97	32
98	22
99	67
101	157
102	31
103	9
104	7
105	3
106	4
107	2
108	6
111	613
112	87
113	178
114	40
115	23
116	18
117	18
118	9
119	9
120	1
122	52
124	43
125	10
127	117
128	53
129	9
130	4
131	3
133	2
135	3
138	405
139	149
140	147
141	46
143	61
145	35
146	20
147	14
148	8
149	9
150	7
151	14
152	9
154	88
155	67
156	31
157	3
160	3
161	2
162	5
164	88
166	261
167	29
168	11
169	12
170	21
171	21
172	14
173	34
174	12
175	15
176	9
177	7
178	8
180	18
181	9
182	8
183	3
184	4
185	3
186	2
188	3
189	4
190	4
191	2
192	8
193	13
194	18
195	8
197	49
198	18
199	43
200	52
201	151
202	30
203	40
204	5
205	1
211	2
212	2
214	1
217	19
219	22
220	2
228	37
229	48
230	15
231	16
232	2
243	2
244	6
245	24
246	8
247	17
248	3
250	1
253	1
255	2
269	1
271	1
272	2
273	9
274	4
275	6
276	1
279	7
281	15
282	4
283	4
290	2
291	8
292	6
293	11
294	4
295	4
296	1
298	11
300	9
306	2
307	16
308	15
309	32
310	18
311	23
312	6
313	4
320	2
321	9
322	9
324	35
325	12
326	29
327	3
328	2
355	2
356	5
357	2
358	1
389	1
399	1
400	8
401	3
402	7
403	1
418	5
419	2
420	7
421	3
422	1
428	2
429	6
430	8
431	12
433	164
435	421
436	185
437	507
438	101
439	116
440	15
441	1
