Mass Spectrum: 2,2'-Thiobis(acetamide), N-cyclopropyl-N'-(2-naphthyl)-
Formula: C17H18N2O2S
CAS: 331850-70-5
Molecular weight: 314
m/z	intensity
33	13
34	12
35	13
36	1
38	25
39	97
40	167
41	184
42	84
43	104
44	174
45	81
46	83
47	72
48	8
49	4
50	21
51	38
52	20
53	14
54	35
56	431
57	312
59	122
60	37
61	47
62	29
63	71
64	28
65	47
66	9
67	5
68	36
69	56
70	146
71	20
72	6
74	30
75	39
76	29
77	73
78	41
79	12
80	13
81	12
82	10
84	134
85	14
87	90
88	45
89	92
90	17
91	30
92	16
93	17
94	5
95	6
98	695
99	161
101	45
102	28
103	11
104	8
105	19
106	65
107	6
109	18
110	1
111	3
113	78
115	999
116	156
117	19
118	6
119	10
120	10
121	5
123	2
124	9
126	74
127	200
128	107
129	91
130	34
131	5
132	3
135	5
136	1
138	7
140	130
141	202
142	266
143	952
144	164
145	21
146	7
147	22
148	6
149	6
151	1
152	5
153	11
154	50
156	756
157	93
158	7
159	5
160	3
165	3
166	8
167	40
168	24
169	66
170	18
171	31
172	18
173	43
174	100
175	14
176	4
180	3
181	8
182	68
183	55
184	107
185	311
186	51
188	43
189	4
194	1
195	2
196	4
198	1
200	1
202	7
214	1
215	8
217	225
218	31
219	9
220	1
228	1
230	120
231	36
232	7
256	2
257	17
258	33
259	5
284	1
303	6
304	6
311	2
313	21
314	191
315	35
316	10
