Mass Spectrum: Piperazine, 1-(4-chloro-3-nitrobenzyl)-4-(3-trifluoromethylphenyl)-
Formula: C18H17ClF3N3O2
CAS: 331855-93-7
Molecular weight: 399
m/z	intensity
33	5
34	8
35	8
36	38
37	7
38	24
39	71
40	73
41	114
42	319
43	89
44	277
45	934
46	497
47	11
48	3
49	4
50	29
51	53
52	18
53	13
54	75
55	204
56	999
57	78
58	22
59	2
60	3
61	6
62	30
63	94
64	18
65	16
66	5
67	8
68	11
69	28
70	52
71	19
72	6
73	22
74	15
75	51
76	24
77	76
78	18
79	6
80	6
81	11
82	8
83	16
84	14
85	8
86	9
87	14
89	351
90	44
91	27
92	8
93	5
94	5
95	39
96	14
97	15
98	5
99	11
100	4
101	10
102	14
103	12
104	17
105	12
106	7
107	8
108	4
109	20
110	8
111	13
112	30
113	12
114	20
115	9
116	13
117	28
118	9
119	13
120	6
121	5
122	8
123	33
124	208
125	58
126	87
127	47
128	17
129	4
130	14
131	11
132	9
133	9
134	4
135	2
136	2
137	3
138	6
139	9
140	26
141	24
142	14
143	14
145	219
146	20
147	2
148	2
149	6
150	5
151	13
152	14
153	10
154	37
155	10
156	9
157	4
158	5
159	87
160	12
161	10
162	2
163	1
164	5
165	5
166	13
167	10
168	18
170	322
171	48
172	329
173	298
174	679
175	65
176	4
177	1
179	20
180	14
181	25
182	15
183	29
184	7
185	14
186	14
187	42
188	67
189	13
190	0
191	2
192	1
193	3
194	1
195	5
197	22
198	79
199	28
200	101
201	34
202	43
203	4
207	1
208	4
209	25
210	9
211	13
212	3
213	11
214	3
215	6
216	0
223	1
225	75
226	15
227	42
228	23
229	149
230	21
231	0
239	0
240	1
242	2
243	12
244	1
258	1
352	2
353	1
369	2
370	0
371	2
380	6
381	1
382	3
384	2
385	0
386	0
394	0
395	0
397	1
398	8
399	76
400	19
401	25
402	4
