Mass Spectrum: 6H-1,2,5-Oxadiazolo[3,4-E]indole-6,8a-diol, 4,5,5a,7,8,8a-hexahydro-, 3-oxide
Formula: C8H11N3O4
CAS: 331853-25-9
Molecular weight: 213
m/z	intensity
33	3
34	1
35	1
36	5
37	32
38	107
39	421
40	148
41	521
42	352
43	284
44	127
45	61
46	142
47	4
50	79
51	191
52	195
53	404
54	419
55	999
56	213
57	95
58	43
59	41
60	18
61	15
62	24
63	73
64	51
65	217
66	243
67	218
68	209
69	96
70	91
72	341
73	58
74	13
75	12
76	15
77	94
78	71
79	140
80	183
81	161
82	120
83	57
84	152
85	38
86	18
87	10
88	8
89	14
90	11
91	35
92	80
93	149
94	111
95	108
96	92
97	77
98	37
99	15
100	55
101	14
102	3
103	3
104	13
105	26
106	49
107	64
108	95
109	78
110	63
111	38
112	18
113	21
114	12
115	11
116	3
117	8
118	14
119	27
120	30
121	40
122	26
123	45
124	147
125	31
126	63
127	25
128	9
129	2
130	1
131	3
132	4
133	6
134	26
135	21
136	48
137	24
138	59
139	23
140	17
141	35
142	5
143	4
144	1
145	0
146	1
147	6
148	11
149	78
150	18
151	145
152	22
153	16
154	6
155	4
156	1
157	1
158	0
159	0
160	0
161	1
162	6
163	2
164	9
165	41
166	31
167	6
168	5
169	6
170	0
171	3
172	0
173	0
174	0
175	0
176	0
177	1
178	6
179	11
180	8
181	3
182	4
183	22
184	2
185	0
192	0
194	1
196	137
197	19
198	2
199	0
211	0
213	67
214	6
215	1
216	0
217	0
