Mass Spectrum: (4-Chlorobenzyl)-(1-methyl-1H-tetrazol-5-yl)-amine
Formula: C9H10ClN5
CAS: 331851-56-0
Molecular weight: 223
m/z	intensity
49	13
50	75
51	77
52	16
53	29
55	49
56	43
57	265
58	18
61	17
62	38
63	116
64	29
65	28
70	3
73	43
74	28
75	80
76	24
77	57
78	11
79	4
89	191
90	81
91	37
99	70
100	7
101	24
102	19
103	9
104	13
105	19
106	5
111	33
112	31
113	17
114	11
115	5
116	16
117	5
125	999
126	104
127	333
128	34
129	2
137	24
138	129
139	105
140	204
141	44
142	52
143	4
165	17
166	97
167	27
168	34
169	11
194	24
195	5
220	14
221	2
222	16
223	86
224	13
225	28
226	3
