Mass Spectrum: 1,3,5-Triazine, 2-tert-butylamino-4-chloro-6-(1-piperidyl)-
Formula: C12H20ClN5
CAS: 331857-77-3
Molecular weight: 269
m/z	intensity
33	0
34	1
35	5
36	17
37	5
39	293
40	103
41	999
42	416
43	267
44	32
45	2
49	3
50	5
51	14
52	17
53	115
54	131
55	708
56	272
57	210
58	33
59	1
60	0
62	94
64	34
65	16
66	21
67	129
68	384
69	276
70	48
71	6
72	1
73	1
75	12
76	5
77	6
78	16
79	24
80	93
81	100
82	95
83	282
84	575
85	32
87	66
88	14
89	23
91	76
92	27
93	101
94	57
95	51
96	18
97	16
98	8
100	29
101	7
102	8
103	13
104	69
105	118
107	133
108	68
109	83
110	33
111	377
112	56
114	15
115	4
116	11
117	11
118	7
119	79
121	36
122	16
123	23
124	9
125	3
127	101
128	31
129	37
130	122
131	36
132	42
133	13
134	21
135	19
136	76
137	23
138	3
139	0
141	2
142	8
143	12
144	36
145	18
146	35
147	8
148	18
149	11
150	16
151	23
153	1
155	11
156	8
157	43
158	129
159	56
160	47
161	18
162	10
163	6
164	2
165	2
166	0
167	0
168	9
169	15
170	109
171	76
172	100
173	28
174	22
176	18
177	23
178	154
179	27
180	3
181	2
182	5
184	242
185	82
186	120
187	29
188	17
189	2
190	2
191	3
192	1
193	1
194	2
196	15
198	146
199	24
200	53
201	11
202	4
203	2
204	1
205	2
206	3
207	7
208	2
210	12
211	11
212	212
213	773
214	182
215	226
216	38
217	4
218	4
219	5
220	6
221	2
224	4
226	26
227	18
228	13
229	6
230	2
231	0
233	13
234	9
235	9
236	2
237	1
238	3
240	43
241	12
242	14
243	4
244	1
247	2
248	0
249	1
250	2
252	20
254	590
255	84
256	178
257	25
258	1
259	0
261	7
262	31
263	8
264	1
266	1
268	40
269	310
270	55
271	100
272	14
273	1
275	2
276	1
