Mass Spectrum: 2-Pyrazolin-5-ol, 3-(trifluoromethyl)-5-(3-nitrophenyl)-1-(4-pyridylcarbonyl)-
Formula: C16H11F3N4O4
CAS: 331865-32-8
Molecular weight: 380
m/z	intensity
33	3
34	0
36	0
37	1
38	4
39	9
40	6
41	2
42	3
43	3
44	3
45	1
46	1
47	0
50	64
51	175
52	17
53	6
54	1
55	1
56	1
57	1
58	0
60	0
62	9
63	14
64	5
65	5
66	1
67	1
69	13
70	3
71	0
74	11
75	22
76	39
78	485
79	26
81	0
82	0
83	1
84	0
85	0
86	2
87	3
88	5
89	8
90	4
91	5
92	2
93	1
95	1
96	0
97	0
98	1
99	1
100	1
101	12
102	37
103	43
104	18
106	999
107	65
108	3
109	0
110	0
111	0
112	0
113	1
114	1
115	1
116	2
117	2
118	2
119	4
120	2
121	3
122	1
123	1
124	0
125	0
126	1
127	0
129	2
130	2
131	6
132	3
133	2
134	0
135	1
136	0
137	0
138	0
139	0
140	0
141	0
142	0
143	1
144	1
145	0
146	1
147	1
148	6
149	5
150	5
151	5
152	1
153	0
154	0
157	0
159	1
160	3
161	0
162	0
163	0
164	0
165	0
167	0
169	0
171	1
173	0
175	0
176	1
177	0
178	0
179	0
180	0
181	0
182	0
188	0
189	0
190	0
191	1
192	2
193	0
194	0
197	0
198	0
199	1
204	0
205	0
206	2
207	0
211	0
212	0
223	0
227	0
228	0
229	0
234	0
235	0
236	0
239	0
257	0
269	1
274	0
275	0
310	0
311	3
312	0
361	0
375	0
377	1
378	3
380	21
381	3
382	0
