Mass Spectrum: [5-Hydroxy-5-(3-methoxyphenyl)-3-trifluoromethyl-4,5-dihydropyrazol-1-yl]-(pyridin-4-yl)methanone
Formula: C17H14F3N3O3
CAS: 331865-39-5
Molecular weight: 365
m/z	intensity
46	3
48	1
49	1
50	6
51	68
52	176
53	37
54	18
55	11
56	4
63	39
64	37
65	21
69	61
70	4
74	12
75	27
76	38
77	93
78	513
79	53
80	4
89	21
90	29
91	39
92	43
93	9
102	20
103	36
104	58
105	23
106	999
107	124
108	15
109	7
122	33
123	68
124	19
125	7
126	2
132	14
133	55
134	28
135	143
136	14
137	4
150	10
151	20
152	13
164	7
165	4
169	16
170	7
176	22
177	7
178	3
199	19
242	82
243	24
244	11
245	9
251	33
252	9
253	8
254	78
255	13
259	9
296	36
297	8
298	1
318	5
334	3
347	51
348	11
349	6
365	131
366	24
367	6
