Mass Spectrum: Diethyl-(6-m-tolyloxy-hexyl)-amine
Formula: C17H29NO
CAS: 331857-95-5
Molecular weight: 263
m/z	intensity
35	0
36	0
37	0
38	1
39	14
40	3
41	53
42	37
43	14
44	24
45	0
46	1
47	0
49	0
50	1
51	3
52	2
53	7
54	4
55	55
56	38
57	15
58	87
59	3
60	0
61	0
62	0
63	2
64	1
65	14
66	1
67	3
68	2
69	4
70	9
71	8
72	75
73	7
74	4
75	0
76	0
77	18
78	4
79	15
80	4
81	6
82	2
83	6
84	16
86	999
87	64
88	1
89	3
90	4
91	31
92	2
93	4
94	1
95	0
96	1
97	0
98	6
99	1
100	1
101	0
102	0
103	0
104	0
105	1
107	13
108	17
109	6
110	1
111	0
112	14
113	1
114	0
115	0
117	0
118	0
119	1
121	11
122	1
124	4
126	2
127	0
128	1
129	0
130	0
131	0
132	0
133	0
134	0
135	0
136	0
137	0
138	0
139	0
140	3
141	0
142	2
143	1
144	0
145	0
146	0
147	0
148	0
149	0
150	0
151	0
152	0
153	0
154	2
156	67
157	7
158	0
162	0
170	0
172	0
173	0
188	0
190	4
191	0
199	0
218	0
232	0
233	0
234	1
235	0
241	0
243	0
245	0
246	3
248	22
249	4
250	0
260	0
261	0
262	4
263	2
264	0
