Mass Spectrum: Pyrido[3,4-b]indole, 1,2,3,4-tetrahydro-2-acetyl-1-(2-methoxyphenyl)-
Formula: C20H20N2O2
CAS: 331859-97-3
Molecular weight: 320
m/z	intensity
35	13
36	5
37	8
38	18
39	83
40	21
41	28
43	999
44	22
47	19
48	10
49	11
50	49
51	105
52	59
53	20
54	18
55	12
56	15
57	6
61	2
62	17
63	71
64	32
65	53
66	12
67	4
68	2
69	5
70	5
71	4
72	3
73	6
74	14
75	43
76	55
77	155
78	43
79	52
80	5
81	4
83	71
85	35
86	5
87	18
88	29
89	77
90	44
91	98
92	25
93	16
94	10
95	29
97	3
98	3
99	5
100	7
101	39
102	84
103	52
104	20
105	13
106	6
107	31
108	58
110	6
111	2
112	3
113	21
114	36
115	173
116	69
117	68
118	32
119	15
120	11
121	45
122	17
123	10
124	7
125	6
126	11
127	35
128	61
129	36
130	86
131	27
132	11
133	7
134	28
135	16
136	7
137	7
139	64
140	51
141	25
142	70
143	242
144	445
145	61
146	9
147	1
148	3
149	3
150	10
151	23
152	25
153	13
154	51
155	28
156	36
157	25
158	8
159	3
160	22
161	3
162	3
163	11
164	14
165	21
166	18
167	37
168	43
169	220
170	130
171	261
172	35
173	2
174	2
175	5
176	24
177	21
178	40
179	18
180	17
181	5
182	2
183	2
184	4
185	2
186	4
187	6
188	8
189	33
190	34
191	46
192	15
193	8
194	3
195	2
197	3
199	6
200	3
201	8
202	19
203	42
204	197
205	88
206	69
207	15
208	3
211	13
212	11
213	121
214	35
215	30
216	89
217	237
218	298
219	89
220	68
221	14
222	3
227	3
228	8
229	13
230	104
231	43
232	53
233	90
234	95
235	27
236	9
237	1
240	2
241	5
242	10
243	20
244	19
245	48
246	125
247	146
248	162
249	92
250	39
251	7
255	2
256	1
257	4
258	6
259	20
260	93
261	283
262	135
263	52
264	9
271	3
272	2
273	6
274	8
275	35
277	659
278	139
279	18
280	1
287	7
289	113
290	25
291	7
292	1
303	6
304	3
305	15
306	6
316	3
319	58
320	623
321	140
322	17
323	1
