Mass Spectrum: Piperidine-3-carboxamide, 1-(2-fluorobenzyl)-
Formula: C13H17FN2O
CAS: 331860-18-5
Molecular weight: 236
m/z	intensity
38	4
39	39
40	18
41	50
42	47
43	34
44	123
45	213
46	12
50	4
51	15
52	8
53	18
54	25
55	85
56	57
57	27
59	135
60	50
62	9
63	19
64	4
65	6
67	8
68	24
69	13
70	21
72	43
74	3
75	6
77	6
79	4
80	17
81	27
82	95
83	145
84	85
85	7
86	5
89	15
90	10
91	6
94	8
96	20
97	13
98	21
99	10
100	10
101	4
104	17
105	7
107	52
109	999
110	171
111	12
112	5
113	4
114	10
118	6
121	4
122	30
123	13
124	36
127	390
128	45
133	3
135	19
136	46
137	36
138	30
140	22
141	27
142	91
143	7
145	3
146	9
147	4
148	7
149	19
150	79
151	17
152	7
156	14
162	21
164	160
165	8
172	5
173	3
176	33
177	10
178	7
188	5
190	88
191	84
192	221
193	50
194	8
206	4
207	12
208	9
216	6
218	18
219	20
220	20
221	3
222	4
236	259
237	45
238	4
