Mass Spectrum: Propenone, 3-(4-bromophenyl)-1-(benzo[b]-1,4-dioxan-6-yl)-
Formula: C17H13BrO3
CAS: 331862-78-3
Molecular weight: 344
m/z	intensity
33	17
34	8
35	0
37	14
38	56
39	135
40	130
41	26
43	108
44	67
45	11
46	0
50	481
51	999
52	184
53	103
55	91
56	9
57	15
58	0
62	122
63	269
64	37
65	21
66	10
67	11
68	4
69	22
70	11
71	6
74	214
75	356
76	368
77	202
79	467
80	73
81	39
82	62
83	48
84	5
85	4
86	13
87	27
88	20
89	28
91	59
92	55
93	11
94	3
95	6
96	12
97	17
98	27
99	21
101	255
102	925
103	83
104	18
105	32
107	490
108	36
109	12
110	8
111	41
112	8
113	11
114	12
115	13
116	3
117	6
119	49
120	42
121	8
122	3
123	4
125	146
126	44
127	40
128	15
129	13
130	51
131	14
133	142
135	249
136	81
137	18
138	8
139	19
140	5
141	2
142	1
143	3
145	3
146	1
147	1
149	11
150	26
151	75
152	259
153	209
154	35
155	29
157	22
158	5
159	2
160	14
161	24
163	882
164	101
165	75
166	14
167	4
168	4
169	2
171	9
172	2
173	4
174	1
175	2
176	11
177	12
178	16
180	77
181	390
182	101
183	81
184	7
185	1
186	2
188	52
189	30
190	4
191	5
192	11
193	29
194	18
195	5
196	1
201	0
203	0
204	1
205	6
206	8
207	15
209	196
211	125
212	8
213	0
214	0
217	0
219	4
220	2
221	11
222	3
223	22
224	3
229	0
230	1
231	1
232	17
233	6
234	17
235	9
236	38
237	46
238	9
239	2
243	5
244	1
245	6
246	3
248	3
249	0
256	1
258	1
259	13
260	36
261	14
262	38
263	8
265	180
266	28
267	3
271	1
272	4
273	2
274	3
275	0
276	0
284	9
285	9
286	10
287	18
288	80
289	19
290	77
291	12
292	0
299	0
300	2
301	8
302	2
303	8
304	1
305	1
311	1
312	1
313	7
315	14
316	97
317	18
318	89
319	15
320	1
327	9
329	8
330	0
331	0
337	0
338	2
339	4
340	15
342	21
343	169
344	539
345	237
346	525
347	78
348	8
349	0
