Mass Spectrum: (3-Iodo-4-methoxy-phenyl)-morpholin-4-yl-methanethione
Formula: C12H14INO2S
CAS: 331844-98-5
Molecular weight: 363
m/z	intensity
34	21
39	44
40	44
41	115
42	49
43	466
44	113
45	170
50	27
51	29
53	34
54	25
55	63
56	68
57	69
58	41
59	24
60	25
61	22
62	38
63	138
64	999
65	40
66	94
69	103
70	53
71	274
72	34
74	24
75	30
76	51
77	58
81	26
82	30
83	25
84	23
86	200
87	20
89	35
90	27
91	29
93	19
94	32
95	29
96	282
97	24
98	45
102	28
103	69
104	39
105	20
106	20
107	78
108	44
112	25
117	48
118	65
119	57
120	198
121	214
122	36
123	23
127	36
128	504
129	31
130	106
132	34
134	22
135	107
136	36
147	31
148	24
149	63
151	33
160	319
161	22
162	96
163	25
164	20
171	43
173	19
178	20
192	254
194	72
205	19
234	44
236	106
247	27
256	336
257	26
258	127
259	44
260	264
261	32
262	47
277	430
278	126
279	31
286	40
302	31
320	78
321	23
330	139
331	23
332	44
359	41
362	391
363	729
364	125
365	42
