Mass Spectrum: 2,4-Pentanedione, 1-phenyl-
Formula: C11H12O2
CAS: 3318-61-4
Molecular weight: 176
m/z	intensity
15	2
26	1
27	2
29	11
31	7
38	7
39	53
40	1
41	26
42	21
43	287
44	6
45	2
50	12
51	31
52	9
53	1
55	13
57	2
61	2
62	16
63	51
64	13
65	131
66	10
67	2
69	22
70	1
74	5
75	4
76	3
77	6
78	4
84	3
85	999
86	49
87	9
88	2
89	51
90	32
91	368
92	138
93	10
102	2
103	8
104	1
115	16
118	267
119	26
120	1
127	1
128	3
131	4
132	1
133	3
143	1
161	3
176	90
177	15
178	1
