Mass Spectrum: Piperazine, 1-(2-ethoxyphenyl)-4-(5-nitro-2-furfuryl)-
Formula: C17H21N3O4
CAS: 331854-85-4
Molecular weight: 331
m/z	intensity
33	3
34	3
35	4
36	19
37	11
38	48
39	200
40	95
41	180
42	530
43	115
44	268
45	999
46	511
47	9
48	2
49	4
50	62
51	208
52	415
53	107
54	113
55	101
56	760
57	89
58	177
60	9
61	3
62	9
63	53
64	63
65	324
66	73
67	51
68	87
69	27
70	107
71	14
72	20
73	3
74	5
75	9
76	24
77	240
78	102
79	150
80	105
81	51
82	30
83	16
84	34
85	9
86	112
87	8
88	2
89	10
90	18
91	120
92	102
93	154
94	53
95	38
96	31
97	12
98	4
99	3
100	1
101	2
102	9
103	17
104	68
105	44
106	94
107	104
108	87
109	26
110	14
111	3
112	2
113	1
114	4
115	5
116	8
117	26
118	38
119	106
120	713
121	120
122	284
123	30
124	6
126	89
127	10
128	11
130	19
131	24
132	54
133	54
134	426
135	132
136	58
137	15
138	3
139	1
140	1
141	0
142	1
143	2
144	5
145	9
146	53
147	31
148	182
149	173
150	934
151	101
152	9
153	3
154	2
155	1
156	1
157	4
158	4
159	7
160	20
161	25
162	95
163	41
164	298
165	52
166	4
167	1
168	1
169	3
170	1
171	4
172	2
173	5
174	11
175	33
176	94
177	19
178	8
179	1
181	8
182	8
183	16
184	2
185	1
186	0
187	2
188	2
189	13
190	10
191	9
192	2
193	0
195	2
196	2
197	0
198	1
199	0
200	0
201	2
202	3
203	20
204	106
205	116
206	91
207	12
208	1
210	0
211	0
213	0
214	0
215	0
217	14
218	4
219	53
220	9
221	0
225	0
227	0
232	0
233	0
234	1
236	0
237	0
239	0
241	0
242	0
243	0
254	0
255	1
256	1
257	1
258	0
266	0
267	1
268	2
269	0
270	1
282	0
283	1
284	3
285	50
286	12
287	1
296	1
297	1
298	1
299	3
300	1
301	2
302	4
303	22
304	4
312	0
314	51
315	10
316	4
317	0
326	0
327	2
328	2
329	3
331	263
332	47
333	6
334	0
