Mass Spectrum: Pyrido[3,4-b]indole, 1,2,3,4-tetrahydro-2-acetyl-1-(3-hydroxyphenyl)-
Formula: C19H18N2O2
CAS: 331859-99-5
Molecular weight: 306
m/z	intensity
36	3
37	7
38	24
39	132
40	23
41	32
43	999
44	27
49	7
50	48
51	89
52	75
53	29
54	20
55	23
56	15
57	6
58	1
60	1
61	3
62	17
63	71
64	32
65	86
66	16
67	6
68	5
69	7
70	4
71	3
72	4
73	26
74	16
75	39
76	43
77	98
78	30
79	56
80	5
81	5
82	4
83	10
84	3
86	6
87	12
88	25
89	57
90	31
91	37
92	11
93	23
94	13
95	9
96	9
97	3
98	2
99	3
100	5
101	30
102	56
103	34
104	12
105	7
106	4
107	33
108	18
110	10
111	4
113	21
114	31
115	141
116	53
117	59
118	29
119	9
120	50
121	12
122	8
123	4
124	4
125	4
126	9
127	30
128	44
129	28
130	47
131	31
132	21
133	6
134	6
135	2
136	2
137	3
138	5
139	18
140	41
141	23
142	47
143	95
144	297
145	34
146	24
147	4
148	1
149	2
150	7
151	16
152	22
153	14
154	41
155	26
156	27
157	15
158	4
159	1
161	0
162	1
163	8
164	9
165	14
166	15
167	31
168	30
169	121
170	55
171	241
172	31
173	3
175	3
176	18
177	16
178	24
179	14
180	31
181	8
182	2
183	1
184	3
185	1
186	3
187	3
188	5
189	20
190	21
191	42
192	18
193	9
194	5
195	2
196	1
197	1
199	2
200	1
201	5
202	12
203	32
204	141
205	66
206	79
207	21
208	5
209	5
210	1
211	3
213	119
214	24
215	17
216	55
217	96
218	118
219	40
220	39
221	12
222	7
223	1
227	1
228	3
229	6
230	25
231	13
232	28
233	92
234	263
235	119
236	34
237	6
238	1
242	2
243	5
244	4
245	13
246	116
247	269
248	132
249	28
250	4
251	11
252	1
254	2
256	0
257	0
258	1
259	9
260	13
261	66
262	39
263	226
264	55
265	8
266	1
269	1
271	1
273	6
274	1
276	0
277	3
278	1
286	1
287	30
288	72
289	23
290	5
291	8
292	2
303	1
305	39
306	306
307	66
308	7
