Mass Spectrum: 1-(5-Hydroxy-3-methyl-5-phenyl-4,5-dihydro-pyrazol-1-yl)-3-phenyl-propan-1-one
Formula: C19H20N2O2
CAS: 331834-93-6
Molecular weight: 308
m/z	intensity
38	4
39	56
40	14
41	65
42	41
43	22
44	12
45	2
50	22
51	96
52	21
53	13
54	12
55	28
56	20
57	16
58	3
59	6
62	4
63	20
64	7
65	71
66	6
67	3
68	3
69	11
70	11
71	12
72	3
73	9
74	5
75	9
76	20
77	350
78	73
79	66
80	4
82	3
83	7
84	5
85	2
89	15
90	13
91	376
92	35
93	3
98	4
99	41
100	2
101	2
102	11
103	59
104	102
105	999
106	88
107	9
115	18
116	5
117	12
118	7
119	5
120	12
121	2
122	6
127	8
128	16
129	18
130	18
131	27
132	10
133	9
134	14
143	2
144	7
145	8
146	11
147	5
148	49
149	6
157	17
158	122
159	303
160	51
161	43
162	8
171	9
174	4
175	19
176	74
177	13
178	3
185	2
186	3
187	2
188	7
189	113
190	14
203	17
204	2
261	5
262	35
263	7
264	3
289	15
290	39
291	9
293	9
308	78
309	16
310	2
