Mass Spectrum: Ethanedicarboxamide, N-allyl-N'-(2,5-dimethylphenyl)-
Formula: C13H16N2O2
CAS: 331864-72-3
Molecular weight: 232
m/z	intensity
34	22
39	360
40	999
41	837
42	140
43	64
44	320
51	58
52	19
53	28
54	13
55	45
56	361
57	469
58	91
63	6
65	60
77	306
78	55
79	153
84	85
91	154
92	8
93	17
103	63
104	20
105	338
106	184
118	49
119	88
120	425
121	467
122	30
132	39
146	5
147	378
148	390
149	30
204	58
232	182
233	3
