Mass Spectrum: 1'-(4-Iodo-phenyl)-[1,3']bipyrrolidinyl-2',5'-dione
Formula: C14H15IN2O2
CAS: 331966-73-5
Molecular weight: 370
m/z	intensity
37	1
38	3
39	23
40	8
41	62
42	49
43	16
44	1
50	7
51	3
52	3
53	8
54	59
55	73
56	15
57	1
61	1
62	7
63	35
64	18
65	4
66	1
67	12
68	44
69	219
70	667
71	26
72	1
74	7
75	7
76	21
77	6
78	2
79	5
80	6
81	4
82	22
83	6
84	0
86	1
87	3
88	5
89	10
90	155
91	19
92	6
93	6
94	21
96	320
97	999
98	65
99	2
102	5
103	3
104	4
105	2
106	8
108	9
109	0
110	3
111	1
112	0
114	0
115	1
116	14
117	10
118	59
119	16
120	4
121	1
122	3
124	118
125	14
127	23
128	13
129	2
130	1
131	1
132	9
133	10
134	1
136	0
139	0
140	0
141	0
142	0
143	1
144	6
145	7
146	25
147	3
149	0
152	0
153	0
156	0
157	0
158	1
159	1
160	0
164	1
165	1
166	0
167	2
168	0
170	1
171	2
172	4
173	3
174	15
175	2
176	0
177	0
181	0
185	1
186	0
187	1
188	0
189	0
190	0
191	2
200	0
201	0
203	21
204	1
211	0
213	0
214	0
215	2
216	2
217	5
218	10
219	36
220	2
229	5
230	7
231	3
232	0
241	0
242	6
243	3
245	121
246	16
247	1
254	0
255	3
256	0
257	0
258	1
259	0
270	0
271	1
272	7
273	31
274	3
289	0
299	31
301	144
302	13
303	1
312	0
327	0
339	2
340	0
341	0
342	0
343	0
366	0
368	9
369	16
370	55
371	9
372	0
