Mass Spectrum: Propanoic acid, 3-amino-2-[1,2,3,4-tetrahydro-3-[2-(4-methylphenyl)-2-oxoethylideno]-2-quinoxalinylideno]-3-oxo-, ethyl ester
Formula: C22H21N3O4
CAS: 331958-16-8
Molecular weight: 391
m/z	intensity
41	2
43	2
44	21
45	3
51	2
55	3
59	1
63	7
65	34
69	2
73	1
74	1
76	5
77	10
79	2
87	1
89	17
91	253
92	7
93	1
102	23
103	12
104	5
105	1
114	7
115	16
117	15
119	999
120	32
122	5
128	10
129	22
130	7
131	2
132	3
135	0
137	1
139	5
140	1
141	5
143	13
144	9
152	1
153	3
154	3
155	59
156	18
157	6
170	10
171	10
172	4
173	1
181	2
183	6
184	19
185	3
190	0
191	0
192	0
198	11
199	23
200	17
201	18
204	2
205	2
207	2
208	8
209	10
210	18
211	13
212	15
218	6
219	3
226	45
227	13
228	5
229	14
230	15
231	18
232	11
233	2
237	1
242	3
243	5
244	35
245	50
246	15
247	2
255	8
256	10
257	11
258	28
259	10
261	59
262	12
269	2
272	503
273	103
274	36
275	45
276	8
277	2
284	4
285	3
290	1
291	0
299	1
300	9
301	30
302	11
303	3
312	0
317	1
318	37
319	11
320	12
321	1
327	7
328	12
329	9
330	1
344	1
345	7
347	89
348	35
349	7
361	1
362	28
363	166
364	39
365	1
374	1
387	1
389	3
390	8
391	130
392	35
393	4
