Mass Spectrum: Pyrano[3,2-c]pyrane-3-carbonitrile, 4,5-dihydro-2-amino-7-methyl-5-oxo-spiro-4,3'-(2,3-dihydro-2-oxoindole)-
Formula: C17H11N3O4
CAS: 331950-46-0
Molecular weight: 321
m/z	intensity
33	0
34	1
36	3
37	18
38	49
39	125
40	40
41	41
43	999
44	212
45	8
49	4
50	51
51	68
52	61
53	32
54	10
55	21
56	5
57	8
60	1
61	18
62	52
63	73
64	37
65	26
66	25
67	17
68	11
69	52
70	9
71	4
72	0
73	5
74	41
75	60
76	61
77	46
78	17
79	6
80	2
81	2
83	20
85	56
86	27
87	42
88	52
89	31
90	21
91	11
92	5
93	5
94	0
95	1
97	31
98	25
99	38
100	38
101	32
102	24
103	13
104	6
105	4
106	1
107	0
109	2
110	9
111	18
112	18
113	24
114	35
115	24
116	14
117	9
118	4
119	4
120	1
121	0
122	3
123	9
124	14
125	57
126	48
127	36
128	16
129	8
130	4
131	2
132	13
133	3
134	1
135	1
136	2
137	8
138	20
139	52
140	48
141	18
142	8
143	4
144	3
145	7
146	3
147	1
148	0
149	2
150	12
151	47
152	58
153	43
154	21
155	7
156	5
157	2
158	0
159	0
161	6
162	4
163	8
164	25
165	31
166	18
167	19
168	15
169	12
170	7
171	3
172	1
173	0
174	0
175	2
176	5
177	23
178	27
179	48
180	33
181	19
182	5
183	1
184	1
187	0
188	1
189	6
190	9
191	6
192	19
193	16
194	35
195	34
196	12
197	4
198	0
199	0
202	6
203	20
204	10
205	11
206	9
207	13
208	10
209	145
210	30
211	6
212	1
214	0
215	0
216	0
217	2
218	1
219	3
220	4
221	6
222	22
223	28
224	11
225	2
228	0
230	0
231	1
232	3
233	2
234	5
235	11
236	29
237	10
238	2
245	0
246	0
247	3
248	24
250	189
251	72
252	11
253	2
261	0
262	1
263	0
264	3
265	3
266	3
267	16
268	3
276	13
277	19
278	225
279	62
280	8
281	0
291	0
292	23
293	50
294	11
295	56
296	9
297	0
312	0
317	0
319	0
320	6
321	116
322	22
323	3
