Mass Spectrum: Indan-1,3-dione, 2-(5-bromo-2-hydroxyphenylimino)-
Formula: C15H8BrNO3
CAS: 331945-06-3
Molecular weight: 329
m/z	intensity
33	0
34	0
36	2
37	40
38	87
39	154
40	24
41	27
42	29
43	25
44	83
45	32
46	1
48	1
49	27
50	316
51	333
52	50
53	60
54	8
55	14
56	17
57	15
58	7
59	11
60	6
61	88
62	309
63	999
64	120
65	21
66	13
67	9
68	3
70	60
71	4
72	9
73	49
74	204
75	372
76	341
77	298
78	39
79	80
80	10
81	10
83	58
84	38
85	24
86	54
87	92
88	214
89	178
90	40
91	123
92	32
93	7
94	1
95	5
96	3
97	22
98	19
99	27
100	28
101	29
102	207
103	70
104	50
105	43
106	10
107	4
108	4
109	4
110	7
111	30
112	12
113	20
114	31
115	37
116	26
117	64
118	13
119	28
120	3
121	1
123	41
124	46
125	6
126	12
127	12
128	8
129	9
130	105
131	13
132	3
133	2
134	3
135	2
137	20
138	73
139	102
140	71
141	14
142	67
143	46
144	71
145	46
146	5
147	1
148	2
149	10
150	36
151	41
152	12
153	4
154	15
155	9
156	27
157	8
158	13
159	1
160	0
161	0
162	1
163	5
164	84
165	57
166	108
167	25
168	23
169	8
170	64
171	18
172	46
173	8
174	1
175	8
176	17
177	69
178	54
179	8
180	7
181	1
182	3
183	0
184	3
185	0
186	1
187	0
189	0
190	0
191	0
192	2
193	60
194	60
195	16
196	2
197	1
198	1
199	1
200	0
201	0
204	1
205	4
206	2
207	0
208	1
209	0
210	1
217	1
218	1
219	2
220	1
221	3
222	43
223	6
224	1
226	0
229	1
231	0
232	0
233	0
234	0
244	4
245	74
246	13
247	70
248	11
250	18
251	6
252	0
255	0
256	1
257	11
258	3
259	20
260	3
261	7
262	0
270	1
271	4
273	501
274	82
275	475
276	67
277	5
283	0
284	2
285	1
286	2
287	1
300	30
301	11
302	27
303	10
304	1
312	14
313	4
314	15
315	4
316	0
325	0
326	2
327	5
329	329
330	64
331	291
332	47
333	5
334	0
