Mass Spectrum: 3-(5-Methylfuryl)-N-furamidopropionamide
Formula: C13H14N2O4
CAS: 331958-18-0
Molecular weight: 262
m/z	intensity
37	66
38	197
39	379
40	46
41	101
42	69
43	212
44	14
45	1
48	2
50	56
51	94
52	71
53	74
54	23
55	58
56	4
59	4
61	2
62	7
63	17
64	13
65	66
66	53
67	67
68	15
69	4
77	39
78	10
79	41
80	9
81	23
82	6
89	2
90	4
91	10
92	5
95	999
96	44
97	4
105	2
108	384
109	35
111	14
119	1
121	7
122	2
124	6
125	4
126	9
127	3
133	1
135	7
136	2
137	1
149	1
150	1
152	18
153	2
167	1
190	4
219	5
262	37
263	4
