Mass Spectrum: Pyran, tetrahydro-2-(3-bromo-5,5-dimethyl-2-cyclohexenyl)oxy-
Formula: C13H21BrO2
CAS: 331941-94-7
Molecular weight: 288
m/z	intensity
26	4
27	42
28	22
29	87
30	2
31	9
38	5
39	70
40	13
41	185
42	12
43	171
44	9
45	4
50	7
51	20
52	9
53	40
54	15
55	97
56	41
57	126
58	7
59	5
62	2
63	8
64	2
65	44
66	17
67	136
68	13
69	50
70	5
71	6
73	2
75	2
76	2
77	62
78	21
79	56
80	16
81	32
82	11
83	53
84	43
85	999
86	90
87	9
89	3
90	2
91	113
92	47
93	77
94	13
95	14
96	4
97	3
99	3
101	25
102	2
103	5
104	2
105	25
106	8
107	243
108	82
109	44
110	6
111	5
115	3
117	2
119	5
121	5
122	3
123	13
124	4
125	100
126	12
131	3
133	13
134	2
135	4
136	1
145	13
146	7
147	13
148	10
149	6
159	6
160	6
161	3
162	5
163	27
164	4
165	2
171	20
172	2
173	22
174	3
175	2
186	14
187	274
188	36
189	293
190	26
191	2
201	2
202	9
203	76
204	16
205	71
206	7
209	26
210	4
229	5
231	4
273	2
275	2
288	4
290	5
