Mass Spectrum: Piperazine, 1-(4-acetylphenyl)-4-(1-benzyl-4-piperidyl)-
Formula: C24H31N3O
CAS: 331978-89-3
Molecular weight: 377
m/z	intensity
26	11
27	24
29	41
30	13
36	7
38	8
39	29
40	4
41	32
42	74
43	44
44	76
45	123
46	62
50	18
51	32
52	16
53	14
54	21
55	81
56	99
57	20
58	7
60	4
62	4
63	21
64	6
65	56
66	7
67	8
68	18
69	14
70	18
71	4
73	5
74	5
75	6
76	19
77	54
78	25
79	22
80	30
81	15
82	127
83	21
84	46
85	6
89	25
90	23
91	999
92	128
93	13
94	11
95	6
96	69
97	10
98	26
102	8
103	19
104	63
105	38
106	15
107	10
108	4
109	3
110	7
111	7
113	3
115	9
116	7
117	22
118	48
119	37
120	28
121	25
122	3
123	3
125	4
128	3
129	6
130	15
131	22
132	205
133	40
134	21
135	5
136	10
139	4
143	13
144	20
145	12
146	255
147	65
148	34
149	8
156	4
157	4
158	39
159	14
160	18
161	18
162	350
163	42
168	3
170	67
171	90
172	451
173	846
174	266
175	64
176	22
177	7
180	6
185	4
186	9
187	243
188	45
189	16
190	5
199	10
200	12
201	40
202	56
203	268
204	148
205	111
206	15
213	13
214	8
215	28
216	8
217	10
227	3
228	5
229	36
230	16
231	46
232	8
241	4
242	5
243	35
244	7
245	16
256	4
257	23
258	6
270	3
285	4
286	47
287	10
307	4
322	32
323	6
334	4
348	7
362	16
363	3
375	69
376	27
377	141
378	39
379	5
