Mass Spectrum: 2-(4-Fluoro-benzylsulfanyl)-5-methyl-[1,3,4]thiadiazole
Formula: C10H9FN2S2
CAS: 331982-37-7
Molecular weight: 240
m/z	intensity
33	2
34	0
37	0
38	3
39	16
40	14
41	7
42	4
43	2
44	7
45	40
46	10
47	3
48	0
49	0
50	6
51	8
52	1
53	0
54	0
55	1
56	5
57	40
58	34
59	129
60	5
61	7
62	9
63	26
64	8
65	2
66	0
67	0
68	1
69	8
70	6
71	2
72	5
73	3
74	3
75	11
76	13
77	7
78	2
79	0
80	1
81	17
82	8
83	148
84	8
85	1
86	2
87	3
88	5
89	21
90	10
91	2
92	1
93	2
94	2
95	16
96	10
97	4
98	0
99	3
100	1
101	10
102	1
103	1
104	0
105	2
106	2
107	47
108	28
109	999
110	78
111	3
112	0
113	1
114	0
115	1
116	0
117	0
119	0
120	2
121	3
122	6
123	2
124	1
125	0
126	0
127	3
128	4
131	2
132	2
133	1
134	2
135	2
137	0
139	58
140	18
141	10
142	1
143	2
144	4
145	3
146	0
147	0
148	0
152	1
153	2
154	1
163	1
166	533
167	50
168	25
169	2
171	1
182	0
185	0
195	0
198	1
199	3
200	0
206	2
207	53
208	7
209	3
210	0
222	0
225	0
240	397
241	50
242	37
243	4
244	1
