Mass Spectrum: N-Phenylcarbamic acid, 3-hydroxy-3-methylbutyl ester
Formula: C12H17NO3
CAS: 331956-16-2
Molecular weight: 223
m/z	intensity
26	18
27	82
28	53
29	80
30	7
31	176
36	5
37	44
39	171
40	32
41	303
43	579
44	30
45	11
46	103
47	20
48	6
49	10
50	53
51	84
52	39
53	26
54	8
55	33
56	42
57	54
58	88
59	589
60	28
61	29
62	29
63	102
64	236
65	149
66	44
67	17
68	11
69	238
70	11
71	187
72	19
73	11
74	20
75	12
76	17
77	104
78	14
85	8
86	24
87	27
88	7
89	175
90	30
91	366
92	97
93	448
94	42
104	8
106	8
115	4
119	999
120	152
121	15
122	7
135	12
137	266
138	152
139	14
149	61
150	12
164	6
165	9
170	6
180	6
188	0
190	3
205	17
206	2
208	11
209	1
223	219
224	29
225	4
