Mass Spectrum: 2,1,3-Benzothiadiazole-4-sulfonamide, 5-methyl-N-(4-methylphenyl)-
Formula: C14H13N3O2S2
CAS: 331958-03-3
Molecular weight: 319
m/z	intensity
33	1
34	0
36	0
37	2
38	7
39	43
40	10
41	8
42	1
43	2
45	23
46	11
47	2
48	4
50	15
51	47
52	47
53	36
54	5
55	1
57	4
58	6
59	3
60	1
61	1
62	7
63	38
64	39
65	25
66	11
67	4
69	10
70	14
71	6
72	6
73	0
74	2
75	7
77	329
78	104
79	247
80	17
81	2
82	4
83	10
84	5
85	2
86	1
87	4
88	4
89	10
90	25
91	34
92	6
93	5
94	6
95	11
96	12
97	5
98	2
99	0
100	0
101	1
102	5
103	14
104	39
105	63
106	999
107	145
108	18
110	4
111	6
112	1
113	0
115	5
116	9
117	7
118	2
119	1
120	3
121	8
122	78
123	16
124	5
125	1
126	0
127	1
128	1
129	0
130	0
131	0
132	0
133	1
134	2
135	3
136	10
137	6
138	3
139	1
140	1
141	0
142	1
143	0
144	0
147	4
148	7
149	73
150	29
151	9
152	2
153	1
154	1
155	1
156	0
157	0
160	0
161	0
162	2
163	4
164	11
165	7
166	2
167	2
168	1
169	4
170	0
171	1
172	0
173	0
174	1
175	3
176	0
177	0
179	4
180	2
181	1
182	1
183	0
184	0
185	0
186	0
187	1
188	1
189	0
192	0
193	1
194	1
195	3
196	0
197	3
198	1
199	1
200	1
201	1
202	2
203	1
204	0
205	0
206	2
207	4
208	1
209	1
210	0
211	1
212	3
213	13
215	4
216	0
220	0
221	0
222	2
223	5
224	1
225	8
226	2
227	2
228	2
229	0
237	3
238	15
239	13
240	178
241	28
242	10
243	0
252	3
254	63
255	36
256	8
257	2
270	0
274	1
275	0
276	0
288	0
289	0
291	0
317	0
319	142
320	26
321	15
322	2
323	0
