Mass Spectrum: L-Histidine, 1-methyl-
Formula: C7H11N3O2
CAS: 332-80-9
Molecular weight: 169
m/z	intensity
12	2
14	5
15	50
16	14
17	19
18	33
19	2
25	4
26	30
27	81
28	193
29	24
30	37
31	3
32	3
36	5
37	7
38	15
39	60
40	30
41	92
42	195
43	37
44	105
45	10
46	9
47	1
48	4
49	2
50	5
51	13
52	27
53	22
54	124
55	63
56	45
57	6
58	1
60	1
61	1
62	21
63	1
64	5
65	6
66	21
67	24
68	108
69	10
70	5
73	2
74	22
75	1
76	1
77	2
78	3
79	5
80	11
81	89
82	37
83	36
84	3
85	1
91	2
92	3
93	7
94	18
95	999
96	883
97	69
98	4
105	3
106	5
107	9
108	11
109	10
110	2
111	1
112	1
119	3
120	3
121	6
122	4
123	49
124	60
125	10
126	1
129	1
133	1
134	1
135	2
136	1
137	1
148	1
151	1
152	2
153	1
154	1
167	2
168	1
169	15
170	4
171	1
