Mass Spectrum: 2-Octanol, trifluoroacetate
Formula: C10H17F3O2
CAS: 332-83-2
Molecular weight: 226
m/z	intensity
14	1
15	14
16	1
18	1
19	1
20	2
25	1
26	14
27	231
28	77
29	352
30	7
31	5
32	1
33	1
37	2
38	6
39	201
40	47
41	781
42	373
43	707
44	37
45	19
46	2
47	97
48	3
50	15
51	16
52	6
53	54
54	47
55	822
56	621
57	493
58	28
59	9
60	1
61	4
62	1
63	2
64	1
65	9
66	4
67	65
68	74
69	831
70	999
71	340
72	16
73	2
77	6
78	9
79	9
80	1
81	15
82	116
83	568
84	353
85	32
86	2
91	2
93	2
94	3
95	5
97	134
98	8
99	10
100	1
110	1
111	4
112	140
113	130
114	6
115	3
119	1
125	3
131	1
140	11
141	172
142	7
143	1
150	1
153	2
154	1
155	1
157	5
158	1
169	4
