Mass Spectrum: Benzene, 1-(2-bromoethyl)-4-fluoro-
Formula: C8H8BrF
CAS: 332-42-3
Molecular weight: 202
m/z	intensity
51	100
75	120
96	80
101	80
103	120
109	999
110	70
122	100
123	270
124	20
202	140
203	10
204	130
205	10
