Mass Spectrum: (4-Fluorophenyl)acetamide
Formula: C8H8FNO
CAS: 332-29-6
Molecular weight: 153
m/z	intensity
42	14
43	16
44	454
45	13
46	3
49	5
50	44
51	55
52	12
53	4
55	14
56	13
57	122
58	5
59	35
60	3
61	17
62	46
63	104
64	16
65	9
66	1
68	10
69	11
70	13
71	3
73	3
74	14
75	18
76	7
77	18
78	10
79	3
80	7
81	48
82	17
83	268
84	18
85	6
86	9
87	10
88	5
89	64
90	21
91	11
92	2
93	2
94	4
95	7
96	4
97	6
98	0
102	2
104	4
105	6
106	6
107	99
108	43
109	999
110	878
111	66
112	3
115	0
122	2
123	2
124	7
125	0
134	0
136	5
153	238
154	59
155	5
