Mass Spectrum: 1-(4-Iodo-phenyl)-3-(4-methyl-benzyl)-pyrrolidine-2,5-dione
Formula: C18H16INO2
CAS: 332063-30-6
Molecular weight: 405
m/z	intensity
38	3
39	22
40	22
41	9
42	2
43	4
44	11
50	7
51	11
52	5
53	8
54	5
55	96
56	4
57	3
62	4
63	30
64	15
65	22
66	3
67	2
68	2
69	2
74	2
75	4
76	17
77	63
78	19
79	51
80	4
82	1
89	14
90	69
91	85
92	14
93	4
102	11
103	50
104	38
105	999
106	101
107	3
111	1
115	82
116	52
117	131
118	38
119	11
120	5
127	35
128	53
129	35
130	23
131	131
132	97
133	12
134	19
135	5
139	4
141	5
142	1
143	4
144	21
145	142
146	19
147	1
149	1
157	4
158	26
159	53
160	8
165	3
171	3
172	2
173	52
174	13
175	3
186	6
187	13
188	4
191	1
203	18
204	2
208	4
217	3
218	7
219	28
220	5
230	6
234	2
235	3
236	2
245	28
246	4
254	1
256	5
273	5
279	8
299	8
300	29
301	4
313	7
362	8
363	2
403	2
405	221
406	42
407	4
