Mass Spectrum: Acetamide, 2-phenoxy-N-(4-methyl-3-furazanyl)-
Formula: C11H11N3O3
CAS: 332042-33-8
Molecular weight: 233
m/z	intensity
33	1
37	4
38	21
39	122
40	34
41	49
42	90
43	27
44	6
45	15
50	45
51	219
52	23
53	54
55	79
56	6
57	10
58	120
60	0
61	1
62	6
63	25
64	14
65	117
66	24
67	13
68	6
69	19
71	19
72	0
74	8
75	10
77	999
78	90
79	280
80	17
81	4
82	9
83	4
84	18
85	8
86	0
89	0
90	1
91	5
92	8
94	769
95	53
96	3
97	0
99	30
100	6
101	0
102	3
103	1
104	4
105	47
107	870
108	114
109	8
110	10
112	118
113	5
116	0
117	0
118	2
119	3
120	3
121	1
122	4
123	1
124	0
126	39
127	13
128	1
129	0
130	1
132	2
133	5
134	15
135	6
136	0
139	19
140	409
141	29
142	2
143	0
145	0
146	1
147	1
148	3
149	0
150	1
151	0
156	3
157	0
160	3
161	0
162	0
175	8
176	1
202	0
230	1
233	429
234	58
235	6
