Mass Spectrum: 2[2-(Heptafluoropropoxy)hexafluoropropoxy]-2,3,3,3-tetrafluoro-N-(5-nitro-thiazol-2-yl)propionamide
Formula: C12H2F17N3O5S
CAS: 332031-62-6
Molecular weight: 623
m/z	intensity
47	51
49	2
50	43
51	12
52	3
53	10
54	10
55	6
56	3
57	44
58	18
59	29
60	12
62	6
63	5
64	34
65	1
66	15
67	1
68	7
69	999
70	125
71	98
72	13
73	8
74	4
75	5
76	18
77	2
78	21
79	3
80	2
81	53
82	8
83	24
84	9
85	12
86	121
87	8
88	10
89	1
90	3
91	85
92	23
93	13
94	2
96	8
97	249
98	448
99	87
100	443
101	95
102	6
103	2
104	1
108	71
109	34
110	6
111	1
119	571
120	16
121	10
122	2
125	35
126	97
127	22
128	50
129	11
130	3
131	103
132	6
140	5
141	63
142	34
143	2
144	9
145	10
146	2
147	124
148	8
149	4
150	134
151	7
152	3
155	6
156	58
157	10
158	58
159	9
169	922
170	65
171	62
172	269
173	23
174	16
175	1
197	158
198	27
199	10
200	1
224	11
225	3
226	72
227	10
228	8
229	1
244	78
245	7
246	4
247	6
248	7
249	1
268	4
269	1
272	44
273	4
274	4
275	2
335	79
336	7
337	2
338	7
339	3
365	8
366	1
369	14
370	2
392	22
393	3
394	3
413	8
414	1
423	5
424	2
433	10
434	1
438	136
439	17
440	9
441	1
504	6
505	1
506	1
529	42
530	5
531	2
532	1
549	11
554	9
555	1
577	85
578	15
579	5
580	1
604	32
605	5
607	34
608	5
623	359
624	59
625	26
626	3
