Mass Spectrum: 1-[Bis-(2-hydroxyethyl)amino]-3-(3,6-diiodocarbazol-9-yl)-propan-2-ol
Formula: C19H22I2N2O3
CAS: 332025-86-2
Molecular weight: 580
m/z	intensity
50	6
56	54
57	33
73	15
74	71
75	14
76	3
88	166
89	13
90	4
97	14
98	30
99	10
100	23
101	6
118	999
119	65
120	7
126	17
127	27
128	41
148	198
149	25
150	28
151	50
152	26
155	9
156	32
157	4
158	2
164	49
165	21
166	6
177	39
178	70
179	30
274	15
275	4
291	11
292	22
293	12
305	106
306	51
349	10
419	79
420	9
421	8
432	201
433	47
446	4
458	12
459	24
460	4
461	19
462	3
473	2
474	2
475	5
517	6
549	178
550	36
551	4
562	1
580	3
