Mass Spectrum: Methanone, (2-furyl)[3-(4-nitrobenzylthio)-4H-1,2,4-triazol-3-yl]-
Formula: C14H10N4O4S
CAS: 332019-65-5
Molecular weight: 330
m/z	intensity
33	3
34	0
39	157
41	2
42	2
44	6
45	6
46	0
47	0
49	0
51	22
52	7
53	5
55	2
57	0
58	2
60	0
61	0
63	25
64	6
65	2
67	28
69	3
71	13
73	0
74	0
75	1
76	3
78	47
80	2
81	2
82	0
83	1
84	0
85	1
86	0
89	51
90	34
91	2
95	999
97	3
98	0
99	0
101	1
102	3
103	2
104	1
106	18
107	2
108	1
109	2
110	0
111	0
112	1
113	0
114	0
115	0
116	0
118	0
119	0
120	3
121	6
122	2
123	0
124	0
126	0
127	0
128	1
129	0
130	0
131	0
132	0
133	1
134	1
136	15
137	1
138	0
139	0
144	0
145	0
146	0
148	2
149	2
150	1
151	0
155	0
157	4
158	0
159	0
160	1
161	0
162	0
163	0
164	0
165	0
166	0
167	6
168	0
169	0
171	0
172	0
176	3
177	0
178	0
179	0
183	0
184	0
186	0
188	4
189	8
190	1
191	0
192	0
193	0
194	0
195	0
199	0
202	12
203	22
204	2
205	0
207	0
208	0
215	1
218	35
219	37
220	5
221	2
222	0
226	0
227	0
228	0
230	26
231	3
232	0
233	0
235	32
236	11
237	1
238	0
250	0
254	0
255	0
269	0
273	0
274	0
275	0
284	0
295	0
297	1
298	0
300	1
301	1
302	2
303	0
312	0
313	1
314	0
325	0
326	1
327	1
328	2
330	119
331	18
332	7
333	0
334	0
