Mass Spectrum: N-(2-Isopropoxyphenyl)-2-thiophenecarboxamide
Formula: C14H15NO2S
CAS: 332026-30-9
Molecular weight: 261
m/z	intensity
33	13
34	2
39	186
41	76
43	68
44	16
45	8
46	1
51	74
53	20
55	2
57	13
58	5
59	1
60	1
61	1
63	12
64	9
65	9
67	2
69	5
70	1
71	1
73	1
74	1
76	5
79	44
83	66
84	6
85	3
87	1
89	1
91	9
92	4
93	3
94	1
95	1
97	1
99	1
100	1
101	1
102	1
103	1
104	1
106	3
108	10
111	999
113	41
115	1
118	1
119	1
120	2
121	1
127	1
128	1
130	1
131	1
132	1
134	5
135	3
136	1
140	1
146	1
147	1
150	1
157	1
160	1
172	2
173	2
201	15
202	2
203	2
219	53
220	6
221	2
259	1
261	118
262	17
263	6
264	1
