Mass Spectrum: Undec-10-ynoic acid (furan-2-ylmethyl)-amide
Formula: C16H23NO2
CAS: 332167-72-3
Molecular weight: 261
m/z	intensity
34	2
36	0
37	3
38	14
39	159
40	93
41	367
42	65
43	126
44	55
45	2
50	10
51	33
52	37
53	293
54	56
55	281
56	35
57	34
58	6
59	33
60	3
63	2
65	35
66	19
67	150
68	72
69	221
70	24
71	28
72	31
73	6
74	0
76	0
77	30
78	18
79	84
80	109
81	999
82	86
83	44
84	47
85	11
86	7
87	3
90	0
91	33
92	13
93	46
94	111
95	155
96	561
97	379
98	55
99	5
100	4
103	1
104	3
105	19
106	16
107	34
108	25
109	46
110	86
111	32
112	10
113	2
114	1
115	3
116	0
117	4
118	4
119	21
120	45
121	58
122	71
123	34
124	12
125	6
126	5
127	1
128	3
129	1
130	1
131	5
132	7
133	27
134	23
135	27
136	96
137	33
138	64
139	191
140	18
141	2
142	1
143	1
145	12
146	7
147	16
148	18
149	15
150	46
151	14
152	27
153	5
154	4
155	0
157	0
158	0
159	4
160	5
161	13
162	26
163	33
164	17
165	6
166	6
167	1
170	0
171	3
172	0
173	3
174	3
175	4
176	33
177	12
178	9
179	1
180	6
181	0
184	0
185	0
187	2
188	2
190	21
191	4
192	7
193	2
194	1
200	0
201	1
202	1
203	2
204	13
205	5
206	2
215	0
216	2
218	17
219	3
220	2
221	0
222	1
232	25
233	6
244	4
246	6
247	0
258	0
259	2
261	188
262	29
263	3
