Mass Spectrum: 2-Cyclohexenone, 5,5-dimethyl-3-(4-piperidyl)methylamino-
Formula: C14H24N2O
CAS: 332144-70-4
Molecular weight: 236
m/z	intensity
33	0
34	0
37	0
39	116
40	37
41	223
42	155
43	67
44	37
45	1
46	0
48	0
49	0
50	2
51	10
52	12
53	67
54	61
55	191
56	242
57	53
58	10
59	1
60	0
61	0
63	4
64	2
65	23
67	209
68	103
69	177
70	51
71	11
72	2
73	0
75	1
76	9
77	34
78	10
79	46
80	58
82	999
83	652
84	275
85	25
86	2
87	0
88	0
89	3
90	2
91	11
92	5
93	17
94	59
95	66
96	205
97	76
98	116
99	10
100	0
101	0
102	0
103	3
104	3
105	3
106	8
107	16
108	25
109	16
110	17
111	6
112	5
113	1
114	0
115	0
116	0
117	1
118	2
119	2
120	7
121	4
122	22
123	16
124	29
125	143
126	15
127	1
128	0
129	0
130	0
131	0
132	1
133	1
134	4
135	3
136	11
138	90
140	161
141	13
142	1
143	0
144	0
145	0
146	1
147	1
148	3
149	1
150	5
151	4
152	23
153	24
154	185
155	18
156	2
157	0
158	0
159	0
160	0
161	0
162	2
163	1
164	23
165	5
166	3
167	1
168	0
170	0
171	1
172	0
173	0
174	0
175	0
176	5
177	1
178	16
179	8
180	34
181	5
182	0
185	0
186	0
187	0
188	0
189	0
190	2
191	4
192	5
193	4
194	3
195	0
198	0
200	0
202	0
203	0
204	2
205	0
206	2
207	1
208	0
209	0
214	0
217	0
218	0
219	0
220	2
221	13
222	2
223	0
226	0
232	0
233	0
234	1
235	5
236	73
237	12
238	1
239	0
240	0
