Mass Spectrum: Furan-2-carboxylic acid, (7-methoxychroman-4-ylidenamino) ester
Formula: C15H13NO5
CAS: 332129-52-9
Molecular weight: 287
m/z	intensity
36	2
37	44
38	118
39	284
40	13
41	26
42	5
43	8
44	2
45	9
47	0
48	0
49	2
50	19
51	40
52	15
53	21
54	8
55	17
56	1
57	1
59	2
60	0
61	5
62	22
63	52
64	20
65	57
66	29
67	42
68	4
69	20
70	2
71	1
72	0
74	5
75	16
76	19
77	50
78	16
79	22
80	5
81	2
82	1
83	2
84	1
85	1
86	1
87	3
88	9
89	42
90	19
91	65
92	20
93	6
95	999
96	64
97	5
98	1
99	1
100	2
101	3
102	14
103	10
104	9
105	16
106	15
107	9
108	4
109	1
110	1
111	6
112	7
113	1
114	0
115	2
116	5
117	30
118	26
119	25
120	68
121	21
122	5
123	4
124	1
125	1
126	0
127	0
128	0
129	3
130	2
131	15
132	9
133	20
134	12
135	3
136	3
137	1
138	6
139	1
140	0
143	0
144	3
145	2
146	21
147	64
148	13
149	36
150	20
151	3
152	0
154	0
155	1
157	0
158	0
159	1
160	8
161	232
162	60
163	6
164	9
165	2
166	10
167	1
169	0
170	0
171	1
172	0
173	0
174	2
175	5
176	79
177	26
178	16
179	2
181	0
182	0
183	0
184	0
185	0
186	0
187	1
188	1
189	1
192	35
193	5
194	0
195	0
198	1
199	1
200	4
201	1
202	1
203	0
204	60
205	8
206	0
207	0
210	0
211	0
212	0
213	0
214	8
215	4
216	1
218	0
226	0
227	0
228	0
229	0
230	1
231	0
233	3
240	0
241	0
242	3
243	20
244	3
245	0
256	0
257	1
258	2
259	0
270	5
271	1
272	0
283	0
285	0
287	575
288	95
289	13
290	1
