Mass Spectrum: n-Butylphosphonic acid
Formula: C4H11O3P
CAS: 3321-64-0
Molecular weight: 138
m/z	intensity
41	79
42	11
43	17
44	7
45	7
47	28
48	6
49	5
50	7
51	10
52	3
53	14
54	7
55	63
56	32
57	17
58	1
59	1
60	0
61	1
62	0
63	17
64	8
65	70
66	2
67	1
68	1
69	3
70	1
71	2
73	1
74	1
75	2
76	1
77	3
78	70
79	6
80	8
81	190
82	332
83	79
84	7
85	2
86	3
87	2
89	2
91	87
92	9
93	3
94	2
96	999
97	21
98	2
99	3
101	2
102	0
103	1
104	1
105	35
106	1
107	3
108	0
109	256
110	65
111	5
112	1
113	1
115	4
117	1
119	11
120	3
121	10
123	280
124	11
125	3
129	1
133	1
135	2
136	4
137	34
138	18
139	124
140	6
141	2
