Mass Spectrum: 2-Methylindan-2-ol
Formula: C10H12O
CAS: 33223-84-6
Molecular weight: 148
m/z	intensity
39	34
41	15
43	874
44	8
50	15
51	41
52	11
53	10
55	8
63	25
64	13
65	28
66	5
76	11
77	109
78	52
79	65
80	7
89	23
91	120
92	6
103	72
104	66
105	999
106	348
107	19
115	62
116	10
127	9
128	26
129	32
130	10
131	28
132	10
133	48
134	5
148	502
149	51
