Mass Spectrum: 1-(3-Iodo-phenyl)-1H-tetrazole
Formula: C7H5IN4
CAS: 332377-03-4
Molecular weight: 272
m/z	intensity
34	1
36	4
37	76
38	109
39	318
40	52
41	31
42	12
43	15
44	51
45	6
46	0
47	0
48	1
49	21
50	226
51	48
52	21
53	11
54	2
55	10
56	5
57	9
59	24
60	5
61	38
62	94
63	457
64	175
65	22
66	9
67	4
68	1
69	7
70	4
71	4
72	4
73	19
74	74
75	64
76	190
77	23
78	4
79	3
81	1
82	1
83	3
84	4
85	3
86	4
87	9
88	21
89	43
90	999
91	76
92	6
93	1
95	2
96	1
97	4
98	16
99	2
100	2
102	7
103	4
104	1
105	3
106	1
109	3
110	2
111	2
112	1
113	1
115	4
117	773
118	66
119	3
120	1
124	2
125	1
127	71
128	24
133	1
135	1
145	0
149	1
152	3
164	1
165	2
176	0
179	4
181	1
191	1
193	3
194	13
195	1
203	35
204	2
209	7
211	4
216	1
217	6
230	1
231	2
241	1
244	161
245	13
272	89
273	7
