Mass Spectrum: N-(4-Iodo-2-methyl-phenyl)-2-morpholin-4-yl-acetamide
Formula: C13H17IN2O2
CAS: 332377-14-7
Molecular weight: 360
m/z	intensity
37	1
38	4
39	14
40	9
41	28
42	65
43	42
44	37
45	6
48	0
50	8
51	18
52	12
53	5
54	9
55	8
56	84
57	27
58	4
59	0
61	1
62	3
63	10
64	6
65	4
66	1
67	2
68	2
69	3
70	28
71	6
72	12
73	1
74	2
75	2
76	5
77	27
78	17
79	11
80	3
81	0
82	1
83	1
84	1
85	5
86	48
87	14
88	2
89	16
90	14
91	6
92	1
93	0
94	0
96	0
97	2
98	16
100	999
101	64
102	5
103	2
104	24
105	16
106	38
107	28
108	2
111	1
112	4
113	1
114	1
115	1
116	9
117	5
118	5
119	5
120	1
127	14
128	21
129	1
130	1
131	1
132	3
133	3
134	0
142	2
145	1
146	1
147	2
148	1
149	0
156	0
165	0
217	0
230	1
231	1
232	11
233	16
234	1
243	7
244	0
246	1
259	7
260	1
275	4
317	5
329	1
342	2
358	0
360	26
361	3
