Mass Spectrum: 4-Fluoro-5-imidazole-carboxylic acid, ethyl ester
Formula: C6H7FN2O2
CAS: 33235-31-3
Molecular weight: 158
m/z	intensity
41	40
42	13
43	37
44	1
45	71
46	13
47	17
48	0
50	0
51	0
52	4
53	9
54	9
55	8
57	75
58	313
59	83
60	6
61	0
64	1
65	4
66	2
67	44
68	8
69	2
70	7
71	16
72	6
73	3
74	13
75	10
77	0
78	0
79	0
81	0
82	1
84	8
85	263
86	127
87	19
91	4
93	3
94	1
95	1
97	2
99	18
101	7
102	3
108	2
109	0
110	2
112	999
113	884
114	74
115	13
116	1
117	0
125	11
127	1
128	0
130	826
131	57
132	5
133	0
139	3
140	0
142	4
143	34
144	0
145	1
149	1
151	0
158	456
159	134
160	19
161	2
