Mass Spectrum: Iron, tetracarbonyl[(2,3-.eta.)-dimethyl-2-butenedioate
Formula: C10H8FeO8
CAS: 33248-78-1
Molecular weight: 312
m/z	intensity
26	124
27	38
28	999
29	97
30	29
31	47
32	23
33	0
36	0
37	2
38	2
39	20
40	1
41	12
42	9
43	3
44	8
45	7
52	1
53	60
54	61
55	39
56	96
57	39
58	1
59	158
60	3
61	1
62	0
63	0
64	1
65	0
66	0
68	3
69	4
70	2
71	2
72	3
73	4
75	1
77	0
78	0
79	1
80	3
81	23
82	53
83	21
84	107
85	128
86	25
87	99
88	15
89	2
90	0
91	1
92	0
93	1
94	1
95	0
96	1
97	1
98	1
99	11
100	10
101	3
103	6
104	0
105	1
106	0
107	0
108	0
109	1
110	3
111	8
112	35
113	439
114	125
115	11
116	4
117	5
118	4
119	1
122	0
125	1
126	2
127	8
128	1
129	3
133	0
134	0
138	1
139	2
140	17
141	37
142	165
143	11
144	17
145	1
148	0
153	0
155	5
157	6
158	0
162	0
167	1
168	1
169	10
170	8
171	1
172	89
173	6
174	1
175	0
176	1
177	0
185	1
191	0
193	0
195	0
196	1
197	7
198	4
199	0
200	38
201	3
202	0
203	0
207	3
208	1
209	0
222	0
223	1
225	8
226	7
227	1
228	119
229	11
230	2
253	0
254	1
256	22
257	2
279	0
281	9
282	1
284	0
