Mass Spectrum: Pyrimido[4,5-b]benzothiophene, 5,6,7,8-tetrahydro-4-(2-diethylaminoethylamino)-
Formula: C16H24N4S
CAS: 332402-70-7
Molecular weight: 304
m/z	intensity
33	0
34	0
36	0
37	0
39	4
40	2
41	7
42	23
43	5
44	12
45	4
47	0
50	1
51	3
52	3
53	3
54	5
56	41
57	15
58	94
59	3
60	0
62	1
63	4
64	3
65	4
66	2
67	1
68	2
69	6
70	21
71	44
72	9
73	1
74	1
75	1
76	4
77	8
78	4
79	4
80	1
81	1
82	2
83	4
84	32
86	999
87	48
89	7
90	5
91	9
93	5
94	3
95	4
96	4
97	5
99	434
100	51
102	10
103	3
104	2
105	1
106	1
107	2
108	3
109	2
110	1
111	0
112	0
113	1
114	2
115	2
116	7
117	3
118	3
119	1
120	2
121	3
122	4
123	2
124	0
125	0
126	0
127	1
128	2
129	2
130	2
131	2
132	1
133	6
134	8
135	8
136	3
137	2
138	0
139	0
140	0
141	0
142	1
143	1
144	2
145	1
146	3
147	3
148	3
149	3
150	3
151	1
152	1
153	0
154	0
155	1
156	1
157	1
158	2
159	4
160	8
161	11
162	9
163	5
164	2
165	0
166	0
167	0
168	0
169	1
170	1
171	1
172	1
173	2
174	11
175	6
176	5
177	3
178	1
179	0
181	0
182	0
183	0
184	0
185	3
186	2
187	5
188	14
189	16
190	10
191	2
192	0
193	0
194	0
196	0
197	0
198	0
199	0
200	1
201	3
202	13
203	7
204	21
205	19
206	14
207	2
208	0
209	0
212	0
214	2
215	1
216	8
217	3
218	23
219	4
220	1
221	0
222	0
225	0
226	0
228	1
230	10
231	4
232	18
233	8
234	1
235	0
242	0
243	0
244	0
245	0
246	0
257	0
258	0
259	0
260	0
265	0
271	0
273	0
274	0
275	0
276	0
281	0
289	0
300	0
302	0
304	4
305	1
306	0
