Mass Spectrum: Acetamide, N-(2-fluorophenyl)-2-(2,4-dinitrophenylthio)-
Formula: C14H10FN3O5S
CAS: 332413-03-3
Molecular weight: 351
m/z	intensity
33	1
38	13
39	43
42	14
45	134
46	18
47	21
48	0
50	18
51	51
52	20
53	11
54	4
56	2
57	45
58	19
59	0
62	20
63	99
64	20
65	18
66	4
68	2
69	73
70	18
71	8
72	1
74	24
75	50
76	16
77	148
78	16
79	34
80	8
81	3
82	30
83	215
84	27
86	0
87	0
88	2
89	9
90	22
91	13
92	1
93	6
94	8
95	50
96	15
97	5
98	4
99	0
100	0
101	0
104	2
105	9
106	5
107	17
108	11
109	27
110	102
111	999
112	88
113	2
116	0
118	3
119	3
120	15
121	38
122	32
123	48
124	220
125	24
126	4
127	0
128	0
132	0
133	0
134	7
135	20
136	68
137	218
138	56
139	13
140	1
141	0
142	4
144	0
146	0
147	0
148	1
150	7
151	47
152	15
153	5
154	1
155	1
156	5
157	5
158	3
159	0
160	0
164	0
165	2
166	9
167	80
168	34
169	12
170	0
171	0
172	3
174	1
177	0
178	0
179	0
180	0
181	1
182	1
183	167
184	135
185	20
186	6
187	1
188	0
189	0
192	0
193	0
194	6
196	0
197	8
198	1
199	4
200	1
201	0
202	0
205	0
211	0
212	0
213	8
214	3
215	1
216	0
217	0
223	0
227	0
228	0
238	0
239	0
240	0
241	3
242	0
245	0
248	0
257	0
258	0
259	1
260	1
261	0
262	0
264	0
267	1
268	31
269	6
270	0
271	0
273	0
275	0
277	3
278	1
279	0
286	4
287	1
288	0
289	0
300	0
301	0
305	98
306	12
307	4
310	0
313	0
317	0
321	0
334	1
336	1
350	0
351	423
352	126
353	34
354	4
355	0
