Mass Spectrum: 1-(4-Chloro-benzenesulfonyl)-piperidine-4-carboxylic acid hydrazide
Formula: C12H16ClN3O3S
CAS: 332400-85-8
Molecular weight: 317
m/z	intensity
33	16
34	2
35	3
36	19
37	5
38	17
39	100
40	34
41	140
42	486
43	81
44	40
45	36
46	2
47	1
48	9
50	83
51	54
52	15
53	75
54	97
55	523
56	153
57	54
58	9
59	12
60	5
61	10
62	4
63	11
64	15
65	12
66	4
67	36
68	45
69	45
70	25
71	17
72	6
73	17
74	39
75	202
76	61
77	28
78	7
79	7
80	66
82	882
83	130
84	54
85	32
86	12
87	77
88	3
89	2
90	1
91	1
92	1
93	2
94	4
95	8
96	22
97	43
98	28
99	11
100	3
101	4
102	1
103	0
104	0
105	1
107	8
108	31
109	17
110	65
111	551
112	87
113	178
114	18
115	3
116	0
117	0
121	0
122	2
125	999
126	78
127	23
128	6
129	5
130	3
131	8
132	0
133	2
135	0
138	2
139	3
140	16
142	959
143	74
144	8
145	1
146	0
147	0
149	0
150	0
151	0
152	1
153	0
154	1
156	54
157	6
159	15
160	3
161	4
162	0
165	0
166	0
168	0
169	1
170	0
171	7
172	2
175	264
176	24
177	86
178	7
179	3
189	0
190	0
192	1
194	0
201	0
202	1
204	71
205	7
206	25
207	2
208	1
256	7
258	55
259	8
260	16
261	1
262	0
283	1
284	0
286	11
287	1
288	3
317	6
318	1
319	1
