Mass Spectrum: Ethanedihydrazide, N2,N2'-bis(4-pyridylmethylideno)-
Formula: C14H12N6O2
CAS: 332414-11-6
Molecular weight: 296
m/z	intensity
38	209
39	332
40	59
43	191
44	374
45	30
50	379
51	999
52	198
62	27
63	423
64	314
65	218
66	133
76	19
77	124
78	791
79	211
91	85
92	160
93	39
105	188
106	168
107	50
120	137
121	77
148	681
149	32
