Mass Spectrum: N-Phenyl-N'-(2-piperazin-1-yl-ethyl)-oxalamide
Formula: C14H20N4O2
CAS: 332404-00-9
Molecular weight: 276
m/z	intensity
37	0
38	1
39	8
40	5
41	10
42	42
43	21
44	50
45	3
46	0
50	3
51	11
52	2
53	1
54	6
55	12
56	127
57	22
58	15
59	0
60	0
61	0
62	0
63	4
64	5
65	22
66	7
67	1
68	5
69	7
70	99
71	17
72	11
73	1
74	0
75	1
76	2
77	57
78	5
79	0
80	1
81	1
82	3
83	8
84	27
85	17
86	2
87	1
88	2
89	0
90	0
91	9
92	33
93	24
94	5
95	2
96	1
97	16
99	999
100	66
101	2
102	0
103	0
104	1
105	1
106	2
107	0
108	0
109	0
110	0
111	5
112	4
113	20
114	2
115	0
116	0
117	4
118	0
119	11
120	27
121	4
122	0
123	2
124	0
125	2
126	1
127	6
128	2
129	0
131	0
132	0
133	0
134	0
135	0
137	0
138	0
139	0
140	0
141	0
146	0
147	0
149	1
150	0
151	0
152	0
153	0
154	4
155	1
156	31
157	2
161	0
164	1
165	0
166	0
171	1
173	0
177	0
178	0
179	0
181	0
182	0
189	0
190	1
191	12
192	1
193	0
203	0
204	0
205	1
206	0
207	0
208	6
209	0
219	0
220	1
221	2
222	0
231	0
232	0
234	3
235	0
240	1
241	0
246	0
274	0
275	1
276	18
277	3
278	0
