Mass Spectrum: 4-Pyridinecarbonitrile, 2-chloro-
Formula: C6H3ClN2
CAS: 33252-30-1
Molecular weight: 138
m/z	intensity
35	26
36	18
37	61
38	44
39	19
40	11
41	2
42	0
43	2
44	2
47	26
48	16
49	58
50	102
51	123
52	69
53	3
55	3
56	2
57	1
59	0
60	49
61	17
62	50
63	30
64	35
65	3
69	7
70	2
71	2
72	3
73	4
74	20
75	134
76	340
77	46
78	3
79	0
83	2
84	9
85	12
86	12
87	8
88	3
89	2
90	0
91	5
92	0
97	2
98	16
100	12
101	15
103	999
104	80
105	3
109	4
110	18
111	10
112	6
113	4
114	0
118	0
120	1
122	0
136	0
138	933
139	67
140	303
141	24
142	0
