Mass Spectrum: 1,5-Benzoxazepin-4(5H)-one, 2,3-dihydro-3-phenyl-
Formula: C15H13NO2
CAS: 33255-29-7
Molecular weight: 239
m/z	intensity
39	70
51	120
52	130
65	70
77	200
91	220
103	999
104	519
109	90
120	180
131	519
135	170
148	70
165	10
180	10
196	10
210	10
220	40
239	719
