Mass Spectrum: Vanadium, tricarbonyl(.eta.5-2,4-cyclopentadien-1-yl)(hexamethylphosphorous triamide-P)-
Formula: C14H23N3O3PV
CAS: 33269-49-7
Molecular weight: 363
m/z	intensity
60	253
65	18
66	44
76	999
116	120
119	999
135	8
159	33
163	337
181	132
203	6
236	19
279	39
319	0
335	3
363	7
