Mass Spectrum: 2-Furancarboxylic acid, hydrazide
Formula: C5H6N2O2
CAS: 3326-71-4
Molecular weight: 126
m/z	intensity
12	1
13	2
14	4
15	1
16	9
17	4
18	6
25	3
26	9
27	9
28	111
29	37
30	8
31	39
32	1
33	1
36	5
37	37
38	70
39	233
40	17
41	7
42	12
43	4
44	22
45	2
46	1
48	1
49	5
50	9
51	21
52	12
53	12
54	5
55	6
56	1
62	1
63	4
64	29
65	16
66	10
67	44
68	25
69	2
70	2
77	1
79	2
80	5
81	1
82	1
93	60
94	7
95	999
96	84
97	8
107	1
109	1
111	36
112	5
126	320
127	20
128	1
