Mass Spectrum: 1-Oxa-4-thiaspiro[4.5]decan-6-one
Formula: C8H12O2S
CAS: 33266-05-6
Molecular weight: 172
m/z	intensity
41	170
42	60
43	40
45	100
46	40
47	10
50	10
51	20
52	20
53	40
54	30
55	520
56	100
57	30
58	50
59	100
60	999
61	80
62	50
65	10
67	50
68	10
69	10
71	30
83	40
84	240
85	120
88	180
89	10
96	30
102	30
112	10
115	640
116	170
117	50
118	10
127	10
137	20
144	230
145	30
146	20
172	470
173	70
174	50
