Mass Spectrum: Ethanone, 1-(2-methyl-1,3-dithiolan-2-yl)-
Formula: C6H10OS2
CAS: 33266-07-8
Molecular weight: 162
m/z	intensity
40	20
42	10
43	120
45	45
46	10
57	20
58	65
59	400
60	20
61	45
76	10
91	25
105	10
119	999
120	65
121	90
162	20
