Mass Spectrum: Phenylacetamide, N-ethyl-N-(4-pyridylmethyl)-
Formula: C16H18N2O
CAS: 33262-90-7
Molecular weight: 254
m/z	intensity
33	0
34	0
36	0
37	5
38	23
39	208
40	26
41	45
42	39
43	13
44	65
45	4
46	2
47	1
48	0
49	3
50	37
51	91
52	53
53	24
54	10
55	4
56	17
57	7
58	176
60	47
62	11
63	50
64	31
65	323
66	26
67	8
68	3
69	1
70	5
71	1
72	7
73	0
74	1
75	3
76	5
77	14
78	33
79	43
80	46
81	3
82	0
83	0
84	1
85	0
86	1
87	1
89	36
90	42
91	469
92	999
93	152
94	19
95	1
96	0
97	0
98	0
99	0
100	0
101	0
102	0
103	1
104	7
105	18
106	21
107	82
108	14
109	4
110	0
111	0
112	0
113	0
114	1
115	1
116	1
117	2
118	25
119	25
120	17
121	365
122	30
123	5
124	0
125	0
126	0
127	0
128	0
129	0
130	0
131	1
132	2
133	8
134	9
135	63
136	72
137	11
138	0
139	0
140	0
141	0
142	0
143	0
144	0
145	0
146	0
147	1
148	1
149	3
150	1
151	0
152	0
153	0
154	0
155	0
156	1
157	0
159	0
160	0
161	2
162	10
163	182
164	18
165	1
166	0
167	1
168	3
169	1
170	0
171	0
172	0
174	0
175	0
176	0
177	0
178	1
180	3
181	3
182	4
183	4
184	1
185	0
190	0
192	0
193	0
194	0
195	0
196	2
197	0
198	0
205	0
207	0
208	0
209	0
210	0
211	0
212	0
213	0
223	0
224	0
225	3
226	0
227	0
237	0
239	0
240	0
241	0
242	0
249	0
250	0
251	0
252	1
253	6
254	207
255	36
256	3
257	0
