Mass Spectrum: Ketone, methyl 2-methyl-1,3-oxothiolan-2-yl
Formula: C6H10O2S
CAS: 33266-06-7
Molecular weight: 146
m/z	intensity
15	36
27	21
42	16
43	999
44	26
45	38
58	17
59	65
60	48
61	148
100	2
101	2
102	5
103	846
104	47
105	41
106	2
115	4
128	2
146	3
