Mass Spectrum: Carbonimidic chloride fluoride, [(trifluoromethyl)thio]-
Formula: C2ClF4NS
CAS: 33278-61-4
Molecular weight: 181
m/z	intensity
31	78
35	25
44	42
46	189
50	28
63	51
69	999
77	106
82	78
93	83
101	235
112	263
146	203
162	23
181	557
