Mass Spectrum: 2-Azatricyclo[5.3.1.0(2,6)]undecan-7-ol-8-one
Formula: C10H15NO2
CAS: 3327-30-8
Molecular weight: 181
m/z	intensity
27	106
28	249
30	65
31	62
32	13
33	27
35	12
37	29
38	18
39	94
40	29
41	215
42	123
43	166
44	55
45	33
47	16
48	11
49	77
50	9
51	35
52	9
53	55
54	75
55	134
56	68
57	32
58	25
60	28
65	16
66	17
67	44
68	105
69	68
70	695
71	76
72	23
73	8
75	3
77	13
78	11
79	13
80	23
81	24
82	43
83	85
84	66
85	17
86	48
87	29
88	7
91	12
93	12
94	36
95	66
96	999
97	149
98	36
99	14
100	9
101	8
105	12
106	12
107	7
108	45
109	27
110	181
111	52
112	48
113	9
115	12
117	6
118	5
119	3
120	13
121	8
122	41
123	17
124	159
125	99
126	25
127	5
128	8
129	14
134	8
135	8
136	26
137	8
138	56
139	17
140	8
151	7
152	19
153	67
154	16
162	6
163	3
164	18
165	8
166	9
180	27
181	555
182	67
183	12
