Mass Spectrum: Carbonochloridimidothioic acid, [(trifluoromethyl)thio]-, anhydrosulfide with thiohypochlorous acid
Formula: C2Cl2F3NS2
CAS: 33278-64-7
Molecular weight: 229
m/z	intensity
35	16
44	108
50	62
61	196
63	256
67	34
69	999
82	701
90	155
101	152
127	15
159	366
160	17
162	17
