Mass Spectrum: Imidosulfuryl fluoride, [(trifluoromethyl)thio]-
Formula: CF5NOS2
CAS: 33278-59-0
Molecular weight: 201
m/z	intensity
31	35
46	999
48	82
50	39
51	34
63	37
67	131
69	658
70	37
82	54
86	55
96	115
100	22
101	64
115	90
182	22
201	453
