Mass Spectrum: Carbonofluoridimido(dithioperoxoic) acid, [(trifluoromethyl)thio]-, trifluoromethyl ester
Formula: C3F7NS3
CAS: 33278-63-6
Molecular weight: 279
m/z	intensity
31	55
46	98
58	66
63	285
64	192
69	999
77	28
82	55
96	30
101	122
115	99
133	70
146	215
159	13
178	30
260	11
279	76
