Mass Spectrum: Carbamo(dithioperoxoic) acid, trifluoromethyl ester
Formula: C2H2F3NOS2
CAS: 33278-65-8
Molecular weight: 177
m/z	intensity
31	77
42	218
43	999
44	883
50	53
63	182
64	400
69	618
76	288
82	765
101	24
133	88
