Mass Spectrum: 4H-1,3-Thiazine-6-carboxamide, 5,6-dihydro-2-amino-N-(4-fluorophenyl)-4-oxo-
Formula: C11H10FN3O2S
CAS: 332861-04-8
Molecular weight: 267
m/z	intensity
33	8
34	2
35	1
36	1
37	3
38	11
39	18
40	30
42	115
43	122
44	34
45	84
47	16
48	3
50	13
51	12
52	16
53	17
54	33
55	105
57	105
58	69
59	158
60	95
61	45
62	19
63	31
64	17
65	8
66	1
67	2
69	93
70	35
71	8
72	5
73	5
74	13
75	56
76	29
77	9
78	4
80	18
81	24
82	47
83	175
84	62
85	15
87	265
89	38
90	7
91	9
92	4
93	4
94	9
95	83
96	14
97	31
98	42
99	4
100	4
101	14
102	23
103	7
104	3
105	5
106	1
107	3
108	12
109	79
110	189
111	999
112	80
113	3
115	30
116	3
117	1
118	1
120	4
121	24
122	22
123	7
124	7
125	2
126	0
127	4
128	83
129	623
130	53
131	32
132	1
133	0
134	3
135	19
137	177
138	62
139	6
140	6
141	1
142	6
143	1
144	0
146	7
147	12
148	2
149	2
150	2
151	2
152	8
153	4
154	6
156	141
157	127
158	13
159	6
160	0
161	0
162	5
163	5
164	12
165	4
166	1
167	0
168	1
171	2
172	1
173	0
178	1
179	2
180	0
189	0
190	7
191	67
192	16
193	4
194	0
196	8
197	8
198	1
200	0
207	0
211	0
217	0
220	2
221	2
222	2
223	2
224	0
225	24
226	2
227	1
236	1
239	0
249	5
250	0
255	1
267	242
268	35
269	13
270	1
271	0
