Mass Spectrum: Phosphoric acid, 1-(dimethoxyphosphinyl)ethenyl dimethyl ester
Formula: C6H14O7P2
CAS: 3328-33-4
Molecular weight: 260
m/z	intensity
14	10
15	388
16	5
17	7
18	33
19	14
26	2
27	8
28	53
29	32
30	5
31	68
32	14
33	6
38	1
39	14
40	9
41	7
42	119
43	38
44	5
45	22
46	2
47	176
48	24
49	24
50	19
51	4
52	6
53	3
54	20
55	37
56	7
57	42
58	5
59	1
60	2
61	2
62	22
63	65
64	3
65	23
66	10
67	2
68	1
69	2
70	13
71	7
72	2
73	17
74	5
75	1
76	11
77	21
78	15
79	325
80	70
81	13
82	8
83	1
86	1
87	10
88	1
89	13
91	6
92	10
93	958
94	42
95	112
96	77
97	7
98	2
99	4
102	3
103	40
104	18
105	8
106	4
107	2
108	3
109	999
110	295
111	22
112	5
113	54
115	1
116	3
117	3
118	11
119	39
120	3
121	7
122	3
123	11
124	63
125	14
126	54
127	532
128	16
129	5
133	12
134	75
135	561
136	39
137	23
138	10
139	2
140	14
141	60
142	22
143	4
145	2
147	4
148	16
149	13
150	4
151	283
152	25
153	4
154	1
156	33
157	17
158	13
159	11
160	2
165	131
166	140
167	11
168	2
169	8
170	4
171	34
172	14
173	309
174	19
175	8
176	4
181	4
182	1
183	3
184	1
185	1
186	9
187	177
188	139
189	34
190	6
197	45
198	4
199	5
200	10
202	54
203	91
204	56
205	4
207	5
213	1
214	5
215	3
218	37
219	11
221	11
227	4
228	9
229	299
230	52
231	12
232	19
234	4
245	4
258	3
259	156
260	85
261	16
262	2
263	3
