Mass Spectrum: Androstane-3,11-diol, (3.beta.,5.alpha.,11.beta.)-, 2TMS derivative
Formula: C25H48O2Si2
CAS: 33283-00-0
Molecular weight: 436
m/z	intensity
41	350
42	30
43	180
44	70
45	260
46	20
47	105
53	95
54	25
55	600
56	30
57	50
58	25
59	200
60	50
61	220
62	20
65	45
66	30
67	700
68	60
69	180
70	20
71	30
72	70
73	999
74	340
75	999
76	240
77	330
78	50
79	550
80	125
81	800
82	115
83	130
85	35
87	30
89	110
91	550
92	160
93	650
94	305
95	850
96	75
97	50
99	30
101	200
102	30
103	200
104	60
105	500
106	300
107	800
108	400
109	300
110	35
111	25
113	45
115	65
116	85
117	200
118	85
119	300
120	175
121	250
122	75
123	70
125	25
127	60
128	40
129	240
130	95
131	300
132	75
133	340
134	120
135	200
136	35
137	30
141	75
142	110
143	520
144	105
145	305
146	160
147	620
148	360
149	360
150	60
151	30
155	170
156	999
157	210
158	80
159	210
160	190
161	225
162	125
163	95
164	20
165	30
167	45
168	35
169	560
170	110
171	80
172	20
173	150
174	190
175	140
176	45
177	20
180	55
181	120
182	85
183	120
184	480
185	150
186	45
187	80
188	60
189	45
193	20
194	35
195	55
196	80
197	600
198	140
199	110
200	55
201	100
202	70
203	25
209	35
211	25
213	65
214	45
215	240
216	55
217	35
223	55
227	65
228	50
229	50
230	60
235	20
236	20
237	40
239	40
241	450
242	95
243	45
249	25
254	20
255	120
256	700
257	190
258	25
265	25
289	20
290	25
303	20
305	20
317	25
318	35
319	25
320	240
321	60
329	35
331	300
332	95
333	30
339	115
340	50
341	20
344	50
345	40
346	360
347	120
348	30
421	70
422	25
423	10
435	15
436	250
437	105
438	40
439	10
