Mass Spectrum: Pregnan-3,6-diol-20-one, O-methyloxime, 2TMS derivative
Formula: C28H53NO3Si2
CAS: 33287-44-4
Molecular weight: 507
m/z	intensity
41	35
42	65
43	30
44	50
45	25
46	5
47	5
51	5
53	10
54	10
55	50
56	10
57	35
58	20
59	25
60	5
61	15
65	5
66	5
67	50
68	45
69	20
70	250
71	20
72	15
73	450
74	85
75	220
76	15
77	30
78	10
79	85
80	10
81	135
82	25
83	45
84	25
85	15
86	5
87	450
88	50
89	20
91	95
92	15
93	120
94	30
95	135
96	25
97	15
98	5
99	25
100	999
101	100
102	10
103	25
104	10
105	85
106	30
107	70
108	30
109	25
110	15
111	5
112	15
113	50
114	40
115	90
116	15
117	40
118	15
119	75
120	25
121	65
122	25
123	20
124	10
125	5
126	30
127	15
128	10
129	50
130	20
131	55
132	25
133	80
134	35
135	45
136	20
137	15
138	5
139	5
140	5
141	10
142	15
143	35
144	25
145	50
146	25
147	125
148	25
149	35
150	10
151	10
152	10
153	5
154	5
155	25
156	20
157	45
158	20
159	75
160	20
161	40
162	10
163	10
164	15
165	5
166	25
167	10
168	10
169	35
170	10
171	35
172	15
173	35
174	30
175	15
176	10
177	5
178	5
179	5
180	5
181	25
182	10
183	20
184	15
185	25
186	15
187	15
188	10
189	10
190	5
191	10
192	5
193	10
194	10
195	20
196	5
197	60
198	10
199	40
200	20
201	10
202	15
203	5
204	10
205	10
206	25
207	20
208	10
209	10
210	10
211	15
212	10
213	70
214	15
215	20
216	10
217	5
218	5
219	5
220	5
221	10
222	10
223	30
224	15
225	15
226	15
227	15
228	55
229	25
230	5
232	10
233	5
234	10
235	5
236	5
237	25
238	15
239	55
240	55
241	120
242	30
243	15
244	5
245	5
246	5
247	5
248	5
249	10
250	5
251	5
252	5
253	10
254	40
255	30
256	10
257	5
258	5
259	5
260	5
262	5
263	5
264	5
265	5
266	5
267	5
268	15
269	5
270	5
272	45
273	15
274	10
275	5
276	5
279	35
280	30
281	15
282	10
283	5
286	5
287	5
288	10
289	5
290	5
291	5
292	5
294	5
295	5
296	190
297	65
298	15
299	5
300	5
303	25
304	5
305	5
312	45
313	10
314	15
315	10
316	5
317	5
318	35
319	10
320	5
326	10
327	25
328	90
329	45
330	25
331	40
332	20
333	5
344	20
345	5
346	5
358	5
362	5
369	5
370	10
371	5
372	5
386	195
387	45
388	20
389	5
402	30
403	15
404	5
408	5
409	5
416	5
417	25
418	15
419	5
420	5
421	5
460	5
461	5
462	5
463	5
474	5
475	20
476	190
477	110
478	35
479	10
492	15
493	5
506	5
507	20
508	10
509	5
