Mass Spectrum: 3.beta.,16.alpha.,17.beta.-Tris(trimethylsiloxy)androst-5-ene
Formula: C28H54O3Si3
CAS: 33287-32-0
Molecular weight: 522
m/z	intensity
41	30
42	3
43	33
44	21
45	36
46	3
47	9
50	3
51	3
52	6
53	9
54	3
55	57
56	9
57	24
58	3
59	27
60	3
61	15
65	6
66	3
67	45
68	9
69	30
70	6
71	15
72	12
73	999
74	87
75	238
76	15
77	27
78	9
79	60
80	9
81	87
82	12
83	15
84	3
85	15
86	3
87	6
88	3
89	15
90	3
91	72
92	15
93	69
94	15
95	54
96	18
97	15
98	6
99	9
101	21
102	6
103	69
104	15
105	96
106	21
107	69
108	15
109	24
110	6
111	9
112	3
113	9
114	3
115	27
116	15
117	87
118	24
119	84
120	30
121	30
122	6
123	9
124	3
125	6
126	3
127	9
128	12
129	268
130	51
131	117
132	33
133	96
134	18
135	18
136	3
137	3
138	3
139	3
140	3
141	24
142	30
143	120
144	45
145	99
146	24
147	238
148	36
149	33
150	6
151	9
152	3
153	9
154	9
155	36
156	42
157	99
158	63
159	69
160	18
161	15
162	3
163	9
164	3
165	9
166	3
167	18
168	39
169	78
170	30
171	54
172	21
173	30
174	6
175	9
176	3
177	9
178	3
179	9
180	6
181	36
182	24
183	51
184	21
185	54
186	15
187	18
188	3
189	9
190	3
191	142
192	24
193	24
194	12
195	39
196	39
197	75
198	30
199	30
200	12
201	6
202	3
203	33
204	39
205	54
206	15
207	3
208	33
209	39
210	24
211	72
212	30
213	199
214	39
215	9
217	21
218	18
219	24
220	9
221	30
222	27
223	30
224	18
225	24
226	30
227	36
228	6
229	3
230	3
231	12
232	12
233	15
234	18
235	18
236	12
237	157
238	36
239	301
240	60
241	9
242	3
243	3
244	3
245	3
246	3
247	12
248	9
249	9
250	6
251	24
252	160
253	87
254	15
255	3
256	3
257	6
258	3
259	6
260	3
261	6
262	3
263	3
265	3
267	9
268	3
269	6
270	3
271	9
272	3
273	18
274	6
275	15
276	6
277	6
278	3
281	3
282	12
283	12
284	3
285	6
286	6
287	15
288	9
289	3
290	3
295	3
299	6
300	3
301	27
302	15
303	63
304	18
305	6
311	3
312	9
313	12
314	9
315	9
316	12
317	6
318	3
324	3
325	6
326	3
327	111
328	45
329	211
330	60
331	15
332	3
339	3
340	3
341	15
342	123
343	51
344	15
345	3
355	15
356	6
357	6
358	3
359	3
360	9
361	3
363	3
377	3
391	6
392	6
393	9
394	3
401	3
403	3
404	3
405	3
406	3
407	3
415	3
416	3
417	51
418	21
419	15
420	3
429	9
430	6
431	15
432	241
433	90
434	33
435	9
436	3
503	3
504	3
505	3
507	15
508	9
509	3
520	3
521	6
522	84
523	39
524	18
525	3
