Mass Spectrum: Silane, (pregn-5-en-3.beta.,21-ylenedioxy)bis[trimethyl-
Formula: C27H50O2Si2
CAS: 33283-12-4
Molecular weight: 462
m/z	intensity
41	40
43	40
44	20
45	40
55	80
59	25
61	25
67	50
69	30
70	25
73	999
74	80
75	320
76	20
77	40
79	60
81	90
83	20
85	20
89	20
91	90
92	20
93	100
94	20
95	70
96	20
102	20
103	30
105	100
106	30
107	120
108	30
109	50
111	100
115	20
116	20
117	400
118	60
119	150
120	65
121	110
122	20
128	20
129	999
130	160
131	120
132	30
133	80
134	20
135	40
141	20
142	30
143	160
144	30
145	120
146	30
147	80
148	30
149	25
155	40
156	30
157	50
158	30
159	80
160	50
161	110
162	20
169	30
171	30
173	40
174	20
175	20
181	20
183	30
185	35
187	20
189	30
197	30
199	20
207	60
208	20
209	30
211	20
213	50
214	20
215	260
216	60
217	20
221	35
225	40
239	90
240	20
241	10
243	250
244	40
251	30
253	20
254	55
255	40
265	20
267	40
281	50
282	20
329	17
330	20
331	20
332	100
333	300
334	20
344	20
356	30
357	130
358	40
370	40
371	20
372	320
373	120
374	30
406	80
407	35
408	10
413	40
414	10
429	20
445	10
446	10
447	220
448	90
449	40
450	10
460	10
461	10
462	160
463	70
464	30
