Mass Spectrum: L-Valine, N-[N-[N2,N6-bis(1-oxodecyl)-L-lysyl]glycyl]-, methyl ester
Formula: C34H64N4O6
CAS: 33281-02-6
Molecular weight: 624
m/z	intensity
41	750
42	223
43	805
44	428
55	633
56	327
57	935
59	568
68	218
69	480
70	999
71	675
72	829
73	196
83	342
84	610
85	335
95	144
98	191
101	186
110	475
112	675
127	614
129	144
132	349
141	140
155	168
167	130
169	101
172	141
184	69
189	358
196	60
212	100
224	378
230	107
238	135
258	74
264	279
281	572
284	288
295	65
298	433
323	52
337	51
395	65
413	88
437	302
452	116
453	51
466	24
467	51
469	102
494	93
497	23
512	116
526	33
565	37
593	28
606	23
624	163
625	7
