Mass Spectrum: Silane, (androst-4-en-11.beta.,17.beta.-ylenedioxy)bis[trimethyl-
Formula: C25H46O2Si2
CAS: 33283-04-4
Molecular weight: 434
m/z	intensity
41	165
42	20
43	120
44	60
45	170
47	40
53	60
54	20
55	220
56	25
57	55
58	20
59	120
60	20
61	70
65	35
66	20
67	260
68	35
69	120
70	25
71	35
72	60
73	999
74	280
75	999
76	75
77	200
78	40
79	320
80	75
81	390
82	75
83	80
84	20
85	30
89	50
91	390
92	100
93	440
94	190
95	270
96	35
97	40
99	30
101	170
102	25
103	155
104	55
105	570
106	390
107	520
108	170
109	185
110	40
111	30
113	30
115	120
116	120
117	270
118	290
119	335
120	150
121	190
122	160
123	90
124	20
125	20
127	60
128	40
129	540
130	170
131	270
132	120
133	350
134	165
135	210
136	315
137	50
141	100
142	120
143	625
144	200
145	330
146	260
147	480
148	200
149	370
150	60
151	25
153	30
154	25
155	90
156	180
157	175
158	240
159	310
160	180
161	115
162	150
163	60
164	20
165	25
167	85
168	80
169	999
170	150
171	100
172	75
173	140
174	290
175	90
176	20
177	20
179	30
181	130
182	375
183	170
184	40
185	80
186	80
187	90
188	20
189	20
191	215
192	35
193	40
194	30
195	180
196	140
197	100
198	40
199	165
200	290
201	110
202	80
203	30
204	100
205	30
207	80
208	30
209	35
211	75
212	70
213	305
214	70
215	150
216	40
217	30
219	25
221	60
222	30
223	70
224	30
225	70
226	80
227	75
228	560
229	110
230	50
231	25
234	20
235	50
236	30
237	40
238	20
239	300
240	60
241	85
242	20
243	50
244	80
245	30
249	90
250	30
251	20
252	25
253	70
254	420
255	160
256	40
257	20
281	30
285	20
286	30
289	55
290	140
291	40
301	25
302	20
303	50
304	20
315	20
316	20
317	20
318	20
329	235
330	90
331	90
332	20
343	30
344	260
345	260
346	120
347	25
355	30
419	10
429	10
434	130
435	45
436	20
