Mass Spectrum: Silane, (pregn-4-en-11.beta.,21-ylenedioxy)bis[trimethyl-
Formula: C27H50O2Si2
CAS: 33283-09-9
Molecular weight: 462
m/z	intensity
41	215
42	50
43	220
44	55
45	160
47	50
53	65
54	20
55	310
56	30
57	70
59	90
61	70
65	35
66	20
67	295
68	40
69	160
70	60
71	45
72	40
73	999
74	230
75	999
76	80
77	150
78	40
79	325
80	55
81	500
82	55
83	95
84	20
85	55
89	35
91	410
92	85
93	315
94	105
95	310
96	40
97	50
98	60
99	30
101	50
103	125
104	40
105	500
106	175
107	380
108	120
109	255
110	50
111	700
112	80
113	35
115	65
116	50
117	999
118	180
119	265
120	130
121	160
122	75
123	170
124	35
125	30
127	105
128	50
129	180
130	100
131	265
132	85
133	210
134	65
135	130
136	45
137	55
141	85
142	180
143	999
144	210
145	265
146	110
147	280
148	85
149	110
150	25
151	35
153	20
154	20
155	90
156	210
157	210
158	85
159	180
160	70
161	115
162	45
163	75
164	20
165	45
167	55
168	50
169	170
170	70
171	90
172	105
173	120
174	80
175	95
176	35
177	60
178	20
179	70
180	100
181	290
182	155
183	150
184	105
185	120
186	50
187	50
188	30
189	40
190	20
191	40
192	20
193	100
194	580
195	285
196	260
197	150
198	50
199	70
200	25
201	40
202	20
203	20
205	25
206	20
207	100
208	60
209	100
210	35
211	75
212	35
213	70
214	45
215	55
216	25
217	30
219	30
220	20
221	60
222	25
223	40
224	25
225	85
226	75
227	75
228	60
229	50
230	265
231	70
232	20
233	40
234	30
235	55
236	25
237	30
238	20
239	35
240	45
241	50
242	30
243	35
244	20
245	20
246	20
247	55
248	20
249	60
250	25
251	65
252	35
253	60
254	45
255	120
256	60
257	30
258	25
261	20
263	20
264	100
265	100
266	25
267	125
268	30
269	45
270	30
271	20
275	20
277	90
278	40
279	20
280	185
281	120
282	130
283	100
284	80
285	45
289	30
296	20
298	60
299	25
300	30
301	30
302	20
315	25
316	25
317	40
318	25
319	20
331	60
332	60
333	20
334	25
343	80
344	45
345	30
346	25
355	45
356	45
357	750
358	250
359	80
360	40
370	115
371	90
372	350
373	155
374	70
375	30
386	20
388	55
389	20
390	25
428	20
433	110
434	45
435	20
445	20
446	10
447	90
448	40
449	20
460	35
461	30
462	300
463	120
464	60
465	15
