Mass Spectrum: 6.alpha.-Hydroxyestradiol, 3TMS derivative
Formula: C27H48O3Si3
CAS: 33287-47-7
Molecular weight: 504
m/z	intensity
41	65
43	55
44	40
45	285
46	20
47	105
53	25
55	85
57	20
59	140
60	20
61	65
67	80
69	30
72	35
73	999
74	250
75	999
76	70
77	85
79	60
81	100
85	20
91	50
93	60
95	60
101	55
103	30
105	30
107	40
115	100
116	30
117	30
119	20
127	20
128	30
129	140
130	20
131	30
133	50
141	50
145	30
147	90
148	20
149	25
152	20
153	20
154	20
155	30
157	25
159	40
165	30
167	20
169	50
170	20
171	20
177	30
178	20
179	50
182	60
183	45
185	30
189	30
191	20
192	20
193	20
195	30
199	30
201	95
202	20
203	50
204	25
205	50
213	40
214	20
215	85
216	110
217	90
218	100
219	30
227	40
228	20
229	560
230	290
231	140
232	50
242	160
243	100
244	50
245	20
253	25
254	25
255	45
256	45
257	30
265	30
267	45
268	45
269	70
270	50
271	30
281	60
282	50
283	280
284	115
285	80
286	20
295	40
296	115
297	40
298	80
299	25
309	180
310	50
317	25
323	70
324	175
325	65
399	45
400	20
401	10
413	65
414	999
415	410
416	165
417	30
489	25
490	10
504	10
