Mass Spectrum: 3,17-Dihydroxypregnan-20-one o-methyloxime (3.alpha., 5.alpha.)-, 2TMS derivative
Formula: C28H53NO3Si2
CAS: 33287-42-2
Molecular weight: 507
m/z	intensity
41	320
42	140
43	260
44	160
45	120
47	50
50	20
51	20
52	20
53	50
54	30
55	280
56	60
57	140
58	40
59	160
60	20
61	90
65	20
66	20
67	230
68	210
69	140
70	100
71	80
72	80
73	999
74	200
75	800
76	80
77	100
78	40
79	220
80	60
81	300
82	70
83	100
84	80
85	60
86	30
87	40
88	20
89	130
90	20
91	220
92	50
93	270
94	110
95	210
96	80
97	70
98	40
99	40
100	40
101	80
102	20
103	70
104	30
105	210
106	60
107	260
108	80
109	120
110	30
111	40
112	30
113	60
114	120
115	130
116	60
117	120
118	40
119	140
120	60
121	130
122	60
123	50
124	20
125	20
126	20
127	40
128	40
129	130
130	60
131	120
132	60
133	180
134	70
135	100
136	40
137	20
138	20
140	20
141	40
142	100
143	100
144	80
145	140
146	60
147	260
148	80
149	70
150	20
151	30
152	20
154	40
155	80
156	500
157	120
158	400
159	160
160	60
161	100
162	40
163	30
165	20
167	20
168	30
169	100
170	260
171	100
172	260
173	100
174	50
175	120
176	40
177	40
178	20
179	20
181	30
182	60
183	60
184	90
185	60
186	50
187	170
188	620
189	110
190	50
191	70
192	20
193	50
195	20
196	30
197	40
198	60
199	40
200	120
201	50
202	30
203	30
207	300
208	110
209	60
210	20
211	20
213	40
214	40
215	60
216	20
217	40
221	80
222	40
223	30
224	30
225	20
227	30
229	50
230	20
239	30
241	60
253	20
255	200
256	60
267	30
268	20
271	30
272	40
279	40
280	20
281	150
282	60
283	40
295	60
296	240
297	60
312	30
326	40
327	40
328	20
329	30
341	40
355	100
356	40
357	20
358	40
361	40
362	20
364	240
365	80
366	20
369	40
370	20
386	220
387	80
388	40
401	10
402	50
403	10
414	10
415	10
416	40
418	40
419	30
429	60
430	20
431	20
434	40
435	30
475	60
476	999
477	420
478	180
479	60
492	90
493	40
494	20
503	30
507	340
508	140
509	60
