Mass Spectrum: N,N-Dimethylamphetamine
Formula: C11H17N
CAS: 33286-27-0
Molecular weight: 163
m/z	intensity
40	4
41	17
42	65
43	8
44	39
45	1
50	9
51	20
52	6
53	2
54	5
55	7
56	50
57	16
58	4
61	1
62	6
63	18
64	7
65	62
66	5
67	1
68	1
70	39
72	999
73	48
74	4
75	3
76	4
77	22
78	15
79	4
80	1
81	1
82	1
84	1
86	1
87	1
89	18
91	123
92	11
93	1
94	1
101	1
102	4
103	9
104	5
105	4
106	1
113	1
115	17
116	6
117	15
118	7
119	2
120	1
128	1
130	3
131	2
132	4
133	6
134	1
144	2
146	6
147	3
148	11
149	1
160	2
161	1
162	2
163	1
