Mass Spectrum: 3,6-Dihydroxypregnan-20-one, (3.alpha.,5.beta.,6.alpha.)-, 2TMS derivative
Formula: C27H50O3Si2
CAS: 33287-43-3
Molecular weight: 478
m/z	intensity
41	110
43	999
44	50
45	120
47	35
53	35
55	210
57	30
58	20
59	75
61	65
67	200
68	30
69	100
71	180
72	35
73	999
74	140
75	630
76	60
77	95
78	20
79	25
80	40
81	450
82	40
83	60
84	110
85	250
86	20
89	30
91	220
92	50
93	350
94	90
95	400
96	40
97	30
99	20
101	75
103	55
105	350
106	130
107	300
108	60
109	140
111	25
113	25
115	40
116	35
117	120
118	40
119	250
120	60
121	165
122	40
123	55
125	20
127	20
128	20
129	210
130	50
131	180
132	50
133	240
134	55
135	175
136	30
137	80
141	35
142	50
143	145
144	40
145	200
146	55
147	450
148	85
149	210
150	35
151	65
154	20
155	100
156	40
157	210
158	45
159	215
160	65
161	300
162	50
163	55
165	35
167	20
168	40
169	65
170	20
171	80
172	30
173	105
174	30
175	100
176	25
177	45
179	20
181	40
182	25
183	45
184	20
185	85
186	30
187	65
188	20
189	90
190	40
191	130
192	30
193	40
195	45
196	75
197	65
198	25
199	85
200	25
201	55
202	30
203	50
204	150
205	45
206	20
207	25
208	25
209	30
211	40
212	20
213	175
214	50
215	85
216	25
217	45
218	20
225	60
226	20
227	60
228	110
229	60
230	30
231	20
233	35
239	35
240	45
241	90
242	40
243	190
244	135
245	35
251	310
252	75
253	45
254	20
255	170
256	50
257	50
259	80
265	45
269	30
270	30
272	60
280	30
281	140
282	40
283	200
284	50
285	25
292	25
293	15
297	30
298	999
299	440
300	80
301	15
303	25
304	25
305	15
318	40
319	25
320	15
331	15
332	15
333	190
334	60
335	20
373	125
374	40
375	35
376	10
387	25
388	300
389	100
390	25
463	10
478	105
479	45
480	15
