Mass Spectrum: Furane-2-carboxamide, N-naphtho[1,2-d]thioazol-2-yl-
Formula: C16H10N2O2S
CAS: 332931-73-4
Molecular weight: 294
m/z	intensity
33	3
34	1
36	1
37	6
38	23
39	138
40	19
41	3
42	1
43	2
44	6
45	21
46	0
47	0
48	0
49	0
50	4
51	13
52	2
53	6
54	0
55	1
56	0
57	1
58	0
59	0
60	0
61	0
62	3
63	10
64	3
65	2
66	4
67	26
69	18
70	3
71	2
73	1
74	4
75	10
76	6
77	13
78	1
79	1
80	0
81	1
82	2
83	0
84	0
85	1
86	5
87	4
88	5
89	2
90	0
91	0
93	6
95	999
96	50
97	5
98	1
99	2
100	4
101	25
102	9
103	3
104	0
105	1
106	1
107	0
108	2
109	0
110	0
111	1
112	2
113	13
114	21
115	5
116	0
117	1
118	0
119	1
120	1
121	0
122	0
123	0
125	0
126	3
127	13
128	44
129	6
130	0
131	0
132	0
133	0
134	0
135	0
137	0
138	1
139	2
140	21
141	10
142	1
143	0
144	1
145	8
146	4
147	5
148	0
149	2
150	0
151	0
152	1
153	2
154	5
155	101
156	13
157	1
158	26
159	3
160	1
164	0
165	1
166	1
167	0
168	0
169	0
170	6
171	4
172	24
173	6
174	1
175	0
176	0
177	0
178	0
179	0
180	0
183	0
184	0
185	21
186	4
187	1
195	0
197	1
198	3
199	47
200	60
201	25
202	4
203	1
204	0
205	0
206	0
208	0
209	0
210	3
211	17
212	3
213	1
222	0
223	0
224	0
225	0
226	19
227	9
228	1
229	0
233	1
234	0
235	0
236	1
237	24
238	11
239	2
240	3
241	0
250	0
251	2
252	0
253	0
264	0
265	26
266	52
267	10
268	3
269	0
277	0
292	0
294	439
295	83
296	27
297	4
298	0
