Mass Spectrum: Heptanoic acid, 2,6-dimethyl-, methyl ester
Formula: C10H20O2
CAS: 33315-72-9
Molecular weight: 172
m/z	intensity
14	16
15	39
27	56
29	78
39	44
40	10
41	157
42	50
43	146
45	10
55	129
56	36
57	129
59	75
69	72
70	10
71	65
73	33
82	18
83	31
87	72
88	999
89	42
97	56
98	13
101	213
102	21
113	13
115	17
129	47
141	28
157	13
