Mass Spectrum: 1,3,4-Thiadiazole, 2-amino-5-(heptylthio)-
Formula: C9H17N3S2
CAS: 33313-10-9
Molecular weight: 231
m/z	intensity
39	310
40	100
41	999
42	230
43	640
45	180
46	80
47	90
55	320
57	390
59	90
60	640
70	80
74	170
76	60
77	50
100	50
102	70
133	480
134	220
135	110
147	70
170	20
184	120
185	10
198	10
231	50
