Mass Spectrum: 4-Thiazoleacetic acid, 2-(p-chlorophenyl)-, hydrazide
Formula: C11H10ClN3OS
CAS: 33313-15-4
Molecular weight: 267
m/z	intensity
39	36
43	18
44	18
45	562
46	18
47	30
50	41
51	36
52	18
69	94
70	146
71	999
72	152
73	53
74	29
75	17
76	46
77	12
97	18
98	64
102	99
103	23
104	23
111	94
112	12
113	29
130	18
137	53
138	351
139	53
140	117
141	23
149	12
155	39
157	12
172	18
173	23
174	58
181	12
201	9
208	848
209	902
210	386
211	386
212	46
213	18
234	41
235	152
236	541
237	141
238	211
239	29
240	18
252	46
254	18
267	869
268	141
269	375
270	46
271	23
