Mass Spectrum: Propanoic acid, 3-(acetylthio)-2-methyl-
Formula: C6H10O3S
CAS: 33325-40-5
Molecular weight: 162
m/z	intensity
26	14
27	62
28	18
29	17
31	7
32	5
33	3
37	5
38	15
39	117
40	17
41	142
42	199
43	999
44	25
45	171
46	49
47	66
48	3
55	17
56	22
57	9
58	26
59	27
61	79
63	5
69	19
71	13
72	3
73	51
74	91
75	18
76	8
87	17
91	5
101	8
102	119
103	10
104	5
119	4
120	21
121	1
122	1
162	15
163	1
164	0
