Mass Spectrum: (4-Chloro-2-nitro-phenyl)-(2,3-dihydro-indol-1-yl)-methanone
Formula: C15H11ClN2O3
CAS: 333346-73-9
Molecular weight: 302
m/z	intensity
33	7
34	2
35	3
36	16
37	11
38	28
39	84
40	36
41	25
42	3
43	5
44	27
46	5
47	0
48	1
50	56
51	57
52	20
53	10
54	2
55	2
56	1
57	2
59	11
60	3
61	12
62	34
63	92
64	38
65	170
66	11
67	1
68	0
69	1
70	1
71	1
72	2
73	14
74	53
75	127
76	108
77	32
78	12
79	2
80	0
81	1
82	4
84	13
85	12
86	6
87	9
89	104
90	116
91	450
92	33
93	1
95	6
97	1
98	4
99	9
100	2
101	5
102	3
103	4
104	2
105	0
106	0
107	0
110	84
111	21
112	27
113	9
114	4
117	305
118	999
119	107
120	6
121	0
123	0
124	1
125	1
126	8
127	4
128	4
129	2
130	0
132	1
133	0
134	0
135	0
138	28
139	7
140	9
141	2
149	0
150	0
151	0
152	1
153	3
154	5
155	10
156	2
157	2
163	1
164	2
165	3
166	0
167	0
168	1
169	0
170	0
171	1
173	0
177	0
178	0
182	1
184	23
185	10
186	7
187	3
188	0
189	0
190	2
191	4
192	1
193	0
219	1
220	0
254	0
255	0
256	0
302	35
303	5
304	9
305	1
