Mass Spectrum: N-(3-(Diethylamino)propyl)-p-ethoxybenzamide
Formula: C16H26N2O2
CAS: 333348-65-5
Molecular weight: 278
m/z	intensity
26	1
27	6
28	16
29	16
30	42
39	7
41	9
42	14
43	5
44	13
49	1
50	1
51	1
53	1
54	2
55	2
56	25
57	10
58	70
59	4
63	2
64	4
65	20
66	2
67	1
68	2
69	2
70	11
71	18
72	245
73	13
74	5
75	1
76	4
77	3
82	2
83	3
84	141
85	15
86	999
87	65
88	1
91	2
92	7
93	30
94	3
95	2
96	2
97	2
98	22
99	9
100	66
101	5
103	1
104	3
105	1
107	1
108	1
110	2
111	5
112	16
113	11
114	3
117	4
118	1
119	13
120	11
121	103
122	9
123	1
125	1
127	1
129	3
131	1
133	1
135	1
137	2
139	2
147	8
148	2
149	192
150	21
151	2
162	1
164	4
165	18
166	16
167	2
176	1
177	3
178	18
179	5
190	1
192	5
193	2
204	3
205	2
206	156
207	30
208	14
209	2
221	1
231	1
232	7
233	1
234	1
235	6
236	1
249	278
250	59
251	7
261	4
262	1
263	19
264	3
276	3
277	2
278	70
279	20
280	3
