Mass Spectrum: N(2)-Isobutyryl-2-methylalaninamide
Formula: C8H16N2O2
CAS: 3333-53-7
Molecular weight: 172
m/z	intensity
15	6
16	1
17	9
18	1
26	1
27	22
28	13
29	3
30	4
31	1
38	1
39	16
40	4
41	66
42	56
43	263
44	38
45	2
46	1
53	1
54	2
55	7
56	5
57	20
58	999
59	48
60	1
68	4
69	19
70	16
71	83
72	9
73	1
83	2
84	14
85	3
86	64
87	18
88	4
96	1
100	1
101	13
102	1
111	5
112	4
114	9
126	5
127	4
128	461
129	71
130	4
139	1
140	1
154	6
155	3
156	5
172	5
173	7
