Mass Spectrum: Thiophene-2-carboxamide, N-(5-heptyl-1,3,4-thiadiazol-2-yl)-
Formula: C14H19N3OS2
CAS: 333393-55-8
Molecular weight: 309
m/z	intensity
33	2
34	2
35	0
36	1
37	3
39	268
40	30
41	155
42	23
43	104
44	12
45	31
46	3
47	5
48	0
49	0
50	4
51	5
52	4
53	19
54	17
55	64
56	15
57	48
58	28
59	13
60	6
61	2
62	0
63	1
64	2
65	4
66	3
67	21
68	7
69	22
70	11
71	24
72	6
73	7
74	1
75	3
76	1
77	4
78	0
79	4
80	3
81	14
82	23
83	84
84	16
85	9
86	4
87	5
88	0
89	0
90	0
91	1
92	0
93	0
94	1
95	2
96	5
97	12
98	3
99	2
100	2
101	3
102	0
103	0
104	0
105	0
106	0
107	0
108	1
111	999
112	61
113	47
114	8
115	26
116	3
117	1
118	0
119	0
120	0
121	0
122	0
123	1
124	4
125	1
126	3
127	2
128	4
129	3
130	0
135	0
136	0
137	0
138	0
139	0
140	1
141	2
142	1
143	2
144	0
145	2
147	0
149	0
150	0
152	2
153	16
154	3
155	1
156	1
157	6
158	0
159	0
166	0
167	0
168	0
169	0
170	1
171	5
172	0
181	0
182	0
183	0
184	0
185	0
186	0
187	0
189	0
191	0
196	0
197	0
198	0
199	0
200	0
212	1
213	0
221	0
222	2
225	201
226	25
227	17
228	1
229	0
234	0
235	0
236	1
238	64
239	13
240	6
241	3
242	0
250	0
251	0
252	6
253	0
254	1
255	0
259	0
264	0
266	12
267	2
268	1
269	0
276	0
278	0
280	16
281	3
282	1
283	1
294	1
295	0
296	0
306	0
308	13
309	26
310	5
311	2
312	0
