Mass Spectrum: Benzamide, 3,4-dichloro-N-(3-dimethylaminopropyl)-
Formula: C12H16Cl2N2O
CAS: 333347-10-7
Molecular weight: 274
m/z	intensity
35	10
36	45
38	19
39	7
40	13
41	18
42	89
43	31
44	63
45	18
46	3
47	0
49	1
50	7
51	2
52	1
53	2
54	3
55	5
56	31
58	999
59	37
61	3
62	1
63	2
64	1
65	1
67	0
68	3
69	2
70	35
71	13
72	64
74	40
75	33
76	3
77	2
78	0
79	0
80	0
81	1
82	2
84	36
85	17
86	5
87	2
88	1
89	1
90	0
91	1
92	0
93	0
94	0
95	0
96	0
97	1
98	0
99	3
100	1
101	2
102	2
103	1
104	0
105	0
106	1
107	1
108	2
109	50
110	22
111	23
112	7
113	2
114	0
115	0
117	0
119	2
121	1
122	0
123	0
124	0
125	1
126	0
127	2
128	0
129	2
130	1
131	1
132	0
133	0
135	0
136	0
137	1
138	6
139	5
140	2
141	0
144	1
145	94
146	9
147	61
149	16
150	1
151	0
152	0
153	0
155	1
159	1
160	0
161	1
162	0
164	0
165	4
166	0
167	0
168	2
170	0
171	0
173	98
174	8
175	61
177	14
178	0
181	0
183	0
186	0
187	1
188	0
189	1
190	4
191	0
192	2
193	0
194	0
201	0
202	13
204	10
205	1
206	1
209	0
211	0
214	0
215	0
216	1
217	0
218	0
230	3
231	0
232	1
234	0
259	1
261	1
272	0
274	34
275	5
276	22
277	3
278	3
279	0
