Mass Spectrum: (2-Benzyl-benzoimidazol-1-yl)-piperidin-1-yl-methanone
Formula: C20H21N3O
CAS: 333311-47-0
Molecular weight: 319
m/z	intensity
33	1
34	3
36	1
37	3
38	16
39	102
40	68
41	699
42	93
43	76
44	23
45	1
46	0
50	21
51	55
52	23
53	18
54	20
55	65
56	172
57	11
58	1
59	0
60	0
61	1
62	13
63	57
64	39
65	143
66	10
67	24
69	819
70	91
71	3
72	0
73	0
74	4
75	11
76	23
77	66
78	18
79	4
80	2
81	1
82	9
84	238
85	14
86	3
87	2
89	55
90	52
91	356
92	32
93	2
94	0
95	1
96	2
97	3
98	1
99	0
100	0
102	28
103	36
104	19
105	7
106	2
107	0
108	0
110	7
112	999
113	67
114	6
115	4
116	15
117	6
118	4
119	2
120	0
121	0
123	0
125	1
126	2
127	3
128	4
129	21
130	5
131	15
132	4
133	1
134	1
135	1
137	0
138	0
139	2
140	2
141	1
142	0
143	1
144	1
145	3
146	1
147	0
148	0
149	0
150	2
151	7
152	11
153	4
154	1
155	0
156	0
157	0
158	0
160	6
161	0
163	4
164	2
165	3
166	3
167	3
168	1
169	0
170	0
171	1
172	1
173	0
175	0
176	3
177	5
178	12
179	9
180	9
181	3
182	1
189	0
190	1
191	1
192	2
193	1
194	1
195	1
196	0
200	1
201	1
202	0
203	2
205	71
206	137
207	190
208	150
209	33
210	3
211	0
218	0
219	2
220	1
221	1
222	1
223	0
224	0
225	1
226	2
228	179
229	24
230	2
231	0
234	179
235	59
236	13
237	2
238	0
241	0
249	0
250	1
251	1
252	0
253	0
263	0
264	0
265	1
266	0
267	1
268	0
319	253
320	44
321	5
