Mass Spectrum: 4H-Benz[d][1,3]-oxazin-4-one, 2-(3-bromophenyl)-6-iodo-
Formula: C14H7BrINO2
CAS: 333342-99-7
Molecular weight: 427
m/z	intensity
36	2
37	13
38	86
39	23
40	20
41	4
42	0
43	10
44	18
50	235
51	39
52	9
53	17
55	6
57	11
61	26
62	178
63	122
64	20
66	26
67	4
69	8
70	2
71	1
73	12
74	169
75	999
76	439
77	30
78	1
79	5
80	6
81	8
82	14
83	8
84	1
85	0
86	11
88	99
89	157
90	25
91	16
92	3
97	26
98	3
99	5
100	8
102	57
103	19
104	22
105	6
107	2
111	11
112	3
113	4
114	6
116	1
117	91
118	8
119	4
121	1
123	3
124	1
125	1
127	44
128	9
129	11
131	6
136	1
137	12
138	30
139	13
141	6
144	21
145	41
146	5
149	0
150	31
151	22
152	4
154	7
155	663
157	674
158	30
160	14
164	75
165	76
166	6
167	3
169	0
171	1
174	10
175	2
177	94
178	13
181	5
183	842
185	852
186	61
187	0
189	4
190	3
193	44
194	5
200	1
201	1
202	39
203	2
204	0
212	0
213	29
214	26
216	256
217	16
218	4
221	33
222	3
244	31
245	8
246	26
247	5
256	97
258	111
259	11
272	228
273	20
274	4
292	2
293	0
300	9
301	2
302	5
303	2
304	40
305	5
320	1
348	3
383	80
384	11
385	77
386	10
427	249
428	35
429	241
430	38
431	2
