Mass Spectrum: Formamide, 1-[1-(4-tolyl)-5-oxopyrrolidin-3-yl]-N-benzyl-
Formula: C19H20N2O2
CAS: 333352-41-3
Molecular weight: 308
m/z	intensity
39	263
40	52
41	287
42	32
43	28
44	35
50	42
51	153
52	45
53	18
54	18
55	173
56	12
62	5
63	66
64	24
65	330
66	14
68	11
74	1
75	3
76	15
77	232
78	90
79	109
80	9
89	77
90	59
91	999
92	134
93	10
98	25
103	5
104	120
105	55
106	174
107	48
108	2
115	5
116	7
117	28
118	113
119	53
120	804
121	74
130	50
131	19
132	47
133	39
134	0
144	43
145	6
146	47
159	6
160	13
173	10
174	53
175	2
189	8
308	15
