Mass Spectrum: 1,3,5-Triazine, 2-chloro-4,6-bis(4-benzoylaminophenylamino)-
Formula: C29H22ClN7O2
CAS: 333413-76-6
Molecular weight: 535
m/z	intensity
26	6
27	10
28	1
29	8
35	18
36	115
37	11
38	51
39	13
41	13
42	3
43	16
44	17
45	3
49	4
50	37
51	72
52	23
53	7
54	3
55	11
56	7
57	10
62	3
63	4
64	3
65	3
67	3
69	9
70	6
71	5
73	4
74	14
75	10
76	18
77	399
78	40
79	6
80	6
81	3
83	5
84	3
85	3
91	3
97	4
103	8
104	5
105	999
106	75
107	15
108	10
122	39
123	3
132	5
133	5
140	6
212	17
213	7
237	4
238	8
299	3
315	4
316	412
317	81
318	10
413	17
414	5
415	6
430	6
431	4
432	3
536	79
537	27
538	30
539	9
