Mass Spectrum: 2-Benzylthio-5-propyl-6-hydroxy-3H-pyrimidin-4-one
Formula: C14H16N2O2S
CAS: 333445-34-4
Molecular weight: 276
m/z	intensity
50	1
51	10
52	4
53	17
54	8
55	42
56	3
57	5
63	10
64	21
65	106
66	4
68	1
69	32
70	2
71	1
77	9
78	3
79	4
80	16
81	4
82	7
83	12
88	3
89	12
90	4
91	999
92	79
93	1
96	1
97	1
98	27
108	1
109	9
111	79
112	4
119	2
121	12
122	5
123	11
124	1
125	8
126	10
128	4
153	1
154	17
155	2
156	5
157	6
185	7
186	1
198	1
199	1
213	1
214	15
215	4
242	2
243	87
244	11
247	160
248	31
249	7
261	5
275	2
276	377
277	62
278	20
279	1
