Mass Spectrum: 6-[3-[2-(4-Amino-furazan-3-yl)-benzoimidazol-1-yl]-propyl]-[1,3,5]triazine-2,4-diamine
Formula: C15H16N10O
CAS: 333415-40-0
Molecular weight: 352
m/z	intensity
39	15
40	20
41	61
42	48
43	382
44	21
45	1
50	6
51	20
52	8
53	7
54	14
55	22
56	7
57	7
58	6
59	1
62	1
63	17
64	22
65	18
66	8
68	124
69	34
70	3
71	3
75	8
76	15
77	73
78	13
79	1
81	7
82	5
83	53
84	10
85	101
86	8
88	1
89	11
90	43
91	30
92	23
93	3
96	0
97	1
98	18
101	1
102	40
103	22
104	14
105	5
106	2
108	11
110	147
111	18
112	1
115	5
116	34
117	20
118	21
119	7
123	13
125	999
126	66
127	1
128	3
129	38
130	9
131	25
132	8
135	1
137	0
138	28
139	2
143	213
144	145
145	18
146	1
147	1
149	11
150	43
151	37
152	736
153	60
154	3
156	85
157	46
158	10
159	2
165	2
168	3
170	84
171	17
172	3
176	4
182	6
183	6
184	10
185	1
186	1
196	2
197	15
209	4
211	11
228	34
229	3
291	1
293	8
294	1
295	44
296	6
335	2
348	3
352	34
353	6
