Mass Spectrum: 2-Butanamine, N-nitro-
Formula: C4H10N2O2
CAS: 3335-65-7
Molecular weight: 118
m/z	intensity
30	103
39	131
41	337
42	227
43	200
44	275
45	123
46	51
55	138
56	270
57	120
59	687
72	146
89	999
103	51
118	5
