Mass Spectrum: Methanone, (3,4-difluorophenyl)(4-methyl-1-piperazinyl)-
Formula: C12H14F2N2O
CAS: 333742-29-3
Molecular weight: 240
m/z	intensity
33	1
34	0
36	1
37	4
38	4
39	13
40	27
41	76
42	432
43	319
44	85
45	3
48	0
49	1
50	13
51	5
52	4
53	6
54	45
55	59
56	351
57	95
58	393
59	13
60	1
61	6
62	29
63	151
64	7
65	1
66	1
67	4
68	24
70	999
71	91
72	27
74	14
75	8
76	1
77	2
78	0
79	1
80	3
81	12
82	16
83	100
84	14
85	5
86	1
87	5
88	2
89	0
91	1
92	4
93	18
94	11
95	6
96	4
97	19
98	36
99	171
100	12
101	2
103	0
105	1
106	0
107	1
108	0
109	0
110	1
113	281
114	19
115	0
119	0
120	0
121	0
122	1
123	0
125	2
126	2
127	7
128	1
129	0
133	0
135	0
136	0
137	0
141	270
142	16
143	1
149	1
150	0
151	0
152	0
153	2
154	2
155	3
156	1
163	0
164	1
166	0
167	0
168	2
169	1
170	1
171	0
178	0
180	0
182	5
183	6
184	6
185	1
194	2
196	49
197	6
198	5
199	0
206	0
209	0
210	2
211	5
212	0
224	0
225	1
238	7
239	10
240	81
241	9
242	0
