Mass Spectrum: Butan-1-one, 1-[3-fluoro-4-(4-phenylsulfonyl-1-piperazinyl)phenyl]-
Formula: C20H23FN2O3S
CAS: 333751-76-1
Molecular weight: 390
m/z	intensity
33	2
34	1
36	0
37	1
38	6
39	42
40	38
41	94
42	81
43	76
44	14
45	5
46	0
47	0
48	5
50	53
51	187
52	13
53	9
54	40
55	91
56	999
57	45
58	12
59	1
60	0
61	1
62	3
63	8
64	6
65	9
66	3
68	8
69	12
70	4
71	13
72	0
73	1
74	12
75	38
77	614
78	52
79	3
80	1
81	8
82	4
83	12
84	3
85	2
87	0
88	0
89	5
90	2
91	7
92	2
93	5
94	37
95	54
96	19
97	13
98	2
99	1
100	1
101	7
102	26
103	8
104	4
105	3
107	19
108	33
109	33
110	6
111	2
112	0
113	0
114	0
115	3
116	4
117	2
118	1
119	1
120	7
121	31
122	56
123	34
124	6
125	8
126	1
127	1
128	2
129	1
130	2
131	4
132	2
133	5
134	5
135	14
136	44
137	22
138	4
139	1
141	66
142	6
143	3
144	0
145	1
146	3
147	2
148	13
149	18
150	150
151	37
152	12
153	1
155	0
156	0
157	1
158	1
159	1
160	1
161	2
162	3
163	3
164	29
165	20
166	7
167	1
170	0
171	0
172	0
173	0
174	1
175	2
176	10
177	12
178	99
179	18
180	5
181	0
185	0
189	0
190	1
191	2
192	29
193	9
194	20
195	2
201	0
203	0
204	0
205	8
206	4
207	4
208	46
209	6
210	0
217	0
218	0
220	21
221	12
222	34
223	4
224	0
225	3
226	0
229	1
230	0
231	0
233	1
235	1
238	0
242	0
245	2
247	33
249	695
250	107
251	10
252	0
333	1
347	13
348	2
349	0
387	1
388	2
390	48
391	9
392	2
