Mass Spectrum: Piperazine, 1-(2-fluoro-4-nitrophenyl)-4-phenylsulfonyl-
Formula: C16H16FN3O4S
CAS: 333742-28-2
Molecular weight: 365
m/z	intensity
33	4
34	2
35	0
36	1
37	1
38	7
39	32
40	42
41	71
42	86
43	41
44	23
45	8
46	2
47	0
48	5
50	57
51	154
52	14
53	13
54	50
55	129
56	999
57	67
58	15
59	2
60	7
61	3
62	3
63	11
64	8
65	10
66	3
67	6
68	11
69	18
70	9
71	11
72	2
73	8
74	14
75	34
76	41
77	317
78	34
79	4
80	3
81	15
82	10
83	23
84	7
85	6
86	1
87	1
88	1
89	5
90	4
91	9
92	6
93	11
94	34
95	33
96	24
97	12
98	3
99	3
100	0
101	6
102	15
103	3
104	4
105	3
106	2
107	14
108	21
109	11
110	10
111	4
112	2
113	1
114	0
115	1
116	1
117	3
118	2
119	5
120	7
121	36
122	18
123	17
124	9
125	11
126	2
127	2
128	1
129	3
130	1
131	0
132	0
133	2
134	2
135	6
136	8
137	17
138	22
139	3
140	3
141	28
142	2
143	2
145	0
146	1
147	2
148	8
149	25
150	10
151	26
152	6
153	3
154	14
155	1
156	0
157	1
158	0
161	1
162	0
163	0
164	1
165	2
166	3
167	20
168	15
169	7
170	3
171	1
174	0
175	2
176	9
177	10
178	46
179	16
180	3
181	1
182	2
183	26
184	2
185	0
191	0
192	2
193	2
194	13
195	22
196	7
197	13
198	0
204	0
205	0
206	1
207	2
208	15
209	2
210	0
218	0
219	1
221	37
222	37
224	798
225	84
226	8
227	0
335	2
349	0
360	1
362	9
365	83
366	13
367	3
