Mass Spectrum: 7,8,9,10-Tetrahydro-4-hydroxy-11H,13H-benzo[4',5']thieno[3',2':4,5]pyrimidino[1,2-a]azepin-13-one
Formula: C15H14N2O2S
CAS: 333780-19-1
Molecular weight: 286
m/z	intensity
39	550
41	999
42	201
43	46
45	138
50	60
51	57
53	216
54	289
55	403
56	38
57	24
58	21
59	11
61	33
63	173
64	47
65	51
67	202
68	146
69	233
70	44
71	19
73	19
74	31
75	55
76	59
77	44
78	19
79	22
80	33
81	36
82	46
83	15
84	13
86	12
87	22
88	34
89	35
90	76
91	25
93	84
94	83
95	41
96	73
97	10
100	17
101	28
102	34
103	12
104	9
105	12
107	84
108	68
109	20
115	44
116	18
117	11
119	69
120	80
121	43
122	13
129	33
133	77
134	98
135	117
136	39
137	25
143	35
145	21
146	48
147	18
148	19
149	13
158	21
159	14
160	14
162	88
163	45
164	15
174	12
175	11
176	27
188	28
189	14
190	12
191	39
192	29
201	9
202	33
203	16
204	28
216	11
217	11
229	9
232	190
233	25
244	34
245	16
257	292
258	103
259	47
269	24
271	86
272	12
283	21
285	124
286	403
287	63
288	24
