Mass Spectrum: 1-[3-Fluoro-4-[4-(thiophene-2-carbonyl)-piperazin-1-yl]-phenyl]-butan-1-one
Formula: C19H21FN2O2S
CAS: 333751-70-5
Molecular weight: 360
m/z	intensity
33	3
34	5
36	0
37	2
38	8
39	182
40	23
41	63
42	105
43	105
44	13
45	17
46	0
47	1
49	0
50	7
51	12
52	4
53	11
54	31
55	71
56	999
57	60
58	21
59	3
60	1
61	0
62	1
63	4
64	1
65	3
66	2
67	3
68	7
69	21
70	45
71	33
72	2
73	1
74	2
75	28
76	13
77	14
78	6
79	2
80	2
81	9
82	12
83	81
84	13
85	7
86	1
87	0
88	0
89	6
90	2
91	4
92	1
93	4
94	28
95	55
96	21
97	30
98	6
99	2
100	1
101	6
102	25
103	6
104	3
105	3
106	1
107	13
108	24
109	31
111	689
112	45
113	32
114	2
115	3
116	5
117	2
118	1
119	1
120	12
121	28
122	52
123	34
124	8
125	7
126	4
127	3
128	3
129	1
130	2
131	3
132	4
133	3
134	7
135	13
136	30
137	17
138	9
139	3
140	10
141	1
142	1
143	0
144	1
145	1
146	2
147	2
148	8
149	31
150	140
151	29
152	21
153	38
154	9
155	4
156	1
157	1
158	3
159	2
160	1
161	1
162	4
163	2
164	62
165	34
166	10
167	4
168	1
169	0
170	0
171	1
172	0
173	0
174	1
175	1
176	5
177	4
178	28
179	30
180	44
181	6
182	1
183	0
185	0
186	0
187	0
188	0
189	0
190	3
192	135
193	29
194	24
195	3
196	0
200	0
201	1
202	1
203	0
204	2
205	4
206	5
207	117
208	182
209	23
210	1
213	0
216	0
218	9
220	824
221	140
222	19
223	1
226	0
227	0
228	0
229	1
230	0
231	0
232	1
233	9
234	4
235	2
236	0
238	0
241	0
242	0
245	0
247	7
248	6
249	25
250	5
251	0
252	0
254	4
255	0
263	1
277	0
281	0
283	0
290	1
291	0
297	0
303	0
317	21
318	4
319	1
327	1
328	0
331	0
332	0
340	5
341	0
342	0
344	0
345	3
346	0
347	0
360	151
361	33
362	10
363	1
