Mass Spectrum: Thiophene-2-carboxylic acid [2-(4-iodo-phenyl)-2-oxo-ethyl]-amide
Formula: C13H10INO2S
CAS: 333766-43-1
Molecular weight: 371
m/z	intensity
38	16
39	201
40	22
41	9
42	11
43	10
44	18
45	23
50	81
51	24
53	12
55	6
56	7
57	33
58	11
59	16
63	10
64	4
65	6
66	7
69	8
70	4
73	5
74	23
75	32
76	182
77	33
78	7
81	8
82	15
83	80
84	14
85	9
89	23
90	14
91	5
97	6
98	13
102	5
103	10
104	59
105	24
109	5
111	999
112	65
113	47
123	27
124	5
127	22
128	20
140	229
141	20
142	10
152	6
179	21
193	14
194	57
195	6
203	77
204	5
229	8
231	410
232	31
244	57
245	10
260	7
274	4
343	20
371	65
372	9
