Mass Spectrum: 5-(Morpholine-4-sulfonyl)-1,3-dihydro-benzoimidazol-2-one
Formula: C11H13N3O4S
CAS: 333750-01-9
Molecular weight: 283
m/z	intensity
33	10
34	3
36	3
37	3
38	15
39	41
40	10
41	83
42	100
43	47
44	52
45	16
48	7
49	2
50	46
51	93
52	59
53	28
54	57
55	85
56	999
57	95
58	16
59	5
60	2
61	4
62	17
63	55
64	26
65	13
66	9
67	3
68	2
69	7
70	5
71	4
72	8
75	8
76	34
77	81
78	122
79	16
80	3
82	2
83	4
84	17
86	868
87	47
88	6
90	9
91	5
92	4
93	5
94	1
97	0
104	34
105	194
106	25
119	0
120	1
121	10
133	237
134	65
135	5
147	18
148	70
149	72
150	6
153	1
160	5
161	13
171	1
181	13
188	4
197	93
198	11
199	2
218	7
219	9
225	0
239	2
256	0
257	3
281	5
283	167
284	22
285	15
