Mass Spectrum: 7-Propyl-3,4,5,6(2H)-tetrahydroazepine
Formula: C9H17N
CAS: 3338-05-4
Molecular weight: 139
m/z	intensity
41	121
42	109
55	151
68	78
69	110
70	229
82	150
83	290
96	519
110	257
111	999
112	90
124	491
125	30
138	89
139	220
140	20
