Mass Spectrum: 7-Butyl-3,4,5,6(2H)-tetrahydroazepine
Formula: C10H19N
CAS: 3338-06-5
Molecular weight: 153
m/z	intensity
41	87
42	49
54	69
55	90
68	40
69	50
82	120
83	209
84	59
96	211
110	290
111	999
112	70
124	228
125	30
138	40
152	19
153	19
