Mass Spectrum: 7-Phenyl-3,4,5,6(2H)-tetrahydroazepine
Formula: C12H15N
CAS: 3338-00-9
Molecular weight: 173
m/z	intensity
41	128
42	107
51	118
54	40
55	79
76	98
77	390
78	49
91	350
103	328
104	999
105	89
115	128
117	637
118	130
130	838
131	120
158	150
172	608
173	629
174	79
