Mass Spectrum: Cyclohexanol, 1-[3-(1-piperidyl)-1-propynyl]-
Formula: C14H23NO
CAS: 33382-70-6
Molecular weight: 221
m/z	intensity
33	75
34	6
35	6
36	34
37	2
38	25
39	97
40	98
41	262
42	198
43	110
44	85
45	6
48	0
50	2
51	21
52	22
53	79
55	353
56	104
57	62
58	8
59	2
62	1
63	6
64	12
65	45
67	133
68	49
69	80
70	51
71	11
72	1
73	1
74	0
76	0
77	41
78	14
79	72
80	65
81	105
82	96
84	999
85	107
86	51
87	3
89	3
90	1
91	48
92	17
93	42
94	75
95	75
96	83
97	125
98	689
99	56
100	7
101	0
103	3
104	5
105	17
106	11
107	26
108	40
109	41
110	49
111	15
112	6
113	4
114	4
115	6
116	3
117	8
118	6
119	13
120	34
122	577
123	77
124	92
125	12
126	7
127	2
128	3
129	1
131	5
132	6
133	6
134	20
135	13
136	37
137	27
138	22
139	4
140	2
141	2
142	1
143	3
144	2
145	3
146	5
148	13
149	15
150	67
151	10
152	11
153	4
156	0
158	0
159	1
160	13
161	10
162	11
163	5
164	28
165	23
166	19
167	3
168	1
169	0
170	2
171	3
172	2
173	2
174	5
175	5
176	9
178	195
179	46
180	20
181	2
182	2
187	0
188	5
189	1
190	8
191	3
192	19
193	3
194	2
199	2
200	6
201	2
202	11
203	17
204	33
205	7
206	16
207	2
209	1
210	0
212	2
213	0
215	1
216	2
217	3
218	8
220	642
221	481
222	80
223	6
224	0
227	0
230	1
