Mass Spectrum: Cyclopropanecarboxylic acid, 2,2-dimethyl-3-(1-propenyl)-, methyl ester, [1.alpha.,3.beta.(Z)]-
Formula: C10H16O2
CAS: 33383-56-1
Molecular weight: 168
m/z	intensity
39	197
41	300
43	193
51	44
53	106
55	277
59	42
65	33
67	391
69	62
73	155
77	108
79	106
81	155
91	93
93	195
94	57
95	57
109	999
110	100
137	71
139	22
153	84
154	31
168	160
169	22
