Mass Spectrum: Hexanoic acid, 6-amino-6-oxo-
Formula: C6H11NO3
CAS: 334-25-8
Molecular weight: 145
m/z	intensity
41	573
42	419
43	541
44	321
45	956
46	24
47	12
49	4
50	27
51	37
52	17
53	91
54	150
55	707
56	186
57	91
58	99
59	583
60	442
61	12
62	2
65	2
66	2
67	4
68	81
69	321
70	16
71	17
72	82
73	319
74	42
75	2
77	7
78	2
79	2
81	16
82	90
83	78
84	12
85	18
86	109
87	305
88	12
91	13
97	4
98	10
99	79
100	999
101	77
102	18
105	11
107	2
109	3
110	32
111	32
112	2
127	15
128	133
129	63
130	3
144	2
145	14
146	3
