Mass Spectrum: Diethylamine, 2,2'-dichloro-
Formula: C4H9Cl2N
CAS: 334-22-5
Molecular weight: 141
m/z	intensity
14	3
15	15
17	1
18	1
25	2
26	20
27	169
28	122
29	30
30	141
31	2
33	1
35	19
36	118
37	6
38	39
39	7
40	11
41	33
42	71
43	29
44	52
45	2
47	4
48	6
49	29
50	2
51	9
52	3
53	1
54	8
55	4
56	158
57	34
58	1
60	1
61	9
62	7
63	271
64	21
65	85
66	6
68	5
69	5
70	18
71	1
75	2
76	5
77	2
78	21
79	1
80	7
90	4
91	1
92	999
93	39
94	312
95	12
104	9
105	2
106	36
107	2
108	9
112	2
120	1
140	9
141	31
142	8
143	19
144	2
145	3
