Mass Spectrum: n-Decanoic acid
Formula: C10H20O2
CAS: 334-48-5
Molecular weight: 172
m/z	intensity
15	6
17	2
18	7
26	6
27	180
28	35
29	252
30	8
31	15
32	2
38	3
39	131
40	24
41	484
42	106
43	435
44	15
45	67
46	2
47	3
50	2
51	8
52	4
53	36
54	31
55	357
56	93
57	420
58	19
59	37
60	999
61	143
62	7
63	2
65	5
66	3
67	29
68	29
69	189
70	79
71	336
72	18
73	891
74	81
75	6
77	4
78	2
79	9
80	3
81	21
82	22
83	109
84	66
85	10
86	7
87	135
88	10
89	2
91	2
93	5
94	3
95	7
96	3
97	43
98	43
99	5
100	2
101	53
102	8
103	1
107	3
108	1
109	1
110	46
111	15
112	84
113	36
114	3
115	96
116	9
117	1
121	2
125	5
126	1
129	334
130	28
131	3
135	2
136	6
143	54
144	7
153	2
155	7
157	1
172	70
173	9
174	2
