Mass Spectrum: 6H-1,2,5-Oxadiazine-6-thione, 4,5-dihydro-3-phenyl-
Formula: C9H8N2OS
CAS: 33406-07-4
Molecular weight: 192
m/z	intensity
29	107
37	40
38	40
39	53
49	40
50	220
51	80
52	40
60	280
75	94
76	294
77	67
103	999
104	80
192	13
