Mass Spectrum: 2H-Indol-2-one, 1,3-dihydro-3-hydroxy-3-(2-oxopropyl)-
Formula: C11H11NO3
CAS: 33417-17-3
Molecular weight: 205
m/z	intensity
33	1
36	14
37	121
38	196
39	317
40	76
41	106
42	134
43	999
44	68
45	70
46	3
48	5
49	23
50	150
51	130
52	139
53	51
54	13
55	16
57	46
58	187
59	16
60	24
61	58
62	109
63	294
64	286
65	241
66	37
67	12
68	4
69	16
70	4
71	5
73	17
74	61
75	66
76	91
77	107
78	31
79	22
80	6
81	4
84	2
85	9
86	9
87	15
88	25
89	117
90	149
91	161
92	519
93	56
94	8
98	2
100	1
101	11
102	38
103	11
104	33
105	27
106	31
107	3
108	0
114	6
115	13
116	105
117	68
119	543
120	366
121	31
122	2
127	1
128	21
129	5
130	26
131	5
132	6
133	23
134	29
135	22
136	2
143	8
144	67
145	38
146	87
147	172
148	287
149	27
150	1
158	5
159	19
160	231
161	57
162	299
163	29
164	4
171	1
172	26
173	1
176	9
177	24
178	3
187	24
188	3
189	3
190	4
203	0
205	135
206	15
