Mass Spectrum: 2-Piperazineacetic acid, 3-oxo-, ethyl ester
Formula: C8H14N2O3
CAS: 33422-35-4
Molecular weight: 186
m/z	intensity
12	4
13	15
14	73
15	280
16	4
24	2
25	9
26	113
27	526
28	846
29	571
30	638
31	107
32	1
36	3
37	3
38	8
39	27
40	49
41	198
42	406
43	222
44	211
45	167
46	17
47	5
51	5
52	15
53	32
54	113
55	375
56	999
57	84
58	30
59	10
60	84
61	48
65	3
66	6
67	13
68	41
69	82
70	197
71	687
72	39
73	14
74	8
77	4
79	7
80	5
81	14
82	45
83	45
84	60
85	51
86	45
87	10
88	149
89	11
91	7
93	3
94	3
95	6
96	13
97	28
98	25
99	745
100	79
101	13
102	5
105	10
109	3
110	9
111	18
112	319
113	116
114	22
115	8
116	9
117	2
119	2
121	3
122	2
123	3
126	4
127	16
128	44
129	181
130	16
131	3
138	4
139	41
140	40
141	102
142	25
143	16
144	2
149	3
157	15
158	4
168	2
184	3
185	8
186	329
187	34
188	4
