Mass Spectrum: Benzeneundecanoic acid
Formula: C17H26O2
CAS: 3343-24-6
Molecular weight: 262
m/z	intensity
41	101
42	23
43	56
44	3
45	29
49	7
51	13
52	1
53	11
54	9
55	106
56	12
57	27
59	10
60	62
61	3
63	6
65	54
66	4
67	22
68	10
69	86
70	8
71	13
73	45
74	6
77	35
78	54
79	37
80	10
81	21
82	9
83	38
84	26
85	8
86	8
87	10
89	10
90	8
91	916
92	999
93	83
94	14
95	12
96	8
97	25
98	40
99	5
101	7
102	3
103	24
104	160
105	154
106	31
107	13
108	3
109	8
110	3
111	21
112	12
115	19
116	11
117	49
118	19
119	49
120	16
121	7
122	13
123	6
124	1
125	3
129	9
130	11
131	28
132	9
133	115
134	64
135	27
136	4
140	2
143	3
144	9
145	9
147	21
148	13
149	1
152	3
153	15
154	1
155	1
157	5
158	7
159	3
161	7
169	22
170	3
171	4
173	1
175	5
183	11
185	1
187	9
188	3
201	3
211	1
216	8
243	6
244	195
245	44
246	4
247	2
260	1
262	495
263	90
264	11
