Mass Spectrum: 1,1,4,4-Tetrafluoro-1,4-disilacyclo-2,5-hexadiene
Formula: C4H4F4Si2
CAS: 33432-32-5
Molecular weight: 184
m/z	intensity
47	629
48	20
49	20
52	200
53	10
66	20
73	130
74	10
85	30
91	999
92	70
93	40
99	330
100	40
101	10
118	400
119	50
120	20
139	10
158	60
159	10
165	160
166	30
167	10
184	659
185	90
186	50
