Mass Spectrum: 1,1,4,4-Tetrachloro-1,4-disilacyclo-2,5-hexadiene
Formula: C4H4Cl4Si2
CAS: 33432-30-3
Molecular weight: 248
m/z	intensity
52	40
63	200
64	20
65	70
66	10
89	50
90	10
91	20
98	50
100	30
115	999
116	100
117	350
118	30
123	90
125	60
127	10
133	10
135	10
150	120
151	20
152	80
153	10
154	20
161	10
163	10
187	30
189	30
191	10
196	30
198	40
200	20
213	30
215	30
217	10
222	50
223	10
224	80
225	10
226	30
248	130
249	20
250	170
251	30
252	90
253	10
254	30
