Mass Spectrum: 3-Cyclohexen-1-amine, 2,5,6-triphenyl-, (1.alpha.,2.alpha.,5.alpha.,6.beta.)-
Formula: C24H23N
CAS: 33441-42-8
Molecular weight: 325
m/z	intensity
50	23
51	33
52	3
63	16
65	30
77	56
78	16
89	6
91	223
92	20
102	16
103	3
104	23
115	66
117	16
118	90
119	999
120	86
127	20
128	66
129	33
130	13
145	23
152	10
156	6
165	26
178	26
179	20
189	23
191	33
202	26
203	16
204	16
205	53
206	253
207	56
234	150
235	26
