Mass Spectrum: Dodecane, 1,12-dibromo-
Formula: C12H24Br2
CAS: 3344-70-5
Molecular weight: 326
m/z	intensity
25	15
27	215
29	291
30	15
31	4
36	10
37	6
38	12
39	242
40	59
41	799
42	250
43	594
44	77
45	7
48	4
49	5
50	7
51	16
52	13
53	114
54	112
55	999
56	226
57	759
58	65
59	5
60	6
61	3
63	7
64	7
65	19
66	17
67	135
68	80
69	756
70	138
71	461
72	43
73	6
74	5
75	5
76	6
77	17
78	6
79	22
80	11
81	65
82	61
83	375
84	63
85	370
86	43
87	4
88	3
89	4
90	4
91	16
92	6
93	24
94	6
95	43
96	19
97	303
98	51
99	198
100	18
101	4
102	4
103	4
104	5
105	10
106	9
107	109
108	14
109	100
110	9
111	259
112	32
113	44
114	8
115	5
116	3
117	4
118	3
119	8
120	8
121	60
122	10
123	52
124	6
125	50
126	12
127	13
128	10
129	7
130	4
133	8
134	15
135	425
136	44
137	409
138	34
139	6
140	3
141	10
142	3
143	3
147	8
148	54
149	170
150	61
151	158
152	11
153	3
154	3
155	4
161	6
162	27
163	113
164	34
165	104
166	9
167	24
168	6
169	3
170	5
171	4
172	6
173	3
174	3
175	4
176	5
177	135
178	16
179	130
180	12
181	1
182	1
183	1
184	1
185	1
186	1
187	4
188	4
189	6
190	5
191	146
192	18
193	140
194	13
195	1
196	1
202	2
203	4
204	3
205	73
206	9
207	68
208	8
209	1
210	0
211	1
246	12
247	261
248	49
249	263
250	35
251	4
326	2
328	8
330	2
