Mass Spectrum: 1,2,4-Triazine-5-ol, 3,6-dimethyl-
Formula: C5H7N3O
CAS: 33449-36-4
Molecular weight: 125
m/z	intensity
33	2
34	2
35	1
36	5
37	3
38	13
39	20
40	82
41	90
42	999
43	59
44	21
45	4
46	1
47	1
48	1
49	1
50	1
51	4
52	6
53	18
54	16
55	33
56	77
57	8
58	2
59	1
60	1
61	0
62	0
63	1
64	1
65	1
66	1
67	4
69	126
70	5
71	3
73	2
74	2
75	1
76	0
77	1
78	0
79	1
80	0
81	1
82	3
83	63
84	71
85	6
86	0
87	0
88	0
89	0
91	1
92	0
93	1
94	0
95	1
96	2
97	15
98	3
99	3
101	0
102	0
103	0
104	0
105	1
106	0
107	1
108	0
109	1
110	2
111	1
115	0
116	0
118	1
119	0
121	1
122	0
123	1
124	2
125	235
126	21
127	2
128	0
