Mass Spectrum: 2-(4-Methoxystyryl)-3-(4-nitrophenyl)-4(3H)-quinazolinone
Formula: C23H17N3O4
CAS: 334505-35-0
Molecular weight: 399
m/z	intensity
39	413
40	113
41	30
42	23
43	48
44	37
45	38
46	18
50	421
51	134
52	46
53	27
54	6
55	14
56	5
57	8
59	11
60	4
63	452
64	145
65	62
66	13
67	4
69	12
71	3
73	11
76	999
77	164
78	44
79	24
80	6
82	5
83	7
86	8
87	19
89	304
90	246
92	194
93	9
95	8
96	6
97	2
99	9
102	201
103	63
104	32
105	9
106	8
107	8
108	18
110	3
112	5
113	10
114	21
116	180
117	109
119	168
120	63
121	49
122	9
123	4
126	20
127	23
128	26
129	22
130	20
132	34
133	34
134	8
135	27
136	18
137	7
138	9
139	26
140	35
141	10
143	65
144	49
145	18
146	15
148	6
149	4
151	19
152	19
153	14
155	30
156	2
159	65
161	36
163	27
164	35
165	40
166	22
167	5
169	16
176	60
178	14
179	10
180	9
181	3
182	4
188	3
190	46
191	87
192	35
193	9
194	4
200	6
202	11
204	42
205	17
206	8
207	8
208	11
209	2
216	7
217	6
218	15
219	24
220	46
221	7
223	3
229	2
232	4
233	6
234	17
235	8
236	4
245	9
246	10
247	6
249	2
253	3
254	2
255	2
262	38
263	6
266	23
267	5
277	15
278	4
279	8
280	22
281	34
282	7
291	4
292	11
293	4
294	2
295	3
297	2
308	9
309	12
310	6
321	3
322	3
323	2
324	2
337	4
338	3
352	67
353	16
354	2
368	2
382	12
383	4
384	6
398	94
399	68
400	14
