Mass Spectrum: 4,5-Imidazoledimethanol
Formula: C5H8N2O2
CAS: 33457-48-6
Molecular weight: 128
m/z	intensity
12	1
13	1
14	5
15	7
16	4
17	2
18	7
24	2
25	8
26	106
27	250
28	317
29	62
30	15
31	107
32	6
34	1
36	1
37	10
38	22
39	76
40	152
41	167
42	236
43	42
44	11
45	8
46	2
47	2
48	1
49	4
50	7
51	27
52	132
53	203
54	305
55	118
56	85
57	11
58	5
59	1
60	2
62	1
63	8
64	4
65	6
66	86
67	44
68	140
69	96
70	130
71	8
72	4
73	1
76	1
77	3
78	2
79	17
80	28
81	514
82	285
83	155
84	18
85	3
91	1
92	5
93	29
94	107
95	32
96	6
97	309
98	24
99	28
100	3
101	1
104	1
105	1
106	1
107	15
108	8
109	845
110	999
111	164
112	11
113	12
114	1
122	1
123	1
124	1
125	8
126	9
127	255
128	870
129	83
130	8
131	1
