Mass Spectrum: 5-Iodo-1-methyl-1,2,3,4-tetrazole
Formula: C2H3IN4
CAS: 33452-18-5
Molecular weight: 210
m/z	intensity
38	38
39	52
40	132
41	33
42	44
43	999
44	34
45	1
53	635
54	208
55	428
56	17
57	3
63	4
64	1
73	1
81	2
83	247
84	9
106	1
119	2
127	615
128	72
131	1
139	142
140	6
141	12
142	5
153	22
154	12
156	1
167	14
168	2
181	129
182	11
195	1
210	382
211	14
