Mass Spectrum: Evonine
Formula: C36H43NO17
CAS: 33458-64-9
Molecular weight: 761
m/z	intensity
39	20
41	20
42	20
43	892
44	53
45	35
50	29
51	708
52	20
53	14
55	62
56	11
57	6
60	20
67	11
69	20
77	29
78	104
79	44
81	8
82	8
83	32
84	8
85	14
87	11
91	11
93	119
94	14
95	23
97	11
104	32
105	62
106	229
107	999
108	83
109	11
111	11
116	8
117	53
118	62
119	8
120	8
121	23
123	8
124	8
125	8
127	8
130	20
131	20
132	113
133	232
134	148
135	35
136	8
137	35
138	8
144	11
145	29
146	80
147	23
148	23
149	29
150	178
151	113
152	71
153	14
158	17
159	53
160	190
161	202
162	71
163	20
164	20
165	32
173	11
174	11
175	8
176	41
177	32
178	476
179	59
180	17
187	11
188	20
189	44
190	38
191	23
192	35
193	14
201	11
203	11
204	65
205	35
206	583
207	104
208	35
218	29
219	29
220	59
221	20
222	20
224	14
260	17
261	11
262	44
263	11
275	11
486	14
528	53
529	14
544	14
586	17
598	8
600	8
614	11
616	8
628	14
630	20
658	71
659	32
660	23
661	11
701	11
702	92
703	65
704	20
717	8
718	71
719	44
720	11
731	14
733	77
734	35
735	14
760	11
761	253
762	95
763	26
