Mass Spectrum: 4-Thiazolemethanethiol, 2-(p-chlorophenyl)-
Formula: C10H8ClNS2
CAS: 33451-01-3
Molecular weight: 241
m/z	intensity
37	24
38	29
39	79
45	999
46	39
47	59
49	18
50	149
51	114
52	29
57	45
58	99
59	124
60	24
61	29
62	45
63	35
64	29
69	239
70	75
71	776
72	75
73	85
74	69
75	219
76	104
77	62
85	29
86	24
87	29
99	24
100	29
101	24
102	189
103	139
104	35
111	124
113	35
137	149
138	194
139	69
140	65
155	69
157	24
160	9
162	15
172	15
173	24
181	12
195	12
196	29
197	9
198	9
206	15
208	821
209	104
210	328
211	49
240	154
241	985
242	134
243	343
244	49
245	39
