Mass Spectrum: 2-Hepten-1-ol, (E)-
Formula: C7H14O
CAS: 33467-76-4
Molecular weight: 114
m/z	intensity
26	13
27	208
28	11
29	211
30	11
31	107
37	3
38	12
39	187
40	35
41	534
42	227
43	273
44	166
45	43
50	11
51	25
52	11
53	69
54	289
55	493
56	170
57	999
58	78
59	12
61	1
62	3
63	5
64	1
65	20
66	14
67	151
68	176
69	84
70	177
71	110
72	49
73	17
74	2
77	10
78	2
79	21
80	3
81	294
82	24
83	30
84	5
85	33
86	23
87	2
91	3
93	2
94	5
95	17
96	203
97	30
98	6
99	4
113	2
114	16
115	2
