Mass Spectrum: O,S-Diethyl methylphosphonodithioate
Formula: C5H13OPS2
CAS: 3347-31-7
Molecular weight: 184
m/z	intensity
43	113
45	324
47	469
61	50
63	776
77	185
78	165
80	388
81	85
95	999
96	268
111	77
112	346
123	162
124	142
127	90
156	469
184	292
