Mass Spectrum: 3-Pyridazinamine 2-oxide
Formula: C4H5N3O
CAS: 33471-48-6
Molecular weight: 111
m/z	intensity
12	5
13	7
14	10
15	4
16	5
17	5
18	1
24	6
25	21
26	103
27	191
28	723
29	31
30	98
31	2
32	19
33	4
36	13
37	77
38	170
39	939
40	155
41	317
42	34
43	13
44	24
45	3
48	1
49	4
50	22
51	106
52	486
53	363
54	525
55	37
56	2
57	1
58	2
62	5
63	11
64	45
65	172
66	357
67	90
68	7
69	1
76	4
77	16
78	4
79	35
80	35
81	999
82	54
83	2
93	27
94	139
95	38
96	2
110	1
111	557
112	37
113	2
