Mass Spectrum: 1H-1,2,3-Triazole, 1-benzoyl-4,5-diphenyl-
Formula: C21H15N3O
CAS: 33471-67-9
Molecular weight: 325
m/z	intensity
38	10
39	40
44	10
50	40
51	90
52	10
62	10
63	60
64	10
74	10
75	10
76	30
77	530
78	50
89	220
90	20
91	10
103	30
105	999
106	70
163	10
164	10
165	80
166	50
167	10
190	10
191	10
192	650
193	110
194	10
221	20
269	20
297	190
298	50
325	70
326	10
