Mass Spectrum: 5.alpha.-Androstan-3-one, 17.beta.-hydroxy-4.alpha.-methyl-, cyclic ethylene acetal
Formula: C22H36O3
CAS: 3347-76-0
Molecular weight: 348
m/z	intensity
41	80
42	20
43	59
44	10
45	20
53	20
54	15
55	100
56	20
57	26
65	4
66	4
67	39
68	10
69	20
71	10
73	10
77	20
78	10
79	39
80	9
81	49
82	10
83	10
84	10
85	10
86	39
87	10
91	29
92	10
93	29
94	9
95	29
96	10
97	10
99	999
100	160
101	20
105	20
107	20
108	15
109	20
110	9
111	9
113	9
118	9
121	12
122	4
123	8
124	2
125	6
126	10
127	3
128	2
129	2
130	2
131	5
132	1
133	7
134	2
135	6
136	3
137	4
138	2
139	46
140	5
141	2
142	1
143	2
144	2
145	4
146	1
147	6
148	2
149	4
150	1
151	2
152	1
153	1
154	1
155	1
156	1
157	2
158	1
159	3
160	1
161	5
162	1
163	3
164	1
165	2
166	2
167	2
168	1
169	1
171	1
173	2
174	1
175	3
176	1
177	3
178	1
179	1
181	1
185	1
187	1
189	2
190	1
191	1
192	1
193	1
199	1
201	2
202	1
203	1
204	1
205	2
206	1
207	1
211	1
213	3
214	1
215	1
216	1
217	1
218	1
219	3
220	1
221	1
222	1
223	1
227	2
228	1
229	2
230	1
231	14
232	3
233	2
234	1
235	1
241	1
243	1
245	2
246	1
247	2
248	4
249	5
250	2
251	1
253	2
257	1
259	1
260	1
261	1
265	1
267	1
269	1
271	3
272	1
277	1
279	1
281	2
285	2
286	2
287	1
289	1
291	1
296	4
297	1
303	1
304	1
305	1
318	2
319	1
333	4
334	1
347	1
348	39
349	9
350	1
