Mass Spectrum: Benzenemethanol, .alpha.-1-propenyl-
Formula: C10H12O
CAS: 3347-57-7
Molecular weight: 148
m/z	intensity
27	84
29	97
31	7
33	24
37	5
38	9
39	175
40	50
41	166
42	29
43	147
44	8
50	75
51	319
52	58
53	74
55	606
56	37
57	29
59	5
62	11
63	66
64	57
65	73
66	46
67	7
69	290
70	47
71	54
74	26
75	32
76	50
77	584
78	309
79	439
80	24
81	2
85	3
89	45
90	21
91	423
92	94
95	7
97	5
102	19
103	64
104	50
105	999
106	109
107	106
108	10
115	387
116	77
117	74
118	26
119	32
120	89
126	2
127	83
128	186
129	336
130	193
131	112
132	20
133	880
134	54
146	23
147	578
148	897
149	131
150	5
