Mass Spectrum: Pyridazine, 3-amino-6-chloro-, 2-oxide
Formula: C4H4ClN3O
CAS: 33471-49-7
Molecular weight: 145
m/z	intensity
33	16
35	25
36	41
37	89
38	106
39	65
40	78
41	186
42	29
43	24
44	47
45	3
47	27
48	5
49	17
50	52
51	144
52	524
53	420
54	74
55	23
56	6
57	15
58	4
60	12
61	14
62	26
63	25
64	184
65	30
66	58
67	17
68	5
69	5
70	4
71	9
73	999
75	373
76	21
77	35
79	271
80	132
81	9
82	7
83	5
84	3
85	3
86	3
88	303
89	16
90	90
91	6
92	1
93	2
94	1
95	2
96	1
97	2
99	119
100	26
101	72
102	21
103	12
104	5
105	0
107	0
108	0
109	1
110	1
111	4
112	5
113	5
115	667
117	252
118	9
119	0
120	0
122	1
123	0
124	0
125	0
127	3
128	22
129	63
130	31
131	19
132	8
133	0
135	0
140	1
141	1
142	1
143	5
145	772
146	48
147	238
148	15
149	3
150	0
