Mass Spectrum: 2-Cyclohexen-1-one, oxime
Formula: C6H9NO
CAS: 3349-62-0
Molecular weight: 111
m/z	intensity
12	5
13	1
14	3
15	24
16	3
17	14
18	63
19	1
24	0
25	2
26	54
27	304
28	431
29	38
30	32
31	15
32	1
33	0
34	0
35	0
36	2
37	28
38	77
39	531
40	130
41	481
42	87
43	30
44	87
45	6
46	6
47	1
48	1
49	4
50	61
51	122
52	100
53	171
54	222
55	77
56	19
57	53
58	5
59	9
60	0
61	5
62	11
63	36
64	46
65	220
66	999
67	742
68	85
69	16
70	107
71	6
72	5
73	1
74	7
75	5
76	7
77	122
78	100
79	200
80	77
81	29
82	26
83	125
84	24
85	4
86	0
87	1
88	1
89	0
90	2
91	9
92	77
93	157
94	557
95	100
96	105
97	9
98	3
102	0
103	1
104	0
105	0
106	0
107	0
108	0
109	2
110	25
111	829
112	82
113	10
