Mass Spectrum: 1-Butanol, 4-(benzyloxy)-3-[(benzyloxy)methyl]-
Formula: C19H24O3
CAS: 33498-88-3
Molecular weight: 300
m/z	intensity
27	50
29	80
31	130
39	200
41	250
42	60
43	360
51	140
54	150
55	280
57	190
63	70
65	350
67	140
77	280
78	90
79	410
85	330
86	50
90	90
91	999
92	200
101	330
102	120
103	450
104	260
105	100
107	460
108	360
148	90
150	90
191	140
192	80
193	200
194	150
209	190
