Mass Spectrum: Butane, 1-(benzyloxy)-2-[(benzyloxy)methyl]-4-chloro-
Formula: C19H23ClO2
CAS: 33498-89-4
Molecular weight: 318
m/z	intensity
29	80
39	210
43	310
51	140
53	50
55	160
57	160
63	80
65	160
67	160
77	360
78	120
79	420
85	100
89	100
90	190
91	999
92	190
93	50
103	250
104	150
105	210
106	70
107	140
108	250
121	400
122	90
123	450
192	50
227	500
228	180
229	230
