Mass Spectrum: Adenine, N-[4-(benzyloxy)-3-[(benzyloxy)methyl]butyl]-
Formula: C24H27N5O2
CAS: 33498-85-0
Molecular weight: 417
m/z	intensity
28	60
30	90
39	60
41	60
43	140
65	110
77	60
79	50
91	999
92	130
119	110
120	50
135	130
136	130
148	440
149	110
160	70
162	280
163	70
190	110
202	60
205	90
220	80
326	130
