Mass Spectrum: 2H-Inden-2-one, 1,3-dihydro-, oxime
Formula: C9H9NO
CAS: 3349-63-1
Molecular weight: 147
m/z	intensity
26	7
27	41
28	20
29	12
30	8
31	4
37	12
38	40
39	143
40	22
41	28
42	4
43	11
44	6
45	7
49	6
50	110
51	218
52	72
53	18
54	3
55	12
56	4
57	4
59	4
60	5
61	36
62	66
63	159
64	54
65	91
69	13
70	2
73	18
74	41
75	59
76	73
77	283
78	73
79	6
85	1
86	11
87	15
88	12
89	92
90	34
91	48
92	4
100	3
101	28
102	151
103	417
104	119
105	7
113	5
114	6
115	166
116	104
117	23
118	21
119	6
128	90
129	138
130	999
131	286
132	21
145	28
146	158
147	280
148	25
