Mass Spectrum: N1-(1-Benzyl-4-piperidyl)-2-chloropropanamide
Formula: C15H21ClN2O
CAS: 334974-43-5
Molecular weight: 280
m/z	intensity
35	1
36	5
37	1
38	4
39	39
40	6
41	43
42	115
43	27
44	49
45	2
49	0
50	6
51	18
52	8
53	12
54	27
55	64
56	64
57	13
58	2
61	1
62	5
63	75
64	8
65	125
66	7
67	9
68	8
69	9
70	34
71	4
72	3
73	2
74	1
75	1
76	2
77	11
78	7
79	6
80	17
82	999
83	65
84	7
85	1
86	0
87	2
89	22
91	851
92	85
93	5
94	2
95	4
96	11
97	6
98	2
99	1
102	0
103	3
104	16
105	8
106	13
107	1
108	2
109	1
110	2
111	1
112	2
115	2
116	2
117	11
118	33
119	14
120	15
121	1
124	2
125	5
126	1
127	0
128	1
129	1
130	4
132	76
133	9
134	3
139	4
140	1
143	1
144	10
145	15
146	34
147	4
148	1
153	3
155	1
156	1
158	3
159	2
160	21
161	5
162	7
163	1
170	29
171	18
172	225
173	41
174	18
175	2
176	0
187	3
189	62
190	6
191	19
192	2
199	0
201	5
202	1
203	5
204	0
205	2
207	0
215	2
217	1
241	1
243	2
244	8
245	2
280	10
281	3
282	3
283	0
