Mass Spectrum: 9H-Purine, 6-chloro-9-[4-(phenylmethoxy)-3-[(phenylmethoxy)methyl]butyl]-
Formula: C24H25ClN4O2
CAS: 33498-83-8
Molecular weight: 436
m/z	intensity
27	10
28	10
29	20
39	30
41	40
43	10
51	20
52	10
53	10
54	10
55	40
57	10
63	10
65	70
67	10
77	30
78	10
79	30
85	10
89	10
90	10
91	999
92	90
105	20
106	10
107	20
119	10
154	20
155	30
156	10
157	10
167	20
168	10
181	10
182	10
209	30
211	10
223	10
224	10
239	70
240	10
241	20
329	20
330	50
331	10
332	10
345	20
