Mass Spectrum: 9H-Purin-6-amine, 9-[4-(phenylmethoxy)-3-[(phenylmethoxy)methyl]butyl]-
Formula: C24H27N5O2
CAS: 33498-84-9
Molecular weight: 417
m/z	intensity
26	10
27	30
28	10
29	20
39	30
41	20
42	10
43	10
44	10
45	10
50	20
51	30
52	10
53	10
54	10
55	20
57	10
63	10
65	50
67	10
69	20
77	50
78	20
79	20
83	10
89	10
90	10
91	999
92	130
93	10
94	10
105	40
106	40
107	20
108	40
119	10
121	10
135	100
136	40
148	60
149	50
162	60
163	50
188	40
189	20
190	160
191	30
202	20
203	20
204	40
205	40
206	10
218	20
219	10
220	40
221	10
226	10
236	10
296	10
310	110
311	130
312	20
326	560
327	130
329	20
417	10
