Mass Spectrum: Butane,1,2,4-trichloro-heptafluoro-
Formula: C4Cl3F7
CAS: 335-45-5
Molecular weight: 286
m/z	intensity
31	54
44	14
47	17
66	17
69	281
85	999
87	319
93	39
101	76
103	48
116	52
131	40
135	165
137	52
147	62
151	312
153	199
155	31
163	53
165	33
166	66
201	24
203	16
213	9
217	7
219	8
251	10
253	5
263	3
265	1
267	0
282	2
284	1
