Mass Spectrum: Butanoyl fluoride, heptafluoro-
Formula: C4F8O
CAS: 335-42-2
Molecular weight: 216
m/z	intensity
50	91
55	5
62	5
69	999
70	5
74	5
78	55
81	14
89	5
93	35
97	9
100	25
109	5
112	5
119	40
128	40
131	286
132	5
135	5
169	19
181	19
185	5
197	358
198	9
216	112
217	5
