Mass Spectrum: Heptane, hexadecafluoro-
Formula: C7F16
CAS: 335-57-9
Molecular weight: 388
m/z	intensity
31	24
50	16
55	1
62	2
69	999
70	11
74	4
81	6
93	32
94	1
100	96
101	2
105	1
112	7
117	1
119	295
120	6
124	2
131	202
132	7
135	3
143	4
150	9
162	4
169	217
170	7
181	48
182	2
193	1
200	3
219	98
220	4
231	12
232	1
269	16
270	1
282	2
369	1
