Mass Spectrum: Cyclononanone
Formula: C9H16O
CAS: 3350-30-9
Molecular weight: 140
m/z	intensity
25	1
26	27
27	277
28	152
29	216
30	4
31	9
33	2
34	4
35	2
37	2
38	9
39	371
40	66
41	770
42	411
43	206
44	12
45	4
47	2
48	4
49	2
50	10
51	23
52	13
53	101
54	129
55	657
56	361
57	52
58	96
59	28
60	3
63	7
64	2
65	23
66	15
67	147
68	126
69	272
70	168
71	105
72	22
73	4
77	25
78	10
79	62
80	62
81	162
82	164
83	439
84	421
85	41
86	7
91	10
92	5
93	72
94	28
95	13
96	100
97	447
98	999
99	97
100	4
104	2
105	20
106	3
107	27
108	4
109	5
110	4
111	435
112	176
113	16
114	2
115	3
117	1
119	2
120	19
121	5
122	11
123	4
124	2
125	40
126	4
127	2
135	1
136	2
138	1
139	4
140	190
141	27
142	4
