Mass Spectrum: Iron, tricarbonyl[(1,2,3,4-.eta.)-7-methylene-1,3,5-cycloheptatriene]-
Formula: C11H8FeO3
CAS: 33506-46-6
Molecular weight: 244
m/z	intensity
28	999
38	15
39	55
40	112
41	15
43	11
44	45
50	58
51	106
52	53
55	11
56	39
57	11
62	17
63	39
65	15
74	23
75	17
76	21
77	113
78	58
79	20
89	15
91	36
102	36
103	60
104	98
105	43
106	15
134	39
160	42
168	17
188	9
216	15
244	3
