Mass Spectrum: 1H-Purine, 2-(methylthio)-
Formula: C6H6N4S
CAS: 33512-51-5
Molecular weight: 166
m/z	intensity
40	179
41	66
42	64
43	62
44	133
45	386
46	214
47	156
48	29
49	9
50	9
51	58
52	439
53	211
54	39
55	23
56	9
57	23
58	107
59	86
60	51
61	5
62	4
64	41
65	263
66	312
67	127
68	107
69	8
70	351
71	133
72	74
73	39
74	70
75	4
76	8
77	21
78	16
79	51
80	21
81	19
82	13
83	51
84	25
85	92
86	105
87	22
88	6
91	23
92	179
93	999
94	175
95	27
96	31
97	162
98	49
99	17
106	79
107	16
108	17
109	14
110	6
111	19
112	23
113	8
114	4
119	97
120	702
121	181
122	17
123	27
124	29
125	9
126	4
133	60
134	16
136	14
138	58
139	16
140	6
141	4
150	23
151	16
152	8
164	8
165	246
166	702
167	86
168	33
169	21
