Mass Spectrum: 2-Pyrazoline, 1-benzoyl-3-ethyl-5-hydroxy-5-(3-pyridinyl)-
Formula: C17H17N3O2
CAS: 335206-25-2
Molecular weight: 295
m/z	intensity
26	3
27	7
28	2
29	5
38	2
39	12
41	7
43	4
50	18
51	58
52	12
53	6
54	3
55	4
56	3
63	6
64	3
65	6
69	3
74	4
75	5
76	14
77	310
78	95
79	26
80	4
89	4
90	6
91	7
92	4
93	8
103	13
104	14
105	999
106	139
107	11
117	13
118	9
119	5
120	4
121	215
122	19
129	3
130	10
131	4
132	6
133	9
134	5
144	7
145	5
146	10
147	6
148	7
158	8
159	7
160	6
161	9
162	7
172	12
173	28
174	24
175	628
176	64
177	5
190	4
217	3
224	25
225	5
238	6
239	4
249	3
266	38
267	7
276	3
277	8
278	27
279	5
295	15
296	7
