Mass Spectrum: 4-Acetyl-5-(2,4-dimethoxyphenyl)-3-hydroxy-1-[3-(4-morpholinyl)propyl]-1,5-dihydro-2H-pyrrol-2-one
Formula: C21H28N2O6
CAS: 335206-35-4
Molecular weight: 404
m/z	intensity
25	4
26	22
27	35
28	20
29	50
30	17
31	6
36	3
38	5
39	24
40	7
41	54
42	59
43	117
45	3
50	8
51	16
52	9
53	11
54	19
55	43
56	103
57	33
58	9
59	3
60	10
62	5
63	13
64	5
65	18
66	5
67	10
68	27
69	32
70	54
71	18
72	10
73	6
74	4
75	4
76	7
77	29
78	17
79	12
80	8
81	10
82	22
83	16
84	23
85	19
86	38
87	11
88	6
89	13
90	9
91	42
92	11
93	7
94	10
95	11
96	33
97	23
98	58
99	8
100	999
101	80
102	17
103	18
104	8
105	21
106	8
107	11
108	15
109	14
110	10
111	7
112	24
113	18
114	175
115	23
116	7
117	9
118	15
119	16
120	11
121	31
122	9
123	5
124	34
125	12
126	425
127	88
128	16
129	6
130	5
131	11
132	10
133	29
134	13
135	19
136	8
137	13
138	35
139	21
140	12
141	9
142	4
143	6
144	5
145	9
146	10
147	18
148	49
149	45
150	11
151	78
152	13
153	6
155	3
158	3
159	9
160	11
161	44
162	29
163	35
164	31
165	30
166	15
167	9
169	6
170	3
171	8
172	4
173	7
174	11
175	31
176	33
177	21
178	16
179	10
180	6
181	14
182	7
185	3
186	4
187	8
188	10
189	31
190	22
191	271
192	40
193	6
200	5
201	10
202	14
203	22
204	30
205	17
206	15
207	4
214	5
215	6
216	15
217	10
218	33
219	18
220	12
221	2
223	3
228	4
229	4
230	24
231	13
232	16
233	118
234	65
235	29
236	4
242	4
244	17
245	7
246	49
247	17
248	29
249	7
256	4
258	15
259	5
260	19
261	12
262	140
263	22
264	3
266	4
270	6
272	5
273	5
274	38
275	37
276	43
277	16
278	3
286	7
287	3
288	10
289	4
290	8
291	132
292	21
293	3
301	6
302	7
303	6
304	4
317	71
318	37
319	17
320	3
345	4
359	3
360	3
361	56
362	12
373	20
374	7
386	9
388	42
389	12
390	3
402	31
403	12
404	860
405	211
406	36
407	3
