Mass Spectrum: 2-Cyclohexen-1-ol, benzoate
Formula: C13H14O2
CAS: 3352-93-0
Molecular weight: 202
m/z	intensity
39	190
40	100
41	230
51	240
52	70
53	180
77	540
78	40
79	520
80	240
81	400
91	40
97	150
105	999
106	90
157	30
158	20
202	90
203	13
