Mass Spectrum: 2-Butanone, 4-(2-methyl-1,3-dioxolan-2-yl)-
Formula: C8H14O3
CAS: 33528-35-7
Molecular weight: 158
m/z	intensity
40	30
41	40
42	30
43	999
44	30
45	30
53	20
55	30
57	30
58	20
71	130
72	10
81	10
85	30
87	990
88	50
97	20
98	60
99	170
100	10
114	20
115	10
143	160
144	10
