Mass Spectrum: Propionic acid, 3-benzoylamino-3-phenyl-, N-(4-aminosulfonylphenyl)amide
Formula: C22H21N3O4S
CAS: 335209-40-0
Molecular weight: 423
m/z	intensity
26	5
27	7
28	1
36	3
37	3
38	6
39	17
40	3
41	12
42	8
43	25
44	40
48	10
49	3
50	31
51	65
52	17
53	7
54	3
55	6
57	5
62	6
63	19
64	30
65	31
66	6
67	3
69	13
70	3
71	5
73	5
74	14
75	19
76	37
77	376
78	64
79	12
80	9
81	5
83	4
89	10
90	16
91	33
92	51
93	39
94	4
96	3
97	6
101	4
102	28
103	208
104	176
105	999
106	97
107	24
108	32
109	9
110	6
111	3
115	4
116	4
117	6
118	15
119	20
120	31
121	106
122	24
123	4
124	5
125	23
128	3
129	5
130	7
131	728
132	84
133	13
134	8
135	4
139	5
140	7
141	2
145	4
146	46
147	10
148	7
149	3
150	3
151	4
152	4
156	58
157	6
158	3
163	4
164	3
165	6
166	4
167	4
169	6
172	107
173	12
174	9
176	3
178	3
179	5
180	6
181	3
182	10
183	3
185	5
191	3
192	13
193	10
194	10
195	4
196	4
197	4
198	9
199	6
201	3
202	5
204	3
206	5
207	10
208	8
209	8
210	276
211	47
212	9
214	3
217	4
220	9
221	13
222	32
223	87
224	19
225	5
227	8
238	3
239	10
242	3
248	3
249	4
250	17
251	39
252	437
253	81
254	10
255	4
256	3
259	4
276	4
300	3
301	13
302	68
303	14
304	5
318	303
319	59
320	21
321	3
342	3
376	3
402	3
403	3
423	26
424	6
