Mass Spectrum: Nicotinic acid, 2-(benzylamino)-
Formula: C13H12N2O2
CAS: 33522-80-4
Molecular weight: 228
m/z	intensity
25	2
26	21
27	68
28	160
29	48
30	24
31	13
36	5
37	21
38	56
39	229
40	33
41	125
42	36
43	132
44	27
45	45
46	5
47	5
48	3
49	11
50	69
51	185
52	111
53	45
54	18
55	70
56	29
57	80
58	8
59	11
60	20
61	12
62	20
63	79
64	51
65	259
66	63
67	47
68	21
69	89
70	21
71	47
72	6
73	18
74	13
75	20
76	35
77	149
78	222
79	292
80	38
81	46
82	15
83	33
84	17
85	46
86	9
87	71
88	8
89	78
90	77
91	534
92	83
93	38
94	38
95	28
96	11
97	26
98	11
99	49
100	14
101	13
102	11
103	17
104	65
105	148
106	999
107	143
108	12
109	14
110	6
111	15
112	6
113	8
114	7
115	10
116	8
117	8
118	4
119	6
120	18
121	16
122	7
123	42
124	32
125	12
126	9
127	52
128	22
129	12
130	5
131	5
132	3
133	122
134	14
135	5
136	5
137	12
138	8
139	7
140	5
141	5
142	3
143	20
144	4
145	5
146	1
147	3
148	2
149	14
150	4
151	40
152	12
153	19
154	78
155	43
156	12
157	3
158	3
159	4
160	1
161	2
162	1
163	3
164	1
165	3
166	10
167	19
168	12
169	6
170	1
171	3
172	0
173	0
174	0
175	1
176	0
177	2
178	2
179	11
180	14
181	387
182	150
183	140
184	35
185	6
186	1
187	7
188	1
189	1
190	1
191	3
193	8
194	3
195	5
196	3
197	13
198	5
199	7
200	3
201	1
203	1
205	2
206	1
207	2
209	251
210	52
211	17
212	14
213	4
218	1
219	1
224	2
225	4
226	16
227	196
228	960
229	224
230	24
231	4
232	1
233	1
