Mass Spectrum: O,O-Dimethyl carbamoylphosphonate
Formula: C3H8NO4P
CAS: 33534-83-7
Molecular weight: 153
m/z	intensity
44	271
45	18
46	10
47	332
48	47
49	53
50	6
58	38
60	7
62	8
63	20
64	7
65	71
66	6
69	6
77	29
78	24
79	825
80	642
81	18
93	42
94	10
95	413
96	100
98	6
105	7
109	333
110	999
111	35
126	55
139	6
153	44
154	7
