Mass Spectrum: Benzamide, 2-benzylsulfonyl-4-nitro-
Formula: C14H12N2O5S
CAS: 335434-38-3
Molecular weight: 320
m/z	intensity
33	4
34	9
36	3
37	0
38	3
39	33
40	156
41	27
42	12
43	47
44	106
45	30
46	2
48	1
50	11
51	14
52	12
53	4
54	1
55	11
56	6
57	14
58	3
59	0
60	19
61	1
62	5
63	20
64	13
65	95
66	5
67	3
68	2
69	8
70	6
71	7
72	1
74	11
75	20
76	5
77	8
78	5
79	5
80	1
81	2
82	1
83	4
84	4
85	2
86	0
87	2
88	0
89	21
91	999
92	66
93	4
94	1
95	3
96	1
97	2
98	1
99	0
101	0
103	9
104	2
105	7
106	8
107	22
108	12
109	3
110	1
111	2
112	3
113	1
114	0
115	1
117	0
119	11
120	4
121	1
122	1
123	2
124	1
125	1
126	0
127	1
129	0
130	0
131	0
132	2
133	3
134	1
135	0
136	0
137	0
138	0
139	2
145	0
147	0
149	7
150	48
151	7
152	4
153	0
157	0
161	0
163	2
164	3
165	14
166	5
167	3
168	0
171	5
178	81
179	7
180	1
181	2
182	0
183	2
184	0
189	0
192	1
193	12
194	3
195	3
196	7
197	28
198	2
199	0
206	0
209	1
210	1
211	2
212	3
213	1
222	0
225	0
229	3
239	53
240	10
241	23
242	3
248	0
255	9
256	22
257	4
283	0
303	2
320	34
321	5
322	2
