Mass Spectrum: 3-Furoic acid, 2,5-dihydro-5-oxo-2,2-di-p-tolyl-, methyl ester
Formula: C20H18O4
CAS: 33545-33-4
Molecular weight: 322
m/z	intensity
39	110
53	201
59	87
63	55
65	351
89	50
90	74
91	337
119	999
120	68
179	63
202	90
203	84
219	302
220	62
231	20
263	80
322	182
