Mass Spectrum: Imidazole, 2-ethoxycarbonyl-
Formula: C6H8N2O2
CAS: 33543-78-1
Molecular weight: 140
m/z	intensity
41	166
42	50
43	17
44	12
45	14
51	2
52	5
53	5
54	25
55	5
56	17
57	2
59	10
64	0
65	3
66	19
67	163
68	999
69	112
70	4
77	0
78	2
79	3
81	13
82	4
83	5
84	1
93	3
94	277
95	393
96	435
97	25
98	1
106	0
107	1
112	14
113	9
121	0
122	2
124	0
125	36
127	3
136	0
139	2
140	271
141	29
142	2
