Mass Spectrum: 2H-1,4-Benzothiazine-2-carboxylic acid, 3,4-dihydro-5,7-dinitro-3-oxo-, methyl ester
Formula: C10H7N3O7S
CAS: 335434-46-3
Molecular weight: 313
m/z	intensity
33	20
37	4
38	13
39	23
40	40
41	36
42	13
44	57
45	184
46	21
47	6
49	2
50	50
51	28
52	69
53	12
57	20
59	999
61	67
62	122
63	106
64	57
66	8
67	1
69	371
70	49
71	16
72	15
73	2
74	34
75	46
76	96
77	43
78	28
80	13
81	23
82	70
83	31
84	8
85	16
86	8
87	21
88	120
89	33
90	103
91	11
92	21
93	143
94	104
95	45
96	15
97	2
100	9
101	17
102	4
103	6
104	30
105	24
106	52
107	96
108	37
109	20
110	11
116	125
117	19
118	26
120	68
121	49
122	29
123	13
124	2
132	53
134	829
135	69
136	44
137	9
138	2
145	4
147	70
148	48
149	70
150	58
151	8
152	1
160	22
161	60
162	272
163	51
164	30
165	3
166	1
167	8
176	178
177	100
178	46
180	565
181	47
182	12
189	2
192	7
193	9
194	18
195	2
196	11
197	3
206	3
208	196
209	113
210	64
211	11
222	311
223	88
224	27
226	295
227	21
228	12
235	1
237	23
238	116
239	19
240	3
241	26
252	267
253	59
254	358
255	40
256	21
267	3
269	435
270	49
271	21
272	1
283	1
311	1
313	678
314	86
315	38
316	1
