Mass Spectrum: Evonine, O6-deacetyl-
Formula: C34H41NO16
CAS: 33540-08-8
Molecular weight: 719
m/z	intensity
39	20
41	32
42	20
43	999
44	64
45	52
50	14
51	11
53	11
55	64
56	11
57	20
59	26
60	26
65	11
67	11
69	11
77	23
78	23
79	49
81	5
82	23
83	152
84	11
85	11
87	11
91	20
104	20
105	52
106	193
107	906
108	76
109	14
110	20
111	20
115	11
116	5
117	58
118	70
119	5
120	5
121	23
123	8
125	8
127	8
130	32
131	23
132	105
133	169
134	122
135	20
136	11
137	38
138	5
139	8
144	8
145	20
146	81
147	20
148	20
149	20
150	140
151	312
152	78
153	20
159	43
160	152
161	225
162	76
163	23
164	23
165	35
173	8
174	8
175	8
176	20
177	32
178	251
179	43
180	70
181	11
188	8
189	52
190	61
191	23
192	35
193	11
203	11
204	67
205	46
206	473
207	81
208	20
218	43
219	29
220	111
221	23
222	17
224	17
249	11
261	11
262	35
279	8
280	11
486	38
487	11
544	11
562	11
580	17
586	11
616	35
617	14
632	14
646	43
647	17
648	17
659	32
660	43
661	20
662	11
676	40
677	20
691	20
702	8
704	11
719	336
720	125
721	38
