Mass Spectrum: Amidephrine
Formula: C10H16N2O3S
CAS: 3354-67-4
Molecular weight: 244
m/z	intensity
42	161
44	999
45	31
57	21
64	19
65	61
66	18
77	29
78	29
79	21
91	32
92	32
94	20
106	31
118	19
120	60
121	21
131	19
132	19
145	20
146	20
147	139
185	10
199	29
226	10
