Mass Spectrum: Carbamic acid, N-[2-(benzylsulfonyl)-4-nitrophenyl)-, methyl ester
Formula: C15H14N2O6S
CAS: 335434-42-9
Molecular weight: 350
m/z	intensity
35	13
36	0
37	5
38	4
39	23
40	25
41	10
42	2
43	7
44	11
45	3
46	0
47	9
48	1
49	3
50	8
51	15
52	8
53	2
54	0
55	4
56	1
57	4
59	21
60	1
61	1
62	10
63	30
64	11
65	82
66	8
69	2
70	6
71	1
72	0
74	4
75	5
76	4
77	18
78	15
79	5
80	1
82	11
83	4
84	5
85	1
86	1
87	1
88	2
89	26
91	999
92	72
93	2
94	1
95	2
96	0
97	2
98	0
102	0
104	7
105	3
106	13
107	2
108	1
109	2
110	1
111	1
112	1
113	0
115	1
117	39
119	32
120	10
121	13
122	1
123	2
124	0
125	1
127	5
128	0
129	0
130	0
133	1
134	9
135	1
136	0
137	0
138	0
139	2
140	0
141	0
143	0
148	1
149	34
150	6
151	2
152	3
153	2
154	0
155	0
163	3
164	0
165	4
166	0
167	1
168	0
171	2
172	0
173	0
174	0
176	0
177	0
178	33
179	43
180	12
181	3
182	1
195	34
196	4
197	0
204	13
205	0
206	0
207	0
208	1
209	0
210	5
211	5
212	0
223	0
225	4
227	16
228	2
229	0
236	0
237	0
238	0
254	3
259	2
285	0
286	9
287	0
320	0
334	0
346	0
350	34
351	7
352	2
