Mass Spectrum: 2(5H)-Thiophenone
Formula: C4H4OS
CAS: 3354-32-3
Molecular weight: 100
m/z	intensity
26	35
27	48
29	21
34	37
36	24
37	32
38	76
39	285
40	35
41	61
42	27
43	68
44	448
45	200
46	128
53	20
54	26
55	203
56	23
57	81
60	67
64	31
67	21
68	27
69	50
70	23
71	274
72	374
73	32
74	22
100	999
101	54
102	48
