Mass Spectrum: Allyl(chloromethyl)dimethylsilane
Formula: C6H13ClSi
CAS: 33558-75-7
Molecular weight: 148
m/z	intensity
14	0
15	2
25	0
26	2
27	16
28	10
29	37
30	3
31	19
32	0
33	0
35	0
36	1
37	2
38	5
39	63
40	5
41	42
42	33
43	199
44	39
45	46
46	3
47	1
48	0
49	8
50	2
51	5
52	1
53	34
54	14
55	43
56	6
57	20
58	24
59	261
60	19
61	9
63	137
64	15
65	97
66	19
67	36
68	4
69	15
70	9
71	92
72	23
73	25
74	2
75	1
76	3
77	16
78	37
79	999
80	66
81	328
82	20
83	23
84	2
85	10
86	1
87	0
88	0
89	2
90	2
91	9
92	11
93	364
94	29
95	152
96	11
97	151
98	17
99	294
100	29
101	10
102	0
103	2
104	0
105	101
106	11
107	743
108	57
109	226
110	18
111	7
112	14
113	3
114	0
115	0
116	0
117	2
118	0
119	1
120	0
121	0
122	0
131	0
133	9
134	1
135	3
136	0
148	5
149	0
150	1
151	0
