Mass Spectrum: Disilane, pentamethyl(pentafluorophenyl)-
Formula: C11H15F5Si2
CAS: 33558-55-3
Molecular weight: 298
m/z	intensity
43	175
44	55
45	324
46	20
47	175
49	150
51	60
53	21
55	30
57	60
59	60
63	48
72	70
73	999
74	250
75	150
76	30
77	688
78	50
79	35
81	175
87	52
91	20
96	30
99	30
101	82
102	20
105	30
114	48
117	50
131	28
133	50
139	42
140	87
141	15
147	150
148	25
161	20
175	20
191	30
205	95
206	55
207	22
221	20
222	10
223	5
225	10
226	3
263	20
264	10
283	65
284	17
285	10
298	50
299	17
300	10
