Mass Spectrum: .beta.-D-Glucopyranose, 6-deoxy-6-fluoro-, tetraacetate
Formula: C14H19FO9
CAS: 33557-29-8
Molecular weight: 350
m/z	intensity
41	6
42	12
43	999
44	23
45	12
53	6
54	1
55	3
56	3
57	6
60	12
61	9
70	9
71	6
73	30
81	6
84	3
85	9
86	5
87	3
89	3
97	8
98	10
99	5
100	23
101	26
102	10
103	62
104	6
105	2
112	6
113	10
114	2
115	116
116	9
117	12
118	70
119	6
128	3
129	21
130	3
145	24
146	15
147	9
155	7
157	105
158	9
159	8
160	116
161	15
162	5
163	5
171	8
189	12
202	108
203	17
204	3
205	7
206	3
231	3
248	9
249	2
291	3
307	3
