Mass Spectrum: Tulobuterol, TMS derivative
Formula: C15H26ClNOSi
CAS: 335627-50-4
Molecular weight: 299
m/z	intensity
15	1
27	3
28	4
29	28
30	298
31	5
39	12
41	67
42	29
43	17
44	10
45	49
46	4
47	18
48	1
49	1
50	3
51	8
52	2
53	4
54	3
55	19
56	22
57	182
58	20
59	15
60	5
61	9
62	2
63	13
64	2
65	11
66	1
67	2
68	4
69	2
70	26
71	13
72	12
73	237
74	56
75	119
76	15
77	30
78	7
79	4
80	1
81	2
82	3
83	1
84	5
86	999
87	84
88	5
89	18
90	7
91	36
92	9
93	22
94	4
95	11
96	1
97	2
98	1
99	3
100	3
101	18
102	20
103	48
104	43
105	16
106	2
107	2
109	1
111	3
112	2
113	2
114	4
115	11
116	12
117	41
118	44
119	18
120	2
121	1
123	1
125	27
126	3
127	10
128	3
129	2
130	5
131	3
132	2
133	5
134	5
136	2
137	7
138	21
139	10
140	9
141	7
142	8
143	5
144	16
145	4
146	1
147	3
148	2
149	3
150	1
151	2
152	6
153	4
154	13
155	4
156	5
157	2
158	13
159	3
160	2
161	5
162	4
163	8
164	2
165	1
166	1
167	1
168	1
169	2
170	1
171	1
172	1
174	1
175	2
176	1
177	4
178	4
179	3
180	1
181	1
182	1
183	4
184	1
185	1
191	2
192	4
194	126
195	16
196	42
197	18
198	3
199	5
200	1
208	3
209	1
210	6
211	4
212	3
213	35
214	6
215	12
216	2
217	1
226	2
228	52
229	9
230	18
231	3
232	1
234	1
242	1
268	1
284	24
285	5
286	9
287	2
299	1
300	2
301	1
302	1
