Mass Spectrum: Benzoic acid, 4-amino-3-(3,7,11,15,19,23,27,31-octamethyl-2,6,10,14,18,22,26,30-dotriacontaoctaenyl)-, (all-E)-
Formula: C47H71NO2
CAS: 33569-81-2
Molecular weight: 681
m/z	intensity
66	30
67	88
68	151
69	999
70	67
80	25
81	495
82	39
83	39
94	39
95	169
97	190
98	18
105	41
106	51
107	120
109	169
110	18
111	18
118	39
119	58
120	16
121	139
122	46
123	127
124	7
131	11
132	11
133	37
134	46
135	220
136	53
137	107
138	9
143	11
144	41
145	30
146	30
147	58
148	37
149	90
150	595
151	81
158	20
159	32
160	41
161	81
162	58
163	48
164	11
173	20
174	20
175	32
176	18
177	39
178	9
186	7
187	16
188	55
189	65
190	209
191	58
192	14
201	7
202	39
203	127
204	111
205	58
206	7
215	18
216	41
217	41
218	9
228	18
229	7
230	41
231	7
256	18
257	9
258	18
259	18
271	20
272	69
273	39
326	9
327	20
340	29
341	20
408	29
409	20
476	19
477	9
544	9
613	9
681	60
682	30
683	10
