Mass Spectrum: 1,8-Octanediamine, N,N'-dimethyl-
Formula: C10H24N2
CAS: 33563-54-1
Molecular weight: 172
m/z	intensity
27	9
29	13
30	39
31	31
39	7
41	28
42	32
43	20
44	999
45	37
55	24
56	17
57	15
58	78
59	11
67	4
68	2
69	6
70	31
71	3
72	6
73	2
84	4
86	25
87	2
100	16
101	2
114	13
115	3
128	21
129	71
130	7
140	3
142	30
143	3
157	29
158	3
171	7
172	12
173	9
