Mass Spectrum: 2-(Chloromethyl)-5-(3-chlorophenyl)-1,3,4-oxadiazole
Formula: C9H6Cl2N2O
CAS: 33575-82-5
Molecular weight: 228
m/z	intensity
35	75
36	25
37	105
38	157
39	176
40	96
41	48
42	139
43	40
44	24
47	32
48	46
49	441
50	611
51	361
52	35
53	61
54	153
55	34
56	9
57	26
60	63
61	286
62	348
63	318
64	58
65	12
67	3
68	1
69	10
70	8
71	8
72	25
73	248
74	320
75	999
76	314
77	180
78	11
79	45
83	3
84	46
85	126
86	115
87	149
88	88
89	150
90	71
91	13
96	6
97	59
98	12
99	33
100	15
101	62
102	159
103	18
104	18
108	2
109	6
110	33
111	744
112	60
113	248
114	14
118	8
123	170
124	56
125	68
126	17
127	3
136	12
137	360
138	45
139	916
140	73
141	289
142	16
151	15
152	8
153	5
165	29
167	7
172	8
174	2
176	2
179	81
180	5
181	27
193	158
194	16
195	53
196	2
228	184
229	17
230	126
231	10
232	16
