Mass Spectrum: 2-Chloromethyl-5-phenyl-1,3,4-oxadiazole
Formula: C9H7ClN2O
CAS: 33575-83-6
Molecular weight: 194
m/z	intensity
12	8
13	17
14	50
15	4
16	1
17	3
18	7
24	4
25	38
26	251
27	77
28	38
29	12
30	4
31	1
35	36
36	10
37	49
38	88
39	179
40	38
41	16
42	65
43	8
44	1
45	0
47	11
48	20
49	171
50	250
51	451
52	40
53	28
54	70
55	5
56	3
57	1
59	2
60	24
61	100
62	119
63	299
64	54
65	10
66	2
67	1
68	0
69	1
71	1
72	1
73	18
74	79
75	69
76	134
77	999
78	67
79	21
80	1
83	1
84	3
85	10
86	23
87	24
88	17
89	238
90	99
91	34
92	3
93	1
97	1
98	1
99	3
100	2
101	3
102	20
103	329
104	51
105	832
106	67
107	4
111	2
112	1
113	1
117	22
118	16
119	2
123	1
124	3
125	1
126	1
127	2
128	1
131	17
132	2
136	1
137	2
138	14
139	6
140	4
141	2
145	140
146	13
147	1
151	0
152	0
153	1
157	0
159	196
160	22
161	2
165	2
167	0
179	0
181	0
194	186
195	25
196	59
197	8
198	0
