Mass Spectrum: Benzaldehyde, O-propyloxime
Formula: C10H13NO
CAS: 33581-40-7
Molecular weight: 163
m/z	intensity
39	120
41	240
42	10
43	570
44	20
50	150
51	420
52	20
65	150
66	150
67	60
76	190
77	999
78	450
89	120
90	60
91	90
92	60
93	120
94	270
95	20
103	240
104	720
105	180
106	10
118	50
119	20
120	360
121	360
122	30
132	200
133	60
163	330
164	30
