Mass Spectrum: Octatriene, 1,3-trans-5-trans-
Formula: C8H12
CAS: 33580-04-0
Molecular weight: 108
m/z	intensity
27	240
29	110
39	330
40	64
41	300
43	140
57	170
66	166
77	475
78	175
79	999
91	280
93	240
108	530
