Mass Spectrum: Acetaldehyde, O-methyloxime
Formula: C3H7NO
CAS: 33581-43-0
Molecular weight: 73
m/z	intensity
29	260
30	260
31	140
38	30
39	70
40	130
41	220
42	999
43	60
44	40
45	40
56	10
57	10
58	150
59	10
73	230
74	10
