Mass Spectrum: 1,2,3-Butanetriol, 3TMS derivative
Formula: C13H34O3Si3
CAS: 33581-76-9
Molecular weight: 322
m/z	intensity
26	3
27	6
28	27
29	7
30	1
31	5
39	7
40	1
41	26
42	3
43	35
44	24
45	114
46	8
47	23
49	1
52	2
53	3
54	1
55	13
56	2
57	8
58	14
59	69
60	6
61	15
62	1
66	6
67	1
69	2
70	4
71	8
72	25
73	999
74	84
75	144
76	10
77	5
85	7
87	7
88	4
89	10
91	2
99	5
101	52
102	6
103	123
104	12
105	9
106	1
113	2
115	22
116	248
117	745
118	82
119	36
120	2
127	2
129	64
130	10
131	58
132	7
133	100
134	13
135	9
142	2
143	40
144	4
145	6
146	1
147	288
148	44
149	39
150	3
151	1
161	1
163	5
175	6
176	1
177	18
178	2
189	16
190	2
191	27
192	4
193	2
203	1
204	46
205	170
206	33
207	14
208	2
216	1
217	47
218	11
219	55
220	10
221	5
231	1
232	9
233	2
