Mass Spectrum: 1,2-Oxazepine, 7-(p-chlorophenyl)hexahydro-2-methyl-
Formula: C12H16ClNO
CAS: 3358-91-6
Molecular weight: 225
m/z	intensity
60	999
61	30
77	100
86	250
87	20
91	50
103	60
105	40
115	60
116	40
117	30
125	50
127	40
129	20
143	80
151	40
189	40
190	10
208	80
225	150
226	20
227	90
