Mass Spectrum: Hydantoin, 1-butyl-
Formula: C7H12N2O2
CAS: 33599-32-5
Molecular weight: 156
m/z	intensity
41	100
42	690
43	80
44	20
53	10
54	10
55	40
56	60
57	40
70	40
72	10
73	10
84	20
85	60
100	20
101	50
113	999
114	140
115	20
127	40
141	10
156	340
157	40
