Mass Spectrum: 2,4-Imidazolidinedione, 3-butyl-
Formula: C7H12N2O2
CAS: 33599-31-4
Molecular weight: 156
m/z	intensity
41	200
42	120
43	80
44	50
53	10
54	10
55	40
56	270
57	80
58	60
59	20
70	30
71	80
72	10
73	50
84	10
85	270
86	60
98	20
99	30
100	30
101	999
102	40
113	120
114	400
115	30
127	70
128	10
141	20
156	270
157	20
