Mass Spectrum: Octanoic acid, 2-tetrahydrofurylmethyl ester
Formula: C13H24O3
CAS: 33601-75-1
Molecular weight: 228
m/z	intensity
26	2
27	14
28	4
29	19
31	3
36	2
39	13
40	3
41	55
42	18
43	85
44	2
45	1
52	1
53	5
54	6
55	34
56	10
57	55
58	3
59	2
60	3
61	1
67	12
68	2
69	8
70	23
71	999
72	40
73	5
74	4
79	2
81	3
82	4
83	13
84	204
85	40
86	3
87	5
97	4
98	11
99	1
100	2
101	6
103	4
109	3
111	1
114	2
115	1
125	1
126	2
127	43
128	4
144	16
145	4
157	6
159	4
