Mass Spectrum: DL-Alloisoleucine, N-acetyl-
Formula: C8H15NO3
CAS: 33601-90-0
Molecular weight: 173
m/z	intensity
41	319
42	85
43	961
44	100
45	52
46	25
51	6
52	4
53	21
54	25
55	41
56	150
57	671
58	118
59	11
60	214
61	8
67	12
68	16
69	121
70	63
71	110
72	45
73	4
74	263
75	141
76	26
84	38
85	6
86	582
87	38
88	10
96	57
97	8
98	14
99	999
100	90
101	9
102	12
112	5
114	17
116	15
117	490
118	25
126	20
127	1
128	402
129	50
130	16
132	17
144	5
155	8
156	25
172	24
173	108
174	15
