Mass Spectrum: Iron, tricarbonyl[(2,3,4,5-.eta.)-2,4,6-cycloheptatrien-1-one]-
Formula: C10H6FeO4
CAS: 33614-96-9
Molecular weight: 246
m/z	intensity
25	1
26	17
27	18
28	185
29	2
36	0
37	6
38	14
39	51
40	16
41	2
42	3
43	5
49	4
50	48
51	73
52	60
53	5
54	62
55	1
56	999
57	46
58	3
60	0
61	2
62	5
63	15
64	1
65	1
66	0
67	0
68	6
69	9
70	2
71	0
72	1
73	3
74	7
75	3
76	6
77	34
78	150
79	11
80	6
81	102
82	64
83	4
84	100
85	4
86	0
87	0
89	6
90	0
91	1
92	1
93	7
94	18
95	14
96	1
97	7
103	0
104	0
105	8
106	54
107	16
108	18
109	1
110	1
112	16
113	0
117	0
118	2
119	1
120	1
121	10
122	0
130	0
131	0
132	13
133	8
134	131
135	12
136	5
137	0
144	1
152	0
160	42
161	5
162	682
163	66
164	7
165	0
167	0
178	0
179	0
188	23
189	2
190	364
191	41
192	5
193	1
195	0
196	0
216	17
217	1
218	264
219	32
220	4
244	0
246	12
247	1
248	0
