Mass Spectrum: Benzenemethanimine, .alpha.-(1,1-dimethylethyl)-
Formula: C11H15N
CAS: 33611-54-0
Molecular weight: 161
m/z	intensity
27	39
28	13
29	49
30	5
31	0
34	0
36	0
37	6
38	10
39	61
40	7
41	75
42	9
43	3
44	1
45	0
48	0
49	5
50	46
51	103
52	22
53	6
54	3
55	6
56	6
57	31
58	1
59	3
60	0
61	1
62	3
63	8
64	4
65	5
66	1
67	0
68	2
69	0
71	0
72	1
73	3
74	9
75	18
76	52
77	191
78	24
79	4
80	0
82	0
84	1
85	0
86	1
87	0
88	2
89	3
90	1
91	15
92	2
93	0
95	0
99	1
100	0
101	0
102	6
103	100
104	999
105	92
106	5
107	0
113	0
114	1
115	6
116	2
117	3
118	1
119	11
120	1
126	0
127	2
128	4
129	8
130	11
131	5
132	1
133	0
142	0
143	1
144	6
145	1
146	37
147	3
158	0
159	2
160	14
161	30
162	4
