Mass Spectrum: 1,3,4-Oxadiazol-2-amine, 5-(4-bromophenyl)-
Formula: C8H6BrN3O
CAS: 33621-62-4
Molecular weight: 239
m/z	intensity
33	1
36	13
37	143
38	234
39	231
40	51
41	70
42	115
43	150
44	999
46	0
48	7
49	114
50	868
51	240
52	62
53	42
54	9
55	15
56	11
57	10
58	0
59	6
60	67
61	138
62	413
63	448
64	89
65	56
66	12
67	7
69	7
70	5
73	109
74	446
75	713
76	684
77	109
78	23
79	46
80	20
81	35
82	19
84	22
85	69
86	149
87	162
88	347
89	656
90	638
91	96
92	60
93	12
94	2
95	2
99	24
100	14
102	220
103	66
104	62
105	43
106	19
107	19
108	5
111	1
113	0
114	0
116	24
117	191
118	133
119	101
120	14
121	10
122	1
125	0
127	2
128	13
129	30
130	16
131	22
132	12
133	1
134	2
135	1
139	2
141	18
142	4
143	13
144	5
145	3
146	0
149	3
150	2
151	2
152	8
155	425
156	48
157	379
158	39
159	3
160	17
161	4
162	6
165	0
167	106
168	37
169	189
170	40
171	96
172	8
173	9
174	3
176	1
177	2
178	13
179	5
181	104
182	58
183	415
184	135
185	324
186	76
187	5
188	9
194	3
196	416
197	63
198	399
199	53
200	13
201	3
202	7
203	9
204	0
205	3
206	1
209	28
210	4
211	31
212	3
213	6
236	4
238	16
239	446
240	60
241	456
242	43
243	11
