Mass Spectrum: D-Arabino-Hexonic acid, 3-deoxy-2,5,6-tris-O-(trimethylsilyl)-, .gamma.-lactone
Formula: C15H34O5Si3
CAS: 33648-66-7
Molecular weight: 378
m/z	intensity
73	999
74	89
75	142
103	179
117	64
129	388
131	54
133	61
147	225
155	64
205	111
246	89
273	44
274	10
275	9
276	2
277	1
292	26
293	7
294	4
295	0
305	1
307	1
308	0
317	1
318	0
322	9
323	2
324	1
333	0
335	2
336	0
337	0
363	4
364	1
365	0
378	0
379	0
380	1
