Mass Spectrum: D-Ribose, 4TMS derivative
Formula: C17H42O5Si4
CAS: 33648-69-0
Molecular weight: 438
m/z	intensity
28	58
41	15
43	12
44	16
45	78
47	10
55	7
59	42
61	9
68	8
69	30
72	20
73	999
74	82
75	88
76	7
89	6
101	44
102	8
103	49
115	9
116	31
117	25
119	8
129	45
130	7
131	27
133	55
134	9
143	18
147	237
148	40
149	27
157	8
169	10
175	8
177	9
189	46
190	12
191	389
192	76
193	32
203	14
204	511
205	112
206	45
215	14
217	545
218	109
219	60
220	10
221	9
231	17
243	11
259	20
260	5
265	6
279	6
291	16
292	5
305	37
306	13
307	8
308	5
333	21
334	7
335	4
