Mass Spectrum: D-Erythro-Pentitol, 2-deoxy-1,3,4,5-tetrakis-O-(trimethylsilyl)-
Formula: C17H44O4Si4
CAS: 33648-72-5
Molecular weight: 424
m/z	intensity
28	26
29	1
30	0
34	2
38	2
39	1
40	1
41	11
43	12
44	1
45	46
46	1
47	8
49	3
52	4
53	2
55	13
56	0
57	0
58	8
59	31
60	4
61	9
62	2
63	0
64	2
65	2
66	4
67	4
69	6
70	3
71	5
72	39
73	999
74	83
75	74
76	6
77	4
78	1
79	1
81	2
83	12
84	2
85	8
86	3
87	10
88	4
89	9
91	1
94	1
95	1
99	6
100	5
101	43
102	10
103	952
104	91
105	48
106	5
107	1
113	3
115	42
116	76
117	58
118	9
119	10
122	1
127	5
128	1
129	94
130	12
131	40
132	4
133	67
134	9
135	4
141	4
142	2
143	9
144	2
145	3
147	253
148	29
149	20
150	3
155	48
156	6
157	7
159	10
161	3
163	4
164	1
165	1
167	3
173	2
175	7
176	1
177	20
178	3
189	35
190	5
191	75
192	12
193	5
203	11
204	45
205	102
206	20
207	16
208	1
209	1
215	8
217	37
218	62
219	431
220	93
221	56
222	5
223	2
229	7
230	1
231	47
232	15
233	5
242	1
243	13
244	12
245	17
246	5
247	3
291	3
293	2
307	47
308	12
309	7
319	12
320	4
321	17
322	6
323	1
334	1
