Mass Spectrum: Furo[3,4-b]furan-2,6(3H,4H)-dione, 4-ethyldihydro-3-methylene-, [3aR-(3a.alpha.,4.beta.,6a.alpha.)]-
Formula: C9H10O4
CAS: 33644-10-9
Molecular weight: 182
m/z	intensity
38	81
39	810
40	423
41	522
42	54
43	54
44	54
50	135
51	211
52	166
53	995
54	76
55	81
57	319
58	49
65	58
66	58
67	211
68	653
69	319
77	67
79	238
81	554
82	90
95	148
96	999
97	171
109	873
110	189
125	99
138	49
