Mass Spectrum: 2H-Cyclohepta[b]furan-2-one, 3,3a,4,7,8,8a-hexahydro-7-methyl-3-methylene-6-(3-oxobutyl)-, [3aR-(3a.alpha.,7.beta.,8a.alpha.)]-
Formula: C15H20O3
CAS: 33649-15-9
Molecular weight: 248
m/z	intensity
25	0
26	7
27	80
29	34
30	2
31	2
34	0
36	0
37	2
38	3
39	149
41	151
42	22
43	999
45	18
47	2
48	1
49	1
50	3
51	45
52	26
53	101
54	19
55	147
56	11
57	33
58	48
59	83
60	1
61	1
62	2
63	21
64	12
65	121
66	38
67	188
68	57
69	59
70	14
71	56
72	8
73	4
74	4
75	1
76	2
77	208
78	37
79	422
80	57
81	187
82	52
83	36
84	16
85	13
86	3
87	4
88	1
89	5
90	6
91	286
92	177
93	314
94	82
95	220
96	57
97	40
98	11
99	11
100	1
101	5
102	6
103	51
104	29
105	350
106	75
107	324
108	75
109	109
110	25
111	27
112	15
113	5
114	1
115	50
116	43
117	121
118	72
119	268
120	64
121	111
122	35
123	50
124	22
125	19
126	4
127	7
128	27
129	108
130	38
131	194
132	71
133	177
134	62
135	68
136	31
137	77
138	14
139	12
140	0
141	8
142	7
143	72
144	282
145	353
146	69
147	86
148	40
149	83
150	132
151	45
152	14
153	6
154	3
155	13
156	21
157	51
158	34
159	184
160	40
161	160
162	63
163	58
164	73
165	10
166	4
167	3
168	2
169	40
170	9
171	14
172	105
173	69
174	16
175	167
176	31
177	107
178	37
179	10
180	5
181	2
182	0
183	8
184	20
185	56
186	9
187	75
188	71
189	57
190	519
191	123
192	26
193	3
194	75
195	8
196	2
197	18
198	5
199	1
200	1
201	18
202	56
203	24
204	21
205	108
206	108
207	19
208	3
209	1
210	1
211	3
212	21
213	4
214	1
215	96
216	10
217	6
218	9
219	11
220	11
221	3
222	1
223	2
224	0
225	2
226	0
227	0
228	1
229	4
230	82
231	16
232	2
233	23
234	6
235	1
236	1
237	1
238	0
239	1
241	0
242	0
244	1
245	0
246	3
247	3
248	28
249	5
250	2
