Mass Spectrum: Oxacyclododec-9-en-2-one, 12-methyl-, (E)-
Formula: C12H20O2
CAS: 33644-08-5
Molecular weight: 196
m/z	intensity
26	5
27	135
28	56
29	136
30	3
31	4
38	4
39	258
40	45
41	577
42	133
43	163
44	8
45	49
46	2
50	4
51	20
52	15
53	141
54	512
55	402
56	46
57	39
58	4
59	2
60	5
63	4
65	41
66	48
67	517
68	316
69	110
70	146
71	37
73	5
77	38
78	36
79	194
80	121
81	338
82	160
83	142
84	260
85	30
86	2
91	69
92	86
93	129
94	143
95	223
96	129
97	115
98	999
99	76
100	5
101	2
105	45
106	64
107	28
108	110
109	251
110	72
111	48
112	6
113	3
119	74
120	9
121	48
122	17
123	111
124	43
125	5
126	11
127	5
131	3
133	6
134	39
135	21
136	71
137	64
138	10
139	6
140	20
141	4
149	15
150	10
151	10
152	240
153	33
154	17
155	2
160	2
163	2
167	9
168	2
178	31
179	7
181	9
182	3
195	4
196	373
197	55
198	5
