Mass Spectrum: Propanoic acid, 2-methyl-, (dodecahydro-6a-hydroxy-9a-methyl-3-methylene-2,9-dioxoazuleno[4,5-b]furan-6-yl)methyl ester, [3aS-(3a.alpha.,6.beta.,6a.alpha.,9a.beta.,9b.alpha.)]-
Formula: C19H26O6
CAS: 33649-17-1
Molecular weight: 350
m/z	intensity
25	9
26	21
27	316
29	444
30	154
31	248
33	4
34	6
35	2
36	19
37	12
38	8
39	366
41	697
42	102
43	999
45	535
46	49
47	14
48	12
49	2
50	16
51	157
52	122
53	616
54	98
55	840
56	244
57	297
58	27
59	50
60	141
61	13
62	10
63	45
64	13
65	248
66	103
67	547
68	116
69	338
70	86
71	329
72	29
73	78
74	52
75	37
76	16
77	502
78	101
79	599
80	75
81	324
82	99
83	302
84	91
85	277
86	34
87	18
88	18
89	36
90	11
91	664
92	152
93	739
94	119
95	324
96	146
97	215
98	44
99	52
100	45
101	41
102	59
103	100
104	69
105	648
106	109
107	302
108	168
109	312
110	187
111	327
112	196
113	424
114	43
115	82
116	86
117	352
118	104
119	461
120	168
121	321
122	126
123	340
124	162
125	117
126	56
127	44
128	122
129	157
130	88
131	638
132	117
133	419
134	101
135	176
136	128
137	176
138	72
139	154
140	64
141	254
142	67
143	229
144	188
145	397
146	102
147	494
148	163
149	310
150	113
151	126
152	94
153	33
154	18
155	39
156	10
157	129
158	80
159	407
160	130
161	457
162	235
163	248
164	92
165	191
166	59
167	58
168	52
169	53
170	56
171	170
172	92
173	198
174	69
175	338
176	229
177	422
178	132
179	88
180	22
181	54
182	40
183	39
184	19
185	173
186	179
187	219
188	163
189	525
190	276
191	357
192	85
193	62
194	45
195	36
196	25
197	27
198	21
199	59
200	30
201	62
202	118
203	198
204	507
205	154
206	77
207	157
208	65
209	91
210	14
211	15
212	6
213	43
214	188
215	55
216	91
217	154
218	34
219	75
220	117
221	49
222	117
223	35
224	23
225	8
226	18
227	14
228	19
229	46
230	6
231	65
232	678
233	121
234	73
235	21
236	19
237	6
238	13
239	8
240	1
241	14
242	19
243	12
244	61
245	24
246	13
247	39
248	19
249	17
250	179
251	32
252	29
253	3
254	2
255	12
256	15
257	1
258	14
259	3
260	5
261	12
262	89
263	31
264	15
265	19
266	9
267	4
268	3
269	9
270	1
271	1
272	4
274	6
275	7
