Mass Spectrum: Heptanedioic acid, 2-methyl-, dimethyl ester
Formula: C10H18O4
CAS: 33658-48-9
Molecular weight: 202
m/z	intensity
36	1
38	6
39	95
40	55
41	346
42	72
43	185
44	58
45	54
46	1
47	0
48	0
49	0
50	3
51	6
52	2
53	36
54	16
55	472
56	164
57	222
58	17
59	364
60	12
61	4
62	0
63	1
64	1
65	6
66	3
67	47
68	88
69	376
70	27
71	19
72	9
73	169
74	196
75	10
76	0
77	5
78	1
79	11
80	1
81	39
82	78
83	439
84	65
85	25
86	2
87	97
88	999
89	44
90	4
91	3
92	2
93	9
94	2
95	13
96	8
97	57
98	4
99	14
100	79
101	83
102	10
103	0
105	0
107	0
108	0
109	9
110	155
111	315
112	25
113	22
114	29
115	246
116	17
117	1
119	0
121	0
123	5
124	0
125	7
126	1
127	36
128	43
129	86
130	7
131	3
137	13
138	121
139	16
140	2
141	4
142	117
143	217
144	19
145	2
146	1
147	0
152	1
153	0
155	18
156	1
157	0
159	0
160	0
169	0
170	49
171	100
172	9
173	1
174	0
