Mass Spectrum: 1-Isopropyldiaziridine
Formula: C4H10N2
CAS: 33657-26-0
Molecular weight: 86
m/z	intensity
26	36
27	233
28	461
29	95
30	311
31	31
32	32
39	93
40	49
41	311
42	345
43	363
44	999
45	10
54	25
55	29
56	159
57	51
58	40
59	5
71	471
72	31
73	5
86	165
87	18
88	5
