Mass Spectrum: N-Methyl-2-carbomethoxyazetidine
Formula: C6H11NO2
CAS: 33667-53-7
Molecular weight: 129
m/z	intensity
28	73
29	3
41	34
42	488
43	13
44	36
70	999
71	49
72	1
129	124
130	13
131	1
