Mass Spectrum: N-Isopropyl-2-benzyloxycarbonylazetidine
Formula: C14H19NO2
CAS: 33667-56-0
Molecular weight: 233
m/z	intensity
28	59
29	7
39	14
41	36
42	14
43	78
44	8
55	22
56	27
57	17
91	288
92	174
93	9
98	999
99	46
100	5
142	8
218	64
219	9
233	14
234	2
