Mass Spectrum: N-Isopropyl-2-carbomethoxyazetidine
Formula: C8H15NO2
CAS: 33667-51-5
Molecular weight: 157
m/z	intensity
28	249
29	11
39	42
40	6
41	78
42	70
43	174
44	11
54	22
55	59
56	874
57	36
98	999
99	46
100	4
142	314
143	11
156	8
157	78
158	8
