Mass Spectrum: Phosphonic acid, tricyclo[2.2.1.0(2,6)]heptyl-, dimethyl ester
Formula: C9H15O3P
CAS: 33660-88-7
Molecular weight: 202
m/z	intensity
51	50
53	60
63	50
65	180
66	100
77	200
78	50
79	260
80	150
91	700
92	999
93	290
94	70
95	70
105	50
109	120
110	460
111	370
112	30
137	180
138	20
174	50
187	30
201	90
202	550
203	70
