Mass Spectrum: N,N,N'-Triethylnipecotamide
Formula: C12H24N2O
CAS: 3367-94-0
Molecular weight: 212
m/z	intensity
41	159
42	380
43	91
44	348
45	17
46	15
47	7
49	40
50	2
51	13
52	6
53	52
54	77
55	346
56	313
57	278
58	245
59	13
60	5
61	1
62	0
63	2
64	1
65	8
66	4
67	44
68	93
69	75
70	190
71	275
72	655
73	45
74	178
75	10
76	2
77	9
78	5
79	4
80	30
81	31
82	166
83	251
84	927
85	313
86	112
87	11
88	8
89	1
90	0
91	33
92	3
93	3
94	11
95	13
96	429
97	80
98	386
99	34
100	208
101	17
102	77
103	5
106	10
107	1
108	16
109	6
110	143
111	777
112	999
113	123
114	15
115	19
116	10
117	5
118	1
119	1
122	1
123	2
124	32
125	6
126	88
127	17
128	343
129	89
130	7
131	1
136	1
137	1
138	63
139	16
140	125
141	40
142	83
143	17
144	2
147	1
148	1
149	2
151	0
152	2
153	10
154	57
155	19
156	23
157	7
165	0
166	0
167	5
168	8
169	139
170	34
171	4
181	1
182	1
183	58
184	164
185	62
186	6
191	0
194	1
195	3
196	1
197	361
198	52
199	6
200	0
210	1
211	55
212	467
213	177
214	20
215	1
