Mass Spectrum: 1,3-Dioxolan-2-one, 3-methyl-3-(4,8-dimethylnona-3,7-dienyl)-4-methylene-
Formula: C16H24O3
CAS: 336879-76-6
Molecular weight: 264
m/z	intensity
33	0
39	53
41	483
43	225
45	2
51	13
53	73
55	145
57	9
58	2
59	5
63	3
65	18
67	133
69	999
71	7
72	3
73	0
74	0
77	23
79	43
81	225
82	29
83	17
84	22
85	12
87	0
88	0
91	22
92	16
93	56
94	28
95	46
96	16
97	27
98	3
99	1
100	0
101	0
103	1
105	13
106	14
107	34
108	34
109	91
110	14
111	6
113	2
114	0
115	1
117	2
119	20
120	10
121	35
122	18
123	41
124	6
125	3
126	0
127	0
128	1
129	0
131	3
133	15
134	33
135	33
136	42
137	22
138	3
139	1
140	0
141	0
142	0
143	0
145	3
146	3
147	5
148	12
149	13
150	7
151	12
152	3
153	1
154	0
155	0
157	0
159	7
160	2
161	2
163	12
164	7
165	1
166	0
167	0
168	0
169	0
170	0
171	0
173	1
174	1
175	2
177	21
178	4
179	1
180	0
181	0
185	0
187	6
188	0
189	0
191	1
192	2
193	0
194	0
195	0
196	0
199	0
202	11
203	3
205	3
206	0
208	0
209	0
217	0
218	0
220	10
221	7
222	1
223	0
236	0
246	0
247	0
249	0
250	0
260	0
261	0
264	22
265	3
266	0
