Mass Spectrum: Anthracene, 9,10-dinitro-
Formula: C14H8N2O4
CAS: 33685-60-8
Molecular weight: 268
m/z	intensity
41	50
42	27
43	71
44	19
45	13
46	38
47	114
48	58
49	58
50	156
51	28
52	32
53	21
54	7
55	999
56	44
57	26
58	8
61	26
62	116
63	183
64	23
65	12
66	8
67	13
68	16
69	38
70	13
71	11
72	12
73	16
74	168
75	229
76	140
77	59
78	14
79	9
82	93
83	35
84	36
85	35
86	157
87	188
88	119
89	38
90	17
91	8
92	3
95	9
97	14
98	125
99	107
100	49
101	26
102	78
103	17
104	14
105	3
109	11
110	46
111	61
112	21
113	51
114	29
115	29
116	15
119	3
121	12
122	49
123	46
124	36
125	55
126	138
127	70
128	36
129	30
130	65
131	7
134	16
135	16
136	7
137	52
138	58
139	123
140	195
141	33
142	12
144	7
146	43
147	8
148	10
149	119
150	441
151	272
152	501
153	117
154	85
155	32
156	12
161	36
162	98
163	715
164	536
165	111
166	195
167	51
168	31
169	9
170	11
173	18
174	241
175	292
176	767
177	164
178	38
179	47
180	360
181	58
182	75
183	14
188	11
189	3
190	6
191	9
192	47
193	55
194	28
195	25
196	7
205	22
206	3
207	52
208	115
209	22
210	23
221	64
222	69
223	35
238	36
239	3
268	979
269	153
270	20
