Mass Spectrum: 2-Imidazoline, 2-(2-fluorobenzylthio)-
Formula: C10H11FN2S
CAS: 336879-91-5
Molecular weight: 210
m/z	intensity
33	3
35	12
36	40
38	27
39	25
40	17
41	29
42	46
43	48
44	54
45	71
46	10
47	4
48	0
50	18
51	17
52	3
53	3
54	2
55	4
57	68
59	36
60	11
61	9
62	23
63	51
65	8
68	11
69	19
70	68
72	260
74	56
75	18
77	15
78	1
81	36
83	239
85	3
86	9
87	10
89	44
91	5
93	6
94	8
95	18
96	16
97	5
98	0
100	16
101	23
102	6
103	4
104	4
105	8
107	78
109	999
110	44
113	4
115	134
117	12
118	7
119	2
121	11
122	35
123	12
124	7
126	1
127	1
128	1
129	1
130	5
131	2
132	2
134	11
135	29
136	51
139	106
140	23
141	17
142	1
143	1
144	1
145	0
146	1
148	16
149	34
150	16
152	14
153	5
154	2
155	1
156	2
157	12
158	10
159	1
160	2
161	3
162	11
163	7
164	2
165	18
166	12
167	7
168	3
169	0
170	0
171	0
172	0
173	0
175	14
177	131
178	35
180	13
181	12
182	3
183	0
184	0
185	0
186	0
187	0
189	41
190	69
191	140
192	17
193	7
195	17
196	1
197	0
202	0
209	205
210	973
211	114
212	49
213	4
214	0
215	1
