Mass Spectrum: Pyrido[3',4':5,6]cyclohept[1,2-b]indole-5,5(1H)-dimethanol, 2-ethyl-2,3,4,4a,6,11,12,12a-octahydro-12a-hydroxy-12-methyl-
Formula: C21H30N2O3
CAS: 3368-88-5
Molecular weight: 358
m/z	intensity
60	83
61	25
62	41
63	8
65	50
66	75
67	500
68	500
69	525
70	175
71	650
72	999
73	83
74	8
75	8
76	33
77	75
78	50
79	125
80	83
81	400
82	633
83	283
84	241
85	258
86	50
87	41
88	25
89	16
90	8
91	50
92	16
93	75
94	50
95	300
96	475
97	425
98	150
99	50
100	25
101	25
102	8
103	25
104	25
105	41
106	16
107	41
108	50
109	175
110	275
111	100
112	50
113	50
114	41
115	83
116	25
117	50
118	25
119	25
120	25
121	41
122	58
123	125
124	225
125	75
126	91
127	50
128	191
129	75
130	183
131	50
132	33
133	16
134	25
135	50
136	108
137	100
138	175
139	66
140	108
141	50
142	75
143	83
144	133
145	33
146	25
147	16
148	25
149	183
150	41
151	33
152	233
153	83
154	250
155	141
156	216
157	100
158	66
159	33
160	33
161	16
162	8
163	25
164	33
165	33
166	50
167	191
168	225
169	66
170	116
171	33
172	66
173	25
174	41
175	8
176	8
177	16
178	25
179	50
180	166
181	91
182	150
183	66
184	100
185	83
186	83
187	16
188	8
189	8
190	25
191	33
192	41
193	50
194	116
195	58
196	91
197	58
198	58
199	41
200	33
201	8
202	16
203	8
204	33
205	33
206	41
207	33
208	66
209	41
210	116
211	58
212	41
213	91
214	33
215	8
216	8
217	8
218	16
219	16
220	25
221	16
222	50
223	91
224	383
225	150
226	108
227	33
228	25
229	8
232	8
233	8
234	16
235	25
236	41
237	33
238	58
239	66
240	50
241	25
242	16
246	8
249	8
250	33
251	25
252	41
253	33
254	16
256	8
257	8
261	8
262	8
263	8
264	8
265	41
266	50
267	33
268	41
269	16
270	8
271	8
277	16
278	16
279	50
280	33
281	16
282	25
283	16
284	16
285	8
291	58
292	66
293	58
294	50
295	50
296	41
297	33
298	100
299	33
300	25
301	25
302	8
307	8
308	16
309	100
310	833
311	233
312	66
313	33
314	25
315	8
321	8
322	16
323	16
324	8
325	16
326	75
327	216
328	166
329	33
330	8
339	16
340	25
341	16
342	16
343	16
344	16
356	16
357	33
358	591
359	150
360	25
