Mass Spectrum: Butan-2-one, 3,3,4,4,4-pentafluoro-1-(2-pyridyl)-
Formula: C9H6F5NO
CAS: 337-29-1
Molecular weight: 239
m/z	intensity
33	3
34	2
35	0
36	5
37	39
38	102
39	273
40	80
41	40
42	14
43	10
44	19
45	43
46	74
49	13
50	96
51	136
52	79
53	25
54	9
55	8
56	6
57	5
58	1
60	59
61	23
62	51
63	130
64	121
65	490
66	114
67	28
68	20
69	108
71	4
72	1
73	2
74	8
75	19
76	12
77	10
78	83
79	9
80	4
81	7
82	3
83	1
84	1
85	1
86	2
87	3
88	5
89	4
90	16
91	105
92	999
93	203
94	13
95	4
96	2
97	0
98	1
99	5
100	21
101	2
102	2
103	2
104	3
105	2
106	14
107	2
108	1
109	2
110	2
111	1
112	1
113	2
114	3
115	1
116	1
117	3
120	944
121	70
122	8
123	2
125	3
126	1
127	1
128	1
129	0
130	0
131	0
132	0
133	0
134	0
135	0
137	0
138	0
139	0
140	2
141	4
142	9
143	1
144	2
145	1
146	0
148	0
149	0
150	1
151	2
152	6
153	2
154	0
155	1
156	0
157	1
158	0
160	0
163	1
168	3
169	3
170	2
171	1
172	11
173	1
181	0
183	7
184	6
185	3
186	0
188	0
190	8
191	3
192	28
193	2
198	1
200	2
201	0
210	0
218	1
220	13
221	1
232	0
234	0
236	1
237	5
239	234
240	21
241	1
