Mass Spectrum: Androst-5-en-7-one, 17,19-bis(acetyloxy)-3-fluoro-, (3.beta.,17.beta.)-
Formula: C23H31FO5
CAS: 33708-70-2
Molecular weight: 406
m/z	intensity
41	130
43	999
53	80
55	83
67	80
73	50
77	118
79	121
81	111
91	190
93	86
95	50
105	108
107	50
115	56
128	54
129	51
131	53
144	73
159	93
166	63
167	56
170	50
179	206
180	110
192	80
193	60
222	66
245	64
253	50
271	93
273	243
274	80
286	50
326	53
333	267
334	999
335	250
346	70
386	233
387	66
406	400
407	110
