Mass Spectrum: 1,3-Oxathiane, 2,6-dimethyl-
Formula: C6H12OS
CAS: 33709-58-9
Molecular weight: 132
m/z	intensity
26	60
27	320
28	90
29	170
39	220
40	30
41	220
42	100
43	470
44	70
45	380
46	700
47	390
48	40
53	80
54	480
55	999
56	80
58	80
59	230
60	320
61	110
62	60
71	30
73	240
75	30
76	30
85	20
87	40
88	520
89	90
90	30
117	430
118	30
119	20
131	10
132	70
133	10
