Mass Spectrum: 1,3-Oxathiane, 2-ethyl-6-methyl-
Formula: C7H14OS
CAS: 33709-59-0
Molecular weight: 146
m/z	intensity
26	40
27	160
28	120
29	170
31	80
39	200
40	30
41	320
42	80
43	100
45	140
46	470
47	310
48	30
53	60
54	390
55	999
56	70
57	220
58	70
59	170
60	770
61	60
62	40
71	30
73	170
74	140
75	30
76	30
87	60
88	280
89	80
117	910
118	60
119	40
146	333
147	30
148	20
