Mass Spectrum: 1-Hexene, 2-isopentyl-5-methyl-
Formula: C12H24
CAS: 33717-92-9
Molecular weight: 168
m/z	intensity
39	80
40	20
41	400
42	30
43	240
53	30
54	10
55	340
56	950
57	999
58	100
67	30
68	70
69	450
70	120
71	70
81	20
83	70
84	10
97	70
112	360
113	60
168	160
169	10
