Mass Spectrum: 1-Octene, 2,7-dimethyl-
Formula: C10H20
CAS: 33718-03-5
Molecular weight: 140
m/z	intensity
39	70
41	370
42	50
43	290
55	240
56	999
57	280
58	10
67	40
68	40
69	660
70	60
71	10
82	20
83	70
84	90
85	20
95	20
97	30
112	30
125	10
140	140
141	20
