Mass Spectrum: Nonane, 4-methylene-
Formula: C10H20
CAS: 33717-91-8
Molecular weight: 140
m/z	intensity
39	80
40	10
41	350
42	60
43	120
53	30
55	810
56	999
57	90
67	40
68	20
69	350
70	100
71	10
81	10
83	30
85	240
86	60
95	10
96	20
97	200
98	30
140	130
141	10
