Mass Spectrum: 1,3,2-Dioxaphosphorinane, 4,4,6-trimethyl-2-phenoxy-, 2-sulfide
Formula: C12H17O3PS
CAS: 33719-81-2
Molecular weight: 272
m/z	intensity
40	242
41	769
42	119
43	257
44	461
45	207
46	7
47	46
48	11
49	23
50	130
51	180
52	46
53	165
54	138
55	403
56	65
57	34
58	19
59	288
60	23
61	34
62	53
63	142
64	34
65	500
66	423
67	999
68	80
69	65
70	19
71	7
72	3
73	19
74	142
75	30
76	42
77	165
78	38
79	84
80	19
81	119
82	807
83	384
84	34
85	19
86	30
87	5
88	3
91	15
92	11
93	30
94	961
95	92
96	11
97	57
98	5
99	11
100	3
101	3
102	3
103	3
104	5
105	5
106	5
107	5
108	7
109	88
110	115
111	26
112	11
113	7
114	3
115	7
116	15
117	7
118	5
119	5
120	3
121	11
122	3
123	5
124	5
125	34
126	5
127	5
128	5
129	3
130	7
134	9
135	7
136	3
137	11
138	3
139	19
140	34
141	3
142	1
143	3
145	5
146	5
147	15
148	3
149	7
150	3
151	1
152	5
153	5
154	5
155	38
156	11
157	1
158	1
159	1
160	1
161	1
162	1
163	9
164	3
165	5
166	1
167	1
168	3
169	5
170	1
171	30
172	123
173	50
174	26
175	7
176	1
177	1
178	1
179	3
180	1
181	1
182	3
183	3
184	3
185	1
186	1
189	7
190	115
191	384
192	38
193	30
194	5
197	15
230	3
231	11
232	7
240	7
241	1
242	3
246	3
257	7
272	269
273	42
274	23
275	3
