Mass Spectrum: Azete, 2,3-dihydro-4-phenyl-
Formula: C9H9N
CAS: 33720-74-0
Molecular weight: 131
m/z	intensity
39	50
40	70
41	20
42	20
43	20
50	50
51	120
52	60
53	20
54	20
55	20
63	50
64	40
65	80
76	180
77	250
78	50
89	50
91	400
92	60
102	30
103	999
104	220
105	40
118	20
130	50
131	430
132	60
