Mass Spectrum: Rhenium, .mu.-cadmiodecacarbonyldi-
Formula: C10CdO10Re2
CAS: 33728-45-9
Molecular weight: 768
m/z	intensity
114	999
187	420
199	92
215	85
227	35
243	210
271	433
299	681
327	686
355	59
372	71
383	141
384	81
400	183
411	349
412	17
439	632
440	18
468	24
486	315
496	35
514	302
524	22
542	268
552	17
570	858
580	9
598	281
608	7
624	33
626	190
652	5
654	205
682	118
710	7
766	522
