Mass Spectrum: Bicyclo[2.2.1]heptane, 2-chloro-1,3,3-trimethyl-, endo-
Formula: C10H17Cl
CAS: 3372-12-1
Molecular weight: 172
m/z	intensity
39	130
40	20
41	160
42	20
43	40
44	40
50	20
51	50
52	20
53	70
54	10
55	100
56	20
57	20
66	30
67	20
68	150
69	50
70	50
71	20
78	70
79	20
80	120
81	170
82	999
83	120
84	30
89	10
90	30
91	70
92	40
93	180
94	50
95	80
96	20
107	50
108	20
109	70
110	10
121	100
122	20
123	100
136	100
137	70
157	80
158	10
159	30
172	140
173	10
174	50
