Mass Spectrum: 1,2,3-Dithiazole, 4-chloro-5-(5-bromopyrid-2-ylimino)-
Formula: C7H3BrClN3S2
CAS: 337343-51-8
Molecular weight: 307
m/z	intensity
33	17
34	17
35	25
36	34
37	142
38	146
39	50
40	47
41	6
42	3
44	61
45	43
46	103
47	18
48	16
49	95
50	413
51	192
52	70
53	15
55	6
56	9
57	18
58	65
59	12
60	9
61	17
62	35
64	999
66	90
67	32
70	245
72	18
73	4
76	790
77	192
79	65
80	9
81	37
82	46
83	28
84	21
85	7
86	4
87	4
88	5
90	39
91	24
93	97
95	35
96	7
97	3
99	30
100	8
101	18
102	61
103	116
105	38
106	36
107	23
108	34
109	32
110	4
111	3
112	2
113	2
115	2
116	4
117	13
118	7
119	14
120	3
121	1
123	3
125	61
127	25
129	41
130	9
131	34
132	5
133	0
134	4
135	3
136	1
137	10
138	0
139	3
140	2
141	1
142	2
143	2
144	3
145	0
147	0
149	0
151	10
153	10
154	7
156	364
158	362
159	17
160	5
161	12
162	2
163	4
164	1
165	0
167	92
168	7
169	10
170	0
172	1
178	0
182	27
184	26
185	1
186	0
187	0
188	4
189	0
190	6
191	0
192	0
193	3
196	0
198	0
201	2
202	1
203	1
204	0
208	13
210	15
211	1
214	12
215	2
216	14
217	2
218	0
219	0
220	1
221	0
222	0
228	2
230	0
239	0
240	25
242	26
243	4
244	1
246	26
248	29
249	2
250	2
251	0
268	1
269	2
272	794
273	87
274	736
275	76
276	64
277	6
278	2
305	0
307	140
308	19
309	208
310	24
311	69
312	7
313	5
