Mass Spectrum: Methanone, (5-trifluoromethyl-3-hexyl-5-hydroxy-2-pyrazolin-1-yl)(4-methylphenyl)-
Formula: C18H23F3N2O2
CAS: 337354-05-9
Molecular weight: 356
m/z	intensity
34	4
36	5
39	12
40	154
41	15
42	8
43	27
44	65
45	5
50	3
51	5
55	11
56	5
57	12
60	1
63	2
65	26
67	3
68	1
69	13
70	4
71	5
75	4
76	0
77	15
82	6
83	7
84	7
85	8
89	8
90	9
91	144
92	9
93	1
94	0
95	4
96	0
97	5
103	1
105	40
106	4
107	5
108	3
109	4
110	1
111	11
112	6
113	5
117	4
119	999
120	91
121	13
122	1
123	4
125	1
131	2
133	0
135	7
136	5
137	5
138	1
139	30
140	1
141	10
149	12
150	19
151	1
155	5
156	3
157	2
158	0
163	7
164	4
169	1
171	2
177	1
178	2
181	0
183	15
185	16
191	0
202	1
254	5
268	67
269	9
286	1
287	3
356	16
357	2
