Mass Spectrum: 5H-1,2,3-Dithiazole, 4-chloro-5-(5-chloropyrid-2-ylimino)-
Formula: C7H3Cl2N3S2
CAS: 337343-57-4
Molecular weight: 263
m/z	intensity
33	13
34	22
35	30
36	63
37	82
38	90
39	40
40	16
41	26
42	22
43	22
44	89
45	31
46	71
47	34
48	13
49	57
50	221
51	130
52	62
53	13
54	2
55	15
56	15
57	21
58	56
59	8
60	43
61	49
62	73
63	60
64	999
66	102
67	22
68	4
69	48
70	157
71	14
72	16
73	36
74	19
75	94
76	671
77	69
78	9
79	29
80	0
81	18
82	21
83	24
84	72
85	99
86	24
87	30
88	5
89	1
90	24
91	15
92	4
93	55
94	4
95	17
96	1
97	2
98	9
99	23
100	12
101	12
102	44
103	57
104	9
105	1
107	1
108	11
109	11
110	6
111	14
112	610
113	44
114	183
115	10
117	5
118	7
119	8
120	1
121	4
125	56
126	2
127	22
129	1
132	7
133	4
137	5
138	40
139	3
140	12
144	12
146	3
151	2
160	3
164	18
166	5
167	13
169	2
170	24
171	4
172	7
196	16
197	2
198	5
202	60
203	4
204	23
228	534
229	51
230	204
231	18
232	14
263	103
264	6
265	75
266	3
267	11
