Mass Spectrum: Methanone, (2-hydroxyphenyl)(phenylazo)-, phenylhydrazone
Formula: C19H16N4O
CAS: 33737-92-7
Molecular weight: 316
m/z	intensity
35	0
36	0
37	2
38	11
39	73
40	7
41	7
42	1
43	1
44	0
47	0
48	0
50	25
51	109
52	24
53	3
54	1
55	1
56	0
57	1
61	1
62	6
63	42
64	68
65	392
66	29
67	2
68	0
69	0
70	0
71	0
74	5
75	8
77	278
78	23
79	1
80	0
81	0
82	0
83	3
84	0
85	1
87	0
88	1
89	2
90	7
91	120
92	999
93	91
94	4
95	0
97	0
98	0
99	0
101	0
102	14
103	2
104	1
105	14
106	2
107	0
108	0
109	0
112	0
113	0
114	0
115	3
116	0
117	0
118	2
119	14
120	16
121	2
122	0
123	0
125	0
126	0
127	1
128	1
129	0
130	0
131	0
133	0
135	0
136	0
137	0
138	0
139	2
140	1
141	3
142	1
143	0
149	0
150	1
151	2
152	4
153	3
154	1
155	1
156	1
157	0
158	7
161	0
164	0
165	1
166	4
167	16
168	18
169	5
170	3
171	1
172	0
176	0
177	0
178	0
179	0
180	1
181	5
182	5
183	11
184	2
185	0
189	0
191	0
192	1
193	1
194	1
195	1
196	8
197	1
198	0
199	0
202	0
203	0
206	0
207	0
208	1
209	5
210	20
211	399
212	68
213	5
214	0
217	0
221	0
222	0
223	0
224	0
225	0
226	0
227	1
228	0
230	0
231	0
237	0
238	1
239	105
240	18
241	1
242	0
243	0
244	0
245	0
246	0
256	0
261	0
270	0
271	1
272	0
273	0
283	0
285	0
286	0
287	5
288	2
289	0
299	0
300	0
302	0
303	0
304	0
313	4
314	1
315	7
316	130
317	30
318	4
319	0
