Mass Spectrum: dl-Cysteine
Formula: C3H7NO2S
CAS: 3374-22-9
Molecular weight: 121
m/z	intensity
26	13
27	39
28	233
29	96
30	134
31	4
33	18
34	33
35	4
36	8
38	7
39	8
40	25
41	67
42	215
43	263
44	57
45	111
46	122
47	127
48	38
49	9
50	3
53	3
55	11
56	19
57	121
58	44
59	373
60	17
61	17
68	3
69	6
70	4
71	3
72	5
73	7
74	891
75	578
76	999
77	37
78	45
81	3
83	5
85	3
86	23
87	19
88	3
104	4
121	37
122	8
