Mass Spectrum: N'-(2-Cyclopentylcarbamoyl-1-methyl-ethylidene)-hydrazinecarboxylic acid tert-butyl ester
Formula: C14H25N3O3
CAS: 337473-52-6
Molecular weight: 283
m/z	intensity
36	0
37	0
38	3
39	65
40	25
41	355
42	54
43	54
44	36
45	4
46	2
49	0
50	1
51	3
52	2
53	12
54	28
55	54
56	201
57	999
58	62
59	29
60	91
61	2
62	1
63	1
64	0
65	5
66	3
67	46
68	22
69	218
70	37
71	45
72	861
73	40
75	28
76	2
77	2
78	0
79	1
80	2
81	2
82	18
83	24
84	87
85	39
86	106
87	6
88	0
89	0
90	0
91	1
92	0
93	0
94	1
95	1
96	4
97	22
98	203
99	98
100	6
101	8
102	1
103	0
104	0
105	1
106	0
107	0
108	1
109	2
110	10
111	3
112	7
113	5
114	1
115	8
116	103
117	8
118	1
119	1
120	0
121	0
122	2
123	1
124	5
125	25
127	584
128	50
129	4
130	0
131	0
132	0
133	0
134	0
135	0
136	1
137	3
138	2
139	33
140	5
141	2
142	5
143	3
144	0
148	0
149	1
150	7
152	9
153	2
154	1
155	5
156	0
157	0
158	0
159	1
160	3
161	0
163	0
164	0
165	2
166	19
167	42
168	6
169	0
170	6
171	2
172	1
173	0
181	2
183	162
184	19
185	1
186	0
197	0
199	4
200	0
203	0
208	0
210	72
211	8
212	0
220	0
223	0
224	4
225	2
227	272
228	34
229	3
230	0
231	0
241	0
268	0
283	0
