Mass Spectrum: Bicyclo[2.2.2]octane-2,6,7-triol, stereoisomer
Formula: C8H14O3
CAS: 33746-56-4
Molecular weight: 158
m/z	intensity
25	0
26	8
27	138
28	16
29	112
30	4
31	57
33	0
36	0
37	1
38	7
39	155
40	35
41	258
42	79
43	219
44	94
45	70
46	3
47	17
48	0
49	0
50	9
51	27
52	11
53	70
54	31
55	144
56	27
57	78
58	64
59	7
60	24
61	6
62	21
63	7
64	2
65	39
66	63
67	175
68	68
69	108
70	310
71	118
72	7
73	190
74	13
75	4
76	4
77	112
78	295
79	226
80	106
81	82
82	20
83	59
84	166
85	16
86	13
87	6
88	4
89	1
90	1
91	53
92	27
93	59
94	150
95	999
96	496
97	191
98	27
99	21
100	1
101	4
102	1
103	5
104	23
105	10
106	9
107	73
108	8
109	23
110	6
111	21
112	435
113	39
114	3
121	15
122	113
123	24
124	11
125	11
126	1
139	4
140	164
141	20
142	3
143	2
156	0
157	1
158	1
159	2
