Mass Spectrum: Carbonochloridic acid, heptyl ester
Formula: C8H15ClO2
CAS: 33758-34-8
Molecular weight: 178
m/z	intensity
14	1
15	9
16	2
17	1
18	4
26	12
27	179
28	14
29	248
30	7
31	4
32	2
35	4
36	18
37	2
38	8
39	136
40	28
41	614
42	330
43	466
44	65
45	3
49	3
50	5
51	9
52	4
53	32
54	66
55	509
56	999
57	469
58	19
59	1
61	1
62	3
63	124
64	2
65	40
66	2
67	25
68	118
69	585
70	798
71	56
72	2
73	1
74	3
75	2
76	3
77	8
78	1
79	3
81	7
82	4
83	82
84	8
85	4
87	1
89	1
90	1
91	46
92	2
93	18
94	1
95	4
96	1
97	9
98	111
99	13
100	1
101	1
105	8
106	1
107	4
109	1
113	2
121	9
123	3
135	3
137	1
143	1
