Mass Spectrum: 1,4-Naphthalenedione, 2,3-diphenyl-
Formula: C22H14O2
CAS: 33753-12-7
Molecular weight: 310
m/z	intensity
37	15
38	52
39	190
40	88
41	138
42	63
43	205
45	52
49	15
50	348
51	246
52	56
53	36
54	15
55	54
56	47
57	47
58	11
59	6
60	18
61	11
62	38
63	83
64	18
65	33
74	113
75	196
76	999
77	325
78	58
87	27
88	31
89	38
91	42
93	13
94	22
95	27
98	22
99	33
100	22
101	38
102	79
103	18
104	877
105	260
106	29
125	27
126	63
127	22
128	27
129	27
148	13
149	22
150	56
151	79
152	83
153	15
154	27
155	36
163	15
164	11
165	38
174	22
175	27
176	160
177	88
178	180
179	63
180	11
189	29
190	13
191	18
203	13
204	18
205	58
206	74
207	20
232	15
233	54
234	115
235	40
246	13
247	29
248	74
249	29
250	110
251	45
252	264
253	106
254	29
255	29
264	15
265	61
266	11
279	40
280	27
281	312
282	147
283	15
309	79
310	588
311	140
312	16
313	1
