Mass Spectrum: c-Phenyl-N-benzylnitrone
Formula: C14H13NO
CAS: 3376-26-9
Molecular weight: 211
m/z	intensity
77	26
91	999
92	216
103	26
104	29
105	54
106	29
181	48
193	26
194	149
195	209
196	31
211	102
