Mass Spectrum: N-Cyclohexylbenzylimine, N-oxide
Formula: C13H17NO
CAS: 3376-25-8
Molecular weight: 203
m/z	intensity
26	5
27	82
28	40
29	111
30	6
31	6
36	7
37	4
38	11
39	163
40	28
41	530
42	34
43	70
44	6
45	3
49	2
50	27
51	94
52	27
53	88
54	111
55	999
56	65
57	14
58	3
59	10
61	3
62	17
63	56
64	32
65	123
66	65
67	282
68	22
69	13
70	3
71	3
72	5
73	3
74	7
75	14
76	30
77	230
78	140
79	80
80	15
81	198
82	108
83	564
84	48
85	5
86	6
87	4
88	6
89	143
90	83
91	103
92	41
93	60
94	80
95	9
96	5
97	2
98	4
99	9
100	2
101	3
102	17
103	27
104	451
105	77
106	175
107	17
108	4
109	2
110	4
112	13
113	2
115	14
116	10
117	35
118	26
119	10
120	164
121	394
122	500
123	49
124	4
125	9
126	23
127	4
128	7
129	17
130	28
131	21
132	87
133	12
134	2
141	6
142	3
143	28
144	76
145	20
146	9
147	2
148	2
149	5
156	5
157	6
158	34
159	8
160	167
161	54
162	12
163	4
169	7
170	5
171	11
172	7
173	2
174	15
175	4
184	4
185	4
186	585
187	126
188	12
189	2
202	31
203	930
204	158
205	17
206	2
