Mass Spectrum: Benzanilide, 2'-formyl-
Formula: C14H11NO2
CAS: 33768-43-3
Molecular weight: 225
m/z	intensity
26	1
27	10
28	0
29	4
37	1
38	6
39	31
40	3
41	2
42	1
44	0
49	0
50	29
51	129
52	13
53	2
54	0
55	0
57	0
61	0
62	2
63	13
64	11
65	39
66	6
67	0
69	0
70	0
73	0
74	7
75	10
76	21
77	494
78	33
79	1
83	0
84	1
87	0
88	0
89	4
90	3
91	5
92	16
93	3
94	1
95	0
98	5
99	0
100	0
102	0
103	1
104	4
105	999
106	74
107	4
113	0
114	0
115	1
116	0
118	0
119	0
120	37
121	3
122	0
128	0
139	1
140	1
141	0
146	0
148	0
151	0
152	1
153	0
166	1
167	3
168	0
170	0
177	0
178	1
179	0
180	1
181	0
193	0
194	0
195	0
196	41
197	169
198	24
199	2
208	0
224	1
225	147
226	25
227	2
