Mass Spectrum: Cyclopentanone, O-methyloxime
Formula: C6H11NO
CAS: 3376-37-2
Molecular weight: 113
m/z	intensity
41	415
42	89
43	29
44	29
45	59
50	29
51	49
52	79
53	138
54	584
55	999
56	89
57	9
58	29
59	59
63	9
64	9
65	29
66	39
67	138
68	79
69	19
70	19
71	9
78	9
79	9
80	69
81	19
82	455
83	89
84	19
85	19
112	19
113	544
114	39
