Mass Spectrum: Propanedioic acid, methylene-, dimethyl ester
Formula: C6H8O4
CAS: 3377-21-7
Molecular weight: 144
m/z	intensity
26	187
27	86
28	45
29	89
31	20
39	60
41	85
42	33
43	80
45	80
53	104
54	169
55	101
57	31
58	30
59	550
68	8
69	41
70	6
82	11
83	17
84	9
85	100
86	69
87	27
99	19
100	5
102	25
112	75
113	999
114	202
115	19
116	6
126	8
127	21
128	5
129	3
143	18
144	87
145	13
146	2
