Mass Spectrum: 1-Hexanamine, 3,5,5-trimethyl-
Formula: C9H21N
CAS: 3378-63-0
Molecular weight: 143
m/z	intensity
2	2
13	1
14	4
15	39
16	6
17	25
18	123
26	6
27	81
28	72
29	99
30	999
31	23
32	5
37	1
38	4
39	68
40	13
41	172
42	33
43	74
44	53
45	82
46	3
50	2
51	5
52	3
53	14
54	5
55	62
56	47
57	161
58	19
59	3
60	1
63	1
64	1
65	2
66	1
67	5
68	4
69	44
70	52
71	14
72	7
73	4
74	1
75	1
76	1
77	1
79	1
80	1
81	2
82	12
83	33
84	6
85	5
86	59
87	5
88	1
91	1
95	1
96	1
97	8
98	4
112	3
113	1
115	1
116	1
124	11
125	1
126	1
128	36
129	2
130	1
142	1
143	4
