Mass Spectrum: .beta.-D-Glucopyranoside, 2,3-bis(acetyloxy)-1-(1-phenyl-1H-pyrazolo[3,4-b]quinoxalin-3-yl)propyl, 2,3,4,6-tetraacetate, [R-(R*,S*)]-
Formula: C36H38N4O14
CAS: 33797-00-1
Molecular weight: 750
m/z	intensity
41	38
42	30
43	999
44	57
45	50
51	15
55	30
56	26
60	30
61	7
69	30
70	7
72	26
78	30
79	11
81	30
82	7
84	26
97	26
98	7
103	30
104	7
109	146
110	15
115	46
116	7
127	100
128	15
139	26
140	7
145	30
146	7
159	415
160	26
188	7
210	15
220	30
229	23
231	7
245	26
246	15
247	11
257	11
258	7
259	15
260	7
261	7
271	7
272	15
273	61
274	26
275	57
276	19
285	38
286	7
287	15
288	23
289	30
301	146
302	73
303	11
317	3
318	7
319	7
331	346
332	69
333	11
343	30
344	61
345	11
358	3
359	3
360	11
361	7
403	138
404	15
418	26
419	20
420	13
421	2
647	0
648	0
649	0
750	34
751	16
752	6
