Mass Spectrum: 2-(Toluene-4-sulfonyloxy)propionic acid, ethyl ester
Formula: C12H16O5S
CAS: 33798-77-5
Molecular weight: 272
m/z	intensity
20	1
26	8
27	60
28	43
29	171
30	8
31	5
32	4
35	0
36	3
37	1
38	7
39	88
40	7
41	44
42	7
43	68
44	14
45	181
46	6
47	3
48	3
49	1
50	19
51	34
52	11
53	10
54	2
55	29
56	31
57	10
58	7
59	6
60	2
61	3
62	13
63	58
64	20
65	295
66	17
67	8
68	1
69	9
70	3
71	7
72	7
73	38
74	7
75	13
76	4
77	31
78	8
79	18
80	4
81	5
82	2
83	4
84	3
85	3
86	3
87	7
88	2
89	67
90	42
91	999
92	178
93	14
94	2
95	5
96	1
97	4
98	1
99	2
100	1
101	6
102	2
103	1
104	0
105	8
106	1
107	25
108	16
109	4
110	1
111	8
112	1
113	1
115	3
116	0
117	2
118	0
119	2
120	1
121	4
122	2
123	2
124	2
125	8
126	1
127	0
129	0
131	0
133	0
135	1
136	0
137	0
139	31
140	15
141	2
145	17
146	1
147	0
149	2
152	0
153	0
154	2
155	827
156	100
157	45
158	5
159	0
167	9
168	1
171	1
172	4
173	0
180	0
182	4
183	0
184	3
185	0
190	28
191	2
192	10
193	0
198	0
199	205
200	26
201	11
202	1
208	0
209	1
212	3
213	0
227	2
272	42
273	6
274	2
