Mass Spectrum: Dimethylhydroxymethylphosphine
Formula: C3H9OP
CAS: 33796-25-7
Molecular weight: 92
m/z	intensity
30	19
31	108
41	9
42	9
43	20
44	151
45	549
46	999
47	159
48	20
49	40
56	9
57	169
58	199
59	258
60	9
61	130
62	700
63	19
75	10
77	20
92	209
93	19
