Mass Spectrum: Inositol, 1,2,3,5,6-pentakis-O-(trimethylsilyl)-, bis(trimethylsilyl) phosphate, L-chiro-
Formula: C27H69O9PSi7
CAS: 33800-40-7
Molecular weight: 764
m/z	intensity
73	999
74	88
75	34
76	2
81	6
87	1
88	1
89	1
99	3
100	1
101	8
102	2
103	17
104	2
105	1
109	2
111	3
113	6
114	2
115	3
116	4
117	5
118	1
119	4
121	1
125	1
126	1
127	10
128	2
129	58
130	8
131	21
132	2
133	54
134	8
137	1
138	1
139	2
140	2
141	4
142	6
143	27
144	4
145	3
146	2
147	330
148	54
149	35
150	4
151	52
152	1
153	5
154	2
155	7
156	4
157	8
158	2
159	4
161	4
162	1
163	2
167	2
168	1
169	6
170	1
171	2
173	2
174	1
175	4
176	2
177	4
178	1
179	2
180	1
181	4
182	2
183	3
184	1
185	2
186	1
187	1
188	1
189	10
190	20
191	103
192	19
193	12
194	2
195	5
196	1
199	2
200	1
201	6
202	2
203	5
204	42
205	15
206	5
207	25
208	5
209	3
210	2
211	32
212	5
213	5
214	2
215	10
216	6
217	143
218	32
219	14
220	3
221	18
222	5
223	2
225	16
226	4
227	16
228	5
229	5
230	28
231	11
232	4
233	2
235	2
237	1
239	6
240	2
241	5
242	4
243	35
244	10
245	14
246	11
247	3
248	2
249	1
252	1
253	2
254	3
255	34
256	9
257	7
258	2
259	1
265	16
266	4
267	4
268	3
269	8
270	8
271	11
272	3
273	4
274	1
275	2
277	1
278	2
279	2
280	2
282	1
283	15
284	10
285	21
286	6
287	4
288	2
289	2
290	2
291	14
292	5
293	9
294	3
295	2
296	2
297	4
298	18
299	520
300	136
301	78
302	15
303	7
304	8
305	33
306	17
307	6
308	3
309	1
310	1
311	1
312	2
313	26
314	22
315	451
316	127
317	81
318	358
319	117
320	57
321	12
322	5
323	2
325	1
326	1
327	1
328	4
329	5
330	3
331	9
332	4
333	3
334	1
335	1
336	1
339	1
340	1
341	6
342	17
343	60
344	28
345	25
346	7
347	3
348	2
349	1
350	1
353	1
357	5
358	3
359	5
360	6
361	3
362	2
363	1
366	1
367	3
368	1
369	9
370	3
371	3
372	3
373	28
374	9
375	7
376	2
377	1
378	1
379	1
380	1
381	1
382	1
383	3
384	2
385	2
386	5
387	54
388	27
389	168
390	55
391	34
392	9
393	3
394	1
395	1
397	2
398	1
399	2
405	2
406	1
413	1
414	1
416	2
417	9
418	5
419	5
420	2
421	2
422	1
423	1
424	1
425	1
426	1
427	1
428	1
429	17
430	6
431	7
432	71
433	107
434	47
435	21
436	7
437	2
438	1
439	1
441	1
442	3
443	4
444	2
445	2
446	1
447	2
448	1
449	1
450	1
455	5
456	2
457	9
458	3
459	3
460	1
461	5
462	2
463	2
466	2
469	1
470	25
471	11
472	7
473	2
474	1
482	1
483	1
484	1
485	1
487	1
488	1
489	1
490	1
494	1
495	2
496	1
497	5
498	2
499	1
500	1
503	1
506	1
507	9
508	5
509	2
510	1
511	1
516	2
517	1
518	1
519	1
520	1
521	1
522	1
523	1
524	1
528	1
529	2
530	1
531	1
532	1
533	1
544	1
545	2
546	1
547	1
548	1
549	1
557	4
558	2
559	2
560	1
569	6
570	4
571	4
572	2
573	1
574	1
575	1
584	9
585	7
586	4
587	4
588	2
589	2
590	1
601	1
603	1
604	1
605	1
631	2
632	2
633	1
634	1
635	1
645	1
646	1
647	1
659	4
660	2
661	4
662	2
663	1
664	5
673	1
677	1
678	1
679	1
749	85
750	57
751	39
752	17
753	7
754	2
755	2
764	1
765	1
766	1
