Mass Spectrum: Benzyl alcohol, o-(benzyloxy)-
Formula: C14H14O2
CAS: 3381-87-1
Molecular weight: 214
m/z	intensity
41	38
42	3
43	5
44	1
45	2
47	3
48	1
49	19
50	16
51	65
52	16
53	9
54	0
55	14
56	2
57	3
58	0
60	0
61	1
62	8
63	39
64	15
65	168
66	17
67	9
68	2
69	3
70	1
71	2
73	1
74	3
75	3
76	9
77	77
78	27
79	10
80	1
81	1
82	2
83	3
84	14
85	1
86	9
87	1
88	2
89	30
91	999
92	130
93	9
94	5
95	15
96	1
97	2
98	3
101	0
102	0
103	0
104	4
105	4
106	14
107	20
108	24
109	2
111	1
112	0
113	0
115	2
116	0
118	0
119	1
120	6
121	24
122	43
123	41
124	3
125	0
127	1
128	1
129	1
131	0
136	1
139	1
141	1
149	0
151	1
152	4
153	2
154	1
155	1
165	4
166	1
167	1
168	1
169	0
178	0
179	2
181	4
182	0
183	3
184	4
185	1
194	0
195	11
196	62
197	10
198	1
214	113
215	15
216	1
