Mass Spectrum: Pentanedioic acid, dioctyl ester
Formula: C21H40O4
CAS: 33814-34-5
Molecular weight: 356
m/z	intensity
26	2
27	18
29	37
39	15
40	3
41	93
42	70
43	110
44	2
45	10
53	5
54	8
55	76
56	48
57	113
58	5
60	6
61	6
67	9
68	11
69	50
70	50
71	82
72	4
73	6
81	3
82	8
83	29
84	23
85	5
86	52
87	84
88	6
89	2
97	11
98	10
99	2
110	3
111	3
112	21
113	6
114	62
115	999
116	53
117	7
133	21
157	4
170	5
185	2
198	27
199	3
226	11
227	120
228	17
245	46
246	6
285	3
