Mass Spectrum: 1H-Pyrrole, 2,3-dihydro-1-methyl-
Formula: C5H9N
CAS: 33838-11-8
Molecular weight: 83
m/z	intensity
26	15
27	53
28	77
30	8
33	2
34	1
35	1
36	2
37	17
38	27
39	143
40	37
41	149
42	857
43	16
49	4
50	22
51	32
52	20
53	96
54	52
55	200
56	22
57	65
58	3
59	2
63	2
64	7
65	35
66	9
67	417
68	33
69	2
80	503
81	650
82	999
83	821
84	101
85	37
