Mass Spectrum: 1-Heptadecanol, 17-bromo-
Formula: C17H35BrO
CAS: 338389-27-8
Molecular weight: 334
m/z	intensity
27	16
28	6
29	58
31	211
39	105
40	9
41	351
42	141
43	219
45	6
53	71
54	52
55	699
56	132
57	187
65	13
66	6
67	194
68	171
69	601
70	172
71	131
77	10
79	60
80	3
81	240
82	424
83	895
84	178
85	149
93	34
95	220
96	227
97	999
98	185
99	45
107	208
108	3
109	303
110	125
111	489
112	133
113	16
121	48
123	185
124	114
125	327
126	95
127	12
134	32
135	247
136	39
137	325
138	86
139	133
140	51
147	3
148	525
149	122
150	535
151	159
152	47
153	93
154	24
161	27
162	344
163	111
164	324
165	94
166	14
167	72
168	3
175	62
176	100
177	99
178	92
179	43
180	3
181	35
182	3
188	3
189	85
190	97
191	92
192	81
193	19
194	2
195	20
202	20
203	102
204	84
205	105
206	53
207	3
208	6
216	6
217	69
218	61
219	60
220	56
231	45
232	61
233	47
234	23
236	6
237	6
245	33
246	61
247	31
248	35
255	6
259	6
260	56
261	18
262	29
274	35
275	6
276	28
288	205
289	28
290	189
291	20
316	95
317	6
318	84
319	17
