Mass Spectrum: 5aH,10aH-4a,9a-Epoxydibenzo[b,e][1,4]dioxin-5a,10a-diol, octahydro-, (4a.alpha.,5a.beta.,9a.alpha.,10a.beta.)-
Formula: C12H18O5
CAS: 33832-15-4
Molecular weight: 242
m/z	intensity
25	1
26	16
27	102
28	73
29	101
30	5
31	22
33	0
34	0
37	2
38	5
39	65
40	4
41	174
42	46
43	114
44	5
45	17
46	2
47	1
48	0
49	1
50	5
51	5
52	2
53	16
54	6
55	253
56	75
57	35
58	4
59	57
60	9
61	1
62	1
63	1
64	0
65	8
66	5
67	95
68	47
69	11
70	26
71	13
72	2
73	108
74	10
75	1
77	0
78	0
79	1
80	0
81	2
82	1
83	164
84	91
85	48
86	72
87	5
88	1
89	0
91	0
93	1
94	1
95	12
96	39
97	4
98	1
99	1
100	0
101	75
102	27
103	2
104	0
108	0
109	0
111	159
112	155
113	107
114	999
115	64
116	6
117	1
120	0
121	0
123	0
124	0
126	1
127	0
128	1
129	44
130	3
131	1
138	0
139	0
140	2
141	0
142	0
144	14
145	1
146	0
149	0
150	0
151	0
152	0
157	1
162	0
167	0
168	1
169	0
170	0
175	0
178	0
185	0
186	3
187	0
196	5
197	1
198	0
207	0
212	0
213	0
214	11
215	2
216	0
242	2
243	1
