Mass Spectrum: 3-Carbamoyl-2,3-diphenyl-1-azirine
Formula: C15H12N2O
CAS: 33859-59-5
Molecular weight: 236
m/z	intensity
26	1
27	8
28	7
37	2
38	5
39	31
40	2
41	2
42	1
43	7
44	8
49	1
50	19
51	53
52	10
53	2
55	1
57	3
61	3
62	17
63	72
64	9
65	4
66	1
69	2
70	1
71	2
74	7
75	9
76	39
77	215
78	29
79	3
81	4
82	14
83	12
84	1
85	2
86	4
87	7
88	9
89	130
90	31
91	9
92	7
93	2
94	1
95	24
96	7
97	2
98	1
99	1
100	1
101	1
102	4
103	89
104	443
105	999
106	105
107	5
108	1
109	3
110	2
111	1
113	1
114	4
115	10
116	10
117	16
118	16
119	6
121	1
122	1
125	1
126	1
127	1
128	1
129	2
130	1
131	4
132	2
133	4
135	2
137	1
139	3
140	1
141	1
142	1
143	1
149	2
150	1
151	2
152	3
153	1
162	1
163	7
164	13
165	45
166	11
167	3
176	2
177	4
178	7
179	2
180	3
181	1
188	1
189	2
190	50
191	40
192	58
193	38
194	13
195	6
196	1
202	1
203	1
204	1
205	3
206	2
207	11
208	294
209	50
210	5
211	1
216	1
217	4
218	27
219	32
220	84
221	21
222	3
234	3
235	12
236	145
237	38
238	40
239	7
