Mass Spectrum: 1,3-Cyclohexanediamine
Formula: C6H14N2
CAS: 3385-21-5
Molecular weight: 114
m/z	intensity
12	1
13	0
14	1
15	38
16	4
17	8
18	82
19	3
25	0
26	6
27	56
28	158
29	34
30	124
31	3
32	0
35	1
36	21
37	0
38	3
39	39
40	9
41	74
42	122
43	999
44	145
45	36
46	0
47	0
48	0
49	0
50	2
51	6
52	5
53	14
54	30
55	23
56	271
57	31
58	19
59	1
61	0
62	0
63	1
64	1
65	6
66	8
67	10
68	24
69	196
70	68
71	251
72	16
73	1
74	0
75	0
76	0
77	6
78	11
79	9
80	12
81	125
82	9
83	6
84	7
85	2
86	0
91	0
92	2
93	18
94	7
95	4
96	103
97	321
98	44
99	3
100	0
101	0
107	0
108	0
109	0
111	1
112	0
113	2
114	17
115	18
116	1
