Mass Spectrum: 3,3'-(Ethylenedioxy)dipropionitrile
Formula: C8H12N2O2
CAS: 3386-87-6
Molecular weight: 168
m/z	intensity
14	5
15	23
17	1
18	3
26	30
27	84
28	75
29	44
30	5
31	141
32	6
38	3
39	6
40	13
41	27
42	16
43	36
44	26
45	188
46	5
49	1
50	1
51	8
52	29
53	20
54	999
55	70
56	8
57	13
58	6
59	2
61	1
67	1
68	27
69	6
70	14
71	4
72	17
73	3
84	413
85	35
86	4
87	1
97	117
98	145
99	35
100	2
101	1
107	2
108	3
109	2
110	1
111	2
114	3
115	2
125	2
128	13
129	1
138	15
139	4
141	65
142	5
151	7
167	2
168	1
