Mass Spectrum: Hexanoic acid, 6-(acetylamino)-3-[[3,6-bis(acetylamino)-1-oxohexyl]amino]-, methyl ester, [S-(R*,R*)]-
Formula: C19H34N4O6
CAS: 33861-54-0
Molecular weight: 414
m/z	intensity
41	265
42	125
43	300
44	750
56	160
57	105
58	215
60	80
68	125
70	550
71	100
72	355
73	125
82	75
84	561
86	238
96	115
97	105
99	250
100	320
101	810
102	315
110	180
111	170
112	999
113	800
115	145
116	150
125	180
126	375
127	332
128	132
129	180
130	121
141	70
142	250
143	275
144	140
152	332
153	100
154	177
155	55
157	180
169	95
170	70
171	90
172	175
173	67
184	250
185	120
186	162
187	95
198	70
201	120
203	355
204	130
213	210
214	132
217	140
229	70
230	87
240	32
244	150
255	35
269	40
271	45
272	110
283	45
286	85
294	67
296	27
300	55
312	145
314	157
315	132
324	35
328	65
342	157
354	182
355	55
371	90
383	107
414	200
415	100
