Mass Spectrum: Ethanone, 2-(benzoyloxy)-1-phenyl-
Formula: C15H12O3
CAS: 33868-50-7
Molecular weight: 240
m/z	intensity
39	50
40	30
43	30
50	50
51	140
55	30
76	30
77	380
78	70
91	30
105	999
106	110
118	210
240	20
