Mass Spectrum: Phosphonic acid, [3-(aminocarbonyl)-2-phenyl-2-aziridinyl]-, diethyl ester
Formula: C13H19N2O4P
CAS: 33866-52-3
Molecular weight: 298
m/z	intensity
44	130
51	170
58	190
63	130
65	330
77	400
81	110
89	330
90	150
91	200
93	100
104	669
105	999
106	150
116	300
117	270
118	250
132	250
133	190
144	100
160	929
161	969
162	130
197	350
198	120
225	130
226	60
253	180
254	130
281	70
298	20
