Mass Spectrum: Phosphonic acid, [3-(aminocarbonyl)-2-phenyl-2-aziridinyl]-, dimethyl ester
Formula: C11H15N2O4P
CAS: 33866-51-2
Molecular weight: 270
m/z	intensity
44	140
47	110
51	190
58	150
63	230
77	330
78	110
89	270
90	140
93	410
104	549
105	999
106	150
109	90
116	230
117	170
118	150
132	200
133	70
160	899
161	789
225	400
226	180
253	60
270	10
