Mass Spectrum: 2-Methyl-1,3-oxathiolane-2-acetic acid ethyl ester
Formula: C8H14O3S
CAS: 33868-62-1
Molecular weight: 190
m/z	intensity
29	89
41	30
42	19
43	450
45	78
58	39
59	140
60	999
61	109
62	49
85	110
88	40
102	19
103	409
104	19
105	20
130	59
131	319
132	19
190	69
