Mass Spectrum: 2-[2-[2-[2-[2-[2-[2-[2-(2-Hydroxyethoxy)ethoxy]ethoxy]ethoxy]ethoxy]ethoxy]ethoxy]ethoxy]ethanol
Formula: C18H38O10
CAS: 3386-18-3
Molecular weight: 414
m/z	intensity
15	6
19	8
25	1
26	3
27	17
28	39
29	40
30	9
31	36
33	1
39	1
41	16
42	21
43	114
44	100
45	999
46	23
47	3
55	2
56	5
57	22
58	69
59	103
60	6
61	8
62	1
63	1
69	4
70	18
71	24
72	71
73	101
74	7
75	29
76	2
77	9
80	3
83	1
84	1
85	2
86	23
87	216
88	86
89	553
90	26
91	6
97	1
99	4
100	4
101	40
102	16
103	51
104	6
105	6
107	2
112	1
113	4
114	5
115	9
116	7
117	27
118	4
119	9
121	15
129	1
131	61
132	8
133	226
134	16
135	4
145	3
146	1
147	8
148	2
149	1
151	4
157	1
158	1
159	3
161	2
163	8
164	1
165	3
174	1
175	29
176	3
177	44
178	4
179	1
189	1
191	1
195	5
201	1
207	8
209	2
219	5
220	1
221	7
222	1
239	3
251	3
252	1
253	1
263	1
265	1
283	1
295	1
327	3
339	1
371	1
