Mass Spectrum: Acetonitrile, 2-(2-pyridylthio)-, N-oxide
Formula: C7H6N2OS
CAS: 338778-95-3
Molecular weight: 166
m/z	intensity
33	1
34	2
36	1
37	13
38	42
39	188
40	56
41	10
42	4
44	6
45	112
46	12
47	6
48	2
49	6
50	49
51	191
52	97
53	10
54	14
55	48
56	4
57	36
58	12
59	4
60	4
61	5
63	44
64	12
65	4
66	10
67	80
69	129
70	156
71	52
72	10
73	3
74	1
75	4
76	8
78	999
79	241
80	16
81	11
82	25
83	30
84	11
85	36
86	2
87	2
88	0
89	0
90	4
91	1
92	6
93	13
94	5
95	128
96	53
97	7
98	10
99	2
100	0
104	3
105	141
106	11
108	6
109	4
110	17
111	150
112	10
113	7
114	0
116	0
117	26
118	6
119	0
120	2
122	218
123	100
124	24
125	9
126	5
127	3
128	0
133	3
134	1
137	5
138	1
139	1
140	1
148	66
149	191
150	34
151	10
152	1
166	293
167	28
168	14
169	1
