Mass Spectrum: Benzoic acid, [(benzoylhydrazono)ethylidene]hydrazide
Formula: C16H14N4O2
CAS: 33876-76-5
Molecular weight: 294
m/z	intensity
34	0
36	3
37	1
38	5
39	16
40	40
41	32
42	2
43	13
44	59
45	4
50	25
51	75
52	9
53	4
55	7
56	2
57	7
62	3
63	11
64	6
65	6
66	1
68	0
69	3
70	2
71	5
73	1
74	7
75	9
76	23
77	347
78	31
79	8
80	1
82	0
83	3
84	2
85	0
87	0
89	2
90	5
91	6
92	3
93	0
94	1
95	2
97	2
98	1
103	19
105	999
106	79
107	6
108	0
110	0
113	3
115	2
117	1
118	4
119	4
120	5
121	23
122	27
123	3
130	1
131	3
133	0
134	2
135	1
136	2
139	0
140	1
144	21
145	22
146	12
147	16
149	6
150	2
152	4
153	3
160	2
161	18
162	2
164	2
167	3
168	4
169	0
171	7
173	10
174	12
175	1
176	1
179	3
180	0
183	1
187	4
189	60
190	8
199	0
207	1
209	1
210	1
220	1
225	1
226	1
240	2
265	3
266	1
294	6
