Mass Spectrum: Azulene, 1,2,3,3a-tetrahydro-
Formula: C10H12
CAS: 33877-87-1
Molecular weight: 132
m/z	intensity
38	32
39	238
40	20
41	44
50	88
51	208
52	60
53	72
62	36
63	118
64	72
65	132
66	14
74	30
75	30
76	32
77	178
78	168
79	32
91	416
102	46
103	134
104	464
105	68
115	288
116	156
117	999
118	122
119	46
127	48
128	98
129	92
130	26
131	342
132	376
133	52
