Mass Spectrum: 1-Phenanthrenecarboxylic acid, 1,2,3,4,4a,4b,5,6,7,8,10,10a-dodecahydro-1,4a-dimethyl-7-(1-methylethyl)-, methyl ester, [1R-(1.alpha.,4a.beta.,4b.beta.,7.beta.,10a.alpha.)]-
Formula: C21H34O2
CAS: 33892-13-6
Molecular weight: 318
m/z	intensity
70	20
71	10
73	30
77	350
78	120
79	580
80	120
81	510
82	240
83	80
86	10
88	10
91	580
92	110
93	530
94	260
95	380
96	40
97	100
100	10
101	90
103	40
104	20
105	410
106	150
107	999
108	240
109	470
110	10
115	30
116	10
117	110
118	30
119	170
120	60
121	560
122	90
123	90
124	10
125	10
128	50
129	50
130	20
131	160
132	20
133	140
134	20
135	210
136	130
137	10
141	10
143	20
145	100
146	10
147	60
149	40
150	480
151	60
159	60
160	10
161	40
163	50
169	20
173	20
174	10
175	10
177	10
180	20
181	40
187	70
188	10
189	50
190	10
191	10
194	10
201	20
215	40
217	10
243	280
244	40
258	550
259	320
260	40
303	230
304	20
318	330
319	60
