Mass Spectrum: Pyridine, 2-(1H-tetrazol-5-yl)-
Formula: C6H5N5
CAS: 33893-89-9
Molecular weight: 147
m/z	intensity
50	190
51	200
52	140
63	200
64	320
65	100
78	250
91	999
92	83
104	22
105	80
119	78
147	38
