Mass Spectrum: 1,2,4-Triazolo[4,3-b]pyridazin-6-amine, N-benzyl-3-trifluoromethyl-
Formula: C13H10F3N5
CAS: 338962-59-7
Molecular weight: 293
m/z	intensity
33	1
34	1
35	0
37	18
38	40
39	74
40	33
41	25
42	3
43	8
44	8
45	1
46	0
47	0
48	0
50	26
51	61
52	59
53	11
54	3
55	4
56	2
57	6
58	4
59	0
60	1
61	2
62	10
63	44
64	51
65	166
66	13
67	3
69	28
70	5
71	9
73	1
74	4
75	6
76	12
77	63
78	31
79	76
80	5
81	2
82	5
83	3
85	11
86	1
87	2
89	46
91	999
92	72
93	4
94	1
95	11
96	2
98	6
99	1
100	0
101	1
102	3
104	86
105	31
106	68
107	5
108	0
109	4
110	6
111	1
112	2
113	3
114	4
115	6
116	4
117	3
118	3
119	2
121	11
122	1
123	1
124	0
125	0
127	11
128	2
129	2
130	6
131	3
132	0
133	2
134	1
135	0
137	7
138	0
139	1
140	6
141	12
142	3
143	1
144	0
145	0
146	0
147	0
148	0
149	5
150	0
151	0
152	0
153	0
154	0
155	1
156	0
157	0
158	0
159	1
160	2
161	0
162	1
163	3
164	2
165	0
166	1
167	3
168	7
169	34
170	8
171	2
172	0
178	0
179	0
180	0
181	1
182	2
183	0
184	0
186	0
189	151
190	25
191	1
192	0
194	6
196	13
197	2
198	0
199	0
203	1
204	0
207	0
213	0
214	3
215	1
216	4
217	0
218	0
222	0
224	6
225	1
226	0
237	0
238	0
244	0
245	0
250	0
251	0
263	0
264	1
265	0
266	0
270	0
272	6
273	2
274	18
275	3
276	0
277	0
279	0
287	0
288	0
289	1
290	4
292	87
293	227
294	35
295	2
