Mass Spectrum: Propanamide, 3-(3-dimethylaminopropylamino)-N-(3,5-dichlorophenyl)-
Formula: C14H21Cl2N3O
CAS: 338981-18-3
Molecular weight: 317
m/z	intensity
35	0
36	3
38	1
39	4
40	7
41	25
42	53
43	25
44	65
45	13
46	10
51	0
52	0
53	0
54	3
55	11
56	68
58	999
59	45
60	1
61	0
62	1
63	4
64	6
65	3
67	1
68	5
69	3
70	61
71	27
72	228
73	12
74	1
75	1
79	0
80	0
81	0
82	3
83	10
84	87
85	191
86	36
87	15
88	1
89	1
90	2
97	3
98	1
99	8
101	266
102	16
109	2
110	1
111	2
112	2
113	1
117	0
123	1
124	3
125	2
126	2
127	3
129	118
130	68
131	5
133	3
134	1
135	1
136	0
137	0
139	0
145	3
146	0
147	2
149	1
152	0
153	1
160	3
161	5
162	2
163	2
164	0
171	3
172	0
173	0
174	2
176	0
187	3
188	2
189	1
190	1
217	0
218	1
243	3
244	0
245	2
247	0
317	2
319	1
