Mass Spectrum: Acetamide, 2-(2,4-dichloro-6-nitrophenoxy)-N-benzyl-
Formula: C15H12Cl2N2O4
CAS: 338997-12-9
Molecular weight: 354
m/z	intensity
33	42
34	4
36	32
37	8
39	88
40	47
41	51
42	96
44	91
45	3
46	1
47	1
50	23
51	56
52	48
54	18
55	19
56	18
57	11
58	2
60	5
61	32
63	30
65	158
67	6
68	3
69	6
70	6
71	6
72	9
73	31
74	23
77	83
78	49
79	97
81	5
82	5
83	9
84	9
85	7
86	5
87	5
89	30
91	999
94	2
95	2
97	67
99	19
100	10
101	2
103	24
104	174
106	71
107	324
109	48
111	23
112	9
113	4
114	2
115	2
118	25
119	19
120	8
121	4
122	2
123	3
124	4
125	8
126	6
127	5
128	3
130	12
132	46
134	20
135	5
136	2
137	2
138	2
139	1
140	4
141	2
144	46
146	52
148	799
151	4
152	3
153	1
155	2
156	1
157	1
158	1
160	25
162	29
164	8
165	2
166	1
167	1
168	2
169	1
171	7
172	1
174	3
175	2
176	9
177	5
179	7
180	1
181	1
182	0
183	0
184	0
186	4
187	1
188	1
190	3
192	2
193	0
194	0
195	0
197	10
199	5
200	1
201	0
202	0
204	1
205	2
207	2
208	1
209	2
210	0
211	0
212	0
213	0
214	0
215	1
216	0
217	0
219	0
220	2
221	1
222	1
223	0
224	0
227	0
229	1
230	3
231	2
232	2
233	1
234	0
235	0
236	0
238	0
241	0
244	0
246	0
247	0
248	0
249	0
250	0
251	0
252	0
253	0
259	0
260	0
263	0
266	0
274	0
276	0
278	0
279	1
280	0
281	0
282	0
283	1
284	0
288	2
289	9
290	2
291	2
292	0
296	0
298	0
300	0
301	16
303	9
304	0
306	0
307	1
308	0
309	1
310	0
311	0
315	0
318	0
319	7
321	3
322	0
323	0
324	8
326	6
327	0
328	1
331	0
333	1
334	0
336	2
337	31
338	6
339	19
340	3
341	3
342	0
350	0
351	0
352	0
353	0
354	23
355	4
356	13
357	2
358	2
359	0
