Mass Spectrum: 1-Phenanthrenecarboxylic acid, 1,2,3,4,4a,5,8,9,10,10a-decahydro-1,4a-dimethyl-7-(1-methylethyl)-, methyl ester, [1R-(1.alpha.,4a.beta.,10a.alpha.)]-
Formula: C21H32O2
CAS: 33892-22-7
Molecular weight: 316
m/z	intensity
70	6
71	47
73	96
76	17
77	256
78	217
79	389
80	87
81	367
82	66
83	116
84	6
85	56
87	6
88	55
89	28
90	8
91	999
92	660
93	437
94	77
95	346
96	76
97	56
99	7
101	497
102	26
103	128
104	98
105	608
106	348
107	258
108	67
109	488
110	97
111	46
112	7
114	25
115	266
116	138
117	436
118	156
119	296
120	55
121	284
122	86
123	255
124	7
127	54
128	246
129	418
130	115
131	458
132	96
133	397
134	487
135	176
136	47
137	8
141	195
142	137
143	347
144	86
145	175
146	599
147	357
148	296
149	97
151	15
152	25
153	45
154	17
155	145
156	27
157	186
158	27
159	206
160	176
161	106
165	15
167	26
169	51
171	86
173	97
175	105
181	15
183	56
185	106
186	7
187	267
188	16
192	6
197	167
198	7
199	46
201	7
213	358
214	56
239	368
240	56
241	297
242	37
256	27
257	77
273	177
299	27
301	18
314	47
316	337
317	69
