Mass Spectrum: 3-Nitro-benzoic acid (3-oxo-3-thiophen-2-yl-1-trifluoromethyl-propylidene)-hydrazide
Formula: C15H10F3N3O4S
CAS: 339012-53-2
Molecular weight: 385
m/z	intensity
33	0
34	1
36	0
37	2
38	8
39	77
40	27
41	9
42	6
43	11
44	12
45	30
46	2
47	1
48	0
50	59
51	19
52	4
53	12
54	4
55	8
56	3
57	15
58	11
59	4
60	2
61	1
62	3
63	14
64	13
65	8
66	3
67	3
68	4
69	28
70	6
71	6
72	1
73	5
74	14
75	52
76	181
77	22
78	4
79	2
80	1
81	4
82	9
83	39
84	16
85	6
86	2
87	1
88	1
89	5
90	6
91	6
92	24
93	3
94	1
95	17
96	3
97	9
98	5
99	2
100	1
101	2
102	2
103	7
104	173
105	18
106	3
107	1
108	3
109	11
111	999
112	67
113	50
114	4
115	9
116	1
117	1
118	1
119	2
120	5
121	7
122	10
123	9
124	1
125	2
126	26
127	3
128	2
129	1
130	1
131	0
132	0
133	4
134	16
135	2
136	1
137	3
138	2
139	8
140	1
141	1
142	0
143	0
144	0
145	1
146	0
147	0
149	9
150	250
151	24
152	3
153	1
154	1
155	2
156	0
157	1
158	2
159	2
160	0
161	0
162	0
163	0
165	0
166	1
167	1
168	0
169	4
170	2
171	6
172	0
173	0
175	0
177	0
178	0
179	1
181	0
182	0
183	3
184	0
185	3
186	0
187	0
188	0
189	1
190	3
191	0
193	0
198	2
199	2
200	0
201	0
202	0
203	0
205	0
207	0
208	0
210	0
212	0
218	14
219	14
220	2
221	0
222	0
231	1
250	0
260	0
274	1
277	0
278	0
279	0
289	2
290	0
310	3
311	0
312	3
313	0
314	0
316	37
317	5
318	2
349	0
366	3
367	3
368	0
382	0
383	0
385	30
386	5
387	1
