Mass Spectrum: N-[N-(Benzyloxycarbonyl)glycyl]glycine ethylamide
Formula: C14H19N3O4
CAS: 339065-17-7
Molecular weight: 293
m/z	intensity
33	1
36	1
37	4
38	9
39	48
41	18
42	38
43	48
44	124
45	9
46	114
47	2
49	2
50	20
51	52
52	15
53	11
54	7
55	9
56	95
57	15
58	23
59	13
60	2
61	3
62	7
63	27
64	9
65	120
66	6
67	1
68	1
69	3
70	4
71	41
72	35
73	9
74	78
75	12
76	6
77	93
78	21
79	104
80	9
81	1
82	3
83	6
85	48
86	35
87	39
88	13
89	32
91	999
92	104
93	5
98	1
99	11
100	2
101	13
102	29
103	46
104	179
105	31
106	14
107	80
108	113
109	9
110	1
111	2
112	3
113	27
114	105
115	6
116	2
117	1
118	4
119	3
120	32
121	5
122	1
126	1
127	2
128	4
129	104
130	9
131	15
132	1
135	1
140	2
141	9
142	1
144	15
145	6
146	2
148	1
150	1
158	3
159	3
161	1
163	1
164	2
165	1
171	1
173	8
175	1
177	2
185	5
186	30
187	20
188	1
191	1
192	7
193	1
219	1
221	2
222	16
223	2
248	3
249	3
293	19
294	8
295	1
