Mass Spectrum: 1,3,4-Thiadiazole, 2-(2-furylcarbonylamido)-5-carboethoxymethyl-
Formula: C11H11N3O4S
CAS: 339021-91-9
Molecular weight: 281
m/z	intensity
33	2
34	1
36	1
37	52
38	155
39	344
40	56
41	34
42	53
43	68
44	14
45	49
46	14
47	3
48	1
49	3
50	7
51	12
52	12
53	38
54	37
55	11
56	2
57	57
58	349
59	89
60	24
61	5
62	3
63	5
64	3
65	16
66	29
67	62
68	26
69	12
70	7
71	7
72	10
73	4
74	2
75	2
76	2
77	3
80	2
81	15
82	4
83	1
84	4
85	20
86	17
87	3
89	5
90	1
91	21
92	2
93	8
94	12
95	999
96	57
97	8
98	2
99	5
100	0
102	2
103	4
104	0
109	5
111	2
112	14
113	5
114	11
116	1
119	7
120	1
121	4
122	2
125	0
127	0
129	1
131	4
135	0
136	0
139	3
140	50
141	7
142	5
143	1
145	1
146	8
149	6
151	3
154	0
166	1
167	1
168	3
170	0
173	1
179	4
180	0
181	1
186	0
187	2
194	15
207	2
208	30
209	6
210	1
225	7
226	0
227	17
235	0
236	5
252	1
253	243
254	31
255	12
259	1
281	30
282	7
283	2
