Mass Spectrum: Pent-2,4-dienoic acid, 2-acetyl-5-dicyclohexylamino-, methyl ester
Formula: C20H31NO3
CAS: 339067-33-3
Molecular weight: 333
m/z	intensity
33	3
34	1
36	0
39	97
41	655
43	436
44	47
45	7
50	2
51	18
53	115
55	999
56	63
57	6
59	42
60	0
63	2
64	3
65	45
67	142
68	59
69	25
70	12
71	8
72	1
75	1
77	32
78	42
79	98
80	83
81	147
82	90
83	457
84	31
85	4
86	1
87	0
89	0
91	19
92	37
93	51
94	80
95	62
96	55
97	15
98	35
99	5
100	11
101	1
102	1
103	2
104	9
105	12
106	39
107	23
108	35
109	32
110	329
111	58
112	15
113	6
114	0
115	2
116	4
117	9
118	18
120	156
121	86
122	270
123	226
124	56
125	25
126	48
127	6
128	2
129	4
130	4
131	5
132	7
133	9
134	38
135	25
136	113
138	228
139	23
140	9
141	30
142	165
143	12
144	4
145	1
146	9
147	5
148	67
149	17
150	63
151	13
152	31
153	577
154	119
155	12
156	2
157	1
158	4
159	2
160	5
161	3
162	55
163	27
164	21
165	4
166	4
167	2
168	69
169	9
170	2
172	3
173	1
174	9
175	9
176	59
177	15
178	20
179	8
180	7
181	5
182	0
184	0
186	0
188	8
189	4
190	14
191	15
192	37
193	7
194	2
195	0
200	8
201	2
202	12
203	5
204	62
205	35
206	7
207	3
208	63
209	10
210	3
212	0
213	0
214	1
215	1
216	12
217	8
218	313
219	55
220	21
221	3
222	2
223	0
228	0
229	0
230	16
231	5
232	3
233	0
234	4
235	1
236	12
237	1
238	0
244	13
245	3
246	0
248	0
250	11
251	3
252	4
253	0
256	4
257	1
258	27
259	6
260	2
262	1
264	0
272	4
273	23
274	9
275	2
276	1
277	0
278	0
284	0
286	3
287	0
288	1
290	150
291	29
292	4
293	0
300	12
301	8
302	48
303	11
304	3
305	0
316	0
317	0
318	13
319	2
320	0
328	0
329	0
330	1
332	8
333	239
334	53
335	7
336	0
