Mass Spectrum: Pyrazol-3(2H)-one, 4-(2-chloro-6-fluorobenzylidenamino)-1,5-dimethyl-2-phenyl-
Formula: C18H15ClFN3O
CAS: 339067-14-0
Molecular weight: 343
m/z	intensity
33	1
34	1
35	1
36	3
37	5
38	18
39	55
40	33
41	19
42	19
43	39
44	8
45	1
48	0
50	20
51	64
52	18
53	6
54	40
56	999
57	54
58	2
60	0
61	3
62	10
63	35
64	67
65	49
66	10
67	22
68	8
69	4
70	1
71	0
72	0
73	3
74	7
75	11
76	12
77	143
78	12
79	3
80	6
81	16
82	10
83	9
84	2
85	2
86	3
87	6
88	4
89	3
90	10
91	96
92	15
93	20
94	8
95	6
96	3
97	1
98	1
99	2
100	5
101	2
102	3
103	6
104	9
105	12
106	17
107	92
108	10
109	4
110	2
111	2
112	1
113	1
114	2
115	11
116	4
117	8
118	8
119	68
120	27
121	335
122	32
123	6
124	1
125	0
126	3
127	1
128	3
129	9
130	8
131	9
132	27
133	19
134	5
135	3
136	3
137	1
138	1
139	1
140	3
141	31
142	13
143	22
144	8
145	11
146	8
147	4
148	7
149	1
150	1
151	0
152	0
154	1
155	12
156	14
157	25
158	15
159	31
160	23
161	4
162	3
163	0
164	1
166	0
167	4
168	26
169	9
170	31
172	49
173	9
174	6
175	2
176	1
177	1
178	0
180	0
181	1
182	4
183	3
184	6
185	5
186	11
187	58
188	334
189	126
190	14
191	1
193	1
194	3
195	2
196	5
197	3
198	2
199	0
200	0
202	0
203	1
204	1
205	18
206	3
207	5
208	2
209	20
210	3
211	6
212	1
214	7
215	4
216	1
217	0
221	1
222	8
223	10
224	9
225	3
226	1
230	0
231	1
232	9
234	38
235	6
236	10
237	1
238	0
247	0
248	2
250	53
251	144
252	34
253	48
254	6
255	0
259	2
260	0
261	0
264	0
265	1
266	3
267	0
268	1
278	0
280	0
292	0
293	1
294	0
303	0
304	0
305	1
306	2
308	115
309	22
310	2
313	0
315	3
316	0
317	0
325	0
326	1
328	1
343	250
344	50
345	68
346	14
347	1
