Mass Spectrum: N-(2-Ethylphenyl)-3-(isonicotinoylhydrazono)butyramide
Formula: C18H20N4O2
CAS: 339065-54-2
Molecular weight: 324
m/z	intensity
37	7
38	17
39	102
40	1
41	89
42	69
43	52
44	23
45	2
47	1
49	6
50	68
51	246
52	58
53	35
54	26
55	26
56	15
57	14
58	9
59	3
60	5
61	3
62	8
63	20
64	14
65	43
66	16
67	17
68	9
69	13
70	10
71	58
72	6
73	46
74	6
75	11
76	20
77	164
78	491
79	185
80	20
81	3
82	4
83	5
84	16
85	5
87	1
88	1
89	13
90	10
91	44
92	18
93	30
94	14
95	3
96	1
97	7
98	8
99	14
100	1
101	3
102	10
103	39
104	37
105	19
106	999
107	85
108	9
109	5
111	5
112	2
113	3
115	4
116	4
117	18
118	41
119	42
120	99
121	550
122	66
123	10
124	2
125	2
127	5
128	10
129	5
130	20
131	7
132	40
133	9
134	6
135	252
136	38
137	8
138	1
141	2
142	2
143	4
144	5
145	5
146	13
147	19
148	12
149	3
150	1
152	1
154	1
156	2
157	1
158	1
159	6
160	16
161	9
162	120
163	16
164	2
170	1
171	6
172	3
173	1
174	2
175	8
176	29
177	73
178	10
184	1
185	5
186	2
187	3
188	6
189	1
200	6
201	3
202	8
203	53
204	46
205	6
218	1
306	4
324	21
325	4
