Mass Spectrum: N'-(4-Nitrobenzylidene)-2-pentyl-1-cyclopropanecarbohydrazide
Formula: C16H21N3O3
CAS: 339027-09-7
Molecular weight: 303
m/z	intensity
33	2
36	2
39	161
41	420
43	265
44	18
45	4
46	1
50	32
51	26
53	88
55	999
57	120
59	320
60	20
61	4
62	9
63	45
64	16
65	21
67	85
69	401
72	189
73	17
75	21
76	25
77	17
79	22
81	71
83	65
84	21
85	33
86	16
87	6
89	34
90	13
91	24
92	9
93	21
95	50
97	54
98	49
99	25
100	9
101	4
103	19
105	10
106	3
107	4
108	5
109	10
110	7
111	14
112	27
113	20
114	10
115	4
117	14
118	28
119	5
120	4
121	14
122	6
123	4
124	4
126	36
127	7
128	8
129	2
130	1
131	1
132	1
133	2
134	3
135	6
136	5
137	9
139	254
140	24
141	3
142	3
143	1
144	1
146	1
147	2
149	12
150	7
151	18
152	4
154	5
155	13
156	3
157	1
164	4
165	10
166	4
167	1
168	2
169	1
170	2
171	3
175	1
176	3
177	1
178	1
180	1
181	1
182	1
183	1
184	2
189	1
192	1
198	1
204	1
205	1
207	10
208	1
212	1
218	4
220	3
221	1
222	1
232	2
233	1
238	1
246	2
252	1
259	2
260	1
264	2
273	1
274	2
281	8
282	2
283	1
288	1
302	2
303	11
304	1
