Mass Spectrum: N-(2-Fluorophenethyl)-N'-(2-fluorophenyl)oxamide
Formula: C16H14F2N2O2
CAS: 339006-39-2
Molecular weight: 304
m/z	intensity
33	615
34	62
36	18
37	70
39	532
40	638
41	414
43	567
44	251
45	44
46	13
48	11
50	173
51	203
52	109
53	57
55	416
57	892
59	123
60	28
61	30
62	77
63	230
64	101
65	89
67	82
68	59
69	215
70	227
71	155
72	31
73	33
75	311
77	408
78	56
79	25
80	28
81	103
82	123
83	999
84	154
85	43
86	12
87	19
89	85
90	302
91	110
92	30
93	34
94	48
95	153
96	132
97	117
98	26
99	17
101	119
102	74
103	439
104	50
105	37
106	20
107	101
109	925
110	431
111	786
112	142
114	32
115	18
116	11
118	89
119	41
120	43
122	595
123	608
124	80
125	22
126	12
127	10
128	20
129	15
130	5
131	4
132	2
133	6
134	8
135	17
136	17
137	178
138	287
139	79
140	9
141	5
143	8
144	5
145	3
146	21
147	3
148	12
149	28
150	8
152	21
153	15
155	2
157	10
158	2
159	1
162	9
163	9
164	12
165	49
166	81
167	62
168	36
170	19
171	85
172	6
175	3
176	7
177	12
178	20
180	20
181	58
182	602
183	53
184	8
185	3
189	5
192	4
193	8
194	18
195	147
196	7
203	1
205	3
206	7
212	4
247	25
272	1
283	6
300	2
301	5
302	7
303	9
304	66
305	9
