Mass Spectrum: 2-[(4-Fluorobenzyl)thio]-N-[2-(2-fluorophenoxy)ethyl]benzamide
Formula: C22H19F2NO2S
CAS: 339064-48-1
Molecular weight: 399
m/z	intensity
33	24
34	3
37	2
39	107
42	32
44	160
45	17
47	2
48	2
50	13
51	20
52	4
53	3
54	3
57	45
58	9
59	9
63	46
64	20
65	21
66	2
69	38
70	9
71	3
75	35
77	42
78	6
83	151
85	1
86	1
87	1
89	12
91	23
92	11
93	4
95	47
96	12
97	10
98	2
100	1
101	3
103	17
105	49
109	999
111	12
112	18
113	2
115	1
117	7
118	2
119	3
121	10
122	9
123	11
124	7
125	5
126	2
127	1
130	1
132	3
136	150
137	70
138	18
139	33
141	3
143	2
144	2
145	2
146	2
148	20
149	7
151	53
152	49
153	7
154	6
156	23
157	3
158	2
160	1
164	10
165	2
166	2
168	1
170	3
171	2
178	82
179	25
180	11
181	3
183	13
184	3
185	1
195	1
197	1
199	1
201	1
202	1
211	8
212	3
213	1
215	14
216	5
217	2
218	1
219	1
228	1
229	1
235	1
242	1
244	35
245	14
246	4
247	5
254	11
255	2
262	4
268	4
269	1
272	4
273	1
286	5
288	49
290	370
291	64
292	22
293	3
304	1
366	1
399	21
400	5
401	2
