Mass Spectrum: .beta.-D-Glucopyranoside, 2,3-bis(acetyloxy)-3-(1-phenyl-1H-pyrazolo[3,4-b]quinoxalin-3-yl)propyl, 2,3,4,6-tetraacetate, [S-(R*,S*)]-
Formula: C36H38N4O14
CAS: 33909-98-7
Molecular weight: 750
m/z	intensity
41	15
42	19
43	999
44	30
45	30
56	26
58	15
60	15
69	26
73	15
77	38
78	11
81	53
82	15
85	15
97	26
98	23
99	15
102	23
103	26
109	107
110	15
115	34
116	7
127	30
139	15
141	15
145	15
158	7
169	188
170	19
211	7
220	19
229	7
245	38
246	23
247	30
259	11
272	11
273	46
274	19
275	146
276	38
284	7
285	26
286	7
287	11
288	15
289	26
300	11
301	184
302	100
303	19
315	23
316	38
317	126
318	69
319	23
331	134
332	26
343	15
344	7
345	7
346	7
347	7
358	11
359	11
360	11
361	7
377	3
389	7
403	50
404	11
415	1
419	0
425	1
449	1
486	0
546	1
606	2
620	0
632	4
648	12
649	3
650	0
690	2
691	1
692	1
707	3
708	15
709	6
710	1
750	0
751	3
752	0
