Mass Spectrum: 2-[4-(5-Bromo-2-hydroxy-3-nitrobenzylideneamino)-2-hydroxyphenyl]-5-methylbenzoxazole
Formula: C21H14BrN3O5
CAS: 339026-15-2
Molecular weight: 467
m/z	intensity
34	29
36	83
37	87
38	167
39	230
40	175
41	193
42	119
43	194
44	197
45	25
46	17
48	20
50	660
51	999
52	755
53	423
54	75
55	121
56	52
57	84
60	27
61	56
62	276
63	572
64	180
65	180
66	67
67	50
68	65
69	41
70	46
71	42
73	50
74	147
75	245
76	345
77	942
78	630
79	426
80	206
81	79
82	85
83	37
84	26
85	13
86	16
87	32
88	50
89	105
90	183
91	156
92	71
93	34
94	17
95	12
96	12
97	19
98	28
99	15
100	17
101	53
102	53
103	64
104	89
105	259
106	252
107	145
108	23
111	16
112	32
113	21
114	38
115	90
116	51
117	70
118	69
119	45
120	50
121	16
122	24
123	13
124	15
125	24
126	68
127	53
128	59
129	61
130	39
131	31
132	38
134	107
135	19
136	15
137	13
138	30
139	36
140	44
141	61
142	68
143	88
145	75
146	36
147	12
151	78
152	94
153	127
154	98
156	88
157	82
158	62
159	13
164	17
165	32
166	50
167	84
168	76
169	63
170	88
171	48
172	15
177	12
178	33
179	93
180	40
181	36
182	43
183	53
184	51
193	16
194	23
195	76
196	185
197	140
198	33
206	12
207	32
208	41
209	26
210	37
211	143
212	64
220	20
221	35
222	21
223	54
224	111
225	520
226	70
234	24
235	53
239	169
240	579
241	91
242	17
251	18
258	15
285	36
286	17
313	59
314	38
420	23
421	14
422	22
466	86
467	155
468	95
469	170
470	24
