Mass Spectrum: 5-(Methoxymethyl)-7-[(N-cyclohexyl-N-methylamino)methyl]quinolin-8-ol
Formula: C19H26N2O2
CAS: 339064-49-2
Molecular weight: 314
m/z	intensity
33	13
34	3
36	3
39	148
41	154
42	200
44	192
47	1
48	1
51	75
53	42
55	149
57	297
62	41
65	26
67	18
68	44
70	999
74	31
77	69
79	32
81	15
82	19
84	57
85	11
87	6
89	27
90	7
91	8
92	6
93	5
94	3
96	7
98	9
99	8
100	14
102	29
103	23
104	10
106	10
107	18
112	584
113	152
115	69
116	21
117	14
118	4
120	130
122	5
123	2
125	4
126	6
128	30
129	16
130	47
132	16
133	1
135	7
136	16
141	92
142	103
143	79
144	15
145	4
146	2
152	1
154	6
156	9
158	72
159	10
160	3
166	1
167	2
171	268
172	347
173	39
180	1
181	3
182	2
183	5
184	9
185	10
186	28
187	9
188	6
189	3
190	3
194	1
195	1
196	1
197	2
198	5
202	483
203	471
204	61
208	1
209	1
210	1
211	1
212	1
213	2
214	3
215	5
216	6
217	4
218	9
219	3
225	1
226	2
227	2
228	2
229	3
231	163
232	19
233	2
239	1
240	1
241	2
242	1
243	1
246	1
247	5
248	1
257	2
258	1
269	1
270	1
271	3
282	1
283	6
284	1
297	2
298	1
299	3
313	1
314	3
315	1
