Mass Spectrum: Propan-2-one, 1-(3-nitro-[1,2,4]-triazolo[3,2,-c][1,2,4]-triazol-1-yl)-
Formula: C6H6N6O3
CAS: 339026-59-4
Molecular weight: 210
m/z	intensity
33	6
34	0
36	0
39	69
40	61
43	999
46	57
48	0
49	0
50	0
53	42
55	101
57	6
58	0
59	0
60	0
61	0
62	0
63	0
64	0
66	28
67	36
68	32
69	5
70	1
71	0
72	0
73	0
76	0
77	0
78	0
79	0
80	1
81	0
82	0
83	0
84	0
85	0
88	0
91	0
93	3
95	6
96	3
97	1
98	0
104	0
105	0
107	0
108	0
109	0
110	0
111	0
112	0
118	0
122	132
123	5
124	0
134	0
135	0
138	45
139	1
140	0
149	0
151	0
152	0
153	1
162	0
163	0
164	0
165	0
168	37
169	1
170	0
171	0
180	1
181	0
193	0
194	0
196	0
207	0
210	28
211	1
212	0
