Mass Spectrum: 2-(4-Bromophenyl)-2-(hydroxyimino)ethyl 4'-(ethoxycarbonyl)glutaranilate
Formula: C22H23BrN2O6
CAS: 339027-12-2
Molecular weight: 490
m/z	intensity
33	11
36	52
38	163
39	164
41	274
43	376
45	323
50	738
51	366
52	71
53	17
55	154
56	11
57	11
58	8
59	19
60	32
61	58
62	72
63	122
64	82
65	123
66	19
67	6
69	29
70	10
71	10
74	352
75	472
76	281
77	49
78	25
79	41
81	78
82	12
84	13
85	15
87	211
88	21
89	34
90	78
91	103
92	126
93	34
94	11
95	6
97	23
99	69
100	58
102	999
103	150
104	25
105	15
106	12
108	41
109	6
110	3
111	1
112	2
113	5
115	111
116	18
117	14
120	598
121	67
122	6
123	1
127	5
129	13
130	7
131	8
132	9
133	9
134	6
137	253
138	18
139	3
141	3
142	2
143	3
144	3
146	29
147	5
148	5
149	9
150	23
152	3
153	4
155	76
157	77
158	5
159	3
160	9
161	6
162	9
165	740
166	77
167	8
169	13
171	13
172	2
173	1
174	3
175	2
176	4
177	6
178	11
181	842
182	353
183	751
184	222
185	18
186	3
187	2
188	4
189	5
190	4
192	14
193	3
195	26
197	37
198	9
199	9
200	10
202	6
203	1
205	4
206	5
207	9
209	1
210	2
211	5
212	4
213	8
214	3
215	4
216	3
217	1
219	1
220	2
221	1
223	1
224	1
225	1
226	2
227	3
229	21
230	5
231	15
232	8
234	92
235	9
236	1
239	1
241	2
243	2
250	1
252	1
258	1
259	1
260	3
262	79
263	9
264	1
275	1
279	179
280	34
281	4
282	1
293	2
294	1
376	1
377	1
378	1
379	1
390	1
445	1
447	1
490	4
491	1
492	4
493	1
