Mass Spectrum: Cyclohexanecarboxamide, N-(4-morpholylcarbonyl)-
Formula: C12H20N2O3
CAS: 339162-13-9
Molecular weight: 240
m/z	intensity
36	47
37	33
38	114
39	589
40	111
41	809
42	405
43	407
44	767
45	49
50	9
51	16
52	13
53	168
54	224
55	999
56	398
57	437
58	61
59	13
61	4
63	7
64	5
65	13
66	67
67	207
68	170
69	150
70	317
71	67
72	56
74	9
76	1
77	16
78	8
79	10
80	73
81	140
82	141
83	859
84	63
85	46
86	329
87	333
88	61
89	11
90	2
91	30
92	6
93	2
94	3
95	1
97	39
98	79
99	29
100	55
102	2
103	1
104	2
105	5
106	6
107	7
108	1
109	1
110	78
111	255
112	79
113	29
114	130
115	66
120	10
124	13
125	22
127	17
128	22
129	34
133	8
137	10
151	7
152	19
153	82
154	22
157	90
165	8
167	37
171	12
183	19
197	40
210	12
211	16
240	56
241	11
