Mass Spectrum: Ethyl 2-[(2-methyl-5-nitrophenyl)hydrazono]-3-oxobutyrate
Formula: C13H15N3O5
CAS: 339172-77-9
Molecular weight: 293
m/z	intensity
34	1
36	0
37	2
38	6
39	43
40	26
41	24
42	24
43	999
44	47
45	23
46	2
47	1
49	0
50	15
51	59
52	43
53	14
54	10
55	23
56	5
57	14
58	1
59	0
60	1
61	3
62	5
63	27
64	14
65	34
66	14
67	17
68	3
69	11
70	15
71	8
72	3
73	8
74	3
75	5
76	18
77	122
78	86
79	24
80	3
81	3
82	2
83	34
84	7
85	28
86	2
87	5
88	1
89	39
90	28
91	12
92	9
93	81
94	13
95	2
96	1
97	3
98	1
99	2
100	1
101	58
102	12
103	10
104	159
105	71
106	29
107	4
108	0
109	1
110	0
111	2
112	2
113	2
114	4
115	3
116	2
117	3
118	5
119	7
120	10
121	7
122	4
123	0
124	1
125	1
127	0
128	0
129	13
130	6
131	10
132	5
133	2
134	1
135	9
136	33
137	5
138	0
141	0
142	4
143	1
144	3
145	2
146	2
147	7
148	2
149	10
150	68
151	39
152	27
153	3
157	57
158	6
159	2
161	12
162	1
163	2
164	19
165	4
166	0
167	0
171	3
172	2
173	2
174	3
175	2
177	293
178	31
179	4
188	2
189	1
190	1
191	0
193	0
195	0
200	0
201	1
202	4
203	2
204	17
205	2
206	0
207	0
216	0
217	0
219	65
220	11
221	1
222	12
223	1
230	0
231	1
232	0
233	0
234	2
245	0
246	4
247	9
248	8
249	1
250	10
251	2
252	0
263	3
264	1
265	0
277	1
278	0
279	0
283	0
292	0
293	119
294	16
295	2
