Mass Spectrum: 2-[(4-Chlorobenzylidene)hydrazono]-5-(5-chlorosalicylidene)-4-thiazolidinone
Formula: C17H11Cl2N3O2S
CAS: 339159-12-5
Molecular weight: 391
m/z	intensity
33	261
34	25
35	54
36	168
37	51
38	158
39	308
40	351
41	278
42	244
43	346
44	431
45	121
46	32
48	13
50	288
51	227
52	57
53	81
54	47
55	168
56	234
57	204
58	31
59	26
60	65
61	124
62	150
63	375
64	58
65	35
66	27
67	35
68	35
69	152
70	62
71	42
73	174
74	142
75	363
76	102
77	178
79	57
80	40
81	51
82	78
84	366
85	172
86	51
87	61
89	999
90	87
91	22
92	10
93	39
94	13
95	15
97	54
98	46
99	83
100	47
101	73
102	64
103	16
104	13
105	36
106	9
108	12
109	9
110	19
111	175
112	94
113	70
114	37
115	19
116	11
117	14
118	13
119	15
120	22
121	99
122	22
123	95
124	230
125	103
126	96
127	57
128	22
129	18
130	2
132	68
133	226
134	63
135	28
136	101
137	57
138	185
139	105
140	75
141	44
142	14
143	4
144	2
149	47
150	22
151	28
152	56
153	47
154	79
155	118
156	37
157	40
158	7
159	7
160	2
161	9
163	16
164	20
165	38
166	27
168	705
169	132
170	246
171	40
172	10
177	8
178	14
179	34
180	44
181	17
182	21
183	30
184	75
185	28
186	15
194	4
195	47
196	26
197	33
198	12
199	5
204	2
205	2
211	4
212	37
213	9
214	9
224	8
227	2
236	9
237	10
238	8
239	3
241	2
255	4
264	76
265	10
266	23
275	3
280	4
292	5
374	76
375	114
376	67
378	53
379	8
391	44
392	8
393	19
394	2
