Mass Spectrum: Glucopyranoside, D-erythro-2,3-dihydroxy-3-(1-phenyl-1H-pyrazolo[3,4-b]quinoxalin-3-yl)propyl O-.alpha.-D-glucopyranosyl-(1.fwdarw.6)-O-.alpha.-D-glucopyranosyl-(1.fwdarw.6)-, dodecaacetate (ester), .alpha.-D-
Formula: C60H70N4O30
CAS: 33910-03-1
Molecular weight: 1326
m/z	intensity
41	95
42	114
43	999
44	172
45	215
50	31
51	58
52	26
53	39
54	18
55	61
56	18
57	39
60	74
61	23
63	23
65	23
67	26
68	21
69	74
70	55
71	21
73	47
77	85
78	18
79	37
81	180
82	37
83	31
85	58
86	18
87	16
90	13
91	34
92	18
93	21
95	13
97	101
98	77
99	69
102	58
103	74
105	13
109	420
110	50
111	39
112	53
113	16
115	111
116	18
125	13
126	18
127	138
128	29
129	23
139	127
140	37
141	50
143	18
144	21
145	66
152	18
153	26
155	101
156	13
157	58
158	16
169	547
170	58
171	21
185	39
187	69
188	13
197	114
198	13
199	37
200	47
211	111
212	16
215	114
216	18
219	39
220	13
221	13
229	140
230	13
231	37
243	53
245	175
246	74
247	85
248	18
257	111
259	265
260	186
261	21
271	95
272	95
273	247
274	95
275	332
276	117
277	16
285	300
286	114
287	53
288	53
289	37
300	85
301	550
302	273
303	69
304	10
317	351
318	127
319	37
331	747
332	119
333	13
343	175
344	47
345	138
346	47
347	21
359	26
360	26
361	26
403	196
404	66
405	16
419	2
457	3
517	2
559	1
605	4
616	13
634	1
635	1
677	1
678	1
691	2
692	1
694	1
707	1
708	2
737	4
738	2
750	0
789	1
804	0
805	0
806	0
819	2
906	0
907	5
908	1
909	0
922	0
923	0
936	0
937	0
953	0
954	0
965	1
966	0
967	0
979	1
980	0
981	0
982	0
1025	1
1026	0
1027	0
1224	16
1225	10
1226	5
1266	3
1267	3
1268	1
1284	17
1285	11
1286	5
1326	1
1327	0
