Mass Spectrum: 2-Benzyl-3-isopropyl-cyclopentanone
Formula: C15H20O
CAS: 33918-81-9
Molecular weight: 216
m/z	intensity
27	108
29	60
39	122
40	50
41	249
42	32
43	112
44	42
50	21
51	67
52	21
53	73
54	25
55	140
56	30
63	44
65	152
66	27
67	82
68	21
69	108
70	16
76	15
77	107
78	67
79	52
81	59
82	30
83	57
89	36
90	17
91	999
92	158
93	29
95	97
96	37
97	30
98	16
102	29
103	74
104	119
105	161
106	18
107	44
109	15
110	15
111	17
115	130
116	117
117	224
118	72
119	15
124	13
125	130
126	16
127	39
128	97
129	272
130	67
131	137
132	25
133	28
141	28
142	17
143	29
144	29
145	258
146	875
147	119
148	15
149	16
154	23
155	148
156	27
159	27
173	560
174	82
216	469
217	75
