Mass Spectrum: 6-Benzyl-7-t-butyl-1,4-dioxa-spiro[4.4]nonane
Formula: C18H26O2
CAS: 33918-96-6
Molecular weight: 274
m/z	intensity
26	1
27	6
28	4
29	23
30	1
31	3
39	7
40	1
41	47
42	17
43	26
44	4
45	9
51	2
52	1
53	13
54	4
55	62
56	13
57	51
58	2
59	2
60	1
63	1
64	1
65	13
66	4
67	17
68	3
69	17
70	4
71	3
72	1
73	8
74	1
75	0
77	10
78	6
79	8
80	1
81	12
82	8
83	23
84	2
85	2
86	77
87	14
88	1
89	2
90	1
91	157
92	17
93	4
94	1
95	8
96	4
97	4
98	2
99	999
100	93
101	9
102	3
103	14
104	24
105	20
106	2
107	3
108	2
109	4
110	1
111	4
112	2
113	5
114	1
115	21
116	18
117	24
118	4
119	2
120	1
121	2
122	1
123	3
124	2
125	15
126	9
127	62
128	20
129	36
130	17
131	100
132	12
133	1
135	1
137	1
139	4
140	2
141	5
142	2
143	7
144	2
145	11
146	12
147	9
148	0
149	1
151	1
152	1
153	2
154	1
155	22
156	25
157	15
158	2
159	2
160	1
167	2
168	2
169	1
170	2
171	3
172	2
173	12
174	3
175	50
176	7
177	1
181	2
182	1
183	2
186	3
187	3
188	1
189	3
190	8
191	1
197	6
198	1
212	6
213	2
214	2
215	2
216	1
217	177
218	32
219	4
220	0
228	1
229	0
230	3
231	1
259	26
260	5
261	0
274	233
275	47
276	5
