Mass Spectrum: 2-(2,4-Dinitrophenyl)-4-(p-tolylmethylene)-2-oxazolin-5-one
Formula: C17H11N3O6
CAS: 339108-24-6
Molecular weight: 353
m/z	intensity
33	7
34	1
35	1
38	62
40	13
41	13
43	79
44	52
45	20
46	5
47	1
50	31
51	33
52	16
53	15
55	9
56	2
57	4
59	10
60	10
63	86
64	10
65	12
66	4
67	2
68	1
69	3
70	1
72	9
75	314
77	168
78	13
79	4
80	2
81	1
82	1
83	1
84	1
86	5
87	5
88	6
89	12
91	45
92	4
93	1
95	1
96	1
97	1
98	1
99	3
103	270
104	36
105	8
107	6
108	1
110	1
111	1
112	1
113	1
115	9
116	4
117	2
119	20
120	8
122	2
123	1
124	1
125	2
130	999
131	87
132	5
133	1
134	1
135	1
136	1
138	1
140	1
144	1
145	1
146	1
149	31
150	2
151	1
152	1
157	4
158	1
163	1
165	11
166	1
168	1
173	1
174	1
176	3
177	3
179	4
180	1
184	1
186	1
187	1
188	1
189	1
190	3
191	2
192	1
195	96
196	9
197	2
198	1
199	5
201	66
202	10
203	14
204	23
205	9
206	5
207	6
208	2
209	2
211	18
212	3
213	1
214	2
215	2
216	4
217	3
218	9
219	9
220	6
221	5
222	1
223	1
224	1
229	1
232	25
233	16
234	4
235	2
236	1
238	1
245	1
247	7
248	2
249	1
250	1
263	1
264	1
278	2
279	1
292	1
293	1
323	3
324	1
347	1
348	2
353	207
354	29
355	5
