Mass Spectrum: 2,9-Bis[(benzoylhydrazono)methyl]-1,10-phenanthroline
Formula: C28H20N6O2
CAS: 339108-69-9
Molecular weight: 472
m/z	intensity
33	42
34	7
35	1
36	8
37	19
39	95
40	110
41	21
44	125
45	6
46	4
50	140
51	250
52	28
53	9
55	18
56	9
57	9
58	1
60	4
61	6
62	20
63	31
64	11
65	14
66	3
67	4
68	6
69	9
70	6
71	5
72	4
74	37
75	45
77	921
78	52
80	16
81	5
82	9
83	7
84	4
85	4
86	8
87	10
88	9
89	9
90	11
91	13
92	4
93	2
94	2
95	1
96	2
97	3
98	5
99	9
100	7
101	11
102	13
103	57
105	999
106	61
107	3
109	1
110	3
111	4
112	5
113	14
114	11
115	7
116	4
117	2
119	10
121	68
122	7
123	3
124	4
125	13
126	11
127	16
128	5
129	4
130	2
131	2
132	3
133	1
136	3
137	11
138	18
139	28
140	22
141	5
144	6
145	1
148	3
150	22
151	36
152	18
153	13
154	9
155	3
156	2
158	4
160	4
161	4
162	6
163	17
164	58
165	36
166	87
167	9
168	1
171	2
174	2
176	16
177	24
178	39
179	25
180	19
181	4
187	1
188	5
189	14
191	84
192	82
193	148
194	17
195	2
201	2
203	8
205	77
206	28
207	7
208	6
209	1
215	1
218	67
219	14
221	152
222	14
223	1
229	3
230	3
233	6
234	8
235	5
236	13
237	2
240	1
241	3
242	2
246	3
249	26
250	2
252	2
253	3
254	2
255	4
256	1
264	1
265	7
266	12
267	16
268	8
269	3
279	3
281	12
282	12
283	19
284	4
285	2
286	3
287	6
292	5
293	10
294	10
295	6
296	8
297	2
309	4
310	7
311	10
312	3
322	4
326	2
336	1
339	105
340	18
341	1
352	3
363	3
364	4
365	6
367	150
368	31
369	4
