Mass Spectrum: Hexanamide, 6-trifluoroacetylamino-N-(3-methylphenyl)-
Formula: C15H19F3N2O2
CAS: 339192-10-8
Molecular weight: 316
m/z	intensity
38	14
39	77
40	87
41	164
42	43
43	49
44	47
45	6
46	6
47	4
48	3
50	21
51	24
52	19
53	19
54	9
55	69
56	25
57	17
58	9
59	9
60	4
61	0
62	3
63	10
64	17
65	45
67	33
68	12
69	119
70	16
71	5
72	4
73	2
74	2
75	4
76	7
77	63
78	57
79	48
80	23
81	6
82	3
83	10
84	6
85	4
86	1
89	13
90	11
91	73
92	10
93	16
94	2
95	10
96	9
97	11
98	6
99	2
100	2
102	6
103	3
104	13
105	12
106	175
107	999
108	119
109	8
110	1
112	2
113	0
114	13
115	0
116	2
117	1
118	9
119	3
120	8
121	1
122	1
123	12
124	1
125	0
126	98
127	6
128	3
130	4
131	1
132	9
133	9
134	22
135	3
136	2
139	1
140	2
141	0
147	4
148	14
149	82
150	7
151	0
156	0
160	0
161	0
162	8
163	1
166	1
167	0
175	2
176	2
180	0
182	3
185	0
186	1
190	3
191	1
193	0
201	0
202	0
204	4
210	5
231	1
258	0
259	1
315	0
316	26
317	3
