Mass Spectrum: Myo-Inositol, 1,3,4,5,6-pentakis-O-(trimethylsilyl)-, bis(trimethylsilyl) phosphate
Formula: C27H69O9PSi7
CAS: 33910-06-4
Molecular weight: 764
m/z	intensity
73	999
74	87
75	73
76	5
77	6
78	6
79	2
80	2
81	12
83	2
87	1
89	2
91	1
97	1
99	3
101	7
102	2
103	29
104	3
105	2
107	1
109	4
111	3
113	6
114	1
115	3
116	5
117	7
118	1
119	4
121	2
125	2
126	2
127	10
128	2
129	59
130	9
131	19
132	21
133	55
134	7
135	6
136	1
137	1
139	2
140	3
141	3
142	6
143	23
144	3
145	5
146	3
147	324
148	51
149	34
150	4
151	6
152	2
153	5
154	2
155	8
156	7
157	10
158	2
159	3
161	7
163	2
165	1
166	1
167	3
168	1
169	5
170	1
171	1
173	2
175	4
176	1
177	3
179	1
181	4
182	2
183	3
187	1
188	1
189	9
190	13
191	103
192	21
193	14
194	2
195	5
196	1
197	2
199	2
201	4
202	1
203	5
204	53
205	21
206	8
207	24
208	5
209	4
210	2
211	22
212	4
213	3
214	2
215	8
216	6
217	137
218	33
219	13
220	3
221	20
222	5
223	3
225	14
226	3
227	13
228	5
229	4
230	28
231	13
232	5
233	2
235	1
237	1
239	5
240	2
241	4
242	4
243	25
244	7
245	36
246	53
247	14
248	5
249	2
252	4
253	2
254	3
255	17
256	5
257	7
258	2
265	10
266	3
267	2
268	2
269	6
270	12
271	12
272	4
273	1
278	2
279	2
282	2
283	11
284	7
285	16
286	6
287	3
289	1
290	1
291	9
292	4
293	8
294	3
295	2
296	1
297	3
298	15
299	287
300	73
301	45
302	8
303	5
304	7
305	35
306	16
307	8
308	4
309	1
311	1
312	2
313	18
314	21
315	294
316	79
317	6
318	313
319	101
320	48
321	11
322	4
323	1
324	1
325	1
326	1
327	3
328	3
329	3
330	3
331	15
332	10
333	4
334	1
340	1
341	4
342	19
343	35
344	15
345	25
347	3
355	1
356	2
357	4
358	2
359	4
360	4
361	2
362	1
367	3
368	2
369	7
370	2
371	2
372	2
373	21
374	8
375	5
376	1
378	1
379	1
380	1
381	2
382	3
383	5
384	6
385	11
386	28
387	289
388	101
389	97
390	29
391	14
392	5
393	2
394	1
395	1
397	2
398	2
399	1
401	1
402	1
403	3
404	2
405	2
406	1
407	2
408	1
409	1
415	2
416	16
417	9
418	6
419	7
420	3
421	2
422	1
423	1
425	1
426	1
427	2
428	2
429	20
430	8
431	7
432	14
433	24
434	11
435	6
436	3
437	1
441	1
442	13
443	7
444	4
445	2
446	1
447	2
450	5
451	2
452	2
453	1
454	1
455	6
456	4
457	16
458	7
459	4
460	2
461	8
462	4
463	3
464	1
465	2
466	4
467	3
468	3
469	3
470	59
471	22
472	15
473	5
474	2
475	1
479	2
480	1
481	1
482	1
487	1
492	2
493	5
494	48
495	25
496	13
497	6
498	2
499	1
503	1
504	1
505	1
506	1
507	9
508	5
509	2
510	2
511	1
516	1
517	1
518	1
519	1
521	1
522	5
523	3
524	2
525	1
526	1
527	1
528	1
529	3
530	12
531	6
532	4
533	2
534	1
535	1
539	1
541	1
542	1
543	1
544	1
545	2
546	1
547	2
548	1
552	1
553	1
554	1
555	1
556	1
557	3
558	2
559	8
560	4
561	3
562	1
563	1
568	1
569	5
570	3
571	6
572	3
573	2
574	1
582	1
583	2
584	15
585	9
586	6
587	3
588	1
589	1
602	1
603	1
604	1
605	1
631	2
632	1
633	1
634	1
645	1
659	4
660	3
661	3
662	1
663	1
749	22
750	15
751	10
