Mass Spectrum: 2-(4-Bromophenyl)-2-[(2,4-dinitrophenyl)hydrazono]ethyl m-toluate
Formula: C22H17BrN4O6
CAS: 339115-22-9
Molecular weight: 512
m/z	intensity
39	261
40	3
41	29
43	91
45	58
50	206
52	28
53	20
55	14
56	3
57	7
59	44
62	211
65	228
69	6
70	2
71	3
74	147
76	68
77	64
79	60
81	6
82	8
83	2
84	7
86	9
87	9
91	999
95	2
96	1
97	1
98	2
99	2
102	321
103	26
105	21
106	3
107	9
111	1
114	1
118	459
119	947
122	5
133	5
136	316
139	2
149	4
150	2
151	2
152	3
153	2
155	15
157	15
158	3
159	2
163	2
164	2
165	9
166	1
167	1
168	2
169	3
171	4
173	3
175	3
176	4
177	3
178	4
181	317
183	339
184	27
185	24
186	2
191	1
192	1
196	5
197	1
198	2
199	1
201	1
204	1
205	1
303	1
331	2
332	1
333	2
334	1
346	1
347	6
348	1
349	6
350	1
359	1
361	1
376	9
377	3
378	10
379	2
380	1
512	4
513	1
514	3
