Mass Spectrum: Propanal,3-hexylimino-2-nitro-
Formula: C9H16N2O3
CAS: 339192-83-5
Molecular weight: 200
m/z	intensity
34	69
36	14
37	26
38	51
39	383
40	547
41	752
42	233
43	999
44	471
45	28
46	43
50	34
51	26
52	56
53	151
55	292
56	503
57	147
58	58
59	26
60	3
62	9
63	19
65	36
66	41
67	159
68	236
69	445
70	180
71	185
72	41
74	7
77	43
78	25
79	52
80	49
81	62
82	214
83	267
84	107
85	108
86	23
87	5
91	7
93	26
94	25
95	55
96	159
97	80
98	30
99	4
100	18
101	7
105	31
107	16
108	32
109	86
110	121
111	22
112	48
113	13
116	4
119	5
121	13
123	17
124	13
129	19
134	18
135	7
136	4
137	8
139	146
140	26
149	25
150	14
151	30
152	13
155	194
156	19
200	52
