Mass Spectrum: Benzonitrile, 2-(1-dimethylaminoethylidenamino)-5-bromo-
Formula: C11H12BrN3
CAS: 339153-79-6
Molecular weight: 265
m/z	intensity
37	9
39	235
40	80
41	16
42	999
43	213
44	585
45	68
46	17
50	349
51	70
52	40
53	17
54	101
55	171
56	635
57	54
58	19
60	2
61	31
62	48
63	62
64	70
65	13
66	12
67	17
68	14
69	30
71	981
73	25
74	141
75	270
76	61
77	14
78	3
79	20
80	16
81	17
82	16
83	6
84	4
85	13
86	18
87	30
88	58
89	29
90	10
91	14
93	77
95	5
96	0
97	4
99	79
100	438
101	385
102	99
103	17
104	5
105	8
106	3
107	3
108	0
109	0
111	11
112	34
113	6
114	52
115	84
116	34
117	23
118	8
119	8
120	6
127	15
128	14
129	15
130	33
131	12
132	4
134	4
141	37
142	236
143	47
144	26
145	17
146	0
153	6
154	3
155	19
156	13
157	2
160	0
167	1
168	3
169	4
170	16
171	8
180	143
181	36
182	143
183	26
184	7
185	6
186	7
187	0
194	25
195	11
196	32
197	13
198	7
206	1
207	23
208	10
209	350
210	35
211	312
212	25
220	16
221	422
222	67
223	479
224	61
225	71
226	14
235	2
236	1
237	0
238	1
239	18
240	0
241	17
250	57
251	5
252	53
253	3
264	30
265	165
266	50
267	146
268	18
