Mass Spectrum: (4-Fluoro-phenoxy)-acetic acid (2-chloro-benzylidene)-hydrazide
Formula: C15H12ClFN2O2
CAS: 339166-84-6
Molecular weight: 306
m/z	intensity
33	0
34	0
36	2
37	1
38	5
39	25
40	16
41	5
42	13
43	17
44	10
45	4
46	0
49	1
50	21
51	20
52	4
53	1
55	23
56	9
57	27
58	18
59	2
60	2
61	4
62	17
63	68
64	13
65	7
66	1
67	0
68	3
69	11
70	6
71	1
72	1
73	11
74	14
75	122
76	21
77	30
78	5
79	3
80	3
81	7
82	7
83	57
84	15
85	7
86	5
87	8
88	6
89	186
90	93
91	29
92	10
93	7
94	16
95	429
96	53
97	145
98	16
99	32
100	4
101	13
102	71
103	30
104	9
105	14
106	3
107	6
108	13
109	17
110	24
111	999
112	245
113	51
114	7
115	5
116	3
117	52
118	76
119	30
120	6
121	7
122	8
123	48
124	83
125	368
126	89
127	64
128	17
129	4
130	2
131	37
132	17
133	3
134	1
135	5
136	3
137	66
138	306
139	84
140	102
141	29
142	11
143	2
144	1
145	0
146	1
147	0
148	0
149	6
150	41
151	17
152	33
153	40
154	13
155	15
156	5
157	3
158	4
159	2
160	2
161	0
163	0
164	1
165	10
166	4
167	116
168	32
169	558
170	57
171	7
172	0
173	1
174	1
175	4
176	0
178	0
179	0
180	0
181	19
182	2
183	9
184	1
185	1
186	1
193	1
194	3
195	137
196	17
197	54
198	6
199	2
200	0
201	5
202	1
203	0
204	0
206	0
207	0
208	0
209	0
211	2
212	0
213	4
214	1
215	0
219	0
220	3
221	1
222	4
223	1
224	0
225	0
231	1
232	2
233	0
234	0
235	0
241	0
243	0
247	0
248	2
249	0
250	0
251	0
267	0
271	1
283	0
285	0
301	0
303	1
304	1
306	202
307	33
308	65
309	10
310	0
