Mass Spectrum: 2-[(2,4-Dihydroxybenzylidene)hydrazino]-4-morpholino-6-(1-pyrrolidinyl)-1,3,5-triazine
Formula: C18H23N7O3
CAS: 339112-57-1
Molecular weight: 385
m/z	intensity
36	70
39	816
41	369
42	413
43	408
44	89
45	87
46	10
50	52
51	92
52	140
53	202
55	999
56	233
57	74
58	26
60	13
61	9
62	37
63	74
65	133
66	126
68	727
69	461
70	616
71	71
72	30
73	12
75	22
76	13
77	31
78	49
79	110
80	273
81	229
82	106
83	92
84	70
85	106
86	76
87	12
88	7
90	19
91	34
93	220
94	222
95	116
97	327
98	25
99	9
102	2
104	2
105	19
106	30
107	57
108	102
109	95
110	73
111	66
112	41
113	75
114	11
117	2
118	15
119	24
120	41
122	461
123	130
124	61
125	25
126	26
127	56
128	54
129	6
133	14
135	169
136	169
137	124
138	136
139	42
140	19
143	8
148	106
149	85
150	73
151	67
152	24
153	17
154	6
155	13
156	2
160	9
161	11
163	180
164	214
165	183
166	29
167	1
171	44
174	2
175	21
176	41
177	121
178	58
179	61
180	80
181	57
182	11
183	5
188	9
189	20
191	211
193	633
194	74
195	37
201	9
202	3
203	29
205	451
206	120
207	127
208	54
209	82
210	11
217	35
219	349
220	344
221	186
222	374
223	49
231	10
233	49
234	37
235	50
236	42
237	3
245	3
247	15
248	34
249	172
250	354
251	63
252	7
265	14
266	10
272	7
280	9
282	6
356	24
368	220
369	59
370	2
384	69
385	408
386	81
387	4
