Mass Spectrum: N-(2-Cyano-4,5,6,7-tetrahydrobenzo[b]thiophen-3-yl)acetamide
Formula: C11H12N2OS
CAS: 339165-60-5
Molecular weight: 220
m/z	intensity
33	103
34	2
35	5
37	13
38	19
39	93
40	56
41	86
43	999
45	70
47	18
48	2
51	29
55	27
58	27
64	37
69	32
78	30
91	27
150	205
151	16
152	7
153	1
159	1
160	1
161	2
162	2
163	2
171	2
172	2
173	2
174	4
175	8
176	7
177	44
178	172
179	16
180	6
181	1
217	2
218	1
219	1
220	23
221	4
