Mass Spectrum: 2-(Benzylamino)-4-morpholino-6-(salicylidenehydrazino)-1,3,5-triazine
Formula: C21H23N7O2
CAS: 339108-66-6
Molecular weight: 405
m/z	intensity
33	4
36	9
37	12
39	232
40	26
41	85
42	124
43	179
44	11
45	36
50	36
51	89
52	40
53	35
55	133
56	154
57	47
58	17
59	7
60	9
61	9
62	13
63	60
65	295
66	32
68	230
69	101
70	26
71	25
72	12
73	5
74	7
75	11
77	144
78	50
79	53
80	22
81	36
82	25
83	25
84	25
85	51
86	54
87	8
88	20
89	29
91	999
92	90
93	85
94	45
95	17
96	32
97	31
98	15
99	7
101	2
102	24
103	42
104	68
105	64
106	174
107	19
108	10
109	15
110	18
111	24
112	11
113	23
114	17
115	6
117	17
118	23
119	45
120	52
121	47
122	25
123	38
124	25
125	19
126	6
127	2
128	7
129	13
130	32
131	67
132	46
133	15
134	8
135	10
136	17
138	57
139	13
140	6
143	1
144	5
145	5
146	8
147	4
148	1
149	17
150	18
151	21
152	10
153	9
155	22
157	16
158	15
159	4
160	3
162	1
163	11
165	50
166	4
167	5
171	15
172	9
173	10
174	7
175	5
176	1
177	5
178	1
179	9
180	24
181	22
182	3
183	1
184	5
185	2
187	2
194	2
195	7
196	6
198	12
199	28
200	38
201	28
203	40
209	3
210	1
211	5
212	4
213	6
214	3
215	2
224	2
225	4
226	7
227	17
228	49
229	163
230	24
239	19
241	194
242	31
243	41
244	5
252	1
253	12
255	157
256	106
257	20
258	8
267	10
269	13
270	3
271	9
272	3
283	11
285	109
286	112
287	13
312	11
313	1
314	4
348	3
388	167
389	37
390	6
405	407
406	75
407	9
