Mass Spectrum: Pyridine, 2-tridecyl-
Formula: C18H31N
CAS: 33912-24-2
Molecular weight: 261
m/z	intensity
25	1
26	1
27	52
28	36
29	83
30	2
31	1
32	7
37	1
38	2
39	33
40	6
41	120
42	18
43	76
44	3
50	3
51	13
52	10
53	14
54	4
55	10
56	6
57	15
58	1
63	1
64	2
65	23
66	13
67	5
68	1
69	5
70	2
71	3
77	5
78	25
79	22
80	7
81	1
83	1
84	1
85	1
89	1
90	1
91	5
92	31
93	999
94	77
95	1
96	1
97	1
98	1
99	1
100	1
101	1
102	1
103	1
104	5
105	4
106	233
107	55
108	4
109	1
110	1
111	1
112	1
113	1
114	1
115	1
116	1
117	9
118	20
119	9
120	143
121	16
122	1
123	1
124	1
125	1
126	1
127	1
128	1
129	1
130	3
131	2
132	10
133	4
134	30
135	6
136	1
137	1
138	1
139	1
140	1
141	1
142	1
143	1
144	1
145	1
146	3
147	1
148	30
149	6
150	1
151	1
152	1
153	1
154	1
155	1
156	1
157	1
158	1
159	1
160	1
161	1
162	21
163	3
164	1
165	1
166	1
167	1
168	1
169	1
170	1
171	1
172	1
173	1
174	1
175	1
176	15
177	2
178	1
179	1
180	1
181	1
182	1
183	1
184	1
185	1
186	1
187	1
188	1
189	1
190	8
191	2
192	1
193	1
194	1
195	1
196	1
197	1
198	1
199	1
200	1
201	1
202	1
203	1
204	8
205	2
206	1
207	1
208	1
209	1
216	1
217	1
218	12
219	2
220	1
230	1
231	1
232	8
233	2
234	1
239	1
241	1
244	1
246	3
247	1
248	1
254	1
258	1
259	1
260	17
261	11
262	4
263	1
