Mass Spectrum: Semicarbazide, 1-(ethoxycarbonylmethyl)-4-(2-tolyl)-
Formula: C12H17N3O3
CAS: 339274-17-8
Molecular weight: 251
m/z	intensity
37	0
38	7
39	43
40	11
41	15
42	42
43	101
44	128
45	999
46	15
47	3
50	14
51	36
52	28
53	15
54	4
55	3
56	9
57	2
58	1
60	15
61	7
62	5
63	24
64	10
65	79
66	8
67	3
69	1
70	3
71	14
72	1
73	5
74	4
75	5
76	10
77	115
78	65
79	46
80	9
81	1
87	1
88	2
89	28
90	18
91	157
92	14
94	1
95	0
100	0
102	3
103	4
104	89
105	54
106	114
107	57
108	38
109	2
111	0
116	2
117	18
118	641
119	42
120	6
125	0
126	0
127	0
128	0
129	0
132	32
133	77
134	53
135	6
146	1
147	3
148	1
150	18
151	1
153	0
155	0
158	0
160	1
161	3
162	4
163	1
171	0
176	1
178	44
179	5
188	0
190	1
205	13
206	32
207	2
208	0
236	1
251	142
252	21
253	2
