Mass Spectrum: Benzoic acid [4-(4-fluoro-benzyloxy)-benzylidene]-hydrazide
Formula: C21H17FN2O2
CAS: 339252-31-2
Molecular weight: 348
m/z	intensity
34	0
36	0
37	0
38	1
39	7
40	6
41	1
42	0
43	1
44	3
45	0
48	0
49	0
50	8
51	35
52	4
53	1
55	1
56	0
57	6
58	0
59	2
60	0
61	0
62	2
63	9
64	3
65	2
66	0
67	0
68	0
69	1
70	1
71	0
73	0
74	2
75	3
76	7
77	150
78	12
79	4
80	0
81	2
82	1
83	39
84	2
85	0
87	0
88	0
89	6
90	2
91	4
92	1
93	0
94	0
95	1
96	0
97	0
98	0
99	0
102	0
103	2
105	273
106	22
107	11
109	999
110	76
111	2
112	0
113	0
117	0
118	0
119	1
120	2
121	10
122	13
123	1
124	0
125	2
126	0
127	1
128	0
129	0
131	0
132	1
133	2
134	2
135	0
139	0
140	0
141	2
142	0
143	0
145	0
146	0
147	1
148	0
149	1
150	0
151	0
152	0
153	0
155	0
159	0
160	0
161	0
164	0
165	1
166	0
167	0
170	0
171	1
172	0
173	1
174	1
175	0
176	0
181	0
183	0
185	0
198	0
199	0
210	1
211	0
212	1
213	0
214	0
215	0
222	0
225	0
226	0
227	5
228	3
229	0
230	15
231	2
238	0
239	1
240	0
243	0
314	0
316	0
344	0
345	0
346	1
348	68
349	14
350	1
