Mass Spectrum: 1,3-Diazole, tetrahydro-1,2,3-triphenyl-4-methyl-
Formula: C22H22N2
CAS: 339283-23-7
Molecular weight: 314
m/z	intensity
36	2
38	16
39	143
40	13
41	68
42	35
44	45
45	1
46	0
48	0
49	1
50	64
51	376
52	34
53	8
54	8
55	12
56	13
57	8
58	1
59	0
62	8
63	48
64	36
65	94
66	16
67	4
69	4
71	3
74	13
75	17
77	999
78	96
79	28
80	3
89	45
90	40
91	298
92	62
93	47
94	9
102	7
104	338
105	157
106	43
107	3
115	20
116	22
117	59
118	83
119	35
120	8
121	1
122	0
130	15
131	6
132	45
133	19
134	38
135	4
136	0
151	8
152	28
153	7
154	3
155	1
157	27
165	23
166	11
167	37
168	8
169	1
179	10
180	131
181	45
182	14
183	1
184	0
185	0
193	31
194	330
195	79
196	13
197	1
208	184
209	57
210	5
211	0
213	0
217	0
218	0
219	0
220	0
221	5
222	1
223	0
224	0
237	601
238	109
239	10
240	0
241	0
271	1
272	0
298	0
299	3
300	0
313	36
314	71
315	17
316	1
