Mass Spectrum: Thiophene-2-carboxylic acid, 3-benzoylamino-4,5-dimethyl-, ethyl ester
Formula: C16H17NO3S
CAS: 339285-18-6
Molecular weight: 303
m/z	intensity
33	0
34	0
37	1
38	7
39	37
40	4
41	7
42	4
43	24
45	23
46	1
47	2
49	2
50	58
51	206
52	19
53	21
54	3
55	5
56	0
57	2
58	20
59	91
60	12
61	7
62	3
63	8
64	7
65	28
66	63
67	12
68	4
69	8
70	8
71	9
72	1
73	3
74	20
75	25
76	57
77	856
78	64
79	3
80	11
81	8
82	8
83	12
84	5
85	8
86	3
87	1
88	0
89	1
90	3
91	3
92	10
93	9
94	5
95	3
96	3
97	36
98	12
99	12
100	1
101	1
102	1
103	3
105	999
106	81
107	6
108	6
109	5
110	7
111	3
112	2
113	2
114	1
115	2
116	0
118	2
119	1
120	1
121	0
122	5
123	3
124	26
125	19
126	26
127	4
128	1
129	0
130	0
131	0
134	0
136	25
137	4
138	6
139	1
140	5
141	2
142	6
143	1
144	0
146	0
147	0
148	0
150	1
151	2
152	91
153	52
154	26
155	4
156	1
157	0
159	0
160	0
164	0
165	1
166	0
167	1
168	3
169	2
170	17
171	2
172	0
173	0
175	0
178	0
180	9
181	0
182	1
183	0
184	7
185	1
186	1
187	0
196	1
198	95
199	10
200	6
201	1
202	0
212	0
213	2
214	3
215	1
216	0
224	0
228	3
229	3
230	3
231	1
239	0
240	1
242	2
256	29
257	237
258	67
259	19
260	3
261	0
275	0
287	0
288	35
289	7
290	2
300	0
302	6
303	610
304	119
305	44
306	5
307	0
