Mass Spectrum: Coumarin-3-carboxylic acid, allyl ester
Formula: C13H10O4
CAS: 339283-33-9
Molecular weight: 230
m/z	intensity
33	37
34	50
36	15
37	77
38	122
39	999
40	92
41	769
42	57
43	73
44	156
45	24
46	4
48	8
50	131
51	156
53	104
55	70
56	35
57	59
58	10
59	4
60	8
61	60
62	199
63	481
64	44
65	26
66	9
67	11
68	19
69	24
70	17
71	19
72	7
73	12
74	44
75	103
76	21
77	68
78	23
79	18
80	12
81	12
82	14
83	13
84	12
85	21
86	32
87	46
88	50
89	614
90	87
91	25
92	9
93	4
94	4
95	9
96	4
97	8
98	8
99	5
101	228
102	40
103	13
104	5
105	17
106	2
107	4
108	2
109	2
110	3
111	5
112	8
113	4
114	2
115	27
116	21
117	11
118	221
119	28
120	4
121	2
123	9
124	0
125	0
127	14
128	28
129	24
130	11
131	43
132	4
133	2
134	0
136	1
137	1
139	9
140	1
141	8
142	0
143	7
144	12
145	88
146	796
147	80
148	7
149	4
152	1
154	0
155	3
156	2
157	30
158	13
160	2
162	3
165	0
168	1
169	4
170	6
171	29
172	30
173	634
174	277
175	34
176	3
184	1
185	8
186	25
187	6
189	2
190	2
191	1
201	6
212	7
213	1
217	0
230	87
231	12
232	0
