Mass Spectrum: 5-Phenyl-2-(piperonylidenehydrazino)-2-thiazolin-4-one
Formula: C17H13N3O3S
CAS: 339239-40-6
Molecular weight: 339
m/z	intensity
37	29
38	170
39	295
40	66
41	38
42	31
43	30
44	28
45	209
46	5
47	2
50	698
51	346
52	87
53	112
54	10
55	11
57	3
58	0
59	98
60	35
61	46
62	223
63	599
64	166
65	351
66	29
67	4
68	0
69	66
70	3
71	2
74	111
75	141
76	999
77	300
78	251
79	40
82	4
86	30
87	6
89	545
90	648
91	136
92	19
93	9
94	1
95	7
102	3
104	227
105	54
106	6
117	15
118	141
119	19
120	29
121	995
122	506
123	100
124	18
126	8
130	6
131	6
132	19
133	16
134	392
135	55
136	5
146	42
147	102
148	373
149	698
150	165
151	8
158	0
161	6
162	6
163	25
165	10
166	19
173	6
176	26
189	1
191	1
192	2
216	4
230	3
250	1
339	21
