Mass Spectrum: N'-[(2-Hydroxy-1-naphthyl)methylene]-2-(4-octyloxyphenoxy)acethydrazide
Formula: C27H32N2O4
CAS: 339207-50-0
Molecular weight: 448
m/z	intensity
33	2
36	8
37	5
38	29
39	175
40	35
41	983
42	526
43	999
44	125
50	39
51	52
52	25
53	81
55	498
56	189
57	348
58	63
59	57
60	30
62	7
63	69
64	81
65	115
66	61
67	49
68	80
69	133
70	126
71	135
72	36
75	26
76	63
77	79
78	28
79	37
81	84
83	79
84	39
85	9
87	3
89	32
91	19
93	156
95	107
96	13
97	25
98	18
101	14
102	32
103	18
105	9
107	15
109	358
110	799
112	24
113	13
114	58
115	272
116	17
121	26
123	232
124	25
127	111
128	433
129	84
130	25
135	33
136	10
137	3
139	5
140	69
141	76
142	35
143	22
144	30
149	26
150	7
152	31
154	25
155	37
156	176
157	96
158	19
166	5
167	241
168	230
169	467
170	419
171	274
172	75
173	34
181	30
182	66
183	80
184	272
185	164
186	35
197	79
198	34
199	320
200	33
207	13
210	26
213	143
214	9
222	237
223	33
227	269
228	37
229	1
235	4
279	153
280	22
281	5
299	1
448	372
449	98
450	16
