Mass Spectrum: 2-Bromo-4-chloro-6-(N-[4-(cyclohexylamino)phenyl]iminomethyl)phenol
Formula: C19H20BrClN2O
CAS: 339218-29-0
Molecular weight: 406
m/z	intensity
36	248
38	208
39	106
40	3
41	22
44	83
47	11
50	385
51	140
53	108
55	43
56	9
57	8
61	86
62	151
63	318
64	49
65	26
66	10
67	10
69	111
73	174
75	999
76	117
77	101
79	41
80	73
82	338
85	99
87	132
88	57
89	44
90	32
91	24
92	11
93	8
95	4
97	130
99	208
101	322
103	10
104	6
105	7
106	5
107	3
111	867
113	375
114	54
115	21
116	10
117	39
119	31
120	4
122	33
124	49
125	29
126	38
127	32
128	19
129	13
130	15
132	109
133	73
135	7
138	430
139	105
140	186
143	11
144	2
145	3
146	2
147	4
148	4
149	9
150	7
151	18
153	89
154	24
155	40
157	3
158	10
159	2
160	1
161	2
162	4
164	57
165	49
166	86
167	11
168	3
169	2
170	3
171	13
172	54
174	44
175	13
176	9
177	11
178	4
179	11
180	2
181	5
182	2
183	3
184	2
185	3
186	2
187	1
189	8
190	3
191	8
192	4
193	9
194	11
195	4
197	2
198	8
200	70
201	90
202	35
203	33
204	9
205	8
206	18
207	7
208	22
209	8
210	7
211	8
212	3
213	3
214	1
215	1
216	1
217	3
218	1
219	3
220	1
221	1
227	3
228	13
229	20
230	11
231	24
232	61
233	27
234	77
235	23
236	23
237	9
238	4
239	1
244	2
245	4
246	5
247	10
248	5
249	5
250	1
251	1
262	5
263	12
264	12
265	17
266	9
267	7
268	2
269	1
273	6
274	2
275	4
279	2
280	4
281	2
282	2
296	5
298	2
300	2
302	1
307	7
308	41
309	12
310	50
311	9
312	11
313	2
323	1
324	1
326	14
327	8
328	19
329	9
330	9
331	4
332	1
337	1
338	2
339	9
342	198
343	376
344	280
345	546
346	172
347	240
348	46
349	34
350	5
363	2
365	3
390	6
391	16
392	6
393	10
394	2
395	1
406	5
408	7
409	1
410	1
