Mass Spectrum: Pyrrole-2-carboxylic acid, 4-acetyl-5-benzoylthioacetoxymethyl-3-methyl-, ethyl ester
Formula: C20H21NO6S
CAS: 339208-64-9
Molecular weight: 403
m/z	intensity
33	10
34	1
35	0
36	3
37	3
38	10
39	34
40	10
41	11
43	270
45	43
46	15
47	17
50	60
51	142
52	14
53	15
54	3
55	4
56	2
57	2
58	1
59	1
60	2
61	2
62	4
63	12
64	14
65	46
66	11
67	6
69	7
70	1
71	1
72	1
73	4
74	13
75	13
77	441
79	37
80	8
81	4
82	3
83	2
84	1
85	1
86	0
87	1
90	13
91	15
92	26
93	7
94	2
95	1
96	1
97	2
98	1
99	2
100	1
101	1
105	999
106	46
107	8
108	9
109	6
110	2
111	1
112	4
113	1
114	1
115	0
116	0
117	0
119	8
120	5
121	5
122	4
123	4
124	1
125	2
126	4
127	4
128	1
129	1
130	0
131	0
132	3
133	12
134	17
135	10
136	6
137	2
138	2
139	0
140	1
141	0
142	0
143	0
144	0
146	6
147	7
148	22
149	4
150	7
151	11
152	4
153	2
154	10
155	3
156	3
157	0
160	34
161	51
162	196
163	22
164	11
165	3
166	2
167	1
168	2
169	1
170	2
171	1
172	3
173	0
174	1
176	11
178	202
179	39
180	13
181	3
182	5
183	1
184	0
186	1
187	0
188	0
189	0
190	0
191	0
192	1
193	2
194	6
195	2
196	9
197	1
198	4
200	19
201	3
202	5
203	0
207	91
208	43
209	13
210	5
212	2
213	1
214	4
215	5
216	5
217	2
218	2
220	3
221	7
224	380
225	52
226	7
227	0
228	0
232	0
236	0
237	0
238	1
239	3
240	1
241	0
242	0
252	0
253	0
254	0
255	0
256	4
257	1
258	0
259	0
266	0
267	0
268	0
269	0
270	0
281	1
282	0
290	0
296	0
298	2
299	0
313	0
314	0
325	0
332	0
339	0
340	1
341	0
342	0
345	0
350	0
357	2
358	5
359	1
360	0
395	4
396	0
397	1
398	0
400	0
401	0
403	16
404	3
405	1
