Mass Spectrum: 3,5-Dinitro-benzoic acid 4-chloro-benzyl ester
Formula: C14H9ClN2O6
CAS: 339250-52-1
Molecular weight: 336
m/z	intensity
33	15
34	1
35	3
36	4
37	9
38	26
39	65
40	28
41	6
42	2
43	5
44	17
45	5
46	26
47	0
49	10
50	59
51	77
52	14
53	10
54	1
55	3
56	0
57	1
60	1
61	16
62	64
63	182
64	36
65	23
66	4
67	1
68	0
69	2
70	0
71	1
73	64
74	269
75	572
76	65
77	192
78	28
79	9
80	1
81	0
82	0
83	0
84	2
85	8
86	7
87	15
89	656
90	126
91	28
92	6
93	2
94	0
97	5
99	98
101	38
102	9
103	49
104	10
105	13
106	4
107	6
108	2
109	1
111	54
112	16
113	96
114	9
115	28
116	1
117	0
119	13
120	18
121	8
122	8
124	410
125	999
126	199
127	311
128	23
129	3
130	0
131	0
132	0
133	0
134	1
135	1
136	4
137	2
139	65
140	30
141	69
142	13
143	15
144	1
147	0
149	115
150	14
151	3
152	4
153	1
161	0
162	1
163	3
164	3
165	8
166	53
167	5
168	2
169	0
175	0
177	0
179	44
180	5
181	1
186	0
192	4
193	7
195	283
196	371
197	32
198	4
199	1
215	0
229	0
243	0
273	0
290	7
291	0
292	1
300	1
301	20
302	3
306	0
336	129
337	20
338	35
339	5
340	0
