Mass Spectrum: 1,1-Diphenyl-3-(pyridine-3-carbonyl)-thiourea
Formula: C19H15N3OS
CAS: 339207-34-0
Molecular weight: 333
m/z	intensity
33	3
34	5
35	0
36	4
37	31
38	66
39	185
40	69
41	57
42	15
43	43
44	36
45	18
46	2
47	1
48	4
49	41
50	278
51	764
52	108
53	45
54	11
55	28
56	10
57	30
58	55
59	27
60	13
61	9
62	20
63	61
64	47
65	105
66	80
67	14
68	6
69	27
70	25
71	24
72	7
73	9
74	23
75	32
76	52
77	248
78	744
79	55
80	7
81	9
82	11
84	111
86	14
87	6
88	5
89	19
90	11
91	23
92	17
93	8
94	2
95	5
96	4
97	11
98	3
99	2
100	1
101	5
102	7
103	9
104	26
106	999
107	66
108	7
109	14
110	9
111	4
112	3
113	8
114	9
115	44
116	10
117	8
118	11
119	5
120	0
121	2
122	9
123	5
124	1
125	1
126	3
127	9
128	12
129	6
130	3
131	1
132	0
134	0
135	3
137	1
138	3
139	29
140	22
141	27
142	12
143	8
144	0
145	1
149	16
150	2
151	2
152	4
153	5
154	11
155	2
156	0
157	1
158	1
164	12
165	20
166	61
167	262
168	340
169	550
170	68
171	6
173	0
177	0
178	0
181	5
182	0
183	0
184	0
185	1
192	0
193	1
194	4
195	4
196	0
198	2
199	2
200	1
212	1
213	0
216	2
221	1
224	225
225	33
226	3
227	7
228	2
256	1
279	1
330	0
332	9
333	52
334	11
335	3
