Mass Spectrum: N-(2-Phthalimidoethyl)-p-toluamide
Formula: C18H16N2O3
CAS: 339289-84-8
Molecular weight: 308
m/z	intensity
38	21
39	77
40	36
41	39
42	20
43	20
44	24
45	8
47	10
48	4
49	10
50	94
51	83
52	16
53	10
54	1
55	5
56	10
57	4
58	2
59	1
60	2
61	3
62	12
63	48
64	20
65	185
66	10
67	2
69	5
70	4
71	3
73	6
74	30
75	35
76	106
77	142
78	18
79	5
82	6
83	17
84	3
85	9
86	1
87	3
88	3
89	55
90	41
91	341
92	31
93	4
97	1
102	13
103	9
104	77
105	132
106	13
107	1
108	1
116	6
117	23
118	27
119	999
120	93
121	11
122	6
123	2
129	4
130	21
131	38
132	17
133	34
134	13
135	27
136	9
137	1
139	1
144	1
145	4
146	41
147	13
148	51
149	15
150	1
158	2
159	9
160	148
161	58
162	6
171	11
172	3
173	380
174	48
175	4
183	0
188	1
189	53
190	6
200	0
264	0
277	1
291	29
292	5
293	1
294	2
295	0
306	0
307	0
308	31
309	6
310	0
