Mass Spectrum: Propiohydrazide, 2-benzylthio-N2-benzylideno-
Formula: C17H18N2OS
CAS: 339241-51-9
Molecular weight: 298
m/z	intensity
33	33
35	3
36	1
37	17
38	48
39	265
40	83
41	59
42	25
43	59
44	157
45	197
46	4
47	6
48	3
50	121
51	232
52	43
53	10
55	75
56	11
57	27
59	97
60	53
61	80
62	49
63	146
64	65
65	373
66	20
67	1
69	47
70	4
71	7
72	20
73	60
74	19
75	19
76	39
77	217
78	33
79	18
80	0
87	1
89	169
90	130
91	999
92	146
93	27
97	1
100	1
102	6
103	26
104	66
105	19
106	12
117	18
118	19
119	105
120	54
121	41
122	7
123	9
124	5
131	14
132	8
133	1
135	0
145	7
147	5
151	4
176	148
177	9
207	10
