Mass Spectrum: Sulfimine, N-(2-methoxy-4-nitrophenyl)-S,S-dimethyl-
Formula: C9H12N2O3S
CAS: 339246-70-7
Molecular weight: 228
m/z	intensity
33	5
34	9
35	1
37	23
38	101
39	176
40	99
41	85
42	63
43	51
44	55
45	473
46	407
47	596
48	47
49	39
50	231
51	222
52	175
53	102
54	45
55	33
56	10
57	23
58	28
59	106
60	16
61	682
62	999
63	224
64	129
65	449
66	72
67	50
68	14
69	32
70	12
73	11
74	12
75	67
76	233
77	467
78	148
79	231
80	95
81	20
82	21
83	12
84	5
85	3
87	11
88	13
89	8
90	28
91	89
92	264
93	88
94	26
95	42
96	10
97	16
99	3
104	370
105	85
106	62
107	71
108	81
109	42
110	18
112	3
119	151
120	165
121	49
122	55
123	18
124	26
125	5
126	3
133	7
134	21
135	92
136	176
137	28
138	100
139	12
149	8
150	28
151	16
152	54
153	76
154	7
165	674
166	752
167	221
168	173
169	22
171	3
181	315
182	46
183	15
184	9
197	42
198	54
199	6
212	17
213	830
214	92
215	46
228	843
229	111
230	58
