Mass Spectrum: Butyronitrile, 2-acetoxymino-3-(2,4-dinitrophenylhydrazono)-
Formula: C12H10N6O6
CAS: 339246-63-8
Molecular weight: 334
m/z	intensity
34	8
36	3
37	5
38	20
39	27
40	123
41	39
42	75
43	999
44	83
45	194
46	9
50	22
51	39
52	26
53	25
54	11
55	12
56	6
57	10
58	1
59	2
60	124
61	10
62	27
63	43
64	21
65	8
66	19
67	7
68	1
69	5
70	4
71	5
73	2
74	26
75	54
76	30
77	44
78	24
79	27
80	7
81	9
82	1
83	3
84	2
85	2
87	4
88	7
89	14
90	10
91	6
92	7
93	9
95	4
96	0
97	1
98	2
99	0
101	5
102	6
103	9
104	14
105	27
106	8
107	9
108	2
109	6
110	0
112	2
113	1
114	1
115	4
116	2
117	3
118	4
119	2
120	4
121	4
122	12
123	2
124	2
127	3
128	2
129	4
130	3
131	3
132	2
133	2
135	4
136	2
140	1
142	2
144	1
145	1
146	1
147	3
149	11
150	3
151	1
152	7
153	3
154	2
155	1
156	3
157	3
158	1
159	4
163	1
165	5
166	10
167	1
168	1
169	2
170	4
171	7
175	1
179	2
180	4
181	11
182	9
183	10
184	2
185	3
186	1
188	1
189	1
191	1
194	1
195	2
196	0
198	9
199	6
200	12
201	6
202	2
204	1
214	0
215	1
219	1
229	3
240	10
241	5
244	27
245	15
246	8
249	23
250	2
258	15
259	7
274	159
275	116
276	26
277	2
286	4
291	7
292	269
293	34
294	3
334	148
335	28
336	3
