Mass Spectrum: Carbonic acid 4,6-dibromo-7-methyl-2-oxo-benzo[1,3]oxathiol-5-yl ester methyl ester
Formula: C10H6Br2O5S
CAS: 339239-82-6
Molecular weight: 396
m/z	intensity
33	9
34	9
36	14
37	57
38	129
39	434
40	98
41	10
42	9
43	48
44	74
45	55
47	13
48	10
49	17
50	44
51	65
52	21
53	59
54	4
55	9
56	36
57	26
59	590
60	36
61	64
62	84
63	149
64	19
65	11
67	999
68	62
69	117
70	13
71	13
72	4
73	13
74	30
75	48
76	7
77	16
78	18
79	19
80	40
81	40
82	33
83	42
84	74
85	17
86	9
87	1
90	5
91	40
92	30
93	87
94	46
95	111
96	13
97	5
99	19
101	3
102	0
103	1
104	6
105	22
106	35
107	106
108	44
109	20
110	29
111	3
112	0
113	0
115	1
116	7
117	35
118	20
119	30
120	12
121	2
123	107
124	6
125	13
127	1
128	2
131	142
133	133
135	45
136	5
137	43
138	28
139	5
140	2
141	9
142	9
143	8
144	7
145	8
147	23
149	17
150	0
151	11
152	1
153	1
154	3
155	3
156	3
157	3
159	3
161	4
163	85
165	87
166	8
167	4
171	7
172	1
173	15
174	36
175	12
176	33
177	2
182	1
183	1
184	1
185	4
186	8
187	6
188	8
189	17
190	1
191	13
195	11
197	1
199	1
201	5
202	12
203	5
204	14
211	1
214	3
215	1
217	40
218	5
219	31
220	2
221	5
223	9
225	4
227	0
230	79
231	13
232	69
233	8
234	2
235	2
242	4
243	15
245	422
246	67
247	367
248	39
249	25
250	2
251	14
253	17
255	20
256	0
257	8
261	0
263	2
265	6
267	11
269	4
274	1
276	2
277	4
279	9
280	0
281	5
282	1
283	3
288	0
289	0
291	0
293	5
295	17
296	67
297	19
298	119
300	77
301	4
302	5
304	3
307	3
309	68
311	131
312	13
313	53
314	4
315	1
317	1
319	2
321	3
323	8
324	18
326	39
327	2
328	13
334	3
337	88
339	150
340	18
341	65
342	5
343	2
350	4
352	78
354	133
355	18
356	56
357	4
358	1
392	0
393	3
394	6
396	75
398	136
400	76
401	5
402	1
