Mass Spectrum: 3-Amino-2-benzoyl-4,5,6,7-tetrahydrobenzo[b]thiophene
Formula: C15H15NOS
CAS: 339239-71-3
Molecular weight: 257
m/z	intensity
38	53
39	347
40	50
41	150
42	43
45	187
47	28
50	216
51	721
52	152
53	113
54	64
58	72
59	53
60	140
62	45
63	90
64	40
65	174
66	120
67	46
68	24
69	65
70	25
71	63
72	21
74	45
75	53
76	99
77	999
78	286
79	102
80	39
84	63
89	62
90	44
91	139
92	26
93	28
97	35
104	28
105	276
106	43
115	46
116	23
117	30
118	43
121	25
133	2
134	9
135	7
136	11
137	3
138	2
139	12
140	8
141	25
142	7
143	2
144	0
145	1
146	2
147	0
148	0
149	2
150	17
151	22
152	35
153	8
154	5
155	0
156	2
157	0
158	0
160	0
161	1
162	0
163	0
164	1
165	5
166	6
167	14
168	7
169	8
170	2
171	2
172	0
173	1
176	1
177	0
178	13
179	7
180	10
181	1
182	2
183	2
184	4
185	0
186	4
194	0
195	2
196	3
197	0
199	1
200	35
201	6
202	2
211	5
212	2
214	1
224	0
228	75
229	13
230	3
238	0
242	1
256	89
257	77
258	14
259	3
