Mass Spectrum: N1-(2-Chlorobenzyl)-N2-(2,5-xylyl)oxamide
Formula: C17H17ClN2O2
CAS: 339239-36-0
Molecular weight: 316
m/z	intensity
35	5
36	15
37	13
38	52
39	325
40	64
41	95
42	48
43	130
44	118
45	5
50	160
51	311
52	107
53	115
54	28
55	20
56	7
57	3
58	3
60	0
61	7
62	60
63	270
64	70
65	215
66	37
67	10
68	1
73	34
74	44
75	116
76	92
77	783
78	226
79	282
80	36
81	2
84	1
85	8
86	4
87	11
89	494
90	174
91	525
92	97
93	91
94	13
99	135
100	2
101	36
102	65
103	160
104	175
105	411
106	199
107	60
108	1
111	12
112	30
113	11
114	6
115	2
116	18
117	27
118	146
119	104
120	407
121	384
122	63
123	6
125	999
126	97
127	312
128	22
130	10
131	4
132	113
133	29
134	22
135	1
136	0
138	51
139	28
140	238
141	32
142	119
143	7
144	10
145	1
146	62
147	362
148	353
149	52
150	4
157	0
158	0
166	5
168	15
170	3
175	2
191	9
281	3
288	4
316	16
318	5
