Mass Spectrum: Propanoic acid, 2-(1,2,3,4-tetrahydro-1,3-dimethyl-2,4-dioxopyrimidin-6-yl)hydrazono-, ethyl ester
Formula: C11H16N4O4
CAS: 339244-80-3
Molecular weight: 268
m/z	intensity
33	2
34	2
35	0
36	0
38	8
39	19
40	146
42	505
43	120
44	20
45	27
46	5
47	5
48	1
49	0
50	2
51	3
52	13
53	47
54	130
55	225
56	102
57	25
58	57
59	3
60	1
61	1
62	5
63	1
64	1
65	1
66	8
67	23
69	999
70	59
71	7
72	2
73	2
74	1
75	0
76	0
77	1
79	2
80	4
81	8
82	57
83	17
84	3
85	5
86	3
87	1
88	1
89	0
90	0
91	1
92	0
93	0
94	1
95	2
96	22
97	14
98	3
99	3
100	1
101	0
104	0
105	0
106	0
107	0
108	1
110	227
111	15
112	2
113	1
114	1
115	0
116	1
118	0
120	0
121	0
122	0
124	1
125	3
126	4
127	9
128	1
129	0
131	0
135	0
136	1
137	2
138	16
139	1
140	0
142	15
143	0
146	1
147	0
149	0
150	0
151	1
152	1
154	25
155	5
156	0
157	0
163	0
164	0
165	0
166	1
167	2
168	0
171	1
172	0
178	0
180	0
181	0
182	0
183	0
190	0
191	0
193	1
194	6
195	207
196	21
197	1
198	0
207	1
208	0
211	0
221	0
223	6
224	1
239	0
253	0
266	0
267	0
268	22
269	2
270	0
