Mass Spectrum: 11-Tetradecyn-1-ol
Formula: C14H26O
CAS: 33925-73-4
Molecular weight: 210
m/z	intensity
41	319
42	112
43	713
45	17
50	10
51	53
52	39
53	188
54	71
55	358
56	64
57	999
58	63
59	26
60	8
63	8
65	57
66	95
67	181
68	72
69	193
71	13
72	8
73	40
74	22
75	126
77	50
78	38
79	192
80	77
81	649
82	118
83	78
84	153
87	33
89	17
91	78
92	34
93	106
94	57
95	168
96	309
97	105
98	33
100	7
102	9
103	10
105	51
106	29
107	105
108	57
109	114
110	61
111	69
112	16
113	8
116	7
117	31
119	52
120	14
121	100
122	58
123	101
124	116
125	28
126	22
127	26
129	9
130	8
131	16
133	55
134	22
135	103
136	44
137	112
138	148
139	17
140	38
141	13
143	10
145	40
147	35
148	32
149	77
150	25
151	44
152	47
153	29
154	9
157	17
162	11
163	126
164	11
165	28
166	8
168	11
176	11
177	85
178	11
192	25
193	11
195	21
196	18
197	9
208	9
209	12
210	25
211	8
212	11
