Mass Spectrum: 2-[(3-Methoxybenzylidene)hydrazino]-2-oxo-N-propylacetamide
Formula: C13H17N3O3
CAS: 339241-42-8
Molecular weight: 263
m/z	intensity
37	6
38	36
39	181
41	528
43	999
44	142
45	10
46	23
50	70
51	161
52	48
53	20
54	13
55	11
56	39
57	9
58	32
59	35
60	0
62	26
63	120
64	102
65	54
66	8
67	1
69	0
70	3
74	11
75	13
76	45
77	243
78	69
79	37
80	18
86	52
87	10
89	47
90	47
91	152
92	117
93	19
94	4
95	4
102	3
103	18
104	13
105	66
106	64
107	75
108	63
109	3
117	1
118	10
119	36
120	27
121	90
122	20
123	15
133	59
134	136
135	34
136	14
148	2
149	113
150	16
177	781
178	79
179	3
207	0
263	35
264	2
