Mass Spectrum: 3(2H)-Furanone, 2-hexyl-5-methyl-
Formula: C11H18O2
CAS: 33922-66-6
Molecular weight: 182
m/z	intensity
24	2
25	2
26	4
27	50
28	58
29	26
34	1
36	2
38	3
39	70
40	108
41	69
42	19
43	104
44	9
45	1
48	2
53	10
54	4
55	43
56	8
57	8
58	4
59	2
60	6
64	2
65	2
67	14
68	74
69	27
70	11
71	16
73	9
74	3
77	2
79	3
81	5
82	1
83	7
84	3
85	28
87	3
93	2
95	19
96	2
97	21
98	999
99	40
100	4
102	2
111	691
113	2
116	1
128	2
129	1
131	1
135	1
137	3
139	1
147	4
167	2
182	26
183	1
