Mass Spectrum: 5-Isopropyl-2-(piperonylidenehydrazino)-2-thiazolin-4-one
Formula: C14H15N3O3S
CAS: 339239-51-9
Molecular weight: 305
m/z	intensity
37	17
38	70
39	647
41	999
42	88
43	884
45	366
46	34
47	41
50	339
51	103
52	38
53	155
54	71
55	350
56	32
57	3
58	4
59	80
60	62
61	8
62	71
63	186
64	34
65	196
66	8
69	230
70	5
71	33
72	14
73	64
74	70
75	69
76	520
77	78
78	25
79	10
80	2
83	58
84	2
85	4
86	4
87	22
88	22
89	11
90	29
91	19
92	10
96	17
102	1
103	3
104	99
105	25
106	1
118	6
119	2
120	2
121	60
122	30
133	8
134	292
135	28
146	15
147	64
148	220
149	315
150	25
162	3
163	7
166	0
206	1
305	26
