Mass Spectrum: Pyrimidin-2,4(1H,3H)-dione, 6-methyl-5-(4-nitrophenylamino)sulfonyl-
Formula: C11H10N4O6S
CAS: 339292-92-1
Molecular weight: 326
m/z	intensity
33	7
34	6
36	10
37	34
38	104
39	176
40	135
42	999
43	379
44	85
45	323
46	18
48	15
49	4
50	27
51	43
52	108
53	65
54	97
55	54
56	14
57	33
58	45
59	19
60	11
63	228
64	163
65	84
66	33
67	52
68	56
69	84
70	36
71	17
73	15
74	7
75	7
76	13
77	15
78	14
79	17
80	26
82	116
83	42
84	10
85	7
86	4
87	11
88	7
89	20
90	37
91	59
92	41
93	7
94	2
95	5
96	4
97	12
98	15
99	2
100	1
101	2
102	5
103	10
105	36
106	5
108	142
109	13
110	7
112	8
113	13
114	1
115	3
116	1
117	4
118	3
119	3
120	3
122	39
123	3
125	4
126	70
127	5
128	2
129	3
130	7
131	1
132	1
133	1
134	1
136	6
138	272
139	19
141	33
142	2
143	3
144	3
146	32
147	2
148	2
149	9
150	2
151	1
152	2
153	1
154	0
155	1
156	1
157	2
158	1
159	1
160	0
161	1
162	0
163	1
164	1
165	1
166	1
167	1
168	3
169	1
171	11
173	15
174	2
175	1
176	0
177	0
178	0
179	0
180	0
183	0
184	0
185	1
186	1
187	2
188	6
189	270
190	18
191	14
192	1
193	0
195	1
196	0
197	0
199	1
200	0
201	0
202	1
203	2
204	0
205	0
213	0
214	2
215	42
216	9
217	1
218	0
219	2
223	0
224	0
227	1
228	0
229	0
232	0
243	0
245	25
247	20
248	1
250	0
257	0
260	0
261	8
262	2
263	0
269	0
280	0
281	0
283	2
286	0
296	1
301	0
309	0
310	2
311	0
318	0
321	0
322	1
323	1
324	1
325	1
326	103
327	12
328	6
329	0
