Mass Spectrum: Glutaric acid monoamide, N-4-methylphenyl-, benzoylmethyl ester
Formula: C20H21NO4
CAS: 339246-76-3
Molecular weight: 339
m/z	intensity
37	6
38	15
39	140
40	33
41	166
42	233
43	44
44	19
45	19
49	4
50	62
51	189
52	41
53	26
55	237
56	9
57	3
58	2
60	1
61	1
62	7
63	29
64	10
65	101
66	10
67	3
68	3
69	22
70	18
71	2
73	2
74	19
75	19
76	46
77	676
78	128
79	109
80	20
81	4
83	0
84	2
87	3
88	0
89	14
90	12
91	223
92	27
93	30
95	0
97	18
98	3
101	0
102	6
103	15
104	52
105	748
106	419
107	999
108	106
109	6
117	2
118	16
119	105
120	74
121	6
122	3
127	0
130	4
131	13
132	27
133	23
134	40
135	3
136	2
137	13
144	4
146	5
147	3
148	5
149	10
150	1
160	7
161	1
162	6
167	0
174	9
175	26
176	48
177	5
178	1
190	2
202	2
203	12
204	57
205	11
223	0
233	35
234	5
236	2
339	211
340	45
341	7
