Mass Spectrum: 2-Oxo-N-propyl-2-(veratrylidenehydrazino)acetamide
Formula: C14H19N3O4
CAS: 339241-37-1
Molecular weight: 293
m/z	intensity
37	5
38	30
39	176
41	530
43	999
44	147
45	37
50	70
51	125
52	38
53	44
54	15
55	22
56	40
57	12
58	27
59	43
60	0
61	3
62	24
63	95
64	78
65	79
66	49
67	13
68	4
69	7
70	4
71	0
72	1
74	9
75	13
76	46
77	153
78	47
79	150
80	22
81	7
82	2
83	0
84	1
86	54
87	7
88	1
89	16
90	26
91	34
92	110
93	29
94	30
95	20
96	0
102	6
103	4
104	9
105	43
106	33
107	67
108	11
109	6
110	3
117	2
118	10
119	29
120	47
121	36
122	27
123	6
124	0
125	1
131	0
132	1
133	17
134	22
135	42
136	19
137	37
138	13
139	0
146	8
147	7
148	36
149	25
150	58
151	18
152	2
162	0
163	68
164	71
165	168
166	18
167	0
178	0
179	46
180	10
191	1
192	1
207	523
208	60
209	4
293	50
294	7
