Mass Spectrum: 3H-1,2,4-Triazole-3-carboxamide, N-(5-ethyl-1,3,4-thiadiazol-2-yl)-
Formula: C7H8N6OS
CAS: 339202-47-0
Molecular weight: 224
m/z	intensity
33	3
34	3
36	2
37	7
38	30
39	172
40	13
41	101
42	167
43	37
45	273
46	33
47	39
48	4
49	1
50	3
51	14
52	20
53	28
54	65
55	22
56	60
57	34
58	108
59	85
60	41
61	6
62	1
63	1
64	3
65	5
66	3
67	23
69	569
70	209
71	94
72	67
73	262
74	89
75	15
77	24
78	3
79	3
80	2
81	5
82	7
83	8
84	11
85	32
86	90
87	28
88	16
89	2
91	9
92	3
93	4
94	4
96	999
97	59
98	7
100	46
101	49
102	5
103	5
104	2
105	13
106	2
107	3
108	3
109	19
110	12
111	16
112	15
113	80
114	54
115	7
116	4
117	1
118	4
119	4
120	3
121	5
123	51
124	8
126	66
127	561
128	97
129	296
130	19
131	13
132	3
133	1
134	1
135	5
136	7
137	93
138	258
139	22
141	32
142	31
143	3
144	0
145	0
146	1
147	1
148	3
149	7
150	2
151	7
152	6
154	118
155	355
156	774
157	62
158	36
159	1
160	0
161	0
164	1
166	251
167	27
169	394
171	55
172	2
176	2
177	2
178	1
181	8
182	3
183	0
189	0
191	1
192	0
194	1
195	12
196	188
197	16
198	6
199	0
203	0
208	0
209	8
220	1
221	0
224	902
225	96
226	42
227	2
