Mass Spectrum: N1-(2,5-Dimethylphenyl)-N2-(1-phenylethyl)oxamide
Formula: C18H20N2O2
CAS: 339240-68-5
Molecular weight: 296
m/z	intensity
34	1
38	4
39	66
40	83
41	38
42	65
43	31
44	66
45	2
50	17
51	76
52	23
53	26
54	3
55	10
56	4
57	9
58	1
62	0
63	14
64	4
65	38
66	5
67	2
68	0
69	3
70	3
71	2
74	0
75	2
77	311
78	79
79	238
80	17
81	0
83	0
84	2
85	0
89	8
91	125
92	17
93	16
94	1
102	8
103	127
104	91
105	999
106	245
107	16
116	0
117	3
118	29
119	51
120	697
121	250
122	49
123	1
130	3
132	29
133	7
134	2
141	7
146	38
147	144
148	176
149	28
150	0
163	0
164	3
175	0
191	45
192	4
268	15
269	0
296	63
297	9
