Mass Spectrum: Oxazol-5(4H)-one, 4-[5-(2,4-dichlorophenyl)-2-furfurylideno)-2-methyl-
Formula: C15H9Cl2NO3
CAS: 339274-12-3
Molecular weight: 321
m/z	intensity
33	1
34	5
35	4
36	13
37	6
38	14
39	15
40	88
41	14
42	40
43	999
44	47
45	11
46	1
47	1
48	1
49	3
50	33
51	40
52	11
53	13
54	3
55	10
56	5
57	5
58	1
60	7
61	8
62	24
63	35
64	6
65	3
66	5
67	4
68	17
69	4
70	2
71	2
72	3
73	15
74	34
75	42
76	30
77	27
78	20
79	15
80	8
81	3
82	1
83	5
84	6
85	13
86	20
87	27
88	5
89	1
90	1
91	2
92	1
93	2
94	3
95	3
96	2
97	9
98	7
99	16
100	8
101	5
102	2
103	1
104	9
105	2
106	3
107	2
108	2
109	30
110	14
111	19
112	6
113	30
114	4
115	0
116	0
117	0
118	4
119	5
120	2
121	3
122	3
123	11
124	8
125	22
126	25
127	6
128	1
129	0
130	1
131	0
132	0
133	3
134	1
135	4
136	3
137	6
138	5
139	2
140	0
141	0
144	1
145	32
146	5
147	32
148	24
149	13
150	13
151	36
152	55
153	30
154	4
155	0
156	0
157	1
158	0
159	4
160	14
161	20
162	10
163	7
164	2
165	0
166	0
169	0
170	11
171	3
172	7
173	38
174	5
175	20
176	2
177	3
178	0
179	0
180	5
181	2
182	1
183	25
184	4
185	18
186	16
187	80
188	47
189	37
190	15
191	4
192	0
194	0
195	1
196	23
197	4
198	16
199	2
200	3
201	0
203	0
206	0
207	0
208	0
209	0
210	0
211	0
212	0
213	0
214	1
215	4
216	49
217	9
218	16
219	2
220	0
221	1
222	3
223	4
224	4
225	3
226	2
227	1
228	0
233	0
234	0
236	4
237	0
238	2
239	0
240	1
241	0
242	0
244	0
248	0
250	57
251	663
252	137
253	435
254	69
255	74
256	9
257	0
265	0
266	0
276	0
278	0
286	0
287	0
288	0
293	0
294	0
297	0
320	1
321	147
322	28
323	106
324	17
325	18
326	2
327	0
