Mass Spectrum: 1-(4-Nitrobenzyloxy)-4-(benzyloxy)phenylene
Formula: C20H17NO4
CAS: 339246-82-1
Molecular weight: 335
m/z	intensity
36	0
37	2
38	8
39	55
40	25
41	16
42	4
43	7
44	6
45	0
46	3
50	16
51	35
52	17
53	11
54	12
55	5
56	0
57	3
62	15
63	71
64	32
65	126
66	8
69	1
71	0
73	0
74	5
75	5
76	8
77	30
78	94
79	9
80	2
81	4
82	13
85	0
86	1
87	1
89	115
90	71
91	999
92	80
93	2
102	1
104	2
105	18
106	46
107	7
108	1
109	1
115	3
120	6
121	0
122	0
126	0
128	0
135	2
136	58
137	7
139	2
141	4
142	1
150	4
151	1
152	2
153	2
165	2
166	1
169	1
170	0
171	2
176	4
180	1
181	2
197	0
198	2
199	3
200	3
227	12
228	1
244	0
270	1
290	1
335	103
336	23
337	2
338	0
