Mass Spectrum: 1-Allyl-3-propyltrisulfane
Formula: C6H12S3
CAS: 33922-73-5
Molecular weight: 180
m/z	intensity
26	4
27	67
28	4
29	14
32	3
33	2
34	2
35	1
37	8
38	21
39	270
40	23
41	558
42	29
43	320
44	15
45	274
46	51
47	97
48	4
49	5
53	4
54	1
55	7
56	1
57	7
58	30
59	46
60	9
61	16
62	1
63	1
64	76
65	13
66	13
67	4
68	3
69	21
70	4
71	59
72	23
73	999
74	270
75	78
76	16
77	3
78	7
79	10
81	25
82	2
83	2
85	6
86	1
87	47
88	3
89	3
91	4
93	2
96	9
97	78
98	5
99	11
100	1
101	4
102	1
103	39
104	15
105	126
106	18
107	19
108	6
109	2
110	3
111	2
115	963
116	103
117	49
118	5
119	1
137	1
139	18
140	1
141	3
142	1
148	1
180	58
181	6
182	8
183	1
