Mass Spectrum: N-(2-Fluorophenethyl)-N'-[4-(pentyloxy)phenyl]oxamide
Formula: C21H25FN2O3
CAS: 339222-23-0
Molecular weight: 372
m/z	intensity
33	26
34	1
35	2
37	9
39	225
41	521
43	999
45	6
46	1
50	18
51	45
52	57
53	151
55	146
57	64
59	8
61	4
62	16
63	63
64	41
65	61
66	13
67	10
68	11
69	36
71	85
72	5
75	42
77	174
79	82
80	95
81	110
83	124
84	7
85	2
87	4
89	16
90	39
91	50
92	15
93	21
94	22
95	19
96	42
97	35
98	5
99	5
101	44
103	294
104	22
105	17
108	684
109	833
110	70
111	7
112	2
113	2
115	2
116	3
117	8
118	28
119	13
120	21
121	47
122	199
123	282
124	21
125	4
127	3
128	3
129	2
130	2
131	3
132	8
135	448
136	71
137	44
138	59
140	8
141	4
146	9
147	4
148	13
149	6
150	5
151	2
152	1
161	1
162	2
163	5
164	4
166	28
167	3
168	3
171	2
173	2
175	3
176	5
177	8
178	43
179	43
180	243
181	23
182	4
188	1
189	1
190	3
191	7
192	8
193	64
194	7
202	2
203	4
205	38
206	8
207	2
208	2
209	6
244	2
245	11
246	2
247	1
249	1
250	17
251	2
261	1
262	2
263	11
264	2
279	3
297	1
298	1
299	1
301	5
302	16
303	3
315	3
362	1
363	1
364	2
365	2
366	5
367	5
368	5
369	8
370	9
371	7
372	85
373	18
374	2
