Mass Spectrum: Cyclopropanecarboxamide, 2,2-dimethyl-3-(2-methyl-2-propenyl)-N-(4-methylphenyl)-
Formula: C17H23NO
CAS: 339292-32-9
Molecular weight: 257
m/z	intensity
33	4
34	5
36	17
37	8
39	541
41	999
43	536
44	20
45	7
46	0
48	0
50	59
51	179
52	130
53	331
55	413
56	42
57	91
58	6
59	13
60	1
61	4
63	83
65	320
67	377
68	61
69	193
70	14
71	10
73	3
74	5
75	16
77	532
78	166
79	421
81	744
82	62
83	83
84	6
85	5
86	2
87	3
89	34
91	445
92	55
93	163
95	185
96	20
97	9
99	5
100	3
101	2
102	5
103	19
104	48
106	597
107	732
108	113
109	404
110	40
111	6
112	3
113	5
115	10
116	7
117	9
118	19
119	12
120	18
121	29
123	847
124	293
125	28
126	2
127	4
128	6
129	5
130	9
131	10
132	37
133	40
134	69
135	19
136	6
137	3
138	2
139	1
140	1
141	3
142	5
143	7
144	15
145	8
146	13
147	12
148	27
149	22
150	10
151	25
152	5
153	3
154	3
155	2
156	8
157	8
158	24
159	9
160	10
161	2
162	1
163	1
165	3
166	1
167	2
168	5
169	5
170	5
171	8
172	19
173	15
174	36
175	7
176	2
177	6
178	1
179	0
180	1
181	2
182	3
183	2
184	36
186	21
187	6
188	41
189	19
190	4
191	1
192	0
193	0
194	1
195	1
196	3
197	4
198	15
199	31
200	15
202	52
203	7
204	0
205	0
206	0
207	0
208	1
209	1
210	1
212	5
213	1
214	10
215	6
216	9
217	1
218	1
220	0
221	0
222	1
223	0
224	3
225	0
226	1
227	0
228	1
229	0
230	0
231	1
232	0
236	0
237	0
238	0
240	12
242	33
243	4
244	0
245	0
254	1
255	2
257	90
258	22
259	3
