Mass Spectrum: 1-Pyrrolidineacetic acid, 2-methyl-5-oxo-, ethyl ester
Formula: C9H15NO3
CAS: 33927-64-9
Molecular weight: 185
m/z	intensity
41	110
42	60
43	50
56	160
57	90
58	20
59	15
67	40
68	20
69	20
70	20
81	50
82	190
83	190
84	40
96	60
97	60
98	650
99	50
110	30
111	20
112	999
113	90
140	60
170	40
185	100
186	31
