Mass Spectrum: Benzaldehyde, 2-fluoro-, acetylhydrazone
Formula: C9H9FN2O
CAS: 339246-64-9
Molecular weight: 180
m/z	intensity
36	2
37	8
38	21
39	56
40	31
41	17
42	111
43	999
44	67
45	7
50	48
51	42
52	9
53	2
54	2
55	3
56	14
57	84
58	8
59	314
60	72
61	17
62	46
63	75
64	14
65	9
66	2
67	1
68	17
69	23
70	12
71	2
72	1
73	3
74	19
75	80
76	14
77	8
78	1
79	1
80	6
81	44
82	27
83	107
84	33
85	10
86	7
87	8
88	8
89	20
90	82
91	36
92	17
93	8
94	26
95	54
96	58
97	9
98	3
99	1
100	4
101	3
102	38
103	13
104	2
105	5
106	3
107	157
108	68
109	32
110	47
111	170
112	14
113	0
115	0
116	1
117	48
118	238
119	106
120	13
121	465
122	329
123	35
124	2
125	0
136	12
137	190
138	246
139	19
140	1
151	1
152	0
153	0
160	0
161	0
164	4
165	9
166	0
179	1
180	81
181	11
182	0
