Mass Spectrum: Glutaric acid monoamide, N-phenyl-, 4-nitrobenzyl ester
Formula: C18H18N2O5
CAS: 339246-77-4
Molecular weight: 342
m/z	intensity
37	9
38	30
39	193
40	46
41	144
42	153
43	46
44	21
45	28
46	9
49	1
50	41
51	110
52	38
53	14
54	8
55	93
56	7
57	6
58	2
59	0
61	0
62	17
63	94
64	57
65	173
66	64
67	10
68	4
69	13
70	6
71	3
74	20
75	15
76	31
77	254
78	292
79	46
80	4
81	7
82	0
83	0
84	0
85	3
86	2
87	6
89	222
90	130
91	87
92	132
93	999
94	98
95	8
97	1
102	1
103	4
104	18
105	108
106	172
107	37
108	3
115	5
116	1
117	6
118	5
119	15
120	56
121	6
122	4
124	1
128	2
130	3
131	0
132	7
133	4
134	10
135	20
136	250
137	19
138	2
146	2
147	0
148	8
150	3
151	3
152	13
153	9
155	1
160	3
161	14
162	32
163	4
167	2
178	0
179	0
180	3
181	2
182	6
188	1
189	0
190	43
191	6
206	1
227	5
228	7
250	24
251	1
269	2
342	113
343	23
344	2
