Mass Spectrum: N'-(3-Oxo-1-cyclohexenyl)benzhydrazide
Formula: C13H14N2O2
CAS: 339241-95-1
Molecular weight: 230
m/z	intensity
33	4
34	4
36	5
38	47
39	142
40	18
41	117
42	45
43	54
44	85
45	2
48	0
50	79
51	168
52	28
53	27
54	21
55	60
56	9
57	14
61	2
62	1
63	6
64	6
65	26
66	11
67	34
68	16
69	10
70	5
71	2
74	6
75	13
76	105
77	470
78	36
79	6
80	6
81	4
82	5
83	17
84	1
91	4
92	2
95	2
97	3
98	3
99	1
104	212
105	999
106	75
107	3
108	1
109	3
111	1
121	15
122	4
127	5
135	1
147	0
148	16
149	1
160	6
172	2
173	31
174	2
187	1
202	4
229	11
230	78
231	5
