Mass Spectrum: Acetic acid, 2,6-dibromo-4-(4-tolyliminomethyl)phenyl ester
Formula: C16H13Br2NO2
CAS: 339241-86-0
Molecular weight: 409
m/z	intensity
33	1
36	5
37	9
38	23
39	165
40	11
41	83
43	999
44	88
45	14
46	0
48	4
50	58
51	78
52	29
53	34
54	3
55	9
56	4
57	7
58	3
59	0
60	2
61	16
62	60
63	134
65	388
66	12
67	1
68	0
69	3
70	3
71	2
72	0
74	47
75	63
76	30
77	59
78	19
79	26
80	26
81	16
82	24
83	1
84	0
85	2
86	8
87	11
88	14
89	91
90	75
91	511
92	50
93	2
94	0
95	1
96	1
98	1
99	4
100	9
101	6
102	7
103	7
104	8
105	4
106	15
107	11
108	1
109	0
111	0
113	1
114	1
115	4
116	16
117	16
118	92
119	16
120	0
121	0
124	0
125	1
126	5
127	11
128	6
129	3
130	4
131	2
137	1
138	3
139	4
140	4
141	10
142	6
143	15
144	4
145	6
149	1
150	7
151	18
152	42
153	22
154	9
155	8
156	2
157	0
163	0
164	6
165	8
166	3
167	0
168	0
169	0
170	7
171	1
172	5
173	0
177	2
178	21
179	19
180	41
181	20
182	3
183	2
185	1
193	1
194	0
198	2
206	0
207	1
208	15
209	8
210	0
221	9
223	20
225	8
246	0
249	0
251	2
253	0
258	1
259	3
260	1
261	4
262	1
264	0
286	0
287	4
288	3
289	6
290	1
291	1
332	0
366	9
367	30
368	24
369	58
370	18
371	28
372	2
409	2
411	5
413	1
