Mass Spectrum: Pyrrolidine-3-carbohydrazide, 5-oxo-1-phenyl-N2-(4-methylbenzylideno)-
Formula: C19H19N3O2
CAS: 339239-47-3
Molecular weight: 321
m/z	intensity
37	9
38	60
39	492
40	122
41	820
42	129
44	57
45	7
50	114
51	358
52	105
53	56
55	510
56	25
57	12
61	4
62	39
63	173
64	97
65	305
66	28
67	6
68	28
69	15
70	4
71	9
72	2
74	20
75	31
77	999
78	304
79	228
80	22
81	1
82	11
83	7
87	1
89	142
90	123
91	374
92	69
93	50
94	4
98	17
99	6
100	0
101	1
102	38
103	184
104	406
105	143
106	742
107	64
115	14
116	91
117	339
118	295
119	227
120	389
121	35
128	2
130	543
131	209
132	200
133	129
134	36
135	1
144	0
145	4
146	16
157	1
158	21
159	576
160	165
161	23
175	2
187	0
188	1
202	9
203	52
204	5
216	5
321	9
322	0
