Mass Spectrum: Butanenitrile, 2,3-dioxo-, dioxime, O,O'-diacetyl-
Formula: C8H9N3O4
CAS: 339246-62-7
Molecular weight: 211
m/z	intensity
33	1
34	1
36	2
37	6
38	23
39	25
40	57
41	49
42	104
43	999
44	72
45	47
46	0
50	1
51	8
52	26
53	23
54	7
55	3
56	2
57	9
58	7
59	0
60	22
61	0
63	1
64	4
65	4
66	12
67	9
68	9
69	7
70	7
71	0
73	0
76	0
77	2
78	1
79	17
80	5
82	0
83	1
84	1
93	0
95	0
97	0
100	0
104	1
105	0
109	6
110	2
111	3
127	4
169	2
