Mass Spectrum: 1-Acetyl-2,2,4-trimethyl-3-phenyl-1,2,3,4-tetrahydroquinoline
Formula: C20H23NO
CAS: 339292-51-2
Molecular weight: 293
m/z	intensity
39	100
40	62
41	79
43	999
44	3
50	17
51	79
52	16
53	15
54	4
55	13
56	14
57	5
58	3
63	34
64	9
65	40
66	6
67	2
68	1
69	3
70	3
71	1
77	152
78	25
79	15
80	2
90	38
91	141
92	12
93	6
104	61
105	89
106	31
107	3
115	89
116	36
117	45
118	50
119	12
120	9
121	1
126	8
127	17
128	43
129	15
130	44
131	22
132	23
133	3
142	14
143	55
144	77
145	20
146	2
150	9
151	21
152	42
153	11
154	6
157	19
158	140
159	20
160	18
161	6
165	49
166	11
167	13
168	3
171	1
172	11
173	2
177	21
178	67
179	22
180	18
181	4
193	34
194	54
195	8
203	6
204	22
205	8
206	33
207	14
208	13
209	2
217	10
218	16
219	9
220	75
221	27
222	6
223	0
236	756
237	136
238	15
239	1
250	26
251	13
252	1
278	53
279	11
280	0
293	116
294	24
295	2
