Mass Spectrum: Benzamide, N-(4,5,6,7-tetrahydro-3-cyano-5,5-dimethyl-7-oxo-2-benzothienyl)-
Formula: C18H16N2O2S
CAS: 339243-27-5
Molecular weight: 324
m/z	intensity
33	2
34	0
39	24
41	21
42	2
43	3
45	13
47	1
51	104
53	7
55	8
56	1
57	1
58	2
59	1
60	0
61	0
64	14
65	3
66	1
67	1
69	6
70	4
71	1
72	0
74	5
77	433
80	2
82	3
83	2
84	0
85	0
86	0
87	0
88	1
89	1
91	16
94	14
95	2
96	1
97	0
98	0
99	0
100	0
102	1
105	999
106	52
108	2
109	2
110	0
111	1
112	0
113	0
114	0
115	1
116	3
117	1
118	1
119	0
120	1
121	1
122	1
123	0
124	0
125	0
128	0
129	0
130	1
131	0
132	1
134	5
135	8
136	2
137	1
138	0
139	0
140	0
141	0
142	1
143	1
144	0
146	1
147	1
148	1
149	1
150	1
151	0
152	0
153	0
156	0
157	1
158	1
159	0
161	5
162	2
163	1
164	1
165	0
166	0
171	0
172	0
174	0
175	2
176	2
177	0
178	0
189	0
191	2
192	4
193	0
194	0
203	0
204	0
205	0
211	0
219	3
220	0
221	0
222	0
268	0
281	0
282	0
309	3
310	0
324	124
325	23
326	7
327	0
