Mass Spectrum: 3-Morpholinopropyl 4-hydroxy-3-methoxybenzoate
Formula: C15H21NO5
CAS: 339289-74-6
Molecular weight: 295
m/z	intensity
34	1
35	26
37	10
39	32
40	20
41	124
42	201
43	59
44	43
45	18
46	1
50	12
51	30
52	55
53	20
54	20
55	41
56	97
57	23
58	10
59	3
60	2
61	1
62	4
63	12
64	5
65	31
66	4
67	11
68	45
69	52
70	44
71	10
72	12
73	2
74	1
77	15
78	2
79	16
80	16
81	7
82	21
83	6
84	12
85	5
86	33
87	4
88	1
91	4
92	7
93	9
94	3
95	4
96	11
97	29
98	47
99	8
100	999
101	57
102	5
107	4
108	30
109	6
110	2
111	2
112	18
113	2
114	8
115	1
119	2
120	4
121	4
122	5
123	37
124	5
125	5
126	13
127	25
128	5
135	1
136	7
137	6
138	1
144	37
145	3
148	2
149	2
150	1
151	152
152	14
153	11
154	1
168	18
169	2
171	0
179	0
180	0
181	0
182	0
192	0
193	0
194	0
195	0
208	1
209	2
210	0
238	0
252	7
253	1
254	0
264	3
265	0
280	0
281	0
293	0
294	0
295	27
296	4
297	0
