Mass Spectrum: Acetamide, 2-(8-quinolylthio)-N-benzoylmethyl-
Formula: C19H16N2O2S
CAS: 339239-37-1
Molecular weight: 336
m/z	intensity
33	0
37	5
38	19
39	94
40	29
42	151
43	92
45	168
46	20
47	7
50	153
51	485
52	38
53	7
54	0
55	6
56	12
57	8
58	2
61	2
62	19
63	61
64	12
65	42
69	30
70	4
71	2
74	53
75	69
76	85
77	999
78	84
79	4
80	0
81	2
82	7
83	1
84	0
87	10
88	7
89	98
90	20
91	59
92	1
93	5
94	0
95	1
98	1
99	0
100	6
101	40
102	69
103	37
105	775
106	59
107	6
108	1
114	6
115	8
116	98
117	45
118	8
119	1
120	0
127	9
128	50
129	108
130	182
131	15
132	4
133	6
134	6
136	3
140	1
141	5
142	35
143	1
145	1
147	0
159	6
160	54
161	73
162	10
163	2
170	1
172	25
173	184
174	359
175	64
176	17
177	1
201	94
202	101
203	16
204	3
