Mass Spectrum: 2-(4-Fluoro-benzylsulfanyl)-N-(2-isopropoxy-phenyl)-benzamide
Formula: C23H22FNO2S
CAS: 339239-45-1
Molecular weight: 395
m/z	intensity
38	0
39	4
40	0
41	7
43	26
45	0
50	2
51	4
52	3
53	2
57	2
58	0
59	0
63	7
64	3
65	6
66	0
69	6
70	0
74	1
75	2
76	3
77	4
78	4
80	38
81	4
83	52
84	1
89	7
90	2
91	2
92	3
93	2
94	1
95	1
96	0
97	0
103	1
104	1
105	6
106	5
109	999
110	50
111	3
112	0
115	1
120	7
121	3
122	2
123	0
125	0
127	2
128	2
129	0
131	0
134	10
136	81
137	91
138	19
139	8
140	2
141	1
142	0
146	0
147	0
149	25
151	359
152	30
153	7
154	4
155	1
156	0
157	1
158	0
159	0
161	4
162	0
163	1
165	4
166	5
167	6
168	3
169	5
170	6
171	9
172	2
173	1
177	0
179	3
180	0
181	2
182	12
183	33
184	6
185	2
186	11
187	3
188	2
189	2
190	0
195	9
196	7
198	17
199	16
200	5
201	22
202	7
203	1
209	0
211	13
212	14
214	48
215	49
216	60
217	18
218	2
226	58
227	11
228	10
229	2
230	0
240	0
242	8
244	740
245	203
246	53
247	11
248	0
256	0
258	2
259	3
260	0
261	0
262	7
263	1
268	0
270	0
283	0
284	2
285	14
286	226
287	50
288	15
289	3
290	1
292	0
302	0
320	0
321	0
335	5
336	0
352	6
353	1
395	160
396	37
397	11
398	1
