Mass Spectrum: 2-Amino-3-benzoylmethyl-5-benzylthio-1,3,4-thiadiazole
Formula: C17H16N3OS2
CAS: 339223-52-8
Molecular weight: 342
m/z	intensity
33	1
34	2
36	5
37	2
38	8
39	48
40	12
41	16
42	4
43	6
44	9
45	31
46	3
47	2
49	1
50	22
51	77
52	11
53	3
54	1
55	8
56	1
57	4
58	4
59	19
60	7
61	13
62	9
63	29
64	10
65	139
66	8
67	1
69	5
70	3
71	6
72	1
73	2
74	6
75	7
76	26
77	220
78	24
79	12
83	2
84	1
85	2
86	13
87	9
88	3
89	29
90	15
91	999
92	103
93	4
94	1
95	1
96	1
97	2
98	1
99	1
101	1
102	8
103	66
104	22
105	318
106	61
107	5
108	1
109	1
110	1
111	1
114	1
115	2
116	13
117	4
118	3
119	2
120	5
121	14
122	5
123	7
124	3
125	1
128	2
129	2
130	2
131	2
132	1
133	6
134	4
135	3
136	3
137	1
138	1
142	1
144	2
145	1
146	7
147	17
148	14
149	8
150	2
151	1
152	1
159	1
160	10
161	3
162	1
163	5
164	20
165	9
166	2
167	1
173	2
174	42
175	5
176	6
177	105
178	11
179	5
180	1
181	2
187	1
190	1
191	2
192	26
193	3
194	2
201	1
206	1
207	7
208	1
218	3
221	1
222	2
223	1
224	1
232	3
233	2
236	31
237	4
238	3
265	10
266	2
267	1
280	1
312	4
313	9
314	2
315	1
323	48
324	9
325	5
326	1
341	54
342	11
343	6
344	1
