Mass Spectrum: Diazene, bis[3-(4-methoxycarbonyl-1,2,5-oxadiazolyl)]-
Formula: C8H6N6O6
CAS: 339246-68-3
Molecular weight: 282
m/z	intensity
33	3
34	1
35	0
36	1
38	60
39	20
40	46
41	31
42	48
43	61
44	53
45	27
46	1
47	0
50	2
51	4
52	74
53	78
54	124
55	20
56	29
57	6
58	17
59	999
60	28
61	5
62	0
63	0
64	1
65	3
66	8
67	47
68	20
69	39
70	91
71	6
72	3
73	0
74	0
75	0
76	0
77	3
78	16
79	2
80	7
81	6
82	4
83	29
84	4
85	1
86	2
87	0
90	0
91	3
92	2
93	2
94	7
95	7
96	3
97	5
98	7
99	10
100	3
101	1
102	1
103	0
104	4
105	4
106	1
107	7
108	0
109	0
110	2
111	1
112	1
113	0
115	32
116	1
117	0
118	0
119	0
120	0
121	2
122	0
123	1
124	2
125	1
126	0
127	0
128	6
129	1
130	0
131	0
132	0
133	0
134	0
135	9
136	2
137	0
138	2
139	0
140	0
142	0
143	1
148	0
149	1
150	6
151	0
152	0
155	306
156	20
157	11
158	0
162	0
163	1
164	0
166	0
167	0
169	0
171	0
179	3
180	0
183	0
193	0
194	0
195	0
196	0
197	0
221	0
222	0
223	45
224	4
225	0
251	7
252	1
253	0
268	0
282	25
283	2
284	1
285	0
