Mass Spectrum: Coumarine-7-phenylsulphonyloxy
Formula: C15H10O5S
CAS: 339246-71-8
Molecular weight: 302
m/z	intensity
36	1
37	14
38	51
39	85
40	15
41	23
42	8
43	5
44	5
45	9
48	18
49	14
50	150
51	424
52	44
53	23
54	5
55	5
56	1
57	2
61	10
62	47
63	84
64	34
65	26
66	9
67	2
69	33
70	2
71	2
73	4
74	42
75	29
76	68
77	999
78	99
79	49
81	2
82	2
85	0
86	2
87	2
88	1
89	18
90	1
91	7
92	13
93	6
94	1
95	0
97	12
103	0
104	6
105	135
106	13
107	1
108	0
109	4
110	2
115	2
117	2
120	1
121	0
125	9
126	2
127	2
128	1
132	0
133	89
134	34
135	2
136	0
139	2
140	1
141	295
142	21
143	14
151	0
152	7
153	14
154	3
161	18
162	14
163	1
165	1
181	12
182	2
209	0
210	4
238	3
239	0
302	177
303	30
304	10
305	0
