Mass Spectrum: 8-(Benzyloxy)-5,6-dihydro-4H-pirazino[3,2,1-jk]carbazole
Formula: C21H18N2O
CAS: 339239-74-6
Molecular weight: 314
m/z	intensity
37	0
39	196
40	17
41	51
42	7
43	9
44	1
50	27
51	70
52	29
53	4
55	4
57	2
62	19
63	100
64	28
65	349
66	11
74	5
75	7
76	7
77	44
78	7
87	1
88	2
89	63
90	31
91	999
92	71
105	3
113	0
114	3
115	10
125	0
127	4
138	1
139	7
140	6
141	9
153	1
155	0
166	2
167	9
168	4
192	9
193	33
194	25
195	167
196	19
223	16
314	9
