Mass Spectrum: Benzo[c]pyrazole, 4,5,6,7-tetrahydro-3-(3-fluorophenyl)-2-(3-methylbenzoyl)-
Formula: C21H19FN2O
CAS: 339241-76-8
Molecular weight: 334
m/z	intensity
33	30
35	0
36	6
37	3
39	267
40	21
41	137
42	15
43	23
44	110
45	7
48	0
50	34
51	63
52	24
53	19
54	7
55	10
56	4
57	13
58	0
59	2
60	0
62	21
63	95
65	464
66	37
67	30
69	28
70	5
71	0
73	1
74	12
75	49
76	10
77	19
78	3
79	3
81	6
83	15
84	0
86	1
87	4
88	0
89	102
90	134
91	985
92	71
93	7
94	20
95	40
96	6
99	5
100	4
101	4
102	1
104	1
105	2
106	3
107	13
109	35
110	0
112	0
113	1
115	4
116	1
118	477
119	999
120	97
122	20
123	2
125	14
126	2
127	0
128	1
131	15
132	9
133	112
134	10
135	1
138	1
139	11
140	1
144	9
145	5
146	21
147	4
152	4
157	21
158	5
159	29
160	3
165	14
166	0
167	0
170	6
171	10
172	5
181	2
182	0
183	9
184	1
185	4
187	0
188	1
215	10
216	0
239	2
291	4
292	1
305	0
319	6
334	35
335	6
