Mass Spectrum: Acetic acid, 2-(1,4-dihydro-4-iminopyrid-1-yl)-, ethyl ester
Formula: C9H12N2O2
CAS: 339224-66-7
Molecular weight: 180
m/z	intensity
39	107
40	86
41	112
42	88
43	110
44	55
45	39
46	7
47	7
48	5
49	28
50	23
51	67
52	219
53	182
54	96
55	14
56	27
57	3
58	3
59	6
60	3
61	4
63	19
64	85
65	22
66	54
67	26
68	1
69	14
70	3
71	2
73	0
74	0
75	2
76	4
77	14
78	38
79	62
80	211
81	104
82	6
83	3
86	0
89	1
90	0
91	10
92	3
93	6
94	13
95	4
102	2
103	5
105	31
107	999
108	68
109	2
111	0
114	1
115	5
116	0
117	2
119	2
121	2
122	1
123	1
125	15
127	1
128	4
129	2
130	3
134	5
143	4
144	17
145	2
146	1
150	0
151	10
152	87
153	12
158	0
159	5
160	0
171	0
175	0
180	306
181	29
182	2
