Mass Spectrum: 11-Tetradecyn-1-ol acetate
Formula: C16H28O2
CAS: 33925-72-3
Molecular weight: 252
m/z	intensity
41	430
42	104
43	999
44	29
45	11
49	3
50	1
51	8
52	6
53	63
54	158
55	574
56	161
57	210
58	24
59	9
60	1
61	287
62	6
63	1
65	20
66	43
67	473
68	818
69	508
70	223
71	121
72	13
73	36
74	1
75	1
77	21
78	7
79	112
80	60
81	452
82	826
83	398
84	137
85	66
86	12
87	12
88	1
91	19
92	4
93	86
94	44
95	371
96	401
97	273
98	89
99	20
100	9
101	13
102	4
105	11
106	2
107	51
108	30
109	211
110	159
111	142
112	46
113	10
114	6
115	4
116	22
117	2
119	6
120	2
121	43
122	22
123	102
124	87
125	75
126	27
127	7
128	2
129	4
130	3
131	1
133	5
134	1
135	30
136	15
137	59
138	53
139	19
140	12
141	3
142	1
143	1
147	2
148	1
149	21
150	13
151	27
152	23
153	10
154	6
155	1
161	1
163	13
164	3
165	10
166	22
167	7
168	27
169	5
171	1
177	2
179	4
181	1
185	6
191	4
193	29
194	153
195	25
196	40
197	11
198	1
199	1
209	3
211	3
213	1
223	1
224	1
227	1
236	1
237	9
238	4
250	1
251	1
252	17
253	3
254	1
