Mass Spectrum: 5-Oxo-1-phenyl-pyrrolidine-3-carboxylic acid (2-bromo-phenyl)-amide
Formula: C17H15BrN2O2
CAS: 339239-60-0
Molecular weight: 358
m/z	intensity
33	0
34	0
36	0
37	1
38	5
39	29
40	24
41	93
42	6
43	3
44	5
45	3
46	1
47	0
49	0
50	6
51	21
52	7
53	3
54	5
55	71
56	5
57	1
58	1
61	0
62	2
63	14
64	15
65	20
66	4
67	3
68	22
69	5
70	1
71	0
72	0
73	6
74	1
75	5
76	9
77	82
78	13
79	11
80	4
81	1
82	5
83	0
84	0
85	0
86	0
87	0
89	2
90	16
91	37
92	16
93	23
94	3
95	11
96	3
97	0
98	0
99	0
100	0
101	0
102	2
103	7
104	51
106	999
107	73
108	3
109	0
110	0
111	0
112	0
113	0
115	4
116	3
117	19
118	8
119	25
120	12
121	3
122	0
124	0
125	1
126	0
127	2
128	5
130	61
131	18
132	79
133	9
134	1
135	1
136	9
137	1
139	34
140	12
141	0
142	1
143	3
144	3
145	20
146	72
147	7
148	0
151	0
152	1
153	1
154	0
155	2
156	1
157	5
158	13
159	51
160	87
161	14
162	1
163	0
165	0
166	0
167	1
168	1
169	5
170	8
171	35
172	7
173	36
174	21
175	2
177	0
178	0
179	0
180	1
181	0
182	0
183	0
184	1
185	0
186	6
187	2
188	1
189	0
193	2
195	0
196	0
197	0
198	1
199	0
200	1
205	0
206	0
208	4
209	1
210	3
211	2
212	1
213	2
214	15
215	2
216	3
217	0
218	0
219	0
220	0
221	0
223	0
224	4
225	3
226	4
227	2
228	0
230	1
231	0
233	0
234	0
235	0
236	0
237	2
238	1
240	1
241	0
248	0
250	1
251	7
253	24
254	6
255	18
256	2
257	0
259	1
260	11
261	2
262	10
263	1
266	0
268	0
272	0
274	0
277	0
278	1
279	0
280	1
288	0
330	1
331	0
332	1
358	135
360	119
361	16
362	1
