Mass Spectrum: Carbamic acid, N-(3-methylphenyl)-, 2-methylphenyl ester
Formula: C15H15NO2
CAS: 339273-98-2
Molecular weight: 241
m/z	intensity
33	3
36	1
37	19
39	196
40	40
41	27
42	6
43	15
44	8
45	2
49	4
50	56
51	107
52	64
53	54
54	9
55	9
56	3
57	3
58	0
60	0
61	6
62	18
63	48
64	24
65	84
66	12
67	4
68	2
69	2
70	2
71	2
72	0
73	2
74	9
75	9
77	217
78	90
79	106
80	44
81	5
82	1
83	0
84	0
85	1
86	1
87	1
89	34
90	56
91	98
92	8
93	1
94	1
95	0
96	0
97	0
98	0
99	0
100	0
102	2
104	72
105	24
108	999
109	55
110	1
112	1
113	0
114	0
115	0
116	0
117	0
118	0
119	1
120	2
121	1
122	0
125	0
126	0
127	0
128	0
129	0
130	1
132	43
133	89
134	16
135	1
140	0
141	0
142	0
143	0
144	0
146	0
147	0
148	0
149	0
150	0
151	0
152	0
153	1
154	0
155	0
165	0
166	0
167	0
168	0
169	0
170	0
171	0
180	0
181	0
183	0
184	0
185	0
192	0
193	0
194	0
200	0
239	0
240	1
241	14
242	1
