Mass Spectrum: N1-(2-Ethylphenyl)-N2-(2-hydroxypropyl)oxamide
Formula: C13H18N2O3
CAS: 339239-58-6
Molecular weight: 250
m/z	intensity
37	4
38	19
39	188
40	43
41	274
42	169
43	314
44	118
45	999
46	31
47	1
50	31
51	101
52	50
53	31
54	22
55	18
56	190
57	53
58	107
59	37
60	18
61	0
62	11
63	49
64	23
65	90
66	20
67	7
68	1
69	2
70	3
71	2
72	0
74	19
75	16
76	111
77	242
78	83
79	103
80	11
81	0
82	0
83	2
84	82
85	3
86	6
87	0
88	1
89	32
90	23
91	93
92	42
93	34
94	16
95	0
100	0
101	2
102	49
103	73
104	53
105	34
106	176
107	14
115	0
116	5
117	27
118	91
119	89
120	189
121	92
122	14
128	10
130	70
131	12
132	82
133	11
134	6
145	0
146	7
147	103
148	225
149	28
150	1
162	1
175	12
176	12
177	4
178	1
205	2
206	0
222	7
223	0
235	0
250	19
251	2
