Mass Spectrum: 2-[(4-Methoxybenzylidene)hydrazino]-2-oxo-N-propylacetamide
Formula: C13H17N3O3
CAS: 339241-33-7
Molecular weight: 263
m/z	intensity
37	8
38	38
39	206
41	567
43	999
44	161
46	34
50	89
51	206
52	47
53	29
54	13
55	13
56	43
57	8
58	30
59	37
60	0
61	4
62	30
63	126
64	103
65	56
66	9
67	5
68	1
69	1
70	3
72	0
73	0
74	13
75	17
76	43
77	248
78	58
79	48
80	18
81	1
84	1
86	51
87	9
89	50
90	69
91	152
92	101
93	13
94	8
95	13
102	4
103	16
104	6
105	45
106	54
107	44
108	51
109	4
117	4
118	10
119	29
120	61
121	18
122	17
123	1
133	87
134	204
135	162
136	15
137	3
149	84
150	35
151	1
162	0
165	4
175	0
177	811
178	82
179	3
263	62
264	6
