Mass Spectrum: Benzamide, N-[1-(4-aminosulfonylphenylamino)-2,2,2-trifluoro-1-trifluoromethyl]ethyl-
Formula: C16H13F6N3O3S
CAS: 339351-79-0
Molecular weight: 441
m/z	intensity
33	1
36	3
37	11
38	40
39	76
40	13
41	24
42	8
43	8
44	13
45	7
46	6
47	3
48	8
49	11
50	136
51	294
52	48
53	58
54	13
55	8
56	4
57	9
58	2
59	1
61	8
62	15
63	39
64	49
65	149
66	20
67	4
69	57
70	8
71	6
73	13
74	37
75	52
76	86
77	660
78	53
79	10
80	33
81	8
82	3
83	5
84	3
85	2
86	2
87	3
88	2
89	2
90	8
91	18
92	139
93	14
94	3
95	11
96	8
97	4
98	1
99	2
100	3
101	1
102	5
103	12
105	999
106	73
107	20
108	89
109	14
110	2
111	2
112	3
114	3
115	1
117	2
118	2
119	2
121	32
122	49
123	7
124	4
125	3
126	2
127	1
128	1
129	2
130	1
133	2
135	1
139	9
140	7
142	6
143	1
145	3
147	1
149	1
150	1
151	1
152	4
153	2
155	3
156	133
157	11
158	8
159	2
166	2
167	2
169	1
170	6
171	13
172	138
173	12
174	8
182	1
185	1
186	1
187	3
188	4
190	6
191	2
193	2
195	1
198	1
200	3
202	3
203	1
207	7
208	2
214	1
219	1
220	10
222	11
223	1
228	2
240	6
241	3
249	1
250	6
251	51
252	7
253	5
254	2
255	5
256	11
257	3
266	5
269	2
270	3
273	1
281	1
283	1
288	3
289	1
304	11
305	2
317	2
318	1
320	92
321	12
322	5
361	9
362	1
372	10
373	2
440	1
441	22
442	4
443	2
