Mass Spectrum: 3,4,5-Trimethyl-2H-1,3-oxazine-3H-2,6-dione
Formula: C7H9NO3
CAS: 339363-95-0
Molecular weight: 155
m/z	intensity
42	351
43	116
44	54
45	64
47	10
48	5
49	48
50	81
51	113
52	87
53	105
54	126
55	89
56	999
57	67
58	55
59	6
60	2
61	2
62	6
63	4
64	11
65	10
66	69
67	31
68	144
69	18
70	4
71	4
72	6
73	1
74	2
75	1
76	0
77	1
78	2
79	1
80	9
81	10
82	472
83	262
84	28
86	31
87	58
88	6
89	1
91	0
94	3
96	172
97	10
98	1
99	3
100	0
105	11
109	5
110	8
111	110
112	14
113	1
117	0
124	1
126	2
127	0
129	2
137	1
138	0
139	0
154	2
155	130
156	10
157	0
