Mass Spectrum: N-[2,2,2-Trifluoro-1-(4-fluoroanilino)-1-(trifluoromethyl)ethyl]isovaleramide
Formula: C14H15F7N2O
CAS: 339352-80-6
Molecular weight: 360
m/z	intensity
33	6
34	2
36	8
37	6
39	150
40	38
41	491
42	115
43	259
44	74
45	7
46	3
47	2
48	1
50	24
51	20
52	9
53	11
55	67
57	999
58	56
59	111
60	6
61	4
62	9
63	21
64	12
65	6
66	3
67	4
69	104
70	9
71	5
72	2
73	3
74	9
75	111
76	14
77	5
78	2
81	14
83	148
84	60
85	241
86	43
87	3
89	3
90	7
91	5
92	8
93	6
95	423
96	50
97	5
98	2
100	11
101	6
102	12
103	1
105	1
107	2
108	4
109	13
110	57
111	376
112	32
113	4
114	2
116	2
117	1
118	1
119	1
120	4
121	11
122	9
123	2
124	11
125	2
126	1
128	1
135	2
136	5
137	22
138	4
139	2
140	3
142	3
144	1
145	9
146	3
147	9
148	3
149	2
151	1
152	4
153	2
159	1
160	2
163	6
164	1
165	1
166	3
170	4
171	5
172	2
185	4
186	2
187	1
188	1
190	567
191	43
192	5
203	2
205	31
207	145
208	11
209	1
210	1
213	1
217	1
220	2
233	17
234	2
235	1
236	1
238	2
240	4
256	18
257	2
259	613
260	103
261	7
272	1
275	1
276	2
291	18
292	3
340	12
341	3
360	100
361	14
362	1
