Mass Spectrum: (2-Methyl-[1,3]dioxolan-2-yl)-acetic acid [1-(4-methoxy-3-nitro-phenyl)-ethylidene]-hydrazide
Formula: C15H19N3O6
CAS: 339337-14-3
Molecular weight: 337
m/z	intensity
33	0
34	0
36	0
37	1
38	4
39	18
40	13
41	21
42	26
43	195
44	14
45	71
46	2
48	0
50	7
51	9
52	5
53	6
54	1
55	4
56	2
57	4
58	4
59	23
60	1
61	2
62	6
63	17
64	6
65	9
66	3
67	2
68	2
69	11
70	1
71	1
72	1
73	2
74	6
75	11
76	28
77	29
78	13
79	11
80	2
81	1
82	1
83	1
84	1
85	13
87	999
88	48
89	20
90	11
91	15
92	9
93	5
94	2
95	1
96	0
97	1
98	4
99	7
100	1
101	2
102	13
103	19
104	19
105	19
106	14
107	4
108	1
109	1
110	0
111	1
112	1
113	31
114	2
115	1
116	2
117	13
118	16
119	17
120	5
121	3
122	2
123	1
124	0
125	0
126	0
127	2
129	13
130	2
131	11
132	12
133	32
134	6
135	3
136	0
137	2
138	1
139	0
141	0
142	0
143	0
144	1
145	4
146	15
147	8
148	5
149	4
150	3
151	9
152	1
153	0
154	0
155	0
157	0
158	0
159	1
160	3
161	13
162	12
163	5
164	1
165	1
166	1
168	9
169	1
170	0
171	1
172	0
173	1
174	2
175	2
176	2
177	2
178	6
179	9
180	44
181	5
182	0
185	0
186	0
187	0
188	0
189	3
190	1
191	6
192	8
193	10
194	3
195	19
196	2
198	5
199	0
200	0
202	0
203	0
204	0
205	0
206	0
207	1
208	6
209	8
210	9
211	1
217	0
218	0
219	2
220	1
221	0
222	0
223	0
224	0
231	0
232	0
234	12
235	2
236	9
237	1
238	1
242	1
243	2
244	0
245	0
247	0
250	0
251	1
252	0
257	0
258	0
260	0
262	0
265	0
269	0
273	0
274	0
275	0
276	1
277	0
278	1
279	0
280	0
281	0
283	0
284	1
288	0
289	0
291	0
292	3
293	1
294	12
295	1
296	0
306	0
307	1
308	0
318	0
319	0
320	1
322	35
323	5
324	0
333	0
334	1
335	1
337	50
338	7
339	1
