Mass Spectrum: N-[2,2,2-Trifluoro-1-(2-fluorobenzylamino)-1-(trifluoromethyl)ethyl]isovaleramide
Formula: C15H17F7N2O
CAS: 339352-84-0
Molecular weight: 374
m/z	intensity
33	9
34	3
36	1
37	3
39	104
40	68
41	271
42	80
43	188
44	65
45	4
46	3
47	1
48	1
50	16
51	24
52	5
53	8
55	39
57	442
58	29
59	108
60	33
61	3
62	7
63	19
64	3
65	3
66	2
67	3
69	70
70	10
71	6
72	2
74	6
75	15
76	6
77	26
78	5
79	2
81	10
83	134
84	12
85	120
86	32
87	4
89	19
90	3
91	2
92	4
93	1
94	4
95	13
96	34
97	34
98	4
100	10
102	691
103	40
104	7
105	8
107	47
109	999
110	71
111	4
112	2
113	2
116	2
119	1
121	4
122	19
124	923
125	80
126	4
127	7
128	3
131	1
134	6
135	22
136	3
137	3
138	1
140	1
142	4
145	5
146	2
147	3
149	2
150	1
151	2
152	2
153	1
158	7
159	1
164	1
166	5
167	1
177	5
178	1
183	9
184	6
185	2
192	3
195	3
199	2
200	1
201	5
202	1
203	6
204	116
205	9
206	1
207	1
208	2
209	2
219	5
220	5
221	89
222	8
225	3
232	1
236	6
245	1
251	2
252	3
254	10
255	1
272	46
273	26
274	6
305	5
