Mass Spectrum: Urea, 1-(3,5-dichlorophenyl)-3-(1-diethylphosphonato-1-methylethyl)-
Formula: C14H21Cl2N2O4P
CAS: 339311-73-8
Molecular weight: 382
m/z	intensity
35	1
36	5
37	2
38	5
39	11
40	13
41	46
42	125
43	18
44	11
45	13
47	10
48	1
49	2
50	3
51	4
52	3
53	0
54	2
55	3
56	25
57	48
58	999
59	42
60	2
61	4
62	8
63	16
64	6
65	53
66	3
67	0
68	1
69	2
70	5
71	2
72	1
73	9
74	5
75	7
76	2
77	3
78	4
79	3
81	49
82	74
83	46
84	120
85	8
87	5
88	5
89	4
90	13
91	16
92	3
93	17
94	4
95	1
96	1
97	8
98	5
99	11
100	2
101	3
102	4
103	0
104	2
105	19
106	8
107	12
108	3
109	34
110	22
111	72
112	3
113	1
114	0
116	0
117	0
118	0
119	1
120	11
121	10
123	88
124	45
125	15
126	21
127	10
128	3
129	2
130	2
131	1
132	1
133	20
134	7
135	13
136	3
137	8
138	69
139	9
140	1
141	0
142	0
145	12
146	2
147	8
148	3
149	5
150	3
151	27
152	15
153	6
155	7
156	0
157	0
158	1
159	12
160	14
161	254
162	28
163	176
164	19
165	29
166	18
167	3
168	2
169	1
170	0
171	4
172	1
173	0
174	1
175	0
176	1
177	0
178	1
179	14
180	7
181	1
182	0
185	0
186	2
187	132
188	16
189	85
190	9
191	17
192	2
194	36
195	4
196	1
200	0
201	0
202	1
203	2
204	1
205	2
206	1
207	0
208	1
209	36
210	6
211	13
212	2
213	1
214	0
220	0
222	83
223	9
224	1
225	0
227	3
228	2
229	3
230	1
231	0
237	0
242	0
243	12
244	12
245	378
246	51
247	230
248	29
249	38
250	4
251	0
263	1
265	0
271	0
283	1
285	1
286	0
301	0
309	1
311	0
328	1
329	0
336	1
337	4
338	1
339	3
340	0
347	7
348	1
349	2
350	0
382	71
383	11
384	46
385	7
386	7
387	0
