Mass Spectrum: 3-(3,4-Dichlorophenyl)-1-isobutyl-1-(5-methyl-2-thiazolin-2-yl)urea
Formula: C15H19Cl2N3OS
CAS: 339352-40-8
Molecular weight: 359
m/z	intensity
33	10
35	47
36	45
37	142
38	133
39	323
41	999
42	185
43	205
45	204
46	46
47	96
48	37
49	112
50	96
51	61
52	37
53	30
55	392
56	304
57	421
58	156
59	140
60	192
61	210
62	234
63	107
64	75
65	9
66	9
67	18
68	39
69	52
70	186
72	482
73	297
74	801
75	171
76	62
77	9
78	5
80	53
81	35
82	33
83	63
84	220
85	45
86	63
87	77
88	289
89	39
90	11
91	3
92	2
94	78
95	54
96	20
97	227
98	89
99	78
100	94
101	80
102	25
103	6
104	4
105	2
106	4
107	17
108	9
109	34
110	11
111	32
112	11
113	9
115	218
116	419
117	182
118	30
119	9
120	2
121	3
122	7
124	812
126	302
127	28
129	655
130	489
131	71
132	39
133	16
134	10
135	7
136	4
137	1
139	11
141	5
142	1
143	4
144	25
145	7
146	2
147	4
150	1
151	2
152	2
153	2
155	5
157	287
159	347
161	222
162	16
163	31
164	2
165	2
170	2
172	325
173	24
174	12
175	1
187	982
188	77
189	602
191	141
192	9
205	1
359	12
360	3
361	9
362	1
363	2
