Mass Spectrum: Ethyl 2-(benzylamino)-2-(2-chloroacetamido)-3,3,3-trifluoropropionate
Formula: C14H16ClF3N2O3
CAS: 339352-59-9
Molecular weight: 352
m/z	intensity
35	2
36	8
37	1
38	6
39	25
40	7
41	13
42	16
43	14
44	21
45	4
46	1
47	2
49	34
50	9
51	29
52	6
53	2
54	1
55	2
56	1
57	1
58	2
59	1
60	1
61	1
62	2
63	13
65	83
66	5
69	11
70	1
71	1
73	1
74	1
75	2
77	63
78	10
79	35
80	2
83	1
87	1
89	22
91	999
92	66
93	4
94	2
95	2
96	9
97	3
98	1
103	3
104	14
106	277
107	23
108	2
109	3
113	7
114	1
115	1
116	4
117	7
118	2
119	1
123	1
124	1
125	3
126	1
127	1
131	3
132	1
133	2
134	1
135	1
137	1
139	1
140	1
142	3
143	1
146	1
148	1
154	1
159	1
165	10
166	4
167	1
170	2
185	34
186	10
187	2
189	3
191	2
201	9
202	3
203	4
204	1
207	1
213	1
214	5
215	1
230	3
243	3
258	1
259	4
260	2
279	42
281	17
282	2
