Mass Spectrum: Imidazole, 1-(1-dimethylaminopyrrolidine-2,5-dione-3-yl)-
Formula: C9H12N4O2
CAS: 339302-34-0
Molecular weight: 208
m/z	intensity
34	0
37	2
38	18
39	82
40	164
41	194
42	337
43	999
44	126
45	15
46	0
47	0
51	8
52	48
53	54
54	39
55	103
56	10
58	449
59	155
60	9
61	0
62	0
63	1
64	3
65	5
66	25
67	105
68	59
69	49
70	67
71	13
72	3
74	0
76	0
77	1
78	1
79	12
80	13
81	19
82	7
83	6
84	4
85	62
86	182
87	14
88	0
90	0
92	1
93	27
94	80
95	321
96	23
98	32
99	75
100	3
101	0
103	0
105	1
106	1
107	1
108	2
109	10
110	6
111	8
112	2
113	10
114	0
117	0
119	0
120	2
121	22
122	25
123	7
124	1
125	0
126	0
127	0
128	0
129	0
131	0
134	0
135	0
136	3
137	4
138	8
139	8
140	12
141	9
142	1
143	0
146	0
147	0
149	0
150	0
151	0
152	0
164	10
165	169
166	529
167	50
168	4
169	0
171	0
172	0
177	0
178	1
179	0
180	2
181	0
185	0
191	0
193	0
194	0
204	0
206	1
207	2
208	382
209	48
210	2
211	0
