Mass Spectrum: Carbamic acid, N-(n-butyl)-O-[2,2-dimethyl-1-(1,2,4-triazol-1-ylmethyl)propylidenamino]-
Formula: C13H23N5O2
CAS: 339310-62-2
Molecular weight: 281
m/z	intensity
36	0
37	1
38	10
39	223
40	119
41	960
42	208
43	222
44	64
45	20
46	5
50	3
51	10
52	15
53	110
54	75
55	736
56	274
57	999
58	52
59	5
60	1
62	3
63	0
64	0
65	11
66	10
67	87
68	28
69	19
70	620
71	31
72	12
73	5
74	20
75	5
77	2
79	6
80	5
81	27
82	139
83	428
84	46
85	5
86	1
87	5
88	2
93	0
94	9
95	19
96	19
97	6
98	25
100	51
101	2
102	1
104	0
105	0
107	0
108	9
109	135
110	10
111	1
112	2
113	29
114	5
115	0
116	1
117	0
118	1
121	0
122	1
123	4
124	6
125	14
126	1
129	1
130	1
136	1
138	0
140	274
141	19
142	1
143	0
144	0
149	4
150	1
152	0
155	1
156	0
160	0
164	0
165	74
166	6
167	62
168	5
171	0
172	0
180	0
181	23
182	742
183	73
184	6
186	1
