Mass Spectrum: Ethyl 3,3,3-trifluoro-2-[4-(6-methoxypyridazin-3-ylsulfamoyl)anilino]-2-propionamidopropionate
Formula: C19H22F3N5O6S
CAS: 339353-03-6
Molecular weight: 505
m/z	intensity
33	1
34	1
36	1
38	24
39	67
40	10
41	25
42	22
43	41
44	37
45	12
46	3
47	2
48	5
50	16
52	125
53	127
54	38
55	20
57	999
58	33
59	4
61	4
62	7
63	20
65	202
66	24
67	6
69	142
70	9
71	11
72	7
73	13
74	8
75	8
76	35
77	11
78	9
80	84
81	32
82	5
83	3
84	3
85	2
86	1
87	1
88	1
90	9
92	245
93	32
94	4
96	39
97	6
98	3
99	1
101	4
102	4
103	3
104	2
105	9
106	21
107	17
108	119
109	14
111	13
112	2
113	1
114	1
115	1
116	1
117	3
118	6
119	3
120	4
121	2
123	19
124	23
125	21
126	11
127	1
128	1
129	3
130	1
131	3
132	3
133	1
134	2
135	1
136	1
137	1
138	2
140	32
141	7
142	4
143	3
144	3
145	10
146	3
147	1
148	2
149	3
150	3
151	3
152	8
153	1
154	1
156	29
157	5
158	6
159	2
160	1
161	1
164	1
166	1
167	2
168	4
169	2
171	9
172	9
173	2
174	1
180	2
181	1
183	2
184	2
185	3
186	2
187	5
188	10
189	1
196	1
198	4
199	3
200	11
201	4
203	3
204	1
215	347
216	111
217	11
218	1
219	1
221	1
225	8
226	2
227	2
228	1
232	1
235	1
236	1
244	2
245	1
251	2
260	1
263	1
264	1
271	1
275	1
277	1
280	17
281	2
282	1
291	1
292	1
293	10
294	2
295	9
296	1
308	2
310	6
311	1
312	5
313	1
316	1
349	1
359	1
367	81
368	24
369	4
376	16
377	2
378	1
380	1
381	1
432	7
433	2
434	1
440	10
441	12
442	3
505	2
506	1
