Mass Spectrum: 1-(Trifluoromethyl)-3-[3-(trifluoromethyl)phenyl]urea
Formula: C9H6F6N2O
CAS: 339351-71-2
Molecular weight: 272
m/z	intensity
33	7
38	138
39	297
40	35
41	85
42	68
43	133
44	96
45	42
47	188
48	9
50	107
51	120
52	46
53	21
55	89
57	137
58	8
59	9
61	40
62	77
63	305
64	114
65	59
66	41
67	25
69	303
70	115
71	13
72	9
74	42
75	129
76	16
77	9
78	7
79	13
80	17
82	33
83	95
85	21
88	80
90	96
92	999
93	29
95	61
96	8
97	5
99	16
100	16
101	9
102	4
105	4
106	5
107	13
109	75
111	38
112	70
113	85
114	104
115	9
120	47
122	7
124	6
125	17
126	5
127	4
132	42
133	41
134	6
137	16
138	9
139	63
140	79
141	19
142	29
143	7
145	99
146	6
158	10
159	92
160	83
161	231
162	22
168	74
169	5
171	5
184	5
187	322
188	58
189	5
207	4
209	82
210	49
211	8
230	23
231	7
232	20
233	29
234	4
252	229
253	30
272	51
273	5
