Mass Spectrum: 4-[3-Chloro-5-ethoxy-4-(4-methylbenzyloxy)-benzylidene]-2-(4-chloro-3-nitrophenyl)-4H-oxazol-5-one
Formula: C26H20Cl2N2O6
CAS: 339362-46-8
Molecular weight: 526
m/z	intensity
51	2
52	2
62	4
63	13
74	16
75	33
76	9
77	37
78	12
79	27
80	1
82	2
88	9
89	8
90	12
91	24
92	4
99	11
100	8
101	8
102	9
103	42
104	40
105	999
106	141
107	9
109	8
110	79
111	15
112	28
114	1
126	18
127	10
128	6
138	148
139	27
140	53
141	9
153	17
154	45
155	14
156	18
157	2
168	23
169	7
170	9
184	389
186	121
187	11
201	17
203	8
204	2
210	8
211	6
212	4
227	11
228	3
229	5
230	2
237	12
239	2
240	1
265	77
266	5
267	27
268	2
280	17
281	6
282	2
384	11
385	2
386	1
422	21
423	7
424	17
425	4
526	2
528	1
