Mass Spectrum: Benzene, 1,4-bis(oct-2-enoylamino)-
Formula: C22H32N2O2
CAS: 339312-14-0
Molecular weight: 356
m/z	intensity
39	159
40	95
41	464
42	79
43	189
44	24
45	3
48	0
50	8
51	18
52	23
53	107
54	45
55	999
56	56
57	53
58	5
62	2
63	13
64	10
65	24
66	10
67	50
68	70
69	60
70	15
71	10
72	0
73	5
76	4
77	14
78	10
79	38
80	74
81	90
82	17
83	19
84	2
85	1
86	2
87	0
89	0
90	5
91	9
92	4
93	8
94	5
95	12
96	5
97	34
98	2
99	5
102	1
104	4
105	19
106	40
107	242
108	747
109	70
110	2
112	2
113	2
115	4
116	1
117	3
118	2
119	7
120	7
121	2
123	5
125	194
126	18
127	4
129	1
130	6
131	3
132	9
133	15
134	60
135	10
136	1
141	0
143	0
144	0
145	17
146	6
147	7
148	1
149	1
150	10
151	0
159	3
160	5
161	13
162	7
163	0
168	0
169	1
171	2
172	1
173	9
174	6
175	8
176	5
178	0
187	6
189	7
190	4
201	1
202	1
203	2
206	19
207	4
215	2
217	1
218	0
229	3
230	7
232	459
233	77
234	11
255	0
257	1
258	4
259	4
260	0
268	4
269	2
270	1
271	2
281	0
285	1
286	1
299	2
301	0
313	4
327	1
328	1
330	8
331	2
355	1
356	61
357	10
358	3
