Mass Spectrum: Benzaldehyde, (4-amino-5-ethyl-1,2,4-triazol-3-yl)hydrazone
Formula: C11H14N6
CAS: 339338-83-9
Molecular weight: 230
m/z	intensity
36	59
37	24
38	127
39	310
40	118
41	169
42	265
43	300
44	19
49	8
50	163
51	369
52	201
53	94
54	218
55	111
56	999
57	426
58	11
61	2
62	114
63	316
64	138
65	29
66	34
67	23
68	32
69	33
70	53
71	63
73	5
74	60
75	72
76	79
77	364
78	39
79	35
80	8
81	25
82	1
83	10
86	10
87	10
89	748
90	683
91	71
92	19
96	21
98	18
102	30
103	89
104	158
105	23
106	6
110	3
111	19
112	2
113	84
115	1
116	4
117	53
118	34
119	39
120	4
125	2
126	93
127	44
128	2
129	43
130	3
131	72
132	9
144	16
146	36
156	4
159	7
171	2
174	4
184	3
185	8
186	113
187	21
201	26
202	10
212	1
213	6
215	1
228	5
230	849
231	126
