Mass Spectrum: 2H-Pyran-2-one, 5,6-dihydro-
Formula: C5H6O2
CAS: 3393-45-1
Molecular weight: 98
m/z	intensity
23	0
25	3
26	78
27	109
28	21
29	56
30	6
31	3
33	0
34	5
35	0
36	7
37	45
38	73
39	437
40	311
41	125
42	128
43	10
44	9
45	2
47	1
48	2
49	11
50	30
51	22
52	11
53	33
54	10
55	18
56	0
57	0
60	0
61	0
62	0
63	0
64	0
65	0
66	1
67	2
68	999
69	59
70	10
71	1
80	0
81	0
82	0
95	0
96	1
97	7
98	170
99	8
100	0
