Mass Spectrum: N-[2,2,2-Trifluoro-1-(5-methyl-3-isoxazolylamino)-1-(trifluoromethyl)ethyl]isovaleramide
Formula: C12H15F6N3O2
CAS: 339352-90-8
Molecular weight: 347
m/z	intensity
33	4
34	3
37	6
39	204
40	114
41	465
42	153
43	591
44	89
45	7
46	3
47	3
50	13
51	24
52	18
53	23
54	60
55	132
57	999
58	51
59	102
60	5
64	3
65	6
66	25
67	30
68	71
69	196
70	11
71	8
72	8
73	5
74	1
76	11
77	5
78	4
79	2
80	2
81	6
82	9
83	21
85	397
86	38
87	2
91	6
92	9
93	2
96	37
98	315
99	112
100	13
101	7
102	8
103	1
108	1
109	3
111	29
112	4
113	5
115	1
116	1
119	1
120	1
121	3
122	2
124	6
125	15
126	16
127	4
128	4
129	1
132	2
138	1
139	3
140	18
141	7
142	9
146	5
147	3
149	4
150	4
151	3
152	6
154	1
156	9
157	1
158	9
159	2
164	2
166	3
167	12
171	2
172	2
174	5
175	1
176	19
177	65
178	27
179	3
182	6
192	6
194	431
195	27
196	2
206	1
208	1
213	5
215	2
216	2
220	6
224	6
225	1
227	3
233	1
236	12
244	3
245	4
247	135
248	10
261	3
263	9
264	58
265	3
278	4
290	14
291	1
305	18
306	1
347	21
348	1
