Mass Spectrum: N-(2-Pyrimidinyl)-4-[2,2,2-trifluoro-1-isovaleramido-1-(trifluoromethyl)ethylamino]benzenesulfonamide
Formula: C18H19F6N5O3S
CAS: 339352-93-1
Molecular weight: 499
m/z	intensity
33	6
35	8
36	3
37	13
39	389
40	258
41	680
42	181
43	395
44	114
45	13
46	9
47	16
48	16
49	6
50	72
51	49
52	67
53	65
54	22
55	84
57	999
58	53
59	193
60	10
62	18
63	80
64	78
65	366
66	74
67	72
68	58
69	185
70	17
71	9
73	25
74	11
75	52
76	144
77	28
78	24
79	41
80	43
81	10
83	68
85	414
86	50
87	9
88	3
89	8
90	28
91	59
92	408
93	75
95	134
96	64
97	8
98	4
99	3
100	10
102	53
103	6
104	5
105	8
106	7
108	171
109	14
110	3
111	2
112	5
113	3
114	3
115	3
116	13
117	10
118	15
119	13
120	5
121	5
122	4
123	7
124	21
125	13
126	16
127	4
128	8
129	4
130	2
131	11
132	13
133	8
134	2
136	8
137	2
138	2
139	2
140	25
142	60
143	10
144	9
145	13
146	4
147	2
148	1
150	6
151	7
152	16
153	3
154	2
156	24
157	9
158	24
159	10
160	6
163	3
164	2
166	5
167	9
168	15
169	27
170	158
171	37
172	7
173	2
174	2
175	1
176	2
178	2
180	3
181	1
182	2
185	573
186	337
187	39
188	9
190	36
192	60
193	9
195	35
196	11
197	5
198	1
200	9
202	3
203	4
204	2
206	9
207	17
208	1
210	1
211	3
212	7
213	5
214	3
215	1
218	1
219	5
220	50
221	4
222	1
228	2
229	3
234	4
235	1
236	2
238	4
239	1
240	18
241	7
242	1
245	1
250	2
251	4
256	21
257	2
265	23
266	4
267	1
269	10
270	3
272	2
273	3
275	2
276	1
280	15
281	6
282	12
283	4
288	14
289	2
293	2
295	1
304	10
305	1
313	1
315	13
316	3
321	2
333	722
334	454
335	66
341	1
346	8
347	1
350	1
376	3
377	2
379	1
396	5
397	1
399	9
400	2
405	1
434	84
435	46
436	7
