Mass Spectrum: 2-Decanone, 5,9-dimethyl-
Formula: C12H24O
CAS: 33933-82-3
Molecular weight: 184
m/z	intensity
26	3
27	53
29	84
30	2
31	2
38	1
39	40
40	10
41	196
42	42
43	999
44	31
45	10
51	2
52	1
53	16
54	6
55	145
56	242
57	327
58	424
59	104
60	4
65	3
66	1
67	19
68	19
69	164
70	133
71	745
72	64
73	7
74	2
77	3
79	4
80	2
81	40
82	14
83	41
84	16
85	105
86	7
87	2
91	2
93	1
95	58
96	13
97	10
98	25
99	31
100	2
107	1
108	1
109	42
110	31
111	29
112	3
113	3
114	2
123	8
124	23
125	4
126	164
127	55
128	7
137	2
140	8
141	5
151	8
152	1
155	2
166	4
169	5
184	5
185	1
