Mass Spectrum: Ethyl 2-(2-chloroacetamido)-3,3,3-trifluoro-2-(4-fluorobenzylamino)propionate
Formula: C14H15ClF4N2O3
CAS: 339352-65-7
Molecular weight: 370
m/z	intensity
33	1
35	2
36	8
37	1
38	5
39	10
40	6
41	4
42	19
43	16
44	29
45	4
46	1
47	2
49	38
50	7
51	17
52	2
53	1
54	1
55	2
57	16
58	4
59	8
60	1
62	5
63	10
64	2
65	1
69	16
70	3
71	1
73	1
74	2
75	9
77	48
78	4
79	10
81	5
83	73
84	4
87	1
88	1
89	9
90	3
91	1
92	1
93	3
94	4
95	11
96	15
97	20
98	2
101	1
102	1
103	1
104	1
105	3
107	25
109	999
110	67
111	3
113	5
114	1
122	18
124	275
125	26
126	2
127	2
134	5
135	6
136	2
137	1
142	3
143	1
149	2
150	3
151	2
152	1
153	2
154	1
157	1
164	1
166	1
170	2
177	1
180	1
183	9
184	4
201	2
203	42
204	8
205	2
219	8
220	2
221	1
231	2
232	4
248	3
261	1
277	5
278	1
297	30
299	12
300	1
301	1
