Mass Spectrum: N-[1-(Cyclohexylamino)-2,2,2-trifluoro-1-(trifluoromethyl)ethyl]isovaleramide
Formula: C14H22F6N2O
CAS: 339352-88-4
Molecular weight: 348
m/z	intensity
33	4
34	1
35	2
36	1
37	3
39	161
41	641
42	133
43	328
44	88
45	6
46	4
47	5
48	2
49	1
50	7
51	17
53	60
54	64
55	411
56	663
57	567
58	40
59	124
60	21
61	1
63	1
64	1
65	8
66	7
67	74
68	19
69	74
70	37
71	6
72	4
73	2
74	1
75	1
76	2
77	12
78	4
79	26
80	9
81	68
82	35
83	251
85	303
86	54
87	4
88	1
89	2
90	1
91	1
92	6
93	1
94	2
96	43
98	999
99	78
100	13
102	432
103	24
104	3
108	2
109	4
110	1
113	156
114	5
116	6
117	6
118	1
119	1
120	1
121	1
122	28
123	2
124	5
125	3
126	4
127	4
128	6
130	1
131	1
134	1
135	2
136	22
137	12
138	2
139	17
140	5
142	7
143	13
144	1
145	5
146	5
147	3
148	3
149	1
150	9
151	9
152	2
153	2
154	3
158	7
159	1
160	1
161	1
163	1
164	6
165	4
166	11
167	1
168	1
170	1
171	1
172	1
174	1
177	5
178	19
179	4
180	2
181	1
184	26
185	2
186	1
191	8
192	18
193	10
195	161
196	14
197	4
198	2
204	95
205	9
206	5
207	2
208	2
209	2
218	20
219	9
220	1
221	5
222	1
223	3
225	2
226	1
227	2
228	2
232	14
233	1
235	1
236	4
246	8
247	13
248	16
249	2
263	2
264	2
265	1
267	1
279	43
280	6
305	90
306	9
307	1
319	3
348	3
