Mass Spectrum: Hexanamide, 6-(1,3-dioxoisoindol-2-yl)-N,N-diisobutyl-
Formula: C22H32N2O3
CAS: 339314-53-3
Molecular weight: 372
m/z	intensity
34	0
36	1
37	0
39	44
41	268
42	115
43	96
44	30
45	4
46	0
47	0
50	23
51	15
52	3
53	13
54	10
55	140
56	55
57	144
58	20
59	2
60	12
61	0
62	0
63	2
64	1
65	5
66	3
67	17
68	13
69	37
70	23
71	9
72	43
73	11
74	12
75	18
76	68
77	79
78	9
79	8
80	3
81	10
82	7
83	8
84	28
86	999
87	59
88	3
89	2
90	3
91	2
92	1
93	0
94	1
95	5
96	13
97	32
98	31
99	3
100	10
101	2
102	20
103	11
104	61
105	45
106	4
107	0
108	0
109	0
110	4
111	1
112	7
113	4
114	18
115	57
116	10
117	7
118	1
119	0
120	0
121	0
122	0
123	0
124	1
125	1
126	28
127	7
128	52
129	13
130	95
131	9
132	14
133	40
134	4
135	0
137	0
138	0
139	0
140	3
141	1
142	6
143	2
144	1
145	1
146	3
147	5
148	58
149	8
150	1
151	0
152	0
153	0
154	3
155	1
156	14
157	3
158	4
159	12
160	534
161	65
162	6
163	0
165	0
166	0
167	0
168	2
169	2
170	1
171	49
172	7
173	2
174	9
175	3
176	3
177	0
179	0
181	0
182	2
183	0
184	22
185	3
186	7
187	3
188	5
189	1
190	0
196	0
197	0
198	3
199	3
200	2
201	0
202	2
203	0
210	0
212	5
213	1
215	2
216	8
217	2
218	0
219	0
220	0
222	0
224	0
225	0
226	12
227	2
228	0
229	0
230	0
231	0
238	0
240	0
241	0
242	1
243	2
244	103
245	16
246	2
247	0
256	0
257	0
258	0
261	4
262	0
272	0
273	2
274	0
275	0
283	0
285	0
286	0
287	0
288	0
289	0
300	0
301	0
315	0
316	0
317	0
319	0
327	0
329	23
330	5
331	0
357	1
358	0
370	0
372	13
373	3
374	0
375	0
