Mass Spectrum: Ethyl 2-(2-benzothiazolylamino)-3,3,3-trifluoro-2-propionamidopropionate
Formula: C15H16F3N3O3S
CAS: 339351-95-0
Molecular weight: 375
m/z	intensity
33	2
34	5
36	1
37	8
38	15
39	63
40	66
41	17
42	21
43	51
44	313
45	91
46	8
47	6
48	3
49	2
50	35
51	31
52	16
53	10
54	17
55	47
56	37
57	999
58	61
59	12
60	9
61	8
62	16
63	111
64	44
65	24
66	3
67	3
69	210
70	32
71	23
72	35
73	110
74	19
75	32
76	24
77	19
78	31
79	9
80	7
81	18
82	52
83	12
84	12
85	4
86	2
87	3
88	6
90	163
91	46
92	11
93	13
94	11
95	22
96	133
97	16
98	11
99	4
100	1
101	2
102	5
103	4
104	6
105	54
106	25
107	64
108	116
109	40
110	9
111	3
112	1
113	4
114	5
115	3
116	3
117	2
118	19
119	3
120	4
121	8
122	39
123	93
124	25
125	6
126	1
128	1
129	2
130	3
131	1
132	3
133	32
134	628
135	312
136	54
137	13
138	2
139	2
141	1
142	7
143	1
144	1
146	2
147	2
148	15
149	56
150	815
151	124
152	33
153	6
160	31
161	137
162	30
163	12
164	4
165	2
168	1
169	2
170	7
171	2
172	7
174	4
175	5
176	45
177	29
178	11
179	4
180	1
184	2
185	3
187	1
189	30
190	4
191	5
192	13
193	2
198	1
199	5
204	3
205	2
206	3
207	2
209	2
210	4
211	5
212	1
215	1
219	9
220	1
223	4
224	1
225	1
226	1
229	199
230	34
231	17
232	3
236	1
238	2
243	4
245	15
246	668
247	104
248	41
249	5
250	27
251	4
252	2
255	3
256	1
257	15
258	5
259	1
260	2
264	4
272	9
273	8
274	2
275	3
280	4
281	1
283	4
285	2
300	1
302	448
303	68
304	25
305	3
306	3
316	3
330	8
331	1
346	1
375	70
376	11
