Mass Spectrum: Benzaldehyde, 4-chloro-3-nitro-, tert-butoxycarbonylhydrazone
Formula: C12H14ClN3O4
CAS: 339318-56-8
Molecular weight: 299
m/z	intensity
33	2
36	0
38	2
39	18
40	12
41	100
42	5
43	14
44	7
45	1
50	3
51	2
52	1
53	1
55	11
57	999
58	40
59	28
60	1
61	1
62	6
63	10
64	0
65	0
72	0
73	10
74	3
75	11
76	1
77	2
78	0
84	0
85	0
87	5
88	2
89	4
90	5
91	1
97	2
98	0
99	2
100	1
101	0
102	1
104	0
105	2
107	0
110	6
111	1
112	2
115	0
117	2
118	0
123	19
124	3
125	7
126	1
137	2
139	0
151	1
152	8
153	1
154	2
171	0
180	0
181	3
182	5
183	4
184	1
185	0
197	0
198	1
199	9
200	0
201	3
209	2
226	14
227	1
228	4
240	4
241	0
243	32
244	4
245	9
246	0
299	8
300	1
301	2
302	0
