Mass Spectrum: Benzaldehyde, 2-nitro- morpholin-4-ylacetylhydrazone
Formula: C13H16N4O4
CAS: 339302-42-0
Molecular weight: 292
m/z	intensity
33	0
34	1
37	0
38	2
39	12
40	25
41	30
42	67
43	33
44	19
45	9
46	1
49	0
50	11
51	18
52	8
53	2
54	6
55	7
56	93
57	11
58	2
59	3
60	0
61	0
62	4
63	13
64	9
65	6
66	1
67	1
68	2
69	4
70	29
71	8
72	11
73	2
74	2
75	4
76	13
77	14
78	5
79	6
80	2
81	1
82	1
83	1
84	3
85	6
86	44
87	3
88	1
89	4
90	3
91	8
92	5
93	1
95	0
96	0
97	1
98	17
100	999
101	54
102	6
103	3
104	4
105	4
106	0
107	0
108	0
110	0
111	0
112	1
113	1
114	6
115	0
116	1
117	0
118	2
119	2
120	2
121	0
122	0
125	0
126	2
127	2
128	0
129	0
130	0
131	1
132	3
133	1
134	1
135	9
136	1
137	0
138	0
139	0
141	2
142	1
143	6
144	7
145	0
146	0
148	0
149	3
150	0
151	1
152	0
155	1
156	0
157	3
158	0
159	0
160	0
161	0
163	0
167	0
171	1
177	0
178	0
182	0
183	7
184	0
185	7
186	0
199	0
200	0
201	0
202	0
207	0
209	0
212	2
213	2
214	1
215	2
226	0
227	0
228	1
229	0
240	0
241	0
242	0
243	0
249	11
250	1
254	0
255	0
256	1
261	1
262	0
263	0
268	0
270	0
275	7
276	0
283	0
284	0
291	0
292	14
293	2
294	0
