Mass Spectrum: N-[1-(Benzylamino)-2,2,2-trifluoro-1-(trifluoromethyl)ethyl]-3-fluorobenzamide
Formula: C17H13F7N2O
CAS: 339351-87-0
Molecular weight: 394
m/z	intensity
33	2
36	3
38	7
39	37
40	2
41	14
42	4
43	8
44	9
45	4
46	1
47	2
49	2
50	34
51	54
52	12
53	6
54	2
55	7
56	3
57	10
58	1
59	1
60	1
61	4
62	9
63	21
64	9
65	93
66	6
67	2
68	8
69	34
70	8
71	4
73	3
74	14
75	84
76	16
77	56
78	27
79	78
80	7
81	2
82	2
83	5
84	2
85	2
86	1
87	2
89	38
91	635
92	50
93	8
94	26
95	336
96	35
97	32
98	3
99	1
100	1
101	1
102	1
103	5
104	28
106	999
107	88
108	6
109	8
110	2
111	1
112	1
113	1
114	1
115	1
116	4
117	35
118	4
119	1
120	2
121	10
122	18
123	495
124	39
125	3
127	8
128	2
129	1
131	1
132	1
133	2
134	1
135	2
136	1
137	1
138	2
139	13
140	375
141	28
142	4
145	1
146	3
147	1
148	1
149	2
150	1
152	2
153	1
157	1
158	3
159	2
163	1
164	1
165	10
166	10
167	1
171	2
177	6
178	1
181	1
183	1
184	1
185	15
186	110
187	10
188	1
192	1
196	1
199	1
201	9
202	2
204	1
205	1
207	6
208	1
214	4
215	1
227	3
228	3
229	5
230	1
233	1
234	3
235	1
236	1
254	93
255	33
256	3
288	2
289	2
297	1
324	1
325	4
326	1
