Mass Spectrum: Propanoic acid, 3,3,3-trifluoro-2-benzoylamino-2-(4-methyl-2-pyridylamino)-, ethyl ester
Formula: C18H18F3N3O3
CAS: 339352-42-0
Molecular weight: 381
m/z	intensity
33	1
36	1
37	0
38	2
39	18
41	7
43	4
44	2
45	0
49	0
50	14
51	40
52	10
53	9
54	1
55	0
57	0
62	0
63	2
64	6
65	32
66	7
67	3
69	4
73	0
74	2
75	4
77	281
78	16
79	7
80	24
81	19
90	2
91	8
92	71
93	18
94	1
95	0
96	1
101	0
102	2
105	999
106	54
108	72
109	4
110	0
114	0
115	0
117	1
118	1
119	9
120	1
121	1
122	1
128	0
130	0
134	27
135	4
136	0
137	0
145	0
146	0
147	1
148	0
149	0
150	0
159	0
160	0
162	1
163	0
166	0
168	1
170	0
173	0
181	0
182	1
183	8
184	1
186	0
187	2
188	1
189	2
190	0
195	1
196	0
197	0
200	0
201	0
202	3
204	16
205	16
206	1
209	0
210	1
211	1
215	2
216	3
221	0
222	0
229	0
230	3
231	1
232	0
233	0
238	2
239	0
240	0
241	0
242	0
245	0
249	0
253	0
259	0
260	0
261	1
262	0
266	0
269	1
276	1
277	0
279	0
291	1
292	0
305	0
308	448
309	68
310	6
312	8
313	1
322	0
324	0
335	0
336	4
337	0
381	21
382	4
383	0
