Mass Spectrum: Ethyl 3,3,3-trifluoro-2-propionamidolactate
Formula: C8H12F3NO4
CAS: 339335-95-4
Molecular weight: 243
m/z	intensity
33	1
39	2
40	3
41	5
42	9
43	20
44	108
45	16
46	3
47	6
49	1
50	5
51	11
52	1
53	1
54	5
55	19
57	999
58	34
59	4
62	2
64	1
67	2
69	50
70	7
71	10
72	8
73	14
74	2
77	1
78	4
79	1
83	1
84	1
85	1
87	7
90	12
91	1
92	1
94	9
95	9
96	7
97	6
98	1
99	3
100	1
102	1
112	1
113	3
114	59
115	8
117	1
118	17
119	1
120	2
123	1
124	1
125	1
126	1
127	1
130	1
140	3
141	1
142	3
143	17
144	1
148	1
149	1
150	1
151	2
152	1
153	1
158	1
168	5
170	182
171	17
172	1
174	2
178	1
184	1
186	1
187	1
198	7
199	1
