Mass Spectrum: 5-Nonanol, 5-methyl-
Formula: C10H22O
CAS: 33933-78-7
Molecular weight: 158
m/z	intensity
24	1
26	7
27	126
28	20
29	121
30	3
31	33
33	1
37	2
38	2
39	66
40	8
41	217
42	15
43	168
44	4
45	418
46	10
47	1
48	0
50	2
51	5
52	3
53	23
54	7
55	377
56	113
57	184
58	65
59	125
60	4
62	1
63	1
65	2
66	1
67	15
68	6
69	112
70	31
71	30
72	6
73	13
74	0
75	0
76	0
77	3
78	0
79	2
80	0
81	7
82	4
83	215
84	18
85	16
86	2
87	7
91	4
92	1
93	1
94	0
95	1
96	0
97	4
98	5
99	7
100	10
101	999
102	73
103	4
105	0
109	1
110	0
111	1
112	1
113	2
115	0
122	0
126	0
133	0
135	0
136	0
137	0
138	0
139	0
140	13
141	3
142	1
143	67
144	4
