Mass Spectrum: Furan, tetrahydro-2-isopentyl-5-propyl-
Formula: C12H24O
CAS: 33933-71-0
Molecular weight: 184
m/z	intensity
26	6
27	92
29	139
30	4
31	13
38	2
39	67
40	17
41	323
42	83
43	510
44	57
45	105
46	3
51	4
52	3
53	29
54	33
55	398
56	231
57	261
58	22
59	50
60	2
62	2
63	3
65	6
66	5
67	238
68	53
69	422
70	91
71	118
72	10
73	30
74	2
77	6
78	2
79	14
80	16
81	422
82	40
83	105
84	55
85	60
86	8
87	3
91	11
92	7
93	12
94	3
95	999
96	88
97	93
98	14
99	221
100	16
101	4
105	2
107	6
108	3
109	15
110	9
111	12
112	15
113	857
114	67
115	5
121	3
123	435
124	45
125	6
126	5
127	3
137	6
138	1
139	7
140	3
141	235
142	24
143	2
151	6
152	1
153	1
155	4
162	2
165	2
166	1
167	2
169	11
170	1
182	4
183	8
184	5
185	2
