Mass Spectrum: N-[2,2,2-Trifluoro-1-(3-fluoroanilino)-1-(trifluoromethyl)ethyl]isovaleramide
Formula: C14H15F7N2O
CAS: 339352-81-7
Molecular weight: 360
m/z	intensity
34	7
39	138
40	59
41	442
42	107
43	228
44	58
45	9
50	15
51	13
52	10
53	3
55	44
57	999
58	64
59	127
60	8
62	5
63	22
64	14
65	5
69	99
70	7
71	3
72	9
73	5
75	124
76	15
77	1
81	9
83	112
84	58
85	320
86	45
92	4
93	4
95	470
96	45
97	10
102	6
109	4
110	24
111	384
112	35
121	7
137	15
149	5
190	424
191	29
205	30
207	143
208	13
233	16
259	395
260	59
276	20
291	26
360	97
361	16
