Mass Spectrum: 1,2,5-Benzothiadiazol, 4-benzamido-
Formula: C13H9N3OS
CAS: 339302-44-2
Molecular weight: 255
m/z	intensity
33	1
34	3
36	0
37	4
38	12
39	17
40	58
41	5
42	1
43	3
44	16
45	13
46	6
47	1
48	0
49	2
50	34
51	120
52	15
53	7
54	1
55	2
56	1
57	3
58	3
59	2
60	1
61	1
62	1
63	5
64	15
65	11
66	4
67	0
68	0
69	4
70	7
71	4
72	3
73	2
74	9
75	10
76	25
77	505
78	31
79	3
80	1
81	1
82	1
83	3
84	1
85	2
86	0
87	0
88	0
89	0
90	1
91	9
92	5
93	1
94	0
95	0
96	4
97	3
98	0
99	0
100	0
101	0
103	5
105	999
106	73
107	4
108	2
109	1
110	0
111	0
112	0
113	0
114	0
115	0
116	0
117	1
118	1
119	0
120	1
121	0
122	1
123	22
124	3
125	2
126	0
127	1
128	0
129	0
131	0
133	0
135	1
136	0
139	0
140	1
142	0
148	0
149	2
150	7
151	3
152	1
153	0
154	0
155	0
162	0
164	0
165	0
166	0
167	0
170	0
171	0
177	0
178	0
179	0
180	0
181	0
185	0
189	0
193	1
194	0
198	0
208	0
220	0
225	0
226	0
227	0
228	0
251	0
253	0
255	338
256	52
257	17
258	2
