Mass Spectrum: Urea, 1-(3,5-dichlorophenyl)-3-(1-diethylphosphonato-1-methylpropyl)-
Formula: C15H23Cl2N2O4P
CAS: 339312-08-2
Molecular weight: 396
m/z	intensity
35	0
36	1
37	2
38	3
39	9
40	6
41	14
42	135
43	19
44	10
45	11
47	8
49	3
50	2
51	2
52	2
53	9
55	159
56	44
57	18
58	2
59	0
60	1
61	3
62	8
63	20
65	82
66	2
67	1
68	2
69	2
70	41
72	999
73	42
74	5
75	8
76	2
77	1
78	1
79	1
81	69
82	103
83	56
84	4
85	2
86	1
87	2
88	6
89	6
90	14
91	21
93	34
94	2
96	2
97	7
98	90
99	14
100	2
101	2
102	0
103	0
105	2
106	6
107	5
109	59
110	23
111	71
112	3
113	1
114	0
115	0
116	2
117	1
118	1
119	6
121	11
122	1
123	9
124	39
125	12
126	19
127	9
128	2
129	1
130	1
131	0
132	2
133	18
134	10
135	14
137	62
138	34
139	8
140	1
144	3
145	13
147	9
148	1
149	2
150	3
151	1
152	21
153	4
154	1
155	2
156	0
157	0
158	2
159	11
160	14
161	151
162	22
163	91
165	46
166	4
167	1
168	1
169	1
170	2
171	1
172	1
173	0
174	1
175	0
177	0
178	5
179	2
180	16
181	2
182	1
186	2
187	66
188	11
189	39
190	6
191	6
192	1
193	21
194	5
195	2
197	0
200	0
202	0
203	4
204	1
205	4
206	6
207	2
208	14
209	2
210	0
214	1
216	1
217	0
218	0
219	0
220	0
221	0
223	24
224	5
225	9
226	2
228	0
229	0
230	0
231	1
233	0
234	1
235	0
236	41
237	4
238	0
241	1
242	0
243	3
244	0
245	1
246	0
247	0
253	0
255	0
257	12
258	11
259	361
260	55
261	220
262	31
263	39
264	4
265	0
269	0
271	0
277	0
283	0
285	0
288	0
293	0
294	0
301	0
307	0
314	0
321	0
323	1
324	0
325	0
327	0
342	0
350	0
351	4
352	0
353	2
356	0
360	0
361	5
362	1
363	1
364	0
367	0
395	1
396	63
397	13
398	38
399	7
400	6
401	1
