Mass Spectrum: Imidazolo[4,5-f]benzimidazole, 2,6-diacetamido-
Formula: C12H12N6O2
CAS: 339337-42-7
Molecular weight: 272
m/z	intensity
34	14
38	0
40	520
41	108
42	256
43	999
44	216
45	58
52	17
53	5
55	8
57	1
60	13
64	13
66	63
67	103
68	4
69	4
77	5
91	44
92	25
93	5
118	16
119	20
132	5
133	1
134	11
135	6
145	12
146	2
159	31
160	109
161	6
187	236
188	706
189	56
214	6
215	7
229	4
230	178
231	9
272	83
273	4
