Mass Spectrum: Propanediamide, N,N,N',N'-tetraethyl-
Formula: C11H22N2O2
CAS: 33931-42-9
Molecular weight: 214
m/z	intensity
20	0
21	0
24	0
25	1
26	12
27	108
28	72
29	372
30	86
31	2
36	0
37	0
38	1
39	5
40	53
41	29
42	123
43	41
44	163
45	5
46	2
51	0
52	2
53	1
54	7
55	8
56	69
57	19
58	170
59	5
60	0
61	0
63	0
64	0
65	0
66	0
67	1
68	5
69	25
70	29
71	29
72	999
73	70
74	23
75	1
78	1
80	0
81	0
82	1
83	0
84	2
85	7
86	44
87	22
88	1
89	0
91	0
92	6
93	0
94	0
95	0
96	2
97	1
98	5
99	6
100	377
101	22
102	1
104	0
105	0
107	0
108	0
109	0
110	0
111	0
112	4
113	3
114	11
115	65
116	7
117	0
121	0
124	0
125	0
126	27
127	3
128	1
129	0
134	0
136	0
139	0
140	2
141	3
142	90
143	10
144	1
149	1
152	0
155	1
156	0
157	1
158	0
159	0
167	0
168	0
169	0
171	1
172	0
183	0
185	4
186	8
187	2
188	0
193	0
199	1
214	104
215	18
216	2
