Mass Spectrum: 2-[Benzenesulfonyl-(2,3-dichloro-phenyl)-amino]-N-methyl-acetamide
Formula: C15H14Cl2N2O3S
CAS: 339314-42-0
Molecular weight: 372
m/z	intensity
33	6
34	0
35	3
36	9
37	6
38	13
39	30
40	13
41	8
42	20
43	17
44	62
45	9
48	13
50	115
51	311
52	25
53	11
54	3
55	4
56	8
58	518
59	11
61	10
62	12
63	24
64	13
65	21
66	8
67	0
69	8
70	2
71	3
72	15
73	20
74	65
75	139
77	999
78	137
79	10
80	1
81	4
82	2
83	4
84	18
85	18
86	8
87	8
88	5
89	5
90	5
91	7
92	2
93	2
94	11
95	2
96	3
97	34
98	6
99	10
100	8
102	64
103	13
104	8
105	3
106	1
107	3
109	100
110	29
111	87
112	20
113	22
114	4
115	1
116	0
117	3
118	1
119	3
120	1
121	1
122	0
124	12
125	29
126	11
127	5
128	1
129	0
131	0
133	10
135	7
136	12
138	50
139	27
141	746
142	67
143	38
145	167
146	26
147	92
148	14
149	20
150	5
151	12
152	26
153	6
154	9
155	2
156	2
157	0
159	1
160	2
161	3
162	1
163	1
164	2
165	1
166	3
167	3
168	1
169	1
172	314
173	259
174	335
175	160
176	128
177	34
178	22
179	7
180	12
181	5
182	0
183	0
184	0
185	0
186	4
187	1
188	2
189	0
190	0
193	0
195	38
196	17
197	13
198	5
199	1
200	1
201	2
202	1
203	1
214	22
215	5
216	9
217	1
218	1
219	0
221	0
222	2
223	0
224	1
229	0
230	0
231	9
232	5
233	5
234	3
235	0
236	0
248	1
249	0
250	1
278	2
279	2
280	2
281	0
294	1
301	0
303	0
310	5
311	6
312	14
314	294
315	57
316	181
317	28
318	33
319	4
320	0
337	235
338	42
339	79
340	11
341	3
