Mass Spectrum: Propanehydrazide, 3-phenyl-N2-(2-ethylcyclopentylideno)-
Formula: C16H22N2O
CAS: 339320-81-9
Molecular weight: 258
m/z	intensity
33	15
34	19
38	20
39	281
41	510
42	96
43	125
44	117
45	11
50	50
51	152
52	54
53	148
54	111
55	296
56	76
57	41
58	17
59	22
62	8
63	44
64	19
65	210
66	47
67	301
68	73
69	119
70	41
71	23
72	27
73	22
74	8
75	18
76	18
77	297
78	126
79	221
80	89
81	108
82	127
83	238
84	41
85	37
89	22
91	999
92	93
93	42
94	76
95	149
96	77
97	187
98	829
99	94
100	17
102	14
103	139
104	229
105	615
106	105
107	47
108	57
109	72
110	167
111	163
112	41
116	21
117	7
119	5
120	5
122	5
123	75
124	44
125	46
126	93
127	22
128	19
129	4
130	11
131	38
132	119
133	53
139	6
146	8
147	4
148	33
149	82
150	62
151	4
153	17
158	7
162	16
171	3
172	6
176	9
186	17
188	28
200	4
201	231
202	81
203	7
214	6
215	49
229	45
230	126
231	21
243	44
257	4
258	153
259	27
