Mass Spectrum: Ethyl 2-(o-anisidino)-2-butyramido-3,3,3-trifluoropropionate
Formula: C16H21F3N2O4
CAS: 339352-54-4
Molecular weight: 362
m/z	intensity
34	5
38	21
39	111
40	112
41	310
43	999
44	166
45	10
50	19
51	66
52	56
53	44
55	52
56	8
57	10
59	73
60	2
62	7
63	47
64	49
65	87
66	11
67	6
69	47
71	371
72	26
74	9
75	10
77	231
78	37
79	45
80	99
81	9
83	11
85	6
86	6
88	4
90	18
91	21
92	134
93	31
94	24
95	12
96	14
102	11
103	1
104	22
105	22
106	13
108	208
109	25
117	2
118	3
119	12
120	28
121	11
123	362
124	33
125	6
127	18
132	10
133	64
134	118
135	28
136	7
142	3
145	5
146	5
147	10
148	2
149	13
151	1
154	9
155	24
161	4
162	15
167	25
168	10
174	6
175	7
182	2
187	122
188	18
195	10
202	520
203	35
204	3
206	9
217	5
219	874
220	82
221	5
223	81
224	9
226	6
245	4
275	142
276	27
289	79
290	9
293	7
362	118
363	15
