Mass Spectrum: Platinum, tetrakis(triethylphosphine)-, (t-4)-
Formula: C24H60P4Pt
CAS: 33937-26-7
Molecular weight: 667
m/z	intensity
26	54
27	196
28	40
29	177
30	6
31	3
33	7
34	38
35	4
36	0
37	1
38	1
39	24
40	2
41	82
42	7
43	39
44	11
45	127
46	14
47	41
48	7
49	8
50	1
51	1
52	0
53	8
54	1
55	135
56	14
57	292
58	65
59	368
60	47
61	850
62	813
63	27
65	0
66	0
67	1
68	2
69	10
70	1
71	10
72	1
73	35
74	4
75	127
76	7
77	4
78	8
79	0
80	0
81	0
82	0
83	1
84	0
85	3
86	0
87	12
88	6
89	36
90	999
91	26
92	0
93	0
94	1
97	0
100	0
101	1
102	0
103	98
104	12
105	6
106	5
115	0
116	2
117	38
118	227
119	20
120	1
121	0
122	0
130	0
133	0
134	1
139	0
145	0
149	0
150	0
165	0
166	0
167	0
172	0
179	0
189	0
191	0
193	0
207	0
208	0
224	0
225	1
226	1
227	1
228	0
229	0
230	0
231	0
239	0
240	1
241	1
242	0
243	0
249	0
250	0
251	2
252	4
253	7
254	5
255	5
256	5
257	9
258	7
259	4
260	1
261	1
262	0
265	0
266	0
267	2
268	1
269	2
270	1
271	1
272	0
273	0
274	0
277	0
278	1
279	4
280	4
281	11
282	5
283	8
284	6
285	6
286	5
287	6
288	5
289	2
290	3
291	2
292	2
293	0
294	1
295	0
296	0
297	0
298	0
299	1
300	1
301	1
302	0
303	0
304	0
307	0
308	1
309	5
310	5
311	11
312	10
313	11
314	10
315	9
316	6
317	3
318	19
319	26
320	25
321	3
322	8
323	1
324	0
325	0
326	0
327	0
328	0
329	0
330	0
331	0
332	0
333	0
334	0
335	1
336	1
337	2
338	3
339	6
340	7
341	10
342	16
343	22
344	25
345	13
346	74
347	66
348	47
349	3
350	10
351	1
352	0
353	0
354	0
355	2
356	1
357	1
358	0
359	0
360	0
361	0
363	0
364	0
365	2
366	2
367	7
368	8
369	19
370	18
371	20
372	18
373	11
374	46
375	43
376	31
377	3
378	7
379	1
380	0
381	0
382	0
383	0
384	0
385	0
386	0
387	0
390	0
391	0
392	0
393	1
394	2
395	6
396	6
397	10
398	6
399	8
400	6
401	5
402	23
403	23
404	17
405	1
406	3
407	0
421	0
422	0
423	1
424	1
425	3
426	2
427	3
428	3
429	3
430	26
431	26
432	20
433	3
434	4
435	0
519	0
520	1
521	1
522	0
548	4
549	4
550	3
551	0
552	1
553	0
