Mass Spectrum: 3-(3,4-Dichlorophenyl)-1-methyl-1-(5-methyl-2-thiazolin-2-yl)urea
Formula: C12H13Cl2N3OS
CAS: 339352-35-1
Molecular weight: 317
m/z	intensity
33	9
34	10
35	30
36	47
37	119
38	108
39	190
40	92
41	361
42	145
43	33
44	67
45	147
46	64
47	102
48	34
49	89
50	78
51	46
52	31
53	18
55	615
56	115
57	316
58	70
59	174
60	110
61	161
62	188
63	93
64	57
65	7
66	7
67	10
68	14
70	999
71	87
72	139
73	263
74	551
75	112
76	45
77	7
78	1
80	36
81	36
83	62
84	51
85	34
86	51
87	65
88	166
89	28
90	6
91	3
92	1
94	58
95	44
97	191
98	71
99	48
100	44
101	29
102	7
103	3
105	1
106	4
107	16
109	39
110	9
111	9
112	5
113	6
115	79
116	8
117	5
118	1
120	1
121	1
122	7
124	685
126	271
127	20
129	156
130	992
131	74
132	53
133	17
134	9
135	7
136	2
143	2
145	6
147	3
152	1
159	269
161	187
162	16
163	24
164	2
171	1
187	821
189	558
190	37
191	83
192	5
317	12
318	1
319	8
321	1
