Mass Spectrum: Ethyl 2-benzylamino-2-butyramido-3,3,3-trifluoropropionate
Formula: C16H21F3N2O3
CAS: 339352-52-2
Molecular weight: 346
m/z	intensity
35	1
37	2
39	48
41	126
43	415
44	36
45	4
46	1
47	2
48	1
50	9
51	20
52	7
53	3
55	13
56	2
57	2
59	15
60	1
62	2
63	14
65	97
66	5
67	1
69	15
71	164
72	11
73	1
74	1
75	2
77	31
78	10
79	35
80	3
83	5
85	4
86	3
88	46
89	27
91	999
92	68
93	3
96	9
97	4
98	1
103	2
104	15
106	513
107	43
108	2
109	4
110	1
113	7
114	1
116	4
117	12
118	4
119	2
123	1
124	3
125	2
126	1
127	1
129	1
131	2
132	2
133	5
134	2
135	2
139	1
140	1
142	2
143	1
144	1
146	1
148	1
153	1
154	1
158	1
159	1
162	2
163	1
165	15
166	6
167	1
171	1
179	5
180	1
182	1
183	1
185	65
186	22
187	5
190	1
194	1
195	2
201	11
203	333
204	27
205	1
207	15
208	2
210	1
214	11
215	1
229	1
230	6
231	1
237	1
257	1
258	1
259	11
260	2
273	77
274	6
275	1
277	1
