Mass Spectrum: Ethyl 2-benzamido-3,3,3-trifluoro-2-(2-p-toluenesulfonylhydrazino)propionate
Formula: C19H20F3N3O5S
CAS: 339352-43-1
Molecular weight: 459
m/z	intensity
33	1
35	4
36	1
37	3
38	4
39	24
40	9
41	9
42	2
43	9
44	14
45	8
47	8
48	5
49	3
50	23
51	61
52	7
53	3
54	1
55	3
56	2
57	5
58	1
59	1
60	1
61	1
62	4
63	11
65	49
66	3
67	3
69	9
70	2
71	4
72	1
73	2
74	5
75	5
77	278
78	21
79	9
80	2
81	3
83	19
85	13
86	1
87	2
89	9
91	101
92	27
93	4
95	1
96	3
97	2
98	1
103	4
105	999
106	68
107	10
108	4
109	2
110	1
111	2
112	1
119	2
121	9
122	9
123	6
124	6
125	1
132	4
133	1
135	5
137	3
139	9
140	3
141	1
142	1
152	1
154	1
155	9
156	4
157	6
159	1
171	2
182	1
183	1
186	1
187	2
200	1
201	2
202	6
203	3
209	3
210	1
214	2
229	18
230	6
258	1
274	1
275	15
276	5
277	1
290	1
304	29
305	3
386	1
