Mass Spectrum: 1,4,7,10,13-Pentaoxa-16-azacyclooctadecane
Formula: C12H25NO5
CAS: 33941-15-0
Molecular weight: 263
m/z	intensity
54	49
55	280
56	999
57	900
58	500
59	400
60	100
61	45
62	47
68	49
69	70
70	350
71	250
72	500
73	340
74	500
75	90
76	20
83	20
84	70
85	70
86	800
87	700
88	700
89	310
90	45
91	35
92	16
97	15
98	70
99	28
100	500
101	140
102	140
103	180
104	70
105	34
112	60
113	27
114	150
115	100
116	160
117	80
118	170
119	90
120	16
129	17
130	100
131	70
132	80
133	60
134	41
144	100
145	45
146	100
147	45
148	18
149	33
158	52
160	110
161	34
162	30
163	18
174	49
175	28
176	230
177	35
178	25
188	80
189	20
190	45
202	25
203	24
204	100
205	27
206	90
207	16
208	28
220	90
221	15
232	70
233	55
234	20
262	15
263	16
264	18
