Mass Spectrum: 5-Methyl-1R,3-trans-cyclohexanediol
Formula: C7H14O2
CAS: 33941-95-6
Molecular weight: 130
m/z	intensity
39	30
41	460
42	390
43	630
44	660
45	330
47	140
53	60
54	20
55	250
56	170
57	150
58	100
59	20
65	10
67	120
68	860
69	310
70	810
71	400
72	20
73	260
75	20
77	20
79	100
81	30
83	90
84	180
85	40
87	30
88	10
91	10
93	20
94	90
95	40
96	10
97	450
98	30
111	140
112	999
113	80
114	6
115	3
128	3
129	2
