Mass Spectrum: Oxazolidine, 2-phenyl-
Formula: C9H11NO
CAS: 3394-32-9
Molecular weight: 149
m/z	intensity
27	17
39	29
41	19
43	10
45	26
50	20
51	56
52	14
59	11
62	11
63	32
64	13
65	64
72	31
76	16
77	84
78	26
89	63
90	51
91	771
92	67
103	17
104	78
105	28
117	62
118	999
119	108
148	50
149	134
150	15
