Mass Spectrum: 1-Oxaspiro[4.5]decan-2-one, 4-bromoacetyl-
Formula: C11H15BrO3
CAS: 339586-65-1
Molecular weight: 274
m/z	intensity
35	0
36	1
37	1
38	5
39	147
40	41
41	287
42	243
43	190
44	14
45	5
48	0
49	3
50	6
51	27
52	20
53	66
54	61
55	999
56	96
57	27
58	3
59	3
60	2
61	1
62	1
63	6
64	2
65	25
66	16
67	109
68	26
69	314
70	212
71	31
72	2
73	3
74	2
75	1
76	2
77	39
78	12
79	93
80	146
81	154
82	43
83	97
84	10
85	6
86	2
87	5
88	0
89	1
91	37
92	8
93	79
94	18
95	61
96	11
97	481
98	575
99	340
100	22
101	4
102	0
103	2
104	1
105	8
106	2
107	28
108	56
109	34
110	14
111	23
112	21
113	4
114	31
115	4
116	1
117	5
118	1
119	3
120	2
121	41
122	3
123	36
124	5
125	30
126	5
127	2
128	2
129	1
131	2
132	3
133	9
134	6
135	27
136	24
137	7
138	2
139	8
140	2
141	9
142	1
145	0
147	2
148	3
149	31
150	5
151	11
152	8
153	138
154	23
155	3
156	5
157	2
161	0
162	1
163	2
164	0
165	1
166	2
167	9
168	2
169	7
170	5
171	6
172	1
174	0
175	3
176	32
177	181
178	49
179	14
180	16
181	75
182	9
183	1
184	1
185	0
186	3
187	1
188	3
189	1
191	1
192	1
194	29
195	241
196	28
197	4
198	1
199	0
201	0
203	1
204	0
205	2
207	1
208	0
210	0
212	6
213	1
214	3
215	6
216	1
217	5
218	7
219	2
220	6
221	4
224	0
227	0
230	0
231	8
232	2
233	10
234	3
235	0
240	0
241	0
247	1
249	0
253	0
255	0
256	15
257	2
258	15
259	1
264	0
270	1
