Mass Spectrum: 2,2-Diphenyl-4-piperazin-1-yl-butyronitrile
Formula: C20H23N3
CAS: 339571-43-6
Molecular weight: 305
m/z	intensity
34	1
39	9
40	21
41	22
42	99
43	66
44	50
45	5
50	5
51	19
52	2
53	2
54	13
55	36
56	170
57	51
58	31
59	0
62	1
63	5
64	1
65	8
66	1
67	1
68	6
69	9
70	74
71	72
72	7
73	0
74	2
75	2
76	5
77	25
78	7
79	1
80	1
81	3
82	9
83	18
84	46
85	27
86	1
87	1
88	1
89	9
90	4
91	127
92	11
93	0
94	0
95	2
96	2
97	17
99	447
100	23
101	2
102	6
103	8
104	6
105	9
106	2
107	0
109	2
110	7
111	11
113	999
114	70
115	47
116	13
117	4
118	4
119	16
120	6
121	0
122	1
125	1
126	2
127	2
128	4
129	5
130	1
131	1
132	4
133	2
134	3
137	1
138	1
139	8
140	10
141	3
142	4
143	0
144	1
146	1
149	1
150	1
151	4
152	11
153	4
154	0
162	1
163	10
164	17
165	120
166	22
167	3
171	1
176	4
177	12
178	20
179	10
180	7
181	0
185	1
187	0
188	1
189	5
190	36
191	23
192	28
193	21
194	3
202	0
203	3
204	5
205	1
206	1
207	0
217	0
218	3
219	1
220	6
221	1
222	0
223	0
237	2
247	0
249	3
250	2
260	0
261	5
263	246
264	46
265	3
304	2
305	4
