Mass Spectrum: Propanamide, 3-phenyl-N-(4'-nitrobiphen-4-yl)-
Formula: C21H18N2O3
CAS: 339586-55-9
Molecular weight: 346
m/z	intensity
33	10
34	2
36	11
37	4
38	16
39	131
40	25
41	37
42	19
43	26
44	19
45	12
46	5
48	2
50	56
51	135
52	44
53	23
54	5
55	38
56	4
57	9
58	4
59	1
60	2
61	4
62	26
63	86
64	31
65	185
67	3
68	1
69	6
70	7
71	6
72	4
73	4
74	21
75	35
76	39
77	222
78	86
79	157
80	11
81	2
82	3
83	3
84	3
85	3
86	8
87	18
88	21
89	52
91	999
92	70
93	75
95	6
96	2
97	1
98	4
99	5
100	5
101	12
102	29
103	97
104	78
105	477
106	43
107	6
108	1
109	3
110	1
111	3
112	4
113	22
114	21
115	39
116	10
117	8
118	3
119	1
120	2
121	4
122	2
123	17
124	2
125	4
126	12
127	17
128	31
129	7
130	5
131	10
132	4
133	25
134	5
135	1
136	1
137	7
138	15
139	126
140	74
141	33
142	5
143	1
144	0
145	0
146	0
147	0
148	1
149	4
150	15
151	41
152	44
153	14
154	11
155	23
156	27
157	4
158	0
160	0
161	0
162	1
163	2
164	12
165	13
166	60
167	132
168	144
169	23
170	2
171	1
172	0
173	0
174	0
175	0
176	0
177	2
178	1
179	1
180	5
181	13
182	8
183	12
184	55
185	12
186	2
187	0
188	0
189	0
190	0
191	0
192	1
193	1
194	1
195	1
196	2
197	2
198	13
199	2
200	1
201	0
202	0
203	0
204	0
205	0
206	0
207	1
208	1
209	3
210	4
214	869
215	102
216	10
217	1
218	1
219	1
220	0
221	0
222	0
223	0
224	0
225	0
226	0
227	3
228	1
230	0
238	0
239	1
240	2
241	1
242	1
243	0
251	0
253	0
254	0
255	1
256	0
257	0
258	0
260	0
264	0
269	0
272	0
283	0
284	0
285	0
288	22
289	3
290	0
298	0
299	1
301	7
302	1
303	0
312	0
315	0
316	1
317	0
329	0
330	0
331	0
336	0
339	0
340	0
342	10
346	128
347	19
348	2
349	0
