Mass Spectrum: Pyrimido[4,5-b]benzothiiophene, 1,2,3,4,5,6,7,8-octahydro-1-allyl-3-benzoyl-
Formula: C20H22N2OS
CAS: 339587-49-4
Molecular weight: 338
m/z	intensity
38	17
39	239
41	330
42	67
43	12
45	32
46	1
47	4
49	4
50	76
51	324
52	18
53	14
54	6
55	13
56	5
57	9
58	11
59	6
62	4
63	9
64	4
65	19
66	4
68	15
69	11
70	9
71	16
72	4
76	71
77	958
78	74
79	17
89	6
90	4
91	18
92	6
93	3
104	25
105	999
106	63
107	7
108	3
122	97
123	11
124	1
134	7
135	11
136	10
137	7
138	3
163	8
164	15
165	7
166	49
167	7
168	1
190	2
191	6
192	2
193	0
231	7
232	1
233	5
234	1
269	37
270	43
271	3
296	0
297	0
337	0
338	26
339	5
340	0
