Mass Spectrum: 3,4Dehydro-dl-proline
Formula: C5H7NO2
CAS: 3395-35-5
Molecular weight: 113
m/z	intensity
41	296
42	45
43	65
44	38
45	110
46	2
47	0
49	2
50	6
51	7
52	10
53	5
54	16
55	8
56	4
57	5
58	2
60	7
61	34
62	4
63	3
64	5
65	7
66	16
67	100
68	999
69	77
70	11
71	3
73	2
74	0
77	2
78	1
79	1
80	1
81	2
82	2
83	2
84	1
85	2
86	1
87	1
93	4
94	7
95	2
96	7
97	2
98	1
99	0
104	0
106	0
107	0
108	0
110	3
111	9
112	1
113	12
114	6
115	0
