Mass Spectrum: 2-Oxazolidinone, 3-ethenyl-5-methyl-
Formula: C6H9NO2
CAS: 3395-98-0
Molecular weight: 127
m/z	intensity
26	32
27	155
28	491
29	77
30	13
31	5
37	4
38	10
39	71
40	36
41	193
42	115
43	48
44	15
45	6
50	1
51	4
52	13
53	9
54	999
55	179
56	131
57	19
58	2
63	1
64	1
65	2
66	3
67	9
68	307
69	21
70	3
71	1
80	9
81	2
82	255
83	17
84	5
86	4
112	2
115	0
127	420
128	33
129	3
