Mass Spectrum: 1,2,5-Triazole, 1-hexyl)-3-nitro-4-formamido-, 2-oxide
Formula: C9H15N5O4
CAS: 339589-42-3
Molecular weight: 257
m/z	intensity
33	1
34	1
36	1
37	0
38	2
39	51
40	47
41	285
42	54
43	999
44	136
45	23
46	5
48	0
50	0
51	1
52	3
53	36
54	36
55	111
56	28
57	105
58	5
59	0
60	0
64	0
65	1
66	1
67	7
68	13
69	93
70	38
71	245
72	8
73	2
74	0
77	0
78	0
79	2
80	2
81	7
82	15
83	110
84	14
85	63
86	5
87	1
88	0
91	0
92	0
93	2
94	2
95	8
96	21
97	9
98	17
99	103
100	5
101	0
105	0
106	0
107	0
108	2
109	3
110	7
111	5
112	4
113	5
114	1
115	4
119	0
120	0
121	1
122	2
123	5
124	4
125	4
126	1
127	3
128	0
129	8
130	12
131	0
134	0
135	0
136	1
137	5
138	4
139	1
140	3
141	5
142	3
143	0
146	0
148	0
149	1
150	1
151	2
152	1
153	1
154	1
155	0
156	1
157	2
158	36
159	1
160	0
162	0
163	0
164	1
165	18
166	5
167	2
168	0
170	0
171	1
172	0
174	6
175	0
177	0
178	0
179	1
180	1
181	7
182	2
183	7
184	1
185	0
186	0
192	0
193	5
194	14
195	2
196	2
197	0
200	1
209	0
210	2
211	42
212	10
213	1
214	0
223	0
224	7
225	2
226	0
228	21
229	2
230	0
240	23
241	4
242	1
254	0
256	0
257	4
258	0
260	0
