Mass Spectrum: Benzamide, N-4-piperidinyl-
Formula: C12H16N2O
CAS: 33953-37-6
Molecular weight: 204
m/z	intensity
37	0
38	1
39	28
40	7
41	32
42	78
43	9
44	3
46	2
49	0
50	5
51	16
52	7
53	8
54	19
55	10
56	59
57	11
58	3
62	2
63	11
65	116
66	8
67	6
68	18
69	14
70	8
71	2
72	2
73	3
74	1
76	2
77	11
78	5
79	3
80	3
81	2
82	16
83	8
84	21
85	13
86	8
87	2
89	24
91	999
92	151
93	20
94	3
95	53
96	24
97	23
98	18
99	3
100	2
102	8
103	7
104	23
105	17
106	3
108	1
109	4
110	4
111	3
113	237
114	15
115	5
116	4
117	15
118	53
119	8
120	72
121	7
122	0
125	2
127	161
128	15
129	9
130	11
131	8
132	20
133	5
134	1
139	0
141	1
142	1
143	4
144	11
145	7
146	45
147	6
148	2
149	1
151	1
152	1
153	1
154	0
155	1
156	3
157	2
158	22
159	7
160	5
161	1
163	1
164	1
165	4
166	1
167	12
168	2
169	0
170	2
171	5
172	11
173	4
174	7
175	1
176	2
177	1
178	2
179	1
181	0
182	0
183	0
185	13
187	134
188	35
189	7
190	1
191	1
193	0
194	2
195	2
200	1
201	2
203	148
204	431
205	64
206	6
207	1
208	1
