Mass Spectrum: .alpha.-D-Galactopyranoside, methyl
Formula: C7H14O6
CAS: 3396-99-4
Molecular weight: 194
m/z	intensity
27	73
28	178
29	196
30	18
31	226
32	20
33	71
39	41
40	10
41	64
42	84
43	181
44	66
45	169
47	13
53	10
54	8
55	72
56	107
57	414
58	46
59	97
60	999
61	314
62	25
69	74
70	6
71	297
72	36
73	436
74	540
75	100
85	84
86	34
87	91
88	13
89	21
91	82
92	3
95	2
96	7
97	63
98	68
99	22
100	5
101	18
103	68
104	32
105	5
115	9
116	56
117	14
120	10
121	22
127	13
129	5
131	36
132	3
133	26
144	42
145	57
146	9
147	5
162	2
163	47
164	6
193	0
195	1
