Mass Spectrum: Phenethyl alcohol, .alpha.-benzyl-p-chloro-.alpha.-phenyl-
Formula: C21H19ClO
CAS: 33966-10-8
Molecular weight: 322
m/z	intensity
26	9
27	13
28	7
29	4
30	1
39	49
40	5
41	6
42	4
43	8
44	5
45	2
50	24
51	97
52	15
53	6
55	9
56	2
57	8
63	42
64	7
65	94
66	6
67	4
68	2
69	6
73	5
74	8
75	13
76	28
77	556
78	37
79	11
80	1
87	5
88	2
89	62
90	42
91	556
92	69
93	6
94	1
95	4
99	16
100	1
101	7
102	14
103	15
104	6
105	999
106	88
107	8
108	3
109	3
110	1
111	11
112	5
113	8
114	7
115	52
116	3
117	2
118	6
119	28
120	8
121	10
122	3
123	2
124	2
125	170
126	34
127	56
128	15
129	3
131	3
132	2
133	3
134	1
135	1
136	2
137	3
138	4
139	83
140	8
141	28
142	2
149	16
150	7
151	20
152	42
153	12
154	5
155	3
156	3
157	3
158	1
159	2
160	2
162	2
163	1
164	5
165	62
166	20
167	17
168	4
169	2
172	1
173	1
174	2
175	6
176	42
177	28
178	208
179	111
180	15
181	9
182	3
186	2
187	5
188	3
189	35
190	11
191	104
192	69
193	14
194	3
195	5
196	12
197	833
198	128
199	11
200	2
201	11
202	5
203	5
204	1
205	2
206	3
212	14
213	38
214	10
215	13
216	4
217	1
222	1
223	1
224	2
225	15
226	42
227	16
228	16
229	5
230	12
231	347
232	53
233	115
234	17
251	8
252	6
253	6
254	3
262	1
263	4
264	5
265	5
266	15
267	10
268	2
284	11
285	2
286	2
302	3
303	11
304	191
305	44
306	63
307	15
