Mass Spectrum: 6H-Furo[3',2':4,5]imidazo[1,2-g]purine-8-methanol, 4-amino-6a,7,8,9a-tetrahydro-7-hydroxy-, [6aS-(6a.alpha.,7.alpha.,8.beta.,9a.alpha.)]-
Formula: C10H12N6O3
CAS: 33962-27-5
Molecular weight: 264
m/z	intensity
53	50
54	60
55	160
56	100
57	200
58	30
59	50
60	999
61	70
68	130
69	110
70	60
71	80
72	40
73	90
80	40
81	70
82	50
83	100
84	40
85	60
86	40
87	70
93	40
94	40
95	70
96	40
97	70
98	30
108	50
109	50
110	30
111	40
119	40
120	50
121	30
122	30
123	70
124	20
129	40
133	30
134	20
135	130
136	30
146	20
147	50
148	20
149	60
150	110
151	30
161	40
162	20
163	50
164	20
165	20
168	40
169	20
173	20
174	180
175	120
176	40
177	20
186	40
187	70
188	60
189	50
190	20
191	20
192	20
200	20
203	20
205	20
215	50
216	70
217	40
218	20
264	330
265	50
266	10
