Mass Spectrum: Inositol, 1,2,4,5-tetrakis-O-(trimethylsilyl)-, bis[bis(trimethylsilyl) phosphate], myo-
Formula: C30H78O12P2Si8
CAS: 33981-93-0
Molecular weight: 916
m/z	intensity
28	164
31	5
32	12
39	10
43	15
44	7
45	33
46	7
47	25
51	10
52	13
54	8
55	8
56	5
58	7
59	22
67	5
68	7
71	5
72	10
73	999
74	107
75	145
76	25
77	26
78	25
81	15
88	5
93	19
95	8
99	5
101	11
103	18
109	5
113	8
115	5
116	7
117	16
119	4
120	4
127	16
129	49
130	8
131	14
132	6
133	57
134	4
137	8
139	8
141	10
142	7
143	31
144	10
145	7
147	256
148	39
149	25
151	13
153	10
154	7
155	15
156	7
157	6
159	5
161	4
163	4
169	5
177	4
179	4
180	5
181	18
183	10
184	5
189	9
191	63
192	10
193	19
195	7
197	28
198	4
199	5
201	8
204	15
205	5
207	34
208	5
210	5
211	51
212	8
213	6
215	10
216	14
217	137
218	31
219	8
220	5
221	5
222	5
225	29
226	7
227	25
228	6
229	5
230	33
231	10
232	5
237	5
239	13
240	5
241	7
242	15
243	60
244	16
245	15
246	7
253	7
254	16
255	49
256	13
257	9
267	4
269	14
270	33
271	48
272	16
273	8
274	8
283	18
284	11
285	36
286	10
287	5
295	7
297	7
299	746
300	182
301	110
302	23
303	10
304	5
305	5
313	48
314	31
315	355
316	91
317	64
318	175
319	52
320	29
321	5
328	5
329	5
330	5
331	10
332	5
341	9
342	66
343	153
344	73
345	52
346	11
347	5
357	11
358	7
359	6
360	11
361	7
362	5
369	12
370	6
371	6
372	4
373	31
374	15
375	11
385	11
386	12
387	225
388	75
389	90
390	23
391	5
392	7
403	5
407	14
408	5
417	10
418	4
419	6
422	5
423	5
428	5
429	103
430	43
431	26
432	28
433	19
434	10
435	5
443	12
444	5
451	26
452	7
453	5
454	5
455	4
457	11
458	7
459	8
461	7
469	31
470	19
471	13
472	7
494	22
495	19
496	13
497	54
498	19
499	10
539	4
541	38
542	16
543	10
544	7
553	5
556	5
557	5
569	10
570	6
571	4
583	10
584	11
585	10
586	15
587	5
589	4
612	10
613	5
659	22
660	16
661	10
662	4
721	4
810	7
811	5
812	5
899	5
900	11
901	95
902	66
903	48
904	23
905	13
906	4
