Mass Spectrum: 6-Methyl-N-nitro-2-pyridinamine
Formula: C6H7N3O2
CAS: 33986-37-7
Molecular weight: 153
m/z	intensity
15	4
26	5
27	18
28	41
29	1
30	11
37	10
38	32
39	282
40	34
41	11
42	50
43	3
44	1
46	7
49	1
50	8
51	16
52	35
53	187
54	13
55	3
62	3
63	9
64	14
65	39
66	100
67	16
68	1
75	1
76	2
77	2
78	19
79	18
80	301
81	25
82	3
90	3
91	3
92	65
93	30
94	3
96	1
105	22
106	14
107	999
108	92
109	9
110	1
121	2
123	12
124	2
137	1
153	228
154	18
155	1
