Mass Spectrum: Methyl (4-iodophenyl)propanoate
Formula: C10H11IO2
CAS: 33994-44-4
Molecular weight: 290
m/z	intensity
40	141
41	24
42	13
43	114
44	111
45	5
46	9
49	15
51	12
52	5
54	37
55	149
56	92
57	139
59	68
62	114
66	21
67	68
68	82
69	267
70	63
71	65
72	27
73	11
74	999
75	217
77	34
78	60
79	21
80	33
81	137
82	133
83	163
84	272
85	54
86	16
87	625
88	46
90	33
91	53
92	15
93	26
94	7
95	136
96	239
97	217
98	166
99	43
100	16
101	109
102	54
103	101
104	71
105	20
106	18
107	24
108	30
109	73
110	106
111	120
112	57
113	38
114	27
115	63
116	38
117	13
118	10
119	27
120	20
121	68
122	24
123	84
124	114
125	49
126	12
127	33
128	54
129	43
130	33
131	27
132	9
133	24
134	46
135	46
137	63
138	43
139	24
141	52
142	23
143	144
144	15
147	22
148	27
149	24
151	27
152	41
153	27
154	14
155	22
156	11
157	43
158	12
159	7
161	18
162	8
164	60
165	30
166	147
167	52
168	19
169	27
170	34
171	54
172	14
177	10
178	11
179	19
180	24
181	19
182	10
183	5
185	24
186	8
187	5
188	10
189	9
190	54
191	20
192	4
193	4
194	3
196	8
197	11
198	8
199	114
200	41
203	10
204	6
205	7
206	4
208	83
209	30
210	15
211	21
212	10
213	33
214	14
215	8
216	7
217	250
218	20
220	11
230	544
231	76
232	10
233	13
234	11
235	11
236	5
239	10
240	23
241	8
242	24
243	18
246	10
249	9
253	10
257	24
258	11
259	24
265	5
267	13
268	11
269	11
270	13
271	6
288	41
290	408
291	41
