Mass Spectrum: Bicyclo[6.1.0]non-4-ene-9-carboxamide, N-(4-acetylphenyl)-
Formula: C18H21NO2
CAS: 339989-03-6
Molecular weight: 283
m/z	intensity
33	0
34	1
35	9
36	46
37	11
38	56
39	421
40	97
41	636
43	517
44	23
45	9
46	3
48	1
50	54
51	106
52	76
53	398
54	114
55	387
56	16
57	20
58	3
59	2
60	3
61	4
62	19
63	84
64	88
65	255
66	127
67	723
68	112
69	54
70	6
71	11
72	1
74	14
75	22
76	46
77	314
78	112
79	999
80	117
81	375
82	34
83	93
84	7
85	3
86	5
87	3
88	4
89	25
90	63
91	495
92	176
93	491
94	80
95	44
96	5
97	4
98	1
99	4
100	2
101	4
102	8
103	31
104	44
105	155
106	122
107	113
108	18
109	6
110	3
111	3
112	2
113	7
114	3
115	21
116	18
117	28
118	29
119	185
120	448
121	489
122	52
123	5
124	2
125	2
126	0
127	7
128	8
129	27
131	313
132	40
133	19
135	698
136	95
137	10
138	1
139	1
140	0
141	3
142	3
143	4
144	6
145	5
146	37
147	27
148	70
149	145
150	17
151	4
152	1
153	1
154	1
155	2
156	2
157	2
158	3
159	9
160	6
161	11
162	44
163	8
164	12
165	5
166	1
167	1
168	0
169	0
170	2
171	2
172	5
173	5
174	8
175	5
176	10
177	60
178	11
179	1
180	0
181	1
182	0
183	2
184	2
185	3
186	10
187	5
188	5
189	7
190	36
191	15
192	2
193	0
196	0
198	1
199	2
200	3
201	11
202	6
203	38
204	8
205	0
210	0
211	0
212	2
214	19
215	5
216	43
217	9
218	2
219	15
220	3
221	9
222	1
223	1
224	0
226	0
227	1
228	2
229	1
238	0
239	0
240	6
241	1
242	2
252	0
253	0
254	3
255	4
256	0
266	5
267	1
268	6
269	1
277	0
278	0
279	1
280	2
281	5
282	22
283	146
284	29
285	3
