Mass Spectrum: 1-Chloro-1,1,4,4-tetramethyl-4-vinyl-1,4-disilabutane
Formula: C8H19ClSi2
CAS: 33992-92-6
Molecular weight: 206
m/z	intensity
58	157
59	106
60	20
85	677
86	999
87	111
88	47
93	28
95	8
178	70
179	142
180	58
181	76
191	147
192	30
193	51
194	8
206	21
208	9
