Mass Spectrum: Formamide, N-methoxy-
Formula: C2H5NO2
CAS: 34005-41-9
Molecular weight: 75
m/z	intensity
26	8
27	67
28	181
29	967
30	269
31	467
32	805
33	13
42	29
43	147
44	295
45	478
46	257
47	999
48	15
58	6
60	11
74	23
75	384
76	13
