Mass Spectrum: N-[1-(2-Benzothiazolylamino)-2,2,2-trifluoro-1-(trifluoromethyl)ethyl]nicotinamide
Formula: C16H10F6N4OS
CAS: 340032-79-3
Molecular weight: 420
m/z	intensity
33	2
34	2
36	5
37	26
38	48
39	77
40	21
41	13
42	7
43	16
44	23
45	63
46	3
47	6
48	4
49	32
50	223
51	481
52	89
53	47
54	6
55	9
56	7
57	23
58	27
59	5
60	16
61	17
62	29
63	75
64	28
65	13
66	4
67	4
69	214
70	33
71	16
72	2
73	3
74	15
75	62
76	41
78	858
79	49
80	7
81	19
82	47
83	10
84	9
85	3
86	1
87	4
88	4
90	44
91	16
92	14
93	13
94	11
95	24
96	171
97	18
98	9
99	3
100	3
102	1
103	5
106	999
107	82
108	42
109	9
110	4
111	1
112	3
113	2
115	1
116	2
117	5
118	22
119	4
120	4
121	9
122	119
123	125
124	13
125	6
126	2
127	2
128	1
129	1
131	2
133	18
134	180
135	18
136	9
137	2
140	1
141	1
142	8
144	1
146	1
147	3
148	7
150	723
151	61
152	33
153	3
154	1
158	1
160	4
165	1
171	6
172	1
173	1
176	2
177	1
179	1
184	1
185	1
201	2
203	1
208	1
209	1
210	7
211	2
212	1
219	1
222	2
223	6
224	1
226	3
227	2
229	75
230	8
231	4
232	3
247	2
248	1
251	4
252	1
254	3
255	1
270	5
271	21
272	3
277	1
279	14
280	2
281	1
289	2
295	2
296	2
298	172
299	20
300	9
301	1
351	5
420	10
421	2
422	1
