Mass Spectrum: Furazan-3-amine, 4-[4-isopropoxycarbonyl-5-(4-morpholylmethyl)-1H-1,2,3-triazol-1-yl]-
Formula: C13H19N7O4
CAS: 340014-79-1
Molecular weight: 337
m/z	intensity
33	3
34	0
38	5
39	13
40	12
41	71
42	71
43	110
44	16
45	17
47	0
50	0
52	10
53	31
54	36
55	27
56	100
57	11
58	10
59	3
61	0
64	3
65	6
66	10
67	11
68	11
69	8
70	32
72	21
73	1
74	1
75	0
78	8
79	8
80	13
81	7
82	6
83	8
84	11
86	117
87	8
88	3
90	0
91	1
92	5
93	9
94	8
95	8
96	5
97	5
98	17
100	999
101	42
102	3
103	0
104	1
105	3
106	5
107	14
108	16
109	10
110	5
111	2
112	2
113	4
114	1
115	1
116	3
117	0
118	0
119	6
120	4
121	6
122	11
123	7
124	19
126	7
127	2
128	0
129	0
131	0
132	2
133	8
134	17
135	12
136	9
137	9
138	8
139	6
140	4
141	0
142	0
145	0
146	1
147	2
148	5
149	13
150	7
151	9
152	14
154	8
156	1
157	0
159	0
160	2
161	6
162	8
163	11
164	16
165	20
166	6
167	3
168	8
169	1
171	0
172	0
174	1
175	1
176	3
177	3
178	2
179	2
180	2
181	4
182	14
183	14
184	1
187	0
189	7
190	2
191	25
192	47
193	40
194	12
195	9
196	1
199	0
202	0
203	0
204	1
205	2
206	5
207	1
209	13
210	7
211	13
212	1
217	2
219	18
220	3
222	33
223	4
224	2
225	0
228	0
231	0
232	2
233	1
234	7
235	9
236	2
237	8
238	1
239	0
241	0
248	1
249	3
250	2
251	0
252	3
253	1
263	0
264	1
265	0
266	9
267	6
268	0
278	31
279	8
280	1
281	0
283	0
293	0
294	6
295	0
309	1
310	0
336	0
337	19
338	3
339	0
