Mass Spectrum: 2-Thiabicyclo[3.2.0]hept-3-ene-6,7-dicarboxylic acid, 1,3,6,7-tetramethyl-
Formula: C12H16O4S
CAS: 34002-18-1
Molecular weight: 256
m/z	intensity
38	20
39	250
40	40
41	80
43	10
44	400
45	100
50	60
51	100
52	40
53	140
54	120
59	200
65	40
67	40
69	30
71	40
77	100
78	20
79	20
82	60
91	30
97	400
98	30
99	10
110	30
111	470
112	999
113	120
114	60
125	10
126	20
133	20
151	10
165	10
166	10
179	10
193	5
210	5
224	5
238	5
256	7
