Mass Spectrum: N-(3,4-Dichlorophenyl)-3,3,3-trifluoro-2-(trifluoromethyl)propionamide
Formula: C10H5Cl2F6NO
CAS: 340034-11-9
Molecular weight: 339
m/z	intensity
34	91
36	216
37	98
38	162
39	436
41	72
42	19
43	62
44	230
47	109
49	69
50	101
51	73
52	94
54	12
55	43
56	12
57	30
59	13
60	167
62	278
63	551
65	24
66	6
67	9
69	999
71	67
72	68
73	197
74	116
75	124
76	23
77	9
78	9
79	6
81	108
83	43
84	36
85	35
86	24
87	38
88	66
89	67
90	671
93	22
94	10
95	13
97	126
98	52
99	125
100	27
101	36
103	2
104	1
105	3
107	36
109	104
110	28
111	25
113	146
115	1
116	1
117	4
118	2
119	4
120	3
121	3
124	157
125	191
126	100
127	78
128	19
129	10
131	5
133	253
134	175
136	19
137	24
138	5
139	1
141	1
143	2
145	45
147	32
148	4
149	5
150	4
151	3
152	4
153	6
154	2
155	3
156	1
157	4
159	106
160	270
161	977
162	389
163	635
164	193
165	108
166	28
167	2
168	1
171	6
172	5
173	1
174	3
175	2
179	289
181	2
185	2
187	66
188	144
189	50
190	86
191	13
192	15
193	2
199	2
201	1
202	1
206	1
207	1
208	1
209	3
210	8
211	3
212	4
215	15
217	5
220	1
221	2
224	1
234	6
235	4
236	5
237	2
240	1
242	1
249	4
250	1
251	2
256	1
264	2
268	1
269	2
270	1
283	2
284	2
301	1
303	2
304	10
305	4
306	6
307	2
339	531
340	73
341	315
342	36
343	47
344	6
