Mass Spectrum: N-[2,2,2-Trifluoro-1-(2-fluoroanilino)-1-(trifluoromethyl)ethyl]benzamide
Formula: C16H11F7N2O
CAS: 340031-05-2
Molecular weight: 380
m/z	intensity
33	2
34	1
36	1
37	3
38	7
39	15
40	13
41	10
42	3
43	9
44	14
45	2
46	2
49	3
50	38
51	112
52	11
53	5
54	2
55	9
56	7
57	25
58	2
60	1
61	2
62	4
63	9
64	8
65	5
66	2
67	3
68	5
69	33
70	8
71	7
72	1
73	3
74	11
75	35
76	33
77	429
78	34
79	4
80	2
81	5
82	6
83	39
84	12
85	2
87	1
88	1
89	2
90	5
91	5
92	4
93	3
94	9
95	73
96	9
97	2
98	1
99	1
100	1
101	2
102	7
103	9
105	999
106	71
107	5
108	2
109	3
110	16
111	76
112	9
113	2
114	1
115	1
117	1
121	41
122	7
123	1
124	1
125	1
126	1
127	1
128	1
129	5
130	1
131	1
133	1
135	2
136	1
137	2
138	1
139	2
140	3
141	1
142	1
143	1
145	3
146	1
147	1
150	1
152	1
155	1
157	1
159	1
163	2
164	1
166	1
167	2
168	1
170	1
171	6
172	1
184	1
185	2
186	2
187	10
188	3
190	221
191	19
192	2
196	1
205	2
206	1
207	1
208	1
215	8
216	1
233	2
234	1
238	1
240	1
241	1
250	1
255	1
256	2
259	202
260	18
261	1
270	3
283	1
310	1
311	33
312	5
313	1
360	1
361	1
380	85
381	12
382	1
