Mass Spectrum: Cyclopentanecarboxamide, N-phenyl-
Formula: C12H15NO
CAS: 3400-41-7
Molecular weight: 189
m/z	intensity
25	0
26	7
27	64
28	21
29	12
30	1
31	1
35	0
36	1
37	3
38	18
39	160
40	31
41	327
42	26
43	5
44	0
45	1
46	0
47	0
48	0
49	1
50	11
51	45
52	12
53	18
54	6
55	55
56	2
57	0
58	0
60	0
61	0
62	4
63	19
64	18
65	95
66	60
67	44
68	21
69	462
70	26
71	1
72	1
74	2
75	2
76	4
77	75
78	6
79	2
80	1
81	0
82	0
84	0
85	1
86	0
87	1
88	0
89	0
90	2
91	17
92	52
93	999
94	89
95	10
96	8
97	37
98	2
99	0
100	0
102	0
103	2
104	5
105	1
106	5
107	0
108	0
109	0
110	0
111	1
112	0
113	0
115	2
116	1
117	6
118	4
119	10
120	16
121	0
122	1
124	0
126	0
127	0
128	1
129	0
130	6
131	1
132	8
133	2
134	0
135	0
136	1
137	1
140	0
141	0
142	0
143	0
144	2
145	0
146	2
147	2
148	20
149	2
151	0
152	0
153	1
154	0
156	1
157	1
158	1
159	1
160	2
161	1
163	1
166	0
167	1
168	0
170	0
171	1
172	1
173	2
174	0
175	1
176	1
177	0
178	0
179	0
181	0
186	0
187	3
188	4
189	135
190	17
191	2
192	0
193	1
