Mass Spectrum: 1-Oxaspiro[4.4]nonan-4-one, 2-isopropyl-
Formula: C11H18O2
CAS: 34003-75-3
Molecular weight: 182
m/z	intensity
31	30
32	20
37	10
38	20
39	370
40	110
41	700
42	350
43	330
44	540
45	20
46	5
48	10
50	20
51	40
52	30
53	150
54	155
55	470
56	300
57	90
58	30
59	10
60	10
62	10
63	10
64	10
65	50
66	40
67	540
68	120
69	80
70	999
71	180
72	20
73	60
74	15
77	30
78	10
79	40
80	20
81	100
82	400
83	190
84	270
85	380
86	50
91	20
92	10
93	20
94	10
95	210
96	30
97	60
98	100
99	50
100	10
105	10
107	10
108	10
109	30
110	10
111	40
112	20
113	50
114	10
119	10
121	10
123	10
125	15
126	10
127	10
135	10
137	15
138	10
139	20
140	60
141	10
147	10
149	15
151	15
152	10
153	10
154	90
155	15
165	10
180	30
181	10
182	50
183	10
