Mass Spectrum: 1-((4-Methylphenyl)sulfonylamino)-4,5,6,7(1H)-tetrahydrobenzo(d)triazole
Formula: C13H16N4O2S
CAS: 3400-05-3
Molecular weight: 292
m/z	intensity
67	270
79	649
80	239
81	920
82	208
91	589
92	110
95	130
108	69
109	999
123	30
137	50
139	390
140	317
155	40
175	9
185	9
264	19
292	19
293	29
