Mass Spectrum: Ethyl 3,3,3-trifluoro-2-(2-fluoroanilino)-2-nicotinamidopropionate
Formula: C17H15F4N3O3
CAS: 340032-48-6
Molecular weight: 385
m/z	intensity
33	1
37	1
38	4
39	10
40	8
41	7
42	2
43	6
44	12
45	3
46	1
47	2
48	1
49	2
50	28
51	127
52	23
53	7
54	2
55	6
57	15
58	1
59	1
60	1
61	2
63	9
64	11
65	4
66	2
67	1
69	20
70	4
71	3
72	1
73	2
74	3
75	19
76	9
78	402
79	29
80	3
81	3
82	4
83	24
84	16
85	2
88	1
89	1
90	7
91	8
92	2
93	2
94	9
95	49
96	8
97	1
98	1
101	1
102	5
103	3
106	999
107	58
108	4
109	4
110	13
111	104
112	9
113	1
114	1
115	1
116	1
117	2
118	1
119	1
120	1
121	7
122	47
123	6
124	1
126	1
127	1
133	1
134	1
135	2
136	3
137	5
138	1
140	2
144	1
145	1
147	1
148	1
149	1
150	9
151	2
152	1
163	2
166	1
167	3
168	1
170	1
171	3
172	1
184	1
185	2
186	4
187	19
188	5
190	62
191	9
192	1
194	1
196	1
197	1
199	1
203	1
205	3
206	1
207	1
208	4
212	2
215	1
216	1
217	1
219	6
233	1
242	1
246	1
255	1
262	1
263	23
264	4
275	2
283	1
294	1
295	1
309	2
310	3
312	156
313	21
314	3
315	1
316	6
317	1
382	1
383	1
385	30
386	6
387	1
