Mass Spectrum: 3,3,3-Trifluoro-N-(4-methyl-2-pyridyl)-2-(trifluoromethyl)propionamide
Formula: C10H8F6N2O
CAS: 340034-10-8
Molecular weight: 286
m/z	intensity
33	82
35	21
37	75
39	999
41	271
42	255
44	236
45	32
46	15
48	17
49	36
51	80
52	49
53	130
54	213
56	79
57	156
59	2
60	12
61	4
63	27
64	29
65	119
67	32
69	202
70	56
71	44
72	21
73	8
74	3
75	8
77	23
78	23
79	110
81	102
82	30
83	34
84	36
85	30
87	4
91	62
92	93
93	15
94	5
95	9
96	11
97	13
98	8
99	4
100	5
101	1
102	1
103	2
104	14
106	6
108	256
110	9
112	25
113	18
114	2
115	1
119	3
120	4
122	1
124	11
125	12
126	2
127	2
128	4
129	1
132	7
135	106
139	1
142	2
145	1
148	1
149	2
151	1
155	1
157	3
158	2
167	1
168	3
171	9
179	15
196	1
197	3
199	4
211	1
217	26
218	9
227	2
241	1
246	8
283	1
284	3
286	60
287	7
