Mass Spectrum: Benzamide, N-[2,2,2-trifluoro-1-trifluoromethyl-1-(3-fluorophenylamino)ethyl]-
Formula: C16H11F7N2O
CAS: 340031-20-1
Molecular weight: 380
m/z	intensity
33	3
34	2
36	1
37	3
38	7
39	19
40	32
41	15
42	5
43	13
44	24
45	2
46	2
49	2
50	36
51	105
52	11
53	6
54	2
55	16
56	9
57	29
58	2
59	1
60	2
62	6
63	11
64	6
65	6
66	3
67	5
68	5
69	26
70	10
71	8
72	2
74	14
75	45
76	36
77	415
78	34
79	6
80	3
81	8
82	9
83	39
84	17
85	3
87	1
88	1
89	2
90	2
91	5
92	5
93	4
94	11
95	160
96	18
97	4
98	2
99	1
100	1
101	1
102	2
103	10
105	999
106	68
107	6
108	3
109	4
110	19
111	63
112	9
113	3
114	1
115	1
116	1
117	1
119	1
120	3
121	14
122	7
123	3
124	1
125	1
128	1
129	2
130	1
131	1
134	1
135	1
136	2
137	7
138	1
139	1
142	2
143	1
144	1
145	2
146	1
147	1
149	2
150	1
152	2
153	1
155	2
157	1
159	1
163	1
165	1
166	1
167	1
170	1
171	6
172	1
181	1
185	3
186	2
187	1
188	2
190	237
191	19
192	3
196	1
201	1
203	1
205	12
206	2
207	1
208	2
211	1
214	1
215	2
220	1
223	1
233	1
236	1
238	1
240	2
241	1
250	1
255	2
256	1
257	10
259	250
260	27
261	1
268	1
270	4
271	1
276	1
283	1
301	1
308	1
309	1
311	39
312	6
360	3
361	1
380	93
381	16
382	2
