Mass Spectrum: Furazan-3-amine, 4-[4-isopropoxycarbonyl-5-(4-thiomorpholylmethyl)-1H-1,2,3-triazol-1-yl]-
Formula: C13H19N7O3S
CAS: 340014-38-2
Molecular weight: 353
m/z	intensity
33	1
35	3
37	0
38	4
39	14
41	72
42	86
43	114
44	11
45	24
46	16
47	6
48	1
49	0
50	0
51	2
52	13
53	22
54	35
55	29
56	40
57	8
58	7
59	22
60	34
61	19
62	1
64	8
65	5
66	11
67	11
68	13
69	13
70	11
71	3
72	3
73	7
74	14
75	22
76	2
77	4
78	8
79	11
80	17
81	9
82	7
83	5
84	8
85	7
86	10
88	186
89	8
90	7
91	2
92	4
93	10
94	9
95	9
96	6
97	6
98	6
99	3
100	9
101	21
102	82
103	8
104	9
105	6
106	5
107	14
108	17
109	10
110	7
111	3
112	4
114	21
116	999
118	93
119	8
120	7
121	14
122	9
123	8
124	9
125	5
126	7
127	8
128	3
129	2
130	1
131	1
132	2
133	13
134	16
135	12
136	10
137	8
138	8
139	5
140	13
141	3
142	1
143	0
144	0
145	1
146	2
147	4
148	7
149	7
150	7
151	14
152	13
153	9
154	8
155	8
156	4
157	1
158	0
159	1
161	10
162	13
163	11
164	8
165	17
166	6
167	4
168	2
169	1
170	1
171	1
172	1
173	1
174	2
175	5
176	4
177	2
178	5
179	8
180	19
181	29
182	17
183	7
184	6
185	1
186	0
188	1
189	4
190	2
191	8
192	5
193	5
194	7
195	3
196	2
197	3
199	17
200	2
201	1
202	0
203	0
204	1
205	3
206	3
207	21
208	47
209	37
210	11
211	9
212	1
213	0
215	0
218	0
219	1
220	3
221	3
222	7
223	3
224	3
225	7
226	7
227	10
228	1
229	0
231	0
232	0
233	2
235	20
236	4
237	6
238	47
239	8
240	3
241	0
242	0
248	4
250	9
251	8
252	2
253	5
254	1
255	0
263	1
264	2
265	7
266	3
268	5
269	1
270	0
279	8
280	14
282	25
283	10
284	2
294	35
295	8
296	2
297	0
308	1
310	7
311	1
312	0
325	5
326	0
327	0
338	0
339	0
353	69
354	11
355	4
356	0
