Mass Spectrum: Cyclohexanecarboxamide, N-[5-(4-fluorobenzyl)-1,3,4-thiadiazol-2-yl]-
Formula: C16H18FN3OS
CAS: 340006-79-3
Molecular weight: 319
m/z	intensity
33	4
39	52
41	177
43	22
45	12
46	1
47	0
48	0
49	0
50	3
51	10
52	3
53	25
55	396
56	15
57	11
58	7
59	5
60	4
61	0
62	2
63	5
64	2
65	5
67	39
68	7
69	8
70	3
71	1
72	1
73	1
74	12
75	19
77	20
79	19
81	45
83	999
84	53
86	3
87	1
88	2
89	5
90	1
91	1
92	1
93	2
95	9
96	6
97	0
98	0
99	1
100	2
101	16
102	1
103	2
105	31
107	23
109	246
110	67
111	138
112	9
114	6
115	1
116	0
117	0
119	2
120	8
121	8
122	2
123	1
124	0
125	0
126	1
127	2
128	1
129	1
131	0
132	1
134	17
135	6
136	1
137	0
139	8
140	8
141	2
142	1
146	0
147	0
148	0
149	1
150	17
151	8
152	16
153	38
154	4
155	1
156	2
161	0
162	0
163	1
164	0
165	1
167	53
168	5
169	2
170	0
171	0
176	0
177	1
180	0
182	0
183	0
184	11
185	5
186	1
187	0
190	0
192	0
193	0
194	0
195	0
208	6
209	53
210	226
211	28
212	10
213	0
217	0
221	3
222	0
223	0
234	0
236	21
237	1
238	1
239	0
245	0
249	0
251	0
256	0
258	0
262	0
263	0
264	2
265	0
275	1
276	0
277	0
278	0
282	0
284	0
285	15
286	4
287	0
288	0
290	0
291	4
299	0
300	0
301	0
302	1
304	0
312	2
313	3
314	0
319	226
320	39
321	11
322	1
323	0
