Mass Spectrum: Propanamide, 2,3,3,3-tetrafluoro-2-(heptafluoropropyl)-N-[4-(6-methoxy-3-pyridazinylaminosulfonyl)phenyl]-
Formula: C17H11F11N4O5S
CAS: 340035-18-9
Molecular weight: 592
m/z	intensity
34	0
36	1
37	9
38	37
39	100
40	61
41	36
42	24
43	50
44	23
45	8
47	15
48	6
50	37
51	40
52	350
53	447
54	61
55	22
56	4
57	18
58	7
59	1
60	1
61	5
62	11
63	66
64	92
65	212
66	30
67	21
69	999
70	35
71	6
72	1
73	0
74	6
75	27
76	94
77	35
78	29
79	57
80	397
81	235
82	21
83	12
84	8
85	5
86	1
87	0
88	2
89	8
90	64
91	224
92	304
93	60
94	25
95	42
96	69
97	23
98	7
99	3
100	49
101	6
102	20
103	6
104	4
105	42
106	49
107	50
108	203
109	71
110	13
111	30
112	16
113	6
114	5
115	5
116	5
117	13
118	42
119	249
120	49
121	35
122	29
123	16
124	101
125	79
126	19
127	4
128	9
129	5
130	4
131	14
132	12
133	11
134	10
135	4
136	3
137	7
138	12
139	44
140	81
141	52
142	12
143	16
144	19
145	36
146	40
147	7
148	3
149	11
150	48
151	8
152	9
153	50
154	27
155	15
156	66
157	32
158	20
159	8
160	6
161	3
162	2
163	8
164	12
165	2
166	29
167	5
168	73
169	270
170	62
171	40
172	164
173	16
174	11
175	3
176	3
177	0
178	0
180	1
182	7
183	9
184	24
185	15
186	7
188	135
189	23
190	36
191	44
192	4
195	2
196	3
197	1
198	15
199	28
200	33
201	10
202	1
203	0
205	1
206	3
210	2
211	2
213	8
214	67
215	979
216	397
217	46
218	99
219	13
220	2
224	1
225	125
226	18
227	3
229	2
232	4
238	7
241	98
242	30
243	9
255	0
256	1
264	4
272	3
273	1
280	39
281	5
283	1
285	0
291	13
293	3
299	3
307	26
308	3
310	1
313	18
314	1
321	4
323	8
339	3
341	15
342	4
343	12
344	2
404	40
405	6
420	8
452	5
457	3
468	8
473	5
479	2
507	1
509	5
527	728
528	190
529	23
530	1
543	2
573	20
574	3
575	3
591	0
592	57
593	9
594	1
