Mass Spectrum: Cyclopentane carboxylic acid hydrazide
Formula: C6H12N2O
CAS: 3400-07-5
Molecular weight: 128
m/z	intensity
41	598
42	33
43	34
44	11
45	4
49	7
50	3
51	8
52	3
53	25
54	9
55	62
56	10
57	26
58	5
59	8
62	1
63	3
64	0
65	16
66	6
67	63
68	31
69	999
70	68
71	21
72	2
73	0
77	0
81	0
82	2
83	4
84	8
85	10
86	6
87	35
88	1
95	2
96	29
97	312
98	21
99	5
100	2
105	1
111	1
113	2
127	4
128	116
129	11
130	1
