Mass Spectrum: N-[2,2,2-Trifluoro-1-(2-pyrimidinylamino)-1-(trifluoromethyl)ethyl]nicotinamide
Formula: C13H9F6N5O
CAS: 340032-78-2
Molecular weight: 365
m/z	intensity
34	4
36	2
37	7
38	21
39	37
40	74
41	46
42	43
43	30
44	33
45	3
46	1
47	7
48	2
49	17
50	111
51	309
52	103
53	101
54	9
55	9
56	6
57	12
59	1
61	2
62	2
63	3
64	3
65	5
66	9
67	33
68	97
69	73
70	7
71	7
73	2
74	2
75	12
76	28
78	640
79	302
80	19
81	3
82	2
83	5
84	5
85	1
87	2
89	1
91	6
92	8
93	4
95	200
96	21
97	4
99	1
100	3
101	2
102	5
103	6
104	15
106	999
107	61
108	5
111	2
112	4
114	8
115	3
119	2
120	5
121	27
122	60
123	6
124	1
126	1
128	1
131	2
132	1
133	1
135	1
141	3
142	6
144	3
145	3
147	1
149	1
151	1
153	1
155	3
156	2
157	1
162	1
165	1
170	2
171	13
172	6
173	2
174	57
175	5
176	5
184	1
191	1
192	5
194	2
199	10
200	4
201	1
206	2
216	1
220	1
222	3
224	21
225	1
232	2
243	41
244	48
245	4
251	2
252	1
268	1
270	2
271	5
283	1
287	1
288	1
293	2
294	3
296	232
297	27
298	3
322	7
364	1
365	47
366	8
