Mass Spectrum: Propanamide, 2,3,3,3-tetrafluoro-2-[2-(perfluoropropoxy)perfluoropropoxy]-N-(1,2,4-triazol-3-yl)-
Formula: C11H3F17N4O3
CAS: 340132-29-8
Molecular weight: 562
m/z	intensity
33	48
34	3
39	0
40	62
41	23
42	137
43	44
44	11
45	1
46	4
47	17
49	0
50	14
51	8
53	34
54	54
55	32
56	29
57	4
58	0
60	0
62	2
65	0
68	265
69	698
70	11
71	1
73	1
75	3
76	4
77	5
78	9
79	0
80	1
81	11
82	0
83	21
84	37
85	3
86	1
87	0
90	1
91	15
92	13
93	3
95	22
96	8
97	22
98	1
100	109
101	3
103	2
104	2
105	1
106	15
107	1
108	5
109	29
111	999
113	54
114	0
115	0
116	0
117	4
119	109
120	4
121	12
122	2
123	7
126	1
128	30
129	3
131	24
133	97
134	4
135	1
136	2
137	0
138	1
141	15
142	2
143	0
147	33
148	0
150	43
152	2
153	0
154	1
155	2
156	3
158	2
159	0
161	2
162	0
163	30
164	1
166	0
167	4
169	500
170	15
171	0
172	0
176	0
179	0
180	4
182	11
183	49
184	2
185	0
186	0
187	0
188	14
189	4
190	0
191	8
192	0
194	0
199	0
201	5
202	3
203	0
207	12
209	0
211	47
212	3
213	1
214	1
217	1
219	4
220	1
232	1
236	0
252	1
257	1
263	1
277	18
278	0
279	3
288	0
293	0
299	0
307	2
321	0
331	2
335	11
351	1
357	0
377	53
378	4
379	0
398	0
418	0
443	32
444	3
445	3
465	1
493	5
495	0
507	4
515	0
540	0
543	30
544	4
560	2
562	159
563	18
564	0
