Mass Spectrum: 1,3-Dioxane-2-acethydrazide, 2-methyl-N2-(4-cyanobenzylideno)-
Formula: C15H17N3O3
CAS: 340176-17-2
Molecular weight: 287
m/z	intensity
37	8
38	12
39	29
40	24
41	62
42	103
43	441
44	18
45	1
49	2
50	23
51	20
52	6
54	4
55	9
56	6
57	42
58	92
59	263
60	10
61	22
62	30
63	57
64	16
65	12
69	28
70	5
72	42
73	59
74	24
75	29
76	17
77	9
83	3
84	10
85	130
86	20
88	79
89	60
90	67
91	24
97	2
98	4
99	20
101	999
102	85
103	18
104	6
105	1
108	1
114	30
115	147
117	100
118	48
119	4
123	2
126	17
127	61
128	37
129	44
130	10
131	1
141	9
142	2
143	20
144	184
145	185
146	16
152	2
156	25
158	1
159	1
170	10
171	8
172	11
180	1
184	2
185	1
186	12
188	1
210	7
212	10
214	16
227	1
228	29
229	34
230	13
232	4
257	13
258	4
265	1
268	2
272	64
273	41
287	23
288	1
