Mass Spectrum: 3,3,3-Trifluoro-N-(2-pyrimidinyl)-2-(trifluoromethyl)propionamide
Formula: C8H5F6N3O
CAS: 340137-97-5
Molecular weight: 273
m/z	intensity
33	1
34	1
38	23
39	38
40	253
41	100
42	62
43	78
44	32
45	8
46	4
47	20
50	7
51	33
52	89
53	131
54	13
55	7
56	4
57	6
58	1
59	6
61	1
63	16
64	4
65	9
66	39
67	142
68	606
69	436
70	11
71	16
72	1
73	3
74	5
77	9
79	304
80	17
82	29
83	5
85	2
89	2
91	170
92	7
93	24
95	999
96	48
97	8
99	1
100	5
106	1
107	1
110	4
111	2
113	46
114	1
120	1
121	14
122	153
123	9
129	1
132	5
135	2
136	1
138	2
144	7
148	3
150	1
151	1
156	4
159	26
179	60
180	2
184	20
185	1
204	221
205	19
206	2
214	7
233	2
234	34
235	3
236	1
254	6
273	151
274	10
