Mass Spectrum: 2H-Pyran-5-carboxamide, 2-oxo-N-(2,5-dimethylphenyl)-
Formula: C14H13NO3
CAS: 340295-86-5
Molecular weight: 243
m/z	intensity
33	24
35	7
36	24
37	58
38	215
39	999
40	280
41	114
42	62
43	81
44	78
45	47
46	6
47	2
48	0
50	116
51	219
52	92
53	140
54	26
55	49
56	9
57	20
58	12
59	0
60	5
61	9
62	31
63	96
64	53
65	147
66	70
67	79
68	24
69	25
70	7
71	12
72	5
73	9
74	14
75	25
77	318
78	88
79	103
80	23
81	8
82	11
83	8
84	14
85	7
86	5
87	5
88	10
89	50
90	31
91	210
92	42
93	38
95	283
96	14
97	2
99	8
100	1
101	5
102	16
103	62
104	35
105	58
106	58
107	7
109	1
110	0
111	1
112	3
113	1
115	24
116	20
117	24
118	30
120	192
121	188
123	384
125	65
126	8
127	24
128	21
129	16
130	24
131	16
132	26
133	4
134	0
135	0
136	0
138	1
139	2
140	3
141	7
142	11
143	20
144	27
145	10
146	5
147	1
149	3
153	2
154	21
155	18
156	15
157	10
158	16
159	3
160	4
161	5
166	0
167	4
168	13
169	9
170	27
171	14
172	14
173	7
174	0
181	1
182	4
183	2
184	20
185	2
186	16
187	10
188	0
196	3
197	5
198	29
199	4
200	4
211	4
212	1
213	3
214	6
215	15
224	1
225	3
226	44
227	7
228	12
229	0
242	20
243	94
244	11
