Mass Spectrum: 2,4-Di-t-butyl-6-pyrrolidinomethyl phenol
Formula: C19H31NO
CAS: 340228-42-4
Molecular weight: 289
m/z	intensity
41	363
43	459
47	14
49	5
51	3
53	57
55	133
57	277
63	9
65	40
67	35
70	999
72	378
75	1
76	1
77	64
79	58
81	37
83	10
84	108
86	24
87	11
89	5
91	109
93	25
94	28
97	2
101	29
103	29
105	75
107	29
109	16
113	1
115	109
117	49
119	56
121	32
122	12
124	7
127	20
128	22
129	78
131	32
133	49
135	22
137	24
141	16
142	3
143	17
145	61
147	47
149	35
150	3
152	2
153	3
155	5
157	10
158	3
159	23
161	108
162	15
164	88
165	2
169	3
170	4
171	2
172	6
173	22
175	25
177	20
178	1
185	4
187	17
189	50
191	3
200	4
201	5
202	3
203	242
204	16
205	22
216	4
217	12
219	33
220	2
230	5
232	25
233	5
244	3
246	47
247	19
248	3
257	3
258	2
260	3
271	1
272	11
274	201
275	36
276	2
286	3
287	1
288	14
289	221
290	44
291	5
