Mass Spectrum: L-Valine, N-[N-[1-oxo-3,6-bis[(1-oxodecyl)amino]hexyl]glycyl]-, methyl ester
Formula: C34H64N4O6
CAS: 34020-23-0
Molecular weight: 624
m/z	intensity
39	141
40	36
41	748
42	221
43	805
44	423
45	50
46	14
50	14
51	16
52	11
53	52
54	87
55	632
56	324
57	932
58	183
59	570
60	87
61	14
65	16
66	25
67	192
68	220
69	480
70	999
71	675
72	826
73	197
74	32
75	18
76	9
77	21
78	8
79	39
80	28
81	128
82	155
83	361
84	607
85	334
86	163
87	113
88	70
89	14
90	14
91	36
92	14
93	28
94	65
95	141
96	93
97	115
98	193
99	122
100	107
101	186
102	39
103	14
104	14
105	16
106	11
107	15
108	25
109	70
110	480
111	169
112	675
113	258
114	159
115	56
116	25
117	16
118	14
119	16
120	18
121	24
122	25
123	38
124	73
125	80
126	84
127	612
128	115
129	144
130	141
131	28
132	350
133	38
134	14
135	19
136	14
137	24
138	70
139	84
141	79
142	141
143	80
144	28
145	25
149	28
150	18
151	50
152	66
153	56
154	53
155	169
156	42
157	31
158	18
159	18
162	31
165	19
166	45
167	129
168	31
169	98
170	56
171	45
172	149
173	28
177	18
178	14
179	11
180	19
181	25
182	28
183	31
184	70
185	31
186	28
187	25
188	19
189	355
190	42
191	14
194	16
195	25
196	59
197	28
198	48
199	38
200	14
201	14
203	24
205	16
208	16
209	22
210	32
211	28
212	98
213	42
214	14
215	11
251	16
252	45
253	28
254	28
255	38
256	28
257	28
258	74
259	16
262	16
263	279
264	96
265	79
266	35
267	16
268	24
269	32
270	24
271	24
294	14
295	67
296	42
297	24
298	432
299	81
300	25
301	28
350	9
351	16
352	25
353	11
354	9
355	28
356	9
357	31
358	14
359	9
393	14
394	53
395	66
396	25
400	32
401	9
434	25
435	42
436	66
437	300
438	48
439	24
440	32
441	24
442	14
449	9
450	16
451	42
452	117
453	52
454	28
455	14
456	8
466	16
467	52
468	28
469	101
470	38
471	16
492	14
493	24
494	94
495	42
496	14
497	25
498	9
507	18
508	24
509	9
511	9
512	117
513	42
514	14
547	9
548	18
549	12
550	8
562	11
563	14
564	14
565	36
566	16
567	14
568	9
590	9
591	12
592	16
593	28
594	12
595	9
596	11
597	11
622	9
623	11
624	163
625	70
626	24
627	9
