Mass Spectrum: 1-Butanamine, 4-methoxy-
Formula: C5H13NO
CAS: 34039-36-6
Molecular weight: 103
m/z	intensity
30	999
39	10
40	10
41	50
42	60
43	110
44	30
45	120
55	10
56	10
58	40
70	40
71	50
72	20
73	30
88	200
103	10
