Mass Spectrum: 2-Heptene, 3-methyl-
Formula: C8H16
CAS: 3404-75-9
Molecular weight: 112
m/z	intensity
27	209
29	141
38	10
39	193
40	36
41	874
42	204
43	99
50	15
51	26
52	10
53	88
54	31
55	900
56	167
57	31
65	15
67	78
68	36
69	41
70	999
71	78
77	10
79	10
81	15
82	10
83	177
84	26
112	319
113	26
