Mass Spectrum: Acetamide, N-(3-phenylpropyl)-
Formula: C11H15NO
CAS: 34059-10-4
Molecular weight: 177
m/z	intensity
30	300
31	60
39	70
44	130
45	70
51	80
60	70
65	90
72	999
73	50
77	100
78	70
79	50
86	50
91	330
92	80
103	70
104	100
105	90
115	50
117	340
118	430
177	679
178	110
