Mass Spectrum: Methanone, (2-chloro-5-nitrophenyl)phenyl-
Formula: C13H8ClNO3
CAS: 34052-37-4
Molecular weight: 261
m/z	intensity
18	2
27	3
28	5
30	1
38	1
39	3
50	18
51	67
52	4
53	1
61	1
62	3
63	9
73	2
74	16
75	35
76	30
77	332
78	22
84	3
85	1
86	2
87	2
93	2
94	1
98	3
99	2
100	1
101	1
102	1
104	2
105	999
106	77
107	5
108	1
109	4
110	32
111	4
112	9
113	1
125	2
126	7
128	1
138	51
139	6
140	17
141	1
149	2
150	9
151	12
152	13
153	2
154	1
168	1
175	1
179	1
180	3
184	59
185	5
186	21
187	2
188	1
196	1
214	6
215	3
216	3
217	1
226	2
231	2
233	1
244	4
245	1
246	1
261	233
262	34
263	79
264	10
265	1
