Mass Spectrum: 2-Buten-1-amine, N,N-diethyl-, (E)-
Formula: C8H17N
CAS: 34069-09-5
Molecular weight: 127
m/z	intensity
24	0
25	0
26	0
27	145
28	164
29	227
30	220
31	3
37	1
38	4
39	60
40	8
41	61
42	117
43	23
44	63
45	1
46	1
48	1
49	0
50	3
51	7
52	5
53	34
54	22
55	580
56	146
57	18
58	999
59	34
64	0
65	1
66	1
67	7
68	20
69	8
70	21
71	11
72	69
73	145
74	7
77	0
78	0
79	1
80	6
81	3
82	15
83	3
84	14
85	1
86	212
87	14
93	0
94	1
95	0
96	15
97	5
98	25
99	3
108	1
109	0
110	8
111	1
112	391
113	29
114	1
124	0
125	1
126	40
127	124
128	11
129	0
