Mass Spectrum: 1-Butene, 4-butoxy-
Formula: C8H16O
CAS: 34061-76-2
Molecular weight: 128
m/z	intensity
27	190
28	36
29	442
30	12
31	28
35	0
36	5
37	3
38	7
39	130
40	17
41	388
42	26
43	22
44	17
45	18
46	0
47	0
49	1
50	5
51	9
52	4
53	25
54	18
55	169
56	50
57	999
58	40
59	1
65	0
67	6
68	1
69	4
70	1
71	3
72	5
73	1
80	0
81	0
82	0
83	0
84	1
85	129
86	8
87	117
88	5
89	0
