Mass Spectrum: Carbamic acid, [2-(acetyloxy)-5-chlorophenyl]-, 1-methylethyl ester
Formula: C12H14ClNO4
CAS: 34061-88-6
Molecular weight: 271
m/z	intensity
43	780
44	30
45	999
46	40
78	280
79	20
113	200
114	160
115	100
116	70
142	120
143	930
144	130
145	330
146	40
169	630
170	150
171	230
172	50
187	270
188	30
189	110
190	10
229	300
230	30
231	120
232	10
271	50
272	10
273	20
