Mass Spectrum: Benzene, 1-bromo-4-[(2-phenylethenyl)sulfonyl]-
Formula: C14H11BrO2S
CAS: 3406-64-2
Molecular weight: 322
m/z	intensity
63	70
65	50
76	200
77	510
91	550
102	999
103	560
118	20
119	460
155	60
178	280
179	150
203	90
258	40
322	310
