Mass Spectrum: 3-Hydroxyphenol bis(trifluoroacetate)
Formula: C10H4F6O4
CAS: 34065-72-0
Molecular weight: 302
m/z	intensity
26	7
27	1
28	3
29	1
31	6
37	6
38	26
39	20
40	1
41	4
42	1
44	1
47	1
49	3
50	52
51	36
52	71
53	12
54	5
55	2
57	9
60	1
61	7
62	21
63	86
64	93
65	7
66	6
67	1
69	999
70	11
71	2
73	1
74	6
75	50
76	7
77	2
78	8
79	11
80	65
81	5
82	3
83	107
84	6
85	1
88	1
89	1
90	1
92	181
93	13
94	4
95	38
96	3
97	79
98	2
99	5
101	41
102	12
103	1
107	15
108	45
109	3
111	115
112	8
113	17
114	8
115	1
117	4
119	4
120	2
121	19
122	1
123	6
126	1
129	1
130	9
131	1
132	6
133	20
134	2
136	1
139	38
140	3
141	38
142	3
149	140
150	9
151	1
152	11
153	1
154	1
157	1
160	2
161	30
162	2
168	1
169	1
177	31
178	3
179	1
180	16
181	1
187	1
189	132
190	11
191	2
198	1
204	1
205	15
206	2
207	1
218	1
233	17
234	2
235	3
246	142
247	12
248	1
251	2
255	25
256	2
263	28
264	3
274	4
302	517
303	56
304	7
305	1
