Mass Spectrum: 2-Buten-1-amine, N,N-diethyl-, (Z)-
Formula: C8H17N
CAS: 34069-08-4
Molecular weight: 127
m/z	intensity
25	1
27	297
28	356
29	478
30	432
31	6
36	0
37	2
38	7
39	127
40	16
41	129
42	260
43	50
44	126
45	3
46	1
47	0
48	2
49	1
50	7
51	17
52	11
53	72
54	46
55	999
56	326
57	39
58	978
59	71
60	1
63	0
64	0
65	3
66	3
67	15
68	40
69	18
70	48
71	23
72	138
73	196
74	10
77	1
78	0
79	2
80	11
81	8
82	32
83	7
84	30
85	3
86	411
87	23
88	0
91	0
92	0
93	0
94	3
95	1
96	33
97	9
98	54
99	7
100	1
108	2
109	1
110	20
111	4
112	873
113	68
114	2
124	1
125	4
126	87
127	286
128	26
129	1
