Mass Spectrum: Isothiazole-4-carbonitrile, 3,5-bis[(2-dimemhylamino)ethylthio]-
Formula: C12H20N4S3
CAS: 340816-58-2
Molecular weight: 316
m/z	intensity
33	2
34	1
35	2
36	0
37	0
38	4
39	4
40	10
41	15
42	158
43	46
44	46
45	24
46	16
47	6
48	1
49	0
50	0
51	1
52	2
53	1
54	6
55	9
56	49
58	999
59	51
60	7
61	8
62	1
63	0
64	7
65	1
66	1
67	2
68	2
69	3
70	36
71	101
72	65
73	4
74	1
75	0
76	8
77	4
78	2
79	2
80	0
81	1
82	16
83	6
84	5
85	1
86	2
87	1
88	3
90	7
91	5
92	1
93	1
94	3
95	1
96	2
97	2
98	1
99	1
100	3
101	1
102	7
103	2
104	1
105	1
106	0
108	5
109	8
110	1
111	2
112	0
113	0
114	3
115	2
116	1
117	0
118	0
119	0
120	0
121	0
122	0
123	0
124	0
125	0
126	8
127	1
128	3
129	34
130	3
131	0
132	0
133	0
134	0
135	1
136	0
137	0
138	0
140	3
141	1
142	1
143	0
144	0
145	0
146	0
147	0
148	0
149	0
150	0
151	0
152	0
153	0
154	0
155	1
156	1
157	1
158	3
159	0
160	0
161	0
163	0
164	0
165	0
167	2
168	0
169	1
170	0
171	1
172	0
174	1
175	0
176	0
178	0
179	0
180	0
181	0
182	0
183	0
184	0
185	0
186	0
187	0
188	1
189	0
190	0
191	0
193	0
195	0
198	0
199	0
200	2
201	3
202	0
203	0
205	0
208	0
210	0
211	0
212	2
213	0
214	1
215	13
216	1
217	2
218	1
219	0
220	0
223	0
227	0
229	0
230	0
231	0
232	0
243	0
244	0
245	1
246	0
247	0
258	4
259	1
260	0
261	0
269	0
272	0
273	0
274	0
283	0
315	2
316	1
317	0
318	0
