Mass Spectrum: 9,10-Ethenoanthracene, 9,10-dihydro-9-methyl-11,12-dibenzoyl-
Formula: C31H22O2
CAS: 34086-31-2
Molecular weight: 426
m/z	intensity
26	1
27	9
28	10
29	9
30	1
31	4
32	1
35	0
36	0
38	0
39	8
40	1
41	13
42	4
43	9
44	15
45	2
47	0
50	3
51	24
52	2
53	2
54	5
55	6
56	6
57	47
58	4
59	0
60	0
63	2
64	0
65	1
66	0
67	11
68	1
69	2
70	1
71	7
72	3
73	1
74	1
75	2
76	4
77	233
78	15
79	1
81	3
82	22
83	3
84	0
85	1
86	0
87	1
88	0
89	1
91	3
92	0
93	0
94	0
95	1
96	1
97	1
98	0
99	2
100	2
101	1
102	0
103	0
104	1
105	999
106	78
107	5
108	0
109	0
110	0
111	0
112	0
113	1
114	0
115	3
117	2
119	1
121	0
123	0
125	1
126	1
127	1
128	0
129	5
130	0
137	1
138	2
139	3
141	0
144	0
145	1
146	0
149	1
150	3
151	4
152	5
153	1
157	0
159	0
160	0
161	0
162	2
163	7
164	4
165	35
166	6
167	1
174	1
175	2
176	6
177	2
178	5
179	2
180	0
181	1
182	1
183	0
186	0
187	4
188	4
189	47
190	28
191	169
192	431
193	72
194	5
195	0
198	0
199	7
200	8
201	8
202	9
203	2
204	0
205	1
206	1
207	1
209	0
211	1
212	1
213	12
214	5
215	37
216	27
217	5
218	1
219	1
221	0
224	0
225	0
226	1
227	0
228	0
229	3
230	1
233	0
234	0
237	1
239	0
242	1
243	10
244	2
245	0
248	0
249	0
250	1
251	0
252	2
253	0
261	1
262	0
263	1
264	0
265	1
266	0
267	0
268	1
273	0
274	3
275	2
276	15
277	9
278	17
279	5
280	0
281	0
285	0
286	0
287	3
288	1
289	9
290	3
291	4
292	2
293	20
294	5
295	0
300	1
301	1
302	4
303	7
304	8
305	11
306	7
307	2
317	0
318	1
319	2
320	13
321	190
322	51
323	7
324	1
325	0
326	1
327	1
328	1
329	0
330	1
331	0
333	1
335	0
350	0
364	0
365	0
398	0
408	0
410	0
411	1
425	1
426	186
427	64
428	11
429	1
