Mass Spectrum: 4H-Pyran-3-carboxylic acid, 6-amino-5-cyano-4-(3-fluorophenyl)-2-propyl-, ethyl ester
Formula: C18H19FN2O3
CAS: 340807-64-9
Molecular weight: 330
m/z	intensity
33	79
34	23
36	9
37	3
39	307
40	209
41	464
43	999
44	459
45	62
46	3
50	55
51	86
52	59
53	120
54	27
55	135
56	43
57	135
62	37
63	65
64	35
65	88
66	108
67	83
68	40
69	101
70	86
71	322
72	13
73	3
74	38
75	135
76	55
77	65
78	35
79	69
80	8
81	26
83	28
84	29
87	27
88	16
89	42
90	34
91	64
92	19
93	42
94	72
95	231
96	46
97	32
99	34
100	14
101	58
102	14
104	19
105	36
106	33
107	37
108	5
109	41
112	21
113	52
115	35
116	45
117	21
118	45
119	40
120	87
121	68
122	24
123	15
124	6
125	26
126	31
127	41
128	21
130	7
131	20
132	35
133	110
134	95
135	15
138	5
139	16
140	11
141	11
144	72
145	62
146	99
147	66
148	19
149	41
150	14
151	18
152	26
153	8
155	10
157	46
158	72
159	32
161	205
162	95
163	24
164	10
165	19
166	12
170	26
171	52
172	73
173	35
174	15
176	20
177	11
178	6
182	5
183	17
184	39
185	16
186	12
187	6
189	152
190	134
191	36
198	15
199	12
200	8
203	6
204	11
205	4
206	4
207	38
208	3
212	17
213	25
214	9
218	18
219	3
221	151
222	19
226	11
227	21
228	82
229	13
233	27
235	749
236	104
237	7
240	8
241	63
255	16
256	7
257	60
258	5
259	4
283	8
284	15
285	24
287	52
289	4
300	10
301	115
302	17
316	10
318	3
330	89
331	11
