Mass Spectrum: Clocortolone pivalate
Formula: C27H36ClFO5
CAS: 34097-16-0
Molecular weight: 494
m/z	intensity
35	1
36	7
37	1
38	2
39	19
40	3
41	175
42	20
43	74
44	8
45	4
49	1
50	3
51	5
52	3
53	25
54	7
55	123
56	22
57	999
58	44
59	8
60	6
61	5
63	2
64	1
65	24
66	6
67	101
68	15
69	207
70	25
71	22
72	2
73	15
74	2
75	4
76	1
77	60
78	9
79	81
80	16
81	48
82	33
83	66
84	15
85	247
86	12
87	7
88	2
89	8
90	2
91	124
92	15
93	109
94	32
95	143
96	27
97	30
98	10
99	12
100	4
101	20
102	4
103	21
104	8
105	62
106	11
107	93
108	34
109	143
110	21
111	22
112	4
113	10
114	4
115	67
116	18
117	31
118	8
119	50
120	14
121	128
122	23
123	25
124	9
125	17
126	5
127	33
128	46
129	66
130	22
131	99
132	21
133	76
134	58
135	81
136	13
137	38
138	12
139	414
140	103
141	38
142	14
143	62
144	27
145	72
146	29
147	64
148	13
149	58
150	13
151	17
152	44
153	30
154	13
155	34
156	10
157	41
158	38
159	135
160	30
161	34
162	16
163	34
164	8
165	76
166	17
167	19
168	8
169	35
170	14
171	69
172	14
173	27
174	7
175	21
176	8
177	33
178	39
179	32
180	11
181	22
182	10
183	24
184	10
185	42
186	11
187	30
188	6
189	26
190	9
191	25
192	10
193	20
194	10
195	34
196	15
197	34
198	9
199	21
200	7
201	11
202	8
203	16
204	6
205	26
206	7
207	19
208	13
209	26
210	8
211	24
212	7
213	13
214	4
215	9
216	6
217	7
218	5
219	10
220	6
221	50
222	24
223	31
224	9
225	19
226	7
227	11
228	3
229	9
230	3
231	5
232	2
233	4
234	4
235	21
236	12
237	14
238	7
239	13
240	5
241	18
242	5
243	7
244	2
245	5
246	3
247	5
248	5
249	10
250	4
251	92
252	22
253	17
254	7
255	9
256	5
257	8
258	3
259	6
260	4
261	7
262	18
263	9
264	4
265	5
266	3
267	18
268	6
269	5
271	20
272	4
273	6
274	2
275	5
276	2
277	71
278	19
279	8
280	3
281	2
282	28
283	9
284	1
286	1
287	4
288	1
289	3
290	1
291	1
292	1
293	2
294	2
295	14
296	4
297	43
298	10
299	4
300	1
301	2
302	1
303	3
304	2
305	5
306	1
307	1
310	2
311	1
313	20
314	3
315	9
316	1
317	1
318	2
319	1
320	1
321	2
322	1
323	3
324	1
325	2
326	1
327	3
328	1
329	1
332	1
333	66
334	14
335	22
336	8
337	2
338	2
339	2
340	1
341	1
342	1
343	8
344	3
345	2
346	1
347	1
351	1
353	2
354	8
355	3
356	7
357	2
361	4
362	1
363	2
369	1
371	1
374	13
375	4
376	1
377	1
379	64
380	16
381	24
382	5
383	1
392	1
393	1
397	1
398	1
410	2
412	1
416	1
423	1
424	1
425	1
426	1
427	1
436	1
437	1
438	2
439	1
440	2
441	1
445	1
446	2
458	25
459	10
460	3
461	1
494	1
495	1
