Mass Spectrum: Propanenitrile, 3-(6-bromo-3,4-methylenedioxybenzylidenhydrazino)-3-oxo-
Formula: C11H8BrN3O3
CAS: 340994-44-7
Molecular weight: 309
m/z	intensity
33	4
34	6
37	68
38	111
40	999
41	161
42	198
43	86
44	94
45	3
48	0
49	47
50	277
51	113
52	69
53	185
54	19
55	30
56	4
57	4
61	139
62	243
63	142
64	30
65	21
66	15
68	436
69	32
70	1
71	0
73	52
74	265
75	472
76	211
77	117
78	48
79	56
80	25
81	18
82	15
85	0
86	6
87	16
88	81
89	34
90	58
91	13
92	6
93	8
95	0
99	11
100	1
101	1
103	64
104	94
105	75
106	40
107	12
109	0
112	0
115	0
116	4
117	11
118	4
119	24
120	4
121	1
128	1
129	3
130	2
131	18
133	256
134	55
135	3
136	2
137	0
141	19
143	39
145	18
146	14
147	12
148	1
154	0
155	7
156	6
157	5
158	4
159	1
161	111
162	97
163	42
164	3
168	1
169	2
170	1
171	1
172	0
183	14
184	0
185	15
199	1
201	2
211	1
213	1
223	0
224	87
225	186
226	102
227	178
228	22
