Mass Spectrum: Methyl phenylsulfonylacetate
Formula: C9H10O4S
CAS: 34097-60-4
Molecular weight: 214
m/z	intensity
12	2
14	14
15	74
17	3
18	4
26	3
27	26
29	41
30	5
31	9
33	1
37	2
38	7
39	41
40	3
41	7
42	99
43	25
44	5
45	51
47	3
48	6
49	3
50	104
51	327
52	21
53	14
57	14
58	3
59	23
61	2
62	5
63	11
64	8
65	47
66	5
69	7
71	2
73	8
74	27
75	22
77	999
78	98
79	19
81	4
82	2
83	2
89	6
90	10
91	278
92	21
93	6
94	19
95	3
97	28
98	2
99	2
105	6
106	4
107	4
108	19
109	3
118	12
119	1
121	3
123	1
125	30
126	2
127	2
135	2
137	2
138	2
141	368
142	36
143	18
144	3
150	316
151	28
152	2
156	2
172	29
173	6
183	44
184	5
185	2
214	10
215	2
