Mass Spectrum: Carbamic acid, N-(4-chlorophenyl)-, decyl ester
Formula: C17H26ClNO2
CAS: 340968-62-9
Molecular weight: 311
m/z	intensity
33	52
34	9
35	7
36	21
37	18
38	49
39	180
40	144
41	751
42	232
43	999
44	88
45	30
46	8
47	16
48	5
50	63
51	50
52	49
53	63
55	656
56	181
57	731
59	87
60	20
61	29
62	43
63	114
64	63
65	59
66	20
67	85
69	291
70	119
71	304
73	95
74	29
75	79
76	34
77	41
78	29
79	66
81	69
82	72
83	145
85	310
87	59
88	19
89	36
90	85
91	67
92	32
93	33
94	1
95	30
96	34
97	86
99	253
100	35
101	73
102	9
103	9
104	13
105	20
106	11
107	4
108	6
109	6
110	26
111	88
112	36
113	28
114	3
115	11
117	4
118	8
119	10
120	12
121	8
123	11
125	113
126	270
127	741
129	340
130	17
131	3
132	3
133	3
134	3
135	10
136	4
137	5
138	11
139	17
140	89
142	37
143	4
149	1
150	6
153	135
154	96
155	44
156	24
157	5
165	1
166	4
167	6
168	19
171	327
172	95
173	80
174	25
175	5
178	1
180	1
182	12
183	4
184	12
185	62
186	9
187	17
196	6
197	2
204	0
210	6
212	1
224	5
238	5
252	1
254	1
280	3
282	6
283	11
284	3
311	133
312	23
313	35
314	4
