Mass Spectrum: N-(Ethylthio)thiocarbonyl-l-alanine
Formula: C6H11NO2S2
CAS: 34101-08-1
Molecular weight: 193
m/z	intensity
12	1
13	1
14	3
15	18
17	6
18	11
25	4
26	42
27	240
28	197
29	270
30	9
31	4
32	20
33	10
34	32
35	36
36	2
37	2
38	3
39	4
40	9
41	9
42	101
43	69
44	194
45	151
46	45
47	146
48	5
49	6
51	2
52	4
53	3
54	11
55	64
56	21
57	24
58	49
59	128
60	216
61	82
62	277
63	18
64	14
65	3
66	2
70	13
71	13
72	10
73	58
74	50
75	3
76	23
77	99
78	13
79	9
80	1
82	1
83	2
84	19
85	19
86	999
87	73
88	108
89	10
90	2
91	3
92	11
93	11
94	2
95	1
99	1
100	5
103	14
104	55
105	67
106	18
107	6
108	1
112	2
113	37
114	6
115	4
116	6
118	23
119	18
120	8
121	5
130	8
131	441
132	181
133	31
134	9
136	2
141	1
146	2
147	26
148	9
149	3
150	1
159	1
160	9
161	1
164	6
165	214
166	14
167	19
168	1
175	1
176	1
177	1
192	1
193	508
194	44
195	49
196	3
197	1
