Mass Spectrum: Cyclopentanecarboxylic acid, 3,3-dimethyl-4-oxo-
Formula: C8H12O3
CAS: 34108-23-1
Molecular weight: 156
m/z	intensity
25	12
27	99
28	24
29	64
30	5
31	6
37	5
38	14
39	160
40	51
41	343
42	49
43	54
44	16
45	41
46	4
47	3
49	3
50	10
51	20
52	10
53	54
54	18
55	286
56	681
57	599
58	35
59	23
60	7
61	3
62	4
63	8
64	3
65	16
66	10
67	64
68	33
69	68
70	40
71	28
72	146
73	105
74	7
75	3
76	2
77	10
78	3
79	14
80	4
81	27
82	26
83	89
84	12
85	8
86	10
87	5
88	3
89	3
91	4
92	3
93	20
94	9
95	34
96	8
97	12
98	3
99	19
100	999
101	51
102	9
104	2
105	3
109	11
110	13
111	22
112	5
113	21
114	9
115	3
121	2
122	2
123	12
124	3
125	3
127	4
128	20
129	4
137	3
138	10
139	8
141	13
142	3
156	338
157	34
158	6
