Mass Spectrum: 2,4-Dichlorophenoxyacetic Acid, TMS derivative
Formula: C11H14Cl2O3Si
CAS: 34113-76-3
Molecular weight: 292
m/z	intensity
14	1
15	3
27	2
28	3
29	9
30	1
31	3
36	1
37	2
38	2
39	2
41	1
42	12
43	29
44	15
45	81
46	6
47	31
48	2
49	3
50	8
51	5
52	1
53	3
54	1
55	5
56	2
57	6
58	21
59	25
60	7
61	19
62	12
63	37
64	2
65	8
66	1
67	2
70	3
71	3
72	40
73	999
74	115
75	254
76	19
77	15
78	2
79	10
80	1
81	4
83	5
84	6
85	8
86	3
87	4
88	13
89	11
90	2
91	3
92	1
93	95
94	8
95	46
96	4
97	14
98	7
99	5
100	3
101	22
102	3
103	7
104	2
105	8
106	1
107	9
108	2
109	51
110	15
111	41
112	11
113	12
114	3
115	5
116	21
117	22
118	3
119	3
121	2
123	2
124	1
125	11
126	6
127	4
128	2
129	3
130	6
131	4
133	52
134	4
135	33
136	2
137	6
139	9
141	3
142	1
143	1
144	1
145	48
146	5
147	36
148	7
149	8
150	1
151	1
153	1
154	1
155	4
156	1
157	1
159	57
160	5
161	57
162	9
163	21
164	4
165	3
166	1
167	3
168	1
169	8
170	3
171	3
172	1
173	5
174	1
175	8
176	1
177	4
178	1
179	1
181	3
182	1
183	21
184	5
185	17
186	4
187	4
188	1
189	3
191	2
195	4
196	1
197	9
198	16
199	6
200	8
201	2
202	1
203	39
204	6
205	26
206	4
207	6
208	1
213	30
214	5
215	11
216	2
217	7
218	1
219	31
220	5
221	21
222	3
223	5
224	1
229	4
230	1
231	6
233	80
234	13
235	53
236	8
237	10
238	2
247	1
249	19
250	3
251	13
252	2
253	2
256	3
257	67
258	13
259	24
260	4
261	1
277	5
278	1
279	4
280	1
281	1
292	74
293	12
294	50
295	8
296	10
297	2
