Mass Spectrum: 6,10-Dodecadienoic acid, 3,7,11-trimethyl-, methyl ester, (E)-(S)-
Formula: C16H28O2
CAS: 34114-96-0
Molecular weight: 252
m/z	intensity
15	26
27	41
28	8
29	52
31	1
32	2
39	61
40	14
41	400
42	23
43	61
51	11
52	10
53	69
54	11
55	142
56	14
57	11
58	1
59	97
65	19
66	5
67	176
68	98
69	999
70	66
71	14
72	1
73	61
74	26
77	26
78	13
79	42
80	25
81	180
82	105
83	38
84	1
85	97
86	10
87	11
91	29
92	1
93	73
94	52
95	219
96	66
97	22
98	1
99	8
101	17
103	1
105	16
107	72
108	54
109	894
110	135
111	16
114	7
115	79
116	1
119	2
121	29
122	98
123	372
124	39
125	10
126	1
127	95
128	14
129	13
131	10
133	14
134	10
135	48
136	19
137	26
138	8
139	7
141	11
147	4
149	26
150	11
151	58
152	47
153	30
154	2
159	17
161	2
163	25
164	13
165	13
167	4
177	139
178	41
179	8
181	14
189	1
196	19
203	5
205	8
208	19
209	485
210	73
211	1
220	1
221	2
237	14
238	1
252	42
253	7
