Mass Spectrum: 5-Amino-4-(2-methyl-1,3-dioxolan-2-yl)tropolone
Formula: C11H13NO4
CAS: 34111-18-7
Molecular weight: 223
m/z	intensity
14	1
15	9
17	4
18	1
26	4
27	20
28	28
29	10
30	6
31	7
37	1
38	5
39	19
40	4
41	9
42	11
43	385
44	14
45	40
46	1
50	6
51	17
52	46
53	47
54	20
55	15
56	1
57	1
58	1
60	1
61	2
62	5
63	17
64	7
65	16
66	8
67	8
68	18
69	4
70	1
73	7
74	2
75	2
76	3
77	18
78	14
79	19
80	35
81	17
82	3
83	1
86	2
87	999
88	48
89	10
90	8
91	12
92	6
93	6
94	9
95	5
96	3
97	1
98	1
99	1
100	1
102	1
103	1
104	21
105	7
106	21
107	21
108	64
109	15
110	5
111	2
113	2
116	4
117	4
118	5
119	4
120	7
121	5
122	30
123	11
124	4
125	1
127	1
132	6
133	15
134	20
135	10
136	243
137	41
138	5
139	1
144	4
146	3
147	3
148	5
149	12
150	56
151	124
152	15
153	2
160	3
161	8
162	38
163	6
164	8
165	4
166	1
167	1
176	2
177	6
178	138
179	44
180	181
181	19
182	2
192	1
193	2
194	5
195	18
196	4
197	1
206	34
207	5
208	156
209	18
210	3
222	10
223	833
224	129
225	15
226	2
