Mass Spectrum: 4-Acetyl-3,5,7-tribromotropolone
Formula: C9H5Br3O3
CAS: 34111-15-4
Molecular weight: 398
m/z	intensity
14	4
15	46
25	2
26	3
27	2
28	20
29	8
31	1
36	6
37	30
38	12
39	7
40	2
41	3
42	20
43	999
44	49
45	7
48	3
49	15
50	20
51	14
52	3
53	57
54	2
55	3
57	1
58	1
60	25
61	199
62	153
63	52
64	5
65	4
66	8
67	1
69	2
70	8
71	8
72	5
73	27
74	24
75	15
76	10
77	24
78	4
79	27
80	77
81	28
82	76
83	1
84	19
85	23
86	8
87	6
88	9
89	47
90	183
91	30
92	10
93	5
94	2
95	2
96	1
97	1
98	2
99	2
101	6
102	1
103	3
104	2
105	6
106	2
107	2
109	2
110	4
111	5
112	2
115	5
116	9
117	33
118	9
119	12
120	2
121	2
122	1
123	1
124	11
125	23
126	11
127	1
128	5
129	3
130	4
131	12
132	1
133	10
134	1
135	1
138	1
139	9
140	46
141	98
142	52
143	92
144	13
145	3
146	5
147	1
149	1
150	1
151	1
152	9
153	5
154	9
155	9
156	6
157	7
158	4
159	1
161	1
164	1
166	1
167	2
168	24
169	52
170	43
171	53
172	18
173	4
175	1
177	4
178	10
179	9
180	3
181	2
183	5
184	3
185	5
186	3
187	1
192	1
193	1
194	1
195	5
196	4
197	42
198	9
199	61
200	9
201	25
202	2
211	2
212	5
213	2
214	5
215	1
219	16
220	11
221	45
222	23
223	38
224	10
225	10
226	1
227	1
231	6
232	1
233	11
234	2
235	8
236	1
237	2
239	2
240	2
241	2
242	5
243	2
244	3
245	1
247	6
248	32
249	19
250	65
251	21
252	34
253	8
254	2
259	1
261	3
262	1
263	5
264	2
265	5
266	1
267	2
275	4
276	11
277	263
278	53
279	504
280	69
281	250
282	28
283	2
290	3
291	5
292	7
293	9
294	5
295	5
296	1
299	11
300	2
301	36
302	3
303	36
304	2
305	17
306	1
307	11
308	1
309	6
318	1
319	23
320	46
321	52
322	83
323	33
324	38
325	5
326	1
327	3
328	20
329	9
330	59
331	12
332	55
333	7
334	17
335	1
338	1
340	2
341	1
342	2
343	1
344	2
346	1
355	64
356	194
357	202
358	562
359	229
360	550
361	103
362	182
363	13
364	1
370	6
372	16
373	1
374	16
375	1
376	6
383	18
385	55
386	5
387	52
388	5
389	17
390	1
398	221
399	27
400	649
401	77
402	632
403	73
404	209
405	25
406	2
