Mass Spectrum: L-Cysteine, ethyl ester
Formula: C5H11NO2S
CAS: 3411-58-3
Molecular weight: 149
m/z	intensity
15	78
16	31
17	22
25	5
26	49
27	178
28	103
29	265
30	122
31	25
32	124
33	34
34	54
39	12
40	30
41	59
42	174
43	205
44	93
45	88
46	105
47	85
48	33
50	10
51	7
55	69
56	25
57	32
58	38
59	323
60	25
61	25
65	2
70	1
72	7
73	12
74	321
75	133
76	999
77	61
78	60
86	40
87	13
88	11
102	409
103	37
105	4
109	4
110	1
111	6
115	7
123	9
125	7
132	1
149	10
