Mass Spectrum: m-Ethylbenzonitrile
Formula: C9H9N
CAS: 34136-57-7
Molecular weight: 131
m/z	intensity
14	2
15	10
26	11
27	39
28	5
37	10
38	24
39	62
40	5
41	5
49	7
50	53
51	74
52	20
53	5
61	9
62	28
63	64
64	33
65	17
66	2
73	6
74	24
75	47
76	44
77	57
78	14
79	4
85	2
86	5
87	10
88	22
89	141
90	30
91	9
98	3
99	5
100	6
101	15
102	32
103	92
104	43
105	4
114	11
116	999
117	92
118	4
127	3
128	10
130	81
131	300
132	34
133	2
