Mass Spectrum: .alpha.-D-Glucopyranoside, 1,3,4,6-tetra-O-methyl-.beta.-D-fructofuranosyl 2,3,4-tri-O-methyl-6-O-(2,3,4,6-tetra-O-methyl-.alpha.-D-galactopyranosyl)-
Formula: C29H54O16
CAS: 34141-00-9
Molecular weight: 658
m/z	intensity
45	639
59	70
71	519
75	420
88	979
99	116
101	999
111	440
115	145
127	166
129	24
131	70
143	135
145	155
155	155
159	85
187	839
205	15
219	999
235	71
249	19
275	7
279	7
293	12
305	8
307	9
359	1
391	2
409	12
423	7
483	63
