Mass Spectrum: 1-Deoxy-1-[3-(4-methoxyphenyl)-2-thioureido]-.beta.-d-glucopyranose 2,3,4,6-tetraacetate
Formula: C22H28N2O10S
CAS: 341497-58-3
Molecular weight: 512
m/z	intensity
37	4
39	31
40	22
43	999
44	45
45	26
46	15
50	8
51	10
52	20
53	18
54	7
55	13
56	7
57	9
58	7
60	45
61	9
63	17
64	13
65	9
66	3
67	5
69	21
70	11
71	10
72	10
73	9
74	4
75	3
77	25
78	9
80	38
81	25
82	4
83	9
84	11
85	12
86	5
88	16
89	2
90	4
92	17
93	3
95	16
96	9
97	21
98	9
99	9
100	15
101	5
102	6
103	8
104	2
105	4
106	4
108	120
109	51
110	5
111	3
112	11
113	3
114	4
115	10
116	2
117	1
118	1
119	1
120	2
122	52
123	85
124	17
126	41
127	17
128	2
130	4
131	1
133	10
134	6
135	2
136	1
139	16
140	27
141	5
142	5
143	2
144	2
145	3
146	1
147	2
148	9
149	13
150	14
151	6
152	3
153	1
154	3
155	1
156	1
157	1
159	1
160	1
161	1
162	1
165	91
166	26
168	53
169	18
170	3
171	1
172	1
175	4
176	1
177	1
179	1
181	5
182	3
183	6
184	1
185	1
186	2
187	1
191	1
193	4
196	1
205	1
207	6
208	1
209	5
210	21
211	3
212	1
219	1
222	3
223	2
225	1
228	2
229	1
235	1
247	1
251	2
253	1
270	1
271	1
273	1
274	2
277	1
291	1
293	1
299	1
331	1
333	2
393	1
394	2
452	3
453	1
