Mass Spectrum: 1-Deoxy-1-[3-(1-naphthyl)-2-thioureido]-.beta.-d-glucopyranose 2,3,4,6-tetraacetate
Formula: C25H28N2O9S
CAS: 341497-55-0
Molecular weight: 532
m/z	intensity
36	1
38	22
40	34
43	999
44	39
45	20
46	10
48	1
50	9
51	8
52	5
53	4
55	12
56	5
57	7
58	4
60	30
61	8
63	9
64	2
65	4
69	16
70	8
71	9
72	8
73	9
74	6
75	5
76	5
77	8
78	9
79	2
81	17
82	4
83	5
84	8
85	8
86	4
87	4
88	10
89	4
90	1
91	1
93	3
96	7
97	13
98	7
99	8
100	10
101	7
102	4
103	6
109	49
110	4
111	1
112	8
113	4
115	55
116	8
117	2
124	4
126	33
127	36
128	20
129	3
130	2
133	3
139	5
140	7
141	7
143	94
144	11
145	2
153	8
154	8
155	1
156	1
157	1
158	2
159	4
160	16
161	3
168	36
169	16
170	2
171	1
172	1
185	36
186	15
187	3
193	2
195	2
200	2
201	4
202	1
203	3
210	22
211	3
212	1
227	3
228	2
229	2
242	2
243	1
270	1
271	1
313	2
353	1
413	1
472	2
