Mass Spectrum: Benzaldehyde, 2-chloro-, phenylhydrazone
Formula: C13H11ClN2
CAS: 34158-76-4
Molecular weight: 230
m/z	intensity
33	9
35	4
36	19
39	639
40	53
41	40
43	6
44	3
45	1
50	163
51	323
52	55
53	12
54	12
60	4
61	21
62	49
63	195
65	999
66	319
68	0
70	3
71	1
72	5
73	28
75	340
76	86
77	198
78	25
79	1
80	4
82	0
83	11
85	27
86	22
87	17
89	197
90	59
92	778
93	255
94	9
96	4
97	23
98	2
99	14
100	8
102	122
103	14
104	4
105	3
106	0
107	12
111	125
112	17
113	35
115	14
116	13
117	6
118	16
119	36
123	4
124	9
125	12
126	5
127	7
128	2
129	0
135	1
137	43
138	41
139	83
140	27
141	19
142	2
150	0
151	4
152	7
153	4
154	1
155	2
156	3
158	0
162	0
164	5
165	23
166	27
167	61
168	33
169	5
177	4
178	5
179	2
191	1
192	14
193	42
195	564
196	60
197	4
201	3
202	1
203	2
213	1
214	2
215	0
224	0
226	6
227	25
228	50
230	689
231	112
232	175
233	25
234	0
