Mass Spectrum: Propionitrile, 2-(3-fluorophenylhydrazono)-3-imino-3-(4-morpholyl)-
Formula: C13H14FN5O
CAS: 341500-82-1
Molecular weight: 275
m/z	intensity
33	23
34	1
36	0
37	10
38	35
39	70
40	83
41	153
42	388
43	201
44	125
45	75
46	4
47	0
50	39
51	36
52	40
53	71
54	126
55	190
56	364
57	344
58	97
59	10
60	3
61	7
62	25
63	50
64	23
65	24
66	57
67	140
68	68
69	224
70	57
71	13
72	18
74	52
75	194
76	16
77	10
78	9
79	17
80	40
81	79
82	115
83	311
84	45
85	42
86	165
87	21
88	15
89	16
90	12
91	7
92	10
93	24
95	999
96	82
97	22
98	4
99	3
100	5
101	5
102	3
103	2
105	5
106	11
107	50
108	75
109	85
110	189
111	174
112	17
113	31
114	3
115	2
116	1
117	2
118	4
121	119
122	70
123	94
124	33
125	10
126	2
127	1
128	2
129	2
130	1
131	1
132	3
133	10
135	262
136	34
137	26
138	28
139	3
140	3
141	1
142	1
143	0
144	0
145	2
146	2
147	7
148	6
149	3
150	10
151	45
152	29
153	9
154	2
156	3
157	0
158	0
159	1
160	7
161	17
162	12
165	857
166	68
167	5
168	1
169	1
170	0
171	2
172	2
173	4
174	3
175	2
176	1
177	1
178	1
179	1
180	4
181	0
182	0
185	0
186	1
188	13
189	20
190	6
191	3
192	0
193	0
195	0
196	0
199	0
200	1
201	3
202	4
203	1
204	0
205	1
206	0
212	0
214	0
215	1
216	12
217	5
218	4
219	1
220	0
222	0
227	0
228	1
229	1
230	5
231	2
232	0
244	1
245	3
246	25
247	5
248	0
256	0
257	0
258	0
259	0
270	0
272	1
275	135
276	19
277	1
