Mass Spectrum: Benzaldehyde, 2,4-dichloro-, (4-amino-1,2,4-triazol-3-yl)hydrazone
Formula: C9H8Cl2N6
CAS: 341500-68-3
Molecular weight: 270
m/z	intensity
33	6
35	109
36	388
38	201
39	21
40	11
41	27
42	90
43	300
44	11
45	5
47	6
48	3
49	18
50	68
51	21
53	77
54	12
55	9
56	35
57	95
58	9
60	18
61	48
62	87
63	74
64	7
65	2
68	64
70	116
72	35
73	142
74	108
75	143
76	25
77	5
78	1
79	3
80	2
81	1
84	128
85	390
87	139
88	28
89	17
90	14
92	0
93	0
94	2
95	5
97	92
98	233
99	209
100	92
101	17
102	15
103	5
104	2
106	2
107	13
109	155
110	46
111	67
112	14
113	10
114	8
115	4
116	5
117	12
118	9
119	7
123	999
124	111
125	282
126	24
127	6
128	3
129	6
130	2
131	2
132	1
133	6
135	51
136	117
137	45
138	41
139	13
140	2
141	1
142	2
143	5
145	83
146	26
147	51
148	15
149	15
150	12
151	19
152	16
153	17
154	7
156	49
158	689
160	477
161	45
162	66
163	33
164	23
165	18
166	9
167	3
169	4
171	69
172	125
173	82
174	88
175	34
176	25
177	10
178	9
179	10
180	9
181	4
182	3
183	3
184	12
185	11
186	31
187	15
188	20
189	8
191	138
193	54
194	4
195	0
197	11
199	23
200	7
201	8
202	1
203	1
204	2
205	8
206	6
207	6
208	5
209	0
210	1
212	3
214	25
215	4
216	12
217	3
218	7
219	24
221	11
222	0
224	2
226	20
227	4
228	11
229	2
230	2
231	4
235	616
236	82
237	161
238	20
239	1
240	1
241	3
242	1
243	2
244	1
245	0
246	0
251	0
253	5
255	5
256	1
257	1
263	0
266	2
270	422
272	264
273	25
274	27
275	3
276	0
