Mass Spectrum: 4H-Pyrane-3-carboxylic acid, 6-amino-5-cyano-4-(2-furyl)-2-methyl-, allyl ester
Formula: C15H14N2O4
CAS: 341500-94-5
Molecular weight: 286
m/z	intensity
33	17
34	5
35	1
36	8
37	34
38	121
39	657
40	164
41	999
43	856
44	229
45	17
46	1
49	0
50	46
51	107
52	68
53	59
54	24
55	70
56	23
57	32
58	8
59	4
60	0
61	14
62	41
63	139
64	96
65	129
66	67
67	270
68	43
69	20
70	10
71	10
72	2
73	7
74	15
75	47
76	64
77	113
78	44
79	49
80	18
81	33
82	8
83	16
84	11
85	54
86	8
87	11
88	20
89	43
90	64
91	65
92	35
93	22
94	17
95	52
96	14
97	6
98	4
99	7
100	12
101	34
102	57
103	69
104	30
105	44
106	20
107	13
108	18
109	4
110	1
111	1
112	5
113	2
114	6
115	15
116	32
117	47
118	40
119	45
120	16
121	64
122	7
123	1
124	1
125	0
126	2
127	13
128	46
129	37
130	48
131	32
132	29
133	46
134	107
135	15
136	2
137	1
138	1
139	1
140	4
141	4
142	7
143	22
144	33
145	47
146	30
147	12
148	13
149	8
150	2
151	2
152	3
153	2
154	6
155	17
156	48
157	26
158	113
159	40
160	15
161	25
162	18
163	19
164	2
165	10
166	0
167	1
168	1
169	7
170	9
171	47
172	58
173	35
174	21
175	13
176	4
178	39
179	11
181	3
182	3
183	6
184	29
185	33
186	10
187	11
188	4
189	8
191	21
192	2
195	0
196	1
197	8
199	54
200	74
201	161
202	42
203	11
204	3
205	0
209	3
210	9
211	4
212	4
213	33
214	6
215	4
216	5
217	8
218	7
219	14
220	2
225	3
226	2
227	11
228	22
229	29
230	4
241	1
243	13
245	227
246	29
247	3
257	3
258	51
259	7
260	1
269	1
283	1
285	7
286	54
287	7
