Mass Spectrum: 4H-Pyrane-3-carboxylic acid, 6-amino-5-cyano-4-(3,4-methylenedioxyphenyl)-2-methyl-, allyl ester
Formula: C18H16N2O5
CAS: 341500-97-8
Molecular weight: 340
m/z	intensity
33	10
34	2
36	7
37	21
38	75
39	468
40	128
41	999
43	745
44	196
45	10
46	0
50	55
51	87
52	43
53	63
54	15
55	38
56	16
57	28
58	9
59	0
61	24
62	101
63	206
64	75
65	141
66	58
67	228
68	20
69	20
70	9
71	14
73	4
74	28
75	54
76	65
77	73
78	32
79	43
80	8
81	7
82	4
83	10
84	11
85	27
86	19
87	46
88	57
89	83
90	42
91	45
92	22
93	11
94	4
95	9
96	0
97	6
98	13
99	28
100	27
101	34
102	30
103	42
104	19
105	43
106	20
107	9
108	5
109	6
110	3
111	7
112	17
113	28
114	64
115	69
116	30
117	27
118	21
119	20
120	19
121	80
122	80
123	10
124	7
125	25
126	57
127	83
128	41
129	19
130	47
131	18
132	19
133	45
134	120
135	27
136	4
137	5
138	9
139	9
140	35
141	27
142	27
143	14
144	9
145	41
146	19
147	15
148	22
149	140
151	14
152	34
153	41
154	36
155	27
156	20
157	9
158	11
159	18
161	106
162	35
163	12
164	3
165	3
166	5
167	7
168	14
169	24
170	28
171	23
172	21
173	34
175	41
178	270
179	49
180	24
181	12
182	19
183	15
184	26
185	13
186	8
187	19
188	7
189	6
190	3
191	3
192	1
193	2
194	3
195	13
196	13
197	26
198	20
199	15
200	7
201	3
202	2
203	6
205	1
206	3
207	3
208	11
209	14
210	27
211	24
212	35
213	14
214	9
215	21
216	12
217	17
219	441
220	49
221	7
222	2
223	13
224	12
225	14
226	10
227	4
228	2
229	3
230	1
231	0
233	2
234	0
235	1
236	4
237	7
238	45
239	48
240	10
241	3
251	21
252	19
253	17
254	37
255	61
256	25
257	5
264	0
265	0
266	4
267	4
268	0
271	0
280	3
281	13
282	15
283	19
284	2
294	1
295	4
296	6
299	308
300	44
301	5
323	0
336	0
337	4
338	4
340	100
341	15
342	1
