Mass Spectrum: Decanoic acid, 10-bromo-, trimethylsilyl ester
Formula: C13H27BrO2Si
CAS: 34176-84-6
Molecular weight: 322
m/z	intensity
41	209
42	47
43	120
44	21
45	93
47	53
53	17
54	18
55	327
56	84
57	90
58	31
59	25
60	13
61	54
67	48
68	26
69	473
70	76
71	34
72	42
73	999
74	108
75	633
76	49
77	31
79	20
81	41
82	15
83	174
84	41
85	17
89	11
93	33
95	35
97	104
98	44
99	17
101	11
107	21
109	33
111	117
112	12
116	50
117	728
118	74
119	31
125	17
129	176
130	26
131	25
132	617
133	80
134	29
135	124
136	13
137	95
139	100
143	12
145	185
146	25
153	94
154	10
157	10
159	23
185	12
201	13
227	26
243	77
244	16
281	10
307	78
308	15
309	81
310	15
322	24
324	23
