Mass Spectrum: Propane, 1-(chloromethoxy)-2-methyl-
Formula: C5H11ClO
CAS: 34180-11-5
Molecular weight: 122
m/z	intensity
27	18
28	6
29	54
30	1
31	9
36	2
37	1
38	4
39	38
40	13
41	142
42	18
43	29
44	36
45	4
53	6
55	38
56	10
57	999
58	59
59	9
61	3
69	4
71	3
72	8
73	15
74	2
81	1
87	571
88	40
89	5
