Mass Spectrum: 2-Pentenoic acid, 3-methyl-5-phenyl-, ethyl ester
Formula: C14H18O2
CAS: 34188-63-1
Molecular weight: 218
m/z	intensity
27	47
28	20
29	58
39	74
40	7
41	38
43	34
50	10
51	35
52	10
53	20
54	15
55	10
63	20
65	102
66	7
67	8
69	10
77	32
78	20
79	15
82	52
83	10
89	15
90	7
91	999
92	91
95	17
99	22
102	20
103	18
104	50
105	16
107	16
115	21
117	13
127	34
128	43
129	90
130	19
131	46
141	9
143	39
144	169
145	102
146	10
157	23
171	24
172	75
173	134
174	16
203	15
218	108
219	16
