Mass Spectrum: 1-Oxa-3-azaspiro[4.5]decan-2-one, 3-cyclohexyl-4-hydroxy-4-methyl-
Formula: C15H25NO3
CAS: 341941-91-1
Molecular weight: 267
m/z	intensity
34	0
36	0
37	0
38	1
39	44
40	14
41	131
42	39
43	383
44	20
45	6
46	2
50	1
51	4
52	3
53	29
54	27
55	150
56	44
57	19
58	1
59	0
60	0
61	0
62	12
63	0
65	5
66	3
67	27
68	4
69	14
70	11
71	4
72	0
74	1
77	6
78	1
79	24
80	8
81	226
82	26
83	46
84	4
85	0
87	1
91	1
92	0
93	0
94	0
95	1
96	1
97	6
98	28
99	999
100	68
101	4
105	0
107	0
108	0
109	5
110	1
111	0
112	0
123	1
124	10
125	5
126	3
127	0
128	0
141	1
142	14
143	2
144	6
145	0
168	1
224	33
225	5
226	0
267	0
