Mass Spectrum: Propionic acid, 3-benzoylamino-, 2-chloroethyl ester
Formula: C12H14ClNO3
CAS: 341935-38-4
Molecular weight: 255
m/z	intensity
38	1
39	17
40	14
41	16
42	82
43	41
44	11
45	1
47	1
49	32
50	45
51	142
52	11
53	3
55	77
56	8
57	5
58	0
60	2
62	11
63	60
64	7
65	17
68	1
69	3
70	33
71	7
74	14
75	11
76	37
77	450
78	37
79	4
84	1
88	3
90	1
91	4
92	1
98	4
103	4
105	999
106	66
107	6
108	9
110	4
118	4
119	5
121	11
122	2
130	3
132	7
133	18
134	62
135	5
136	1
143	1
146	22
147	59
148	29
150	248
152	89
153	2
156	1
165	1
171	9
176	208
177	27
189	1
192	56
193	5
203	2
205	1
210	8
220	7
227	2
232	1
237	1
238	7
239	1
246	1
254	7
255	73
256	10
257	25
