Mass Spectrum: Pyridine-4-carbohydrazide, N2-(6-bromo-3,4-methylenedioxybenzylideno)-
Formula: C14H10BrN3O3
CAS: 341985-34-0
Molecular weight: 347
m/z	intensity
33	15
34	2
36	5
37	32
38	50
39	48
40	43
41	23
42	22
43	30
44	39
45	6
50	348
51	732
52	136
53	126
54	13
55	28
56	4
57	10
58	1
59	2
60	6
61	50
62	113
63	81
64	26
65	20
66	12
67	7
68	5
69	8
70	4
71	5
74	153
75	421
76	181
77	155
78	999
79	306
80	75
81	29
82	54
83	4
84	3
85	3
86	4
87	10
88	59
89	28
90	46
91	13
92	13
93	9
94	5
95	5
96	1
97	2
98	2
99	2
100	2
101	4
103	82
104	121
106	890
107	64
108	5
109	11
110	1
111	1
112	3
113	4
114	2
115	5
116	6
117	11
118	6
119	19
120	16
121	7
122	40
123	105
124	7
125	2
126	5
127	3
128	5
129	5
130	3
131	8
132	17
133	240
134	48
135	8
136	4
137	6
138	0
139	2
141	27
143	35
145	17
146	19
147	25
148	8
149	4
150	7
151	1
152	2
153	8
154	9
155	11
156	13
157	12
158	9
159	4
161	137
162	196
163	20
164	5
165	0
166	1
167	5
168	5
169	7
170	6
171	6
172	1
173	0
179	0
181	3
182	4
183	31
184	5
185	31
186	7
187	1
190	0
195	0
196	0
197	1
198	1
199	6
200	1
201	5
202	0
209	0
211	17
212	4
213	11
214	3
215	1
224	100
225	583
226	163
227	580
228	65
229	8
230	0
238	1
239	5
240	1
241	0
242	0
266	0
268	62
269	10
270	0
277	0
294	3
347	16
348	2
349	17
