Mass Spectrum: Pyridine-4-carbohydrazide, N2-(3-hydroxy-4-nitrobenzylideno)-
Formula: C13H10N4O4
CAS: 341985-42-0
Molecular weight: 286
m/z	intensity
34	6
37	17
38	50
39	94
40	109
41	33
42	17
43	31
44	93
45	13
46	1
50	212
51	503
52	87
53	61
54	21
55	25
56	7
57	18
58	1
59	0
60	3
61	9
62	28
63	60
64	23
65	22
66	11
67	7
78	795
79	112
80	18
81	17
83	8
84	3
85	1
86	0
87	1
88	1
89	2
90	7
91	10
92	10
93	5
94	5
95	4
96	0
97	0
99	0
104	25
106	999
107	71
108	1
109	0
112	2
113	0
117	0
118	5
119	12
120	15
122	429
123	67
124	3
125	0
127	12
128	10
129	0
134	14
135	3
136	1
137	2
146	0
148	3
149	4
150	3
152	0
164	2
165	0
166	0
167	0
171	2
183	0
185	0
231	3
240	8
241	0
248	0
286	61
287	6
