Mass Spectrum: Propiohydrazone, 3-benzoylamino-N2-(2-hydroximino-1-methylpropylideno)-
Formula: C14H18N4O3
CAS: 341936-36-5
Molecular weight: 290
m/z	intensity
33	1
34	1
36	0
37	0
38	2
39	16
40	20
41	29
42	97
43	32
44	48
45	6
46	2
47	0
50	21
51	73
52	9
53	9
54	17
55	71
56	22
57	23
58	17
59	3
60	0
61	0
62	1
63	2
64	2
65	4
66	3
67	3
68	28
69	24
70	20
71	7
73	7
74	5
75	7
77	393
78	26
79	8
80	2
81	2
82	1
83	3
84	6
85	3
86	4
87	8
88	1
89	1
90	1
91	9
92	2
93	1
94	0
95	2
96	2
98	76
99	6
100	17
101	15
102	2
103	5
105	999
106	72
107	5
109	2
110	2
111	17
112	3
113	3
114	30
115	10
116	5
117	1
118	1
119	2
120	1
121	2
122	20
123	5
124	3
125	3
126	12
127	1
128	1
129	0
130	1
131	0
132	1
134	156
135	14
136	1
137	0
138	0
139	0
140	1
141	0
142	0
143	0
144	0
146	6
147	3
148	17
149	6
150	5
151	1
152	9
153	1
154	0
157	0
159	0
160	0
161	0
162	0
165	0
167	0
169	2
170	0
171	1
173	1
174	3
176	190
177	20
178	1
179	0
181	0
184	0
185	0
186	0
187	0
189	0
191	0
192	0
193	0
195	0
201	0
204	0
207	0
208	0
209	0
210	0
211	0
212	0
214	0
219	0
220	0
223	0
230	0
232	4
233	0
236	0
240	0
253	0
255	0
256	0
258	0
259	0
263	1
264	0
273	8
274	1
275	0
283	0
286	0
288	0
289	1
290	26
291	4
292	0
