Mass Spectrum: Benzoic acid, 4-(2,2-dimethyl-1-oxopropoxy)-, methyl ester
Formula: C13H16O4
CAS: 341936-49-0
Molecular weight: 236
m/z	intensity
33	1
37	3
38	17
39	126
40	63
41	268
42	30
43	9
44	9
45	2
49	1
50	17
51	12
52	10
53	17
54	4
55	29
57	999
59	16
61	0
62	14
63	58
64	61
65	66
66	11
67	6
69	17
70	10
71	0
73	1
74	9
75	14
76	15
77	17
78	1
79	6
80	8
81	2
82	2
84	3
85	172
87	1
91	7
92	74
93	40
94	5
95	25
96	0
100	0
103	8
104	4
105	3
107	3
108	4
109	1
116	0
118	1
119	9
120	32
121	297
122	20
123	32
124	2
126	1
127	2
128	0
135	4
145	1
149	0
151	19
152	172
153	15
154	1
155	3
159	0
179	1
183	1
185	3
193	3
205	15
207	0
236	15
237	1
