Mass Spectrum: Butane, 1,4-bis(2-methylbenzoyl)amino-
Formula: C20H24N2O2
CAS: 341936-40-1
Molecular weight: 324
m/z	intensity
33	1
34	2
38	3
39	41
40	42
41	33
42	7
43	21
44	17
45	6
50	7
51	16
52	5
53	5
54	3
55	15
56	13
57	7
58	0
59	0
61	0
62	5
63	27
65	164
66	8
67	2
68	3
69	9
70	99
72	14
74	3
75	3
76	6
77	20
78	4
79	6
80	4
81	2
82	4
83	1
84	2
85	3
86	2
87	2
89	58
90	111
91	583
92	45
93	10
94	0
95	0
97	1
98	1
100	0
102	1
103	2
104	6
105	16
106	3
110	0
112	0
113	0
114	1
115	3
116	11
118	244
119	999
120	85
121	8
127	4
128	4
129	1
130	3
131	3
132	2
133	3
134	9
135	5
136	15
137	0
143	0
144	2
146	12
147	6
148	28
149	11
157	0
159	1
160	4
162	25
163	10
164	1
166	0
171	3
174	3
176	40
177	8
185	0
186	1
188	128
189	28
190	11
191	1
201	0
205	17
206	2
209	1
228	0
236	2
242	0
256	0
306	1
309	0
313	0
323	3
324	21
325	5
