Mass Spectrum: 1,2,4-Triazole, 1-(2-furyl)(2-pyridylamino)methyl-
Formula: C12H11N5O
CAS: 341935-41-9
Molecular weight: 241
m/z	intensity
37	81
38	206
39	458
40	190
41	97
42	225
43	12
44	6
49	22
50	187
51	523
52	493
53	65
54	12
55	6
57	1
59	4
61	4
62	10
63	42
64	86
65	62
66	71
67	39
69	431
70	26
72	22
73	2
74	4
75	23
76	38
78	580
79	801
80	56
81	1
82	2
84	1
86	17
89	65
90	29
91	28
92	31
93	82
94	101
95	11
96	1
98	0
105	72
106	24
107	1
108	1
114	1
115	7
116	85
117	110
118	999
119	94
120	7
121	29
122	1
127	0
128	1
131	81
132	16
133	0
141	1
142	41
143	228
144	577
145	76
146	2
148	35
149	4
155	10
156	1
157	5
158	6
169	1
170	6
171	299
172	648
173	143
174	15
175	0
183	0
185	10
186	14
187	0
198	1
210	1
212	3
240	1
241	25
242	1
