Mass Spectrum: 2,2'-Dithioxydi(ethanamine), N,N'-bis(4-fluorobenzoyl)-
Formula: C18H18F2N2O2S2
CAS: 341935-27-1
Molecular weight: 396
m/z	intensity
30	13
32	59
33	1
34	1
36	1
38	1
39	3
40	7
41	9
42	9
43	15
44	12
45	18
46	12
47	15
48	0
49	0
50	9
51	7
52	1
53	1
55	6
57	14
58	6
59	11
60	7
61	2
62	0
63	2
64	3
65	1
67	1
68	5
69	14
70	6
71	3
73	4
74	8
75	91
76	9
77	5
78	3
79	1
81	3
82	0
83	5
84	1
85	1
87	0
88	0
91	4
92	0
93	5
94	23
95	357
96	24
97	5
99	0
100	0
101	1
102	0
104	1
105	2
107	2
108	0
109	4
111	1
112	2
113	0
115	0
118	2
119	2
120	0
123	999
124	76
125	3
126	0
127	2
129	0
135	2
136	0
137	2
140	128
141	10
142	0
143	0
146	0
147	0
148	1
149	2
150	0
151	0
152	39
153	5
154	0
155	0
156	0
157	0
160	0
163	0
164	12
165	5
166	414
167	51
168	5
170	0
171	9
172	0
178	0
180	0
181	0
182	0
183	0
192	0
197	50
198	179
199	116
200	27
201	7
202	0
221	0
231	4
235	0
245	0
249	0
257	15
258	1
259	1
263	0
283	2
301	0
306	0
363	0
396	3
397	0
