Mass Spectrum: Oxazolidin-2-one, 3-tert-butyl-5-spiro-cyclohexane-4-hydroxy-4-methyl-
Formula: C13H23NO3
CAS: 341941-90-0
Molecular weight: 241
m/z	intensity
33	41
34	12
36	17
38	20
39	128
40	456
41	288
42	157
43	475
44	199
45	9
51	14
52	2
53	47
54	26
55	140
56	98
57	344
58	146
59	20
60	2
62	9
65	9
66	2
67	37
68	9
69	34
70	25
71	14
72	4
73	2
77	21
79	52
80	8
81	332
82	21
84	155
85	7
86	7
87	2
91	23
93	2
95	4
97	17
99	999
100	78
105	11
108	6
109	7
110	2
112	21
115	19
122	2
124	13
125	43
139	10
167	53
168	16
170	8
198	36
224	28
225	5
226	12
