Mass Spectrum: 3-Cyclohexene-1-carboxylic acid, 6-methyl-2-oxo-, ethyl ester
Formula: C10H14O3
CAS: 3419-32-7
Molecular weight: 182
m/z	intensity
26	13
27	75
28	11
29	81
30	6
31	98
37	5
38	15
39	140
40	88
41	104
42	35
43	28
44	88
45	65
46	26
47	3
50	11
51	22
52	12
53	55
54	10
55	38
56	6
57	9
61	3
62	4
63	12
64	5
65	55
66	26
67	74
68	999
69	186
70	12
71	6
73	2
74	2
75	3
76	2
77	51
78	10
79	68
80	79
81	72
82	18
83	7
84	11
85	4
86	3
87	9
90	2
91	25
92	6
93	29
94	16
95	134
96	11
97	6
99	2
100	2
105	4
106	2
107	18
108	74
109	351
110	114
111	14
112	12
113	3
115	5
119	12
120	3
121	124
122	11
123	12
124	1
125	3
126	2
127	2
128	2
134	4
135	15
136	97
137	113
138	12
139	7
140	9
141	9
142	5
143	1
149	10
150	1
151	1
152	2
153	3
154	4
155	3
156	1
165	2
166	1
167	62
168	7
169	2
180	1
181	2
182	69
183	10
184	1
