Mass Spectrum: Phosphinic acid, diphenyl-, 2-formylphenyl ester
Formula: C19H15O3P
CAS: 341936-50-3
Molecular weight: 322
m/z	intensity
34	1
36	1
37	6
38	37
39	202
40	39
41	5
42	2
43	6
44	7
45	11
47	248
50	136
51	540
52	41
53	26
55	10
56	7
57	8
61	5
62	17
63	94
64	75
65	229
66	20
67	3
69	34
70	5
71	7
72	0
73	6
74	43
75	52
76	126
77	999
78	163
79	14
81	15
82	4
83	7
84	1
85	1
86	2
87	4
88	3
89	10
90	0
91	7
92	115
93	63
94	17
95	111
96	21
97	3
99	6
100	0
101	7
102	17
103	6
104	19
105	23
106	3
107	52
108	14
109	13
110	2
111	1
112	1
113	8
115	78
116	10
119	2
120	22
121	92
122	31
123	45
124	22
125	71
126	21
127	20
128	65
129	41
130	4
131	3
132	1
133	40
134	4
135	0
136	1
137	6
139	44
141	71
142	28
143	3
144	3
145	8
147	46
148	2
149	3
150	13
151	40
152	142
153	102
154	79
155	29
156	3
157	11
158	1
159	1
160	0
161	8
164	2
165	7
166	3
167	18
168	60
169	76
170	287
171	89
172	13
173	47
174	5
180	9
181	45
182	16
183	70
184	9
185	2
186	1
187	3
189	1
195	1
196	0
197	2
199	70
201	577
202	75
203	7
213	1
215	75
216	17
217	29
218	4
219	0
226	3
227	2
228	6
229	5
240	0
241	3
242	0
243	3
244	0
245	5
257	4
258	1
266	0
267	1
275	9
276	1
289	0
290	5
291	8
293	642
294	137
295	16
296	1
317	0
319	2
320	2
321	14
322	228
323	49
324	7
325	0
