Mass Spectrum: 2,2'-Dithioxydi(ethanamine), N,N'-bis(2-methylbenzoyl)-
Formula: C20H24N2O2S2
CAS: 341935-30-6
Molecular weight: 388
m/z	intensity
30	58
32	73
33	1
34	1
35	4
36	11
37	1
38	5
39	31
40	9
41	18
42	16
43	20
44	54
45	21
46	13
47	17
48	2
49	1
50	5
51	15
52	3
53	3
54	1
55	3
56	3
57	4
58	5
59	13
60	9
61	8
62	4
63	28
64	16
65	158
66	9
67	1
68	1
69	3
70	3
71	2
72	0
73	2
74	4
75	8
76	8
77	25
78	5
79	5
81	3
83	2
84	1
85	1
86	1
87	1
89	55
90	57
91	547
92	43
93	17
94	3
95	3
96	0
97	1
98	0
101	0
102	1
103	3
104	13
105	10
106	4
107	1
108	1
109	8
110	1
111	2
112	0
113	1
114	0
115	2
116	15
117	9
118	60
119	999
120	88
121	7
122	1
123	10
124	1
125	0
126	0
127	0
128	1
129	0
130	2
131	0
132	4
133	5
134	17
135	5
136	83
137	8
139	5
140	1
141	2
142	0
143	0
145	0
146	4
147	1
148	26
149	5
150	0
151	2
152	0
153	0
156	1
157	0
158	0
160	14
162	545
163	68
164	6
165	1
166	2
167	0
168	0
171	2
176	1
177	0
178	0
179	0
180	2
181	0
182	2
183	0
184	0
185	0
189	0
190	0
192	2
193	41
194	276
195	132
196	39
197	8
198	2
199	0
208	0
209	0
210	0
211	0
214	0
215	0
225	0
226	0
227	6
228	1
229	0
230	0
234	0
240	0
252	0
253	16
254	3
255	1
256	0
283	0
285	0
299	0
300	0
313	0
327	0
329	0
355	1
356	0
357	0
388	6
389	1
390	0
