Mass Spectrum: Benzenesulfonic acid, 3-nitro-3-phenylpropyl ester
Formula: C15H15NO5S
CAS: 341937-27-7
Molecular weight: 321
m/z	intensity
33	2
34	0
39	598
41	34
43	15
44	6
45	11
46	5
48	7
51	212
52	25
53	12
54	4
55	8
56	7
57	3
58	2
60	41
63	142
65	617
66	28
67	2
68	1
69	0
74	6
75	23
77	255
78	193
80	1
81	0
86	2
87	4
89	42
91	521
92	426
94	629
96	1
97	0
103	151
104	296
105	117
106	27
107	27
108	1
112	0
115	338
117	999
118	166
119	27
120	9
121	3
123	7
128	1
129	1
130	2
131	3
134	500
137	2
141	3
142	0
146	1
147	1
148	1
151	1
152	0
153	0
154	0
155	1
164	131
165	10
166	2
167	4
169	1
170	0
171	0
178	1
179	0
181	4
182	1
183	1
185	0
189	0
191	0
192	1
193	1
195	19
196	5
197	3
198	3
207	1
210	186
211	24
212	2
228	8
229	0
257	1
264	0
274	16
275	3
276	0
318	1
319	1
321	158
322	23
323	8
324	0
