Mass Spectrum: 1,4-Benzodioxan-2-ylmethyl 2-furoate
Formula: C14H12O5
CAS: 342019-03-8
Molecular weight: 260
m/z	intensity
37	33
39	388
41	148
43	64
50	60
51	102
52	174
53	44
55	38
57	21
63	46
64	25
65	46
66	18
67	40
68	25
74	5
77	91
78	23
79	67
80	131
81	85
91	50
92	17
93	11
95	999
96	50
103	10
105	8
107	49
109	71
110	7
112	6
119	28
121	338
122	20
123	6
135	128
136	8
147	563
148	854
149	84
150	6
260	323
261	45
