Mass Spectrum: 1,4-Methanobiphenylen-2-ol, 3-chloro-1,2,3,4,4a,8b-hexahydro-, acetate, (1.alpha.,2.alpha.,3.alpha.,4.alpha.,4a.alpha.,8b.alpha.)-
Formula: C15H15ClO2
CAS: 34208-70-3
Molecular weight: 262
m/z	intensity
43	999
77	230
91	110
115	110
128	110
129	300
141	260
142	720
155	130
167	330
202	250
227	110
262	30
264	10
