Mass Spectrum: Benzeneethanamine, 3-fluoro-.beta.,4-dihydroxy-5-methoxy-
Formula: C9H12FNO3
CAS: 342012-31-1
Molecular weight: 201
m/z	intensity
41	1
42	1
43	3
44	16
45	38
46	20
50	3
51	16
52	7
53	6
55	1
56	1
57	10
63	4
64	2
65	5
69	3
70	6
71	3
72	3
73	1
75	1
77	3
78	13
79	77
80	190
81	159
82	83
83	999
84	75
85	16
86	9
87	2
89	1
90	3
91	4
92	8
93	22
94	5
95	24
96	6
97	6
98	4
99	29
100	19
101	1
104	1
105	1
106	1
107	2
108	5
109	5
110	5
111	295
112	27
113	4
119	1
122	2
123	11
124	2
125	4
126	2
127	9
128	34
129	3
139	3
140	8
141	8
142	1
143	28
144	1
150	2
151	1
152	1
153	5
155	3
156	2
157	2
169	19
170	37
171	94
172	62
173	4
183	1
184	1
201	24
202	1
