Mass Spectrum: Anhydro-.beta.-rotunol
Formula: C15H20O
CAS: 34206-82-1
Molecular weight: 216
m/z	intensity
39	367
41	617
43	999
44	205
51	161
55	147
65	161
69	176
77	264
79	250
91	558
105	294
115	161
131	161
135	999
145	470
148	176
159	308
173	514
175	205
176	73
188	102
201	294
216	250
217	58
