Mass Spectrum: N-[[2-Morpholino]ethyl]succinamic acid
Formula: C10H18N2O4
CAS: 342021-41-4
Molecular weight: 230
m/z	intensity
41	55
42	221
43	24
44	51
45	8
49	2
52	2
53	3
54	29
55	155
56	175
57	23
58	5
63	2
67	3
68	8
69	10
70	64
71	8
72	23
73	1
77	2
79	2
80	1
81	2
82	6
83	8
84	14
85	7
86	6
91	1
93	2
95	0
96	2
97	4
98	20
100	999
101	59
102	3
107	1
109	3
110	1
112	8
113	11
114	2
125	6
126	16
127	3
135	11
136	1
137	1
153	0
165	1
166	8
167	1
168	0
211	6
212	38
213	20
214	2
230	0
