Mass Spectrum: Bicyclo[5.2.0]nonan-9-one, 8,8-dichloro-
Formula: C9H12Cl2O
CAS: 34210-48-5
Molecular weight: 206
m/z	intensity
26	48
27	391
28	63
29	115
35	3
36	16
37	15
38	46
39	468
40	67
41	461
42	49
43	30
47	17
49	28
50	61
51	239
52	56
53	189
54	205
55	792
56	44
57	25
60	5
61	42
62	20
63	50
64	9
65	213
66	109
67	731
68	135
69	116
70	21
71	23
72	2
73	81
74	18
75	79
76	9
77	192
78	41
79	351
80	74
81	443
82	337
83	166
84	999
85	59
86	11
87	130
88	34
89	73
90	11
91	130
92	28
93	82
94	24
95	131
96	47
97	93
98	5
99	58
100	21
101	88
102	29
103	31
104	13
105	37
106	13
107	174
108	20
109	125
110	18
111	79
112	11
113	56
114	15
115	51
116	19
117	69
118	9
121	11
122	313
123	40
124	204
125	29
126	37
127	73
128	22
129	61
130	28
131	15
132	2
135	187
136	22
137	20
138	52
139	14
140	30
141	18
142	16
143	40
144	8
145	11
149	19
150	5
151	15
152	9
153	63
154	7
155	20
162	15
163	11
164	15
165	9
170	8
171	149
172	17
173	52
175	5
177	26
178	9
179	14
206	83
207	8
208	53
210	8
