Mass Spectrum: Methyl(methyl 2,3,4-tri-O-acetyl-beta-d-glucopyranosid)uronate
Formula: C14H20O10
CAS: 34213-34-8
Molecular weight: 348
m/z	intensity
14	9
15	33
16	1
17	3
18	10
26	1
27	6
28	27
29	19
30	4
31	17
32	4
33	3
38	1
39	8
40	2
41	13
42	51
43	999
44	47
45	38
46	1
47	1
51	1
52	1
53	3
54	2
55	15
56	3
57	9
58	2
59	34
60	36
61	15
67	1
68	8
69	9
70	1
71	38
72	2
73	31
74	66
75	40
76	1
80	1
81	2
82	1
83	35
84	31
85	95
86	11
87	52
88	5
89	5
90	22
91	1
95	11
96	8
97	11
98	17
99	47
100	11
101	12
102	103
103	216
104	10
105	2
109	1
110	1
111	19
112	35
113	47
114	5
115	253
116	207
117	26
118	3
119	1
123	9
124	1
125	3
126	55
127	673
128	59
129	17
130	4
131	8
132	84
133	6
134	1
137	1
139	7
140	3
141	17
142	2
143	64
144	224
145	143
146	12
147	2
153	6
154	10
155	112
156	10
157	369
158	86
159	11
160	1
161	5
162	1
168	1
169	322
170	32
171	8
172	5
173	11
174	33
175	4
183	8
184	1
185	9
186	204
187	74
188	9
189	2
197	32
198	3
199	1
200	5
201	2
203	7
204	4
205	1
213	1
214	3
215	30
216	3
217	12
218	1
228	63
229	114
230	12
231	2
242	1
243	3
245	5
246	6
247	1
257	14
258	2
274	1
288	5
289	32
290	4
317	9
318	1
347	1
