Mass Spectrum: Cyclodeca[b]furan-2,9(3H,4H)-dione, 4-(acetyloxy)-3a,7,8,10,11,11a-hexahydro-6-methyl-3,10-bis(methylene)-, [3ar-(3ar*,4R*,5E,11as*)]-
Formula: C17H20O5
CAS: 34226-88-5
Molecular weight: 304
m/z	intensity
26	24
27	195
29	122
31	25
38	17
39	371
40	152
41	454
42	58
43	999
44	43
45	184
50	22
51	104
52	43
53	126
54	16
55	98
56	20
57	19
60	105
62	8
63	48
64	20
65	129
66	26
67	61
68	60
69	133
70	10
71	19
74	5
75	6
76	13
77	171
78	70
79	119
80	241
81	59
82	50
83	45
84	61
85	7
89	15
90	12
91	270
92	48
93	77
94	33
95	84
96	24
97	140
98	18
99	7
102	7
103	50
104	149
105	144
106	43
107	52
108	26
109	28
110	10
111	19
115	41
116	16
117	51
118	26
119	91
120	34
121	44
122	23
123	24
124	9
125	8
127	12
128	29
129	34
130	18
131	30
132	26
133	48
134	27
135	22
136	18
137	25
138	11
141	19
142	15
143	27
144	13
145	34
146	26
147	104
148	28
149	21
150	10
151	17
152	7
153	9
154	9
155	21
156	12
157	15
158	9
159	20
160	15
161	18
162	11
164	35
165	32
166	12
167	8
169	18
171	16
172	15
173	18
174	10
175	12
176	5
177	8
178	27
179	30
180	6
183	15
184	7
185	11
187	17
188	11
189	6
190	5
197	13
198	13
199	12
200	10
201	9
202	7
215	15
216	25
218	8
226	32
228	15
229	9
230	10
244	24
246	5
262	56
263	13
