Mass Spectrum: N-Nitroso-2-(1-phenyl-2-propyl)aminopropionitrile
Formula: C12H15N3O
CAS: 3422-20-6
Molecular weight: 217
m/z	intensity
50	6
51	32
52	41
53	10
54	70
55	25
57	50
59	6
62	15
63	38
64	10
65	135
66	18
67	6
68	21
70	292
72	15
73	3
77	41
78	7
80	7
81	41
82	7
88	3
89	25
91	999
92	72
93	7
94	6
95	84
96	18
98	6
99	3
102	7
103	7
104	3
111	7
117	25
118	114
119	6
123	10
126	16
128	3
133	7
141	3
146	3
147	3
150	7
151	3
159	3
160	4
162	4
171	15
173	3
174	3
178	6
180	6
182	6
186	6
187	31
188	6
190	3
194	6
195	9
