Mass Spectrum: Undecanoic acid, 11-[[(phenylmethoxy)carbonyl]amino]-
Formula: C19H29NO4
CAS: 3422-91-1
Molecular weight: 335
m/z	intensity
26	2
27	35
28	12
29	52
30	81
31	9
36	2
38	4
39	44
40	7
41	133
42	30
43	87
44	14
45	32
46	4
47	4
48	2
49	28
50	16
51	39
52	11
53	18
54	17
55	153
56	46
57	64
58	9
59	21
60	83
61	9
62	6
63	15
64	5
65	65
66	5
67	29
68	21
69	104
70	28
71	29
72	6
73	47
74	29
75	6
76	7
77	71
78	18
79	133
80	16
81	33
82	17
83	53
84	44
85	34
86	16
87	12
88	9
89	23
90	41
91	999
92	97
93	11
94	5
95	20
96	12
98	54
99	79
100	16
101	8
102	2
104	9
105	18
106	10
107	645
108	696
109	62
110	8
111	14
112	39
113	25
114	8
116	2
117	2
119	3
120	28
121	10
122	5
123	11
124	6
126	15
127	6
128	3
129	7
137	5
138	10
139	4
140	10
142	13
144	6
147	5
148	2
149	8
150	2
151	5
152	4
153	4
154	6
155	4
167	4
168	42
169	6
170	3
179	2
180	4
181	3
182	46
183	13
184	4
191	3
192	2
200	91
201	18
202	2
208	16
209	4
210	302
211	51
212	6
214	7
215	2
228	22
229	8
232	3
242	5
256	1
261	8
262	1
271	2
276	5
289	22
290	7
291	3
317	40
318	9
335	41
336	9
337	1
