Mass Spectrum: 2-Phenyl-2-phenoxypropionic acid
Formula: C15H14O3
CAS: 34221-03-9
Molecular weight: 242
m/z	intensity
15	1
17	2
18	1
26	2
27	10
28	11
29	2
31	2
37	6
38	11
39	53
40	21
41	3
42	1
43	132
44	5
45	5
46	2
47	11
49	2
50	26
51	76
52	12
53	9
54	1
55	26
56	1
60	1
61	4
62	8
63	24
64	8
65	65
66	62
67	4
68	2
73	2
74	15
75	11
76	17
77	168
78	39
79	16
80	1
87	1
89	4
90	1
91	29
92	4
93	12
94	999
95	73
96	4
97	1
98	7
99	1
101	4
102	29
103	598
104	91
105	36
106	3
107	8
115	1
118	1
119	6
120	8
121	82
122	8
128	1
129	1
130	2
131	55
132	9
133	1
135	1
141	1
147	11
148	307
149	338
150	39
151	4
152	3
153	2
154	3
155	1
162	3
163	2
165	2
166	1
167	1
169	1
177	2
178	2
179	1
181	3
182	1
183	4
195	6
196	3
197	32
198	5
224	9
225	1
242	33
243	6
