Mass Spectrum: tert-Butyl carbanilate
Formula: C11H15NO2
CAS: 3422-01-3
Molecular weight: 193
m/z	intensity
25	7
26	38
27	122
28	88
29	212
30	13
31	69
38	93
39	405
40	83
41	594
42	47
43	86
44	40
50	58
51	93
52	37
53	33
54	25
55	69
56	94
57	999
58	50
59	257
60	21
61	18
62	23
63	75
64	92
65	236
66	189
67	41
76	9
77	83
78	31
79	13
89	7
90	12
91	133
92	108
93	947
94	65
95	9
119	129
120	30
121	4
133	4
134	31
135	6
136	19
137	478
138	45
139	7
193	107
194	18
