Mass Spectrum: Cyclopropane, 1-methyl-1-isopropenyl-
Formula: C7H12
CAS: 3422-07-9
Molecular weight: 96
m/z	intensity
25	0
26	13
27	131
29	51
30	1
35	0
36	0
37	8
38	22
39	258
40	49
41	323
42	30
43	16
44	3
45	1
46	3
48	0
49	3
50	28
51	52
52	26
53	243
54	79
55	138
56	51
57	4
60	0
61	3
62	7
63	16
64	2
65	45
66	30
67	133
68	39
69	10
70	1
73	0
74	2
75	4
76	1
77	45
78	13
79	163
80	22
81	999
82	68
83	1
89	0
91	6
92	0
93	6
94	2
95	50
96	127
97	11
98	0
