Mass Spectrum: Tricyclo[3.2.1.0(2.4)]octane-3-carboxamide, N-(3-bromophenyl)-
Formula: C15H16BrNO
CAS: 342394-52-9
Molecular weight: 305
m/z	intensity
33	33
37	8
39	314
40	107
41	293
43	41
44	18
45	24
50	53
51	107
52	76
53	273
55	684
57	67
61	6
62	18
63	97
64	81
65	178
66	180
67	236
68	47
69	35
70	6
72	1
74	5
75	50
76	62
77	354
78	182
79	999
80	142
81	127
82	12
84	5
88	3
89	14
90	55
91	405
92	148
93	87
94	23
95	17
96	2
97	0
99	10
100	1
102	6
103	18
104	13
105	111
106	101
107	228
108	26
113	2
115	19
116	9
117	70
119	35
123	37
124	4
128	5
129	4
130	27
131	7
132	13
133	39
134	62
135	397
136	39
138	1
142	3
143	20
144	3
145	21
146	4
148	0
152	0
154	1
155	40
156	4
157	46
158	8
159	7
166	1
167	3
168	1
170	47
171	281
173	304
174	22
175	0
181	2
182	12
183	6
184	17
185	4
196	4
197	10
198	18
199	3
200	8
208	10
210	13
211	6
212	18
213	61
214	17
215	47
216	3
224	8
225	2
226	28
227	5
228	13
229	2
234	1
236	4
237	12
238	11
239	22
240	9
241	4
250	26
251	0
252	20
253	1
263	2
264	1
266	4
276	36
277	27
278	41
279	27
280	0
283	1
305	318
306	68
307	294
308	50
309	3
