Mass Spectrum: 1H-Pyrazolo[4,3-d]pyrimidin-7-amine, N-(3-methyl-2-butenyl)-
Formula: C10H13N5
CAS: 34232-31-0
Molecular weight: 203
m/z	intensity
26	30
27	293
28	627
29	158
30	67
31	16
37	27
38	67
39	499
40	144
41	999
42	134
43	195
44	23
50	27
51	86
52	88
53	539
54	220
55	113
56	74
57	25
59	32
63	41
64	306
65	134
66	155
67	220
68	97
69	260
70	60
76	11
77	32
78	30
79	27
80	67
81	104
82	32
83	30
84	116
91	16
92	41
93	262
94	60
95	30
105	58
106	27
107	41
108	120
119	241
120	65
121	46
131	9
132	11
133	20
134	60
135	430
136	65
148	60
160	413
161	97
162	27
171	46
172	11
173	20
174	30
175	41
176	11
177	11
185	51
186	32
187	37
188	530
189	60
202	97
203	476
204	67
