Mass Spectrum: 4(3H)-Pteridinone, 2,6-dimethyl-
Formula: C8H8N4O
CAS: 34244-77-4
Molecular weight: 176
m/z	intensity
40	90
41	80
42	999
43	40
44	40
52	70
53	130
54	30
65	30
66	40
67	40
79	60
80	110
106	40
107	60
108	70
109	40
149	480
150	40
176	750
177	90
