Mass Spectrum: 2-[4-(4-Fluoro-benzyloxy)-phenyl]-thiazolidine-4-carboxylic acid
Formula: C17H16FNO3S
CAS: 342412-55-9
Molecular weight: 333
m/z	intensity
33	1
34	2
35	1
36	2
37	0
38	3
39	16
40	11
41	6
42	7
43	10
44	36
45	13
46	5
47	4
48	0
49	0
50	6
51	18
52	4
53	3
54	3
55	5
57	16
58	6
59	33
60	3
61	4
62	3
63	15
64	6
65	16
66	4
67	2
68	1
69	4
70	3
71	2
73	3
74	10
75	9
76	14
77	37
78	10
79	11
80	5
81	5
82	5
83	65
84	4
85	1
86	9
87	5
88	3
89	13
90	6
91	14
92	6
93	5
94	3
95	4
96	2
97	3
98	0
99	0
101	0
102	1
103	3
104	15
105	10
106	15
107	22
109	999
110	74
111	3
112	1
113	0
114	0
115	1
116	3
117	6
118	7
119	4
120	16
121	6
122	3
123	6
124	2
125	2
126	0
127	0
128	1
129	1
130	2
132	52
133	11
134	22
135	5
136	3
137	5
138	1
139	1
140	0
141	0
142	0
143	1
144	1
145	1
146	7
147	3
148	1
149	4
150	6
151	8
152	7
153	3
154	0
155	1
157	0
158	0
159	1
160	14
161	2
162	0
163	0
164	0
165	1
166	0
167	0
168	0
169	1
170	1
171	1
172	0
173	0
174	0
175	0
176	1
178	45
179	7
180	7
181	1
182	1
183	1
184	0
185	0
189	0
190	0
191	0
192	0
193	0
194	0
195	0
196	0
197	0
198	0
199	0
200	0
201	0
202	0
204	0
207	0
208	0
209	0
210	0
211	0
212	0
213	0
214	1
215	2
216	0
221	0
222	0
223	1
224	9
225	3
226	1
227	0
228	5
229	5
230	4
231	3
232	0
235	0
236	0
237	0
238	0
239	0
241	34
242	12
243	6
244	1
245	0
246	2
247	1
248	0
253	0
254	1
255	10
256	16
257	2
258	0
261	29
262	3
263	1
269	0
270	1
271	0
281	0
282	0
283	0
284	0
285	0
286	7
287	37
288	29
289	54
290	10
291	3
292	0
300	19
301	3
302	0
332	13
333	78
334	14
335	5
336	0
