Mass Spectrum: Bis[.alpha.-hydroxybenzyl]furazan
Formula: C16H14N2O3
CAS: 342597-39-1
Molecular weight: 282
m/z	intensity
41	8
42	1
43	6
44	4
47	2
49	16
50	40
51	183
52	48
53	34
54	13
55	7
57	4
61	3
62	5
63	38
64	8
65	22
66	2
68	10
70	32
71	2
74	10
75	13
77	523
78	102
79	384
80	21
84	11
86	7
87	1
89	54
90	24
91	24
92	2
93	2
94	3
95	6
99	6
101	5
102	44
103	31
105	999
106	83
107	101
108	7
110	1
115	16
116	85
117	58
118	7
123	6
127	2
128	29
129	39
130	12
131	16
132	52
134	2
135	3
140	1
142	27
143	25
144	4
148	4
152	4
156	26
158	10
159	108
160	12
165	6
167	4
169	5
177	1
178	5
179	4
186	2
187	19
193	6
204	11
205	7
206	23
208	3
216	9
217	6
219	48
220	10
232	2
234	20
235	1
236	2
246	13
247	144
248	26
249	2
263	20
264	56
265	9
266	2
