Mass Spectrum: Acethydrazide, 2-(5-amino-1,3,4-thiadiazol-2-yl)-N2-(4-chlorobenzylideno)-
Formula: C11H10ClN5OS
CAS: 342593-20-8
Molecular weight: 295
m/z	intensity
33	10
34	5
35	2
36	8
37	4
38	12
39	32
40	47
41	26
42	48
43	97
44	40
45	23
46	13
47	10
48	3
50	32
51	21
52	7
53	4
54	5
55	14
56	10
57	21
58	44
59	91
60	120
61	12
62	25
63	51
64	10
65	9
66	2
67	4
68	9
69	11
70	5
71	7
72	26
73	31
74	39
75	92
76	17
77	15
78	3
79	2
80	0
81	2
82	4
83	5
84	6
85	16
86	11
87	9
89	119
90	36
91	17
92	10
93	1
95	1
96	1
97	4
98	5
99	20
100	8
101	9
102	15
103	4
104	11
105	4
106	0
107	2
108	3
109	1
111	62
112	12
113	25
115	999
116	55
117	49
118	21
119	11
120	6
121	1
123	6
124	17
125	13
126	14
127	9
128	4
129	3
130	0
131	2
132	2
133	1
134	1
135	1
137	33
138	37
139	18
140	15
142	134
143	10
144	6
145	0
147	0
149	0
150	2
151	1
152	5
153	15
154	20
155	8
156	10
157	2
158	23
159	1
160	0
161	2
162	1
163	2
164	1
165	5
166	1
167	2
168	0
170	2
171	2
172	0
173	3
175	0
176	0
178	1
179	0
181	13
182	3
183	8
184	7
185	1
186	2
187	5
188	13
189	1
190	0
195	0
204	6
205	0
208	0
217	10
218	3
221	1
223	0
224	0
231	0
236	2
237	2
238	0
239	1
252	0
259	0
261	0
262	3
263	0
275	0
276	0
277	0
278	0
279	0
294	5
295	10
296	3
297	3
298	0
304	0
