Mass Spectrum: Benzenemethanol, .alpha.,.alpha.-dimethyl-, acetate
Formula: C11H14O2
CAS: 3425-72-7
Molecular weight: 178
m/z	intensity
26	2
27	23
29	7
30	0
31	7
37	0
38	4
39	70
40	9
41	161
42	7
43	999
44	20
45	4
49	0
50	32
51	131
52	18
53	6
54	0
55	1
56	0
57	10
58	8
59	26
60	2
61	1
62	5
63	20
64	3
65	39
66	2
67	0
69	0
71	2
72	0
73	0
74	10
75	8
76	15
77	195
78	64
79	71
80	5
82	0
85	0
86	1
87	1
88	0
89	9
90	3
91	426
92	34
93	7
94	2
95	8
96	0
98	0
101	5
102	13
103	72
104	17
105	59
106	5
107	19
108	2
109	0
113	0
114	0
115	35
116	8
117	82
118	117
119	688
120	72
121	745
122	70
123	4
124	0
133	1
134	2
135	250
136	630
137	57
138	3
151	0
163	10
164	2
165	0
177	0
178	368
179	44
180	3
181	0
