Mass Spectrum: 1,3-Isobenzofurandione, 3a,4,7,7a-tetrahydro-5-methyl-
Formula: C9H10O3
CAS: 3425-89-6
Molecular weight: 166
m/z	intensity
15	3
26	9
27	61
28	19
29	6
37	5
38	16
39	117
40	21
41	37
42	5
43	6
44	9
45	18
46	16
47	1
49	2
50	25
51	57
52	24
53	48
54	10
55	9
60	1
61	4
62	10
63	23
64	5
65	45
66	18
67	29
68	15
69	1
74	3
75	2
76	2
77	222
78	49
79	600
80	45
81	8
82	1
83	1
85	1
86	1
89	4
90	1
91	174
92	69
93	999
94	232
95	28
96	5
97	1
98	1
99	5
105	6
106	1
107	2
108	1
109	3
110	12
111	9
119	4
120	12
121	11
122	1
123	53
124	7
137	19
138	513
139	48
140	4
166	75
167	30
168	3
