Mass Spectrum: 1-[(Pyrazinylcarbonyl)oxy]-2,5-pyrrolidinedione
Formula: C9H7N3O4
CAS: 342612-63-9
Molecular weight: 221
m/z	intensity
26	51
27	54
28	16
40	17
41	35
42	13
51	44
52	282
53	39
55	65
56	97
68	27
70	41
79	771
80	47
84	10
87	12
98	20
107	999
108	67
221	51
222	19
