Mass Spectrum: Prozapine
Formula: C21H27N
CAS: 3426-08-2
Molecular weight: 293
m/z	intensity
41	37
42	52
43	16
44	30
50	1
51	5
52	1
53	2
54	4
55	40
56	14
57	14
58	58
59	1
63	2
65	5
66	1
67	3
68	8
69	11
70	19
71	10
72	1
76	1
77	12
78	5
79	1
81	2
82	7
83	4
84	32
85	2
87	1
89	4
91	33
92	2
94	1
95	1
96	5
97	3
98	9
99	3
100	1
102	2
103	8
104	5
105	1
108	3
110	12
111	2
112	999
113	75
114	2
115	23
116	4
117	5
118	1
124	8
125	8
126	9
127	2
128	4
129	1
132	1
139	3
141	1
151	3
152	29
153	5
163	1
164	4
165	50
166	19
167	25
168	6
176	1
178	10
179	7
180	2
181	1
186	1
189	1
191	1
193	5
194	1
200	1
214	1
215	1
236	1
250	1
289	1
291	1
292	3
293	98
294	22
295	2
