Mass Spectrum: Bis[3,4-dimethylbenzyl]sulfide
Formula: C18H22S
CAS: 34277-82-2
Molecular weight: 270
m/z	intensity
41	113
42	3
43	0
45	238
47	14
51	71
52	13
53	47
54	2
55	2
59	15
61	0
63	31
65	57
66	3
67	6
69	6
70	0
71	4
74	4
75	2
77	138
78	43
79	56
80	3
82	0
83	1
84	2
86	2
89	14
91	228
92	15
93	10
97	5
101	0
103	69
104	48
105	79
107	42
108	3
109	0
111	2
115	43
117	68
119	999
120	246
121	22
122	0
123	2
134	18
135	17
136	6
147	3
151	310
152	22
153	10
163	1
164	1
193	0
223	1
237	2
267	0
269	1
270	195
271	25
272	6
273	0
