Mass Spectrum: 1-Pyrrolidinyloxy, 3-amino-2,2,5,5-tetramethyl-
Formula: C8H17N2O
CAS: 34272-83-8
Molecular weight: 157
m/z	intensity
70	602
71	689
82	81
83	149
84	999
86	280
95	46
101	19
126	12
127	10
140	6
142	26
143	18
157	126
158	33
