Mass Spectrum: Bis[3,4-dimethylbenzyl]sulfone
Formula: C18H22O2S
CAS: 34277-83-3
Molecular weight: 302
m/z	intensity
41	60
42	1
43	2
45	1
47	1
49	6
51	25
52	8
53	16
54	1
55	1
57	1
59	0
62	0
63	9
65	19
66	1
67	2
69	0
71	0
75	1
77	57
78	22
79	18
80	1
84	3
86	2
89	5
91	93
92	5
93	6
103	38
104	31
105	4
115	22
117	48
119	999
120	83
121	3
132	6
133	1
135	0
151	0
153	1
206	0
207	0
221	1
235	0
237	1
238	112
239	8
240	0
302	7
303	0
