Mass Spectrum: 2,3,4,5-Tetrahydro-2,5-bis[3-trifluoromethylphenyl]thiophen-4-ol-3-one-1,1-dioxide
Formula: C18H12F6O4S
CAS: 34277-92-4
Molecular weight: 438
m/z	intensity
41	16
42	4
43	19
44	8
45	15
48	74
49	2
50	47
51	65
52	8
53	10
55	11
57	5
59	7
60	6
61	13
62	71
63	235
64	130
65	39
66	8
69	5
71	4
73	48
74	14
75	48
76	11
77	26
78	2
79	5
81	2
83	1
85	7
86	14
87	23
89	664
90	117
91	105
92	7
94	7
95	3
97	13
99	85
100	2
101	31
102	11
103	6
105	4
107	1
108	1
109	4
111	13
112	7
113	9
114	5
115	6
117	45
118	38
119	18
120	3
121	1
123	24
124	127
125	999
126	111
127	214
128	12
131	6
133	2
136	4
137	7
138	1
139	33
140	3
141	17
143	1
146	6
148	7
149	5
150	1
152	510
153	284
154	616
155	95
156	150
157	18
158	2
163	3
165	9
167	2
169	4
171	1
176	5
178	11
179	4
181	114
183	40
184	7
186	2
187	2
189	9
190	1
212	2
218	2
223	1
225	8
234	1
240	1
241	1
258	1
271	2
278	3
280	1
306	58
307	6
308	23
309	4
310	6
369	3
370	1
