Mass Spectrum: 2-Pyridinemethanol, 4,5-dimethyl-.alpha.-propyl-, 1-oxide
Formula: C11H17NO2
CAS: 34277-50-4
Molecular weight: 195
m/z	intensity
43	78
44	6
45	4
50	46
51	45
52	23
53	58
54	10
55	27
57	3
62	1
63	13
65	43
66	30
67	22
68	2
71	4
74	1
77	128
78	26
79	154
80	35
81	3
91	28
92	31
93	19
94	9
104	11
105	8
106	365
107	999
108	170
109	8
115	3
117	3
120	113
121	92
122	11
123	20
124	44
130	8
131	8
132	20
133	8
134	182
135	84
136	511
137	190
138	16
144	30
145	177
146	49
147	6
148	86
149	32
150	62
151	330
152	954
153	317
154	27
158	18
159	5
160	60
161	10
162	99
163	11
164	22
165	13
166	81
167	9
175	21
176	24
177	709
178	86
179	9
191	2
193	27
194	73
195	282
196	34
