Mass Spectrum: 4,4'-(4-Chlorobenzylidene)bis[N,N-bis(2-hydroxyethyl)aniline]
Formula: C27H33ClN2O4
CAS: 342777-54-2
Molecular weight: 484
m/z	intensity
35	58
36	214
37	25
38	71
39	28
40	14
41	40
42	77
43	121
45	999
46	20
50	14
51	32
52	9
54	6
55	10
56	12
57	8
63	17
64	7
65	19
67	5
69	8
70	6
73	10
74	9
75	9
76	17
77	53
78	24
79	11
89	11
90	18
91	43
93	5
95	6
96	11
98	5
102	6
103	9
104	36
105	55
106	48
115	12
117	13
118	18
119	20
120	12
125	9
126	6
127	10
128	11
130	8
132	9
134	9
135	9
139	8
141	9
148	8
149	20
150	39
151	11
152	25
153	11
157	6
163	14
164	19
165	161
166	59
167	27
168	6
172	5
178	17
179	12
180	12
181	9
182	5
189	9
190	9
191	6
192	10
193	17
194	57
195	11
199	8
200	7
201	6
202	6
207	5
208	7
209	8
210	7
211	52
215	5
221	9
228	43
229	11
230	19
238	5
239	14
240	8
241	9
242	6
270	6
299	12
333	11
377	6
419	7
453	10
