Mass Spectrum: 2,3,4,5-Tetrahydro-2,5-bis[3,4-dimethylphenyl]thiophen-4-ol-3-one-1,1-dioxide
Formula: C20H22O4S
CAS: 34277-89-9
Molecular weight: 358
m/z	intensity
41	100
43	26
44	2
45	12
46	1
48	93
50	16
51	46
52	15
53	39
55	44
56	0
57	9
58	1
59	6
60	9
61	3
62	0
63	9
64	205
65	53
66	14
67	6
68	1
69	6
70	0
71	4
72	0
73	6
74	3
75	6
77	149
78	54
79	53
80	3
81	3
82	1
83	1
84	1
85	1
86	0
87	4
88	0
89	23
91	270
92	20
93	14
94	2
95	2
96	0
97	2
98	1
99	1
101	6
102	12
103	115
104	63
105	103
106	14
107	12
108	1
109	2
110	1
111	1
113	2
115	145
117	302
119	999
120	102
121	7
122	1
123	3
124	1
125	1
127	11
128	15
129	17
131	59
132	48
133	84
134	11
135	9
136	1
137	1
138	0
139	1
141	2
142	0
143	5
146	773
147	398
148	863
149	116
150	14
151	4
152	2
153	2
155	0
157	3
159	22
160	7
161	5
162	2
163	4
164	1
165	4
167	3
169	1
171	3
173	0
175	263
176	25
177	0
178	10
179	2
180	0
181	0
182	0
183	0
185	1
187	1
188	9
189	5
190	1
191	2
192	2
193	1
195	2
202	3
203	3
204	0
205	2
206	3
207	2
208	0
209	1
210	1
213	0
215	2
216	1
217	1
218	1
219	1
220	1
221	2
223	18
224	3
225	0
226	0
228	0
229	0
231	1
232	0
233	7
234	2
235	2
236	3
237	2
238	0
242	0
245	1
246	4
247	2
248	6
249	8
250	3
251	0
252	0
255	0
258	1
261	9
262	1
263	2
264	1
265	1
266	13
267	2
273	0
275	2
276	4
277	9
279	13
280	2
289	0
290	0
292	2
294	270
295	59
296	9
297	0
308	1
341	0
356	1
358	7
359	1
