Mass Spectrum: Acetamide, N-(4-methylphenyl)-2-mercapto-
Formula: C9H11NOS
CAS: 34282-30-9
Molecular weight: 181
m/z	intensity
33	15
34	11
36	1
37	6
38	26
39	144
40	74
41	40
42	42
43	16
44	20
45	92
47	373
49	27
50	62
51	151
52	118
53	79
54	14
55	3
56	2
57	1
58	1
60	0
61	4
62	16
63	54
64	27
65	126
66	14
67	7
68	1
69	1
74	12
75	16
77	338
78	126
79	148
80	25
81	0
85	1
86	1
87	0
88	0
89	23
91	191
92	21
93	17
94	14
95	0
102	2
103	4
104	53
106	817
107	999
108	83
109	3
110	0
111	11
112	0
116	1
117	1
118	9
119	5
120	52
121	3
123	2
132	28
133	123
134	115
135	10
136	3
137	18
138	59
139	8
140	2
146	7
147	1
148	17
149	5
150	0
152	0
160	0
170	0
179	1
181	614
182	69
183	31
184	1
