Mass Spectrum: 1,2,4-Thiadiazole-3,5-diamine
Formula: C2H4N4S
CAS: 34283-30-2
Molecular weight: 116
m/z	intensity
43	510
74	930
116	999
