Mass Spectrum: 11-Hexacosyne
Formula: C26H50
CAS: 34291-69-5
Molecular weight: 362
m/z	intensity
41	580
42	50
43	980
44	20
45	10
53	50
54	320
55	780
56	110
57	500
65	10
66	30
67	800
68	300
69	570
70	70
71	150
72	10
77	30
78	20
79	170
80	150
81	999
82	999
83	650
84	50
85	80
91	30
92	20
93	100
94	100
95	900
96	950
97	450
98	30
99	10
107	50
108	30
109	480
110	200
111	150
112	20
121	30
122	20
123	250
124	120
125	50
126	20
135	30
136	20
137	130
138	100
139	30
150	20
151	100
152	180
153	30
165	150
166	80
167	20
179	20
180	30
181	20
193	20
194	30
195	20
207	30
208	130
209	20
221	180
222	200
223	30
235	30
236	50
237	10
249	10
250	20
262	20
263	20
277	50
278	80
291	10
292	20
362	220
363	50
