Mass Spectrum: Silane, hexyltrimethyl-
Formula: C9H22Si
CAS: 3429-62-7
Molecular weight: 158
m/z	intensity
26	2
27	38
28	24
29	44
30	1
31	24
32	5
33	0
37	0
38	0
39	21
40	3
41	42
42	12
43	79
44	30
45	113
46	7
47	3
50	0
51	1
52	0
53	6
54	2
55	16
56	7
57	14
58	36
59	337
60	25
61	11
65	0
66	1
67	3
68	0
69	2
70	4
71	12
72	23
73	999
74	75
75	31
76	0
81	1
82	0
83	9
84	0
85	9
86	7
87	36
88	3
89	1
95	0
97	2
98	0
99	10
100	1
101	21
102	2
103	0
113	4
114	1
115	3
127	0
141	0
143	187
144	26
145	7
146	0
156	0
158	3
159	0
