Mass Spectrum: 2-Quinuclidinecarboxanilide, 3-oxo-
Formula: C14H16N2O2
CAS: 34291-65-1
Molecular weight: 244
m/z	intensity
41	80
42	70
43	50
44	40
50	40
51	100
52	100
53	20
54	50
55	40
63	30
64	20
65	160
66	250
67	50
68	40
69	30
76	30
77	80
78	350
79	30
82	20
91	20
92	90
93	999
94	100
96	20
97	40
106	20
119	20
123	20
124	30
133	10
152	10
175	60
188	50
215	20
216	40
244	140
245	25
