Mass Spectrum: Diethyl(4-methylbenzyl)amine
Formula: C12H19N
CAS: 34306-01-9
Molecular weight: 177
m/z	intensity
41	12
42	14
51	13
56	19
58	15
65	15
72	25
73	12
77	77
79	56
81	15
86	83
88	9
91	19
103	40
104	6
105	999
106	74
162	407
163	40
176	22
177	151
178	9
