Mass Spectrum: Benzaldehyde, 3-nitro-, oxime
Formula: C7H6N2O3
CAS: 3431-62-7
Molecular weight: 166
m/z	intensity
15	1
16	3
17	27
18	36
25	2
26	8
27	39
28	56
29	6
30	176
31	1
32	1
36	4
37	40
38	50
39	164
40	9
41	6
42	2
43	9
44	18
45	1
46	11
48	4
49	23
50	241
51	242
52	58
53	23
54	4
55	8
56	1
59	1
60	4
61	22
62	43
63	108
64	63
65	301
66	25
67	3
68	3
69	1
70	1
72	3
73	20
74	91
75	389
76	320
77	130
78	17
79	5
80	5
81	24
82	2
83	1
84	1
85	6
86	9
87	9
88	9
89	32
90	146
91	85
92	40
93	28
94	5
95	1
98	2
99	18
100	13
101	9
102	999
103	223
104	109
105	12
106	2
107	2
108	5
109	24
110	2
111	1
116	2
117	3
118	72
119	180
120	55
121	8
122	12
123	8
131	9
132	28
133	3
134	4
135	2
136	2
139	69
140	5
141	2
147	2
148	493
149	189
150	114
151	17
152	2
164	1
165	10
166	324
167	27
168	3
