Mass Spectrum: 3-Penten-2-one, 4-butoxy-
Formula: C9H16O2
CAS: 3431-87-6
Molecular weight: 156
m/z	intensity
37	10
38	70
39	10
41	220
42	30
43	560
44	30
53	10
55	30
56	60
57	130
58	20
59	10
68	10
69	80
71	60
72	10
73	10
84	30
85	999
86	50
87	10
98	20
99	20
100	80
101	90
102	10
112	10
113	30
114	10
139	20
141	100
142	20
156	40
