Mass Spectrum: Cycloheptanone, 4-acetyl-7,7-dimethyl-2-(2-oxopropyl)-
Formula: C14H22O3
CAS: 343217-72-1
Molecular weight: 238
m/z	intensity
26	3
27	62
28	17
29	58
30	2
31	5
39	68
40	18
41	267
42	32
43	999
44	30
45	19
50	3
51	9
52	5
53	46
54	15
55	175
56	120
57	39
58	50
59	15
61	3
63	2
65	18
66	9
67	79
68	45
69	233
70	44
71	452
72	36
73	5
76	2
77	29
78	7
79	46
80	11
81	84
82	41
83	127
84	85
85	331
86	35
87	5
91	28
92	8
93	129
94	25
95	150
96	121
97	103
98	193
99	43
100	16
101	4
103	2
104	3
105	19
106	4
107	65
108	115
109	113
110	153
111	340
112	112
113	45
114	5
115	5
116	3
117	6
118	3
119	36
120	9
121	55
122	24
123	75
124	26
125	89
126	108
127	17
128	84
129	9
130	2
131	5
133	16
134	9
135	56
136	14
137	42
138	10
139	52
140	10
141	59
142	17
143	4
144	4
145	10
146	2
147	14
148	3
149	37
150	7
151	15
152	42
153	23
154	42
155	18
156	3
157	2
159	26
160	4
161	6
162	9
163	26
164	7
165	15
166	3
167	34
168	7
169	2
170	3
175	3
177	102
178	23
179	5
180	143
181	304
182	44
183	6
184	2
187	3
191	2
192	2
193	12
194	7
195	66
196	10
197	2
203	3
205	42
206	7
207	2
210	4
211	6
220	58
221	25
222	4
223	4
224	2
238	38
239	6
