Mass Spectrum: 3-(Cyclopropylmethyl)-1,2,3,4,5,6-hexahydro-6,11-dimethyl-2,6-methano-3-benzazocine-8-carboxylic acid
Formula: C19H25NO2
CAS: 343265-89-4
Molecular weight: 299
m/z	intensity
29	748
30	174
31	29
38	144
39	304
40	38
41	319
42	337
43	165
44	161
45	155
46	10
47	9
48	6
50	20
51	54
52	18
53	126
54	85
55	999
56	160
57	60
58	86
59	7
60	5
63	26
64	12
65	34
66	8
67	38
68	94
69	44
70	127
71	109
72	10
73	7
75	9
76	8
77	75
78	23
79	33
80	22
81	22
82	81
83	17
84	104
85	12
86	12
87	5
89	19
91	80
92	11
93	10
94	28
95	24
96	33
97	14
98	23
99	54
102	15
103	17
105	29
106	5
107	7
108	19
110	51
111	11
112	9
115	145
116	34
117	29
118	6
120	5
122	23
123	9
124	87
125	10
127	64
128	165
129	118
130	37
131	26
136	53
139	18
141	106
142	104
143	64
144	14
145	28
146	5
149	8
150	14
152	19
153	27
154	10
155	38
156	17
157	62
158	10
159	7
162	6
164	158
165	24
166	5
167	5
169	17
170	8
171	6
173	8
174	17
175	5
182	5
183	21
185	20
187	22
188	9
200	27
201	23
202	22
213	8
214	9
215	7
217	12
218	5
228	18
230	25
242	7
243	5
244	34
245	11
254	5
257	40
258	430
259	75
260	8
270	41
271	9
282	5
284	192
285	39
298	90
299	273
300	60
301	8
