Mass Spectrum: 4-Methyl-4'-trifluoromethylbenzophenone
Formula: C15H11F3O
CAS: 34328-30-8
Molecular weight: 264
m/z	intensity
41	14
47	1
49	8
50	19
51	25
52	4
53	2
55	2
57	5
61	1
62	10
63	33
64	9
65	100
66	4
69	12
70	2
74	7
75	21
76	8
77	3
81	3
82	4
84	6
86	6
87	4
88	2
89	35
90	7
91	271
92	15
93	5
95	28
96	1
98	2
99	4
100	2
101	0
107	4
108	3
113	0
115	2
119	999
120	61
121	4
122	0
123	0
125	20
126	11
127	0
133	2
139	2
143	3
144	1
145	148
146	8
150	0
151	2
152	5
160	3
163	2
164	1
165	19
166	3
167	9
168	0
169	0
170	2
173	95
174	6
175	1
176	0
178	0
179	0
183	2
188	0
193	0
195	19
196	2
201	4
214	2
215	3
217	7
219	2
220	2
233	2
235	6
236	2
245	27
246	3
249	16
250	0
262	0
263	3
264	352
265	24
266	3
