Mass Spectrum: .alpha.-D-Xylofuranoside, methyl 2,3,5-tri-O-methyl-
Formula: C9H18O5
CAS: 34338-82-4
Molecular weight: 206
m/z	intensity
45	644
55	29
57	21
59	29
71	63
73	90
74	31
75	328
85	34
87	15
88	74
89	26
99	26
101	999
102	58
111	10
115	23
117	8
129	18
131	10
143	26
146	13
161	66
175	21
