Mass Spectrum: 3-Penten-2-one, 4-(dimethylamino)-
Formula: C7H13NO
CAS: 3433-62-3
Molecular weight: 127
m/z	intensity
37	10
38	20
39	100
40	30
41	130
42	340
43	300
44	690
45	50
46	20
50	10
51	10
52	10
53	20
54	20
55	100
56	270
57	10
58	10
65	20
66	20
67	50
68	90
69	130
70	60
71	20
72	70
80	10
81	10
82	40
83	20
84	380
85	30
94	20
95	30
96	20
97	10
98	20
108	20
110	480
111	40
112	999
113	70
127	850
128	70
