Mass Spectrum: 1-[5-Nitro-6-uracilyl]-2-[4-fluorophenyl]ethene
Formula: C12H8FN3O4
CAS: 343354-75-6
Molecular weight: 277
m/z	intensity
41	13
42	8
43	40
44	97
45	6
46	52
50	28
51	40
52	73
53	96
54	177
55	25
56	16
57	61
59	7
61	15
62	36
63	76
64	14
65	28
67	115
68	60
69	30
70	342
71	23
74	107
75	196
76	48
77	67
78	16
80	40
81	89
82	327
83	141
84	30
86	34
87	51
88	24
89	31
92	5
93	11
94	118
95	349
96	147
97	269
98	57
99	67
101	444
102	57
103	7
105	43
107	310
109	731
110	323
112	77
113	32
114	8
115	6
117	14
118	6
120	349
121	171
123	448
125	999
126	107
128	106
129	8
130	5
131	116
132	110
133	591
134	148
135	71
136	48
137	29
138	23
139	11
140	23
141	17
144	43
145	84
146	202
147	151
148	265
149	34
150	26
151	5
153	51
154	40
155	7
158	261
159	92
160	97
161	58
162	29
163	7
164	7
170	6
171	19
172	11
173	90
174	31
175	10
176	26
177	19
187	60
188	50
189	78
190	15
201	13
202	7
203	20
204	10
205	18
213	50
214	67
215	20
216	10
217	20
218	5
231	154
232	66
233	7
246	2
247	15
248	163
249	6
250	12
260	50
261	8
277	85
278	9
