Mass Spectrum: 3,4-Secodammara-4(28),24-dien-3-oic acid, 20-hydroxy-
Formula: C30H50O3
CAS: 34336-09-9
Molecular weight: 458
m/z	intensity
43	360
55	250
69	700
81	250
95	320
109	999
121	140
125	30
127	150
143	30
149	120
161	70
175	60
189	50
205	40
215	30
233	30
289	40
329	80
357	40
371	200
397	15
425	20
440	120
