Mass Spectrum: 1-[4-Chlorophenyl]-N,N-dimethyl-1H-tetrazol-5-amine
Formula: C9H10ClN5
CAS: 343376-06-7
Molecular weight: 223
m/z	intensity
42	419
43	999
44	106
45	3
47	30
48	13
49	146
50	156
51	121
52	24
53	21
54	18
55	27
56	33
57	4
58	321
59	7
60	5
61	35
62	86
63	243
64	92
65	19
66	7
67	11
68	0
69	117
70	26
71	24
72	15
73	81
74	73
75	260
76	64
77	21
78	6
79	4
80	2
81	1
82	2
83	5
84	70
85	33
86	42
87	17
88	27
89	80
90	328
91	27
92	15
93	4
94	0
95	1
96	0
97	10
98	35
99	126
100	19
101	42
102	24
103	7
104	4
105	3
106	2
107	1
108	0
109	1
110	5
111	275
112	22
113	90
114	9
115	2
116	10
117	21
118	34
119	66
120	6
121	0
124	24
125	675
126	57
127	229
128	14
129	2
130	3
131	27
132	26
133	19
134	3
135	0
136	0
137	16
138	6
139	16
140	4
141	4
142	0
143	3
144	7
145	19
146	2
147	0
149	1
150	0
151	56
152	168
153	53
154	55
155	41
156	3
157	10
158	6
160	445
161	45
162	2
163	2
165	23
166	97
167	13
168	35
169	4
174	1
178	0
179	0
180	112
181	33
182	37
183	11
184	0
186	0
187	1
191	0
192	0
194	35
195	6
196	11
197	2
201	0
221	0
222	6
223	205
224	32
225	75
226	11
227	0
