Mass Spectrum: 4H-1,3-Dioxino[5,4-c]pyridine, hexahydro-6-methyl-8a-phenyl-
Formula: C14H19NO2
CAS: 343567-38-4
Molecular weight: 233
m/z	intensity
34	2
36	3
38	4
39	46
40	41
41	122
42	292
43	315
44	999
50	16
51	50
52	10
53	18
54	10
55	59
56	25
57	139
58	100
62	3
63	12
64	4
65	19
66	4
67	8
68	11
69	14
70	113
71	117
72	11
73	2
74	6
75	6
76	11
77	112
78	25
79	9
80	4
81	8
82	33
83	27
84	65
85	21
87	5
89	8
91	75
92	7
93	6
94	10
95	6
96	12
97	7
98	6
99	4
100	9
102	41
103	25
104	12
105	91
106	8
107	3
108	3
109	3
110	5
111	4
112	4
113	3
114	13
115	52
116	14
117	13
118	5
120	4
124	3
126	11
127	15
128	47
129	31
130	12
131	19
132	6
133	8
141	11
142	7
143	20
144	17
145	6
146	4
154	4
155	5
156	6
157	6
158	6
159	7
160	4
170	16
171	6
172	60
174	367
175	48
176	5
184	7
186	9
187	2
188	5
202	10
203	2
204	10
232	24
233	58
234	10
