Mass Spectrum: L-Tyrosinamide, 5-oxo-L-prolyl-
Formula: C14H17N3O4
CAS: 34368-03-1
Molecular weight: 291
m/z	intensity
39	80
40	200
55	70
63	30
65	40
77	180
78	50
84	410
85	60
91	60
94	40
107	999
108	60
120	40
121	30
129	20
132	20
136	60
147	10
150	10
163	100
164	40
168	100
185	10
190	20
203	10
215	30
228	10
256	40
273	20
