Mass Spectrum: 3,4-Dichlorobutane nitrile
Formula: C4H5Cl2N
CAS: 34362-21-5
Molecular weight: 137
m/z	intensity
38	57
47	58
48	74
49	999
51	329
75	377
77	125
87	1
102	50
104	16
110	390
111	35
112	274
114	39
137	143
139	75
141	14
