Mass Spectrum: 2-(2-Furyl)-2,5-dimethyltetrahydrofuran
Formula: C10H14O2
CAS: 343788-24-9
Molecular weight: 166
m/z	intensity
43	840
44	700
55	370
95	999
99	340
110	170
111	450
122	100
123	110
151	720
166	210
