Mass Spectrum: Furan, 2,3-dihydro-4-(1-methylpropyl)-, (S)-
Formula: C8H14O
CAS: 34379-54-9
Molecular weight: 126
m/z	intensity
15	20
17	20
18	65
26	8
27	105
28	25
29	100
30	2
31	10
32	5
37	2
38	8
39	140
40	20
41	480
42	30
43	310
44	8
45	5
50	5
51	15
52	5
53	50
54	10
55	130
56	10
57	20
58	2
63	5
65	15
66	10
67	65
68	8
69	115
70	15
71	5
77	30
78	5
79	65
80	5
81	15
82	3
83	20
91	10
93	10
95	20
96	15
97	999
98	60
99	3
111	60
112	5
126	220
127	22
