Mass Spectrum: 6-Cycloheptylamino-5,8-quinolinedione
Formula: C16H18N2O2
CAS: 34388-40-4
Molecular weight: 270
m/z	intensity
41	882
42	33
43	207
44	9
47	2
49	13
50	95
51	158
52	103
53	262
55	999
56	48
57	15
63	114
64	36
65	66
67	280
68	200
69	51
70	8
71	7
75	99
76	121
77	139
78	164
79	97
80	52
81	137
82	34
83	28
84	22
85	1
86	9
88	3
89	12
90	93
91	49
92	24
94	151
95	127
96	87
97	55
98	1
102	117
103	105
104	67
105	52
106	78
107	13
108	19
109	9
110	10
111	17
112	9
116	44
117	78
118	55
119	16
120	4
121	6
122	2
123	9
128	7
129	5
130	60
131	41
132	24
133	9
134	9
136	56
137	1
140	1
142	16
143	27
144	45
145	37
146	72
147	63
148	53
154	2
155	19
156	30
157	53
158	22
159	26
160	24
161	7
162	4
164	15
167	36
168	32
169	30
170	3
171	29
172	16
173	28
175	516
176	118
177	11
181	2
182	4
183	32
184	12
185	168
186	49
187	92
188	21
189	15
195	41
196	18
197	27
199	55
200	16
201	16
202	11
209	2
211	11
213	346
214	47
215	13
216	2
223	2
225	42
227	62
228	9
229	7
241	25
242	17
253	18
255	11
269	18
270	368
271	62
272	19
273	2
