Mass Spectrum: o-Menthan-8-ol
Formula: C10H20O
CAS: 343855-44-7
Molecular weight: 156
m/z	intensity
26	2
27	43
28	9
29	50
30	1
31	59
32	0
37	0
38	1
39	54
40	9
41	116
42	22
43	105
44	3
45	20
46	0
50	1
51	6
52	3
53	22
54	12
55	142
56	16
57	10
58	88
59	999
60	30
61	2
62	0
63	1
65	6
66	3
67	41
68	19
69	23
70	7
71	10
72	0
73	0
77	6
78	1
79	8
80	2
81	42
82	14
83	22
84	2
85	1
91	2
92	0
93	1
94	1
95	17
96	26
97	46
98	4
99	0
107	0
109	2
110	0
123	11
124	1
125	0
138	2
139	0
141	6
142	0
