Mass Spectrum: 1,3-Diphenyl-2,2-diethylpropan-1,3-dion-dioxim
Formula: C19H22N2O2
CAS: 343815-01-0
Molecular weight: 310
m/z	intensity
12	12
14	4
15	22
16	14
17	15
18	35
19	5
26	29
27	228
28	64
29	562
30	74
31	16
32	2
33	7
37	17
38	15
39	174
40	25
41	280
42	60
43	103
44	53
45	41
46	8
49	8
50	86
51	298
52	68
53	72
54	19
55	86
56	29
57	81
58	11
60	92
61	11
62	15
63	58
64	45
65	98
66	31
67	37
68	21
69	50
70	12
71	11
73	9
74	36
75	62
76	250
77	999
78	128
79	57
80	15
81	9
82	8
86	4
87	14
88	18
89	68
90	18
91	296
92	51
93	17
94	18
95	5
96	14
97	6
101	14
102	50
103	343
104	490
105	392
106	62
107	9
109	9
113	5
114	9
115	210
116	113
117	200
118	38
119	25
120	24
121	6
122	6
123	9
124	4
126	9
127	54
128	119
129	104
130	85
131	122
132	35
133	14
134	37
135	9
139	6
140	12
141	29
142	26
143	67
144	98
145	28
146	31
147	13
148	12
149	5
151	5
152	9
153	9
154	8
155	13
156	27
157	39
158	112
159	31
160	27
161	40
162	19
163	5
165	12
167	5
168	4
169	5
170	5
172	86
173	56
174	47
175	16
176	59
177	10
178	12
179	8
180	120
181	19
182	5
188	4
190	927
191	160
192	18
193	6
194	3
195	5
196	7
202	10
203	13
204	20
205	13
206	9
207	3
209	3
215	6
216	5
217	18
218	18
219	24
220	6
221	4
222	2
230	5
231	10
232	22
233	14
234	7
235	4
244	2
245	16
246	28
247	16
248	12
249	15
250	40
251	8
259	2
260	25
261	27
262	14
263	8
264	6
265	6
275	2
276	7
277	10
278	41
279	10
281	3
293	383
294	85
295	9
310	27
311	6
