Mass Spectrum: Cyclopentanepropanoic acid, 3-oxo-, methyl ester
Formula: C9H14O3
CAS: 34399-78-5
Molecular weight: 170
m/z	intensity
26	19
27	171
28	128
29	132
31	17
39	173
40	36
41	259
42	44
43	222
44	11
45	16
50	10
51	23
52	16
53	88
54	113
55	469
56	69
57	41
59	153
65	13
66	10
67	101
68	62
69	104
70	9
71	65
72	30
73	33
74	441
75	81
77	14
78	18
79	33
80	9
81	63
82	272
83	999
84	72
85	20
87	84
88	24
91	9
92	25
93	67
94	9
95	69
96	845
97	262
98	21
99	9
100	8
109	42
110	56
111	34
113	39
114	28
115	16
120	16
121	29
127	8
137	7
138	39
139	293
140	26
141	9
142	7
143	0
151	3
152	65
153	9
169	5
170	47
171	4
172	0
