Mass Spectrum: 1H-Imidazole-4-ethanamine, 2-methyl-
Formula: C6H11N3
CAS: 34392-54-6
Molecular weight: 125
m/z	intensity
28	240
29	30
30	480
31	20
39	50
41	80
42	280
43	30
52	40
53	30
54	260
55	240
56	50
66	30
67	30
68	60
69	30
81	100
82	30
83	30
94	20
95	410
96	999
97	100
108	20
109	20
123	20
124	20
125	80
126	10
