Mass Spectrum: Nonacosan-14-one
Formula: C29H58O
CAS: 34394-11-1
Molecular weight: 422
m/z	intensity
27	12
29	58
39	23
40	5
41	269
42	69
43	708
44	22
53	16
54	44
55	471
56	125
57	930
58	556
59	315
66	6
67	145
68	83
69	360
70	114
71	999
72	80
79	22
80	14
81	165
82	224
83	274
84	83
85	376
86	30
94	10
95	221
96	299
97	209
98	78
99	60
100	75
101	11
109	156
110	91
111	107
112	25
113	58
114	55
123	76
124	47
125	38
126	13
127	98
128	18
135	21
137	33
138	42
139	14
140	7
141	19
142	10
151	16
152	31
155	14
156	12
165	8
166	83
167	14
168	25
169	17
170	11
180	10
183	20
184	8
194	47
196	16
197	10
198	7
208	21
210	9
211	582
212	88
213	9
222	3
226	82
227	240
228	39
236	20
238	7
239	585
240	102
241	11
253	21
254	83
255	176
256	31
267	35
268	9
281	21
282	7
295	8
296	4
309	3
366	1
379	4
393	5
404	3
421	4
422	17
423	4
424	1
