Mass Spectrum: 1-n-Butoxy-2,3-dimethyldiaziridine
Formula: C8H17NO
CAS: 343928-70-1
Molecular weight: 143
m/z	intensity
41	380
42	245
43	210
44	25
45	90
46	11
54	15
55	90
56	100
57	195
58	25
70	999
71	50
72	9
143	5
144	1
