Mass Spectrum: 3,3-Dimethyl-1-(6-methyl-tetrahydropyran-2-yl)-butan-2-one
Formula: C12H22O2
CAS: 343947-11-5
Molecular weight: 198
m/z	intensity
27	40
29	111
31	5
39	66
40	16
41	218
42	61
43	148
44	17
45	24
51	5
53	22
54	32
55	177
56	32
57	532
58	37
59	16
63	4
65	7
66	4
67	25
68	12
69	55
70	26
71	60
72	7
77	8
79	14
80	8
81	578
82	45
83	21
84	8
85	117
86	11
87	4
91	6
93	8
94	6
95	82
96	23
97	36
98	24
99	999
100	80
101	7
103	4
105	5
107	3
109	6
111	7
112	8
113	11
114	4
121	4
122	3
123	40
124	5
126	4
127	15
137	5
139	6
140	3
141	389
142	109
143	11
154	18
155	9
156	26
157	3
180	10
183	4
197	4
198	13
199	5
