Mass Spectrum: D-Proline
Formula: C5H9NO2
CAS: 344-25-2
Molecular weight: 115
m/z	intensity
14	1
15	10
26	6
27	32
28	203
29	9
30	27
31	3
32	1
33	2
34	1
37	4
38	9
39	52
40	16
41	194
42	56
43	207
44	12
45	15
46	1
51	1
52	2
53	8
54	4
55	5
56	2
57	1
66	2
67	6
68	98
69	56
70	999
71	53
72	1
73	3
74	6
84	1
86	1
87	10
93	1
96	3
97	2
114	1
115	11
116	1
