Mass Spectrum: Pyrazine, isopropenyl-
Formula: C7H8N2
CAS: 34413-32-6
Molecular weight: 120
m/z	intensity
26	64
27	41
38	41
39	147
40	37
41	125
52	62
53	55
60	9
65	56
66	39
67	124
74	0
78	68
92	39
94	28
119	999
120	349
