Mass Spectrum: 1-Propanamine, N,2-dimethyl-N-nitroso-
Formula: C5H12N2O
CAS: 34419-76-6
Molecular weight: 116
m/z	intensity
30	360
31	9
32	19
37	33
38	62
39	288
40	96
41	509
42	999
43	701
44	360
45	14
50	9
51	14
52	14
53	14
54	19
55	38
56	81
57	38
58	9
59	9
61	19
67	9
68	24
70	28
71	24
73	129
74	9
82	9
83	9
84	19
99	9
116	19
