Mass Spectrum: Benzene, 1-nonenyl-
Formula: C15H22
CAS: 34426-61-4
Molecular weight: 202
m/z	intensity
26	6
27	63
29	39
30	1
33	3
34	6
37	5
38	9
39	92
40	20
41	126
42	17
43	81
44	6
45	6
50	11
51	35
52	16
53	21
54	23
55	58
56	9
57	11
59	2
61	2
62	4
63	20
64	10
65	44
66	9
67	15
68	11
69	58
70	10
71	2
73	2
74	6
75	8
76	6
77	43
78	40
79	19
80	2
81	15
82	10
83	1
85	2
87	1
88	4
89	16
90	6
91	338
92	91
93	15
94	4
95	4
96	0
97	2
98	2
101	1
102	19
103	37
104	999
105	123
106	10
107	4
108	2
109	3
110	5
111	6
113	3
114	5
115	197
116	72
117	788
118	140
119	12
124	1
127	10
128	31
129	43
130	28
131	51
132	18
133	7
134	4
141	4
142	2
143	5
144	4
145	11
146	3
147	5
159	4
178	3
187	3
191	2
200	1
202	145
203	28
204	4
