Mass Spectrum: Guanidine, 1-(4-aminobutyl)-1-isopentyl-
Formula: C10H24N4
CAS: 34420-04-7
Molecular weight: 200
m/z	intensity
41	190
42	140
43	540
44	450
45	60
52	110
55	230
56	180
57	130
58	160
59	210
60	470
69	80
70	700
71	100
72	920
73	420
83	120
84	510
85	90
86	540
87	999
88	60
96	60
98	300
100	110
101	790
102	60
114	410
115	90
127	60
128	330
130	120
140	90
143	60
144	470
156	200
157	270
170	730
171	100
184	180
185	110
200	370
