Mass Spectrum: 4H-Cyclopenta[c]furan, hexahydro-1,1-dimethyl-4-methylene-
Formula: C10H16O
CAS: 344294-72-0
Molecular weight: 152
m/z	intensity
26	6
27	126
28	11
29	75
30	2
31	10
37	2
38	10
39	180
40	24
41	175
42	35
43	595
44	12
45	18
46	1
50	16
51	51
52	29
53	83
54	20
55	33
56	2
57	8
58	3
59	74
60	5
61	8
62	3
63	15
64	4
65	56
66	44
67	44
68	8
69	10
71	1
72	14
73	13
74	2
75	6
76	2
77	169
78	68
79	999
80	90
81	25
82	4
83	6
89	3
90	2
91	238
92	38
93	188
94	199
95	37
96	3
97	4
102	1
103	8
104	3
105	50
106	11
107	921
108	74
109	11
110	1
115	3
117	4
119	20
120	3
121	26
122	401
123	40
124	4
132	1
133	1
134	6
135	1
137	114
138	12
152	27
153	3
