Mass Spectrum: 9,12-Octadecadienoic acid (Z,Z)-, 2-hydroxy-1-(hydroxymethyl)ethyl ester
Formula: C21H38O4
CAS: 3443-82-1
Molecular weight: 354
m/z	intensity
26	20
27	160
28	40
29	300
30	10
31	100
32	10
37	10
38	10
39	160
40	30
41	690
42	130
43	360
44	70
45	130
46	10
47	10
50	10
51	20
52	20
53	130
54	380
55	780
56	110
57	280
58	20
59	20
60	40
61	70
62	10
63	10
65	60
66	80
67	999
68	360
69	390
70	60
71	80
72	10
73	40
74	60
75	70
76	10
77	130
78	60
79	420
80	350
81	840
82	370
83	240
84	70
85	60
86	10
87	20
90	10
91	130
92	40
93	260
94	160
95	490
96	300
97	150
98	80
99	30
100	10
101	20
103	10
104	10
105	60
106	30
107	130
108	90
109	230
110	220
111	70
112	20
113	20
115	10
116	20
117	20
118	10
119	30
120	30
121	150
122	80
123	130
124	120
125	40
126	10
127	80
128	10
129	30
130	10
131	30
132	10
133	30
134	40
135	140
136	90
137	80
138	60
139	20
140	10
141	10
143	10
145	30
146	10
147	30
148	10
149	100
150	100
151	60
152	40
153	20
154	10
155	10
157	10
159	10
160	10
161	20
162	10
163	90
164	40
165	20
166	20
167	10
171	10
173	10
175	10
176	10
177	50
178	50
179	20
180	10
181	10
182	10
185	90
187	10
189	10
191	30
192	20
193	10
194	10
195	10
196	10
205	20
206	20
207	10
209	10
210	10
218	10
219	10
220	20
221	10
223	10
233	10
234	80
235	20
245	20
261	10
262	390
263	210
264	50
265	10
279	10
280	30
281	10
305	10
336	10
337	10
354	10
