Mass Spectrum: 3-Methyl-4-phenylhept-1-en-5-yn-4-ol
Formula: C14H16O
CAS: 344333-15-9
Molecular weight: 200
m/z	intensity
25	1
26	13
27	119
28	12
29	81
30	1
31	3
37	8
38	22
39	214
40	28
41	59
42	4
43	76
44	3
45	1
47	3
48	1
49	3
50	50
51	141
52	25
53	32
54	8
55	63
56	25
57	17
58	2
61	4
62	14
63	46
64	10
65	31
66	26
67	999
68	45
69	7
70	4
71	8
72	0
73	3
74	21
75	27
76	33
77	260
78	39
79	14
80	1
81	3
82	5
83	10
84	4
85	3
86	5
87	10
88	6
89	31
90	7
91	42
92	4
93	4
94	1
95	4
96	0
97	3
98	3
99	3
100	2
101	9
102	24
103	18
104	4
105	164
106	12
107	2
109	1
111	1
113	5
114	6
115	140
116	53
117	11
118	1
119	2
120	1
121	23
122	2
123	1
125	1
126	12
127	26
128	36
129	28
130	3
131	2
132	3
133	1
136	5
139	8
140	1
141	21
142	19
143	8
144	36
145	916
146	104
147	7
149	6
150	2
151	6
152	47
153	16
154	3
155	4
156	3
157	17
158	3
159	1
160	2
163	2
164	3
165	54
166	32
167	90
168	13
169	2
170	1
171	8
172	1
178	4
179	3
180	1
181	10
182	20
183	5
184	1
185	21
186	2
199	2
200	4
