Mass Spectrum: 2-Ethylthio-5-methylimidazoline
Formula: C6H12N2S
CAS: 344330-00-3
Molecular weight: 144
m/z	intensity
52	10
53	5
54	25
55	30
56	80
57	45
58	25
59	30
60	100
61	15
62	5
69	10
72	305
73	180
74	60
75	20
76	30
82	10
83	15
84	20
85	15
86	330
87	40
88	20
100	25
101	570
102	25
103	20
111	90
112	10
114	20
115	65
116	999
117	50
118	30
129	160
130	10
143	30
144	60
145	6
146	3
