Mass Spectrum: Cyclooct-4-en-1-ol, 8-iodo-, acetate
Formula: C10H15IO2
CAS: 344302-49-4
Molecular weight: 294
m/z	intensity
26	6
27	106
29	103
30	8
31	8
35	11
36	22
37	5
38	16
39	197
40	26
41	257
42	32
43	999
44	158
45	19
46	1
47	23
48	11
49	220
50	17
51	103
53	22
55	75
56	12
57	104
58	47
59	11
60	12
61	17
62	3
63	10
64	5
65	39
66	38
67	193
68	39
69	32
70	22
71	15
72	3
73	3
74	3
75	4
76	4
77	137
78	66
79	657
80	164
81	148
82	20
83	33
84	181
85	7
86	110
87	4
88	14
89	3
90	2
91	232
92	31
93	31
94	7
95	53
96	24
97	17
98	5
99	11
100	2
101	3
102	2
103	7
104	5
105	212
106	61
107	814
108	132
109	15
110	4
111	7
112	4
113	3
114	1
115	3
116	2
117	2
118	1
119	4
120	3
121	6
122	6
123	19
124	16
125	194
126	17
127	8
128	4
129	2
130	1
131	3
132	2
133	4
134	3
135	3
136	2
137	3
138	4
139	5
140	2
141	5
142	5
143	2
144	2
145	2
146	2
147	2
148	2
149	13
150	3
151	2
152	5
153	4
154	4
155	8
156	4
157	2
158	2
159	2
160	2
161	2
162	2
163	2
164	2
165	2
166	16
167	321
168	28
169	4
170	2
171	1
172	1
173	1
174	2
175	2
176	1
177	1
178	2
179	1
180	3
181	2
182	2
183	5
184	2
185	2
186	3
187	1
188	3
189	1
190	1
191	2
192	1
193	4
194	1
195	1
196	3
197	2
198	1
199	1
200	1
201	1
202	1
203	1
204	1
205	1
206	1
207	1
208	1
209	1
210	2
211	1
212	1
213	1
223	1
224	1
225	1
226	2
227	2
228	1
229	1
233	2
234	8
235	2
236	1
237	1
238	1
239	1
250	1
251	9
252	2
254	1
255	1
294	2
