Mass Spectrum: Carbamoyl(methoxycarbonyl)-methoxyiminomethane
Formula: C5H8N2O4
CAS: 344354-28-5
Molecular weight: 160
m/z	intensity
15	658
16	32
27	112
28	128
29	308
30	112
31	336
32	168
33	12
41	112
42	184
43	142
44	999
45	308
46	42
54	252
55	84
56	49
57	42
58	742
59	632
60	61
67	35
68	35
69	42
70	281
71	24
72	56
85	56
86	999
87	126
88	13
100	143
101	84
102	7
129	224
130	18
160	84
161	9
