Mass Spectrum: 1-Hexen-4-ol, 4-cyclohexyl-3-methyl-
Formula: C13H24O
CAS: 344308-85-6
Molecular weight: 196
m/z	intensity
26	2
27	56
28	3
29	197
30	5
31	39
39	57
40	7
41	196
42	12
43	96
44	4
45	12
50	2
51	7
52	4
53	40
54	15
55	334
56	29
57	999
58	36
59	350
60	13
61	1
63	2
65	11
66	4
67	161
68	14
69	62
70	5
71	14
72	2
73	25
74	1
77	18
78	3
79	23
80	4
81	279
82	26
83	493
84	39
85	23
86	2
91	9
92	1
93	12
94	4
95	21
96	3
97	17
98	3
99	57
100	4
105	1
107	5
108	1
109	5
110	1
111	110
112	39
113	174
114	15
115	2
121	4
122	1
123	151
124	16
125	2
135	3
139	2
140	3
141	543
142	59
143	3
149	4
152	1
167	13
168	2
178	1
179	1
