Mass Spectrum: 9-Octadecenoic acid (Z)-, 2-hydroxy-1-(hydroxymethyl)ethyl ester
Formula: C21H40O4
CAS: 3443-84-3
Molecular weight: 356
m/z	intensity
26	20
27	210
28	70
29	360
30	10
31	110
32	10
36	10
37	10
38	10
39	210
40	40
41	900
42	190
43	660
44	120
45	130
46	10
47	10
50	20
51	40
52	20
53	130
54	330
55	999
56	300
57	480
58	30
59	30
60	80
61	110
62	10
63	10
65	50
66	50
67	650
68	300
69	690
70	230
71	150
72	20
73	110
74	100
75	100
76	10
77	130
78	30
79	210
80	140
81	570
82	340
83	510
84	260
85	100
86	20
87	50
88	10
91	70
92	20
93	130
94	90
95	410
96	320
97	360
98	490
99	60
100	30
101	40
102	10
103	10
104	10
105	180
106	30
107	70
108	70
109	240
110	200
111	190
112	170
113	50
114	40
115	40
116	40
117	20
118	10
119	40
120	20
121	90
122	80
123	220
124	130
125	90
126	60
127	80
128	20
129	90
130	10
131	10
132	10
133	40
134	60
135	80
136	40
137	160
138	100
139	50
140	20
141	20
142	10
143	20
144	10
145	10
147	40
148	20
149	50
150	30
151	120
152	90
153	40
154	20
155	70
156	10
157	10
158	10
159	10
161	20
162	10
163	30
164	30
165	70
166	60
167	30
168	10
169	20
170	10
171	20
172	10
173	10
175	10
176	10
177	20
178	20
179	40
180	50
181	20
182	10
183	10
185	20
186	10
187	10
189	10
191	10
192	10
193	30
194	20
195	10
196	10
197	10
199	10
203	10
205	10
206	10
207	40
208	20
209	20
210	10
211	10
213	10
219	10
220	30
221	60
222	40
223	10
227	10
233	10
234	20
235	30
236	20
237	10
239	10
241	10
245	10
246	20
247	20
248	10
249	10
253	10
261	10
262	100
263	70
264	510
265	290
266	50
267	10
279	10
280	20
281	10
282	10
283	10
284	10
295	10
307	10
325	30
326	10
336	10
337	10
338	30
339	30
340	10
354	10
356	10
