Mass Spectrum: Ethylmalononitrile, 1-cyclohexyl-
Formula: C11H16N2
CAS: 344407-93-8
Molecular weight: 176
m/z	intensity
23	0
26	9
27	173
28	29
29	198
30	6
36	11
37	2
38	5
39	202
40	27
41	700
42	55
43	78
44	1
50	5
51	25
52	22
53	98
54	67
55	933
56	59
57	25
62	0
63	6
64	8
65	33
66	24
67	148
68	37
69	605
70	33
75	1
76	3
77	35
78	16
79	47
80	16
81	75
82	40
83	999
84	70
85	1
86	0
89	1
90	2
91	16
92	12
93	36
94	14
95	39
96	3
102	0
103	2
104	5
105	11
106	10
107	9
108	8
109	19
110	4
111	590
112	50
116	1
117	1
118	3
119	5
120	12
121	10
122	5
123	56
124	4
130	0
131	1
132	2
133	6
134	7
135	0
136	2
145	0
146	0
147	7
148	9
149	35
150	71
151	7
159	1
160	0
161	80
162	8
175	67
176	193
177	29
178	0
