Mass Spectrum: 1,3,7-Nonatriene-1,1-dicarbonitrile, 4,8-dimethyl-, (E)-
Formula: C13H16N2
CAS: 344401-84-9
Molecular weight: 200
m/z	intensity
26	3
27	91
28	6
29	44
30	1
37	1
38	5
39	107
40	13
41	562
42	22
43	17
44	0
50	6
51	21
52	13
53	48
54	7
55	11
56	3
57	0
61	0
62	4
63	11
64	9
65	17
66	6
67	30
68	9
69	999
70	50
71	0
74	0
75	3
76	8
77	36
78	13
79	15
80	2
81	3
82	5
83	1
84	0
85	0
86	0
87	1
88	3
89	6
90	6
91	10
92	2
93	1
94	0
95	0
96	1
99	0
100	0
101	1
102	5
103	6
104	15
105	10
106	1
107	1
109	1
113	0
114	1
115	3
116	6
117	4
118	2
119	0
120	0
126	0
127	0
128	1
129	4
130	2
131	5
132	4
133	0
140	1
141	0
142	2
143	6
144	6
145	3
146	0
147	0
152	0
153	0
154	0
155	1
156	1
157	3
158	3
159	0
167	0
168	1
169	1
170	1
171	1
172	0
173	0
181	0
182	0
183	1
184	0
185	1
197	0
199	1
200	55
201	8
202	0
