Mass Spectrum: Cyclohexanecarboxylic acid, 2-hydroxy-, ethyl ester
Formula: C9H16O3
CAS: 3444-72-2
Molecular weight: 172
m/z	intensity
26	27
27	391
29	352
30	33
31	145
34	9
36	15
38	11
39	218
40	115
41	499
42	163
43	293
44	188
45	116
47	31
50	13
51	35
52	21
53	164
54	128
55	385
56	114
57	438
58	44
59	12
60	76
61	39
62	10
63	11
65	28
66	43
67	233
68	296
69	284
70	364
71	114
72	18
73	665
74	71
75	28
76	13
77	47
78	23
79	256
80	271
81	520
82	144
83	241
84	129
85	38
86	19
87	54
88	140
89	19
91	23
92	19
93	17
94	133
95	67
96	20
97	240
98	455
99	193
100	26
101	999
102	183
103	20
105	13
107	21
108	215
109	201
110	30
111	26
112	64
113	9
114	13
115	204
116	34
117	11
124	17
125	114
126	263
127	424
128	37
129	178
130	23
143	16
144	560
145	115
146	11
154	141
155	16
170	3
171	11
172	64
173	6
174	1
