Mass Spectrum: 2-Methylcyclohexan-1-on-3-ylbutanoic acid, 2,2-dimethyl-3-(methylsulfonyloxy)propyl ester
Formula: C17H30O6S
CAS: 344552-36-9
Molecular weight: 362
m/z	intensity
26	7
27	83
28	40
29	139
30	3
31	14
37	1
38	2
39	83
40	19
41	367
42	54
43	84
44	5
45	33
46	1
47	1
48	3
50	3
51	5
52	3
53	46
54	34
55	369
56	128
57	46
58	6
59	8
60	6
61	2
62	1
63	5
64	2
65	10
66	7
67	107
68	69
69	369
70	46
71	33
72	9
73	16
74	2
75	1
76	2
77	13
78	5
79	113
80	26
81	109
82	63
83	80
84	24
85	25
86	15
87	26
88	3
89	1
90	1
91	17
92	6
93	60
94	17
95	65
96	49
97	59
98	8
99	5
100	2
101	1
103	1
104	3
105	17
106	12
107	35
108	32
109	67
110	185
111	999
112	128
113	12
114	3
115	5
116	1
117	2
118	29
119	25
120	19
121	39
122	6
123	48
124	66
125	28
126	6
127	14
128	125
129	12
130	1
131	2
132	1
133	17
134	41
135	332
136	49
137	59
138	13
139	9
140	2
141	24
142	4
143	3
144	37
145	23
146	4
147	26
148	2
149	30
150	3
151	63
152	54
153	20
154	14
155	6
156	2
157	3
160	1
161	15
162	38
163	122
164	16
165	27
166	2
167	2
169	2
170	1
171	1
177	1
178	3
179	9
180	32
181	164
182	19
183	20
184	3
189	1
191	1
192	1
193	1
194	1
195	3
196	1
197	4
198	1
199	3
203	1
205	1
209	1
223	2
224	54
225	5
226	3
237	1
247	2
248	1
251	10
252	4
253	17
254	3
260	1
265	1
266	2
267	6
268	1
278	1
279	1
283	1
291	1
334	1
344	12
345	2
346	1
347	10
348	2
349	1
362	10
363	3
364	1
