Mass Spectrum: 2-Ethoxypyridine N-oxide
Formula: C7H9NO2
CAS: 3445-09-8
Molecular weight: 139
m/z	intensity
27	568
28	310
29	312
38	280
39	819
40	144
41	116
50	321
51	579
52	718
53	138
54	406
55	479
64	47
65	89
66	281
67	476
68	52
69	135
78	643
79	176
80	58
82	43
83	999
84	106
93	134
94	82
95	89
96	45
108	45
111	174
122	355
123	30
124	100
139	76
140	27
141	3
