Mass Spectrum: 2,2-Dimethyl-3-methoxy-cyclopropane-1-carboxylic acid methyl ester
Formula: C8H14O3
CAS: 344746-96-9
Molecular weight: 158
m/z	intensity
39	89
41	219
45	81
59	69
67	148
69	40
75	139
99	999
115	30
126	20
143	50
158	9
