Mass Spectrum: Pyrrolidine, 2-butyl-1-methyl-
Formula: C9H19N
CAS: 3447-03-8
Molecular weight: 141
m/z	intensity
55	90
56	10
57	30
67	15
69	20
70	30
82	50
84	999
85	80
94	10
95	2
98	10
110	13
112	5
137	2
138	1
139	2
140	10
141	8
