Mass Spectrum: Pyrrolidine, 1-methyl-2-octyl-
Formula: C13H27N
CAS: 3447-06-1
Molecular weight: 197
m/z	intensity
55	50
57	15
67	14
69	14
70	18
82	54
84	999
85	80
94	100
95	22
98	13
108	10
110	70
120	3
136	5
193	5
194	1
195	3
196	3
197	1
