Mass Spectrum: Pyrrolidine, 2-decyl-1-methyl-
Formula: C15H31N
CAS: 3447-07-2
Molecular weight: 225
m/z	intensity
55	180
56	10
57	150
58	10
67	35
69	40
70	38
82	57
84	999
85	80
94	350
95	120
96	10
98	25
108	40
110	55
120	7
136	9
150	3
164	2
178	3
221	12
222	3
223	1
224	2
225	1
