Mass Spectrum: Pyrrolidine, 2-hexyl-1-methyl-
Formula: C11H23N
CAS: 3447-05-0
Molecular weight: 169
m/z	intensity
55	80
57	50
67	20
69	25
70	23
82	45
84	999
85	80
94	50
95	15
98	7
108	7
110	23
165	25
166	5
167	3
168	5
169	3
