Mass Spectrum: Phosphirane, 1-cyclohexyl-2-vinyl-
Formula: C10H17P
CAS: 344748-20-5
Molecular weight: 168
m/z	intensity
25	1
26	19
27	293
28	24
29	168
30	3
31	1
33	1
34	0
35	0
36	1
39	227
40	22
41	601
42	38
43	25
44	2
45	73
47	7
48	9
49	0
52	11
53	163
54	105
55	548
56	26
57	226
58	67
59	41
60	11
66	39
67	252
68	56
69	25
70	12
71	346
72	37
73	48
74	2
77	31
78	11
79	109
80	77
81	626
82	170
83	172
84	46
85	180
86	999
87	610
88	38
94	1
95	8
96	5
97	22
98	8
99	66
100	28
101	4
102	5
103	1
104	0
105	1
106	1
107	4
108	1
109	7
110	0
111	13
112	21
113	111
114	160
115	12
116	1
117	0
118	0
119	0
120	1
121	1
122	0
123	1
124	0
125	5
126	44
127	35
128	3
129	0
134	0
135	1
138	0
139	25
140	23
141	2
142	0
153	22
154	2
155	0
164	0
166	21
167	27
168	302
169	32
170	5
171	0
