Mass Spectrum: Anthracene, 9-ethyl-9,10-dihydro-10-trimethylsilyl-
Formula: C19H24Si
CAS: 344870-13-9
Molecular weight: 280
m/z	intensity
26	0
27	2
29	5
30	0
31	3
39	2
40	0
41	0
42	1
43	17
44	8
45	85
46	5
47	3
50	0
51	1
53	1
55	1
57	3
58	5
59	29
60	2
61	1
63	2
65	1
70	0
71	0
73	999
74	73
75	29
76	2
77	1
85	1
86	1
87	12
88	2
89	3
91	1
99	0
101	0
102	1
103	0
105	0
113	0
115	2
125	0
126	2
127	1
128	1
129	1
139	2
145	0
149	0
150	4
151	9
152	12
153	2
154	0
155	0
163	1
164	1
165	6
166	1
170	0
171	0
172	0
173	1
174	1
175	3
176	20
177	14
178	158
179	59
180	6
181	0
186	0
187	1
188	1
189	10
190	4
191	24
192	5
193	0
194	0
195	1
200	0
201	1
202	5
203	4
204	3
205	12
206	80
207	63
208	10
209	0
217	2
218	1
219	2
220	0
221	0
225	1
231	0
233	1
234	0
235	3
236	1
237	1
251	34
252	8
253	2
263	1
264	0
265	6
266	1
278	2
280	55
281	15
282	3
283	0
