Mass Spectrum: 3-(3-Oxo-2-prop-2-ynyl-cyclopentyl)-propionic acid, methyl ester
Formula: C12H16O3
CAS: 344885-14-9
Molecular weight: 208
m/z	intensity
25	1
26	15
27	160
28	90
29	66
30	3
31	14
33	2
37	3
38	16
39	260
40	37
41	210
42	32
43	165
44	9
45	25
46	2
49	1
50	29
51	105
52	89
53	148
54	39
55	240
56	42
57	31
58	5
59	127
60	6
61	4
62	7
63	33
64	10
65	135
66	66
67	104
68	22
69	17
70	3
71	37
72	4
73	5
74	170
75	19
76	4
77	375
78	136
79	525
80	53
81	100
82	14
83	22
84	4
85	26
86	2
87	37
88	19
89	11
90	9
91	481
92	147
93	194
94	999
95	122
96	22
97	7
98	9
99	7
100	2
101	0
102	1
103	21
104	27
105	142
106	88
107	109
108	17
109	101
110	11
111	6
112	1
113	6
114	1
115	15
116	30
117	34
118	2
119	34
120	61
121	568
122	60
123	8
124	2
125	3
126	0
127	1
128	1
129	8
130	10
131	55
132	9
133	110
134	207
135	121
136	14
137	18
138	2
139	0
141	4
142	2
143	0
145	0
146	0
147	16
148	84
149	153
150	14
151	7
153	0
157	0
158	1
159	7
160	0
161	2
162	0
165	3
166	2
167	2
168	2
169	65
170	6
171	0
175	1
176	19
177	15
178	1
179	3
180	7
181	0
190	1
193	3
194	0
207	2
208	8
209	1
