Mass Spectrum: N'-(2-Bromo-4,5-methylenedioxybenzylidene)-3-nitrobenzohydrazide
Formula: C15H10BrN3O5
CAS: 344936-08-9
Molecular weight: 391
m/z	intensity
34	19
36	12
37	67
38	100
40	283
41	74
42	49
44	212
45	35
46	18
48	6
50	725
51	145
52	167
53	64
55	74
56	24
57	26
58	3
59	8
61	61
62	249
63	185
64	98
65	50
66	15
67	18
69	31
70	14
71	14
73	21
74	277
75	638
76	999
77	192
79	81
80	51
81	23
82	22
83	8
84	8
85	5
86	8
87	13
88	53
89	25
90	53
91	24
92	121
93	14
94	4
95	6
96	3
97	6
98	3
99	2
100	6
101	9
104	803
105	114
106	32
107	14
108	9
109	4
110	4
111	3
112	7
113	5
115	4
116	7
117	12
118	11
119	24
120	36
122	40
123	9
124	1
125	2
128	4
129	6
130	4
131	12
133	266
134	70
135	9
136	6
137	5
139	5
140	11
141	11
143	38
144	2
145	18
146	16
147	12
148	9
150	590
151	53
152	10
153	4
154	4
155	9
156	10
157	12
158	9
159	9
161	150
162	227
163	20
164	5
165	1
166	6
167	11
168	5
169	6
170	4
171	9
172	1
179	3
180	2
181	9
182	2
183	32
185	31
186	3
190	1
197	2
198	2
199	9
200	2
201	9
207	1
208	1
209	4
210	1
211	11
212	4
213	12
214	1
222	7
224	104
225	532
226	155
227	516
228	84
229	23
230	16
231	2
237	2
238	2
239	1
283	2
312	26
313	4
391	6
393	7
394	1
