Mass Spectrum: Indol-2(3H)-one, 1-diethylaminomethyl-3-(3-trifluoromethylphenylimino)-
Formula: C20H20F3N3O
CAS: 345259-12-3
Molecular weight: 375
m/z	intensity
37	2
38	7
39	13
40	18
41	15
42	107
43	19
44	18
50	15
51	15
52	5
53	0
54	6
55	5
56	54
57	31
58	154
59	3
61	1
62	5
63	13
64	11
65	5
67	0
69	9
70	7
71	4
72	8
74	2
75	36
76	17
77	16
78	1
80	0
81	3
84	3
86	999
87	49
88	6
90	29
91	7
92	1
93	0
94	1
95	31
96	1
99	3
100	1
101	1
102	17
103	22
104	6
106	0
107	3
108	0
111	0
114	3
115	1
116	8
117	10
118	4
119	6
121	0
125	34
126	19
127	6
128	2
129	7
130	8
131	1
132	1
134	0
137	0
139	0
140	1
141	2
142	0
144	13
145	138
146	12
147	1
151	1
152	6
164	1
165	2
166	2
170	0
171	0
172	3
174	0
177	2
178	6
180	2
185	1
190	1
191	1
192	7
193	2
194	0
196	0
197	1
201	3
202	1
205	3
206	2
207	1
208	5
214	0
215	2
216	2
219	0
221	1
222	1
223	3
226	3
228	2
234	3
235	14
236	3
241	4
242	2
246	0
247	8
248	1
254	3
255	2
261	18
262	68
263	10
264	1
271	3
274	0
275	42
276	11
277	1
288	1
289	41
290	41
291	5
303	4
304	57
305	11
306	0
375	4
376	0
