Mass Spectrum: 1,3,5-Trismethanesulfonyl-hexahydro-1,3,5-triazine
Formula: C6H15N3O6S3
CAS: 34552-98-2
Molecular weight: 321
m/z	intensity
30	564
42	349
57	58
63	79
76	89
79	441
107	109
108	999
122	100
135	719
162	59
186	208
214	80
242	200
321	60
322	10
