Mass Spectrum: 3-Methylenecycloheptene
Formula: C8H12
CAS: 34564-56-2
Molecular weight: 108
m/z	intensity
39	210
41	140
51	81
52	47
53	75
54	35
65	100
66	59
67	96
77	460
78	110
79	560
80	240
91	450
93	999
105	30
107	67
108	500
