Mass Spectrum: Dibenzyloxide, 4,4'-bis(benzyloxy)-
Formula: C28H26O3
CAS: 345658-16-4
Molecular weight: 410
m/z	intensity
33	1
39	12
40	5
41	4
43	0
44	0
50	1
51	5
52	2
53	0
63	5
65	48
66	2
76	1
77	4
78	6
79	2
87	0
89	14
91	999
92	71
93	2
104	1
105	1
107	28
108	2
115	0
117	0
118	0
119	0
120	1
121	0
128	0
129	0
135	12
136	1
141	0
152	0
153	0
155	0
156	0
165	0
166	0
167	2
168	0
169	0
170	0
179	0
180	7
181	10
182	2
183	5
184	1
185	0
195	2
197	41
198	46
199	6
200	0
211	2
212	1
213	10
214	1
226	21
227	3
274	10
275	1
286	0
287	0
318	0
319	0
325	0
326	3
327	0
410	29
411	7
412	0
