Mass Spectrum: 4-(2-Propyn-1-yloxy)phenol
Formula: C9H8O2
CAS: 34596-27-5
Molecular weight: 148
m/z	intensity
40	76
41	66
42	46
43	68
44	6
45	6
46	2
49	9
50	68
51	120
52	110
53	483
54	148
55	104
56	36
57	39
60	2
61	16
62	32
63	49
64	16
65	76
66	15
67	2
68	2
69	8
70	2
71	2
73	4
74	11
75	5
76	2
77	5
78	7
79	10
80	2
81	490
82	67
83	2
84	1
86	3
89	5
90	3
91	49
92	16
93	7
94	4
102	2
103	7
104	2
105	4
106	3
107	3
109	999
110	65
111	5
118	2
119	21
120	23
121	2
131	7
132	1
146	2
147	80
148	339
149	34
150	2
