Mass Spectrum: Indeno[b]quinoxalin-11-one, oxime
Formula: C20H17N3O2
CAS: 345993-34-2
Molecular weight: 331
m/z	intensity
33	12
34	0
36	1
39	64
41	155
42	14
44	23
45	3
48	0
50	34
51	36
52	6
53	3
57	999
61	1
62	9
63	14
64	7
65	1
67	0
68	0
69	5
71	3
75	62
76	44
77	4
78	0
79	0
81	0
82	1
85	187
87	14
88	6
90	32
91	0
94	0
95	0
96	0
97	1
99	5
100	5
102	84
103	11
104	1
105	0
108	0
109	0
110	0
111	1
112	1
113	2
114	4
116	5
118	0
119	0
123	0
124	0
125	1
126	1
127	2
128	5
129	8
130	0
137	0
138	1
139	1
140	1
141	0
149	0
150	1
151	1
152	1
153	0
154	0
161	0
162	2
163	3
164	2
165	1
166	0
175	1
176	3
177	4
178	1
179	1
186	0
188	12
189	11
190	16
191	2
192	0
202	1
203	4
204	8
205	2
213	1
215	26
216	23
217	48
218	9
219	0
228	1
230	42
231	46
232	8
233	0
247	180
248	24
249	2
273	0
287	0
288	0
327	0
328	1
329	1
331	45
332	9
333	0
