Mass Spectrum: 4-Allyl-5-(2,4-dichloro-phenyl)-2-morpholin-4-ylmethyl-2,4-dihydro-[1,2,4]triazole-3-thione
Formula: C16H18Cl2N4OS
CAS: 345989-21-1
Molecular weight: 384
m/z	intensity
34	0
35	0
36	2
37	0
38	1
39	14
40	5
41	49
42	31
43	8
44	8
45	6
46	0
47	0
48	0
50	1
51	1
52	0
53	1
54	6
55	6
56	70
57	7
58	2
59	2
60	2
61	0
62	0
63	0
64	0
65	0
66	0
67	1
68	1
69	3
70	17
71	5
72	11
73	2
74	2
75	2
76	0
77	1
78	0
79	0
80	0
81	4
82	1
83	0
84	0
85	2
86	5
87	3
88	0
89	0
90	0
91	2
92	0
93	0
95	0
96	0
98	15
100	999
101	56
102	4
103	0
104	0
105	0
107	0
108	0
109	1
110	0
111	1
112	0
113	7
114	3
115	1
116	0
117	0
118	0
119	0
120	0
121	0
122	0
123	0
124	0
125	0
126	0
127	0
128	0
129	0
130	0
131	1
132	1
133	3
134	1
135	0
136	6
137	1
138	2
139	0
140	0
144	0
145	0
146	0
147	0
149	0
150	0
151	0
152	0
153	0
155	0
156	0
157	0
159	9
160	1
161	0
162	0
163	0
164	0
171	7
172	8
173	4
174	6
175	1
176	1
180	0
185	0
186	0
187	0
188	0
189	0
190	0
192	0
194	0
198	0
199	2
200	0
201	1
227	0
229	0
233	0
236	0
240	0
241	0
242	0
245	0
247	0
249	0
250	2
252	3
253	0
254	1
255	0
256	0
257	0
258	0
270	6
271	0
272	3
273	0
274	1
275	0
276	1
277	0
284	1
285	6
286	2
287	4
288	1
289	0
290	0
352	0
382	0
383	1
384	11
385	2
386	7
387	1
388	1
389	0
