Mass Spectrum: Benzene, [(1,1-dimethylethoxy)methyl]-
Formula: C11H16O
CAS: 3459-80-1
Molecular weight: 164
m/z	intensity
40	10
41	120
42	10
43	60
44	30
45	40
50	30
51	60
52	20
53	10
55	10
56	20
57	240
58	30
59	20
62	20
63	40
64	20
65	110
66	10
73	30
77	70
78	30
79	120
80	10
89	40
90	20
91	999
92	100
94	20
105	30
106	20
107	80
108	70
109	20
149	190
150	30
164	20
