Mass Spectrum: Acetamide, N-ethyl-N-(phenylmethyl)-
Formula: C11H15NO
CAS: 34597-04-1
Molecular weight: 177
m/z	intensity
13	1
14	3
15	42
16	1
26	3
27	31
28	110
29	42
30	63
31	3
32	4
37	1
38	5
39	53
40	6
41	25
42	47
43	310
44	280
45	11
46	1
50	13
51	43
52	12
53	4
54	3
55	3
56	28
57	8
58	130
59	6
60	2
61	1
62	5
63	26
64	8
65	135
66	9
67	1
68	1
69	1
70	12
71	13
72	6
73	2
74	3
75	4
76	6
77	50
78	15
79	90
80	7
84	1
86	160
87	10
88	1
89	30
90	14
91	730
92	82
93	4
100	5
102	1
103	4
104	43
105	17
106	999
107	105
108	6
115	1
116	1
117	6
118	15
119	3
120	160
121	15
122	1
130	2
131	3
132	9
133	3
134	100
135	13
136	1
146	1
147	1
148	110
149	14
150	1
160	1
162	7
163	2
174	1
176	25
177	670
178	90
179	1
