Mass Spectrum: Pyrazole, 5-methyl-3,4-dinitro-1-(piperidinoylmethyl)-
Formula: C11H15N5O5
CAS: 345950-83-6
Molecular weight: 297
m/z	intensity
33	3
34	1
38	2
39	61
41	468
42	150
43	81
44	21
45	1
46	36
48	0
50	1
51	3
52	6
53	21
55	187
56	156
57	15
58	1
60	2
64	5
65	8
66	59
67	37
69	631
70	71
71	10
73	1
75	0
76	0
77	1
78	2
79	3
80	6
81	16
83	397
84	243
85	19
86	1
87	1
91	0
92	7
93	6
94	1
95	10
97	999
98	79
99	4
101	0
104	2
107	2
108	3
109	4
110	6
112	322
113	13
114	1
122	4
123	3
125	850
126	68
127	6
128	0
135	0
136	0
138	0
139	4
142	0
149	3
152	2
155	4
156	0
161	0
162	0
164	1
165	0
166	1
167	4
168	2
169	3
170	0
171	5
172	0
175	0
178	0
179	0
180	0
185	9
186	1
187	0
189	6
194	0
205	2
206	1
207	1
208	0
223	0
228	1
232	0
280	20
281	0
296	1
297	26
298	3
300	1
301	1
