Mass Spectrum: 1H-Pyrrole-2-carboxylic acid, 1-(1-propenyl)-, (E)-
Formula: C8H9NO2
CAS: 34600-54-9
Molecular weight: 151
m/z	intensity
41	250
44	260
50	100
51	150
52	110
53	110
54	70
65	100
66	650
67	130
68	50
77	200
78	170
79	440
80	190
94	180
104	140
105	100
106	999
107	350
108	50
134	90
150	50
151	570
152	80
