Mass Spectrum: 2,6-Decadienoic acid, 3,7-dimethyl-, methyl ester, (E,Z)-
Formula: C13H22O2
CAS: 34603-28-6
Molecular weight: 210
m/z	intensity
41	120
42	10
43	60
44	10
53	30
54	10
55	999
56	50
59	20
70	10
72	20
73	10
74	50
77	10
79	20
81	40
82	50
83	60
91	20
93	10
95	20
96	20
97	330
98	20
107	20
114	270
115	20
121	20
127	20
136	20
139	30
150	40
151	70
167	20
178	30
179	40
210	15
