Mass Spectrum: Carbazole, 1,3,6,8-tetra-tert-butyl-
Formula: C28H41N
CAS: 34601-54-2
Molecular weight: 391
m/z	intensity
33	3
34	1
36	1
37	0
39	43
40	58
41	363
42	17
43	33
44	16
45	1
50	2
51	4
52	1
53	5
54	2
55	33
57	999
58	34
59	6
63	1
65	3
66	0
67	2
68	0
69	4
70	1
71	2
72	2
76	1
77	6
78	2
79	2
80	1
81	3
82	3
83	1
84	1
85	1
86	0
89	1
90	2
91	10
92	1
94	0
95	3
96	5
97	5
98	0
101	2
102	5
103	5
104	2
106	5
107	0
108	10
110	14
112	0
113	0
114	3
115	14
116	17
117	8
118	0
121	5
122	7
123	11
124	12
125	8
126	1
127	4
128	6
129	9
130	10
131	19
132	8
134	2
135	3
137	8
138	19
139	6
141	1
142	0
144	5
145	29
146	3
151	3
152	12
153	96
154	0
156	3
158	0
159	15
165	5
167	82
168	12
169	1
171	0
173	20
178	2
181	302
188	4
189	1
190	1
191	7
192	7
193	5
194	4
195	1
202	1
203	1
204	10
205	7
206	11
207	14
208	24
209	3
215	1
216	3
217	9
218	12
219	6
220	12
221	4
222	23
223	3
228	4
229	2
230	8
231	7
232	10
233	8
234	5
235	0
236	1
241	2
242	4
243	2
244	8
245	4
246	9
247	6
248	12
249	2
254	1
255	1
256	2
257	2
258	7
259	4
260	8
261	3
262	4
263	0
264	4
265	0
268	0
270	1
271	0
272	4
273	3
274	6
275	1
276	7
277	2
278	9
279	1
282	0
284	0
286	1
287	1
288	8
289	2
290	2
292	0
300	1
301	0
302	2
303	1
304	16
305	3
314	1
316	1
318	5
319	4
320	5
321	0
328	0
329	0
330	4
331	0
332	1
333	1
334	11
335	2
344	5
345	1
346	5
347	1
348	0
358	0
360	21
361	6
362	0
371	0
372	2
373	5
374	8
376	300
377	78
378	10
379	0
386	2
387	2
388	4
390	28
391	274
392	78
393	10
