Mass Spectrum: 2,6-Decadienoic acid, 3,7-dimethyl-, methyl ester, (E,E)-
Formula: C13H22O2
CAS: 34603-26-4
Molecular weight: 210
m/z	intensity
41	110
42	10
43	50
55	999
56	50
59	20
67	20
68	10
69	50
79	20
81	30
82	40
83	50
96	20
97	350
98	20
114	280
115	10
139	20
150	20
151	50
178	10
179	30
200	20
