Mass Spectrum: 2,2-Diphenylpropylamine
Formula: C15H17N
CAS: 34611-07-9
Molecular weight: 211
m/z	intensity
26	1
27	9
28	16
29	4
30	999
31	17
39	20
40	1
41	3
42	2
43	3
44	2
45	2
50	12
51	44
52	9
53	6
54	2
56	2
59	3
62	5
63	17
64	4
65	14
66	2
69	2
74	7
75	9
76	13
77	113
78	18
79	6
81	2
82	6
83	5
86	2
87	4
88	5
89	14
90	4
91	25
92	3
93	1
94	1
96	2
97	1
98	1
99	1
101	5
102	17
103	210
104	24
105	6
106	2
113	2
114	2
115	24
116	4
117	9
118	4
119	2
126	4
127	5
128	6
129	2
130	2
131	1
132	3
133	2
138	1
139	10
140	2
141	7
142	2
150	3
151	7
152	22
153	13
154	3
155	1
162	1
163	7
164	9
165	140
166	104
167	67
168	9
175	1
176	9
177	9
178	40
179	42
180	62
181	345
182	80
183	9
191	1
192	2
193	3
194	4
195	9
196	2
209	1
210	2
211	20
212	4
