Mass Spectrum: Octadecanoic acid, 2-(hexadecyloxy)ethyl ester
Formula: C36H72O3
CAS: 34639-56-0
Molecular weight: 552
m/z	intensity
25	3
26	12
27	39
28	208
29	107
30	7
31	13
32	17
36	8
38	5
39	38
40	13
41	291
42	81
43	683
44	94
45	55
46	3
47	3
48	2
50	5
51	6
52	5
53	18
54	58
55	487
56	221
57	999
58	63
59	34
60	73
61	33
62	4
63	21
64	5
65	8
66	31
67	139
68	208
69	474
70	234
71	696
72	58
73	113
74	32
75	13
76	4
77	12
78	8
79	24
80	27
81	151
82	594
83	569
84	272
85	506
86	61
87	151
88	75
89	24
90	3
91	13
92	5
93	20
94	20
95	170
96	322
97	512
98	341
99	259
100	64
101	58
102	9
103	6
104	12
105	170
106	10
107	17
108	14
109	120
110	139
111	272
112	158
113	113
114	28
115	34
116	12
117	18
118	50
119	10
120	5
121	27
122	18
123	88
124	94
125	126
126	65
127	91
128	27
129	56
130	12
131	8
132	5
133	6
134	3
135	20
136	12
137	56
138	60
139	60
140	62
141	120
142	18
143	23
144	8
145	6
146	5
147	5
148	5
149	25
150	8
151	24
152	39
153	39
154	79
155	101
156	15
157	31
158	8
159	5
160	11
161	5
162	3
163	8
164	5
165	24
166	36
167	31
168	37
169	50
170	13
171	20
172	6
173	6
174	4
175	4
176	4
177	8
178	6
179	18
180	31
181	22
182	20
183	32
184	10
185	41
186	10
187	7
190	5
191	8
192	5
193	14
194	44
195	20
196	32
197	25
198	8
199	25
200	7
201	5
202	6
203	4
204	4
205	7
206	5
207	10
208	12
209	12
210	48
211	34
212	7
213	24
214	7
215	5
216	7
217	16
218	20
219	44
220	15
221	11
222	303
223	68
224	58
225	196
226	31
227	17
228	6
229	5
230	5
231	5
232	4
233	3
234	4
235	7
236	10
237	8
238	7
239	35
240	10
241	33
242	8
243	5
244	3
245	3
246	5
247	18
248	10
249	10
250	9
251	12
252	6
253	183
254	33
255	20
256	10
257	6
258	3
259	3
260	2
261	2
262	3
263	3
264	54
265	72
266	74
267	474
268	246
269	215
270	39
271	13
272	4
273	3
274	3
275	2
276	2
277	2
278	2
279	5
280	3
281	15
282	30
283	164
284	113
285	278
286	54
287	27
288	6
289	2
290	1
291	1
292	1
293	2
294	3
295	7
296	6
297	6
298	6
299	4
300	3
301	3
302	2
303	1
305	1
306	1
307	1
308	4
309	48
310	55
311	417
312	253
313	62
314	12
315	4
316	1
317	1
318	1
319	1
320	1
321	2
322	5
323	5
324	4
325	4
326	3
327	5
328	52
329	170
330	35
331	6
332	2
333	1
334	1
335	7
336	3
337	2
338	3
339	3
340	3
341	52
342	15
343	4
349	1
350	1
351	1
352	7
353	3
354	3
355	3
356	3
357	1
362	1
363	1
364	1
365	1
366	2
369	3
370	4
371	1
378	1
379	1
380	3
381	2
382	1
383	3
384	5
385	1
394	1
395	1
396	1
397	3
398	2
399	1
411	1
412	1
439	1
440	1
453	2
454	1
467	3
469	3
470	2
480	1
481	1
482	1
489	3
490	3
491	1
508	12
509	8
510	4
522	3
523	3
524	2
533	1
534	1
537	2
538	2
550	3
551	5
552	57
553	24
554	8
555	2
