Mass Spectrum: Pseduosolasodine 3-O-acetate-N-[N,N-dimethylcarbmoyl]-
Formula: C32H50N2O4
CAS: 34638-85-2
Molecular weight: 526
m/z	intensity
41	81
42	32
43	651
44	207
45	110
46	578
47	65
48	27
49	271
50	1
51	100
53	22
55	131
56	28
57	30
58	24
59	4
60	7
61	3
63	1
65	18
66	3
67	113
68	10
69	47
70	34
72	999
73	37
74	4
77	38
78	9
79	78
80	4
81	129
82	18
83	31
84	235
85	6
86	144
88	98
89	33
91	119
92	24
93	93
94	9
95	296
96	42
97	19
98	6
99	6
101	90
102	19
103	11
105	163
106	35
107	83
108	75
109	124
110	19
111	15
112	8
113	7
114	35
115	27
116	11
117	51
118	14
119	66
120	19
121	86
122	46
123	39
124	11
125	10
126	45
127	10
128	19
129	46
130	44
131	59
132	15
133	63
134	14
135	35
136	12
137	11
138	6
139	4
140	7
141	42
142	21
143	134
144	9
145	121
146	23
147	45
148	16
149	38
150	16
151	13
152	6
153	7
154	8
155	51
156	14
157	65
158	22
159	32
160	8
161	20
162	38
163	96
164	45
165	17
166	14
167	9
168	11
169	9
170	4
171	16
172	6
173	16
174	5
175	9
176	5
177	10
178	4
179	4
180	16
181	7
182	5
183	10
185	72
186	11
187	7
188	1
189	3
190	1
191	1
192	2
193	5
194	24
195	29
197	34
198	2
199	42
200	7
201	4
203	3
204	2
206	35
207	15
208	14
209	22
210	5
211	10
212	16
213	39
214	136
215	66
216	10
217	5
220	2
221	2
222	2
223	4
224	2
225	12
226	6
227	10
228	6
229	3
233	2
235	2
237	16
238	8
239	14
240	56
241	12
242	1
248	1
251	33
252	75
253	72
254	15
255	4
256	1
265	2
267	1
269	4
270	1
279	1
281	41
282	11
283	2
296	2
297	4
298	2
305	1
308	1
309	20
310	4
312	2
313	3
323	6
324	5
337	3
365	3
369	1
378	6
383	1
388	2
406	8
420	2
421	41
422	11
423	1
436	2
437	3
451	13
452	4
466	11
467	5
481	11
482	3
497	3
524	3
525	5
526	152
527	49
528	13
