Mass Spectrum: 2,3,9,11-Tetrachloro-5,6-dihydro-7-[1-hydroxy-2-[1-piperidyl]ethyl]benz[c]acridine
Formula: C24H22Cl4N2O
CAS: 34633-95-9
Molecular weight: 494
m/z	intensity
41	79
42	76
43	22
44	47
45	0
47	0
49	2
51	2
53	2
55	72
56	13
57	5
58	1
63	1
67	4
68	5
69	24
70	22
71	1
75	1
82	2
83	2
84	5
85	1
86	2
87	0
96	9
98	999
99	72
100	3
105	1
109	1
110	1
111	2
112	2
113	3
114	0
117	0
123	1
125	1
126	1
130	1
131	2
135	1
137	0
139	2
143	0
145	0
147	0
148	2
149	2
150	0
151	0
161	0
162	1
163	0
225	2
226	2
227	2
228	1
236	0
259	0
260	1
261	3
262	3
263	2
264	1
295	1
296	3
297	3
298	4
299	2
300	1
308	0
322	0
324	0
330	0
331	2
332	4
333	2
334	3
335	1
336	0
358	0
360	1
362	1
366	2
367	0
368	3
369	0
370	2
380	0
393	0
395	0
397	1
398	0
399	0
