Mass Spectrum: 7-[1-Hydroxy-2-[1-piperidyl]]ethyl-5,6-dihydrobenz[c]acridine
Formula: C24H26N2O
CAS: 34633-90-4
Molecular weight: 358
m/z	intensity
41	107
42	107
43	25
44	51
45	2
47	2
49	10
50	1
51	6
52	1
53	4
54	6
55	58
56	9
57	3
58	1
62	0
63	3
65	1
67	3
68	5
69	25
70	33
71	1
75	1
76	1
77	4
78	0
80	0
82	2
83	2
84	4
86	2
87	0
88	1
89	2
94	0
96	13
98	999
99	55
100	2
101	1
102	1
108	1
109	0
113	1
114	3
115	6
116	1
120	0
121	1
126	1
127	3
128	2
139	1
140	0
150	1
151	1
152	1
176	1
177	1
178	1
189	1
190	1
200	1
201	2
202	7
203	3
204	3
213	1
214	2
215	3
216	4
217	6
218	1
226	1
227	3
228	12
229	11
230	45
231	13
232	22
233	3
240	3
241	8
242	8
243	2
244	1
252	0
253	0
254	3
255	1
256	6
257	3
258	7
259	4
260	4
261	1
275	2
357	1
358	2
359	0
