Mass Spectrum: N-carbobenzyloxy-propan-3-ol-1-amine
Formula: C11H15NO3
CAS: 34637-22-4
Molecular weight: 209
m/z	intensity
41	45
42	24
43	27
44	48
45	14
46	8
47	2
48	0
52	18
53	6
54	3
55	8
56	41
57	14
58	7
59	16
60	0
61	1
62	11
63	42
64	16
65	176
66	9
67	1
68	1
69	3
70	3
71	3
72	2
73	0
74	49
75	22
76	9
77	95
78	23
79	119
80	11
81	2
82	6
83	3
87	2
88	19
89	69
90	64
91	999
92	107
93	5
94	0
95	1
96	0
97	2
98	0
99	0
100	4
101	0
102	17
103	1
104	4
105	33
106	10
107	162
108	834
109	78
110	5
111	2
112	0
115	0
116	0
117	7
118	16
119	2
120	12
121	1
122	1
123	0
124	1
125	0
129	0
130	1
131	0
132	1
133	1
134	1
135	1
136	4
137	0
141	0
146	0
147	0
149	1
150	1
151	11
152	1
153	0
155	0
162	1
163	2
164	3
165	0
166	5
167	0
179	7
180	1
181	1
190	0
191	3
192	0
209	53
210	10
211	0
