Mass Spectrum: 2H-Pyran-3-ol, tetrahydro-3-methyl-6-propyl-, acetate
Formula: C11H20O3
CAS: 34647-45-5
Molecular weight: 200
m/z	intensity
26	4
27	56
29	69
30	3
31	14
38	2
39	53
40	19
41	182
42	75
43	999
44	37
45	56
46	1
50	2
51	5
52	3
53	32
54	10
55	138
56	47
57	58
58	106
59	23
60	18
61	6
63	1
65	6
66	5
67	89
68	131
69	144
70	107
71	344
72	47
73	11
74	8
75	5
77	7
78	2
79	18
80	4
81	38
82	64
83	65
84	30
85	20
86	29
87	43
88	3
91	9
92	4
93	12
94	3
95	12
96	7
97	234
98	36
99	22
100	19
101	11
102	1
104	1
105	4
106	1
107	8
108	1
109	71
110	7
111	30
112	9
113	5
114	6
115	23
116	2
117	2
122	3
123	12
124	3
125	17
126	3
127	55
128	7
129	3
131	2
139	3
140	175
141	23
142	2
143	12
144	1
157	17
158	2
185	2
