Mass Spectrum: 1,3-Pentadien-2-ol, 4-methyl-, acetate
Formula: C8H12O2
CAS: 34645-17-5
Molecular weight: 140
m/z	intensity
41	60
42	50
43	240
44	70
55	130
56	70
60	50
79	50
82	90
83	999
84	90
98	959
99	70
140	300
