Mass Spectrum: Acetamide, 2,2-diethoxy-N,N-dimethyl-
Formula: C8H17NO3
CAS: 34640-92-1
Molecular weight: 175
m/z	intensity
25	1
26	29
27	241
28	114
29	508
30	57
31	50
33	0
38	0
39	3
40	8
41	25
42	196
43	67
44	162
45	53
46	187
47	999
48	19
49	6
54	1
55	4
56	52
57	42
58	93
59	5
60	3
61	0
67	0
68	0
69	1
70	3
71	1
72	705
73	100
74	158
75	727
76	24
77	3
83	0
84	0
85	2
86	11
87	0
88	1
100	1
101	2
102	290
103	789
104	57
105	5
116	0
118	0
129	8
130	123
131	13
132	1
146	5
174	0
176	4
