Mass Spectrum: 3,6-Dimethyl-4-octanone
Formula: C10H20O
CAS: 34645-03-9
Molecular weight: 156
m/z	intensity
27	270
29	690
39	148
41	500
42	105
43	999
53	44
55	163
56	80
57	942
69	75
71	732
72	312
73	123
85	97
99	475
100	34
109	30
127	19
128	5
156	78
