Mass Spectrum: Isoxazole-4-carbohydrazide, 3-(2-chlorophenyl)-5-methyl-N2,N2-dimethyl-
Formula: C13H14ClN3O2
CAS: 346457-67-8
Molecular weight: 279
m/z	intensity
33	14
34	0
35	0
36	3
37	2
38	3
39	14
40	13
43	771
44	272
47	0
50	16
51	12
52	2
53	1
54	1
55	2
59	999
62	4
63	7
64	2
65	1
66	1
67	1
68	1
69	1
70	0
71	1
72	3
73	6
75	43
76	8
77	8
78	0
79	0
82	0
83	1
84	2
85	5
86	2
87	5
88	4
89	2
90	1
91	0
92	0
94	0
96	0
97	2
99	10
100	2
101	4
102	9
103	1
104	0
109	0
111	19
112	3
113	7
114	12
115	3
116	2
117	0
118	0
119	0
121	0
123	14
125	5
126	8
127	5
128	1
129	1
130	2
131	1
132	0
133	0
136	0
137	6
138	4
139	3
140	2
141	1
142	0
143	2
144	8
145	1
146	0
147	0
150	34
151	4
152	9
153	1
154	0
155	0
156	0
157	0
159	6
160	1
162	1
163	1
164	1
165	0
166	0
170	0
171	0
172	0
173	2
178	421
180	172
183	0
185	3
186	1
187	0
192	1
193	0
194	1
195	0
196	0
197	0
198	0
201	127
202	19
204	1
205	0
206	1
207	0
208	0
212	0
213	0
214	0
215	2
216	0
217	0
218	0
220	26
222	12
223	1
224	0
226	0
229	32
230	3
231	0
235	23
237	238
239	101
242	1
244	6
245	0
249	0
264	0
265	1
266	0
267	0
276	0
279	54
281	23
282	2
286	0
