Mass Spectrum: D-Erythro-Pentonic acid, 3-deoxy-2,5-bis-O-(trimethylsilyl)-2-C-[[(trimethylsilyl)oxy]methyl]-, .gamma.-lactone
Formula: C15H34O5Si3
CAS: 34641-57-1
Molecular weight: 378
m/z	intensity
73	999
74	87
75	193
89	66
101	79
103	280
116	110
117	308
129	300
131	57
133	114
147	372
148	57
149	96
155	61
217	96
231	77
245	175
273	39
274	9
275	16
276	10
277	2
291	6
292	18
293	4
305	17
306	6
307	4
317	8
318	26
319	10
320	3
333	11
334	8
335	26
336	10
337	4
348	621
349	197
350	115
351	25
352	9
363	40
364	13
365	7
378	35
379	10
380	5
