Mass Spectrum: Ethanone, 1-(6-bromo-3-methyl-1,4-dioxido-2-quinoxalinyl)-
Formula: C11H9BrN2O3
CAS: 346458-53-5
Molecular weight: 296
m/z	intensity
33	72
37	39
38	56
39	106
40	52
43	999
45	4
50	105
51	65
52	35
53	29
55	195
58	8
59	1
61	32
62	64
63	91
64	29
65	12
66	10
67	11
68	3
69	4
70	5
71	4
74	182
75	226
76	59
77	36
78	18
79	9
80	6
81	2
82	2
83	0
84	1
86	14
87	29
88	47
89	27
90	18
91	3
93	3
95	0
97	3
98	10
100	126
101	71
102	45
103	43
104	11
105	8
106	3
107	1
109	0
110	6
111	6
112	7
113	24
114	45
115	36
116	23
117	17
118	9
119	5
120	0
127	15
128	45
129	30
130	49
131	10
140	6
141	32
142	46
143	12
144	13
154	46
155	72
156	38
157	13
158	18
159	0
166	1
167	4
168	41
170	48
171	2
180	36
181	16
182	41
183	23
184	7
185	3
186	0
194	5
195	5
196	9
197	8
198	4
200	2
205	0
207	42
209	80
211	42
212	3
217	1
221	181
222	83
223	129
224	39
225	7
232	0
233	34
234	62
235	51
236	56
237	51
238	28
239	41
240	17
250	5
251	11
252	6
253	16
255	1
260	0
262	119
263	51
264	85
265	28
266	4
279	162
281	177
282	28
283	1
296	187
298	183
299	14
300	1
