Mass Spectrum: Propenoic acid, 2-cyano-3-[4-(4-methyl-3-furoxanylmethoxy)phenyl-, ethyl ester
Formula: C16H15N3O5
CAS: 346456-60-8
Molecular weight: 329
m/z	intensity
33	0
38	18
39	30
40	13
41	13
42	12
43	33
45	11
46	0
50	31
51	57
53	489
55	16
56	7
57	4
58	2
60	20
62	18
63	47
64	14
65	16
67	94
68	7
69	2
70	1
71	0
72	2
74	7
75	11
76	15
77	24
78	6
79	4
80	1
83	256
85	2
86	2
87	11
88	39
89	70
90	9
91	4
92	9
93	3
94	3
95	1
96	0
97	1
98	2
99	4
100	11
101	11
102	6
103	6
104	18
105	14
106	2
107	3
108	1
109	0
110	1
113	999
114	73
115	56
116	46
117	23
118	14
119	2
120	1
121	9
123	5
124	3
126	13
127	19
128	26
129	4
130	3
131	5
132	16
133	19
134	3
135	1
136	0
137	0
138	0
139	4
140	5
141	4
142	11
143	32
144	62
145	29
146	7
147	2
148	0
149	0
150	0
151	4
152	4
153	6
154	20
155	8
156	11
157	3
158	4
159	3
160	15
161	13
162	6
163	1
164	1
165	0
166	3
167	3
168	6
169	4
170	7
171	18
172	81
173	10
174	5
175	1
176	1
177	1
178	0
180	11
181	5
182	5
183	2
184	11
185	2
186	3
188	83
189	52
190	6
191	1
192	0
193	1
194	5
195	11
196	22
197	7
198	16
199	9
200	16
201	3
202	10
203	1
204	1
205	0
206	0
207	0
208	2
209	3
210	2
211	3
212	6
213	3
214	5
215	4
216	61
217	75
218	10
219	1
220	0
221	0
222	3
223	3
224	8
225	4
226	17
227	10
228	4
230	91
231	13
232	2
233	1
234	0
235	5
236	1
237	1
238	1
240	28
241	10
242	3
243	3
244	4
245	0
246	1
247	0
248	0
251	0
253	25
254	16
255	5
256	5
257	1
258	9
259	1
266	0
267	1
268	5
269	39
270	7
271	5
272	4
273	0
279	0
281	48
282	10
284	61
285	10
286	1
287	0
288	1
294	0
298	1
299	15
300	3
301	1
312	5
313	6
314	1
315	0
316	0
326	0
329	245
330	42
331	6
332	0
