Mass Spectrum: 2-Methylhexan-2-ol acetate
Formula: C9H18O2
CAS: 34650-24-3
Molecular weight: 158
m/z	intensity
15	8
27	38
29	46
39	48
41	148
43	709
45	31
53	17
54	7
55	99
56	178
57	300
58	42
59	254
67	11
68	12
69	217
70	68
71	13
72	3
83	65
85	7
98	181
99	77
101	999
102	60
103	5
115	1
116	46
117	3
143	69
144	3
