Mass Spectrum: Purine-2,6(1H,3H)-dione, 8-chloro-7-(2-fluorobenzyl)-1,3-dimethyl-
Formula: C14H12ClFN4O2
CAS: 346597-06-6
Molecular weight: 322
m/z	intensity
33	1
34	0
36	1
39	19
40	9
41	7
42	8
43	0
44	0
45	0
47	1
49	2
50	3
51	5
52	3
53	4
54	4
56	7
57	22
58	6
59	9
61	1
62	6
63	13
64	2
65	2
67	44
68	6
69	3
70	2
72	0
73	1
75	4
76	11
78	6
79	1
81	8
83	102
84	4
86	0
87	6
89	14
90	1
91	0
93	1
94	3
95	1
96	0
97	0
99	0
101	2
102	1
103	0
104	0
105	1
107	49
109	999
110	59
112	0
113	0
114	0
115	2
116	1
117	0
118	0
119	0
120	0
121	1
122	1
123	0
124	0
125	0
126	0
128	16
130	7
131	0
132	1
133	1
134	10
135	3
136	0
138	0
139	0
140	0
141	0
142	0
143	0
144	0
145	0
146	0
147	1
148	0
149	0
150	0
152	7
153	0
154	0
155	0
156	1
157	0
158	0
159	1
160	2
161	1
162	0
168	0
169	0
170	0
171	0
172	0
173	0
174	0
175	1
176	0
180	0
182	0
183	0
184	0
186	0
187	0
188	0
189	1
200	0
201	0
202	0
203	0
212	0
213	1
215	0
216	0
227	0
228	0
229	0
230	0
236	0
264	0
265	0
267	0
286	0
287	1
288	0
292	0
303	0
317	0
318	3
319	3
320	4
322	65
323	10
324	16
325	3
326	0
