Mass Spectrum: Benzonitrile, 3-chloro-4-(4-phenyl-1-piperazinylmethyl)-
Formula: C18H18ClN3
CAS: 346579-96-2
Molecular weight: 311
m/z	intensity
33	16
34	2
35	2
36	13
37	2
38	11
39	42
40	39
41	46
42	113
43	12
44	11
45	0
49	3
50	20
51	89
52	17
53	4
54	31
55	36
56	418
57	18
58	10
59	0
60	1
61	3
62	10
63	29
64	15
65	29
66	5
67	2
68	3
69	2
70	8
71	2
73	10
74	6
75	13
76	15
77	298
78	39
79	18
80	3
82	3
83	3
84	1
85	1
86	2
87	16
88	26
89	23
90	12
91	153
92	17
93	40
94	3
95	0
96	0
97	4
98	2
99	6
100	6
101	4
102	6
104	307
105	404
106	999
107	68
108	4
109	2
110	1
111	1
112	1
113	1
114	47
115	29
116	36
117	26
118	29
119	72
120	100
121	16
123	60
124	18
125	19
126	6
127	3
128	4
129	2
130	13
131	10
132	173
133	48
134	54
135	4
136	1
137	1
138	3
139	0
140	2
141	2
142	8
143	4
144	4
145	4
146	3
147	8
148	1
150	373
151	34
152	121
153	10
154	1
155	3
156	2
157	9
158	2
159	20
160	19
161	509
162	64
163	11
164	4
165	4
166	1
167	0
168	0
169	8
170	4
171	147
172	19
173	2
174	0
175	10
176	3
177	10
178	16
179	10
180	6
181	2
182	0
189	0
190	0
191	4
192	1
193	8
194	1
195	2
196	0
203	1
205	116
206	18
207	37
208	6
217	0
218	0
219	1
220	5
221	0
222	1
231	0
232	0
233	0
234	2
236	0
241	0
245	0
253	1
254	0
255	0
267	0
269	4
270	0
271	1
272	0
274	0
275	0
276	4
277	1
282	0
283	2
284	0
285	0
296	27
297	5
298	9
299	1
309	1
310	19
311	464
312	100
313	152
314	29
315	3
