Mass Spectrum: N-tert-Butyl-2-(1H-[1,2,4]triazol-3-ylsulfanyl)-acetamide
Formula: C8H14N4OS
CAS: 346579-38-2
Molecular weight: 214
m/z	intensity
33	0
34	1
38	2
39	46
40	52
41	180
42	201
43	65
44	43
45	75
46	29
47	9
48	2
50	2
51	3
52	2
53	4
54	5
55	50
56	43
57	275
58	335
59	44
60	14
61	1
68	2
69	12
70	141
71	62
72	21
73	9
74	11
75	1
77	4
78	1
82	26
83	5
84	13
85	10
86	5
87	3
88	10
89	1
90	0
91	5
92	0
95	0
97	0
98	5
99	3
100	3
101	20
102	6
103	1
105	5
111	3
112	1
113	12
114	265
115	999
116	65
117	47
118	2
129	13
130	1
141	9
142	86
143	8
144	3
156	5
157	0
158	2
159	9
168	1
199	8
214	82
215	7
216	2
