Mass Spectrum: Piperazine, 1-(2,4-dimethoxybenzoyl)-4-methyl-
Formula: C14H20N2O3
CAS: 346698-87-1
Molecular weight: 264
m/z	intensity
33	0
36	1
38	2
39	6
40	9
41	14
42	106
43	92
44	42
45	1
46	0
50	3
51	9
52	3
53	5
54	9
56	280
57	46
58	108
59	6
60	0
61	0
62	2
63	14
64	7
65	9
66	4
67	2
68	6
70	634
71	123
72	38
73	3
74	1
75	3
76	6
77	42
78	9
79	19
83	999
84	58
85	11
86	1
87	0
89	1
90	1
91	13
92	21
93	4
94	7
95	4
97	18
99	526
100	31
101	2
102	0
103	0
104	1
105	5
106	6
107	36
108	4
109	5
111	2
112	1
113	16
114	1
115	0
117	0
118	1
119	2
120	4
121	7
122	45
123	4
124	0
125	0
126	1
127	1
128	1
129	0
131	0
132	1
133	2
134	7
135	21
136	3
137	1
138	2
139	0
140	0
141	2
142	0
143	1
146	0
147	0
148	3
149	6
150	20
151	24
152	6
153	0
156	3
157	0
158	1
159	0
160	0
161	2
162	5
163	16
165	663
166	61
167	6
168	0
169	1
170	0
171	1
172	0
174	0
175	1
176	4
177	1
178	2
179	6
180	5
182	162
183	15
184	4
185	2
186	1
187	0
188	0
189	1
190	9
192	6
194	120
195	13
196	4
198	4
199	37
200	5
201	12
202	1
204	3
207	337
208	67
209	8
210	1
211	0
213	0
215	0
216	3
217	0
218	1
220	9
221	2
222	1
233	0
234	0
249	0
262	3
264	169
265	24
266	2
268	1
