Mass Spectrum: Pyrimidine-2,4,6(1H,3H,5H)-trione, 5-[1-(2-aminophenylamino)propylidene]-1-benzyl-
Formula: C20H20N4O3
CAS: 346611-83-4
Molecular weight: 364
m/z	intensity
39	45
40	16
41	27
42	23
43	16
44	31
51	22
52	36
53	40
54	13
56	36
57	14
58	20
63	17
65	177
66	20
67	14
68	13
69	15
70	14
71	3
72	1
77	95
78	34
79	25
80	62
81	19
82	3
84	5
86	163
87	6
89	20
91	999
92	137
93	14
94	3
95	2
96	4
98	0
102	9
103	37
104	68
105	31
106	36
107	28
108	97
109	11
112	3
115	4
116	4
117	12
118	29
119	45
120	7
123	4
124	2
126	1
129	30
130	39
131	62
132	129
133	52
134	6
142	5
143	24
144	23
145	167
146	75
147	183
148	15
149	6
155	5
156	20
157	96
158	61
159	89
160	14
161	3
166	3
167	4
169	5
170	10
171	16
172	9
173	1
180	0
182	5
183	10
184	20
185	40
186	11
187	66
188	5
189	3
196	1
197	2
201	2
202	9
203	6
212	1
213	9
214	229
215	51
216	2
218	10
227	7
228	55
229	4
230	8
231	1
239	0
244	6
249	46
250	6
256	29
257	185
258	28
259	2
273	2
274	3
335	573
336	121
337	15
350	11
364	76
365	16
