Mass Spectrum: 2-Thia-6-aza-adamantane
Formula: C8H13NS
CAS: 34668-96-7
Molecular weight: 155
m/z	intensity
26	12
27	147
28	218
29	38
30	95
35	9
38	12
39	181
40	35
41	208
42	78
43	116
44	100
45	126
46	11
47	28
50	14
51	42
52	32
53	144
54	151
55	61
56	60
57	20
58	49
59	80
60	25
61	59
62	22
63	13
65	42
66	27
67	116
68	129
69	41
70	37
71	39
72	8
73	15
74	8
75	12
77	53
78	36
79	204
80	999
81	179
82	244
83	107
84	24
85	37
86	26
87	20
88	83
89	10
91	19
92	13
93	41
94	151
95	54
96	50
97	78
98	14
99	12
100	8
103	7
104	8
105	41
106	17
107	19
108	108
109	18
110	9
111	28
112	86
113	16
114	76
120	44
121	12
122	354
123	46
124	15
126	8
139	13
154	163
155	556
156	86
157	38
