Mass Spectrum: Pyrimidine-2,4,6(1H,3H,5H)-trione, 5-(ethyl)(4-diethylamino-1-methylbutylamino)methylene-
Formula: C16H28N4O3
CAS: 346611-76-5
Molecular weight: 324
m/z	intensity
36	2
38	0
39	26
41	103
42	79
43	49
44	98
45	4
51	4
52	7
53	25
54	24
55	39
56	94
58	195
59	5
65	4
66	7
67	26
68	45
69	52
70	42
71	44
72	44
73	23
74	3
77	6
79	6
80	19
81	10
82	21
83	17
84	91
86	999
87	51
88	0
91	5
92	1
93	6
94	10
95	7
96	31
97	12
98	48
99	52
100	10
105	1
106	10
107	4
108	6
109	6
110	16
111	25
112	98
113	54
114	14
115	2
117	0
119	0
120	3
121	3
122	9
123	8
124	28
126	88
127	8
128	7
129	2
130	1
132	1
133	1
134	2
135	2
136	4
137	3
139	43
140	16
141	5
142	19
143	5
146	3
148	2
149	2
150	9
151	3
152	0
153	5
154	12
155	6
156	5
157	2
158	1
159	1
161	10
162	2
164	1
165	10
166	10
167	29
168	3
169	4
170	0
180	0
181	0
182	27
183	18
184	10
185	2
193	0
194	7
195	0
196	5
208	3
209	1
210	22
211	4
212	29
213	2
222	7
223	0
224	4
225	1
236	2
238	3
239	1
250	19
251	4
252	16
253	1
267	1
287	2
295	14
296	3
301	2
309	26
310	6
323	1
324	49
325	8
