Mass Spectrum: 2-(4-Benzyl-5-phenyl-4H-[1,2,4]triazol-3-ylsulfanyl)-1-thiophen-2-yl-ethanone
Formula: C21H17N3OS2
CAS: 346639-87-0
Molecular weight: 391
m/z	intensity
33	12
34	6
35	0
36	5
37	6
39	227
40	95
41	25
42	11
43	21
44	30
45	75
46	7
47	6
48	3
49	3
50	30
51	63
52	18
53	38
54	3
55	8
56	3
57	24
58	31
59	4
60	6
61	3
62	12
63	39
65	180
66	10
67	2
69	18
70	7
71	7
72	2
73	2
74	5
75	11
76	44
77	85
78	14
79	8
80	4
81	7
82	13
83	43
84	15
85	5
86	2
87	3
88	6
89	34
91	999
92	68
93	6
95	5
97	81
98	6
99	3
100	0
103	137
104	82
105	30
106	7
109	75
111	666
112	37
113	29
114	3
115	6
116	4
117	3
118	4
119	2
120	3
121	9
122	2
123	4
124	14
125	5
126	34
127	9
128	5
129	6
130	5
131	54
132	7
134	12
135	6
136	2
137	1
138	0
139	2
140	13
141	4
142	2
143	1
144	0
145	2
146	8
147	8
148	3
149	6
150	2
151	1
152	1
153	0
154	0
155	0
156	0
157	0
158	2
159	1
160	1
161	4
162	2
163	6
164	2
165	4
166	1
167	1
169	5
170	0
171	2
173	45
174	6
175	2
176	3
177	14
178	9
179	5
180	14
181	2
182	0
186	1
187	2
188	1
189	0
190	3
191	0
192	1
193	1
197	1
198	0
199	0
200	1
201	0
203	0
204	0
205	0
206	1
207	4
208	0
212	0
213	3
215	7
216	0
225	0
231	0
232	1
234	52
235	9
236	1
239	0
240	1
241	1
246	0
248	4
249	0
252	1
258	0
264	2
265	4
266	26
267	63
268	12
269	4
270	1
272	18
273	2
274	1
276	0
277	3
280	80
281	14
282	4
283	0
298	1
299	1
300	2
316	0
319	0
330	2
331	0
343	3
344	2
345	2
346	4
348	92
350	18
351	8
352	1
358	1
362	0
363	1
391	60
392	13
393	5
394	0
