Mass Spectrum: Germacyclopentane
Formula: C4H10Ge
CAS: 3466-01-1
Molecular weight: 132
m/z	intensity
41	107
50	14
51	19
52	12
53	33
54	21
55	230
56	19
57	158
70	565
71	129
72	772
73	414
74	999
75	287
76	263
77	67
78	55
84	26
85	59
86	57
87	107
88	91
89	139
90	52
91	38
95	28
97	57
98	76
99	175
100	259
101	211
102	345
103	220
104	273
105	38
106	57
111	43
113	48
114	14
115	43
117	19
126	100
127	57
128	225
129	110
130	323
131	127
132	201
133	24
134	38
