Mass Spectrum: Pyrimidine-2,4,6(1H,3H,5H)-trione, 1-(4-fluorophenyl)-5-(3-methylphenylaminomethylene)-
Formula: C18H14FN3O3
CAS: 346611-70-9
Molecular weight: 339
m/z	intensity
33	7
34	0
36	2
39	255
40	52
41	107
42	49
43	62
44	78
45	12
46	1
50	56
51	125
52	98
53	213
54	23
55	21
57	103
58	10
59	8
60	5
62	52
63	125
65	422
66	32
68	73
69	76
70	62
71	31
73	16
75	131
77	442
78	197
79	79
80	26
81	44
82	180
83	219
84	44
85	10
86	5
87	9
89	237
91	805
92	64
93	16
95	175
96	27
97	10
98	5
99	3
103	314
104	85
106	144
107	243
109	531
111	396
112	30
113	5
114	8
115	30
116	84
117	28
118	167
119	28
120	8
122	84
123	15
124	15
125	4
127	13
128	39
130	999
131	383
132	53
133	32
134	24
135	42
137	356
138	42
139	5
140	3
141	2
142	18
143	24
144	401
145	105
146	66
147	10
148	19
149	6
150	17
151	9
152	6
153	18
154	5
155	15
156	16
157	99
158	572
159	101
160	25
161	15
162	39
163	7
164	1
165	1
167	1
168	4
170	45
171	9
172	12
173	12
174	123
175	16
176	3
177	2
178	18
179	7
180	3
181	1
183	6
184	8
185	63
186	375
187	48
188	6
189	3
190	13
191	2
192	0
194	2
195	0
196	1
197	0
198	1
199	3
200	32
201	17
202	6
203	1
204	23
205	7
206	4
208	3
209	0
210	1
211	1
212	3
213	0
214	0
215	4
216	0
219	0
221	0
222	8
223	2
224	2
225	2
226	0
227	3
228	6
229	136
230	18
231	3
232	0
233	65
234	10
235	1
236	1
237	4
238	1
239	6
240	3
241	1
242	0
243	0
244	0
245	15
246	14
247	3
248	16
249	15
250	4
251	115
252	21
253	4
254	0
255	3
256	2
258	0
259	3
260	0
263	1
264	1
265	2
266	1
267	151
268	31
269	3
271	7
272	1
277	1
278	0
279	0
283	1
284	0
295	16
296	6
297	0
301	0
310	2
320	1
321	4
322	7
323	1
324	0
325	0
329	0
337	1
338	12
339	740
340	170
341	21
342	2
