Mass Spectrum: Benzoic acid, 4-hydroxy-3-nitro-, (2-benzoylamino)ethyl ester
Formula: C16H14N2O6
CAS: 346661-98-1
Molecular weight: 330
m/z	intensity
34	0
36	0
37	2
38	12
39	17
40	15
41	6
42	16
43	8
44	10
45	1
46	0
48	0
50	27
51	92
52	14
53	27
54	2
55	3
56	1
57	1
58	0
60	1
62	12
63	43
64	20
65	7
66	3
67	1
68	0
69	2
70	2
71	0
73	0
74	4
75	7
77	373
78	25
79	5
80	3
81	1
82	0
83	0
84	0
89	0
90	1
91	24
92	36
93	12
94	1
95	0
96	0
97	0
105	999
106	65
108	9
109	0
111	0
112	0
113	0
114	0
115	0
116	0
117	1
118	3
119	27
120	72
121	8
122	7
123	0
125	0
127	0
128	0
130	0
131	0
132	0
133	1
134	64
135	7
136	1
137	0
138	0
139	0
146	11
147	198
148	28
149	28
150	6
151	1
152	1
153	0
155	0
164	39
166	96
167	9
168	1
171	0
173	0
174	0
176	0
179	1
183	1
184	0
190	0
191	0
287	7
288	0
312	0
330	4
331	0
