Mass Spectrum: Pyrimidine-2,4,6(1H,3H,5H)-trione, 5-(5-nitro-2-thienylmethylene)-1-phenyl-
Formula: C15H9N3O5S
CAS: 346612-55-3
Molecular weight: 343
m/z	intensity
33	0
37	8
39	141
40	33
41	64
42	193
43	184
45	999
46	195
47	20
50	253
51	335
52	132
53	183
55	35
57	87
58	12
59	5
61	10
63	433
64	181
65	87
66	13
67	4
69	113
70	69
71	13
72	2
73	2
74	10
75	23
77	137
78	19
79	15
80	8
81	24
82	21
83	8
84	5
85	9
86	1
87	3
88	5
91	281
93	47
95	121
96	13
97	7
98	13
99	3
100	1
101	2
102	2
103	2
104	6
105	8
106	18
107	36
108	13
109	5
110	4
111	1
112	3
113	2
114	3
115	3
116	1
117	2
119	348
120	31
121	11
122	15
123	29
124	3
125	1
126	3
127	4
128	6
129	1
130	1
131	0
133	8
134	9
135	30
136	4
137	6
138	2
139	2
140	2
141	1
142	0
143	0
144	0
145	0
146	0
147	0
149	7
150	14
151	6
153	9
154	3
155	1
156	1
157	1
158	1
159	0
160	1
161	2
162	0
163	1
164	0
165	1
166	1
167	0
168	0
169	1
170	0
171	1
172	0
173	0
175	0
176	3
177	3
178	8
179	3
180	2
181	11
182	4
183	2
184	0
185	0
186	1
187	0
193	0
194	0
196	1
197	1
198	4
199	0
200	0
204	4
205	0
207	0
208	0
209	0
210	0
212	0
213	0
214	2
215	0
224	0
225	1
226	9
227	2
228	0
229	0
230	0
232	0
242	0
244	0
247	0
253	0
254	9
255	1
256	0
270	0
271	0
296	0
297	43
298	7
299	2
300	0
343	6
344	0
345	0
