Mass Spectrum: Propanamide, N-[3,5-dimethyl-1-(1-oxopropyl)pyrazol-4-yl]-
Formula: C11H17N3O2
CAS: 346665-91-6
Molecular weight: 223
m/z	intensity
33	2
34	1
35	0
36	0
37	2
38	8
39	35
40	43
41	100
42	506
43	139
44	11
45	1
46	0
48	0
50	0
51	9
52	16
53	30
54	27
55	40
57	370
58	10
59	1
60	0
61	0
62	1
63	4
64	3
65	9
66	12
67	9
68	13
69	26
70	210
71	10
72	0
73	0
74	0
75	0
76	0
77	2
78	1
79	1
80	4
81	4
82	5
83	3
84	0
85	0
89	0
91	2
92	4
93	1
94	1
95	5
96	3
97	2
98	0
99	0
102	0
104	0
105	0
106	0
108	4
110	170
111	999
112	66
113	2
115	0
119	0
120	0
121	1
122	1
123	3
124	2
125	1
126	1
127	0
134	0
136	3
137	9
138	11
139	1
140	0
148	0
149	0
150	0
152	3
153	18
154	2
155	0
163	0
164	0
165	2
166	20
167	221
168	22
169	1
171	0
178	0
180	1
181	1
182	0
194	1
195	0
199	0
208	0
209	9
210	1
221	0
222	2
223	70
224	10
225	0
