Mass Spectrum: 5-Aminoimidazole, N-t-butyloxycarbonyl-
Formula: C8H13N3O2
CAS: 34665-48-0
Molecular weight: 183
m/z	intensity
41	449
43	101
44	25
45	15
47	3
53	22
54	43
55	79
56	175
57	867
58	37
59	35
66	1
69	2
81	23
83	999
84	67
85	1
109	24
110	158
111	4
124	19
126	1
127	199
128	120
129	6
183	197
184	35
185	1
