Mass Spectrum: 3-Deoxyhexitol, 5TMS derivative
Formula: C21H54O5Si5
CAS: 34665-31-1
Molecular weight: 526
m/z	intensity
27	4
28	86
29	4
32	14
41	33
43	19
44	19
45	59
47	9
55	19
57	16
58	4
59	45
67	16
69	114
70	4
71	9
72	19
73	999
74	86
75	102
76	4
77	4
81	19
83	9
85	4
87	4
89	19
95	14
97	7
99	2
101	43
103	126
104	14
105	7
109	7
111	2
115	9
116	19
117	90
118	9
119	4
123	2
127	2
129	327
130	43
131	38
133	57
134	4
135	4
142	2
143	50
144	2
145	2
147	265
148	40
149	33
151	4
155	14
159	4
161	2
163	12
167	23
169	2
175	14
177	4
189	28
190	4
191	26
192	2
203	14
204	33
205	263
206	55
207	33
217	83
218	23
219	14
221	12
231	684
232	150
233	62
234	12
243	90
244	23
245	9
257	31
258	4
307	4
309	4
321	12
331	19
332	4
333	62
334	19
335	9
