Mass Spectrum: 2,4,6(1H,3H,5H)-Pyrimidinetrione, 5-[[[2-(diethylamino)ethyl]amino]methylene]-1-(4-ethoxyphenyl)-
Formula: C19H26N4O4
CAS: 346612-02-0
Molecular weight: 374
m/z	intensity
39	7
40	5
41	18
42	29
43	15
44	16
45	0
50	0
51	3
52	9
53	14
54	11
55	12
56	31
58	94
59	3
60	0
62	0
63	2
64	2
65	4
66	1
67	4
68	10
69	8
70	13
71	6
72	6
73	1
75	0
77	3
78	5
79	8
80	8
81	7
82	9
83	4
84	16
86	999
87	47
88	0
90	3
91	4
92	1
93	2
94	4
95	2
96	7
97	13
98	5
99	6
100	3
103	0
104	0
106	7
107	24
108	13
109	7
110	7
111	2
112	2
113	1
114	0
115	0
116	0
117	0
118	0
119	3
120	2
121	1
122	4
123	1
125	30
126	2
127	0
128	0
129	0
130	0
131	0
132	2
133	2
135	81
136	8
137	5
138	1
139	2
140	0
141	1
142	0
143	0
144	2
145	0
146	0
147	0
148	2
149	1
150	1
151	2
153	3
154	0
155	2
156	0
157	0
158	0
159	1
160	1
161	1
163	17
164	2
165	3
166	0
167	1
168	7
169	3
170	0
171	1
172	3
173	0
174	1
175	0
176	0
177	0
178	0
179	0
180	0
181	0
182	8
183	1
185	0
187	1
188	1
189	0
190	3
191	0
193	0
194	0
195	0
196	1
197	0
199	0
201	0
202	0
203	0
204	0
205	0
206	0
210	3
211	0
213	0
214	0
215	1
216	0
217	0
218	5
219	0
222	0
224	0
230	0
231	0
232	0
237	0
238	0
239	5
240	0
243	0
244	1
245	1
246	0
248	0
256	0
258	3
259	1
260	0
261	0
272	0
273	0
274	0
275	0
276	0
285	1
286	0
287	3
288	7
289	4
290	0
300	0
301	1
302	1
303	0
315	0
324	0
336	0
338	0
359	1
365	0
367	0
372	0
373	0
374	4
375	1
