Mass Spectrum: 9-Azabicyclo[4.2.1]nona-2,4-diene, 9-methyl-
Formula: C9H13N
CAS: 34668-45-6
Molecular weight: 135
m/z	intensity
26	36
27	178
28	93
29	37
30	35
31	13
37	20
38	61
39	415
40	67
41	202
42	999
43	92
44	85
45	9
49	19
50	83
51	167
52	99
53	121
54	73
55	80
56	80
57	242
58	18
59	8
61	14
62	31
63	104
64	41
65	415
66	335
67	106
68	70
69	15
70	86
71	8
73	13
74	22
75	20
76	19
77	257
78	150
79	298
80	142
81	391
82	93
83	19
84	10
86	8
89	23
90	15
91	171
92	382
93	111
94	354
95	32
96	22
103	42
104	58
105	34
106	74
107	659
108	134
109	11
117	29
118	83
119	47
120	260
121	28
131	7
132	35
133	14
134	352
135	865
136	171
137	12
