Mass Spectrum: Ethanamine, 2-[4-(4-morpholylsulfonyl)phenyl]-
Formula: C12H18N2O3S
CAS: 346662-35-9
Molecular weight: 270
m/z	intensity
33	0
34	2
36	23
38	7
39	29
40	35
41	44
42	115
43	335
44	29
45	12
46	0
48	5
50	11
51	23
52	10
54	49
56	709
57	66
58	13
60	97
62	7
63	38
64	20
65	38
66	4
67	4
68	5
69	5
70	9
72	249
73	8
74	5
76	17
77	85
78	36
79	12
80	4
81	3
82	2
84	20
86	999
87	45
89	125
90	323
91	162
92	17
93	8
94	2
95	2
96	1
97	2
98	2
99	1
100	1
101	3
102	21
103	128
104	85
105	20
106	9
107	69
108	8
109	4
110	2
111	1
112	2
113	3
114	4
115	7
117	57
118	211
119	104
120	61
121	25
122	8
123	5
124	7
125	2
126	0
127	1
128	2
129	1
130	13
131	28
132	31
133	8
134	16
135	7
136	5
137	2
138	14
139	20
140	2
141	1
142	1
143	1
144	7
145	12
146	10
147	6
148	7
149	10
150	4
151	26
152	6
154	172
155	26
156	11
158	17
159	10
160	7
161	66
162	45
163	741
164	78
167	160
168	13
169	8
170	1
171	12
172	1
173	0
174	1
175	8
176	153
177	167
178	18
179	1
180	0
181	1
182	7
183	9
184	13
185	5
186	1
187	1
188	7
189	32
190	18
191	3
192	2
193	1
194	1
195	2
196	6
197	4
198	2
199	0
202	0
203	9
204	1
205	7
206	1
207	0
208	1
209	3
210	59
211	9
212	4
213	1
215	3
216	0
217	8
218	32
219	15
220	2
222	21
223	3
224	1
225	2
226	52
227	23
228	4
229	4
230	9
231	0
235	0
236	0
237	0
238	6
239	2
240	5
241	348
242	44
243	21
244	2
247	2
248	42
249	7
250	0
251	0
252	3
253	35
254	6
255	6
256	0
257	0
262	0
263	0
264	0
266	0
267	0
269	620
270	96
271	38
272	5
273	0
