Mass Spectrum: Benzamide, 2-methyl-N,N-diallyl-
Formula: C14H17NO
CAS: 346724-09-2
Molecular weight: 215
m/z	intensity
33	14
39	159
40	158
41	537
42	105
43	68
51	18
54	41
55	47
56	45
57	45
59	5
63	41
65	216
66	9
67	52
68	109
70	61
71	58
72	5
73	13
76	6
77	23
79	26
80	21
81	59
82	67
84	21
85	27
86	4
87	7
88	19
89	127
91	860
92	59
94	50
95	18
96	68
97	10
102	11
104	3
106	11
107	13
108	41
110	544
112	44
116	21
119	999
120	748
121	89
122	6
123	13
124	39
129	16
131	17
132	12
134	12
135	5
136	28
138	12
145	18
146	13
148	14
149	19
158	13
159	11
160	5
163	7
165	15
167	2
171	2
174	50
175	5
180	4
186	25
187	8
190	4
198	5
200	60
201	7
208	5
214	34
215	112
216	23
