Mass Spectrum: 2-Methyl-5-oxo-4-(4-trifluoromethyl-phenyl)-1,4,5,6,7,8-hexahydro-quinoline-3-carboxylic acid benzyl ester
Formula: C25H22F3NO3
CAS: 346716-12-9
Molecular weight: 441
m/z	intensity
38	5
39	44
41	36
42	39
43	10
44	5
45	3
50	14
51	37
52	14
53	9
54	9
55	20
56	2
57	4
62	7
63	27
65	168
66	12
67	15
68	4
69	10
74	4
75	12
76	13
77	91
78	37
79	65
80	5
81	2
89	56
91	999
92	67
93	8
94	4
95	21
96	3
99	2
101	2
102	4
103	10
104	49
105	115
106	17
107	13
108	6
109	5
113	2
114	3
115	11
116	4
117	15
118	9
119	6
120	4
121	3
122	2
125	16
126	9
127	9
128	10
129	4
130	14
131	11
132	24
133	81
134	10
137	2
138	3
139	24
140	9
141	5
142	2
143	5
145	91
146	15
147	3
148	5
149	6
150	6
151	15
152	21
153	14
154	7
155	2
156	2
157	6
158	4
159	10
160	28
161	165
162	28
163	5
164	8
165	22
166	14
167	10
168	6
169	5
170	6
171	3
172	4
173	4
174	3
175	8
176	10
177	12
178	12
179	9
180	35
181	31
182	13
183	16
184	3
188	32
189	10
190	14
191	6
192	5
193	7
194	9
195	10
196	8
197	4
199	2
200	2
201	8
202	4
203	5
204	10
205	53
206	73
207	24
208	15
209	21
210	5
211	2
214	3
215	4
216	6
217	4
218	9
219	4
220	5
221	4
222	5
223	3
225	2
227	2
228	3
229	2
230	6
231	2
232	3
233	8
234	11
235	29
236	14
237	6
238	2
246	3
247	4
248	31
249	19
250	24
251	15
252	4
258	5
259	2
260	3
261	6
262	10
263	7
264	7
266	5
272	2
273	2
274	5
275	6
276	23
277	33
278	22
279	4
285	3
286	5
287	4
288	7
289	3
290	5
292	14
293	18
294	27
296	780
297	137
298	18
301	2
302	8
304	27
305	16
306	85
307	16
308	3
310	11
314	4
320	3
322	12
323	2
324	5
331	8
332	14
333	5
334	19
335	4
346	4
347	5
348	9
350	126
351	21
352	2
376	5
412	3
422	13
423	2
439	20
441	126
442	25
443	3
