Mass Spectrum: Pyrimidine-5-carboxylic acid, 1,2,3,4-tetrahydro-1,6-dimethyl-2-oxo-4-(3-thienyl)-, 3-phenylpropyl ester
Formula: C20H22N2O3S
CAS: 346725-11-9
Molecular weight: 370
m/z	intensity
33	0
34	3
36	0
37	0
38	6
39	119
40	49
41	81
42	39
43	17
44	22
45	34
46	0
47	0
50	12
51	39
52	14
53	13
54	21
55	30
56	687
57	32
58	20
59	2
60	0
62	4
63	25
64	9
65	126
66	73
67	41
68	15
69	18
70	16
71	8
72	1
73	0
74	7
75	4
77	93
78	51
79	46
80	10
81	14
82	48
83	30
84	19
85	11
86	1
87	1
88	0
89	31
91	999
92	77
94	48
95	39
96	27
97	31
98	22
99	3
100	2
101	1
102	6
103	46
104	29
105	27
106	6
107	8
108	44
109	32
110	59
111	27
112	12
113	5
115	50
116	15
117	138
118	63
119	15
120	6
121	33
122	26
123	35
124	120
125	20
126	3
127	3
128	2
129	1
130	8
131	9
132	6
133	18
134	34
135	37
136	17
137	12
138	55
139	7
140	4
141	1
144	4
145	5
146	5
147	6
148	36
149	25
150	35
151	160
152	30
153	6
154	2
155	0
158	0
159	1
160	2
161	7
162	19
163	17
164	144
165	20
166	8
167	5
169	297
170	25
171	8
172	1
173	6
174	12
175	7
176	24
177	11
178	18
179	4
180	1
181	2
182	4
183	2
184	1
189	0
190	9
191	13
192	13
193	16
194	6
195	6
196	2
197	2
198	1
199	6
200	3
201	2
202	1
203	1
205	31
206	134
207	758
208	143
209	48
210	7
211	1
213	3
214	0
219	4
220	1
221	3
227	0
231	0
232	0
233	42
234	21
235	48
236	9
237	15
238	1
239	0
243	0
249	2
251	705
252	129
253	44
254	6
265	2
266	1
283	0
287	268
288	49
289	5
301	1
325	0
326	5
327	0
355	263
356	59
357	18
358	2
369	157
370	546
371	133
372	42
373	7
