Mass Spectrum: Pyridine-5-carboxylic acid, 1,2,3,4-tetrahydro-4-(3,4-dichlorophenyl)-6-methyl-2-oxo-, 3-phenylpropyl ester
Formula: C22H21Cl2NO3
CAS: 346725-37-9
Molecular weight: 417
m/z	intensity
36	3
38	1
39	16
40	5
41	30
42	89
43	8
44	2
45	0
50	3
51	11
52	4
53	6
54	2
55	4
56	1
57	2
60	1
62	1
63	7
65	42
66	4
67	6
68	5
69	2
70	1
71	1
73	1
74	3
75	7
76	2
77	28
78	17
79	16
80	11
81	7
82	2
83	3
84	18
85	1
86	1
87	2
88	1
89	9
91	416
92	33
93	3
94	1
95	3
96	2
97	1
98	1
99	6
100	2
101	5
102	6
103	19
104	11
105	11
106	1
107	3
108	5
109	12
110	7
111	5
112	2
113	6
114	4
115	33
117	298
118	999
119	98
120	5
121	0
122	0
123	3
124	2
125	4
126	5
127	6
128	6
129	3
130	1
131	0
132	2
133	1
134	1
135	11
136	38
137	11
138	9
139	6
140	5
141	6
142	2
143	2
145	5
146	2
147	3
148	3
149	16
150	5
151	6
152	3
153	4
154	34
155	5
156	3
157	1
159	2
160	1
161	4
162	6
163	3
164	4
165	3
166	2
167	1
170	7
171	15
172	9
173	14
174	6
175	8
176	6
177	8
178	5
179	3
180	1
182	1
183	6
184	3
185	4
186	2
187	1
188	1
189	2
190	8
191	14
192	4
193	5
194	1
196	4
197	4
198	5
199	44
200	6
201	28
202	5
203	6
204	2
205	1
206	0
207	0
209	2
210	2
211	9
212	12
213	8
214	6
215	3
216	1
217	2
218	3
219	4
220	3
221	1
222	2
223	1
224	9
225	14
226	10
227	10
228	4
229	2
230	1
235	0
236	0
237	1
238	3
239	3
240	4
241	3
242	3
243	1
244	1
245	3
246	25
247	6
248	8
249	1
252	5
253	23
254	57
255	24
256	42
257	9
258	10
259	1
260	1
263	1
264	26
265	5
266	9
267	2
268	0
270	1
271	0
272	1
280	10
281	27
282	34
283	22
284	20
285	5
286	3
298	58
299	56
300	45
301	37
302	12
303	6
304	1
324	0
417	44
418	10
419	29
420	6
421	5
422	1
