Mass Spectrum: 2-Oxepanone, 5-(1,1-dimethylethyl)-
Formula: C10H18O2
CAS: 34680-83-6
Molecular weight: 170
m/z	intensity
26	3
27	71
28	22
29	154
30	4
31	6
38	3
39	87
40	18
41	334
42	46
43	72
44	5
45	5
46	1
47	1
50	3
51	9
52	4
53	38
54	95
55	542
56	86
57	869
58	48
59	7
60	76
61	1
65	12
66	5
67	56
68	129
69	106
70	21
71	17
72	9
73	103
74	3
77	10
78	2
79	14
80	4
81	33
82	11
83	171
84	36
85	28
86	815
87	38
88	3
91	5
93	25
94	4
95	114
96	66
97	91
98	9
99	67
100	5
105	2
107	11
108	2
109	88
110	8
111	14
112	3
113	26
114	999
115	116
116	9
117	2
119	9
125	9
126	2
127	5
137	35
138	3
155	25
156	4
171	2
