Mass Spectrum: 4-[Benzylthio]benzo-1,2,3-triazine
Formula: C14H11N3S
CAS: 34686-24-3
Molecular weight: 253
m/z	intensity
41	22
42	3
45	259
46	2
47	23
48	4
49	63
50	39
51	86
52	15
53	3
57	3
58	1
61	3
62	11
63	51
64	17
65	128
66	6
69	15
70	3
71	3
74	9
75	38
76	38
77	53
78	11
79	24
81	3
82	5
83	3
84	26
86	17
87	1
88	3
89	26
90	29
91	487
92	34
93	3
94	1
97	3
99	1
102	769
103	78
104	6
107	7
108	5
112	1
116	1
120	2
121	27
122	9
123	71
124	6
125	3
129	1
130	999
131	84
133	7
134	14
135	1
148	4
152	3
163	1
165	13
166	3
178	5
179	11
180	5
190	3
191	3
192	6
193	8
197	1
223	11
224	29
225	46
226	8
227	1
252	8
253	13
254	2
