Mass Spectrum: Cyclopentanone, 2-(2-hexenyl)-
Formula: C11H18O
CAS: 34687-46-2
Molecular weight: 166
m/z	intensity
41	415
42	77
43	105
44	15
45	11
46	2
47	6
48	1
50	9
51	30
52	21
53	115
54	161
55	369
56	55
57	38
58	5
59	22
60	10
61	0
62	2
63	7
64	2
65	45
66	36
67	284
68	96
69	62
70	19
71	64
72	7
73	13
74	10
75	1
76	0
77	56
78	15
79	127
80	53
81	173
82	178
83	320
84	999
85	74
86	8
87	6
88	2
89	4
90	0
91	47
92	9
93	43
94	27
95	158
96	46
97	167
98	34
99	13
100	5
101	14
102	1
103	2
104	0
105	17
106	7
107	12
108	10
109	49
110	93
111	49
112	7
113	3
114	18
115	5
117	2
118	2
119	52
120	8
121	7
122	6
123	224
124	29
125	13
126	3
127	4
128	2
129	2
131	0
133	8
134	0
135	4
136	2
137	66
138	19
139	3
140	1
147	6
148	48
149	14
150	1
151	7
152	1
153	3
154	0
155	1
156	0
158	0
164	1
165	22
166	313
167	72
168	10
169	1
