Mass Spectrum: Benzocyclobuten-1(2H)-one
Formula: C8H6O
CAS: 3469-06-5
Molecular weight: 118
m/z	intensity
26	14
27	17
28	12
29	2
31	3
33	0
34	0
35	0
36	6
37	53
38	96
39	177
40	31
41	1
42	7
43	44
44	17
45	49
46	0
48	3
49	22
50	102
51	104
52	6
53	12
54	0
56	0
57	0
58	1
59	12
60	8
61	59
62	146
63	348
64	133
65	9
66	1
67	0
69	1
70	0
72	1
73	11
74	31
75	19
76	3
77	4
78	1
79	0
82	0
83	0
84	6
85	18
86	27
87	21
88	21
89	905
90	999
91	74
92	5
93	0
97	0
98	2
99	0
102	0
103	0
104	0
105	0
115	0
116	0
118	880
119	72
120	6
121	0
