Mass Spectrum: 2-Pyrrolidinone, 1-propyl-
Formula: C7H13NO
CAS: 3470-99-3
Molecular weight: 127
m/z	intensity
41	643
42	427
43	207
44	39
52	8
53	8
54	35
55	52
56	88
57	44
58	17
68	66
69	237
70	555
71	35
72	8
82	4
83	4
84	114
85	229
86	61
87	8
98	999
99	123
112	96
113	4
126	22
127	295
128	30
129	4
