Mass Spectrum: 2,5-Pyrrolidinedione, 1-propyl-
Formula: C7H11NO2
CAS: 3470-97-1
Molecular weight: 141
m/z	intensity
41	349
42	203
43	66
44	168
54	39
55	597
56	566
57	128
58	53
70	31
72	106
82	70
84	362
85	70
98	35
99	22
100	999
101	123
112	154
113	168
114	22
126	110
141	473
142	66
