Mass Spectrum: Triazene, 1,3-bis(p-chlorophenyl)-
Formula: C12H9Cl2N3
CAS: 3470-39-1
Molecular weight: 265
m/z	intensity
37	7
38	23
39	20
49	10
50	109
51	53
52	9
60	6
61	21
62	31
63	94
64	40
65	9
73	77
74	93
75	455
76	95
77	11
85	52
86	3
87	14
89	6
90	37
91	31
99	177
100	11
101	53
111	999
112	67
113	321
114	22
126	59
127	26
128	19
129	8
139	272
140	19
141	91
142	6
154	13
156	4
237	9
239	6
265	115
266	16
267	72
268	10
269	12
