Mass Spectrum: 10-Chloro-1-decanol, TMS derivative
Formula: C13H29ClOSi
CAS: 34714-01-7
Molecular weight: 264
m/z	intensity
15	1
26	1
27	19
28	7
29	38
30	1
31	3
39	30
40	4
41	158
42	34
43	96
44	12
45	56
46	4
47	32
48	2
49	7
50	1
51	4
52	1
53	19
54	19
55	544
56	39
57	160
58	30
59	56
60	10
61	50
62	5
63	13
64	2
65	8
66	2
67	42
68	22
69	559
70	39
71	72
72	21
73	389
74	40
75	276
76	20
77	14
78	3
79	13
80	2
81	45
83	999
84	73
85	26
86	4
87	28
88	11
89	26
90	4
91	33
92	6
93	102
94	9
95	71
97	522
98	42
99	33
100	5
101	64
102	10
103	329
104	47
105	17
106	6
107	8
108	1
109	12
110	3
111	18
112	2
113	18
114	3
115	50
116	7
117	4
118	4
119	2
120	1
121	3
123	203
124	18
125	74
126	6
127	9
128	1
129	20
130	3
131	2
132	1
133	1
135	1
136	1
137	4
138	1
139	9
140	1
141	3
143	24
144	3
145	2
146	4
147	1
148	1
149	7
150	1
151	3
153	1
155	1
157	3
159	1
163	1
165	1
171	6
172	1
174	1
185	1
213	3
214	1
215	1
229	1
249	4
250	1
251	1
263	2
265	1
