Mass Spectrum: Methanone, (4-nitrophenyl)(2-thienyl)-
Formula: C11H7NO3S
CAS: 34715-92-9
Molecular weight: 233
m/z	intensity
33	0
34	1
37	5
39	157
40	17
41	1
43	2
44	7
45	20
46	6
47	0
48	1
50	80
51	13
53	13
54	0
55	1
57	22
58	6
59	1
61	3
62	10
63	21
64	12
65	6
66	3
67	0
69	10
70	1
71	1
74	38
75	47
76	93
77	12
79	18
81	10
82	17
83	72
84	5
85	5
86	4
87	5
88	3
89	7
91	20
92	36
93	10
94	1
95	0
96	0
97	1
98	2
99	1
100	0
101	1
102	2
103	10
104	60
105	7
106	1
107	1
108	3
109	3
111	999
113	101
114	11
115	32
116	3
117	1
119	1
120	14
121	4
122	2
123	0
124	0
125	0
126	1
127	0
128	0
129	0
131	0
132	3
133	2
134	0
135	0
136	0
139	0
140	0
142	0
145	1
147	12
148	1
150	35
151	3
152	1
154	0
155	0
156	0
157	1
158	11
159	6
160	1
161	0
165	0
166	0
167	0
169	0
170	0
171	0
172	0
173	0
174	0
175	8
176	0
177	0
184	0
186	10
187	20
188	3
189	1
190	0
194	0
195	0
196	0
202	0
203	2
204	0
205	1
206	0
207	0
210	0
212	0
216	6
217	2
218	0
226	0
227	0
233	348
234	47
235	19
236	2
237	0
