Mass Spectrum: 6-Chlorohexanol, TMS derivative
Formula: C9H21ClOSi
CAS: 34714-00-6
Molecular weight: 208
m/z	intensity
41	212
42	19
43	51
44	22
45	99
47	53
53	15
54	11
55	999
56	50
57	22
58	31
59	54
60	11
61	45
67	16
72	18
73	397
74	38
75	147
76	11
79	11
81	15
83	906
84	60
87	17
93	220
94	18
95	88
99	12
101	22
103	243
104	23
115	14
123	250
124	21
125	89
193	9
194	2
195	3
207	2
