Mass Spectrum: Pyrazole-3-carboxamide, N-(4-methoxyphenyl)-1-methyl-
Formula: C12H13N3O2
CAS: 347383-22-6
Molecular weight: 231
m/z	intensity
37	1
38	11
39	27
40	23
41	44
42	62
43	5
52	155
53	67
54	85
55	13
62	7
63	28
64	20
65	24
66	10
67	8
68	1
75	0
77	19
78	23
79	30
80	30
81	21
82	4
90	3
91	6
92	8
93	0
95	57
96	0
106	21
109	999
110	22
111	1
120	0
122	92
123	17
124	10
134	8
149	1
187	0
202	0
215	3
228	1
229	18
231	514
232	64
233	4
