Mass Spectrum: (5-Chloro-2-nitro-phenyl)-furan-2-ylmethyl-amine
Formula: C11H9ClN2O3
CAS: 347355-88-8
Molecular weight: 252
m/z	intensity
35	2
36	8
37	11
38	33
39	63
40	14
41	17
42	7
43	5
44	3
46	0
47	0
49	6
50	32
51	65
52	58
53	321
54	18
55	10
56	7
57	2
58	2
60	1
61	8
62	24
63	53
64	15
65	8
66	4
67	2
68	7
69	3
70	14
71	7
72	4
73	13
74	17
75	39
76	22
77	17
78	19
79	6
81	999
82	58
83	7
84	4
85	4
86	3
87	4
88	7
89	12
90	10
91	5
92	2
93	1
94	5
95	18
96	3
97	5
98	5
99	8
100	13
101	4
102	5
103	8
104	1
105	5
106	1
109	2
110	5
111	12
112	8
113	10
114	10
115	10
116	3
117	1
123	2
124	8
125	5
126	5
127	4
128	2
129	1
136	1
137	2
138	5
139	6
140	7
141	11
142	4
143	4
144	0
149	3
151	10
152	6
153	4
154	2
155	5
156	2
163	6
164	4
165	3
166	2
167	3
168	1
169	5
170	2
171	2
177	36
178	8
179	11
180	7
181	4
185	0
188	0
189	4
190	9
191	4
192	3
193	1
204	6
205	13
206	4
207	4
208	0
216	0
217	50
218	9
219	17
220	3
221	0
222	0
234	0
235	3
237	1
252	27
253	3
254	7
255	0
