Mass Spectrum: Furan-2-ylmethyl-(2-nitro-5-pyrrolidin-1-yl-phenyl)-amine
Formula: C15H17N3O3
CAS: 347355-90-2
Molecular weight: 287
m/z	intensity
33	7
34	2
37	7
38	32
39	137
40	122
41	149
42	75
43	77
44	39
45	5
50	32
51	92
52	84
53	424
54	51
55	90
56	17
57	24
62	14
63	66
64	33
65	45
66	22
67	23
68	28
69	27
70	48
71	24
73	4
74	5
75	27
76	39
77	82
78	56
79	40
81	999
82	58
83	25
84	18
85	14
88	5
89	24
90	46
91	60
92	32
93	21
94	16
95	42
96	11
97	4
98	9
99	8
101	2
102	15
103	27
104	55
105	39
106	20
107	11
108	5
109	1
111	3
112	5
113	4
114	5
115	28
116	23
117	54
118	26
119	32
120	25
121	7
122	2
127	2
128	9
129	13
130	26
131	27
132	25
133	14
134	7
135	5
140	6
141	8
142	15
143	24
144	28
145	33
146	27
147	14
148	5
149	17
154	9
155	9
156	20
157	16
158	14
159	35
160	19
161	13
168	4
169	10
170	15
171	17
172	6
173	4
174	27
175	6
176	21
177	9
182	2
183	10
184	16
185	25
186	48
187	44
188	12
189	2
197	10
198	2
199	9
202	7
204	8
210	3
211	27
212	83
213	34
214	3
217	6
223	11
224	18
225	5
239	26
240	90
241	190
242	31
252	96
253	28
254	22
257	1
270	6
287	135
288	16
