Mass Spectrum: 4-(2-Chloro-phenyl)-1-(1-phenyl-ethyl)-1,4-dihydro-pyridine-3,5-dicarboxylic acid dimethyl ester
Formula: C23H22ClNO4
CAS: 347327-21-3
Molecular weight: 411
m/z	intensity
33	1
36	2
38	2
39	11
40	13
41	7
42	3
43	9
44	7
45	4
50	9
51	20
52	5
53	10
54	1
55	5
56	1
57	5
59	33
60	1
62	1
63	7
64	1
65	6
66	1
67	1
68	0
69	3
70	1
71	2
73	1
74	5
75	29
76	12
77	118
78	45
79	128
80	9
81	1
82	0
83	2
84	1
85	3
86	1
87	2
88	1
89	6
90	2
91	6
92	2
93	2
94	0
95	0
97	1
98	1
99	6
100	1
101	4
102	9
103	84
104	62
105	999
106	88
107	4
108	3
109	2
111	17
112	5
113	11
114	7
115	6
116	1
117	1
120	3
121	2
122	2
123	1
125	17
126	20
127	11
128	4
129	1
130	0
131	0
134	0
135	3
136	28
137	7
138	3
139	7
140	8
141	5
142	2
143	0
145	0
147	0
148	1
149	7
150	2
151	5
152	11
153	14
154	9
155	4
156	1
159	0
160	3
161	5
162	3
163	4
164	23
165	4
166	5
167	8
168	9
169	5
170	1
171	1
173	0
174	0
175	1
176	0
177	0
178	0
179	0
180	6
181	3
182	4
183	3
184	0
185	0
186	0
187	3
188	11
189	2
190	3
191	0
194	4
196	362
197	41
198	6
201	0
202	2
203	3
204	1
205	1
206	1
208	1
210	2
211	1
212	9
213	3
214	5
215	2
216	11
217	1
218	4
219	0
222	1
223	0
224	3
225	1
226	1
230	1
231	3
232	0
233	0
234	0
238	1
240	3
241	2
242	8
243	1
244	2
246	0
248	17
249	2
250	5
251	0
256	2
262	0
270	5
271	0
272	0
274	4
275	1
276	11
277	1
278	3
279	0
282	0
283	0
284	1
292	7
293	1
294	1
297	1
298	4
300	231
301	43
302	5
306	1
308	0
320	2
352	3
353	0
354	1
380	10
381	1
382	2
396	1
411	40
412	8
413	12
414	2
