Mass Spectrum: Silacyclopen-2-ene, 1,1-difluoro-
Formula: C4H6F2Si
CAS: 34736-34-0
Molecular weight: 120
m/z	intensity
39	339
50	70
51	89
52	88
53	187
54	999
55	44
66	98
67	131
101	131
102	8
103	0
120	761
121	95
122	35
123	1
