Mass Spectrum: Acetamide, 2-cyano-N-[4-(2,5-dimethyl-1-pyrrolyl)butyl]-
Formula: C13H19N3O
CAS: 347328-24-9
Molecular weight: 233
m/z	intensity
37	4
38	31
39	264
40	301
41	563
42	381
43	101
44	128
45	4
50	41
51	103
52	113
53	208
54	101
55	146
56	82
57	8
58	13
59	3
60	0
61	0
62	3
63	14
65	137
66	82
67	173
68	236
69	26
70	94
71	7
72	11
73	1
74	1
75	2
77	110
78	48
79	103
80	70
81	42
82	19
83	4
84	4
85	4
89	1
91	35
92	93
93	140
94	476
95	149
96	87
97	74
98	14
99	0
102	0
103	3
104	12
105	15
106	121
107	170
108	999
109	610
110	77
111	6
112	1
115	1
117	14
118	21
119	18
120	101
121	94
122	458
123	102
124	10
125	6
128	0
129	1
130	4
131	5
132	18
133	21
134	139
135	59
136	226
137	33
138	3
139	8
140	0
144	1
145	1
146	7
148	137
149	28
150	43
151	4
154	0
161	0
162	1
163	3
164	1
165	6
166	2
173	0
177	0
186	2
190	0
191	4
192	7
193	7
218	15
219	1
230	3
232	61
233	483
234	68
235	5
236	0
