Mass Spectrum: 6-Acetyl-2-(4-fluoro-benzoylamino)-4,5,6,7-tetrahydro-thieno[2,3-c]pyridine-3-carboxylic acid ethyl ester
Formula: C19H19FN2O4S
CAS: 347320-72-3
Molecular weight: 390
m/z	intensity
38	0
39	7
40	19
41	9
42	19
43	136
44	13
45	8
50	3
51	5
52	3
53	4
54	1
55	5
56	3
57	5
58	2
59	3
60	0
61	0
63	2
64	1
65	6
66	3
67	3
68	3
69	9
70	4
71	6
72	1
73	1
75	40
76	6
77	5
78	7
79	2
80	5
81	2
82	2
83	3
84	4
85	2
86	1
87	0
88	3
89	1
90	2
91	8
92	4
93	4
94	14
95	275
96	23
97	7
98	1
99	0
100	0
101	1
103	0
104	2
105	3
106	2
107	2
108	1
109	2
110	5
111	3
112	4
113	2
114	0
115	3
116	0
117	1
118	3
119	4
120	5
121	53
123	999
124	80
125	11
126	2
127	1
128	0
129	1
130	0
131	0
134	2
135	1
136	5
137	8
138	2
139	2
140	2
141	1
142	0
143	0
145	2
146	2
147	1
148	0
149	3
150	3
151	11
152	23
153	4
154	2
155	12
156	1
158	0
161	1
162	2
163	3
164	2
165	1
166	1
167	0
168	1
169	0
170	2
171	1
177	5
178	4
179	25
180	8
181	2
182	1
183	1
184	0
185	3
186	1
188	0
191	1
192	2
193	0
194	4
195	1
196	10
197	3
198	3
199	1
200	0
201	6
202	1
204	1
205	0
208	13
209	3
210	13
211	1
213	6
214	0
218	0
219	0
221	12
222	2
223	5
224	1
225	13
226	2
227	2
228	5
229	2
230	0
231	0
232	0
239	14
240	2
241	2
245	8
246	6
247	7
248	0
249	0
250	0
251	0
258	0
265	2
267	106
268	16
269	6
270	0
273	15
274	6
275	11
276	1
285	8
286	10
287	2
288	1
299	1
301	27
302	13
303	3
304	1
310	3
315	4
316	6
317	21
318	4
319	35
320	8
321	2
331	14
332	21
333	4
334	0
343	1
344	8
345	11
346	5
347	38
348	8
349	1
361	3
362	0
375	1
389	83
390	346
391	76
392	25
393	3
