Mass Spectrum: 4-Amino-furazan-3-carboxylic acid (2-acetylamino-ethyl)-amide
Formula: C7H11N5O3
CAS: 347355-79-7
Molecular weight: 213
m/z	intensity
33	5
34	4
35	0
36	2
37	0
38	4
39	7
40	44
41	49
42	192
43	999
44	278
45	55
46	1
47	0
48	0
50	0
51	1
52	6
53	66
54	84
55	46
56	31
57	30
58	32
59	26
60	157
61	3
63	1
64	1
65	0
66	2
67	4
68	10
69	24
70	120
72	290
73	239
74	9
75	0
76	0
77	0
78	0
79	0
80	0
81	2
82	8
83	13
84	43
85	132
86	39
87	148
88	6
89	0
91	0
93	0
94	2
95	3
96	13
97	45
98	4
99	3
100	1
101	6
102	0
105	0
107	0
108	1
109	16
110	11
111	51
112	54
113	14
114	59
115	3
116	0
122	0
124	63
125	8
126	6
127	1
128	2
129	3
130	0
137	1
138	0
139	1
141	31
142	64
143	3
144	0
149	0
152	1
154	138
155	12
156	14
157	1
165	0
166	0
167	0
168	2
169	0
170	1
171	0
178	0
183	15
184	1
196	17
197	1
198	1
213	6
214	1
