Mass Spectrum: 4-(4-Chloro-phenyl)-1-(1-phenyl-ethyl)-1,4-dihydro-pyridine-3,5-dicarboxylic acid dimethyl ester
Formula: C23H22ClNO4
CAS: 347329-96-8
Molecular weight: 411
m/z	intensity
33	0
34	1
35	0
36	2
37	0
38	2
39	15
40	21
41	5
42	3
43	5
44	10
45	3
49	0
50	14
51	27
52	7
53	12
54	1
55	2
56	1
57	2
59	45
60	1
61	1
62	2
63	10
64	2
65	10
66	3
67	1
68	0
69	2
70	1
71	1
73	1
74	5
75	33
76	12
77	126
78	43
79	134
80	10
81	1
82	1
83	1
84	1
85	3
86	1
87	2
88	1
89	8
90	5
91	8
92	2
93	2
94	1
95	0
97	0
98	1
99	5
100	1
101	4
102	7
103	76
104	51
105	999
106	90
107	10
108	6
109	1
110	1
111	23
112	5
113	11
114	5
115	3
116	1
117	0
118	0
119	0
120	3
121	3
122	2
123	1
124	1
125	12
126	16
127	7
128	2
129	0
130	0
131	0
132	0
133	0
134	0
135	4
136	19
137	6
138	3
139	5
140	3
141	2
142	1
148	1
149	5
150	2
151	47
152	11
153	9
154	3
155	1
156	0
157	0
159	0
160	3
161	5
162	3
163	3
164	14
165	2
166	3
167	4
168	2
169	0
171	0
173	0
174	0
175	0
176	0
177	0
178	0
179	0
180	2
181	0
182	2
183	1
184	0
186	1
187	2
188	9
189	2
190	3
191	0
193	0
194	1
196	236
197	24
198	3
201	0
202	1
203	1
204	1
205	0
206	0
208	0
210	1
211	0
212	1
213	0
214	4
215	2
216	9
217	1
218	3
219	0
220	0
222	0
225	0
226	0
230	0
231	0
232	0
233	0
234	0
238	0
240	1
241	1
242	4
243	0
244	1
245	0
246	1
247	2
248	6
249	1
250	2
254	0
260	0
262	2
264	0
270	0
271	1
274	1
275	0
276	4
277	1
278	1
279	0
284	0
292	2
293	0
294	0
297	2
298	3
300	138
301	24
302	3
303	0
305	1
306	1
307	0
308	0
314	0
320	0
331	0
352	2
353	0
354	0
370	0
380	5
381	1
382	1
396	0
398	0
411	18
412	4
413	6
414	1
