Mass Spectrum: 1,2:3,4-Di-O-benzylidene-6-O-benzoyl-d-glucose
Formula: C27H24O7
CAS: 3473-04-9
Molecular weight: 460
m/z	intensity
41	22
42	5
43	26
44	7
45	4
47	8
48	4
49	43
50	17
51	69
52	11
53	8
54	4
55	36
56	8
57	22
58	1
59	3
63	5
64	2
65	6
66	11
67	2
68	70
69	44
70	5
71	21
72	1
73	3
74	3
75	4
76	16
77	288
78	55
79	103
80	10
81	31
82	6
83	10
84	46
85	32
86	21
88	3
89	15
90	15
91	218
92	20
93	3
94	69
95	8
96	1
97	21
98	7
99	2
102	0
103	22
104	43
105	999
106	122
107	70
108	7
109	7
110	15
111	10
112	1
113	53
114	3
115	6
116	2
117	4
118	3
119	13
120	7
121	7
122	21
123	10
124	2
125	1
126	6
127	4
128	0
129	3
130	1
131	15
132	3
133	21
134	3
135	3
138	1
139	1
144	4
145	8
146	4
147	25
148	73
149	12
150	1
152	0
153	1
155	3
156	2
157	7
158	4
159	2
160	2
161	403
162	63
163	10
164	1
165	18
166	2
172	5
173	6
174	7
175	14
176	6
177	165
178	20
179	3
181	4
186	5
187	19
188	7
189	3
190	38
191	5
201	4
202	2
203	14
204	2
205	2
206	6
207	0
209	0
211	136
212	21
213	2
214	3
215	10
216	12
217	6
219	28
220	4
224	0
227	3
231	17
232	8
233	6
237	2
248	2
249	4
261	14
262	2
264	1
277	3
281	2
282	2
295	10
296	2
308	0
309	3
325	34
326	7
337	38
338	87
339	19
340	3
353	3
354	10
355	16
356	4
383	4
459	28
460	170
461	51
462	10
