Mass Spectrum: 2-Butanone, 3-bromo-4-hydroxy-1,4-diphenyl-
Formula: C16H15BrO2
CAS: 34737-58-1
Molecular weight: 318
m/z	intensity
39	110
51	190
65	200
91	999
92	140
103	130
105	190
106	170
107	190
119	80
131	190
133	150
147	110
212	120
214	130
239	80
318	4
320	4
