Mass Spectrum: 4-Piperidinone, 3-methyl-1-(phenylmethyl)-
Formula: C13H17NO
CAS: 34737-89-8
Molecular weight: 203
m/z	intensity
15	2
26	3
27	16
28	23
29	7
30	4
37	1
38	3
39	41
40	7
41	50
42	101
43	11
44	2
45	1
50	7
51	22
52	7
53	5
54	11
55	26
56	61
57	14
59	2
61	1
62	4
63	20
64	7
65	114
66	8
67	3
68	8
69	6
70	38
71	3
72	1
74	1
75	2
76	3
77	16
78	7
79	4
80	2
81	1
82	6
83	4
84	10
85	5
86	1
87	1
89	28
90	33
91	999
92	188
93	11
94	1
96	2
97	4
98	5
102	1
103	5
104	23
105	12
106	6
107	1
110	1
111	7
112	157
113	11
114	1
115	3
116	2
117	13
118	58
119	17
120	8
121	1
125	7
126	156
127	13
128	2
129	1
130	8
131	22
132	23
133	10
134	3
143	1
144	3
145	2
146	70
147	9
148	1
156	1
158	2
159	1
160	24
161	3
172	1
174	4
175	1
184	1
186	6
187	1
188	2
202	136
203	206
204	29
205	2
