Mass Spectrum: (5-Morpholin-4-yl-2-nitro-phenyl)-pyridin-3-ylmethyl-amine
Formula: C16H18N4O3
CAS: 347356-05-2
Molecular weight: 314
m/z	intensity
33	4
37	6
38	40
39	348
40	76
41	86
42	92
43	57
44	41
45	51
46	7
50	55
51	162
52	126
53	70
54	77
55	47
56	81
57	48
58	13
59	4
61	4
62	32
63	176
64	131
65	589
66	68
67	39
68	16
69	11
70	12
71	15
72	8
73	6
74	15
75	47
76	98
77	226
78	255
79	454
80	112
81	16
82	6
83	8
84	16
85	23
86	20
87	6
88	9
89	33
90	118
91	204
92	999
93	174
94	25
95	8
96	7
97	13
98	14
99	5
100	3
101	13
102	33
103	66
104	186
105	211
106	578
107	98
108	45
109	8
110	10
111	24
112	15
113	10
114	6
115	11
116	28
117	102
118	118
119	80
120	33
121	12
122	7
123	5
124	4
125	8
126	15
127	30
128	22
129	24
130	27
131	51
132	121
133	54
134	64
135	17
136	6
137	3
139	5
140	9
141	8
142	10
143	14
144	23
145	45
146	41
147	28
148	12
149	17
150	10
151	6
152	13
153	25
154	39
155	23
156	14
157	18
158	7
159	8
160	58
161	26
162	13
163	10
164	10
165	23
166	9
167	12
168	15
169	14
170	6
171	12
172	9
173	7
174	9
175	18
176	16
177	18
178	12
179	26
180	28
181	81
182	60
183	29
184	9
185	5
188	19
189	11
190	119
191	23
192	38
193	25
194	29
195	28
196	18
197	11
198	8
202	7
203	8
204	19
205	17
206	17
207	39
208	106
209	51
210	65
211	33
212	10
215	5
216	6
217	8
218	136
219	27
220	16
221	76
222	135
223	46
224	21
225	17
226	8
228	3
229	36
230	5
234	8
235	16
236	40
237	46
238	107
239	38
240	9
241	4
248	5
249	25
250	10
251	13
252	6
253	3
255	10
256	19
257	16
258	4
263	12
264	11
265	27
266	81
267	90
268	101
269	24
270	3
271	5
276	4
279	215
280	90
281	69
282	17
283	22
284	34
285	8
293	4
294	12
295	35
297	302
298	50
299	9
309	3
311	37
312	36
314	604
315	90
316	10
