Mass Spectrum: 6-(5-Bromo-2-methoxy-phenyl)-5-nitro-piperidin-2-one
Formula: C12H13BrN2O4
CAS: 347328-22-7
Molecular weight: 328
m/z	intensity
33	6
34	2
35	1
36	9
37	16
38	62
39	288
40	105
41	267
42	312
43	178
44	82
45	32
46	12
47	0
48	1
50	118
51	159
52	68
53	67
54	139
55	999
56	105
57	42
58	38
59	44
60	5
61	16
62	79
63	254
64	84
65	102
66	33
67	34
68	68
69	73
70	21
71	32
72	22
73	34
74	59
75	125
76	114
77	169
78	88
79	65
80	76
81	16
82	23
83	5
84	9
85	12
86	18
87	79
88	38
89	122
90	98
91	97
92	39
93	13
94	7
95	6
96	29
97	45
98	10
99	7
100	17
101	50
102	88
103	83
104	65
105	41
106	34
107	20
108	12
109	2
110	2
111	3
112	4
113	11
114	27
115	158
116	74
117	89
118	98
119	45
120	25
121	12
122	1
123	1
125	2
126	10
127	37
128	53
129	49
130	70
131	75
132	73
133	94
134	26
135	7
136	1
138	0
139	1
140	15
142	44
143	90
144	84
145	82
146	64
147	30
148	51
149	12
150	1
151	1
152	0
153	2
154	6
155	23
156	16
157	36
158	46
159	120
160	85
161	45
162	6
163	1
167	7
168	17
169	50
170	46
171	62
172	44
173	43
174	199
175	39
176	108
177	12
178	1
180	5
181	5
182	42
183	17
184	54
185	43
186	34
187	39
188	14
189	2
193	3
194	6
195	15
196	77
197	68
198	91
199	97
200	33
201	61
202	208
203	41
204	6
205	1
206	2
208	48
209	37
210	97
211	89
212	155
213	76
214	137
215	23
216	44
217	4
219	1
220	2
222	43
223	26
224	70
225	159
226	80
227	159
228	60
229	31
230	20
231	2
234	3
235	2
236	10
237	12
238	52
239	23
240	60
241	14
242	17
243	1
249	5
250	14
251	12
252	75
253	99
254	90
255	117
256	34
257	29
258	2
262	6
263	15
264	10
265	24
266	36
267	16
268	31
269	6
277	3
278	10
280	118
281	456
282	153
283	420
284	70
285	6
292	1
328	88
329	16
330	72
331	9
