Mass Spectrum: Acetamide, N-[3-(2-fluorophenoxy)-4-methyl-6-nitrophenyl]-
Formula: C15H13FN2O4
CAS: 347344-25-6
Molecular weight: 304
m/z	intensity
39	13
40	14
43	999
44	308
51	7
77	8
216	10
232	140
233	10
258	765
259	322
262	945
263	319
304	116
305	7
