Mass Spectrum: 2-Butanone, 3-chloro-4-hydroxy-1,4-diphenyl-
Formula: C16H15ClO2
CAS: 34737-56-9
Molecular weight: 274
m/z	intensity
39	210
50	160
51	300
65	240
77	480
78	190
91	999
92	100
105	280
106	230
107	80
119	100
168	180
170	50
274	4
276	2
