Mass Spectrum: 4-(3-Chloro-phenyl)-1-(1-phenyl-ethyl)-1,4-dihydro-pyridine-3,5-dicarboxylic acid dimethyl ester
Formula: C23H22ClNO4
CAS: 347326-82-3
Molecular weight: 411
m/z	intensity
33	0
36	0
37	0
38	1
39	10
40	5
41	4
42	2
43	6
44	3
45	12
50	11
51	21
52	6
53	10
54	1
55	1
56	0
57	1
59	38
60	0
61	0
62	1
63	7
64	2
65	6
66	1
67	0
69	1
71	0
73	1
74	5
75	33
76	14
77	119
78	39
79	132
80	9
81	0
82	0
83	0
84	0
85	3
86	1
87	2
88	1
89	6
90	2
91	4
92	2
93	2
94	1
97	0
98	1
99	4
100	1
101	4
102	8
103	85
104	57
105	999
106	90
108	8
109	1
111	27
112	4
113	12
114	6
115	4
116	0
117	0
120	3
121	1
122	3
123	1
124	1
125	11
126	19
127	8
128	3
129	1
130	0
133	0
134	0
135	1
136	29
137	7
138	3
139	6
140	4
141	3
142	1
143	0
148	1
149	6
150	3
151	5
152	10
153	13
154	5
155	2
156	0
159	0
160	3
161	6
162	3
163	5
164	27
165	4
166	5
167	7
168	3
169	1
170	0
171	0
173	0
174	0
175	1
176	1
177	1
178	2
179	1
180	4
181	2
182	3
183	2
186	1
187	3
188	13
189	4
190	4
191	1
192	0
194	3
196	400
197	41
198	5
199	0
201	1
202	3
203	3
204	2
205	1
206	0
208	0
209	0
210	2
211	0
212	1
213	1
214	6
215	4
216	14
217	3
218	6
219	1
220	0
222	1
224	0
225	0
226	1
227	0
230	1
231	1
232	1
233	0
234	3
235	0
238	0
240	3
241	3
242	6
243	1
244	3
245	1
246	1
247	3
248	11
249	2
250	4
251	0
256	0
260	0
262	4
263	0
264	1
269	0
270	0
271	2
272	0
274	1
276	9
277	2
278	3
279	0
283	0
284	1
290	0
292	4
293	0
294	1
297	1
298	4
300	261
301	48
302	7
303	0
305	0
306	1
307	0
314	0
320	9
321	1
330	0
345	0
346	0
352	4
353	0
354	1
380	12
381	2
382	3
383	0
396	1
409	0
411	38
412	10
413	10
414	2
