Mass Spectrum: Guanidine, 1-cyclohexyl-3-(4,6-dimethyl-2-pyrimidyl)-
Formula: C13H21N5
CAS: 34747-48-3
Molecular weight: 247
m/z	intensity
33	8
37	1
38	4
39	40
40	21
41	46
42	62
43	66
44	18
45	4
50	1
51	3
52	9
53	17
54	26
55	30
56	23
57	1
60	0
63	0
64	3
65	7
66	41
67	80
68	19
69	6
70	5
75	1
76	0
77	1
78	2
79	7
80	19
81	31
82	41
83	37
84	3
85	1
92	2
93	5
95	74
96	173
98	80
99	1
102	0
103	0
106	21
107	56
108	53
109	7
110	0
120	1
121	6
123	999
124	167
125	17
134	2
135	0
136	1
140	0
147	2
148	30
149	205
150	40
151	5
161	0
162	1
163	1
165	219
166	134
167	11
168	0
175	3
176	2
177	2
178	2
179	2
187	2
188	4
190	79
191	10
192	9
193	2
201	7
202	3
203	3
204	67
205	25
206	4
214	0
215	1
216	0
217	0
218	13
219	3
229	2
230	5
231	0
232	9
233	1
246	16
247	175
248	25
249	1
