Mass Spectrum: Palladium, .pi.-cyclopentadienyl(2-phenyl-.pi.-allyl)-
Formula: C14H14Pd
CAS: 34742-66-0
Molecular weight: 288
m/z	intensity
25	4
26	17
27	46
28	11
29	0
31	2
37	7
38	26
39	588
40	38
41	21
42	3
44	1
49	2
50	47
51	145
52	29
53	9
56	0
58	0
59	2
60	3
61	7
62	26
63	152
64	19
65	160
66	28
67	1
68	0
69	1
70	0
74	12
75	29
76	19
77	96
78	27
79	13
80	3
85	1
86	5
87	14
88	7
89	112
90	16
91	288
92	19
93	0
95	0
98	0
99	3
100	0
101	3
102	28
103	23
104	86
105	168
106	216
107	3
108	207
109	4
110	93
111	1
112	0
113	18
114	31
115	999
116	186
117	903
118	84
119	4
120	5
121	3
122	1
123	3
124	1
125	2
126	1
127	4
128	6
129	3
130	3
131	4
132	9
133	5
134	5
135	3
136	3
137	1
138	2
139	9
140	3
141	46
142	26
143	62
144	112
145	120
146	30
147	93
148	11
149	45
150	3
151	5
152	13
153	9
154	6
155	19
156	35
157	42
158	6
159	39
160	3
161	16
162	0
163	2
164	2
165	31
166	23
167	17
168	10
169	35
170	67
171	78
172	12
173	70
174	9
175	30
176	6
177	1
178	21
179	32
180	28
181	114
182	103
183	133
184	70
185	174
186	118
187	54
188	95
189	8
190	37
191	1
192	0
193	1
194	3
195	7
196	11
197	13
198	4
199	11
200	2
201	4
206	8
207	11
208	19
209	18
210	21
211	8
212	16
213	4
214	5
215	0
217	11
218	11
219	118
220	195
221	409
222	366
223	656
224	73
225	474
226	48
227	162
228	16
229	1
234	0
235	0
236	2
238	1
245	0
246	6
247	9
248	9
249	2
250	9
251	2
252	4
258	0
259	1
260	2
261	2
262	3
263	0
264	1
270	0
271	2
272	2
273	3
274	0
275	3
277	0
283	0
284	19
285	8
286	204
287	419
288	542
289	77
290	468
291	78
292	210
293	29
294	3
