Mass Spectrum: [4,4'-Bipyrazolidine]-3,3',5,5'-tetrone, 1,1',2,2'-tetraphenyl-
Formula: C30H22N4O4
CAS: 3474-99-5
Molecular weight: 502
m/z	intensity
39	50
41	70
64	100
77	450
91	120
93	999
119	360
172	180
183	160
263	90
264	70
302	40
320	150
385	50
502	140
