Mass Spectrum: Hexopyranuronamide, N-methyl-1,2:3,4-bis-O-(1-methylethylidene)-
Formula: C13H21NO6
CAS: 347412-19-5
Molecular weight: 287
m/z	intensity
33	29
37	0
39	104
41	222
43	999
45	8
51	5
52	1
53	15
55	89
56	36
58	447
59	307
60	20
61	8
65	0
69	179
71	327
73	62
74	2
78	6
80	1
81	17
83	65
85	259
86	18
88	84
89	41
95	41
97	134
98	20
100	230
102	34
108	6
109	2
110	4
111	7
113	90
114	35
115	29
117	9
123	4
124	5
126	66
128	18
129	29
130	3
135	1
137	4
139	5
141	66
142	41
143	34
144	22
145	0
154	113
155	27
156	4
157	1
158	0
168	5
171	56
172	73
173	9
183	2
184	0
186	10
187	19
188	1
194	3
196	31
197	1
199	4
200	14
201	2
212	2
214	78
215	8
229	67
230	9
269	0
272	376
273	42
274	5
