Mass Spectrum: Disulfide, chloro chlorodifluoromethyl
Formula: CCl2F2S2
CAS: 34764-21-1
Molecular weight: 184
m/z	intensity
31	217
44	109
50	148
63	356
64	630
67	222
79	28
82	561
85	999
98	55
99	82
114	69
117	400
149	274
184	148
