Mass Spectrum: Methanesulfenamide, 1,1,1-trifluoro-N-(trifluoromethyl)-N-[(trifluoromethyl)thio]-
Formula: C3F9NS2
CAS: 34764-16-4
Molecular weight: 285
m/z	intensity
31	227
46	956
50	152
63	225
69	999
78	323
82	285
96	582
101	126
115	444
128	155
146	35
147	48
165	179
184	509
216	87
266	27
285	616
