Mass Spectrum: 1,1-Di(phenylsulfonyl)-cyclopropane
Formula: C15H14O4S2
CAS: 34782-46-2
Molecular weight: 322
m/z	intensity
77	999
91	69
97	169
105	250
109	30
110	19
115	100
117	441
125	558
132	240
133	529
141	459
143	29
165	30
181	39
194	39
258	240
