Mass Spectrum: L-Prolinamide, 5-oxo-L-prolyl-L-phenylalanyl-4-hydroxy-
Formula: C19H24N4O5
CAS: 34783-36-3
Molecular weight: 388
m/z	intensity
41	290
42	50
54	50
55	90
56	120
65	90
66	50
68	200
69	50
77	60
84	850
85	100
86	740
91	999
92	150
94	50
103	50
104	50
119	50
120	60
131	110
132	50
141	60
142	50
146	60
147	50
168	50
169	390
231	60
258	90
259	50
260	60
287	10
304	10
353	10
388	50
389	5
