Mass Spectrum: D-Methionine
Formula: C5H11NO2S
CAS: 348-67-4
Molecular weight: 149
m/z	intensity
26	23
27	159
28	501
29	105
30	155
31	4
33	4
34	6
35	89
37	7
38	11
39	65
41	151
42	150
43	104
44	38
45	248
46	111
47	190
48	63
49	42
50	4
51	6
52	22
53	8
54	74
55	244
56	589
57	165
58	25
59	51
60	23
61	999
62	45
63	42
64	1
68	3
69	5
70	17
71	8
72	3
73	13
74	244
75	239
76	15
77	14
79	2
83	230
84	16
85	16
86	27
87	86
88	103
89	11
90	8
99	11
100	6
101	170
102	15
103	4
104	117
105	6
106	8
114	70
115	5
116	175
117	13
118	8
131	404
132	51
133	23
134	8
149	69
150	13
151	4
