Mass Spectrum: Benzamide, N-(1-phenylethyl)-
Formula: C15H15NO
CAS: 3480-59-9
Molecular weight: 225
m/z	intensity
37	3
38	8
39	44
40	8
41	31
42	66
43	28
44	7
45	4
46	2
47	0
50	47
51	169
52	26
53	13
54	22
55	11
56	76
58	0
59	7
60	14
61	1
62	4
63	13
64	6
65	16
66	4
67	11
68	12
69	26
70	5
71	2
72	4
73	4
74	14
75	15
77	583
78	101
79	61
80	8
81	3
82	10
83	2
84	2
85	2
86	7
87	2
88	2
89	7
90	3
91	14
92	5
93	4
94	4
95	6
96	17
97	6
98	3
99	2
100	15
101	16
102	10
103	55
104	276
105	999
106	96
107	10
108	1
109	1
111	2
113	58
114	48
115	7
116	2
117	3
118	8
119	14
120	83
121	11
122	7
123	15
124	1
125	1
126	4
127	14
128	7
129	1
130	2
131	1
132	3
133	1
134	16
135	2
138	1
140	0
141	1
146	2
147	1
148	8
149	1
151	1
152	3
153	2
155	43
156	220
157	33
158	12
159	2
165	4
166	2
167	2
178	2
179	1
180	2
181	5
182	2
183	0
193	1
196	1
198	1
199	1
206	3
207	8
208	3
210	98
211	17
212	2
222	2
224	23
225	437
226	84
227	9
