Mass Spectrum: 5-Bromo-2,2,5-trimethyl-1,3-dioxane-4,6-dione
Formula: C7H9BrO4
CAS: 34817-42-0
Molecular weight: 236
m/z	intensity
14	2
15	22
25	3
26	29
27	137
28	55
29	32
31	12
37	1
38	2
39	14
40	3
41	17
42	30
43	999
44	45
45	15
53	9
54	12
55	26
56	148
57	13
58	24
59	93
60	3
69	3
70	1
71	2
72	8
73	16
74	2
79	7
80	13
81	7
82	13
83	36
84	2
85	2
87	2
89	2
91	1
92	2
93	6
94	2
95	5
99	6
100	10
101	13
102	1
103	1
104	1
105	7
106	96
107	32
108	112
109	25
110	18
111	1
112	2
113	1
114	13
115	1
117	4
120	24
121	47
122	25
123	47
124	1
125	1
127	2
128	6
129	6
130	1
131	1
133	5
134	631
135	54
136	624
137	49
138	3
141	4
142	2
143	53
144	4
145	4
149	4
151	9
152	12
153	9
154	12
157	1
159	3
165	1
167	3
171	8
173	14
175	8
179	9
180	2
181	9
182	2
185	2
186	1
187	3
188	1
189	2
191	1
192	23
193	5
194	23
195	4
196	1
198	1
199	11
200	3
201	23
202	2
203	11
205	1
206	4
207	7
208	5
209	7
215	3
216	2
219	1
221	114
222	8
223	113
224	8
225	2
231	1
234	1
236	1
237	1
