Mass Spectrum: 12-Oxatricyclo[4.4.3.0(1,6)]tridecane-3,11-dione
Formula: C12H16O3
CAS: 34813-12-2
Molecular weight: 208
m/z	intensity
25	3
26	59
27	490
29	400
30	24
31	39
33	4
34	4
35	5
36	6
37	14
38	81
39	981
40	283
41	690
42	368
43	242
44	48
45	50
46	9
47	10
48	13
49	5
50	95
51	282
52	242
53	464
54	150
55	672
56	62
57	55
58	15
59	12
60	4
61	3
62	3
63	9
64	4
65	19
66	18
67	41
68	38
69	75
70	25
71	31
72	10
73	10
74	29
75	34
76	16
77	485
78	196
79	999
80	261
81	254
82	76
83	55
84	25
85	19
86	14
87	17
88	6
89	34
90	17
91	626
92	145
93	722
94	357
95	202
96	83
97	47
98	27
99	8
100	3
101	7
102	18
103	54
104	40
105	221
106	114
107	626
108	652
109	238
110	45
111	62
112	62
113	11
114	9
115	45
116	15
117	58
118	40
119	93
120	113
121	226
122	328
123	322
124	95
125	49
126	13
127	18
128	13
129	18
130	10
131	44
132	26
133	41
134	62
135	180
136	199
137	129
138	208
139	179
140	34
141	11
142	4
143	8
144	18
145	32
146	30
147	30
148	39
149	94
150	159
151	72
152	83
153	104
154	29
155	16
156	12
157	10
158	3
159	3
160	5
161	12
162	82
163	107
164	83
165	34
166	25
167	22
168	3
169	4
170	4
171	3
172	12
173	6
174	5
175	10
176	5
177	5
178	11
179	34
180	300
181	39
182	5
183	4
184	3
185	3
186	3
187	3
188	4
189	5
190	58
191	11
192	4
193	46
194	9
195	2
197	2
198	2
199	4
202	2
203	2
204	1
205	4
206	3
207	6
208	397
209	63
210	6
211	3
