Mass Spectrum: Butanoic acid, 2-[(trifluoroacetyl)amino]-, butyl ester
Formula: C10H16F3NO3
CAS: 34815-09-3
Molecular weight: 255
m/z	intensity
15	23
16	3
17	3
18	9
20	8
26	19
27	240
29	538
30	22
31	33
37	20
38	34
39	145
40	45
41	999
42	72
43	43
44	26
45	22
46	2
50	9
51	12
52	2
53	13
54	19
55	82
56	132
57	323
58	30
59	32
61	1
66	1
68	6
69	212
70	14
71	1
73	3
74	3
77	4
78	25
79	4
82	1
84	60
85	2
86	55
87	10
90	2
92	3
94	7
96	10
97	9
98	18
100	2
102	39
103	6
104	1
106	2
107	11
114	15
115	2
120	2
124	2
125	3
126	109
127	6
130	4
132	1
135	3
136	5
138	6
140	41
141	1
152	4
153	35
154	821
155	202
156	11
158	3
170	5
180	14
181	1
182	9
200	9
