Mass Spectrum: Cholestan-3-one, methoxime
Formula: C28H49NO
CAS: 3481-69-4
Molecular weight: 415
m/z	intensity
41	446
42	127
43	999
44	39
45	27
53	68
54	62
55	527
56	145
57	431
58	26
65	33
66	20
67	251
68	85
69	276
70	100
71	185
72	11
73	4
77	75
78	22
79	240
80	74
81	270
82	63
83	111
84	25
85	31
86	8
87	55
91	156
92	41
93	206
94	85
95	223
96	62
97	67
98	13
99	10
100	61
101	12
103	5
104	11
105	124
106	55
107	158
108	77
109	103
110	37
111	33
112	49
113	86
114	36
115	11
116	4
117	40
118	23
119	84
120	62
121	103
122	61
123	69
124	27
125	24
126	450
127	45
128	11
129	22
130	17
131	51
132	35
133	66
134	43
135	47
136	28
137	25
138	42
139	43
140	37
141	4
143	19
144	13
145	42
146	31
147	55
148	32
149	32
150	9
151	21
152	51
153	160
154	36
155	4
157	19
158	21
159	36
160	42
161	40
162	28
163	17
164	17
165	9
166	34
169	4
171	17
172	23
173	30
174	32
175	23
176	21
178	9
185	10
186	24
187	29
188	22
189	19
190	9
192	69
193	21
194	11
199	5
200	21
201	18
202	20
203	4
207	15
208	21
213	9
214	32
215	12
216	11
228	48
229	20
230	61
231	18
232	12
233	11
234	13
242	8
244	45
245	9
246	62
247	20
259	4
260	409
261	216
262	93
263	17
270	11
274	5
275	75
276	24
302	13
330	4
368	20
384	79
385	33
386	4
400	114
401	39
414	4
415	433
416	139
417	25
