Mass Spectrum: Butanoic acid, 4-[(trifluoroacetyl)amino]-, butyl ester
Formula: C10H16F3NO3
CAS: 34815-14-0
Molecular weight: 255
m/z	intensity
15	26
16	10
17	11
18	36
20	22
26	26
27	301
29	589
30	70
31	54
33	9
37	2
38	6
39	212
40	102
41	999
42	193
43	131
44	64
45	78
46	9
47	5
50	23
51	23
53	15
54	28
55	164
56	609
57	406
58	54
59	17
60	154
61	45
64	1
66	1
67	2
68	47
69	444
70	35
73	49
74	124
75	13
76	3
78	118
79	14
82	8
84	93
85	24
86	125
87	32
88	4
90	4
92	6
94	5
96	4
97	31
98	22
101	20
102	8
103	1
104	4
106	5
107	9
108	3
112	117
113	14
114	24
116	61
118	13
126	357
127	68
129	26
130	24
132	2
136	2
138	15
139	75
140	74
141	2
142	4
152	56
153	96
154	298
155	36
164	1
180	5
181	48
182	458
183	26
186	15
200	10
255	6
