Mass Spectrum: 2-Butenoic acid, 2-methyl-, 5-(acetyloxy)-2,3,3a,4,5,7,7a,8a,8b,8c-decahydro-6,8a-dimethyl-3-methylene-2-oxooxireno[2,3]azuleno[4,5-b]furan-4-yl ester, [3aS-[3a.alpha.,4.alpha.(Z),5.beta.,7a.beta.,8a.beta.,8b.alpha.,8c.beta.]]-
Formula: C22H26O7
CAS: 34829-00-0
Molecular weight: 402
m/z	intensity
56	20
57	14
65	16
67	5
69	15
77	9
79	8
82	27
83	999
84	56
91	16
95	10
97	10
105	6
107	7
109	9
115	6
117	4
121	6
125	4
128	7
129	4
133	14
134	4
135	165
136	64
143	9
145	5
146	12
147	63
148	6
151	14
153	15
159	4
163	98
164	17
165	14
171	9
172	6
177	25
178	43
179	4
185	12
186	4
193	43
199	5
200	22
201	3
213	17
214	13
218	12
231	11
235	45
236	3
242	17
243	9
259	11
260	61
261	13
277	72
278	12
302	22
303	3
319	10
343	10
