Mass Spectrum: Hex-5-enylamine
Formula: C6H13N
CAS: 34825-70-2
Molecular weight: 99
m/z	intensity
25	0
26	11
27	113
28	123
29	65
30	999
31	55
37	5
38	12
39	213
40	29
41	147
42	72
43	119
44	89
45	138
46	5
47	0
49	1
50	9
51	16
52	8
53	41
54	94
55	39
56	629
57	38
58	4
59	0
61	1
62	2
63	3
64	0
65	8
66	4
67	91
68	10
69	5
70	79
71	7
72	0
73	3
74	0
75	1
77	4
78	1
79	10
80	2
81	24
82	100
83	8
84	12
85	1
86	0
87	0
91	1
93	0
94	0
95	0
96	2
97	1
98	7
99	9
100	2
