Mass Spectrum: Cobalt, [(1,2,5,6-.eta.)-1,5-cyclooctadiene][(1,2,3-.eta.)-2-cycloocten-1-yl]-
Formula: C16H25Co
CAS: 34829-55-5
Molecular weight: 276
m/z	intensity
26	35
27	233
28	78
29	84
30	1
31	1
32	0
38	8
39	449
40	61
41	436
42	136
43	125
44	4
50	13
51	63
52	55
53	173
54	871
55	112
56	14
57	19
58	1
59	67
60	3
61	1
62	1
63	14
64	6
65	143
66	234
67	999
68	100
69	20
70	4
71	8
72	17
73	1
74	5
75	4
76	4
77	240
78	110
79	725
80	574
81	100
82	51
83	3
84	2
85	9
86	21
87	2
89	4
90	1
91	156
92	23
93	301
94	36
95	18
96	3
98	14
99	12
100	19
101	10
102	1
103	12
104	4
105	34
106	5
107	29
108	254
109	72
110	32
111	10
112	30
113	177
114	70
115	6
116	1
117	1
119	1
122	2
123	2
124	344
125	37
126	37
127	9
128	2
135	2
136	23
137	162
138	332
139	26
140	13
141	2
148	1
149	1
150	38
151	24
152	3
153	1
154	1
160	3
161	3
162	79
163	24
164	235
165	45
166	208
167	53
168	41
169	3
174	1
176	1
178	3
179	1
180	1
189	2
190	1
192	2
202	2
204	1
206	1
207	1
216	1
218	3
229	7
230	2
231	1
232	2
234	1
240	1
241	2
242	51
243	12
244	8
245	2
255	2
256	0
257	2
266	1
267	1
268	5
269	5
270	34
271	7
272	39
273	8
274	29
275	6
276	183
277	35
278	3
