Mass Spectrum: Dodecane, 1-methoxy-
Formula: C13H28O
CAS: 3482-63-1
Molecular weight: 200
m/z	intensity
15	7
26	3
27	59
28	19
29	150
30	4
31	8
33	10
38	1
39	75
40	16
41	431
42	128
43	376
44	19
45	999
46	23
47	8
50	1
51	4
52	3
53	37
54	60
55	500
56	413
57	309
58	34
59	8
60	5
63	1
65	6
66	7
67	75
68	198
69	415
70	355
71	122
72	7
73	1
77	4
78	1
79	8
80	2
81	31
82	241
83	432
84	239
85	65
86	4
87	18
88	1
91	1
93	1
95	9
96	81
97	333
98	152
99	16
100	1
101	3
109	2
110	33
111	198
112	94
113	10
114	1
124	10
125	59
126	26
127	3
138	4
139	13
140	85
141	9
142	1
157	3
168	109
169	14
170	1
