Mass Spectrum: N-Benzoyl-L-tyrosine ethyl ester
Formula: C18H19NO4
CAS: 3483-82-7
Molecular weight: 313
m/z	intensity
15	1
26	2
27	12
28	9
29	14
30	1
31	11
38	1
39	11
40	1
41	2
42	1
43	5
44	9
45	8
46	4
50	12
51	61
52	9
53	9
54	1
55	6
56	1
57	3
62	1
63	5
64	2
65	8
66	1
67	1
69	2
71	1
73	1
74	6
75	5
76	18
77	430
78	44
79	21
80	3
81	3
83	2
85	1
89	4
90	5
91	14
92	2
93	1
94	4
95	1
97	1
101	1
102	5
103	6
104	10
105	999
106	89
107	468
108	49
109	4
116	2
117	3
118	9
119	12
120	105
121	12
122	342
123	28
124	2
131	3
132	5
133	24
134	9
135	8
136	3
139	1
145	1
146	7
147	136
148	20
149	5
151	1
156	1
161	72
162	9
163	5
164	50
165	6
174	9
175	1
177	17
178	6
189	1
190	1
191	7
192	905
193	111
194	11
195	1
206	4
207	21
208	4
220	2
221	1
222	1
223	2
238	1
239	12
240	51
241	9
265	1
267	2
268	19
269	4
278	2
313	54
314	10
315	1
