Mass Spectrum: Metiamide
Formula: C9H16N4S2
CAS: 34839-70-8
Molecular weight: 244
m/z	intensity
42	263
44	312
45	187
57	216
59	174
60	151
72	160
73	269
74	381
93	98
95	999
96	578
104	241
116	78
117	280
119	122
127	91
128	90
129	19
142	40
149	444
150	117
151	42
213	10
