Mass Spectrum: 1,4-Dithiothreitol
Formula: C4H10O2S2
CAS: 3483-12-3
Molecular weight: 154
m/z	intensity
25	1
26	16
27	135
28	21
29	95
30	7
31	77
32	7
33	15
34	13
35	65
36	2
37	3
38	2
39	20
40	10
41	38
42	59
43	318
44	761
45	231
46	73
47	544
48	122
49	54
50	7
51	6
52	2
53	3
54	10
55	48
56	5
57	76
58	48
59	999
60	91
61	304
62	14
63	34
64	6
65	1
66	2
67	0
68	1
69	7
70	0
71	7
72	6
73	80
74	13
75	11
76	133
77	879
78	44
79	40
80	3
81	1
82	1
84	3
85	65
86	57
87	11
88	130
89	663
90	37
91	33
92	32
93	19
94	4
95	1
101	6
102	614
103	374
104	46
105	18
106	11
107	34
108	4
109	0
110	5
112	0
117	2
118	15
119	5
120	65
121	3
122	3
134	0
135	0
136	55
137	2
138	5
150	0
154	122
155	9
156	12
157	0
