Mass Spectrum: 3H-Indole, 2,3,3-trimethyl-5-nitro-
Formula: C11H12N2O2
CAS: 3484-22-8
Molecular weight: 204
m/z	intensity
12	3
13	4
14	14
15	144
16	13
17	83
18	308
19	1
26	36
27	240
28	71
29	95
30	161
31	6
32	2
35	3
36	1
37	19
38	64
39	427
40	66
41	252
42	184
43	120
44	11
45	4
46	26
47	5
48	2
49	23
50	167
51	327
52	101
53	67
54	11
55	30
56	190
57	122
60	2
61	21
62	86
63	228
64	62
65	193
66	28
67	8
68	3
69	5
71	17
73	10
74	129
75	169
76	137
77	158
78	60
79	76
80	17
81	3
82	2
83	4
84	11
85	8
86	43
87	43
88	45
89	168
90	49
91	445
92	42
93	7
94	3
95	2
96	1
97	4
98	20
99	17
100	15
101	45
102	144
103	84
104	24
105	61
106	9
107	4
108	2
109	1
110	3
111	4
112	3
113	21
114	36
115	999
116	297
117	354
118	54
119	6
120	3
121	2
123	1
124	3
125	1
126	3
127	26
128	57
129	31
130	69
131	69
132	19
133	9
134	2
138	2
139	2
140	24
141	32
142	75
143	411
144	60
145	22
146	42
147	6
148	23
149	6
153	1
154	10
155	7
156	52
157	142
158	212
159	48
160	7
161	2
162	3
163	61
164	7
165	1
171	4
172	18
173	6
174	27
175	9
176	10
177	1
178	3
181	1
186	2
187	10
189	669
190	78
191	11
192	1
196	1
203	90
204	676
205	90
206	12
207	1
