Mass Spectrum: Aniline, 2-methyl-3,5-dinitro-N,N,-diacetyl-
Formula: C11H11N3O6
CAS: 3484-25-1
Molecular weight: 281
m/z	intensity
33	14
34	2
38	4
40	64
43	999
44	13
45	1
49	0
50	7
51	17
52	10
53	1
54	0
55	2
56	1
57	2
62	2
63	7
64	3
65	5
66	5
67	2
69	0
70	2
71	0
73	0
74	2
76	15
77	27
78	10
79	3
81	1
84	1
86	10
87	1
89	10
90	0
91	6
92	3
93	1
94	1
95	1
102	1
103	1
104	8
105	7
106	5
107	1
108	0
109	0
112	0
114	0
119	1
120	2
121	3
122	1
123	0
124	0
130	1
133	4
134	5
140	0
146	2
150	1
152	2
158	0
161	0
163	0
171	0
175	0
177	1
179	0
180	30
181	3
192	0
197	6
202	0
204	33
205	2
206	0
221	0
222	7
224	1
225	0
235	1
236	3
238	6
239	139
240	13
241	1
281	8
282	1
