Mass Spectrum: Thiosemicarbazide, 4-pentyl-1-(4-pyridynoyl)-
Formula: C12H18N4OS
CAS: 348629-91-4
Molecular weight: 266
m/z	intensity
34	5
38	7
39	62
40	22
41	293
42	73
43	999
44	104
45	22
47	8
50	52
51	228
52	51
53	24
54	13
55	110
56	60
57	40
58	13
59	23
60	162
61	60
62	26
63	6
64	7
65	4
66	6
67	12
68	11
69	96
70	29
71	244
72	37
73	12
74	23
75	20
76	10
78	444
79	204
80	29
81	5
82	6
83	7
84	18
86	556
87	31
88	15
89	4
90	4
91	5
94	7
95	4
96	6
97	5
98	11
100	8
101	81
102	50
103	9
104	16
106	965
107	142
108	12
111	75
112	10
113	5
115	29
116	6
118	8
119	13
120	17
121	13
122	81
123	502
124	34
128	7
129	28
130	85
131	9
132	4
137	715
138	131
139	10
143	7
144	58
145	225
146	31
147	13
160	5
162	7
163	27
179	9
180	41
215	5
233	61
234	8
266	419
267	59
268	22
