Mass Spectrum: Benzoic acid, 2-hydroxy-3,5,6-trimethyl-4-(phenylmethoxy)-, methyl ester
Formula: C18H20O4
CAS: 34874-81-2
Molecular weight: 300
m/z	intensity
39	30
40	50
41	20
43	10
44	20
51	10
53	10
55	10
63	10
64	10
65	90
66	10
67	20
77	50
78	10
79	10
83	10
89	10
90	10
91	999
92	100
93	20
107	10
121	20
149	70
150	30
176	50
177	20
178	20
208	30
241	10
268	60
269	20
300	130
301	30
