Mass Spectrum: Benzaldehyde, 2-methoxy-3,6-dimethyl-4-(phenylmethoxy)-
Formula: C17H18O3
CAS: 34883-17-5
Molecular weight: 270
m/z	intensity
32	40
39	30
41	10
51	10
63	10
65	60
77	10
91	999
92	80
179	10
270	140
271	30
