Mass Spectrum: Benzaldehyde, 2-hydroxy-6-methyl-4-(phenylmethoxy)-
Formula: C15H14O3
CAS: 34883-10-8
Molecular weight: 242
m/z	intensity
39	40
41	20
51	20
63	20
65	90
69	10
77	20
89	20
91	999
92	80
123	10
242	300
243	50
