Mass Spectrum: 2-Heptenal, 2-propyl-
Formula: C10H18O
CAS: 34880-43-8
Molecular weight: 154
m/z	intensity
26	27
27	498
28	117
29	321
30	11
31	24
32	2
37	9
38	25
39	432
40	56
41	999
42	103
43	585
44	25
45	24
50	19
51	64
52	26
53	206
54	60
55	875
56	143
57	204
58	26
59	22
62	5
63	10
64	2
65	61
66	31
67	236
68	66
69	350
70	153
71	151
72	14
74	3
77	79
78	14
79	269
80	35
81	394
82	57
83	503
84	81
85	22
86	23
87	4
91	101
92	14
93	74
94	15
95	92
96	20
97	249
98	50
99	65
100	6
101	4
105	25
107	227
108	21
109	11
110	11
111	310
112	67
113	8
121	11
123	17
124	4
125	598
126	65
127	10
136	3
139	8
142	1
153	6
154	504
155	65
156	5
