Mass Spectrum: N-Phenyl-benzamide oxime
Formula: C13H12N2O
CAS: 3488-57-1
Molecular weight: 212
m/z	intensity
39	199
41	128
42	30
43	117
50	101
51	397
52	68
59	198
63	100
64	150
65	577
66	186
76	130
77	951
78	99
92	229
93	999
94	29
103	149
104	290
105	60
180	199
181	40
194	187
195	676
196	89
211	39
212	289
213	59
