Mass Spectrum: Benzaldehyde, 2-hydroxy-3,6-dimethyl-4-(phenylmethoxy)-
Formula: C16H16O3
CAS: 34883-16-4
Molecular weight: 256
m/z	intensity
39	40
41	30
43	10
51	20
53	10
55	10
63	20
65	80
77	20
79	10
89	10
91	999
92	80
137	10
256	160
257	30
