Mass Spectrum: Phenyl benzoate oxime
Formula: C13H11NO2
CAS: 3488-54-8
Molecular weight: 213
m/z	intensity
39	197
40	20
51	400
52	30
65	160
66	250
67	29
77	858
78	60
94	999
95	81
103	98
104	20
105	289
106	39
195	119
196	389
197	50
213	200
214	19
