Mass Spectrum: Benzenemethanol, 2-hydroxy-3,6-dimethyl-4-(phenylmethoxy)-
Formula: C16H18O3
CAS: 34883-06-2
Molecular weight: 258
m/z	intensity
39	60
41	20
43	20
51	20
52	10
53	20
55	20
63	20
65	90
66	10
77	30
78	10
79	10
83	10
89	10
91	999
92	90
93	10
111	10
150	20
240	50
242	20
256	10
258	120
259	10
