Mass Spectrum: Benzene, 1-(4-fluorophenyliminomethyl)-4-nitro-
Formula: C13H9FN2O2
CAS: 3489-09-6
Molecular weight: 244
m/z	intensity
33	24
34	12
36	10
37	56
38	164
39	357
40	189
41	81
42	24
43	61
44	60
46	152
47	2
49	20
50	724
51	460
52	73
53	21
54	9
55	34
57	188
58	10
59	3
61	60
62	195
63	311
64	73
65	179
66	16
67	10
68	48
69	134
70	43
71	9
73	31
74	217
75	895
76	391
77	179
78	18
79	10
81	59
82	33
83	36
85	64
86	56
87	47
88	33
89	37
90	13
91	19
92	22
93	60
94	107
95	999
96	89
97	10
98	15
99	32
100	14
101	11
102	26
103	36
104	10
105	11
106	8
107	14
108	21
109	8
110	5
111	9
112	4
113	5
114	4
115	7
116	2
117	5
118	6
119	13
120	18
121	46
122	350
123	26
124	3
125	13
126	6
127	4
128	3
129	1
130	0
131	7
132	6
133	19
134	5
135	3
136	2
137	3
139	10
140	6
141	2
142	0
143	3
144	16
145	14
146	14
147	2
148	3
149	9
150	17
151	36
152	11
153	3
154	1
156	1
157	10
158	11
159	6
160	1
161	1
164	4
166	13
167	8
168	12
169	43
170	152
171	57
172	11
173	0
174	0
175	0
176	7
177	13
178	9
179	1
180	0
182	1
183	2
184	16
185	110
186	52
187	6
192	0
193	0
194	3
195	15
196	81
197	386
198	71
199	6
203	0
204	0
205	1
211	2
213	18
214	19
215	3
217	0
228	3
230	0
238	1
240	2
241	5
242	10
243	174
244	516
245	75
246	6
