Mass Spectrum: Benzenemethanol, 2-amino-5-methyl-
Formula: C8H11NO
CAS: 34897-84-2
Molecular weight: 137
m/z	intensity
18	37
27	53
28	73
29	37
30	19
31	29
32	13
36	11
38	20
39	92
40	15
41	38
42	17
50	26
51	64
52	59
53	52
54	27
59	27
62	17
63	53
64	20
65	122
66	41
67	23
68	28
74	5
75	11
76	18
77	184
78	56
79	58
80	26
89	58
90	30
91	490
92	214
93	221
94	40
103	12
104	56
105	5
106	194
107	56
108	76
116	13
117	35
118	999
119	788
120	224
121	56
122	12
134	14
135	23
136	18
137	756
138	65
