Mass Spectrum: Benzenesulfonyl chloride, 4-fluoro-
Formula: C6H4ClFO2S
CAS: 349-88-2
Molecular weight: 194
m/z	intensity
14	4
16	2
26	3
27	5
28	10
29	2
31	7
32	7
33	1
35	4
36	17
37	11
38	10
39	12
40	2
44	8
45	10
47	2
48	22
49	8
50	69
51	38
52	2
53	2
55	1
56	6
57	35
58	2
59	1
60	1
61	10
62	13
63	16
64	35
65	9
66	3
68	29
69	62
70	8
71	5
72	1
73	9
74	44
75	242
76	22
77	2
79	6
80	2
81	9
82	5
83	45
84	9
87	2
88	2
89	1
92	7
93	12
94	33
95	999
96	85
97	3
99	3
100	1
102	1
105	1
106	1
107	1
108	9
109	2
110	1
111	13
112	5
113	2
115	12
116	1
117	1
120	1
121	2
126	5
127	22
128	26
129	4
130	12
131	1
132	4
143	29
144	3
145	2
159	673
160	53
161	34
162	3
174	3
176	4
194	111
195	9
196	42
197	3
198	2
