Mass Spectrum: Benzeneethanamine, 3,4-dimethoxy-N-methyl-
Formula: C11H17NO2
CAS: 3490-06-0
Molecular weight: 195
m/z	intensity
15	8
26	1
27	8
28	17
29	4
30	8
38	3
39	27
40	4
41	7
42	42
43	15
44	999
45	42
50	9
51	30
52	12
53	9
54	2
55	5
56	4
57	5
58	140
59	5
62	4
63	13
64	7
65	39
66	8
67	3
68	1
69	1
74	2
75	2
76	4
77	39
78	35
79	21
80	7
81	5
82	1
89	13
90	15
91	36
92	7
93	6
94	9
95	4
102	1
103	7
104	3
105	21
106	32
107	45
108	16
109	18
110	2
117	2
118	9
119	7
120	7
121	19
122	8
123	5
131	1
132	2
133	2
134	6
135	12
136	6
137	64
138	8
139	2
146	1
147	1
148	3
149	8
150	6
151	107
152	624
153	62
154	5
162	3
163	5
164	11
165	10
166	2
178	6
179	2
192	2
193	4
194	3
195	9
196	1
