Mass Spectrum: N-(2-Iodo-phenyl)-4-methyl-3-nitro-benzenesulfonamide
Formula: C13H11IN2O4S
CAS: 349090-65-9
Molecular weight: 418
m/z	intensity
33	6
34	9
36	0
37	14
38	63
39	149
40	95
41	60
42	12
43	42
44	63
45	20
46	6
47	2
48	6
50	31
51	77
52	108
53	23
54	4
55	18
56	9
57	20
59	16
60	5
61	10
62	54
63	309
64	313
65	123
66	18
67	8
68	4
69	21
70	11
71	12
72	0
73	6
74	10
75	16
76	20
77	52
78	49
79	19
80	11
81	9
82	6
83	10
84	11
85	7
86	4
87	10
89	289
90	155
91	999
92	101
93	20
94	3
95	7
96	7
97	7
98	2
99	2
100	0
101	2
102	3
103	3
104	5
105	18
106	61
107	9
108	71
109	20
110	11
111	5
112	4
113	2
114	1
115	5
116	1
117	2
118	4
119	17
120	14
121	9
122	4
123	2
124	1
125	3
126	5
127	30
128	32
129	4
130	2
132	1
133	2
134	2
135	16
136	42
137	7
138	6
139	10
140	7
141	5
142	1
144	0
145	0
146	0
147	1
148	2
149	6
150	3
151	11
152	25
153	16
154	16
155	5
156	0
159	1
160	0
164	3
165	9
166	8
167	28
168	11
169	4
170	1
171	4
174	1
175	0
177	3
178	12
179	17
180	83
181	41
182	14
184	90
185	7
186	4
189	0
191	27
192	7
193	5
194	2
195	4
196	5
197	6
198	0
200	15
201	2
202	0
203	1
207	0
208	1
209	7
210	4
211	0
212	3
213	0
215	4
216	13
218	906
219	89
220	3
221	0
222	1
223	9
224	11
225	8
226	4
227	12
228	2
243	4
245	0
247	0
256	1
265	0
269	0
271	1
272	0
273	1
274	2
283	1
290	2
291	2
292	1
293	0
304	0
306	0
307	0
350	1
351	0
352	3
353	0
354	1
358	0
388	4
402	1
412	0
413	3
414	3
415	4
418	551
419	80
420	30
421	3
