Mass Spectrum: Methanone, (3,5-dimethyl-1-piperidinyl)(4-morpholyl)-
Formula: C12H22N2O2
CAS: 349118-92-9
Molecular weight: 226
m/z	intensity
33	24
34	15
36	5
39	168
40	34
41	456
42	589
43	223
44	95
45	59
50	8
51	23
52	6
53	39
55	993
56	402
57	210
58	50
59	11
63	5
64	5
65	21
66	22
67	35
68	61
69	256
70	591
71	80
72	15
73	4
74	1
75	2
76	1
77	23
78	16
79	10
80	6
81	23
82	35
83	137
84	82
85	48
86	496
87	124
88	49
89	3
91	14
92	8
93	7
94	7
95	38
96	82
97	213
98	193
99	26
100	12
101	4
102	2
104	1
105	14
106	8
107	13
108	29
109	15
110	24
111	118
112	999
113	222
114	365
115	28
116	3
120	2
121	1
124	38
125	19
126	35
127	16
128	4
129	15
131	2
135	3
138	9
140	679
141	78
142	12
143	41
144	3
149	14
151	2
152	16
153	36
154	15
155	16
156	3
157	16
158	3
165	2
167	114
169	280
170	58
171	53
172	7
181	40
182	22
183	83
184	12
185	4
189	5
191	1
195	636
196	102
197	12
202	3
206	1
211	71
212	10
224	1
225	13
226	289
227	35
228	1
