Mass Spectrum: 2-Pentenal, 2-ethyl-
Formula: C7H12O
CAS: 3491-57-4
Molecular weight: 112
m/z	intensity
23	1
24	1
25	6
26	48
27	526
28	330
29	444
30	13
31	12
32	2
33	0
34	0
35	3
36	3
37	21
38	37
39	461
40	72
41	858
42	318
43	572
44	88
45	10
46	1
47	1
48	1
49	6
50	50
51	78
52	40
53	163
54	53
55	999
56	111
57	39
58	52
59	3
61	3
62	9
63	16
64	3
65	37
66	16
67	105
68	60
69	197
70	48
71	240
72	12
73	1
74	4
75	5
76	2
77	62
78	19
79	115
80	13
81	37
82	22
83	198
84	45
85	5
89	0
90	1
91	28
92	13
93	11
94	13
95	70
96	8
97	363
98	24
99	1
105	4
106	15
107	2
108	9
109	7
110	27
111	33
112	288
113	23
114	1
