Mass Spectrum: Thiophene-2-carboxylic acid [1,2,4]triazol-4-ylamide
Formula: C7H6N4OS
CAS: 349127-13-5
Molecular weight: 194
m/z	intensity
33	0
36	0
37	3
38	10
39	96
40	15
41	3
42	1
43	1
44	3
45	17
46	0
47	0
48	0
49	1
50	4
51	2
52	3
53	6
54	4
55	1
56	1
57	26
58	6
59	1
60	0
63	0
64	1
65	1
66	1
67	0
69	6
70	2
71	2
72	0
73	0
75	0
76	0
77	2
78	0
79	3
80	1
81	9
82	16
83	63
84	8
85	3
86	0
88	0
90	0
91	1
92	1
93	0
94	0
95	0
96	1
97	0
98	2
99	0
102	0
103	0
104	1
105	0
106	0
107	0
108	0
109	3
111	999
112	67
113	50
114	3
115	0
117	0
118	0
119	0
121	4
122	1
123	0
124	1
125	0
126	0
127	1
128	0
129	0
130	0
131	0
133	0
134	0
135	0
137	0
139	0
141	0
143	0
144	0
145	1
146	0
147	0
149	0
151	0
152	0
153	0
155	0
156	0
157	0
161	0
162	0
163	0
167	0
170	0
171	0
173	0
176	0
186	0
187	0
189	0
191	0
192	0
193	1
194	50
195	4
196	2
197	0
