Mass Spectrum: 1,1,1,5,7,7,7-Heptamethyl-3,3,5-tris(trimethylsiloxy)tetrasiloxane
Formula: C16H48O6Si7
CAS: 34915-06-5
Molecular weight: 532
m/z	intensity
45	80
59	80
73	999
74	150
75	80
133	60
147	270
148	100
207	150
221	270
222	100
325	150
341	260
342	100
343	60
355	170
429	110
517	240
518	120
519	80
