Mass Spectrum: Ethanamine, N-ethyl-N-[(ethylthio)methyl]-
Formula: C7H17NS
CAS: 3492-79-3
Molecular weight: 147
m/z	intensity
41	40
42	250
43	30
44	50
45	50
46	10
47	120
54	30
55	20
56	90
57	30
58	200
59	10
61	10
62	50
70	70
71	10
72	10
75	50
84	10
85	40
86	999
87	60
