Mass Spectrum: 4,5-Dimethyl-2-pyrimidone
Formula: C6H8N2O
CAS: 34939-17-8
Molecular weight: 124
m/z	intensity
40	110
41	115
42	385
43	110
44	90
50	50
51	80
52	120
53	155
54	225
55	420
56	90
68	65
69	360
80	80
81	80
82	100
95	140
96	340
109	230
123	135
124	999
125	90
