Mass Spectrum: N-Benzyl-N-ethyl-2-nitro-benzenesulfonamide
Formula: C15H16N2O4S
CAS: 349397-36-0
Molecular weight: 320
m/z	intensity
33	0
34	1
35	0
36	3
37	3
38	14
39	77
40	18
41	22
42	27
44	141
45	6
46	2
48	4
50	66
51	95
52	24
53	17
54	4
55	9
56	35
57	3
58	6
59	0
61	1
62	6
63	42
64	43
65	137
66	10
67	2
68	1
69	5
70	4
71	1
72	0
74	13
75	13
76	39
77	96
78	45
79	38
80	7
81	1
82	1
83	0
84	0
85	0
86	0
87	0
89	23
91	999
92	120
93	17
94	8
95	3
96	3
97	1
98	1
99	0
100	0
101	0
102	1
104	59
105	34
106	34
107	28
108	10
109	2
110	0
111	0
112	0
113	1
114	0
115	2
116	1
118	146
119	13
120	5
121	0
122	1
123	4
124	0
125	0
126	0
127	1
128	1
129	0
130	2
132	166
133	81
134	134
135	15
136	0
137	0
138	0
139	2
140	1
141	1
142	0
143	0
145	0
146	0
147	0
148	1
149	1
150	9
151	2
152	4
153	1
154	1
155	0
156	1
157	0
158	0
160	0
161	0
163	0
164	0
165	5
166	4
167	2
168	3
170	21
171	7
172	1
173	0
174	0
178	0
179	1
180	4
181	2
182	2
183	1
184	1
186	50
187	6
188	2
189	0
193	0
194	0
195	1
196	11
197	59
198	6
199	3
200	0
201	0
202	0
208	3
209	0
210	0
211	0
212	0
213	1
214	1
215	0
226	0
229	2
230	0
231	0
239	8
240	1
243	0
244	0
246	0
258	2
259	1
260	5
261	0
262	0
272	0
273	0
276	0
286	0
290	0
303	33
304	5
305	7
306	1
307	0
320	3
321	0
