Mass Spectrum: 6-[(4,6-Dimethyl-2-pyrimidinyl)thio]tetrazolo[1,5-b]pyridazine
Formula: C10H9N7S
CAS: 349489-22-1
Molecular weight: 259
m/z	intensity
34	2
36	5
37	132
38	133
39	342
40	155
41	46
42	129
43	20
44	29
45	230
46	16
47	16
48	4
49	2
50	14
51	68
52	99
53	97
54	19
55	17
57	28
58	37
59	18
60	8
62	2
63	45
64	117
65	53
66	227
67	999
69	171
70	91
71	42
72	92
74	13
76	11
78	9
79	26
80	71
81	88
82	33
83	33
84	54
85	7
87	7
90	1
91	19
92	7
93	65
94	76
96	604
97	45
98	52
99	6
101	5
104	3
105	20
106	4
107	567
108	180
109	15
110	2
111	0
112	7
117	1
118	14
122	7
123	3
124	29
125	27
127	2
129	4
130	1
132	5
133	47
134	7
135	2
137	18
138	1
139	16
140	8
142	2
143	13
144	4
145	28
147	2
149	8
151	2
152	10
156	6
157	7
158	43
159	25
160	2
161	13
162	6
163	9
165	2
168	4
169	11
170	577
171	127
172	19
175	116
176	118
177	42
178	11
188	32
189	4
194	5
202	207
203	151
204	51
205	5
217	2
259	31
