Mass Spectrum: 1, 2, 4-Triazole, 5-(2-chlorophenylaminosulfonyl)-
Formula: C8H7ClN4O2S
CAS: 349497-98-9
Molecular weight: 258
m/z	intensity
33	22
35	34
36	29
37	102
38	285
39	520
40	38
41	387
42	330
43	45
44	54
45	48
46	82
47	27
48	238
49	65
50	89
51	109
52	188
53	37
54	15
55	26
57	28
59	10
60	28
61	82
62	172
63	601
64	370
65	186
66	20
67	19
68	33
69	137
70	29
71	24
72	33
73	327
74	45
75	170
76	42
77	49
78	27
79	4
80	7
81	0
83	33
84	8
85	10
86	10
88	50
89	64
90	328
91	170
92	28
95	1
97	18
98	46
99	999
100	68
101	314
102	34
103	13
104	21
105	34
106	5
107	3
108	6
110	9
111	18
112	1
113	1
116	1
117	15
124	8
125	80
126	370
127	69
128	110
129	11
130	1
132	260
133	11
134	4
136	1
138	12
140	1
152	8
158	8
159	50
160	9
165	3
177	1
194	2
221	1
222	1
223	337
224	26
225	8
258	37
260	11
