Mass Spectrum: 2,4-Pentadienoic acid, 2-acetyl-4-methyl-5-(2-furyl)-, methyl ester
Formula: C13H14O4
CAS: 349496-09-9
Molecular weight: 234
m/z	intensity
33	1
34	0
36	0
37	9
38	36
39	173
40	24
41	39
42	54
43	999
44	30
45	18
46	1
49	2
50	79
51	210
52	92
53	123
54	11
55	36
56	2
57	3
58	2
59	95
60	2
61	7
62	29
63	96
64	26
65	69
66	19
67	16
68	9
69	10
70	1
71	2
72	1
73	3
74	25
75	35
76	37
77	326
78	172
79	75
80	11
81	47
82	5
83	6
84	1
85	5
86	8
87	13
88	5
89	34
90	12
91	114
92	26
93	18
94	18
95	17
96	3
97	3
98	4
99	2
100	0
101	13
102	48
103	218
104	84
105	116
106	27
107	11
108	9
109	4
110	1
111	10
112	1
113	1
114	2
115	45
116	12
117	45
118	25
119	78
120	19
121	29
122	12
123	12
124	1
125	2
126	1
127	7
128	15
129	16
130	8
131	321
132	132
133	53
134	10
135	13
136	3
137	1
138	1
139	18
140	1
141	0
142	1
143	3
144	2
145	65
146	32
147	25
148	15
149	7
150	1
151	4
152	0
153	20
154	4
155	3
156	7
157	9
158	5
159	167
160	33
161	22
162	4
163	11
164	2
165	1
166	2
167	3
168	0
169	0
171	1
172	0
173	39
174	102
175	96
176	20
177	9
178	1
179	0
180	4
181	0
182	0
183	0
184	3
185	8
186	2
187	317
188	41
189	9
190	2
191	23
192	4
193	0
194	0
200	0
201	10
202	25
203	45
204	7
205	4
206	1
207	0
216	0
217	2
218	2
219	197
220	27
221	3
222	0
232	0
233	4
234	280
235	40
236	5
237	0
