Mass Spectrum: Fluorene-2,7-diacetyl, 9-(4-diethylaminobenzylideno)-
Formula: C28H27NO2
CAS: 349489-32-3
Molecular weight: 409
m/z	intensity
34	12
36	7
38	6
40	257
41	36
43	999
44	84
45	4
50	3
51	7
52	1
53	3
55	22
56	12
57	15
58	4
60	1
62	0
63	5
65	1
67	1
68	0
69	8
70	5
71	5
72	1
73	6
74	1
75	1
76	1
77	4
78	1
79	2
80	4
81	3
82	6
83	3
84	2
85	2
87	1
89	0
91	1
93	0
97	1
98	1
99	5
100	1
101	0
104	0
105	1
106	1
110	0
112	11
113	7
118	4
119	10
120	1
121	1
125	84
126	14
131	3
132	18
133	3
134	0
137	1
138	4
139	10
140	11
146	15
147	4
149	1
150	3
151	0
152	1
154	82
161	14
162	4
163	4
164	0
165	2
166	0
168	14
171	0
175	90
177	1
178	0
183	4
187	2
189	221
192	0
194	0
197	7
199	0
200	1
205	41
206	1
211	0
213	0
222	0
223	0
224	9
225	4
226	2
235	7
236	1
237	6
238	3
239	10
240	1
248	21
249	27
250	111
251	69
252	79
253	24
254	7
261	3
262	3
263	19
264	15
265	16
266	5
267	1
275	0
276	6
277	8
278	17
279	27
280	24
282	87
283	14
291	1
292	3
293	7
294	7
295	3
296	3
306	1
307	4
308	4
309	2
310	1
322	2
323	11
324	2
338	0
350	28
351	7
364	0
365	3
366	1
379	0
380	1
381	3
390	1
391	3
394	419
395	83
396	16
401	0
403	2
404	0
405	3
407	8
408	30
409	305
410	96
411	11
416	0
418	0
