Mass Spectrum: Furazano[3,4-b]pyrazine, 5-methylamino-6-(2,5-dimethylphenyl)amino-
Formula: C13H14N6O
CAS: 349488-62-6
Molecular weight: 270
m/z	intensity
33	6
34	6
36	2
37	3
38	18
39	131
40	118
41	69
42	208
43	48
44	28
45	5
50	33
51	107
52	52
53	155
54	19
55	60
56	34
57	95
58	8
59	4
60	2
61	1
62	11
63	52
64	23
65	77
67	999
68	80
69	39
70	7
71	7
72	2
73	3
74	6
75	14
76	30
77	341
78	107
79	205
80	22
81	9
82	106
83	25
84	33
85	10
86	7
87	3
88	4
89	44
90	22
91	89
92	30
93	22
94	11
95	6
96	1
97	2
98	6
99	12
100	3
101	10
102	31
103	168
104	59
105	189
106	50
107	14
109	67
110	6
111	2
113	22
114	2
115	9
116	59
117	58
118	97
119	29
120	59
121	52
122	11
123	1
124	0
125	1
128	18
129	15
130	256
131	77
132	121
133	32
134	15
135	14
136	2
137	3
138	46
139	9
140	4
141	5
142	13
143	13
144	15
145	48
146	21
147	39
148	4
149	5
150	1
151	2
152	0
153	1
154	1
155	13
156	17
157	86
158	18
159	9
160	8
161	5
162	2
163	0
165	4
167	2
168	3
169	8
170	29
171	37
172	51
173	8
174	1
175	0
180	0
181	2
182	8
183	7
184	15
185	6
186	13
187	3
188	2
195	2
196	8
197	9
198	51
199	28
200	4
208	3
209	5
210	8
211	6
212	4
213	40
214	6
222	2
223	17
224	14
225	16
226	4
227	2
228	0
238	5
239	3
240	39
241	7
242	1
253	2
255	59
256	8
270	214
271	34
272	1
