Mass Spectrum: Galactopyranoside, D-erythro-2,3-dihydroxy-1-(1-phenyl-1H-pyrazolo[3,4-b]quinoxalin-3-yl)propyl, hexaacetate (ester), .beta.-D-
Formula: C36H38N4O14
CAS: 34948-23-7
Molecular weight: 750
m/z	intensity
41	7
42	11
43	999
44	26
45	11
51	3
55	3
57	19
60	3
69	3
73	7
77	23
81	19
85	7
97	26
103	19
109	223
110	7
115	23
127	61
139	11
145	38
169	538
170	53
171	7
185	7
187	7
211	23
219	3
220	11
229	19
245	26
246	7
247	7
257	15
258	3
259	3
260	7
261	7
271	30
272	7
273	53
274	23
275	46
276	11
285	30
286	3
287	26
288	26
289	30
300	3
301	134
302	57
303	23
317	11
318	3
319	3
329	3
331	280
332	46
333	3
343	30
344	42
345	11
358	3
359	3
360	7
361	7
403	69
404	15
418	25
419	27
420	7
421	0
452	0
454	0
480	0
481	0
482	0
603	0
604	0
606	0
607	0
635	0
647	0
648	0
649	0
707	0
708	0
709	0
750	55
751	25
752	14
753	6
