Mass Spectrum: 4-(2,7-Diacetylfluoren-9-ylidenemethyl)phenol
Formula: C24H18O3
CAS: 349489-31-2
Molecular weight: 354
m/z	intensity
34	17
36	29
38	10
39	26
40	278
43	999
44	131
45	17
46	1
50	7
51	13
52	1
53	3
54	0
55	18
56	6
57	8
58	1
59	5
60	1
63	15
64	0
65	2
67	0
69	3
70	3
71	2
72	0
73	17
74	9
75	7
76	0
77	5
79	1
81	0
82	0
83	3
84	2
85	2
86	3
87	8
88	1
89	2
91	0
93	10
98	3
99	7
100	5
101	1
105	11
106	23
107	2
110	2
111	5
112	13
113	13
118	35
119	76
120	55
121	2
122	1
123	0
125	65
131	6
132	8
133	5
134	38
137	0
138	0
139	16
146	0
148	3
149	0
150	4
151	0
153	1
162	79
163	12
165	1
170	34
177	12
178	0
185	0
186	0
187	10
188	1
189	3
199	0
200	3
206	0
211	12
212	4
213	16
214	2
222	0
223	0
224	6
225	1
226	5
235	13
236	11
237	72
238	42
239	176
240	44
241	6
248	9
249	14
250	32
251	24
252	17
253	1
263	2
264	4
265	2
266	8
267	18
268	92
269	36
270	4
279	0
281	4
282	1
293	2
296	52
297	9
310	4
311	10
312	1
321	1
337	4
339	397
340	87
341	7
351	3
352	10
354	557
355	126
356	14
