Mass Spectrum: Pyridine-4-carbohydrazide, N2-(3,4-dimethoxy-6-nitrobenzylideno)-
Formula: C15H14N4O5
CAS: 349463-50-9
Molecular weight: 330
m/z	intensity
33	6
34	1
36	1
37	12
38	35
39	77
40	34
41	46
42	38
43	47
44	31
45	14
46	1
47	1
50	174
51	502
52	102
53	89
54	23
55	48
56	155
57	42
58	21
59	17
61	14
62	50
63	132
64	58
65	65
66	57
67	29
68	34
69	42
70	13
71	9
72	2
73	4
74	19
75	38
76	56
78	999
79	205
80	46
81	25
82	35
83	19
84	15
86	8
87	5
88	10
89	12
90	33
91	40
92	68
93	70
94	48
95	39
96	8
97	5
98	3
99	2
100	2
101	5
102	8
103	11
104	43
106	854
107	106
108	111
109	58
110	28
111	5
112	5
113	4
114	1
115	3
116	3
117	11
118	9
119	57
120	63
121	37
122	45
123	27
124	17
125	46
126	4
127	2
128	2
129	3
130	3
131	4
132	10
133	9
134	18
135	61
136	244
137	33
138	14
139	7
140	4
141	3
142	1
143	2
144	1
145	3
146	4
147	9
148	19
149	15
150	70
151	40
152	31
153	12
154	3
155	1
156	1
157	2
158	1
159	1
160	2
161	3
162	31
163	22
164	82
165	28
166	8
168	92
169	11
170	2
171	12
172	2
173	3
174	3
175	2
176	2
178	102
179	19
180	15
181	6
182	2
183	1
184	1
185	1
187	1
188	2
189	4
190	5
192	10
193	4
194	24
195	20
196	27
197	5
198	1
199	2
200	1
201	2
202	12
203	7
204	2
206	15
208	714
209	77
210	10
211	3
212	2
213	3
214	1
215	1
216	4
217	3
218	1
220	0
223	0
224	1
225	3
226	2
227	1
228	2
229	1
230	2
231	1
232	2
233	0
237	0
239	0
240	3
241	8
242	2
243	1
244	3
245	1
246	1
252	1
253	0
254	0
255	1
256	3
257	2
258	2
260	0
266	0
267	0
268	1
269	12
270	2
281	0
282	2
283	8
284	81
285	16
286	3
287	0
288	0
292	0
294	0
298	2
299	0
300	5
301	2
306	0
313	38
314	6
315	1
330	41
331	8
332	1
334	1
335	1
