Mass Spectrum: Furazan-3-carboximidohydrazide , 4-amino-N2-benzylidene-
Formula: C10H10N6O
CAS: 349489-05-0
Molecular weight: 230
m/z	intensity
33	9
34	5
37	24
38	71
39	184
40	149
41	64
42	136
43	294
44	68
45	12
50	231
51	444
52	95
53	185
54	121
55	232
56	30
57	15
58	13
59	4
60	2
61	16
62	63
63	151
64	93
65	83
66	30
67	44
68	45
69	129
70	437
71	21
72	2
73	11
74	29
75	53
76	206
77	999
78	125
79	29
80	3
81	9
82	17
83	9
84	11
85	6
86	31
89	457
90	500
91	95
92	45
93	15
94	15
95	87
96	13
97	16
98	72
99	4
100	8
101	3
102	33
103	171
104	813
105	111
106	30
107	3
108	1
109	6
110	4
111	19
112	2
113	0
115	4
116	26
117	66
118	83
119	71
120	8
121	1
123	79
124	2
127	36
128	29
129	23
130	45
131	13
132	2
133	1
135	0
142	3
143	7
144	14
145	21
146	42
147	3
149	2
152	65
153	255
154	15
155	6
156	33
157	3
158	3
159	1
170	6
171	37
173	758
174	58
175	0
183	4
184	1
185	2
187	2
199	16
200	28
201	0
213	0
214	18
215	0
229	233
230	662
231	78
232	3
