Mass Spectrum: 3-Hepten-1-ol, acetate
Formula: C9H16O2
CAS: 34942-91-1
Molecular weight: 156
m/z	intensity
26	10
27	110
29	90
39	100
41	160
42	40
43	999
51	10
53	30
54	450
55	140
67	170
68	40
73	20
79	20
81	200
82	20
95	20
96	160
97	10
