Mass Spectrum: Benzenesulfonamide, 2,4,6-trimethyl-N-benzyl-N-(2-hydroxyethyl)-
Formula: C18H23NO3S
CAS: 349402-54-6
Molecular weight: 333
m/z	intensity
33	0
34	1
35	0
36	3
38	2
39	22
41	58
42	27
43	7
44	24
45	17
46	0
47	0
48	1
50	4
51	15
52	5
53	9
54	2
55	2
56	9
58	38
59	2
60	1
62	3
63	7
64	5
65	55
66	4
67	2
68	0
69	0
70	3
71	2
72	4
73	0
74	2
75	1
77	55
78	17
79	29
80	2
81	0
82	0
83	0
84	1
86	139
87	8
89	16
91	999
92	76
93	12
94	1
95	0
97	0
98	0
100	11
101	36
102	9
103	29
104	27
105	30
106	39
107	6
108	0
109	0
111	0
113	0
115	19
116	8
117	50
118	80
119	676
120	114
121	9
122	1
123	0
124	0
127	0
128	0
129	0
130	1
131	3
132	8
133	5
134	11
135	7
136	1
137	1
138	0
139	3
140	0
141	0
143	0
144	0
145	1
146	4
147	1
148	3
150	92
151	10
152	1
153	0
155	0
156	1
158	0
160	1
161	0
162	0
163	1
164	2
165	11
166	3
167	4
168	2
169	0
170	0
171	0
174	0
175	1
176	0
177	0
178	1
179	3
180	2
181	6
183	168
184	19
185	9
186	0
190	1
191	0
192	1
193	5
194	2
195	1
196	3
197	2
198	0
200	4
201	0
202	0
204	0
207	2
208	5
209	6
210	6
211	0
212	0
213	0
218	0
221	0
222	0
224	3
225	1
226	0
227	0
236	0
237	0
238	2
239	0
241	0
242	0
243	0
244	0
247	0
251	1
252	0
254	0
255	0
256	1
257	0
261	0
266	0
272	0
273	5
274	0
275	0
288	0
289	0
290	1
292	0
293	0
298	2
302	333
303	59
304	21
305	3
306	0
316	0
318	0
320	0
321	0
329	0
330	0
332	33
333	32
334	7
335	2
336	0
