Mass Spectrum: N-tert-Butyl-4-(indolin-1-yl)-4-oxobutyramide
Formula: C16H22N2O2
CAS: 349489-00-5
Molecular weight: 274
m/z	intensity
33	2
34	1
36	2
37	2
38	15
39	70
40	78
41	158
42	66
43	33
44	88
45	9
50	9
51	18
52	7
53	8
54	34
55	151
56	65
57	243
58	115
59	5
60	0
62	5
63	22
64	17
65	41
66	2
67	0
69	2
70	4
72	78
73	7
74	1
75	1
76	7
77	31
78	5
79	1
82	33
83	2
84	3
85	0
88	5
89	43
90	52
91	98
92	8
93	0
95	0
97	0
100	999
101	50
102	5
103	6
104	2
105	0
112	1
115	4
117	151
118	389
119	977
120	113
121	3
127	6
128	35
129	13
130	15
131	2
132	6
133	2
140	4
143	0
144	1
146	20
147	1
156	82
157	7
160	0
171	0
172	4
173	10
174	18
175	0
200	1
201	7
202	48
203	4
274	15
275	0
