Mass Spectrum: Benzamide, 2-chloro-5-(3-methylbenzoylamino)-
Formula: C15H13ClN2O2
CAS: 349489-17-4
Molecular weight: 288
m/z	intensity
33	33
34	0
35	2
36	16
37	6
38	21
39	91
40	18
41	27
42	4
43	7
44	101
47	0
49	2
50	14
51	27
52	11
53	5
54	1
55	1
56	0
57	1
58	0
59	2
60	1
61	5
62	26
63	74
64	24
65	184
66	11
67	1
68	0
69	1
70	0
71	0
72	1
73	7
74	6
75	10
76	5
77	8
78	5
79	3
80	1
81	0
82	0
83	0
84	1
85	1
86	2
87	3
88	5
89	53
90	54
91	469
92	38
93	3
95	0
96	0
97	3
98	3
99	9
100	3
101	3
102	1
103	0
104	1
105	9
106	3
107	1
108	0
109	1
110	1
111	1
112	1
113	1
114	3
115	1
116	3
117	2
118	16
119	999
120	95
121	7
122	0
123	0
124	6
125	10
126	7
127	4
128	2
129	0
130	0
133	9
134	1
135	3
136	6
137	1
138	0
139	1
140	0
141	0
142	1
144	0
150	0
151	1
152	2
153	4
154	2
155	1
156	0
157	0
160	0
161	0
163	0
164	0
165	0
166	1
167	0
168	0
169	2
170	2
171	1
172	0
177	0
178	0
179	0
180	2
181	1
182	0
188	0
189	0
191	0
195	0
205	0
207	0
208	0
209	0
214	0
215	0
220	0
242	0
243	0
244	0
245	0
246	0
247	0
253	0
254	6
255	1
256	2
257	0
270	2
271	0
272	1
273	0
274	0
288	31
289	5
290	10
291	2
292	0
