Mass Spectrum: 4H-Pyran-3-carboxamide, 6-amino-4,4,5-tricyano-2-methyl-N-phenyl-
Formula: C16H11N5O2
CAS: 349498-12-0
Molecular weight: 305
m/z	intensity
33	2
35	4
36	20
37	27
38	85
39	237
40	80
41	99
42	130
43	381
44	89
45	50
46	2
50	62
51	127
52	62
53	20
54	11
55	8
56	1
57	3
58	5
60	11
61	13
62	30
63	94
64	149
65	421
66	146
67	34
68	5
69	5
70	4
71	2
72	0
74	19
75	24
76	80
77	310
78	65
79	19
80	11
81	4
82	9
83	2
84	1
86	5
87	8
88	23
89	25
91	255
92	419
93	999
94	341
95	23
96	2
97	3
98	1
100	39
101	25
102	17
103	17
104	21
105	12
106	13
107	2
108	2
109	2
110	3
111	2
112	5
113	7
114	17
115	28
116	24
117	21
119	258
120	90
121	10
122	4
123	2
124	2
125	4
126	20
127	19
128	15
129	16
130	12
131	10
132	27
133	4
134	1
135	1
137	0
138	1
139	4
140	13
141	25
142	22
143	19
144	16
145	17
146	2
147	0
148	2
149	13
150	0
151	1
152	4
153	8
154	6
155	5
156	6
157	7
158	10
159	65
160	7
161	1
163	1
164	3
165	4
166	4
167	17
168	53
169	18
170	53
171	19
172	3
177	2
178	1
179	4
180	6
181	4
183	13
184	10
185	25
186	131
187	15
188	3
189	1
190	3
191	8
192	8
194	91
195	24
196	27
197	32
198	8
199	1
201	0
203	2
204	4
205	4
206	5
207	4
208	4
209	5
210	6
211	2
212	2
213	2
215	1
216	3
217	20
218	24
219	20
220	11
221	3
222	3
223	5
224	5
225	4
226	0
228	0
229	3
231	14
232	17
233	19
234	26
235	19
236	4
237	1
238	0
239	2
240	10
241	15
242	8
243	15
244	54
245	13
246	8
247	3
248	1
249	0
253	0
255	2
256	1
257	3
258	33
259	35
260	31
261	25
262	15
263	7
264	1
268	0
269	5
270	15
271	7
272	27
273	5
277	0
278	1
282	0
283	6
284	5
287	468
288	85
289	29
290	25
291	3
302	0
303	2
305	57
306	11
307	0
