Mass Spectrum: N-(2-Phthalimidoethyl)benzamide
Formula: C17H14N2O3
CAS: 349489-19-6
Molecular weight: 294
m/z	intensity
38	19
39	28
40	33
41	13
42	20
43	22
44	33
45	4
46	0
47	11
48	6
49	8
50	128
51	221
52	19
53	7
54	0
55	4
56	11
57	10
58	2
60	1
61	1
62	5
63	8
64	5
65	6
66	3
67	0
69	2
70	3
71	1
72	0
73	4
74	34
75	45
76	137
77	571
78	48
79	5
80	2
81	0
82	2
83	22
84	2
85	15
86	0
87	2
88	0
89	6
90	7
91	7
92	2
93	0
97	0
99	0
101	0
102	14
103	13
104	103
105	999
106	83
107	4
108	1
111	0
114	0
115	0
116	3
117	26
118	6
119	6
120	2
121	2
122	4
123	0
128	1
129	5
130	19
131	2
132	18
133	42
134	78
135	16
136	0
139	1
140	0
141	0
144	1
145	8
146	41
147	59
148	10
149	4
151	1
152	1
153	0
160	138
161	38
162	3
163	0
167	0
171	11
173	414
174	48
175	5
188	0
189	39
190	4
207	0
277	17
278	3
294	21
295	4
296	0
