Mass Spectrum: Benzoic acid, 4-(2-furoylamino)-, hepthyl ester
Formula: C19H23NO4
CAS: 349488-71-7
Molecular weight: 329
m/z	intensity
34	7
37	5
38	22
39	153
40	110
41	141
42	34
43	81
44	46
51	9
52	1
53	9
54	3
55	80
56	28
57	35
63	18
64	24
65	32
66	9
67	37
68	9
69	22
70	22
71	2
76	2
77	3
81	2
90	13
91	26
92	14
93	16
95	999
96	61
97	6
98	1
103	2
118	5
119	137
120	28
121	107
122	9
129	5
130	4
138	4
146	7
186	6
203	7
214	55
215	7
231	227
232	52
233	5
329	9
