Mass Spectrum: Butanamide, 3-(2-methylpropinonylhydrazono)-N-ethyl-
Formula: C10H19N3O2
CAS: 349497-76-3
Molecular weight: 213
m/z	intensity
33	11
34	2
35	2
36	8
37	10
39	304
40	119
41	513
42	231
43	999
44	312
46	266
47	6
50	10
51	14
52	14
53	14
54	46
55	67
56	74
57	70
58	40
59	8
60	2
61	1
62	2
63	5
64	4
65	9
66	8
67	14
68	17
69	46
70	80
71	234
72	443
73	37
74	3
75	2
76	4
77	19
78	8
79	5
80	3
81	4
82	9
83	12
84	33
85	11
86	33
87	50
88	4
89	3
90	1
91	7
92	4
93	6
94	7
95	4
97	42
98	154
99	116
100	12
101	19
102	2
104	6
105	4
106	11
107	5
108	3
109	3
110	16
111	8
112	14
113	5
114	2
115	2
116	2
117	0
118	0
119	1
120	2
121	2
122	9
123	3
124	9
125	60
126	62
127	347
128	26
129	3
130	0
131	0
132	1
133	1
134	2
135	1
136	2
137	5
138	2
139	1
140	6
141	16
142	12
143	18
144	5
145	0
147	1
148	5
149	5
150	1
151	0
152	8
153	2
154	0
155	0
157	0
162	0
163	8
164	3
165	1
166	1
167	3
168	16
169	10
170	44
171	8
172	1
176	0
177	0
180	0
181	0
183	0
190	0
193	0
194	0
195	1
196	1
197	1
198	16
199	1
208	4
209	0
212	0
213	21
214	3
215	0
