Mass Spectrum: N-(3-Pyridylmethyl)-2-thiophenecarboxamide
Formula: C11H10N2OS
CAS: 349404-47-3
Molecular weight: 218
m/z	intensity
37	88
39	89
41	38
43	37
45	181
47	6
49	37
50	133
51	304
52	137
53	112
54	23
55	21
57	187
58	44
59	8
60	5
61	7
62	24
63	90
65	208
66	18
67	15
69	32
70	11
71	9
72	3
73	1
75	17
76	24
77	23
78	115
79	90
80	95
81	51
82	61
83	178
84	83
85	27
86	4
87	2
89	2
90	3
91	17
92	81
93	11
94	2
95	3
96	2
97	6
98	3
99	1
102	2
103	6
105	55
107	297
108	33
111	999
113	90
114	2
115	1
117	3
119	1
121	1
123	1
124	1
128	1
129	1
130	3
133	2
134	3
135	7
136	1
140	1
141	1
145	2
149	2
155	1
156	1
157	4
161	1
162	1
168	1
171	1
173	9
174	6
175	1
183	1
184	3
185	13
186	2
189	2
198	2
199	4
201	42
202	3
203	2
218	169
219	21
220	8
