Mass Spectrum: Toluene-4-sulfonamide, 2-nitro-N-(3-pyridyl)-
Formula: C12H11N3O4S
CAS: 349489-09-4
Molecular weight: 293
m/z	intensity
33	9
34	5
35	5
36	30
37	50
38	276
39	727
40	215
41	67
42	19
43	44
44	52
45	14
46	1
48	8
49	6
50	51
51	99
52	80
53	45
54	8
55	15
56	5
57	11
58	1
59	0
60	2
61	9
62	54
63	174
64	123
65	180
66	332
67	51
68	5
69	14
70	7
71	6
73	1
74	11
75	14
76	19
77	64
78	56
79	45
80	22
81	13
82	1
83	3
84	3
85	1
86	3
87	11
88	50
89	345
90	119
91	71
92	188
93	999
94	149
95	14
96	1
97	1
103	1
104	6
105	24
106	85
107	10
108	8
109	7
110	1
111	1
112	1
113	1
115	1
119	31
120	9
121	5
122	0
126	0
127	3
128	6
129	3
135	38
136	241
137	17
138	1
139	2
140	2
141	1
142	0
149	4
153	1
154	5
155	5
156	3
157	1
166	0
167	5
168	7
169	1
170	2
171	3
173	4
175	1
179	0
180	1
181	15
182	19
183	11
184	5
185	0
198	0
199	19
200	229
201	18
202	11
212	102
213	12
214	28
215	0
228	16
229	5
263	4
276	1
292	60
293	363
294	63
295	19
