Mass Spectrum: N-Benzyl-N-ethyl-2-phenyl-2-phenylsulfanyl-acetamide
Formula: C23H23NOS
CAS: 349421-41-6
Molecular weight: 361
m/z	intensity
38	2
39	18
40	19
41	5
42	2
44	8
45	6
50	7
51	20
52	3
53	0
55	2
56	4
57	4
58	31
59	1
62	2
63	14
64	7
65	81
66	12
69	14
70	1
71	2
72	1
74	2
75	2
76	4
77	53
78	13
79	16
80	0
81	1
82	6
83	5
84	7
86	0
89	64
90	121
91	999
92	75
93	3
95	0
97	2
100	2
101	0
102	1
103	11
104	21
105	25
106	19
107	3
108	14
109	156
110	65
111	11
112	2
115	11
116	5
117	12
118	98
119	17
120	12
121	63
122	6
123	3
126	0
127	1
128	3
129	2
130	1
131	2
132	13
133	8
134	137
135	16
136	0
139	2
141	4
144	0
145	3
146	10
147	2
149	1
151	2
152	20
153	8
154	3
155	3
160	2
162	179
163	22
164	9
165	130
166	76
167	130
168	17
169	1
171	6
172	0
174	1
176	1
177	1
178	9
179	16
180	10
181	25
182	3
184	27
185	4
186	1
190	0
193	0
194	1
195	1
197	97
199	661
200	100
201	33
202	4
210	0
218	0
222	0
224	51
225	7
226	1
227	0
251	17
252	136
253	37
254	3
255	0
267	0
284	0
361	67
362	15
363	4
364	0
