Mass Spectrum: Propionic acid, 4-(benzyloxycarbonylamino)phenyl ester
Formula: C17H17NO4
CAS: 349488-65-9
Molecular weight: 299
m/z	intensity
33	1
34	0
37	3
38	10
39	39
40	12
41	12
42	1
43	3
44	8
45	7
49	2
50	12
51	23
52	9
53	5
54	1
55	1
56	0
57	0
60	0
61	2
62	7
63	29
64	24
65	87
66	7
67	1
68	0
69	3
70	0
71	0
73	0
74	2
75	3
76	4
77	24
78	6
79	22
80	3
81	3
82	0
83	0
86	0
87	0
88	0
89	15
91	999
92	82
93	6
94	0
95	0
96	0
97	0
98	0
100	0
102	0
103	2
104	1
105	3
106	2
107	12
108	20
109	1
113	0
117	0
118	9
119	9
120	12
121	2
122	0
127	1
128	0
129	0
131	0
132	0
133	0
134	0
136	3
137	1
146	40
147	6
148	1
149	0
150	0
152	0
153	0
154	0
155	0
163	10
164	5
165	3
166	0
167	0
168	0
173	0
174	1
175	0
176	0
178	2
179	0
180	0
181	0
182	0
183	0
190	0
191	5
192	1
210	5
211	1
225	1
226	1
227	1
245	0
254	7
255	15
256	2
268	0
299	11
300	2
