Mass Spectrum: Ethene-1,1,2-tricarbonitrile, 2-benzoylhydrazino-
Formula: C12H7N5O
CAS: 349492-78-0
Molecular weight: 237
m/z	intensity
36	0
37	8
38	51
39	38
41	2
42	5
43	4
44	10
45	0
48	0
49	8
50	134
51	386
52	32
53	26
54	4
55	5
56	2
57	1
61	0
62	6
63	6
64	12
65	6
66	5
67	2
68	0
69	5
71	0
73	3
74	33
75	42
76	89
77	934
78	77
79	3
82	0
87	0
88	0
90	0
91	2
92	0
95	1
96	0
97	0
98	0
99	0
101	0
102	0
103	10
104	49
105	999
106	157
107	10
108	0
109	0
119	6
122	2
123	0
125	0
129	0
132	0
133	26
134	0
167	4
235	0
236	0
237	65
238	11
