Mass Spectrum: Phenol, 2-[(naphtho[2,1-d]thiazol-2-ylimino)methyl]-
Formula: C18H12N2OS
CAS: 349575-78-6
Molecular weight: 304
m/z	intensity
33	39
37	40
38	161
39	661
40	71
41	55
42	20
44	235
45	159
46	1
50	360
51	999
52	142
53	84
61	22
62	122
63	347
64	222
65	255
66	55
67	5
69	238
70	22
71	14
73	10
74	101
75	166
76	181
77	563
78	72
79	31
81	18
82	29
83	1
86	21
87	87
88	83
89	43
90	43
91	214
92	45
93	90
94	30
95	11
96	1
98	11
99	19
100	40
101	70
102	109
103	35
104	28
105	33
106	12
108	14
109	0
111	3
113	226
114	301
115	181
116	10
117	9
118	11
119	129
120	40
121	18
122	15
124	12
125	19
126	152
127	74
128	63
129	6
130	2
131	29
132	11
134	12
136	8
137	6
138	18
140	441
141	161
142	6
145	85
146	73
147	14
152	52
153	70
154	8
155	46
156	33
157	41
158	419
159	76
160	13
170	12
171	1
172	41
173	3
183	20
184	44
185	625
186	106
187	24
200	5
201	7
210	2
211	13
216	1
248	11
249	4
275	1
287	107
288	14
303	8
304	95
305	12
