Mass Spectrum: 2-Oxo-3,6-diphenyl-1,2,3,4-tetrahydropyrimidine
Formula: C16H14N2O
CAS: 34954-19-3
Molecular weight: 250
m/z	intensity
76	70
77	999
78	300
79	50
89	50
90	50
91	250
92	50
93	60
103	150
104	840
105	260
106	150
117	60
118	60
119	620
120	70
130	450
131	200
132	50
173	230
206	110
247	210
248	110
249	670
250	620
251	90
