Mass Spectrum: Butanamide, 3-propionylhydrazono-N-(2-methoxy-5-methylphenyl)-
Formula: C15H21N3O3
CAS: 349575-66-2
Molecular weight: 291
m/z	intensity
33	0
37	4
39	208
40	57
41	221
42	124
43	109
44	72
45	11
50	14
51	43
52	33
53	34
54	43
55	84
57	999
58	25
60	1
63	21
64	13
65	79
66	53
67	32
68	10
69	30
70	19
71	84
72	471
73	130
74	7
75	1
77	136
78	52
79	59
80	8
81	4
82	4
83	9
84	12
85	3
87	388
88	125
89	16
90	4
91	43
92	28
93	63
94	83
95	7
97	9
98	60
99	113
100	6
103	1
104	19
105	13
106	47
107	18
108	17
109	4
110	2
111	3
113	102
114	4
115	2
118	1
119	4
120	13
122	230
123	25
124	0
125	0
127	5
128	112
129	7
133	0
134	18
135	8
136	20
137	513
138	54
139	2
144	15
146	2
148	42
149	40
150	5
154	1
155	4
162	6
163	32
164	9
171	1
179	0
291	25
292	2
