Mass Spectrum: Octanoic acid, hydrazide, N2-[3-methoxy-4-(2-propynyloxy)benzylideno]-
Formula: C19H26N2O3
CAS: 349573-95-1
Molecular weight: 330
m/z	intensity
33	1
34	7
36	4
37	11
38	27
39	156
40	138
41	394
42	83
43	572
44	121
45	14
46	2
50	14
51	52
52	24
53	37
54	27
55	296
56	68
57	999
58	47
59	446
60	28
61	6
62	7
63	32
64	38
65	56
66	33
67	58
68	22
69	92
70	90
71	140
72	125
73	35
74	7
75	6
76	19
77	81
78	36
79	102
80	35
81	34
82	39
83	82
84	60
85	19
86	40
87	11
88	4
89	11
90	15
91	22
92	101
93	46
94	32
95	41
96	19
97	40
98	32
99	10
100	37
101	15
102	18
103	14
104	12
105	50
106	25
107	40
108	21
109	32
110	17
111	24
112	68
113	30
114	26
115	21
116	19
117	15
118	28
119	21
120	46
121	85
122	59
123	29
124	16
125	22
127	146
128	23
129	32
130	16
131	15
133	89
134	37
135	38
136	27
137	38
138	13
139	4
140	3
141	2
142	6
143	23
144	71
145	18
146	14
147	22
148	554
149	140
150	100
151	21
152	25
153	8
154	3
155	7
156	27
157	17
158	10
159	33
160	15
161	19
162	16
163	19
164	21
165	673
166	93
167	11
168	2
169	3
171	139
172	49
173	13
174	16
175	10
176	3
177	4
178	3
179	2
180	2
182	2
183	1
185	6
186	21
187	624
188	107
189	24
190	5
191	3
192	2
197	1
199	7
201	2
202	1
203	34
204	50
205	11
206	2
207	9
208	1
209	1
213	1
215	12
216	3
217	1
221	2
227	1
230	2
241	4
246	9
247	2
248	2
255	3
256	1
257	0
259	4
261	1
267	1
269	3
270	1
273	3
277	2
278	0
282	0
283	18
284	2
287	1
289	0
291	5
292	4
297	1
300	0
301	7
313	1
315	0
329	6
330	138
331	24
332	4
