Mass Spectrum: Benzhydrazide, N2-(2-methoxy-5-nitrobenzylideno)-
Formula: C15H13N3O4
CAS: 349572-84-5
Molecular weight: 299
m/z	intensity
34	1
35	0
36	1
37	16
38	39
39	106
40	19
41	29
42	11
43	25
44	18
45	24
46	6
47	1
50	235
51	433
52	45
53	47
55	18
56	3
57	7
59	1
60	1
61	14
62	57
63	90
64	26
65	60
66	12
68	6
69	8
70	2
71	3
73	3
74	62
75	50
76	113
77	821
78	88
79	23
80	4
81	1
82	1
83	1
84	1
85	1
86	7
87	10
88	13
89	52
90	38
91	35
92	17
93	4
94	2
95	2
96	1
97	0
98	1
99	1
100	1
101	1
102	4
103	10
105	999
106	70
107	5
108	1
110	0
111	0
112	1
113	1
115	1
116	1
117	8
118	11
119	8
120	17
121	146
122	14
123	1
124	0
126	0
127	0
129	0
131	3
132	3
133	10
134	2
135	1
136	6
137	1
138	0
139	0
140	0
144	0
147	2
148	5
149	4
150	3
151	0
152	1
153	0
155	0
161	0
162	3
163	1
164	1
165	0
166	1
167	0
169	0
171	0
175	0
177	7
178	4
179	1
180	0
181	0
185	0
186	0
192	0
193	0
194	0
195	0
231	0
251	0
253	5
254	0
266	0
267	0
268	0
297	0
298	0
299	1
300	0
