Mass Spectrum: Benzenamine, 4-iodo-N-(3-nitrobenzylideno)-
Formula: C13H9IN2O2
CAS: 3495-26-9
Molecular weight: 352
m/z	intensity
33	2
34	2
36	2
37	33
38	88
39	217
40	39
41	7
42	2
43	3
44	8
46	17
48	0
50	580
51	285
52	47
53	6
54	2
55	1
56	1
57	1
61	30
62	121
63	319
64	77
65	29
66	6
67	0
69	4
71	4
74	165
75	254
76	999
77	370
78	26
79	3
80	2
83	12
85	5
86	22
87	33
88	35
89	231
91	10
92	13
93	7
97	1
98	15
99	13
100	11
101	19
102	80
103	62
104	15
105	1
106	1
107	0
110	1
111	3
113	12
114	12
115	14
116	4
117	2
118	5
119	1
120	0
122	1
123	2
124	2
125	18
126	31
127	87
128	46
129	4
136	0
137	1
138	3
139	33
140	26
141	7
142	0
149	6
150	54
151	151
152	215
153	91
154	13
155	1
164	5
165	7
166	40
167	73
168	15
169	2
176	41
177	70
178	229
179	204
180	32
181	2
191	5
192	3
193	3
194	13
195	16
196	3
201	1
203	279
204	16
207	2
208	3
216	1
219	4
224	4
225	6
226	5
227	2
228	1
230	239
231	18
232	0
278	0
280	5
281	0
293	4
303	0
305	57
306	52
307	9
308	0
321	10
322	27
323	3
336	3
347	1
348	4
349	6
351	139
352	740
353	112
354	11
355	0
