Mass Spectrum: Propanohydrazide, 2-benzylthio-N2-(4-methoxybenzylideno)-
Formula: C18H20N2O2S
CAS: 349575-44-6
Molecular weight: 328
m/z	intensity
33	1
34	0
35	3
37	5
38	21
39	113
40	16
41	36
42	13
43	23
44	39
45	129
46	1
47	3
50	55
51	153
52	35
53	17
54	5
55	37
56	8
57	13
58	7
59	47
60	36
61	43
62	26
63	89
64	52
65	194
66	13
67	4
68	0
69	9
70	1
71	1
73	107
74	10
75	7
76	22
77	159
78	49
79	43
80	6
81	0
84	0
86	0
87	1
89	61
91	999
92	97
93	8
94	6
95	11
97	0
102	1
103	5
104	4
105	31
106	45
107	28
108	15
109	2
115	0
117	16
118	7
119	10
120	18
121	30
122	28
123	13
124	3
133	51
134	120
135	39
136	4
137	5
147	1
148	12
149	114
150	108
151	26
152	2
153	1
154	5
162	5
163	5
165	4
175	26
176	1
177	10
178	0
181	1
206	249
207	28
208	0
237	33
238	3
239	0
328	0
