Mass Spectrum: Benzhydrazide, 3-nitro-N2-(5-bromo-2-methoxybenzylideno)-
Formula: C15H12BrN3O4
CAS: 349572-81-2
Molecular weight: 377
m/z	intensity
34	28
35	2
37	49
38	90
39	383
40	125
41	204
42	69
43	182
44	145
45	52
46	22
47	3
48	14
50	898
51	391
52	92
53	88
55	100
56	31
57	74
58	22
59	8
60	20
61	44
62	139
63	361
64	125
65	151
67	51
68	16
69	45
70	34
71	21
72	6
73	38
74	222
75	437
76	999
77	572
78	113
79	50
80	40
81	42
82	46
83	15
84	17
86	46
88	102
89	288
90	274
91	233
92	157
93	35
94	5
95	23
96	5
97	12
98	5
99	5
100	4
102	19
104	688
105	483
106	56
107	10
108	7
109	3
110	6
111	4
112	6
114	5
115	15
117	27
118	162
119	54
120	52
121	33
122	34
123	21
124	0
125	2
126	5
127	6
128	5
129	8
130	8
131	11
132	26
133	126
134	56
135	15
136	20
137	4
139	1
140	4
142	5
143	15
144	11
145	12
146	8
147	18
148	138
150	636
151	46
152	17
153	9
155	34
156	22
157	36
158	12
159	5
163	8
165	8
166	12
167	2
168	28
169	74
170	43
171	81
172	23
173	5
179	1
180	2
182	21
183	45
184	35
185	35
186	9
187	10
192	5
193	2
194	2
196	24
197	37
198	21
199	31
200	4
210	20
211	547
212	83
213	538
214	74
215	5
219	0
224	2
229	1
236	1
258	2
269	2
280	0
333	0
334	0
346	3
347	1
373	1
376	11
377	14
378	4
379	12
