Mass Spectrum: Cyclopropane carbohydrazide, 2,2-dicyano-3-(4-fluorophenyl)-
Formula: C12H9FN4O
CAS: 349573-12-2
Molecular weight: 244
m/z	intensity
33	28
34	5
37	157
38	184
39	248
40	153
41	63
42	57
43	91
44	70
45	17
46	7
50	604
51	515
52	744
53	94
54	11
55	22
56	33
57	120
58	25
59	14
60	15
61	53
62	71
63	77
64	37
65	32
66	73
67	21
68	44
69	53
70	44
71	11
72	10
73	24
74	72
75	144
76	60
77	31
79	999
80	274
81	156
82	210
83	30
84	8
85	16
86	35
87	31
88	20
89	9
90	6
91	9
92	18
93	66
94	95
95	58
96	21
97	9
98	21
99	46
100	35
101	24
102	5
103	2
104	6
105	13
106	17
107	40
108	25
109	27
110	11
111	10
112	11
113	6
114	3
115	2
116	5
117	10
118	38
119	23
121	304
122	66
123	28
124	26
125	10
126	19
127	5
128	2
129	2
130	5
131	26
132	27
133	25
134	9
135	14
137	37
138	13
139	5
140	4
141	1
142	2
143	17
145	307
146	50
147	12
148	6
149	9
150	4
151	15
152	6
153	5
154	2
155	2
156	5
157	11
158	64
159	19
160	7
161	4
162	3
163	2
164	0
165	1
166	0
167	0
168	1
172	432
173	73
174	10
175	1
176	0
178	3
179	0
180	1
181	0
182	1
183	7
184	3
185	6
186	33
187	10
188	12
189	1
190	0
194	0
196	1
197	1
198	11
199	18
200	95
201	26
202	9
203	0
213	7
214	8
215	19
216	16
217	2
218	1
225	0
226	0
227	4
228	8
229	23
230	3
231	0
244	156
245	18
246	3
247	0
