Mass Spectrum: Sulfonamide, N-cyclohexyl-N'-(5-methylisoxazol-3-yl)-
Formula: C10H17N3O3S
CAS: 349572-30-1
Molecular weight: 259
m/z	intensity
33	6
34	10
36	5
37	16
38	51
39	512
41	999
42	213
43	616
44	72
45	16
46	4
48	37
50	27
51	40
52	68
53	99
54	127
55	423
56	530
57	62
58	11
59	4
60	3
61	2
62	6
63	11
64	35
65	44
66	86
67	292
68	70
69	74
70	46
71	16
72	8
73	3
74	4
75	7
76	5
77	13
78	5
79	30
80	23
81	38
82	38
83	54
84	20
85	8
86	4
88	1
89	1
91	14
92	3
93	6
94	4
95	7
96	28
97	58
98	626
99	114
100	6
101	3
103	2
104	3
105	3
106	1
107	3
108	4
109	5
111	35
112	7
113	1
114	0
115	3
117	0
118	2
119	0
120	0
121	2
122	1
124	6
126	1
127	1
128	1
129	0
130	0
131	2
132	2
133	1
134	1
135	5
136	0
137	2
138	3
139	0
145	2
147	1
149	3
150	0
152	2
153	1
160	0
161	42
162	4
163	7
164	1
165	1
167	0
170	0
171	5
172	0
176	0
177	1
178	16
179	0
180	3
181	1
182	1
190	1
207	0
216	20
217	0
218	2
219	0
