Mass Spectrum: 2H-Pyran-5-carboxamide, 2-oxo-N-(4-fluorophenyl)-
Formula: C12H8FNO3
CAS: 349575-90-2
Molecular weight: 233
m/z	intensity
33	28
34	10
37	190
38	433
39	894
40	314
41	65
42	30
43	37
44	116
45	167
46	7
47	1
50	515
51	747
52	133
53	113
54	56
55	90
56	82
57	330
58	23
59	3
61	47
62	78
63	154
64	118
65	78
66	97
67	59
68	104
69	149
70	60
71	19
72	0
73	14
74	130
75	586
76	64
77	22
79	210
80	38
81	89
82	116
83	265
84	108
85	6
86	6
87	13
88	13
89	17
90	6
91	10
92	12
93	29
95	999
96	113
97	6
99	4
100	8
101	33
102	6
103	1
104	0
105	5
106	15
107	100
108	112
109	38
110	70
111	61
112	8
113	9
114	5
115	6
116	5
117	3
120	39
121	37
122	250
123	129
124	8
128	2
130	0
131	27
132	43
133	317
134	136
135	334
136	27
137	6
138	10
140	12
141	4
142	0
146	27
147	16
148	130
149	17
150	1
158	29
159	39
160	124
161	271
162	31
163	0
176	5
177	8
178	0
186	5
187	41
188	193
189	20
204	8
205	93
206	7
232	108
233	227
234	26
