Mass Spectrum: Butanoic acid, 4-(2,4-dichlorophenoxyacetylhydrazino)-4-oxo-, methyl ester
Formula: C13H14Cl2N2O5
CAS: 349643-11-4
Molecular weight: 348
m/z	intensity
33	1
34	0
35	1
36	5
37	2
38	4
39	4
40	4
41	14
42	25
43	29
44	17
45	42
46	1
47	0
48	0
49	1
50	7
51	4
52	1
53	3
55	227
56	19
57	13
59	115
61	8
62	9
63	26
64	2
65	2
66	0
67	0
68	0
69	3
70	1
71	7
72	8
73	46
74	18
75	27
76	4
77	7
78	0
79	0
80	0
81	1
82	4
83	7
84	5
85	12
86	13
87	81
88	6
89	1
90	1
91	6
92	1
93	0
95	0
96	0
97	6
98	10
99	20
100	9
101	2
102	0
103	0
104	0
105	3
106	1
107	2
109	40
110	13
111	45
112	12
113	21
115	999
116	52
117	9
118	4
119	2
120	2
121	1
123	0
124	0
125	2
127	93
128	10
129	2
130	1
131	0
133	21
135	14
136	1
137	4
139	11
140	3
141	14
142	2
143	1
145	63
146	9
147	49
148	4
149	13
150	0
151	1
152	0
154	2
155	19
156	4
157	1
158	2
159	2
161	14
162	70
163	13
164	45
165	4
166	6
167	1
168	1
169	2
170	1
171	1
173	6
175	61
176	8
177	36
178	4
179	5
180	0
181	0
182	1
183	0
184	3
185	1
186	1
187	14
188	1
189	0
190	0
191	0
193	0
199	8
200	1
201	3
202	0
203	1
204	0
205	0
209	0
211	0
213	0
217	0
219	0
221	0
222	0
229	0
231	8
232	0
234	9
235	3
236	5
237	1
238	0
239	0
243	0
247	0
248	0
249	0
258	0
260	0
261	0
264	0
265	0
274	1
275	0
276	0
277	0
281	4
282	0
283	1
285	0
287	0
289	0
290	0
310	1
311	1
312	11
313	55
314	12
315	19
316	6
317	23
318	5
319	14
320	2
321	2
331	0
345	0
346	0
348	23
350	17
351	1
352	1
