Mass Spectrum: 1H-1,2,4-Triazol-1-amine, 3,5-diphenyl-
Formula: C14H12N4
CAS: 34985-93-8
Molecular weight: 236
m/z	intensity
33	0
34	0
37	5
38	12
39	58
40	6
41	4
42	3
43	6
44	8
45	1
46	0
47	0
50	72
51	138
52	29
53	4
54	1
55	2
56	1
57	3
58	1
59	0
60	1
61	7
62	28
63	70
64	12
65	7
66	0
67	0
68	0
69	2
70	4
71	1
72	2
73	2
74	15
75	33
76	124
77	302
78	26
79	3
80	0
81	0
83	5
84	0
85	2
86	6
87	8
88	11
89	56
90	8
91	26
92	2
93	0
96	21
97	0
98	0
99	1
100	2
101	2
102	17
103	148
104	999
105	80
106	4
107	1
108	2
109	0
110	0
111	0
112	0
113	0
114	1
115	1
116	1
118	9
119	1
120	0
121	0
122	0
124	0
126	0
127	0
128	0
129	1
130	0
131	0
132	1
133	17
134	3
135	7
136	1
137	0
138	0
139	0
140	0
146	0
148	0
149	1
150	17
151	5
152	1
161	0
162	3
163	2
164	1
165	1
166	0
171	0
176	0
177	0
178	0
180	0
188	0
190	3
191	1
192	0
193	1
204	0
205	1
206	0
207	0
219	0
221	3
222	0
236	302
237	48
238	3
