Mass Spectrum: 1H-1,2,4-Triazole, 3-methyl-5-(methylthio)-
Formula: C4H7N3S
CAS: 34985-98-3
Molecular weight: 129
m/z	intensity
42	270
43	140
45	140
56	999
58	150
59	100
73	120
74	170
84	450
88	320
96	110
114	70
115	100
128	110
129	260
