Mass Spectrum: 6-Azaspiro[2.5]octa-4,7-diene-6-carboxylic acid, 2,2-dimethyl-, ethyl ester
Formula: C12H17NO2
CAS: 34995-40-9
Molecular weight: 207
m/z	intensity
26	111
27	481
28	205
29	925
31	111
32	92
39	388
40	92
41	555
42	648
43	999
44	407
50	74
51	212
52	101
53	92
54	92
55	111
56	148
57	277
59	203
65	185
70	74
71	185
72	92
77	129
78	92
79	203
80	92
89	55
91	185
92	296
93	462
94	111
105	92
106	222
117	157
118	314
119	129
120	703
121	129
122	111
132	148
133	277
134	259
135	74
148	185
164	111
192	481
193	74
207	222
208	74
