Mass Spectrum: 4-Pentenoic acid, 2,4-dimethyl-, methyl ester
Formula: C8H14O2
CAS: 34998-29-3
Molecular weight: 142
m/z	intensity
27	176
28	25
29	145
30	7
31	14
33	3
36	0
37	5
38	16
39	251
40	48
41	341
42	43
43	75
44	2
45	14
47	0
49	1
50	12
51	23
52	9
53	66
54	29
55	728
56	98
57	18
58	1
59	71
60	2
61	3
62	2
63	5
64	1
65	18
66	7
67	245
68	28
69	81
70	6
71	19
72	7
73	30
74	10
75	1
77	6
78	1
79	14
80	2
81	35
82	125
83	999
84	65
85	22
86	6
87	22
88	3
91	0
93	0
95	47
96	3
97	1
99	7
100	1
101	6
102	0
109	7
110	44
111	78
112	6
113	1
114	1
125	0
127	44
128	3
141	0
142	77
143	6
144	0
