Mass Spectrum: Heptanedioic acid, 4-methylene-, dimethyl ester
Formula: C10H16O4
CAS: 34998-38-4
Molecular weight: 200
m/z	intensity
25	1
27	182
28	42
29	69
30	11
31	39
33	7
34	0
36	0
37	1
38	7
39	169
40	69
41	337
42	46
43	161
44	14
45	104
46	2
47	1
48	0
49	0
50	9
51	29
52	29
53	179
54	71
55	181
56	18
57	19
58	17
59	286
60	11
61	5
62	1
63	4
64	1
65	47
66	29
67	290
68	66
69	41
70	6
71	32
72	4
73	2
74	46
75	6
76	1
77	31
78	11
79	155
80	174
81	999
82	72
83	31
84	17
85	75
86	7
87	18
88	7
89	1
90	0
91	16
92	2
93	7
94	16
95	115
96	20
97	30
98	407
99	114
100	7
101	2
102	0
103	1
106	1
107	16
108	293
109	418
110	45
111	30
112	19
113	7
114	1
115	0
117	1
118	0
119	16
120	1
121	1
122	1
123	7
124	1
125	66
126	15
127	27
128	2
129	0
130	0
131	0
133	0
134	0
135	4
136	274
137	72
138	7
139	5
140	256
141	28
142	2
150	0
151	12
152	1
153	2
168	396
169	282
170	28
171	3
191	0
196	0
