Mass Spectrum: Zearalenone, bis(pentafluoropropionate)
Formula: C24H20F10O7
CAS: 35-28-9
Molecular weight: 610
m/z	intensity
15	1
26	1
27	12
28	8
29	16
31	5
38	1
39	17
40	5
41	107
42	54
43	141
44	6
45	7
47	1
50	5
51	9
52	4
53	20
54	8
55	339
56	25
57	21
58	62
59	4
62	2
63	9
64	5
65	13
66	4
67	26
68	25
69	224
70	64
71	32
72	5
73	3
74	2
75	5
76	8
77	31
78	13
79	26
80	4
81	31
82	7
83	205
84	64
85	13
86	2
87	2
88	2
89	30
90	35
91	28
92	9
93	25
94	59
95	47
96	15
97	186
98	14
99	11
100	10
101	32
102	28
103	32
104	10
105	19
106	8
107	12
108	4
109	21
110	16
111	19
112	999
113	102
114	21
115	57
116	12
117	19
118	38
119	278
120	10
121	9
122	2
123	25
124	12
125	167
126	25
127	30
128	31
129	62
130	26
131	33
132	10
133	23
134	5
135	5
136	18
137	14
138	7
139	11
140	8
141	10
142	16
143	20
144	11
145	21
146	19
147	21
148	3
149	3
150	2
151	97
152	12
153	3
154	6
155	11
156	8
157	26
158	13
159	14
160	5
161	4
162	2
163	2
164	2
165	3
166	2
167	7
168	3
169	7
170	37
171	19
172	4
173	10
174	10
175	4
176	1
177	1
178	1
179	1
180	1
181	2
182	1
183	4
184	5
185	7
186	5
187	8
188	3
189	3
190	1
191	1
192	1
193	1
194	1
195	1
196	1
197	2
198	1
199	2
200	1
201	4
202	3
203	1
204	1
205	1
207	1
208	1
209	2
210	1
211	1
212	1
213	2
214	1
215	1
217	1
219	1
220	1
221	1
223	2
224	1
225	1
226	1
227	1
229	1
233	1
234	1
235	1
236	1
237	7
238	1
239	2
240	1
241	1
245	1
248	1
249	5
250	1
251	6
252	1
253	1
254	3
255	1
256	1
257	1
261	3
262	3
263	2
264	2
265	16
266	3
267	7
268	1
269	1
270	1
275	1
276	3
277	8
278	3
279	2
280	2
281	2
282	3
283	3
284	1
285	1
287	1
288	1
289	19
290	11
291	7
292	3
293	42
294	7
295	4
296	4
297	1
301	1
302	1
303	6
304	2
305	6
306	21
307	8
308	4
309	7
310	2
311	6
312	1
313	2
314	1
315	7
316	22
317	35
318	7
319	5
320	6
321	41
322	9
323	4
324	1
325	1
327	1
329	1
330	2
331	6
332	9
333	17
334	21
335	13
336	2
337	3
338	1
339	2
343	2
344	1
345	1
346	2
347	5
348	10
349	12
350	3
351	4
352	1
355	1
356	1
357	1
358	1
359	6
360	2
361	3
362	1
363	1
365	1
367	1
371	1
372	1
373	1
374	4
375	3
376	2
377	1
379	1
383	1
385	1
386	1
387	1
391	1
399	1
400	1
401	1
403	1
411	1
412	1
414	1
415	2
421	1
427	2
428	1
429	3
430	1
431	2
432	1
433	1
439	2
440	2
441	1
442	5
443	2
447	3
448	1
449	1
451	1
452	2
453	9
454	3
455	8
456	9
457	24
458	5
459	3
460	1
461	1
465	2
466	1
467	14
468	36
469	15
470	4
471	4
472	1
473	1
475	3
477	11
478	4
479	21
480	6
481	66
482	19
483	7
484	3
485	3
486	1
491	2
492	1
493	4
494	8
495	34
496	24
497	9
498	2
499	2
503	2
505	24
506	6
507	2
508	2
509	2
510	1
511	1
512	1
513	1
517	1
518	1
519	2
520	2
521	4
522	8
523	21
524	6
525	1
527	1
531	1
532	1
533	3
534	1
535	1
536	1
537	1
538	4
539	2
541	10
542	2
545	2
546	1
548	1
549	1
559	1
563	1
565	1
566	1
574	2
575	1
577	2
581	1
591	1
592	8
593	2
610	44
611	12
612	2
