Mass Spectrum: E-11-Tetradecenol, trimethylsilyl ether
Formula: C17H36OSi
CAS: 35-26-7
Molecular weight: 284
m/z	intensity
15	1
26	1
27	13
28	4
29	29
30	1
31	1
38	1
39	27
40	6
41	203
42	34
43	43
44	7
45	39
46	2
47	25
48	1
49	1
50	1
51	2
52	2
53	24
54	39
55	213
56	34
57	23
58	16
59	52
60	8
61	68
62	4
63	3
65	7
66	12
67	159
68	256
69	203
70	23
71	12
72	17
73	428
74	44
75	999
76	73
77	48
78	5
79	22
80	12
81	194
82	278
83	105
84	11
85	18
86	3
87	24
88	10
89	116
90	11
91	210
92	20
93	17
94	8
95	198
96	193
97	76
98	7
99	32
100	4
101	66
102	9
103	219
104	21
105	9
106	1
107	4
108	4
109	121
110	76
111	28
112	6
113	17
114	3
115	44
116	8
117	7
118	1
121	4
122	3
123	60
124	42
125	10
126	2
127	12
128	2
129	82
130	11
131	7
132	1
135	3
136	2
137	28
138	26
139	7
140	1
141	7
142	1
143	26
144	3
145	2
149	1
150	1
151	11
152	15
153	5
154	1
155	4
156	1
157	15
158	2
159	1
163	1
165	7
166	8
167	3
169	3
171	15
172	2
173	1
179	1
181	2
183	2
185	27
186	4
187	2
191	1
193	6
194	13
195	3
196	1
197	2
199	15
200	2
201	1
209	1
211	1
213	12
214	2
215	1
223	1
225	1
227	8
228	2
239	2
241	39
242	8
243	2
251	2
252	1
253	1
255	1
269	117
270	25
271	6
272	1
283	1
284	28
285	7
286	2
