Mass Spectrum: E-11-Tetradecen-1-ol trifluoroacetate
Formula: C16H27F3O2
CAS: 35-25-6
Molecular weight: 308
m/z	intensity
15	1
26	2
27	45
28	18
29	97
30	3
31	2
33	2
37	1
38	2
39	99
40	22
41	666
42	156
43	159
44	7
45	2
47	4
50	5
51	10
52	6
53	82
54	213
55	951
56	380
57	154
58	6
59	3
61	2
63	1
64	1
65	23
66	31
67	403
68	361
69	999
70	392
71	78
72	4
73	1
77	16
78	7
79	45
80	23
81	336
82	436
83	403
84	188
85	37
86	2
91	7
92	1
93	13
94	13
95	279
96	291
97	268
98	84
99	40
100	1
105	1
107	4
108	6
109	139
110	128
111	97
112	34
113	4
115	2
121	2
122	4
123	61
124	59
125	28
126	11
127	5
135	1
136	1
137	30
138	33
139	7
140	3
141	1
151	15
152	13
153	3
155	1
165	9
166	17
167	2
168	1
179	1
194	7
195	1
223	1
224	1
236	1
237	1
238	1
250	1
251	1
252	1
264	1
265	1
266	1
278	1
279	1
280	2
308	70
309	12
310	1
