Mass Spectrum: Adonitol, 5TMS derivative
Formula: C20H52O5Si5
CAS: 35-22-3
Molecular weight: 512
m/z	intensity
29	1
31	1
39	1
41	6
42	1
43	6
44	8
45	45
46	3
47	4
53	2
54	3
55	7
56	1
57	3
58	6
59	29
60	3
61	4
66	1
67	1
69	4
70	2
71	2
72	19
73	999
74	83
75	58
76	3
77	2
81	4
83	2
85	3
87	5
88	5
89	23
90	2
91	1
97	1
99	3
101	26
102	5
103	451
104	42
105	19
106	1
111	2
113	8
114	1
115	6
116	16
117	147
118	15
119	13
120	1
121	1
125	1
127	3
128	1
129	229
130	27
131	47
132	6
133	105
134	15
135	9
136	1
141	1
142	2
143	12
144	2
145	6
146	3
147	535
148	83
149	51
150	5
151	2
153	1
155	5
156	1
157	21
158	3
159	4
160	1
161	7
162	1
163	8
164	1
165	1
169	1
170	1
171	3
173	2
174	1
175	13
176	2
177	8
178	1
179	1
187	1
189	128
190	26
191	55
192	9
193	5
194	1
201	2
202	1
203	34
204	112
205	303
206	62
207	32
208	4
209	1
215	2
217	458
218	118
219	46
220	8
221	16
222	3
223	2
229	12
230	4
231	2
242	1
243	32
244	7
245	4
246	1
247	1
265	1
277	38
278	12
279	6
280	1
291	14
292	5
293	3
294	1
305	6
306	11
307	144
308	42
309	21
310	4
311	1
317	19
318	6
319	221
320	64
321	32
322	6
323	1
331	1
332	22
333	8
334	4
335	1
395	6
396	2
397	1
407	2
408	1
409	1
422	14
423	5
424	3
425	1
