Mass Spectrum: Ethanone, 1-(3-pyridinyl)-
Formula: C7H7NO
CAS: 350-03-8
Molecular weight: 121
m/z	intensity
12	1
13	2
14	10
15	64
17	1
18	3
25	5
26	23
27	30
28	32
29	5
31	2
32	1
36	3
37	23
38	34
39	71
40	9
41	4
42	27
43	300
44	8
48	2
49	24
50	133
51	373
52	109
53	27
54	2
57	1
60	2
61	9
62	11
63	19
64	7
65	19
66	5
67	1
73	2
74	7
75	12
76	16
77	14
78	926
79	158
80	9
91	1
92	9
93	3
94	1
103	1
104	1
105	2
106	999
107	68
108	5
120	6
121	478
122	39
123	3
