Mass Spectrum: 2-Chloro-N-(3-fluorophenyl)acetamide
Formula: C8H7ClFNO
CAS: 350-81-2
Molecular weight: 187
m/z	intensity
37	24
38	42
39	55
40	54
41	24
42	100
43	18
44	35
49	226
50	50
51	97
52	23
55	11
56	12
57	150
62	39
63	73
64	32
65	20
75	78
76	18
77	123
79	33
81	34
82	51
83	262
84	78
95	143
96	21
97	12
110	154
111	999
112	84
124	60
125	6
137	19
138	181
139	14
152	24
153	2
187	393
188	30
189	130
190	10
