Mass Spectrum: 4-(Benzyloxy)-N'-(1-methyl-2-oxoindolin-3-ylidene)benzhydrazide
Formula: C23H19N3O3
CAS: 350025-67-1
Molecular weight: 385
m/z	intensity
33	5
34	1
39	61
40	11
41	14
42	8
44	17
45	2
50	16
51	32
52	6
53	3
54	3
56	3
57	2
63	43
65	128
69	1
70	1
75	34
77	21
78	4
79	2
81	1
85	1
87	2
91	999
94	2
99	2
101	2
102	7
103	4
104	7
105	5
106	2
117	29
118	15
119	3
121	29
122	2
128	5
129	1
131	5
132	3
134	2
144	3
146	45
148	1
152	3
153	3
159	3
160	1
162	1
173	91
174	51
175	7
176	3
181	2
182	2
183	2
208	1
211	270
212	37
213	3
222	1
251	1
252	1
295	1
357	1
385	32
386	8
387	1
