Mass Spectrum: Ethyl 5-[(tert-butylimino)methyl]-4-chloro-2-methylbenzo[b]furan-3-carboxylate
Formula: C17H20ClNO3
CAS: 350025-63-7
Molecular weight: 321
m/z	intensity
50	55
51	82
52	18
53	43
55	189
57	999
58	29
60	18
61	5
62	24
63	67
64	32
65	29
66	5
67	30
68	80
69	59
70	54
71	41
73	17
74	43
75	82
76	47
77	95
78	19
79	29
80	32
81	22
82	46
83	36
84	26
85	8
87	17
88	17
89	39
90	9
91	28
95	19
97	10
99	30
100	26
101	96
102	95
103	36
104	10
105	7
109	5
110	12
112	11
113	28
114	27
115	46
116	43
118	9
120	19
125	12
126	14
127	38
128	41
129	22
131	40
135	4
136	18
137	23
139	14
148	4
149	13
154	4
157	11
162	4
164	8
165	14
171	15
187	4
190	4
192	27
193	42
194	5
195	8
204	18
205	4
206	4
209	4
210	11
219	7
220	13
221	18
223	7
236	104
237	111
238	78
239	25
264	5
265	127
266	28
267	31
276	13
278	46
280	8
306	277
307	46
308	82
321	36
323	6
