Mass Spectrum: .alpha.-D-Xylofuranoside, methyl 5-O-methyl-
Formula: C7H14O5
CAS: 35007-57-9
Molecular weight: 178
m/z	intensity
45	647
55	42
57	285
58	126
59	109
60	73
61	130
71	95
73	999
74	154
75	102
85	70
86	105
87	179
88	52
89	42
100	24
101	14
103	21
105	14
115	17
117	21
118	31
129	45
133	59
146	7
147	21
