Mass Spectrum: 7-Methoxy-8-oxa-1-azabicyclo(5.1.0)octane
Formula: C7H13NO2
CAS: 35009-23-5
Molecular weight: 143
m/z	intensity
41	860
42	570
43	260
44	60
45	40
54	120
55	830
56	999
57	120
59	80
60	30
67	90
68	80
69	200
70	50
83	50
84	290
85	100
96	50
112	20
113	50
126	11
127	9
142	1
143	0
