Mass Spectrum: .alpha.-D-Xylofuranoside, methyl 2,5-di-O-methyl-
Formula: C8H16O5
CAS: 35007-52-4
Molecular weight: 192
m/z	intensity
45	288
55	28
57	77
58	24
59	75
61	28
71	100
73	40
74	66
75	44
85	40
87	999
88	100
89	33
100	53
101	46
111	11
115	8
117	6
129	13
132	11
143	40
147	17
161	15
