Mass Spectrum: 4-Isobutyliden-2-phenyl-4H-oxazol-5-one
Formula: C13H13NO2
CAS: 35016-56-9
Molecular weight: 215
m/z	intensity
12	1
13	1
14	4
15	33
16	2
17	5
18	18
26	13
27	95
28	38
29	39
30	1
31	3
37	7
38	21
39	90
40	20
41	69
42	9
43	10
44	2
45	2
50	91
51	286
52	26
53	23
54	15
55	38
56	5
57	1
61	2
62	6
63	10
64	7
65	6
66	9
67	14
68	5
69	3
70	1
71	1
73	2
74	19
75	21
76	50
77	670
78	49
79	3
80	2
82	119
83	8
84	3
86	1
87	2
88	1
89	2
91	3
92	2
94	5
97	3
102	2
103	24
105	999
106	102
107	8
110	46
111	5
112	4
115	2
116	2
117	4
118	2
120	2
122	2
127	2
128	9
129	12
130	4
132	6
133	3
134	2
138	6
142	2
143	4
144	5
145	2
146	4
150	4
154	44
155	8
156	9
158	2
168	29
169	28
170	44
171	10
172	8
173	4
174	14
182	7
186	4
187	11
188	2
196	7
197	20
198	3
200	10
214	29
215	143
216	24
217	2
