Mass Spectrum: 1,3-Cyclopentanedione, 4,5-dimethyl-
Formula: C7H10O2
CAS: 35029-05-1
Molecular weight: 126
m/z	intensity
39	140
40	40
41	430
42	110
43	100
44	60
50	10
51	20
52	10
53	30
54	20
55	110
56	999
57	70
58	10
67	10
69	60
70	10
71	10
79	10
83	30
84	10
98	80
109	10
111	70
112	10
125	10
126	210
127	20
