Mass Spectrum: D-Mannononitrile, 4-O-benzoyl-2,3:5,6-di-O-isopropylidene-
Formula: C19H23NO6
CAS: 35023-81-5
Molecular weight: 361
m/z	intensity
26	2
27	17
28	0
29	11
30	0
31	19
38	1
39	24
40	8
41	59
42	43
43	587
44	13
45	3
47	0
50	8
51	53
52	7
53	6
54	27
55	16
56	2
57	15
58	5
59	76
60	4
61	16
62	0
63	0
64	1
65	1
66	4
67	1
68	12
69	14
70	6
71	4
72	94
73	62
74	3
75	3
76	13
77	263
78	19
79	5
80	3
81	3
82	2
83	16
84	3
85	35
86	7
87	0
88	0
91	2
92	0
93	1
94	3
95	3
96	6
97	52
98	5
99	1
100	42
101	572
102	30
103	3
104	6
105	999
106	123
107	10
108	2
109	0
110	1
111	1
112	1
113	3
114	1
115	13
116	1
117	0
118	0
119	0
120	1
121	1
122	10
123	21
124	20
125	3
126	24
127	2
128	1
129	3
130	1
131	1
133	0
135	1
136	1
137	1
138	0
139	7
140	2
141	0
142	1
143	44
144	3
145	2
146	1
147	10
148	1
149	0
150	0
151	1
152	1
153	0
154	1
155	5
156	0
157	0
159	0
160	0
161	1
163	2
164	4
165	2
166	19
167	2
168	1
169	0
170	0
172	0
173	1
175	0
177	13
178	1
179	1
180	0
181	12
182	2
183	1
184	8
185	1
187	0
188	0
189	1
190	1
197	1
198	0
199	1
200	1
201	0
203	2
204	0
205	0
207	13
208	2
209	0
210	0
211	0
212	1
215	0
216	0
217	0
218	0
219	0
224	1
226	0
227	1
228	5
229	0
234	0
235	0
238	0
239	9
240	0
242	1
243	3
244	1
245	5
246	30
247	5
248	0
249	0
262	0
265	2
272	1
273	0
274	0
275	0
276	3
277	0
281	1
288	76
289	11
290	1
297	1
302	1
303	0
304	0
307	2
346	424
347	76
348	13
349	1
361	0
