Mass Spectrum: D-Mannose, 2,3:5,6-bis-O-(1-methylethylidene)-, oxime
Formula: C12H21NO6
CAS: 35023-80-4
Molecular weight: 275
m/z	intensity
41	120
42	70
43	700
55	100
57	70
59	700
61	80
70	110
72	100
73	170
85	80
86	60
87	40
88	80
98	90
100	60
101	999
102	60
112	50
131	60
142	130
144	70
160	140
174	60
175	160
184	40
185	30
186	20
202	130
203	30
217	30
218	40
242	30
260	340
261	50
276	20
