Mass Spectrum: 1,2,4,5-Tetrazine, 1,4-diethylhexahydro-
Formula: C6H16N4
CAS: 35035-69-9
Molecular weight: 144
m/z	intensity
41	90
42	380
43	220
44	110
55	100
56	120
57	570
58	50
70	70
71	70
72	470
73	780
85	999
86	50
142	30
144	150
145	10
