Mass Spectrum: 1,2,4,5-Tetrazine, 1,4-dibutylhexahydro-
Formula: C10H24N4
CAS: 35035-70-2
Molecular weight: 200
m/z	intensity
41	130
42	130
43	90
44	40
45	60
55	30
56	30
57	750
58	30
70	20
71	220
72	30
84	50
99	20
100	80
101	160
102	10
113	999
114	70
198	20
200	130
201	20
