Mass Spectrum: 2-Propanol, 1-mercapto-3-phenoxy-
Formula: C9H12O2S
CAS: 35037-09-3
Molecular weight: 184
m/z	intensity
25	0
26	4
27	33
29	28
30	13
31	22
33	3
34	7
35	8
37	4
38	14
39	86
40	16
41	28
42	4
43	67
44	14
45	63
46	11
47	84
48	4
49	4
50	21
51	100
52	11
53	3
54	1
55	13
56	1
57	29
58	3
59	63
60	3
61	29
62	7
63	17
64	7
65	75
66	60
67	4
68	2
69	1
70	1
71	4
72	4
73	185
74	11
75	10
76	7
77	262
78	77
79	61
80	4
81	1
83	1
85	0
86	6
87	0
89	3
90	12
91	45
92	5
93	21
94	999
95	125
96	8
97	3
98	0
103	1
104	0
105	8
106	1
107	75
108	111
109	10
110	0
111	0
115	1
117	0
119	53
120	9
121	3
125	2
126	0
131	3
132	2
133	39
134	12
135	1
136	9
137	13
138	1
139	0
150	2
166	13
167	1
168	0
184	331
185	32
186	18
187	1
