Mass Spectrum: 2-(3-Bromo-benzylsulfanyl)-5-furan-2-yl-[1,3,4]oxadiazole
Formula: C13H9BrN2O2S
CAS: 350499-97-7
Molecular weight: 336
m/z	intensity
37	6
38	42
39	183
40	84
41	7
43	1
44	26
45	35
49	3
50	71
51	83
52	11
53	68
54	1
55	5
57	2
61	1
62	15
63	105
64	61
65	18
66	2
67	29
69	5
71	7
74	2
75	10
76	9
77	35
78	22
79	10
80	3
82	5
86	6
88	1
89	288
90	381
91	43
92	1
93	68
94	101
95	999
96	45
97	5
102	1
103	1
104	4
106	1
107	5
109	2
110	1
111	1
112	5
115	11
117	2
119	2
120	7
121	94
122	40
125	4
126	1
128	2
129	6
134	4
135	16
136	6
139	7
140	5
141	8
143	8
145	7
147	1
149	6
152	1
157	2
164	10
165	8
166	1
167	9
169	659
170	72
171	649
172	48
173	9
175	2
182	19
183	36
184	19
185	29
193	4
198	7
199	13
200	26
201	12
202	17
205	2
208	12
210	614
212	642
213	52
224	5
243	4
245	2
257	5
282	1
283	2
336	288
337	54
338	284
339	45
340	15
