Mass Spectrum: L-Leucine, N-[N-[(phenylmethoxy)carbonyl]-L-leucyl]-, methyl ester
Formula: C21H32N2O5
CAS: 3504-37-8
Molecular weight: 392
m/z	intensity
26	2
27	27
28	16
29	20
30	42
31	3
33	5
37	2
38	3
39	22
40	4
41	63
42	17
43	124
44	45
45	5
50	7
51	18
52	6
53	9
54	5
55	33
56	9
57	21
58	6
59	13
60	2
61	2
62	3
63	8
64	3
65	44
66	4
67	8
68	6
69	51
70	26
71	7
72	3
73	3
74	29
75	3
76	4
77	28
78	8
79	46
80	5
81	4
82	4
83	13
84	12
85	7
86	145
87	17
88	63
89	14
90	15
91	999
92	107
93	5
95	4
96	6
97	10
98	4
99	2
100	4
101	2
102	13
104	2
105	4
106	2
107	41
108	43
109	5
110	3
111	3
112	17
113	6
114	3
115	2
120	2
125	2
126	3
127	3
128	9
129	8
130	105
131	9
132	3
139	2
140	4
141	13
142	3
144	50
145	4
146	10
149	10
153	3
155	6
156	7
157	25
158	3
160	4
162	4
167	2
168	10
169	4
170	2
172	9
176	340
177	52
178	4
181	2
182	2
183	5
196	4
197	3
200	2
201	3
209	5
210	1
219	3
220	142
221	23
222	3
223	1
224	2
225	62
226	11
227	2
228	21
229	3
236	1
240	1
241	3
242	1
248	11
249	2
253	1
257	1
269	2
280	1
284	1
285	2
291	2
304	0
333	6
334	2
336	36
337	7
338	1
361	3
377	4
378	1
392	5
393	2
