Mass Spectrum: 1,2,4-Triazin-5(2H)-one, 6-(1,1-dimethylethyl)-3-(methylthio)-
Formula: C8H13N3OS
CAS: 35045-02-4
Molecular weight: 199
m/z	intensity
14	1
15	11
26	5
27	68
28	34
29	103
30	5
37	5
38	16
39	156
40	27
41	365
42	93
43	245
44	14
45	72
46	55
47	120
48	533
49	29
50	37
51	26
52	27
53	67
54	36
55	85
56	38
57	532
58	33
59	20
60	9
61	6
62	5
63	3
64	5
65	6
66	19
67	83
68	107
69	999
70	47
71	5
72	12
73	32
74	172
75	21
76	9
77	2
79	3
80	4
81	7
82	210
83	88
84	230
85	17
86	22
87	3
88	22
89	53
90	4
91	4
92	2
93	2
94	19
95	5
96	24
97	27
98	4
99	3
101	4
103	1
107	14
108	7
109	14
110	44
111	11
112	4
114	4
115	4
116	26
117	23
118	3
119	1
122	4
123	1
124	22
125	7
126	2
127	2
128	5
129	5
130	14
131	1
134	1
135	7
136	2
137	4
138	1
139	7
140	2
141	9
142	4
143	3
144	114
145	6
146	4
152	129
153	10
154	2
156	15
157	38
158	5
159	1
167	4
170	6
182	4
184	403
185	40
186	21
187	1
198	6
199	384
200	41
201	18
202	1
