Mass Spectrum: Propanamide, N-[1-methyl-1-[4-methyl-4-[(1-oxopropyl)amino]cyclohexyl]ethyl]-
Formula: C16H30N2O2
CAS: 35046-17-4
Molecular weight: 282
m/z	intensity
28	214
29	187
30	7
31	24
41	48
42	51
43	48
44	78
55	78
57	287
58	999
59	78
60	12
70	239
74	731
79	24
80	9
81	109
90	12
100	29
110	53
112	53
113	239
114	499
115	161
120	12
121	187
130	14
136	580
137	78
140	268
168	78
169	214
170	109
209	268
210	29
239	395
268	29
282	161
283	75
