Mass Spectrum: Isoxazolo[5,4-d]pyrimidine-4,6(5H,7H)-dione, 3a,7a-dihydro-5-methyl-3-phenyl-, cis-
Formula: C12H11N3O3
CAS: 35053-73-7
Molecular weight: 245
m/z	intensity
29	70
32	180
51	100
57	130
59	180
64	70
69	160
76	140
77	200
85	320
91	170
103	320
104	220
105	240
113	70
119	999
120	80
126	150
142	200
144	100
245	360
246	50
