Mass Spectrum: 1,3,4-Thiadiazole, 4,5-dihydro-2-phenyl-5-methyl-5-(butan-3-on-2-yl)-
Formula: C13H16N2OS
CAS: 350581-79-2
Molecular weight: 248
m/z	intensity
33	11
34	14
35	3
37	14
39	283
40	179
41	187
42	451
43	999
44	68
45	99
46	11
47	12
48	6
50	131
51	303
52	56
53	80
54	41
55	95
56	36
57	85
58	32
59	44
60	16
61	20
62	27
63	48
64	21
65	22
66	8
68	67
69	155
70	124
71	78
72	58
73	36
74	46
75	57
77	724
78	48
79	11
81	10
82	23
83	14
84	15
85	7
86	11
87	5
88	11
89	15
90	9
91	36
93	28
94	16
95	10
96	6
98	20
99	6
100	3
102	39
103	143
104	165
105	38
106	5
107	4
108	24
109	55
110	10
111	5
112	12
113	3
115	6
117	7
118	9
119	16
121	771
122	52
123	35
124	3
125	1
126	1
127	5
128	4
129	6
130	5
131	4
132	2
133	3
135	100
136	47
137	10
138	5
139	0
140	0
141	0
142	1
143	5
144	2
145	1
146	1
147	3
148	1
149	2
150	2
151	1
152	0
153	0
154	0
155	0
156	0
157	1
158	0
159	0
161	2
162	1
163	0
164	4
165	0
169	0
171	4
172	2
173	9
174	6
175	6
177	787
178	82
179	37
180	2
181	0
185	0
186	1
187	0
188	1
189	6
190	8
191	9
192	1
193	0
197	2
198	0
199	1
201	0
203	0
205	3
206	1
207	0
212	0
213	2
214	0
215	4
216	0
219	3
220	0
221	0
229	0
230	4
231	3
233	22
234	9
235	2
247	8
248	140
249	22
250	7
251	0
