Mass Spectrum: 4-Isoxazolecarboxamide, 4,5-dihydro-N-methyl-5-[[(methylamino)carbonyl]amino]-3-phenyl-, cis-
Formula: C13H16N4O3
CAS: 35053-71-5
Molecular weight: 276
m/z	intensity
29	60
30	250
42	60
50	70
51	90
57	60
58	999
59	400
65	160
70	60
77	180
88	50
89	60
103	440
104	480
105	60
115	190
116	60
133	70
146	70
161	50
188	40
218	639
245	40
276	40
