Mass Spectrum: 4-Isoxazolecarboxylic acid, 4,5-dihydro-5-[[(methylamino)carbonyl]amino]-3-phenyl-, cis-
Formula: C12H13N3O4
CAS: 35053-70-4
Molecular weight: 263
m/z	intensity
30	70
39	50
42	110
44	499
50	130
51	100
58	90
69	70
75	80
76	350
77	110
85	80
98	180
103	999
104	150
105	50
119	250
142	50
245	120
