Mass Spectrum: 1,3-Cyclopentadiene, 5-(1,1-dimethylethyl)-
Formula: C9H14
CAS: 35059-40-6
Molecular weight: 122
m/z	intensity
27	105
28	35
29	115
30	2
31	0
33	0
36	0
37	7
38	22
39	214
40	28
41	176
42	8
43	10
44	1
45	1
46	0
49	2
50	28
51	75
52	33
53	51
54	4
55	21
56	4
57	254
58	13
59	3
60	1
61	5
62	16
63	46
64	11
65	129
66	59
67	25
68	2
69	0
73	1
74	6
75	7
76	4
77	126
78	34
79	221
80	23
81	5
82	0
85	0
86	1
87	1
88	0
89	15
90	5
91	620
92	88
93	21
94	3
95	0
98	0
101	0
102	2
103	16
104	4
105	174
106	24
107	999
108	85
109	3
115	1
117	0
119	1
120	0
121	5
122	239
123	22
124	0
