Mass Spectrum: Phenol, 3-bromo-, acetate
Formula: C8H7BrO2
CAS: 35065-86-2
Molecular weight: 214
m/z	intensity
37	22
38	92
39	86
40	4
41	12
42	39
43	999
44	50
45	3
46	5
49	6
50	54
51	10
53	19
54	0
55	0
60	2
61	16
62	44
63	174
64	94
65	166
66	16
73	5
74	18
75	28
76	20
77	9
78	2
79	4
80	2
81	2
82	2
85	0
86	7
87	2
92	20
93	241
94	13
95	2
104	0
105	2
106	0
107	1
116	1
117	20
118	2
119	23
120	0
129	0
131	1
143	34
144	3
145	32
146	3
155	9
156	1
157	9
171	9
172	774
173	51
174	779
175	47
176	2
187	0
214	132
215	11
216	127
217	8
