Mass Spectrum: Propanoic acid, 2-methyl-, 2-ethylhexyl ester
Formula: C12H24O2
CAS: 35061-61-1
Molecular weight: 200
m/z	intensity
29	277
30	8
31	13
35	2
36	12
37	11
38	21
39	198
40	32
41	667
42	156
43	999
45	9
46	1
48	1
49	1
50	8
51	11
52	7
53	37
54	25
55	310
56	140
57	339
58	15
59	6
60	1
63	2
64	1
65	8
66	4
67	28
68	21
69	74
70	496
71	701
72	56
73	10
74	6
75	1
77	8
78	3
79	11
80	2
81	27
82	27
83	146
84	76
85	8
86	1
87	26
88	5
89	81
90	4
91	8
92	1
93	4
95	9
96	2
97	13
98	8
99	9
100	24
101	22
102	17
103	5
104	1
105	1
106	1
107	1
108	1
109	2
110	4
111	9
112	78
113	8
114	7
115	1
124	1
126	1
127	9
128	2
129	2
139	3
143	1
157	4
