Mass Spectrum: Butanamide, 2-ethyl-2-hydroxy-N-(2-pyridyl)-
Formula: C11H16N2O2
CAS: 350700-00-4
Molecular weight: 208
m/z	intensity
33	58
34	3
37	5
38	35
39	128
40	75
41	136
43	93
45	360
47	0
51	91
52	30
53	17
54	5
55	22
57	95
59	6
62	1
63	5
64	10
65	28
66	39
67	179
69	85
71	5
75	1
76	4
78	162
79	15
80	2
81	0
83	1
85	1
87	202
88	9
90	4
91	28
92	12
94	999
95	143
97	1
104	0
105	7
107	1
110	0
115	0
119	34
120	7
121	39
122	132
123	12
133	4
135	2
136	0
137	4
146	0
147	0
149	0
151	0
152	0
163	0
165	2
175	0
178	1
179	13
180	4
181	0
191	0
208	26
209	4
