Mass Spectrum: 1,2,3-Benzotriazin-4(3H)-one, 3-(2-methylphenyl)-5,7-dinitro-
Formula: C14H9N5O5
CAS: 350793-34-9
Molecular weight: 327
m/z	intensity
33	2
35	0
39	106
41	37
42	1
43	2
44	1
46	9
48	0
50	9
51	42
52	11
53	3
55	1
57	1
61	38
63	60
65	315
66	12
68	0
69	1
70	0
71	0
72	0
74	8
75	5
76	6
77	18
78	13
79	6
80	0
81	0
83	0
84	0
88	87
91	999
92	56
93	3
94	0
95	0
97	0
99	2
100	3
102	1
104	13
106	9
107	4
108	0
113	0
114	0
116	2
117	4
119	94
120	5
121	0
122	0
124	0
125	0
126	0
127	0
129	5
130	0
132	1
133	2
135	0
138	0
139	1
140	1
141	1
142	0
144	0
145	0
146	0
147	0
148	1
150	0
151	3
152	2
153	1
154	1
155	0
156	0
157	0
163	0
164	0
165	0
166	1
167	2
168	1
169	0
170	0
172	0
176	0
179	54
180	6
181	1
182	0
183	0
191	0
193	2
195	37
196	3
197	0
198	0
204	0
205	1
206	3
208	2
209	1
210	0
211	1
220	0
221	0
223	15
224	2
225	0
232	0
233	0
234	0
236	4
237	0
239	0
241	1
242	0
251	0
252	1
253	0
254	0
268	0
280	6
281	0
282	0
292	1
293	0
298	17
299	2
300	0
309	2
310	2
311	0
314	0
327	12
328	1
329	0
