Mass Spectrum: Carbonimidic dichloride, [(chlorodifluoromethyl)dithio]-
Formula: C2Cl3F2NS2
CAS: 35075-14-0
Molecular weight: 245
m/z	intensity
31	155
35	89
44	82
47	31
50	86
61	832
63	723
76	20
82	999
85	21
93	8
149	8
160	5
245	6
