Mass Spectrum: Propanedinitrile, 2-[2-(4-methylphenylsulfonylamino)-3H-indol-3-ylidene]-
Formula: C18H12N4O2S
CAS: 350707-70-9
Molecular weight: 348
m/z	intensity
34	2
35	0
36	6
37	3
38	13
39	85
40	64
41	40
42	6
43	18
44	29
45	31
46	1
48	2
50	17
51	36
52	12
53	6
54	2
55	10
56	5
57	13
58	1
59	2
60	1
61	2
62	14
63	49
64	30
65	254
66	14
67	7
68	2
69	9
70	6
71	9
72	0
73	1
74	5
75	11
76	12
77	29
78	13
79	10
80	2
81	2
82	2
83	6
84	3
85	4
86	3
87	10
88	17
89	53
91	999
92	73
93	3
95	4
96	1
97	4
98	2
99	4
100	5
101	3
102	10
103	4
104	4
105	2
106	1
107	7
108	9
109	2
110	1
111	6
112	11
113	16
114	27
115	22
116	8
117	1
118	0
119	1
120	0
121	3
122	2
123	3
124	3
125	3
126	6
127	3
128	4
129	5
131	46
132	4
133	0
134	0
135	0
136	0
137	1
139	52
140	23
141	15
142	7
143	1
145	0
149	7
151	2
152	8
153	7
155	255
156	18
157	13
158	0
161	0
166	51
167	36
168	9
169	1
171	9
174	3
178	10
179	1
180	1
190	0
192	4
193	19
194	13
195	14
196	1
204	0
205	1
206	0
207	0
215	1
216	0
217	0
218	0
219	1
221	1
222	0
228	1
229	1
230	0
231	0
241	17
242	5
243	5
244	2
254	1
255	2
256	7
257	13
258	31
259	6
267	1
268	13
269	141
270	26
271	2
280	2
281	5
283	193
284	199
285	37
286	12
287	1
322	0
323	2
333	7
334	0
348	175
349	35
350	13
351	1
