Mass Spectrum: 2,2,2-Trichlorethyl-3-[2-(brommethyl)-4-chlor-1,3-oxazol-5-yl]-2-chlor-1H-indol-1-carboxylat
Formula: C15H8BrCl5N2O3
CAS: 350816-89-6
Molecular weight: 518
m/z	intensity
12	7
13	4
14	35
15	14
16	23
17	40
18	154
24	4
25	18
26	295
27	40
28	50
29	70
30	29
31	23
35	36
36	84
37	21
38	49
39	92
40	19
41	37
42	107
43	70
44	88
45	11
47	39
48	24
49	51
50	71
51	79
52	165
53	17
54	5
55	19
56	14
57	25
58	6
59	8
60	96
61	448
62	148
63	244
64	46
65	21
67	8
68	6
69	14
70	7
71	13
72	15
73	35
74	51
75	87
76	49
77	39
78	6
79	32
80	17
81	29
82	44
83	20
84	45
85	34
86	74
87	438
88	172
89	123
90	13
91	20
92	6
93	73
95	999
96	284
97	649
98	212
99	233
100	106
101	19
102	8
103	5
105	26
107	18
108	9
109	15
110	13
111	25
112	22
113	52
114	652
115	84
116	7
117	84
118	9
119	97
120	12
121	103
122	17
123	109
124	26
125	46
126	126
127	20
128	7
129	9
130	14
131	577
132	40
133	539
134	32
135	198
136	14
137	28
138	19
139	59
140	485
141	88
142	10
143	7
144	6
146	10
147	14
148	33
149	212
150	73
151	84
152	77
153	29
154	11
157	4
159	4
160	12
161	59
162	18
163	18
164	7
165	23
166	21
167	7
168	20
169	12
170	6
171	5
172	3
173	6
174	40
175	800
176	921
177	511
178	400
179	98
180	41
181	4
184	8
185	4
186	7
187	35
188	13
189	15
190	7
191	4
192	3
193	7
194	7
195	6
196	13
197	3
198	9
199	5
200	7
201	29
202	17
203	26
204	18
205	7
206	3
207	5
208	3
209	4
210	9
211	3
212	7
213	4
214	3
215	7
217	3
219	5
220	128
221	18
222	40
223	10
224	11
225	6
226	4
227	3
228	5
229	19
230	10
231	10
232	3
233	3
235	2
236	10
237	13
238	7
239	7
240	3
246	2
253	2
254	3
255	2
256	4
264	236
265	136
266	163
267	92
268	39
269	15
270	6
271	1
272	3
273	3
274	2
280	10
281	3
282	8
283	3
284	3
285	2
287	2
291	1
293	2
299	25
300	5
301	22
302	4
303	7
304	1
306	3
308	3
309	5
310	3
311	4
312	1
313	1
314	1
316	1
318	1
325	2
327	3
328	1
329	2
343	71
344	11
345	114
346	18
347	54
348	7
350	242
351	36
352	316
353	43
354	160
355	25
356	37
357	6
358	3
363	0
364	0
365	1
366	1
367	0
369	9
371	39
372	6
373	46
374	7
375	22
376	3
377	3
378	1
401	0
403	3
404	0
405	4
406	2
407	3
408	1
409	1
439	614
441	965
442	195
443	707
444	121
445	228
446	40
447	39
448	7
449	2
450	1
452	0
458	0
474	4
476	7
477	1
478	7
479	0
480	2
483	18
485	36
486	8
487	31
488	7
489	14
490	2
491	2
518	90
520	221
522	253
523	51
524	116
525	22
526	37
527	7
528	5
529	0
