Mass Spectrum: Ethyl 3,4-dichloro-5-[4-chloro-5-[4-(2,2,2-trichloroethoxycarbonyloxy)phenyl]oxazol
Formula: C19H12Cl6N2O6
CAS: 350816-87-4
Molecular weight: 574
m/z	intensity
26	116
27	266
28	165
29	641
30	53
31	74
32	6
35	60
36	262
37	26
38	118
39	81
40	12
41	69
42	31
43	186
44	306
45	53
46	6
47	44
48	24
49	46
50	80
51	69
52	20
53	33
54	16
55	61
56	22
57	70
58	13
59	13
60	66
61	291
62	96
63	238
64	140
65	148
66	31
67	20
68	13
69	50
70	22
71	51
72	18
73	61
74	43
75	274
76	260
77	77
78	14
79	53
80	9
81	25
82	40
83	50
84	46
85	75
86	33
87	68
88	36
89	23
90	12
91	33
92	206
93	214
95	999
96	252
97	727
98	193
99	181
100	60
101	54
102	90
103	52
104	130
105	60
106	41
107	22
108	24
109	79
110	78
111	476
112	76
113	187
114	56
115	26
116	13
117	77
118	28
119	119
120	62
121	621
122	65
123	223
124	30
125	89
126	58
127	66
128	20
129	27
131	415
132	100
133	433
134	70
135	190
136	26
137	67
138	75
139	177
140	36
141	62
142	11
143	10
144	115
145	15
146	73
147	30
148	25
149	18
150	18
151	189
152	39
153	76
154	23
155	16
156	12
157	9
158	12
159	15
160	43
161	47
162	33
163	47
164	26
165	41
166	28
167	29
168	26
169	31
171	38
172	85
173	48
174	81
175	32
176	33
177	43
178	38
181	10
182	13
183	14
184	13
185	17
186	28
187	29
188	256
189	51
190	172
191	31
192	40
194	9
195	8
196	6
197	10
198	14
199	34
200	26
201	38
202	30
203	16
204	13
205	24
206	11
207	35
208	75
209	23
210	60
211	25
212	19
213	11
214	5
215	7
216	6
217	5
219	6
220	11
221	6
222	7
223	5
224	6
225	5
226	7
227	20
228	16
229	11
230	10
231	5
233	39
234	50
235	51
236	56
237	45
238	26
239	22
240	7
241	6
242	6
243	4
244	4
245	3
246	8
247	4
248	6
249	5
250	4
251	3
252	3
255	12
256	5
257	10
258	4
259	4
261	10
262	25
263	11
264	28
265	23
266	13
267	12
268	3
269	5
270	3
271	5
272	3
273	5
274	2
275	3
276	3
277	2
278	2
283	10
284	5
285	5
286	3
289	3
290	8
291	42
292	21
293	28
294	13
295	12
296	4
297	20
298	6
299	20
300	7
301	9
302	5
303	3
304	2
309	4
310	2
311	4
312	3
313	3
319	15
320	5
321	12
322	3
323	1
325	43
326	47
327	50
328	41
329	24
330	15
331	5
332	2
337	18
338	4
339	18
340	5
341	7
342	1
343	1
349	1
353	613
354	192
355	627
356	200
357	227
358	63
359	31
360	8
361	1
365	3
366	1
367	2
371	1
372	1
373	1
374	1
383	52
384	9
385	55
386	11
387	19
388	3
389	3
399	58
400	20
401	59
402	18
403	20
404	5
405	3
413	1
418	1
424	1
427	2
429	3
431	0
450	1
452	1
454	1
460	1
462	1
467	1
469	1
486	1
493	2
494	11
495	8
496	17
497	10
498	12
499	5
500	4
501	2
502	1
503	3
505	2
507	1
528	249
529	61
530	480
531	111
532	407
533	94
534	184
535	43
536	48
537	10
538	6
539	8
540	11
541	14
542	20
543	10
544	11
545	4
546	4
547	1
548	1
574	171
576	311
577	74
578	256
579	61
580	116
581	25
582	28
583	6
584	4
