Mass Spectrum: Idose, 3-acetamido-3,6-dideoxy-, diethyl mercaptal, L-
Formula: C12H25NO4S2
CAS: 3509-33-9
Molecular weight: 311
m/z	intensity
41	68
42	99
43	751
44	53
45	267
46	45
47	110
48	15
54	7
55	22
56	22
57	68
58	114
59	175
60	999
61	72
62	26
63	42
68	11
69	11
70	30
71	26
72	129
73	30
74	26
75	152
76	61
77	26
78	11
79	22
83	15
84	68
85	49
86	171
87	30
88	34
89	26
90	30
91	15
98	198
99	30
100	61
101	22
102	473
103	64
104	141
105	64
106	11
107	95
109	7
110	11
111	15
112	15
114	30
115	11
116	87
117	26
126	7
128	57
129	42
130	15
132	49
134	19
135	419
136	76
137	45
138	7
140	213
141	19
142	22
144	11
145	15
146	49
147	15
151	45
158	465
159	61
160	26
161	15
162	15
168	22
169	3
170	15
172	99
173	11
174	7
186	7
188	22
190	15
201	68
202	7
203	49
204	7
218	770
219	248
220	95
221	15
228	7
233	7
246	53
247	3
248	3
264	22
266	22
282	3
293	125
294	22
295	15
