Mass Spectrum: D-Altrose, 3,6-bis(acetylamino)-3,6-dideoxy-, 1-(diethyl mercaptal)
Formula: C14H28N2O5S2
CAS: 3509-39-5
Molecular weight: 368
m/z	intensity
41	33
42	193
43	999
44	75
45	168
46	8
47	105
54	4
55	21
56	67
57	4
58	33
59	142
60	693
61	67
62	75
63	16
71	4
72	218
73	71
74	29
75	142
76	16
77	8
78	8
79	12
84	420
85	33
86	100
87	63
88	84
89	16
90	33
94	75
95	8
96	37
98	25
99	25
100	180
101	25
102	33
103	21
105	21
107	63
108	21
109	16
110	16
112	8
113	4
114	92
115	29
116	147
117	21
122	8
124	8
125	33
126	260
128	16
129	105
130	16
132	134
135	873
136	54
137	58
138	273
155	8
156	16
157	12
158	390
159	75
161	16
167	117
168	67
170	33
185	8
186	21
188	37
189	21
190	33
197	42
198	12
200	25
209	126
210	8
211	16
212	50
215	168
216	79
217	4
218	218
219	159
220	33
227	54
230	16
233	16
248	12
249	84
250	4
260	33
261	4
271	25
272	8
278	42
279	4
289	96
290	92
291	16
303	25
321	21
332	4
339	4
350	84
351	16
352	8
368	4
