Mass Spectrum: Androst-5-en-17-one, 3-hydroxy-16-(1-methylethylidene)-, (3.beta.)-
Formula: C22H32O2
CAS: 3509-94-2
Molecular weight: 328
m/z	intensity
41	999
42	90
43	440
44	70
45	20
50	10
51	60
52	40
53	370
54	60
55	590
56	40
57	250
58	20
59	10
63	20
64	10
65	160
66	90
67	630
68	710
69	320
70	40
71	40
72	10
77	360
78	100
79	430
80	90
81	440
82	90
83	100
84	10
85	20
89	10
90	10
91	640
92	130
93	360
94	80
95	220
96	260
97	120
98	20
99	10
103	60
104	30
105	470
106	100
107	390
108	100
109	110
110	20
111	20
113	10
114	10
115	100
116	40
117	160
118	60
119	250
120	140
121	190
122	50
123	80
124	40
125	30
127	30
128	80
129	120
130	50
131	180
132	50
133	190
134	60
135	120
136	110
137	600
138	100
139	50
140	10
141	60
142	40
143	170
144	50
145	230
146	40
147	110
148	30
149	70
150	40
151	40
152	20
153	20
154	10
155	70
156	20
157	170
158	90
159	190
160	50
161	90
162	20
163	60
164	30
165	20
167	10
169	50
170	20
171	140
172	50
173	140
174	50
175	100
176	20
177	30
178	10
179	10
181	10
183	40
184	20
185	70
186	20
187	70
188	20
189	60
190	40
191	30
193	10
195	10
197	90
198	40
199	60
200	20
201	40
202	20
203	30
204	40
207	10
209	40
210	10
211	100
212	30
213	550
214	100
215	50
216	30
217	160
218	50
219	10
225	20
226	10
227	30
228	20
229	90
230	20
231	330
232	60
235	10
237	10
239	10
241	10
243	10
249	10
251	10
253	30
268	40
269	20
271	20
277	140
278	30
285	30
295	210
296	50
297	30
299	30
300	10
310	260
311	50
312	20
313	80
314	20
326	20
327	20
328	840
329	220
330	40
