Mass Spectrum: Methanone, [6-(2,4-dichlorophenyl)-4-methyl-1,5,2-dioxazinan-2-yl]phenyl-
Formula: C17H15Cl2NO3
CAS: 350994-35-3
Molecular weight: 351
m/z	intensity
34	0
35	1
36	12
37	1
38	6
39	18
40	9
41	47
42	8
43	12
44	17
45	4
46	0
49	1
50	19
51	60
52	4
53	1
54	5
55	28
56	2
57	4
58	1
59	1
60	0
61	1
62	4
63	7
64	1
65	1
66	0
67	1
68	4
69	0
70	0
71	1
72	1
73	9
74	10
75	19
76	17
77	272
78	22
79	6
80	0
83	3
84	2
85	2
86	3
87	5
88	2
89	7
90	1
91	3
92	0
94	0
96	0
97	4
98	1
99	4
100	3
101	2
102	2
103	3
105	999
106	75
107	5
108	0
109	6
110	3
111	22
112	5
113	7
114	2
115	3
116	2
117	1
118	0
119	0
120	0
122	33
123	56
124	13
125	20
126	5
127	3
128	1
129	0
130	1
131	1
132	3
133	7
134	3
135	6
136	7
137	2
138	5
139	5
140	2
141	3
142	0
143	1
145	9
146	5
147	7
148	3
149	4
150	3
151	7
152	3
153	7
154	4
155	2
156	1
157	1
158	5
159	66
160	10
161	43
162	10
163	256
164	30
165	4
166	5
167	5
168	2
169	1
170	0
171	2
172	21
173	24
174	23
175	28
176	8
177	13
178	10
179	4
180	3
181	0
183	0
184	0
185	6
186	48
187	9
188	31
189	6
190	6
191	1
192	1
194	78
195	8
196	27
197	3
198	1
199	2
200	2
201	1
202	2
203	1
204	1
205	0
210	0
211	3
212	38
213	67
214	31
215	43
216	9
217	7
218	0
227	0
228	1
229	70
230	32
231	50
232	20
233	8
234	3
235	0
246	1
248	0
294	4
295	0
296	2
297	0
299	0
316	38
317	7
318	12
319	2
323	0
334	26
335	5
336	17
337	3
338	3
339	0
351	47
352	9
353	32
354	6
355	5
356	0
