Mass Spectrum: Methanone, [6-(1,3-benzodioxol-5-yl)-4-methyl-1,5,2-dioxazin-2-yl](phenyl)-
Formula: C18H17NO5
CAS: 350994-36-4
Molecular weight: 327
m/z	intensity
34	0
36	0
37	1
38	6
39	32
40	15
41	47
42	10
43	11
44	8
45	2
46	0
50	43
51	91
52	15
53	15
54	6
55	12
56	2
57	4
58	1
59	0
60	0
61	1
62	8
63	27
64	10
65	48
66	8
67	4
68	7
69	4
70	1
71	1
72	0
73	1
74	8
75	15
76	91
77	475
78	45
79	30
80	9
81	3
82	1
83	2
84	9
85	0
86	0
87	0
88	0
89	5
90	8
91	16
92	10
93	30
94	5
95	2
96	0
97	0
98	0
101	0
102	3
103	10
104	91
105	999
106	78
107	23
108	4
109	2
111	5
112	1
113	0
115	2
116	1
117	7
118	9
119	9
120	11
121	48
122	106
123	18
124	1
125	0
126	0
127	1
128	0
129	1
130	6
131	7
132	38
133	10
134	38
135	151
136	13
137	25
138	29
139	3
140	0
141	0
143	1
144	1
145	3
146	14
147	14
148	60
149	129
150	313
151	69
152	8
153	1
154	0
155	0
158	5
159	5
160	9
161	15
162	175
163	85
164	19
165	251
166	21
167	3
168	0
171	1
172	1
173	1
174	7
175	3
176	10
177	4
178	8
179	1
180	0
186	0
187	10
188	110
189	114
190	17
191	1
192	0
203	0
204	7
205	73
206	83
207	10
208	1
209	0
221	0
222	6
223	1
224	0
245	0
268	0
283	0
310	10
311	3
312	0
327	174
328	34
329	4
330	0
