Mass Spectrum: 3-Furancarboxylic acid, tetrahydro-2-methyl-5-oxo-, methyl ester
Formula: C7H10O4
CAS: 35096-31-2
Molecular weight: 158
m/z	intensity
55	999
59	230
83	250
87	270
99	270
111	60
114	490
115	260
116	320
127	220
130	190
143	100
158	38
