Mass Spectrum: Pyrrolidine-3-carboxamide, N-(2-hydroxyethyl)-5-oxo-1-phenyl-
Formula: C13H16N2O3
CAS: 351066-23-4
Molecular weight: 248
m/z	intensity
38	23
39	172
40	49
41	208
42	48
43	22
44	79
45	50
48	0
49	0
50	19
51	101
52	19
53	5
54	27
55	259
56	15
58	9
59	7
60	5
62	38
63	18
64	15
65	31
66	12
67	81
68	31
70	34
72	71
74	5
75	1
76	10
77	329
78	45
79	33
80	8
82	2
84	49
85	8
86	0
88	1
89	0
90	6
91	24
92	3
93	23
94	4
96	2
97	39
98	39
99	10
100	60
101	1
103	11
104	110
105	64
106	999
107	97
108	5
109	16
110	18
111	8
112	1
114	0
115	41
117	54
118	14
119	89
120	12
124	5
125	108
126	2
127	0
128	2
129	12
130	196
131	43
132	190
133	21
138	6
139	8
142	3
143	212
144	23
145	38
146	28
147	0
148	0
155	0
157	0
158	16
159	140
160	219
161	21
163	1
164	0
169	0
173	0
187	2
188	11
189	3
199	1
200	0
205	2
208	0
217	1
220	3
228	0
229	4
230	51
231	2
239	0
240	0
244	0
247	1
248	268
249	42
250	1
