Mass Spectrum: Acethydrazide, N2-[2-(4-chlorophenyl)-1-oxoethyl]-2-(1-methyl-2-pyrazolylthio)-
Formula: C14H15ClN4O2S
CAS: 351060-77-0
Molecular weight: 338
m/z	intensity
34	2
35	1
36	8
37	0
38	8
39	27
40	55
41	26
42	118
43	31
44	29
45	29
46	6
47	3
50	5
51	12
52	7
53	7
54	27
55	36
56	31
57	19
58	7
59	12
60	4
61	1
62	8
63	36
64	9
65	12
66	1
67	4
68	14
69	31
70	7
71	12
72	102
73	17
74	12
75	8
76	2
77	11
78	2
79	5
80	4
81	47
82	46
83	50
84	9
85	8
86	17
87	4
89	99
90	32
91	20
92	3
93	5
94	7
95	86
96	10
97	8
98	4
99	32
100	6
101	9
102	2
104	2
105	5
106	0
107	0
108	0
109	2
111	15
112	17
113	175
114	999
115	175
116	52
117	8
118	1
119	4
120	2
121	4
122	0
123	6
125	341
126	42
127	222
128	124
129	15
130	7
131	0
133	1
134	0
135	12
136	1
137	1
138	2
139	4
140	0
141	2
142	0
143	0
144	1
145	0
147	0
148	0
149	7
150	0
152	32
153	9
154	24
155	322
156	29
157	20
158	1
166	1
167	0
168	2
169	3
170	1
171	3
172	0
173	5
174	2
175	1
176	2
178	0
181	1
183	0
184	3
185	2
186	11
187	2
190	0
196	0
206	0
210	1
211	2
213	189
214	18
215	9
225	0
226	0
228	0
238	0
264	1
336	4
338	73
339	15
340	24
341	3
342	0
