Mass Spectrum: Propan-1-one, 1-[4-(4-acetyl-2-fluorophenyl)-1-piperazinyl]-
Formula: C15H19FN2O2
CAS: 351040-40-9
Molecular weight: 278
m/z	intensity
33	80
34	16
39	26
40	231
41	94
42	163
43	381
45	3
50	18
51	26
52	11
54	51
56	999
57	437
58	26
63	11
65	1
67	1
68	33
69	40
70	51
71	14
75	56
76	15
77	21
81	17
82	13
83	22
84	13
85	11
86	16
89	7
91	11
93	2
94	45
95	66
96	19
97	2
98	19
99	36
100	2
102	38
105	2
107	26
108	38
109	19
110	9
112	26
113	16
116	4
117	7
121	28
122	58
123	59
124	8
126	4
127	1
135	16
136	30
137	16
138	10
148	9
150	209
151	51
152	19
153	1
162	2
164	133
165	41
166	45
167	5
178	22
179	143
180	184
181	12
189	3
190	22
192	502
193	53
194	18
202	6
205	2
207	8
219	1
221	75
222	11
249	8
263	10
275	1
276	12
278	119
279	16
