Mass Spectrum: Furane-3-carboxylic acid, 2-methyl-, [2-(4-fluorophenylamino)-2-oxo]ethyl ester
Formula: C14H12FNO4
CAS: 351060-78-1
Molecular weight: 277
m/z	intensity
33	1
34	1
36	0
37	2
38	9
39	30
40	36
41	8
43	139
44	12
45	2
48	0
50	21
51	39
52	39
53	57
54	5
55	4
56	5
57	36
58	2
59	0
61	1
62	4
63	14
64	4
65	5
66	3
67	10
68	2
69	6
70	2
71	1
73	0
74	2
75	16
77	10
78	3
79	3
80	25
81	19
82	17
83	83
84	12
85	1
89	3
90	1
91	4
92	1
93	1
94	3
95	31
96	9
97	9
98	1
99	0
104	1
105	0
106	2
108	153
109	999
110	111
111	88
112	7
113	0
115	0
120	0
121	2
122	13
123	10
124	35
125	16
126	4
127	0
129	0
135	0
136	0
137	7
138	8
139	8
140	1
150	2
151	1
152	1
155	0
166	51
167	198
168	19
169	2
170	0
171	0
187	2
218	1
273	0
274	2
275	4
277	74
278	10
279	0
