Mass Spectrum: Benzenesulfonamide, N-[2,2,2-trifluoro-1-trifluoromethyl-1-(2-furyl)ethyl]-
Formula: C13H9F6NO3S
CAS: 351063-34-8
Molecular weight: 373
m/z	intensity
33	1
34	0
35	0
37	15
38	45
39	127
40	10
41	6
42	3
43	3
44	9
45	10
46	3
47	3
48	9
50	107
51	271
52	17
53	9
55	48
57	13
58	2
59	3
60	0
61	1
62	4
63	11
64	18
65	26
66	14
67	2
69	72
70	5
71	1
72	1
73	3
74	19
75	29
77	999
78	68
80	6
81	4
82	4
83	11
84	3
85	2
86	1
87	2
88	2
89	6
90	1
91	2
92	6
94	149
96	23
97	15
98	1
99	5
100	2
101	7
102	0
103	0
104	0
105	0
107	3
108	2
109	5
110	1
111	0
113	3
114	5
115	20
116	5
117	12
119	10
120	4
121	0
125	23
126	4
127	4
128	1
129	0
131	0
133	0
134	2
135	1
137	1
138	3
139	12
141	520
142	36
143	25
144	11
146	4
147	0
148	1
149	0
150	1
151	0
152	0
153	0
154	0
157	8
158	8
159	1
162	3
163	13
164	15
165	1
166	2
167	10
169	16
170	2
171	0
172	1
177	2
178	0
182	0
183	0
184	3
188	0
189	1
191	0
192	0
194	11
195	0
198	3
202	0
203	1
204	0
210	0
212	18
213	1
215	0
217	27
218	1
231	1
232	4
234	0
238	0
240	0
254	0
282	0
301	0
304	211
305	28
306	11
307	1
373	93
374	13
375	5
376	0
