Mass Spectrum: Benzaldehyde, 5-iodo-3-methoxy-4-(4-methylbenzyloxy)-
Formula: C16H15IO3
CAS: 351066-30-3
Molecular weight: 382
m/z	intensity
37	4
38	7
39	65
40	6
41	1
43	0
44	7
45	0
49	8
50	73
51	126
52	27
53	54
54	2
55	9
60	1
61	9
62	26
63	55
64	17
65	52
66	22
67	2
69	6
70	2
71	4
73	0
74	8
75	8
76	15
77	194
78	76
79	213
80	20
81	3
89	12
90	9
91	22
92	12
93	4
94	30
95	3
96	0
97	1
101	0
102	7
103	98
104	77
105	999
106	259
107	41
108	5
109	6
110	0
115	1
119	24
120	6
121	11
122	15
125	0
126	2
127	12
128	2
129	2
131	0
134	0
135	54
136	10
139	1
140	1
141	2
150	7
151	2
152	8
153	4
154	0
155	3
156	0
165	3
166	0
167	7
168	1
169	0
170	0
171	0
177	7
178	3
179	0
180	0
181	1
183	0
190	0
191	0
194	0
195	6
196	2
197	1
199	0
205	2
206	11
207	1
209	1
210	0
211	2
212	1
217	0
220	0
221	11
225	1
226	0
231	0
234	0
235	2
239	1
240	0
245	1
246	0
249	0
255	2
263	0
275	0
277	38
278	63
279	7
280	0
292	0
382	59
383	4
