Mass Spectrum: Cyclopentanecarboxamide, N-(4-bromo-2-methylphenyl)-
Formula: C13H16BrNO
CAS: 351061-28-4
Molecular weight: 281
m/z	intensity
34	36
36	54
38	33
39	154
40	50
41	475
42	62
43	101
44	117
45	8
48	6
50	26
51	86
52	64
53	60
54	18
55	120
56	32
57	58
62	11
63	33
64	19
65	28
66	9
67	67
69	999
70	71
71	26
72	2
73	3
74	5
75	8
76	16
77	144
78	92
79	66
80	15
81	13
82	11
83	16
84	16
85	5
88	2
89	37
90	19
91	28
92	5
93	5
94	4
95	11
96	7
97	150
98	13
103	7
104	63
105	60
106	191
107	35
110	2
111	4
112	13
113	5
117	4
119	2
132	3
134	4
144	3
161	12
167	5
169	10
171	25
179	3
184	38
185	586
186	83
187	517
188	42
267	7
281	55
282	3
283	58
