Mass Spectrum: 1,3,4-Oxadiazole-2(3H)-thione, 5-(4-ethoxyphenyl)-3-(1-pyrrolidinylmethyl)-
Formula: C15H19N3O2S
CAS: 351065-76-4
Molecular weight: 305
m/z	intensity
33	1
34	0
36	2
37	9
38	33
39	115
40	18
41	113
42	689
43	82
44	25
45	9
46	2
47	14
48	2
49	18
50	57
51	94
52	65
53	41
54	47
55	174
56	53
57	9
58	4
59	20
60	14
61	14
62	31
63	84
64	88
65	140
66	17
67	8
68	9
69	8
70	11
71	16
72	6
73	6
74	17
75	24
76	28
77	7
78	14
79	31
80	5
81	4
82	10
83	29
84	999
85	80
86	1
87	0
88	2
89	0
90	13
91	17
92	15
93	28
94	4
95	0
97	1
98	0
99	0
101	0
102	4
103	3
104	10
105	22
106	16
107	88
108	4
109	0
112	0
113	0
116	0
117	1
118	4
119	78
120	12
121	61
122	6
123	1
124	0
125	5
128	0
132	2
133	78
134	203
135	21
136	0
137	5
138	0
139	0
146	1
147	13
148	3
149	45
150	5
152	0
153	0
154	0
158	0
161	2
162	111
163	14
164	1
165	2
175	1
178	0
183	0
189	0
190	4
191	6
192	0
193	6
194	17
195	1
204	0
212	0
213	0
220	0
221	7
222	160
223	24
224	11
225	0
233	0
257	0
283	0
305	16
306	1
