Mass Spectrum: Benzaldehyde, 3-methoxy-4-(4-methylbenzyloxy)-
Formula: C16H16O3
CAS: 351066-36-9
Molecular weight: 256
m/z	intensity
37	2
38	2
39	30
40	12
41	17
42	1
43	4
44	2
45	0
46	0
47	0
50	19
51	84
52	39
53	42
54	3
55	15
56	0
57	0
58	0
62	7
63	59
64	23
65	89
66	13
67	13
68	0
71	0
74	2
75	5
76	8
77	177
78	62
79	201
80	32
81	2
86	0
87	1
89	10
90	1
91	10
92	8
93	8
94	0
95	102
96	7
97	2
98	0
102	13
103	214
104	174
105	999
106	479
107	24
108	7
109	1
115	1
116	0
117	0
118	0
119	18
120	7
121	8
122	6
123	3
127	1
128	0
129	0
133	0
136	1
137	1
151	22
152	13
153	2
156	0
157	0
166	0
167	1
187	0
194	0
195	0
197	0
226	0
227	0
255	0
256	60
257	17
258	2
