Mass Spectrum: Acetamide, 2-chloro-N-(3-trifluoromethylbenzyl)-2-phenyl-
Formula: C16H13ClF3NO
CAS: 351060-71-4
Molecular weight: 327
m/z	intensity
34	1
35	2
36	12
37	1
38	16
39	58
40	72
41	8
43	6
44	17
50	21
51	43
52	7
55	2
56	0
57	5
62	28
63	83
64	26
65	28
69	5
73	7
74	5
75	22
76	11
77	35
78	9
79	1
81	1
83	7
87	4
89	219
90	170
91	160
92	16
93	1
95	10
96	6
99	36
101	10
102	1
103	1
104	11
105	11
106	2
107	6
109	110
110	5
113	4
114	2
116	2
118	106
119	56
120	6
121	3
125	999
126	337
127	329
128	98
129	6
132	8
133	5
138	5
139	14
140	20
141	2
145	22
146	13
149	1
152	0
154	4
156	3
159	682
160	55
161	2
165	1
172	17
174	66
175	9
202	6
235	0
264	8
265	1
291	22
292	13
293	4
308	8
310	1
327	36
328	4
329	8
