Mass Spectrum: Benzoic acid, 4-methyl-, 2-(5-oxo-1-phenyl-3-pyrrolidinylcarbonylamino)ethyl ester
Formula: C21H22N2O4
CAS: 351066-24-5
Molecular weight: 366
m/z	intensity
37	0
38	10
39	109
40	23
41	200
42	53
43	2
45	1
48	5
50	14
51	74
52	13
53	9
54	14
55	122
56	3
60	1
62	8
63	35
64	23
65	102
66	10
67	18
68	17
70	18
72	25
73	1
74	0
75	0
76	4
77	165
78	30
79	19
80	1
81	0
82	16
84	1
87	0
88	5
89	41
90	41
91	475
92	52
93	17
94	0
96	3
97	26
98	10
102	1
103	6
104	83
105	57
106	568
107	62
108	1
110	1
111	2
112	2
115	0
117	39
118	66
119	999
120	93
121	2
122	0
123	0
125	57
126	4
128	0
129	2
130	213
131	62
132	203
133	28
134	1
135	0
136	32
137	2
138	2
142	50
143	5
144	2
145	2
146	8
152	0
157	0
158	19
159	220
160	794
161	94
162	7
163	15
172	1
173	0
180	6
181	1
183	0
185	0
186	4
187	0
188	5
201	2
202	1
203	18
204	0
207	0
212	0
217	1
219	0
222	0
229	1
230	14
231	0
233	0
247	117
248	20
261	20
262	1
263	0
323	0
324	0
338	0
352	4
362	2
363	6
364	4
365	9
366	529
367	147
368	18
