Mass Spectrum: Trisilane, 1,1,1,3,3,3-hexafluoro-
Formula: F6H2Si3
CAS: 35103-07-2
Molecular weight: 200
m/z	intensity
28	267
29	67
30	30
31	6
47	999
48	59
49	56
66	30
67	55
68	3
75	3
85	333
86	11
87	7
94	17
95	13
96	6
97	4
104	2
113	16
114	162
115	39
116	13
117	2
132	1
133	2
167	3
180	0
181	104
182	15
183	10
184	0
186	0
198	7
199	12
200	3
201	1
202	0
