Mass Spectrum: Benzamide, 2,5-difluoro-N-(6-methyl-2-pyridyl)-
Formula: C13H10F2N2O
CAS: 351061-99-9
Molecular weight: 248
m/z	intensity
38	150
39	311
40	58
41	52
42	54
43	9
44	8
45	2
50	55
51	52
52	65
53	105
54	8
55	7
56	10
57	13
61	13
63	416
64	59
65	116
66	54
67	12
68	24
69	13
71	7
73	2
74	24
75	15
76	5
78	27
80	158
81	55
82	4
86	0
87	8
89	2
90	3
92	190
93	42
94	18
95	1
100	6
101	4
105	17
107	42
108	60
109	8
110	5
113	999
124	5
126	0
133	0
135	123
136	3
138	1
139	14
141	847
142	55
158	12
200	6
201	4
204	4
205	11
216	1
219	699
220	370
221	34
222	1
233	10
247	47
248	150
249	19
