Mass Spectrum: 2-Bromo-5-methylpyridine
Formula: C6H6BrN
CAS: 3510-66-5
Molecular weight: 171
m/z	intensity
15	1
25	1
26	6
27	11
28	4
31	1
36	1
37	15
38	32
39	121
40	11
41	14
42	2
43	2
44	1
45	9
46	1
49	4
50	20
51	19
52	16
53	4
54	1
57	2
60	1
61	9
62	19
63	54
64	43
65	600
66	60
67	2
71	1
72	2
73	2
74	1
75	5
76	7
77	4
78	2
79	2
80	2
81	2
82	2
84	2
85	4
86	2
87	1
88	1
89	1
90	23
91	33
92	999
93	71
94	2
95	1
99	1
102	1
116	2
117	9
118	3
119	9
170	9
171	397
172	41
173	383
174	31
175	1
