Mass Spectrum: Furazan-3,4-diamine, N,N'-dimethyl-N,N'-dinitro-
Formula: C4H6N6O5
CAS: 351065-10-6
Molecular weight: 218
m/z	intensity
34	0
37	0
38	45
39	57
40	107
41	85
42	998
43	147
44	11
45	4
46	571
47	4
48	1
49	1
51	7
52	16
53	347
54	83
55	256
56	474
57	31
58	1
59	47
60	6
62	0
63	0
64	1
65	2
66	38
67	960
68	75
69	316
70	8
71	533
72	21
73	0
74	0
77	0
78	0
79	1
80	12
81	14
82	102
83	78
84	15
85	202
86	273
87	10
89	0
91	0
94	6
95	11
96	999
97	79
98	4
99	1
101	2
104	0
109	0
112	55
113	0
114	0
119	1
124	0
125	2
127	1
129	0
131	24
132	0
135	0
142	100
143	0
144	0
147	0
149	12
150	0
152	0
154	0
159	0
164	0
170	0
172	120
173	1
174	0
179	0
209	0
218	24
219	0
220	0
