Mass Spectrum: Androstane-3,11-dione, (5.alpha.)-
Formula: C19H28O2
CAS: 3510-00-7
Molecular weight: 288
m/z	intensity
41	999
42	178
43	285
44	14
50	7
51	57
52	35
53	371
54	100
55	857
56	64
57	42
63	14
64	7
65	135
66	64
67	600
68	164
69	171
70	14
71	14
74	7
77	271
78	71
79	421
80	150
81	592
82	192
83	71
84	7
88	7
91	321
92	57
93	328
94	92
95	478
96	150
97	57
98	14
102	7
103	14
104	14
105	171
106	64
107	214
108	78
109	307
110	178
111	57
112	7
115	14
116	7
117	28
118	14
119	78
120	50
121	171
122	157
123	92
124	714
125	135
126	7
128	7
129	14
131	50
132	14
133	71
134	42
135	114
136	28
137	78
138	42
143	7
145	50
146	21
147	71
148	21
149	107
150	50
151	250
152	28
157	7
159	14
160	7
161	28
162	21
163	92
164	200
165	121
166	7
171	7
172	7
173	14
174	14
175	21
176	21
177	171
178	35
179	7
185	7
187	21
188	7
189	28
190	7
191	100
192	14
201	7
203	35
204	21
205	35
213	7
215	14
216	35
217	57
218	50
219	21
227	7
229	21
231	42
232	7
244	42
245	100
246	28
255	14
260	128
261	14
270	7
273	42
288	428
289	92
290	7
