Mass Spectrum: 1,1,1,3,3,3-Hexafluoro-2-(trifluorosilyl)trisilane
Formula: F9HSi4
CAS: 35103-08-3
Molecular weight: 284
m/z	intensity
28	160
47	999
66	30
67	50
85	833
94	20
104	20
113	50
114	160
151	20
198	110
199	40
265	120
283	0
284	0
