Mass Spectrum: Acetamide, N-(5-methyl-2-isoxazolyl)-2-(2-pyrimidylthio)-
Formula: C10H10N4O2S
CAS: 351061-89-7
Molecular weight: 250
m/z	intensity
33	11
34	2
36	0
37	2
38	12
39	61
40	65
41	44
42	101
43	156
44	21
45	49
46	40
47	10
48	3
50	1
51	13
52	64
53	134
54	44
55	40
56	13
57	32
58	19
59	16
60	16
61	1
62	0
63	1
64	5
65	4
66	46
67	45
68	94
69	25
70	27
71	12
72	35
73	6
74	6
75	0
77	3
79	100
80	236
81	64
83	35
84	41
85	36
86	7
87	1
88	1
89	0
91	1
92	1
93	2
94	3
95	2
96	11
97	242
98	153
99	88
100	10
101	1
103	1
105	1
106	3
107	0
108	4
109	6
110	6
111	52
112	222
113	43
114	13
115	27
116	4
117	1
119	0
120	2
121	3
122	4
123	10
124	149
125	999
126	619
127	82
128	30
129	12
130	1
131	0
132	0
134	1
135	2
136	4
137	3
138	5
139	21
140	5
142	0
143	3
146	1
147	0
148	0
149	1
150	0
152	337
153	482
154	59
155	29
156	3
159	0
161	4
162	1
163	1
164	0
165	2
166	0
167	3
168	2
169	0
171	7
172	0
175	0
176	2
177	233
178	26
179	4
180	0
183	2
188	0
189	1
191	0
192	0
207	9
208	2
217	31
218	3
222	1
235	3
250	369
251	49
252	20
253	2
