Mass Spectrum: Benzaldehyde, 3-ethoxy-4-(4-methylbenzyloxy)-
Formula: C17H18O3
CAS: 351066-35-8
Molecular weight: 270
m/z	intensity
37	0
38	2
39	22
40	3
41	7
42	1
43	13
44	3
45	2
47	1
50	9
51	41
52	24
53	38
54	4
55	9
56	0
57	2
58	0
59	1
61	0
62	3
63	20
64	6
65	26
66	2
67	0
68	0
69	2
70	0
71	1
72	0
73	1
74	2
75	6
76	2
77	103
78	45
79	117
80	18
81	48
82	3
83	1
84	0
85	0
89	8
90	3
91	22
92	5
93	4
94	0
95	3
96	0
99	0
101	0
102	9
103	107
104	80
105	999
106	253
107	12
108	5
109	19
110	1
111	0
112	0
113	0
114	0
115	1
119	7
120	2
121	4
122	1
123	2
124	0
125	0
133	2
134	0
135	4
136	5
137	21
138	2
142	0
149	9
150	0
152	1
153	0
154	0
155	3
156	0
163	0
164	0
165	15
166	4
179	0
180	3
181	6
182	0
183	0
184	0
185	0
194	0
195	1
196	0
211	0
215	0
225	0
270	29
271	7
272	0
