Mass Spectrum: Benzaldehyde, 4-methoxy-3-(4-methylbenzyloxy)-
Formula: C16H16O3
CAS: 351066-34-7
Molecular weight: 256
m/z	intensity
38	1
39	25
40	3
41	29
42	1
43	0
44	1
45	0
50	9
51	28
52	19
53	23
54	2
55	4
56	1
57	0
61	0
62	5
63	22
64	7
65	55
66	9
67	12
68	0
69	1
71	0
72	0
73	0
74	3
75	4
76	6
77	130
78	39
79	152
80	30
81	3
82	0
83	1
84	0
85	2
86	0
89	6
90	2
91	11
92	2
93	2
94	0
95	36
96	3
101	0
102	5
103	84
104	68
105	999
106	203
107	8
108	1
109	0
115	1
119	9
120	3
121	2
122	1
123	1
127	0
129	0
132	0
135	0
136	1
139	0
151	21
152	4
153	0
155	1
156	0
165	0
166	0
183	0
185	1
195	1
196	0
227	0
255	0
256	36
257	8
258	0
