Mass Spectrum: Benzaldehyde, 3-bromo-5-methoxy-4-[(4-methylphenyl)methoxy]-
Formula: C16H15BrO3
CAS: 351066-31-4
Molecular weight: 334
m/z	intensity
35	0
38	0
39	1
41	0
43	0
44	0
45	0
46	0
50	7
51	18
52	4
53	13
54	0
55	2
56	0
57	0
61	0
62	1
63	6
64	2
65	9
66	6
67	0
73	0
74	3
75	6
76	0
77	47
78	23
79	23
80	2
83	0
84	0
85	1
86	0
90	1
91	4
92	1
93	0
94	9
95	3
96	0
102	2
103	16
104	15
105	999
106	32
107	1
114	0
115	2
116	0
117	0
119	1
125	0
126	0
130	0
131	1
132	0
135	2
136	0
137	0
141	0
142	0
143	2
145	3
146	0
147	0
152	0
154	0
155	1
156	0
157	1
159	0
160	2
165	0
166	0
167	0
173	2
174	0
175	5
176	0
185	0
186	0
195	0
196	0
197	0
201	0
206	0
215	0
216	0
224	0
225	3
226	1
227	3
228	0
229	12
230	1
231	11
232	2
236	0
239	0
240	0
245	0
246	0
254	0
255	0
256	0
266	0
276	0
285	0
286	0
297	0
307	0
316	0
326	0
333	0
334	20
335	4
336	25
337	2
