Mass Spectrum: 1,5-Heptadien-3-yne
Formula: C7H8
CAS: 3511-27-1
Molecular weight: 92
m/z	intensity
24	1
25	4
26	9
27	9
28	8
29	6
31	4
36	5
37	14
38	70
39	214
40	62
41	34
42	6
43	47
44	9
45	9
46	7
48	4
49	21
50	156
51	363
52	108
53	84
54	4
55	7
56	2
57	3
58	3
59	1
60	6
61	36
62	67
63	144
64	109
65	225
66	68
67	4
68	1
69	3
70	2
71	1
72	2
73	16
74	66
75	40
76	19
77	123
78	12
79	3
80	1
81	1
82	1
83	5
84	5
85	9
86	17
87	12
88	3
89	37
90	37
91	999
92	922
93	67
94	3
