Mass Spectrum: 1,3-Dioxo-N-phthalimido-2-(2-thiazolyl)-5-isoindolinecarboxamide
Formula: C20H10N4O5S
CAS: 351188-25-5
Molecular weight: 418
m/z	intensity
33	11
34	3
35	6
36	11
37	18
38	32
39	31
40	34
41	15
42	17
43	25
44	44
45	132
46	8
47	3
49	12
50	236
51	70
52	44
53	20
55	12
56	41
58	216
59	10
60	9
62	28
63	51
64	14
65	9
66	6
67	2
69	11
70	14
71	13
75	999
76	305
77	72
78	18
80	2
81	3
82	4
83	3
84	7
85	5
86	7
87	8
88	13
89	11
90	24
91	8
92	8
93	4
94	1
97	1
98	5
99	8
100	16
101	38
103	631
104	230
105	94
106	4
107	2
110	2
111	4
112	2
113	3
114	4
115	6
116	5
117	10
119	8
120	19
121	3
125	2
127	9
128	9
129	12
130	9
131	9
133	34
134	2
136	1
141	1
142	3
143	5
144	8
146	16
147	30
148	48
149	4
150	2
151	1
153	1
157	3
158	3
161	19
162	4
165	1
171	8
172	7
173	9
174	7
175	5
183	2
184	3
185	10
188	1
189	2
190	1
198	1
199	5
201	17
202	2
207	1
212	1
216	2
218	1
225	1
227	5
229	130
230	14
231	5
232	2
236	1
246	4
250	2
251	3
252	5
253	11
255	32
256	43
257	341
258	35
259	10
260	2
263	4
265	1
271	2
272	1
273	8
274	32
275	4
289	1
290	6
291	6
292	3
293	4
307	2
319	4
417	1
418	16
419	3
420	1
