Mass Spectrum: Cyclohexanone, 2-(1-mercapto-1-methylethyl)-5-methyl-, (2R-cis)-
Formula: C10H18OS
CAS: 35117-86-3
Molecular weight: 186
m/z	intensity
26	3
27	53
28	10
29	54
30	1
31	1
33	6
34	4
35	2
37	2
38	8
39	197
40	39
41	556
42	83
43	147
44	6
45	44
46	4
47	51
48	1
49	4
50	10
51	37
52	18
53	156
54	32
55	371
56	73
57	67
58	23
59	129
60	11
61	35
62	4
63	10
64	3
65	44
66	15
67	224
68	57
69	999
70	204
71	80
72	6
73	20
74	46
75	462
76	21
77	82
78	12
79	84
80	17
81	337
82	120
83	263
84	113
85	28
86	6
87	47
88	43
89	15
90	3
91	46
92	8
93	153
94	60
95	168
96	23
97	261
98	27
99	17
100	7
101	31
102	16
103	8
104	2
105	13
106	2
107	68
108	16
109	692
110	99
111	229
112	794
113	67
114	5
115	19
116	2
117	4
119	14
120	3
121	4
123	37
124	11
125	23
126	3
127	10
128	1
129	4
131	1
133	2
134	3
135	86
136	9
137	29
138	3
139	2
141	2
142	1
143	5
144	1
151	2
152	65
153	252
154	29
155	2
171	4
186	165
187	18
188	8
189	1
