Mass Spectrum: Furan, 2,3-dichlorotetrahydro-
Formula: C4H6Cl2O
CAS: 3511-19-1
Molecular weight: 140
m/z	intensity
12	1
13	3
14	7
15	14
17	1
18	3
24	1
25	4
26	23
27	56
28	11
29	93
30	4
31	9
32	1
35	11
36	48
37	24
38	48
39	372
40	101
41	999
42	86
43	9
44	8
45	1
47	8
48	11
49	60
50	7
51	19
52	3
53	4
54	2
55	12
56	1
57	3
58	1
60	3
61	12
62	4
63	9
64	1
65	5
66	1
67	2
68	9
69	78
70	42
71	3
72	2
73	9
74	4
75	146
76	558
77	95
78	181
79	20
80	2
81	4
82	2
83	5
84	1
85	3
86	1
87	1
89	1
90	2
91	4
92	1
93	1
95	1
96	2
97	4
98	2
99	1
102	1
103	16
104	69
105	522
106	47
107	167
108	8
109	4
110	15
111	7
112	10
113	3
114	2
115	1
133	2
135	1
138	1
139	12
140	1
141	9
142	1
143	2
