Mass Spectrum: Furane-2-carboxamide, N-[4-(4-oxo-4H-3,1-benzoxazin-2-yl)phenyl]-
Formula: C19H12N2O4
CAS: 351226-94-3
Molecular weight: 332
m/z	intensity
33	0
34	0
37	4
38	15
39	120
40	16
41	6
42	3
43	7
44	16
45	1
50	16
51	11
52	4
53	5
54	0
55	3
56	0
57	3
61	0
62	4
63	26
64	27
65	12
66	4
67	21
68	2
69	1
70	1
71	1
72	0
73	0
74	3
75	8
76	12
77	8
78	1
79	0
81	0
82	0
83	0
84	0
87	3
88	1
90	60
91	29
92	14
93	6
95	999
96	47
97	5
98	0
99	0
101	1
102	4
103	3
104	1
105	1
111	0
112	0
113	0
114	0
115	1
116	1
117	2
118	7
119	29
120	10
121	46
122	3
123	2
125	0
126	0
127	3
128	4
129	3
130	2
131	1
138	0
139	3
140	3
144	0
146	28
147	2
149	1
152	1
153	1
154	5
155	1
156	2
157	1
158	0
159	0
163	1
164	0
165	0
166	3
167	1
171	1
179	0
180	0
181	1
182	3
183	0
184	1
185	0
186	0
191	0
192	1
194	0
195	1
196	0
208	1
209	3
210	0
211	0
212	4
213	1
214	27
215	3
219	0
220	0
237	7
238	1
239	9
240	1
247	0
275	1
276	0
278	1
279	0
288	6
289	1
304	1
332	187
333	39
334	5
