Mass Spectrum: Valerena-4,7(11)-diene
Formula: C15H24
CAS: 351222-66-7
Molecular weight: 204
m/z	intensity
26	1
27	49
28	12
29	78
30	2
37	1
38	3
39	143
40	24
41	410
42	28
43	77
44	2
50	11
51	69
52	31
53	180
54	21
55	319
56	34
57	29
58	14
59	12
60	5
62	4
63	36
64	22
65	178
66	39
67	223
68	18
69	211
70	15
71	9
72	4
73	7
74	10
75	7
76	8
77	426
78	110
79	431
80	52
81	250
82	75
83	28
84	2
86	1
87	3
88	3
89	21
90	6
91	853
92	119
93	640
94	101
95	213
96	30
97	5
98	1
101	5
102	21
103	112
104	44
105	999
106	210
107	919
108	304
109	537
110	58
111	6
113	1
114	1
115	203
116	80
117	222
118	48
119	757
120	183
121	319
122	201
123	31
124	3
126	3
127	26
128	85
129	82
130	39
131	141
132	36
133	643
134	169
135	352
136	54
137	3
139	3
140	1
141	17
142	9
143	15
144	9
145	65
146	21
147	589
148	301
149	155
150	17
151	2
152	3
153	4
154	2
155	2
156	1
157	3
158	1
160	10
161	633
162	224
163	26
164	2
165	1
171	1
172	1
173	5
174	3
175	66
176	62
177	8
178	1
188	1
189	655
190	100
191	8
203	2
204	942
205	153
206	12
207	1
