Mass Spectrum: Glycidamide, 3-(O-chlorophenyl)-1-cyano-
Formula: C10H7ClN2O2
CAS: 3513-09-5
Molecular weight: 222
m/z	intensity
27	50
29	19
36	54
38	56
39	105
41	11
43	22
44	270
50	115
51	109
55	31
62	71
63	172
73	63
74	56
75	169
76	67
77	254
87	53
88	35
89	999
90	79
111	161
113	131
114	56
115	97
116	70
123	66
124	473
125	151
126	171
127	54
139	192
140	654
141	440
142	273
143	134
144	52
149	13
150	62
151	520
152	100
153	185
171	84
177	37
179	35
187	67
207	20
222	309
223	35
224	102
