Mass Spectrum: Butan-2,3-dione, dioxime, O,O'-bis(2-chloroethyl)-
Formula: C8H14Cl2N2O2
CAS: 351372-07-1
Molecular weight: 240
m/z	intensity
35	3
36	7
37	0
38	5
39	28
40	51
41	89
42	999
43	111
44	11
45	3
46	0
47	3
48	4
49	126
50	19
51	44
52	14
53	21
54	69
55	45
56	25
57	80
58	588
59	15
61	8
63	551
65	192
66	12
67	44
68	95
69	28
70	8
71	11
72	13
73	2
75	2
76	55
77	6
78	20
79	5
80	5
81	99
82	58
83	18
84	36
85	12
90	1
92	6
93	28
94	1
95	17
96	3
97	33
98	54
99	176
100	15
103	3
104	28
105	3
106	11
108	1
109	5
110	1
111	0
112	9
113	1
114	0
115	28
116	16
118	5
119	43
120	292
121	34
122	100
123	4
125	6
134	2
135	33
136	3
146	1
147	22
148	0
149	7
150	0
160	4
161	236
162	17
163	80
164	6
171	6
177	21
178	330
179	27
180	97
181	5
190	0
191	1
205	2
239	0
240	326
241	34
242	210
243	20
244	37
245	1
