Mass Spectrum: Benzamide, N-[2-(1-oxopropyl)phenyl]-
Formula: C16H15NO2
CAS: 351342-74-0
Molecular weight: 253
m/z	intensity
37	0
38	4
39	15
40	3
41	3
42	1
43	2
44	1
50	23
51	96
52	12
53	3
55	4
57	7
61	0
62	4
63	20
64	25
65	28
66	3
67	0
69	0
70	0
74	7
75	10
76	29
77	570
78	42
79	3
80	0
84	2
86	0
87	0
88	0
89	5
90	12
91	18
92	49
93	7
94	1
98	0
101	0
102	2
103	10
105	999
106	71
107	4
112	1
113	0
114	0
115	2
116	0
117	3
118	3
119	27
120	19
121	2
128	1
130	8
131	1
132	1
133	3
139	3
140	2
141	0
146	39
147	4
148	17
149	2
150	0
151	0
152	1
153	0
166	4
167	7
168	1
170	0
176	0
177	0
178	1
179	1
180	0
181	0
194	0
195	3
196	204
197	30
198	2
204	0
206	0
210	0
222	0
224	829
225	121
226	13
227	0
234	0
235	0
236	0
253	199
254	35
255	2
