Mass Spectrum: 1-(3,5-Dimethyl-1-adamantanoyl)semicarbazide
Formula: C14H23N3O2
CAS: 351327-47-4
Molecular weight: 265
m/z	intensity
39	114
41	169
42	20
44	999
45	23
46	2
50	2
51	13
52	7
53	50
55	113
56	27
57	11
58	2
59	9
60	4
61	1
62	1
63	4
65	30
66	9
67	30
68	8
69	17
70	2
71	1
72	1
74	5
75	2
77	55
78	15
79	55
80	7
81	12
82	2
83	3
85	3
89	2
91	93
92	13
93	40
94	6
95	8
102	7
103	5
104	2
105	28
106	12
107	115
108	11
109	1
115	3
116	2
117	3
118	1
119	8
120	3
121	11
122	2
133	2
135	1
139	1
147	2
148	2
149	1
161	1
162	2
163	84
164	9
191	1
222	1
265	1
