Mass Spectrum: Pregn-5-en-20-one, 12-(acetyloxy)-3,8,14,17-tetrahydroxy-, (3.beta.,12.beta.,14.beta.,17.alpha.)-
Formula: C23H34O7
CAS: 3513-02-8
Molecular weight: 422
m/z	intensity
26	86
27	617
28	267
29	758
31	306
39	465
40	72
41	999
42	362
43	999
44	241
45	306
51	72
53	267
54	65
55	999
56	241
57	681
58	51
60	103
61	163
65	163
66	65
67	451
68	72
69	344
70	124
71	203
77	422
78	120
79	599
80	86
81	422
82	120
83	232
84	86
85	232
91	827
92	198
93	456
94	103
95	427
96	151
97	332
98	65
99	103
100	65
103	82
104	51
105	827
106	198
107	365
108	122
109	306
110	155
111	370
112	65
113	727
114	69
115	155
116	60
117	206
118	65
119	344
120	603
121	551
122	163
123	306
124	100
125	155
126	141
127	103
128	258
129	206
130	86
131	224
132	65
133	175
134	86
135	198
136	94
137	143
138	206
139	206
140	65
141	137
142	77
143	186
144	82
145	365
146	103
147	382
148	77
149	89
151	79
152	82
153	103
155	124
157	215
158	79
159	237
160	69
161	258
162	120
163	262
164	69
165	146
166	51
167	74
169	86
171	124
173	94
174	69
175	141
177	72
178	51
179	65
180	124
181	155
182	69
183	106
185	60
187	51
189	65
191	43
193	69
195	65
197	72
199	60
201	43
205	51
206	51
207	51
208	34
209	51
211	51
213	31
215	51
217	34
221	43
222	34
223	103
224	39
225	51
227	43
231	51
233	34
237	43
239	34
240	29
241	69
243	34
247	36
249	20
251	31
255	43
265	137
266	51
267	36
268	20
269	20
283	318
284	77
285	43
301	310
302	69
303	20
308	17
311	31
318	51
319	465
320	100
326	27
327	13
328	19
329	22
344	51
345	12
346	46
361	12
362	34
378	12
379	206
380	43
404	12
406	8
422	5
