Mass Spectrum: Thiourea, 1,1-dicyclohehyl-3-(3-chloro-4-fluorophenyl)-
Formula: C19H26ClFN2S
CAS: 351425-21-3
Molecular weight: 368
m/z	intensity
33	33
34	8
36	7
37	17
39	170
41	637
43	162
44	156
45	8
50	54
51	12
53	102
55	776
56	509
57	44
58	17
59	8
60	17
61	17
62	20
63	21
64	4
65	9
67	95
68	68
69	42
70	60
72	23
74	57
75	19
76	9
77	17
79	76
81	251
82	111
83	231
84	14
85	6
86	5
87	5
91	12
93	42
94	110
96	42
98	999
100	120
101	7
102	1
107	3
108	63
109	43
110	41
111	13
112	5
115	3
116	2
117	14
119	10
120	6
124	13
125	32
127	2
129	157
131	56
132	2
136	23
138	772
139	58
140	12
142	100
143	22
145	346
147	99
148	7
151	4
152	68
153	11
154	2
155	22
156	10
157	5
159	3
160	10
161	7
162	2
167	2
168	10
169	16
171	38
172	3
173	10
180	36
181	95
182	11
183	3
184	2
185	12
187	395
189	185
190	19
191	1
203	5
205	1
207	3
224	26
225	2
229	2
253	2
285	141
286	33
287	54
288	2
335	5
367	40
368	111
369	31
370	35
371	4
