Mass Spectrum: Thiourea, 1-(4-bromophenyl)-3-[2-(1-cyclohexenyl)ethyl]-
Formula: C15H19BrN2S
CAS: 351436-83-4
Molecular weight: 338
m/z	intensity
33	39
34	19
36	3
39	569
41	999
43	186
44	169
45	32
47	3
50	123
51	139
52	103
53	336
55	447
56	42
57	21
59	39
60	121
61	19
62	32
63	151
64	118
65	322
67	645
68	39
69	23
70	8
72	96
73	18
74	95
75	107
76	170
77	331
79	964
80	193
81	187
82	44
84	6
90	101
91	303
92	272
93	519
94	77
95	60
96	23
97	3
99	2
102	15
103	4
104	15
105	45
107	133
108	335
109	102
110	18
117	3
118	24
119	23
121	2
122	14
123	13
124	23
125	8
134	79
135	151
136	47
143	5
145	9
150	40
151	44
152	7
153	3
155	126
157	103
162	4
163	70
168	95
171	819
172	158
173	645
174	44
182	12
183	2
184	27
187	35
188	37
189	20
190	33
197	72
198	24
199	58
209	16
211	23
212	2
213	93
214	81
215	67
216	91
227	8
229	306
230	364
231	486
232	315
233	244
234	30
235	3
243	5
244	8
245	3
253	2
255	200
257	233
258	17
259	20
279	2
305	95
306	35
307	83
308	15
309	22
311	28
337	19
338	319
339	73
340	267
341	43
342	7
