Mass Spectrum: Urea, N-hydroxy-N-[1-(2-furyl)-2-nitroethyl]-N'-phenyl-
Formula: C13H13N3O5
CAS: 351464-55-6
Molecular weight: 291
m/z	intensity
33	23
34	2
36	7
37	92
38	215
39	812
40	135
41	82
42	51
43	44
44	62
45	21
46	36
48	3
49	19
50	114
51	227
52	118
53	211
54	57
55	225
56	25
57	14
58	6
59	16
60	18
61	47
62	100
63	302
64	273
65	664
66	268
67	47
68	140
69	37
70	11
71	17
72	2
73	7
74	17
75	15
77	544
78	91
79	27
80	44
81	106
83	387
84	26
85	9
86	3
87	3
88	3
89	3
90	15
91	202
92	451
93	529
94	999
95	116
96	200
97	19
98	4
99	1
100	1
101	0
102	0
103	1
104	5
105	13
106	9
107	10
108	61
109	68
110	92
111	115
112	47
113	8
114	10
115	2
116	0
117	3
119	797
120	363
121	39
122	85
123	12
124	10
125	113
126	132
127	10
128	4
129	1
130	2
131	1
132	1
133	3
134	12
135	33
136	123
137	17
139	513
140	352
141	28
142	4
143	1
144	2
145	2
146	1
147	2
149	6
150	1
152	380
153	30
154	5
155	13
156	3
157	1
158	1
159	1
160	1
161	0
162	3
163	1
164	0
165	0
166	0
167	1
168	0
169	0
170	1
171	2
172	32
173	2
174	1
178	0
181	0
182	0
183	0
184	1
185	2
186	2
187	0
195	0
196	0
197	1
199	0
200	1
211	0
213	1
214	3
215	0
219	0
225	0
226	1
227	7
228	9
229	5
230	1
231	0
242	0
257	0
271	0
274	52
275	7
276	0
290	0
291	22
292	2
293	0
