Mass Spectrum: 3-Isoxazolecarboperoxoic acid, 5-phenyl-, 1,1-dimethylethyl ester
Formula: C14H15NO4
CAS: 35145-87-0
Molecular weight: 261
m/z	intensity
38	31
39	91
41	184
42	48
43	631
44	999
50	72
51	163
56	24
57	166
58	213
59	799
60	36
74	24
76	23
78	32
106	49
116	25
142	33
145	133
172	65
205	63
217	43
261	22
