Mass Spectrum: Propanamide, 2-methyl-N-[3-(2,3-dimethylbenzoyl)phenyl]-
Formula: C19H21NO2
CAS: 351424-03-8
Molecular weight: 295
m/z	intensity
33	1
34	1
37	2
38	9
39	97
40	18
41	198
43	999
44	29
45	4
46	0
50	11
51	25
52	13
53	19
54	3
55	15
56	2
57	5
58	1
59	0
60	0
61	0
62	5
63	36
64	38
65	57
66	6
67	1
69	9
70	13
71	236
72	10
73	1
74	3
75	8
76	23
77	135
78	39
79	116
80	7
81	2
82	5
83	14
84	2
85	0
86	0
87	1
88	2
89	13
90	33
91	72
92	64
93	6
94	0
95	0
97	1
98	0
99	0
100	0
101	2
102	12
103	85
104	31
105	213
106	19
107	1
109	0
111	147
112	8
113	8
114	1
115	9
116	2
117	6
118	18
119	34
120	79
121	5
122	0
125	0
126	2
127	5
128	7
129	4
130	2
131	4
133	494
134	45
135	2
137	0
139	5
140	2
141	4
142	1
143	1
144	1
145	1
146	25
147	3
148	0
149	1
150	1
151	5
152	17
153	12
154	6
155	3
156	1
157	0
158	0
159	0
160	0
161	0
162	2
163	2
164	3
165	20
166	11
167	8
168	3
169	4
170	1
171	1
172	0
174	1
175	0
176	1
177	2
178	10
179	11
180	34
181	31
182	9
183	2
184	0
188	3
189	1
190	10
191	9
192	9
193	4
194	8
195	5
196	6
197	13
198	2
199	0
203	0
204	1
205	2
206	13
207	4
208	17
209	31
210	155
211	26
212	2
220	0
222	2
223	3
225	913
226	155
227	15
228	21
229	2
230	1
236	1
237	0
238	0
250	0
251	1
252	10
253	1
255	1
256	0
259	0
266	2
267	0
278	0
279	0
280	1
281	0
293	0
295	244
296	49
297	6
298	0
