Mass Spectrum: Diazene, methylphenyl-, 1-oxide, (Z)-
Formula: C7H8N2O
CAS: 35150-74-4
Molecular weight: 136
m/z	intensity
51	200
64	290
65	999
77	350
78	80
91	300
121	300
136	280
137	23
138	0
