Mass Spectrum: Diazene, methylphenyl-, 1-oxide, (E)-
Formula: C7H8N2O
CAS: 35150-75-5
Molecular weight: 136
m/z	intensity
51	340
64	250
65	790
77	999
78	170
91	390
121	210
136	570
