Mass Spectrum: Diazene, ethylphenyl-, 1-oxide, (E)-
Formula: C8H10N2O
CAS: 35150-78-8
Molecular weight: 150
m/z	intensity
51	200
64	160
65	999
77	620
78	60
91	150
121	260
150	250
