Mass Spectrum: Diazene, 1-ethyl-2-phenyl-, 1-oxide, (Z)-
Formula: C8H10N2O
CAS: 35150-77-7
Molecular weight: 150
m/z	intensity
51	230
64	160
65	999
77	620
78	80
91	140
108	30
121	170
150	240
