Mass Spectrum: 2-Pyrrolidinecarbonitrile, 2,3,3-trimethyl-5-oxo-
Formula: C8H12N2O
CAS: 35167-49-8
Molecular weight: 152
m/z	intensity
25	1
26	12
27	83
28	63
29	62
30	11
31	2
34	1
36	1
37	7
38	15
39	124
40	40
41	270
42	129
43	31
44	11
45	2
46	1
47	1
48	1
49	2
50	10
51	20
52	27
53	70
54	24
55	84
56	999
57	105
58	8
59	2
60	3
61	2
62	2
63	5
64	6
65	14
66	19
67	52
68	38
69	287
70	39
71	8
72	1
73	2
74	1
75	2
76	2
77	19
78	5
79	6
80	7
81	12
82	21
83	66
84	11
85	5
86	2
87	1
88	1
89	1
90	1
91	3
92	9
93	15
94	114
95	21
96	10
97	10
98	4
99	2
100	1
101	1
102	1
103	2
104	1
105	2
106	2
107	5
108	9
109	20
110	42
111	24
112	119
113	10
114	1
115	1
117	3
118	1
119	3
120	4
121	13
122	5
123	5
124	7
125	15
126	12
127	2
128	1
129	1
130	1
131	1
133	1
134	1
135	3
136	3
137	45
138	5
139	1
140	2
141	1
143	1
144	0
145	1
147	1
149	3
150	1
151	5
152	200
153	36
154	5
