Mass Spectrum: Formamide, N,N'-hexamethylenebis-
Formula: C8H16N2O2
CAS: 35161-65-0
Molecular weight: 172
m/z	intensity
26	18
27	167
28	295
29	121
30	999
31	21
38	7
39	119
40	30
41	339
42	191
43	109
44	167
45	33
46	322
53	34
54	52
55	150
56	119
57	28
58	807
59	590
60	39
65	6
67	65
68	25
69	188
70	63
71	44
72	663
73	303
74	13
79	8
80	7
81	42
82	152
83	42
84	59
85	18
86	293
87	146
88	8
91	5
96	18
97	9
98	59
99	55
100	423
101	232
102	16
109	14
110	5
111	5
112	15
113	8
114	814
115	249
116	29
125	23
126	115
127	56
128	28
129	13
142	2
143	22
144	78
145	6
146	0
153	1
154	10
155	1
170	0
171	10
172	31
173	5
