Mass Spectrum: Guanosine, 2'-deoxy-N-(trifluoroacetyl)-, 3',5'-bis(trifluoroacetate)
Formula: C16H10F9N5O7
CAS: 35170-11-7
Molecular weight: 555
m/z	intensity
50	467
51	671
52	98
53	203
54	54
55	88
56	27
57	162
58	6
59	10
66	13
67	44
68	54
69	633
70	88
71	47
77	3
78	57
79	101
80	40
81	999
82	67
83	74
84	16
85	40
86	47
91	16
93	6
94	10
95	155
96	20
97	179
98	33
99	67
107	3
108	6
109	44
110	6
111	37
112	20
113	54
114	27
115	3
134	16
135	54
136	27
139	10
153	27
155	40
165	6
167	13
169	23
177	10
178	145
179	13
181	6
194	27
228	6
247	467
248	81
258	10
274	6
319	6
337	122
338	23
372	20
407	13
441	27
442	13
486	6
536	6
555	33
556	6
