Mass Spectrum: Adenosine, 2'-deoxy-N-(trifluoroacetyl)-, 3',5'-bis(trifluoroacetate)
Formula: C16H10F9N5O6
CAS: 35170-10-6
Molecular weight: 539
m/z	intensity
15	2
20	1
26	1
27	21
28	35
29	23
30	1
31	5
33	3
38	3
39	21
40	7
41	28
42	10
43	31
44	9
45	15
46	1
47	11
50	9
51	13
52	8
53	143
54	42
55	27
56	5
57	4
58	1
59	12
60	1
63	1
64	6
65	16
66	18
67	10
68	16
69	308
70	7
71	8
72	1
73	9
74	1
76	1
77	6
78	9
79	9
80	21
81	999
82	59
83	6
84	1
85	2
87	1
88	1
89	4
90	2
91	26
92	24
93	18
94	5
95	5
96	11
97	42
98	2
99	28
100	3
102	1
103	2
104	3
105	4
106	7
107	19
108	33
109	5
110	3
111	1
112	1
113	1
114	5
115	7
116	1
117	3
118	28
119	131
120	16
121	4
122	2
123	1
124	1
125	4
126	1
127	4
128	1
129	2
130	2
131	4
132	3
133	9
134	15
135	25
136	10
137	12
138	2
139	6
140	1
141	1
142	1
143	1
144	5
145	41
146	13
147	3
148	4
149	3
150	2
151	3
153	6
155	1
156	2
157	5
158	2
159	2
160	10
161	19
162	564
163	56
164	4
165	4
166	2
167	6
168	1
169	2
170	1
171	1
172	3
173	3
174	4
175	4
176	3
177	2
178	1
181	1
182	1
183	2
184	3
185	1
186	2
187	3
188	34
189	4
190	1
191	1
193	6
194	14
195	3
196	1
199	2
200	6
201	1
202	1
203	1
204	5
205	1
206	1
210	2
212	13
213	2
214	2
215	1
216	2
217	1
222	1
228	1
229	4
230	6
231	292
232	258
233	24
234	2
238	1
240	1
241	5
242	2
244	1
245	1
257	1
258	20
259	3
260	44
261	5
262	1
269	4
270	4
271	1
282	1
283	1
284	1
285	1
286	9
287	1
298	2
310	2
311	21
312	12
313	2
314	1
326	1
328	4
329	1
382	1
383	4
384	1
412	4
413	1
425	1
426	16
427	3
442	36
443	6
444	1
470	2
520	1
539	12
540	2
