Mass Spectrum: Benzeneacetic acid, 2-phenylaminosulfonyl-4,5-dimethoxy-
Formula: C16H17NO6S
CAS: 35189-71-0
Molecular weight: 351
m/z	intensity
26	2
27	16
28	16
29	14
30	2
31	4
36	3
37	5
38	21
39	116
40	17
41	36
42	9
43	25
44	40
45	25
46	3
48	6
50	29
51	58
52	26
53	52
54	11
55	28
56	9
57	19
58	2
59	9
60	6
61	5
63	80
64	83
65	159
66	73
67	29
68	7
69	35
70	6
71	8
72	2
73	7
74	10
75	14
76	21
77	113
78	40
79	47
80	12
81	25
82	7
83	11
84	7
85	7
86	2
87	5
88	6
89	21
90	21
91	48
92	188
93	999
94	118
95	48
96	20
97	13
98	7
99	3
100	2
101	3
102	4
103	5
104	89
105	31
106	44
107	83
108	38
109	45
110	10
111	12
112	5
113	4
114	2
115	11
116	6
117	6
118	5
119	38
120	22
121	29
122	29
123	62
124	75
125	29
126	11
127	11
128	9
129	10
130	4
131	3
132	10
133	10
134	21
135	66
136	24
137	36
138	34
139	124
140	20
141	9
142	6
144	6
145	2
146	2
147	3
148	6
149	81
150	460
151	310
152	52
153	28
154	41
155	21
156	9
157	5
158	2
160	2
161	3
162	2
163	11
164	31
166	34
167	218
168	35
169	70
170	19
175	3
176	4
177	5
178	8
179	88
180	26
181	19
182	23
183	39
184	14
185	34
186	6
187	3
193	20
194	134
195	53
196	90
197	70
198	47
199	24
202	59
203	6
204	4
207	2
208	8
209	9
210	60
211	41
212	26
213	30
214	23
215	113
216	17
217	18
222	4
223	5
224	30
225	20
226	53
227	20
228	25
229	7
231	761
232	89
233	44
234	6
240	102
241	46
242	74
243	117
244	29
245	17
254	279
255	55
256	28
257	16
258	48
259	16
267	9
268	6
269	68
270	27
272	13
273	4
274	2
284	2
285	1
286	3
287	6
288	15
289	11
290	7
291	2
304	61
305	88
306	26
307	58
309	4
316	6
317	5
318	35
319	11
320	4
321	2
331	12
332	31
333	847
334	169
335	18
351	915
352	173
353	61
354	9
