Mass Spectrum: 7-Amino-S-triazolo(1,5-a)pyrimidin-5(4H)-one
Formula: C5H5N5O
CAS: 35186-69-7
Molecular weight: 151
m/z	intensity
38	29
39	67
40	259
41	369
42	80
43	78
44	47
45	2
51	7
52	14
53	77
54	113
55	169
56	13
57	221
58	3
65	3
66	8
67	36
68	443
69	52
70	8
76	10
77	2
78	1
82	13
84	999
85	37
95	18
96	1
101	2
107	3
110	6
111	23
114	0
122	5
123	15
124	18
132	1
133	3
145	1
151	544
152	43
153	1
154	1
