Mass Spectrum: 11-Dodecen-2-one, 7,7-dimethyl-
Formula: C14H26O
CAS: 35194-22-0
Molecular weight: 210
m/z	intensity
41	440
42	40
43	980
44	30
45	20
53	60
54	40
55	670
56	90
57	120
58	330
59	440
60	20
65	10
66	20
67	130
68	30
69	999
70	80
71	410
72	30
73	10
77	10
79	20
80	10
81	170
82	130
83	560
84	50
85	90
86	10
91	10
93	20
94	10
95	160
96	30
97	80
98	20
99	100
100	70
101	20
107	20
108	10
109	50
110	60
111	180
112	30
113	20
121	30
122	10
123	560
124	70
125	10
135	20
137	20
139	10
140	10
141	100
142	10
151	10
152	40
153	10
169	10
177	30
