Mass Spectrum: Azetidine, 1-cyclohexyl-
Formula: C9H17N
CAS: 35196-98-6
Molecular weight: 139
m/z	intensity
14	14
18	3
26	8
27	109
28	124
29	99
30	54
31	1
32	0
38	4
39	131
40	23
41	392
42	249
43	58
44	25
45	3
50	2
51	10
52	7
53	46
54	118
55	433
56	999
57	617
58	694
59	25
63	1
65	8
66	6
67	101
68	77
69	45
70	33
71	13
72	5
77	12
78	2
79	28
80	11
81	55
82	91
83	64
84	64
85	28
86	1
92	7
93	3
94	11
95	7
96	564
97	61
98	57
99	5
108	3
109	1
110	125
111	20
112	10
122	1
124	408
125	38
126	4
132	4
133	0
134	1
138	45
139	110
140	19
141	1
