Mass Spectrum: 8-Nonenoic acid, ethyl ester
Formula: C11H20O2
CAS: 35194-39-9
Molecular weight: 184
m/z	intensity
41	800
42	180
43	210
44	20
45	180
51	10
52	10
53	90
54	190
55	840
56	110
57	60
58	10
60	410
61	340
65	10
66	10
67	190
68	230
69	650
70	250
71	90
72	280
73	30
77	70
79	60
80	30
81	130
82	60
83	70
84	210
85	20
86	10
87	50
88	999
89	60
93	40
94	160
95	200
96	480
97	200
98	20
99	20
100	10
101	390
102	40
109	80
110	90
111	10
113	20
114	20
115	50
116	10
120	20
121	180
122	10
123	40
127	20
128	20
129	10
137	10
138	500
139	180
140	10
141	20
142	50
143	20
155	20
184	20
