Mass Spectrum: .beta.-GBA
Formula: C5H11N3O2
CAS: 352-83-0
Molecular weight: 145
m/z	intensity
42	476
43	571
44	160
45	23
56	40
57	34
58	9
68	12
69	112
70	184
84	124
85	10
86	58
88	10
95	58
98	9
112	999
113	60
126	31
127	241
