Mass Spectrum: Cyclobutane, 2-chloro-1,1,2-trifluoro-3-(1,1,2,2-tetrafluorobutyl)-, trans-
Formula: C8H8ClF7
CAS: 35207-98-8
Molecular weight: 272
m/z	intensity
27	24
29	19
31	10
51	120
57	25
59	75
64	158
69	40
75	24
77	138
79	999
80	33
91	10
93	16
95	45
108	25
110	145
113	34
116	84
118	28
129	520
130	17
131	148
153	10
155	3
157	10
173	35
185	50
187	35
193	30
195	11
208	35
210	12
217	6
237	5
253	1
255	0
272	0
274	0
