Mass Spectrum: Cyclobutane, 2-chloro-1,1,2-trifluoro-3-(1,1,2,2-tetrafluorobutyl)-, cis-
Formula: C8H8ClF7
CAS: 35207-99-9
Molecular weight: 272
m/z	intensity
27	45
29	31
31	11
51	153
57	31
59	90
64	188
69	44
75	25
77	142
79	999
80	33
91	10
93	17
95	37
108	20
110	129
113	21
116	75
118	24
129	450
130	16
131	137
173	24
185	20
187	24
193	13
195	4
208	22
210	7
217	2
237	2
253	1
255	0
272	0
274	0
