Mass Spectrum: 1-Octene, 3,3,4,4,7,7,8,8,8-nonafluoro-
Formula: C8H7F9
CAS: 35208-07-2
Molecular weight: 274
m/z	intensity
27	15
31	5
33	5
39	12
51	470
57	23
59	13
64	36
65	10
69	56
75	30
77	999
78	33
83	10
89	10
95	43
109	20
113	61
115	12
119	5
127	71
133	11
145	10
155	8
157	17
177	170
185	14
197	91
205	22
215	4
235	18
255	4
274	29
