Mass Spectrum: Cyclobutane, 1,1,2,2-tetrafluoro-3-(1,1,2,2-tetrafluorobutyl)-
Formula: C8H8F8
CAS: 35207-97-7
Molecular weight: 256
m/z	intensity
27	50
29	50
31	12
51	210
57	30
59	141
64	828
65	18
69	50
75	30
77	221
79	999
80	33
91	60
95	50
100	65
108	30
110	68
113	500
114	17
127	17
157	10
173	10
177	67
187	24
191	4
192	5
217	8
227	6
228	5
237	3
241	2
256	1
