Mass Spectrum: Cyclobutane, 2-chloro-1,1,2-trifluoro-3-(1,1,2,2-tetrafluoro-3-butenyl)-, trans-
Formula: C8H6ClF7
CAS: 35207-95-5
Molecular weight: 270
m/z	intensity
27	60
31	25
51	220
57	63
64	170
69	70
75	58
77	999
78	33
93	27
95	27
108	300
109	13
113	17
116	80
118	27
121	20
129	810
130	28
131	280
132	10
145	19
153	12
155	4
171	18
185	32
190	11
193	10
195	16
206	6
208	2
215	10
235	10
251	2
253	0
270	0
272	0
