Mass Spectrum: 2(1H)-Pentalenone, 3,3a,4,6a-tetrahydro-
Formula: C8H10O
CAS: 35200-12-5
Molecular weight: 122
m/z	intensity
25	3
26	44
27	234
28	28
29	13
30	0
31	2
33	0
34	0
35	0
36	1
37	21
38	55
39	370
40	61
41	111
42	41
43	62
44	4
45	9
46	9
47	2
48	1
49	9
50	65
51	120
52	78
53	103
54	30
55	16
56	1
57	2
59	0
60	1
61	10
62	20
63	43
64	9
65	88
66	121
67	32
68	19
69	1
71	0
72	0
73	4
74	8
75	11
76	5
77	301
78	115
79	999
80	629
81	50
82	5
83	0
85	1
86	1
87	0
89	3
90	1
91	70
92	11
93	73
94	48
95	12
96	1
102	0
103	8
104	15
105	4
106	0
107	58
108	4
115	0
119	0
120	0
121	20
122	393
123	32
124	1
