Mass Spectrum: Cyclobutane, 1,1'-(1,1,2,2-tetrafluoro-1,2-ethanediyl)bis[2,2,3,3-tetrafluoro-
Formula: C10H6F12
CAS: 35207-94-4
Molecular weight: 354
m/z	intensity
27	30
31	20
51	40
57	17
64	999
65	23
69	40
75	20
77	140
95	35
100	100
108	17
113	250
127	15
145	10
157	15
171	12
177	48
221	13
227	8
235	7
254	5
295	3
315	4
335	10
354	0
