Mass Spectrum: L-Tryptophan, N,N-dimethyl-, methyl ester
Formula: C14H18N2O2
CAS: 35214-77-8
Molecular weight: 246
m/z	intensity
40	64
42	124
44	52
45	84
50	52
51	44
52	12
53	52
54	52
56	72
58	52
63	12
65	32
66	32
67	12
68	52
70	72
74	32
75	64
76	84
77	44
78	52
80	44
82	24
83	12
84	24
88	52
89	52
90	12
92	24
93	32
94	32
95	12
96	12
98	32
99	12
102	32
103	52
104	24
105	44
106	12
108	32
110	64
112	12
113	12
115	104
116	999
117	132
119	44
120	12
121	12
122	24
124	24
125	32
128	64
129	64
130	392
131	84
133	32
136	44
137	32
141	32
142	32
143	84
144	52
145	44
149	132
150	12
151	32
152	12
155	52
157	32
159	12
163	32
165	24
169	12
171	12
172	12
177	12
178	24
179	12
187	164
191	24
246	84
247	12
