Mass Spectrum: Cytidine, 2'-deoxy-N-(trifluoroacetyl)-, 3',5'-bis(trifluoroacetate)
Formula: C15H10F9N3O7
CAS: 35221-99-9
Molecular weight: 515
m/z	intensity
15	2
26	2
27	19
28	25
29	19
30	1
31	5
33	2
37	1
38	2
39	19
40	12
41	33
42	21
43	32
44	11
45	13
46	1
47	9
50	9
51	12
52	25
53	116
54	34
55	25
56	5
57	4
58	1
59	10
60	1
64	1
65	4
66	9
67	19
68	30
69	298
70	21
71	8
72	1
73	8
74	1
75	1
76	1
77	2
78	11
79	22
80	31
81	999
82	66
83	7
84	1
85	2
87	1
89	4
90	2
91	14
92	4
93	12
94	43
95	52
96	15
97	39
98	2
99	22
100	2
101	1
103	1
104	1
105	7
106	3
107	3
108	3
109	14
110	5
111	2
112	2
113	7
114	2
115	5
116	1
117	4
118	2
119	5
120	13
121	16
122	33
123	9
124	2
125	5
126	1
127	3
128	1
129	1
130	1
131	3
132	1
133	3
134	3
135	10
136	7
137	10
138	798
139	58
140	6
141	1
142	2
143	5
144	1
145	1
146	1
147	6
148	4
149	3
150	4
151	1
152	3
153	8
154	1
155	1
157	1
159	1
160	19
161	5
162	3
163	4
164	34
165	11
166	7
167	8
168	1
169	2
170	1
174	1
175	4
176	6
177	2
178	1
179	5
180	2
181	1
183	1
188	2
189	1
190	2
191	12
192	2
193	9
194	26
195	8
196	1
203	1
204	1
206	2
207	18
208	203
209	16
210	1
215	1
218	2
219	1
220	1
221	6
222	1
232	1
234	5
235	1
245	2
246	2
249	1
262	2
274	1
286	1
287	1
288	3
289	1
290	4
309	2
359	3
388	1
402	4
403	1
446	32
447	6
448	1
515	2
