Mass Spectrum: 6-Isopropyl-2,3-dihydropyran-2,4-dione
Formula: C8H10O3
CAS: 35236-83-0
Molecular weight: 154
m/z	intensity
26	35
27	171
28	99
29	38
38	28
39	140
40	15
41	171
42	130
43	340
44	17
53	38
55	140
69	918
70	58
71	117
83	17
84	40
97	61
111	999
112	99
113	76
126	130
127	17
154	268
155	56
