Mass Spectrum: Pyrimidine, 5-ethoxy-2-methyl-
Formula: C7H10N2O
CAS: 35231-57-3
Molecular weight: 138
m/z	intensity
26	214
27	548
28	439
29	358
39	43
40	52
41	69
42	999
43	45
44	16
51	43
52	140
53	85
54	291
55	477
56	21
67	23
68	23
81	26
82	162
83	486
84	21
93	23
109	33
110	954
111	64
123	14
138	739
139	69
