Mass Spectrum: Benzo[b]dioxane, 3,3-dimethyl-2-(1-ethylamino)ethyl-
Formula: C14H21NO2
CAS: 3523-36-2
Molecular weight: 235
m/z	intensity
33	0
37	6
38	23
39	36
40	24
41	59
42	50
43	37
44	134
45	4
46	1
50	10
51	18
52	37
53	20
54	7
55	34
56	19
57	6
58	4
59	1
60	0
61	0
62	1
63	8
64	5
65	14
66	4
67	14
68	4
69	4
70	20
72	999
73	43
74	1
75	1
76	1
77	9
78	2
79	7
80	12
81	18
82	11
83	8
84	4
85	2
86	2
87	0
88	0
89	1
90	1
91	5
92	2
93	2
94	4
95	1
96	3
97	1
98	0
99	0
100	1
101	0
102	0
103	2
104	0
105	3
106	1
107	3
108	2
109	13
110	10
111	2
112	14
113	1
114	0
115	1
116	0
117	0
118	0
119	1
120	2
121	17
122	1
123	0
124	0
125	0
126	3
127	0
131	1
132	0
133	1
134	1
135	9
136	1
145	0
146	0
147	3
148	3
149	1
150	0
161	2
163	7
164	6
165	0
175	0
176	0
182	0
190	0
202	0
220	0
226	0
227	0
228	0
229	0
232	0
233	0
235	14
236	2
237	0
239	0
