Mass Spectrum: 1-Benzyl-1,2,3,4-tetrahydro-4-oxoquinazoline
Formula: C15H14N2O
CAS: 35242-45-6
Molecular weight: 238
m/z	intensity
26	1
27	5
28	13
29	1
30	1
37	2
38	3
39	22
40	2
41	9
42	1
43	2
44	2
50	14
51	30
52	7
53	2
55	2
56	1
57	3
59	1
61	1
62	5
63	21
64	11
65	104
66	6
67	1
69	1
71	2
73	1
74	4
75	9
76	26
77	59
78	23
79	3
81	1
82	1
83	2
85	1
87	1
88	1
89	20
90	24
91	999
92	260
93	16
95	1
97	5
98	2
99	1
100	1
101	9
102	9
103	13
104	50
105	29
106	17
107	2
108	1
109	1
111	1
115	1
116	1
117	5
118	14
119	10
120	3
125	1
126	1
127	2
128	34
129	9
130	27
131	6
132	46
133	12
134	4
135	1
139	1
145	13
146	53
147	450
148	42
149	3
150	1
151	7
152	21
153	8
154	2
160	23
161	8
162	1
165	5
166	2
167	1
177	1
178	5
179	7
180	154
181	49
182	6
191	1
192	3
193	4
194	4
195	1
205	1
206	3
207	2
208	15
209	9
210	15
211	3
219	3
220	3
221	1
235	12
236	41
237	161
238	434
239	74
240	7
