Mass Spectrum: 1-(N-Phenylcarbamyl)-2-morpholinocyclohexene
Formula: C17H22N2O2
CAS: 35248-35-2
Molecular weight: 286
m/z	intensity
41	290
42	145
43	155
44	26
45	34
47	12
48	4
49	35
50	17
51	104
52	27
53	46
54	25
55	244
56	99
57	135
58	13
59	4
60	2
61	2
62	5
63	25
64	26
65	138
66	105
67	75
68	49
69	114
70	55
71	9
72	10
73	7
74	7
75	3
76	6
77	134
78	16
79	34
80	6
81	28
82	3
83	32
84	23
85	34
86	97
87	79
88	18
89	2
90	3
91	26
92	52
93	999
94	114
95	32
96	11
97	28
98	112
99	4
100	34
101	3
102	2
103	9
104	11
105	5
106	11
107	4
108	5
109	5
110	2
111	3
112	2
113	8
114	131
115	11
116	2
117	5
118	5
119	12
120	26
121	10
122	3
123	3
124	3
125	38
126	5
127	2
128	4
129	2
130	6
131	2
132	6
133	2
134	7
135	10
136	2
138	1
139	3
143	2
144	1
146	3
148	25
149	4
154	1
156	4
157	1
158	1
160	4
161	7
162	1
163	1
164	2
166	6
167	1
170	2
172	1
182	2
187	5
188	11
189	4
193	2
194	5
200	1
206	1
217	101
218	24
219	3
285	1
286	2
287	1
