Mass Spectrum: (1S,4R,5S)-1-Methyl-4-(prop-1-en-2-yl)spiro[4.5]dec-7-ene-8-carbaldehyde
Formula: C15H22O
CAS: 352457-39-7
Molecular weight: 218
m/z	intensity
27	74
29	102
38	6
39	275
40	60
41	503
42	46
50	28
51	109
52	57
53	361
54	56
55	450
56	96
57	59
63	39
65	226
66	81
67	841
68	854
69	521
70	79
75	11
77	598
78	123
79	999
80	111
81	295
82	345
83	98
84	21
85	22
89	13
90	13
91	774
92	129
93	408
94	110
95	223
96	99
97	25
103	71
104	33
105	960
106	186
107	841
108	186
109	336
110	79
115	100
116	42
117	121
118	34
120	121
121	316
122	147
123	292
124	50
129	46
130	17
131	101
132	61
133	956
134	450
135	452
136	244
137	38
143	45
144	29
145	70
146	106
147	388
148	251
149	91
157	35
158	46
160	20
161	119
162	123
163	24
172	13
174	19
175	275
176	233
177	58
185	73
186	10
188	13
190	51
200	66
201	11
203	94
204	14
218	213
219	32
