Mass Spectrum: Pentaerythrityl triacrylate
Formula: C14H18O7
CAS: 3524-68-3
Molecular weight: 298
m/z	intensity
17	1
18	4
26	6
27	90
28	12
29	6
30	2
31	7
39	7
40	4
41	12
42	5
43	5
44	9
45	1
53	6
54	14
55	999
56	52
57	11
66	1
67	9
68	26
69	16
70	15
71	9
72	3
73	35
74	1
78	1
79	3
80	37
81	98
82	117
83	27
84	5
85	8
86	1
87	6
94	2
95	42
96	60
97	12
98	7
99	14
100	4
101	1
105	2
106	6
107	3
108	45
109	8
110	5
111	10
112	3
113	1
122	2
123	8
124	39
125	34
126	102
127	114
128	8
129	1
134	3
135	2
136	16
137	3
138	1
139	5
140	18
141	21
142	14
143	1
145	1
151	1
152	26
153	19
154	47
155	5
169	5
171	8
178	2
180	3
181	3
195	2
196	119
197	12
198	4
199	1
208	10
209	1
211	2
224	1
225	31
226	4
227	3
250	1
267	1
268	2
280	1
281	11
282	2
296	1
297	1
