Mass Spectrum: Methoxycarbonyl isothiocyanate
Formula: C3H3NO2S
CAS: 35266-49-0
Molecular weight: 117
m/z	intensity
33	12
34	19
42	12
44	207
45	240
46	94
47	17
48	10
54	40
58	684
59	481
60	36
70	28
71	33
72	655
73	999
74	48
75	33
86	678
87	27
88	27
117	68
