Mass Spectrum: 2,6-Octadien-1-amine, 3,7-dimethyl-
Formula: C10H19N
CAS: 35278-77-4
Molecular weight: 153
m/z	intensity
27	158
28	272
29	155
30	367
38	11
39	237
40	51
41	999
42	197
43	224
44	81
50	14
51	42
52	21
53	145
54	39
55	101
56	94
57	365
58	52
63	11
65	44
66	24
67	199
68	360
69	548
70	645
71	130
72	14
77	75
78	17
79	121
80	239
81	124
82	220
83	382
84	311
85	41
91	85
92	102
93	561
94	88
95	55
96	461
97	46
105	52
106	16
107	76
108	24
109	18
110	62
111	12
119	14
121	220
122	39
123	25
124	11
136	92
137	12
138	117
139	13
152	13
153	54
154	7
