Mass Spectrum: 11-Dodecenol
Formula: C12H24O
CAS: 35289-31-7
Molecular weight: 184
m/z	intensity
26	6
27	176
29	304
30	6
31	193
33	0
37	0
38	2
39	187
41	853
42	150
43	252
44	33
45	188
46	4
50	1
51	7
52	5
53	70
54	356
55	999
56	167
57	111
58	80
59	26
60	1
63	0
65	13
66	55
67	514
68	527
69	400
70	82
71	94
72	16
73	13
74	0
77	10
78	3
79	32
80	27
81	432
82	639
83	219
84	72
85	54
86	13
87	3
88	0
89	1
91	4
92	1
93	16
94	18
95	294
96	342
97	104
98	23
99	21
100	8
101	0
104	0
105	2
106	0
107	8
108	9
109	129
110	142
111	32
112	10
113	7
114	5
119	1
120	0
121	8
122	13
123	56
124	78
125	19
126	6
127	5
128	1
133	1
134	0
135	5
136	4
137	33
138	51
139	6
140	6
141	3
142	0
143	0
147	1
148	0
149	2
150	1
151	5
152	1
153	1
154	0
155	0
156	2
163	0
164	2
165	5
166	36
167	5
168	2
169	2
181	0
182	2
184	6
185	0
