Mass Spectrum: 2,2-Dimethyl-3(2H)-furanone
Formula: C6H8O2
CAS: 35298-48-7
Molecular weight: 112
m/z	intensity
14	18
15	46
18	0
27	48
28	5
29	38
31	18
37	14
38	29
39	180
40	34
41	153
42	117
43	806
44	29
50	10
51	9
53	32
54	550
55	68
56	5
58	277
59	463
60	17
67	1
69	87
70	10
71	304
72	11
83	11
84	0
97	38
98	5
111	39
112	999
113	60
114	3
