Mass Spectrum: 2-Trichloroacetylpyrrolidine
Formula: C6H4Cl3NO
CAS: 35302-72-8
Molecular weight: 211
m/z	intensity
33	1
35	6
36	10
37	20
38	48
39	151
40	39
41	5
43	2
44	4
45	0
47	11
48	1
49	10
50	18
51	21
52	11
53	4
55	1
56	1
57	1
60	1
61	4
62	5
63	5
64	12
65	17
66	227
67	14
71	2
72	1
73	1
74	1
75	2
76	10
77	8
78	16
79	1
82	11
83	3
84	11
85	7
86	6
87	4
88	3
90	1
94	999
95	57
96	4
97	1
100	1
101	1
110	2
112	18
113	3
114	5
115	0
117	7
119	6
121	5
123	2
128	0
148	84
149	7
150	55
151	2
152	8
176	2
177	1
178	1
211	59
212	5
213	53
214	3
215	18
217	1
