Mass Spectrum: 2-Propenoic acid, 2-phenylethyl ester
Formula: C11H12O2
CAS: 3530-36-7
Molecular weight: 176
m/z	intensity
36	19
38	15
39	58
41	20
44	29
45	11
50	24
51	63
52	12
53	10
55	618
56	25
62	12
63	90
64	10
65	80
69	12
72	9
73	18
77	58
78	53
79	21
89	12
90	9
91	279
92	22
93	48
102	9
103	57
104	999
105	127
106	9
