Mass Spectrum: Cyclobutanol, 2-ethyl-
Formula: C6H12O
CAS: 35301-43-0
Molecular weight: 100
m/z	intensity
26	50
27	390
28	160
29	400
31	90
38	30
39	300
40	50
41	640
42	70
43	260
44	840
45	180
50	20
51	30
53	60
54	60
55	190
56	520
57	999
58	50
67	50
71	40
72	630
73	20
82	60
83	10
