Mass Spectrum: 4-Amino-3,5-dimethyl-1,2,4-triazole
Formula: C4H8N4
CAS: 3530-15-2
Molecular weight: 112
m/z	intensity
12	5
13	7
14	12
15	113
16	12
17	7
25	15
26	72
27	85
28	57
29	88
30	183
31	8
37	8
38	23
39	44
40	107
41	86
42	999
43	46
51	7
52	11
53	17
54	7
55	9
56	19
57	19
64	7
66	14
97	4
112	313
113	20
