Mass Spectrum: Hydroxyacetic acid, hydrazide
Formula: C2H6N2O2
CAS: 3530-14-1
Molecular weight: 90
m/z	intensity
27	22
28	200
29	331
30	126
31	999
32	955
41	24
42	46
43	61
44	66
45	45
55	17
57	14
59	16
60	14
62	65
69	15
72	14
73	12
90	65
91	6
92	2
