Mass Spectrum: Pregn-17(20)-en-3-ol, 20,21-[(methylborylene)bis(oxy)]-, (3.alpha.,5.alpha.)-
Formula: C22H35BO3
CAS: 35315-17-4
Molecular weight: 358
m/z	intensity
39	40
40	20
41	140
42	20
43	140
44	10
45	10
51	10
53	70
54	20
55	140
56	10
57	40
61	10
65	30
66	20
67	150
68	50
69	50
70	10
71	10
77	80
78	40
79	150
80	40
81	160
82	30
83	40
84	10
85	10
91	140
92	30
93	140
94	50
95	100
96	20
97	50
103	10
104	10
105	100
106	40
107	130
108	60
109	300
110	999
111	110
112	10
115	20
117	20
118	10
119	70
120	30
121	80
122	30
123	80
124	190
125	40
128	20
129	10
131	40
132	20
133	50
134	40
135	80
136	20
137	20
138	10
141	10
143	20
145	40
146	10
147	60
148	20
149	40
151	10
157	10
159	40
160	20
161	40
162	20
163	20
165	20
171	10
173	30
175	20
176	10
177	10
185	10
187	20
189	10
197	30
201	20
207	20
213	60
214	20
215	110
216	30
217	30
219	10
229	40
230	20
231	30
232	30
233	40
234	20
265	10
285	20
286	10
324	10
325	50
326	10
339	20
340	60
341	20
342	10
343	50
344	10
357	50
358	190
359	50
