Mass Spectrum: .alpha.-[O-Nitrophenyl]-p-trifluoromethylcinnamic acid
Formula: C16H10F3NO4
CAS: 35318-42-4
Molecular weight: 337
m/z	intensity
41	27
42	1
43	8
44	4
45	248
46	5
47	13
48	3
49	62
50	134
51	246
52	149
53	28
55	11
56	1
57	26
61	5
62	57
63	234
64	122
65	93
66	7
67	9
73	1
74	67
75	137
76	136
77	288
78	57
79	999
80	60
81	25
82	55
83	11
84	30
85	15
86	40
87	51
88	42
89	92
90	187
91	112
92	123
93	28
94	16
95	38
96	9
97	14
98	27
99	39
100	62
101	25
102	21
103	7
104	240
105	63
106	18
107	277
108	40
109	15
110	7
111	16
112	15
113	23
114	29
115	21
116	3
117	7
118	12
120	9
121	22
122	14
123	10
124	3
125	33
126	38
127	84
128	9
130	6
132	15
133	22
134	195
135	319
136	25
137	19
138	28
139	43
140	9
141	1
143	5
144	11
145	199
146	45
147	13
148	2
149	14
150	53
151	73
152	129
153	21
154	3
155	6
156	4
157	24
158	36
159	14
161	3
162	9
163	562
164	112
165	287
166	66
167	61
168	19
169	42
170	21
171	3
172	8
173	135
174	27
175	76
176	126
177	45
178	61
179	32
180	19
181	22
182	17
183	62
184	8
185	3
186	9
187	4
188	12
189	3
190	2
192	2
193	16
194	36
195	30
196	26
197	11
198	7
199	16
200	5
201	140
202	20
203	32
204	1
205	9
206	12
207	27
208	22
209	6
212	10
213	2
214	30
215	10
216	10
217	4
218	2
221	5
222	3
223	5
224	6
225	46
226	16
227	22
228	27
229	3
232	16
233	44
234	6
235	12
236	5
237	5
243	17
244	15
245	28
246	18
247	65
248	120
249	17
260	8
261	1
262	4
263	7
271	5
273	1
274	3
275	1
276	57
277	16
290	1
291	2
292	227
293	35
294	1
297	1
318	96
319	15
320	87
321	17
337	45
338	7
