Mass Spectrum: .alpha.-[O-Aminophenyl]-p-trifluoromethylcinnamic acid
Formula: C16H12F3NO2
CAS: 35315-49-2
Molecular weight: 307
m/z	intensity
41	34
42	6
43	2
44	2
45	72
47	3
49	38
50	52
51	86
52	33
53	6
54	3
57	13
62	24
63	70
64	21
65	43
66	5
69	999
70	8
71	3
74	19
75	42
76	20
77	27
78	9
81	16
82	60
84	25
86	22
87	19
88	20
89	139
90	139
91	52
92	3
93	23
94	4
95	6
96	69
97	3
98	5
99	10
100	154
101	12
102	7
104	16
105	28
106	12
107	40
109	3
110	34
111	8
112	3
113	6
114	63
115	18
116	42
117	68
118	171
119	131
120	8
121	19
122	3
125	4
126	8
127	10
131	380
132	11
133	6
135	14
139	7
143	1
144	286
145	41
150	22
151	12
152	2
161	7
162	21
163	19
164	30
165	119
166	24
167	2
169	41
175	3
176	16
181	21
183	14
190	26
191	23
192	18
193	57
194	18
214	16
219	128
220	34
221	4
222	16
233	26
239	1
240	12
242	16
248	1
260	12
261	154
262	111
263	19
264	1
269	2
270	11
283	2
288	178
289	180
290	27
306	20
307	198
308	31
