Mass Spectrum: Benzamide, N-(phenylmethoxy)-
Formula: C14H13NO2
CAS: 3532-25-0
Molecular weight: 227
m/z	intensity
39	51
41	9
42	7
43	9
50	72
51	165
52	36
62	19
63	29
64	17
65	89
66	29
73	7
74	29
75	21
76	38
77	516
78	68
79	29
89	7
90	4
91	999
92	99
103	31
104	19
105	599
106	128
107	31
108	24
121	126
122	77
123	7
210	104
211	7
227	101
228	19
