Mass Spectrum: 3-Furancarboxylic acid, 2-(methoxymethyl)-5-methyl-, methyl ester
Formula: C9H12O4
CAS: 35339-97-0
Molecular weight: 184
m/z	intensity
15	320
27	50
28	110
29	130
39	110
41	50
43	999
45	160
50	80
51	130
52	80
53	110
59	110
65	50
79	50
81	50
94	130
95	80
109	80
122	80
123	190
125	80
137	810
138	80
141	80
153	840
154	110
169	620
170	50
184	300
