Mass Spectrum: Cyclopropa[5,6]cholestane, 3-ethoxy-3',6-dihydro-, (3.alpha.,5.alpha.,6.beta.)-
Formula: C30H52O
CAS: 35339-43-6
Molecular weight: 428
m/z	intensity
91	641
92	189
93	937
94	360
95	999
96	96
97	204
98	33
99	76
100	24
103	28
104	33
105	735
106	245
107	706
108	206
109	408
110	57
111	326
112	36
113	33
115	36
116	28
117	168
118	129
119	588
120	451
121	564
122	346
123	305
124	43
125	84
126	14
127	24
128	36
129	62
130	43
131	269
132	115
133	497
134	295
135	399
136	84
137	101
138	45
139	38
140	7
141	9
142	24
143	93
144	48
145	300
146	110
147	442
148	158
149	197
150	38
151	76
152	28
153	14
154	2
155	14
156	2
157	105
158	48
159	372
160	120
161	283
162	120
163	127
164	24
165	38
166	52
167	16
171	7
172	91
173	62
174	288
175	177
176	240
177	96
178	72
179	21
180	33
181	33
182	4
184	7
185	2
186	88
187	45
188	168
189	69
190	213
191	43
192	36
193	19
194	60
195	19
197	14
198	4
199	84
200	43
225	7
226	4
227	331
228	96
229	180
230	60
231	38
232	14
233	33
234	4
239	2
240	2
241	43
242	64
243	86
244	48
245	48
246	26
247	156
248	43
249	7
267	2
268	4
269	204
270	52
271	96
272	28
273	55
274	36
276	31
277	9
297	24
298	4
299	19
300	31
301	283
302	245
303	43
304	2
325	19
326	9
327	134
328	79
329	492
330	134
331	12
367	312
368	96
369	201
370	60
371	7
381	14
382	649
383	204
384	548
385	161
386	33
387	4
400	4
413	40
414	16
428	110
429	38
430	4
