Mass Spectrum: 2-Penten-1-ol, 5-(1,3-dioxolan-2-yl)-3-methyl-, (E)-
Formula: C9H16O3
CAS: 35334-62-4
Molecular weight: 172
m/z	intensity
26	11
27	111
28	14
29	37
30	3
31	28
33	4
37	3
38	8
39	97
40	19
41	104
42	42
43	59
44	9
45	334
46	9
50	14
51	29
52	17
53	74
54	16
55	31
56	6
57	16
58	10
59	6
60	3
61	3
62	4
63	8
64	2
65	26
66	16
67	62
68	28
69	8
70	4
71	5
73	999
74	41
75	8
77	37
78	8
79	97
80	18
81	75
82	13
83	8
84	5
85	2
86	287
87	29
88	6
89	2
91	32
92	18
93	17
94	25
95	36
96	4
97	5
98	1
99	21
100	0
105	4
106	3
107	1
109	11
110	19
111	5
112	2
125	6
126	2
139	18
140	2
141	1
153	14
154	27
155	4
156	1
