Mass Spectrum: Acetamide, 2-mercapto-N-(3-methylphenyl)-
Formula: C9H11NOS
CAS: 35331-30-7
Molecular weight: 181
m/z	intensity
33	62
34	32
35	3
37	30
38	106
39	363
40	115
41	100
42	145
43	41
44	45
45	277
46	196
47	871
49	76
50	149
51	285
52	194
53	130
54	26
55	8
56	4
57	9
58	6
59	4
60	4
61	19
62	53
63	152
64	82
65	261
66	41
67	19
68	5
69	9
70	4
71	3
72	4
74	43
75	53
76	59
77	534
78	234
79	255
80	52
81	9
82	3
83	0
84	1
85	2
86	5
87	6
89	65
90	56
91	447
92	45
93	33
94	20
95	1
98	0
99	0
100	2
102	7
103	11
104	87
105	62
106	679
107	999
108	119
109	8
111	15
112	1
115	1
116	3
117	3
118	13
119	9
120	84
121	8
122	1
123	6
127	0
128	2
130	0
132	38
133	193
134	201
135	20
136	7
137	16
138	60
139	6
140	2
146	12
147	6
148	54
149	11
150	2
152	3
160	1
166	1
167	7
179	6
181	586
182	64
183	26
184	1
