Mass Spectrum: 3-Furancarboxylic acid, 2-(ethoxymethyl)-5-methyl-, methyl ester
Formula: C10H14O4
CAS: 35339-98-1
Molecular weight: 198
m/z	intensity
27	180
28	180
29	250
31	190
39	130
41	120
42	60
43	999
44	130
45	320
50	90
51	120
52	90
53	190
55	60
57	120
58	60
59	180
60	60
65	60
67	60
69	60
71	60
73	60
94	160
95	160
109	90
110	60
111	60
122	90
123	250
125	60
137	990
138	120
139	180
153	620
154	120
155	60
167	60
169	530
170	60
183	60
198	160
