Mass Spectrum: 5-Cyclooctene-1,2-dione
Formula: C8H10O2
CAS: 35353-89-0
Molecular weight: 138
m/z	intensity
27	463
28	59
29	63
30	1
31	4
33	4
34	1
37	32
38	81
39	666
40	203
41	460
42	174
43	31
45	0
48	1
49	7
50	72
51	101
52	60
53	468
54	446
55	110
56	16
57	2
58	0
60	1
61	9
62	19
63	34
64	4
65	61
66	89
67	994
68	999
69	68
70	1
71	2
73	2
74	6
75	3
77	23
78	10
79	44
80	8
81	239
82	216
83	25
84	2
85	1
86	1
88	1
89	1
91	14
92	14
93	3
94	103
95	47
96	14
97	1
102	1
103	1
104	2
106	1
107	1
109	22
110	40
111	5
119	1
120	1
121	1
122	3
131	0
133	0
137	2
138	319
139	32
140	3
