Mass Spectrum: 2-Azido-1-(4-chlorophenyl)but-1-en-3-one
Formula: C10H8ClN3O
CAS: 35359-89-8
Molecular weight: 221
m/z	intensity
28	258
43	999
63	114
89	151
116	96
123	97
151	208
153	66
178	21
193	17
195	12
221	16
