Mass Spectrum: Methyl 2-acetamidoacrylate
Formula: C6H9NO3
CAS: 35356-70-8
Molecular weight: 143
m/z	intensity
41	35
42	47
43	999
44	3
45	2
46	0
47	0
48	0
49	1
50	1
51	4
52	7
53	16
54	21
55	12
56	8
57	3
58	4
59	23
60	1
61	1
62	0
63	0
64	0
65	0
66	0
67	1
68	16
69	2
70	2
71	68
72	2
73	1
74	1
75	0
76	0
77	1
78	5
79	0
80	0
81	0
82	3
83	8
84	15
85	3
86	1
87	0
88	0
91	0
93	0
94	0
95	0
96	3
97	0
98	1
99	0
100	8
101	199
102	37
103	2
104	0
105	0
106	2
107	0
108	0
110	3
111	79
112	25
113	1
114	0
115	3
116	0
117	0
121	0
124	2
125	0
126	1
127	0
128	1
129	0
137	0
139	0
141	0
143	154
144	31
145	2
146	0
