Mass Spectrum: 1,2-Diheptylcyclopropene
Formula: C17H32
CAS: 35365-53-8
Molecular weight: 236
m/z	intensity
39	110
40	30
41	530
42	50
43	360
44	150
53	140
54	70
55	400
56	50
57	90
65	50
66	50
67	390
68	550
69	200
70	30
71	30
77	130
78	30
79	250
80	70
81	999
82	290
83	110
91	70
93	70
94	50
95	530
96	270
97	60
107	10
109	50
110	30
111	190
112	70
113	10
123	70
124	30
137	70
138	30
151	90
152	130
165	30
179	20
236	70
