Mass Spectrum: Imidazo[4,5-d]imidazole, 1,6-dihydro-
Formula: C4H4N4
CAS: 35369-36-9
Molecular weight: 108
m/z	intensity
27	50
28	30
29	60
38	40
39	40
41	40
42	20
43	50
52	20
53	50
54	160
55	40
57	20
80	30
81	160
108	999
109	60
