Mass Spectrum: 9-Oxa-bicyclo[3.3.1]nonane-1,4-diol
Formula: C8H14O3
CAS: 35377-88-9
Molecular weight: 158
m/z	intensity
26	51
27	462
28	118
29	663
30	33
31	226
38	14
39	308
40	88
41	518
42	227
43	726
44	200
45	147
47	23
50	16
51	45
52	26
53	114
54	128
55	681
56	255
57	858
58	999
59	94
60	122
61	38
63	13
64	13
65	41
66	35
67	222
68	142
69	238
70	528
71	391
72	65
73	148
74	99
76	23
77	41
78	17
79	87
80	112
81	182
82	37
83	245
84	495
85	255
86	585
87	92
88	15
91	31
93	33
94	88
95	137
96	108
97	291
98	168
99	85
100	16
101	31
102	45
103	25
105	13
107	16
109	15
110	24
111	345
112	625
113	74
114	502
115	142
116	41
119	13
121	14
122	23
123	18
124	29
125	32
127	16
128	17
129	51
130	159
131	25
139	17
140	273
141	32
158	165
159	31
