Mass Spectrum: Cyclohexanecarbothioic acid, S-methyl ester
Formula: C8H14OS
CAS: 35377-82-3
Molecular weight: 158
m/z	intensity
26	13
27	174
28	32
29	99
30	3
37	4
38	13
39	213
40	25
41	455
42	32
43	37
44	5
45	79
46	21
47	118
48	9
49	10
50	18
51	28
52	13
53	75
54	70
55	757
56	39
57	4
58	3
59	3
60	3
61	18
62	4
63	5
65	17
66	8
67	133
68	9
69	5
70	2
71	3
72	3
73	4
74	4
75	57
76	3
77	16
78	3
79	19
80	4
81	40
82	25
83	999
84	72
85	4
87	3
110	3
111	474
112	37
113	3
129	3
143	34
144	2
145	2
158	45
159	13
160	3
