Mass Spectrum: 9-Oxabicyclo[3.3.1]nonan-2-ol, 5-methoxy-, endo-
Formula: C9H16O3
CAS: 35377-89-0
Molecular weight: 172
m/z	intensity
27	71
28	28
29	241
30	15
31	113
33	13
39	63
40	25
41	332
42	210
43	452
44	93
45	81
47	24
49	48
51	17
52	9
53	79
54	76
55	477
56	237
57	675
58	214
59	141
60	31
61	15
65	20
66	28
67	227
68	98
69	138
70	381
71	212
72	999
73	129
74	339
75	79
77	29
78	10
79	121
80	137
81	161
82	29
83	225
84	453
85	394
86	182
87	280
88	394
89	30
91	22
93	42
94	122
95	189
96	59
97	199
98	267
99	104
100	246
101	54
102	34
103	7
105	10
109	20
110	10
111	515
112	735
113	135
114	90
115	63
116	40
117	37
119	7
122	19
123	45
124	13
125	19
126	11
127	11
128	124
129	66
130	141
131	9
139	19
140	273
141	44
143	204
144	174
145	11
154	21
155	30
157	7
172	157
173	18
