Mass Spectrum: dl-p-Chlorophenylalaninol
Formula: C9H12ClNO
CAS: 35373-63-8
Molecular weight: 185
m/z	intensity
15	5
17	1
18	1
27	1
28	5
29	3
30	12
31	4
39	4
41	2
42	90
43	12
44	1
50	2
51	4
56	3
58	14
59	15
60	999
61	26
62	3
63	7
64	1
65	7
73	2
74	24
75	5
76	1
77	12
78	3
89	14
90	6
91	37
92	4
99	5
101	8
102	8
103	4
104	1
111	1
112	1
115	1
116	1
117	9
118	52
119	83
120	7
125	35
126	6
127	11
128	2
130	1
131	1
132	1
133	2
137	3
138	3
139	2
140	1
152	2
153	6
154	192
155	19
156	62
157	5
167	1
168	5
170	1
185	6
187	2
