Mass Spectrum: Bi-1,3,5-cycloheptatrien-1-yl
Formula: C14H14
CAS: 35393-05-6
Molecular weight: 182
m/z	intensity
26	7
27	79
29	10
38	21
39	187
41	34
43	1
50	45
51	100
52	33
53	24
56	3
61	5
62	26
63	104
64	34
65	137
66	14
67	43
73	13
74	23
75	32
76	79
77	103
78	60
79	16
82	21
83	31
86	12
87	19
88	17
89	159
90	87
91	999
92	62
93	21
98	7
99	5
101	8
102	39
103	82
104	130
105	24
107	12
109	4
113	9
114	7
115	246
116	75
117	20
126	21
127	49
128	192
129	51
130	5
139	46
140	10
141	160
142	29
150	15
151	46
152	284
153	163
154	92
155	40
156	5
163	12
164	23
165	536
166	378
167	725
168	104
169	16
176	23
177	17
178	87
179	71
180	21
181	196
182	608
183	89
184	6
