Mass Spectrum: Trifluoroacetamidine
Formula: C2H3F3N2
CAS: 354-37-0
Molecular weight: 112
m/z	intensity
12	16
13	44
14	9
16	60
17	151
27	53
28	198
29	17
31	58
41	40
42	159
43	999
44	24
46	22
50	54
66	53
69	217
77	26
96	14
112	102
