Mass Spectrum: Pentafluoroethyliodide
Formula: C2F5I
CAS: 354-64-3
Molecular weight: 246
m/z	intensity
20	1
31	244
50	82
51	39
62	1
63	2
69	603
70	4
77	9
78	1
79	1
91	1
100	279
101	4
104	1
119	999
120	17
127	495
128	8
130	2
139	11
146	3
158	41
159	6
177	335
178	29
227	127
246	802
247	12
