Mass Spectrum: Ethane, pentafluoro-
Formula: C2HF5
CAS: 354-33-6
Molecular weight: 120
m/z	intensity
19	8
20	3
24	3
25	2
31	189
41	10
43	4
50	69
51	999
52	10
62	1
63	1
69	222
70	2
81	1
82	3
101	534
102	11
119	10
120	0
