Mass Spectrum: 1-Propanone, 1-cyclohexyl-2-methyl-2-(methylsulfinyl)-
Formula: C11H20O2S
CAS: 35409-74-6
Molecular weight: 216
m/z	intensity
26	20
27	194
29	139
30	7
31	7
33	12
34	8
37	9
38	30
39	421
40	75
41	999
42	101
43	78
44	31
45	161
46	65
47	115
48	51
49	13
50	20
51	43
52	22
53	101
54	96
55	740
56	40
57	12
59	6
61	12
62	21
63	38
64	56
65	27
66	18
67	179
68	38
69	722
70	160
71	66
72	7
76	7
77	39
78	14
79	55
80	25
81	95
82	114
83	499
84	97
85	17
91	21
92	16
93	20
94	47
95	55
96	31
97	119
98	15
105	9
106	7
107	6
108	8
109	72
110	204
111	85
112	8
119	14
121	6
123	64
124	46
126	17
134	8
137	71
138	8
151	16
152	346
153	38
154	9
