Mass Spectrum: Benzeneacetic acid, 4-(acetyloxy)-, methyl ester
Formula: C11H12O4
CAS: 35400-15-8
Molecular weight: 208
m/z	intensity
26	12
27	22
28	2
29	16
30	3
31	6
32	0
36	6
37	3
38	12
39	35
40	6
41	16
42	16
43	211
44	12
45	12
49	6
50	32
51	64
52	51
53	22
54	6
55	12
56	6
57	9
59	48
60	9
61	6
62	12
63	19
64	9
65	12
66	6
74	9
75	9
76	12
77	76
78	76
79	19
80	6
88	3
89	16
90	9
91	12
92	3
93	6
94	6
95	6
103	6
104	6
105	16
106	22
107	999
108	89
109	9
120	3
121	19
122	6
123	9
128	3
129	9
130	6
131	3
132	3
133	6
134	9
135	3
147	9
148	3
149	38
150	12
151	6
165	6
166	445
167	54
168	9
169	3
208	67
209	16
210	3
