Mass Spectrum: 3,7-Nonadien-2-one, 8-methyl-, (E)-
Formula: C10H16O
CAS: 35408-14-1
Molecular weight: 152
m/z	intensity
41	670
42	30
43	220
53	50
54	30
67	50
68	10
69	999
70	50
77	10
79	10
84	450
85	30
94	250
95	20
109	70
137	10
152	20
