Mass Spectrum: Benzeneacetic acid, 3-(acetyloxy)-, methyl ester
Formula: C11H12O4
CAS: 35400-14-7
Molecular weight: 208
m/z	intensity
26	16
27	36
28	32
29	24
30	8
31	8
37	12
38	32
39	112
40	16
41	20
42	32
43	582
44	24
45	16
49	8
50	56
51	124
52	92
53	48
54	8
55	28
56	4
59	184
60	12
61	12
62	24
63	56
64	24
65	32
66	20
67	12
68	8
73	4
74	16
75	20
76	20
77	212
78	204
79	68
80	12
81	16
89	32
90	48
91	32
92	12
93	12
94	20
95	16
103	4
104	12
105	44
106	44
107	999
108	132
109	28
110	4
120	12
121	44
122	16
123	8
124	8
133	12
134	60
135	12
136	2
137	16
138	8
147	4
148	4
149	176
150	28
151	8
165	12
166	996
167	124
168	20
177	20
178	4
208	140
209	24
210	4
