Mass Spectrum: Acetamide, N-[4-(aminosulfonyl)phenyl]-N-hydroxy-
Formula: C8H10N2O4S
CAS: 35413-65-1
Molecular weight: 230
m/z	intensity
25	3
26	8
27	17
29	22
30	5
31	11
32	265
33	3
34	4
36	5
37	9
38	24
39	62
40	12
41	20
42	23
43	999
44	36
45	36
46	6
47	3
48	8
49	3
50	34
51	25
52	48
53	25
54	10
55	11
56	4
57	9
58	2
59	3
60	194
61	12
62	23
63	83
64	84
65	69
66	11
67	5
68	4
69	8
70	4
71	4
72	3
73	6
74	11
75	22
76	21
77	20
78	30
79	16
80	23
81	11
82	5
83	6
84	4
85	4
87	4
88	5
89	7
90	46
91	49
92	87
93	14
94	12
95	6
96	4
97	5
98	4
99	3
102	3
103	3
104	8
105	11
106	15
107	182
108	121
109	13
110	3
111	3
112	3
114	2
115	3
117	2
118	8
119	3
120	5
121	3
122	4
123	13
124	46
125	6
126	3
129	3
132	4
133	12
134	12
135	5
136	4
137	3
138	3
139	5
140	7
141	3
147	2
148	2
149	4
150	3
152	2
153	2
154	2
156	85
157	8
158	6
165	3
166	4
167	3
168	3
169	4
170	5
171	33
172	205
173	19
174	11
175	2
182	4
184	3
185	3
186	3
187	3
188	272
189	23
190	15
191	3
196	3
198	4
199	3
207	2
211	3
212	3
214	45
215	5
216	4
230	38
231	5
232	4
