Mass Spectrum: 2-Pyrrolidinethione, 5,5-dimethyl-
Formula: C6H11NS
CAS: 35418-37-2
Molecular weight: 129
m/z	intensity
54	140
55	799
56	140
57	170
58	240
60	200
69	190
70	240
71	260
72	110
80	110
81	450
114	999
129	839
