Mass Spectrum: 2-Pyrrolidinethione, 5,5-dimethyl-4-phenyl-
Formula: C12H15NS
CAS: 35418-39-4
Molecular weight: 205
m/z	intensity
42	160
51	140
58	999
77	210
78	130
91	300
100	360
103	190
104	240
114	599
115	450
131	170
147	240
190	160
205	899
