Mass Spectrum: 1,3-Didodecylurea
Formula: C25H52N2O
CAS: 3542-20-9
Molecular weight: 396
m/z	intensity
15	5
17	1
18	110
26	4
27	95
28	57
29	222
30	999
31	49
32	8
38	1
39	71
40	14
41	509
42	132
43	709
44	653
45	158
46	12
50	1
51	3
52	2
53	30
54	45
55	522
56	267
57	418
58	86
59	72
60	9
61	16
65	5
66	4
67	58
68	53
69	315
70	140
71	145
72	80
73	55
74	42
75	10
77	4
78	1
79	8
80	4
81	35
82	48
83	155
84	93
85	148
86	179
87	57
88	46
89	6
91	2
93	3
94	2
95	21
96	32
97	83
98	197
99	827
100	160
101	80
102	45
103	5
107	1
108	1
109	9
110	15
111	32
112	356
113	291
114	73
115	61
116	47
117	4
121	1
122	1
123	7
124	16
125	16
126	164
127	57
128	47
129	48
130	37
131	3
136	1
137	6
138	11
139	9
140	66
141	19
142	51
143	49
144	25
145	3
150	1
151	2
152	4
153	5
154	37
155	10
156	38
157	56
158	24
159	2
164	1
165	1
166	10
167	4
168	32
169	9
170	20
171	46
172	22
173	3
180	1
181	2
182	23
183	9
184	182
185	163
186	307
187	40
188	2
194	5
195	2
196	10
197	5
198	5
199	32
200	14
201	2
209	2
210	10
211	12
212	175
213	65
214	27
215	4
223	3
224	3
225	3
226	2
227	29
228	24
229	108
230	16
231	1
237	2
238	2
239	5
240	17
241	64
242	224
243	35
244	4
251	1
252	1
253	3
254	3
255	81
256	79
257	17
258	2
265	2
266	5
267	4
269	264
270	114
271	17
272	1
279	5
280	2
281	2
282	1
283	295
284	99
285	14
286	1
293	3
294	1
295	2
296	2
297	194
298	83
299	13
300	1
307	1
309	1
310	1
311	170
312	68
313	10
314	1
321	1
323	1
325	158
326	59
327	9
328	1
335	1
337	1
338	1
339	148
340	56
341	9
342	1
351	1
352	2
353	123
354	51
355	9
356	1
367	96
368	32
369	5
381	38
382	12
383	2
395	54
396	779
397	226
398	34
399	3
