Mass Spectrum: D-Glucopyranosylamine, N-(4-methylphenyl)-6-O-(2,3,4,6-tetra-O-acetyl-.alpha.-D-galactopyranosyl)-, 2,3,4-triacetate
Formula: C33H43NO17
CAS: 35427-08-8
Molecular weight: 725
m/z	intensity
81	459
89	80
91	161
97	118
98	99
99	68
103	105
106	993
107	999
109	608
115	142
118	74
127	254
136	447
139	99
141	260
145	105
149	130
155	37
157	68
162	49
169	993
174	118
178	111
187	55
191	118
211	142
212	74
215	68
216	74
229	93
242	37
243	37
244	24
257	24
258	31
271	124
286	31
287	18
289	18
304	24
313	31
317	24
318	37
331	621
346	40
364	8
377	55
378	18
406	15
423	12
429	6
457	6
499	24
531	6
547	6
559	3
605	9
619	3
623	3
665	9
683	3
725	223
