Mass Spectrum: D-Mannose, 2,5-anhydro-, diethyl acetal, triacetate
Formula: C16H26O9
CAS: 35439-63-5
Molecular weight: 362
m/z	intensity
43	457
47	319
75	341
81	21
85	15
97	32
98	31
101	32
103	999
104	61
109	30
115	14
139	18
155	53
156	14
157	10
169	9
173	7
183	10
187	13
197	34
198	10
200	3
215	13
229	5
257	15
258	4
259	3
303	2
317	7
