Mass Spectrum: 2,4-Dioxabicyclo[3.2.0]hept-6-en-3-one, 1,5-dichloro-6,7-dimethyl-
Formula: C7H6Cl2O3
CAS: 35436-20-5
Molecular weight: 208
m/z	intensity
49	21
50	35
51	63
52	26
53	35
54	25
55	21
56	13
57	28
61	13
62	25
63	28
85	28
87	26
101	999
103	373
129	46
131	30
136	28
138	26
164	63
166	35
208	2
