Mass Spectrum: 2,3,4,5-Tetra-O-acetyl-6-O-methyl-D-gluconitrile
Formula: C15H21NO9
CAS: 35439-76-0
Molecular weight: 359
m/z	intensity
44	153
45	999
55	53
60	53
61	14
68	22
70	22
71	45
73	68
74	22
75	84
83	14
84	30
85	53
87	615
88	45
89	14
99	145
100	30
103	145
105	76
106	53
115	338
117	322
126	22
127	53
128	14
129	384
137	137
138	114
141	91
145	137
147	91
152	37
153	22
154	53
155	168
156	7
157	153
158	14
159	384
164	7
165	7
166	14
167	7
168	7
170	30
179	7
180	14
183	84
187	40
188	22
189	53
196	14
197	461
198	61
199	7
200	14
212	284
213	30
214	14
225	22
226	7
230	3
239	30
240	8
242	15
256	14
257	1
258	1
261	7
272	29
286	1
289	1
300	37
301	4
314	26
315	3
316	2
328	0
360	2
