Mass Spectrum: DL-Lysine, N2,N6-diacetyl-
Formula: C10H18N2O4
CAS: 35436-74-9
Molecular weight: 230
m/z	intensity
14	17
15	140
26	4
27	47
28	185
29	61
30	608
31	27
39	33
40	12
41	105
42	137
43	999
44	277
45	135
46	5
53	10
54	23
55	62
56	161
57	60
58	48
59	19
60	162
67	26
68	27
69	18
70	80
71	27
72	295
73	147
74	47
82	75
83	73
84	741
85	92
86	174
87	73
88	20
98	25
99	108
100	111
101	130
102	12
111	12
112	82
113	22
114	178
115	21
116	32
117	46
125	56
126	447
127	73
128	155
129	17
141	113
142	18
143	38
144	18
153	10
170	38
185	38
186	42
187	63
212	194
213	23
230	24
