Mass Spectrum: Crotonamide, N-[1-(dimethylcarbamoyl)propyl]-N-propyl-, (E)-
Formula: C13H24N2O2
CAS: 3544-46-5
Molecular weight: 240
m/z	intensity
55	21
56	53
58	114
68	20
69	447
70	78
72	106
98	35
100	999
101	78
115	55
143	22
168	229
169	28
195	78
196	23
