Mass Spectrum: 1-Butanamine, 3-methyl-N-(3-methylbutylidene)-
Formula: C10H21N
CAS: 35448-31-8
Molecular weight: 155
m/z	intensity
33	1
34	2
37	4
38	12
39	182
41	524
42	628
43	999
44	117
47	2
50	8
51	14
52	8
53	34
54	74
55	137
56	779
57	957
58	41
65	3
66	3
67	13
68	30
69	68
70	146
71	156
72	11
80	4
81	3
82	11
83	6
84	296
85	17
86	7
94	5
96	9
98	777
99	75
100	3
112	53
113	103
114	6
140	164
141	18
154	14
155	5
