Mass Spectrum: Ethanedioic acid, mono(phenylmethyl) ester
Formula: C9H8O4
CAS: 35448-14-7
Molecular weight: 180
m/z	intensity
26	2
27	9
28	2
29	5
30	0
37	1
38	7
39	65
40	5
41	21
42	0
43	0
44	2
45	0
46	0
47	0
49	0
50	18
51	59
52	18
53	5
55	0
56	0
61	0
62	8
63	37
64	14
65	154
66	9
67	0
73	0
74	4
75	4
76	5
77	78
78	18
79	17
80	1
86	0
87	1
88	0
89	24
90	17
91	999
92	78
93	3
102	0
103	0
104	0
105	16
106	1
107	25
108	2
109	0
115	0
119	0
128	0
135	0
139	0
141	0
152	1
153	0
165	3
166	1
167	3
168	0
178	1
179	25
180	50
181	8
182	1
