Mass Spectrum: Cholesta-7,14-dien-3-ol, 4,4-dimethyl-, (3.beta.,5.alpha.)-
Formula: C29H48O
CAS: 35458-69-6
Molecular weight: 412
m/z	intensity
18	30
26	20
27	60
28	60
29	200
31	10
39	50
40	10
41	520
42	40
43	999
44	40
45	20
50	10
51	20
52	10
53	60
54	10
55	500
56	40
57	520
58	30
59	30
65	30
67	180
68	20
69	410
70	40
71	250
72	20
73	20
75	20
77	90
78	40
79	170
80	30
81	250
82	30
83	190
84	20
85	60
91	280
92	40
93	240
94	40
95	230
96	40
97	110
98	10
99	20
103	30
104	20
105	320
106	60
107	230
108	40
109	170
110	20
111	80
112	10
113	20
115	60
116	40
117	180
118	60
119	250
120	50
121	170
122	40
123	80
124	20
125	20
127	40
128	100
129	190
130	70
131	300
132	90
133	250
134	60
135	350
136	60
137	40
138	10
139	20
141	80
142	80
143	250
144	100
145	370
146	110
147	320
148	90
149	70
150	20
151	20
152	20
153	50
154	30
155	120
156	70
157	190
158	90
159	360
160	80
161	160
162	30
163	30
165	60
166	30
167	50
168	30
169	110
170	40
171	170
172	80
173	180
174	40
175	50
176	20
177	20
178	20
179	30
180	20
181	50
182	30
183	110
184	40
185	150
186	60
187	120
188	30
189	40
190	10
191	20
192	10
193	30
194	10
195	60
196	40
197	140
198	70
199	150
200	40
201	40
202	20
203	20
204	10
205	20
206	20
207	20
209	40
210	20
211	100
212	40
213	100
214	30
215	40
216	10
217	20
218	20
219	10
223	40
224	20
225	60
226	30
227	110
228	30
229	30
231	20
233	10
235	10
237	20
238	80
239	30
240	40
241	10
242	40
243	20
244	90
245	30
246	30
251	30
253	50
254	20
255	60
256	20
257	50
258	20
259	50
260	30
261	40
265	30
266	80
267	90
268	20
269	50
270	20
271	50
272	40
273	50
274	20
275	20
279	20
281	230
282	60
283	50
284	30
285	290
286	80
287	10
295	20
296	10
297	50
298	40
299	520
300	150
301	20
309	60
310	20
311	40
312	60
313	30
315	100
316	30
317	10
323	30
324	20
325	60
326	40
327	50
328	20
329	20
337	20
338	10
339	20
351	110
352	30
353	40
354	10
355	10
369	20
377	100
378	40
379	460
380	140
381	10
382	20
393	60
394	70
395	50
396	30
397	420
398	140
399	30
410	80
411	40
412	840
413	270
414	50
