Mass Spectrum: 1H-Azepine, hexahydro-3,3,5-trimethyl-
Formula: C9H19N
CAS: 35466-89-8
Molecular weight: 141
m/z	intensity
15	9
17	1
26	2
27	54
28	82
29	86
30	526
31	26
32	8
36	3
38	2
39	63
40	10
41	213
42	111
43	798
44	364
45	16
46	2
47	2
48	3
49	1
50	2
51	5
52	3
53	27
54	13
55	220
56	999
57	405
58	66
59	11
63	1
65	6
66	2
67	26
68	26
69	111
70	261
71	44
72	14
73	7
77	5
78	1
79	8
80	5
81	14
82	33
83	56
84	499
85	83
86	16
87	4
91	2
93	3
94	3
95	35
96	31
97	58
98	236
99	25
100	2
107	1
108	2
109	10
110	9
111	7
112	13
113	2
114	1
122	1
123	1
124	15
125	3
126	240
127	22
128	3
137	1
138	1
139	8
140	37
141	304
142	54
143	5
144	1
