Mass Spectrum: Isobutylene carbonate
Formula: C5H8O3
CAS: 35466-83-2
Molecular weight: 116
m/z	intensity
12	2
13	2
14	9
15	307
16	9
25	5
26	44
27	169
28	86
29	323
30	51
31	88
32	16
33	54
36	4
37	28
38	61
39	527
40	147
41	999
42	337
43	56
44	244
45	177
46	5
47	1
49	9
51	3
52	1
53	8
54	4
55	38
56	27
57	781
58	27
59	626
60	26
61	6
70	2
71	539
72	329
73	15
74	2
77	134
78	3
79	1
83	2
84	77
85	6
86	5
87	7
88	5
116	2
117	3
