Mass Spectrum: Decanal, O-methyloxime
Formula: C11H23NO
CAS: 35473-94-0
Molecular weight: 185
m/z	intensity
15	6
27	81
28	115
29	121
30	33
31	6
32	6
33	6
39	51
40	60
41	206
42	51
43	260
44	6
45	6
47	9
53	6
54	30
55	100
56	36
57	48
58	21
60	36
67	30
68	18
69	54
70	6
71	6
73	999
74	30
79	9
81	21
82	30
83	39
86	157
87	6
95	6
96	6
97	6
100	21
109	2
110	7
111	3
112	0
114	9
115	1
116	0
124	2
126	0
128	7
129	0
137	0
138	4
139	0
142	10
143	0
154	14
156	3
157	5
184	0
185	8
186	1
