Mass Spectrum: 4(1H)-Pyridinone, 2,3-dihydro-1-methyl-
Formula: C6H9NO
CAS: 35488-00-7
Molecular weight: 111
m/z	intensity
39	125
40	85
41	190
42	960
43	235
44	30
45	90
51	55
52	95
53	95
54	120
55	490
56	75
68	105
82	525
83	320
96	50
111	999
112	90
113	10
