Mass Spectrum: Cyclobutanone, 2-tetradecyl-
Formula: C18H34O
CAS: 35493-47-1
Molecular weight: 266
m/z	intensity
55	350
69	200
84	300
98	999
112	360
124	50
138	10
152	10
166	10
180	10
194	20
222	30
238	50
248	30
266	40
