Mass Spectrum: Thiazolidin-4-one, 2-imino-3-(4-morpholylmethyl)-
Formula: C8H13N3O2S
CAS: 35491-28-2
Molecular weight: 215
m/z	intensity
33	5
34	1
35	0
36	0
37	1
38	3
39	12
40	29
41	141
42	383
43	143
44	53
45	143
46	248
47	35
48	13
49	1
50	4
51	4
52	7
53	15
54	66
55	155
56	301
57	78
58	27
59	36
60	23
61	4
62	2
63	2
64	1
65	3
66	1
67	4
68	22
69	97
70	95
71	101
72	67
74	38
75	3
76	7
77	6
78	3
79	3
81	3
82	11
83	11
84	11
85	15
86	74
87	15
88	21
89	4
90	3
91	18
92	2
94	1
95	1
96	4
98	122
99	570
100	999
101	131
102	17
103	8
104	26
105	12
106	1
107	1
108	0
110	4
111	7
112	6
113	11
114	5
116	83
117	35
118	5
119	2
120	1
121	0
122	0
123	0
124	0
125	1
126	2
127	3
129	62
130	32
131	6
132	4
133	2
134	1
135	0
136	0
138	1
140	15
141	5
142	2
143	3
144	1
145	1
146	0
147	0
148	0
150	6
151	0
152	0
153	0
154	1
155	1
156	8
157	12
158	1
159	2
160	0
161	0
163	0
164	0
165	2
166	0
167	0
168	0
169	0
170	1
171	0
172	1
173	3
174	0
179	0
182	0
183	0
184	0
185	0
186	0
187	0
188	0
189	0
192	0
196	0
198	8
199	0
200	0
201	0
207	0
212	1
213	4
214	31
215	8
216	3
217	0
218	0
