Mass Spectrum: Benzamide, 2-methyl-N-(1H-1,2,4-triazol-3-yl)-
Formula: C10H10N4O
CAS: 35498-46-5
Molecular weight: 202
m/z	intensity
33	8
34	7
35	0
36	45
37	1
38	74
39	263
40	32
41	115
42	81
43	120
44	225
45	38
46	4
48	6
50	70
51	101
52	36
53	38
54	23
55	54
56	19
57	49
58	6
59	7
60	13
61	15
62	52
63	134
64	51
65	316
66	22
67	14
68	11
69	30
70	14
71	21
72	5
73	9
74	22
75	19
76	21
77	44
78	21
79	19
80	14
81	17
82	18
83	17
84	44
85	10
86	14
87	11
88	10
89	119
91	831
92	66
93	8
94	3
95	4
96	3
97	8
98	3
99	3
100	3
101	4
102	5
103	7
104	13
105	20
106	7
107	5
108	4
109	4
110	1
111	4
112	4
113	4
114	4
115	11
116	13
118	189
119	999
120	80
121	8
122	1
123	4
124	1
125	3
127	2
128	5
129	3
130	2
131	3
132	3
133	5
134	1
135	10
136	27
137	2
138	2
139	2
140	6
141	6
142	1
143	17
144	4
145	3
146	0
147	1
149	3
150	1
152	1
153	1
155	2
158	1
165	3
167	2
169	16
171	4
173	0
174	1
177	0
185	2
187	2
193	1
200	5
201	14
202	154
203	21
204	1
