Mass Spectrum: 2-Dodecylcyclobutanone
Formula: C16H30O
CAS: 35493-46-0
Molecular weight: 238
m/z	intensity
39	77
41	298
42	94
43	261
44	28
53	37
54	65
55	356
56	131
57	144
58	17
65	19
66	15
67	68
68	63
69	175
70	132
71	67
77	19
79	28
80	18
81	46
82	56
83	183
84	258
85	45
93	16
94	13
95	36
96	41
97	178
98	999
99	74
100	15
107	16
108	15
109	15
110	32
111	110
112	247
113	24
120	15
122	15
123	13
125	34
126	25
134	15
138	15
139	16
140	18
166	17
167	17
194	19
210	22
220	21
238	18
