Mass Spectrum: Butane, 1,1,2,3,4-pentachloro-1,2,3,4,4-pentafluoro-
Formula: C4Cl5F5
CAS: 355-19-1
Molecular weight: 318
m/z	intensity
28	7
30	3
31	57
32	2
35	9
36	7
37	3
38	2
42	2
43	4
44	3
47	23
49	8
50	8
51	1
55	26
56	1
57	1
58	19
59	2
62	2
66	17
67	1
68	5
69	119
70	2
71	5
72	1
73	2
74	30
75	1
77	1
78	17
80	6
81	1
82	17
83	2
84	11
85	999
86	14
87	326
88	4
89	5
90	14
91	1
92	4
93	67
94	7
96	3
97	7
98	2
99	2
101	283
102	4
103	183
104	4
105	31
106	2
109	62
110	2
111	21
112	2
113	10
115	7
116	24
117	47
118	8
119	45
120	1
121	15
123	2
124	5
125	12
126	1
127	8
128	4
129	5
130	1
131	3
132	61
133	2
134	39
135	154
136	10
137	49
138	1
140	1
143	6
144	1
145	1
147	22
148	16
149	7
150	15
151	354
152	12
153	232
154	5
155	37
158	2
163	213
164	9
165	137
166	6
167	456
168	11
169	420
170	9
171	135
172	3
173	9
178	2
179	31
180	2
181	30
182	2
183	10
184	1
185	2
197	2
198	100
199	4
200	96
201	5
202	31
203	2
204	3
213	27
214	7
215	17
216	9
217	6
218	4
219	2
229	1
231	1
233	48
235	61
237	29
239	6
248	2
249	1
251	2
253	2
283	6
285	8
287	4
289	1
