Mass Spectrum: 2-Pentanol, 3,3,4,4,5,5,5-heptafluoro-2-methyl-
Formula: C6H7F7O
CAS: 355-22-6
Molecular weight: 228
m/z	intensity
14	12
15	80
16	4
17	30
18	140
19	4
26	14
27	77
28	70
29	133
30	8
31	436
32	11
33	9
37	7
38	16
39	80
40	8
41	148
42	41
43	999
44	53
45	70
46	14
47	157
48	4
49	14
50	30
51	81
52	30
53	13
55	46
56	8
57	34
58	23
59	412
60	16
61	17
62	3
63	16
64	8
65	194
66	6
67	39
68	2
69	203
70	5
71	9
73	18
74	44
75	25
76	11
77	147
78	195
79	17
80	2
81	6
82	3
83	42
84	4
87	2
88	3
89	11
90	10
91	106
92	12
93	35
94	27
95	59
96	4
97	12
98	24
99	4
100	33
101	11
103	7
104	10
105	15
106	7
107	7
108	2
109	12
111	3
112	1
113	10
115	12
116	1
117	8
118	3
119	52
120	3
121	34
122	3
123	4
125	10
127	46
128	3
129	103
131	7
139	5
141	11
145	31
147	4
148	3
151	5
156	2
159	6
163	8
165	3
169	16
171	6
173	2
191	7
193	275
194	15
211	4
213	769
214	42
215	4
