Mass Spectrum: Butane, decafluoro-
Formula: C4F10
CAS: 355-25-9
Molecular weight: 238
m/z	intensity
12	2
19	1
31	122
43	2
50	42
55	1
62	5
69	999
74	3
81	8
93	12
100	84
112	2
119	183
131	84
150	26
169	21
181	1
219	26
238	1
