Mass Spectrum: 7-Hexadecene, (Z)-
Formula: C16H32
CAS: 35507-09-6
Molecular weight: 224
m/z	intensity
24	0
25	2
26	7
27	117
28	15
29	242
30	5
32	1
34	0
35	1
36	1
37	5
38	4
39	97
40	16
41	569
42	148
43	664
44	5
45	0
47	1
48	0
49	1
50	4
51	5
52	4
53	47
54	167
55	999
56	547
57	572
58	23
59	0
60	0
63	2
64	1
65	14
66	16
67	151
68	94
69	628
70	446
71	232
72	12
74	0
75	0
76	1
77	11
78	6
79	25
80	6
81	72
82	120
83	517
84	240
85	116
86	7
91	4
92	1
93	4
94	0
95	28
96	59
97	360
98	119
99	19
100	0
104	1
105	0
108	0
109	8
110	24
111	154
112	54
113	7
115	0
121	0
123	3
124	10
125	50
126	30
127	4
137	1
138	5
139	13
140	15
141	1
152	2
153	4
154	7
155	0
166	1
167	2
168	2
180	0
181	1
182	1
196	3
197	0
222	1
224	40
