Mass Spectrum: Cyclohexanone, 2,2,5,5-tetramethyl-3-methylene-
Formula: C11H18O
CAS: 35505-97-6
Molecular weight: 166
m/z	intensity
12	1
13	1
14	13
15	78
16	1
18	1
26	12
27	210
28	46
29	130
30	3
31	1
37	4
38	15
39	271
40	72
41	374
42	67
43	71
44	2
45	2
46	1
49	0
50	32
51	78
52	40
53	194
54	83
55	192
56	62
57	27
58	2
59	2
60	1
61	2
62	8
63	22
64	6
65	50
66	33
67	422
68	113
69	46
70	12
71	1
73	1
74	3
75	3
76	1
77	48
78	12
79	45
80	11
81	101
82	999
83	738
84	42
85	5
86	1
87	0
89	1
90	1
91	34
92	6
93	21
94	5
95	46
96	6
97	2
98	2
103	2
104	0
105	6
106	1
107	11
108	5
109	67
110	107
111	11
112	1
115	1
119	1
121	2
122	2
123	51
124	9
125	3
133	2
135	1
137	2
138	2
149	1
150	1
151	52
152	6
153	1
154	0
165	1
166	281
167	33
168	3
169	0
