Mass Spectrum: 1-Mercapto-2-propanol, acetate
Formula: C5H10O2S
CAS: 35508-06-6
Molecular weight: 134
m/z	intensity
41	94
43	999
45	72
46	13
47	17
49	3
51	1
55	6
57	5
58	3
59	31
61	24
62	0
64	7
65	0
67	2
69	4
71	6
73	45
74	70
75	15
76	3
77	0
78	4
79	4
81	3
82	5
84	1
86	1
87	8
88	0
89	2
90	1
91	16
92	0
93	2
95	1
97	2
99	0
101	345
102	15
111	1
113	5
115	1
116	19
117	19
118	0
133	2
134	3
135	0
136	0
