Mass Spectrum: Propane, 3-chloro-1,1-dimethoxy-
Formula: C5H11ClO2
CAS: 35502-06-8
Molecular weight: 138
m/z	intensity
25	29
26	22
27	160
29	145
30	11
31	162
33	11
35	0
36	2
37	3
38	8
39	44
40	5
41	116
42	10
43	29
45	487
46	12
47	190
48	5
49	21
50	0
51	14
52	0
53	4
55	15
56	13
57	20
58	16
59	18
60	0
61	4
62	2
63	18
64	1
65	4
70	0
71	225
72	17
73	12
74	2
75	999
76	30
77	4
79	9
81	1
85	1
87	3
88	1
89	1
91	4
93	1
98	0
101	7
102	8
103	32
104	1
105	1
106	0
107	341
108	15
109	103
110	5
115	0
119	2
133	0
137	6
138	0
139	2
