Mass Spectrum: Decane, 1,10-diphenyl-
Formula: C22H30
CAS: 35511-93-4
Molecular weight: 294
m/z	intensity
26	3
27	23
28	7
29	29
30	0
31	1
34	0
36	0
37	0
38	1
39	34
40	4
41	103
42	19
43	52
44	3
45	4
46	0
48	0
49	0
50	4
51	18
52	6
53	12
54	7
55	67
56	17
57	26
58	1
59	0
60	3
61	0
62	1
63	10
64	3
65	99
66	7
67	19
68	4
69	30
70	5
71	7
72	0
73	0
74	1
75	1
76	3
77	69
78	41
79	53
80	11
81	8
82	5
83	11
84	1
85	5
86	0
87	0
88	0
89	13
90	13
91	999
92	876
93	17
94	16
95	4
96	2
97	4
98	6
99	3
100	1
101	1
102	4
103	42
104	218
105	266
106	46
107	6
108	1
109	1
110	0
111	1
112	0
113	0
114	0
115	18
116	7
117	74
118	21
119	66
120	18
121	4
122	0
123	0
124	0
125	0
126	0
127	1
128	4
129	7
130	7
131	27
132	10
133	139
134	55
135	7
136	1
137	0
138	0
139	0
140	0
141	1
142	2
143	2
144	11
145	8
146	3
147	26
148	12
149	7
150	1
151	0
152	1
153	0
154	0
155	1
156	0
157	2
158	1
159	5
160	2
161	9
162	2
163	0
164	0
165	3
166	1
167	16
168	3
169	3
170	0
171	1
172	0
173	8
174	2
175	3
177	0
178	0
179	0
180	0
181	7
182	2
183	1
184	0
185	0
186	0
187	0
188	0
189	1
190	0
191	0
192	0
194	0
195	0
196	0
197	0
198	2
199	5
200	7
201	3
202	8
203	3
204	1
205	0
206	0
208	0
210	0
211	0
212	0
214	0
215	1
216	1
220	0
222	0
230	0
232	0
234	0
236	0
238	0
240	2
245	0
247	0
249	0
250	0
251	1
253	0
254	0
257	0
260	0
262	0
264	0
266	0
267	1
274	0
277	0
280	0
283	0
287	1
290	1
291	1
292	1
293	2
294	729
295	181
296	23
