Mass Spectrum: d-Gluconic acid, 2,3,4,6-tetra-O-methyl-, .delta.-lactone
Formula: C10H18O6
CAS: 35510-38-4
Molecular weight: 234
m/z	intensity
14	1
15	22
26	1
27	16
28	9
29	82
30	6
31	55
32	2
33	13
38	1
39	16
40	5
41	69
42	22
43	67
45	999
46	23
47	71
48	1
50	1
51	2
52	2
53	19
54	9
55	29
56	15
57	25
58	36
59	423
60	14
61	4
63	1
65	2
66	1
67	2
68	7
69	21
70	4
71	166
72	29
73	281
74	35
75	776
76	26
77	4
79	1
81	6
82	2
83	7
84	5
85	104
86	8
87	26
88	299
89	548
90	24
91	2
94	1
95	3
96	1
97	3
98	16
99	15
101	922
102	83
103	221
104	57
105	16
106	1
111	7
112	1
113	44
114	11
115	54
116	13
117	12
119	399
120	21
121	3
125	6
126	1
127	9
128	7
129	20
130	2
131	57
132	26
133	134
134	10
135	1
141	7
142	1
143	8
145	511
146	54
147	29
148	2
153	2
156	1
157	37
159	590
160	62
162	1
163	13
164	1
171	44
172	4
173	1
175	7
177	138
178	11
179	4
185	6
187	1
189	17
190	16
191	156
192	14
193	2
203	71
204	7
205	1
216	1
221	15
222	1
235	10
236	1
