Mass Spectrum: 9-Oxabicyclo[3.3.1]nonan-2-one, 5-hydroxy-
Formula: C8H12O3
CAS: 35519-67-6
Molecular weight: 156
m/z	intensity
26	56
27	358
28	128
29	369
30	28
31	98
35	4
36	8
37	10
38	28
39	276
40	69
41	327
42	332
43	851
44	157
45	107
46	6
47	7
49	4
50	22
51	39
52	27
53	169
54	172
55	999
56	254
57	576
58	427
59	31
60	42
61	9
62	5
63	10
64	5
65	30
66	37
67	123
68	208
69	234
70	136
71	422
72	605
73	101
74	12
75	5
77	28
78	17
79	53
80	18
81	142
82	175
83	306
84	374
85	131
86	165
87	37
88	8
89	5
91	19
92	10
93	26
94	26
95	137
96	95
97	165
98	44
99	235
100	694
101	86
102	12
105	6
107	7
108	4
109	57
110	216
111	69
112	59
113	81
114	47
115	15
120	8
121	8
122	12
123	15
124	6
125	16
126	36
127	47
128	376
129	36
130	5
136	4
137	16
138	260
139	32
140	4
141	4
154	6
155	4
156	187
157	22
158	4
