Mass Spectrum: Enteromycin
Formula: C6H8N2O5
CAS: 3552-16-7
Molecular weight: 188
m/z	intensity
41	185
42	176
43	269
44	491
45	239
46	16
52	27
53	51
54	55
55	77
56	12
57	22
58	100
59	999
60	31
61	4
62	9
67	45
68	171
69	461
70	501
71	283
72	115
73	4
81	15
82	369
83	184
84	35
85	153
86	116
87	318
88	44
95	32
96	472
97	152
98	60
99	87
100	16
102	117
109	15
110	4
111	32
112	80
113	394
114	227
115	46
126	204
127	624
128	43
129	14
139	9
140	384
141	106
142	4
143	244
144	19
156	66
157	40
158	177
159	17
171	38
187	16
188	572
189	66
