Mass Spectrum: Bicyclo[2.2.1]heptane-2-carboxylic acid, methyl ester
Formula: C9H14O2
CAS: 35520-81-1
Molecular weight: 154
m/z	intensity
26	9
27	116
29	35
30	3
31	6
33	2
35	0
37	2
38	11
39	180
40	34
41	192
42	11
43	15
44	1
45	10
46	1
49	0
50	8
51	25
52	13
53	74
54	38
55	102
56	5
57	6
58	2
59	45
60	2
61	3
62	3
63	9
64	2
65	41
66	98
67	286
68	94
69	14
70	0
71	8
72	1
73	1
74	17
75	7
76	1
77	38
78	13
79	66
80	64
81	54
82	6
83	4
84	1
85	3
87	999
88	50
89	5
91	18
92	2
93	36
94	63
95	432
96	29
97	8
98	2
99	8
100	25
101	2
104	0
107	3
109	0
111	17
112	4
113	29
114	2
121	2
122	34
123	47
124	3
125	69
126	12
127	0
139	5
153	1
154	19
155	2
