Mass Spectrum: 2-Methylthiolane,S-oxide
Formula: C5H10OS
CAS: 35539-62-9
Molecular weight: 118
m/z	intensity
53	100
54	32
55	350
56	260
57	30
59	140
60	25
63	735
64	55
65	40
67	175
68	280
69	999
70	56
87	180
88	15
89	10
101	140
102	15
103	10
118	630
119	40
120	29
121	1
