Mass Spectrum: (1-Azido-2,2,2-trichloroethyl)formamide
Formula: C3H3Cl3N4O
CAS: 35530-17-7
Molecular weight: 216
m/z	intensity
42	190
43	999
44	160
47	200
62	110
64	100
71	140
76	110
82	230
83	190
84	150
85	130
110	220
111	140
112	150
118	160
120	170
122	50
146	140
148	140
150	50
174	180
176	170
178	50
