Mass Spectrum: Octadecane, 1,1'-[(1-methyl-1,2-ethanediyl)bis(oxy)]bis-
Formula: C39H80O2
CAS: 35545-51-8
Molecular weight: 580
m/z	intensity
25	3
26	11
27	57
28	85
29	140
30	7
31	12
32	17
35	3
36	5
37	3
38	6
39	44
40	14
41	328
42	109
43	718
44	42
45	67
46	3
47	3
48	2
49	2
50	5
51	7
52	3
53	19
54	45
55	414
56	171
57	999
58	64
59	63
60	32
61	13
62	3
63	4
64	7
65	7
66	9
67	66
68	69
69	296
70	125
71	718
72	58
73	71
74	10
75	12
76	3
77	13
78	6
79	17
80	9
81	53
82	83
83	242
84	72
85	515
86	35
87	11
88	7
89	12
90	2
91	12
92	4
93	7
94	7
95	38
96	46
97	171
98	62
99	210
100	21
101	10
102	5
103	4
104	6
105	9
106	4
107	6
108	5
109	19
110	19
111	74
112	31
113	156
114	20
115	14
116	6
117	6
118	3
119	8
120	3
121	6
122	4
123	11
124	11
125	31
126	14
127	132
128	17
129	16
130	3
131	6
132	10
133	8
134	5
135	4
136	3
137	7
138	7
139	13
140	8
141	109
142	14
143	7
144	3
145	6
146	3
147	3
148	3
149	6
150	3
151	5
152	7
153	10
154	11
155	84
156	14
157	4
158	3
159	3
160	3
161	2
162	2
163	2
164	2
165	3
166	5
167	6
168	7
169	77
170	14
171	6
172	2
173	2
174	2
175	2
176	3
177	3
178	3
179	3
180	4
181	4
182	4
183	60
184	10
185	9
186	3
187	2
188	2
189	2
190	2
191	3
192	2
193	3
194	3
195	3
196	4
197	40
198	7
199	4
200	2
207	4
208	3
209	3
210	3
211	20
212	4
213	3
214	4
215	14
216	17
217	11
218	5
219	4
220	2
221	2
222	3
223	2
224	3
225	6
226	2
227	3
228	2
229	2
230	2
235	2
236	2
237	2
238	2
239	4
240	3
241	7
242	3
243	2
248	6
249	4
250	21
251	9
252	12
253	296
254	61
255	8
256	2
257	2
258	2
259	2
260	2
261	2
262	2
263	2
264	2
265	2
266	4
267	14
268	5
269	11
270	3
271	3
272	2
278	2
279	3
280	2
281	8
282	6
283	6
284	12
285	6
286	2
295	5
296	10
297	281
298	61
299	9
300	2
308	2
309	3
310	2
311	3
312	4
313	2
314	1
323	2
324	2
325	2
326	2
327	5
328	3
329	3
330	2
340	2
341	3
342	2
350	1
351	2
352	1
364	2
365	2
366	2
379	2
380	2
381	1
408	2
422	2
423	2
436	2
539	3
540	2
541	1
580	2
581	1
