Mass Spectrum: 4,5-Dihydro-3H-benzo[b][1,7]dioxocin-2,6-dione
Formula: C11H10O4
CAS: 35553-57-2
Molecular weight: 206
m/z	intensity
17	15
18	48
25	2
26	29
27	81
28	34
29	8
31	1
36	10
37	3
38	13
39	65
40	11
41	108
42	172
43	15
44	25
45	2
47	1
48	0
49	2
50	21
51	44
52	119
53	21
54	9
55	999
56	34
57	13
59	1
61	1
62	4
63	34
64	35
65	9
66	4
67	4
68	11
69	46
70	11
71	9
74	1
75	1
76	2
77	9
78	4
79	10
80	43
81	24
82	6
83	7
84	2
85	5
91	11
92	11
93	4
94	3
95	5
96	3
97	103
98	7
103	2
104	1
105	6
107	4
108	3
109	7
110	775
111	57
112	5
113	1
115	4
116	1
119	21
120	3
121	11
122	1
123	2
125	3
127	1
133	3
134	80
135	12
136	6
137	1
147	2
148	0
149	3
163	1
165	1
166	0
168	0
178	22
179	3
191	0
206	158
207	19
208	2
