Mass Spectrum: m-Nitrobenzaldehyde acetylhydrazone
Formula: C9H9N3O3
CAS: 35559-10-5
Molecular weight: 207
m/z	intensity
41	10
42	32
43	999
44	44
45	2
46	1
49	2
50	35
51	27
52	15
53	4
54	2
59	592
60	17
61	5
62	29
63	97
64	26
65	62
66	6
67	1
68	0
73	0
74	9
75	17
76	30
77	13
78	5
79	2
80	2
84	0
85	4
86	5
87	5
88	5
89	216
90	45
91	40
92	25
93	2
102	6
103	17
104	5
105	4
106	0
107	2
117	38
118	189
119	25
120	1
122	0
130	1
131	2
132	9
133	2
135	1
146	0
147	21
148	22
149	63
150	5
160	1
161	7
162	1
164	16
165	25
166	2
177	1
178	0
206	2
207	39
208	4
209	1
