Mass Spectrum: Germane, dichlorodihexyl-
Formula: C12H26Cl2Ge
CAS: 35551-43-0
Molecular weight: 314
m/z	intensity
33	0
35	18
36	72
38	34
39	88
41	376
43	999
44	23
45	1
49	0
50	2
51	4
53	22
55	122
56	72
57	126
58	5
59	0
60	0
61	0
62	0
63	0
64	0
65	2
66	1
67	7
69	23
70	4
71	3
72	1
73	3
74	2
75	3
76	1
77	3
78	1
79	2
80	0
81	4
83	37
85	403
86	21
87	4
88	2
89	6
91	3
92	0
93	0
94	0
95	1
96	0
97	2
99	4
100	1
101	4
102	1
103	3
105	36
107	58
108	15
109	71
111	38
113	8
115	3
116	1
117	2
118	0
119	1
120	1
121	1
122	1
123	1
124	1
125	2
126	0
127	2
128	1
129	3
130	1
131	2
133	4
135	8
136	2
137	8
138	1
139	5
140	3
141	3
142	5
143	4
144	8
145	4
146	5
147	3
148	1
149	3
150	1
151	4
152	2
153	7
154	2
155	7
156	3
157	7
158	3
159	4
160	2
161	5
162	3
163	7
164	5
165	9
166	4
167	5
168	5
169	3
170	7
171	5
172	9
173	6
174	5
175	3
176	2
177	2
178	1
179	2
180	1
181	1
183	19
185	35
186	8
187	45
188	8
189	49
190	82
191	51
192	136
193	84
194	165
195	39
196	70
197	7
198	9
199	1
200	1
201	1
202	0
203	1
204	0
205	2
206	0
207	1
209	1
210	0
211	0
212	0
213	0
214	0
215	0
216	0
217	0
218	0
219	0
220	0
221	1
222	0
223	1
225	35
227	68
228	17
229	84
230	15
231	51
232	5
233	14
234	1
235	2
236	1
237	1
238	2
239	0
240	1
241	0
242	1
243	0
244	0
245	0
246	2
247	1
248	4
249	2
250	5
251	1
252	2
253	0
254	0
255	0
257	0
259	1
261	1
263	2
264	0
265	0
266	0
267	0
269	0
271	2
272	0
273	3
274	22
275	8
276	35
277	18
278	46
279	13
280	19
281	5
282	2
283	0
310	1
311	0
312	3
313	1
314	4
315	1
316	2
317	0
318	0
320	0
322	0
