Mass Spectrum: 1,4-Oxathian-2-one, 3-methyl-
Formula: C5H8O2S
CAS: 35562-74-4
Molecular weight: 132
m/z	intensity
36	30
39	30
43	40
44	110
45	40
46	30
57	30
58	170
59	210
60	440
61	140
62	200
63	30
73	210
74	130
75	270
76	40
77	30
81	30
87	420
88	999
89	250
90	170
91	40
95	30
97	30
116	40
117	110
118	40
119	30
132	220
133	15
134	13
