Mass Spectrum: 1H-Pyrrolo[2,1-c][1,4]oxazin-1-one, 3,4-dihydro-3-phenyl-
Formula: C13H11NO2
CAS: 35566-71-3
Molecular weight: 213
m/z	intensity
39	110
50	60
51	150
52	180
53	50
63	50
65	50
77	200
78	150
79	730
80	90
89	40
91	100
94	30
102	50
103	70
104	50
105	90
106	90
107	999
108	100
115	50
128	20
139	30
140	20
141	30
154	20
156	20
166	30
167	110
168	90
169	30
213	170
