Mass Spectrum: (2R,3R)-(-)-Diethyl-2,3-O-benzylidenetartrate
Formula: C15H18O6
CAS: 35572-31-7
Molecular weight: 294
m/z	intensity
26	18
27	155
28	21
29	514
30	17
31	47
33	1
37	2
38	9
39	44
40	7
41	25
42	28
43	96
44	7
45	35
46	2
47	7
49	2
50	40
51	152
52	29
53	12
54	6
55	24
56	3
57	6
58	4
59	49
60	7
61	5
62	9
63	35
64	19
65	36
66	5
67	0
68	0
69	28
70	11
71	65
72	3
73	7
74	8
75	14
76	21
77	331
78	147
79	203
80	13
81	3
82	6
83	2
85	2
86	4
87	87
88	14
89	96
90	84
91	597
92	59
93	6
94	5
95	2
96	0
97	1
98	2
99	45
100	10
101	4
102	3
103	61
104	12
105	999
106	96
107	176
108	15
109	1
113	4
114	1
115	38
116	7
117	24
118	15
119	52
120	16
121	35
122	363
123	36
124	3
125	1
126	6
127	80
128	16
129	4
130	2
131	10
132	2
133	7
134	1
135	119
136	13
137	1
141	0
143	18
144	2
145	26
146	3
147	42
148	54
149	89
150	9
151	3
152	0
155	0
157	1
159	5
160	1
161	3
162	1
163	1
164	1
165	1
171	0
172	1
173	131
174	12
175	4
176	2
177	4
178	1
179	1
188	1
189	24
190	2
191	1
192	3
193	23
194	3
195	0
201	1
202	4
203	2
204	0
207	14
208	4
209	0
210	0
217	12
218	1
219	1
220	2
221	515
222	78
223	10
224	1
230	0
231	1
235	2
236	0
237	18
238	2
239	0
248	5
249	14
250	3
251	1
265	17
266	2
267	0
279	5
280	1
281	0
292	1
293	116
294	25
295	12
296	2
