Mass Spectrum: Benzene, (2-methoxyethyl)-
Formula: C9H12O
CAS: 3558-60-9
Molecular weight: 136
m/z	intensity
26	5
27	23
28	0
29	42
30	2
31	16
33	0
37	2
38	7
39	58
40	7
41	11
42	0
43	4
44	2
45	999
46	24
47	2
49	1
50	22
51	61
52	12
53	5
54	0
55	0
57	0
58	17
59	1
60	1
61	2
62	8
63	27
64	7
65	106
66	6
67	0
71	0
73	1
74	7
75	5
76	5
77	70
78	27
79	26
80	1
81	0
85	0
86	1
87	1
88	0
89	17
90	6
91	474
92	67
93	4
94	0
98	0
101	0
102	6
103	40
104	172
105	43
106	11
107	2
108	0
115	1
116	0
117	1
118	0
119	2
120	1
121	1
122	15
123	1
133	0
134	0
135	1
136	245
137	19
138	1
