Mass Spectrum: Tridecane, 1-iodo-
Formula: C13H27I
CAS: 35599-77-0
Molecular weight: 310
m/z	intensity
26	4
27	75
28	180
29	153
30	4
32	41
39	50
40	12
41	346
42	80
43	746
44	27
45	3
50	1
51	2
52	2
53	20
54	21
55	286
56	87
57	999
58	51
59	3
60	6
61	4
62	1
63	1
64	1
65	4
66	2
67	20
68	12
69	146
70	49
71	659
72	37
73	7
74	14
75	2
76	1
77	3
78	1
79	3
80	1
81	8
82	8
83	60
84	20
85	426
86	30
87	8
88	2
89	1
90	6
92	1
93	2
94	1
95	4
96	4
97	30
98	12
99	93
100	9
101	2
102	1
103	1
105	2
106	1
107	4
109	3
110	2
111	9
112	6
113	64
114	8
127	46
128	6
129	2
130	1
141	22
142	3
143	2
155	40
156	1
182	1
183	103
184	14
310	3
