Mass Spectrum: Batrachotoxinin A, 7,8-dihydro-O3-methyl-, (8.beta.,20.xi.)-
Formula: C25H39NO5
CAS: 35596-59-9
Molecular weight: 433
m/z	intensity
16	124
17	21
18	43
26	21
27	507
28	105
29	999
30	39
37	26
38	41
39	19
40	78
41	525
42	203
43	969
44	240
45	387
46	41
47	21
54	41
55	74
56	365
57	155
58	437
59	124
60	78
61	258
62	124
65	26
66	26
67	124
68	190
69	468
70	181
71	234
72	65
73	157
74	37
75	17
76	13
77	30
78	15
79	56
80	28
81	153
82	175
83	236
84	100
85	96
86	302
87	65
88	277
89	50
91	61
92	17
93	45
94	32
95	126
96	118
97	190
98	76
99	52
100	13
101	26
102	13
103	19
104	17
105	56
106	19
107	39
108	32
109	78
110	63
111	118
112	56
113	45
114	8
115	30
116	17
117	21
118	8
119	43
120	28
121	65
125	81
126	39
127	32
128	13
129	67
130	13
131	21
132	13
133	32
134	17
135	30
136	30
137	39
138	30
139	39
140	30
141	30
142	30
143	39
144	21
145	30
146	13
147	19
148	39
149	37
150	39
151	39
152	37
153	41
154	41
155	37
156	41
157	37
158	37
159	30
160	41
161	41
162	37
163	43
164	43
165	37
166	41
167	37
168	37
169	32
170	13
171	19
172	17
173	15
174	21
175	15
176	26
177	21
178	15
179	24
180	19
181	15
182	30
183	21
184	8
185	19
186	15
187	17
188	13
189	15
190	15
191	11
192	11
193	15
194	17
195	41
196	32
197	35
198	19
199	26
200	15
201	21
202	17
203	19
204	24
205	21
233	8
234	4
235	19
236	15
237	2
238	17
239	13
240	6
241	4
242	21
244	32
245	8
246	11
247	6
248	6
249	6
251	11
252	11
253	11
254	6
255	4
256	67
266	24
267	15
268	21
269	17
270	11
271	19
272	17
273	15
274	8
275	13
276	8
277	8
278	15
279	19
280	19
281	11
282	8
284	30
310	179
311	56
312	32
313	8
328	72
329	17
330	30
346	116
347	32
402	13
403	17
404	13
415	11
416	4
417	4
418	13
431	13
432	4
433	63
434	21
435	6
