Mass Spectrum: Cyclobutane, 1-ethenyl-2,2,3,3-tetrafluoro-
Formula: C6H6F4
CAS: 356-77-4
Molecular weight: 154
m/z	intensity
33	23
39	752
41	5
44	21
45	26
46	5
47	2
50	89
51	119
54	999
57	61
59	49
61	6
64	360
65	27
69	54
70	18
71	8
73	0
75	58
77	63
80	1
81	5
83	33
84	21
85	50
87	3
90	851
93	2
95	54
100	24
101	8
103	25
104	4
106	1
108	3
109	0
113	17
115	81
117	0
119	2
120	0
121	1
126	1
127	0
134	22
135	0
139	2
140	0
154	42
155	1
