Mass Spectrum: Cyclobutane, 1,3-dichloro-1,2,2,3,4,4-hexafluoro-
Formula: C4Cl2F6
CAS: 356-19-4
Molecular weight: 232
m/z	intensity
19	6
20	0
31	393
32	7
35	51
36	8
37	15
43	10
47	57
48	1
49	18
50	41
51	1
55	29
62	19
66	72
68	24
69	159
74	50
78	14
80	4
81	14
82	23
84	14
85	77
87	25
90	8
93	179
97	14
100	46
101	17
103	10
105	3
109	48
111	11
112	30
116	999
117	21
118	328
119	8
124	4
128	2
131	59
132	198
134	126
136	20
140	1
143	6
147	147
149	47
151	4
153	3
155	2
159	0
163	91
165	59
167	9
