Mass Spectrum: 1-Propanone, 1-[2-(1,1-dimethylethyl)cyclopropyl]-2,2-dimethyl-, cis-
Formula: C12H22O
CAS: 35606-03-2
Molecular weight: 182
m/z	intensity
55	999
56	50
57	220
58	10
67	10
69	120
70	170
71	20
81	20
82	30
83	130
84	10
85	40
90	40
97	90
107	20
109	10
110	40
111	10
113	40
125	250
126	20
130	30
149	30
165	30
168	30
182	50
