Mass Spectrum: 7-Octen-4-ol, 2-methyl-6-methylene-, (S)-
Formula: C10H18O
CAS: 35628-05-8
Molecular weight: 154
m/z	intensity
27	187
28	25
29	124
30	3
31	27
36	2
37	4
39	180
40	66
41	532
42	58
43	528
44	49
45	286
46	6
50	11
51	33
52	25
53	120
54	12
55	44
57	167
58	11
59	6
62	2
63	6
65	35
67	412
68	999
69	668
70	54
71	44
72	4
77	22
78	5
79	41
80	23
81	17
82	4
83	15
85	174
86	15
87	53
88	3
91	15
92	8
93	37
94	8
95	11
96	7
97	15
98	32
99	2
105	2
106	1
107	6
108	3
109	4
110	8
111	3
112	5
119	1
121	15
122	1
123	0
125	1
136	16
137	1
139	4
