Mass Spectrum: 2-Amino-4-methyl-oxazole
Formula: C4H6N2O
CAS: 35629-70-0
Molecular weight: 98
m/z	intensity
27	241
28	307
29	219
30	10
32	19
38	9
39	50
40	79
41	129
42	999
43	231
44	30
51	9
52	19
53	10
54	29
55	49
56	9
67	10
68	9
69	29
70	149
71	10
98	499
99	70
