Mass Spectrum: Molybdenum, di-.mu.-chlorobis[(1,2,3,4,5,6-.eta.)-methylbenzene]bis(.eta.3-2-propenyl)di-
Formula: C20H26Cl2Mo2
CAS: 35625-66-2
Molecular weight: 532
m/z	intensity
27	38
28	3
29	3
31	2
33	0
35	9
36	35
37	57
38	88
39	404
40	78
41	140
42	49
43	9
44	3
45	22
46	13
47	2
48	4
49	15
50	81
51	113
52	31
53	18
54	8
55	1
56	3
57	5
58	2
59	14
60	7
61	44
62	46
63	99
64	21
65	164
66	22
67	17
68	0
69	0
73	5
74	13
75	11
76	14
77	24
78	12
79	4
80	0
81	1
82	1
84	2
85	5
86	8
87	3
88	0
89	35
90	14
91	999
92	515
93	39
94	5
95	8
96	8
97	5
98	11
100	4
102	0
103	1
104	1
105	5
106	4
107	2
108	3
109	3
110	2
111	3
112	1
113	1
114	0
115	1
116	0
117	2
118	0
119	1
120	2
121	3
122	2
123	3
124	2
125	0
126	5
127	1
128	3
129	2
130	4
131	4
132	6
133	8
134	8
135	9
136	9
137	6
138	4
139	2
140	0
141	0
142	0
143	1
144	2
145	1
146	3
147	3
148	3
149	3
150	2
151	1
152	2
153	0
154	0
155	1
156	1
157	2
158	2
159	3
160	4
161	4
162	2
163	3
164	1
165	1
166	0
167	1
168	2
169	2
170	5
171	4
172	8
173	5
174	8
175	8
176	8
177	4
178	7
179	1
180	4
181	4
182	1
183	5
184	6
185	7
186	8
187	11
188	6
189	7
190	4
191	2
192	2
193	2
194	2
195	3
196	3
197	5
198	5
199	6
200	4
201	4
202	3
203	2
204	1
205	1
206	1
207	2
208	1
209	2
210	1
211	1
212	1
213	2
214	1
215	1
216	2
217	2
218	4
219	9
220	7
221	16
222	19
223	22
224	23
225	29
226	22
227	24
228	18
229	11
230	9
231	4
232	2
233	1
234	0
235	0
236	1
237	0
238	7
239	2
240	6
241	10
242	11
243	5
244	13
245	2
246	5
247	2
248	2
249	3
250	3
251	0
252	2
253	2
254	1
255	2
256	0
257	0
258	1
259	1
260	5
261	2
262	8
263	7
264	10
265	9
266	15
267	6
268	13
269	5
270	7
271	3
272	6
273	0
274	2
275	0
276	1
277	1
278	0
279	1
281	0
284	0
285	0
286	0
287	0
288	0
289	0
290	0
291	0
292	0
293	0
294	1
295	1
296	1
297	1
298	2
299	3
300	3
301	3
302	4
303	4
304	4
305	4
306	3
307	2
308	2
309	0
310	1
311	0
312	1
313	1
314	2
315	1
316	2
317	2
318	3
319	2
320	2
321	1
322	1
323	0
324	0
325	0
328	0
329	0
330	0
331	0
336	0
337	0
338	1
339	0
340	2
341	0
342	2
343	1
344	3
345	2
346	3
347	2
348	3
349	2
350	3
351	3
352	3
353	4
354	3
355	4
356	3
357	3
358	2
359	2
360	0
361	0
362	0
386	0
388	1
389	2
390	3
391	3
392	6
393	4
394	7
395	6
396	7
397	4
398	6
399	3
400	4
401	1
402	1
434	0
435	0
436	1
437	0
438	0
439	0
524	0
525	1
526	2
527	1
528	2
529	1
530	2
531	2
532	2
533	1
534	1
