Mass Spectrum: Propanenitrile, 3-(2-methoxy-1-methylethoxy)-
Formula: C7H13NO2
CAS: 35633-52-4
Molecular weight: 143
m/z	intensity
13	0
14	3
15	45
16	1
17	2
18	12
19	5
25	0
26	8
27	51
28	60
29	66
30	4
31	35
32	4
33	6
36	0
37	0
38	2
39	26
40	9
41	79
42	31
43	63
44	8
45	635
46	15
47	2
51	2
52	8
53	3
54	345
55	16
56	4
57	24
58	7
59	20
60	1
61	0
63	0
64	0
65	0
66	1
67	0
68	93
69	6
70	38
71	33
72	16
73	76
74	5
75	3
76	0
77	0
79	0
80	0
82	1
83	1
84	2
85	1
86	0
87	0
88	2
89	0
90	0
96	1
97	42
98	999
99	60
100	4
101	0
102	4
103	1
109	1
110	23
111	2
112	21
113	1
114	0
115	8
116	1
117	0
118	0
120	0
123	0
128	11
129	0
