Mass Spectrum: Aprofene
Formula: C21H27NO2
CAS: 3563-01-7
Molecular weight: 325
m/z	intensity
18	1
27	4
28	9
29	14
30	23
39	2
41	3
42	24
43	7
44	26
45	1
50	2
51	7
52	2
53	1
54	2
55	2
56	27
57	16
58	39
59	1
63	2
65	2
68	1
69	1
70	12
71	20
72	9
73	6
74	1
75	1
76	3
77	33
78	6
79	1
82	2
83	2
84	18
86	999
87	65
88	3
89	4
91	2
97	1
99	158
100	20
101	2
102	7
103	75
104	8
105	3
106	1
113	1
114	1
115	6
116	1
126	1
127	1
128	2
129	1
139	4
140	1
141	3
142	1
150	1
151	3
152	7
153	5
154	1
163	3
164	5
165	67
166	39
167	6
176	4
177	3
178	17
179	16
180	7
181	80
182	12
183	1
253	4
254	1
310	5
311	1
324	1
325	1
