Mass Spectrum: Benzene, 1,4-bis[2-(2-hydroxyethoxy)ethoxy]-
Formula: C14H22O6
CAS: 35648-87-4
Molecular weight: 286
m/z	intensity
12	1
14	1
15	17
16	2
17	2
18	4
19	40
26	10
27	62
28	37
29	64
30	7
31	113
32	4
33	0
38	4
39	15
40	2
41	7
42	5
43	46
44	22
45	999
46	23
47	2
50	8
51	8
52	11
53	15
54	17
55	10
56	1
57	4
58	2
59	7
60	1
61	1
62	2
63	15
64	26
65	30
66	7
67	4
68	1
69	3
70	1
71	1
73	2
74	1
75	9
76	10
77	9
78	3
79	8
80	9
81	20
82	23
83	1
84	1
85	0
86	1
87	2
88	2
89	78
90	4
91	10
92	4
93	18
94	9
95	7
96	1
97	1
98	0
103	0
105	2
106	1
107	7
108	9
109	17
110	465
111	31
112	3
113	0
115	0
117	1
119	3
120	3
121	7
122	2
123	8
124	2
125	1
133	1
134	0
135	7
136	5
137	5
138	1
139	0
147	3
149	6
150	1
151	1
152	1
153	0
154	2
155	0
161	0
163	1
164	0
165	1
166	0
167	0
168	1
171	0
175	4
176	0
179	0
180	1
181	0
193	1
198	31
199	3
200	0
211	0
240	0
242	0
255	0
256	0
284	0
286	122
287	19
288	3
289	0
