Mass Spectrum: 4-Octanol, TMS derivative
Formula: C11H26OSi
CAS: 35651-67-3
Molecular weight: 202
m/z	intensity
38	4
39	73
40	19
41	171
42	61
43	122
44	98
45	82
46	5
47	32
51	7
53	11
54	7
55	77
56	32
57	51
58	30
59	81
60	7
61	48
62	2
65	2
67	9
68	2
69	89
70	29
71	18
72	27
73	999
74	98
75	563
76	41
77	50
79	7
81	4
83	11
84	6
85	12
87	7
89	6
91	4
92	2
93	2
95	2
97	2
99	4
101	39
102	5
103	180
104	18
105	6
112	4
113	4
115	35
116	15
129	35
130	7
131	7
143	6
144	13
145	971
146	121
147	45
158	8
159	746
160	99
161	35
171	2
173	2
187	102
188	17
189	3
201	5
202	2
