Mass Spectrum: S-(Sec-buthoxythiocarbonyl)thiohydroxylamine
Formula: C5H11NOS2
CAS: 35659-83-7
Molecular weight: 165
m/z	intensity
29	510
30	12
31	10
32	88
33	12
34	34
38	12
39	119
40	20
41	679
42	43
43	49
44	24
45	30
47	16
48	61
49	362
50	16
51	14
53	24
54	10
55	113
56	168
57	999
58	49
60	265
61	10
62	12
64	6
73	10
76	69
77	8
88	8
92	63
105	144
109	14
117	10
165	28
