Mass Spectrum: S-(Isopropoxythiocarbonyl)thiohydroxylamine
Formula: C4H9NOS2
CAS: 35659-80-4
Molecular weight: 151
m/z	intensity
32	49
33	8
34	20
37	10
38	20
39	140
40	37
41	420
42	101
43	999
44	28
45	41
46	10
47	20
48	82
49	325
51	14
59	16
60	84
61	6
62	8
64	10
76	45
91	63
92	30
103	12
109	8
151	20
