Mass Spectrum: S-(Neopentyloxythiocarbonyl)thiohydroxylamine
Formula: C6H13NOS2
CAS: 35659-84-8
Molecular weight: 179
m/z	intensity
29	198
32	8
34	8
39	83
40	6
41	302
42	48
43	999
44	8
45	4
47	10
48	36
49	12
53	18
55	249
56	40
57	131
60	36
69	10
70	68
71	827
72	40
73	4
75	6
76	91
77	2
87	2
92	36
93	4
94	2
104	12
179	38
