Mass Spectrum: S-(Methoxythiocarbonyl)thiohydroxylamine
Formula: C2H5NOS2
CAS: 35659-78-0
Molecular weight: 123
m/z	intensity
29	34
30	16
31	24
32	87
33	20
34	42
38	10
43	44
44	38
45	99
46	144
47	430
48	469
49	20
50	14
53	2
58	28
59	8
60	83
61	24
62	42
63	646
64	105
65	22
72	8
75	999
76	302
77	58
78	24
80	10
82	2
91	10
92	67
100	12
105	10
106	10
107	20
122	20
123	731
124	28
125	58
