Mass Spectrum: S-(Isobuthoxythiocarbonyl)thiohydroxylamine
Formula: C5H11NOS2
CAS: 35659-82-6
Molecular weight: 165
m/z	intensity
29	696
30	8
31	10
32	36
33	6
34	26
38	4
39	148
40	16
41	767
42	46
43	93
44	8
45	20
46	6
47	20
48	81
49	419
50	6
51	14
53	6
54	2
55	69
56	93
57	999
58	40
60	81
76	140
77	8
78	4
90	6
91	10
92	40
109	128
111	6
165	10
