Mass Spectrum: 2-Propenamide, 3-(3,4-dihydro-2H-pyrrol-5-yl)-, (E)-
Formula: C7H10N2O
CAS: 35663-85-5
Molecular weight: 138
m/z	intensity
27	10
28	20
38	30
39	150
40	80
41	250
42	250
43	20
44	120
50	10
51	40
52	110
53	60
54	100
55	370
56	60
57	10
63	20
64	30
65	130
66	90
67	120
68	30
69	20
70	10
77	20
78	10
79	20
80	190
81	120
82	410
83	30
92	70
93	100
94	999
95	110
96	130
97	220
98	20
109	70
110	560
111	70
112	10
119	10
120	40
121	210
122	60
123	10
137	120
138	680
139	70
140	10
