Mass Spectrum: 2-Butenoic acid, 4-nitrophenyl ester
Formula: C10H9NO4
CAS: 35665-90-8
Molecular weight: 207
m/z	intensity
37	20
38	80
39	360
40	75
41	650
42	28
43	12
44	45
49	16
50	45
51	32
52	30
53	23
54	20
55	10
61	15
62	30
63	110
64	60
65	40
66	12
67	10
68	50
69	999
70	85
71	13
74	25
75	23
76	21
77	14
80	21
81	20
82	10
92	11
93	20
94	13
108	20
109	50
110	21
123	10
131	6
139	30
177	11
207	18
