Mass Spectrum: N-Benzylcyclopropanecarboxamide
Formula: C11H13NO
CAS: 35665-25-9
Molecular weight: 175
m/z	intensity
14	2
15	13
17	2
18	10
26	12
27	50
28	123
29	8
30	29
31	1
37	9
38	30
39	338
40	43
41	567
42	32
43	25
44	10
45	1
46	2
49	2
50	61
51	152
52	44
53	14
54	14
55	91
56	16
57	16
58	1
59	120
60	10
61	3
62	13
63	57
64	16
65	222
66	15
67	5
68	25
69	450
70	36
71	6
72	9
73	3
74	14
75	12
76	17
77	174
78	96
79	116
80	9
81	2
82	4
83	4
84	36
85	2
86	2
87	3
88	1
89	46
90	21
91	939
92	80
93	5
96	13
97	15
98	21
99	1
101	1
102	4
103	23
104	999
105	116
106	482
107	76
108	6
115	27
116	66
117	121
118	39
119	12
120	9
121	1
127	3
128	23
129	37
130	80
131	254
132	98
133	17
134	5
141	1
142	2
143	2
144	4
145	7
146	88
147	21
148	3
149	1
156	8
157	15
158	15
159	4
160	63
161	7
162	1
173	2
174	133
175	556
176	79
177	7
