Mass Spectrum: Tetramethyl succinimide
Formula: C8H13NO2
CAS: 3566-61-8
Molecular weight: 155
m/z	intensity
14	1
15	9
16	1
26	5
27	56
28	28
29	34
30	2
31	2
37	2
38	7
39	109
40	28
41	362
42	90
43	72
44	9
45	2
50	4
51	9
52	6
53	30
54	12
55	59
56	60
57	23
58	6
59	8
61	1
63	2
65	5
66	3
67	25
68	11
69	746
70	90
71	22
72	1
77	1
79	1
81	1
82	1
83	9
84	999
85	72
86	21
87	1
94	1
95	1
96	1
97	14
98	2
100	4
112	2
121	1
127	8
140	3
155	151
156	23
157	2
