Mass Spectrum: Fmoc-L-phenylalanine
Formula: C24H21NO4
CAS: 35661-40-6
Molecular weight: 387
m/z	intensity
17	3
18	9
26	1
27	6
28	10
29	1
30	1
37	1
38	5
39	32
40	3
41	8
42	1
43	6
44	11
45	1
50	14
51	31
52	8
53	2
55	1
56	1
57	1
58	3
61	3
62	12
63	36
64	7
65	69
66	4
69	10
70	2
71	1
73	1
74	22
75	13
76	16
77	18
78	9
79	2
81	9
82	14
83	3
85	2
86	8
87	11
88	15
89	31
90	11
91	999
92	105
93	4
97	1
98	4
99	3
100	1
101	1
102	6
103	9
104	5
105	2
107	1
110	3
111	3
112	1
113	7
114	2
115	24
116	4
117	6
118	7
119	6
120	10
121	1
122	1
126	4
127	2
128	6
129	1
131	1
137	6
138	5
139	39
140	5
141	1
145	1
146	2
147	3
148	3
149	2
150	7
151	12
152	18
153	3
161	3
162	9
163	89
164	80
165	814
166	614
167	85
168	6
174	2
175	4
176	26
177	21
178	308
179	62
180	7
181	1
191	37
192	4
194	2
195	4
196	255
197	39
198	3
278	1
387	1
