Mass Spectrum: 4a,8a-Butano[1,4]dioxino[2,3-b]-1,4-dioxin, tetrahydro-
Formula: C10H16O4
CAS: 35676-38-1
Molecular weight: 200
m/z	intensity
39	175
40	78
41	389
42	223
43	223
44	71
45	135
49	10
50	32
51	41
52	21
53	50
54	100
55	999
56	300
57	71
58	23
59	75
60	16
61	16
65	35
66	21
67	125
68	151
69	125
70	35
71	48
72	37
73	146
74	21
75	8
76	8
77	28
78	28
79	12
80	10
81	17
82	75
83	160
84	749
85	110
86	250
87	64
88	10
89	150
90	14
91	14
93	12
94	12
95	39
96	21
97	17
98	19
99	19
100	425
101	646
102	139
103	17
104	21
105	21
110	50
111	255
112	673
113	250
114	71
115	21
116	17
117	35
118	17
124	14
125	14
126	14
127	71
128	35
129	121
130	21
131	39
132	3
138	32
139	67
140	258
141	50
142	232
143	41
144	71
145	14
154	12
155	89
156	14
157	151
158	35
159	12
171	14
172	14
173	482
174	85
175	12
200	749
201	98
202	17
