Mass Spectrum: (S)-2,5-Dimethyl-3-vinylhex-4-en-2-ol
Formula: C10H18O
CAS: 35671-15-9
Molecular weight: 154
m/z	intensity
26	1
27	20
28	2
29	17
30	1
31	50
37	1
38	4
39	83
40	12
41	129
42	12
43	167
44	5
45	4
50	11
51	37
52	20
53	84
54	52
55	107
56	12
57	12
58	7
59	965
60	32
61	5
62	5
63	12
64	3
65	48
66	16
67	163
68	38
69	23
70	2
74	2
75	2
76	1
77	106
78	20
79	185
80	39
81	999
82	66
83	12
85	1
89	1
91	38
92	4
93	33
94	7
95	102
96	853
97	79
98	3
103	3
104	1
105	8
106	2
107	5
109	5
110	1
112	1
115	1
117	1
119	2
121	18
122	2
123	1
137	2
139	24
140	2
