Mass Spectrum: N-Acetyl-L-methionine methyl ester
Formula: C8H15NO3S
CAS: 35671-83-1
Molecular weight: 205
m/z	intensity
31	87
33	100
35	80
37	5
38	5
39	51
41	126
42	93
43	999
44	64
45	20
46	36
47	108
48	43
49	25
53	5
54	54
55	38
56	612
57	263
58	28
59	41
60	54
61	537
62	23
63	28
68	15
69	5
70	7
71	90
72	10
74	64
75	98
83	23
84	20
85	15
86	10
87	33
88	204
89	209
90	5
91	12
97	5
98	59
99	501
100	36
101	7
102	116
103	12
104	139
105	7
106	5
112	82
113	10
114	51
115	12
116	46
125	10
126	12
131	452
132	25
133	5
144	85
145	7
146	31
147	5
158	20
162	23
205	36
