Mass Spectrum: N-Ethyl-3-piperidyl benzilate
Formula: C21H25NO3
CAS: 3567-12-2
Molecular weight: 339
m/z	intensity
41	40
42	63
43	56
44	17
50	6
51	35
52	5
53	7
54	10
55	34
56	52
57	22
58	45
63	3
65	2
67	8
68	18
69	17
70	20
71	55
72	19
74	2
75	3
76	9
77	235
78	22
79	2
80	6
81	3
82	19
83	8
84	79
85	13
86	2
89	2
91	2
94	3
96	350
97	29
98	452
99	31
100	7
102	4
104	2
105	369
106	29
107	2
108	11
109	6
110	41
111	999
112	163
113	22
114	44
115	8
126	3
127	4
128	32
129	5
139	4
151	5
152	19
153	9
154	3
157	2
163	5
164	5
165	26
166	7
167	4
181	16
182	18
183	103
184	14
324	7
