Mass Spectrum: Urea, N-(3,4-dichlorophenyl)-N'-methyl-
Formula: C8H8Cl2N2O
CAS: 3567-62-2
Molecular weight: 218
m/z	intensity
12	5
13	5
15	813
16	30
26	28
28	644
29	141
30	361
31	29
35	27
36	37
37	86
38	105
39	84
40	36
41	64
42	23
43	30
44	49
45	15
47	23
49	63
50	72
51	44
52	77
53	9
54	11
55	12
56	37
58	999
60	25
61	113
62	251
63	389
64	100
65	42
66	10
67	4
69	2
72	80
73	186
74	123
75	113
76	22
77	8
78	10
79	2
80	4
82	3
83	27
84	30
85	32
86	22
87	26
88	66
89	60
90	242
91	61
92	5
93	3
95	4
97	94
98	51
99	204
100	30
101	60
102	5
103	2
104	1
105	1
107	30
109	79
110	16
111	23
112	7
113	2
114	2
115	1
118	1
119	3
120	1
121	1
122	2
124	122
125	133
126	162
127	49
128	39
129	3
131	1
133	131
134	47
135	76
136	29
137	13
138	5
139	2
140	1
141	1
142	1
145	15
146	2
147	9
148	2
149	2
153	3
154	1
155	1
159	18
161	830
162	103
163	615
164	44
165	94
166	5
174	2
176	1
181	3
182	7
183	2
184	2
187	15
188	3
189	9
190	1
191	1
202	1
218	69
219	11
220	42
221	6
222	7
223	1
