Mass Spectrum: 2-Oxazoline, 2-amino-4-methyl-5-phenyl-
Formula: C10H12N2O
CAS: 3568-94-3
Molecular weight: 176
m/z	intensity
41	7
42	125
43	351
44	60
49	1
50	15
51	70
52	10
53	8
54	19
55	12
56	2
57	1
58	1
61	1
62	5
63	42
64	15
65	30
66	1
67	1
68	1
69	312
70	999
71	42
72	1
73	1
74	1
75	4
76	4
77	111
78	22
79	45
80	2
83	7
85	1
86	1
87	1
88	3
89	78
90	39
91	84
92	15
94	1
102	3
103	10
104	16
105	73
106	5
107	32
108	3
115	20
116	11
117	44
118	31
119	20
120	1
122	1
128	1
130	6
131	1
132	195
133	90
134	7
161	187
162	20
174	1
175	26
176	211
177	24
178	1
