Mass Spectrum: Pentanedinitrile, 2-bromo-2-(bromomethyl)-
Formula: C6H6Br2N2
CAS: 35691-65-7
Molecular weight: 264
m/z	intensity
26	121
27	126
29	15
31	1
33	4
34	3
35	3
36	22
37	52
38	68
39	445
40	90
41	40
42	2
43	4
44	3
48	3
49	17
50	31
51	143
52	198
53	55
54	84
55	12
57	4
59	1
60	1
61	4
62	10
63	17
64	62
65	12
66	999
67	59
68	2
69	3
73	4
74	2
75	12
76	15
77	17
78	86
79	96
80	234
81	98
82	238
91	8
92	2
93	27
94	5
95	28
101	1
103	1
104	4
105	60
106	199
107	16
118	2
120	5
121	2
130	2
131	5
132	9
133	5
134	7
138	3
144	14
145	5
146	15
147	4
157	1
158	15
160	16
183	2
184	7
185	89
186	16
187	89
188	8
189	2
