Mass Spectrum: 2-Hydroxy-3,5,5-trimethylcyclohex-2-ene-1,4-dione
Formula: C9H12O3
CAS: 35692-98-9
Molecular weight: 168
m/z	intensity
26	10
27	74
28	25
29	57
30	5
31	9
37	5
38	17
39	170
40	30
41	223
42	37
43	105
50	13
51	25
52	13
53	89
54	35
55	366
56	660
57	302
58	14
62	6
63	13
65	18
66	22
67	68
68	14
69	441
70	49
71	7
74	5
77	57
78	13
79	86
80	22
81	18
82	25
83	404
84	999
85	246
86	17
93	18
94	28
95	31
96	9
97	79
98	30
99	8
100	3
105	24
107	138
108	41
109	13
110	14
111	27
112	60
113	21
114	2
122	41
123	28
124	11
125	501
126	645
127	56
128	8
135	11
137	2
138	2
139	45
140	344
141	29
142	3
149	5
150	31
153	405
154	33
155	4
167	4
168	544
169	51
170	5
