Mass Spectrum: Valerenic acid
Formula: C15H22O2
CAS: 3569-10-6
Molecular weight: 234
m/z	intensity
27	102
29	107
39	287
40	63
41	476
42	36
45	94
50	24
51	109
52	68
53	219
55	355
56	37
62	8
63	53
64	25
65	304
66	88
67	199
68	34
69	64
70	22
74	17
76	19
77	612
78	160
79	624
80	107
81	291
83	47
87	21
89	49
90	18
91	999
92	129
93	359
94	90
95	227
97	49
98	66
102	48
103	171
104	72
105	864
106	186
107	727
109	81
110	17
111	65
113	22
114	10
115	458
116	181
117	523
118	87
119	457
120	128
121	276
122	492
123	70
124	26
125	84
127	69
128	173
129	151
130	68
131	403
132	93
133	808
134	123
135	109
137	45
139	23
141	39
142	26
143	58
144	43
145	340
146	130
147	351
148	206
149	90
150	30
151	70
153	22
155	17
157	31
158	36
159	144
160	107
161	704
162	102
163	40
164	23
165	46
166	12
173	141
174	92
177	75
178	37
179	85
183	36
188	24
189	259
190	51
191	114
192	68
198	5
201	157
202	15
205	30
206	29
215	8
216	72
217	9
219	151
220	30
233	8
234	820
235	149
236	19
