Mass Spectrum: Evonine, O6,O9-dideacetyl-
Formula: C32H39NO15
CAS: 35721-62-1
Molecular weight: 677
m/z	intensity
39	28
41	45
42	24
43	999
44	45
45	45
51	7
52	7
53	28
54	7
55	97
56	21
57	38
60	24
61	14
65	10
67	10
69	31
71	10
73	10
77	24
78	24
79	52
80	10
81	24
82	24
83	66
84	14
85	31
87	24
91	24
92	14
93	164
94	10
95	24
97	14
99	14
104	48
105	66
106	390
107	867
108	87
109	14
111	24
117	76
118	87
119	24
120	14
121	24
123	10
124	10
125	10
130	24
131	24
132	132
133	139
134	132
135	31
136	45
137	45
138	7
139	7
144	10
145	24
146	83
147	10
148	24
149	24
150	160
151	272
152	94
153	10
158	10
159	48
160	164
161	223
162	69
163	28
164	28
165	28
175	10
176	24
177	24
178	297
179	48
180	10
188	7
189	42
190	42
191	7
192	24
193	7
204	42
205	24
206	510
207	97
208	14
218	28
219	28
220	59
222	10
224	10
260	14
262	45
263	14
288	17
316	21
432	14
442	14
506	17
544	17
558	17
562	17
574	17
604	14
618	31
619	24
620	28
646	21
677	209
678	76
679	24
