Mass Spectrum: Tropine N-oxide
Formula: C8H15NO2
CAS: 35722-43-1
Molecular weight: 157
m/z	intensity
14	3
15	43
16	2
17	3
18	1
26	12
27	102
28	118
29	99
30	75
31	25
32	7
37	3
38	9
39	129
40	28
41	268
42	506
43	158
44	104
45	27
46	11
47	25
48	9
49	1
50	9
51	22
52	17
53	70
54	89
55	274
56	204
57	332
58	76
59	8
60	27
61	2
62	2
63	6
64	2
65	32
66	27
67	302
68	261
69	116
70	135
71	44
72	57
73	134
74	26
75	2
76	2
77	69
78	17
79	60
80	63
81	254
82	999
83	567
84	291
85	35
86	47
87	9
88	2
89	1
90	1
91	66
92	26
93	149
94	118
95	60
96	600
97	216
98	66
99	56
100	39
101	3
102	107
103	7
104	2
105	2
106	7
107	11
108	32
109	25
110	119
111	39
112	132
113	150
114	21
115	3
117	1
118	1
119	1
120	7
121	7
122	37
123	9
124	264
125	29
126	22
127	53
128	8
129	3
134	1
135	2
136	2
137	4
138	11
139	97
140	76
141	236
142	24
143	3
153	1
154	1
155	8
156	4
157	271
158	24
159	2
