Mass Spectrum: 1-Propanone, 1-[5-methyl-3-(5-nitro-2-furanyl)-1H-1,2,4-triazol-1-yl]-
Formula: C10H10N4O4
CAS: 35732-75-3
Molecular weight: 250
m/z	intensity
27	190
28	240
29	819
41	60
42	120
50	90
51	70
56	230
57	999
64	70
65	100
79	90
91	130
110	80
120	90
136	80
164	250
194	809
195	569
250	150
