Mass Spectrum: (-)-1R-8-Hydroxy-p-menth-4-en-3-one
Formula: C10H16O2
CAS: 35736-66-4
Molecular weight: 168
m/z	intensity
41	630
43	650
55	270
59	160
69	420
79	999
80	690
97	250
107	380
111	80
125	150
135	710
150	960
153	550
168	40
