Mass Spectrum: Melperone
Formula: C16H22FNO
CAS: 3575-80-2
Molecular weight: 263
m/z	intensity
15	2
26	1
27	8
28	13
29	13
30	7
38	1
39	16
40	4
41	92
42	89
43	19
44	91
45	3
48	1
50	5
51	5
52	1
53	10
54	16
55	76
56	36
57	12
58	2
62	1
63	2
65	2
66	1
67	8
68	17
69	73
70	71
71	5
74	3
75	32
76	3
77	2
79	2
80	4
81	4
82	17
83	14
84	12
85	1
92	1
93	2
94	12
95	139
96	36
97	38
98	32
99	3
100	1
101	2
103	1
104	1
107	2
108	3
109	10
110	135
112	999
113	80
114	3
115	2
120	1
121	3
123	205
124	30
125	450
126	42
127	2
133	4
134	1
135	3
136	2
137	1
138	15
139	2
140	1
145	2
146	2
147	1
149	1
150	1
151	1
162	1
163	2
164	2
165	33
166	4
206	1
244	1
246	1
260	1
261	2
262	3
263	5
264	1
