Mass Spectrum: 2,3,5,6-Tetrafluorodiphenylether
Formula: C12H6F4O
CAS: 35779-07-8
Molecular weight: 242
m/z	intensity
43	37
50	68
51	312
52	15
61	5
62	7
63	29
65	62
66	13
69	63
73	11
75	58
76	30
77	999
78	64
82	43
87	6
93	15
94	54
99	24
102	30
103	136
104	14
107	32
117	7
119	13
121	21
131	257
132	21
137	11
161	53
162	145
163	19
164	39
169	15
175	8
181	6
187	14
192	10
193	21
194	10
213	108
222	97
223	105
224	10
241	42
242	963
243	119
244	5
