Mass Spectrum: 4-(4-Methylbenzoyl)benzoic acid
Formula: C15H12O3
CAS: 35776-96-6
Molecular weight: 240
m/z	intensity
39	35
41	30
43	27
44	1
65	163
66	4
83	32
84	3
91	379
92	28
93	26
119	999
120	119
121	58
149	137
150	15
165	43
166	6
167	54
168	7
195	81
196	9
240	402
241	66
242	6
