Mass Spectrum: Diethyl fluorophosphate
Formula: C4H10FO3P
CAS: 358-74-7
Molecular weight: 156
m/z	intensity
29	218
31	179
36	120
45	278
64	19
73	38
81	40
83	40
84	79
85	39
101	999
113	439
117	99
119	98
121	39
127	100
128	79
129	319
141	19
156	19
