Mass Spectrum: Phosphoramidofluoridic acid, dimethyl-, ethyl ester
Formula: C4H11FNO2P
CAS: 358-29-2
Molecular weight: 155
m/z	intensity
26	39
27	111
29	90
30	29
31	10
41	38
42	668
43	999
44	858
45	67
47	17
67	23
83	17
84	33
85	26
94	15
96	10
101	9
108	28
109	15
110	192
111	45
112	134
126	844
127	213
128	97
140	66
154	28
155	396
156	22
