Mass Spectrum: Pyrazolo[3,4-d]pyrimidine, 1-benzyl-4-benzylamino-
Formula: C19H17N5
CAS: 35801-14-0
Molecular weight: 315
m/z	intensity
33	3
36	0
39	111
41	47
43	14
45	35
46	0
50	12
51	70
52	33
53	9
54	7
55	3
56	0
57	1
58	0
59	0
60	0
63	60
65	313
66	19
67	8
68	1
69	1
70	0
71	0
73	0
74	3
75	6
77	92
78	29
79	93
80	14
81	2
82	0
83	0
84	0
85	0
86	0
87	1
89	61
91	999
92	61
93	7
94	2
95	0
97	0
98	0
99	0
101	6
102	7
104	59
106	891
107	52
109	4
110	0
111	0
113	1
115	30
116	11
117	13
118	10
119	14
120	3
121	2
123	0
126	2
127	11
128	16
129	10
130	5
131	4
133	6
134	1
135	1
136	0
140	13
141	12
142	14
143	5
144	1
145	0
146	0
147	0
149	1
150	0
152	3
153	7
154	9
155	21
156	6
157	3
158	1
159	0
160	0
161	0
165	1
167	5
168	19
169	17
170	5
171	0
172	0
178	1
179	4
180	6
182	63
183	13
184	5
185	1
192	0
193	1
194	11
195	14
196	7
197	15
198	1
199	0
200	0
204	0
205	0
206	0
207	2
209	61
210	48
211	28
212	2
215	0
216	0
217	0
218	0
219	0
221	3
222	2
223	3
224	22
225	3
226	0
229	0
230	0
231	0
232	0
234	0
235	0
236	3
238	37
239	4
240	0
241	0
242	0
243	1
244	2
245	0
247	0
255	0
256	0
257	0
258	3
259	0
260	0
262	0
268	0
270	8
271	8
272	2
273	0
283	0
284	0
285	3
286	3
287	10
288	2
289	0
296	0
297	2
298	1
299	11
300	2
301	0
309	0
312	18
314	262
315	906
316	185
317	17
318	1
