Mass Spectrum: Thiazole, 5-methyl-
Formula: C4H5NS
CAS: 3581-89-3
Molecular weight: 99
m/z	intensity
25	9
26	21
27	110
30	23
33	12
34	11
35	4
36	8
37	72
38	89
39	225
40	11
41	13
45	161
46	62
47	18
48	10
49	9
50	37
51	32
52	14
53	120
54	54
57	41
58	21
59	165
60	64
61	10
62	5
63	5
64	11
65	3
66	15
67	4
68	3
69	27
70	20
71	426
72	273
73	30
74	8
76	4
82	1
83	2
84	16
98	221
99	999
100	54
101	32
