Mass Spectrum: .alpha.-D-Glucofuranose, 5-deoxy-5-iodo-1,2-O-(1-methylethylidene)-
Formula: C9H15IO5
CAS: 35810-92-5
Molecular weight: 330
m/z	intensity
26	24
27	113
28	24
29	105
30	16
31	355
41	73
43	161
44	40
45	653
46	48
47	161
48	56
53	24
55	113
57	73
58	24
59	999
60	48
61	16
69	121
71	88
73	129
81	40
82	24
85	121
86	32
87	40
97	24
99	48
100	56
101	32
109	16
110	48
127	97
128	48
129	145
130	40
152	32
159	48
183	48
185	81
187	40
201	88
237	32
255	48
259	194
315	274
316	32
330	24
