Mass Spectrum: .alpha.-D-Glucopyranose, 6-chloro-6-deoxy-, tetraacetate
Formula: C14H19ClO9
CAS: 35816-31-0
Molecular weight: 366
m/z	intensity
60	112
61	69
69	66
70	43
71	48
73	217
81	97
85	92
98	251
99	87
101	89
102	69
103	497
115	999
116	92
117	112
118	17
119	38
126	38
127	59
133	46
134	143
135	20
136	46
141	115
143	251
145	346
147	97
157	784
158	76
161	30
162	76
163	46
164	20
165	15
169	46
176	502
177	51
178	169
179	23
183	28
187	115
189	41
203	51
204	251
205	97
206	97
207	48
218	799
219	97
220	271
221	48
229	25
245	71
246	20
247	41
248	12
249	15
264	69
265	15
266	23
271	17
307	128
308	17
309	41
