Mass Spectrum: Alpha-l-rhamnopyranose
Formula: C6H12O5
CAS: 35810-56-1
Molecular weight: 164
m/z	intensity
12	1
13	4
14	20
15	75
16	5
17	24
18	115
19	26
24	2
25	6
26	38
27	120
28	83
29	270
30	56
31	237
32	66
33	5
36	1
37	7
38	9
39	68
40	25
41	100
42	159
43	464
44	124
45	425
46	10
47	35
49	4
50	9
51	11
52	15
53	50
54	51
55	124
56	152
57	222
58	288
59	58
60	999
61	141
62	10
63	4
64	1
65	6
66	7
67	6
68	17
69	58
70	36
71	304
72	97
73	880
74	127
75	79
76	4
77	6
78	1
79	3
80	5
81	19
82	24
83	27
84	86
85	68
86	38
87	37
88	12
89	20
90	9
91	26
92	2
93	1
94	15
95	11
96	8
97	14
98	11
99	28
100	36
101	17
102	108
103	10
104	31
105	6
106	7
107	1
108	2
109	66
110	113
111	15
112	14
113	7
114	1
115	8
116	2
117	65
118	5
119	7
120	3
121	1
122	1
123	1
124	1
126	2
127	2
128	25
129	12
130	1
131	3
133	12
134	2
135	1
136	1
145	1
146	5
147	18
148	2
149	2
150	1
164	1
165	1
