Mass Spectrum: 5-Anilino-4-methyl-1,2,3-thiadiazol
Formula: C9H9N3S
CAS: 35811-40-6
Molecular weight: 191
m/z	intensity
39	253
45	156
50	218
51	666
52	139
59	309
60	308
65	189
76	127
77	999
78	249
91	51
92	46
93	44
102	25
103	302
104	695
105	63
121	125
128	108
129	44
130	769
131	523
148	101
149	20
150	8
162	333
163	623
164	84
165	36
191	228
192	37
193	18
