Mass Spectrum: 1-Propanol, 2,2-dimethyl-, 4-nitrobenzoate
Formula: C12H15NO4
CAS: 3581-73-5
Molecular weight: 237
m/z	intensity
25	1
26	7
27	27
28	3
29	84
30	18
31	1
36	4
37	3
38	7
39	38
40	7
41	142
42	15
43	58
44	17
45	2
46	1
49	2
50	54
51	14
52	4
53	10
54	3
55	81
56	82
57	999
58	33
62	2
63	8
64	12
65	32
66	3
67	2
69	11
70	60
71	10
72	3
73	2
74	14
75	35
76	94
77	12
78	2
79	3
81	2
87	2
90	1
91	2
92	28
93	6
94	1
103	6
104	85
105	9
107	1
109	3
120	27
121	19
122	4
123	1
134	17
135	4
137	7
150	125
151	80
152	6
164	3
165	3
167	17
168	2
182	6
207	8
208	1
221	3
222	2
237	1
