Mass Spectrum: 1,2-Ethanediol, 1,2-di-1-cyclopenten-1-yl-
Formula: C12H18O2
CAS: 35811-96-2
Molecular weight: 194
m/z	intensity
27	50
29	30
31	40
39	80
40	30
41	130
42	20
43	60
51	20
52	10
53	50
55	50
57	40
65	40
66	20
67	110
68	20
69	60
70	70
77	60
78	20
79	120
80	70
81	20
83	50
91	10
95	40
96	70
97	999
98	830
99	50
147	10
176	10
194	40
195	10
