Mass Spectrum: Uridine, 2',3'-O-(phenylmethylene)-, 5'-(4-methylbenzenesulfonate)
Formula: C23H22N2O8S
CAS: 35837-30-0
Molecular weight: 486
m/z	intensity
65	180
77	959
91	789
105	999
106	979
112	120
113	60
131	50
137	30
155	40
157	60
172	539
193	80
195	30
209	20
239	50
241	10
244	20
269	6
281	3
301	5
313	110
314	70
350	20
375	100
396	4
409	5
485	3
486	10
