Mass Spectrum: Tetrafluorovinylphosphorane
Formula: C2H3F4P
CAS: 3583-99-1
Molecular weight: 134
m/z	intensity
50	21
69	156
88	50
107	999
113	37
114	14
115	163
133	3
134	7
