Mass Spectrum: 3,6-Nonadien-5-one, 2,2,8,8-tetramethyl-
Formula: C13H18O
CAS: 35845-67-1
Molecular weight: 190
m/z	intensity
39	520
40	110
41	999
42	60
43	70
50	110
51	240
52	80
53	490
54	50
55	380
56	90
57	130
62	60
63	180
64	80
65	290
66	120
67	90
68	30
69	70
70	40
74	40
75	60
76	40
77	330
78	80
79	410
80	60
81	840
82	80
87	40
89	60
91	530
92	90
93	200
94	60
96	40
102	40
103	90
104	50
105	470
106	90
107	240
108	70
109	800
110	80
115	190
116	120
117	370
118	70
119	560
120	100
121	90
122	30
127	30
128	60
129	70
130	50
131	150
132	200
133	120
134	50
135	30
145	70
147	620
148	90
160	100
161	50
162	220
163	40
165	30
175	410
176	70
189	50
190	240
191	50
