Mass Spectrum: 1-Methyl-1-isopropyl-1-silacyclobutane
Formula: C7H16Si
CAS: 35847-23-5
Molecular weight: 128
m/z	intensity
58	540
59	640
60	70
71	60
72	920
73	90
85	999
86	140
87	80
100	830
101	90
102	30
128	510
129	65
130	20
131	1
