Mass Spectrum: Ethanol, 2-[(4-methoxyphenyl)sulfonyl]-
Formula: C9H12O4S
CAS: 35848-00-1
Molecular weight: 216
m/z	intensity
63	135
64	159
77	353
78	77
92	288
93	35
95	47
107	400
108	999
109	97
123	347
124	41
155	224
156	20
171	330
172	56
188	118
216	153
