Mass Spectrum: Methanone, (2-pyridyl)-(2,8-di-trifluoromethyl-6-methoxy-4-quinolyl)-
Formula: C18H10F6N2O2
CAS: 35853-56-6
Molecular weight: 400
m/z	intensity
41	26
42	5
43	46
47	32
49	174
51	721
52	169
53	37
55	26
56	10
57	36
60	8
61	5
62	57
63	34
69	174
71	10
74	43
75	69
76	35
78	999
79	179
80	58
81	47
82	12
84	123
86	93
87	125
88	31
91	5
92	17
93	14
94	4
95	5
97	8
99	64
100	5
101	29
102	23
104	11
105	11
106	110
107	20
111	35
112	22
113	22
114	12
116	7
117	34
118	6
119	9
120	20
123	24
124	24
125	18
126	12
127	10
129	25
130	4
131	29
132	24
134	25
136	33
137	29
141	11
142	27
143	18
145	57
149	31
151	115
155	5
156	219
157	20
159	13
162	48
163	33
164	10
165	58
166	10
167	22
168	7
169	87
175	28
176	59
178	5
180	5
181	25
182	39
184	64
186	12
190	55
191	5
194	55
196	31
197	5
199	38
200	6
201	31
203	12
204	7
205	12
206	26
210	6
211	16
212	26
213	29
214	20
224	11
225	21
226	14
231	20
232	36
239	5
240	16
241	5
244	53
246	21
251	162
252	21
259	20
260	68
263	6
264	12
269	19
273	38
274	31
275	14
279	66
287	5
288	157
289	34
294	432
295	56
300	4
301	5
303	223
304	37
305	5
309	103
310	19
316	20
322	81
323	16
328	20
329	41
331	86
332	4
337	107
338	30
341	384
342	57
343	33
352	43
353	20
354	5
356	171
357	352
358	52
365	5
368	22
369	223
371	838
372	286
373	44
381	143
382	21
383	32
385	325
386	56
399	369
400	873
401	145
