Mass Spectrum: Hexanoic acid, 4-methylpentyl ester
Formula: C12H24O2
CAS: 35852-49-4
Molecular weight: 200
m/z	intensity
25	4
26	19
27	159
28	25
29	186
30	6
31	18
36	3
37	3
38	11
39	119
40	22
41	278
42	147
43	599
44	24
45	18
50	8
51	18
52	6
53	35
54	19
55	248
56	139
57	63
58	4
59	18
60	97
61	21
63	3
65	3
66	3
67	15
68	9
69	221
70	59
71	235
72	23
73	61
74	23
75	3
77	3
78	3
79	8
80	3
81	9
83	18
84	759
85	216
86	29
87	56
88	6
89	6
95	3
97	9
98	19
99	999
100	71
101	21
114	7
115	9
116	49
117	82
118	9
129	29
130	8
144	7
171	12
200	2
