Mass Spectrum: 4-Methylpentyl pentanoate  #
Formula: C11H22O2
CAS: 35852-47-2
Molecular weight: 186
m/z	intensity
15	2
26	3
27	72
28	28
29	145
30	4
31	9
38	1
39	47
40	8
41	205
42	74
43	324
44	11
45	12
50	1
51	2
52	1
53	9
54	6
55	113
56	438
57	423
58	19
59	9
60	87
61	13
67	5
68	2
69	123
70	19
71	33
72	18
73	43
74	13
75	6
82	2
83	22
84	476
85	999
86	64
87	24
88	2
99	9
100	2
101	9
102	41
103	116
104	7
111	1
114	51
115	32
116	4
117	2
126	1
127	1
128	1
129	7
143	4
144	10
145	1
157	1
