Mass Spectrum: n-Valeric acid cis-3-hexenyl ester
Formula: C11H20O2
CAS: 35852-46-1
Molecular weight: 184
m/z	intensity
26	10
27	145
28	65
29	258
30	7
31	11
32	0
37	1
38	4
39	143
40	23
41	404
42	61
43	43
44	3
45	8
50	5
51	11
52	6
53	49
54	69
55	232
56	40
57	473
58	23
59	5
60	9
61	2
62	0
63	2
65	14
66	14
67	999
68	62
69	13
70	3
71	1
72	1
73	8
74	1
75	5
77	6
78	1
79	16
80	5
81	60
82	999
83	111
84	10
85	554
86	32
87	5
91	0
95	0
96	1
99	2
100	2
101	4
102	3
103	18
104	1
109	0
114	2
115	2
127	1
129	0
