Mass Spectrum: 6-[2-Hexahydroazepino-1-hydroxyethyl]-8-methyl-2-p-methylphenylquinoline
Formula: C25H30N2O
CAS: 35871-87-5
Molecular weight: 374
m/z	intensity
41	26
42	25
43	8
44	28
45	0
47	3
48	1
49	2
51	8
53	2
54	3
55	32
56	5
57	4
58	47
59	2
60	0
63	1
65	2
67	5
68	2
69	7
70	5
71	2
72	0
73	0
77	1
78	0
79	1
81	2
82	5
83	2
84	2
86	1
88	3
89	3
91	5
96	5
97	1
98	5
99	1
101	0
102	2
103	0
108	2
109	0
110	3
112	999
113	85
115	17
116	5
117	0
122	0
123	0
124	0
126	1
127	2
128	2
129	1
139	1
140	3
141	2
142	11
143	1
152	1
154	0
165	0
166	0
189	1
190	1
191	1
202	0
203	1
204	1
215	1
216	2
217	4
218	2
219	0
228	0
230	2
231	3
232	7
233	3
234	9
235	1
244	1
246	2
247	1
248	1
258	1
259	2
260	5
261	10
262	3
263	0
267	1
269	0
273	0
275	1
276	1
289	0
343	0
373	2
374	2
375	0
