Mass Spectrum: N,N'-Trimethylenebis[s-3-aminopropylthiosulfuric acid]
Formula: C9H22N2O6S4
CAS: 35871-60-4
Molecular weight: 382
m/z	intensity
41	549
42	494
43	261
44	381
45	298
46	101
47	180
48	879
49	26
50	61
51	23
52	37
53	20
54	77
55	74
56	317
57	149
58	283
59	110
60	63
61	70
62	20
63	8
64	999
65	450
66	73
67	45
68	81
69	114
70	507
71	104
72	130
73	103
74	50
75	75
76	106
77	20
78	31
79	51
80	37
81	19
82	37
83	92
84	244
85	230
86	50
87	29
88	26
89	51
90	86
91	23
92	30
93	20
94	16
95	5
96	44
97	223
98	176
99	74
100	36
101	34
102	197
103	79
104	88
105	28
106	76
107	18
108	10
109	9
110	12
111	96
112	38
113	37
114	14
115	26
116	125
117	61
118	167
119	20
120	17
121	6
122	8
123	16
124	16
125	61
126	35
127	32
128	30
129	43
130	80
131	21
132	23
133	26
134	47
135	34
136	17
137	27
138	13
139	17
140	10
141	24
142	13
143	15
144	11
145	6
146	5
147	12
148	8
149	20
150	15
151	10
152	9
153	12
154	13
155	35
156	57
157	217
158	122
159	350
160	24
161	54
162	8
163	15
164	7
165	4
166	14
167	12
168	8
169	12
170	35
171	73
172	31
173	59
174	17
175	41
176	10
177	10
178	4
179	5
180	5
181	10
182	6
183	13
184	15
185	23
186	11
187	31
188	11
189	61
190	44
191	91
192	23
193	14
194	7
195	6
196	4
197	13
198	9
199	17
200	8
201	11
202	6
203	12
204	6
205	8
206	5
207	7
208	7
209	10
210	5
211	6
212	5
213	7
214	4
215	8
216	5
217	8
218	4
219	21
220	15
221	63
222	14
223	19
224	6
225	5
227	4
228	4
229	13
230	7
231	37
232	8
233	13
234	5
235	8
236	10
237	4
238	4
239	5
240	5
241	7
242	11
243	7
244	5
245	6
246	4
247	4
248	19
249	8
250	11
251	6
252	18
253	42
254	9
255	10
256	4
260	3
261	6
262	9
263	19
264	10
265	16
266	5
267	4
274	5
276	7
280	5
284	6
285	21
286	5
287	5
294	6
295	4
