Mass Spectrum: N,N'-[trans-1,4-Cyclohexylene]-bis[s-2-aminoethyl thiosulfuric acid]
Formula: C10H22N2O6S4
CAS: 35871-63-7
Molecular weight: 394
m/z	intensity
41	212
42	193
43	210
44	127
45	263
46	68
47	101
48	694
50	50
51	31
52	30
53	56
54	75
55	77
56	445
57	88
58	271
59	166
60	123
61	177
62	9
63	21
64	999
65	186
66	63
67	48
68	144
69	150
70	133
71	38
74	10
75	9
76	40
77	80
78	39
79	109
80	54
81	373
82	126
83	33
84	30
85	13
86	13
88	82
91	25
93	41
94	47
95	38
96	240
97	126
98	305
99	26
101	39
102	46
103	38
104	26
106	16
108	46
109	58
110	301
111	36
112	24
114	40
116	41
117	55
118	52
119	11
120	9
121	16
122	30
123	12
124	139
125	29
126	29
127	300
128	64
129	27
130	10
135	29
136	296
137	50
138	27
140	26
141	36
142	30
147	9
148	22
149	66
150	71
151	216
152	48
153	109
154	95
155	35
156	182
157	73
158	197
159	10
160	27
166	14
167	33
168	69
169	38
170	24
173	34
175	24
177	22
179	51
181	12
182	81
183	194
184	26
185	23
187	59
189	31
190	10
192	17
198	16
199	31
201	65
206	25
207	11
209	14
224	11
226	30
230	38
231	10
233	95
235	10
236	29
258	22
282	9
