Mass Spectrum: 3,3'-[trans-1,4-Cyclohexylene]bis-2-oxazolidione
Formula: C12H18N2O4
CAS: 35873-79-1
Molecular weight: 254
m/z	intensity
41	529
42	367
44	319
50	1
51	21
53	97
54	771
55	209
56	139
57	43
58	4
60	5
62	12
63	1
65	26
67	83
68	230
69	273
70	53
71	16
72	1
74	5
77	59
79	157
80	301
81	157
82	109
84	157
85	6
86	7
88	999
89	25
90	1
91	10
94	52
95	314
96	34
97	17
98	2
100	42
101	6
105	1
106	13
108	65
109	48
110	11
112	2
113	368
114	35
115	4
120	1
121	43
123	253
124	25
126	88
128	166
129	9
136	1
138	6
139	263
141	6
150	1
152	158
153	4
154	5
164	6
166	9
167	259
168	45
169	1
181	1
195	3
196	3
208	1
209	12
210	14
211	1
224	1
225	1
253	10
254	159
255	21
256	4
