Mass Spectrum: N,N'-Hexamethylenebis[s-3-aminopropyl thiosulfuric acid]
Formula: C12H28N2O6S4
CAS: 35871-55-7
Molecular weight: 424
m/z	intensity
41	139
42	90
43	88
44	161
45	51
46	17
48	407
50	24
51	2
52	7
53	11
54	19
55	67
56	98
57	29
58	37
59	7
60	19
61	36
64	999
65	12
66	57
67	6
68	24
69	8
70	51
71	36
72	13
73	42
74	19
75	29
77	6
78	4
79	10
80	8
81	17
82	24
83	16
84	43
85	2
86	24
87	9
88	5
89	19
90	20
91	29
92	6
93	8
94	7
95	0
96	41
97	2
98	71
100	17
102	107
104	86
105	7
106	23
107	4
108	4
110	19
111	32
112	62
114	20
115	1
116	50
117	6
118	15
120	2
121	0
122	5
123	1
124	42
126	22
128	21
129	11
130	27
132	6
133	2
134	2
135	0
136	14
137	1
138	53
140	12
142	11
143	14
144	14
145	1
146	6
147	1
150	3
152	6
153	4
154	3
155	7
156	8
157	6
158	14
159	1
160	8
161	2
162	0
163	2
166	1
167	9
168	1
169	4
170	13
171	78
172	41
173	8
174	14
175	2
176	1
179	0
181	3
182	0
183	6
184	5
185	8
186	3
187	11
188	3
189	2
191	0
193	1
195	9
197	4
199	2
201	5
202	0
203	9
204	1
205	11
206	3
209	1
213	1
214	1
215	5
217	2
225	1
227	6
228	2
229	25
230	1
231	7
233	1
235	1
239	1
241	1
243	9
244	0
255	2
257	2
260	2
261	6
262	2
263	3
265	0
275	2
286	2
288	2
294	9
295	1
296	1
