Mass Spectrum: N,N'-Tetramethylenebis[s-3-aminopropylthiosulfuric acid]
Formula: C10H24N2O6S4
CAS: 35871-61-5
Molecular weight: 396
m/z	intensity
41	269
42	236
43	180
44	142
45	126
46	46
47	88
48	634
49	7
50	38
51	17
52	16
53	19
54	41
55	105
56	161
57	79
58	75
59	51
60	31
61	55
62	7
63	13
64	999
65	47
66	56
67	20
68	55
69	43
70	223
71	45
72	75
73	53
74	29
75	33
76	12
77	12
78	18
79	31
80	27
81	23
82	48
83	62
84	498
85	40
86	29
87	13
88	12
89	36
90	38
91	27
92	15
93	33
94	15
95	7
96	103
97	31
98	52
99	11
100	6
101	37
102	118
103	29
104	88
105	20
106	55
107	13
108	14
109	6
110	113
111	29
112	38
113	9
114	9
115	28
116	59
117	37
118	42
119	11
120	6
122	5
124	11
125	11
127	11
128	8
129	9
130	63
131	39
132	16
133	7
135	3
136	18
138	16
139	19
140	7
141	14
142	42
143	107
144	265
145	52
146	42
147	3
149	3
150	3
151	8
152	8
153	7
154	7
155	7
156	9
157	6
158	8
159	6
161	21
162	11
163	3
167	3
168	2
169	6
170	7
171	22
172	8
173	10
175	58
176	14
177	7
183	7
184	6
185	6
187	2
201	18
203	18
207	3
215	3
233	19
235	21
316	4
