Mass Spectrum: Pregn-4-en-18-oic acid, 11-(acetyloxy)-7,9,20-trihydroxy-3-oxo-, .gamma.-lactone, (7.alpha.,11.alpha.,20R)-
Formula: C23H30O7
CAS: 35875-47-9
Molecular weight: 418
m/z	intensity
25	2
26	8
27	78
28	19
29	119
30	9
31	18
33	2
34	3
36	2
37	3
38	6
39	95
40	24
41	228
42	45
43	999
44	51
45	83
46	5
47	6
48	3
50	8
51	27
52	21
53	116
54	42
55	314
56	32
57	81
58	10
59	11
60	22
61	26
62	4
63	12
64	7
65	59
66	39
67	265
68	44
69	104
70	30
71	67
72	8
73	26
74	7
75	9
76	6
77	150
78	42
79	240
80	57
81	173
82	128
83	68
84	25
85	24
86	7
87	8
88	9
89	10
90	8
91	172
92	37
93	147
94	45
95	157
96	41
97	38
98	16
99	12
100	5
101	8
102	6
103	17
104	11
105	81
106	43
107	126
108	43
109	109
110	26
111	24
112	10
113	16
114	5
115	27
116	16
117	44
118	15
119	50
120	24
121	127
122	63
123	83
124	363
125	54
126	12
127	13
128	21
129	31
130	14
131	43
132	27
133	91
134	119
135	99
136	54
137	40
138	20
139	30
140	13
141	35
142	13
143	26
144	14
145	70
146	29
147	65
148	27
149	48
150	20
151	51
152	141
153	70
154	26
155	21
156	11
157	19
158	12
159	30
160	19
161	67
162	30
163	148
164	26
165	25
166	13
167	28
168	17
169	15
170	7
171	22
172	13
173	34
174	16
175	22
176	41
177	30
178	20
179	35
180	123
181	33
182	13
183	16
184	10
185	18
186	12
187	22
188	18
189	60
190	16
191	89
192	18
193	20
194	13
195	20
196	26
197	18
198	9
199	16
200	9
201	17
202	10
203	9
204	7
205	27
206	17
207	108
208	30
209	25
210	11
211	20
212	11
213	14
214	9
215	11
216	7
217	12
218	7
219	21
220	8
221	18
222	13
223	35
224	172
225	53
226	16
227	15
228	12
229	11
230	7
231	11
232	9
233	13
234	13
235	652
236	130
237	60
238	17
239	28
240	17
241	16
242	11
243	17
244	8
245	11
246	6
247	15
248	14
249	21
250	18
251	23
252	23
253	44
254	14
255	13
256	10
257	12
258	9
259	9
260	8
261	12
262	7
263	18
264	9
265	14
266	17
267	32
268	20
269	16
270	13
271	15
272	8
273	6
274	5
275	7
276	10
277	21
278	38
279	31
280	21
281	12
282	7
283	13
284	16
285	13
286	12
287	7
288	6
289	7
290	6
291	4
292	4
293	12
294	20
295	101
296	30
297	28
298	25
299	13
300	5
301	3
302	4
303	4
304	5
305	5
306	6
307	41
308	12
309	10
310	6
311	17
312	49
313	16
314	9
315	7
316	4
317	3
321	7
322	123
323	40
324	11
325	40
326	12
327	4
328	5
329	5
330	26
331	7
332	4
333	3
335	3
336	4
337	5
338	10
339	19
340	206
341	58
342	14
343	5
344	4
346	5
347	3
352	4
353	4
354	5
356	6
357	16
358	58
359	16
360	4
368	16
369	7
370	4
371	3
372	3
375	5
376	36
377	10
378	3
382	22
383	9
384	4
385	4
400	36
401	13
402	6
403	7
418	367
419	113
420	24
421	6
