Mass Spectrum: S,S'-3,8-Diazaundecamethylene bis[hydrogen thiosulfate]
Formula: C9H22N2O6S4
CAS: 35871-62-6
Molecular weight: 382
m/z	intensity
41	221
42	270
43	228
44	247
45	92
46	28
47	21
48	584
49	142
50	34
51	92
53	35
54	47
55	140
56	209
57	142
58	96
59	82
60	75
61	105
64	999
66	90
67	9
68	74
69	68
70	354
71	92
72	107
73	47
74	9
75	41
77	22
78	52
79	23
80	77
81	24
82	96
83	83
84	715
86	168
87	23
88	88
89	15
90	74
93	17
96	108
97	61
98	182
99	41
101	37
102	125
103	11
104	97
106	20
110	69
111	19
112	21
113	17
114	24
115	23
116	76
117	49
118	20
126	8
127	11
128	31
129	49
130	126
131	27
132	30
139	9
141	8
142	48
143	60
144	134
145	21
146	11
151	9
159	19
161	74
163	9
171	8
173	21
175	29
177	27
178	8
187	62
189	29
214	63
216	23
219	8
221	20
242	19
272	55
273	26
274	34
