Mass Spectrum: 4-Acetamido-3',4'-dichlorodiphenyl sulfone
Formula: C14H11Cl2NO3S
CAS: 35881-06-2
Molecular weight: 343
m/z	intensity
41	25
42	37
43	999
44	27
45	12
47	0
49	5
50	32
51	25
52	30
53	22
54	8
55	3
56	7
57	3
58	8
60	1
61	5
62	20
63	103
64	90
65	189
66	21
67	3
68	2
69	9
70	10
71	4
72	4
73	9
74	53
75	56
76	15
77	10
78	13
79	16
80	60
81	10
82	2
83	4
84	22
85	14
86	9
87	5
88	2
89	5
90	24
91	71
92	162
93	35
94	4
95	12
96	8
97	8
98	3
99	6
101	1
103	0
104	6
105	11
106	7
107	7
108	554
109	90
110	19
111	26
112	11
113	11
114	2
115	1
117	2
118	6
119	5
120	12
121	13
122	3
123	11
124	24
125	4
126	3
127	3
129	2
130	4
131	3
132	3
133	17
134	28
135	10
136	1
137	2
138	4
139	15
140	188
141	15
142	19
143	2
144	4
145	43
146	9
147	29
148	31
149	19
150	14
151	4
152	1
154	1
155	0
156	136
157	10
158	8
159	4
160	3
161	5
162	4
164	6
165	22
166	12
167	31
168	3
169	2
171	2
173	5
174	2
175	3
176	3
177	5
178	3
179	3
180	0
181	0
182	10
183	3
184	0
185	1
186	1
188	1
190	2
193	49
195	36
196	3
197	6
198	4
199	2
200	2
201	9
202	8
203	8
204	3
205	3
207	0
209	7
211	4
213	1
217	2
218	0
231	0
233	2
235	1
236	0
237	81
238	11
239	51
240	6
241	7
251	0
253	1
267	20
268	4
269	8
270	1
271	0
279	14
280	1
281	9
283	1
301	299
302	44
303	211
304	27
306	41
307	4
308	10
309	3
310	10
311	4
314	0
327	5
328	2
329	3
330	1
343	126
344	26
345	85
346	18
347	13
348	2
