Mass Spectrum: 4-Amino-3',4'-dichlorodiphenyl sulfone
Formula: C12H9Cl2NO2S
CAS: 35881-07-3
Molecular weight: 301
m/z	intensity
41	78
42	29
43	3
44	3
45	15
47	3
48	6
49	16
50	50
51	37
52	72
53	66
54	35
55	2
56	2
57	2
58	4
60	3
61	14
62	41
63	130
64	79
65	589
66	75
67	7
68	4
69	15
70	8
71	5
72	5
73	24
74	117
75	105
76	10
77	4
78	10
79	14
80	206
81	15
82	2
84	62
85	26
86	15
87	9
88	3
89	7
90	17
91	41
92	389
93	47
94	2
95	11
96	8
97	11
98	3
99	8
101	11
102	2
103	0
105	2
106	3
107	5
108	999
109	191
110	35
111	43
112	20
113	7
114	3
115	2
116	1
117	3
119	45
120	37
121	9
122	0
123	26
124	21
125	3
126	4
127	5
128	0
129	4
130	4
131	7
132	0
133	7
134	5
135	5
136	0
137	2
138	3
139	20
140	341
141	30
142	28
143	3
144	5
145	57
146	6
147	36
148	12
149	13
150	3
151	3
152	1
153	1
154	3
156	262
157	38
158	16
159	2
160	1
161	3
162	2
163	0
164	4
165	19
166	13
167	56
168	6
169	2
170	0
171	1
172	0
173	4
174	5
175	6
176	4
177	3
178	1
179	1
181	0
182	1
183	3
184	4
185	1
186	1
188	1
190	2
193	33
194	0
195	22
196	1
197	5
198	1
199	1
200	2
201	24
202	13
203	13
204	4
205	2
207	0
209	1
211	1
213	1
217	4
218	4
219	1
220	2
224	0
233	1
235	1
236	1
237	150
238	21
239	96
240	11
241	15
242	1
248	0
251	2
253	1
265	1
266	14
267	3
268	5
269	1
270	1
282	0
283	4
284	8
285	10
286	5
287	3
288	1
289	0
290	0
296	0
300	9
301	410
302	84
303	286
304	55
305	45
306	10
307	2
