Mass Spectrum: Bis[4-acetamido-2-carbomethoxyphenyl]sulfone
Formula: C20H20N2O8S
CAS: 35880-77-4
Molecular weight: 448
m/z	intensity
41	74
42	36
43	999
44	106
45	83
48	8
49	7
51	30
52	25
53	38
54	7
55	45
56	45
57	33
58	24
59	18
62	7
63	57
64	96
65	85
66	24
67	16
68	34
69	35
70	27
71	8
72	7
73	28
75	11
76	7
77	28
78	8
79	46
80	20
82	17
83	7
84	88
85	17
87	8
91	51
92	103
93	41
94	17
96	33
97	130
98	7
99	15
105	8
106	37
107	37
108	8
109	32
111	29
112	7
120	86
123	43
124	32
125	32
126	21
133	23
134	49
135	69
136	34
138	8
143	10
145	7
148	37
149	8
151	253
152	22
153	10
154	19
158	9
161	22
162	74
164	54
166	170
167	235
168	40
169	7
175	16
177	7
178	16
179	19
180	26
181	17
182	34
183	24
190	86
192	17
193	83
197	9
198	172
199	30
205	17
208	17
209	121
210	43
211	7
214	10
222	70
224	8
225	29
226	53
236	7
237	48
238	57
239	31
240	30
241	94
242	8
251	48
252	18
253	8
256	16
266	16
268	24
278	18
279	45
280	23
283	94
284	19
300	137
301	29
310	43
311	34
325	187
326	44
332	7
333	8
341	7
342	207
343	59
374	45
375	21
383	65
384	235
385	51
389	28
391	16
417	53
