Mass Spectrum: 4,4'-Diamino-3-trifluoromethyldiphenyl sulfone
Formula: C13H11F3N2O2S
CAS: 35881-05-1
Molecular weight: 316
m/z	intensity
41	92
42	29
43	10
44	45
45	12
50	13
51	24
52	61
53	36
54	24
56	12
57	14
61	12
62	22
63	90
64	67
65	437
66	52
67	2
69	13
70	9
75	13
76	2
77	8
78	9
79	5
80	80
81	14
83	24
84	7
88	14
89	10
90	40
91	42
92	501
93	55
95	9
96	8
98	10
101	10
102	6
108	999
109	107
110	13
111	2
112	11
113	32
114	16
116	10
120	16
121	8
122	9
123	20
124	19
126	92
133	15
139	2
140	362
141	65
142	23
143	8
148	14
156	250
157	31
158	19
160	37
161	14
176	38
178	20
182	5
189	12
192	9
208	74
209	8
251	8
252	13
257	8
297	13
316	496
317	79
318	29
