Mass Spectrum: 4'-Acetamido-4-nitro-2-trifluoromethyldiphenyl sulfone
Formula: C15H11F3N2O5S
CAS: 35880-86-5
Molecular weight: 388
m/z	intensity
41	17
42	18
43	999
44	24
45	8
47	0
49	8
50	14
51	15
52	18
53	13
54	3
57	3
58	1
62	10
63	55
64	62
65	144
66	14
68	0
69	15
70	3
74	8
75	22
76	11
77	8
78	7
79	6
80	19
81	6
82	0
83	1
84	7
86	5
88	1
89	2
90	15
91	34
92	203
93	28
94	7
95	6
96	3
99	3
104	6
105	12
106	4
107	2
108	230
109	16
110	0
112	0
114	1
118	4
120	3
122	1
123	4
124	4
125	12
126	2
131	1
132	3
133	15
134	8
139	3
140	37
141	3
142	1
143	5
144	15
145	2
152	2
156	344
157	25
158	18
160	0
164	2
166	2
167	3
182	3
192	6
198	2
216	0
219	2
235	0
238	9
245	2
291	24
292	3
300	0
327	0
330	2
346	367
347	55
348	22
349	2
369	3
388	126
389	28
390	9
