Mass Spectrum: N-(3,5-Dinitropyridin-2-yl)-L-aspartic acid
Formula: C9H8N4O8
CAS: 35899-60-6
Molecular weight: 300
m/z	intensity
41	25
42	39
43	200
44	999
45	177
46	15
47	9
48	4
49	33
50	16
51	24
52	20
53	18
54	5
55	9
56	3
57	5
59	1
60	71
61	5
62	2
63	8
64	16
65	18
66	6
67	4
68	1
69	5
70	2
71	2
73	3
74	1
75	3
76	4
77	14
78	9
79	11
80	3
81	3
83	3
84	17
85	1
86	10
88	1
89	1
90	1
91	36
92	34
93	8
94	1
95	3
96	5
97	1
102	0
103	8
104	25
105	30
106	20
107	174
108	42
109	9
110	1
111	2
112	0
113	1
115	1
117	7
118	2
119	1
120	1
121	0
126	0
130	0
131	1
132	3
133	3
134	0
138	0
142	4
143	0
147	0
148	0
149	12
150	6
154	13
163	3
164	0
176	0
178	3
184	15
185	1
193	2
300	1
