Mass Spectrum: Acetic acid, 1-ethyl-2-methylpropyl ester
Formula: C8H16O2
CAS: 35897-16-6
Molecular weight: 144
m/z	intensity
14	1
15	9
26	2
27	36
28	9
29	32
30	2
31	9
38	2
39	37
40	6
41	94
43	999
44	26
45	17
50	1
51	3
52	1
53	9
54	2
55	38
56	22
57	33
58	6
59	27
60	2
61	8
62	1
63	1
65	2
66	1
67	7
69	164
70	10
71	28
72	5
73	26
74	1
84	130
85	29
86	46
87	74
88	4
100	23
101	353
102	20
103	3
115	130
116	10
117	1
144	1
