Mass Spectrum: Arsinous iodide, bis(trifluoromethyl)-
Formula: C2AsF6I
CAS: 359-55-7
Molecular weight: 340
m/z	intensity
50	69
69	999
70	12
75	433
94	450
106	24
113	234
125	154
127	365
144	334
163	68
175	36
176	0
177	15
189	21
194	38
202	378
213	12
221	514
233	10
252	58
271	544
272	6
315	5
316	4
321	778
322	14
339	7
340	412
341	8
