Mass Spectrum: Tetraoctyltin
Formula: C32H68Sn
CAS: 3590-84-9
Molecular weight: 572
m/z	intensity
25	1
26	14
27	200
28	48
29	446
30	9
36	0
37	1
38	2
39	87
40	22
41	527
42	136
43	999
44	33
50	1
51	3
52	2
53	22
54	16
55	166
56	88
57	392
58	18
59	0
65	2
66	1
67	16
68	8
69	117
70	30
71	157
72	9
75	0
77	2
79	1
81	4
82	1
83	13
84	5
85	14
86	0
91	1
93	1
95	1
96	0
97	2
99	0
107	0
109	6
110	1
111	64
112	8
113	8
114	1
115	7
116	20
117	107
118	83
119	196
120	116
121	257
122	30
123	113
124	7
125	47
127	17
131	10
132	5
133	16
134	6
135	18
136	0
137	4
139	3
141	1
143	4
144	1
145	14
146	8
147	49
148	23
149	64
150	16
151	58
152	2
153	13
154	1
155	13
156	5
157	10
158	8
159	19
160	11
161	24
162	9
163	29
164	4
165	19
167	5
169	2
170	0
171	2
172	1
173	11
174	5
175	21
176	7
177	19
178	1
179	5
180	1
181	4
182	1
183	1
185	3
186	2
187	11
188	4
189	14
190	4
191	14
192	1
193	3
195	2
197	1
199	2
200	1
201	10
202	4
203	17
204	6
205	24
206	3
207	13
208	1
209	3
211	2
212	0
213	0
215	1
216	1
217	2
218	0
219	2
220	1
221	0
223	1
225	5
227	23
228	8
229	78
230	52
231	274
232	147
233	434
234	146
235	417
236	41
237	80
239	71
240	7
241	0
245	1
247	1
249	0
260	13
262	14
263	10
264	5
265	4
266	3
267	1
268	1
269	0
275	0
277	0
278	0
285	1
286	1
287	3
288	1
289	3
290	0
291	0
293	0
299	2
300	2
301	3
302	1
303	5
305	0
307	1
313	1
315	1
316	1
317	2
318	0
319	0
321	0
322	0
329	0
331	1
332	1
334	2
335	1
337	2
339	9
341	13
343	101
344	65
345	160
346	85
347	190
348	38
349	34
351	33
352	6
353	0
373	0
379	1
381	1
385	0
397	0
415	0
427	0
441	0
444	0
447	0
448	0
451	18
453	13
455	225
456	198
457	433
458	245
459	558
460	140
461	91
463	93
464	23
465	3
466	0
