Mass Spectrum: Oxireno[4,5]cyclopenta[1,2-c]pyran-2(1aH)-one, hexahydro-5a,6-dihydroxy-1a-methyl-, (1a.alpha.,1b.beta.,5a.beta.,6.alpha.,6a.alpha.)-
Formula: C9H12O5
CAS: 35904-75-7
Molecular weight: 200
m/z	intensity
41	210
43	410
53	60
55	110
69	80
71	80
82	70
85	100
87	999
97	70
115	150
153	70
182	10
185	10
