Mass Spectrum: 5.alpha.-Androstane-3,17-dione, 3-(dimethyl acetal)
Formula: C21H34O3
CAS: 3591-19-3
Molecular weight: 334
m/z	intensity
41	110
42	10
43	70
45	20
51	10
52	10
53	50
54	10
55	80
56	10
57	20
58	10
59	10
65	20
67	70
68	10
69	20
77	40
78	10
79	90
80	10
81	80
82	10
83	10
84	320
85	360
86	20
88	50
89	10
91	80
92	20
93	70
94	20
95	40
96	10
97	70
98	10
101	999
102	70
105	70
106	10
107	50
108	20
109	30
110	10
111	30
114	20
115	20
116	20
117	10
119	30
120	10
121	20
122	30
123	70
124	30
125	10
127	260
128	20
129	10
130	10
131	20
133	20
134	10
135	10
136	10
137	30
138	10
139	10
143	10
145	10
147	20
149	20
150	10
151	10
154	20
155	10
156	70
157	20
158	10
173	10
174	10
175	20
176	10
177	10
185	10
189	10
190	60
191	10
218	10
219	20
220	70
221	10
230	10
244	10
245	10
273	50
274	10
287	20
288	20
301	240
303	140
304	30
319	20
334	70
335	20
