Mass Spectrum: Estriol triacetate(16.beta.,17.beta.)
Formula: C24H30O6
CAS: 3591-09-1
Molecular weight: 414
m/z	intensity
41	28
43	999
44	15
45	2
47	5
49	21
51	9
53	10
55	34
57	10
65	7
67	13
69	8
71	7
77	15
79	18
81	21
82	1
84	22
85	1
86	9
87	0
88	0
91	22
92	21
93	32
95	21
97	11
99	4
102	1
103	9
105	22
107	45
108	2
109	10
110	6
111	1
115	21
116	8
117	8
118	0
119	5
120	2
121	15
123	5
127	13
128	9
129	8
131	25
133	68
134	6
135	2
141	11
142	1
144	30
145	46
146	47
147	18
148	0
149	1
152	7
153	4
154	0
155	3
157	57
159	183
160	27
161	12
163	3
165	5
167	3
168	1
169	1
170	13
172	61
173	17
174	2
175	5
177	1
179	2
181	4
183	14
184	9
185	16
186	7
187	1
188	2
189	1
193	1
195	10
197	21
198	9
199	10
201	14
203	0
209	10
211	22
213	37
214	10
215	3
223	4
224	39
225	16
226	4
227	8
235	4
237	22
238	2
239	2
241	4
242	2
243	4
251	4
252	68
253	20
255	36
256	5
269	13
270	30
271	0
295	3
297	4
312	7
330	2
355	4
372	301
373	63
374	9
414	37
415	10
