Mass Spectrum: Bis(chloromethyl) sulfide
Formula: C2H4Cl2S
CAS: 3592-44-7
Molecular weight: 130
m/z	intensity
12	2
13	5
14	14
15	4
26	3
27	11
28	19
29	17
30	6
31	4
32	10
33	3
34	3
35	15
36	18
37	5
38	6
44	25
45	333
46	252
47	38
48	32
49	326
50	9
51	106
52	1
56	2
57	9
58	15
59	41
60	13
61	5
62	1
63	3
65	1
67	1
76	3
78	2
79	49
80	10
81	56
82	5
83	18
85	1
93	1
94	47
95	999
96	45
97	369
98	11
99	15
129	1
130	245
131	8
132	165
133	5
134	33
135	1
136	1
