Mass Spectrum: Methyl 4,6-O-dimethyl-2,3-di-O-benzyl-.beta.-d-galactoside
Formula: C23H30O6
CAS: 35920-86-6
Molecular weight: 402
m/z	intensity
41	23
42	5
43	12
45	120
46	0
47	3
50	2
51	9
52	2
53	3
54	0
55	6
56	2
57	6
58	6
59	10
60	5
61	6
63	4
65	51
66	2
68	2
69	6
71	62
72	7
73	8
74	4
75	17
77	25
78	3
79	4
81	8
82	1
83	1
84	1
85	17
87	13
88	2
89	15
91	999
92	68
93	3
97	3
98	1
99	16
101	37
102	8
103	3
106	5
107	37
108	3
109	2
111	7
112	3
113	13
114	2
115	4
117	17
118	1
119	8
120	0
121	2
122	0
123	0
127	0
129	3
131	3
132	0
133	8
134	3
135	9
141	1
143	3
144	0
145	5
147	0
148	0
151	29
152	2
157	1
159	3
163	6
164	2
165	3
167	2
173	2
177	208
178	24
179	2
181	4
182	1
187	2
189	0
190	0
191	1
193	22
194	3
205	0
211	2
219	0
225	2
231	0
240	10
241	1
253	1
263	0
269	0
279	0
311	3
