Mass Spectrum: Acetic acid, 2-propylphenyl ester
Formula: C11H14O2
CAS: 35922-83-9
Molecular weight: 178
m/z	intensity
14	1
15	8
17	1
18	1
26	1
27	12
28	2
29	7
32	1
38	3
39	31
40	3
41	17
42	4
43	138
44	3
45	1
50	9
51	29
52	15
53	14
54	1
55	5
61	1
62	3
63	15
64	5
65	28
66	5
67	2
68	1
69	1
74	2
75	3
76	4
77	102
78	39
79	57
80	4
81	1
86	1
87	1
89	10
90	4
91	60
92	9
93	3
94	13
95	3
101	1
102	3
103	8
104	2
105	7
106	4
107	999
108	104
109	7
115	22
116	5
117	7
118	2
119	6
120	10
121	12
122	1
131	2
132	1
133	6
134	3
135	12
136	833
137	79
138	5
145	1
149	1
178	95
179	11
180	1
