Mass Spectrum: Cyclopropaneacetic acid, 2-hexyl-
Formula: C11H20O2
CAS: 35936-15-3
Molecular weight: 184
m/z	intensity
29	361
30	27
31	41
32	83
39	333
40	83
41	888
42	444
43	972
44	138
45	138
50	41
51	112
52	27
53	166
54	305
55	999
56	889
57	333
58	83
59	83
60	166
61	28
63	28
65	112
66	83
67	472
68	444
69	833
70	666
71	280
72	28
73	222
74	28
76	28
77	280
78	28
79	222
80	83
81	444
82	583
83	500
84	250
85	111
87	333
88	55
91	111
92	27
93	83
94	55
95	333
96	305
97	166
98	361
99	83
100	111
101	83
105	139
107	83
109	111
110	139
114	111
115	55
124	333
125	55
137	55
138	27
166	111
