Mass Spectrum: L-Histidinamide, 5-oxo-L-prolyl-L-phenylalanyl-
Formula: C20H24N6O4
CAS: 35936-95-9
Molecular weight: 412
m/z	intensity
41	250
42	30
43	60
44	110
52	40
55	70
56	100
57	70
65	70
69	50
71	30
73	30
77	40
80	40
81	90
82	80
84	999
85	70
91	650
92	100
105	70
106	80
107	110
110	50
120	50
129	30
131	30
132	160
139	30
147	30
148	100
175	800
176	80
188	50
189	70
221	20
258	50
265	60
266	270
267	180
268	30
284	30
285	10
368	6
412	1
413	1
