Mass Spectrum: Methyl 2,3,4-tri-O-methyl-6-deoxy-.beta.-D-mannopyranoside
Formula: C10H20O5
CAS: 35939-74-3
Molecular weight: 220
m/z	intensity
41	91
43	84
45	189
55	18
57	22
59	41
71	45
72	91
73	149
75	259
88	999
101	179
113	2
115	7
119	15
125	2
129	14
131	7
145	5
157	4
176	12
189	14
