Mass Spectrum: 3.alpha.,17.beta.-dihydroxyestr-4-ene
Formula: C18H28O2
CAS: 35950-87-9
Molecular weight: 276
m/z	intensity
38	1
39	116
40	27
41	399
42	31
43	227
44	36
45	20
50	6
51	39
52	27
53	207
54	37
55	438
56	34
57	205
58	23
59	6
61	1
63	13
64	8
65	143
66	53
67	407
68	78
69	99
70	29
71	60
72	7
73	5
74	4
75	5
76	7
77	385
78	133
79	589
80	104
81	349
82	76
83	103
84	27
85	15
86	10
87	7
88	2
89	16
90	8
91	999
92	307
93	453
94	218
95	374
96	142
97	122
98	17
99	5
101	7
102	13
103	70
104	126
105	421
106	172
107	330
108	173
109	272
110	222
111	55
112	3
113	1
115	145
116	61
117	261
118	108
119	240
120	156
121	178
122	145
123	130
124	28
125	9
126	3
127	30
128	109
129	189
130	90
131	314
132	107
133	240
134	96
135	179
136	114
137	35
138	11
139	9
140	5
141	54
142	40
143	148
144	143
145	241
146	180
147	233
148	110
149	149
150	46
151	112
152	28
153	20
154	17
155	32
156	18
157	97
158	79
159	195
160	93
161	92
162	94
163	43
164	64
165	27
166	9
167	9
168	5
169	30
170	14
171	76
172	44
173	89
174	111
175	56
176	24
177	18
178	9
179	5
180	1
181	5
182	1
183	41
184	19
185	169
186	68
187	86
188	41
189	29
190	13
191	9
192	4
193	2
194	4
195	3
196	2
197	38
198	24
199	207
200	171
201	99
202	34
203	53
204	38
205	19
206	13
207	6
208	1
210	2
211	15
212	18
213	17
214	76
215	39
216	29
217	42
218	214
219	42
220	7
221	2
225	74
226	12
227	10
229	38
230	20
231	5
232	21
233	12
234	2
239	6
240	43
241	12
242	6
243	56
244	12
245	3
247	13
248	6
249	1
256	8
257	5
258	258
259	54
260	17
261	9
274	5
275	21
276	186
277	36
278	4
