Mass Spectrum: 2-Tetradecene, (E)-
Formula: C14H28
CAS: 35953-54-9
Molecular weight: 196
m/z	intensity
15	5
24	0
25	2
26	14
27	188
28	28
29	444
30	9
31	0
37	9
38	3
39	155
40	31
41	780
42	198
43	753
44	19
45	1
50	2
51	7
52	6
53	73
54	127
55	999
56	506
57	506
58	46
59	1
60	1
63	0
65	10
66	13
67	127
68	111
69	477
70	396
71	174
72	9
73	0
77	8
78	2
79	15
80	4
81	47
82	85
83	335
84	198
85	87
86	5
91	4
92	0
93	3
94	1
95	19
96	42
97	264
98	101
99	9
105	1
106	0
107	2
108	1
109	6
110	5
111	108
112	52
113	6
115	0
119	1
121	2
122	2
123	2
124	7
125	33
126	24
127	3
133	0
135	2
136	2
137	1
138	3
139	10
140	13
141	2
149	1
150	0
151	0
152	1
153	5
154	5
155	0
166	0
167	3
168	10
169	1
181	1
196	74
197	8
