Mass Spectrum: Thymidine, 5'-deoxy-5'-(3,4-dihydro-5-methyl-2,4-dioxo-1(2H)-pyrimidinyl)-
Formula: C15H18N4O6
CAS: 35959-35-4
Molecular weight: 350
m/z	intensity
27	140
28	150
39	70
43	20
53	170
54	110
55	250
81	999
82	100
96	60
126	270
127	80
139	30
206	120
207	40
225	40
350	5
