Mass Spectrum: 5,8-Quinolinedione, 6-((2-(4-morpholinyl)ethyl)amino)-
Formula: C15H17N3O3
CAS: 35961-94-5
Molecular weight: 287
m/z	intensity
41	26
42	56
43	17
44	18
45	7
49	10
50	10
51	19
52	9
53	13
54	16
56	130
57	10
58	3
60	2
61	1
63	8
64	2
65	2
68	15
70	48
71	7
72	17
75	11
76	11
77	25
78	15
79	5
80	1
81	5
82	3
83	1
84	4
86	11
87	1
88	2
90	11
91	2
94	5
96	1
97	1
98	26
100	999
101	49
102	15
103	9
105	58
106	7
111	2
112	2
113	1
114	2
115	1
116	4
117	5
118	1
122	5
129	3
130	1
131	6
132	3
143	3
144	3
147	1
148	1
158	1
159	4
160	3
170	1
171	1
173	1
175	1
185	1
186	1
187	17
188	5
198	0
199	4
200	5
201	7
202	1
227	20
228	2
255	8
256	1
286	11
287	23
288	4
289	1
