Mass Spectrum: Glycine, N-cyclohexylcarbonyl-, methyl ester
Formula: C10H17NO3
CAS: 35960-89-5
Molecular weight: 199
m/z	intensity
26	5
27	32
28	12
29	23
30	77
31	8
33	3
39	69
40	13
41	189
42	16
43	19
44	80
45	6
50	6
51	12
52	11
53	46
54	71
55	400
56	73
57	9
58	10
59	29
60	5
62	8
63	2
64	1
65	12
66	32
67	168
68	73
69	23
70	4
71	2
72	4
73	6
74	11
75	2
76	2
77	20
78	10
79	47
80	18
81	113
82	154
83	999
84	96
85	10
86	6
87	1
88	126
89	47
90	530
91	29
92	13
93	6
94	7
95	20
96	6
97	6
98	8
99	21
100	2
101	2
102	5
103	20
104	2
105	3
106	2
107	4
108	8
109	24
110	221
111	517
112	228
113	23
114	2
115	7
116	11
117	2
118	5
120	2
121	2
122	12
123	4
124	2
125	4
126	23
127	3
128	6
129	2
131	267
132	17
133	3
134	1
138	8
139	20
140	122
141	23
142	3
143	1
144	555
145	45
146	5
147	2
152	3
153	3
154	2
155	2
156	1
157	16
158	108
159	6
160	2
165	4
166	3
167	141
168	83
169	37
170	9
171	9
179	2
180	1
181	9
182	2
184	10
188	1
189	4
191	1
193	1
197	1
198	4
199	377
200	46
201	2
