Mass Spectrum: .alpha.,4-Diacetoxy-3-methoxy-1-ethylbenzene
Formula: C13H16O5
CAS: 35960-49-7
Molecular weight: 252
m/z	intensity
43	999
91	100
135	100
150	220
151	320
168	100
210	320
252	40
