Mass Spectrum: 1(2H)-Pyrazineacetonitrile, 5-amino-3,6-dihydro-3-imino-
Formula: C6H9N5
CAS: 35975-34-9
Molecular weight: 151
m/z	intensity
40	190
41	590
42	999
43	410
53	10
54	10
55	60
56	10
57	10
58	10
67	60
68	110
69	90
82	90
83	780
84	50
98	5
108	10
109	5
110	5
111	40
123	10
124	30
125	5
151	90
152	5
