Mass Spectrum: N-[[2-Morpholinoethyl]]maleamic acid
Formula: C10H16N2O4
CAS: 35976-73-9
Molecular weight: 228
m/z	intensity
41	62
42	239
43	32
44	36
45	25
46	2
52	4
53	15
54	45
55	64
56	180
57	28
58	7
59	2
63	1
66	2
67	3
68	12
69	15
70	57
71	14
72	29
73	2
78	2
80	9
81	4
82	23
83	7
84	4
85	7
86	9
87	11
88	3
95	3
96	6
97	3
98	25
99	45
100	999
101	64
102	5
107	2
110	17
111	3
112	7
113	28
114	7
123	4
124	11
125	2
128	0
129	0
142	4
157	0
185	2
209	5
210	36
211	14
212	5
226	0
227	3
228	10
229	1
