Mass Spectrum: 2,6-Piperazinedione, 4-(phenylmethyl)-, dioxime
Formula: C11H14N4O2
CAS: 35975-18-9
Molecular weight: 234
m/z	intensity
42	110
51	20
55	20
65	190
67	40
91	999
92	430
112	30
143	520
144	20
145	20
156	20
157	60
190	20
203	190
204	20
217	80
233	50
234	380
235	50
