Mass Spectrum: 2,6-Piperazinedione, 4-benzoyl-, 2-oxime
Formula: C11H11N3O3
CAS: 35975-25-8
Molecular weight: 233
m/z	intensity
41	60
42	110
43	10
50	90
51	290
52	10
74	30
76	40
77	710
78	50
104	5
105	999
106	120
107	6
201	4
219	3
220	2
233	30
234	3
