Mass Spectrum: 2,5-Hexanediol, 1,6-dibromo-3,4-dichloro-
Formula: C6H10Br2Cl2O2
CAS: 35972-80-6
Molecular weight: 342
m/z	intensity
87	114
89	45
91	999
93	325
104	214
105	78
106	77
107	25
109	91
111	65
121	42
122	85
123	271
124	68
125	242
149	468
151	468
167	360
169	434
171	111
183	47
184	197
185	68
186	281
187	40
188	71
202	107
204	160
205	25
206	67
207	28
208	10
209	10
213	451
215	579
217	137
227	12
229	10
231	81
233	157
235	67
245	85
247	147
249	285
251	362
253	171
289	61
291	145
293	100
295	24
307	17
309	32
311	25
