Mass Spectrum: Bicyclo[2.2.1]heptan-2-amine, N,4,7,7-tetramethyl-
Formula: C11H21N
CAS: 35973-44-5
Molecular weight: 167
m/z	intensity
30	50
31	40
33	30
39	110
40	20
41	250
42	250
43	50
44	300
45	10
51	30
52	10
53	90
54	20
55	120
56	90
57	230
58	100
59	20
65	40
66	20
67	110
68	80
69	60
70	140
71	30
72	10
77	70
78	30
79	80
80	50
81	90
82	130
83	80
84	210
85	100
91	60
92	20
93	100
94	50
95	450
96	250
97	300
98	999
99	120
105	10
106	10
107	50
108	40
109	40
110	640
111	130
112	250
113	20
121	60
122	30
123	10
124	160
125	30
126	10
136	40
137	10
138	20
152	300
153	50
154	20
166	70
167	870
168	110
169	20
