Mass Spectrum: 1(2H)-Pyrazineacetamide, 5-amino-3,6-dihydro-3-oxo-
Formula: C6H10N4O2
CAS: 35975-36-1
Molecular weight: 170
m/z	intensity
40	50
41	260
42	999
43	110
44	160
56	50
57	35
58	50
59	160
69	90
70	20
71	320
84	30
87	20
98	120
99	250
112	300
126	865
127	110
153	30
170	110
171	12
