Mass Spectrum: 2,6-Piperazinedione, 4-acetyl-, 2,6-dioxime
Formula: C6H10N4O3
CAS: 35975-26-9
Molecular weight: 186
m/z	intensity
41	180
42	560
43	999
55	160
67	230
82	60
85	100
95	60
96	50
98	60
99	160
100	30
109	170
113	90
126	160
127	730
128	80
143	90
169	440
170	60
186	510
187	60
