Mass Spectrum: 2(3H)-Pyrazinone, 6-amino-4,5-dihydro-4-(phenylmethyl)-
Formula: C11H13N3O
CAS: 35975-16-7
Molecular weight: 203
m/z	intensity
39	210
40	50
41	30
42	995
43	110
50	40
51	120
52	30
57	50
63	10
64	40
65	470
69	80
71	30
77	40
83	30
84	760
85	40
89	120
90	70
91	999
92	580
93	40
104	50
106	50
112	300
113	20
118	50
120	130
126	30
131	40
132	140
133	480
134	50
145	40
174	70
175	10
202	40
203	820
204	80
