Mass Spectrum: Formamide, N,N'-2,6-piperazinediylidenebis-
Formula: C6H8N4O2
CAS: 35975-28-1
Molecular weight: 168
m/z	intensity
41	630
42	960
43	999
44	280
52	40
53	120
54	30
55	80
56	40
57	230
58	170
66	50
67	370
68	190
69	170
70	190
71	50
83	170
84	190
85	130
86	170
94	140
95	230
96	30
97	50
109	280
110	70
111	370
112	150
113	20
122	30
137	370
138	90
139	750
140	920
141	190
168	730
169	100
