Mass Spectrum: 2,6-Piperazinedione, 4-(phenylmethyl)-
Formula: C11H12N2O2
CAS: 35975-17-8
Molecular weight: 204
m/z	intensity
39	950
41	120
42	900
43	40
51	80
63	90
65	350
71	30
77	30
85	60
89	90
90	50
91	999
92	610
93	40
104	110
113	190
118	50
120	10
127	30
131	30
132	190
133	580
134	60
147	70
175	50
176	10
177	10
192	40
203	30
204	830
205	125
