Mass Spectrum: 3,6-Bis[trifluoromethyl]-a-[4,4-diethoxybutylaminomethyl]-9-phenanthrenemethanol
Formula: C26H29F6NO3
CAS: 35971-83-6
Molecular weight: 517
m/z	intensity
41	114
43	658
44	226
45	22
47	136
48	0
49	5
51	2
53	16
55	95
56	66
57	37
58	14
59	26
60	2
61	2
68	25
71	417
72	21
73	3
75	58
76	1
80	5
82	45
84	999
85	67
86	12
87	9
88	0
96	0
99	112
100	23
101	2
103	92
104	4
112	2
114	5
115	4
128	302
129	20
130	2
144	2
146	0
151	0
172	1
174	185
175	18
176	4
177	1
189	4
194	2
196	4
202	4
203	1
204	2
205	1
207	3
214	1
220	1
223	1
225	15
226	2
227	2
233	0
238	2
243	8
244	2
246	39
247	4
251	4
256	1
257	0
259	2
260	2
264	4
268	0
269	1
270	8
271	5
272	3
273	2
275	12
276	1
285	2
287	4
292	1
293	1
295	57
296	5
301	3
309	1
313	13
314	11
315	6
319	9
321	5
323	1
324	1
327	7
328	1
339	20
340	5
341	9
342	1
343	16
344	3
354	2
356	2
366	1
368	4
386	0
406	0
408	3
410	3
424	2
426	72
427	18
428	0
452	8
453	2
454	5
455	0
470	1
472	25
473	6
488	0
517	16
518	5
