Mass Spectrum: Bicyclo[2.2.1]heptan-2-amine, N,N,4,7,7-pentamethyl-
Formula: C12H23N
CAS: 35973-45-6
Molecular weight: 181
m/z	intensity
39	70
41	170
42	140
43	70
44	90
45	40
46	40
53	70
54	10
55	90
56	70
57	30
58	360
59	10
65	30
67	70
68	30
69	50
70	70
71	160
72	120
77	70
78	10
79	70
80	40
81	110
82	90
83	90
84	110
85	10
91	40
93	70
94	30
95	370
96	170
97	40
98	280
99	50
105	10
106	10
107	20
108	30
109	30
110	130
111	300
112	999
113	120
114	10
122	20
123	10
124	710
125	120
126	70
127	10
136	20
137	20
138	120
139	20
152	20
166	200
167	40
180	90
181	860
182	120
183	20
