Mass Spectrum: Pyrazinamine, 3,4,5,6-tetrahydro-6-imino-4-(phenylmethyl)-
Formula: C11H14N4
CAS: 35975-20-3
Molecular weight: 202
m/z	intensity
41	120
42	480
43	130
44	130
65	120
69	70
83	250
84	160
91	999
92	175
111	150
120	570
133	70
174	50
175	15
201	10
202	250
203	20
