Mass Spectrum: 1-Piperazineethanimidamide, N-hydroxy-3,5-bis(hydroxyimino)-
Formula: C6H12N6O3
CAS: 35975-37-2
Molecular weight: 216
m/z	intensity
42	999
55	200
67	171
69	186
74	240
83	157
96	186
143	186
157	85
164	31
183	17
184	21
199	360
