Mass Spectrum: Pyrazinamine, 3,4,5,6-tetrahydro-6-imino-N-phenyl-4-(phenylmethyl)-
Formula: C17H18N4
CAS: 35975-23-6
Molecular weight: 278
m/z	intensity
42	160
50	240
51	310
52	230
63	100
65	80
66	80
76	80
77	140
78	999
79	110
84	30
91	220
92	40
93	180
118	80
119	30
133	20
159	40
160	10
187	80
188	10
278	130
279	35
