Mass Spectrum: 2-Furancarbodithioic acid, methyl ester
Formula: C6H6OS2
CAS: 35972-85-1
Molecular weight: 158
m/z	intensity
39	35
44	49
45	54
69	31
71	22
76	33
82	37
83	64
111	999
112	63
113	47
158	645
159	52
160	59
