Mass Spectrum: 2-(4-Chlorophenoxy)acetamide
Formula: C8H8ClNO2
CAS: 3598-10-5
Molecular weight: 185
m/z	intensity
34	8
35	4
36	8
37	51
38	127
39	127
40	162
41	62
42	151
43	53
44	555
45	15
47	11
49	41
50	298
51	163
52	13
53	22
54	2
55	24
56	7
57	34
58	999
59	26
60	9
61	52
62	86
63	220
64	59
65	61
66	5
67	5
69	9
70	4
71	11
72	18
73	169
74	132
75	526
76	124
77	279
78	33
79	74
80	4
81	6
82	1
83	6
84	14
85	52
86	6
87	15
89	3
91	5
92	11
93	9
94	2
95	6
97	6
98	5
99	196
100	31
101	54
102	4
105	15
106	5
107	59
108	4
109	4
110	8
111	611
112	92
113	303
114	36
115	39
125	3
126	6
127	98
128	326
129	54
130	109
131	6
132	1
133	1
139	10
140	6
141	459
142	177
143	144
144	50
145	4
149	11
150	1
155	8
156	1
157	2
167	4
185	652
186	63
187	234
188	19
