Mass Spectrum: Isobutyric acid, hexafluoro-, methyl ester
Formula: C5H4F6O2
CAS: 360-54-3
Molecular weight: 210
m/z	intensity
44	10
47	38
51	10
59	999
60	39
69	544
70	9
81	348
82	71
91	327
92	19
110	10
111	30
113	170
114	19
132	99
133	10
150	20
159	129
162	19
170	30
178	79
179	846
180	39
190	197
210	339
211	29
