Mass Spectrum: Ether, 2-chloro-3,3,4,4-tetrafluoro-1-cyclobuten-1-yl ethyl
Formula: C6H5ClF4O
CAS: 360-13-4
Molecular weight: 204
m/z	intensity
14	3
15	11
18	1
25	1
26	24
27	265
28	55
29	999
30	23
31	42
32	5
35	1
36	2
37	1
38	1
39	2
40	1
41	2
42	2
43	13
44	2
45	1
47	46
48	3
49	15
50	10
51	5
52	1
53	1
55	10
56	2
57	1
59	4
60	1
61	1
62	6
63	6
64	1
65	1
66	1
67	39
68	1
69	33
70	1
71	32
72	2
73	1
74	24
75	85
76	7
77	4
78	16
79	2
80	3
81	4
82	1
83	1
84	1
85	5
86	1
87	6
88	1
89	2
90	63
91	128
92	17
93	62
94	3
95	1
96	1
97	53
98	4
99	17
100	8
101	1
102	1
103	1
105	2
106	1
107	23
108	1
109	117
110	16
111	37
112	35
113	10
114	1
119	1
121	8
122	1
123	1
124	11
125	51
126	4
127	16
128	35
129	2
130	11
131	1
132	18
133	1
134	12
135	1
136	2
137	7
138	1
139	4
140	3
141	16
142	2
143	1
147	4
149	1
151	1
153	5
155	2
156	3
157	80
158	4
159	45
160	3
161	6
164	1
166	2
168	1
171	5
173	2
175	1
176	633
177	29
178	207
179	10
182	1
184	1
186	14
187	1
188	9
189	2
190	4
191	2
192	1
202	1
203	2
204	192
205	14
206	62
207	4
