Mass Spectrum: Ether, methyl heptafluoroisobutenyl
Formula: C5H3F7O
CAS: 360-53-2
Molecular weight: 212
m/z	intensity
47	78
69	999
70	9
71	76
81	54
90	57
91	17
93	226
94	61
95	12
100	162
112	61
113	45
131	15
150	99
151	3
159	419
160	16
162	17
178	106
179	6
181	14
182	4
193	237
194	12
212	135
213	8
