Mass Spectrum: Cytochalasin e
Formula: C28H33NO7
CAS: 36011-19-5
Molecular weight: 495
m/z	intensity
12	1
13	2
14	8
15	31
16	11
17	2
18	7
25	3
26	14
27	58
28	137
29	114
30	36
31	11
32	5
37	3
38	6
39	86
40	23
41	205
42	52
43	623
44	471
45	20
46	4
50	9
51	29
52	16
53	83
54	21
55	190
56	30
57	44
58	10
59	5
60	2
61	1
62	4
63	17
64	7
65	115
66	25
67	87
68	36
69	105
70	69
71	104
72	16
73	4
74	3
75	4
76	5
77	132
78	42
79	146
80	50
81	134
82	82
83	72
84	21
85	28
86	34
87	38
88	4
89	20
90	16
91	999
92	122
93	164
94	49
95	95
96	91
97	49
98	29
99	9
100	14
101	6
102	9
103	52
104	39
105	166
106	67
107	88
108	81
109	113
110	116
111	31
112	21
113	6
114	5
115	83
116	49
117	122
118	67
119	149
120	324
121	114
122	64
123	52
124	59
125	64
126	24
127	27
128	81
129	80
130	60
131	93
132	65
133	122
134	175
135	98
136	102
137	60
138	29
139	18
140	7
141	38
142	35
143	74
144	71
145	132
146	135
147	130
148	106
149	74
150	65
151	38
152	54
153	22
154	37
155	35
156	33
157	81
158	50
159	88
160	137
161	122
162	504
163	97
164	51
165	34
166	71
167	28
168	18
169	27
170	36
171	66
172	150
173	160
174	197
175	101
176	116
177	68
178	149
179	37
180	22
181	21
182	18
183	35
184	50
185	82
186	93
187	64
188	145
189	89
190	224
191	52
192	67
193	23
194	14
195	21
196	19
197	32
198	83
199	76
200	160
201	84
202	97
203	72
204	199
205	36
206	20
207	17
208	13
209	25
210	42
211	74
212	76
213	43
214	43
215	34
216	140
217	72
218	285
219	55
220	17
221	14
222	13
223	21
224	43
225	52
226	159
227	74
228	187
229	54
230	40
231	19
232	16
233	12
234	14
235	15
236	31
237	23
238	46
239	27
240	67
241	31
242	30
243	27
244	64
245	73
246	810
247	152
248	32
249	14
250	33
251	30
252	100
253	153
254	97
255	40
256	70
257	36
258	72
259	16
260	17
261	11
262	18
263	19
264	47
265	30
266	75
267	29
268	59
269	28
270	80
271	23
272	35
273	22
274	100
275	26
276	23
277	17
278	48
279	26
280	65
281	40
282	55
283	25
284	16
285	6
286	11
287	8
288	45
289	19
290	39
291	22
292	29
293	24
294	194
295	72
296	52
297	23
298	69
299	18
300	13
301	7
302	10
303	11
304	33
305	12
306	37
307	29
308	72
309	57
310	104
311	28
312	10
313	5
314	29
315	9
316	46
317	15
318	79
319	46
320	117
321	42
322	79
323	21
324	92
325	23
326	18
327	7
328	8
329	7
330	9
331	7
332	19
333	8
334	15
335	17
336	169
337	788
338	253
339	46
340	10
341	3
342	40
343	10
344	18
345	8
346	69
347	25
348	46
349	14
350	18
351	6
352	6
353	4
354	9
355	4
356	5
357	2
358	7
359	5
360	18
361	11
362	31
363	15
364	195
365	86
366	27
367	7
368	5
369	3
370	11
371	6
372	12
373	8
374	8
375	4
376	9
377	5
378	4
379	19
380	44
381	57
382	22
383	5
384	3
385	3
386	10
387	9
388	7
389	11
390	44
391	27
392	9
393	3
394	2
395	2
396	2
397	3
398	2
399	3
400	5
401	3
402	9
403	4
404	14
405	14
406	9
407	59
408	54
409	13
410	3
413	2
414	1
415	12
416	6
417	9
418	7
419	2
423	3
424	5
425	3
431	3
432	1
433	35
434	12
435	6
436	2
449	1
451	6
452	23
453	7
454	2
467	13
468	4
495	26
496	8
497	1
