Mass Spectrum: Xylitol, pentabenzoate
Formula: C40H32O10
CAS: 36030-82-7
Molecular weight: 672
m/z	intensity
77	610
105	999
122	47
202	71
269	280
281	44
282	49
294	12
306	27
311	41
323	73
324	59
331	73
403	250
428	120
537	37
550	3
551	3
