Mass Spectrum: Acetic acid, 2-diethylphosphinyl-, ethyl ester
Formula: C8H17O3P
CAS: 36032-75-4
Molecular weight: 192
m/z	intensity
33	10
34	3
35	4
36	6
37	1
38	4
39	22
40	16
41	58
42	106
43	395
44	36
45	71
46	13
47	187
48	83
49	187
50	4
51	2
52	1
53	4
54	11
55	27
56	9
57	40
58	19
59	42
60	37
61	95
62	109
63	57
64	50
65	273
66	4
67	11
68	6
69	17
70	10
71	21
72	9
73	20
74	10
75	41
76	103
77	296
78	26
79	11
80	14
81	8
82	8
83	20
84	5
85	13
87	4
88	19
89	113
90	129
91	38
92	271
93	999
94	116
95	32
96	5
97	5
98	5
99	2
100	2
101	3
103	41
104	89
105	625
106	47
107	21
108	36
109	9
110	2
111	4
112	2
113	1
114	0
115	2
116	2
117	28
118	120
119	17
120	67
121	594
122	113
123	225
124	13
125	2
126	1
127	1
129	2
130	0
131	1
132	0
133	4
135	622
136	47
137	7
138	1
139	0
142	0
143	1
145	24
147	593
148	39
149	9
150	2
151	9
152	2
153	1
154	0
155	1
158	1
159	0
160	0
161	2
163	390
164	524
165	42
166	6
167	1
168	0
171	1
172	0
174	0
175	0
177	1
178	0
179	0
180	0
181	0
182	1
183	0
185	1
186	0
187	0
189	0
191	9
192	122
193	16
194	2
195	0
