Mass Spectrum: Benzeneamine, 3-hexyl-
Formula: C12H19N
CAS: 36042-29-2
Molecular weight: 177
m/z	intensity
51	25
52	18
53	20
54	24
55	17
65	46
66	22
77	87
78	36
79	64
80	12
89	16
90	13
91	42
92	26
93	49
94	38
103	19
104	13
105	22
106	372
107	999
108	73
115	15
117	20
118	23
119	33
120	160
121	44
132	24
134	19
135	26
175	11
177	264
178	48
179	13
