Mass Spectrum: 2-Methyl-4-oxo-4-phenylbutanoic acid, methyl ester
Formula: C12H14O3
CAS: 36057-38-2
Molecular weight: 206
m/z	intensity
12	2
13	2
15	250
16	4
17	3
18	9
19	1
26	14
27	67
28	22
29	48
30	9
31	15
33	1
37	4
38	13
39	92
40	19
41	82
42	44
43	12
44	1
45	7
50	66
51	225
52	16
53	7
54	1
55	14
56	3
57	2
59	80
60	2
61	1
62	4
63	9
64	3
65	12
66	4
67	1
68	3
69	17
70	1
73	12
74	14
75	13
77	488
78	45
79	3
85	1
87	2
89	3
90	1
91	14
92	2
93	1
101	14
102	4
103	5
105	999
106	82
107	5
115	6
116	2
117	3
118	1
120	83
121	9
127	2
128	4
129	9
130	2
131	3
132	3
133	2
146	79
147	13
148	1
161	2
173	1
174	5
175	45
176	5
178	3
188	2
191	0
206	14
207	3
