Mass Spectrum: 2,6-Piperazinedione, 4-benzoyl-, dioxime
Formula: C11H12N4O3
CAS: 36064-37-6
Molecular weight: 248
m/z	intensity
40	30
41	60
42	90
76	30
77	850
78	70
105	999
106	190
122	20
127	10
143	30
231	400
232	50
233	20
248	130
249	20
