Mass Spectrum: (22S,25S)-22,26-Epiminocholest-5-ene-3.beta.,16.alpha.-diol 16-acetate
Formula: C29H47NO3
CAS: 36069-45-1
Molecular weight: 457
m/z	intensity
27	17
29	24
30	7
35	14
37	4
39	17
41	75
42	32
43	169
45	4
50	11
52	11
53	12
54	28
55	102
56	83
57	29
58	10
59	13
60	6
61	10
63	3
65	2
66	12
67	101
68	24
69	53
70	21
71	17
72	0
74	6
76	7
77	18
78	5
79	39
80	12
81	47
82	30
83	13
84	14
85	5
86	4
87	12
89	14
91	60
92	21
93	45
94	15
95	39
96	28
97	38
98	999
99	192
100	12
102	6
103	18
104	1
105	56
106	10
107	39
108	17
109	17
110	13
111	1
112	1
113	5
114	2
116	5
117	24
118	17
119	37
120	15
121	13
122	14
123	8
124	22
125	14
126	4
127	9
128	5
129	29
130	15
131	18
132	9
133	19
134	6
136	12
137	10
139	7
140	13
141	23
143	28
144	7
145	11
146	17
147	4
148	9
149	44
150	94
151	11
152	13
153	15
154	5
155	5
157	21
158	19
159	13
160	17
161	10
162	18
163	5
164	8
165	4
166	9
169	12
170	13
171	12
172	13
173	9
174	4
175	9
176	6
177	7
178	8
181	8
182	6
183	9
185	11
186	7
187	12
188	2
189	2
190	7
192	13
195	3
196	8
197	0
198	8
199	3
200	4
202	6
203	3
204	14
205	3
206	7
210	3
212	9
213	14
214	2
215	7
218	5
221	3
223	8
225	5
227	3
229	4
239	8
248	2
251	1
265	5
266	3
271	3
279	1
281	4
292	1
309	2
341	2
342	4
354	5
366	3
368	7
369	4
376	4
379	7
380	1
381	0
382	10
383	4
394	4
395	11
396	36
397	30
398	6
412	8
414	4
415	4
442	3
447	1
455	5
456	8
457	3
