Mass Spectrum: 1-[[p-Chlorobenzyl]amino]-3-[[p-chlorobenzylidene]amino]guanidine
Formula: C15H15Cl2N5
CAS: 36061-92-4
Molecular weight: 335
m/z	intensity
41	12
43	999
45	169
46	1
49	4
50	70
51	85
52	15
53	9
54	3
55	5
56	3
57	8
58	328
59	191
60	9
62	45
63	121
64	9
65	25
66	2
67	2
68	2
70	33
71	3
73	37
75	163
77	189
78	19
79	7
81	0
83	1
84	33
85	159
86	5
87	27
89	341
90	75
91	39
92	8
93	3
95	1
97	6
99	52
100	1
101	16
102	35
103	13
104	21
105	20
106	20
107	1
109	0
110	2
111	229
112	18
113	161
114	22
115	15
117	21
118	8
119	24
120	3
121	5
123	8
124	68
125	855
127	306
128	16
129	5
131	11
132	8
133	5
134	1
136	0
137	10
138	335
140	790
142	279
143	16
144	0
145	0
146	2
147	5
148	0
150	4
151	9
152	31
153	61
154	57
155	42
156	39
157	13
158	9
163	2
165	23
167	20
168	2
169	3
171	0
175	4
176	2
178	5
180	66
182	34
183	2
184	7
194	16
195	99
196	59
197	49
198	18
199	4
201	1
207	6
209	5
210	645
212	315
213	25
214	2
222	12
224	19
225	0
226	5
228	0
262	1
264	1
301	1
302	0
317	0
319	1
332	3
333	24
334	4
335	158
336	22
337	135
338	16
339	19
340	6
341	0
