Mass Spectrum: 1-Azabicyclo[2.2.2]octan-3-one, 6-[(benzoyloxy)methyl]-, cis-
Formula: C15H17NO3
CAS: 36074-41-6
Molecular weight: 259
m/z	intensity
41	120
42	200
43	60
54	50
55	200
56	60
67	60
68	160
70	20
77	200
80	30
81	150
82	70
94	20
95	10
96	160
97	10
98	70
105	999
106	80
109	100
110	490
111	40
126	400
127	30
135	20
160	40
190	140
203	80
216	20
230	30
231	700
232	130
259	20
