Mass Spectrum: 7-Oxabicyclo[4.1.0]heptane, 3-methyl-
Formula: C7H12O
CAS: 36099-51-1
Molecular weight: 112
m/z	intensity
29	257
31	19
32	69
38	19
39	386
40	79
41	999
42	633
43	366
44	188
45	9
51	39
53	138
54	69
55	564
56	435
57	267
58	49
65	19
66	19
67	306
68	445
69	376
70	376
71	79
77	29
79	128
81	59
82	19
83	178
84	524
85	29
91	9
93	9
94	29
96	9
97	960
98	39
111	19
112	39
