Mass Spectrum: Oxirane, 2-(1,1-dimethylethyl)-3-ethyl-, cis-
Formula: C8H16O
CAS: 36099-44-2
Molecular weight: 128
m/z	intensity
41	300
42	300
43	120
45	10
53	40
54	20
55	999
56	60
57	160
59	130
69	40
70	780
71	100
113	10
