Mass Spectrum: Propenone, 1-(2-benzyloxyphenyl)-3-(3-hydroxyphenyl)-
Formula: C22H18O3
CAS: 36120-96-4
Molecular weight: 330
m/z	intensity
33	0
34	0
36	0
37	0
38	6
39	50
40	8
41	12
42	1
43	3
44	4
45	1
50	8
51	20
52	4
53	5
54	0
55	8
56	0
57	1
58	0
59	0
60	1
61	1
62	6
63	31
64	23
65	146
66	10
67	1
68	0
69	1
70	0
71	0
72	0
73	1
74	2
75	6
76	9
77	17
78	4
79	2
80	0
81	1
82	1
83	1
84	0
85	0
86	0
87	2
89	42
91	999
92	92
93	13
94	5
95	1
96	0
97	0
98	0
99	0
100	0
101	3
102	3
103	2
104	3
105	6
106	2
107	7
108	8
109	0
110	0
111	0
112	0
113	0
115	11
116	3
118	25
119	14
120	13
121	115
122	9
123	3
124	0
125	0
126	1
127	3
128	4
129	1
130	1
131	4
132	3
133	2
134	3
135	0
136	0
137	0
138	0
139	3
140	1
141	1
142	0
143	0
144	0
145	1
147	16
148	1
149	2
150	1
151	3
152	10
153	7
154	2
155	3
156	0
157	0
159	1
160	0
161	0
162	0
163	2
164	4
165	24
166	5
167	3
168	2
169	0
170	0
171	0
174	0
175	0
176	1
177	1
178	2
179	2
181	17
182	5
183	17
184	3
185	0
189	0
190	0
191	1
192	1
193	5
194	7
195	12
196	89
197	23
198	2
199	0
203	0
205	2
206	0
207	5
208	9
209	18
210	26
211	44
212	7
213	0
218	0
219	1
221	6
223	152
224	26
225	3
226	1
227	0
234	0
235	5
236	3
237	12
238	12
239	148
240	25
241	3
242	0
251	2
252	11
253	5
254	0
255	0
257	0
267	0
268	0
269	0
281	0
283	0
284	0
285	0
289	0
293	0
294	0
295	1
296	0
297	0
299	0
301	0
302	0
310	0
311	3
312	8
313	3
314	0
315	0
329	7
330	21
331	5
332	0
