Mass Spectrum: Propenone, 1-(2-benzyloxyphenyl)-3-(3-methoxyphenyl)-
Formula: C23H20O3
CAS: 36120-97-5
Molecular weight: 344
m/z	intensity
33	0
34	0
36	1
37	1
38	6
39	38
40	10
41	13
42	1
43	4
44	8
45	2
50	8
51	20
52	5
53	5
54	1
55	5
56	1
57	2
58	0
59	0
60	0
61	1
62	6
63	33
64	27
65	113
66	7
67	1
68	0
69	2
70	1
71	1
72	0
73	1
74	3
75	6
76	16
77	39
78	8
79	7
80	0
81	1
82	1
83	2
84	0
85	1
86	1
87	2
89	54
91	999
92	94
93	12
94	1
95	1
96	0
97	1
98	0
99	0
100	0
101	5
102	19
103	10
104	4
105	8
106	1
107	3
108	2
109	1
110	0
111	0
112	0
113	1
114	1
115	12
116	5
117	5
118	25
119	5
120	10
121	95
122	48
123	6
124	0
125	0
126	2
127	3
128	3
129	1
130	1
131	4
132	14
133	11
134	7
135	2
136	0
137	0
139	4
140	0
141	1
142	0
143	0
144	0
145	3
146	3
147	13
148	4
149	4
150	1
151	4
152	13
153	12
154	5
155	2
156	0
159	1
161	8
162	1
163	3
164	5
165	26
166	8
167	4
168	1
169	1
173	0
175	0
176	1
177	2
178	5
179	4
180	2
181	18
182	10
183	2
184	0
189	0
190	0
191	2
192	4
193	12
194	6
195	4
196	2
197	17
198	4
199	0
205	1
206	1
207	5
208	6
209	17
210	69
211	23
212	3
213	0
217	0
218	0
219	1
220	1
221	7
222	14
223	142
224	50
225	40
226	7
227	0
233	0
235	5
236	2
237	13
238	6
239	1
240	1
248	0
249	2
250	1
251	3
253	185
254	31
255	4
265	2
266	9
267	4
268	0
294	0
295	1
299	0
303	0
309	0
311	1
312	0
313	1
314	0
325	2
326	6
327	2
328	0
329	0
341	0
342	0
343	6
344	27
345	6
346	0
