Mass Spectrum: Tricyclo[2.2.2.0(1,4)]octane
Formula: C8H12
CAS: 36120-88-4
Molecular weight: 108
m/z	intensity
24	20
25	230
26	50
27	50
37	15
38	30
39	450
40	75
41	290
42	60
43	50
44	10
50	55
51	95
52	75
53	110
54	100
55	40
56	20
57	20
62	15
63	40
65	105
66	85
67	220
68	35
71	10
74	10
75	10
77	500
78	115
79	760
80	320
81	45
91	470
92	45
93	999
94	85
103	10
105	55
106	70
107	80
108	780
109	65
