Mass Spectrum: Methanone, (2-benzyloxyphenyl)[2-(3-chlorophenyl)-1-oxiranyl)]-
Formula: C22H17ClO3
CAS: 36129-68-7
Molecular weight: 364
m/z	intensity
33	0
34	0
35	0
36	3
37	1
38	7
39	38
40	4
41	10
42	0
43	2
44	2
45	0
47	0
50	16
51	40
52	4
53	3
54	0
55	2
56	0
57	1
58	0
59	0
60	0
61	2
62	9
63	39
64	21
65	102
66	6
67	0
68	0
69	2
70	0
71	0
72	0
73	4
74	4
75	14
76	20
77	57
78	6
79	1
80	0
81	0
82	0
83	0
84	0
85	1
86	1
87	3
89	67
91	999
92	115
93	8
94	1
95	0
96	0
97	1
98	0
99	4
100	0
101	5
102	4
103	3
104	9
105	30
106	3
107	0
108	0
109	0
111	12
112	1
113	3
114	0
115	1
116	0
117	0
118	3
119	3
120	26
121	43
122	4
123	2
125	52
126	5
127	16
128	2
129	0
131	1
133	61
134	6
135	1
136	1
137	1
138	1
139	12
140	2
141	3
142	0
143	0
144	0
146	12
147	73
148	7
149	11
150	2
151	2
152	9
153	3
154	3
155	1
156	0
159	0
160	0
161	0
162	0
163	1
164	1
165	6
166	2
167	2
168	0
169	0
173	0
175	0
176	0
177	0
178	2
179	2
180	1
181	8
182	2
183	1
184	1
185	0
189	0
190	0
191	0
192	0
193	0
194	0
195	2
196	0
197	0
199	0
201	4
202	0
203	1
204	0
205	0
206	0
207	1
209	4
210	6
211	38
212	6
213	1
214	5
215	5
216	2
217	2
218	0
219	0
220	0
221	0
223	12
224	4
225	1
226	0
227	0
228	1
229	1
230	1
231	1
232	0
233	0
235	0
236	0
237	0
238	0
239	0
240	0
241	5
242	1
243	6
244	18
245	10
246	6
247	3
248	0
249	0
252	0
253	1
254	0
255	0
257	42
258	43
259	18
260	13
261	2
262	0
270	0
273	14
274	2
275	4
276	0
277	0
307	0
315	0
317	0
318	0
331	0
333	0
335	2
336	0
337	0
338	0
344	0
346	0
347	0
348	0
349	0
363	0
364	1
365	0
366	0
367	0
