Mass Spectrum: Methanone, (2-benzyloxyphenyl)[2-(2-chlorophenyl)-1-oxiranyl)]-
Formula: C22H17ClO3
CAS: 36129-67-6
Molecular weight: 364
m/z	intensity
34	0
35	0
36	3
37	1
38	6
39	37
40	4
41	10
42	0
43	2
44	2
45	0
46	0
47	0
50	14
51	37
52	4
53	3
55	2
56	0
57	1
58	0
59	0
60	0
61	1
62	10
63	39
64	20
65	94
66	6
67	0
68	0
69	2
70	0
71	0
73	4
74	4
75	15
76	20
77	55
78	5
79	1
80	0
81	0
82	0
83	0
84	0
85	1
86	1
87	3
89	75
91	999
92	113
93	8
94	0
95	0
96	0
97	1
99	5
101	7
102	3
103	2
104	10
105	27
106	2
107	1
108	0
109	0
111	11
112	2
113	3
114	0
115	1
116	0
117	0
118	4
119	2
120	20
121	44
122	4
123	2
125	71
126	8
127	22
128	2
129	0
131	2
133	68
134	7
135	1
136	1
137	2
138	3
139	19
140	3
141	6
142	0
143	0
144	0
146	4
147	31
148	3
149	12
150	2
151	2
152	12
153	5
154	7
155	1
156	1
157	0
160	0
161	0
162	0
163	1
164	1
165	7
166	2
167	2
168	0
169	0
175	0
176	0
177	1
178	3
179	3
180	1
181	11
182	2
183	1
184	1
185	0
187	0
189	0
190	0
191	0
192	0
193	0
194	1
195	1
196	0
197	0
199	0
201	5
202	1
203	1
204	0
205	0
206	0
207	2
209	29
210	13
211	57
212	9
213	1
214	6
215	11
216	3
217	4
218	0
219	0
221	5
223	141
224	25
225	3
226	0
227	0
228	0
229	0
230	0
231	2
232	0
233	0
234	0
235	0
236	0
237	0
238	0
239	0
240	0
241	1
242	0
243	6
244	16
245	12
246	6
247	3
248	0
249	0
251	0
252	0
253	0
254	0
255	0
257	14
258	21
259	7
260	7
261	1
262	0
270	0
271	0
273	16
274	3
275	5
276	0
277	0
298	0
299	1
300	0
301	0
307	0
311	0
313	2
314	0
318	0
329	0
330	0
331	0
333	0
335	3
336	0
337	1
338	0
346	1
347	0
348	0
349	0
350	0
364	2
365	0
366	0
367	0
