Mass Spectrum: Methanone, (2-benzyloxyphenyl)[2-(2,4-dimethoxyphenyl)-1-oxiranyl]-
Formula: C24H22O5
CAS: 36129-78-9
Molecular weight: 390
m/z	intensity
33	0
34	0
36	0
37	2
38	9
39	52
40	11
41	20
42	2
43	8
44	9
45	3
46	0
50	17
51	46
52	13
53	12
54	1
55	10
56	1
57	3
58	0
59	6
60	2
61	2
62	10
63	44
64	31
65	149
66	12
67	4
68	2
69	13
70	1
71	1
73	1
74	5
75	9
76	24
77	100
78	35
79	24
80	4
81	2
82	1
83	1
84	0
85	1
86	1
87	2
88	4
89	33
91	999
92	104
93	28
94	6
95	9
96	1
97	0
98	1
99	0
100	0
101	2
102	3
103	4
104	10
105	64
106	21
107	44
108	12
109	8
110	1
111	1
112	0
113	1
114	1
115	6
116	1
117	2
118	7
119	14
120	41
121	237
122	28
123	4
124	3
125	2
126	2
127	4
128	5
129	2
130	1
131	3
133	90
134	14
135	22
136	13
137	117
138	33
139	12
140	3
141	3
142	1
143	0
145	1
146	2
147	11
148	14
149	44
150	17
151	201
152	34
153	8
154	2
155	3
156	1
157	1
159	0
160	0
161	3
162	2
163	8
164	7
165	66
166	28
167	41
168	11
169	4
170	1
171	1
175	0
176	0
177	3
178	13
179	15
180	10
181	10
182	3
183	4
184	3
185	1
190	1
191	1
193	1
195	53
196	12
197	5
198	1
199	1
200	0
201	0
204	1
205	4
206	9
207	4
208	2
209	4
211	218
212	34
213	8
214	1
215	1
221	0
223	13
224	5
225	4
226	2
227	12
228	3
229	0
236	0
237	1
239	18
240	6
241	14
243	108
244	16
245	2
251	2
252	1
253	3
254	2
255	9
256	4
257	1
258	0
266	1
267	2
268	2
269	4
270	23
271	74
272	12
273	2
281	1
282	7
283	21
284	5
285	0
297	1
299	118
300	21
301	3
333	1
343	0
360	1
361	1
362	5
363	1
372	0
373	0
374	3
375	1
388	0
390	155
391	37
392	6
393	0
