Mass Spectrum: 1,2,4-Cyclopentanetrione, 3-isovaleryl-5-(3-methyl-2-butenyl)-
Formula: C15H20O4
CAS: 3613-60-3
Molecular weight: 264
m/z	intensity
41	999
42	66
43	466
44	12
45	6
50	21
51	90
52	39
53	212
54	30
55	393
56	54
57	439
58	18
62	9
63	39
64	21
65	121
66	60
67	187
68	48
69	363
70	18
71	36
75	15
76	6
77	181
78	51
79	181
80	60
81	181
82	48
83	139
84	54
85	169
86	12
89	18
90	9
91	121
92	21
93	75
94	36
95	145
96	60
97	60
98	36
102	6
103	36
104	15
105	60
106	15
107	90
108	60
109	151
110	97
111	60
115	30
116	6
117	18
118	6
119	97
120	54
121	60
122	21
123	81
124	60
125	42
126	24
127	30
128	9
129	21
130	6
131	21
132	18
133	42
134	42
135	60
136	30
137	130
138	48
139	60
140	36
141	6
142	6
143	6
144	6
145	6
146	6
147	54
148	18
149	54
150	6
151	206
152	303
153	60
154	24
155	6
157	48
158	6
159	6
160	6
161	97
162	54
163	48
164	6
165	115
166	54
167	139
168	15
173	12
175	66
176	24
177	12
178	12
179	81
180	48
181	30
185	30
186	3
187	3
188	3
189	51
190	81
191	39
192	6
193	90
194	21
203	69
204	30
205	6
206	3
207	72
208	78
209	172
210	30
211	3
213	21
217	3
218	3
219	3
232	60
233	9
246	24
247	12
249	81
250	12
264	515
265	81
266	9
