Mass Spectrum: N-Methyl-4-piperidyl 1-phenylcyclopentanecarboxylate
Formula: C18H25NO2
CAS: 3613-68-1
Molecular weight: 287
m/z	intensity
41	112
42	293
43	126
44	198
45	5
47	1
49	4
50	4
51	19
52	1
53	25
54	13
55	318
56	11
57	110
58	22
63	8
64	0
65	25
67	65
68	27
70	145
71	27
72	8
75	2
76	1
77	43
78	9
79	6
80	5
82	228
83	16
84	5
86	8
87	0
89	9
91	234
92	14
94	16
96	999
97	487
98	520
99	31
101	1
102	9
103	27
104	5
105	6
112	2
113	1
114	120
115	69
116	15
117	17
127	3
128	22
129	10
130	3
135	0
141	4
143	9
144	1
145	73
146	7
174	5
246	29
247	3
285	0
286	6
287	179
288	35
289	9
