Mass Spectrum: Cyclohexane, 1-butenylidene-
Formula: C10H16
CAS: 36144-40-8
Molecular weight: 136
m/z	intensity
26	25
27	282
28	51
29	199
30	4
37	6
38	24
39	429
40	62
41	416
42	38
43	65
44	5
50	55
51	168
52	103
53	216
54	90
55	228
56	17
57	45
58	7
62	16
63	66
64	18
65	176
66	66
67	524
68	224
69	39
70	7
71	4
73	3
74	10
75	13
76	8
77	354
78	94
79	999
80	189
81	386
82	69
83	8
89	9
91	334
92	54
93	511
94	160
95	106
96	14
97	4
98	3
103	14
104	4
105	63
106	14
107	403
108	52
109	13
115	7
117	4
119	12
120	5
121	115
122	11
135	8
136	478
137	50
138	2
