Mass Spectrum: Pregn-5-ene-3,20-diamine, (3.beta.,20S)-
Formula: C21H36N2
CAS: 3614-57-1
Molecular weight: 316
m/z	intensity
39	10
41	50
42	20
43	50
44	999
45	30
53	20
55	50
56	400
57	30
58	10
65	10
67	30
68	20
69	10
70	50
71	20
77	20
78	10
79	20
80	10
81	20
82	10
83	10
90	50
91	10
92	20
93	10
94	10
95	10
105	30
106	10
107	10
108	10
109	10
116	10
118	20
119	20
120	20
121	10
128	10
130	10
131	10
132	10
134	20
144	10
145	10
146	10
159	10
160	10
161	10
172	20
173	10
214	10
241	20
243	10
255	30
256	10
257	70
258	10
259	10
261	50
262	10
273	250
274	50
275	10
316	10
