Mass Spectrum: D-Fucose
Formula: C6H12O5
CAS: 3615-37-0
Molecular weight: 164
m/z	intensity
15	13
17	4
18	13
19	29
25	1
26	15
27	81
28	47
29	275
30	41
31	158
32	12
33	1
35	1
36	9
37	3
38	8
39	51
40	12
41	85
42	167
43	304
44	69
45	273
46	11
47	42
49	3
50	2
51	4
52	1
53	26
54	22
55	78
56	65
57	181
58	158
59	44
60	999
61	118
62	8
63	3
67	5
68	5
69	42
70	26
71	500
72	64
73	638
74	59
75	49
76	5
77	8
79	1
81	10
82	8
83	20
84	10
85	23
86	8
87	27
88	11
89	26
90	7
91	18
93	1
95	3
96	2
97	7
98	3
99	12
100	31
101	21
102	56
103	6
104	26
105	3
106	3
109	1
110	2
111	3
113	1
115	6
117	20
119	5
128	3
129	5
131	1
133	5
147	4
149	15
