Mass Spectrum: Cyclohexanol, 2-butyl-,
Formula: C10H20O
CAS: 36159-49-6
Molecular weight: 156
m/z	intensity
26	7
27	270
28	19
29	360
30	14
31	92
38	1
39	153
40	1
41	573
42	110
43	266
44	140
45	73
46	2
50	1
51	12
52	6
53	75
54	171
55	506
56	179
57	602
58	59
59	22
61	2
63	3
65	15
66	76
67	501
68	371
69	209
70	118
71	255
72	63
73	78
74	4
77	18
78	4
79	54
80	38
81	411
82	999
83	191
84	32
85	26
86	13
87	16
89	2
91	9
92	1
93	17
94	17
95	374
96	471
97	64
98	12
99	34
100	16
101	0
103	2
105	4
106	0
107	2
108	11
109	249
110	169
111	19
112	15
113	82
114	8
121	0
123	14
124	2
125	4
126	0
127	3
128	2
129	0
136	3
137	9
138	490
139	53
140	2
143	2
149	1
155	6
156	32
157	3
