Mass Spectrum: D-Mannoheptulose
Formula: C7H14O7
CAS: 3615-44-9
Molecular weight: 210
m/z	intensity
41	34
42	387
43	929
44	534
45	207
46	15
47	27
49	15
50	9
51	18
52	9
53	37
54	16
55	149
56	181
57	872
58	63
59	30
60	999
61	723
62	51
63	9
64	1
65	5
66	3
67	6
68	7
69	133
70	198
71	140
72	29
73	343
74	123
75	19
76	9
77	200
78	55
79	7
80	2
81	23
82	4
83	9
84	5
85	29
86	14
87	25
88	7
89	11
90	8
91	30
92	1
93	8
94	2
95	4
96	2
97	65
98	164
99	68
100	6
101	9
102	96
103	27
104	5
105	4
106	21
107	6
108	1
109	2
110	0
111	3
112	1
113	2
114	4
115	19
116	20
117	2
118	0
119	83
120	5
121	2
122	0
123	1
124	19
125	3
126	0
127	2
128	2
129	2
131	33
132	11
133	2
136	2
137	0
139	1
141	0
143	5
145	2
149	3
151	0
152	0
153	2
156	0
157	11
158	0
161	1
174	31
175	7
176	0
193	9
194	0
