Mass Spectrum: Butane, 1,4-dichloro-1,4-diphenyl-
Formula: C16H16Cl2
CAS: 3617-23-0
Molecular weight: 278
m/z	intensity
26	2
27	4
28	0
29	0
31	0
35	5
36	44
37	1
38	15
39	9
40	2
41	2
42	0
43	3
44	0
45	0
47	0
49	0
50	2
51	9
52	3
53	1
57	0
58	0
59	0
60	0
61	0
62	0
63	4
64	1
65	18
66	1
73	0
74	0
75	2
76	3
77	54
78	63
79	17
80	1
81	1
85	0
86	0
87	0
88	0
89	21
90	7
91	566
92	44
93	1
99	6
100	1
101	5
102	17
103	124
104	999
105	117
106	5
107	4
108	0
109	0
112	0
113	2
114	1
115	88
116	25
117	307
118	39
119	2
120	1
121	1
122	0
123	0
124	1
125	235
126	21
127	91
128	53
129	250
130	29
131	8
132	0
133	0
134	0
135	6
136	0
137	1
138	47
139	25
140	18
141	9
142	0
148	0
149	1
150	0
151	5
152	3
153	2
154	0
155	0
159	0
162	0
163	1
164	1
165	56
166	8
167	15
168	1
200	0
201	2
202	10
203	14
204	11
205	30
206	74
207	132
208	30
209	3
210	1
211	0
212	0
213	0
214	0
224	0
239	0
240	0
241	0
242	100
243	19
244	34
245	6
246	0
278	5
279	0
280	3
281	0
282	0
