Mass Spectrum: 2-Oxo-3-[4-chlorophenyl]propanoic acid
Formula: C9H7ClO3
CAS: 3617-01-4
Molecular weight: 198
m/z	intensity
42	15
43	26
44	11
45	203
46	10
47	5
48	1
49	20
50	77
51	67
52	8
53	8
54	0
55	4
56	2
57	3
58	3
59	8
60	6
61	33
62	125
63	246
64	35
65	25
66	4
67	1
68	1
69	3
70	1
71	2
72	7
73	59
74	33
75	58
76	59
77	46
78	5
79	4
80	0
81	2
82	1
83	1
84	8
85	19
86	25
87	26
89	484
90	97
91	30
92	2
95	1
96	2
97	13
99	81
101	34
102	4
103	0
105	2
106	2
107	1
108	0
109	0
110	0
111	12
112	5
113	6
114	2
115	1
117	8
118	10
119	6
120	0
121	1
123	16
124	195
125	999
126	78
127	398
128	21
129	1
134	0
136	5
137	2
139	25
140	5
141	12
142	2
143	2
145	1
147	0
149	1
151	5
152	465
153	107
154	155
155	33
156	9
157	1
158	2
163	3
164	1
165	3
167	1
169	7
170	1
171	6
172	0
179	1
181	3
182	2
183	0
184	1
196	2
198	288
199	28
200	95
201	9
202	0
