Mass Spectrum: Acetamide, N,N'-thiobis-
Formula: C4H8N2O2S
CAS: 3618-49-3
Molecular weight: 148
m/z	intensity
33	3
34	2
35	0
36	1
38	4
39	6
40	24
41	31
42	122
43	999
44	63
45	9
46	43
47	54
48	16
49	6
50	1
51	0
54	0
55	1
56	1
57	1
59	35
60	385
61	13
62	9
63	60
64	336
66	26
67	0
68	0
69	0
70	0
71	0
73	0
74	0
75	0
76	0
77	0
78	0
79	0
80	0
81	0
82	0
83	0
84	1
85	0
87	0
89	8
90	8
91	1
92	0
93	0
95	0
96	0
97	0
102	167
103	8
104	2
106	272
107	11
108	12
109	0
111	0
112	0
120	0
121	0
133	0
135	0
146	0
148	21
149	3
150	1
