Mass Spectrum: Methanimidamide, N'-(2-cyanophenyl)-N,N-dimethyl-
Formula: C10H11N3
CAS: 36185-83-8
Molecular weight: 173
m/z	intensity
33	1
34	0
36	0
37	7
38	15
39	24
40	27
41	33
42	257
44	999
45	117
46	2
48	0
49	4
50	39
51	64
52	20
53	2
54	3
55	5
57	196
58	5
60	0
61	3
62	8
63	13
64	15
65	9
66	2
67	2
68	0
69	5
70	1
71	5
72	1
73	3
74	16
75	91
76	69
77	19
78	3
79	2
80	0
81	0
82	0
83	1
86	2
87	7
88	6
89	7
90	11
91	4
92	1
93	0
95	0
98	0
99	4
100	6
102	239
103	79
104	23
105	4
106	11
107	1
109	0
114	0
115	3
116	16
117	15
118	10
119	1
123	0
127	6
129	201
130	62
131	520
132	55
133	2
134	0
137	0
142	4
143	10
144	18
145	84
146	30
147	67
148	6
149	0
151	0
152	1
153	0
155	0
156	5
157	11
158	113
159	11
160	0
166	0
170	10
172	209
173	752
174	88
175	4
180	0
