Mass Spectrum: Dimethyl 2-methyloctane-1,8-dioate
Formula: C11H20O4
CAS: 36186-92-2
Molecular weight: 216
m/z	intensity
29	93
31	25
32	20
33	4
39	76
40	3
41	253
42	68
43	91
44	5
45	46
53	20
54	12
55	522
56	88
57	140
58	7
59	241
63	32
67	32
68	15
69	238
70	19
72	3
73	49
74	239
75	12
76	5
79	14
81	34
82	48
83	286
84	25
85	21
87	140
88	999
89	45
90	8
95	9
96	55
97	341
98	66
101	44
102	4
106	3
107	18
110	12
111	95
113	2
114	60
115	21
124	86
125	220
126	15
128	14
129	216
130	22
137	8
142	12
143	121
151	7
152	316
153	29
156	25
157	185
158	22
184	30
185	71
186	11
