Mass Spectrum: Octanoic acid, 2-methylene-, methyl ester
Formula: C10H18O2
CAS: 3618-40-4
Molecular weight: 170
m/z	intensity
15	357
16	6
17	9
18	31
26	39
27	508
28	100
29	502
30	15
31	25
33	7
37	5
38	19
39	416
40	206
41	803
42	254
43	578
44	23
45	76
46	4
50	10
51	54
52	33
53	22
54	139
55	463
56	71
57	50
58	9
59	261
60	9
61	6
62	3
63	11
64	3
65	34
66	24
67	250
68	118
69	498
70	122
71	43
72	15
73	61
74	41
75	7
77	27
78	7
79	39
80	11
81	180
82	98
83	72
84	14
85	60
86	16
87	161
88	412
89	20
90	2
91	8
93	8
94	7
95	117
96	63
97	24
98	9
99	85
100	229
101	999
102	68
103	7
105	2
107	4
108	2
109	57
110	76
111	64
112	9
113	91
114	71
115	21
116	4
123	15
125	4
126	2
127	170
128	34
129	7
137	5
138	70
139	134
140	15
141	37
142	8
155	27
156	3
169	9
170	47
171	7
