Mass Spectrum: (N-(p-Tolylsulfonyl)glycyl)hydrazine
Formula: C9H13N3O3S
CAS: 3619-20-3
Molecular weight: 243
m/z	intensity
14	1
15	1
16	3
17	13
18	2
26	3
27	18
28	16
29	10
30	128
31	27
32	257
33	5
34	1
37	1
38	4
39	46
40	5
41	18
42	8
43	10
44	9
45	9
46	1
48	2
50	9
51	22
52	7
53	5
54	1
55	2
56	1
57	5
58	2
59	5
60	16
61	3
62	9
63	34
64	12
65	186
66	10
67	4
69	4
70	6
71	5
72	2
73	2
74	2
75	3
76	3
77	21
78	9
79	12
80	4
81	1
82	1
83	1
84	1
85	1
86	2
87	8
88	275
89	52
90	29
91	999
92	132
93	9
94	1
95	1
97	2
100	3
103	1
104	2
105	5
106	9
107	23
108	23
109	3
111	2
117	1
118	2
119	3
120	7
121	6
122	14
123	17
124	52
125	5
126	2
139	25
140	10
141	2
149	1
151	1
154	1
155	659
156	63
157	45
158	4
159	1
168	3
171	31
172	9
173	2
183	15
184	385
185	52
186	35
187	4
188	1
210	7
211	1
212	20
213	2
214	2
215	23
216	2
217	1
225	9
226	3
227	1
228	1
243	228
244	34
245	13
246	2
