Mass Spectrum: 2-Propenoic acid, 2-methyl-, 4-formyl-2-methoxyphenyl ester
Formula: C12H12O4
CAS: 36195-34-3
Molecular weight: 220
m/z	intensity
69	999
79	140
95	80
109	30
119	20
121	20
151	70
220	70
221	10
