Mass Spectrum: Naphthalen-4a,8a-imine, 1,4,5,8-tetrahydro-
Formula: C10H13N
CAS: 36191-26-1
Molecular weight: 147
m/z	intensity
26	38
27	394
28	132
29	42
30	164
37	17
38	60
39	583
40	106
41	360
42	91
43	40
44	7
49	6
50	93
51	257
52	173
53	238
54	148
55	39
56	173
57	8
58	5
59	10
61	10
62	30
63	100
64	68
65	358
66	668
67	999
68	160
69	29
70	6
72	8
73	6
74	25
75	28
76	29
77	396
78	173
79	354
80	568
81	68
82	20
86	5
87	7
89	38
90	19
91	385
92	268
93	848
94	105
95	11
101	11
102	28
103	67
104	110
105	107
106	273
107	60
108	5
114	10
115	171
116	65
117	229
118	360
119	166
120	164
121	17
125	5
126	12
127	70
128	152
129	266
130	270
131	221
132	668
133	61
142	6
143	18
144	70
145	45
146	547
147	540
148	42
