Mass Spectrum: 3,5-Dihydroxy-4-phenylisoxazole
Formula: C9H7NO3
CAS: 36190-14-4
Molecular weight: 177
m/z	intensity
42	15
43	31
44	43
45	20
49	2
50	58
51	87
52	23
55	2
61	21
62	56
63	137
64	49
65	21
66	13
69	8
74	20
75	24
76	30
77	73
78	46
79	16
85	2
86	15
87	12
88	5
89	300
90	441
91	114
92	35
93	15
95	15
103	105
104	94
105	71
106	20
115	19
117	15
118	999
119	89
120	22
124	12
131	12
132	12
133	22
135	54
136	71
141	7
143	35
145	49
149	144
150	10
175	32
177	593
178	66
179	12
