Mass Spectrum: Aspidodasycarpine, de(hydroxymethyl)-
Formula: C20H24N2O3
CAS: 3620-79-9
Molecular weight: 340
m/z	intensity
60	20
63	16
65	26
67	30
68	16
69	26
71	20
73	20
74	46
76	60
78	20
79	26
80	50
81	60
82	33
89	33
90	33
91	60
93	60
95	20
101	16
102	16
103	16
104	20
105	20
106	116
108	999
109	120
110	40
111	20
115	40
116	30
117	30
118	20
120	20
121	10
122	56
123	6
124	6
125	3
126	6
127	23
128	30
129	23
130	73
131	13
132	13
133	10
134	6
136	3
138	6
139	13
140	16
141	6
142	16
143	33
144	70
145	30
146	10
148	6
149	6
150	6
151	6
152	16
153	10
154	43
155	20
156	46
157	10
158	20
159	40
160	16
161	10
162	6
164	6
165	10
166	23
167	53
168	40
169	23
170	33
171	13
172	70
173	13
174	93
175	13
178	16
179	13
180	76
181	36
182	30
183	13
184	6
185	6
186	10
187	6
188	6
190	6
191	13
192	16
193	26
194	63
195	40
196	16
197	6
198	6
200	10
201	6
202	16
203	6
204	16
205	13
206	33
207	23
208	33
209	40
210	16
211	10
214	6
217	6
218	6
219	10
220	16
221	13
222	23
223	40
224	13
225	10
226	10
227	3
231	3
232	46
233	56
234	23
235	26
236	13
237	26
238	13
239	6
240	3
241	6
246	6
247	10
248	6
249	13
250	6
251	16
252	40
253	10
254	6
261	6
263	6
264	10
265	13
266	30
267	20
268	6
279	13
280	10
281	23
282	6
293	6
294	6
295	20
296	6
297	6
307	10
308	6
309	30
310	10
311	3
321	6
322	10
323	6
325	13
326	3
338	40
340	126
341	26
342	6
