Mass Spectrum: 1-Formyl-4-phenylsemicarbazide
Formula: C8H9N3O2
CAS: 36215-90-4
Molecular weight: 179
m/z	intensity
12	4
13	5
14	6
15	9
16	9
17	21
18	114
25	2
26	14
27	44
28	155
29	169
30	61
31	70
32	145
33	1
36	3
37	36
38	68
39	152
40	49
41	65
42	90
43	109
44	39
45	15
46	30
47	2
48	1
49	7
50	46
51	75
52	52
53	13
54	36
55	4
56	2
57	3
59	9
60	232
61	18
62	25
63	74
64	129
65	199
66	330
67	42
68	2
69	2
70	1
71	2
73	3
74	12
75	8
76	15
77	91
78	25
79	2
83	1
86	157
87	8
88	3
89	2
90	11
91	199
92	144
93	999
94	71
95	3
97	2
103	3
104	6
105	4
118	7
119	395
120	49
121	4
133	1
151	3
161	11
162	1
179	16
180	2
