Mass Spectrum: 1,2,4-Triazin-5(4H)-one, 3,6-diphenyl-
Formula: C15H11N3O
CAS: 36214-25-2
Molecular weight: 249
m/z	intensity
28	60
39	110
50	90
51	210
63	150
76	140
77	480
89	250
90	210
91	80
103	530
104	999
118	330
119	130
130	490
146	700
147	60
249	640
250	110
