Mass Spectrum: 2-Propyn-1-one, 1-phenyl-
Formula: C9H6O
CAS: 3623-15-2
Molecular weight: 130
m/z	intensity
37	10
38	20
39	30
49	10
50	170
51	350
52	40
53	190
62	10
63	20
73	10
74	90
75	80
76	190
77	320
78	20
101	30
102	999
103	80
104	10
105	80
106	10
129	40
130	890
131	90
