Mass Spectrum: 1,1-Dipropyl-3-[2-thiazolyl]-2-thiourea
Formula: C10H17N3S2
CAS: 36241-34-6
Molecular weight: 243
m/z	intensity
41	538
43	999
45	166
46	19
47	13
49	15
51	8
52	4
53	14
55	108
56	15
58	456
59	189
60	273
61	6
62	20
64	6
67	8
68	26
70	73
72	541
74	17
75	5
76	0
77	1
79	1
80	5
81	5
83	20
84	13
85	125
86	83
87	6
88	6
89	5
90	5
92	3
96	1
97	1
98	25
99	48
100	643
102	280
104	28
107	2
109	8
111	46
113	56
114	2
115	11
116	129
117	59
118	30
119	4
120	0
124	4
125	32
126	231
127	43
128	27
129	9
130	2
131	12
132	2
137	3
139	4
140	8
141	39
143	919
144	274
145	59
146	10
150	3
152	6
154	1
155	3
157	9
159	82
160	2
161	11
166	1
168	92
169	16
170	10
171	3
174	0
182	7
183	17
184	5
185	1
186	0
194	3
195	1
196	0
200	42
201	8
202	5
203	1
210	255
211	33
212	16
214	13
216	2
226	4
228	2
242	74
243	780
244	99
245	33
246	7
