Mass Spectrum: 5-Ethylcyclopent-1-ene-1-carboxylic acid
Formula: C8H12O2
CAS: 36258-07-8
Molecular weight: 140
m/z	intensity
38	12
39	158
40	34
41	197
43	39
45	7
50	14
51	35
52	15
53	58
54	7
55	129
56	5
57	10
62	6
63	19
64	7
65	165
66	76
67	506
68	54
69	8
77	53
78	13
79	71
80	15
81	15
82	38
83	183
84	13
86	12
91	24
93	149
94	52
95	803
96	70
97	28
110	100
111	999
112	92
113	6
122	32
123	30
125	27
140	342
141	38
