Mass Spectrum: D-Fructose, 3-O-methyl-
Formula: C7H14O6
CAS: 36256-85-6
Molecular weight: 194
m/z	intensity
31	919
32	408
33	72
38	4
39	48
40	4
41	76
42	88
43	456
44	88
45	168
46	4
47	4
49	8
55	48
56	8
57	88
58	128
59	108
60	68
61	68
68	4
69	48
70	4
71	144
72	32
73	64
74	276
75	112
76	8
77	4
85	96
86	28
87	999
88	112
89	32
99	8
100	104
101	28
102	4
103	80
104	28
117	28
118	28
144	4
145	48
146	8
158	4
163	80
164	4
