Mass Spectrum: 4-Morpholinebutyric acid, .beta.-methyl-.alpha.,.alpha.-diphenyl-
Formula: C21H25NO3
CAS: 3626-55-9
Molecular weight: 339
m/z	intensity
35	10
36	80
38	30
41	20
42	40
43	10
44	10
55	20
56	70
57	10
70	20
77	10
91	20
100	999
101	60
105	10
115	20
127	10
128	20
165	20
178	10
193	10
