Mass Spectrum: Bicyclo[3.1.0]hex-2-ene, 4-methylene-1-(1-methylethyl)-
Formula: C10H14
CAS: 36262-09-6
Molecular weight: 134
m/z	intensity
25	0
26	1
27	34
28	13
31	3
32	0
34	1
36	1
37	4
38	8
39	78
41	84
42	10
43	105
45	2
46	1
47	0
49	0
50	13
51	46
52	15
53	17
54	1
55	6
56	2
57	23
58	23
59	3
60	0
61	2
62	14
63	32
64	8
65	105
66	9
67	1
68	0
69	2
72	2
73	4
74	6
75	6
76	4
77	58
78	24
79	27
80	0
86	1
87	0
88	3
89	18
90	6
91	999
92	551
93	56
94	0
101	1
102	9
103	26
104	16
105	32
106	2
114	1
115	49
116	15
117	49
118	9
119	95
120	11
128	2
129	1
131	2
132	4
133	2
134	63
135	7
136	0
