Mass Spectrum: Glycine, N-[(3-hydroxy-2-pyridinyl)carbonyl]-L-threonyl-D-.alpha.-aminobutyryl-L-prolyl-L-phenylalanyl-cis-4-hydroxy-L-pipecoloyl-L-2-phenyl-, methyl ester
Formula: C43H53N7O11
CAS: 36261-13-9
Molecular weight: 843
m/z	intensity
19	16
41	100
42	40
43	78
44	142
55	90
56	66
57	114
58	119
65	45
66	23
67	40
68	40
69	90
70	999
71	114
72	21
77	52
78	35
79	57
80	21
81	42
82	52
83	57
84	102
85	42
86	19
91	166
92	33
93	19
94	66
95	57
96	35
97	59
98	23
99	19
100	119
103	23
104	47
105	23
106	161
107	33
108	19
109	42
110	23
111	42
118	19
120	47
121	26
122	71
123	26
125	16
137	19
138	35
139	30
149	19
151	83
152	19
153	23
154	23
155	21
179	95
180	16
182	35
183	14
184	19
205	19
206	6
207	5
208	4
209	28
210	4
211	5
212	3
213	6
214	4
215	11
216	5
217	64
218	16
219	8
220	5
221	4
222	2
223	14
224	3
225	4
226	4
227	5
228	2
229	4
230	6
231	11
232	8
238	11
239	4
240	6
243	16
244	12
245	16
246	4
257	8
258	8
259	30
262	6
263	9
264	18
265	9
266	7
273	5
274	10
275	8
278	11
279	4
290	17
291	9
292	8
293	20
294	6
308	6
322	4
361	59
362	11
376	8
387	5
399	6
400	3
405	10
406	3
419	5
439	2
441	2
480	16
481	7
482	3
506	3
507	6
508	38
509	11
510	2
522	3
524	5
525	2
534	7
535	1
538	4
539	2
551	1
552	12
553	4
634	12
635	6
636	1
660	1
678	3
679	1
680	0
799	1
800	0
825	0
826	0
843	0
844	0
