Mass Spectrum: Phosphorodifluoridothioic hydrazide, 1-(difluorophosphinothioyl)-2,2-dimethyl-
Formula: C2H6F4N2P2S2
CAS: 36267-51-3
Molecular weight: 260
m/z	intensity
28	140
42	930
43	999
44	910
46	70
59	100
69	550
101	130
115	80
120	50
159	210
217	170
260	210
