Mass Spectrum: Phosphonofluoridothioic hydrazide, P,2,2-trimethyl-
Formula: C3H10FN2PS
CAS: 36267-52-4
Molecular weight: 156
m/z	intensity
28	130
29	70
30	140
42	320
43	440
44	180
45	80
46	50
59	999
63	40
65	50
66	30
77	40
97	100
112	40
156	490
