Mass Spectrum: Phosphorodifluoridothioic hydrazide, 2,2-dimethyl-
Formula: C2H7F2N2PS
CAS: 36267-50-2
Molecular weight: 160
m/z	intensity
30	40
42	270
43	290
44	110
59	999
69	140
101	50
120	20
160	690
