Mass Spectrum: Phosphonofluoridothioic hydrazide, P-ethyl-2,2-dimethyl-
Formula: C4H12FN2PS
CAS: 36267-53-5
Molecular weight: 170
m/z	intensity
29	650
30	180
42	460
43	360
44	190
59	999
63	60
82	30
111	60
170	80
