Mass Spectrum: Isonipecotic acid, 1-methyl-4-phenyl-
Formula: C13H17NO2
CAS: 3627-48-3
Molecular weight: 219
m/z	intensity
42	381
43	358
44	261
57	478
58	50
70	847
71	999
77	67
86	29
87	50
91	112
96	151
103	111
115	58
116	31
117	18
127	49
128	40
131	51
141	59
144	10
172	48
173	30
174	58
191	10
204	31
218	374
219	431
220	59
