Mass Spectrum: 2,3-Butanedione bis[benzoylhydrazone]
Formula: C18H18N4O2
CAS: 36289-79-9
Molecular weight: 322
m/z	intensity
41	12
42	42
43	57
44	12
45	4
47	17
48	8
49	7
50	28
51	136
52	6
53	5
54	2
55	7
56	6
57	8
58	2
59	1
60	1
61	1
63	4
64	1
65	3
66	1
68	154
69	19
71	2
72	1
73	4
74	5
75	6
76	17
77	488
78	32
79	12
80	1
81	0
82	6
83	10
88	6
89	0
90	1
91	2
92	1
93	1
94	1
95	1
96	1
97	1
98	2
99	2
101	1
102	0
104	56
105	999
106	60
107	4
109	1
111	2
112	0
113	1
115	1
118	15
119	2
120	2
121	5
122	32
124	3
125	0
128	0
129	2
130	3
131	2
132	0
133	1
134	1
135	5
136	4
137	1
140	0
144	3
145	3
146	1
147	1
148	2
149	3
150	1
152	0
157	0
159	3
160	21
161	175
162	16
163	5
167	0
171	2
172	14
173	31
174	4
175	1
181	1
183	0
185	0
188	1
189	24
190	1
197	0
201	28
202	31
203	3
204	0
205	0
217	103
218	11
219	1
225	1
226	20
227	2
240	1
288	1
293	0
305	1
321	1
322	2
323	0
