Mass Spectrum: 1-(Phenylsulfonylamino)-4,5-dimethyl-triazole
Formula: C10H12N4O2S
CAS: 36289-51-7
Molecular weight: 252
m/z	intensity
53	289
54	181
55	49
56	118
66	39
68	695
69	19
77	999
83	80
97	150
111	5
125	80
126	39
141	90
157	69
159	2
225	3
