Mass Spectrum: 3,4-Diselenahexan-1,6-diamine, N,N'-diacetyl
Formula: C8H16N2O2Se2
CAS: 36303-01-2
Molecular weight: 332
m/z	intensity
41	15
42	20
43	298
44	393
45	11
47	1
49	9
51	4
54	0
55	1
56	2
57	1
60	25
62	0
63	0
66	0
69	0
70	2
72	32
73	2
76	0
78	2
80	3
81	1
82	1
84	14
86	999
87	51
88	3
90	1
91	3
92	2
93	5
94	4
95	2
96	2
98	1
100	2
101	0
103	3
104	3
105	5
106	7
107	5
108	10
109	2
110	1
111	1
113	0
116	0
118	1
120	10
121	8
122	15
124	33
125	6
126	4
127	1
129	0
130	0
132	1
134	0
135	2
136	2
137	3
139	8
141	3
146	0
147	1
149	0
150	1
151	1
152	0
156	3
157	2
158	3
160	6
162	9
163	7
164	13
165	2
166	28
167	10
168	4
169	2
172	0
173	0
175	1
177	1
180	3
183	2
185	2
187	2
190	1
194	0
196	0
198	1
199	1
200	2
201	3
202	3
203	3
204	2
205	2
207	0
208	0
210	0
214	0
215	1
216	1
217	0
221	0
227	2
231	0
238	0
239	1
242	2
243	2
244	2
245	2
246	2
247	2
249	0
250	0
252	0
253	1
254	0
259	0
265	0
266	0
271	0
272	0
285	0
291	0
295	0
296	0
301	0
323	1
325	0
326	3
327	4
328	5
329	8
330	9
331	9
332	8
333	8
334	3
335	2
336	1
337	0
