Mass Spectrum: 1,3-Dioxonane, 5,5,6,6,7,7,8,8-octafluoro-
Formula: C7H6F8O2
CAS: 36301-47-0
Molecular weight: 274
m/z	intensity
15	20
29	170
30	110
31	120
33	70
45	20
51	60
61	50
63	999
64	190
65	20
69	90
75	20
77	20
81	20
83	20
93	20
95	100
100	60
113	80
114	20
131	90
145	20
175	20
224	30
225	20
244	30
273	4
274	1
