Mass Spectrum: Methyl 3-acetoxy-5-cholenate
Formula: C27H42O4
CAS: 3633-72-5
Molecular weight: 430
m/z	intensity
41	165
43	999
44	34
47	2
49	8
51	6
53	43
55	342
57	66
59	67
61	10
65	18
67	135
68	11
69	51
70	4
71	6
73	76
74	113
75	3
77	49
79	106
81	188
83	72
84	6
85	21
86	2
87	33
88	5
91	135
92	30
93	130
94	29
95	101
96	10
97	12
99	10
101	1
103	12
105	180
106	46
107	104
108	27
109	35
110	1
111	9
113	2
115	55
117	61
118	19
119	55
120	47
121	57
122	14
123	20
124	2
125	5
127	7
128	11
129	22
131	64
132	12
133	70
134	18
135	37
136	6
137	6
141	14
143	66
144	8
145	139
146	24
147	141
148	24
149	14
151	1
153	4
154	2
155	12
157	35
158	25
159	40
160	25
161	30
162	9
163	9
165	4
167	6
169	7
171	16
172	4
173	22
174	8
175	19
176	4
177	6
179	1
181	3
183	7
185	20
186	6
187	8
189	6
191	1
193	2
195	7
196	2
197	10
199	18
200	3
201	8
207	11
208	10
209	5
211	5
213	44
214	12
215	8
217	12
221	2
223	1
225	3
227	6
228	9
229	4
231	1
239	2
247	10
249	57
250	7
253	7
255	35
256	8
261	3
262	20
263	10
276	1
281	1
283	3
296	2
321	4
323	2
328	7
339	8
355	34
356	10
368	11
370	252
371	58
372	9
430	3
431	1
