Mass Spectrum: Benzenesulfonic acid, 2-methoxy-, hydrazide
Formula: C7H10N2O3S
CAS: 36331-56-3
Molecular weight: 202
m/z	intensity
31	460
51	240
63	170
64	220
65	200
77	999
78	510
79	360
92	460
97	140
107	320
108	460
109	110
123	50
124	420
125	220
138	20
155	720
171	20
172	710
173	80
202	280
