Mass Spectrum: 1,3-Dioxolane, 2,2-dimethyl-4-(1-methylethenyl)-5-phenyl-
Formula: C14H18O2
CAS: 36334-90-4
Molecular weight: 218
m/z	intensity
41	140
42	40
43	540
44	10
50	20
51	60
52	20
53	50
54	40
55	80
56	40
57	40
58	20
59	130
62	10
63	50
64	30
65	50
67	10
68	10
69	170
70	40
71	40
72	40
76	10
77	120
78	20
79	70
83	190
84	20
89	90
90	200
91	240
92	10
97	450
98	40
102	10
103	20
104	20
105	110
106	20
107	40
111	20
112	999
113	90
115	40
116	30
117	30
118	30
119	70
127	20
128	50
129	40
130	20
131	40
133	60
134	20
141	20
143	70
144	10
145	10
147	100
148	280
149	40
161	50
203	50
204	10
218	1
