Mass Spectrum: N-n-Propylmaleamic acid
Formula: C7H11NO3
CAS: 36342-07-1
Molecular weight: 157
m/z	intensity
41	406
42	186
43	413
44	458
45	468
46	93
47	25
48	11
49	14
50	8
51	6
52	55
53	193
54	261
55	689
56	99
57	35
58	620
59	130
60	9
61	2
62	1
63	2
64	2
65	3
66	3
67	15
68	22
69	27
70	67
71	186
72	120
73	9
74	1
75	0
76	0
77	5
78	7
79	1
80	57
81	42
82	97
83	33
84	40
85	75
86	9
87	10
88	14
89	0
91	2
92	2
93	1
94	3
95	4
96	25
98	289
99	999
100	104
101	10
102	0
103	0
104	1
105	2
106	2
107	2
108	0
109	1
110	16
111	64
112	322
113	217
114	17
115	2
116	13
117	0
119	0
120	1
121	4
122	1
123	0
124	19
125	2
126	0
127	1
128	78
129	87
130	6
131	2
134	0
135	0
136	0
138	4
139	65
140	38
141	3
142	49
143	3
147	0
156	2
157	107
158	9
