Mass Spectrum: Pentanedioic acid, dihexyl ester
Formula: C17H32O4
CAS: 3634-95-5
Molecular weight: 300
m/z	intensity
26	2
27	25
29	35
31	2
39	17
40	4
41	86
42	81
43	199
44	6
45	13
53	4
54	5
55	52
56	57
57	22
60	8
61	8
67	5
69	22
70	15
73	10
83	4
84	32
85	33
86	54
87	98
88	7
89	3
97	4
98	13
99	2
113	2
114	73
115	999
116	52
117	7
129	3
133	8
157	4
170	59
171	6
172	2
198	13
199	164
200	20
217	27
218	3
257	3
