Mass Spectrum: Acetic acid, [(4-chlorophenyl)sulfonyl]-, ethyl ester
Formula: C10H11ClO4S
CAS: 3636-65-5
Molecular weight: 262
m/z	intensity
45	300
75	140
77	90
87	999
91	40
103	20
105	20
111	240
112	50
113	80
114	10
127	30
129	10
135	100
139	20
159	100
161	40
175	80
177	40
262	120
264	50
