Mass Spectrum: 2-Nonadecanone, O-methyloxime
Formula: C20H41NO
CAS: 36379-39-2
Molecular weight: 311
m/z	intensity
27	20
28	20
29	75
39	25
41	216
42	233
43	250
44	8
45	8
53	8
54	8
55	166
56	41
57	216
58	8
67	29
68	20
69	83
70	29
71	54
72	8
74	12
81	33
82	29
83	62
84	4
85	29
87	999
88	50
95	29
96	33
97	54
100	133
101	20
108	1
109	13
110	12
111	29
112	6
113	6
114	20
115	2
119	0
121	2
122	2
123	8
124	5
125	15
126	5
127	3
128	6
129	4
135	3
136	0
137	4
138	3
139	6
140	2
141	2
142	8
143	1
149	3
150	0
151	4
152	1
153	4
154	1
155	1
156	6
157	0
163	1
164	0
165	1
166	1
167	3
168	0
169	1
170	3
177	0
178	0
179	0
180	0
181	1
182	0
183	1
184	1
191	0
193	0
194	0
195	2
196	0
197	0
198	2
201	0
207	0
208	0
209	0
210	0
211	0
212	2
221	0
222	0
223	0
224	0
225	0
226	2
236	0
238	0
240	2
254	0
264	19
265	6
266	0
268	2
278	0
280	10
281	1
282	1
283	0
296	5
297	0
310	2
311	13
312	2
