Mass Spectrum: Dodecanal, O-methyloxime
Formula: C13H27NO
CAS: 36379-37-0
Molecular weight: 213
m/z	intensity
15	6
27	48
28	86
29	100
30	20
32	6
39	27
41	175
42	34
43	258
44	3
45	6
47	10
52	6
53	6
54	20
55	103
56	24
57	44
58	6
60	27
67	27
68	20
69	37
70	6
71	3
73	999
74	20
79	6
81	17
82	17
83	27
86	162
87	6
95	6
96	20
97	20
100	20
109	6
110	9
111	11
112	2
113	0
114	12
115	2
121	0
123	2
124	5
125	2
126	0
128	7
129	2
137	2
138	4
139	0
140	0
141	0
142	7
143	0
144	0
152	2
154	2
156	4
157	0
166	5
167	0
170	5
182	27
183	3
184	2
185	2
186	0
212	0
213	7
214	2
