Mass Spectrum: 2-Tridecanone, O-methyloxime
Formula: C14H29NO
CAS: 36379-38-1
Molecular weight: 227
m/z	intensity
15	20
27	69
28	27
29	206
30	10
39	41
40	6
41	337
42	568
43	241
44	6
45	27
52	6
53	3
54	20
55	200
56	41
57	231
58	6
67	24
68	34
69	51
70	27
71	6
72	6
74	6
79	10
81	20
82	27
83	37
84	6
87	999
88	37
95	3
96	20
97	27
100	241
101	6
110	13
111	17
112	2
114	37
115	5
122	0
123	0
124	3
125	6
126	2
128	7
129	4
137	0
138	2
139	0
142	9
143	2
152	2
156	6
157	0
166	0
170	4
171	0
180	22
181	5
184	5
185	0
194	2
196	16
197	1
198	2
199	0
211	6
212	0
226	0
227	21
228	6
229	0
