Mass Spectrum: 2-Decanone, O-methyloxime
Formula: C11H23NO
CAS: 36382-61-3
Molecular weight: 185
m/z	intensity
15	50
27	117
28	61
29	170
30	5
31	5
39	105
40	17
41	447
42	947
43	152
44	8
45	47
52	11
53	23
54	32
55	170
56	52
57	185
58	23
67	23
68	52
69	58
70	32
71	11
72	35
74	14
79	14
81	23
82	35
83	61
84	11
87	999
88	47
95	8
96	20
97	20
100	285
101	23
108	17
109	32
110	11
111	5
112	20
114	42
115	52
122	1
123	1
124	32
126	0
128	8
129	4
138	25
139	8
140	1
142	10
143	2
152	2
154	14
155	0
156	7
157	0
170	5
171	1
184	0
185	20
186	5
187	1
