Mass Spectrum: 2-Octanone, O-methyloxime
Formula: C9H19NO
CAS: 36382-59-9
Molecular weight: 157
m/z	intensity
15	47
26	8
27	117
28	64
29	141
30	20
31	5
39	94
40	23
41	285
42	729
43	188
44	23
45	64
47	20
53	23
54	47
55	147
56	52
57	152
58	23
59	17
67	20
68	52
69	108
70	29
71	50
73	29
81	35
82	35
83	50
84	23
86	11
87	999
88	52
95	8
96	23
100	294
101	47
110	64
111	47
114	94
115	14
126	17
128	17
142	17
156	8
157	44
158	8
