Mass Spectrum: 2-Heptanone, 6-methyl-, O-methyloxime
Formula: C9H19NO
CAS: 36382-58-8
Molecular weight: 157
m/z	intensity
15	64
26	7
27	133
28	71
29	133
30	20
31	20
32	15
39	123
40	33
41	358
42	838
43	302
44	20
45	69
47	20
48	15
53	30
54	30
55	123
56	71
57	174
58	20
59	7
60	7
67	25
68	69
69	112
70	51
71	12
72	43
73	10
74	30
81	15
82	46
83	71
84	33
85	12
86	17
87	999
88	66
95	30
96	12
100	246
101	43
110	43
111	46
114	179
115	25
126	30
142	46
157	46
158	15
