Mass Spectrum: p-Acetoxybenzylidene-p-butylaniline
Formula: C19H21NO2
CAS: 36395-07-0
Molecular weight: 295
m/z	intensity
41	113
42	44
43	491
44	14
45	2
46	5
47	17
48	1
49	11
50	62
51	98
52	63
53	71
54	18
55	30
56	2
57	10
58	1
60	5
61	23
62	44
63	97
64	42
65	288
66	57
67	13
68	2
69	1
71	0
73	6
74	19
75	13
76	14
77	150
78	112
79	60
80	14
81	2
85	0
86	0
87	1
88	1
89	26
90	20
91	60
92	53
93	143
94	25
95	2
101	1
102	5
103	15
104	24
105	37
106	999
107	131
108	4
109	0
115	5
116	3
117	9
118	20
119	30
120	32
121	267
122	233
123	19
124	1
127	1
128	1
129	0
130	4
131	2
132	19
133	3
134	10
135	1
144	0
146	1
148	140
149	157
150	18
151	1
162	3
176	1
180	0
189	1
191	146
192	20
193	1
208	0
209	1
210	28
211	4
253	9
254	1
