Mass Spectrum: Benzene, 2-fluoro-1,3,5-trinitro-
Formula: C6H2FN3O6
CAS: 364-44-3
Molecular weight: 231
m/z	intensity
30	999
46	200
50	15
51	12
61	38
62	65
63	20
73	32
74	210
75	350
81	135
82	20
93	815
94	60
138	30
139	14
185	10
215	10
231	530
232	41
233	1
