Mass Spectrum: Metoclopramide
Formula: C14H22ClN3O2
CAS: 364-62-5
Molecular weight: 299
m/z	intensity
28	24
29	55
30	195
31	2
36	0
38	0
39	4
40	11
41	6
42	34
43	8
44	13
45	0
50	1
51	4
52	4
53	1
54	2
55	2
56	32
57	10
58	114
59	4
60	0
61	0
62	1
63	6
64	2
65	3
66	2
67	0
68	2
69	1
70	15
71	31
72	11
73	1
74	0
75	1
76	3
77	2
78	13
79	2
80	0
81	0
82	0
83	0
84	22
85	5
86	999
87	75
88	1
89	1
90	24
91	5
92	3
93	6
94	1
95	0
96	0
97	1
98	1
99	321
100	22
101	1
102	0
103	0
104	0
105	0
106	1
107	1
112	1
113	13
114	3
115	4
116	0
118	0
119	0
120	1
121	1
122	0
124	0
125	3
126	12
127	3
128	5
129	1
130	1
132	0
133	1
134	0
135	0
139	0
140	1
141	16
142	2
143	5
144	0
147	0
148	2
149	1
150	1
153	0
154	5
155	2
156	2
157	0
158	0
160	0
162	1
163	0
164	1
165	0
166	0
167	0
168	2
169	7
170	3
171	2
172	1
179	0
181	0
182	0
183	3
184	73
185	7
186	23
187	2
191	0
195	0
197	0
198	0
199	0
201	31
202	3
203	10
204	0
211	0
212	2
213	1
214	0
215	0
225	0
226	0
227	12
228	3
229	4
230	1
231	0
256	0
270	2
271	0
272	0
298	0
299	4
300	1
301	1
302	0
