Mass Spectrum: Diazoxide
Formula: C8H7ClN2O2S
CAS: 364-98-7
Molecular weight: 230
m/z	intensity
15	6
26	3
27	6
28	17
37	24
38	45
39	43
40	23
41	17
42	84
43	9
45	15
47	12
48	32
49	36
50	41
51	37
52	84
53	12
54	2
55	5
57	3
58	2
60	10
61	54
62	150
63	430
64	91
65	40
66	4
69	15
70	5
71	7
72	20
73	84
74	67
75	69
76	42
77	15
78	41
79	12
80	3
81	4
82	3
83	9
84	9
85	7
86	11
87	19
88	50
89	64
90	210
91	24
92	2
93	12
94	6
95	15
96	6
97	55
98	168
99	54
100	67
101	11
102	10
103	10
104	14
105	3
108	10
109	4
110	11
111	5
112	28
113	17
114	12
115	10
116	4
118	2
120	6
121	1
122	6
123	3
124	68
125	999
126	97
127	314
128	28
129	11
130	11
131	31
132	8
133	3
135	1
137	2
138	9
139	7
140	29
141	3
142	13
144	3
151	6
153	1
154	4
156	11
157	2
158	3
165	49
166	20
167	15
168	13
169	3
171	2
172	24
173	2
174	9
181	1
188	7
189	758
190	63
191	324
192	25
193	12
195	1
230	379
231	35
232	137
233	17
234	9
