Mass Spectrum: Acetamide, 2-chloro-N,N-diethyl-2-fluoro-
Formula: C6H11ClFNO
CAS: 364-94-3
Molecular weight: 167
m/z	intensity
12	3
13	5
14	19
15	124
16	9
17	29
18	120
19	3
20	3
25	4
26	65
27	456
28	447
29	764
30	200
31	54
32	79
33	46
35	7
36	14
37	6
38	13
39	45
40	47
41	145
42	324
43	142
44	669
45	43
46	13
47	19
48	76
49	18
50	11
51	21
52	15
53	10
54	32
55	83
56	233
57	67
58	716
59	52
60	106
61	37
62	7
63	12
64	11
65	12
66	11
67	169
68	13
69	85
70	57
71	54
72	999
73	80
74	30
75	7
76	49
77	24
78	12
79	10
80	2
81	8
82	7
83	19
84	21
85	13
86	8
87	7
88	6
89	12
90	8
91	21
92	18
93	5
94	105
95	21
96	19
97	33
98	15
100	744
101	52
102	9
103	4
104	34
105	34
106	11
107	7
108	16
109	4
110	4
111	9
112	10
113	6
114	3
115	2
116	5
117	7
118	2
119	2
120	3
121	3
122	24
123	5
124	71
125	5
126	23
127	4
128	2
129	2
130	3
131	19
132	402
133	33
134	2
138	22
139	5
140	7
141	3
148	3
149	11
150	2
152	328
153	20
154	102
155	7
166	9
167	274
168	25
169	88
170	7
