Mass Spectrum: 2-Chloropyridine-3-carbaldehyde
Formula: C6H4ClNO
CAS: 36404-88-3
Molecular weight: 141
m/z	intensity
35	89
36	63
37	225
38	228
39	117
40	31
41	4
44	3
47	43
48	44
49	286
50	999
51	830
52	227
53	59
55	2
56	7
59	3
60	42
61	78
62	92
63	55
64	26
72	13
73	10
74	25
75	170
76	542
77	711
78	405
79	25
84	61
85	122
86	50
87	51
88	11
89	3
91	1
105	586
106	39
112	402
113	48
114	138
115	12
140	397
141	819
142	188
143	276
144	12
