Mass Spectrum: 2-Methylpropenoic acid, 2,2,3,4,4,4-hexafluorobutyl ester
Formula: C8H8F6O2
CAS: 36405-47-7
Molecular weight: 250
m/z	intensity
39	263
40	36
41	542
42	23
44	24
45	20
51	115
52	4
55	10
56	3
69	999
70	57
71	6
83	6
85	9
86	22
95	59
96	2
99	10
101	9
113	10
145	4
199	7
235	3
249	17
250	275
251	16
252	2
