Mass Spectrum: 1-Octanol, 5,7,7-trimethyl-2-(1,3,3-trimethylbutyl)-
Formula: C18H38O
CAS: 36400-98-3
Molecular weight: 270
m/z	intensity
18	5
27	11
28	10
29	57
31	7
39	11
40	2
41	114
42	10
43	101
44	5
45	5
53	7
54	4
55	88
56	93
57	999
58	46
59	6
67	15
68	7
69	116
70	65
71	104
72	7
73	2
79	3
81	17
82	11
83	128
84	29
85	62
86	6
87	8
95	11
96	9
97	79
98	53
99	43
100	4
101	5
109	6
111	46
112	24
113	25
114	3
115	7
123	5
124	3
125	43
126	14
127	20
128	2
129	5
137	3
138	3
139	14
140	63
141	18
143	7
153	4
155	7
157	21
158	3
169	3
171	5
181	3
182	3
183	4
196	36
197	7
199	4
213	45
214	7
252	3
255	6
270	1
