Mass Spectrum: 3-Amino-1,2,4-triazole-5-carboxylic acid
Formula: C3H4N4O2
CAS: 3641-13-2
Molecular weight: 128
m/z	intensity
13	7
16	1
26	8
27	92
29	90
30	23
39	1
41	36
42	140
43	152
53	37
54	30
55	13
56	13
57	321
58	3
84	999
85	37
