Mass Spectrum: 1,2,5-Hexatriene
Formula: C6H8
CAS: 3642-18-0
Molecular weight: 80
m/z	intensity
27	187
28	13
34	0
35	0
36	2
37	31
38	62
39	406
40	41
41	203
42	8
43	0
44	1
45	1
48	1
49	16
50	112
51	159
52	149
53	120
54	30
55	1
56	0
57	0
59	0
60	1
61	8
62	12
63	24
64	4
65	77
66	5
67	2
68	0
72	0
73	7
74	18
75	18
76	7
77	376
78	105
79	999
80	142
81	7
82	0
