Mass Spectrum: 2,6,10,14-Pentadecanetetrone
Formula: C15H24O4
CAS: 36452-83-2
Molecular weight: 268
m/z	intensity
43	999
55	550
58	200
59	50
70	50
71	350
83	180
85	620
95	330
97	450
113	870
114	70
123	250
125	380
128	100
137	300
141	330
147	50
155	50
165	700
180	50
183	380
192	50
193	70
232	70
250	380
268	30
