Mass Spectrum: Silane, [bicyclo[4.2.0]octa-3,7-diene-7,8-diylbis(oxy)]bis[trimethyl-
Formula: C14H26O2Si2
CAS: 36461-33-3
Molecular weight: 282
m/z	intensity
43	30
44	20
45	150
46	10
47	10
58	10
59	30
72	10
73	999
74	90
75	90
77	20
78	10
79	30
91	40
92	70
103	10
129	20
131	20
133	20
147	230
148	40
149	30
151	30
153	20
166	10
167	30
168	40
177	20
179	20
182	10
192	10
193	20
228	30
239	20
241	20
254	20
255	20
267	30
281	20
282	430
283	110
284	40
