Mass Spectrum: Tetradecanal, O-methyloxime
Formula: C15H31NO
CAS: 36475-50-0
Molecular weight: 241
m/z	intensity
15	6
27	41
28	41
29	103
30	20
39	27
41	248
42	106
43	268
44	6
45	6
47	6
48	6
53	3
54	27
55	144
56	20
57	79
58	6
60	27
67	27
68	17
69	55
70	20
71	17
73	999
74	27
79	6
81	20
82	27
83	37
84	6
85	6
86	151
87	6
95	3
96	17
97	27
100	20
109	7
110	13
111	13
112	3
113	1
114	17
115	2
121	0
122	0
123	4
124	7
125	5
126	2
127	0
128	10
129	1
137	2
138	5
139	2
140	0
142	11
143	0
151	0
152	3
153	0
154	1
156	4
157	0
166	2
170	2
172	2
180	0
182	0
184	2
185	0
194	4
195	0
198	6
199	0
210	31
211	5
212	2
213	2
240	0
241	15
242	5
