Mass Spectrum: 2-n-Propylaziridine
Formula: C5H11N
CAS: 3647-38-9
Molecular weight: 85
m/z	intensity
27	77
28	372
29	77
30	196
31	11
41	134
42	88
43	70
44	22
56	999
57	236
58	15
70	734
71	26
72	14
84	68
85	22
86	1
