Mass Spectrum: (3-Fluorophenyl)phenylmethanol
Formula: C13H11FO
CAS: 365-17-3
Molecular weight: 202
m/z	intensity
32	28
38	10
39	51
50	56
51	183
52	30
53	14
57	32
62	14
63	38
64	18
69	16
70	19
73	10
74	23
75	79
76	30
77	361
78	272
79	351
80	27
81	18
82	16
83	36
84	24
85	10
91	19
92	46
94	12
95	166
96	139
97	154
98	13
105	999
106	123
107	152
108	14
112	75
123	429
124	48
125	59
133	18
146	9
152	26
153	30
157	13
163	9
165	44
170	29
171	12
181	19
182	19
183	172
184	50
185	70
186	27
201	137
202	291
203	43
