Mass Spectrum: 1H-Imidazole-4-ethanamine, 5-methyl-
Formula: C6H11N3
CAS: 36507-31-0
Molecular weight: 125
m/z	intensity
28	210
29	30
30	480
31	30
39	50
41	120
42	170
43	40
52	60
53	50
54	120
55	70
56	10
66	10
67	20
68	110
69	80
80	30
81	160
82	30
83	10
94	50
95	749
96	999
97	120
107	30
108	10
109	10
123	20
124	20
125	130
126	20
