Mass Spectrum: D-Arabino-Hexose, 2-deoxy-, cyclic 1,2-ethanediyl mercaptal
Formula: C8H16O4S2
CAS: 3650-69-9
Molecular weight: 240
m/z	intensity
41	51
42	32
43	192
44	39
45	234
46	17
47	44
53	11
54	9
55	56
56	39
57	83
58	49
59	121
60	118
61	585
62	22
63	21
64	14
69	59
70	12
71	71
72	13
73	97
74	33
75	14
77	22
78	6
83	18
84	7
85	49
86	14
87	54
88	12
89	61
90	12
91	45
92	25
93	21
94	23
97	12
99	16
101	30
102	16
103	21
104	16
105	999
106	61
107	93
111	21
115	21
116	11
117	7
118	214
119	103
120	65
121	17
127	7
128	19
129	28
131	454
132	129
133	55
134	14
135	7
147	28
148	37
149	12
161	64
162	6
163	12
173	69
174	7
175	8
176	9
191	42
204	138
205	18
206	16
222	79
223	6
224	6
240	14
