Mass Spectrum: D-Arabinose, cyclic 1,2-ethanediyl mercaptal
Formula: C7H14O4S2
CAS: 3650-67-7
Molecular weight: 226
m/z	intensity
41	16
42	20
43	99
44	17
45	143
46	17
47	35
55	19
56	9
57	27
58	17
59	27
60	27
61	330
62	11
63	11
64	8
69	9
71	12
72	9
73	48
74	16
75	11
76	30
77	17
78	57
79	13
85	16
87	19
89	12
91	11
103	49
105	999
106	473
107	124
108	41
109	5
118	9
119	12
120	9
131	8
134	6
135	27
147	247
148	19
149	24
159	11
190	13
208	8
