Mass Spectrum: D-Arabino-Hexose, 2-deoxy-, diethyl mercaptal
Formula: C10H22O4S2
CAS: 3650-68-8
Molecular weight: 270
m/z	intensity
41	49
42	19
43	205
44	30
45	172
46	39
47	61
53	11
54	8
55	61
56	22
57	108
58	20
59	102
60	130
61	673
62	73
63	54
64	4
67	10
68	8
69	999
70	49
71	76
72	14
73	120
74	20
75	136
76	10
77	11
78	10
79	11
83	38
84	11
85	105
86	10
87	54
88	64
89	986
90	65
91	71
92	4
93	20
95	7
96	11
97	22
98	11
99	29
100	5
101	51
102	20
103	168
104	10
105	13
107	20
109	2
111	146
112	11
113	8
114	19
115	51
116	10
117	128
118	29
119	26
120	10
121	11
127	11
128	10
129	209
130	17
131	26
135	55
147	442
148	33
149	10
155	4
156	4
159	19
160	2
161	2
162	2
177	19
178	11
179	2
190	17
191	7
209	33
270	197
271	27
272	22
