Mass Spectrum: Dodecanoic acid, decyl ester
Formula: C22H44O2
CAS: 36528-28-6
Molecular weight: 340
m/z	intensity
27	34
29	133
39	63
40	15
41	637
42	174
43	994
44	44
52	6
53	40
54	100
55	887
56	414
57	999
58	39
59	39
61	339
62	10
66	23
67	246
68	221
69	747
70	519
71	646
72	44
73	526
74	56
77	25
79	85
80	28
82	480
83	589
84	397
85	433
86	47
87	128
89	30
93	42
95	186
96	190
97	585
98	316
99	61
100	15
103	37
107	34
110	106
111	420
112	261
113	56
114	12
115	134
116	86
117	34
125	87
126	31
129	392
130	36
135	26
137	82
138	44
139	97
140	536
141	61
143	75
157	59
163	22
175	14
183	157
184	19
185	77
186	13
199	16
200	111
201	746
202	100
206	11
212	5
213	70
228	11
239	12
251	16
283	18
285	9
290	6
340	54
341	13
342	3
