Mass Spectrum: 7-Acetyl-1,7-diazabicyclo[2.2.0]heptane
Formula: C7H12N2O
CAS: 36553-03-4
Molecular weight: 140
m/z	intensity
27	62
28	83
29	63
30	41
39	85
40	22
41	123
42	194
43	462
44	51
45	12
53	32
54	43
55	123
56	65
57	34
58	32
59	23
68	41
69	403
70	999
71	92
72	12
97	34
98	43
99	205
100	23
111	25
112	103
113	23
125	22
138	21
139	42
140	483
141	43
144	5
