Mass Spectrum: 2H-Pyran-2-one, tetrahydro-4-hydroxy-6-pentyl-
Formula: C10H18O3
CAS: 36555-25-6
Molecular weight: 186
m/z	intensity
26	21
27	346
29	381
30	16
31	73
38	25
39	256
40	64
41	583
42	258
43	999
44	323
45	432
46	18
47	7
50	7
51	24
52	5
53	47
54	89
55	338
56	159
57	196
58	135
59	15
60	13
65	20
66	12
67	138
68	68
69	218
70	123
71	260
72	28
73	822
74	30
75	10
77	8
78	9
79	44
80	25
81	76
82	110
83	186
84	37
85	29
86	28
87	69
88	33
89	241
93	24
94	13
95	47
96	47
97	869
98	93
99	130
100	55
101	66
102	50
105	5
107	13
108	65
109	11
110	9
111	18
112	61
113	49
115	767
116	45
117	14
122	6
123	10
125	32
126	29
127	8
129	17
130	13
131	8
135	7
139	15
140	29
141	12
145	4
168	19
