Mass Spectrum: Pentanoic acid, 3,5-dioxo-, methyl ester
Formula: C6H8O4
CAS: 36568-10-2
Molecular weight: 144
m/z	intensity
43	280
59	430
71	629
85	669
97	300
101	999
112	170
113	150
126	110
127	20
129	30
144	50
