Mass Spectrum: Octanoic acid, 3,5-dioxo-, methyl ester
Formula: C9H14O4
CAS: 36568-09-9
Molecular weight: 186
m/z	intensity
43	170
59	809
69	509
71	899
84	719
85	729
97	280
101	999
113	919
115	619
126	729
143	809
157	569
158	679
171	220
186	410
