Mass Spectrum: Benzenepentanoic acid, .beta.,.delta.-dioxo-, methyl ester
Formula: C12H12O4
CAS: 36568-12-4
Molecular weight: 220
m/z	intensity
43	280
51	370
69	509
77	480
85	150
105	999
147	739
161	579
163	569
173	110
174	160
188	649
189	260
203	340
205	110
220	210
