Mass Spectrum: (1R,3aS,8aS)-7-Isopropyl-1,4-dimethyl-1,2,3,3a,6,8a-hexahydroazulene
Formula: C15H24
CAS: 36577-33-0
Molecular weight: 204
m/z	intensity
26	1
27	24
29	25
38	2
39	67
40	11
41	198
42	16
43	88
50	5
51	33
52	13
53	70
54	5
55	120
56	13
57	19
58	4
62	3
63	16
64	10
65	74
66	13
67	74
68	7
69	79
70	6
71	6
72	2
74	2
75	4
76	6
77	164
78	45
79	148
80	19
81	144
82	13
83	10
87	1
89	9
90	3
91	376
92	60
93	195
94	43
95	47
96	6
97	4
101	2
102	10
103	54
104	27
105	999
106	192
107	249
108	54
109	40
110	4
111	1
113	1
114	1
115	98
116	37
117	117
118	32
119	609
120	86
121	82
122	78
123	28
124	3
126	2
127	14
128	45
129	43
130	17
131	59
132	20
133	260
134	92
135	57
136	29
137	3
139	2
141	11
142	7
143	10
144	6
145	42
146	12
147	208
148	85
149	25
150	4
151	1
152	2
153	3
154	1
155	2
156	1
157	3
159	22
160	12
161	436
162	63
163	9
164	1
173	2
174	1
175	29
176	6
177	1
187	5
188	1
189	114
190	17
191	1
202	4
203	2
204	233
205	42
206	3
