Mass Spectrum: 1,5-Pentanedione, 3-(1-methylethyl)-2-(2-methyl-1-propenyl)-1,5-diphenyl-, (R*,S*)-
Formula: C24H28O2
CAS: 36597-11-2
Molecular weight: 348
m/z	intensity
39	18
41	105
43	23
51	68
69	52
76	363
81	31
91	36
95	18
105	999
106	105
109	50
115	15
123	32
124	407
125	42
127	3
128	12
129	15
131	9
141	3
142	2
143	6
144	3
145	7
152	3
153	5
154	6
155	5
156	5
157	15
158	6
159	22
171	5
172	10
173	18
174	50
175	52
176	5
185	51
186	10
187	7
201	2
213	3
225	5
226	1
227	2
228	11
229	23
230	3
243	44
287	2
305	26
333	1
348	15
