Mass Spectrum: N-Benzoyl derivative of p-fluoroaniline
Formula: C13H10FNO
CAS: 366-75-6
Molecular weight: 215
m/z	intensity
37	12
38	22
39	32
49	12
50	93
51	262
52	32
53	12
56	12
57	83
58	12
62	22
63	32
64	12
65	12
74	32
75	32
76	42
77	661
78	53
81	22
82	22
83	153
84	12
89	12
95	12
105	999
106	83
107	12
109	12
110	53
111	12
185	12
215	292
216	42
