Mass Spectrum: Benzenepentanamide
Formula: C11H15NO
CAS: 36603-28-8
Molecular weight: 177
m/z	intensity
38	6
39	128
40	13
41	77
42	39
43	172
44	383
45	35
46	6
50	29
51	91
52	22
53	17
54	7
55	78
56	33
57	53
59	999
60	53
61	4
62	7
63	33
64	5
65	167
66	10
67	2
68	2
69	4
70	1
72	371
73	196
74	13
75	6
76	7
77	75
78	44
79	34
80	3
81	1
82	2
83	2
85	6
86	66
87	5
89	26
91	460
92	45
93	3
95	1
98	1
99	1
102	8
103	29
104	91
105	34
106	6
107	1
115	41
116	11
117	69
118	23
119	5
120	2
127	2
128	6
129	8
130	2
131	7
132	25
133	5
142	7
143	1
145	2
148	15
149	2
158	2
160	290
161	37
162	2
177	70
178	15
179	1
