Mass Spectrum: Benzenesulfonothioic acid, 4-nitro-, S-phenyl ester
Formula: C12H9NO4S2
CAS: 3660-41-1
Molecular weight: 295
m/z	intensity
77	999
78	102
79	2
96	22
97	36
98	5
99	2
108	14
109	93
110	42
111	17
112	5
124	22
125	79
126	19
127	5
128	2
129	5
138	25
139	22
140	17
141	642
142	51
143	34
150	2
151	5
152	31
153	5
154	14
155	8
184	11
185	136
186	45
187	17
188	8
201	28
202	2
203	5
229	2
230	5
231	184
232	28
233	14
234	5
262	5
263	14
264	5
265	5
295	68
296	8
297	17
298	2
