Mass Spectrum: Indene, 1,3-bis(2-ethylhexyl)-
Formula: C25H40
CAS: 3661-64-1
Molecular weight: 340
m/z	intensity
26	2
27	89
28	4
29	294
30	8
37	2
38	1
39	15
41	335
42	15
43	353
44	6
49	1
51	2
53	4
54	0
55	83
56	5
57	565
58	22
61	1
64	0
66	1
67	6
68	0
69	65
70	1
71	23
76	0
77	9
78	5
79	1
80	1
81	2
83	5
85	0
86	1
89	0
91	1
92	1
93	2
95	1
96	1
97	25
99	1
100	1
101	1
102	14
103	2
104	1
105	2
111	11
114	1
115	73
116	59
117	67
118	7
119	2
120	1
123	1
125	4
126	0
127	28
128	328
129	593
130	999
131	146
132	14
133	2
134	1
137	2
138	2
139	10
140	4
141	98
142	103
143	353
144	105
145	23
146	3
147	2
149	0
150	1
151	4
152	23
153	28
154	21
155	37
157	38
158	0
160	3
162	1
163	1
164	3
165	18
166	11
167	11
168	4
169	12
170	7
171	91
176	3
177	0
178	4
179	3
180	2
181	4
182	3
183	11
184	3
185	23
186	1
187	1
189	2
190	1
191	2
192	1
193	1
196	1
197	4
198	3
199	45
202	0
203	2
211	4
212	3
213	11
214	3
215	2
216	0
217	1
221	0
225	2
226	3
227	4
228	88
229	15
230	1
231	1
232	1
237	1
239	2
240	3
241	61
242	40
243	9
244	3
245	2
246	1
254	1
255	2
256	1
257	0
272	1
281	2
283	12
284	4
295	1
297	1
311	11
312	4
313	1
338	1
340	46
341	11
342	4
