Mass Spectrum: Cyclopropane, 2-bromo-1,1,3-trimethyl-
Formula: C6H11Br
CAS: 36617-00-2
Molecular weight: 162
m/z	intensity
24	17
25	1
27	159
28	110
29	108
30	2
31	0
34	0
37	8
38	25
39	298
40	41
41	702
42	38
43	179
44	1
49	2
50	19
51	30
52	12
53	77
54	14
55	711
56	34
57	1
61	1
62	4
63	8
64	1
65	28
66	9
67	107
68	11
69	1
70	1
71	0
74	1
75	0
77	4
78	0
79	8
80	1
81	10
82	6
83	999
84	50
85	1
92	0
93	1
94	0
95	2
107	2
109	1
119	6
120	0
121	6
122	0
133	0
136	0
147	5
149	4
