Mass Spectrum: Indene, 1,3-dicyclohexyl-
Formula: C21H28
CAS: 3661-66-3
Molecular weight: 280
m/z	intensity
26	9
27	99
28	9
29	152
30	3
38	3
39	114
40	117
41	656
42	32
43	53
44	1
50	7
51	26
52	8
53	69
54	23
55	999
56	51
57	5
62	4
63	25
64	5
65	38
66	8
67	126
68	11
69	72
70	5
71	3
74	5
75	10
76	15
77	53
78	16
79	53
80	13
81	179
82	17
83	497
84	37
85	1
86	1
87	5
88	6
89	32
90	4
91	73
92	9
93	13
94	6
95	14
96	3
97	4
98	27
99	4
100	0
101	8
102	21
103	12
104	4
105	10
106	0
107	6
108	3
109	6
110	0
113	8
114	10
115	683
116	682
117	274
118	32
119	7
120	1
121	4
122	4
123	1
125	0
126	12
127	66
128	272
129	272
130	674
131	117
132	15
133	4
134	3
135	4
136	1
137	0
138	2
139	50
140	14
141	652
142	341
143	248
144	41
145	8
146	3
147	4
148	2
149	5
150	6
151	23
152	115
153	177
154	80
155	261
156	97
157	48
158	8
159	1
161	4
162	3
163	8
164	8
165	106
166	39
167	80
168	28
169	89
170	29
171	7
175	1
176	5
177	5
178	28
179	21
180	14
181	22
182	8
183	43
184	27
185	9
186	1
187	0
189	7
190	3
191	5
192	3
193	5
194	1
195	10
196	29
197	421
198	667
199	184
200	22
201	2
202	3
203	1
207	0
209	33
210	13
211	14
212	61
213	45
214	14
215	4
223	25
224	54
225	24
226	4
229	3
236	0
237	29
238	10
239	4
242	2
244	0
246	0
251	7
252	2
260	3
265	0
278	0
279	6
280	932
281	186
282	24
283	1
