Mass Spectrum: Acetoxyacetaldehyde 2,4-dinitrophenylhydrazone
Formula: C10H10N4O6
CAS: 36638-45-6
Molecular weight: 282
m/z	intensity
12	2
13	3
14	21
15	32
16	3
17	9
18	1
24	1
25	3
26	26
27	400
28	172
29	27
30	149
31	34
32	1
37	10
38	54
39	34
40	20
41	43
42	117
43	793
44	56
45	113
46	16
47	1
48	1
49	3
50	45
51	63
52	43
53	20
54	6
55	999
56	38
57	28
58	5
59	2
60	122
61	22
62	55
63	122
64	60
65	21
66	13
67	8
68	5
69	2
70	3
71	9
72	1
73	9
74	79
75	216
76	90
77	82
78	51
79	110
80	17
81	5
82	2
83	2
84	1
85	2
86	2
87	6
88	14
89	23
90	38
91	52
92	56
93	133
94	9
95	3
96	2
97	2
99	1
100	2
101	5
102	17
103	34
104	24
105	20
106	11
107	10
108	3
109	2
110	1
111	1
112	1
115	1
116	3
117	12
118	13
119	23
120	15
121	12
122	54
123	5
128	1
129	5
130	9
131	17
132	7
133	5
134	3
135	9
136	5
137	16
138	7
139	1
143	1
144	9
145	4
146	4
147	22
148	11
149	20
150	9
151	3
152	16
153	10
154	1
159	1
160	9
161	4
162	2
163	6
164	11
165	21
166	10
167	30
168	15
169	2
170	1
174	12
175	4
176	9
177	80
178	15
179	17
180	16
181	6
182	2
183	66
184	25
185	2
190	43
191	6
192	9
193	511
194	52
195	232
196	36
197	4
198	1
205	17
206	33
207	6
208	2
209	1
210	1
211	7
212	1
220	1
222	691
223	143
224	47
225	7
226	1
238	2
239	2
240	34
241	3
249	1
251	39
252	4
264	1
266	5
282	266
283	42
284	6
