Mass Spectrum: N-(4-Tolylsulfonylmethyl)formamide
Formula: C9H11NO3S
CAS: 36635-56-0
Molecular weight: 213
m/z	intensity
33	3
34	2
35	1
37	4
38	20
39	132
40	28
41	33
42	3
43	6
44	10
45	26
46	2
48	15
49	5
50	39
51	54
52	15
53	11
54	2
55	6
56	8
58	999
59	22
60	5
61	10
62	28
63	81
64	30
65	261
66	15
67	10
69	17
70	6
71	7
72	1
73	3
74	9
75	8
77	53
78	21
79	32
80	12
81	3
82	4
83	7
84	3
85	7
86	5
87	6
89	72
91	419
92	248
93	29
94	4
95	4
96	2
97	3
98	1
103	5
104	12
105	15
106	28
107	41
108	24
109	4
111	6
116	1
117	1
119	8
120	17
121	9
122	6
123	9
124	20
125	2
126	1
132	1
134	15
135	1
139	49
140	14
141	3
142	1
148	4
149	2
154	1
155	5
156	28
157	3
158	2
213	11
214	1
