Mass Spectrum: 1,3,7-Octatriene, 2,7-dimethyl-
Formula: C10H16
CAS: 36638-38-7
Molecular weight: 136
m/z	intensity
25	0
26	9
27	171
28	19
29	116
30	2
31	2
32	0
33	0
35	0
36	0
37	4
38	14
39	225
40	50
41	331
42	23
43	20
44	0
45	1
49	1
50	17
51	45
52	25
53	313
54	21
55	115
56	7
57	1
58	1
59	1
61	1
62	4
63	13
64	3
65	60
66	44
67	102
68	100
69	13
70	1
71	0
72	0
73	0
74	2
75	3
76	2
77	101
78	23
79	416
80	102
81	999
82	87
83	3
84	1
85	0
86	0
87	0
89	1
90	1
91	47
92	21
93	135
94	42
95	30
96	2
102	0
103	3
104	1
105	18
106	8
107	140
108	84
109	8
110	0
115	2
116	0
117	2
118	0
119	5
120	3
121	196
122	22
123	1
133	0
134	1
135	3
136	52
137	6
138	0
