Mass Spectrum: 1,3,3-Trimethylcyclopropene
Formula: C6H10
CAS: 3664-56-0
Molecular weight: 82
m/z	intensity
25	1
27	140
29	34
30	0
31	1
36	0
37	23
38	61
39	493
40	95
41	780
42	96
43	20
44	1
49	6
50	39
51	77
52	25
53	132
54	123
55	50
56	13
57	0
61	8
62	15
63	34
64	6
65	137
66	38
67	999
68	56
69	4
73	1
74	4
75	2
76	0
77	24
78	4
79	39
80	10
81	81
82	134
83	11
