Mass Spectrum: Ethanone, 1-(2,2-dimethylcyclopentyl)-
Formula: C9H16O
CAS: 3664-75-3
Molecular weight: 140
m/z	intensity
41	440
42	90
43	999
44	30
45	50
51	20
52	10
53	100
54	40
55	710
56	80
57	40
58	20
59	20
63	10
65	30
66	20
67	120
68	60
69	190
70	410
71	700
72	50
77	30
78	20
79	40
80	10
81	110
82	180
83	60
84	240
85	50
86	10
87	10
91	10
93	30
94	10
95	40
96	80
97	220
98	30
99	60
107	10
109	20
111	10
122	40
123	10
125	30
140	50
141	20
