Mass Spectrum: 1,30-Triacontanediol
Formula: C30H62O2
CAS: 36645-68-8
Molecular weight: 454
m/z	intensity
25	0
26	4
27	33
28	5
29	132
30	3
31	84
36	0
37	0
38	1
39	25
40	74
41	454
42	107
43	633
44	22
45	13
46	0
49	0
50	1
51	1
52	1
53	16
54	107
55	999
56	272
57	605
58	29
59	3
60	0
61	0
62	0
63	0
64	0
65	3
66	41
67	268
68	334
69	701
70	202
71	266
72	18
73	12
74	0
77	3
78	2
79	17
80	40
81	316
82	838
83	691
84	111
85	152
86	11
87	4
88	0
89	0
91	2
92	1
93	10
94	28
95	273
96	611
97	530
98	71
99	39
100	3
101	1
104	0
105	1
106	0
107	3
108	11
109	167
110	181
111	212
112	37
113	25
114	2
115	1
117	0
118	0
119	0
120	0
121	5
122	20
123	127
124	135
125	104
126	23
127	15
128	1
129	0
132	0
133	0
135	4
136	13
137	86
138	96
139	53
140	15
141	9
142	1
143	0
147	0
149	1
150	2
151	28
152	43
153	29
154	12
155	6
156	1
157	0
163	0
164	0
165	12
166	26
167	20
168	8
169	4
170	0
171	0
177	0
178	0
179	8
180	17
181	15
182	5
183	3
184	0
185	0
192	0
193	5
194	17
195	10
196	5
197	2
198	0
199	0
206	0
207	5
208	15
209	9
210	4
211	3
212	0
213	0
220	0
221	5
222	12
223	7
224	3
225	2
226	0
227	0
229	0
234	0
235	4
236	13
237	6
238	3
239	2
240	0
241	0
248	0
249	3
250	13
251	5
252	2
253	1
254	0
255	0
257	1
262	0
263	3
264	11
265	5
266	2
267	1
268	0
269	0
276	0
277	3
278	11
279	5
280	2
281	1
282	0
283	0
290	0
291	4
292	11
293	5
294	2
295	1
297	0
304	0
305	3
306	10
307	3
308	2
309	1
310	0
318	0
319	3
320	9
321	3
322	2
323	1
325	0
332	0
333	2
334	11
335	4
336	3
337	1
338	0
346	0
347	2
348	10
349	4
350	2
351	2
352	0
353	0
360	0
361	5
362	14
363	4
364	1
365	1
367	0
375	4
376	9
377	3
378	3
379	3
380	0
389	3
390	29
391	7
392	1
393	9
394	2
395	0
403	0
404	0
406	10
407	6
408	1
409	0
418	144
419	50
420	7
421	1
434	0
435	0
436	4
437	1
438	0
453	1
454	14
455	5
456	1
