Mass Spectrum: 1,3-Dioxolane-2-propanol, 2,4-dimethyl-
Formula: C8H16O3
CAS: 36651-29-3
Molecular weight: 160
m/z	intensity
40	330
41	350
42	150
43	900
44	90
45	420
53	30
54	20
55	70
56	30
57	40
58	90
59	40
61	20
69	60
72	20
82	60
83	150
84	999
85	60
86	80
101	870
102	40
144	20
145	40
