Mass Spectrum: Octanoic acid, 7-oxo-, ethyl ester
Formula: C10H18O3
CAS: 36651-36-2
Molecular weight: 186
m/z	intensity
41	110
42	50
43	999
44	30
45	60
49	10
53	10
55	160
56	10
57	10
58	160
59	30
60	80
61	50
67	10
68	10
69	150
70	30
71	80
72	10
73	130
74	10
79	10
81	20
83	120
84	30
85	10
86	10
87	20
88	100
89	10
95	240
96	20
97	110
98	80
99	40
101	420
102	30
112	60
113	20
115	30
116	10
123	40
125	60
128	30
129	420
130	40
140	40
141	120
142	10
143	10
144	10
168	10
186	10
