Mass Spectrum: 1,3-Dioxolane-2-pentanoic acid, 2-methyl-, ethyl ester
Formula: C11H20O4
CAS: 36651-17-9
Molecular weight: 216
m/z	intensity
41	40
42	10
43	350
45	20
55	30
59	20
64	10
71	10
72	20
81	90
83	20
85	30
87	999
88	40
98	10
99	20
109	10
111	20
155	20
201	110
