Mass Spectrum: .alpha.-D-Glucopyranoside, methyl 2-(acetylmethylamino)-2-deoxy-3,4-di-O-methyl-, 6-acetate
Formula: C14H25NO7
CAS: 36663-25-9
Molecular weight: 319
m/z	intensity
41	125
42	245
43	470
44	83
45	228
46	5
47	19
53	22
54	8
55	50
56	158
57	44
58	36
59	50
61	5
68	39
69	55
70	55
71	105
72	286
73	47
74	47
75	133
80	2
81	8
82	19
83	8
84	22
85	30
86	39
87	999
88	289
89	16
94	41
95	16
96	22
97	16
98	217
99	41
100	161
101	69
102	8
110	16
111	11
112	27
113	11
114	11
115	13
116	22
117	44
118	13
122	11
123	5
124	19
125	8
126	50
127	11
128	16
129	462
130	105
140	11
141	8
142	470
143	36
144	11
152	8
153	4
154	44
155	8
156	6
157	7
158	4
160	1
168	7
169	0
170	3
171	1
172	1
173	2
174	0
182	13
183	5
184	4
185	3
186	8
187	0
188	7
189	0
195	4
196	4
197	1
198	0
200	2
202	1
212	2
213	1
214	7
215	1
216	1
217	12
218	1
224	3
225	0
226	0
227	6
228	3
244	1
245	1
246	11
247	1
256	22
257	3
260	1
286	0
287	4
288	1
289	0
303	0
318	0
319	1
320	0
