Mass Spectrum: .alpha.-D-Galactopyranoside, methyl 2-(acetylmethylamino)-2-deoxy-3,4,6-tri-O-methyl-
Formula: C13H25NO6
CAS: 36668-35-6
Molecular weight: 291
m/z	intensity
41	108
42	197
43	323
44	60
45	452
46	10
47	17
53	20
54	10
55	40
56	156
57	40
58	20
59	45
60	5
61	7
67	5
68	40
69	17
70	42
71	166
72	315
73	40
74	50
75	166
76	5
80	5
81	10
82	20
83	12
84	17
85	45
86	40
87	999
88	176
89	20
94	32
95	12
96	12
97	17
98	156
99	35
100	116
101	136
102	63
103	5
110	10
111	20
112	25
113	5
114	12
115	35
116	20
117	169
118	12
124	10
125	5
126	60
127	15
128	27
129	560
130	70
131	5
140	5
141	15
142	449
143	40
144	12
152	8
153	1
154	29
155	8
156	8
157	11
158	23
159	4
160	4
167	0
168	8
169	1
170	2
171	0
172	14
173	6
174	3
182	10
183	1
184	4
185	2
186	20
187	7
188	18
189	1
190	1
195	0
196	6
197	1
198	1
199	5
200	4
201	0
202	1
214	2
216	3
217	19
218	17
219	2
228	34
229	4
230	0
244	0
246	0
259	2
260	5
261	1
276	1
291	4
292	2
