Mass Spectrum: 4-Hepten-2-one, (E)-
Formula: C7H12O
CAS: 36678-43-0
Molecular weight: 112
m/z	intensity
41	330
43	999
53	20
55	40
68	20
69	70
77	4
83	6
94	20
97	10
112	50
