Mass Spectrum: 1-Butyne, 4-methoxy-
Formula: C5H8O
CAS: 36678-08-7
Molecular weight: 84
m/z	intensity
24	0
25	5
26	37
27	208
28	51
29	333
30	13
31	22
33	1
36	3
37	34
38	66
39	182
40	18
41	41
42	5
43	227
44	12
45	999
46	31
47	2
48	1
49	15
50	89
51	96
52	66
53	159
54	234
55	65
56	9
58	2
65	0
66	2
67	1
68	11
69	48
70	1
81	0
83	105
84	5
