Mass Spectrum: Bicyclo(6.1.0)nonane-9,9-dicarboxylic acid
Formula: C11H16O4
CAS: 3667-55-8
Molecular weight: 212
m/z	intensity
15	4
16	1
17	1
18	4
26	7
27	112
28	44
29	76
30	16
31	1
37	2
38	9
39	224
40	38
41	374
42	41
43	78
44	275
45	13
46	12
50	13
51	41
52	27
53	129
54	188
55	352
56	148
57	22
58	8
59	595
60	68
61	3
62	4
63	10
64	3
65	65
66	52
67	738
68	134
69	133
70	24
71	33
72	999
73	132
74	9
75	2
76	1
77	72
78	23
79	234
80	103
81	279
82	131
83	39
84	32
85	409
86	100
87	10
88	1
89	1
91	44
92	23
93	73
94	295
95	202
96	99
97	28
98	190
99	64
100	6
102	1
103	3
104	1
105	8
106	20
107	56
108	99
109	794
110	279
111	78
112	231
113	16
114	1
117	6
118	6
119	3
120	12
121	21
122	5
123	2
124	199
125	210
126	21
127	1
134	20
135	31
136	120
137	20
138	153
139	13
140	1
152	41
153	967
154	193
155	16
156	1
194	1
