Mass Spectrum: Cycloundecanecarboxylic acid, methyl ester
Formula: C13H24O2
CAS: 3667-69-4
Molecular weight: 212
m/z	intensity
23	19
24	19
25	10
27	265
29	269
31	18
39	234
40	9
41	680
42	113
43	138
45	32
51	18
52	9
53	104
54	121
55	748
56	100
57	85
58	8
59	158
65	28
66	17
67	250
68	104
69	294
70	56
71	57
72	14
73	36
74	313
75	66
77	22
79	61
80	31
81	224
82	158
83	290
84	238
85	46
87	999
88	128
89	10
91	18
93	24
94	55
95	176
96	378
97	305
98	287
99	34
100	86
101	134
102	18
107	16
108	34
109	114
110	122
111	107
112	49
113	262
114	62
115	61
116	28
119	32
120	18
121	14
122	16
123	99
124	89
125	52
126	12
127	66
128	37
129	55
130	176
131	15
133	36
134	17
136	68
137	83
138	181
139	65
141	62
142	16
143	36
144	17
147	15
151	65
152	35
153	33
155	41
156	19
157	11
162	105
163	19
169	59
170	13
180	184
181	88
183	10
212	64
213	16
