Mass Spectrum: 2-Butanone, 3-methoxy-3-methyl-
Formula: C6H12O2
CAS: 36687-98-6
Molecular weight: 116
m/z	intensity
39	124
41	162
42	84
43	605
45	85
55	32
57	69
59	16
73	999
85	12
87	2
101	15
116	1
