Mass Spectrum: 2-Butanone, 3-ethoxy-3-methyl-
Formula: C7H14O2
CAS: 36687-99-7
Molecular weight: 130
m/z	intensity
39	50
41	92
42	38
43	290
45	18
55	5
57	37
59	999
73	2
85	14
87	282
101	1
115	2
