Mass Spectrum: 2,2'-Bis(2-oxazoline)
Formula: C6H8N2O2
CAS: 36697-72-0
Molecular weight: 140
m/z	intensity
13	3
14	25
15	223
16	3
17	1
18	3
25	2
26	25
27	71
28	430
29	37
30	10
31	4
38	9
39	20
40	115
41	114
42	999
43	56
44	16
45	6
49	1
50	1
51	9
52	23
53	22
54	89
55	27
56	160
57	18
58	3
66	16
67	5
68	6
69	13
70	121
71	8
72	3
77	2
79	13
80	31
81	6
82	11
83	56
84	13
85	115
86	6
95	5
96	9
97	19
98	8
108	1
109	8
110	257
111	55
112	12
113	51
114	3
138	2
139	144
140	786
141	65
142	6
