Mass Spectrum: Isopropyl-.beta.-D-thiogalactopyranoside
Formula: C9H18O5S
CAS: 367-93-1
Molecular weight: 238
m/z	intensity
14	1
15	22
17	6
18	19
19	2
26	6
27	99
28	37
29	92
30	9
31	138
32	3
33	1
34	3
35	7
37	1
38	3
39	54
40	9
41	213
42	50
43	512
44	35
45	215
46	13
47	75
48	9
49	8
50	1
51	2
52	1
53	27
54	8
55	72
56	62
57	376
58	27
59	87
60	375
61	328
62	9
63	218
64	4
65	10
67	2
68	6
69	188
70	39
71	144
72	37
73	999
74	110
75	63
76	103
77	57
78	7
79	4
80	2
81	39
82	4
83	20
84	6
85	488
86	37
87	114
88	15
89	67
90	11
91	945
92	36
93	9
94	1
95	1
96	2
97	173
98	39
99	65
100	5
101	104
102	15
103	135
104	9
105	120
106	7
107	6
108	1
109	29
110	3
111	2
113	7
114	3
115	81
116	13
117	20
118	26
119	14
120	2
121	1
125	1
126	5
127	166
128	35
129	11
130	2
131	9
132	4
133	11
134	1
135	1
141	1
142	1
143	2
144	124
145	329
146	34
147	101
148	11
149	16
150	1
151	2
159	2
160	1
161	14
162	68
163	110
164	9
165	8
173	1
176	4
177	4
178	2
180	4
189	7
191	1
194	18
195	61
196	5
197	3
202	2
205	1
207	1
220	72
221	8
222	4
223	1
238	15
239	2
240	1
