Mass Spectrum: N-Benzoyl derivative of o-fluoroaniline
Formula: C13H10FNO
CAS: 367-97-5
Molecular weight: 215
m/z	intensity
37	7
38	17
39	38
49	7
50	98
51	299
52	28
53	7
56	7
57	91
58	7
61	7
62	7
63	28
64	7
65	7
69	7
74	28
75	38
76	38
77	689
78	48
81	17
82	17
83	149
84	7
89	7
90	7
105	999
106	88
107	7
109	10
110	28
111	7
185	7
215	327
216	48
