Mass Spectrum: Benzene, (1,3-butadienylthio)-, (E)-
Formula: C10H10S
CAS: 36715-51-2
Molecular weight: 162
m/z	intensity
26	17
27	185
28	0
33	2
34	0
37	8
38	22
39	134
41	35
42	1
45	190
46	4
47	7
49	6
50	82
51	219
52	36
53	96
54	3
57	13
58	53
59	21
60	4
61	4
62	9
63	26
64	5
65	92
66	56
67	7
69	63
70	5
71	25
73	4
74	18
75	12
76	10
77	100
78	74
79	9
80	3
81	12
82	17
83	12
84	220
85	999
86	63
87	47
88	1
89	9
90	4
91	44
92	3
93	2
95	1
97	3
101	1
102	11
103	10
104	1
108	15
109	52
110	31
111	4
115	50
116	13
117	36
118	3
121	53
122	4
123	2
126	1
127	32
128	143
129	291
130	33
134	22
135	24
136	3
147	27
148	2
159	2
160	4
161	108
162	498
163	66
164	26
