Mass Spectrum: Furan, 3-butyltetrahydro-2-methyl-, trans-
Formula: C9H18O
CAS: 36712-20-6
Molecular weight: 142
m/z	intensity
41	630
42	520
43	450
45	160
53	10
54	50
55	890
56	999
57	240
58	10
67	20
68	70
69	400
70	920
71	40
83	50
85	100
96	10
97	10
98	110
127	320
139	10
140	10
141	10
