Mass Spectrum: Propanoic acid, 2,3-dibromo-2-methyl-, methyl ester
Formula: C5H8Br2O2
CAS: 3673-79-8
Molecular weight: 258
m/z	intensity
34	1
37	66
39	767
41	999
42	57
43	33
44	7
45	31
47	1
49	2
50	4
51	3
53	32
54	8
55	50
56	10
57	56
59	585
61	3
63	1
64	1
65	1
66	1
67	4
69	156
70	9
71	17
72	14
73	1
74	1
75	1
76	1
79	27
80	14
81	27
82	14
83	2
85	6
86	1
91	2
93	28
94	6
95	27
96	4
97	2
99	59
100	11
101	1
102	1
103	1
104	2
105	6
106	3
107	9
108	2
109	4
110	1
111	1
115	1
116	1
117	2
119	111
120	98
121	109
122	92
123	12
125	8
126	1
127	1
131	1
133	2
135	4
136	1
137	5
139	6
140	1
141	2
142	1
147	13
149	13
151	114
153	111
154	5
155	1
158	1
160	1
161	1
162	1
163	1
165	1
167	1
171	1
173	2
175	1
179	242
181	236
182	14
183	1
184	1
185	1
186	1
187	1
188	1
199	19
201	37
202	3
203	18
204	1
211	1
213	1
215	1
217	1
227	2
229	3
231	2
232	1
258	1
259	1
260	1
261	1
262	1
263	1
