Mass Spectrum: Cyclohexanamine, N,N'-1,2-ethanediylidenebis-
Formula: C14H24N2
CAS: 3673-06-1
Molecular weight: 220
m/z	intensity
26	60
28	179
29	216
30	75
31	6
32	3
36	3
37	6
38	10
39	227
40	55
41	853
42	121
43	93
44	15
45	1
48	0
49	2
50	13
51	26
52	31
53	121
54	185
55	999
56	157
57	45
58	5
59	1
60	0
61	1
62	3
63	4
64	3
65	28
66	19
67	164
68	125
69	141
70	23
71	6
74	1
75	1
76	2
77	27
78	13
79	43
80	60
81	141
82	886
83	740
84	53
85	2
86	1
87	1
88	0
89	2
90	3
91	7
92	10
93	71
94	52
95	608
96	218
97	48
98	25
99	9
103	3
104	1
105	3
106	11
107	38
108	39
109	142
110	106
111	46
112	11
113	1
117	3
118	11
119	11
120	23
121	66
122	74
123	37
124	23
125	2
131	1
132	1
133	8
134	7
135	21
136	14
137	232
138	72
139	151
140	14
141	0
142	3
143	3
144	3
145	1
147	2
148	13
149	97
150	17
151	15
152	2
153	0
160	11
161	3
162	2
163	18
164	128
165	24
166	2
169	0
173	1
174	1
175	3
176	2
177	750
178	117
179	10
180	0
188	0
190	1
191	81
192	21
193	3
199	0
200	1
203	0
204	1
205	5
219	25
220	77
221	17
222	1
