Mass Spectrum: 2H-Pyran-2,2-dicarboxylic acid, 3,6-dihydro-6-methyl-, diethyl ester
Formula: C12H18O5
CAS: 36749-08-3
Molecular weight: 242
m/z	intensity
30	140
31	170
65	40
66	40
67	326
68	281
69	129
71	40
74	62
94	31
95	999
96	40
97	49
123	174
125	49
126	138
127	35
139	40
140	40
141	82
150	107
151	67
153	62
154	429
155	60
168	33
169	398
170	40
242	31
