Mass Spectrum: D-Glucopyranoside, methyl 2-(acetylmethylamino)-2-deoxy-3,4,6-tri-O-methyl-
Formula: C13H25NO6
CAS: 36757-11-6
Molecular weight: 291
m/z	intensity
41	121
42	252
43	316
44	69
45	443
46	5
47	9
52	29
53	17
54	44
55	193
56	37
57	34
58	66
60	5
61	5
67	7
68	44
69	17
70	39
71	185
72	316
73	49
74	47
75	242
76	7
80	7
81	12
82	19
83	12
84	19
85	37
86	44
87	999
88	381
89	29
94	29
95	14
96	14
97	14
98	297
99	37
100	193
101	173
102	86
103	9
110	12
111	14
112	19
113	7
114	7
115	19
116	14
117	121
118	9
124	9
125	5
126	59
127	14
128	19
129	500
130	86
131	5
140	5
141	9
142	559
143	59
144	7
152	8
153	0
154	30
155	17
156	11
157	21
158	15
159	0
160	0
167	0
168	8
169	1
170	1
171	0
172	13
173	4
174	3
182	15
183	2
184	5
185	3
186	29
187	2
188	14
189	1
190	0
195	0
196	4
197	0
198	1
199	13
200	4
201	0
202	0
214	6
216	2
217	40
218	16
219	1
228	39
229	5
230	1
244	1
246	2
259	2
260	3
261	1
276	1
291	2
292	1
