Mass Spectrum: 2,6,10-Dodecatrienoic acid, 3,7,11-trimethyl-, methyl ester, (E,E)-
Formula: C16H26O2
CAS: 3675-00-1
Molecular weight: 250
m/z	intensity
41	390
42	20
43	30
44	10
53	80
54	20
55	80
59	30
67	60
68	40
69	999
70	50
79	40
81	190
82	100
83	50
91	20
93	50
95	40
105	20
107	30
109	40
114	290
115	20
121	130
122	20
123	50
136	70
137	60
207	30
219	20
250	20
