Mass Spectrum: Androstan-12-one, (5.alpha.)-
Formula: C19H30O
CAS: 3676-09-3
Molecular weight: 274
m/z	intensity
37	7
38	14
39	267
40	161
41	999
42	91
43	288
44	63
45	28
50	14
51	28
52	21
53	274
54	119
55	633
56	42
57	49
63	14
64	7
65	91
66	56
67	704
68	147
69	169
70	14
71	21
73	7
74	14
75	7
76	7
77	176
78	42
79	352
80	105
81	535
82	133
83	98
84	21
85	14
89	7
90	7
91	190
92	42
93	295
94	98
95	295
96	112
97	42
98	7
102	7
103	14
104	14
105	98
106	63
107	154
108	204
109	288
110	161
111	77
112	7
115	21
116	7
117	28
118	14
119	49
120	42
121	161
122	112
123	49
124	28
125	7
128	7
129	7
130	7
131	70
132	21
133	56
134	77
135	112
136	28
137	21
143	7
144	7
145	28
146	147
147	197
148	119
149	140
150	28
151	14
159	21
160	35
161	35
162	14
163	28
164	28
165	14
166	7
171	7
173	21
174	14
175	21
176	7
177	14
178	7
179	7
185	7
187	14
188	7
189	14
190	7
191	7
199	14
200	7
201	14
202	7
203	7
213	7
214	7
215	147
216	35
217	14
219	42
220	7
227	7
228	7
229	7
230	98
231	21
232	7
233	42
234	7
241	112
242	28
243	7
246	7
256	190
257	35
258	7
259	70
260	14
274	225
275	42
276	7
