Mass Spectrum: Carbonothioic acid, O-(1,1-dimethylethyl) S-phenyl ester
Formula: C11H14O2S
CAS: 36760-43-7
Molecular weight: 210
m/z	intensity
15	1
27	15
29	64
37	1
38	7
39	81
40	11
41	203
42	13
43	34
44	15
45	17
50	18
51	31
52	2
53	5
55	17
56	19
57	999
58	52
59	4
62	3
63	11
64	2
65	97
66	23
69	37
70	2
71	3
74	4
75	4
76	3
77	29
78	3
81	5
82	11
83	7
84	10
108	18
109	248
110	204
111	27
112	10
137	69
138	7
139	3
