Mass Spectrum: Diphosphine, tetramethyl-, 1,2-disulfide
Formula: C4H12P2S2
CAS: 3676-97-9
Molecular weight: 186
m/z	intensity
15	3
27	5
28	28
29	2
31	1
32	11
33	2
34	2
35	2
41	2
44	13
45	65
46	11
47	21
48	4
49	44
50	1
51	9
56	4
57	28
58	8
59	43
60	3
61	48
62	8
63	89
64	6
65	175
66	1
67	7
73	1
75	24
76	7
77	46
78	46
79	44
80	3
81	4
83	1
84	26
86	17
87	1
88	3
91	1
92	5
93	999
94	92
95	48
96	6
107	12
108	5
109	4
110	1
111	2
122	5
124	4
125	14
126	9
127	2
128	1
139	38
140	5
141	2
142	1
153	16
154	8
155	1
157	2
169	2
171	314
172	15
173	27
174	1
186	639
187	38
188	56
189	3
190	1
