Mass Spectrum: Mercury, chloro[(17.beta.)-17-hydroxy-3-oxoandrosta-1,4,6-trien-2-yl]-
Formula: C19H23ClHgO2
CAS: 36794-30-6
Molecular weight: 520
m/z	intensity
107	999
121	370
128	460
129	320
133	810
134	590
145	380
149	380
150	310
151	810
158	300
159	330
171	790
202	370
283	490
284	480
370	90
485	140
520	70
