Mass Spectrum: 7,7,9,9-Tetramethyl-1,4-dioxa-8-aza-spiro[4.5]decane
Formula: C11H21NO2
CAS: 36793-27-8
Molecular weight: 199
m/z	intensity
26	3
27	30
28	24
29	47
30	22
31	4
33	2
38	1
39	45
40	12
41	102
42	249
43	79
44	7
45	14
50	1
51	4
52	4
53	21
54	11
55	102
56	60
57	72
58	221
59	11
60	2
61	2
63	1
64	2
65	6
66	4
67	19
68	8
69	11
70	35
71	36
72	7
73	5
74	1
75	1
77	6
78	2
79	9
80	6
81	17
82	20
83	66
84	22
85	4
86	71
87	140
88	10
89	1
91	2
92	2
93	4
94	7
95	5
96	24
97	23
98	999
99	115
100	5
104	1
105	1
106	2
107	4
108	10
109	3
110	3
111	10
112	41
113	55
114	12
115	1
121	2
122	6
123	2
124	42
125	5
126	7
127	53
128	8
129	3
136	1
137	1
138	8
139	2
140	23
141	6
142	3
143	1
149	3
152	3
153	1
154	13
155	3
156	7
157	1
158	1
168	8
169	4
170	1
182	2
183	3
184	556
185	87
186	7
187	1
198	1
199	11
200	3
201	1
