Mass Spectrum: 11-Oxadispiro[4.0.4.1]undecan-1-one
Formula: C10H14O2
CAS: 36803-49-3
Molecular weight: 166
m/z	intensity
26	133
27	579
28	277
29	173
30	9
31	19
37	19
38	58
39	588
40	263
41	613
42	999
43	349
44	21
45	20
50	42
51	91
52	57
53	262
54	197
55	901
56	89
57	119
58	15
61	11
62	17
63	37
64	18
65	126
66	266
67	823
68	538
69	195
70	498
71	67
77	149
78	40
79	162
80	52
81	153
82	174
83	162
84	76
85	28
91	176
92	82
93	306
94	145
95	706
96	621
97	270
98	125
99	284
100	138
101	11
105	59
106	41
107	31
108	16
109	377
110	885
111	205
112	23
119	18
120	60
121	35
122	10
123	65
124	26
125	72
126	10
133	15
136	16
137	399
138	289
139	33
147	21
148	35
149	38
150	12
151	19
152	9
165	16
166	822
167	118
168	12
