Mass Spectrum: 2,3-Dihydrooxazole, 2-t-butyl-4-(1-hydroxy-1-methylethyl)-3-methoxycarbonyl-5-methyl-
Formula: C6H10O
CAS: 36808-01-2
Molecular weight: 98
m/z	intensity
26	20
27	118
28	14
29	95
30	3
31	5
37	7
38	17
39	145
40	14
41	93
42	20
43	999
44	29
45	24
49	5
50	28
51	36
52	18
53	78
54	37
55	210
56	25
57	7
58	4
61	2
62	3
63	4
65	9
66	3
67	10
68	2
69	41
70	7
71	14
72	1
77	16
78	4
79	39
80	17
81	11
82	5
83	121
84	7
95	5
96	6
97	8
98	172
99	13
