Mass Spectrum: Spiro[4.5]decane-1,6-dione
Formula: C10H14O2
CAS: 36803-48-2
Molecular weight: 166
m/z	intensity
25	2
26	86
27	374
28	50
29	203
30	6
31	24
33	6
34	12
35	3
37	17
38	57
39	485
40	225
41	518
42	174
43	228
44	19
45	26
46	11
47	18
48	29
49	7
50	53
51	137
52	101
53	255
54	198
55	637
56	100
57	59
58	9
59	6
60	12
61	11
62	28
63	56
64	22
65	152
66	222
67	547
68	221
69	203
70	55
71	23
72	6
73	8
74	10
75	10
76	8
77	182
78	61
79	202
80	73
81	225
82	170
83	199
84	119
85	16
86	10
87	8
88	10
89	12
90	11
91	181
92	116
93	186
94	109
95	489
96	238
97	229
98	38
99	9
100	8
101	4
102	8
103	12
104	18
105	44
106	27
107	46
108	26
109	210
110	999
111	948
112	132
113	14
117	10
118	7
119	34
120	149
121	206
122	102
123	103
124	63
125	58
126	9
127	4
128	4
129	6
130	10
131	7
132	12
133	24
134	7
135	10
136	16
137	163
138	397
139	70
140	7
146	4
147	20
148	175
149	61
150	14
151	54
152	8
153	3
164	4
165	12
166	591
167	153
168	16
169	3
