Mass Spectrum: (E)-3,7-Dimethylocta-2,6-dien-1-yl palmitate
Formula: C26H48O2
CAS: 3681-73-0
Molecular weight: 392
m/z	intensity
26	1
27	20
28	6
29	49
30	1
38	2
39	41
40	15
41	406
42	49
43	293
44	10
45	2
50	2
51	8
52	5
53	58
54	15
55	161
56	38
57	212
58	12
59	6
60	10
61	2
62	1
63	2
64	1
65	15
66	6
67	165
68	529
69	999
70	81
71	117
72	8
73	15
74	1
75	1
77	24
78	5
79	44
80	432
81	173
82	27
83	47
84	22
85	60
86	5
87	4
88	1
89	1
91	29
92	181
93	595
94	126
95	71
96	13
97	27
98	11
99	9
100	1
101	2
102	1
103	2
104	3
105	13
106	4
107	94
108	35
109	27
110	8
111	17
112	5
113	4
114	1
115	4
116	1
117	2
119	9
120	3
121	386
122	40
123	61
124	9
125	7
126	1
127	1
128	1
129	3
130	1
131	1
133	2
134	3
135	11
136	249
137	52
138	7
139	12
140	1
141	2
143	2
144	1
147	2
151	1
152	1
153	4
154	33
155	6
156	1
157	1
161	1
163	1
165	1
166	1
167	1
171	1
173	1
175	1
179	1
180	1
181	1
191	1
195	1
204	1
209	1
213	1
219	1
221	1
222	1
236	1
237	2
239	26
240	4
241	1
249	1
253	1
254	1
255	1
256	2
257	3
263	1
265	1
271	1
282	1
323	4
324	1
349	1
392	1
393	1
