Mass Spectrum: Dodecanoic acid, propyl ester
Formula: C15H30O2
CAS: 3681-78-5
Molecular weight: 242
m/z	intensity
26	13
27	223
28	62
29	303
30	14
31	43
38	5
39	115
40	32
41	668
42	261
43	858
44	32
45	25
50	0
51	2
52	0
53	31
54	34
55	406
56	101
57	330
58	26
59	45
60	456
61	999
62	26
63	6
65	2
66	3
67	48
68	29
69	161
70	52
71	132
72	12
73	356
74	36
75	12
77	3
79	13
80	4
81	43
82	18
83	127
84	62
85	83
86	5
87	88
88	7
89	21
91	4
93	11
94	3
95	46
96	16
97	76
98	57
99	17
101	38
102	188
103	53
105	1
107	6
108	0
109	28
110	9
111	23
112	8
113	1
115	155
116	12
117	9
121	6
123	9
125	7
126	0
129	75
130	7
131	0
135	1
137	0
138	5
139	8
140	0
143	36
144	5
157	62
158	6
163	12
171	68
172	9
177	0
180	0
181	6
183	226
184	31
185	14
186	1
199	36
200	40
201	269
202	35
213	11
242	19
243	1
