Mass Spectrum: 4-(2-Methoxyethoxy)benzaldehyde
Formula: C10H12O3
CAS: 36824-00-7
Molecular weight: 180
m/z	intensity
28	48
29	328
30	3
33	28
36	4
37	55
38	73
39	191
40	29
41	67
42	44
43	349
45	828
46	28
47	2
49	12
50	198
51	262
52	26
53	63
54	6
55	23
56	1
58	482
59	999
60	17
61	36
62	76
63	169
64	82
65	285
66	38
67	7
69	4
71	5
72	1
73	12
74	80
75	54
76	109
77	215
78	26
79	50
80	2
81	29
82	3
83	2
84	1
85	2
86	1
89	8
91	56
92	57
93	75
94	16
95	9
96	2
97	3
103	12
104	51
105	151
106	20
107	47
108	6
109	13
110	20
111	3
119	22
120	20
121	353
122	63
123	32
124	3
133	7
134	8
135	78
136	10
137	49
138	6
147	12
148	4
149	5
150	2
151	17
152	6
163	4
164	1
165	13
166	1
179	17
180	390
181	54
182	5
