Mass Spectrum: 11b-Acetoxy-5-hydroxy-12-oxa-6b-phenylbenzo[4,5]indano[2,1-a]indan-7-one
Formula: C27H18O5
CAS: 36828-00-9
Molecular weight: 422
m/z	intensity
39	61
40	18
41	46
43	999
44	34
45	11
50	134
51	68
52	9
53	9
55	12
62	24
63	34
64	10
65	13
74	50
76	463
77	212
78	19
81	9
87	21
88	23
89	32
90	9
91	9
94	9
98	10
99	9
101	29
102	18
104	329
105	205
106	20
111	9
113	41
114	29
115	35
118	14
119	9
125	23
127	11
129	9
131	58
133	29
137	43
139	22
146	12
149	25
150	14
151	14
152	28
159	12
163	49
165	97
166	15
176	25
177	9
178	10
187	61
189	226
190	40
191	25
193	15
194	35
200	25
201	29
202	44
203	15
217	38
222	25
229	10
231	15
235	8
237	8
239	9
247	64
248	9
250	9
252	15
261	10
263	46
264	12
265	38
266	8
273	9
274	17
275	31
276	85
277	42
278	19
289	32
292	11
293	8
303	9
305	72
306	19
307	14
317	9
318	9
321	17
333	45
334	40
335	20
336	9
376	53
378	48
380	592
381	137
422	70
423	17
