Mass Spectrum: Pentanoic acid, 4-methyl-2-oxo-, methyl ester
Formula: C7H12O3
CAS: 3682-43-7
Molecular weight: 144
m/z	intensity
14	6
15	127
16	3
25	1
26	11
27	133
28	29
29	304
30	14
31	7
32	1
33	3
37	6
38	16
39	194
40	32
41	598
42	158
43	290
44	16
45	15
49	1
50	7
51	8
52	3
53	16
54	4
55	45
56	26
57	999
58	46
59	174
60	8
61	4
65	1
66	1
67	3
68	2
69	74
70	4
71	4
73	4
74	7
83	24
84	11
85	777
86	44
87	4
88	1
97	1
101	2
102	22
103	2
129	2
144	55
145	4
