Mass Spectrum: 2-Nitroso-1-naphthol-4-sulfonic acid
Formula: C10H7NO5S
CAS: 3682-32-4
Molecular weight: 253
m/z	intensity
12	3
14	2
15	2
16	16
17	5
18	16
24	5
25	2
26	11
27	17
28	87
29	5
30	15
32	44
33	1
34	3
36	4
37	33
38	52
39	94
40	16
41	14
42	4
43	8
44	76
45	7
48	468
49	25
50	310
51	98
52	41
53	18
54	3
55	5
56	2
57	8
58	10
59	4
60	7
61	41
62	81
63	123
64	999
65	21
66	50
67	5
68	52
69	25
70	3
71	10
72	9
73	24
74	144
75	144
76	447
77	108
78	19
79	3
80	53
81	18
82	7
83	2
84	3
85	10
86	22
87	42
88	92
89	171
90	43
91	7
92	6
93	5
94	3
95	2
96	2
97	5
98	28
99	57
100	137
101	99
102	53
103	27
104	399
105	236
106	26
107	2
108	9
109	3
110	3
111	4
112	7
113	37
114	96
115	107
116	40
117	41
118	14
119	2
120	5
121	5
122	3
123	5
124	3
125	2
126	37
127	849
128	117
129	62
130	32
131	13
132	8
133	8
134	4
135	22
136	3
137	2
138	1
140	1
141	5
142	54
143	137
144	27
145	61
146	160
147	20
148	16
149	9
150	2
151	1
152	1
153	1
154	38
155	454
156	57
157	16
158	7
159	9
160	2
161	7
162	5
163	1
164	1
165	1
166	1
167	1
169	1
170	7
171	655
172	336
173	559
174	79
175	9
176	1
184	1
187	3
188	8
189	129
190	24
191	3
195	1
201	1
205	1
207	23
208	3
209	2
210	1
211	2
214	1
216	1
221	1
222	3
223	28
224	7
225	7
226	2
227	1
229	1
235	331
236	94
237	30
238	4
239	2
251	1
252	4
253	226
254	28
255	15
256	3
