Mass Spectrum: cis-4-Hydroxycyclohexanecarboxylic acid
Formula: C7H12O3
CAS: 3685-22-1
Molecular weight: 144
m/z	intensity
15	13
26	34
27	292
28	97
29	271
30	5
31	78
35	6
36	50
37	15
38	64
39	555
40	86
41	674
42	601
43	330
44	351
45	189
46	5
47	14
50	59
51	92
52	48
53	212
54	665
55	816
56	143
57	350
58	16
60	359
61	8
63	16
65	57
66	44
67	999
68	114
69	201
70	868
71	75
73	793
74	28
77	71
78	23
79	185
80	246
81	361
82	307
83	149
84	44
85	6
86	18
87	19
88	587
89	20
97	165
98	610
99	31
101	25
108	225
109	24
111	18
116	189
117	3
125	14
126	984
127	75
128	9
