Mass Spectrum: Propane, 1-chloro-3-ethoxy-
Formula: C5H11ClO
CAS: 36865-38-0
Molecular weight: 122
m/z	intensity
24	0
25	0
26	62
27	406
29	145
30	13
31	999
33	3
35	1
36	2
37	7
38	16
39	155
40	28
41	803
42	38
43	60
44	18
45	205
46	4
47	11
48	2
49	79
50	2
51	24
52	0
53	1
54	0
55	5
56	2
57	70
58	43
59	999
60	77
61	10
62	8
63	19
64	3
65	8
66	0
67	1
69	0
71	15
72	1
73	1
74	0
75	9
76	44
77	202
78	19
79	58
80	2
81	0
85	0
86	3
87	1
88	0
89	6
91	2
93	35
94	1
95	11
96	0
107	45
108	2
109	14
110	0
121	5
122	202
123	13
124	61
125	3
