Mass Spectrum: Oleyl oleate
Formula: C36H68O2
CAS: 3687-45-4
Molecular weight: 532
m/z	intensity
26	2
27	37
28	11
29	120
30	3
31	2
36	1
39	35
40	8
41	425
42	81
43	532
44	18
45	4
50	1
51	2
52	1
53	34
54	267
55	999
56	203
57	562
58	25
59	6
60	9
61	4
65	9
66	43
67	559
68	362
69	966
70	215
71	276
72	15
73	29
74	3
75	1
76	1
77	12
78	9
79	82
80	109
81	618
82	816
83	951
84	178
85	180
86	11
87	18
88	2
89	1
91	21
92	9
93	62
94	84
95	568
96	834
97	780
98	205
99	63
100	12
101	40
102	5
103	2
104	3
105	13
106	6
107	45
108	64
109	362
110	427
111	405
112	83
113	41
114	27
115	42
116	8
117	4
118	2
119	18
120	9
121	121
122	83
123	282
124	342
125	212
126	48
127	51
128	11
129	42
130	6
131	5
132	2
133	23
134	18
135	93
136	80
137	219
138	245
139	121
140	35
141	27
142	7
143	31
144	4
145	4
146	2
147	24
148	15
149	57
150	72
151	130
152	181
153	87
154	30
155	27
156	7
157	26
158	4
159	3
160	1
161	15
162	7
163	38
164	56
165	103
166	138
167	70
168	36
169	28
170	7
171	21
172	5
173	4
174	1
175	10
176	4
177	23
178	47
179	75
180	108
181	62
182	26
183	20
184	7
185	24
186	7
187	3
188	1
189	7
190	3
191	14
192	21
193	58
194	78
195	41
196	17
197	13
198	6
199	22
200	5
201	2
203	4
204	2
205	10
206	15
207	45
208	58
209	29
210	14
211	10
212	5
213	15
214	3
215	1
217	2
218	3
219	9
220	75
221	56
222	105
223	33
224	13
225	9
226	5
227	10
228	2
229	1
231	2
233	5
234	22
235	25
236	19
237	20
238	12
239	10
240	4
241	7
242	1
243	1
244	4
245	21
246	22
247	47
248	344
249	106
250	577
251	127
252	23
253	9
254	5
255	3
257	1
261	6
262	219
263	92
264	302
265	338
266	86
267	40
268	8
269	4
270	1
275	2
276	5
277	9
278	11
279	80
280	86
281	32
282	35
283	161
284	33
285	14
286	2
289	2
290	3
291	7
292	6
293	13
294	21
295	12
296	9
297	5
298	1
303	1
304	2
305	5
306	4
307	14
308	20
309	9
310	6
311	3
318	2
319	4
320	4
321	11
322	19
323	10
324	4
325	2
331	1
332	3
333	4
334	4
335	11
336	18
337	8
338	3
339	2
345	1
346	4
347	5
348	4
349	11
350	21
351	9
352	3
353	2
359	1
360	3
361	3
362	3
363	12
364	24
365	9
366	2
367	2
373	1
374	2
375	3
376	3
377	17
378	36
379	13
380	3
381	2
387	1
388	2
389	3
390	3
391	19
392	53
393	18
394	4
395	2
401	1
402	2
403	3
404	3
405	24
406	71
407	24
408	5
409	2
415	1
416	1
417	2
418	2
419	24
420	67
421	23
422	5
423	2
430	1
431	2
432	1
433	22
434	52
435	17
436	4
437	2
445	1
446	1
447	16
448	36
449	12
450	3
451	1
459	1
460	1
461	12
462	23
463	8
464	2
465	1
475	9
476	14
477	5
478	1
489	6
490	8
491	3
503	6
504	3
505	1
514	2
515	1
517	1
532	427
533	185
534	40
535	6
