Mass Spectrum: Oxazole, 2,5-dihydro-5-(4-methylphenyl)-4-phenyl-
Formula: C16H15NO
CAS: 36879-73-9
Molecular weight: 237
m/z	intensity
77	200
78	120
89	60
91	140
102	170
103	240
104	170
117	340
119	999
120	100
133	110
134	619
237	160
