Mass Spectrum: N-Trifluoroacetyl-D-glucosamine
Formula: C8H12F3NO6
CAS: 36875-26-0
Molecular weight: 275
m/z	intensity
12	11
13	20
14	79
15	418
16	9
17	31
18	132
19	19
20	23
24	4
25	15
26	71
27	181
28	444
29	731
30	167
31	876
32	290
33	77
36	4
37	9
38	15
39	42
40	36
41	53
42	274
43	614
44	238
45	85
46	46
47	52
48	2
49	6
50	67
51	60
52	16
53	19
54	35
55	179
56	297
57	80
58	258
59	23
60	387
61	310
62	12
63	3
64	9
65	6
66	13
67	9
68	24
69	999
70	39
71	73
72	117
73	82
74	80
75	4
76	9
77	4
78	354
79	38
80	22
81	9
82	21
83	19
84	37
85	22
86	172
87	9
88	18
89	8
90	9
91	40
92	8
93	6
94	13
95	16
96	27
97	81
98	43
99	7
100	12
101	4
102	8
103	11
104	2
106	25
107	7
108	8
109	12
110	14
111	3
112	4
113	5
114	18
115	4
116	2
118	3
122	7
123	2
124	4
125	5
126	812
127	700
128	29
129	2
131	2
132	2
133	2
135	1
136	2
137	3
138	16
139	9
140	40
141	3
149	1
150	8
151	7
152	8
153	3
154	3
155	37
156	11
163	2
164	2
165	3
166	6
167	7
168	103
169	21
170	3
177	2
178	2
179	33
180	12
181	3
191	2
192	6
193	6
195	3
196	8
197	17
198	2
205	2
208	9
209	3
210	3
211	2
214	1
221	3
226	3
228	3
239	1
