Mass Spectrum: Decyl oleate
Formula: C28H54O2
CAS: 3687-46-5
Molecular weight: 422
m/z	intensity
15	2
25	2
27	134
29	315
30	10
31	9
37	1
39	92
41	741
42	254
43	999
44	31
45	11
50	2
51	3
53	68
54	231
55	936
56	334
57	682
58	32
59	11
60	24
61	21
65	16
67	257
68	184
69	582
70	245
71	276
72	20
73	51
74	5
75	1
77	13
79	59
80	50
81	216
82	170
83	452
84	248
85	218
86	20
87	28
88	3
89	1
91	17
93	39
94	45
95	156
96	230
97	388
98	259
99	63
100	23
101	43
102	7
103	2
104	2
105	12
106	7
107	31
108	34
109	98
110	132
111	209
112	91
113	38
114	45
115	32
116	13
117	3
119	28
120	12
121	44
122	29
123	97
124	67
125	107
126	47
127	74
128	17
129	26
130	5
131	1
133	29
134	40
135	43
136	21
137	79
138	63
139	61
140	56
141	31
142	8
143	19
144	3
145	2
146	1
147	31
148	34
149	34
150	23
151	73
152	88
153	44
154	19
155	24
156	7
157	15
158	3
159	1
161	21
162	10
163	25
164	26
165	64
166	73
167	40
168	17
169	28
170	6
171	12
172	7
173	3
175	16
176	8
177	10
178	3
179	54
180	107
181	39
182	17
183	26
184	9
185	31
186	12
187	2
189	11
190	5
191	7
192	2
193	35
194	26
195	16
196	9
197	8
198	4
199	13
200	9
201	5
202	1
203	5
204	3
205	3
206	1
207	32
208	28
209	14
210	7
211	7
212	4
213	16
214	7
215	2
217	3
218	2
220	69
221	64
222	108
223	30
224	7
225	5
226	3
227	3
233	1
235	30
236	20
237	7
238	5
239	11
240	4
241	3
242	1
245	27
246	43
247	21
248	4
249	6
250	2
251	1
252	2
253	6
254	4
255	1
264	562
265	216
266	41
267	25
268	6
269	2
278	2
279	6
280	13
281	9
282	29
283	82
284	16
285	3
296	1
297	1
309	1
323	3
325	2
326	2
333	1
338	1
339	1
340	3
354	2
420	1
422	21
423	7
424	1
