Mass Spectrum: Lanost-9(11)-en-18-oic acid, 23-(acetyloxy)-3,20-dihydroxy-, .gamma.-lactone, (3.beta.,20.xi.)-
Formula: C32H50O5
CAS: 36872-76-1
Molecular weight: 514
m/z	intensity
41	200
42	20
43	999
44	30
45	20
53	30
55	240
56	30
57	170
58	10
59	30
61	20
67	100
68	20
69	270
70	20
71	90
77	40
79	80
80	20
81	240
82	40
83	70
85	60
91	80
92	20
93	130
94	30
95	160
96	30
97	40
105	130
106	10
107	110
108	10
109	150
110	20
111	70
115	20
117	50
118	20
119	90
120	30
122	30
123	50
125	50
127	120
128	20
129	50
130	20
131	90
132	30
133	70
134	40
135	70
136	40
137	30
141	10
142	20
143	70
144	30
145	110
146	30
147	60
149	20
155	40
156	30
157	70
158	30
159	60
160	20
161	20
169	50
170	10
171	70
172	20
173	60
175	20
181	20
183	50
184	20
185	60
186	20
187	50
189	20
195	20
197	40
199	40
201	20
203	20
209	20
211	30
213	30
215	20
223	20
225	30
227	10
237	20
239	40
241	20
243	20
253	30
255	60
256	20
257	20
265	20
267	40
269	20
271	70
272	30
273	20
279	20
281	30
283	60
284	30
285	40
293	20
295	20
297	70
298	20
299	40
300	20
309	20
311	30
314	20
315	20
325	60
326	30
327	20
337	10
339	10
341	10
342	10
343	10
351	10
353	10
365	20
367	20
375	30
377	30
393	60
395	260
396	90
409	50
410	30
411	30
419	20
421	100
422	40
437	20
439	90
440	40
454	50
455	50
456	30
481	30
496	30
499	50
512	50
514	250
515	100
