Mass Spectrum: Butanoic acid, 4-(dimethylamino)-3-hydroxy-
Formula: C6H13NO3
CAS: 3688-46-8
Molecular weight: 147
m/z	intensity
29	214
30	24
31	70
33	30
42	73
43	30
44	73
45	24
56	15
57	30
58	999
59	52
88	55
147	42
