Mass Spectrum: Pyridinium, 3-mercapto-1-methyl-, hydroxide, inner salt
Formula: C6H7NS
CAS: 36880-58-7
Molecular weight: 125
m/z	intensity
50	70
51	150
52	80
53	20
57	50
65	40
66	30
67	20
69	30
79	100
80	120
81	80
82	50
83	120
84	40
92	100
93	10
94	10
97	30
109	10
110	200
111	80
112	10
124	70
125	999
126	80
127	40
