Mass Spectrum: D-Streptamine, O-6-amino-6-deoxy-.alpha.-D-glucopyranosyl-(1-4)-O-(3-deoxy-4-C-methyl-3-(methylamino)-.beta.-L-arabinopyranosyl-(1-6))-2-deoxy-
Formula: C19H38N4O10
CAS: 36889-15-3
Molecular weight: 482
m/z	intensity
41	262
42	585
43	999
44	934
45	202
46	58
47	11
48	7
49	9
50	46
51	85
52	103
53	128
54	118
55	192
56	251
57	201
58	352
59	331
60	159
61	40
62	22
63	44
64	40
65	89
66	113
67	117
68	311
69	127
70	204
71	354
72	385
73	490
74	267
75	43
76	26
77	78
78	52
79	90
80	176
81	101
82	168
83	126
84	350
85	153
86	306
87	165
88	93
89	32
90	21
91	49
92	68
93	204
94	160
95	99
96	94
97	80
98	97
99	53
100	224
101	114
102	125
103	24
104	38
105	17
106	88
107	42
108	106
109	219
110	170
111	84
112	100
113	63
114	48
115	27
116	16
117	22
118	466
119	41
120	26
121	22
122	27
123	36
124	51
125	75
126	94
127	41
128	33
129	24
130	143
131	34
132	20
133	19
134	18
135	15
136	13
137	14
138	18
139	19
140	17
141	31
142	38
143	16
144	45
145	125
146	63
147	21
148	17
149	19
150	9
151	9
152	8
153	6
154	7
155	10
156	6
157	7
158	18
159	23
160	98
161	20
162	48
163	103
164	14
165	6
166	4
167	4
168	5
169	7
170	7
171	6
172	7
173	17
174	8
175	10
176	16
177	7
178	13
179	2
180	5
181	4
183	4
184	4
185	5
186	9
187	8
188	6
189	6
190	4
191	145
192	15
193	4
199	4
200	2
201	4
202	4
203	4
204	18
205	17
206	2
215	2
217	5
219	2
221	2
230	2
231	2
233	2
245	6
246	34
247	6
264	4
275	2
289	2
291	4
304	3
306	2
322	4
352	3
