Mass Spectrum: Benzenepentanal
Formula: C11H14O
CAS: 36884-28-3
Molecular weight: 162
m/z	intensity
26	3
27	38
28	8
29	30
30	0
31	3
37	2
38	7
39	84
40	7
41	43
42	7
43	50
44	3
45	2
49	0
50	26
51	77
52	19
53	13
54	3
55	15
56	4
57	37
58	3
61	3
62	10
63	39
64	13
65	136
66	17
67	3
68	1
69	2
70	7
71	52
72	2
73	2
74	8
75	11
76	9
77	110
78	84
79	44
80	6
81	2
83	5
84	18
85	2
86	3
87	3
88	3
89	36
90	20
91	999
92	375
93	32
94	2
101	2
102	12
103	47
104	121
105	154
106	36
107	5
108	4
109	1
115	41
116	37
117	193
118	247
119	37
120	38
121	5
127	5
128	16
129	154
130	19
131	25
132	8
133	56
134	16
135	1
141	1
142	3
143	45
144	131
145	15
146	8
147	1
148	1
160	5
161	5
162	364
163	45
164	3
