Mass Spectrum: Diimidazo[1,5-b:1',5'-e][1,4,2,5]dioxadiazine, 3,3a,8,8a-tetrahydro-1,3,3,3a,6,8,8,8a-octamethyl-
Formula: C14H24N4O2
CAS: 36896-12-5
Molecular weight: 280
m/z	intensity
39	250
41	460
42	540
53	180
69	999
82	110
83	140
98	140
99	820
100	710
125	140
140	360
141	290
280	110
