Mass Spectrum: Chlormidazole
Formula: C15H13ClN2
CAS: 3689-76-7
Molecular weight: 256
m/z	intensity
26	1
27	4
28	3
36	1
37	2
38	6
39	25
40	3
41	3
42	6
49	1
50	22
51	35
52	9
53	2
54	1
59	3
61	3
62	14
63	55
64	24
65	12
66	2
72	18
73	9
74	8
75	29
76	30
77	53
78	9
79	1
84	1
85	2
86	2
87	4
88	5
89	128
90	87
91	12
92	8
93	1
96	1
97	2
98	1
99	40
100	3
101	16
102	17
103	9
104	5
105	2
108	1
109	2
110	12
111	7
112	2
113	4
114	3
115	3
116	3
117	3
118	2
119	2
123	3
125	999
126	83
127	326
128	38
129	8
130	3
131	9
132	3
137	2
138	2
139	2
140	2
141	1
142	1
143	10
144	2
145	9
146	1
149	1
150	6
151	12
152	17
153	4
154	1
163	1
164	1
165	1
176	1
177	5
178	8
179	5
180	2
181	1
186	1
187	1
188	1
190	1
191	1
205	2
206	2
212	1
213	1
214	3
215	1
216	1
217	1
218	2
219	7
220	4
221	4
222	1
253	3
254	1
255	5
256	259
257	46
258	87
259	14
260	1
