Mass Spectrum: 1,3-Cyclopentanedione, 4-hydroxy-5-(3-methylbutyl)-
Formula: C10H16O3
CAS: 36903-65-8
Molecular weight: 184
m/z	intensity
41	235
42	90
43	419
44	84
45	23
50	3
51	15
52	13
53	70
54	90
55	313
56	149
57	999
58	98
59	49
65	15
66	11
67	58
68	88
69	166
70	205
71	251
72	51
73	19
77	15
79	27
80	13
81	525
82	94
83	52
84	51
85	43
86	45
87	103
88	15
93	13
94	19
95	156
96	823
97	123
98	23
99	58
100	15
107	5
109	51
110	111
111	78
112	15
113	105
114	170
115	52
123	137
124	58
125	43
126	11
127	54
128	207
129	17
138	156
139	15
141	78
142	11
151	23
156	23
166	35
167	5
169	27
184	74
185	15
