Mass Spectrum: 3-Cyclohexyl-1,1-diethyl-thiourea
Formula: C11H22N2S
CAS: 36903-83-0
Molecular weight: 214
m/z	intensity
15	3
26	5
27	65
28	62
29	99
30	24
38	1
39	54
40	9
41	142
42	52
43	68
44	198
45	9
46	2
47	3
50	2
51	7
52	6
53	34
54	37
55	138
56	115
57	15
58	56
59	21
60	200
61	11
62	14
63	1
65	6
66	5
67	28
68	8
69	23
70	21
71	141
72	391
73	34
74	36
75	6
76	6
77	11
78	5
79	20
80	5
81	70
82	17
83	49
84	25
85	5
86	35
87	8
88	188
89	20
90	9
91	1
93	3
94	2
95	2
96	7
97	12
98	999
99	220
100	18
101	10
102	4
103	154
104	46
105	12
106	2
107	2
108	2
109	2
110	34
111	4
112	3
113	3
114	6
115	5
116	133
117	34
118	14
119	2
123	2
124	1
125	2
126	1
127	5
128	1
129	5
130	8
131	416
132	96
133	59
134	6
135	2
137	1
139	3
140	2
141	9
142	8
143	7
144	1
151	2
153	6
154	1
155	1
157	14
158	3
159	2
169	2
171	13
172	2
173	1
179	1
181	30
182	5
183	2
185	21
186	3
187	1
199	3
212	6
213	39
214	690
215	94
216	36
217	4
