Mass Spectrum: 1-Oxaspiro[2.5]octane-2-carbonitrile
Formula: C8H11NO
CAS: 36929-66-5
Molecular weight: 137
m/z	intensity
36	0
37	6
38	22
39	252
40	68
41	439
42	96
43	26
44	1
49	2
50	19
51	40
52	40
53	112
54	512
55	231
56	16
57	10
58	1
61	1
62	3
63	9
64	6
65	44
67	999
68	109
69	503
70	34
71	2
74	2
75	2
76	3
77	36
78	13
79	198
80	108
81	309
82	145
83	17
84	3
89	1
90	0
91	10
92	4
93	9
94	18
95	15
97	445
98	34
99	2
104	1
105	1
106	5
107	4
108	66
109	112
110	20
111	4
118	1
120	3
121	3
122	18
123	1
136	39
137	5
138	3
