Mass Spectrum: 1-Oxaspiro[2.4]heptane-2-carbonitrile
Formula: C7H9NO
CAS: 36929-35-8
Molecular weight: 123
m/z	intensity
36	1
37	10
38	26
39	225
40	123
41	179
42	64
43	14
44	1
49	2
50	15
51	26
52	26
53	142
54	25
55	173
56	16
57	11
61	2
62	4
63	8
64	7
65	43
66	54
67	999
68	689
69	43
70	2
73	0
74	1
75	2
76	3
77	8
78	5
79	6
80	8
81	6
82	8
83	44
84	4
86	1
87	0
91	0
92	2
94	51
95	33
96	16
97	2
104	2
105	1
106	1
107	1
108	0
122	31
123	4
124	1
