Mass Spectrum: 5-Iodopentan-2-one
Formula: C5H9IO
CAS: 3695-29-2
Molecular weight: 212
m/z	intensity
25	1
26	17
27	76
28	12
29	17
31	2
37	6
38	16
39	128
40	16
41	161
42	63
43	999
44	20
45	3
49	1
50	5
51	5
52	1
53	7
54	6
55	11
56	1
57	2
58	56
59	1
62	1
63	1
65	1
67	1
68	2
69	7
70	1
83	12
84	22
85	419
86	26
87	1
91	0
99	0
127	35
128	9
140	0
141	12
142	1
145	2
154	2
155	13
160	1
169	10
197	2
213	1
