Mass Spectrum: 3-Azabicyclo[3.3.1]nonan-9-ol, 3-methyl-6-(1-pyrrolidinyl)-, (endo,anti)-
Formula: C13H24N2O
CAS: 36969-18-3
Molecular weight: 224
m/z	intensity
39	114
40	30
41	403
42	438
43	166
44	429
45	17
52	19
53	74
54	105
55	157
56	74
57	153
58	635
59	26
77	39
78	19
79	37
80	48
81	57
82	153
83	133
84	999
92	39
93	17
94	258
95	65
96	361
97	241
98	111
99	21
100	15
106	21
107	21
108	188
109	232
110	763
111	118
112	65
113	39
120	37
121	17
122	96
123	30
124	179
125	52
126	136
127	30
134	43
135	21
136	252
137	48
138	120
139	30
140	43
148	15
149	21
150	35
151	17
152	168
153	125
154	342
155	59
180	21
223	76
224	269
