Mass Spectrum: 3-Azabicyclo[3.3.1]nonan-9-ol, 3-methyl-6-(1-pyrrolidinyl)-, (endo,syn)-
Formula: C13H24N2O
CAS: 36969-17-2
Molecular weight: 224
m/z	intensity
38	81
39	24
40	299
41	299
42	157
43	448
44	15
50	19
51	17
52	17
53	59
54	76
55	96
56	56
57	131
58	752
59	32
77	39
78	21
79	52
80	26
81	61
82	124
83	129
84	999
85	65
86	21
91	37
93	28
94	146
95	48
96	336
97	299
98	116
99	17
100	24
108	107
109	105
110	752
111	148
112	78
113	50
120	21
122	109
123	39
124	214
125	56
126	218
127	48
135	48
136	266
137	61
138	137
139	35
140	52
152	148
153	148
154	367
155	61
180	45
181	26
218	13
219	17
223	131
224	424
225	70
