Mass Spectrum: 3-Methyldec-3-ene
Formula: C11H22
CAS: 36969-75-2
Molecular weight: 154
m/z	intensity
26	4
27	96
28	4
29	137
30	4
31	1
36	5
37	0
38	3
39	93
40	17
41	341
42	76
43	148
44	6
45	40
46	1
47	1
50	4
51	12
52	7
53	56
54	26
55	999
56	179
57	141
58	7
59	1
60	2
61	1
62	1
63	4
64	1
65	15
66	8
67	99
68	40
69	517
70	612
71	148
72	7
73	1
74	1
75	10
76	2
77	15
78	4
79	18
80	4
81	48
82	50
83	699
84	120
85	17
86	2
87	1
88	0
89	1
90	1
91	7
92	1
93	4
94	1
95	15
96	17
97	58
98	41
99	6
100	2
101	1
103	1
104	1
105	4
106	1
107	1
108	0
109	6
110	2
111	9
112	7
113	2
114	0
115	3
116	1
117	1
118	2
119	1
120	1
121	1
122	1
123	2
124	9
125	118
126	19
127	2
128	1
129	1
130	1
132	1
133	1
134	0
135	1
136	0
138	0
139	1
140	2
141	3
143	1
144	4
145	2
146	3
150	2
151	1
154	262
155	34
156	2
