Mass Spectrum: 2-Pentenoic acid, 3-(bromomethyl)-4,4-dimethyl-, ethyl ester, (Z)-
Formula: C10H17BrO2
CAS: 36976-65-5
Molecular weight: 248
m/z	intensity
27	380
29	999
39	430
41	789
43	440
55	330
57	659
95	380
109	220
123	250
127	380
155	539
203	180
205	210
248	120
250	120
