Mass Spectrum: 4,7-Methanoindan, 1-bromo-4,5,6,7,8,8-hexachloro-2,3-epoxy-3a,4,7,7a-tetrahydro-
Formula: C10H5BrCl6O
CAS: 3697-41-4
Molecular weight: 430
m/z	intensity
60	6
61	16
62	14
63	14
64	3
65	11
66	23
67	1
68	7
71	2
72	5
73	27
74	18
75	11
77	3
78	2
79	4
80	9
81	999
82	106
83	8
84	8
85	18
86	15
87	12
89	8
90	2
91	7
92	4
95	9
96	9
97	23
98	11
99	10
100	3
101	5
102	3
103	2
105	4
106	5
107	18
108	15
109	36
110	10
111	8
113	5
115	8
116	11
117	14
118	5
119	13
120	8
121	13
122	4
123	9
124	2
125	2
126	2
127	2
128	2
130	5
131	11
132	7
133	15
135	6
136	2
137	1
141	16
142	2
143	15
144	3
145	10
146	3
147	20
148	7
149	12
151	2
153	2
155	4
157	7
159	10
160	2
161	8
165	6
167	13
168	2
169	11
170	5
171	3
177	1
179	2
180	2
181	9
182	14
183	27
184	7
185	15
187	2
191	9
193	12
194	4
195	20
196	4
197	21
198	1
199	10
201	5
202	2
203	8
204	4
205	6
206	4
207	1
208	2
212	1
213	1
215	3
216	6
217	41
218	10
219	40
220	8
221	12
227	4
228	2
229	4
230	6
231	4
232	4
233	4
234	1
235	23
236	5
237	35
238	10
239	24
240	7
241	10
245	3
246	4
247	3
248	5
249	4
250	5
251	16
252	8
253	22
254	11
255	14
256	6
257	5
259	2
261	13
263	27
264	5
265	16
266	4
267	8
268	2
270	11
271	1
272	18
274	15
276	7
280	8
281	14
282	12
283	17
284	7
285	8
287	4
289	4
291	3
315	5
316	3
317	14
318	6
319	13
320	3
321	5
351	3
353	1
355	1
395	21
397	60
399	59
401	32
402	3
403	8
432	4
434	5
