Mass Spectrum: 1,2,4-Thiadiazole-5(2H)-thione, 3-methyl-
Formula: C3H4N2S2
CAS: 36988-21-3
Molecular weight: 132
m/z	intensity
42	719
46	100
47	130
59	120
64	350
66	50
72	50
73	40
74	999
76	50
77	90
91	220
132	799
133	40
134	70
