Mass Spectrum: (2E,6E)-Methyl 10,11-dihydroxy-3,7,11-trimethyldodeca-2,6-dienoate
Formula: C16H28O4
CAS: 36999-94-7
Molecular weight: 284
m/z	intensity
27	20
29	24
30	1
31	1
33	1
38	2
39	88
40	17
41	385
42	25
43	41
45	12
50	4
51	17
52	10
53	137
54	47
55	122
56	9
57	13
59	43
60	1
61	1
63	3
64	1
65	29
66	12
67	134
68	59
69	999
70	61
71	8
73	9
74	2
75	1
76	1
77	67
78	14
79	118
80	29
81	327
82	225
83	129
84	8
85	22
86	2
87	7
88	2
89	2
90	1
91	89
92	15
93	133
94	21
95	113
96	19
97	9
99	22
100	2
101	6
103	8
104	3
105	60
106	14
107	96
108	27
109	77
110	10
111	13
112	7
113	4
114	432
115	32
116	4
117	5
120	12
121	282
122	60
123	93
124	19
125	26
126	5
127	39
128	10
133	12
134	9
135	31
136	113
137	91
138	18
139	44
140	9
141	4
147	51
148	10
149	35
150	10
151	4
153	3
154	2
162	6
163	2
165	5
166	12
167	9
168	3
169	2
175	22
176	13
177	4
179	5
180	4
181	6
182	2
190	11
191	12
192	2
193	3
194	6
195	1
203	11
207	38
208	5
209	1
218	7
219	18
220	4
235	4
236	1
250	11
251	3
