Mass Spectrum: Urea, N,N'-bis(4-fluorophenyl)-
Formula: C13H10F2N2O
CAS: 370-22-9
Molecular weight: 248
m/z	intensity
27	10
28	15
29	1
30	0
31	18
33	6
36	0
37	7
38	19
39	46
40	10
41	11
42	6
43	1
44	2
45	3
46	1
47	0
48	0
49	1
50	15
51	25
52	16
53	2
54	4
55	1
56	11
57	71
58	6
59	2
60	0
61	5
62	13
63	31
64	27
65	36
66	25
67	3
68	3
69	7
70	3
71	2
72	3
73	1
74	6
75	33
76	5
77	28
78	3
79	0
80	1
81	13
82	30
83	134
84	76
85	6
86	0
87	0
88	1
89	8
90	5
92	18
93	148
94	14
95	37
96	5
97	0
98	0
100	0
101	0
104	0
107	0
108	5
109	41
110	98
111	999
112	63
113	1
115	2
118	0
119	9
120	5
121	1
122	1
123	1
124	3
125	0
133	0
134	0
135	0
136	1
137	42
138	11
139	1
140	0
151	1
152	0
153	0
157	0
161	0
165	0
166	0
167	0
169	0
172	0
180	0
181	0
182	6
186	0
187	0
198	0
199	0
203	1
204	0
212	0
217	0
218	0
221	0
229	1
230	52
231	8
232	0
247	2
248	75
249	12
250	0
