Mass Spectrum: Piperazine, 1,4-bis[(1,1-dimethylethyl)dithio]-
Formula: C12H26N2S4
CAS: 37004-94-7
Molecular weight: 326
m/z	intensity
26	3
27	35
28	302
29	164
30	19
33	1
39	26
40	5
41	145
42	65
43	8
44	23
45	5
49	3
54	19
55	82
56	141
57	999
58	56
59	12
60	8
61	4
64	3
69	4
73	1
75	5
81	7
82	6
83	83
84	25
85	661
86	461
87	20
88	5
89	3
90	11
91	6
101	2
115	18
116	82
117	44
118	10
121	1
141	1
145	4
147	7
148	12
149	288
150	84
151	31
152	7
153	3
154	4
178	2
180	29
182	4
205	36
206	169
207	19
208	14
213	6
235	2
237	17
238	1
239	1
270	5
326	172
327	29
328	31
329	4
