Mass Spectrum: 2,5-Diphenyl-3H-imidazol-4-carboxylic acid, ethyl ester
Formula: C18H16N2O2
CAS: 37009-52-2
Molecular weight: 292
m/z	intensity
12	1
13	1
14	5
15	28
16	3
17	4
18	18
19	4
25	1
26	22
27	198
28	49
29	500
30	15
31	17
32	2
37	7
38	20
39	145
40	11
41	7
42	4
43	19
44	7
45	17
46	1
50	47
51	116
52	31
53	4
54	2
55	1
56	1
57	1
59	1
61	13
62	103
63	308
64	55
65	28
66	4
67	1
68	1
69	2
73	1
74	12
75	34
76	112
77	239
78	26
79	4
80	2
82	26
83	42
85	2
86	15
87	38
88	145
89	999
90	154
91	18
92	2
96	34
99	2
100	4
101	3
102	16
103	78
104	166
105	46
106	4
109	23
111	1
112	2
114	105
115	580
116	225
117	93
118	10
121	1
123	5
126	1
127	1
128	2
129	4
130	15
131	4
132	15
133	3
137	2
138	1
139	2
140	3
141	7
143	199
144	34
145	5
152	1
160	2
163	7
164	10
165	24
166	7
167	1
188	2
189	3
190	29
191	15
192	21
193	8
207	1
215	1
216	4
218	315
219	81
220	85
221	14
246	545
247	147
248	17
249	2
262	2
263	16
264	5
273	2
292	410
293	93
294	10
