Mass Spectrum: Ethanethiol, 2-cyclododecylamino-, hydrogen sulfate
Formula: C14H29NO3S2
CAS: 37018-33-0
Molecular weight: 323
m/z	intensity
41	503
42	134
43	340
44	227
45	44
46	8
48	256
50	19
51	8
53	68
55	524
56	660
57	101
58	48
59	45
61	248
62	6
64	505
65	23
66	28
67	111
69	255
70	128
71	59
72	9
73	7
74	9
76	48
77	41
78	56
79	31
80	40
81	87
82	87
83	111
84	71
85	34
86	17
88	999
89	41
90	47
91	10
92	3
93	13
95	59
96	61
97	90
98	62
99	9
100	9
101	19
103	95
104	7
105	7
106	1
107	18
108	4
109	35
110	24
111	16
112	99
113	8
114	22
116	253
117	21
118	13
119	1
120	8
121	4
122	6
123	3
124	27
126	50
127	12
128	13
130	22
131	2
132	4
133	3
134	4
136	17
138	19
140	70
141	9
142	6
144	8
146	3
148	30
149	4
150	6
152	21
154	27
155	5
156	3
157	6
158	4
159	2
160	1
161	4
162	3
163	1
164	5
165	1
166	25
168	40
169	5
170	5
172	16
174	2
176	3
177	1
178	5
180	9
182	37
183	10
184	11
186	10
187	0
188	2
190	3
191	1
192	4
194	21
196	569
197	73
198	7
200	14
201	1
202	1
204	2
206	5
208	13
210	31
211	5
212	2
214	7
216	1
220	2
222	3
224	4
225	0
226	3
227	1
228	1
230	0
232	1
233	1
234	1
235	3
236	1
237	11
238	2
239	29
240	9
241	4
242	21
243	16
244	24
245	4
246	1
254	2
255	0
256	0
257	0
263	1
264	0
265	2
266	1
267	6
268	1
269	1
272	0
273	2
274	0
275	17
276	3
277	2
293	0
295	1
296	0
297	0
298	0
299	1
307	0
323	2
324	0
