Mass Spectrum: S-3-[Cyclododecylamino]propyl hydrogen thiosulfate
Formula: C15H31NO3S2
CAS: 37018-38-5
Molecular weight: 337
m/z	intensity
41	695
42	160
43	329
44	185
45	85
46	45
48	431
49	22
50	22
51	13
53	96
54	20
55	608
56	322
57	179
58	46
59	49
60	107
61	107
62	29
64	798
65	5
66	60
67	120
69	803
70	999
71	91
72	40
73	58
74	23
75	39
76	2
77	16
79	42
80	24
81	106
82	144
83	132
84	73
85	63
86	34
87	39
89	666
90	128
91	79
92	37
93	17
94	20
95	11
96	199
97	73
98	104
100	90
101	6
102	325
103	23
104	25
105	4
106	10
107	12
108	13
109	15
110	51
111	21
112	38
113	14
115	129
116	53
117	36
118	7
119	6
120	2
121	9
122	9
124	49
125	15
126	29
128	183
130	206
131	18
132	11
133	6
134	0
135	10
136	77
137	3
138	35
139	1
140	29
142	35
144	32
145	3
146	3
148	100
149	8
150	13
152	38
153	7
154	17
156	23
157	3
158	21
159	3
160	3
161	3
162	5
163	0
164	7
166	28
168	28
170	26
171	9
172	19
173	2
174	0
178	4
180	31
182	30
184	30
186	35
187	4
188	1
192	3
194	80
196	110
197	13
198	33
200	17
201	0
205	0
206	3
208	29
209	1
210	18
212	110
214	52
215	5
216	0
220	4
222	95
223	4
224	29
225	1
226	47
227	13
228	10
229	1
238	2
240	26
241	4
242	2
251	1
253	3
254	40
255	265
256	112
257	43
258	18
259	4
269	2
271	1
286	0
287	2
288	5
289	1
