Mass Spectrum: S-2-[2-Norbornylamino]ethyl thiosulfuric acid
Formula: C9H17NO3S2
CAS: 37018-41-0
Molecular weight: 251
m/z	intensity
41	536
42	177
43	187
44	568
45	184
46	31
47	52
48	556
49	1
50	48
51	51
52	40
53	139
54	143
55	146
56	396
57	51
58	68
59	103
60	81
61	298
62	17
63	27
64	986
65	128
66	198
67	560
68	118
69	50
70	166
71	44
72	16
73	38
74	13
75	10
76	27
77	104
78	33
79	166
80	99
81	70
82	139
83	32
84	14
85	24
86	19
87	5
88	206
89	12
90	32
91	52
92	24
93	246
94	96
95	756
96	132
97	22
98	12
99	14
100	7
101	30
102	19
103	14
104	10
105	12
106	34
107	15
108	24
109	33
110	87
111	54
112	26
113	9
114	32
115	7
116	20
117	4
118	4
120	107
121	198
122	49
123	3
124	999
125	92
126	9
127	8
128	27
129	5
130	19
131	4
132	3
133	2
134	5
135	5
136	23
137	15
138	74
139	23
140	19
141	39
142	13
143	3
146	0
147	0
148	0
150	0
152	5
153	2
154	5
155	4
156	1
157	1
160	2
161	1
162	2
164	0
165	1
166	14
167	101
168	41
169	52
170	39
171	43
172	31
173	5
174	3
175	2
182	2
192	1
194	0
195	2
199	3
200	0
201	16
202	4
203	53
204	7
205	5
208	0
224	0
227	0
235	0
251	1
