Mass Spectrum: 4-Imidazolidinone, 3-ethyl-1-phenyl-2-thioxo-
Formula: C11H12N2OS
CAS: 37021-14-0
Molecular weight: 220
m/z	intensity
33	13
34	13
36	7
37	20
38	59
39	209
40	124
41	71
42	301
44	48
45	161
47	9
50	163
51	667
54	156
55	70
56	54
57	52
59	105
60	105
61	12
62	22
63	76
64	42
65	88
66	10
67	9
69	50
70	29
72	109
74	61
75	43
77	999
79	52
80	7
83	562
86	228
87	87
88	22
89	9
91	93
93	7
94	3
95	6
96	8
97	5
98	3
99	3
100	1
104	568
105	585
106	493
108	15
109	52
110	42
111	7
112	6
113	3
114	2
115	2
118	233
119	27
121	23
122	8
123	6
124	2
125	1
126	1
127	1
128	2
129	2
130	3
131	9
132	8
134	45
135	41
136	56
137	8
138	3
139	1
140	1
142	1
143	3
145	25
146	5
150	90
151	18
152	5
153	1
155	2
157	2
159	27
160	9
161	5
163	29
164	3
165	2
171	4
174	1
177	75
178	7
179	3
180	1
183	1
185	1
187	1
191	205
192	22
193	10
194	1
198	1
204	2
205	2
214	1
219	613
220	849
221	147
222	50
223	6
224	1
