Mass Spectrum: Ethyl 4,4,4-trichloroacetoacetate
Formula: C6H7Cl3O3
CAS: 3702-98-5
Molecular weight: 232
m/z	intensity
12	2
13	4
14	27
15	50
16	2
17	1
18	3
24	1
25	10
26	55
27	273
28	71
29	979
30	49
31	94
32	2
35	17
36	99
37	10
38	32
39	6
40	4
41	74
42	251
43	999
44	63
45	107
46	15
47	47
48	7
49	27
50	2
51	4
52	2
53	13
54	3
55	7
59	10
60	20
61	59
62	9
63	53
64	4
65	12
66	1
68	3
69	152
70	8
71	5
72	5
73	60
74	3
75	4
76	6
77	11
78	2
79	4
82	84
83	30
84	55
85	20
86	9
87	107
88	6
89	11
90	1
91	3
94	1
95	6
96	14
97	7
98	9
99	8
100	2
101	3
105	146
106	5
107	49
108	2
109	1
110	67
111	4
112	43
113	2
114	7
115	948
116	54
117	115
118	1
119	111
120	1
121	36
123	25
124	2
125	28
126	2
127	11
128	2
129	2
131	4
133	12
134	1
135	5
141	11
143	7
145	15
147	12
149	5
151	9
152	10
153	12
154	7
155	5
156	1
159	6
160	3
161	6
162	3
163	2
164	1
169	44
170	3
171	27
172	1
173	4
187	173
188	8
189	168
190	8
191	53
192	2
193	6
197	6
198	1
199	4
232	1
234	1
