Mass Spectrum: 1-Butene, 3-propoxy-
Formula: C7H14O
CAS: 37027-59-1
Molecular weight: 114
m/z	intensity
25	0
26	58
27	450
28	47
29	295
30	9
31	46
33	0
36	0
37	5
38	13
39	176
40	25
41	189
42	49
43	425
44	19
45	177
46	4
47	1
49	1
50	12
51	16
52	7
53	47
54	47
55	999
56	80
57	797
58	31
59	14
60	1
65	0
66	0
67	1
68	0
69	19
70	2
71	43
72	232
73	157
74	7
75	0
77	0
78	1
79	0
80	0
81	0
82	0
83	0
84	0
85	13
86	0
87	12
88	0
99	162
100	9
101	1
113	0
114	3
115	0
