Mass Spectrum: 3,4-Nonadiene
Formula: C9H16
CAS: 37050-03-6
Molecular weight: 124
m/z	intensity
39	190
40	50
41	350
42	40
43	40
51	40
52	30
53	170
54	80
55	190
56	30
65	60
66	30
67	999
68	110
69	20
77	50
79	130
80	10
81	220
82	720
83	50
91	10
92	30
95	140
96	10
105	0
107	0
109	10
123	0
124	0
