Mass Spectrum: Butanoic acid, 2-methyl-, propyl ester
Formula: C8H16O2
CAS: 37064-20-3
Molecular weight: 144
m/z	intensity
26	27
27	303
28	50
29	377
30	16
31	32
34	1
37	2
38	7
39	105
40	21
41	436
42	157
43	598
44	18
45	30
47	8
53	8
54	3
55	45
56	98
57	999
58	46
59	52
60	20
61	17
69	11
71	2
73	25
74	195
75	22
84	5
85	566
86	32
87	92
88	5
102	25
103	483
104	21
115	8
116	60
