Mass Spectrum: Phenethylamine, p-methoxy-.alpha.-methyl-, hydrochloride
Formula: C10H15NO
CAS: 3706-26-1
Molecular weight: 165
m/z	intensity
40	4
41	10
42	36
44	999
45	29
46	1
47	1
50	13
51	32
52	27
53	14
54	3
55	5
56	4
57	3
59	3
60	2
61	1
62	6
63	21
64	10
65	27
66	4
67	4
69	1
73	1
75	13
76	7
77	89
78	107
79	27
80	9
81	1
82	1
86	1
87	1
89	25
90	11
91	56
92	15
93	5
94	3
95	1
101	1
102	3
103	7
104	5
105	6
106	21
107	41
108	7
109	1
115	7
116	2
117	7
118	10
119	5
121	179
122	382
123	36
124	2
128	1
130	1
131	2
132	4
133	4
134	18
135	7
136	1
145	1
146	1
147	4
148	6
149	7
150	11
151	1
162	1
163	3
164	4
165	11
166	3
167	1
