Mass Spectrum: Cyclonon-4-ynone
Formula: C9H12O
CAS: 37079-60-0
Molecular weight: 136
m/z	intensity
25	4
26	83
27	392
28	103
29	99
30	4
31	13
33	5
36	2
37	35
38	118
39	742
40	270
41	337
42	191
43	95
44	14
45	7
46	2
47	3
48	3
49	15
50	183
51	314
52	381
53	237
54	86
55	159
56	18
57	15
58	10
59	4
60	5
61	22
62	66
63	166
64	51
65	305
66	317
67	324
68	89
69	22
70	8
71	4
72	12
73	7
74	30
75	30
76	13
77	420
78	144
79	999
80	309
81	81
82	19
83	16
84	7
85	10
86	17
87	9
88	4
89	16
90	12
91	247
92	57
93	400
94	116
95	54
96	19
97	9
98	5
99	2
101	2
102	4
103	14
104	5
105	29
106	9
107	153
108	471
109	54
110	7
111	4
112	1
115	10
116	4
117	22
118	13
119	6
120	4
121	47
122	5
123	1
133	3
134	29
135	202
136	286
137	36
138	5
