Mass Spectrum: 1-Benzyl-1,2,4-triazole-5-methylcarboxamide
Formula: C11H12N4O
CAS: 37091-50-2
Molecular weight: 216
m/z	intensity
29	30
30	121
39	333
40	52
41	90
50	105
51	302
52	60
53	30
56	45
58	318
59	90
63	136
65	560
66	15
77	318
78	105
79	52
89	121
90	60
91	999
92	60
96	30
103	75
104	515
105	136
116	30
117	90
121	30
130	30
131	818
132	121
138	19
139	151
140	4
157	458
158	514
159	84
185	140
186	30
197	19
215	171
216	474
217	54
