Mass Spectrum: Pentanoic acid, 3,3-dimethyl-5-[(phenylmethyl)seleno]-
Formula: C14H20O2Se
CAS: 3709-13-5
Molecular weight: 300
m/z	intensity
26	2
27	20
28	6
29	25
31	4
38	3
39	50
40	6
41	74
42	6
43	23
44	2
45	12
50	4
51	13
52	4
53	11
54	2
55	36
56	5
57	4
59	53
60	4
61	1
62	3
63	15
64	5
65	83
66	5
67	13
68	3
69	43
70	3
71	7
73	2
77	4
78	3
79	2
80	1
81	7
82	2
83	25
84	1
85	5
87	14
88	1
89	15
90	9
91	999
92	83
93	18
94	5
95	7
96	1
101	5
103	1
104	2
105	4
106	3
107	5
108	3
109	4
111	15
112	1
113	3
115	1
117	0
119	0
121	0
127	6
129	12
130	9
131	2
133	1
143	2
145	2
146	1
147	6
148	0
149	6
151	0
161	4
163	7
164	1
165	2
166	0
167	4
168	3
169	9
170	4
171	12
172	5
173	2
181	1
183	1
185	4
187	0
188	0
189	1
190	0
191	4
192	1
193	1
195	1
196	1
197	3
199	8
201	1
206	1
208	4
209	1
296	9
297	7
298	23
299	3
300	47
301	7
302	10
303	1
