Mass Spectrum: Butyric acid, 4,4'-diselenobis[3,3-dimethyl-
Formula: C12H22O4Se2
CAS: 3709-12-4
Molecular weight: 390
m/z	intensity
27	138
28	31
29	213
30	3
31	31
37	3
38	5
39	165
40	21
41	523
42	48
43	258
44	11
45	128
46	3
50	3
51	13
52	5
53	103
54	15
55	493
56	56
57	40
58	3
59	190
60	31
61	1
65	8
66	3
67	73
68	15
69	833
70	50
71	83
72	8
73	999
74	45
75	1
77	3
78	5
79	10
80	10
81	23
82	23
83	103
84	8
85	13
87	26
89	8
90	10
91	25
92	16
93	45
94	30
95	41
96	11
97	346
98	28
99	13
100	3
101	16
103	6
104	6
105	11
106	6
107	26
108	6
109	15
111	26
112	3
113	31
114	6
115	953
116	66
117	10
118	3
119	6
120	1
121	10
123	5
125	8
130	8
131	11
132	13
133	31
134	18
135	45
136	26
137	13
138	6
139	10
145	6
146	5
147	16
148	6
149	25
150	5
151	6
153	6
154	6
155	3
156	20
157	6
158	26
159	98
160	33
161	8
162	13
163	10
164	3
165	1
170	1
171	3
172	6
173	10
174	13
175	16
176	23
177	13
178	36
179	10
180	6
181	3
189	6
191	10
192	8
193	13
194	10
195	16
196	6
197	3
205	3
206	1
208	3
209	3
210	20
211	13
212	45
213	26
214	80
215	6
216	88
217	6
218	28
219	5
220	3
250	5
251	5
252	20
253	13
254	45
255	26
256	76
257	11
258	83
259	8
260	26
262	5
270	3
271	3
272	3
273	3
275	5
282	5
284	6
286	8
298	3
300	1
336	3
338	1
370	3
371	8
373	8
375	1
382	3
383	5
384	16
385	13
386	46
387	28
388	76
389	13
390	86
391	11
392	30
393	1
394	5
