Mass Spectrum: Butanoic acid, 3,3-dimethyl-4-[(phenylmethyl)seleno]-
Formula: C13H18O2Se
CAS: 3709-11-3
Molecular weight: 286
m/z	intensity
26	1
27	19
28	3
29	23
31	3
38	3
39	48
40	4
41	58
42	4
43	18
45	10
50	3
51	13
52	4
53	15
54	1
55	34
56	4
57	3
59	26
60	2
62	3
63	19
64	5
65	82
66	4
67	9
68	1
69	30
70	1
71	11
73	22
74	1
75	1
77	4
78	2
79	1
80	2
82	1
83	5
85	1
89	20
90	8
91	999
92	8
93	20
94	4
95	6
96	1
97	6
101	3
103	1
104	1
105	3
107	4
109	1
113	10
115	29
116	3
117	1
119	1
131	2
132	2
133	5
134	2
135	6
136	1
137	0
145	3
147	2
149	3
165	2
166	1
167	4
168	3
169	9
170	4
171	11
172	3
173	2
174	1
176	1
177	1
178	3
181	1
183	2
185	2
193	1
195	3
226	2
282	13
283	11
284	34
285	4
286	69
287	10
288	14
289	1
