Mass Spectrum: Butanoic acid, 2,2-dimethyl-4-[(phenylmethyl)seleno]-
Formula: C13H18O2Se
CAS: 3709-09-9
Molecular weight: 286
m/z	intensity
26	3
27	27
28	5
29	15
31	6
37	1
38	3
39	57
40	6
41	83
42	7
43	15
44	2
45	19
50	4
51	15
52	5
53	9
55	19
56	3
57	15
59	45
60	1
62	4
63	22
64	5
65	96
66	5
67	20
68	3
69	31
70	3
71	2
73	5
75	1
76	0
77	4
78	3
79	0
80	4
81	0
82	0
83	0
85	5
86	1
87	6
88	6
89	21
90	10
91	999
92	82
93	20
94	5
95	7
96	1
101	1
103	1
104	3
105	3
106	1
107	6
108	3
109	3
111	1
113	4
115	202
116	12
117	4
145	3
146	3
147	6
148	1
149	9
150	1
151	1
167	4
168	2
169	6
170	2
171	7
172	2
173	1
174	0
178	0
185	3
195	3
199	2
282	7
283	6
284	18
285	3
286	37
287	6
288	7
289	1
