Mass Spectrum: Cyclohexane, 1-chloro-1-fluoro-
Formula: C6H10ClF
CAS: 371-89-1
Molecular weight: 136
m/z	intensity
39	80
41	250
53	100
54	170
55	230
59	190
67	150
69	80
72	619
73	120
79	210
80	350
81	999
82	120
85	420
99	190
100	669
101	809
116	100
118	40
136	20
138	7
