Mass Spectrum: Hydrazine, 1-(1-methylethyl)-2-propyl-
Formula: C6H16N2
CAS: 3711-28-2
Molecular weight: 116
m/z	intensity
26	24
27	297
28	106
29	119
30	432
31	621
32	42
39	110
40	30
41	405
42	203
43	730
44	297
45	999
46	40
54	25
55	10
56	103
57	54
58	595
59	119
60	14
71	36
72	38
73	433
74	43
85	10
87	677
88	46
99	20
101	621
102	46
115	15
116	759
117	89
