Mass Spectrum: Hydrazine, 1,2-bis(1-methylpropyl)-
Formula: C8H20N2
CAS: 3711-38-4
Molecular weight: 144
m/z	intensity
27	157
29	395
30	124
31	343
39	74
41	310
42	220
43	85
44	537
45	32
55	188
56	84
57	544
58	80
59	521
70	77
72	466
73	66
85	28
87	163
88	11
99	7
115	999
116	101
129	134
130	11
144	432
145	65
