Mass Spectrum: Hydrazine, 1-butyl-2-ethyl-
Formula: C6H16N2
CAS: 3711-26-0
Molecular weight: 116
m/z	intensity
27	115
28	87
29	192
30	327
31	211
32	42
39	38
40	10
41	129
42	77
43	83
44	269
45	307
46	13
55	16
56	19
57	83
58	25
59	269
60	19
70	17
71	115
72	19
73	999
74	48
87	15
99	13
101	90
114	30
115	15
116	461
117	61
