Mass Spectrum: 4-Benzoyloxy-1-morpholinocyclohexene
Formula: C17H21NO3
CAS: 37138-56-0
Molecular weight: 287
m/z	intensity
41	188
42	170
43	93
44	55
45	276
47	3
49	41
50	296
51	609
52	69
53	93
54	67
55	165
56	115
57	93
58	15
60	3
61	9
62	18
63	38
64	15
65	60
66	35
67	48
68	68
69	25
70	34
71	2
73	16
74	65
75	43
76	76
77	999
78	90
79	93
80	18
81	29
82	9
83	9
84	5
85	23
86	26
87	18
88	10
89	8
91	47
92	21
93	15
94	23
95	17
96	104
97	19
98	5
100	9
102	2
103	10
104	5
105	878
106	69
107	21
108	10
110	9
111	6
112	8
113	11
114	13
115	27
117	12
118	11
119	2
120	18
121	30
122	101
123	42
126	12
127	7
128	13
129	11
130	13
131	17
132	5
133	8
134	2
141	7
144	10
145	5
146	10
147	5
152	14
156	8
158	16
162	3
165	19
166	5
167	19
168	9
169	11
170	27
171	5
172	17
174	26
179	5
180	17
181	15
182	14
183	29
184	8
188	10
192	5
194	2
206	2
210	3
227	2
228	5
229	10
