Mass Spectrum: 2,3-Morpholinedione, 4-cyclohexyl-6-phenyl-
Formula: C16H19NO3
CAS: 37154-90-8
Molecular weight: 273
m/z	intensity
41	120
55	170
77	120
78	100
79	50
81	50
82	80
83	100
91	100
102	50
103	100
104	999
105	190
106	50
107	50
110	50
118	50
119	20
120	50
128	50
146	80
156	10
158	20
174	50
182	70
192	250
193	50
199	10
200	20
201	10
229	20
230	20
273	50
