Mass Spectrum: 5-exo-Vinyl-5-endo-norbornenol
Formula: C9H12O
CAS: 37165-54-1
Molecular weight: 136
m/z	intensity
26	14
27	120
28	33
29	19
31	9
37	5
38	14
39	129
40	79
41	65
42	32
43	57
44	5
49	2
50	19
51	42
52	19
53	45
54	8
55	186
56	7
57	15
58	6
61	3
62	8
63	19
64	5
65	115
66	999
67	157
68	15
69	22
70	245
71	29
72	4
77	57
78	26
79	75
80	49
81	44
82	9
89	4
91	35
92	17
93	90
94	22
95	42
96	3
103	6
104	1
105	9
106	3
107	26
108	25
109	19
110	2
115	12
116	5
117	12
118	9
119	11
121	9
133	19
134	2
135	7
136	41
137	3
