Mass Spectrum: Benzo[g]pteridine-2,4(3H,10H)-dione, 8-hydroxy-7,10-dimethyl-
Formula: C12H10N4O3
CAS: 37163-35-2
Molecular weight: 258
m/z	intensity
40	351
41	810
42	465
43	999
44	93
50	50
52	41
53	63
54	21
55	164
56	788
57	939
58	25
60	13
63	28
64	43
65	60
67	35
68	23
69	559
70	51
71	117
75	11
76	33
77	113
78	35
79	10
83	43
84	61
85	18
86	97
90	23
91	41
92	13
93	15
94	25
99	11
100	23
101	11
104	13
105	11
106	20
107	8
113	8
114	8
115	10
116	40
117	30
119	120
120	23
121	15
127	15
129	20
130	30
131	120
133	72
134	11
142	8
143	33
144	15
145	10
146	8
148	11
149	15
150	11
151	8
154	11
156	92
157	58
158	10
159	25
160	75
161	18
162	23
169	73
170	56
171	113
172	60
173	97
174	18
181	65
183	8
184	15
185	43
186	98
187	185
188	26
190	11
199	70
200	46
201	20
202	8
213	68
214	13
215	423
216	51
217	21
219	23
221	8
228	15
231	13
241	13
243	33
244	23
245	11
255	18
256	174
257	55
258	877
259	105
