Mass Spectrum: 4-Vinyl-imidazole
Formula: C5H6N2
CAS: 3718-04-5
Molecular weight: 94
m/z	intensity
37	30
38	73
39	273
40	152
41	225
52	30
54	42
66	110
67	111
68	86
93	349
94	999
95	58
