Mass Spectrum: Tetrahydro-6a-methylimidazo[4,5-d]imidazole-2,5(1H,3H)-dione
Formula: C5H8N4O2
CAS: 3720-96-5
Molecular weight: 156
m/z	intensity
27	41
28	12
29	63
40	61
41	153
42	999
43	412
44	408
45	74
54	32
55	169
56	32
58	208
60	34
69	78
70	63
71	135
84	27
85	718
86	75
97	63
98	184
112	136
113	322
128	600
129	41
141	130
156	537
157	42
