Mass Spectrum: Hexanoic acid, 5-hydroxy-3-methyl-, .delta.-lactone
Formula: C7H12O2
CAS: 3720-20-5
Molecular weight: 128
m/z	intensity
25	2
26	33
27	333
28	106
29	180
30	7
31	10
33	0
37	13
38	52
39	389
40	102
41	604
42	978
43	587
44	21
45	71
49	2
50	15
51	12
52	1
53	57
54	17
55	385
56	999
57	134
59	5
60	80
61	17
62	3
66	1
67	27
68	16
69	491
70	79
71	53
73	0
79	0
81	6
82	8
83	40
84	352
85	103
86	1
87	23
95	11
96	4
97	2
98	1
99	2
107	2
109	8
110	1
111	0
113	52
119	1
124	4
125	11
126	2
127	6
128	43
