Mass Spectrum: 2H-Pyran-2-one, tetrahydro-3,6-dimethyl-
Formula: C7H12O2
CAS: 3720-22-7
Molecular weight: 128
m/z	intensity
26	36
27	248
28	158
29	201
30	3
31	7
36	2
37	6
38	21
39	290
40	67
41	641
42	999
43	344
44	13
45	26
50	16
51	24
52	11
53	54
54	50
55	570
56	926
57	117
58	7
59	5
60	1
63	4
65	8
66	2
67	74
68	13
69	294
70	18
71	4
73	10
74	4
77	4
79	4
81	7
82	29
83	14
84	363
85	93
86	5
87	6
88	7
97	2
98	2
99	13
100	3
111	3
113	36
114	1
126	4
127	4
128	19
129	15
130	1
