Mass Spectrum: Wilfortrine
Formula: C41H47NO20
CAS: 37239-48-8
Molecular weight: 873
m/z	intensity
25	10
26	30
27	20
28	220
29	40
30	10
31	10
37	10
38	20
39	60
40	10
41	30
42	50
43	999
44	160
45	60
50	20
51	30
52	10
53	10
55	30
56	10
57	10
58	10
60	40
61	10
63	10
64	10
65	10
66	10
67	20
68	10
69	40
71	10
73	10
74	10
75	10
76	10
77	40
78	20
79	40
80	10
81	20
82	10
83	50
84	10
85	10
87	10
91	30
92	20
93	140
94	20
95	830
96	50
97	20
98	10
99	10
100	10
101	10
102	10
103	10
104	40
105	70
106	270
107	100
108	20
109	20
110	10
111	20
112	50
113	20
114	10
115	10
116	10
117	20
118	20
119	40
120	60
121	30
122	10
123	20
124	20
125	10
126	10
127	10
128	10
129	20
130	40
131	80
132	140
133	120
134	210
135	40
136	20
137	60
138	30
139	10
141	10
142	10
143	10
144	10
145	30
146	20
147	40
148	70
149	160
150	480
151	70
152	20
153	20
155	10
156	10
157	20
158	60
159	50
160	60
161	50
162	30
163	30
164	80
165	20
166	80
167	20
168	10
169	10
171	10
172	10
173	20
174	40
175	80
176	760
177	130
178	100
179	20
180	10
181	20
182	10
183	10
184	10
185	10
186	30
187	30
188	10
189	30
190	20
191	40
192	30
193	20
194	640
195	70
196	10
197	10
199	20
200	10
201	20
202	10
203	70
204	120
205	40
206	70
207	20
208	20
209	10
210	10
211	10
212	10
213	10
214	10
215	20
216	20
218	20
219	20
220	10
221	10
222	50
223	10
224	10
225	10
227	10
228	10
229	20
230	10
231	20
232	10
233	20
234	20
235	10
236	50
237	10
238	10
240	10
241	10
242	10
243	20
244	10
245	20
246	10
247	20
248	10
249	10
250	150
251	30
252	10
255	10
257	10
258	10
259	20
260	30
261	20
262	10
263	10
264	10
265	10
267	10
268	10
269	10
271	10
273	10
275	10
276	10
277	10
278	10
281	10
285	10
287	10
288	10
289	10
292	10
293	10
301	0
303	0
305	0
306	0
307	0
311	0
316	0
318	0
319	0
324	0
327	0
331	0
336	0
344	0
347	0
348	0
349	0
360	0
365	0
380	0
384	0
390	0
391	0
406	0
408	0
418	0
430	0
432	0
436	0
446	0
448	0
450	0
451	0
452	0
454	0
459	0
460	0
467	0
468	0
477	0
478	0
488	0
490	0
496	0
500	0
508	0
511	0
512	0
518	0
519	0
527	0
528	0
530	0
538	0
544	0
554	0
560	1
561	0
568	0
569	0
570	0
571	0
572	0
576	0
580	0
586	0
587	0
588	0
590	0
598	1
599	0
600	0
605	0
606	0
608	0
609	0
615	0
616	0
617	0
619	0
631	0
634	0
641	0
642	0
650	1
651	10
652	10
656	10
657	10
658	40
659	20
660	10
670	10
671	10
672	10
673	10
674	30
675	10
676	10
682	20
683	20
684	10
685	10
686	10
690	10
691	10
693	10
695	10
698	10
699	10
700	80
701	40
702	20
703	10
704	10
709	10
710	20
711	10
712	10
713	10
716	10
717	10
718	110
719	50
720	20
721	10
726	20
727	10
728	10
734	10
735	10
736	10
740	10
741	10
742	80
743	40
744	20
745	10
746	10
747	10
750	10
751	40
752	40
753	10
754	10
755	10
756	70
757	40
758	20
759	10
760	10
761	10
762	10
763	10
764	10
769	10
770	10
771	70
772	30
773	20
774	10
785	10
786	10
787	50
788	20
789	10
790	10
796	10
798	10
799	10
800	70
801	40
802	20
803	20
804	10
811	10
812	10
813	10
814	60
815	70
816	30
817	20
818	10
828	10
829	140
830	90
831	40
832	10
843	10
844	10
845	10
855	10
856	10
857	10
858	30
859	20
860	10
872	10
873	100
874	50
875	20
