Mass Spectrum: Evonimine, 8-(acetyloxy)-O2-benzoyl-O2-deacetyl-8-deoxo-26-hydroxy-, (8.alpha.)-
Formula: C43H49NO19
CAS: 37239-51-3
Molecular weight: 883
m/z	intensity
26	30
27	20
28	230
29	30
30	10
31	10
37	10
39	30
40	10
41	30
42	50
43	999
44	170
45	70
50	40
51	60
52	20
55	20
56	10
57	20
58	10
60	50
63	10
64	10
65	10
67	10
69	20
73	10
74	10
75	10
76	10
77	180
78	50
79	40
80	10
81	10
82	10
83	30
84	10
85	10
91	30
92	20
93	20
94	20
95	30
96	10
97	20
98	10
99	10
100	10
103	10
104	40
105	480
106	390
107	110
108	20
109	20
110	10
111	10
113	10
115	10
118	10
119	30
120	60
121	30
122	80
123	30
124	10
125	20
126	10
127	10
128	10
129	10
130	40
131	30
132	140
133	100
134	210
135	40
136	20
137	60
138	20
139	10
141	10
142	10
145	10
146	10
147	40
148	50
149	180
150	540
151	70
152	10
153	20
155	10
157	10
158	50
159	30
160	60
161	10
162	20
163	30
164	80
165	30
166	100
167	20
169	10
173	20
174	30
175	60
176	770
177	130
178	100
179	20
180	10
185	10
186	20
190	10
191	40
192	30
193	20
194	630
195	70
196	10
199	10
200	10
201	20
202	10
203	30
204	100
206	80
207	30
208	20
209	10
213	10
215	10
216	10
217	20
218	20
219	10
220	10
221	10
222	50
223	10
224	10
229	20
230	10
231	20
232	10
233	20
234	30
235	10
236	50
237	10
240	10
241	10
242	10
243	10
245	20
246	10
247	10
248	10
249	10
250	160
251	20
252	10
253	10
257	10
259	20
260	10
262	10
263	10
264	10
275	10
276	10
277	10
278	10
279	10
287	10
288	10
289	10
292	10
293	10
295	10
298	10
305	0
306	0
307	0
318	0
319	0
320	0
321	0
336	0
337	0
347	0
349	0
354	0
360	0
365	0
380	0
391	0
407	0
409	0
418	0
436	0
440	0
449	0
453	0
468	0
469	0
470	0
471	0
479	0
489	0
491	0
497	0
498	0
501	0
509	0
511	0
512	0
513	0
514	0
515	0
519	0
520	0
529	0
531	0
539	0
541	0
555	0
557	0
561	1
562	0
569	0
571	0
573	0
588	0
598	0
600	0
614	0
615	0
616	0
618	0
619	0
630	0
631	0
632	0
640	0
642	0
657	10
658	40
659	10
660	30
661	10
674	30
675	10
676	10
682	10
683	10
684	10
685	10
690	10
691	10
692	10
693	10
699	10
700	80
701	40
702	20
703	10
704	10
706	10
708	10
716	10
717	10
718	120
719	60
720	30
721	10
722	10
736	20
737	10
738	10
750	10
751	10
752	70
753	30
754	20
755	10
756	10
757	10
761	10
762	40
763	30
764	10
766	60
767	30
768	30
769	10
770	10
778	10
779	10
780	60
781	30
782	10
783	10
796	60
797	30
798	20
799	10
808	10
810	50
811	30
812	40
813	20
814	10
821	10
822	10
823	10
824	60
825	60
826	30
827	10
838	10
839	120
840	80
841	30
842	10
853	10
854	10
865	10
866	10
867	10
868	20
869	10
882	10
883	90
884	40
885	10
