Mass Spectrum: 1H-Imidazole-2-methanol
Formula: C4H6N2O
CAS: 3724-26-3
Molecular weight: 98
m/z	intensity
40	120
41	320
42	200
43	130
44	140
53	170
54	80
55	130
57	130
67	130
68	100
69	260
70	100
71	60
80	70
81	210
95	80
96	50
97	780
98	999
99	90
