Mass Spectrum: 2-Pyridylacetamide
Formula: C7H8N2O
CAS: 3724-16-1
Molecular weight: 136
m/z	intensity
27	20
38	58
39	280
40	42
41	43
43	35
44	290
63	109
64	58
65	301
66	185
67	101
69	30
78	20
80	11
81	17
83	14
91	45
92	373
93	999
94	115
95	13
97	12
111	8
118	16
119	8
136	434
137	54
138	5
139	2
