Mass Spectrum: 1,3,6-Cyclooctatriene
Formula: C8H10
CAS: 3725-30-2
Molecular weight: 106
m/z	intensity
26	34
27	190
28	2
31	1
34	1
36	1
37	21
38	45
39	299
40	26
41	69
42	3
43	2
44	0
46	1
48	1
49	13
50	109
51	199
52	95
53	57
54	15
55	1
57	2
59	1
60	1
61	12
62	25
63	65
64	11
65	151
66	42
67	11
73	5
74	27
75	17
76	17
77	285
78	999
79	331
80	26
85	1
86	1
87	1
89	14
90	6
91	676
92	50
93	2
97	1
98	3
101	3
102	11
103	76
104	18
105	186
106	114
107	9
