Mass Spectrum: Cyclohexane, 1,3-dibromo-
Formula: C6H10Br2
CAS: 3725-17-5
Molecular weight: 240
m/z	intensity
39	10
41	30
53	20
54	20
55	20
67	35
77	20
78	25
79	140
80	100
81	999
82	80
119	10
121	10
161	125
163	115
240	9
242	17
244	9
