Mass Spectrum: 1-Ethyl-4-methylcyclohexane
Formula: C9H18
CAS: 3728-56-1
Molecular weight: 126
m/z	intensity
24	1
25	1
26	4
27	91
28	13
29	86
30	5
31	0
33	0
34	2
36	3
37	1
38	6
39	117
40	23
41	237
42	52
43	78
44	4
45	1
46	0
47	2
48	2
49	2
50	5
51	12
52	4
53	39
54	39
55	883
56	99
57	29
58	0
59	1
60	1
61	2
62	2
63	3
64	0
65	11
66	6
67	50
68	20
69	200
70	25
71	3
72	2
73	0
74	2
75	2
76	5
77	14
78	2
79	7
80	2
81	77
82	6
83	11
84	4
85	4
86	0
87	1
88	0
89	0
90	2
91	5
92	2
93	2
94	1
95	13
96	156
97	999
98	84
99	5
100	1
101	1
102	1
103	1
104	1
105	2
106	3
107	2
108	0
109	0
110	0
111	23
112	2
114	1
115	0
116	1
117	0
118	1
119	0
120	2
121	1
122	1
123	2
124	2
125	4
126	192
127	20
128	2
129	1
