Mass Spectrum: Methane, bromofluoro-
Formula: CH2BrF
CAS: 373-52-4
Molecular weight: 112
m/z	intensity
12	2
13	4
14	5
19	1
31	19
32	11
33	235
34	3
79	48
80	6
81	48
82	7
91	56
92	9
93	167
94	13
95	111
96	5
110	2
111	10
112	999
113	17
114	962
115	5
