Mass Spectrum: Azadirachtin, de[(E)-2-methyl-1-oxo-2-butenyl](1,2-dioxopropyl)dihydro-
Formula: C33H42O17
CAS: 37324-44-0
Molecular weight: 710
m/z	intensity
111	450
129	999
147	400
149	370
151	100
155	70
157	950
158	600
167	80
179	75
183	80
185	980
199	55
207	65
211	65
213	350
217	480
235	55
237	60
243	60
253	400
259	960
273	100
277	50
305	55
328	150
329	140
347	65
365	52
377	32
421	30
435	35
439	120
473	20
477	30
505	50
509	40
519	17
521	20
537	27
545	40
547	70
548	30
561	16
574	18
575	26
589	40
590	20
605	10
617	31
618	12
627	8
631	8
632	13
633	10
642	3
647	5
648	4
649	14
650	5
660	7
661	4
675	2
692	1
