Mass Spectrum: N',N'''-Ethanediylidenebis(isonicotinohydrazide)
Formula: C14H12N6O2
CAS: 3734-37-0
Molecular weight: 296
m/z	intensity
39	414
41	212
43	306
44	280
48	10
51	863
53	34
55	184
57	183
60	62
61	11
62	5
63	9
64	17
65	12
67	51
69	148
70	42
71	50
73	46
74	10
78	999
80	19
81	38
83	71
84	32
85	25
87	16
88	2
89	3
90	3
91	16
92	4
93	13
94	8
95	24
96	21
97	23
98	14
99	12
101	11
102	10
106	826
107	155
109	14
110	9
111	12
112	14
113	8
114	7
115	9
116	7
117	5
118	9
119	9
120	6
122	53
123	25
125	14
126	3
127	3
129	17
131	9
132	3
133	5
134	7
135	7
136	3
137	7
138	2
139	5
140	3
141	3
143	3
145	5
147	25
148	13
149	19
151	4
152	7
153	2
157	4
160	3
162	43
163	6
165	3
166	4
167	5
169	2
171	11
174	2
175	16
178	6
180	5
184	9
185	4
190	64
191	8
192	4
206	3
212	6
213	4
218	4
219	7
240	2
256	4
295	4
