Mass Spectrum: Pyrrolidin-1-acetic acid
Formula: C6H11NO2
CAS: 37386-15-5
Molecular weight: 129
m/z	intensity
42	723
43	70
44	36
45	59
46	3
48	0
49	0
50	7
51	13
52	10
53	23
54	39
55	216
56	100
57	37
58	15
59	11
60	10
61	1
62	0
63	2
64	1
65	3
66	2
67	9
68	13
69	16
70	26
71	18
72	1
73	5
74	1
76	1
77	8
78	22
79	2
80	11
81	4
82	26
83	13
84	999
85	54
86	3
87	1
88	1
91	0
93	0
95	2
96	0
97	1
98	0
99	0
100	5
101	7
111	1
112	9
113	1
114	0
127	0
128	5
129	48
130	6
