Mass Spectrum: 1-Isopropyl-pyrimidin-2(1H)-one
Formula: C7H10N2O
CAS: 3739-86-4
Molecular weight: 138
m/z	intensity
43	378
54	149
68	437
80	88
82	127
95	278
96	247
97	999
123	409
137	89
138	926
