Mass Spectrum: Sulfur, trifluoro(trifluoromethyl)-
Formula: CF6S
CAS: 374-10-7
Molecular weight: 158
m/z	intensity
12	11
19	13
20	2
31	57
32	47
34	3
44	4
50	33
51	98
53	5
63	9
69	999
70	260
71	2
72	12
82	5
89	121
90	1
91	6
101	7
120	53
121	1
122	3
139	220
140	5
141	10
