Mass Spectrum: Cyclohexane, undecafluoro(nonafluorobutyl)-
Formula: C10F20
CAS: 374-60-7
Molecular weight: 500
m/z	intensity
31	39
50	125
51	2
69	999
70	12
100	135
101	5
112	18
119	353
120	7
124	13
131	395
132	13
143	47
150	8
155	13
162	62
163	2
169	308
170	9
181	210
182	6
193	49
194	5
212	3
219	142
220	2
231	111
232	2
235	3
243	61
244	2
269	1
281	119
282	2
331	96
332	4
335	1
381	18
481	8
