Mass Spectrum: 3-Benzamido-5-phenyl-1,2,4-triazole
Formula: C15H12N4O
CAS: 37419-88-8
Molecular weight: 264
m/z	intensity
39	30
50	50
51	140
52	20
63	20
74	10
75	20
76	60
77	600
78	60
91	10
103	90
104	80
105	999
106	130
187	10
235	10
236	50
237	20
263	40
264	430
265	70
