Mass Spectrum: Benzene, 1,1'-tellurobis(4-bromo)-
Formula: C12H8Br2Te
CAS: 37438-18-9
Molecular weight: 440
m/z	intensity
33	10
34	3
37	39
38	51
39	32
40	49
41	4
42	1
43	7
44	11
47	0
50	828
51	155
52	5
55	0
56	3
57	4
60	0
61	16
62	19
63	18
64	1
65	0
66	0
69	1
70	0
72	8
74	584
75	972
76	999
77	144
78	13
79	18
80	29
81	17
82	26
84	1
85	7
86	10
87	7
88	5
89	0
91	2
98	19
99	15
100	10
101	25
102	9
103	1
104	4
105	12
106	3
107	6
109	1
110	3
111	5
112	1
113	8
114	4
116	1
117	3
118	0
119	5
120	0
122	14
123	8
124	21
125	44
126	85
128	126
129	42
130	115
131	33
132	1
133	0
136	0
137	5
138	19
140	60
141	39
143	6
147	2
149	21
150	91
151	183
152	776
153	128
155	426
157	419
158	37
161	2
162	3
163	7
165	15
166	0
167	18
168	0
171	1
173	1
174	4
175	6
176	5
177	12
178	10
179	28
180	22
182	13
185	0
196	0
197	1
198	27
199	17
200	50
201	80
202	166
204	315
206	339
207	34
209	23
211	9
218	2
219	4
220	4
221	3
222	1
230	9
231	4
232	8
233	0
236	1
239	0
241	1
256	1
266	4
268	5
270	0
275	1
276	3
277	16
278	16
279	38
280	55
281	100
282	64
283	177
285	271
286	24
287	116
288	6
306	0
307	5
310	408
312	767
313	113
314	331
315	41
316	2
355	2
357	4
358	1
359	8
360	2
361	9
362	1
363	4
432	4
434	20
435	19
436	43
437	31
438	100
440	170
442	153
443	16
444	39
445	3
