Mass Spectrum: 6H-Indeno[1,2-b]pyrido[3',2'-E]pyrazin-6-one
Formula: C14H7N3O
CAS: 37436-54-7
Molecular weight: 233
m/z	intensity
34	4
35	3
37	125
39	226
40	63
41	15
43	15
44	30
45	4
50	518
51	226
52	104
53	32
55	11
56	7
57	11
58	1
61	47
62	61
63	63
64	54
65	14
69	8
70	4
71	6
75	999
77	442
78	39
79	4
80	1
83	15
85	23
86	19
87	48
88	45
89	9
91	5
92	2
93	2
94	1
95	2
96	2
97	7
99	73
100	49
102	289
103	170
104	14
105	2
110	4
111	8
112	9
114	40
116	10
117	7
121	2
122	2
123	5
124	9
125	11
126	20
127	25
128	92
130	129
131	7
139	2
140	4
141	1
149	5
150	16
151	44
152	28
153	21
154	11
155	1
165	7
166	1
177	40
178	124
179	59
180	7
204	323
205	499
206	69
207	4
233	774
234	116
235	10
