Mass Spectrum: Benzamide, N-(2-hydroxyphenyl)-
Formula: C13H11NO2
CAS: 3743-70-2
Molecular weight: 213
m/z	intensity
36	11
37	11
38	45
39	69
40	20
41	15
42	6
43	11
44	11
45	15
50	151
51	309
52	112
53	102
54	21
55	6
57	0
62	9
63	42
64	17
65	13
66	3
68	0
69	0
73	5
74	30
75	29
77	715
78	71
80	125
81	9
83	0
89	0
90	1
91	2
92	3
102	0
105	999
106	54
107	1
108	15
109	3
115	1
122	20
128	0
143	0
166	0
167	2
194	0
195	48
196	4
211	0
213	125
214	13
