Mass Spectrum: 1-Hexen-3-yne, 2,5,5-trimethyl-
Formula: C9H14
CAS: 37439-53-5
Molecular weight: 122
m/z	intensity
15	58
26	18
27	173
39	345
41	294
42	16
50	62
51	165
52	60
53	165
55	49
56	13
62	26
63	88
64	22
65	257
66	33
67	114
68	12
69	25
74	25
75	25
76	10
77	240
78	65
79	443
80	36
81	17
89	16
90	17
91	924
92	179
93	49
94	12
103	22
105	229
106	49
107	999
108	90
119	10
121	32
122	344
123	34
