Mass Spectrum: 2-Nitro-1-buten-3-ol
Formula: C4H7NO3
CAS: 37442-53-8
Molecular weight: 117
m/z	intensity
26	70
27	463
28	80
29	187
30	398
31	101
37	12
38	26
39	174
40	48
41	382
42	151
43	999
44	111
45	268
46	19
47	7
48	23
49	7
50	40
51	54
52	26
53	290
54	63
55	271
56	82
57	52
58	20
59	25
60	12
61	60
67	14
68	13
69	90
70	347
71	307
72	41
73	11
74	45
75	6
79	6
81	9
82	9
83	20
84	8
85	15
86	9
87	30
99	7
100	45
101	11
102	662
103	28
104	6
116	10
