Mass Spectrum: 4-Penten-2-one, 4-methyl-
Formula: C6H10O
CAS: 3744-02-3
Molecular weight: 98
m/z	intensity
25	0
26	8
27	59
28	10
29	59
30	1
31	1
36	0
37	3
38	10
39	68
40	9
41	40
42	13
43	999
44	21
45	2
49	1
50	7
51	9
52	2
53	13
54	3
55	46
56	16
57	1
58	7
59	0
61	0
62	0
63	1
65	0
67	0
69	0
70	0
74	0
77	0
79	0
82	0
83	92
84	5
85	0
91	0
97	0
98	26
99	3
