Mass Spectrum: 2-Cyclohexen-1-one, 2-methyl-3-(2-methylpropoxy)-
Formula: C11H18O2
CAS: 37457-15-1
Molecular weight: 182
m/z	intensity
26	9
27	137
28	15
29	303
30	7
31	3
38	4
39	105
40	22
41	428
42	47
43	46
44	3
45	3
50	6
51	15
52	13
53	77
54	17
55	116
56	46
57	677
58	30
63	2
65	8
66	9
67	15
68	4
69	13
70	119
71	28
72	2
76	3
77	11
78	2
79	22
80	5
81	31
82	6
83	62
84	6
85	20
87	3
95	9
96	3
97	12
98	999
99	94
100	11
101	1
108	4
109	49
110	31
111	22
112	6
115	12
123	1
124	2
125	23
126	615
127	182
128	15
129	1
139	4
140	5
141	2
142	2
149	2
167	1
182	357
183	44
184	4
185	1
