Mass Spectrum: 5-Ethyl-3-phenyl-2,5-dihydro-1,2,4-oxadiazole  #
Formula: C10H12N2O
CAS: 37467-27-9
Molecular weight: 176
m/z	intensity
29	122
30	15
37	14
38	27
39	94
40	30
41	61
42	15
43	71
44	14
50	87
51	241
52	45
56	27
57	43
58	30
62	26
63	66
64	80
65	30
74	56
75	35
76	104
77	803
78	63
88	15
89	26
90	14
91	104
92	69
93	8
102	15
103	113
104	152
105	14
117	15
118	27
119	999
120	112
130	47
145	14
146	18
147	425
148	47
174	51
176	123
177	26
