Mass Spectrum: Urea, N-(4-methoxyphenyl)-N'-phenyl-
Formula: C14H14N2O2
CAS: 3746-53-0
Molecular weight: 242
m/z	intensity
28	105
32	16
37	33
38	77
39	180
40	34
41	78
42	11
50	63
51	156
52	166
53	92
54	36
60	18
61	34
62	34
63	106
64	135
65	202
66	141
67	27
74	16
75	13
76	21
77	190
78	101
79	44
80	168
81	22
90	30
91	123
92	136
93	851
94	72
95	65
106	110
107	21
108	999
109	81
119	189
120	42
121	23
122	167
123	931
124	84
134	169
135	17
149	311
150	31
242	693
243	120
