Mass Spectrum: 1-(2-Hydroxyethyl)-3-phenylurea
Formula: C9H12N2O2
CAS: 3747-47-5
Molecular weight: 180
m/z	intensity
15	3
17	1
27	5
28	6
29	2
30	88
31	6
37	1
38	4
39	16
40	5
41	7
42	10
43	9
44	8
45	10
46	4
50	5
51	15
52	5
53	2
54	3
55	1
56	2
57	2
59	9
60	7
61	2
62	2
63	8
64	13
65	49
66	103
67	9
69	1
70	13
71	1
72	1
74	4
75	1
76	3
77	34
78	5
79	1
86	1
87	19
88	2
90	1
91	20
92	39
93	999
94	71
95	2
104	2
105	1
106	4
107	1
119	53
120	12
121	1
131	1
135	4
136	5
137	1
149	5
150	13
151	1
160	1
161	6
162	6
163	1
180	129
181	16
182	1
