Mass Spectrum: Ethanol, 2-chloro-, carbanilate
Formula: C9H10ClNO2
CAS: 3747-48-6
Molecular weight: 199
m/z	intensity
13	1
14	5
15	22
17	7
18	35
19	5
25	2
26	16
27	325
28	35
29	24
30	7
31	453
32	7
35	1
36	6
37	26
38	54
39	126
40	20
41	37
42	12
43	28
44	18
45	22
46	4
47	2
48	4
49	25
50	45
51	106
52	35
53	7
54	5
55	1
57	1
59	31
60	6
61	16
62	25
63	472
64	210
65	356
66	99
67	9
73	2
74	11
75	8
76	13
77	209
78	20
79	39
80	19
81	3
82	5
86	1
87	2
88	3
89	2
90	16
91	351
92	307
93	584
94	49
95	2
100	2
103	10
104	11
105	3
106	721
107	56
108	3
117	2
118	17
119	999
120	392
121	31
122	2
127	25
128	3
129	9
130	1
135	2
136	9
137	399
138	31
139	3
140	3
146	1
150	20
151	2
154	3
156	1
163	15
164	9
165	1
198	1
199	913
200	102
201	301
202	33
203	3
