Mass Spectrum: N-(3-Acetylamino-5-hydroxy-phenyl)-acetamide
Formula: C10H12N2O3
CAS: 37472-97-2
Molecular weight: 208
m/z	intensity
33	1
37	3
38	12
39	31
40	23
41	46
42	119
43	636
44	16
45	2
50	14
51	25
52	38
53	26
54	22
55	23
56	3
57	4
58	1
60	1
61	0
62	5
63	10
64	6
65	15
66	20
67	44
68	88
69	20
70	6
71	0
73	0
74	1
75	3
76	9
77	11
78	33
79	26
80	26
81	8
82	10
83	10
84	15
85	1
86	0
87	0
88	0
89	3
90	1
91	3
92	5
93	9
94	20
95	70
96	158
97	57
98	4
99	0
103	1
104	2
105	5
106	13
107	8
108	6
109	11
110	8
111	1
117	0
119	2
120	2
121	7
122	11
124	999
125	107
126	9
127	1
134	0
135	2
137	21
138	6
139	6
140	1
141	0
142	0
148	1
149	2
150	28
151	18
152	1
161	0
163	1
165	57
166	280
167	45
168	3
179	3
189	0
193	4
208	343
209	36
210	2
