Mass Spectrum: 4,6-Dimethyloctane-3,5-dione
Formula: C10H18O2
CAS: 37484-67-6
Molecular weight: 170
m/z	intensity
26	4
27	38
28	27
29	127
30	3
31	2
38	1
39	30
40	4
41	104
42	7
43	27
44	2
45	4
50	1
51	3
52	1
53	11
54	2
55	36
56	31
57	999
58	42
59	2
63	1
65	3
66	1
67	12
68	2
69	13
70	1
71	5
72	1
77	1
79	1
81	3
82	1
83	12
84	9
85	273
86	126
87	7
95	3
96	2
97	1
99	3
100	2
112	1
113	38
114	17
115	2
141	4
142	1
170	28
171	3
