Mass Spectrum: cis-3,14-Clerodadien-13-ol
Formula: C20H34O
CAS: 374925-73-2
Molecular weight: 290
m/z	intensity
27	26
29	53
39	58
41	296
43	332
53	100
54	24
55	452
57	74
65	72
66	25
67	303
68	46
69	352
70	52
71	467
72	27
77	177
78	33
79	304
80	76
81	482
82	86
83	117
84	29
91	394
92	72
93	534
94	101
95	912
96	131
97	82
102	16
103	35
105	493
106	155
107	999
108	282
109	766
110	91
111	45
119	333
120	166
121	662
122	245
123	257
124	35
125	82
130	21
131	82
133	206
134	105
135	271
136	122
137	45
138	14
145	132
146	23
147	194
148	69
149	133
150	39
159	60
160	26
161	171
162	67
163	74
173	136
174	24
175	290
176	55
177	42
187	107
189	536
190	546
191	579
192	89
201	47
203	35
204	47
205	16
215	23
216	15
229	205
230	37
231	13
243	111
244	29
245	13
247	10
249	6
257	181
258	40
263	6
272	95
273	18
275	16
290	30
291	6
