Mass Spectrum: 2(1H)-Pyridinone, 4-hydroxy-6-methyl-
Formula: C6H7NO2
CAS: 3749-51-7
Molecular weight: 125
m/z	intensity
51	40
52	60
53	50
54	50
55	110
56	20
57	10
66	30
67	40
68	140
69	150
79	10
80	30
83	40
84	770
85	50
95	20
96	180
97	210
98	30
125	999
126	90
