Mass Spectrum: Butanoic acid, heptafluoro-
Formula: C4HF7O2
CAS: 375-22-4
Molecular weight: 214
m/z	intensity
16	5
17	45
18	145
19	1
24	1
28	21
31	255
32	8
33	0
36	6
43	14
44	53
45	999
46	12
47	25
50	93
55	7
62	18
67	98
69	925
81	34
100	530
101	13
105	2
119	649
120	14
131	127
132	4
150	124
151	17
169	279
170	12
