Mass Spectrum: Butane, 1,2,3,4-tetrachloro-1,1,2,3,4,4-hexafluoro-
Formula: C4Cl4F6
CAS: 375-45-1
Molecular weight: 302
m/z	intensity
28	7
31	50
35	5
36	2
37	2
44	2
47	15
49	5
50	7
55	7
62	4
66	18
68	6
69	115
70	2
71	2
74	15
78	7
80	3
81	4
82	7
84	5
85	999
86	13
87	337
88	4
90	5
93	48
94	2
97	6
99	2
101	129
103	83
105	14
109	19
111	6
112	5
113	3
115	2
116	112
117	4
118	36
119	5
125	2
131	6
132	23
134	15
135	189
136	6
137	60
143	2
147	121
148	5
149	39
150	3
151	348
152	8
153	224
154	5
155	37
163	40
164	2
165	26
167	7
169	3
179	26
181	26
182	90
183	12
184	58
185	3
186	10
197	3
198	12
199	2
200	12
202	4
213	2
217	26
219	25
221	8
267	2
269	2
