Mass Spectrum: 1H,1H-Perfluoro-1-heptanol
Formula: C7H3F13O
CAS: 375-82-6
Molecular weight: 350
m/z	intensity
49	184
50	47
51	103
52	2
61	174
62	49
63	19
64	43
65	4
69	999
70	11
71	10
81	101
82	15
83	16
93	137
94	12
95	39
96	1
97	10
98	3
99	10
100	440
101	16
119	211
120	5
131	582
132	20
133	7
150	12
151	2
162	13
163	18
164	1
169	34
170	2
175	11
176	1
181	46
182	3
213	12
214	1
219	7
220	1
231	7
232	1
261	6
262	1
263	21
264	1
300	4
311	2
331	3
351	1
352	1
