Mass Spectrum: 1,1,1,2,2,3,3-Heptafluoro-3-methoxypropane
Formula: C4H3F7O
CAS: 375-03-1
Molecular weight: 200
m/z	intensity
28	729
29	322
30	37
31	278
32	162
33	65
34	1
40	8
42	1
43	8
44	1
45	8
47	205
48	2
50	73
51	13
61	1
62	6
63	1
64	2
65	4
66	6
67	1
69	560
70	6
78	5
81	999
82	22
83	3
90	1
93	4
97	11
100	102
101	1
119	343
120	5
131	57
132	1
147	42
150	5
169	64
170	2
181	51
182	1
199	4
