Mass Spectrum: Endo-3-acetamidocamphor
Formula: C11H19NO
CAS: 3750-49-0
Molecular weight: 181
m/z	intensity
55	10
67	7
68	10
70	999
71	35
153	84
154	6
181	2
