Mass Spectrum: Acetic acid, (1-methyl-2(1H)-pyridinylidene)-, ethyl ester
Formula: C10H13NO2
CAS: 37515-50-7
Molecular weight: 179
m/z	intensity
63	50
65	60
77	170
78	260
79	110
91	60
92	70
104	70
106	300
107	999
108	130
118	50
119	40
122	50
134	799
135	130
179	669
180	80
