Mass Spectrum: 2,1,3-Benzoxadiazol-5-amine, N,N-dimethyl-, 1-oxide
Formula: C8H9N3O2
CAS: 3751-45-9
Molecular weight: 179
m/z	intensity
37	45
38	50
39	73
40	32
41	70
42	276
43	48
44	268
45	11
47	1
49	2
50	72
51	136
52	99
53	41
54	12
55	24
56	5
57	14
60	1
61	39
62	91
63	296
64	41
65	77
66	72
67	35
68	190
69	691
70	31
71	1
72	110
73	16
74	103
75	125
76	93
77	99
78	208
79	80
80	43
81	21
82	12
83	43
84	0
85	5
86	0
87	13
88	25
89	11
90	19
91	49
92	35
93	81
94	41
95	5
97	2
98	1
102	8
103	19
104	21
105	13
106	155
107	9
108	0
111	0
116	1
117	31
118	212
119	999
120	90
121	7
122	8
130	8
131	0
133	2
137	0
148	0
149	8
163	2
178	0
179	529
180	47
181	1
