Mass Spectrum: Acetamide, N-(3,4-dihydroxyphenyl)-
Formula: C8H9NO3
CAS: 37519-14-5
Molecular weight: 167
m/z	intensity
25	4
26	16
27	26
29	15
30	4
31	4
36	3
37	9
38	17
39	44
40	15
41	39
42	39
43	329
44	10
45	4
49	5
50	26
51	78
52	120
53	55
54	15
55	26
56	6
57	3
60	3
61	4
62	9
63	12
64	6
65	7
66	8
67	16
68	48
69	18
70	7
71	4
73	3
74	3
75	4
76	8
77	17
78	28
79	298
80	69
81	11
82	4
83	3
84	3
89	3
90	2
91	4
92	4
94	5
95	8
96	63
97	41
98	4
105	4
106	14
107	11
108	4
109	4
110	4
120	4
122	4
124	101
125	999
126	83
127	9
136	4
138	4
140	4
148	5
149	3
151	12
152	4
155	3
165	3
166	4
167	457
168	44
169	7
