Mass Spectrum: 2-Methyl-3-methoxy-6-phenyl-5-oxo-2,5-dihydro-1,2,4-triazine
Formula: C11H11N3O2
CAS: 37526-38-8
Molecular weight: 217
m/z	intensity
43	80
50	98
51	130
56	999
63	140
76	219
77	199
83	341
84	559
89	80
99	700
103	200
104	119
114	330
131	60
132	69
217	220
