Mass Spectrum: 2-Methyl-6-phenyl-3-thioxo-5-oxo-2,3,4,5-tetrahydro-1,2,4-triazine
Formula: C10H9N3OS
CAS: 37526-25-3
Molecular weight: 219
m/z	intensity
41	70
43	284
45	112
50	251
55	312
59	118
60	322
63	299
73	468
74	81
76	321
77	498
83	238
86	101
88	151
89	321
103	262
104	999
116	141
131	302
132	403
159	60
160	50
219	741
