Mass Spectrum: 2,4-Dimethyl-6-phenyl-3-thioxo-5-oxo-2,3,4,5-tetrahydro-1,2,4-triazine
Formula: C11H11N3OS
CAS: 37526-27-5
Molecular weight: 233
m/z	intensity
41	297
43	331
45	260
50	249
51	279
63	251
69	833
72	240
73	318
74	999
75	150
76	280
77	361
89	211
103	209
104	372
118	80
131	201
132	550
159	59
160	50
200	50
233	340
