Mass Spectrum: 2-Methyl-3-methylthio-6-phenyl-5-oxo-2,5-dihydro-1,2,4-triazine
Formula: C11H11N3OS
CAS: 37526-34-4
Molecular weight: 233
m/z	intensity
43	181
45	168
46	148
47	161
50	238
51	249
56	347
63	197
76	247
77	248
88	999
103	239
104	199
130	588
186	50
233	179
