Mass Spectrum: Glutaric acid, mono-phenyl ester
Formula: C11H12O4
CAS: 37526-03-7
Molecular weight: 208
m/z	intensity
25	0
26	8
27	86
28	3
29	13
30	1
31	15
34	0
35	0
36	0
37	3
38	2
39	93
40	9
41	73
42	99
43	168
44	7
45	126
46	3
47	1
49	1
50	8
51	25
52	1
53	3
54	1
55	149
56	5
57	4
58	32
59	3
60	47
61	1
62	3
63	11
64	6
65	65
66	37
67	2
68	7
69	13
70	7
71	2
73	27
74	2
75	1
76	1
77	47
78	4
79	1
80	0
81	0
83	0
84	0
85	4
86	99
87	154
88	8
89	1
91	2
92	1
93	8
94	999
95	73
96	4
97	24
98	1
100	0
103	0
104	0
105	0
107	0
108	0
109	0
110	0
111	0
113	1
114	38
115	72
116	4
117	0
119	0
121	2
122	0
124	0
129	0
132	0
133	0
134	0
136	0
141	0
145	0
147	2
148	0
149	3
150	0
162	1
163	6
164	0
168	0
170	0
173	1
175	0
177	0
190	0
191	20
192	2
193	0
205	0
208	5
209	0
