Mass Spectrum: 2-Butenoic acid, 3-methyl-, phenylmethyl ester
Formula: C12H14O2
CAS: 37526-89-9
Molecular weight: 190
m/z	intensity
26	18
27	121
28	13
29	135
30	3
31	9
33	1
35	2
36	33
37	6
38	38
39	174
40	21
41	37
42	11
43	29
44	31
45	3
49	5
50	44
51	91
52	29
53	49
54	11
55	181
56	29
57	2
60	3
61	3
62	12
63	37
64	9
65	121
66	10
67	8
68	1
69	8
73	2
74	6
75	16
76	3
77	93
78	21
79	49
80	4
82	25
83	999
84	65
85	2
86	2
89	27
90	45
91	726
92	54
93	2
94	1
95	2
101	1
103	1
104	2
105	21
106	2
107	53
108	10
109	1
144	15
145	52
146	3
175	4
176	1
190	58
191	4
