Mass Spectrum: 3-Methylthio-5-methoxy-6-phenyl-1,2,4-triazine
Formula: C11H11N3OS
CAS: 37526-35-5
Molecular weight: 233
m/z	intensity
45	49
47	50
50	80
51	69
63	260
69	98
89	999
103	130
104	98
117	388
132	649
218	49
233	507
234	72
235	27
