Mass Spectrum: 3-Methoxy-6-phenyl-5-oxo-4,5-dihydro-1,2,4-triazine
Formula: C10H9N3O2
CAS: 37526-36-6
Molecular weight: 203
m/z	intensity
42	371
50	160
51	179
58	238
62	138
63	219
69	407
70	999
76	279
77	346
89	748
100	446
103	576
104	677
118	79
203	328
