Mass Spectrum: 1,3-Diamino-7,8-dichlorobenzo[f]quinazoline
Formula: C12H8Cl2N4
CAS: 37521-57-6
Molecular weight: 278
m/z	intensity
41	38
42	219
43	999
44	48
47	7
49	13
50	70
51	60
52	69
53	64
54	6
55	21
56	26
58	6
60	7
61	73
62	133
63	130
64	67
65	29
66	8
67	7
68	109
69	85
70	14
72	39
73	102
74	172
75	123
76	86
77	46
78	12
80	10
81	26
82	25
83	21
84	35
85	83
86	150
87	149
88	116
89	40
91	97
93	11
94	9
95	47
96	30
97	65
98	93
99	100
100	123
101	38
102	11
103	12
104	110
105	5
106	25
108	121
109	56
110	44
111	86
112	80
113	69
114	25
115	5
118	12
120	14
122	676
123	183
124	62
125	29
126	21
127	11
128	5
131	7
132	6
133	8
134	7
135	11
136	20
137	20
138	192
139	145
140	108
141	15
146	5
147	69
148	51
149	43
150	27
151	10
152	12
153	11
154	6
157	6
158	6
159	32
160	30
161	27
162	8
163	31
164	32
165	56
166	38
167	8
168	5
172	56
173	81
174	198
175	51
176	60
177	6
180	45
181	20
182	30
183	36
184	21
185	91
186	11
187	41
188	12
189	20
190	9
191	13
194	26
196	11
197	5
198	8
199	92
200	29
201	46
202	220
203	33
204	65
205	5
207	15
208	148
209	36
210	73
211	23
212	8
214	8
216	7
220	5
222	5
223	11
225	8
226	29
227	19
228	6
235	6
236	154
237	123
238	111
239	73
240	18
241	7
242	55
243	94
244	47
245	31
246	5
250	0
251	0
252	0
253	0
260	9
261	71
262	20
263	50
265	7
277	165
278	866
279	236
280	593
281	101
282	89
283	7
