Mass Spectrum: Bicyclo[2.1.1]hexane-1-carboxylic acid, 5,5-dimethyl-
Formula: C9H14O2
CAS: 3753-38-6
Molecular weight: 154
m/z	intensity
26	19
27	165
28	38
29	151
30	9
31	50
36	3
37	7
38	24
39	341
40	77
41	999
42	94
43	490
44	48
45	88
46	10
47	9
50	23
51	59
52	29
53	139
54	40
55	331
56	82
57	43
58	20
59	186
60	19
61	9
62	10
63	22
64	5
65	100
66	62
67	676
68	105
69	996
70	83
71	29
72	10
73	57
74	6
75	3
76	3
77	91
78	22
79	97
80	24
81	93
82	51
83	75
84	45
85	31
86	34
87	15
88	22
89	7
91	77
92	15
93	158
94	71
95	412
96	53
97	60
98	28
99	26
100	14
101	12
103	3
105	9
106	3
107	30
108	75
109	252
110	57
111	86
112	271
113	141
114	21
115	5
116	4
119	2
121	34
122	7
123	7
124	9
125	72
126	41
127	11
128	5
129	5
135	4
136	33
137	18
138	5
139	122
140	22
141	4
152	3
153	6
154	37
155	7
156	2
