Mass Spectrum: 1-Oxaspiro[2.5]octane, 2-phenyl-
Formula: C13H16O
CAS: 37545-92-9
Molecular weight: 188
m/z	intensity
15	41
18	14
23	15
24	16
25	21
30	25
34	5
36	9
37	9
38	23
41	6
42	28
43	13
48	10
49	6
50	17
55	13
58	7
60	6
63	16
64	10
65	29
67	93
68	21
69	16
71	12
75	11
77	93
78	36
79	100
81	39
82	17
83	10
84	33
85	11
89	191
90	158
91	999
92	139
96	18
97	84
103	29
104	44
105	140
106	30
107	297
108	21
110	20
114	12
115	45
116	29
117	83
118	39
120	105
121	25
123	12
127	21
128	46
129	164
130	59
131	81
132	44
133	33
134	10
141	62
142	147
143	43
144	111
145	121
146	49
148	12
152	11
154	11
155	32
156	16
157	60
158	18
159	127
160	23
165	8
168	17
169	77
170	91
173	17
174	12
183	12
187	112
188	531
189	116
190	6
