Mass Spectrum: Disilane, pentaethyl-
Formula: C10H26Si2
CAS: 3754-74-3
Molecular weight: 202
m/z	intensity
26	12
27	19
28	13
29	40
30	5
31	113
33	2
36	0
37	0
38	0
39	2
40	3
41	3
42	3
43	67
44	12
45	54
46	3
47	2
49	1
50	0
51	1
52	0
53	7
54	2
55	37
56	18
57	137
58	84
59	409
60	37
61	35
62	3
63	1
66	7
67	2
68	1
69	14
70	4
71	9
72	4
73	17
74	4
75	6
76	1
77	0
78	0
79	1
80	0
81	4
82	2
83	14
84	6
85	52
86	61
87	999
88	114
89	152
90	20
91	9
92	0
94	3
95	2
97	1
99	3
100	1
101	5
102	1
103	3
104	1
105	1
110	1
111	1
113	7
114	55
115	784
116	107
117	202
118	28
119	11
121	2
129	2
130	1
131	2
132	1
133	1
143	2
144	7
145	128
146	23
147	11
148	1
157	0
172	4
173	75
174	14
175	6
201	3
202	94
203	21
204	8
205	1
