Mass Spectrum: Androst-5-en-17-one, 3-spiro-2'-1,3-dioxalane-
Formula: C21H30O3
CAS: 3754-63-0
Molecular weight: 330
m/z	intensity
33	0
36	0
37	1
38	5
39	170
41	436
42	226
43	179
44	29
45	157
46	2
47	0
48	0
50	5
51	30
52	29
53	155
55	583
56	72
57	26
58	3
59	1
60	0
61	0
63	13
65	71
66	40
67	156
68	42
69	33
70	4
71	3
73	13
74	0
76	4
77	143
78	53
79	183
80	32
81	62
82	8
83	6
84	3
86	220
87	10
89	5
91	194
92	32
93	68
94	27
95	23
96	5
97	12
99	999
100	65
101	10
102	6
103	24
104	17
105	89
106	19
107	29
108	9
109	6
110	1
111	1
112	1
113	1
115	36
116	13
117	38
118	14
119	36
120	12
121	10
122	3
123	3
124	1
125	2
126	1
127	9
128	26
129	25
130	8
131	31
132	11
133	10
134	3
135	4
136	0
137	1
138	0
139	1
140	1
141	11
142	7
143	11
144	6
145	17
146	4
147	4
148	0
149	1
150	1
151	1
152	2
153	5
154	1
155	5
156	3
157	7
158	2
159	14
160	3
161	1
163	1
164	0
165	2
166	1
167	1
168	0
169	2
170	1
171	5
172	3
173	5
174	1
175	1
176	0
177	1
179	1
180	1
181	0
182	0
183	1
184	0
185	1
186	1
187	1
188	0
189	1
191	0
193	0
195	0
197	0
198	0
199	0
201	0
202	0
203	0
205	0
211	0
213	0
215	1
216	0
227	0
229	0
274	0
287	0
315	0
330	3
331	0
