Mass Spectrum: Phorbol 12,13-dihexanoate
Formula: C32H48O8
CAS: 37558-17-1
Molecular weight: 560
m/z	intensity
25	3
26	16
27	103
28	140
29	168
30	8
31	20
32	8
36	3
38	11
39	163
40	28
41	315
42	111
43	999
44	63
45	31
46	3
47	3
48	3
50	8
51	31
52	16
53	171
54	28
55	250
56	56
57	80
58	20
59	31
60	280
61	20
62	3
63	16
64	3
65	48
66	16
67	70
68	16
69	335
70	43
71	563
72	28
73	120
74	20
75	8
76	3
77	88
78	28
79	60
80	23
81	56
82	48
83	420
84	31
85	30
86	3
87	40
88	8
89	8
90	3
91	130
92	155
93	80
94	23
95	91
96	31
97	30
98	20
99	827
100	60
101	16
102	8
103	20
104	11
105	88
106	28
107	108
108	40
109	220
110	43
111	56
112	43
113	11
114	23
115	40
116	20
117	43
118	11
119	63
120	36
121	150
122	68
123	88
124	60
125	103
126	11
127	10
128	31
129	40
130	16
131	43
132	23
133	60
134	31
135	48
136	48
137	48
138	56
139	60
140	16
141	28
142	28
143	36
144	16
145	50
146	31
147	68
148	36
149	48
150	28
151	30
152	23
153	20
154	8
155	20
156	16
157	30
158	31
159	63
160	31
161	71
162	48
163	40
164	23
165	36
166	23
167	40
168	43
169	20
170	16
171	40
172	43
173	111
174	36
175	40
176	31
177	40
178	28
179	48
180	20
181	20
182	11
183	28
184	16
185	36
186	31
187	50
188	31
189	43
190	31
191	51
192	16
193	20
194	11
195	23
196	23
197	36
198	31
199	50
200	36
201	36
202	20
203	36
204	23
205	20
206	16
207	20
208	36
209	28
210	48
211	40
212	28
213	56
214	51
215	88
216	31
217	30
218	23
219	23
220	11
221	20
222	43
223	40
224	23
225	40
226	20
227	68
228	51
229	20
230	11
231	31
232	20
233	23
234	8
235	10
236	11
237	23
238	11
239	28
240	20
241	40
242	23
243	20
244	20
245	20
246	11
248	3
249	16
250	8
251	31
252	20
253	20
254	23
255	20
256	8
257	16
258	11
259	40
260	11
261	8
262	16
263	20
264	16
265	20
266	20
267	36
268	16
269	23
270	16
281	30
282	56
283	28
284	11
285	20
286	8
288	8
289	3
290	8
291	11
292	43
293	20
294	11
295	36
296	11
297	20
298	16
299	20
300	36
301	11
302	3
303	11
304	3
306	3
307	3
308	16
309	43
310	200
311	80
312	28
313	20
314	8
315	3
316	3
318	8
319	3
320	3
321	3
322	8
324	3
325	3
326	16
327	48
328	200
329	60
330	16
331	3
332	3
333	3
334	3
336	3
337	3
338	3
339	3
340	3
342	8
343	3
344	3
345	16
346	16
348	3
349	3
350	3
351	3
352	3
354	3
355	3
356	3
357	8
358	3
360	3
361	3
362	3
363	3
364	3
366	3
367	3
368	3
369	3
370	3
372	3
373	3
374	3
375	3
376	3
378	3
379	3
380	3
381	3
382	3
384	3
385	3
386	3
387	3
388	3
390	3
391	3
392	3
393	3
394	3
396	3
397	3
398	3
399	3
400	3
402	3
403	3
404	3
406	3
407	3
409	3
410	3
411	3
412	3
413	3
415	3
416	3
417	3
419	3
420	3
422	3
424	3
425	3
426	43
427	16
429	3
430	3
431	3
435	3
436	3
443	11
444	23
445	68
446	20
447	3
450	3
460	3
461	3
462	3
463	3
471	3
472	3
478	3
489	3
490	3
524	3
542	3
543	3
560	8
