Mass Spectrum: exo-Norborneol, TMS derivative
Formula: C10H20OSi
CAS: 37555-26-3
Molecular weight: 184
m/z	intensity
14	1
15	4
26	2
27	27
28	12
29	29
30	2
31	8
33	1
38	3
39	74
40	13
41	119
42	16
43	69
44	36
45	204
46	13
47	65
48	4
49	3
50	3
51	12
52	6
53	40
54	13
55	47
56	7
57	23
58	20
59	115
60	16
61	59
62	6
63	8
64	2
65	35
66	374
67	138
68	17
69	6
70	10
71	14
72	21
73	728
74	70
75	999
76	74
77	78
78	12
79	254
80	20
81	6
82	5
83	5
85	15
86	2
87	8
88	2
89	29
90	4
91	31
92	4
93	71
94	699
95	80
96	4
97	7
98	2
99	30
100	5
101	184
102	21
103	31
104	4
105	1
107	1
109	4
110	2
111	12
112	2
113	12
114	4
115	22
116	62
117	18
118	4
119	1
121	1
123	3
124	1
125	6
126	1
127	24
128	5
129	83
130	33
131	7
132	1
135	1
137	1
139	8
140	3
141	44
142	35
143	23
144	4
145	1
149	1
151	41
152	5
153	2
155	119
156	44
157	9
158	1
167	2
168	1
169	377
170	56
171	15
172	2
181	1
183	20
184	120
185	21
186	6
187	1
