Mass Spectrum: exo-Borneol, TMS derivative
Formula: C13H26OSi
CAS: 37555-29-6
Molecular weight: 226
m/z	intensity
26	15
27	89
29	89
31	9
36	4
37	2
38	9
39	115
40	31
41	260
42	28
43	148
44	49
45	172
46	10
47	49
50	9
51	25
52	15
53	69
54	19
55	128
56	8
57	25
58	17
59	89
60	17
61	38
62	2
63	8
64	2
65	25
66	11
67	107
68	33
69	67
70	14
71	14
72	16
73	548
74	52
75	431
76	29
77	76
78	29
79	85
80	35
81	65
82	22
83	22
84	8
85	6
88	2
89	5
91	49
92	39
93	222
94	45
95	999
96	80
97	6
98	2
99	6
101	146
102	17
103	17
104	2
105	16
106	2
107	57
108	441
109	71
110	108
111	17
113	4
115	3
116	135
117	239
118	30
119	11
121	279
122	26
123	2
125	2
127	7
128	2
129	30
130	4
131	3
135	8
136	305
137	38
138	2
139	4
141	9
142	84
143	43
144	59
145	9
146	2
147	2
155	104
156	17
157	15
158	4
169	4
170	2
171	12
172	2
183	15
184	2
197	3
198	3
211	35
212	4
225	4
226	188
227	37
228	5
