Mass Spectrum: N(6)-Carbobenzyloxy-N(2)-p-toluenesulfonyl-l-lysine, ethyl ester
Formula: C23H30N2O6S
CAS: 3756-65-8
Molecular weight: 462
m/z	intensity
42	45
43	81
44	22
45	6
46	7
47	7
48	3
52	4
53	4
54	6
55	18
56	74
57	22
58	6
59	3
62	2
63	9
64	2
65	59
66	4
67	9
68	5
69	11
70	20
71	17
72	29
73	3
74	28
75	2
76	1
77	22
78	7
79	21
80	3
81	5
82	54
83	21
84	315
85	15
86	32
87	0
88	5
89	22
90	24
91	999
92	46
93	3
95	4
96	2
97	6
98	4
99	16
100	11
101	12
102	23
103	8
104	3
105	8
106	7
107	21
108	32
109	5
110	5
111	5
112	3
113	2
114	2
115	2
116	6
117	6
118	4
119	3
120	3
121	1
123	2
124	2
125	5
126	4
127	33
128	81
129	9
130	8
131	4
132	2
133	2
135	2
137	1
138	2
139	2
140	1
141	2
143	4
144	10
145	4
146	4
147	1
149	5
150	1
151	1
152	1
153	2
154	2
155	2
156	86
157	13
158	3
159	1
161	0
164	4
165	2
166	1
167	1
169	2
171	11
172	3
173	0
174	271
175	34
176	2
178	0
179	0
180	0
183	1
189	1
191	1
200	16
201	9
202	2
203	0
204	0
205	0
207	1
212	2
217	28
218	7
219	2
225	1
233	0
235	657
236	93
237	10
238	1
239	0
261	0
262	5
276	0
279	2
291	2
308	18
309	7
462	2
