Mass Spectrum: Methanone, (4-chloro-3-nitrophenyl)(4-nitrophenyl)-
Formula: C13H7ClN2O5
CAS: 37567-38-7
Molecular weight: 306
m/z	intensity
33	65
35	24
36	38
37	45
38	115
39	134
40	197
41	47
42	28
43	32
44	55
46	337
49	38
50	771
51	122
52	30
53	80
55	11
57	19
60	8
61	31
62	105
63	270
64	127
65	54
66	10
69	7
72	6
73	78
74	626
75	999
76	914
77	100
78	9
79	2
80	7
84	97
85	21
86	49
87	40
88	21
89	27
90	42
92	459
93	37
97	10
98	50
99	39
100	6
101	16
102	3
103	58
104	532
105	35
107	3
108	5
109	73
110	417
111	58
112	135
113	18
120	186
121	6
122	16
123	18
124	5
125	15
126	64
127	3
128	16
135	4
136	10
138	449
139	164
140	150
141	13
148	4
150	944
151	128
152	7
154	11
156	2
160	2
164	4
167	9
173	12
174	5
179	3
184	599
185	56
186	243
187	24
188	18
202	12
204	2
213	2
214	24
216	6
230	2
248	6
260	4
276	5
289	3
304	5
306	199
307	24
308	50
