Mass Spectrum: Benzenemethanol, .alpha.-(1-aminoethyl)-, [R-(R*,R*)]-
Formula: C9H13NO
CAS: 37577-07-4
Molecular weight: 151
m/z	intensity
15	4
27	10
28	9
29	6
30	6
35	10
36	97
37	3
38	31
39	9
40	1
41	3
42	17
43	9
44	999
45	30
50	7
51	21
52	6
53	4
55	1
56	1
57	1
58	1
62	1
63	4
64	1
65	3
74	2
75	1
76	1
77	46
78	9
79	35
80	2
89	3
90	2
91	8
92	1
103	1
105	9
106	2
107	12
108	2
115	1
117	5
118	5
119	1
132	2
133	1
134	1
