Mass Spectrum: 1-(Methoxymethoxy)-3-methyl-3-hydroxybutane
Formula: C7H16O3
CAS: 37587-78-3
Molecular weight: 148
m/z	intensity
25	135
26	34
27	147
29	313
30	77
31	295
32	23
36	5
37	9
38	20
39	168
40	46
41	348
42	66
43	610
44	103
45	999
46	29
47	12
50	22
51	29
52	18
53	62
54	9
55	94
56	88
57	92
58	155
59	553
60	26
61	55
62	5
65	9
66	13
67	71
68	73
69	218
70	145
71	255
72	53
73	47
74	7
75	38
76	6
77	19
78	75
79	8
81	12
82	4
83	30
84	12
85	45
86	183
87	29
88	4
89	5
91	5
97	10
98	29
99	53
100	18
102	20
103	75
104	5
112	7
115	9
116	4
117	4
118	3
119	1
121	1
123	1
127	2
128	1
129	1
133	2
