Mass Spectrum: 4,4,6-Trimethyl-2-[p-ethoxyphenylamino]-4H-1,3-thiazine
Formula: C15H20N2OS
CAS: 37591-11-0
Molecular weight: 276
m/z	intensity
37	59
38	104
39	368
41	255
42	114
43	139
49	39
50	244
51	301
52	299
53	226
54	44
55	119
56	46
57	35
58	67
59	271
60	41
61	36
62	36
63	109
64	67
65	176
66	49
67	71
68	44
69	44
70	26
71	44
72	24
73	49
74	68
75	37
76	80
80	72
81	140
82	49
83	44
84	47
85	34
86	14
90	33
91	32
92	15
93	22
94	49
95	27
96	31
97	99
98	39
99	306
100	53
101	22
102	8
103	10
104	14
105	106
106	33
107	65
108	114
109	39
110	19
111	65
112	60
113	345
114	999
115	199
116	69
117	43
118	12
119	31
120	13
121	8
122	24
123	10
124	46
125	22
128	23
131	13
132	41
133	158
134	621
135	121
136	27
137	34
138	9
139	11
140	12
143	13
147	14
148	21
149	21
150	20
151	34
152	41
153	9
154	9
162	380
163	104
164	17
167	25
178	15
179	32
180	9
196	11
203	31
204	19
205	14
213	10
231	9
232	23
233	12
247	36
248	20
261	520
262	90
276	213
277	38
