Mass Spectrum: Dicyclohexylmethylsilane
Formula: C13H26Si
CAS: 37591-76-7
Molecular weight: 210
m/z	intensity
26	2
27	16
28	5
29	25
30	1
31	8
33	0
37	0
38	1
39	44
40	5
41	147
42	15
43	144
44	28
45	313
46	18
47	9
50	1
51	4
52	3
53	56
54	42
55	116
56	12
57	24
58	24
59	158
60	12
61	5
63	0
65	10
66	32
67	205
68	14
69	20
70	16
71	100
72	37
73	50
74	5
75	2
77	21
78	5
79	117
80	147
81	534
82	635
83	99
84	17
85	168
86	23
87	8
88	0
91	1
93	2
94	0
95	16
96	4
97	115
98	108
99	999
100	141
101	42
102	3
105	1
106	0
107	1
109	8
110	1
111	47
112	8
113	35
114	4
115	1
123	2
124	4
125	10
126	273
127	462
128	588
129	83
130	23
131	2
167	0
194	3
195	7
196	1
208	7
209	10
210	271
211	50
212	12
213	1
