Mass Spectrum: 1H-Pyrazol-4-ylmethanamine
Formula: C4H7N3
CAS: 37599-59-0
Molecular weight: 97
m/z	intensity
30	81
35	12
36	19
37	11
38	36
39	206
40	168
41	192
42	333
43	53
44	24
45	2
47	1
48	4
49	3
50	32
51	64
52	242
53	83
54	383
55	33
56	1
60	3
62	1
63	3
64	8
65	13
66	36
67	67
68	41
69	483
70	52
73	0
76	1
77	2
78	1
79	7
80	30
81	999
82	70
83	2
84	2
90	1
91	1
92	3
93	13
94	57
95	28
96	925
97	592
98	18
