Mass Spectrum: 3-[4-Trifluoromethylphenyl]phthalide
Formula: C15H9F3O2
CAS: 37599-63-6
Molecular weight: 278
m/z	intensity
41	2
43	1
45	3
50	142
51	142
52	9
53	5
55	2
57	11
61	6
62	30
63	52
65	6
69	48
74	41
75	61
76	144
77	227
78	16
80	0
81	8
82	12
83	1
85	4
86	13
87	18
88	7
89	10
90	1
91	5
92	2
93	1
94	6
95	28
96	5
98	8
99	11
100	6
101	2
102	1
103	1
104	228
105	999
106	65
107	12
109	0
110	4
111	4
113	7
114	3
115	13
116	0
117	0
119	3
120	2
122	3
123	3
125	27
126	16
127	11
129	2
132	33
133	138
134	9
135	0
137	4
138	3
139	11
140	1
141	0
143	4
145	76
146	4
149	8
150	5
151	16
152	51
153	9
154	0
155	1
156	1
157	5
161	3
162	6
163	28
164	16
165	112
166	13
167	1
168	2
169	4
170	5
173	33
174	1
175	6
180	3
181	26
182	2
183	29
184	3
186	2
187	2
188	3
193	5
194	2
195	1
199	0
200	1
201	40
202	5
203	0
205	0
206	2
207	2
209	103
210	11
211	1
212	7
214	14
215	1
219	4
220	3
221	2
229	3
230	2
232	11
233	25
234	5
249	25
250	5
257	5
259	60
260	8
262	5
277	33
278	184
279	48
280	3
