Mass Spectrum: 1H,1H,9H-Hexadecafluoro-1-nonanol
Formula: C9H4F16O
CAS: 376-18-1
Molecular weight: 432
m/z	intensity
14	2
16	2
18	2
28	6
29	91
31	999
32	15
33	31
42	3
44	0
45	3
47	2
49	104
51	213
52	2
61	62
62	7
63	4
64	5
67	3
69	131
70	1
74	1
75	8
79	5
80	8
81	29
82	16
83	7
91	4
93	17
94	2
95	15
97	6
99	7
100	52
101	42
109	1
111	15
112	5
113	48
114	2
117	2
119	21
124	1
125	2
131	188
132	6
133	3
141	3
142	1
143	4
144	3
145	2
150	1
151	18
161	5
162	7
163	11
169	5
173	1
175	3
181	17
193	5
201	2
207	1
213	4
225	4
231	5
263	5
275	3
281	1
295	1
343	3
345	14
363	2
382	8
393	2
413	5
