Mass Spectrum: 5-Cyclohexadecen-1-one
Formula: C16H28O
CAS: 37609-25-9
Molecular weight: 236
m/z	intensity
14	2
15	9
16	2
17	3
18	9
25	1
26	9
27	215
28	58
29	290
30	7
31	9
32	1
36	1
37	2
38	5
39	267
40	55
41	999
42	147
43	281
44	11
45	10
46	2
47	3
48	2
49	1
50	6
51	25
52	19
53	184
54	423
55	833
56	107
57	100
58	237
59	54
60	4
61	2
62	2
63	6
64	2
65	54
66	63
67	740
68	598
69	348
70	97
71	404
72	34
73	9
74	1
75	1
76	2
77	63
78	35
79	257
80	273
81	634
82	426
83	269
84	288
85	72
86	8
87	4
88	1
89	1
90	1
91	67
92	44
93	179
94	211
95	461
96	276
97	330
98	199
99	39
100	7
101	1
102	1
103	3
104	5
105	45
106	29
107	134
108	143
109	234
110	125
111	158
112	62
113	17
114	4
115	4
116	2
117	7
118	6
119	44
120	28
121	145
122	115
123	142
124	77
125	77
126	27
127	9
128	4
129	3
130	1
131	7
132	3
133	53
134	29
135	118
136	68
137	83
138	36
139	34
140	16
141	9
142	1
143	2
144	1
145	4
146	2
147	45
148	21
149	65
150	31
151	46
152	40
153	18
154	19
155	9
156	1
157	1
158	1
159	2
160	1
161	35
162	17
163	24
164	18
165	43
166	16
167	9
168	7
169	5
170	1
171	1
173	2
174	1
175	28
176	17
177	9
178	36
179	25
180	11
181	11
182	3
185	1
187	1
189	20
190	7
191	3
192	4
193	36
194	16
195	16
196	3
203	7
204	2
205	1
206	1
207	30
208	10
209	2
211	2
216	1
217	1
218	19
219	5
220	2
221	16
222	3
228	1
229	1
230	1
231	1
232	2
233	1
234	5
235	5
236	269
237	53
238	6
