Mass Spectrum: 2-Butanol, 1-(dimethylamino)-
Formula: C6H15NO
CAS: 3760-96-1
Molecular weight: 117
m/z	intensity
29	25
30	50
31	10
39	15
40	40
41	35
42	75
43	30
44	70
45	15
55	15
56	15
57	25
58	999
59	40
69	15
84	15
86	10
88	75
117	30
