Mass Spectrum: 1-Butanone, 4-(dimethylamino)-1-phenyl-
Formula: C12H17NO
CAS: 3760-63-2
Molecular weight: 191
m/z	intensity
41	39
42	126
43	48
44	44
45	1
51	61
52	2
57	23
58	999
59	28
70	29
71	720
72	43
73	3
77	145
78	9
86	2
87	1
105	78
106	5
120	3
121	1
190	5
191	23
192	3
