Mass Spectrum: Phosphorothioic acid, O,O-dimethyl O-[3-methyl-4-(methylsulfonyl)phenyl] ester
Formula: C10H15O5PS2
CAS: 3761-42-0
Molecular weight: 310
m/z	intensity
40	14
41	9
43	34
45	68
47	315
48	3
49	8
50	30
51	127
52	73
53	10
57	0
58	2
59	1
61	2
62	112
63	340
64	46
65	68
66	26
67	10
68	0
69	11
70	0
71	1
72	0
73	0
74	6
75	7
76	12
77	111
78	105
79	368
80	7
82	1
83	0
87	0
89	110
90	23
91	26
93	413
94	21
95	21
96	0
97	3
99	1
100	0
102	3
103	20
104	101
105	272
106	30
107	17
109	702
110	42
111	12
113	0
115	0
116	0
117	0
118	1
119	9
120	22
121	143
122	27
123	51
125	999
126	25
127	54
128	0
129	0
130	0
134	2
135	18
136	352
137	172
138	46
139	55
140	29
141	1
142	0
143	0
149	3
150	2
151	4
152	2
153	31
154	16
155	14
157	0
158	0
167	21
168	19
169	43
170	3
171	20
172	0
173	1
174	1
182	14
183	17
184	8
185	10
186	11
187	2
188	0
197	0
198	0
199	15
200	52
201	19
202	14
203	0
204	0
213	2
214	4
215	19
216	34
217	3
219	0
230	6
231	74
232	11
233	2
234	0
245	1
246	23
247	50
248	4
263	2
265	4
277	3
278	2
279	17
281	1
294	1
295	9
297	0
309	2
310	419
311	48
312	40
313	1
