Mass Spectrum: Hexahydro-1-oxa-cyclopropa[d]inden-2-one
Formula: C9H12O2
CAS: 37643-23-5
Molecular weight: 152
m/z	intensity
26	21
27	243
28	45
29	125
31	18
38	26
39	283
40	76
41	335
42	69
43	102
44	14
45	11
50	29
51	70
52	47
53	193
54	71
55	275
56	88
57	46
63	27
64	13
65	95
66	91
67	456
68	102
69	158
70	18
75	11
77	121
78	45
79	412
80	172
81	564
82	126
83	30
84	16
91	56
92	49
93	52
94	30
95	519
96	256
97	999
98	99
102	12
105	87
106	31
107	38
108	70
109	60
110	35
121	12
123	400
124	188
125	18
134	21
152	270
153	29
