Mass Spectrum: Ethyl 5-methyl-1,3,4-oxadiazole-2-carboxylate
Formula: C6H8N2O3
CAS: 37641-36-4
Molecular weight: 156
m/z	intensity
27	98
28	63
29	287
34	6
36	1
37	1
38	7
39	25
40	110
41	71
42	634
43	928
44	104
45	86
46	3
49	4
53	10
54	51
55	68
56	270
57	26
58	5
59	1
67	1
68	5
69	19
70	137
71	26
72	2
81	1
82	7
83	999
84	143
85	28
86	2
87	3
97	1
98	42
99	3
110	1
111	118
112	179
113	28
114	1
127	1
128	50
129	2
130	1
141	11
155	3
156	215
157	19
158	1
