Mass Spectrum: 1-Methoxy-5-azabicyclo[2.2.0]hex-2-en-6-one
Formula: C7H9NO2
CAS: 37657-11-7
Molecular weight: 139
m/z	intensity
27	178
29	30
38	66
39	542
40	44
41	158
42	363
51	36
52	53
53	61
54	39
55	283
56	51
66	37
67	56
68	74
69	26
78	11
79	9
80	23
81	35
82	999
83	65
93	27
94	13
95	7
96	166
97	21
108	36
109	91
110	164
111	16
122	11
124	39
125	51
136	10
138	131
139	38
140	4
