Mass Spectrum: Formazine, 1,5-diphenyl-3-(5-nitrofuran-2-yl)-
Formula: C17H13N5O3
CAS: 37654-68-5
Molecular weight: 335
m/z	intensity
37	14
38	31
39	102
40	11
41	10
42	5
43	2
44	9
46	3
50	54
51	187
52	31
53	6
54	12
55	1
56	0
57	0
58	0
61	2
62	8
63	38
64	90
65	433
66	32
67	4
68	5
69	0
70	0
72	2
73	8
74	11
75	12
77	547
78	34
79	5
80	5
82	5
84	0
85	0
86	0
87	1
88	1
89	5
92	999
93	68
94	3
96	5
97	0
98	0
99	0
100	0
101	2
102	5
103	6
105	81
106	5
107	0
108	1
109	0
112	0
113	1
114	2
115	10
116	2
117	2
118	2
119	1
120	0
121	1
122	0
125	0
126	3
127	6
128	5
129	4
130	5
131	1
132	0
137	0
138	1
139	4
140	4
141	5
142	3
143	4
144	2
145	1
146	1
147	0
150	0
151	1
152	5
153	4
154	3
155	19
156	8
157	2
158	1
159	0
163	0
164	0
165	3
166	4
167	17
168	14
169	6
170	1
171	2
172	0
173	0
176	0
177	0
178	0
180	2
181	2
182	1
183	2
184	2
185	0
186	0
187	0
188	0
189	0
190	0
191	1
192	1
193	1
194	2
195	2
196	0
197	1
198	0
199	0
200	0
201	0
202	1
203	0
204	1
205	0
206	1
207	0
208	0
209	0
210	0
211	0
213	13
214	2
215	2
216	0
217	1
218	1
219	1
220	1
221	0
222	0
223	0
224	0
226	1
227	0
229	13
230	91
231	19
232	4
233	2
234	1
235	0
236	0
240	0
241	0
242	0
243	1
244	1
245	1
246	2
247	1
248	1
249	0
254	0
256	1
257	1
258	19
259	6
260	2
261	4
262	1
263	0
264	0
269	0
270	0
271	0
272	0
273	0
274	0
275	0
276	0
277	0
278	0
283	0
288	0
289	0
290	1
291	0
292	0
295	0
296	0
297	0
301	0
302	0
303	3
304	0
305	0
306	3
307	14
308	3
309	1
311	0
319	0
320	0
321	0
322	2
323	1
324	1
325	0
331	0
335	300
336	55
337	7
338	5
339	1
340	0
