Mass Spectrum: L-Norleucinamide, 5-oxo-L-prolyl-L-histidyl-
Formula: C17H26N6O4
CAS: 37666-93-6
Molecular weight: 378
m/z	intensity
41	480
42	100
43	360
54	760
55	140
56	280
69	120
81	999
82	940
84	760
86	720
93	100
94	140
97	80
109	80
110	260
113	80
120	150
122	120
123	70
136	80
137	110
141	180
149	60
152	80
164	50
168	20
170	80
181	140
203	80
207	80
217	100
220	110
221	210
231	120
232	260
234	200
248	70
249	100
250	90
262	600
263	480
315	340
316	120
343	360
344	140
360	40
361	30
378	70
379	10
