Mass Spectrum: L-Norvalinamide, 5-oxo-L-prolyl-L-histidyl-
Formula: C16H24N6O4
CAS: 37666-91-4
Molecular weight: 364
m/z	intensity
41	330
42	230
43	280
44	350
54	170
55	200
56	230
71	140
72	650
80	60
81	530
82	530
83	70
84	999
85	50
93	50
94	120
95	130
108	70
109	90
110	120
111	90
120	60
121	80
122	90
123	50
127	60
130	50
132	70
156	60
189	50
205	90
206	20
219	20
220	40
221	20
230	20
232	10
236	50
248	50
249	40
329	40
364	10
365	10
