Mass Spectrum: Buturon
Formula: C12H13ClN2O
CAS: 3766-60-7
Molecular weight: 236
m/z	intensity
15	20
26	17
27	113
28	76
29	11
30	35
32	5
36	5
37	42
38	56
39	119
40	25
41	69
42	132
43	9
44	8
49	24
50	89
51	106
52	77
53	999
54	60
55	17
56	89
57	17
58	135
60	4
61	35
62	66
63	159
64	77
65	39
66	58
67	27
68	381
69	121
70	3
72	12
73	59
74	32
75	102
76	27
77	13
80	10
81	44
82	60
83	25
84	6
85	9
86	5
87	10
88	19
89	45
90	201
91	53
92	20
97	4
98	23
99	146
100	29
101	50
102	21
109	3
110	268
111	92
112	7
113	28
115	18
116	9
117	13
124	10
125	201
126	118
127	218
128	60
129	71
130	8
137	9
138	12
140	8
142	6
143	39
144	50
145	9
148	8
151	27
153	330
154	38
155	105
156	11
164	101
165	15
166	33
167	3
173	6
178	25
179	35
180	13
181	10
185	16
186	28
207	28
209	3
221	134
222	23
223	46
224	3
235	39
236	214
237	42
238	68
239	11
