Mass Spectrum: Dicyclobutylidene oxide
Formula: C8H12O
CAS: 37677-06-8
Molecular weight: 124
m/z	intensity
51	50
52	20
53	200
54	160
55	290
56	50
57	30
65	40
66	100
67	800
68	999
69	60
70	20
77	50
78	30
79	100
80	110
81	210
82	60
83	50
93	20
95	290
96	560
97	50
109	70
123	60
124	670
125	59
126	2
