Mass Spectrum: 2-Oxo-5-nitro-4,6-diphenyl-1,2,3,4-tetrahydropyrimidine
Formula: C16H13N3O3
CAS: 37673-85-1
Molecular weight: 295
m/z	intensity
63	119
64	61
65	99
69	88
71	49
74	58
75	115
76	245
77	999
78	201
79	100
80	63
89	188
90	100
91	74
101	69
102	243
103	164
104	629
105	146
106	72
115	55
116	134
117	129
118	30
124	63
128	142
129	83
130	49
131	33
132	74
141	36
144	60
151	27
152	48
165	46
171	544
172	166
173	47
176	36
177	38
178	81
179	34
187	38
204	89
205	82
206	63
207	34
218	665
219	106
220	38
247	680
248	324
249	165
250	42
251	62
262	39
278	682
279	144
280	27
294	23
295	60
296	20
