Mass Spectrum: 2(1H)-Pyrimidinone, 5-nitro-4,6-diphenyl-
Formula: C16H11N3O3
CAS: 37673-86-2
Molecular weight: 293
m/z	intensity
63	1
64	45
65	71
67	24
68	22
69	24
70	21
74	28
75	81
76	164
77	696
78	105
79	47
80	49
81	366
82	49
88	61
89	178
90	64
91	72
92	53
101	49
102	57
103	236
104	999
105	203
106	41
108	28
109	137
110	21
114	28
115	89
116	60
117	40
118	37
119	38
120	52
127	33
128	32
129	43
130	30
131	40
132	29
133	20
136	28
141	25
143	26
144	29
147	25
151	19
152	17
156	30
157	49
158	53
159	20
162	23
163	17
164	16
165	34
166	20
173	30
176	29
184	35
185	27
190	47
191	25
192	19
193	36
194	25
195	25
202	21
203	34
204	42
205	27
208	26
209	29
210	19
212	22
218	25
219	26
220	25
221	36
222	32
223	19
236	88
237	29
246	37
247	42
248	36
249	11
260	38
261	40
262	169
263	179
264	110
265	62
273	22
292	115
293	530
294	45
