Mass Spectrum: 4-(2-(Pyridin-2-yl)ethyl)phenol
Formula: C13H13NO
CAS: 3767-85-9
Molecular weight: 199
m/z	intensity
27	8
38	7
39	61
40	8
50	20
51	72
52	61
53	48
54	5
55	17
62	13
63	38
64	19
65	115
66	47
67	11
68	3
72	5
74	5
75	7
76	10
77	225
78	111
79	165
80	46
81	11
83	7
84	8
87	5
88	2
89	34
90	30
91	38
92	67
93	748
94	83
99	35
101	3
102	6
103	9
104	18
105	22
106	337
107	999
108	78
113	4
114	2
115	21
116	5
117	20
118	7
119	14
120	21
121	15
126	4
127	6
128	13
129	7
130	9
131	10
132	4
139	8
140	6
141	14
142	15
143	13
144	6
152	11
154	34
155	11
156	9
157	3
166	5
169	9
170	22
171	7
172	7
178	5
180	21
181	13
182	25
183	108
184	53
185	5
196	43
197	14
198	836
199	980
200	136
201	11
