Mass Spectrum: 6-Diazo-5-oxo-5,6-dihydro-1-naphthalenesulfonyl chloride
Formula: C10H5ClN2O3S
CAS: 3770-97-6
Molecular weight: 268
m/z	intensity
12	6
14	53
15	3
16	12
17	7
18	25
24	0
25	4
26	62
27	28
28	203
29	19
30	0
32	16
33	1
34	1
35	31
36	30
37	52
38	83
39	120
40	6
41	2
42	1
43	9
44	12
45	28
46	1
48	130
49	26
50	134
51	60
52	7
53	57
54	3
55	27
56	108
58	4
59	2
60	5
61	66
62	164
63	500
64	56
65	16
66	7
68	2
69	49
71	14
72	3
73	24
74	155
75	107
76	14
77	15
78	2
79	1
80	1
81	8
82	10
83	14
84	9
85	59
86	194
87	270
88	33
89	42
90	4
91	0
92	2
93	20
94	5
95	7
96	2
97	8
98	20
99	14
100	14
101	68
102	8
103	4
104	1
105	5
106	5
107	2
108	4
109	18
110	41
111	27
113	999
114	106
115	15
117	10
118	2
119	2
120	3
121	20
122	4
123	4
124	1
125	0
126	1
127	2
128	2
129	35
130	4
131	1
132	6
133	16
134	4
135	3
136	3
137	1
138	1
139	0
141	488
142	56
143	5
144	1
145	3
146	1
148	252
149	32
150	85
151	9
152	1
155	0
157	43
158	5
159	2
160	0
161	3
162	0
163	1
164	0
169	39
170	4
171	0
173	0
174	0
176	86
177	13
178	29
179	5
180	0
185	0
189	2
190	0
205	69
206	8
207	4
208	0
214	0
226	0
233	14
234	2
235	0
240	5
241	0
242	2
243	0
244	0
254	0
258	0
268	41
269	5
270	15
271	2
272	0
