Mass Spectrum: 4,4,6-Trimethyl-2-[p-ethoxyphenylamino]-5,6-dihydro-4H-1,3-oxazine
Formula: C15H22N2O2
CAS: 37719-88-3
Molecular weight: 262
m/z	intensity
39	319
41	539
42	749
43	409
45	75
50	56
51	105
52	163
53	189
54	77
55	277
56	427
57	153
58	179
63	72
64	56
65	139
66	34
67	139
68	56
69	103
70	61
74	42
76	27
77	80
78	85
79	129
80	132
81	172
82	80
83	139
84	999
85	77
90	51
91	99
92	37
93	42
94	27
96	31
98	56
105	49
106	124
107	229
108	649
109	319
110	59
118	27
119	44
120	99
121	72
132	43
133	129
134	359
135	489
136	283
137	341
138	39
148	72
151	56
162	66
163	869
164	236
165	29
179	39
191	111
217	49
219	42
220	23
231	46
232	61
233	209
234	24
247	519
248	69
261	129
262	869
263	159
