Mass Spectrum: Pregn-9(11)-en-20-one, 3,6-dihydroxy-, (3.beta.,5.alpha.,6.alpha.)-
Formula: C21H32O3
CAS: 37717-02-5
Molecular weight: 332
m/z	intensity
17	9
18	56
27	28
28	9
29	84
31	18
39	37
41	205
43	999
44	46
45	65
53	65
55	308
56	18
57	93
58	112
65	46
67	196
68	28
69	74
70	18
71	205
77	121
78	37
79	289
80	37
81	308
82	18
83	84
84	46
85	373
86	37
91	355
92	74
93	243
94	65
95	972
96	84
97	37
103	28
104	28
105	401
106	84
107	215
108	28
109	102
111	46
113	18
115	121
116	37
117	196
118	65
119	196
120	121
121	149
122	46
123	130
124	28
125	28
128	84
129	130
130	65
131	243
132	84
133	224
134	65
135	112
136	18
137	28
142	65
143	224
144	102
145	215
146	56
147	121
148	28
149	28
150	18
154	9
155	112
156	74
157	168
158	84
159	149
160	28
161	84
163	28
167	9
168	18
169	186
170	56
171	130
172	168
173	140
175	56
176	18
177	37
181	46
182	18
183	112
184	28
185	74
186	18
187	102
189	18
195	112
196	28
197	112
198	18
199	37
201	37
203	28
207	65
209	56
210	28
211	429
212	102
214	28
215	37
216	93
217	28
218	28
221	18
222	9
223	46
224	9
226	37
227	46
229	215
230	588
231	130
237	37
238	46
239	46
240	28
241	74
242	18
243	18
244	65
247	28
251	18
253	46
255	65
256	56
257	28
259	28
261	18
263	121
264	37
271	74
272	28
278	9
281	271
282	74
296	93
297	28
299	215
300	37
301	18
314	102
315	28
316	28
317	9
332	28
