Mass Spectrum: Cholesta-9(11),20(22)-dien-23-one, 3,6-bis(acetyloxy)-, (3.beta.,5.alpha.,6.alpha.)-
Formula: C31H46O5
CAS: 37717-06-9
Molecular weight: 498
m/z	intensity
41	310
42	20
43	910
44	310
45	30
53	70
55	560
56	40
57	250
67	350
68	190
69	410
70	70
71	450
73	270
77	120
78	20
79	290
80	90
81	999
82	410
83	320
84	100
91	370
92	70
93	470
94	140
95	500
96	400
97	190
105	430
106	100
107	330
108	150
109	830
110	140
111	60
117	170
118	80
119	310
120	90
121	400
122	100
123	160
124	40
125	50
127	470
128	110
129	180
130	100
131	400
132	100
133	160
134	40
135	140
136	50
137	110
141	110
142	100
143	320
144	140
145	360
146	80
147	170
152	110
153	30
154	20
155	200
156	100
157	190
159	200
160	40
161	60
162	60
163	10
164	30
165	20
166	20
167	70
168	30
169	280
170	80
171	180
172	40
173	70
179	50
180	20
181	280
182	70
183	230
184	70
185	110
186	30
191	80
192	20
193	70
194	20
195	420
196	100
197	290
198	80
199	110
209	380
210	280
211	670
212	220
213	270
221	80
222	50
223	180
224	90
225	230
226	130
227	210
235	50
236	20
237	90
238	80
239	50
249	50
250	20
251	210
252	80
253	70
254	30
265	50
266	20
267	60
268	20
269	60
270	100
271	80
272	80
277	50
278	10
279	80
281	10
285	190
286	50
294	60
295	50
296	30
297	30
298	100
299	20
307	60
311	120
312	70
313	20
315	230
316	80
317	30
355	90
356	40
361	40
362	50
363	470
364	130
378	530
379	160
438	140
439	40
497	40
498	70
499	20
