Mass Spectrum: 4,4,6-Trimethyl-2-[m-chlorophenylamino]-5,6-dihydro-4H-1,3-oxazine
Formula: C13H17ClN2O
CAS: 37719-89-4
Molecular weight: 252
m/z	intensity
37	16
38	31
39	151
40	143
41	309
42	999
43	177
44	112
45	12
50	29
51	32
52	18
53	29
54	23
55	109
56	203
57	83
58	83
60	5
62	17
63	61
64	36
65	50
66	13
67	43
68	18
69	23
70	16
71	8
73	18
74	11
75	78
76	29
77	21
78	6
79	8
81	17
82	28
83	55
84	849
85	61
86	7
89	11
90	74
91	36
92	32
93	39
96	6
98	18
99	44
100	16
101	16
102	8
110	16
111	97
112	12
113	31
117	8
118	21
119	27
120	9
125	90
126	68
127	563
128	85
129	179
130	20
134	19
135	6
152	48
153	319
154	128
155	111
156	39
168	6
169	27
170	7
171	10
175	27
176	4
202	7
203	15
210	44
212	15
237	419
238	59
239	149
240	19
251	57
252	209
253	62
254	78
255	9
