Mass Spectrum: 4,4,6-Trimethyl-2-[m-tolylamino]-5,6-dihydro-4H-1,3-oxazine
Formula: C14H20N2O
CAS: 37719-46-3
Molecular weight: 232
m/z	intensity
39	179
40	149
41	325
42	519
43	164
44	169
45	20
50	26
51	67
52	46
53	55
54	29
55	132
56	159
57	101
58	172
63	42
64	25
65	163
66	26
67	49
68	22
69	88
70	33
71	31
72	22
76	19
77	157
78	96
79	99
80	25
81	21
82	32
83	60
84	839
85	59
89	38
90	37
91	300
92	36
93	27
98	32
104	104
105	78
106	249
107	999
108	103
109	11
118	22
119	22
120	27
121	34
131	36
132	157
133	649
134	489
135	50
146	22
147	24
148	34
149	85
163	51
175	15
189	33
190	57
203	35
217	709
218	99
231	161
232	499
233	69
