Mass Spectrum: Cobalt, [.mu.-[(2,3-.eta.:2,3-.eta.)-2-butyne]]hexacarbonyldi-, (Co-Co)
Formula: C10H6Co2O6
CAS: 37726-81-1
Molecular weight: 340
m/z	intensity
53	500
54	999
59	680
87	130
113	220
118	750
119	60
143	50
157	130
170	50
172	440
200	900
228	400
256	90
284	15
312	330
340	110
