Mass Spectrum: 4,4,6-Trimethyl-2-[p-bromophenylamino]-5,6-dihydro-4H-1,3-oxazine
Formula: C13H17BrN2O
CAS: 37723-83-4
Molecular weight: 296
m/z	intensity
39	254
41	449
42	999
43	279
45	31
50	64
51	49
52	34
53	49
54	40
55	189
56	399
57	85
58	85
60	11
61	13
62	31
63	129
64	84
65	109
66	26
67	89
68	32
69	159
70	42
71	40
72	15
74	19
75	57
76	63
77	35
78	12
79	20
80	12
81	24
82	49
83	85
84	829
85	64
89	9
90	179
91	104
92	84
93	52
98	35
99	9
105	10
106	16
107	8
110	12
116	18
117	22
118	24
119	49
120	13
127	19
128	14
134	29
135	19
143	20
145	19
148	10
153	10
155	34
157	30
169	49
170	64
171	309
172	79
173	299
174	39
175	29
183	8
184	34
185	10
186	30
197	259
198	89
199	259
200	76
227	24
229	24
254	26
256	23
281	239
282	49
283	239
284	39
295	49
296	189
297	79
298	179
299	29
