Mass Spectrum: 5,6-Dihydro-4,4,6-trimethyl-2-methylamino-4H-1,3-oxazine
Formula: C8H16N2O
CAS: 37723-84-5
Molecular weight: 156
m/z	intensity
37	9
38	9
39	110
40	58
41	184
42	999
43	96
44	90
45	8
51	9
52	8
53	17
54	20
55	59
56	132
57	439
58	420
59	16
63	5
65	9
67	28
68	16
69	29
70	17
71	7
79	6
81	9
82	12
83	24
84	316
85	23
97	10
98	16
99	47
112	8
113	6
114	54
115	13
122	10
141	500
142	50
156	84
157	8
