Mass Spectrum: 3-Cyclohexene-1-propanenitrile, .beta.,4-dimethyl-1-(2-methyl-1-oxopropyl)-
Formula: C15H23NO
CAS: 37730-46-4
Molecular weight: 233
m/z	intensity
41	250
43	999
67	100
71	789
77	100
79	130
81	140
91	100
93	210
119	220
121	490
162	559
165	420
190	170
