Mass Spectrum: 2,4,6,8,9,10-Hexaaza-1,3,5,7-tetraphosphatricyclo[3.3.1.1(3,7)]decane, 2,4,6,8,9,10-hexamethyl-, 1,3,5,7-tetrasulfide
Formula: C6H18N6P4S4
CAS: 37747-07-2
Molecular weight: 426
m/z	intensity
28	100
29	180
31	310
32	90
40	50
45	170
46	150
60	999
89	400
91	210
92	230
119	180
120	250
121	620
149	350
150	240
151	120
153	870
180	190
182	260
185	190
212	100
241	120
273	480
276	110
318	70
350	350
393	240
426	230
