Mass Spectrum: Spiro[2.4]heptane, 5-methylene-
Formula: C8H12
CAS: 37745-07-6
Molecular weight: 108
m/z	intensity
23	0
24	0
25	1
26	14
27	158
28	27
29	34
30	0
31	0
32	0
33	0
34	1
35	1
36	1
37	8
38	25
39	294
40	61
41	181
42	12
43	3
44	0
45	3
46	1
47	0
48	1
49	5
50	52
51	121
52	78
53	134
54	67
55	23
56	3
57	0
58	1
59	0
60	0
61	4
62	10
63	32
64	9
65	110
66	113
67	125
68	17
69	1
70	0
71	0
72	0
73	2
74	14
75	27
76	9
77	413
78	185
79	889
80	999
81	82
82	3
83	0
84	0
85	0
86	1
87	1
88	0
89	13
90	4
91	268
92	34
93	374
94	33
95	1
98	0
101	0
102	3
103	20
104	18
105	21
106	10
107	29
108	71
109	8
