Mass Spectrum: Oxazolidin-4-one, 5-benzylideno-2-thione-
Formula: C10H7NO2S
CAS: 3775-00-6
Molecular weight: 205
m/z	intensity
37	4
38	14
39	28
40	7
41	2
42	1
43	10
44	6
45	3
46	0
49	8
50	44
51	42
52	11
53	3
54	0
55	1
56	1
58	26
59	154
60	20
61	30
62	66
63	176
64	63
65	5
66	1
68	0
69	2
70	3
71	1
72	0
73	6
74	28
75	26
76	15
77	11
78	1
81	0
82	0
83	1
84	2
86	58
87	20
89	612
90	868
91	70
92	3
93	0
95	0
97	1
98	5
99	1
100	0
101	6
102	20
103	2
105	1
108	0
116	5
118	999
119	70
120	5
121	2
122	1
129	3
130	1
133	0
134	4
145	8
146	0
148	5
160	0
166	0
189	3
203	3
205	257
206	25
207	12
208	1
