Mass Spectrum: 1,4-Epoxynaphthalene, 1,5,7-tris(1,1-dimethylethyl)-1,4-dihydro-4-(phenylmethyl)-
Formula: C29H38O
CAS: 37754-67-9
Molecular weight: 402
m/z	intensity
14	2
15	4
16	3
17	12
18	62
19	4
27	11
28	0
29	425
30	1
39	15
40	0
41	97
42	2
43	14
50	0
51	3
53	2
55	9
56	1
57	999
58	42
59	1
63	2
65	10
67	0
69	3
77	4
78	1
79	0
83	0
85	10
86	0
89	1
90	0
91	475
92	36
93	0
103	1
105	7
115	6
116	1
117	2
119	29
120	1
127	2
128	4
129	4
131	3
132	0
139	1
141	5
142	2
143	5
145	2
147	0
152	3
153	4
154	2
155	6
156	19
157	7
165	9
166	3
167	4
168	1
169	7
170	1
171	159
172	24
173	1
178	2
179	3
180	1
181	6
182	2
183	3
184	0
185	0
188	0
189	1
190	0
191	1
192	0
193	1
195	1
196	1
197	5
198	0
199	2
202	1
203	2
204	1
205	6
206	1
209	0
211	2
212	1
213	8
214	0
215	3
216	2
217	2
223	0
225	4
226	2
227	3
228	10
229	3
231	0
233	1
235	1
237	1
239	4
240	0
241	0
245	2
247	1
253	16
254	5
255	28
256	7
257	0
261	0
267	1
268	5
269	10
270	1
271	1
273	0
274	0
275	6
276	1
281	1
283	44
284	23
285	3
286	0
287	0
289	4
290	8
291	6
292	0
295	1
296	0
297	1
301	1
302	0
303	3
310	2
311	27
312	7
313	1
315	0
316	0
317	4
318	3
319	0
326	0
327	1
329	0
331	63
332	16
333	1
345	17
346	402
347	115
348	16
349	0
359	0
361	14
362	4
376	2
377	0
387	2
401	0
402	10
403	4
