Mass Spectrum: N'-(2,2,6,6-Tetramethyl-4-piperidinylidene)acetohydrazide
Formula: C11H21N3O
CAS: 37762-30-4
Molecular weight: 211
m/z	intensity
14	3
15	41
16	1
18	9
26	3
27	34
28	35
29	50
30	50
31	4
32	5
37	1
39	90
40	24
41	207
42	323
43	344
44	26
45	2
50	2
51	8
52	8
53	53
54	34
55	119
56	105
57	74
58	999
59	41
60	20
61	1
62	1
63	2
64	2
65	20
66	15
67	54
68	24
69	25
70	55
71	25
72	18
73	17
74	4
75	4
77	15
78	4
79	34
80	55
81	98
82	69
83	27
84	32
85	3
91	7
92	4
93	12
94	89
95	74
96	210
97	242
98	474
99	101
100	7
103	1
104	1
105	4
106	8
107	16
108	26
109	16
110	20
111	100
112	31
113	12
114	2
115	1
116	1
117	1
118	1
119	6
120	15
121	27
122	74
123	23
124	13
125	5
126	1
133	1
134	2
136	129
137	142
138	96
139	115
140	15
141	4
151	4
153	636
154	84
155	12
156	1
162	1
168	2
177	1
178	1
179	1
180	3
194	1
196	71
197	9
198	1
211	87
212	12
213	1
