Mass Spectrum: Acetamide, 2,2-dichloro-N,N-di-2-propenyl-
Formula: C8H11Cl2NO
CAS: 37764-25-3
Molecular weight: 207
m/z	intensity
40	9
41	999
42	74
43	11
44	16
45	1
48	18
49	23
50	7
51	18
52	13
53	69
54	95
55	90
56	377
57	34
58	5
59	1
60	1
61	3
62	4
63	4
64	3
65	11
66	9
67	63
68	128
69	38
70	167
71	12
72	1
73	2
74	1
75	47
76	54
77	34
78	42
79	117
80	102
81	195
82	188
83	108
84	83
85	63
86	2
87	16
88	8
89	48
90	8
93	17
94	120
95	25
96	195
97	19
98	3
99	2
101	2
102	22
103	7
104	13
105	5
106	14
107	20
108	114
109	22
110	46
111	12
112	8
113	4
114	5
115	6
116	11
117	10
118	16
119	5
120	11
121	1
122	45
123	17
124	387
125	35
126	5
127	2
128	6
129	4
130	20
131	6
132	12
133	2
134	5
135	2
136	201
137	105
138	31
139	6
140	7
141	7
142	8
143	8
144	47
145	6
146	19
147	2
148	1
150	1
151	1
152	6
153	4
154	4
155	3
156	2
157	1
158	11
159	1
160	4
164	4
165	5
166	251
167	18
168	167
169	12
170	31
171	10
172	834
173	95
174	278
175	28
176	2
178	7
179	13
180	23
181	9
182	13
183	2
184	2
192	14
193	1
194	9
195	1
196	2
206	6
207	33
208	9
209	21
210	4
211	3
212	1
