Mass Spectrum: Aminomaleimide
Formula: C4H4N2O2
CAS: 37770-94-8
Molecular weight: 112
m/z	intensity
13	1
14	5
16	1
17	4
18	21
25	2
26	2
27	15
28	23
29	3
31	1
33	1
34	5
38	11
39	25
40	87
41	338
42	14
43	9
44	16
45	1
51	2
52	2
53	6
54	1
55	2
56	1
66	3
67	15
68	96
69	223
70	21
71	1
84	67
85	3
94	1
112	999
113	64
114	6
