Mass Spectrum: Benzeneethanol, .beta.-methyl-, (S)-
Formula: C9H12O
CAS: 37778-99-7
Molecular weight: 136
m/z	intensity
15	2
17	1
18	4
19	1
26	2
27	29
28	11
29	8
30	1
31	13
32	3
36	2
37	2
38	5
39	36
40	3
41	9
42	1
43	25
44	2
45	26
46	2
49	1
50	21
51	62
52	14
53	10
54	1
55	3
56	1
57	6
58	3
59	1
60	1
61	2
62	7
63	20
64	4
65	29
66	4
67	2
68	1
69	1
71	1
73	2
74	9
75	7
76	7
77	146
78	43
79	149
80	10
81	1
83	1
84	1
85	1
86	2
87	2
89	10
90	4
91	160
92	108
93	11
94	1
95	1
97	1
98	1
99	1
101	2
102	10
103	97
104	41
105	999
106	241
107	30
108	4
109	1
116	9
117	2
118	7
119	7
120	3
121	3
122	5
123	5
124	1
134	1
135	2
136	175
137	19
138	1
