Mass Spectrum: 1H-Imidazole-1-ethanol, .alpha.-methyl-
Formula: C6H10N2O
CAS: 37788-55-9
Molecular weight: 126
m/z	intensity
27	110
28	280
30	80
31	150
35	130
36	999
37	50
38	330
39	100
40	120
41	280
42	230
43	140
44	340
45	660
52	70
53	50
54	300
58	590
59	250
68	150
69	130
73	80
81	670
82	720
83	60
126	410
