Mass Spectrum: 2-Propen-1-one, 1,3-diphenyl-, phenylhydrazone
Formula: C21H18N2
CAS: 37799-62-5
Molecular weight: 298
m/z	intensity
39	150
51	300
65	350
77	999
91	609
92	180
102	160
103	370
104	220
105	390
106	200
115	400
128	150
165	140
178	150
189	110
191	120
193	180
194	270
206	270
221	360
298	839
