Mass Spectrum: trans-.beta.-Ocimene
Formula: C10H16
CAS: 3779-61-1
Molecular weight: 136
m/z	intensity
25	0
26	8
27	190
29	135
30	2
37	5
38	13
39	219
40	40
41	318
42	20
43	131
44	4
46	0
49	1
50	21
51	66
52	35
53	154
54	16
55	126
56	9
57	2
58	4
59	1
61	2
62	7
63	25
64	7
65	61
66	24
67	100
68	42
69	23
70	1
72	3
73	1
74	5
75	9
76	4
77	269
78	49
79	297
80	156
81	71
82	6
83	1
85	0
86	1
88	1
89	12
91	282
92	245
93	999
94	84
95	13
101	1
102	2
103	19
104	6
105	130
106	45
107	56
108	7
109	4
115	5
116	2
117	5
118	0
119	27
120	8
121	133
122	13
133	0
134	1
135	2
136	19
137	2
