Mass Spectrum: 2-Phenyl-4-ethylidene-2-oxazolin-5-one
Formula: C11H9NO2
CAS: 37791-41-6
Molecular weight: 187
m/z	intensity
41	5
42	3
43	13
44	10
45	31
46	3
49	2
50	83
51	273
52	31
53	11
54	94
55	33
56	16
57	3
58	3
60	1
61	1
62	3
63	5
64	1
65	2
66	1
67	1
69	1
70	1
71	1
73	3
74	12
75	11
76	35
77	584
78	45
79	3
83	130
84	5
85	0
86	2
89	2
90	0
91	1
94	1
100	4
102	0
105	999
106	80
107	5
110	0
115	1
116	2
117	1
121	7
122	2
123	1
128	0
130	1
131	0
132	1
133	0
143	0
144	0
150	0
157	0
159	2
160	2
161	0
172	2
186	1
187	25
188	3
189	1
190	0
