Mass Spectrum: 2,3,3,3-Tetrafluoro-2-bromopropionic acid, methyl ether
Formula: C4H3BrF4O2
CAS: 378-67-6
Molecular weight: 238
m/z	intensity
31	63
40	12
59	999
60	26
69	80
100	58
129	75
131	71
160	34
162	33
179	126
180	3
181	121
191	5
193	5
207	4
209	3
