Mass Spectrum: 3-Piperidinol, 1,4-dimethyl-, trans-
Formula: C7H15NO
CAS: 37835-47-5
Molecular weight: 129
m/z	intensity
39	132
42	671
43	999
44	611
57	163
58	994
70	114
71	232
86	60
96	60
98	50
100	14
110	34
112	84
114	26
128	140
129	244
