Mass Spectrum: 3-Benzoyl-2,4,5-triphenylpyrrole
Formula: C29H21NO
CAS: 37835-64-6
Molecular weight: 399
m/z	intensity
77	110
103	20
105	999
178	270
193	130
195	480
206	110
220	20
221	170
293	30
294	80
321	20
322	50
398	20
399	30
