Mass Spectrum: 3-Piperidinol, 1,4-dimethyl-, cis-
Formula: C7H15NO
CAS: 37835-50-0
Molecular weight: 129
m/z	intensity
39	134
42	684
43	999
44	827
57	166
58	994
70	120
71	226
86	92
96	58
98	52
100	60
110	34
112	96
114	26
128	138
129	260
