Mass Spectrum: N-(3-Bromophenyl)formamide
Formula: C7H6BrNO
CAS: 37831-25-7
Molecular weight: 199
m/z	intensity
36	119
37	126
38	266
39	381
40	66
41	92
42	35
43	14
45	26
49	35
50	156
51	84
52	165
53	26
54	26
60	17
61	92
62	176
63	474
64	294
65	999
66	104
67	14
73	26
74	84
75	75
76	57
77	26
79	35
80	17
81	35
82	14
87	14
88	14
89	17
90	87
91	200
92	776
93	75
106	14
117	35
118	17
119	72
120	14
143	45
144	17
145	45
146	14
155	17
157	14
170	26
171	423
172	84
173	411
174	66
199	462
200	45
201	449
202	45
