Mass Spectrum: 5-IT
Formula: C11H14N2
CAS: 3784-30-3
Molecular weight: 174
m/z	intensity
40	9
41	20
42	67
44	999
45	29
49	1
50	25
51	50
52	31
53	11
54	5
56	5
57	2
59	1
61	4
62	18
63	44
64	15
65	21
67	4
68	1
71	2
72	2
73	2
74	18
75	29
76	41
77	200
78	47
79	20
81	1
85	2
86	7
87	9
88	10
89	35
90	18
91	9
92	1
93	1
98	3
99	3
100	3
101	23
102	90
103	123
104	33
105	5
110	1
113	4
114	8
115	17
116	11
117	28
118	6
126	3
127	9
128	67
130	624
131	803
132	88
133	6
140	2
141	5
142	5
143	5
144	3
145	1
154	9
155	5
156	14
157	12
158	8
159	10
160	1
169	1
170	1
171	2
172	4
174	26
175	5
