Mass Spectrum: Malonamide, 2TMS derivative
Formula: C9H22N2O2Si2
CAS: 37858-18-7
Molecular weight: 246
m/z	intensity
13	3
23	12
24	23
26	285
27	2
29	13
30	16
31	63
38	8
39	7
40	42
41	48
42	67
43	102
44	80
45	218
46	30
47	94
48	8
49	8
50	4
51	5
52	9
53	9
55	5
56	17
57	14
58	36
59	51
60	26
61	72
62	6
66	22
67	14
68	13
70	43
71	11
72	94
73	909
74	202
75	999
76	78
77	40
78	9
79	11
84	22
85	10
86	16
87	15
88	7
89	11
91	12
97	7
98	75
99	23
100	141
101	20
102	13
103	11
108	58
109	21
113	12
114	26
115	85
116	627
117	107
118	33
128	6
129	26
130	19
131	427
132	58
133	38
141	50
142	32
143	8
146	23
147	417
148	73
149	44
156	23
157	10
158	7
170	20
172	39
173	10
174	23
188	15
189	6
207	0
213	15
214	78
215	23
216	12
217	6
228	11
229	34
230	16
231	256
232	87
233	28
246	75
247	39
248	10
