Mass Spectrum: Bromoacetic acid, 2-phenylethyl ester
Formula: C10H11BrO2
CAS: 3785-33-9
Molecular weight: 242
m/z	intensity
22	2
25	2
26	13
27	19
28	2
29	9
30	3
31	2
35	4
36	36
37	2
38	12
39	42
40	5
41	15
42	35
43	25
45	3
49	3
50	24
51	59
52	32
53	8
55	3
56	2
57	3
60	1
61	2
62	6
63	24
64	6
65	78
66	7
67	2
69	1
70	1
71	3
73	3
74	6
75	6
76	7
77	60
78	54
79	61
80	37
81	17
82	40
83	1
87	2
89	18
90	10
91	304
92	35
93	24
94	4
95	22
96	2
102	8
103	56
104	999
105	133
106	7
107	1
115	1
117	2
119	1
120	4
121	48
122	2
123	48
124	1
