Mass Spectrum: anti-2-Acetoxyacetaldoxime
Formula: C4H7NO3
CAS: 37858-07-4
Molecular weight: 117
m/z	intensity
15	230
17	70
18	350
26	15
27	80
28	220
29	50
30	25
31	25
39	10
40	80
41	40
42	60
43	999
44	50
45	17
57	420
58	30
60	30
61	20
75	30
99	5
100	3
