Mass Spectrum: 1,1,3-Trichloro-1-silacyclo-3-pentene
Formula: C4H5Cl3Si
CAS: 37862-80-9
Molecular weight: 186
m/z	intensity
52	140
53	999
54	60
63	50
65	20
88	80
90	10
98	20
99	20
100	10
101	10
150	80
151	30
152	50
153	20
154	10
186	80
187	10
188	80
189	10
190	20
