Mass Spectrum: 1H-Indole, octahydro-3-methyl-
Formula: C9H17N
CAS: 37865-94-4
Molecular weight: 139
m/z	intensity
26	2
27	39
28	0
29	44
30	101
31	4
36	2
38	2
39	68
40	11
41	125
42	39
43	40
44	35
45	2
50	2
51	11
52	8
53	37
54	31
55	68
56	89
57	67
58	21
59	3
60	0
61	0
62	0
63	2
64	1
65	14
66	7
67	75
68	208
69	49
70	58
71	12
72	3
73	0
74	0
75	0
76	1
77	30
78	6
79	42
80	28
81	85
82	96
83	37
84	17
85	3
86	0
87	0
88	0
89	0
90	0
91	14
92	3
93	25
94	36
95	22
96	999
97	93
98	5
99	0
100	0
101	1
102	1
103	2
104	4
105	12
106	4
107	6
108	15
109	21
110	34
111	3
112	1
113	0
115	2
116	0
117	2
118	0
119	3
120	2
121	5
122	16
123	4
124	302
125	32
136	7
137	11
138	95
139	222
140	23
141	2
