Mass Spectrum: 1,1-Dichloro-3-methyl-1-silacyclo-3-pentene
Formula: C5H8Cl2Si
CAS: 37862-78-5
Molecular weight: 166
m/z	intensity
39	20
40	40
41	50
42	30
43	10
52	20
53	80
54	10
63	30
65	10
66	50
67	310
68	999
69	80
95	40
115	50
117	30
125	50
127	30
130	639
131	90
132	220
133	40
138	110
140	80
142	10
151	80
153	50
166	430
167	70
168	300
169	30
170	60
