Mass Spectrum: Butanediamide, 2-methylene-
Formula: C5H8N2O2
CAS: 3786-29-6
Molecular weight: 128
m/z	intensity
38	208
39	999
40	605
41	212
42	204
43	302
44	703
45	300
54	390
55	250
56	132
67	140
68	316
69	503
70	200
83	300
84	136
85	803
86	236
100	140
111	300
112	10
128	12
