Mass Spectrum: 1H-Pyrazole-1-carboxamide, 4,5-dihydro-3,5,5-trimethyl-
Formula: C7H13N3O
CAS: 3786-02-5
Molecular weight: 155
m/z	intensity
39	64
40	38
41	135
42	153
43	186
44	59
52	18
53	23
54	31
55	31
56	332
57	36
67	28
70	46
81	20
82	26
95	23
96	23
97	999
98	59
112	186
113	28
138	3
140	9
155	50
156	5
