Mass Spectrum: 1,1,1,3,3,3-Hexafluoropropan-2-one, o-methyloxime
Formula: C4H3F6NO
CAS: 37882-69-2
Molecular weight: 195
m/z	intensity
27	54
28	154
29	432
30	567
31	556
32	35
33	61
41	55
42	21
43	21
44	12
45	223
46	21
47	45
50	65
56	41
57	101
59	112
69	999
70	11
73	21
74	81
76	54
87	23
92	53
95	32
96	174
98	11
126	643
127	45
164	56
180	21
195	647
196	47
197	5
