Mass Spectrum: Methanesulfonic acid, trifluoro-, [(4-methylphenyl)sulfonyl]methyl ester
Formula: C9H9F3O5S2
CAS: 37891-93-3
Molecular weight: 318
m/z	intensity
39	72
48	25
50	22
51	30
64	78
65	200
69	290
76	72
91	999
92	83
99	66
107	36
133	3
139	510
140	46
155	940
156	78
163	6
270	4
318	280
319	41
