Mass Spectrum: Cyclohexylamine, N-(2-chloropropylidene)-N-oxide-
Formula: C9H16ClNO
CAS: 37898-42-3
Molecular weight: 189
m/z	intensity
25	3
26	11
27	120
28	86
29	123
30	23
31	14
35	12
36	96
37	14
38	36
39	174
40	26
41	452
42	54
43	87
44	39
45	16
46	26
48	2
49	4
50	6
51	17
52	13
53	86
54	167
55	999
56	134
57	23
58	21
59	17
60	8
61	4
62	8
63	15
64	3
65	21
66	15
67	244
68	50
69	23
70	73
71	173
72	285
73	107
74	34
75	6
76	5
77	26
78	8
79	56
80	28
81	174
82	181
83	740
84	96
85	8
86	7
87	9
88	3
89	3
90	10
91	7
92	17
93	17
94	51
95	24
96	59
97	14
98	26
99	15
100	4
101	1
102	4
103	2
104	3
105	4
106	8
107	45
108	83
109	28
110	109
111	17
112	18
121	8
124	12
125	11
126	641
127	70
128	16
129	3
130	4
131	2
132	3
133	2
134	7
135	5
136	41
137	26
138	18
139	10
153	93
154	292
155	63
156	7
172	12
173	3
174	6
189	98
190	16
191	35
192	7
