Mass Spectrum: Glucuronamide
Formula: C6H11NO6
CAS: 3789-97-7
Molecular weight: 193
m/z	intensity
13	3
14	15
15	73
16	22
17	49
18	266
19	39
24	2
25	5
26	31
27	76
28	78
29	329
30	68
31	298
32	37
33	9
36	6
37	5
38	12
39	41
40	15
41	26
42	219
43	337
44	317
45	101
46	31
47	26
49	2
50	2
51	4
52	7
53	13
54	26
55	77
56	26
57	111
58	87
59	54
60	358
61	327
62	16
63	3
64	1
65	2
66	3
67	5
68	12
69	22
70	33
71	251
72	111
73	490
74	94
75	999
76	43
77	9
78	2
79	1
80	2
81	4
82	11
83	45
84	23
85	47
86	37
87	146
88	59
89	31
90	15
91	12
92	1
93	2
94	3
95	6
96	4
97	5
98	9
99	20
100	24
101	43
102	12
103	116
104	217
105	16
106	2
107	1
108	5
109	1
110	6
111	7
112	22
113	20
114	7
115	5
116	26
117	10
118	9
119	11
120	2
123	3
124	1
125	2
126	3
127	3
128	55
129	9
130	5
131	29
132	9
133	7
134	75
135	8
136	2
137	2
138	3
139	19
140	7
141	2
144	2
145	1
146	38
147	5
149	7
150	1
151	3
152	1
157	18
158	5
159	1
161	1
162	10
163	2
164	3
165	1
175	2
176	3
177	1
