Mass Spectrum: Cyclohexanamine, N-(2-chloroethylidene)-, N-oxide
Formula: C8H14ClNO
CAS: 37898-41-2
Molecular weight: 175
m/z	intensity
26	30
27	300
28	97
29	178
30	44
31	23
35	12
36	64
38	29
39	268
40	45
41	562
42	99
43	131
44	50
45	12
46	25
49	40
50	18
51	45
52	31
53	151
54	275
55	999
56	153
57	42
58	61
59	67
60	64
61	19
62	18
63	17
64	10
65	33
66	30
67	255
68	59
69	34
70	23
71	21
72	46
73	11
75	9
76	13
77	47
78	34
79	84
80	45
81	234
82	315
83	669
84	134
85	19
88	10
92	11
93	40
94	89
95	26
96	48
97	17
98	47
99	18
107	13
108	16
109	13
110	38
111	12
112	17
113	10
115	18
122	14
123	19
124	23
125	16
126	472
127	82
132	71
133	3
134	31
135	1
140	339
141	35
142	17
175	241
176	22
177	79
178	7
