Mass Spectrum: 1-Cyclopropyl-2-phenylethane
Formula: C11H14
CAS: 37904-33-9
Molecular weight: 146
m/z	intensity
51	88
52	24
53	45
55	282
63	53
64	17
65	173
77	74
78	24
79	38
89	38
91	999
92	212
103	49
104	508
105	127
115	63
116	17
117	409
118	233
119	31
128	28
131	91
145	24
146	286
147	34
148	2
