Mass Spectrum: Phosphinothioic acid, phenyl-1-piperidinyl-
Formula: C11H16NOPS
CAS: 37913-03-4
Molecular weight: 241
m/z	intensity
29	310
30	220
31	220
32	4
42	260
47	290
51	210
55	260
56	420
57	210
63	90
70	70
77	210
83	999
84	280
157	130
164	20
208	370
241	260
