Mass Spectrum: 1H-Pyrrole-2-carboxamide, 4-[[(5-amino-3,4-dihydro-2H-pyrrol-2-yl)carbonyl]amino]-N-(3-amino-3-imino-1-propenyl)-1-methyl-
Formula: C14H19N7O2
CAS: 37913-78-3
Molecular weight: 317
m/z	intensity
41	520
42	290
43	830
45	220
54	100
55	90
56	250
60	450
66	100
67	100
76	50
78	80
79	80
81	60
82	80
83	999
84	850
93	100
94	80
95	150
96	60
105	50
107	70
109	100
111	70
118	60
121	110
123	90
134	320
135	250
138	130
139	410
147	90
149	150
165	60
173	90
185	70
189	60
190	100
205	50
223	30
231	20
249	820
250	120
258	50
275	60
299	70
300	320
301	60
