Mass Spectrum: Ethyl 13-docosenoate(ethyl erucate)
Formula: C24H46O2
CAS: 37910-77-3
Molecular weight: 366
m/z	intensity
15	5
17	1
18	4
26	7
27	109
28	40
29	415
30	9
31	8
38	1
39	75
40	15
41	678
42	119
43	593
44	19
45	61
46	2
47	1
51	4
52	4
53	58
54	211
55	999
56	220
57	396
58	18
59	21
60	105
61	80
62	2
63	1
65	13
66	15
67	295
68	173
69	659
70	276
71	156
72	9
73	87
74	11
75	3
76	1
77	14
78	6
79	53
80	41
81	255
82	179
83	514
84	298
85	78
86	6
87	24
88	484
89	123
90	8
91	14
92	6
93	31
94	40
95	198
96	284
97	370
98	279
99	40
100	5
101	322
102	28
103	3
104	1
105	8
106	4
107	28
108	31
109	113
110	135
111	180
112	66
113	20
114	8
115	52
116	7
117	2
118	3
119	16
120	7
121	38
122	18
123	85
124	66
125	95
126	35
127	17
128	20
129	38
130	11
131	2
132	1
133	15
134	19
135	36
136	13
137	58
138	57
139	61
140	20
141	33
142	33
143	40
144	21
145	3
146	1
147	12
148	15
149	28
150	9
151	41
152	69
153	41
154	14
155	86
156	18
157	57
158	9
159	2
161	10
162	6
163	17
164	8
165	29
166	38
167	28
168	9
169	11
170	6
171	18
172	5
173	1
175	9
176	4
177	9
178	6
179	19
180	23
181	20
182	8
183	10
184	4
185	17
186	5
187	2
189	6
190	3
191	7
192	4
193	15
194	26
195	13
196	7
197	10
198	3
199	15
200	5
201	1
203	4
204	2
205	5
206	5
207	16
208	34
209	14
210	7
211	10
212	3
213	16
214	5
215	1
217	2
218	1
219	4
220	8
221	20
222	42
223	13
224	7
225	14
226	4
227	17
228	5
229	1
231	1
232	1
233	2
234	3
235	21
236	82
237	23
238	7
239	11
240	4
241	11
242	5
243	1
245	1
246	1
247	1
248	5
249	22
250	30
251	9
252	4
253	5
254	2
255	9
256	4
257	2
259	1
261	1
262	2
263	19
264	17
265	7
266	2
267	5
268	3
269	15
270	8
271	2
273	1
274	3
275	2
276	22
277	21
278	84
279	25
280	5
281	4
282	2
283	9
284	8
285	2
290	1
291	11
292	54
293	22
294	4
295	5
296	2
297	5
298	5
299	1
301	2
302	20
303	6
304	1
305	2
306	3
307	1
308	2
309	2
310	2
311	4
312	2
314	1
318	3
319	11
320	480
321	209
322	39
323	11
324	3
325	2
334	1
335	1
336	3
337	4
338	14
339	5
340	9
341	3
348	6
349	2
362	1
364	6
365	4
366	134
367	44
368	17
369	4
