Mass Spectrum: Hexanoic acid, 3,3-difluoroallyl ester
Formula: C9H14F2O2
CAS: 3792-85-6
Molecular weight: 192
m/z	intensity
14	0
15	4
18	1
26	6
27	76
28	16
29	70
30	1
31	5
33	1
38	2
39	37
40	6
41	117
42	72
43	309
44	15
45	15
46	1
47	1
48	0
50	1
51	101
52	1
53	6
54	3
55	147
56	18
57	23
58	2
59	4
60	9
61	2
62	1
63	2
64	2
65	3
67	5
68	8
69	225
70	38
71	115
72	8
73	92
74	5
75	17
76	29
77	999
78	34
79	1
80	3
81	3
82	1
83	3
84	0
85	1
86	0
87	1
88	81
89	10
90	6
91	8
92	0
93	68
94	2
95	0
96	3
97	202
98	21
99	177
100	12
101	1
102	0
103	1
105	0
107	3
108	2
109	0
110	1
111	0
112	0
113	3
114	10
115	60
116	17
117	3
118	0
121	0
123	0
127	0
128	2
129	2
130	2
131	0
132	7
133	1
135	2
136	119
137	8
138	0
149	65
150	5
151	0
163	22
164	2
174	1
192	7
193	1
