Mass Spectrum: 6H-Pyridazino[1,6-a]quinoxaline-2,3,4-tricarboxylic acid, 4a,5-dihydro-4a-hydroxy-5-oxo-6-(phenylmethyl)-, trimethyl ester
Formula: C24H21N3O8
CAS: 37922-00-2
Molecular weight: 479
m/z	intensity
91	999
92	110
103	260
105	60
106	50
227	40
244	50
268	30
272	30
308	40
312	110
313	30
340	30
343	50
344	40
358	30
359	320
360	150
372	30
386	40
388	50
391	140
392	30
404	120
405	30
416	50
417	30
420	220
421	50
431	30
448	40
462	120
463	60
477	40
479	10
