Mass Spectrum: Cholesta-9(11),17(20),24-triene-3,6-diol, diacetate, (3.beta.,5.alpha.,6.alpha.)-
Formula: C31H46O4
CAS: 37926-47-9
Molecular weight: 482
m/z	intensity
40	999
41	310
42	20
43	470
44	580
55	220
56	40
57	130
67	160
68	10
69	410
70	20
71	30
79	100
81	580
82	180
83	90
91	150
92	20
93	200
94	30
95	280
96	20
97	50
105	190
106	30
107	110
108	30
109	140
110	10
117	60
118	10
119	110
120	20
121	480
122	30
128	20
129	90
130	30
131	120
132	10
133	70
134	10
135	40
141	40
142	20
143	100
144	30
145	120
146	20
147	60
149	30
155	70
156	20
157	110
158	20
159	60
167	10
168	10
169	70
170	10
171	50
173	30
181	70
182	10
183	50
184	10
185	80
186	10
187	30
195	40
196	10
197	40
198	10
199	30
209	120
210	20
211	100
212	20
213	40
223	30
224	10
225	20
227	10
237	40
238	10
251	60
252	10
253	20
265	100
266	20
269	20
277	10
278	10
279	10
280	10
292	20
293	999
294	260
295	30
311	30
312	10
347	20
353	220
354	50
362	20
363	10
369	20
371	20
412	50
413	10
422	30
467	30
482	150
483	50
