Mass Spectrum: Difluoroaminofluoroaminodifluoromethane
Formula: CHF5N2
CAS: 37931-37-6
Molecular weight: 136
m/z	intensity
31	182
32	2
46	304
47	4
50	132
51	2
52	102
64	999
65	302
66	4
69	504
70	6
84	990
85	12
98	72
99	1
116	22
117	1
