Mass Spectrum: Di(difluoroamino)aminofluoromethane
Formula: CH2F5N3
CAS: 37931-36-5
Molecular weight: 151
m/z	intensity
16	77
28	246
29	4
31	375
32	5
33	272
34	6
41	392
42	6
46	999
47	222
48	4
60	514
61	12
66	174
67	2
99	222
100	5
