Mass Spectrum: 1,3-Bis(dimethylamino)-2,2,4,4-tetrakis(trifluoromethyl)-1,3-diazacyclobutane
Formula: C10H12F12N4
CAS: 37931-14-9
Molecular weight: 416
m/z	intensity
15	304
16	4
28	174
29	3
42	535
43	999
44	23
69	86
70	1
139	423
140	19
141	1
189	87
190	5
207	28
208	27
209	3
265	16
266	2
416	116
417	15
418	1
