Mass Spectrum: Tris(difluoroamino)fluoroaminomethane
Formula: CHF7N4
CAS: 37931-23-0
Molecular weight: 202
m/z	intensity
31	999
32	11
34	512
35	2
52	413
53	2
64	275
65	4
79	352
80	7
97	232
98	4
150	162
151	4
