Mass Spectrum: Cholan-24-oic acid, 3-[(trifluoroacetyl)oxy]-, methyl ester, (3.alpha.,5.beta.)-
Formula: C27H41F3O4
CAS: 3793-41-7
Molecular weight: 486
m/z	intensity
44	153
50	60
51	134
53	75
54	54
55	744
56	45
57	117
59	132
60	12
65	16
67	434
68	437
69	999
70	49
71	27
73	149
74	160
77	119
78	43
79	334
80	122
81	623
82	205
83	217
84	10
85	72
87	101
91	194
92	60
93	446
94	193
95	518
96	77
97	91
99	38
105	263
106	170
107	473
108	250
109	322
110	57
111	61
115	84
117	32
118	10
119	287
120	85
121	272
122	188
123	210
124	61
128	12
129	10
131	149
133	137
134	55
135	177
136	80
137	49
141	42
142	36
143	38
145	77
147	135
148	70
149	322
150	41
151	40
154	145
155	24
157	31
159	51
160	19
161	94
162	88
163	50
169	75
173	12
174	30
175	49
176	11
177	27
181	48
187	11
189	22
201	57
203	43
215	324
216	164
217	157
218	101
219	32
230	64
231	44
257	186
258	36
262	40
263	17
265	9
284	40
285	132
286	28
315	58
318	20
329	348
330	140
331	15
333	46
344	211
345	38
357	78
369	16
372	498
373	173
374	54
437	35
486	45
