Mass Spectrum: Butanoic acid, heptafluoro-, silver(1+) salt
Formula: C4AgF7O2
CAS: 3794-64-7
Molecular weight: 320
m/z	intensity
31	31
44	320
45	11
47	19
50	77
62	17
69	728
70	11
74	11
78	11
81	44
93	28
100	999
101	28
107	336
109	314
119	86
131	111
150	115
151	15
153	10
169	76
214	55
216	99
218	47
230	9
232	16
233	27
234	8
235	46
237	23
427	103
429	195
430	10
431	94
