Mass Spectrum: 2-(2-Methyl-2-aminopropyl)indole
Formula: C12H16N2
CAS: 3794-97-6
Molecular weight: 188
m/z	intensity
42	61
43	17
57	22
58	999
59	35
77	42
103	25
130	130
131	155
188	79
