Mass Spectrum: Trifluoroguanidine
Formula: CH2F3N3
CAS: 37950-72-4
Molecular weight: 113
m/z	intensity
27	421
28	812
29	12
41	165
42	723
43	14
46	401
47	6
56	17
61	999
62	19
75	12
113	18
114	1
