Mass Spectrum: 3-Buten-2-amine, N,N-diethyl-
Formula: C8H17N
CAS: 37969-64-5
Molecular weight: 127
m/z	intensity
25	0
27	266
28	413
29	393
30	214
31	3
37	1
38	5
39	91
40	14
41	139
42	338
43	35
44	311
45	8
46	2
48	0
49	0
50	5
51	12
52	11
53	52
54	65
55	678
56	474
57	56
58	968
59	33
60	0
63	0
64	0
65	1
66	1
67	24
68	32
69	24
70	87
71	17
72	153
73	8
77	0
78	0
79	1
80	5
81	5
82	29
83	17
84	57
85	4
86	1
93	0
94	1
95	1
96	17
97	7
98	50
99	12
100	360
101	23
102	0
103	0
104	0
105	0
106	0
107	0
108	1
109	1
110	11
111	3
112	999
113	79
114	3
124	0
125	0
126	11
127	194
128	18
129	0
