Mass Spectrum: 3-Nonen-1-yne, (Z)-
Formula: C9H14
CAS: 37981-61-6
Molecular weight: 122
m/z	intensity
27	209
29	620
30	15
31	15
32	1
38	12
39	386
40	89
41	705
42	400
43	65
44	10
45	5
49	1
50	24
51	68
52	155
53	140
54	38
55	461
56	55
57	147
58	8
59	12
62	4
63	39
64	17
65	257
66	295
67	174
68	100
69	75
70	133
71	7
73	1
74	6
75	5
76	5
77	411
78	124
79	999
80	335
81	158
82	33
83	12
84	1
89	6
90	2
91	283
92	32
93	622
94	157
95	11
96	3
103	3
105	29
106	4
107	324
108	25
109	2
115	1
117	1
121	18
122	68
123	6
