Mass Spectrum: 2-Trifluoromethyl-2-hydropentafluoropropylethyl ether
Formula: C6H6F8O
CAS: 380-30-3
Molecular weight: 246
m/z	intensity
26	12
27	115
28	62
29	999
30	21
31	499
32	3
43	15
44	8
45	152
46	2
69	202
70	2
95	30
110	5
113	170
114	4
130	2
131	7
132	5
143	2
159	7
179	22
181	43
201	71
202	5
226	2
231	106
232	3
245	38
246	3
