Mass Spectrum: Ethyl-1,1,2,3,3,3-hexafluoropropylsulfide
Formula: C5H6F6S
CAS: 380-35-8
Molecular weight: 212
m/z	intensity
26	25
27	331
28	146
29	999
30	19
35	62
36	8
44	4
45	91
46	34
47	150
48	12
51	23
57	2
58	28
59	63
60	36
61	276
62	17
63	66
64	2
65	5
69	171
70	2
76	5
82	31
83	186
84	3
85	5
101	19
111	432
112	18
113	34
145	17
151	78
152	9
164	12
165	46
166	9
193	7
197	81
198	7
211	5
212	302
213	19
214	11
