Mass Spectrum: Diphosphoric acid, mono[[2-methyl-3-(2,6,10,14-tetramethyl-1,5,9,13-pentadecatetraenyl)-2-(4,8,12-trimethyl-3,7,11-tridecatrienyl)cyclopropyl]methyl] ester, [1.alpha.,2.beta.(3E,7E),3.beta.(1E,5E,9E)]-
Formula: C40H68O7P2
CAS: 38005-61-7
Molecular weight: 722
m/z	intensity
33	20
34	44
35	164
36	128
37	32
38	36
39	72
40	136
41	939
42	64
43	839
44	192
45	40
46	32
52	24
53	52
54	72
55	967
56	156
57	879
58	200
59	64
60	56
65	8
66	28
67	32
68	56
69	999
70	364
71	80
72	48
73	28
74	12
81	923
113	8
114	16
115	28
116	52
117	124
118	60
119	32
120	24
156	28
157	64
158	72
159	232
160	148
161	76
162	100
199	28
200	48
201	200
202	72
203	168
204	48
205	32
206	24
240	28
241	40
242	64
243	28
268	32
269	80
270	96
271	488
272	132
273	80
274	44
275	76
337	24
338	40
339	384
340	44
341	16
342	8
405	8
406	32
407	152
408	60
409	32
410	24
473	16
474	32
475	240
476	76
477	32
478	24
499	28
500	32
501	152
502	52
503	32
542	20
543	28
544	480
545	108
546	32
547	28
