Mass Spectrum: N-Acetylnorephedrine
Formula: C11H15NO2
CAS: 38014-69-6
Molecular weight: 193
m/z	intensity
42	43
43	191
44	999
45	37
51	36
72	132
77	117
78	22
79	90
86	163
87	566
88	27
105	28
106	3
107	38
115	4
117	7
118	4
132	3
133	17
134	13
