Mass Spectrum: Pyridine, 1,2,3,6-tetrahydro-1-benzyl-4-phenyl-
Formula: C18H19N
CAS: 38025-45-5
Molecular weight: 249
m/z	intensity
42	133
43	14
44	6
45	10
46	1
48	0
49	0
50	16
51	62
52	17
53	27
54	20
55	13
56	8
57	9
58	0
59	1
60	3
61	1
62	6
63	37
64	6
65	187
66	10
67	4
68	2
69	5
70	2
71	8
72	0
73	4
74	5
75	9
76	15
77	83
78	36
79	8
80	15
81	4
82	3
83	4
84	3
85	5
86	4
87	3
88	1
89	48
91	999
92	101
93	6
94	2
95	2
96	2
97	3
98	1
99	1
100	0
101	5
102	42
103	106
104	24
105	10
106	6
107	1
108	1
109	2
110	1
111	2
112	0
113	3
114	3
115	187
116	51
117	31
118	17
119	3
120	6
121	1
122	0
123	0
124	5
125	1
126	6
127	48
128	120
129	232
130	150
131	199
132	24
133	2
134	1
135	1
137	1
139	3
140	2
141	13
142	6
143	23
144	13
145	3
146	2
147	0
149	2
150	0
151	1
152	1
153	1
154	8
155	6
156	79
157	16
158	202
159	24
160	1
161	0
163	0
165	2
166	1
167	3
168	4
169	3
170	23
171	7
172	281
173	34
174	2
176	0
177	0
178	3
179	2
180	1
181	2
182	0
184	0
185	0
189	1
190	0
191	2
192	1
193	2
194	2
195	0
197	0
199	0
200	0
201	2
202	1
203	1
204	1
205	2
206	1
207	0
208	0
210	0
213	0
215	1
216	0
217	1
218	1
219	1
220	23
221	5
222	0
226	0
228	0
229	0
230	0
231	0
232	1
233	0
234	8
235	2
236	0
241	0
242	0
243	0
244	0
245	0
246	7
247	3
248	423
249	966
250	219
251	20
252	0
