Mass Spectrum: Cyclohexanol, 2-methyl-5-(1-methylethenyl)-, (1.alpha.,2.beta.,5.alpha.)-
Formula: C10H18O
CAS: 38049-26-2
Molecular weight: 154
m/z	intensity
25	0
26	14
27	334
29	161
30	17
31	67
34	0
37	4
38	19
39	465
40	92
41	970
42	124
43	908
44	31
45	46
46	2
47	0
48	0
49	2
50	27
51	82
52	41
53	299
54	74
55	872
56	179
57	200
58	200
59	56
60	3
61	3
62	7
63	24
64	4
65	87
66	46
67	523
68	357
69	578
70	197
71	201
72	83
73	7
74	2
75	0
76	1
77	154
78	34
79	549
80	144
81	749
82	219
83	309
84	178
85	34
86	6
89	2
91	161
92	275
93	999
94	322
95	320
96	334
97	329
98	49
99	12
100	0
103	5
104	0
105	70
106	20
107	732
108	147
109	41
110	67
111	419
112	75
113	17
114	0
115	1
117	2
119	13
120	3
121	866
122	87
123	25
124	2
125	13
126	5
127	0
134	0
135	17
136	587
137	74
138	6
139	36
140	2
151	0
152	6
153	5
154	173
155	19
156	1
