Mass Spectrum: Phosphoranamine, 1,1,1,1-tetrafluoro-, (TB-5-11)-
Formula: F4H2NP
CAS: 38047-37-9
Molecular weight: 123
m/z	intensity
31	9
50	45
69	172
83	27
84	440
85	136
88	109
103	177
104	999
107	776
122	23
