Mass Spectrum: 3-Hydroxy-2-methylbutanenitrile
Formula: C5H9NO
CAS: 38046-46-7
Molecular weight: 99
m/z	intensity
19	2
26	11
27	45
28	51
29	38
38	9
39	30
40	15
41	26
42	21
43	113
45	999
46	23
50	9
51	22
52	46
53	17
54	307
55	549
56	191
57	14
66	9
68	21
84	23
