Mass Spectrum: 2-Trimethylsilyloxy-1,3-butadiene
Formula: C7H14OSi
CAS: 38053-91-7
Molecular weight: 142
m/z	intensity
25	0
26	15
27	143
28	15
29	46
30	4
31	17
37	0
38	3
39	42
40	5
41	37
42	26
43	110
44	43
45	197
46	13
47	123
48	7
49	5
50	13
51	22
52	13
53	41
54	3
55	31
56	23
57	19
58	22
59	61
60	16
61	75
62	5
63	11
64	3
65	6
66	5
67	12
68	8
69	5
70	8
71	19
72	54
73	271
74	29
75	999
76	55
77	39
81	1
83	10
84	5
85	460
86	40
87	27
88	1
89	0
91	1
95	0
96	1
97	29
98	9
99	50
100	4
101	17
102	3
103	1
109	11
110	2
111	32
112	6
113	4
114	2
115	4
117	1
123	0
124	0
125	11
126	2
127	611
128	65
129	24
130	1
131	1
133	0
139	0
141	45
142	189
143	28
144	8
145	1
