Mass Spectrum: Propanedioic acid, (1,3-dihydro-1,3-dioxo-2H-isoindol-2-yl)-, bis(phenylmethyl) ester
Formula: C25H19NO6
CAS: 38068-70-1
Molecular weight: 429
m/z	intensity
50	190
51	190
65	629
76	519
77	410
91	999
92	789
103	200
104	679
105	280
119	769
130	170
132	250
133	140
147	160
148	170
160	619
161	110
180	470
187	100
204	999
205	160
232	819
233	150
236	170
250	110
294	60
429	8
