Mass Spectrum: 2-Methyl-oct-2-enedial
Formula: C9H14O2
CAS: 38061-92-6
Molecular weight: 154
m/z	intensity
26	37
27	421
28	89
29	492
30	30
31	57
38	33
39	459
40	116
41	879
42	190
43	607
44	108
45	53
46	24
50	39
51	98
52	52
53	387
54	166
55	791
56	250
57	266
58	283
59	30
63	26
65	107
66	144
67	515
68	213
69	368
70	144
71	280
72	30
74	37
75	14
77	157
78	40
79	421
80	120
81	506
82	251
83	460
84	332
85	62
86	13
87	40
91	126
92	62
93	290
94	68
95	866
96	199
97	783
98	193
99	27
100	16
101	17
102	26
103	17
105	33
107	84
108	271
109	248
110	999
111	289
112	54
113	30
121	85
122	15
123	21
124	26
125	891
126	165
127	23
135	35
136	95
137	23
139	36
153	19
154	58
155	13
