Mass Spectrum: Trifluoroacetyl-diisopropylphosphine
Formula: C8H14F3OP
CAS: 38079-77-5
Molecular weight: 214
m/z	intensity
39	29
41	317
42	49
43	999
44	80
45	50
47	70
48	59
55	19
57	30
59	29
61	40
69	88
71	29
73	69
74	49
75	339
76	29
117	300
118	20
130	30
145	29
152	20
186	9
214	298
