Mass Spectrum: trans-2,2-Dimethyl-3-(2'-methyl-1'-propenyl)cyclobutanol
Formula: C10H18O
CAS: 38086-95-2
Molecular weight: 154
m/z	intensity
41	240
42	24
43	194
53	89
54	79
55	186
57	339
65	50
67	999
68	85
69	59
72	650
77	67
79	93
81	135
82	949
83	12
84	758
91	53
93	71
95	410
106	99
110	156
111	30
121	40
136	36
137	6
154	8
