Mass Spectrum: (E)-1-Methylsulfinyl-2-phenylethene
Formula: C9H10OS
CAS: 38082-31-4
Molecular weight: 166
m/z	intensity
91	999
103	760
104	90
107	310
118	350
119	520
120	60
134	40
135	200
136	40
149	60
150	190
151	300
152	40
166	660
