Mass Spectrum: Tetrafluoro(trifluoromethyl)iodine
Formula: CF7I
CAS: 38091-67-7
Molecular weight: 272
m/z	intensity
31	100
50	130
69	999
127	470
139	10
142	10
146	210
158	10
165	700
177	110
184	130
196	340
203	160
215	10
253	90
