Mass Spectrum: 1,3-Butadiene, 2-fluoro-
Formula: C4H5F
CAS: 381-61-3
Molecular weight: 72
m/z	intensity
2	5
12	25
13	22
14	26
15	10
19	2
20	2
24	8
25	39
26	167
27	323
28	15
29	1
31	59
33	13
34	1
35	6
36	21
37	58
38	44
39	356
40	12
41	6
42	1
43	2
44	45
45	144
46	771
47	17
48	15
49	71
50	204
51	425
52	201
53	54
54	2
55	3
56	13
57	195
58	7
67	1
68	26
69	31
70	62
71	221
72	999
73	43
74	1
