Mass Spectrum: 3,4-Diamino-1,2,4(4H)-triazole
Formula: C2H5N5
CAS: 38104-45-9
Molecular weight: 99
m/z	intensity
41	59
42	157
43	849
44	49
53	50
54	59
55	48
57	69
84	50
99	999
