Mass Spectrum: (CH3)2CHSC(O)OCH3
Formula: C5H10O2S
CAS: 38103-97-8
Molecular weight: 134
m/z	intensity
14	2
15	101
16	1
26	9
27	158
28	27
29	33
30	7
31	90
32	10
33	25
34	8
35	16
37	6
38	13
39	131
40	22
41	587
42	149
43	938
44	36
45	60
46	19
47	160
48	49
49	76
50	3
51	3
55	4
56	2
57	9
58	29
59	566
60	58
61	37
62	27
63	5
64	5
69	2
71	4
73	6
74	63
75	191
76	17
77	9
84	2
89	2
91	2
92	999
93	369
94	57
95	16
102	2
103	9
108	3
117	3
119	49
120	2
121	2
134	509
135	33
136	24
137	1
