Mass Spectrum: 5,5-Dimethyl-1-oxa-5-silacyclononanone-9
Formula: C9H18O2Si
CAS: 38109-17-0
Molecular weight: 186
m/z	intensity
58	30
59	50
60	10
61	30
70	110
71	10
72	180
73	10
75	629
76	60
77	40
85	30
88	80
99	120
100	50
101	999
102	90
103	40
115	80
116	220
117	200
118	20
127	20
128	20
129	360
130	100
131	10
143	120
144	70
145	170
146	20
158	140
159	20
171	120
172	20
185	10
