Mass Spectrum: (CH3)3CSC(O)OCH3
Formula: C6H12O2S
CAS: 38103-98-9
Molecular weight: 148
m/z	intensity
15	29
26	1
27	23
28	11
29	150
30	5
31	13
32	3
33	4
34	1
35	1
37	1
38	3
39	49
40	7
41	290
42	12
43	4
44	8
45	15
46	3
47	8
48	1
49	37
50	2
51	4
53	6
54	1
55	27
56	47
57	999
58	50
59	89
60	7
61	10
62	2
63	1
71	2
73	9
74	7
75	2
76	1
89	4
92	26
93	28
94	2
95	1
122	1
133	2
148	103
149	7
150	5
