Mass Spectrum: 2-Methyl-3-methylthio-6-phenyl-5-thioxo-2,5-dihydro-triazine
Formula: C11H11N3S2
CAS: 38119-48-1
Molecular weight: 249
m/z	intensity
42	60
43	99
45	50
56	50
63	109
72	117
73	69
76	78
77	128
83	695
88	469
89	209
99	999
103	129
104	78
130	90
133	78
134	49
146	48
248	576
249	397
