Mass Spectrum: Dimethyl dl-malate
Formula: C6H10O5
CAS: 38115-87-6
Molecular weight: 162
m/z	intensity
14	6
15	97
16	2
19	1
25	1
26	10
27	27
28	13
29	93
30	16
31	59
32	4
33	154
34	2
38	1
39	6
40	1
41	19
42	124
43	721
44	140
45	47
46	2
47	4
52	1
53	11
54	6
55	39
56	3
57	14
58	14
59	293
61	465
62	10
63	2
68	1
69	17
71	824
72	28
73	6
74	84
75	5
76	1
81	2
82	1
85	20
86	2
87	4
88	1
89	5
90	1
91	1
99	1
101	13
102	82
103	999
104	46
105	7
106	6
113	50
114	4
115	2
117	4
130	41
131	50
132	3
147	1
