Mass Spectrum: 2-Hydroxy-6-methylpyridine-3-carboxylic acid
Formula: C7H7NO3
CAS: 38116-61-9
Molecular weight: 153
m/z	intensity
15	14
16	1
25	2
26	16
27	62
29	16
30	6
31	2
32	7
36	3
37	44
38	100
39	178
40	39
41	49
42	181
43	21
44	20
45	42
49	12
50	38
51	61
52	145
53	243
54	36
55	29
56	4
57	1
60	17
62	22
63	41
64	42
65	38
66	51
67	14
68	24
69	8
70	3
71	2
72	1
73	1
74	2
75	5
76	7
77	8
78	31
79	123
80	427
81	79
82	9
83	7
84	2
86	1
87	1
88	1
89	1
90	3
91	22
92	12
93	8
94	7
95	4
96	6
97	3
98	1
104	1
105	2
106	35
107	167
108	239
109	999
110	71
111	8
112	1
114	1
115	1
119	2
120	37
121	5
124	3
125	1
126	1
127	1
128	1
133	1
134	3
135	34
136	73
137	7
138	7
139	4
140	1
141	1
153	308
154	27
155	4
