Mass Spectrum: 3-Methylthio-4-methyl-6-phenyl-5-thio-4,5-dihydro-1,2,4-triazine
Formula: C11H11N3S2
CAS: 38119-59-4
Molecular weight: 249
m/z	intensity
41	291
42	188
43	479
45	274
46	112
47	120
50	239
51	357
57	172
63	220
72	314
73	338
74	379
76	311
77	410
83	260
89	563
99	999
103	289
104	339
115	192
116	90
133	290
134	119
146	200
147	171
148	238
159	129
234	191
248	373
249	762
