Mass Spectrum: Cyclopenta[e]-[1,2]-oxazine, 3,4,4a,7a(2H,5H)-tetrahydro-2-(t-butyl)-3-cyano-
Formula: C12H18N2O
CAS: 38110-75-7
Molecular weight: 206
m/z	intensity
26	19
27	113
29	95
30	11
31	11
36	5
38	8
39	72
40	24
41	181
42	34
43	31
44	45
49	4
50	18
51	39
52	46
53	27
54	22
55	40
56	67
57	999
58	94
59	12
60	9
63	5
64	5
65	22
66	72
67	24
68	13
69	11
70	10
71	9
72	8
73	5
74	20
75	5
76	6
77	69
78	40
79	621
80	615
81	44
82	10
83	6
84	9
85	7
86	5
88	4
89	8
90	6
91	35
92	7
93	10
94	22
95	19
96	18
97	7
98	4
99	24
102	9
103	5
104	17
105	70
106	99
107	21
108	7
109	7
111	5
113	6
116	9
117	10
118	78
119	13
120	5
121	9
122	12
123	88
124	14
125	5
126	4
127	71
128	8
129	4
131	4
132	4
133	29
134	6
136	4
140	4
146	62
147	8
149	15
150	43
151	5
161	14
164	12
179	25
180	4
191	11
206	65
207	11
