Mass Spectrum: [4,4':4',4''-Terpyrazolidine]-3,3',3'',5,5',5''-hexone, 1,1',1'',2,2',2''-hexaphenyl-
Formula: C45H32N6O6
CAS: 3812-22-4
Molecular weight: 752
m/z	intensity
64	80
77	999
91	460
93	470
105	200
119	340
124	430
172	100
183	310
252	150
302	20
320	50
450	80
502	70
752	35
