Mass Spectrum: 2-Piperidinone, 3,6-diethenyl-1-phenyl-
Formula: C15H17NO
CAS: 38120-15-9
Molecular weight: 227
m/z	intensity
26	9
27	133
29	32
30	5
37	5
38	21
39	269
40	51
41	175
42	17
43	5
44	2
50	34
51	188
52	39
53	200
54	925
55	63
56	6
62	4
63	31
64	43
65	88
66	145
67	245
68	93
69	13
74	5
75	9
76	20
77	479
78	104
79	294
80	175
81	115
82	9
83	6
89	9
90	11
91	167
92	39
93	193
94	46
95	14
96	85
97	14
102	4
103	20
104	108
105	36
106	33
107	34
108	49
109	7
110	7
115	22
116	11
117	84
118	52
119	999
120	91
121	8
122	22
123	26
127	3
128	15
129	16
130	220
131	109
132	124
133	20
134	6
135	12
136	10
142	4
143	20
144	70
145	31
146	7
147	3
150	4
154	4
156	18
157	8
158	18
159	14
160	11
161	3
167	3
168	5
169	3
170	21
171	12
172	52
173	15
174	3
182	4
183	3
184	24
185	5
186	9
197	3
198	49
199	31
200	65
201	10
210	4
212	40
213	9
225	7
226	59
227	477
228	86
229	8
