Mass Spectrum: Bicyclo[2.2.1]hept-5-ene-2,3-dicarboxylic acid
Formula: C9H10O4
CAS: 3813-52-3
Molecular weight: 182
m/z	intensity
26	21
27	45
29	11
31	7
36	3
37	9
38	24
39	128
40	59
41	33
42	5
43	20
44	8
45	44
46	7
49	2
50	23
51	49
52	15
53	28
54	13
55	31
56	2
57	6
58	3
59	3
60	5
61	7
62	15
63	37
64	15
65	135
66	999
67	94
68	8
69	7
70	2
71	8
72	6
73	3
74	3
75	3
76	2
77	47
78	22
79	37
80	6
81	13
82	6
83	7
84	4
85	2
86	2
87	2
89	13
90	20
91	222
92	93
93	23
94	8
95	7
97	7
98	3
99	129
100	7
101	1
105	5
107	6
108	8
109	3
110	5
111	2
113	4
117	155
118	25
119	110
120	39
121	4
122	2
123	2
125	3
131	11
133	4
135	2
136	34
137	62
138	16
139	2
146	2
149	7
150	1
151	3
154	2
164	50
165	9
166	1
182	15
183	2
184	0
