Mass Spectrum: 2-Fluoro-N-[2,2,2-trichloro-1-(toluene-4-sulfonyl)-ethyl]-acetamide
Formula: C11H11Cl3FNO3S
CAS: 38133-28-7
Molecular weight: 361
m/z	intensity
33	406
35	28
36	66
37	10
38	42
39	88
40	26
41	38
42	27
43	21
44	25
45	33
46	6
47	51
48	19
49	27
50	24
51	40
52	13
53	10
54	3
55	13
56	5
57	11
59	14
60	121
61	999
62	46
63	59
64	31
65	203
66	13
67	19
68	4
69	17
70	9
71	9
72	4
73	19
74	39
75	17
76	23
77	48
78	19
79	21
80	9
81	10
82	60
83	67
84	41
85	43
86	13
87	18
88	188
89	51
90	43
91	318
92	116
93	13
94	4
95	14
96	6
97	12
98	2
99	4
100	1
101	2
102	5
103	3
104	5
105	5
106	6
107	23
108	29
109	28
110	68
111	85
112	42
113	43
114	9
115	11
116	3
117	17
118	3
119	25
120	7
121	16
122	8
123	17
124	18
125	4
126	3
127	4
128	5
129	1
130	2
131	2
132	1
133	2
134	2
135	7
136	58
137	28
138	36
139	219
140	35
141	18
142	30
143	5
144	25
146	150
148	141
149	12
150	40
151	3
152	6
153	3
154	8
155	38
156	29
157	7
158	2
160	0
162	1
163	1
164	1
165	3
166	1
168	3
169	6
170	13
171	18
172	21
173	12
174	13
175	2
176	5
178	1
180	2
181	0
185	1
188	0
192	0
193	1
194	0
199	3
200	0
201	0
204	4
206	267
208	255
209	15
210	74
211	5
212	9
213	0
221	1
222	1
223	0
224	1
225	0
226	0
249	6
250	1
256	0
270	0
290	57
291	9
292	18
293	3
294	1
