Mass Spectrum: 1,1,1,3,5,5,7,7,7-Nonamethyl-3-(trimethylsiloxy)tetrasiloxane
Formula: C12H36O4Si5
CAS: 38146-99-5
Molecular weight: 384
m/z	intensity
45	70
59	70
73	999
74	90
75	60
133	70
147	450
148	90
149	70
191	70
193	60
207	130
208	60
215	70
265	90
281	580
282	190
283	110
369	200
370	90
