Mass Spectrum: 6-Methyl-2-(4-methylcyclohex-3-en-1-yl)hepta-1,5-dien-4-ol
Formula: C15H24O
CAS: 38142-56-2
Molecular weight: 220
m/z	intensity
27	122
28	44
29	189
37	4
38	5
39	400
40	70
41	846
42	58
43	291
49	5
50	29
51	189
52	51
53	367
54	36
55	352
57	532
62	15
63	38
64	33
65	325
66	97
67	532
68	70
69	250
70	32
71	37
72	36
73	7
74	9
75	11
76	8
77	630
78	149
79	496
80	142
81	320
82	92
85	109
86	25
89	35
91	904
92	221
93	520
94	234
95	294
96	67
97	53
99	28
100	5
102	31
103	84
104	38
105	791
106	218
107	435
108	105
114	8
115	147
116	58
117	393
118	104
119	999
120	381
121	294
122	77
123	43
125	21
128	74
129	40
130	59
131	656
132	93
133	162
134	323
135	26
138	60
141	36
142	31
143	34
144	41
145	402
146	135
147	172
148	68
157	17
158	18
159	364
160	86
161	29
172	16
173	62
174	8
187	462
188	83
202	693
203	52
220	77
221	15
