Mass Spectrum: 1,1,1,5,7,7,7-Heptamethyl-3,3-bis(trimethylsiloxy)tetrasiloxane
Formula: C13H40O5Si6
CAS: 38147-00-1
Molecular weight: 444
m/z	intensity
45	220
59	280
73	999
74	110
133	230
147	600
148	110
191	90
207	260
221	180
267	460
268	120
281	260
341	290
342	120
355	380
356	120
429	350
430	120
431	90
