Mass Spectrum: 2-Cyclohexene-1-methanol, 2,6-dimethyl-6-(4-methyl-3-pentenyl)-
Formula: C15H26O
CAS: 38142-34-6
Molecular weight: 222
m/z	intensity
65	140
67	290
68	80
69	999
70	110
71	80
77	160
79	240
80	80
81	60
82	310
83	240
85	40
91	310
92	60
93	490
94	110
95	290
96	100
97	110
105	220
106	80
107	820
108	190
109	770
110	70
119	130
120	90
121	470
122	880
123	360
124	30
133	80
135	150
136	50
137	50
138	50
139	70
147	60
148	50
149	70
161	430
162	60
166	50
179	30
189	140
190	30
191	120
192	30
204	200
205	30
222	260
223	40
