Mass Spectrum: (+-)-5,5-Dimethyl-4-(3-oxobutyl)dihydro-2(3H)-furanone 4-(2,4-dinitrophenylhydrazone)
Formula: C16H20N4O6
CAS: 38159-46-5
Molecular weight: 364
m/z	intensity
12	4
13	3
14	12
15	22
16	6
24	4
25	14
26	97
27	259
28	999
29	115
30	166
31	14
37	10
38	40
39	196
40	108
41	585
42	280
43	871
44	157
45	26
46	22
47	4
49	5
50	50
51	108
52	99
53	208
54	95
55	334
56	53
57	112
58	31
59	65
60	12
61	21
62	35
63	105
64	64
65	96
66	50
67	170
68	157
69	152
70	58
71	40
72	24
73	10
74	17
75	82
76	112
77	206
78	125
79	260
80	133
81	408
82	115
83	85
84	18
85	186
86	11
87	7
88	11
89	40
90	71
91	150
92	121
93	163
94	142
95	132
96	77
97	87
98	58
99	38
100	5
101	9
102	21
103	68
104	100
105	103
106	99
107	732
108	149
109	192
110	38
111	206
112	20
113	17
114	22
115	57
116	57
117	107
118	48
119	91
120	73
121	256
122	163
123	179
124	47
125	86
126	25
127	124
128	42
129	34
130	57
131	67
132	40
133	43
134	44
135	45
136	45
137	40
138	58
139	139
140	101
141	33
142	29
143	42
144	43
145	59
146	32
147	43
148	63
149	195
150	74
151	76
152	108
153	59
154	23
155	22
156	34
157	41
158	37
159	31
160	20
161	113
162	41
163	132
164	62
165	145
166	129
167	673
168	116
169	40
170	27
171	76
172	21
173	32
174	24
175	36
176	20
177	66
178	247
179	39
180	109
181	85
182	45
183	85
184	29
185	25
186	17
187	18
188	12
189	17
190	31
191	142
192	35
193	15
194	14
195	31
196	118
197	35
198	16
199	15
200	9
201	20
202	17
203	87
204	83
205	23
206	9
207	72
208	16
209	11
210	8
211	10
212	10
213	13
214	25
215	33
216	117
217	175
218	47
219	24
220	18
221	66
222	17
223	13
224	10
225	10
226	9
227	9
228	28
229	72
230	24
231	25
232	35
233	23
234	6
235	12
236	4
237	32
238	87
239	16
240	6
241	26
242	32
243	55
244	35
245	23
246	7
247	9
248	4
249	27
250	32
251	38
252	6
253	5
254	6
255	12
256	9
257	17
258	8
259	20
260	8
261	23
262	7
263	28
264	6
265	3
267	3
268	7
269	24
270	17
271	50
272	16
273	11
274	9
275	9
276	27
277	7
278	7
279	2
280	2
281	2
282	3
283	9
284	9
285	20
286	8
287	154
288	24
289	42
290	6
291	3
296	3
297	2
298	3
299	4
300	14
301	6
302	7
303	11
304	11
305	12
306	7
307	2
311	5
313	9
314	6
315	16
316	5
317	5
318	18
319	5
320	2
321	4
328	3
329	9
330	50
331	19
332	5
333	2
334	17
335	3
346	4
347	15
348	5
349	57
350	10
362	7
364	114
365	20
366	4
