Mass Spectrum: dl-2-(3-Thienyl)glycine
Formula: C6H7NO2S
CAS: 38150-49-1
Molecular weight: 157
m/z	intensity
17	2
18	1
26	1
27	4
28	49
29	5
30	2
32	2
34	1
36	4
37	4
38	8
39	40
40	3
41	17
42	2
43	3
44	21
45	94
46	3
47	4
49	1
50	6
51	10
52	8
53	3
54	5
55	3
56	16
57	9
58	16
59	7
60	2
61	1
62	1
63	1
64	2
65	3
66	3
67	4
68	2
69	10
70	6
71	3
74	3
78	2
80	2
81	4
82	6
83	15
84	10
85	431
86	22
87	19
91	2
93	1
95	3
96	8
97	5
98	1
99	1
109	21
110	65
111	33
112	999
113	82
114	47
115	3
122	1
124	1
125	1
139	1
141	3
142	1
157	2
