Mass Spectrum: 2-(1-Hydroxyhexafluoroisopropyl)furan
Formula: C7H4F6O2
CAS: 3817-21-8
Molecular weight: 234
m/z	intensity
37	83
38	198
39	453
50	69
51	54
57	38
66	50
67	51
69	450
75	15
94	80
95	999
96	47
117	23
119	14
145	37
146	6
165	497
166	27
167	41
195	105
196	9
217	7
234	326
235	15
