Mass Spectrum: Methyl 7-(2-furoyl)heptanoate
Formula: C13H18O4
CAS: 38199-47-2
Molecular weight: 238
m/z	intensity
39	180
41	160
43	50
55	140
59	70
69	70
74	30
81	50
95	770
110	999
111	170
123	170
139	30
147	20
161	30
165	30
178	20
207	50
220	20
238	40
