Mass Spectrum: 1,1,2,3,3,3-Hexafluoropropyl methyl ether
Formula: C4H4F6O
CAS: 382-34-3
Molecular weight: 182
m/z	intensity
12	6
13	17
15	999
16	11
19	2
25	1
26	1
27	6
29	158
30	29
31	177
32	26
33	10
35	4
41	1
42	2
43	6
44	12
45	5
47	89
48	1
50	23
51	176
52	2
60	21
61	1
62	5
63	25
64	1
65	1
66	3
67	1
69	262
71	2
74	1
75	3
81	733
82	113
83	4
91	4
93	7
94	3
95	1
101	93
102	2
113	18
129	79
130	3
131	7
132	2
151	25
152	1
163	56
164	2
181	2
