Mass Spectrum: Benzene, (3-methyl-1-methylenebutyl)-
Formula: C12H16
CAS: 38212-14-5
Molecular weight: 160
m/z	intensity
27	86
28	9
29	17
30	0
31	1
32	1
37	1
38	5
39	89
40	10
41	123
42	7
43	214
44	9
45	1
50	23
51	82
52	23
53	18
54	2
55	20
56	4
58	4
59	0
61	1
62	8
63	31
64	9
65	35
66	3
67	17
68	2
69	7
71	10
72	0
73	0
74	8
75	14
76	18
77	113
78	144
79	17
80	1
81	2
82	5
83	13
84	1
85	4
86	1
87	6
88	1
89	17
90	4
91	110
92	9
93	0
94	0
96	0
97	6
98	1
99	4
100	2
101	4
102	36
103	129
104	39
105	38
106	3
107	0
109	0
111	0
112	1
113	3
114	3
115	129
116	49
117	215
118	999
119	95
120	7
121	0
125	0
126	2
127	10
128	28
129	23
130	17
131	9
132	1
134	0
137	1
138	2
139	4
140	1
141	5
142	2
143	7
144	3
145	153
146	18
147	2
153	0
154	0
155	2
159	5
160	94
161	14
162	2
