Mass Spectrum: Bicyclo[2.2.1]heptane-2,3-diol, 1,7,7-trimethyl-, (endo,endo)-
Formula: C10H18O2
CAS: 38226-15-2
Molecular weight: 170
m/z	intensity
39	180
40	20
41	490
42	70
43	650
44	220
45	50
47	10
51	20
52	10
53	110
54	20
55	310
56	50
57	200
58	100
59	80
60	320
61	10
65	20
66	10
67	210
68	40
69	360
70	120
71	110
72	80
77	50
78	10
79	90
80	60
81	340
82	180
83	160
84	140
85	150
86	10
87	40
88	10
91	60
93	60
94	110
95	999
96	120
97	60
98	10
99	130
100	40
105	10
107	50
108	60
109	170
110	70
111	370
112	50
119	30
121	130
123	140
124	30
134	30
137	110
138	10
139	40
152	200
153	10
155	10
