Mass Spectrum: 1H-2,3-Benzodiazepine, 7,8-dimethoxy-
Formula: C11H12N2O2
CAS: 38224-77-0
Molecular weight: 204
m/z	intensity
39	430
50	330
51	470
62	220
63	580
64	250
77	440
89	650
90	999
91	220
102	290
103	530
105	750
115	560
118	930
131	220
133	830
161	920
162	140
176	999
177	170
204	310
