Mass Spectrum: 3-Cyclohexene-1-methanol, 5-hydroxy-.alpha.,.alpha.,4-trimethyl-, (1S-trans)-
Formula: C10H18O2
CAS: 38235-58-4
Molecular weight: 170
m/z	intensity
15	8
17	4
18	19
26	2
27	39
28	9
29	22
31	31
37	1
38	5
39	73
40	10
41	122
42	9
43	255
44	8
45	32
46	2
47	1
50	9
51	36
52	12
53	38
54	10
55	58
56	10
57	16
58	35
59	391
60	13
61	5
62	7
63	19
64	11
65	60
66	20
67	42
68	16
69	70
70	35
71	44
72	3
74	3
75	3
76	3
77	132
78	33
79	441
80	54
81	85
82	31
83	41
84	46
85	9
86	2
87	4
88	1
89	10
90	3
91	241
92	49
93	219
94	278
95	115
96	36
97	53
98	4
99	1
101	2
102	6
103	27
104	18
105	37
106	8
107	16
108	90
109	453
110	62
111	14
112	24
113	3
114	1
115	45
116	12
117	97
118	18
119	999
120	99
121	16
122	3
123	17
124	10
125	1
127	2
128	3
129	2
131	6
132	27
133	14
134	293
135	41
136	9
137	198
138	19
139	1
151	3
152	238
153	26
154	2
155	14
156	1
170	8
171	1
