Mass Spectrum: 1,6-Dithiacyclododecane
Formula: C10H20S2
CAS: 38241-91-7
Molecular weight: 204
m/z	intensity
53	150
54	150
55	999
57	120
59	150
60	290
61	370
67	290
69	110
73	100
81	220
82	220
83	100
87	830
88	290
89	220
101	90
115	320
116	340
120	250
171	60
204	220
