Mass Spectrum: 4(1H)-Pyrimidinone, 6-ethoxy-2-methyl-
Formula: C7H10N2O2
CAS: 38249-34-2
Molecular weight: 154
m/z	intensity
26	55
27	276
28	185
29	295
30	72
39	91
40	174
41	565
42	417
43	217
44	74
55	57
56	206
57	212
58	114
67	93
68	289
69	999
70	110
82	63
85	974
86	57
98	910
99	44
109	48
110	617
111	85
126	953
127	63
139	438
140	138
153	76
154	689
155	57
