Mass Spectrum: 1-Bromo-2-methyl-2-propanol
Formula: C4H9BrO
CAS: 38254-49-8
Molecular weight: 152
m/z	intensity
45	11
50	5
51	5
53	5
55	69
56	5
57	232
58	30
59	999
60	37
61	1
73	5
79	1
80	1
81	2
82	2
93	13
95	11
135	5
136	1
137	141
138	4
139	124
140	4
