Mass Spectrum: 2-Methoxy-N-methylethylamine
Formula: C4H11NO
CAS: 38256-93-8
Molecular weight: 89
m/z	intensity
14	2
15	31
26	4
27	18
28	78
29	38
30	40
31	19
32	5
33	2
39	1
40	4
41	12
42	57
43	40
44	999
45	62
46	1
54	3
55	4
56	43
57	13
58	34
59	36
60	1
72	2
73	1
88	5
89	74
90	4
