Mass Spectrum: 6-Trityloxy-hexan-1-ol
Formula: C25H28O2
CAS: 38257-95-3
Molecular weight: 360
m/z	intensity
12	3
13	3
14	3
15	22
16	3
17	2
18	9
19	27
25	2
26	14
27	163
28	77
29	311
31	999
33	4
35	4
37	2
39	106
41	388
42	76
43	135
44	42
45	32
46	2
47	4
48	2
49	2
50	24
51	128
52	16
53	29
55	353
56	38
57	53
58	4
59	5
61	3
62	4
63	15
64	2
65	14
66	2
67	23
68	7
69	15
70	8
71	14
72	2
73	2
74	5
77	334
78	61
79	11
80	2
81	16
82	9
83	65
84	6
85	4
86	2
87	5
88	3
89	11
91	37
92	3
93	1
95	4
97	2
98	3
99	9
100	3
101	14
102	6
103	3
105	839
106	69
107	14
110	2
111	1
113	10
115	39
116	4
117	17
118	3
120	10
121	4
123	1
125	2
126	6
127	5
128	3
129	2
133	1
137	2
139	15
140	2
141	4
142	2
147	2
149	1
150	4
151	7
152	24
153	14
154	24
155	9
156	1
159	4
160	2
161	1
163	17
165	459
166	73
167	28
168	4
175	2
176	5
177	2
178	3
179	1
181	19
183	343
184	47
185	3
187	3
188	3
189	8
190	1
191	1
195	1
200	3
201	2
202	17
203	4
204	1
211	1
213	7
214	3
215	26
216	7
224	1
226	14
227	10
228	27
229	7
230	1
237	4
238	3
239	35
240	13
241	28
243	449
244	165
245	22
246	3
251	1
259	139
260	27
261	3
283	26
284	7
360	5
361	1
