Mass Spectrum: 1H-Pyrrole-3-propanoic acid, 2-methyl-4-[2-oxo-2-(phenylmethoxy)ethyl]-5-[(phenylmethoxy)carbonyl]-, phenylmethyl ester
Formula: C32H31NO6
CAS: 38252-61-8
Molecular weight: 525
m/z	intensity
28	3
39	8
41	7
42	5
43	4
44	4
51	6
55	7
65	29
73	6
77	14
78	4
79	12
89	6
90	5
91	999
92	71
93	4
107	12
108	11
117	3
120	5
122	4
134	3
135	3
146	5
149	6
150	6
152	7
161	9
162	4
164	4
165	3
166	5
167	3
178	4
179	3
180	5
181	26
182	11
184	6
192	7
194	7
196	11
198	11
208	7
210	8
228	10
230	8
236	8
240	8
242	18
243	4
254	22
255	11
256	21
270	3
274	5
282	14
283	4
284	4
286	23
287	5
296	4
298	31
299	14
300	16
318	9
326	42
327	9
330	8
332	7
344	19
345	6
346	20
347	5
362	9
372	5
376	10
387	7
388	6
390	74
391	22
417	5
434	97
435	19
525	268
526	95
527	19
