Mass Spectrum: Benzamide, 2-nitro-N-(1-naphthalenyl)-
Formula: C17H12N2O3
CAS: 38267-68-4
Molecular weight: 292
m/z	intensity
37	4
38	13
39	44
41	52
42	11
43	41
44	3
45	8
46	7
48	0
49	4
50	145
51	127
52	28
53	11
54	4
55	36
56	9
57	34
59	4
60	12
61	5
62	25
63	75
64	34
65	41
66	5
67	8
68	4
69	19
70	12
71	15
73	14
74	68
75	86
76	297
77	64
78	35
79	8
80	2
81	7
82	4
83	12
84	5
85	6
86	10
87	23
88	38
89	88
90	18
91	10
92	32
93	7
94	3
95	6
96	4
97	7
98	7
99	6
100	5
101	14
102	11
103	7
104	77
105	14
106	2
107	3
108	4
109	4
110	3
111	6
112	9
113	68
114	102
115	999
116	107
117	7
118	2
119	4
120	20
121	6
122	2
123	2
124	1
125	5
126	19
127	29
128	9
129	7
130	0
140	102
141	43
142	528
143	72
144	8
145	0
150	125
151	13
152	0
187	0
188	3
189	12
190	7
191	2
192	0
201	2
202	6
203	2
204	0
215	4
216	14
217	14
218	2
219	0
229	1
230	0
245	3
246	2
247	1
248	0
262	3
263	0
264	0
292	77
293	14
294	1
295	0
