Mass Spectrum: 4-Cycloocten-1-amine, N-methyl-
Formula: C9H17N
CAS: 38278-15-8
Molecular weight: 139
m/z	intensity
27	71
28	13
29	78
30	111
39	107
40	19
41	166
42	159
43	39
44	121
45	6
49	6
51	17
52	12
53	59
54	43
55	73
56	205
57	999
58	96
63	6
65	23
66	18
67	94
68	66
69	20
70	458
71	256
72	20
77	34
78	13
79	83
80	40
81	54
82	62
83	53
84	231
85	43
91	22
92	6
93	33
94	21
95	18
96	294
97	124
98	32
102	6
105	6
107	8
108	26
109	16
110	255
111	255
112	34
122	7
124	48
125	10
136	6
138	41
139	152
140	18
