Mass Spectrum: (-)-Dimethyl 2,3-O-benzylidene-l-tartrate
Formula: C13H14O6
CAS: 38270-72-3
Molecular weight: 266
m/z	intensity
14	4
15	178
16	3
26	5
27	19
28	17
29	56
30	6
31	11
32	2
33	6
36	2
38	4
39	23
40	3
41	6
42	16
43	9
44	6
45	40
50	13
51	62
52	13
53	5
57	3
59	136
60	2
61	3
63	23
64	6
65	24
66	1
69	28
71	20
73	62
74	5
75	6
76	3
77	207
78	92
79	29
85	16
89	96
90	15
91	739
92	41
101	57
102	3
103	2
105	999
106	68
107	18
113	83
114	8
118	8
119	21
121	190
122	712
123	35
124	2
129	17
145	76
147	16
148	7
149	2
161	14
179	5
189	9
202	2
207	215
208	20
209	2
265	74
266	8
