Mass Spectrum: Tricyclo[8.2.2.2(4,7)]hexadeca-4,6,10,12,13,15-hexaene, 2-bromo-
Formula: C16H15Br
CAS: 38274-86-1
Molecular weight: 286
m/z	intensity
104	999
105	110
106	20
107	10
181	110
182	20
183	120
185	20
186	20
208	10
209	30
210	20
286	700
287	130
288	640
289	120
290	20
