Mass Spectrum: 1,3-Dioxolane, 4-hexyl-2,2-bis(trifluoromethyl)-
Formula: C11H16F6O2
CAS: 38274-66-7
Molecular weight: 294
m/z	intensity
39	19
40	11
41	99
42	44
43	156
44	9
45	2
47	1
50	1
51	3
52	2
53	23
54	48
55	340
56	65
57	139
58	15
59	9
60	1
61	3
65	8
66	14
67	114
68	129
69	999
70	214
71	60
72	4
73	4
75	3
77	4
78	4
79	14
80	12
81	145
82	71
83	75
84	12
85	17
86	1
87	2
89	6
91	1
93	6
95	54
96	9
97	62
98	5
99	11
100	4
107	1
109	21
110	26
111	250
112	23
113	3
119	0
125	4
127	4
128	31
129	1
138	1
139	20
140	1
147	4
153	7
154	1
159	5
165	0
167	1
180	3
181	7
191	0
207	1
208	4
209	39
210	6
211	1
222	0
223	7
224	4
225	208
226	22
227	1
235	1
237	3
238	1
251	1
253	1
265	0
266	1
281	2
