Mass Spectrum: 1,3-Dioxolane, 4-ethyl-5-hexyl-2,2-bis(trifluoromethyl)-, trans-
Formula: C13H20F6O2
CAS: 38274-67-8
Molecular weight: 322
m/z	intensity
39	28
40	15
41	149
42	88
43	162
44	9
45	4
47	4
50	1
51	4
52	3
53	38
54	52
55	598
56	93
57	340
58	29
59	238
60	10
61	13
62	0
63	0
65	10
66	11
67	150
68	114
69	685
70	203
71	155
72	18
73	5
75	3
77	7
78	3
79	16
80	11
81	157
82	128
83	999
84	70
85	43
86	4
87	2
89	3
91	5
92	0
93	5
94	5
95	61
96	73
97	747
98	57
99	14
100	1
103	0
107	2
108	3
109	122
110	13
111	7
112	2
113	12
114	2
115	85
116	6
117	1
119	1
123	4
125	8
127	6
128	2
129	1
135	0
137	13
138	13
139	146
140	13
141	2
147	6
148	4
152	4
153	12
154	0
155	6
158	2
161	0
165	0
167	18
168	0
181	4
188	31
189	2
193	1
194	5
195	8
205	0
207	13
208	91
209	13
210	0
211	1
221	4
222	4
223	17
224	8
225	29
226	1
235	2
236	7
237	22
238	9
239	0
244	13
245	0
249	1
251	6
252	41
253	379
254	48
255	4
264	1
265	0
293	14
294	1
321	0
