Mass Spectrum: trans-4-Pentylcyclohexanecarboxylic acid
Formula: C12H22O2
CAS: 38289-29-1
Molecular weight: 198
m/z	intensity
14	1
15	4
16	1
17	2
18	7
26	5
27	105
28	34
29	160
30	4
31	6
38	2
39	103
40	20
41	326
42	50
43	168
44	10
45	21
46	1
47	7
50	2
51	10
52	8
53	69
54	76
55	284
56	85
57	69
58	6
59	7
60	14
61	7
62	1
63	3
64	1
65	17
66	14
67	200
68	63
69	171
70	189
71	76
72	6
73	165
74	19
75	2
76	1
77	25
78	7
79	62
80	58
81	999
82	179
83	111
84	39
85	21
86	44
87	62
88	29
89	2
91	16
92	9
93	19
94	21
95	139
96	109
97	118
98	46
99	48
100	19
101	15
102	5
103	1
104	1
105	9
106	6
107	9
108	29
109	314
110	74
111	68
112	22
113	12
114	9
115	28
116	15
117	2
118	1
119	5
120	2
121	2
122	9
123	34
124	93
125	19
126	84
127	93
128	37
129	21
130	8
131	1
133	9
134	4
135	2
136	6
137	19
138	41
139	8
140	2
141	17
142	148
143	21
144	2
147	2
148	3
149	20
150	5
151	32
152	13
153	5
154	1
155	27
156	8
157	1
162	10
163	2
164	2
165	3
166	1
168	1
169	17
170	6
171	1
178	1
179	3
180	104
181	14
182	2
183	25
184	3
185	1
196	2
197	3
198	191
199	26
200	3
