Mass Spectrum: 5-Cyano-2-oxo-5-phenyl-cyclohexanecarboxylic acid, methyl ester
Formula: C15H15NO3
CAS: 38289-20-2
Molecular weight: 257
m/z	intensity
26	12
27	103
29	196
30	29
31	351
32	307
33	4
36	2
37	8
38	14
39	112
40	18
41	39
42	36
43	12
44	220
45	10
46	7
50	52
51	104
52	38
53	21
54	7
55	332
56	46
57	15
58	7
59	2
61	7
62	27
63	77
64	29
65	55
66	9
67	11
68	7
69	5
70	21
71	6
72	3
73	3
74	21
75	37
76	49
77	106
78	106
79	25
80	11
81	5
82	4
83	4
85	3
86	6
87	19
88	31
89	83
90	19
91	98
92	12
93	7
94	6
95	2
96	10
97	3
98	5
99	4
100	9
101	31
102	131
103	102
104	24
105	19
106	2
107	3
108	2
109	3
110	1
111	3
112	3
113	18
114	39
115	198
116	111
117	52
118	11
119	2
120	5
121	2
123	3
126	5
127	26
128	114
129	999
130	134
131	17
132	3
133	2
134	1
135	2
136	4
139	4
140	50
141	29
142	90
143	115
144	27
145	6
149	5
152	5
153	3
154	8
155	5
156	13
157	31
158	4
159	3
164	4
165	1
166	2
168	3
169	6
170	19
171	77
172	17
173	2
174	1
191	2
195	1
196	1
197	3
198	6
199	370
200	78
201	7
202	2
203	1
257	8
258	2
