Mass Spectrum: trans-Cyclohexanecarboxylic acid, 4-octyl-
Formula: C15H28O2
CAS: 38289-32-6
Molecular weight: 240
m/z	intensity
33	0
34	0
35	0
37	0
39	128
40	35
41	526
42	82
43	492
45	73
47	8
50	2
51	9
52	7
53	90
54	95
55	374
56	90
57	192
58	8
60	15
61	6
62	0
63	1
65	27
66	17
67	297
68	72
69	161
70	165
71	85
73	143
74	9
75	1
77	35
79	114
81	999
82	175
83	140
84	33
85	30
86	43
87	47
88	22
89	1
91	22
92	8
93	33
95	243
96	86
97	116
98	35
99	37
100	15
101	11
102	15
103	2
105	8
106	6
107	15
108	41
109	330
110	73
111	54
112	21
113	11
114	8
115	12
116	11
117	1
118	0
119	4
120	2
121	5
122	13
123	40
124	139
125	34
126	17
127	97
128	43
129	30
130	5
131	0
133	4
134	1
135	4
137	21
138	28
139	59
140	18
141	25
142	200
143	24
144	7
145	1
147	2
148	1
149	1
150	1
151	12
152	11
153	17
154	9
155	30
156	7
157	37
158	14
159	1
160	0
161	2
162	1
163	0
164	0
165	5
166	4
167	2
168	19
169	11
170	2
171	1
172	2
175	5
176	2
177	0
178	2
179	5
180	11
181	2
182	0
183	1
184	1
185	1
189	0
190	0
191	10
192	2
193	22
194	7
195	2
196	0
197	3
198	1
201	0
202	0
203	0
204	6
205	0
207	1
210	1
211	12
212	4
213	0
220	0
222	111
223	17
225	19
226	3
227	0
238	0
240	283
241	44
242	5
243	0
