Mass Spectrum: 1,4-Pentanediol, 1-phenyl-
Formula: C11H16O2
CAS: 38299-94-4
Molecular weight: 180
m/z	intensity
26	9
27	64
28	17
29	43
30	4
31	25
37	3
38	7
39	65
40	12
41	127
42	13
43	128
44	11
45	127
46	4
47	5
49	3
50	39
51	120
52	36
53	28
54	6
55	53
56	312
57	43
58	17
59	8
60	6
61	4
62	7
63	25
64	9
65	30
66	5
67	10
68	3
69	13
70	5
71	12
72	4
73	6
74	14
75	18
76	19
77	400
78	145
79	707
80	60
81	7
82	3
83	11
84	10
85	14
86	3
87	4
89	19
90	9
91	157
92	27
93	5
94	4
96	2
97	4
98	2
99	2
101	11
102	14
103	35
104	101
105	437
106	99
107	999
108	146
109	11
110	2
111	2
112	3
113	2
114	2
115	62
116	28
117	161
118	142
119	22
120	708
121	76
122	33
123	5
124	2
125	2
126	5
127	23
128	96
129	135
130	60
131	15
132	4
133	24
134	8
135	2
139	4
141	45
142	42
143	18
144	17
145	33
146	9
147	89
148	11
149	4
152	5
153	9
154	7
155	14
156	13
157	10
158	10
159	8
160	36
161	145
162	181
163	31
164	4
165	4
179	3
180	174
181	27
182	6
