Mass Spectrum: 2,6-Dimethyl-8-(tetrahydropyran-2-yloxy)-octa-2,6-dien-1-ol
Formula: C15H26O3
CAS: 38290-53-8
Molecular weight: 254
m/z	intensity
26	1
27	26
28	5
29	77
30	1
31	16
38	1
39	29
40	9
41	123
42	9
43	244
44	9
45	6
50	0
51	3
52	2
53	28
54	6
55	66
56	26
57	100
58	5
59	4
60	0
61	0
62	0
63	0
64	0
65	6
66	4
67	104
68	78
69	51
70	5
71	9
72	0
73	1
74	1
75	5
76	0
77	8
78	2
79	19
80	9
81	31
82	7
83	19
84	75
85	999
86	42
87	3
88	0
89	0
91	9
92	6
93	66
94	35
95	73
96	12
97	8
98	2
99	0
100	0
101	27
102	2
103	4
104	0
105	5
106	4
107	33
108	10
109	13
110	3
111	2
112	0
114	0
115	0
116	0
117	0
118	0
119	10
120	2
121	22
122	12
123	12
124	2
125	1
126	0
127	0
131	0
132	0
133	1
134	23
135	33
136	6
137	9
138	1
139	2
140	0
141	2
142	0
143	0
149	2
150	2
151	2
152	27
153	6
154	0
155	1
156	0
157	0
158	0
159	0
163	0
166	0
167	0
168	3
169	2
170	6
171	1
172	0
178	0
179	0
180	0
181	0
183	0
184	0
206	0
207	0
208	0
218	0
221	0
222	0
223	1
224	0
236	2
237	0
254	0
