Mass Spectrum: 1-Propanol, 2-bromo-3,3,3-trifluoro-, acetate
Formula: C5H6BrF3O2
CAS: 383-68-6
Molecular weight: 234
m/z	intensity
13	1
14	9
15	52
16	0
25	0
26	6
27	22
28	5
29	19
30	6
31	13
32	1
33	4
36	0
38	0
39	0
41	3
42	42
43	999
44	26
45	9
46	7
47	0
49	0
50	1
51	17
56	1
57	1
60	1
61	11
62	1
63	7
64	5
69	41
71	0
73	164
74	6
75	10
76	3
77	8
79	4
80	1
81	4
82	4
83	1
91	4
92	2
93	9
94	2
95	35
96	5
105	7
106	2
107	7
108	1
111	48
112	1
113	47
123	1
125	4
127	4
129	14
131	13
135	31
136	2
142	16
143	2
144	15
145	1
155	128
156	7
157	13
158	0
160	0
161	5
162	0
163	5
171	1
172	1
173	2
174	81
175	43
176	80
177	41
189	2
191	4
193	1
