Mass Spectrum: Acetic acid, chlorodifluoro-, ethyl ester
Formula: C4H5ClF2O2
CAS: 383-62-0
Molecular weight: 158
m/z	intensity
14	2
15	10
25	3
26	51
27	302
28	80
29	999
30	46
31	73
32	4
33	2
35	16
36	2
37	6
39	6
40	2
41	12
42	20
43	65
44	25
45	53
46	3
47	26
49	43
50	202
51	202
52	3
55	6
56	4
57	13
59	174
60	7
62	4
63	36
64	2
65	13
66	56
67	32
68	18
69	19
73	93
74	3
77	11
78	105
79	30
80	12
81	2
83	4
85	950
86	14
87	301
88	4
93	1
94	15
95	28
96	13
97	1
99	2
111	6
113	3
115	58
117	18
123	117
124	5
131	6
143	12
145	3
157	2
