Mass Spectrum: Benzenesulfonamide, 4-fluoro-N-ethyl-
Formula: C8H10FNO2S
CAS: 383-48-2
Molecular weight: 203
m/z	intensity
38	3
39	13
40	31
41	20
42	51
43	24
44	131
45	15
48	3
50	46
51	28
55	8
57	29
62	4
63	12
64	25
65	3
68	20
69	51
70	13
71	8
73	2
74	31
75	243
76	22
77	2
83	33
84	7
92	8
93	5
95	999
96	115
97	4
110	6
111	22
112	12
115	14
124	5
143	25
159	847
160	63
161	40
188	628
189	48
190	27
203	139
204	8
205	7
