Mass Spectrum: Trifluoroacetamide, N-allyl
Formula: C5H6F3NO
CAS: 383-65-3
Molecular weight: 153
m/z	intensity
14	1
15	4
26	24
27	53
28	172
29	38
30	12
31	10
32	1
33	7
37	11
38	28
39	223
40	42
41	488
42	23
43	12
44	19
46	8
47	1
50	31
51	19
52	20
54	68
55	35
56	121
57	81
58	28
59	14
60	2
63	1
64	5
65	1
66	6
67	2
69	454
70	7
71	1
74	1
75	1
76	4
77	16
78	154
79	12
80	1
82	29
84	999
85	51
86	5
88	1
89	1
90	12
91	8
92	1
94	16
96	23
97	31
98	25
99	1
102	2
104	27
105	3
106	26
107	2
108	1
109	2
110	3
114	21
115	3
116	8
118	27
119	3
122	1
126	184
127	10
128	1
132	2
133	22
134	1
135	1
138	272
139	14
140	1
152	40
153	74
154	7
