Mass Spectrum: Indane-1,3-dione, 2-benzylaminomethylene-
Formula: C17H13NO2
CAS: 38301-07-4
Molecular weight: 263
m/z	intensity
33	1
34	2
35	0
36	0
37	1
38	8
39	75
40	44
41	29
42	3
43	7
44	10
45	2
47	1
49	2
50	44
51	73
52	19
53	32
54	3
55	7
56	2
57	6
58	1
60	0
61	2
62	17
63	56
64	14
65	209
66	15
67	4
68	8
69	5
70	3
71	3
72	0
74	22
75	56
76	61
77	72
78	19
79	20
80	2
81	1
82	2
83	4
84	3
85	2
86	4
87	7
88	15
89	89
91	999
92	78
94	8
95	5
96	2
97	1
98	2
99	3
101	67
102	72
103	27
104	69
105	53
106	87
107	10
109	12
110	3
111	0
112	1
113	2
114	4
115	14
116	13
117	37
118	6
119	1
120	0
121	0
122	1
123	8
124	1
126	7
127	4
128	11
129	61
130	70
131	29
132	30
133	4
135	0
138	0
139	0
140	0
141	0
142	0
143	1
144	3
145	0
146	1
147	6
148	3
149	5
150	1
151	2
152	2
153	0
154	4
156	5
157	24
158	24
159	48
160	28
161	3
162	0
163	0
165	5
166	0
167	2
168	0
169	2
170	2
171	4
172	23
173	4
175	1
176	3
177	1
178	7
179	3
180	1
181	0
183	0
184	1
185	4
186	9
187	2
189	11
190	5
191	2
192	0
193	0
194	0
195	0
201	0
202	0
203	1
204	5
205	2
206	23
207	7
208	1
214	0
216	5
217	10
218	45
219	10
220	2
222	0
228	0
230	0
231	0
232	3
233	8
234	45
235	14
236	3
243	0
244	4
245	14
246	86
247	16
248	2
249	0
255	0
257	0
258	0
259	1
260	5
261	5
262	68
263	360
264	67
265	7
266	0
