Mass Spectrum: 8-Oxabicyclo[3.2.1]octan-3,7-diol, 3-acetate
Formula: C10H16O4
CAS: 38314-25-9
Molecular weight: 200
m/z	intensity
26	11
27	107
29	147
30	10
31	63
38	6
39	106
40	32
41	218
42	81
43	999
44	147
45	65
47	4
49	4
50	15
51	6
52	10
53	50
54	36
55	197
56	34
57	200
58	24
59	8
60	14
61	41
62	3
63	5
64	4
65	20
66	31
67	54
68	210
69	212
70	128
71	105
72	12
73	12
74	3
75	3
77	20
79	213
80	161
81	199
82	49
83	118
84	231
85	64
86	53
87	8
89	3
91	12
92	9
94	156
95	80
96	224
97	290
98	27
99	15
100	11
101	35
102	10
103	4
104	32
105	6
107	6
109	10
110	7
111	16
112	47
113	27
114	6
115	4
121	14
122	68
123	7
126	4
139	25
140	221
141	20
142	3
143	146
144	11
145	3
156	3
157	3
182	5
200	31
201	7
