Mass Spectrum: Rhenium, pentacarbonyl[2,3,3-tetrafluoro-1-(trifluoromethyl)-1-propenyl]-, (OC-6-21)-
Formula: C9F7O5Re
CAS: 38317-69-0
Molecular weight: 508
m/z	intensity
69	613
74	109
75	97
93	818
100	6
104	18
112	999
124	95
132	43
142	431
162	431
163	36
181	190
187	13
199	6
206	11
211	6
215	4
218	6
225	15
230	15
234	18
237	6
243	9
244	31
249	25
256	9
261	13
262	38
268	22
271	27
275	4
280	29
289	227
299	136
308	131
327	100
349	13
368	156
377	9
396	79
424	29
452	25
480	31
508	84
