Mass Spectrum: 4-Benzenesulfonyl-benzoic acid methyl ester
Formula: C14H12O4S
CAS: 38337-00-7
Molecular weight: 276
m/z	intensity
33	0
35	0
36	0
37	3
38	32
39	181
41	24
42	1
43	7
44	12
45	56
46	1
47	3
48	3
49	10
50	292
51	658
52	50
53	68
54	4
55	7
56	0
57	4
58	4
59	68
60	1
61	2
62	21
63	108
64	70
65	194
66	18
67	10
68	1
69	27
70	29
71	9
72	1
73	4
74	66
75	169
76	373
77	888
78	69
79	20
80	5
81	20
82	5
83	3
84	2
85	3
86	1
87	2
88	0
89	5
90	4
91	25
92	31
93	11
94	2
95	14
96	14
97	125
98	9
99	7
100	0
101	2
102	4
103	29
104	137
105	16
106	3
107	13
108	18
109	28
110	2
111	4
112	1
113	2
114	1
115	12
116	1
117	0
118	1
119	27
120	32
121	11
122	3
123	19
124	42
125	999
126	138
127	112
128	14
129	3
130	0
131	0
133	1
134	8
135	52
136	12
137	2
138	1
139	21
140	7
141	77
142	7
143	4
144	0
145	0
146	0
147	0
149	1
150	19
151	77
152	331
153	92
154	20
155	75
156	9
157	4
158	0
159	0
160	1
161	2
162	0
163	0
164	0
165	7
166	4
167	10
168	28
169	55
170	22
171	19
172	20
173	8
174	1
175	0
179	2
180	6
181	90
182	36
183	735
184	81
185	46
186	6
187	1
188	0
189	0
195	2
196	3
197	1
198	3
199	5
200	2
201	1
204	0
210	0
211	1
212	6
213	3
214	0
215	0
216	0
217	2
218	1
219	0
226	0
227	0
228	0
229	0
231	0
232	0
234	0
239	0
243	0
244	4
245	172
246	26
247	9
248	1
249	0
255	0
259	0
260	4
261	1
262	4
263	1
264	0
274	0
275	10
276	222
277	61
278	18
279	3
