Mass Spectrum: (5R,6S,8S,Z)-8-Methoxy-3,6,10-trimethyl-4-oxo-4,5,6,7,8,11-hexahydrocyclodeca[b]furan-5-yl acetate
Formula: C18H24O5
CAS: 383368-25-0
Molecular weight: 320
m/z	intensity
27	52
29	69
33	7
39	113
40	55
41	280
43	999
45	245
53	124
55	226
58	46
59	60
65	151
66	49
67	108
68	39
69	114
71	70
72	36
77	152
78	57
79	133
83	129
85	280
87	33
91	305
94	79
98	118
99	78
101	36
103	79
104	46
110	65
111	287
112	35
114	26
115	217
117	193
119	183
122	150
123	187
125	48
128	97
129	82
130	43
131	122
132	71
133	76
135	142
137	44
138	63
139	56
141	67
144	44
145	264
146	160
147	191
148	130
149	113
150	182
151	110
158	49
159	186
160	110
161	130
162	197
163	191
165	37
171	79
172	51
173	186
174	64
175	544
176	118
177	68
187	134
188	138
189	92
191	42
192	28
199	146
200	57
201	48
203	96
204	52
205	72
214	293
215	121
218	36
228	44
229	37
230	58
233	51
244	17
245	63
260	67
261	32
278	13
288	38
289	13
320	40
321	6
