Mass Spectrum: 2-Benzyloxyethylamine
Formula: C9H13NO
CAS: 38336-04-8
Molecular weight: 151
m/z	intensity
30	999
31	17
38	8
39	56
40	6
41	20
42	29
43	20
44	43
45	742
46	25
50	18
51	44
52	13
58	15
62	8
63	28
64	9
65	100
66	6
77	33
78	9
79	10
89	24
91	411
92	54
105	13
152	5
