Mass Spectrum: Chirald
Formula: C19H25NO
CAS: 38345-66-3
Molecular weight: 283
m/z	intensity
15	3
27	3
28	3
29	3
30	12
39	6
41	7
42	18
43	6
44	28
45	72
46	6
50	1
51	7
52	1
55	4
56	4
57	6
58	999
59	38
63	2
65	9
70	3
71	6
74	3
76	1
77	29
78	4
79	1
84	2
85	2
86	8
87	9
89	2
90	1
91	28
92	2
103	1
105	25
106	2
115	3
116	1
117	2
129	1
130	1
133	2
134	1
165	1
178	1
179	1
192	35
193	5
197	2
208	2
264	1
282	2
283	1
