Mass Spectrum: 2-Butynoic acid, 4-(1-pyrrolidinyl)-
Formula: C8H11NO2
CAS: 38346-98-4
Molecular weight: 153
m/z	intensity
44	569
55	80
66	100
68	130
70	140
80	100
81	200
108	999
109	410
152	50
153	30
