Mass Spectrum: 2-Butynoic acid, 4-(4-morpholinyl)-
Formula: C8H11NO3
CAS: 38346-95-1
Molecular weight: 169
m/z	intensity
44	999
53	165
54	165
55	148
56	264
66	248
67	545
68	479
80	198
82	99
86	396
95	132
124	297
125	975
169	33
