Mass Spectrum: Bicyclo[3.2.0]hept-2-ene, 4-bromo-
Formula: C7H9Br
CAS: 38352-98-6
Molecular weight: 172
m/z	intensity
26	34
27	111
28	51
29	18
38	60
39	317
40	42
41	73
42	13
43	51
44	3
45	24
46	13
50	60
51	106
52	42
53	41
57	13
58	3
59	1
61	13
62	34
63	101
64	24
65	421
66	121
67	15
74	10
76	6
77	428
78	85
79	207
80	25
89	30
90	6
91	857
92	291
93	999
94	77
100	77
101	6
102	30
103	5
143	8
144	92
145	15
146	92
147	34
148	3
170	6
171	24
172	48
173	27
174	44
175	6
