Mass Spectrum: 1,3-Dioxolane, 4-ethyl-5-pentyl-2,2-bis(trifluoromethyl)-, trans-
Formula: C12H18F6O2
CAS: 38363-94-9
Molecular weight: 308
m/z	intensity
39	22
40	13
41	104
42	59
43	88
44	5
45	2
47	1
50	1
51	3
52	3
53	25
54	32
55	320
56	106
57	201
58	20
59	156
60	6
61	12
65	8
66	9
67	123
68	96
69	999
70	70
71	73
72	10
73	4
75	2
77	6
78	3
79	10
80	6
81	58
82	93
83	739
84	55
85	17
86	1
87	0
89	3
91	4
93	7
95	101
96	12
97	24
98	2
99	17
100	4
101	104
102	6
103	1
109	6
110	1
111	14
112	2
113	10
119	0
123	6
124	9
125	167
126	16
127	0
128	2
137	5
138	1
139	36
140	2
141	2
147	4
148	1
152	7
153	10
158	0
161	0
163	1
167	14
181	14
188	25
189	1
194	7
195	3
205	0
207	14
208	84
209	13
210	0
221	4
222	7
223	11
224	2
225	18
226	0
230	15
231	0
236	1
237	17
238	5
239	248
240	27
241	2
250	1
251	1
279	5
