Mass Spectrum: 1-Piperidineacetamide, N-(3-chlorophenyl)-
Formula: C13H17ClN2O
CAS: 38367-19-0
Molecular weight: 252
m/z	intensity
35	8
36	42
37	4
38	17
39	17
40	9
41	78
42	79
43	21
44	27
45	2
46	0
49	0
50	2
51	3
52	2
53	4
54	7
55	48
56	15
57	5
58	0
59	2
60	0
61	0
62	2
63	11
64	6
65	5
66	1
67	4
68	8
69	22
70	29
71	1
72	0
73	4
74	3
75	9
76	3
77	3
78	0
79	0
80	1
81	1
82	3
83	3
84	43
85	4
86	0
87	0
88	0
89	1
90	8
91	9
92	2
93	1
94	1
96	24
98	999
99	83
101	9
102	1
103	0
104	1
105	1
106	0
107	0
111	13
112	2
113	4
114	0
117	0
118	0
119	0
120	1
124	1
125	3
126	9
127	7
128	3
129	1
130	0
132	0
133	0
135	0
136	0
138	1
139	0
140	5
141	0
142	1
153	2
154	1
155	0
156	0
166	0
167	0
168	1
169	0
170	0
171	0
250	0
252	7
253	1
254	2
255	0
