Mass Spectrum: 1,2,4-Thiadiazole, 3-methyl-5-(1-methylhydrazino)-
Formula: C4H8N4S
CAS: 38362-21-9
Molecular weight: 144
m/z	intensity
40	170
41	250
42	569
43	150
45	170
46	260
55	70
56	70
57	999
60	100
73	390
74	270
77	150
78	120
103	100
115	50
128	80
129	100
144	559
