Mass Spectrum: 1,3-Dioxolane, 4-butyl-5-ethyl-2,2-bis(trifluoromethyl)-, trans-
Formula: C11H16F6O2
CAS: 38363-91-6
Molecular weight: 294
m/z	intensity
39	19
40	10
41	88
42	59
43	60
44	4
45	3
47	2
50	1
51	3
52	2
53	21
54	23
55	259
56	31
57	121
58	12
59	112
60	4
61	10
65	4
66	4
67	49
68	67
69	999
70	77
71	34
72	5
73	13
75	2
77	3
78	2
79	7
80	2
81	46
82	11
83	12
84	2
85	17
86	7
87	139
88	8
89	5
91	3
93	0
95	7
97	12
99	16
100	1
109	7
110	6
111	296
112	26
113	3
117	0
118	0
119	1
125	5
127	0
128	1
129	0
137	3
138	5
139	32
140	1
141	0
147	3
148	1
149	1
153	7
155	1
167	29
168	2
181	1
188	20
189	1
194	21
195	5
202	0
205	0
207	38
208	69
209	10
216	18
217	1
222	3
223	3
224	11
225	183
226	20
227	1
236	6
237	11
238	1
251	1
265	3
293	0
