Mass Spectrum: 1,3-Dioxolane, 4-heptyl-5-methyl-2,2-bis(trifluoromethyl)-, cis-
Formula: C13H20F6O2
CAS: 38363-95-0
Molecular weight: 322
m/z	intensity
39	20
40	12
41	99
42	39
43	144
44	9
45	44
47	33
50	0
51	2
53	28
54	49
55	377
56	133
57	359
58	33
59	16
60	1
61	1
65	7
66	11
67	109
68	105
69	794
70	90
71	118
72	15
73	6
75	0
77	7
78	3
79	15
80	10
81	130
82	135
83	999
84	136
85	53
86	3
87	1
89	3
91	2
93	6
95	91
96	153
97	466
98	36
99	13
100	1
107	1
108	3
109	50
110	24
111	117
112	17
113	15
115	1
119	1
123	15
124	1
125	18
126	1
127	5
128	4
129	46
130	3
137	8
138	24
139	81
140	8
141	15
147	10
148	89
149	3
152	1
153	20
154	1
155	1
166	0
167	15
174	2
194	36
195	4
205	0
207	2
208	2
209	1
210	1
211	23
212	0
221	0
222	3
223	40
224	13
225	1
235	0
236	0
237	9
238	0
249	0
251	0
252	12
253	280
254	37
255	2
258	0
267	0
307	0
