Mass Spectrum: Cyclohexanone, 3-ethylidene-2,2,5,5-tetramethyl-
Formula: C12H20O
CAS: 38366-85-7
Molecular weight: 180
m/z	intensity
15	90
27	270
28	60
29	200
39	290
40	60
41	470
42	40
43	100
50	30
51	80
53	280
54	100
55	340
56	130
57	90
63	20
65	70
66	20
67	290
68	100
69	70
77	90
78	20
79	160
80	20
81	549
82	80
83	949
84	40
91	50
93	40
95	130
96	999
97	110
107	20
109	110
123	60
124	50
137	110
165	140
180	440
181	59
