Mass Spectrum: N-(N,N-Dimethylaminoethyl)aminoethanol
Formula: C6H16N2O
CAS: 38361-86-3
Molecular weight: 132
m/z	intensity
30	175
31	92
40	18
41	57
42	321
43	137
44	182
45	62
54	22
55	25
56	126
58	999
59	92
70	33
71	35
72	31
73	12
74	42
83	10
85	11
86	10
88	93
89	9
99	7
114	12
129	4
