Mass Spectrum: 1,2,4-Thiadiazole, 5-chloro-
Formula: C2HClN2S
CAS: 38362-15-1
Molecular weight: 120
m/z	intensity
41	320
43	400
46	100
47	100
58	240
59	999
61	90
73	90
79	260
81	90
93	529
95	230
120	669
121	40
122	250
