Mass Spectrum: 1,2,4-Thiadiazole, 5-hydrazino-3-methyl-
Formula: C3H6N4S
CAS: 38362-20-8
Molecular weight: 130
m/z	intensity
40	130
41	180
42	789
43	969
46	210
47	120
59	110
60	150
72	120
73	829
74	310
76	90
89	330
115	100
130	999
131	50
132	50
