Mass Spectrum: Cholest-5,9(11)-dien-3.beta.-ol acetate
Formula: C29H46O2
CAS: 38368-41-1
Molecular weight: 426
m/z	intensity
41	174
43	999
44	24
49	29
51	5
53	20
55	255
56	6
57	192
61	10
67	116
69	206
71	148
77	32
79	122
80	6
81	266
82	27
83	59
84	17
85	26
91	141
92	8
93	152
94	19
95	140
96	9
97	52
105	192
106	43
107	154
108	32
109	77
111	24
113	10
115	16
117	71
118	21
119	112
120	62
121	138
122	34
123	32
125	5
127	24
128	4
129	36
130	11
131	100
133	296
135	86
137	13
141	42
142	5
143	126
144	43
145	187
146	14
147	213
148	35
149	30
151	12
155	20
157	106
158	84
159	91
160	49
161	54
162	5
163	17
169	17
171	46
172	18
173	36
175	7
183	32
185	30
187	17
189	4
193	9
197	36
198	14
199	46
200	4
201	4
205	16
211	28
212	26
213	109
214	31
219	5
225	16
227	4
239	30
245	128
246	34
247	28
253	231
254	56
255	16
257	5
258	5
259	62
260	19
281	43
282	9
351	59
352	15
366	55
367	26
411	18
426	722
427	222
428	23
