Mass Spectrum: 1,3-Dioxolane, 4,5-dipropyl-2,2-bis(trifluoromethyl)-, cis-
Formula: C11H16F6O2
CAS: 38363-92-7
Molecular weight: 294
m/z	intensity
39	19
40	8
41	93
42	14
43	84
44	6
45	1
47	2
50	1
51	3
52	2
53	20
54	28
55	351
56	140
57	102
58	7
59	14
61	2
65	7
66	7
67	84
68	42
69	999
70	58
71	48
72	15
73	227
74	11
75	8
77	5
78	2
79	6
80	1
81	17
82	19
83	19
84	2
85	21
86	1
87	0
89	4
91	0
93	0
95	3
97	11
99	7
101	0
103	0
105	4
109	7
110	15
111	372
112	33
113	3
115	0
119	0
125	7
127	0
128	2
133	0
135	2
137	1
139	30
140	0
141	0
147	3
148	3
152	2
153	56
154	3
167	0
181	10
194	9
202	31
203	2
206	4
207	103
208	8
209	34
210	1
219	0
221	2
222	37
223	4
224	19
225	200
226	20
227	1
251	33
252	2
293	0
