Mass Spectrum: 1,3-Dioxolane, 4-heptyl-5-methyl-2,2-bis(trifluoromethyl)-, trans-
Formula: C13H20F6O2
CAS: 38363-96-1
Molecular weight: 322
m/z	intensity
39	25
40	13
41	121
42	48
43	171
44	13
45	68
46	4
47	57
48	0
50	1
51	3
52	3
53	39
54	63
55	526
56	199
57	373
58	38
59	15
60	1
61	2
65	9
66	13
67	132
68	133
69	986
70	108
71	120
72	11
73	7
75	1
77	9
78	4
79	18
80	13
81	140
82	158
83	999
84	168
85	54
86	3
87	1
89	3
91	2
93	7
95	114
96	188
97	477
98	37
99	15
100	2
101	0
103	0
107	2
108	3
109	62
110	33
111	151
112	23
113	16
119	0
123	16
124	1
125	24
126	2
127	8
128	6
129	98
130	8
131	1
137	11
138	40
139	88
140	8
141	19
142	0
145	0
147	11
148	130
149	5
152	0
153	27
154	1
155	2
158	0
167	13
174	5
191	0
193	2
194	62
195	7
207	4
208	0
209	3
210	1
211	33
212	0
219	0
221	1
222	5
223	26
224	16
225	2
235	2
236	1
237	10
238	1
249	1
251	1
252	18
253	470
254	60
255	5
258	5
267	2
279	1
307	0
