Mass Spectrum: 3-Penten-2-one, 4-(acetyloxy)-, (Z)-
Formula: C7H10O3
CAS: 38365-58-1
Molecular weight: 142
m/z	intensity
26	12
27	33
29	7
30	0
31	7
33	0
36	0
37	4
38	7
39	24
40	4
41	15
42	41
43	999
44	22
45	3
49	0
50	2
51	1
52	0
53	1
55	4
56	1
57	1
58	2
59	2
60	0
61	0
62	0
63	0
64	0
66	0
67	2
68	1
69	10
70	0
71	2
72	2
82	0
83	1
84	3
85	272
86	13
87	1
98	0
99	7
100	165
101	11
102	0
114	3
115	0
127	2
128	0
142	0
