Mass Spectrum: 1,3-Dioxolane, 4-ethyl-5-hexyl-2,2-bis(trifluoromethyl)-, cis-
Formula: C13H20F6O2
CAS: 38363-97-2
Molecular weight: 322
m/z	intensity
39	21
40	15
41	117
42	63
43	141
44	7
45	4
47	3
50	1
51	2
52	3
53	28
54	42
55	434
56	75
57	262
58	25
59	143
60	6
61	9
65	9
66	10
67	127
68	94
69	606
70	148
71	179
72	19
73	5
75	2
77	7
78	3
79	15
80	9
81	122
82	112
83	999
84	73
85	38
86	5
87	2
89	3
91	4
93	4
95	50
96	63
97	632
98	54
99	15
100	1
107	3
108	4
109	125
110	13
111	7
112	2
113	13
114	2
115	55
116	3
117	1
119	1
123	2
125	7
127	5
128	1
129	3
135	0
137	11
138	12
139	127
140	12
141	2
147	5
148	5
151	0
152	11
153	12
154	1
155	4
158	0
165	0
166	1
167	15
181	2
188	18
189	0
193	0
194	4
195	4
205	0
207	8
208	74
209	12
210	0
211	1
219	0
221	2
222	3
223	14
224	6
225	22
226	0
235	1
236	4
237	38
238	8
244	5
251	4
252	32
253	248
254	32
255	2
293	9
294	0
