Mass Spectrum: Pregn-5-en-20-one, 3-hydroxy-
Formula: C21H32O2
CAS: 38372-24-6
Molecular weight: 316
m/z	intensity
27	31
29	71
31	10
39	33
41	200
42	8
43	999
44	13
45	17
51	6
53	67
54	8
55	167
56	7
57	34
59	6
65	34
66	13
67	172
68	23
69	46
71	91
72	7
77	101
78	27
79	204
80	31
81	169
82	19
83	30
84	33
85	222
86	16
91	221
92	56
93	178
94	46
95	165
96	23
97	23
99	5
103	19
104	14
105	231
106	56
107	251
108	48
109	66
110	13
111	15
115	24
116	15
117	73
118	32
119	130
120	114
121	98
122	19
123	26
124	24
125	41
128	22
129	43
130	24
131	103
132	36
133	120
134	37
135	60
136	12
137	30
138	14
139	5
141	17
142	13
143	80
144	32
145	166
146	45
147	103
148	26
149	28
150	7
151	14
155	12
156	10
157	47
158	32
159	131
160	52
161	128
162	23
163	38
165	8
169	17
170	8
171	46
172	18
173	65
174	17
175	24
176	11
177	26
178	10
179	7
183	21
184	7
185	38
186	13
187	92
188	19
189	27
190	15
191	11
192	11
195	10
197	15
198	8
199	34
200	10
201	17
203	11
204	35
205	105
206	19
209	15
211	14
212	6
213	102
214	24
215	23
216	8
217	11
223	7
225	17
227	22
228	17
229	19
230	16
231	149
232	34
239	21
240	13
241	30
242	8
243	17
244	12
245	9
246	12
253	7
255	54
256	37
257	25
258	16
259	15
265	34
266	7
269	10
270	8
272	9
273	18
283	138
284	32
298	139
299	36
301	46
302	10
316	233
317	59
318	7
