Mass Spectrum: 1,2,4-Thiadiazol-5(2H)-one, 3-phenyl-, hydrazone
Formula: C8H8N4S
CAS: 38379-75-8
Molecular weight: 192
m/z	intensity
50	100
51	180
60	60
76	140
77	350
89	80
103	330
104	999
105	90
135	470
192	779
193	110
194	30
