Mass Spectrum: Azetidine, 1-chloro-2-methyl-
Formula: C4H8ClN
CAS: 38382-62-6
Molecular weight: 105
m/z	intensity
26	40
27	190
28	390
29	90
30	85
31	50
39	100
40	85
41	450
42	999
43	115
44	40
45	15
55	165
56	450
57	50
59	35
64	100
65	80
66	200
67	40
68	85
69	20
70	40
71	40
72	50
73	30
76	40
77	325
78	50
79	130
90	130
91	30
92	70
104	15
105	170
106	10
107	60
