Mass Spectrum: 1,2-Cyclohexanediamine, N,N,N',N'-tetramethyl-
Formula: C10H22N2
CAS: 38383-49-2
Molecular weight: 170
m/z	intensity
26	9
27	88
28	97
29	67
30	40
38	5
39	114
40	23
41	220
42	699
43	113
44	227
45	127
46	25
50	5
51	21
52	16
53	65
54	58
55	134
56	407
57	45
58	638
59	25
65	13
66	18
67	43
68	120
69	33
70	219
71	999
72	67
73	14
77	25
78	8
79	44
80	23
81	60
82	240
83	83
84	836
85	72
86	10
93	5
94	28
95	17
96	75
97	476
98	145
99	124
100	17
108	11
109	11
110	170
111	32
112	78
113	10
114	44
122	6
123	4
124	198
125	109
126	60
127	12
153	26
154	6
155	60
156	7
170	342
171	40
172	4
