Mass Spectrum: Pregnan-20-one, 3,11-dihydroxy-, (3.alpha.,5.alpha.,11.alpha.)-
Formula: C21H34O3
CAS: 38398-44-6
Molecular weight: 334
m/z	intensity
41	241
42	25
43	999
44	87
45	70
53	37
55	301
57	135
67	196
68	40
69	175
70	40
71	165
77	37
79	165
80	37
81	316
82	47
83	100
84	70
85	95
91	165
92	27
93	185
94	70
95	258
96	60
97	93
98	30
105	135
106	75
107	213
108	87
109	155
110	50
111	60
117	30
118	20
119	75
120	82
121	95
122	40
123	70
124	150
131	70
132	87
133	105
134	40
135	70
136	20
137	40
138	17
143	25
144	17
145	65
146	25
147	130
148	30
149	60
150	17
151	25
157	32
158	20
159	57
160	30
161	70
162	10
163	37
164	30
165	20
171	20
172	30
173	40
174	10
175	25
176	10
177	20
178	7
179	7
187	20
188	10
189	20
190	125
191	65
192	7
193	7
199	17
201	5
202	5
203	20
204	17
205	5
206	7
213	70
214	17
215	25
216	7
217	20
218	17
227	15
228	25
229	20
230	7
231	30
232	20
233	10
243	7
244	7
245	10
246	37
247	7
255	67
256	20
257	17
258	30
259	17
264	40
265	17
266	10
272	5
273	50
274	10
283	65
284	20
298	170
299	45
301	75
302	17
316	376
317	75
