Mass Spectrum: 1,4,:5,8-Dimethanonaphthalen-2-ol, 1,2,3,4,4a,5,8,8a-octahydro-, (1.alpha.,2.alpha.,4.alpha.,4a.alpha.,5.alpha.,8.alpha.,8a.alpha.)-
Formula: C12H16O
CAS: 38409-40-4
Molecular weight: 176
m/z	intensity
26	10
27	102
28	38
29	38
31	28
32	14
38	11
39	221
40	56
41	184
42	14
43	45
44	14
50	14
51	68
52	28
53	74
54	28
55	65
57	25
63	28
64	14
65	150
66	509
67	177
68	19
69	19
70	31
77	209
78	74
79	217
80	96
81	88
82	999
83	85
89	14
91	270
92	110
93	96
94	180
95	56
96	17
102	14
103	37
104	42
105	52
106	25
107	62
108	113
109	113
110	32
115	74
116	35
117	95
118	22
119	28
120	25
121	25
122	14
127	14
128	32
129	52
130	42
131	37
132	24
133	52
134	28
135	68
136	14
143	24
145	14
147	37
148	25
157	14
158	19
161	14
174	11
175	11
176	128
177	18
