Mass Spectrum: 2-n-Hexylaniline
Formula: C12H19N
CAS: 38409-55-1
Molecular weight: 177
m/z	intensity
51	20
52	18
53	13
55	30
63	25
65	18
66	9
67	11
70	15
77	60
78	21
79	37
80	15
89	11
90	7
91	26
92	17
93	25
94	11
103	12
104	16
105	9
106	999
107	149
108	14
115	14
116	7
117	18
118	29
119	19
120	38
121	7
130	11
131	10
132	17
133	9
134	11
170	9
177	237
178	30
