Mass Spectrum: Benzenemethanol, 4-methyl-, benzoate
Formula: C15H14O2
CAS: 38418-10-9
Molecular weight: 226
m/z	intensity
27	6
39	11
50	11
51	36
52	5
53	4
62	2
63	8
64	3
65	17
74	5
75	6
76	14
77	236
78	73
79	53
80	3
89	9
90	4
91	37
92	4
93	31
94	2
102	10
103	80
104	107
105	999
106	78
107	5
119	26
120	10
121	46
122	4
152	2
165	10
166	10
167	12
179	2
180	2
181	37
182	6
193	11
207	5
208	111
209	16
210	2
211	11
224	4
225	3
226	323
227	51
228	5
