Mass Spectrum: 1,3-Dioxolane, 4-methyl-5-pentyl-2,2-bis(trifluoromethyl)-, cis-
Formula: C11H16F6O2
CAS: 38424-78-1
Molecular weight: 294
m/z	intensity
39	16
40	7
41	61
42	18
43	77
44	5
45	27
47	30
50	1
51	2
52	2
53	20
54	32
55	294
56	96
57	142
58	16
59	14
60	1
61	2
65	4
66	6
67	67
68	80
69	999
70	58
71	38
72	6
73	4
75	2
77	4
78	2
79	5
80	3
81	31
82	31
83	179
84	17
85	8
89	3
91	0
93	1
95	30
96	3
97	15
98	1
99	15
100	3
101	59
102	3
107	1
109	12
110	18
111	290
112	25
113	10
119	0
125	18
128	3
129	1
137	1
138	0
139	10
141	5
147	7
148	69
149	2
152	9
153	14
154	0
167	8
174	2
181	3
191	0
193	6
194	25
195	3
205	0
207	4
208	2
209	1
211	7
221	1
222	3
223	24
224	5
225	203
226	21
227	1
230	3
237	3
239	5
279	0
