Mass Spectrum: D-Xylose, 2,3,4,5-tetrakis(trifluoroacetate)
Formula: C13H6F12O9
CAS: 38424-94-1
Molecular weight: 534
m/z	intensity
29	74
41	118
43	72
59	79
69	999
71	63
97	346
99	75
117	50
125	73
137	94
140	78
153	210
165	234
167	54
180	99
182	54
193	970
194	111
196	130
209	64
252	130
265	525
266	52
278	821
279	198
287	82
