Mass Spectrum: N-Tosyloxy-2,2-bis(trifluoromethyl)aziridine
Formula: C11H9F6NO3S
CAS: 38436-38-3
Molecular weight: 349
m/z	intensity
39	70
40	9
51	42
52	6
63	55
64	31
65	195
66	18
69	86
70	9
77	39
91	999
92	81
93	6
155	949
156	84
157	49
158	34
349	26
350	4
351	2
