Mass Spectrum: Cyclopropane, 1,1-dichloro-2-phenylsulfonyl-
Formula: C9H8Cl2O2S
CAS: 38435-04-0
Molecular weight: 250
m/z	intensity
34	2
36	8
37	18
38	55
39	194
40	67
41	7
43	9
44	18
45	26
47	10
48	7
49	55
50	106
51	407
52	21
53	13
55	6
56	1
57	18
58	6
59	1
61	24
62	7
63	26
65	31
66	3
67	2
69	14
70	3
71	6
73	97
74	42
75	51
76	40
77	657
78	104
79	5
81	8
82	9
83	95
85	65
87	11
89	10
90	5
91	7
93	2
94	6
95	2
97	41
99	6
103	1
104	12
105	9
107	7
109	999
111	640
113	121
114	6
115	104
116	15
117	1
118	4
119	1
123	4
125	43
126	6
127	2
131	6
139	0
141	92
142	7
143	3
144	1
145	3
147	2
149	20
150	7
151	7
152	0
179	4
250	14
252	6
254	1
