Mass Spectrum: 2,4,6,8,9,10-Hexaaza-1,3,5,7-tetraphosphatricyclo[3.3.1.1(3,7)]decane, 2,4,6,8,9,10-hexamethyl-, 1,3,5-trisulfide
Formula: C6H18N6P4S3
CAS: 38448-55-4
Molecular weight: 394
m/z	intensity
28	120
29	130
31	380
32	70
40	20
45	150
46	200
60	999
89	100
91	80
119	70
120	60
121	150
150	70
153	250
180	50
182	60
212	40
241	100
273	220
313	60
334	10
350	10
364	50
394	120
