Mass Spectrum: Benzoic acid, 3,4-dimethylphenyl ester
Formula: C15H14O2
CAS: 3845-63-4
Molecular weight: 226
m/z	intensity
12	1
13	0
14	1
15	5
16	0
17	0
18	1
26	8
27	60
28	8
29	2
37	3
38	16
39	79
40	11
41	27
42	1
43	1
44	0
45	0
50	67
51	196
52	29
53	30
54	2
55	2
61	1
62	5
63	13
64	4
65	27
66	5
67	4
68	0
69	0
73	1
74	10
75	10
77	427
78	44
79	7
80	0
81	0
85	0
86	0
87	0
89	3
91	61
92	9
93	10
94	1
98	0
101	0
102	1
103	5
105	999
106	78
107	11
108	0
115	1
116	0
119	0
121	16
122	3
123	0
127	0
128	1
129	0
139	0
141	0
151	0
152	1
153	1
154	0
155	0
165	0
166	0
169	0
181	1
182	0
209	0
226	56
227	10
228	1
