Mass Spectrum: Azetidine, 1,1'-methylenebis[2-methyl-
Formula: C9H18N2
CAS: 38455-30-0
Molecular weight: 154
m/z	intensity
27	15
28	60
29	20
30	110
39	15
41	55
42	425
43	90
55	140
56	130
57	5
70	15
71	15
83	90
84	999
85	70
153	4
154	7
155	3
