Mass Spectrum: Azetidine, 1,1'-methylenebis-
Formula: C7H14N2
CAS: 38455-24-2
Molecular weight: 126
m/z	intensity
27	27
28	45
29	24
30	30
39	18
41	159
42	465
43	57
44	4
56	27
57	24
69	60
70	999
71	63
72	5
83	249
84	70
85	6
97	70
98	70
99	7
125	390
126	180
127	20
