Mass Spectrum: Azetidine, 1-bromo-
Formula: C3H6BrN
CAS: 38455-26-4
Molecular weight: 135
m/z	intensity
26	86
27	309
28	999
29	185
30	156
31	11
39	21
40	23
41	83
42	359
43	55
44	2
45	23
54	133
55	130
56	153
57	8
79	8
80	8
81	10
82	8
107	109
108	7
109	104
110	6
135	34
136	2
137	31
138	2
