Mass Spectrum: Albene
Formula: C12H18
CAS: 38451-64-8
Molecular weight: 162
m/z	intensity
27	7
28	1
29	5
38	2
39	38
40	7
41	49
42	3
43	3
50	4
51	19
52	8
53	30
54	3
55	29
56	1
58	3
62	2
63	10
64	7
65	48
66	15
67	103
68	8
69	7
70	1
71	1
74	1
75	2
76	2
77	102
78	27
79	249
80	26
81	17
82	2
89	4
91	138
92	24
93	91
94	408
95	999
96	80
97	3
102	3
103	16
104	6
105	101
106	26
107	33
108	12
109	1
115	24
116	8
117	23
118	6
119	99
120	43
121	63
122	6
127	2
128	7
129	5
130	2
131	5
132	2
133	35
134	9
135	1
145	1
147	51
148	6
162	14
163	2
