Mass Spectrum: 2-Ethyl-5-propylcyclopentanone
Formula: C10H18O
CAS: 38468-47-2
Molecular weight: 154
m/z	intensity
53	120
54	50
55	771
56	301
57	101
67	98
68	71
69	220
70	231
83	429
84	819
97	99
111	69
112	999
125	49
126	19
154	150
