Mass Spectrum: Cyclohexanone, 2-(1-mercapto-1-methylethyl)-5-methyl-
Formula: C10H18OS
CAS: 38462-22-5
Molecular weight: 186
m/z	intensity
23	0
24	0
26	7
27	194
28	49
29	162
30	3
31	4
32	38
33	40
34	98
35	6
36	4
37	4
38	9
39	263
40	59
41	835
42	98
43	232
44	5
45	42
46	4
47	53
48	1
49	4
50	6
51	26
52	17
53	157
54	37
55	347
56	74
57	68
58	21
59	132
60	10
61	33
62	3
63	9
64	3
65	32
66	20
67	236
68	129
69	999
70	215
71	61
72	4
73	14
74	50
75	358
76	18
77	49
78	8
79	49
80	20
81	273
82	102
83	133
84	54
85	12
86	2
87	23
88	19
89	8
90	2
91	21
92	6
93	111
94	35
95	98
96	16
97	108
98	13
99	6
100	3
101	16
102	9
103	5
104	1
105	4
106	0
107	25
108	33
109	410
110	65
111	97
112	362
113	30
114	2
115	7
116	1
117	2
118	0
119	7
120	1
121	4
122	0
123	76
124	14
125	14
126	2
127	4
128	0
129	1
130	0
131	0
132	0
133	0
134	2
135	34
136	4
137	40
138	4
139	3
141	0
142	0
143	2
144	0
147	0
148	0
150	0
151	4
152	97
153	145
154	17
155	1
168	1
171	1
186	104
187	12
188	5
189	0
