Mass Spectrum: 3,4-Diethoxyphenylacetic acid
Formula: C12H16O4
CAS: 38464-04-9
Molecular weight: 224
m/z	intensity
33	1
34	4
35	3
36	16
37	4
38	25
39	175
40	92
41	77
42	15
43	97
44	44
45	67
46	2
47	0
48	0
50	34
51	143
52	30
53	44
54	17
55	121
56	7
57	17
58	1
59	1
60	1
61	2
62	10
63	34
64	20
65	125
66	73
67	107
68	12
69	13
70	2
71	7
72	0
73	1
74	4
75	5
77	206
78	50
79	30
80	4
81	16
82	10
83	6
84	2
85	1
86	0
87	1
89	15
90	11
91	15
92	7
93	23
94	69
95	121
96	11
97	22
98	2
99	0
101	0
103	6
105	73
106	40
107	31
108	6
109	8
110	8
111	7
112	1
113	0
115	1
116	0
117	0
118	0
119	2
121	42
123	999
124	86
125	179
126	11
127	2
128	1
129	1
131	5
132	1
133	7
134	3
135	20
136	3
137	14
138	3
139	5
140	1
141	0
143	0
144	0
145	0
146	0
147	1
149	37
151	194
152	19
153	3
154	0
155	0
157	0
158	0
159	0
161	0
162	0
163	2
164	1
165	5
167	161
168	287
169	25
170	3
171	1
175	0
176	0
177	3
179	70
180	10
181	3
182	1
183	0
190	0
191	0
193	3
194	5
195	19
196	128
197	12
198	1
206	0
207	0
208	0
209	2
210	1
224	502
225	61
226	7
227	0
