Mass Spectrum: 3-Butenoic acid, 2,2-diethyl-
Formula: C8H14O2
CAS: 38477-05-3
Molecular weight: 142
m/z	intensity
27	82
29	71
39	98
41	283
43	78
53	66
55	884
57	81
67	143
69	159
81	78
95	128
97	470
99	92
109	52
113	999
124	35
127	146
142	114
