Mass Spectrum: 1-Cyclooctene-1-acetic acid, .alpha.,.alpha.-dimethyl-
Formula: C12H20O2
CAS: 38477-10-0
Molecular weight: 196
m/z	intensity
27	172
28	101
29	138
39	229
43	157
44	114
53	171
55	429
67	829
69	429
77	143
79	250
81	514
83	250
88	843
91	143
93	157
95	786
107	157
109	999
113	100
123	114
135	107
151	214
163	22
181	971
196	371
