Mass Spectrum: Ethanol, 2-[(4-nitrophenyl)sulfonyl]-, acetate
Formula: C10H11NO6S
CAS: 38476-91-4
Molecular weight: 273
m/z	intensity
43	999
50	73
51	17
74	26
75	108
76	108
77	39
87	649
92	39
121	75
122	21
170	212
171	21
186	512
187	17
188	13
214	173
273	15
