Mass Spectrum: 1H-1,2,4-Triazole, 3-(5-nitro-2-furanyl)-1-(1-oxopropyl)-
Formula: C9H8N4O4
CAS: 38477-77-9
Molecular weight: 236
m/z	intensity
26	33
27	150
28	112
29	824
30	41
50	100
51	66
55	58
56	341
57	999
58	50
76	54
77	79
78	54
79	62
96	70
106	75
122	54
150	125
180	508
181	437
182	50
236	120
