Mass Spectrum: Carbanilic acid, p-methyl-, p-nitrophenyl ester
Formula: C14H12N2O4
CAS: 3848-42-8
Molecular weight: 272
m/z	intensity
33	15
35	1
36	12
37	67
39	999
41	69
42	15
43	12
44	6
46	32
48	4
50	190
51	353
52	211
53	185
54	29
55	19
56	3
62	197
63	237
65	707
66	45
67	11
68	4
69	0
72	0
73	10
74	44
75	57
77	337
78	204
79	92
81	245
85	1
86	3
87	5
88	10
89	25
91	223
93	97
94	3
96	0
99	1
101	1
102	11
104	404
105	220
106	196
107	129
109	388
111	0
112	0
119	1
120	6
121	17
122	15
123	19
124	2
125	0
127	5
129	5
130	25
132	300
133	838
134	65
135	7
136	3
137	8
139	184
140	12
141	1
142	2
151	2
154	0
156	0
168	3
183	4
239	4
240	18
241	11
242	0
268	5
269	1
271	5
272	52
273	5
