Mass Spectrum: Furan, tetrahydro-2,5-dimethyl-, trans-(.+/-.)-
Formula: C6H12O
CAS: 38484-59-2
Molecular weight: 100
m/z	intensity
27	102
28	59
29	131
39	100
40	39
41	737
43	360
45	192
53	42
55	100
56	999
57	137
67	91
85	666
100	88
