Mass Spectrum: Benzaldehyde, 4-chloro-, oxime
Formula: C7H6ClNO
CAS: 3848-36-0
Molecular weight: 155
m/z	intensity
12	4
13	3
14	5
15	7
16	46
17	54
18	57
19	6
25	11
26	41
27	60
28	131
29	41
30	72
31	10
32	3
35	18
36	24
37	147
38	148
39	193
40	18
41	17
42	8
43	30
44	69
46	42
47	22
48	18
49	104
50	605
51	275
52	70
53	24
54	7
55	18
56	6
57	10
60	39
61	114
62	170
63	310
64	138
65	316
66	24
67	25
68	6
69	22
70	9
71	8
72	33
73	157
74	322
75	908
76	250
77	102
78	13
79	3
82	2
83	6
84	46
85	103
86	62
87	59
88	22
89	228
90	73
91	39
92	219
93	46
94	37
95	5
96	6
97	18
98	9
99	98
100	187
101	56
102	238
103	41
104	3
108	6
109	9
110	43
111	547
112	999
113	248
114	315
115	22
118	4
119	8
120	41
121	5
123	13
124	6
125	13
126	14
127	22
128	323
129	30
130	109
131	7
136	7
137	83
138	57
139	37
140	20
141	4
149	2
154	65
155	830
156	92
157	268
158	21
159	2
