Mass Spectrum: Pentanamide, 2-(dimethylamino)-4-methyl-N-[2-methyl-1-[[3,3a,11,12,13,14,15,15a-octahydro-12,15-dioxo-13-(phenylmethyl)-5,8-ethenopyrrolo[3,2-b][1,5,8]oxadiazacyclotetradecin-1(2H)-yl]carbonyl]butyl]-
Formula: C36H49N5O5
CAS: 38496-01-4
Molecular weight: 631
m/z	intensity
37	0
38	0
39	0
40	2
41	16
42	9
43	11
44	5
45	2
46	2
50	2
51	2
52	1
53	3
54	2
55	7
56	5
57	9
58	12
59	1
63	0
65	2
66	2
67	4
68	19
69	29
70	13
71	11
72	30
73	2
74	2
75	2
76	0
77	5
78	5
79	1
80	2
81	2
82	3
83	3
84	5
85	4
86	12
87	1
89	1
90	2
91	12
92	1
93	1
94	2
95	2
96	7
97	5
98	15
99	3
100	4
101	1
102	2
103	3
104	3
105	3
106	2
107	7
108	3
109	2
110	2
111	2
112	7
113	6
114	999
115	11
116	4
117	2
118	2
119	3
120	19
121	3
122	1
123	3
124	3
125	2
126	1
128	2
129	0
130	1
131	5
132	2
133	2
134	16
135	17
136	3
137	4
138	5
139	2
140	3
141	2
144	1
145	2
146	3
147	1
148	3
149	2
150	2
151	2
152	2
153	0
155	3
159	1
160	2
161	5
162	2
163	1
164	4
166	2
167	2
168	2
169	3
182	1
183	1
185	1
186	5
187	2
188	0
189	2
190	2
200	0
201	0
202	0
203	0
204	0
205	0
206	0
207	0
208	0
209	1
210	0
211	0
212	0
213	1
214	0
215	1
216	0
217	0
218	0
219	0
221	0
222	0
223	0
224	0
225	1
226	0
227	1
228	0
229	1
230	0
231	0
233	0
234	0
235	1
236	0
237	0
238	0
239	0
240	0
241	0
243	0
244	0
245	0
246	0
247	0
248	0
249	0
251	0
252	0
253	0
254	0
255	1
256	0
257	0
258	0
259	0
260	0
261	0
262	0
263	0
264	0
265	0
266	0
267	0
268	0
269	0
270	0
271	0
272	0
273	0
274	0
275	0
276	0
277	0
278	0
279	0
280	0
281	0
282	0
283	0
284	0
285	0
286	0
287	0
288	0
297	0
298	0
299	0
300	0
302	0
304	0
305	0
306	0
307	0
308	0
309	0
310	0
311	0
312	0
313	0
314	0
315	0
316	0
320	0
321	0
322	0
323	0
324	0
325	0
326	0
327	0
328	0
329	0
330	0
340	0
341	0
342	1
343	0
344	0
347	0
348	0
349	0
350	0
351	0
352	0
353	0
354	0
355	0
356	0
357	0
358	0
360	0
368	0
369	0
370	0
371	0
375	0
376	1
377	1
378	1
379	0
380	0
404	0
405	0
406	0
444	0
445	0
446	0
447	0
448	0
471	0
473	0
474	0
475	0
476	0
516	0
517	0
518	0
519	0
572	0
574	1
575	0
576	0
586	0
587	0
588	0
589	0
602	0
603	0
630	0
631	0
632	0
633	0
634	0
