Mass Spectrum: 2-[4-Cyclohexylbutylamino]-1,4-naphthoquinone
Formula: C20H25NO2
CAS: 38528-38-0
Molecular weight: 311
m/z	intensity
41	999
42	116
43	151
44	21
47	15
49	51
50	51
51	87
52	8
53	193
54	114
55	784
56	62
57	17
62	9
63	31
65	30
66	4
67	152
68	75
69	73
70	49
74	18
75	58
76	121
77	134
78	16
79	74
80	22
81	130
82	48
83	72
84	25
86	19
88	17
89	167
90	29
91	39
93	17
94	15
95	78
96	15
97	8
101	124
102	71
103	89
104	84
105	179
106	19
107	14
109	9
114	5
115	74
116	38
117	24
118	16
127	4
128	26
129	100
130	81
131	119
132	23
133	26
143	21
144	23
145	6
146	176
147	26
152	13
154	21
157	29
158	83
159	72
160	23
161	8
168	18
170	13
171	21
172	32
173	32
174	402
175	205
176	28
178	16
182	8
184	7
185	19
186	553
187	199
188	156
189	22
196	8
198	8
199	3
200	38
201	30
212	4
214	29
215	20
228	273
229	53
240	21
242	14
310	13
311	410
312	83
313	27
