Mass Spectrum: 2-n-Hexadecylamino-1,4-naphthoquinone
Formula: C26H39NO2
CAS: 38528-34-6
Molecular weight: 397
m/z	intensity
41	817
42	146
43	999
44	56
45	3
49	6
50	18
51	29
52	2
53	63
54	57
55	440
56	77
57	183
58	10
63	13
65	11
67	62
68	48
69	173
70	76
71	52
74	2
75	27
76	51
77	70
78	4
79	23
80	12
81	37
82	42
83	48
84	21
85	17
88	5
89	79
90	10
91	32
93	6
94	8
95	22
96	29
97	29
98	6
100	12
101	63
102	49
103	74
104	57
105	196
106	19
109	6
110	9
111	2
114	2
115	56
116	22
117	15
118	12
124	2
126	2
128	18
129	73
130	75
131	108
132	19
133	25
140	8
143	25
144	20
145	6
146	199
147	34
148	2
154	11
155	2
156	10
157	25
158	91
159	99
160	17
161	40
167	3
168	20
169	10
170	13
171	12
172	41
173	45
174	645
175	194
176	19
182	10
183	9
184	13
185	20
186	738
187	325
188	219
189	23
196	20
197	12
198	13
199	7
200	77
201	64
202	13
212	17
214	91
215	35
226	11
227	3
228	254
229	95
230	14
238	7
240	2
242	129
243	31
250	9
256	23
264	17
270	5
284	2
312	5
326	6
340	11
341	2
354	10
368	11
369	97
370	25
380	2
395	10
396	27
397	610
398	176
399	34
