Mass Spectrum: 1,4-Naphthalenedione, 2-((3-(4-methyl-1-piperazinyl)propyl)amino)-
Formula: C18H23N3O2
CAS: 38528-40-4
Molecular weight: 313
m/z	intensity
41	174
42	774
43	841
44	197
45	4
47	2
49	24
50	25
51	36
52	10
53	23
54	47
55	46
56	154
57	103
58	160
59	8
60	3
62	5
63	10
64	1
65	2
66	0
67	8
68	57
70	999
71	150
72	47
73	2
74	3
75	25
76	55
77	49
78	8
80	14
82	67
83	32
84	85
85	26
86	13
87	3
89	55
90	6
91	4
94	8
95	14
96	82
97	115
98	188
99	53
101	45
102	26
103	25
104	30
105	52
106	5
108	5
109	5
111	223
113	577
114	41
115	18
116	8
117	4
118	1
123	11
124	19
125	40
127	62
129	34
130	23
131	29
132	3
133	8
135	5
137	5
139	226
140	23
141	4
142	1
143	5
144	4
145	1
146	15
147	2
153	1
154	4
155	0
156	6
157	11
158	18
159	17
160	5
161	1
166	1
167	0
168	8
169	2
170	5
171	4
172	6
173	6
174	16
175	8
182	2
183	0
184	7
185	11
186	75
187	92
188	31
189	2
195	2
196	11
197	0
198	10
199	1
200	36
201	18
202	5
210	0
211	0
212	21
213	20
214	20
215	5
216	1
225	1
226	3
227	3
239	0
240	2
241	7
242	20
243	11
255	3
256	1
269	6
270	4
298	24
299	4
310	0
311	6
312	8
313	668
314	122
315	11
