Mass Spectrum: Oxiraneundecanoic acid, 3-pentyl-, methyl ester, trans-
Formula: C19H36O3
CAS: 38520-31-9
Molecular weight: 312
m/z	intensity
25	5
26	29
27	188
28	742
29	415
30	18
31	49
32	41
33	5
34	1
35	3
36	20
37	5
38	11
39	124
40	28
41	762
42	193
43	688
44	95
45	50
46	2
47	1
48	1
49	2
50	7
51	11
52	7
53	69
54	168
55	999
56	24
57	524
58	69
59	207
60	11
61	5
62	3
63	7
64	4
65	17
66	27
67	405
68	198
69	584
70	198
71	217
72	26
73	49
74	613
75	79
76	8
77	34
78	17
79	93
80	77
81	376
82	217
83	346
84	188
85	153
86	18
87	455
88	39
89	7
90	2
91	32
92	9
93	66
94	58
95	267
96	257
97	326
98	212
99	49
100	19
101	60
102	8
103	2
104	4
105	16
106	7
107	37
108	34
109	115
110	95
111	138
112	95
113	207
114	57
115	93
116	24
117	10
118	4
119	19
120	14
121	41
122	72
123	85
124	75
125	78
126	45
127	163
128	64
129	111
130	23
131	12
132	4
133	14
134	8
135	59
136	33
137	47
138	47
139	60
140	39
141	64
142	34
143	46
144	18
145	41
146	8
147	19
148	51
149	69
150	28
151	24
152	26
153	41
154	25
155	78
156	18
157	44
158	42
159	12
160	3
161	5
162	2
163	15
164	49
165	40
166	35
167	43
168	19
169	17
170	10
171	24
172	24
173	4
174	1
175	2
176	1
177	15
178	12
179	13
180	20
181	30
182	12
183	173
184	25
185	29
186	16
187	5
188	1
189	2
190	2
191	4
192	6
193	8
194	6
195	28
196	16
197	43
198	59
199	85
200	18
201	2
202	1
203	1
204	1
205	2
206	3
207	5
208	3
209	18
210	12
211	6
212	4
213	14
214	4
215	13
216	3
217	6
218	8
219	24
220	19
221	9
222	18
223	9
224	4
225	4
226	2
227	68
228	24
229	4
230	1
233	3
234	4
235	5
236	5
237	5
238	9
239	9
240	2
241	8
242	11
243	2
244	1
245	2
246	3
247	1
249	1
250	1
251	3
252	5
253	4
254	1
255	5
256	2
257	1
258	1
259	1
260	1
261	1
262	14
263	21
264	17
265	24
266	4
267	2
268	1
269	1
270	1
271	1
278	1
279	5
280	4
281	24
282	4
283	1
284	12
285	3
293	1
294	1
295	34
296	8
297	12
298	2
299	1
310	1
311	1
312	12
313	2
