Mass Spectrum: 1H-Indeno[2,1-a]phenantren-9(10H)-one, 4,4a,5,5a,5b,6,7,11,11a,11b,12,13,13a,13b-tetradecahydro-13b-acetyl-2,3,11a,13a-tetramethyl-
Formula: C27H38O2
CAS: 38522-43-9
Molecular weight: 394
m/z	intensity
33	6
34	1
39	45
41	190
43	999
45	18
51	11
53	59
55	139
57	11
59	4
63	2
65	37
67	112
69	48
71	6
72	0
73	0
74	0
77	103
79	148
81	71
82	16
83	21
84	3
85	3
86	0
87	0
89	4
91	204
93	130
95	75
97	49
98	3
99	2
100	0
101	0
103	21
105	150
107	195
109	102
110	10
111	8
112	1
113	4
115	27
117	53
119	142
120	45
121	104
122	65
123	88
124	125
125	13
127	11
128	23
129	28
131	59
133	113
135	204
136	42
137	17
138	3
139	2
141	17
142	12
143	24
144	11
145	37
146	24
147	52
149	609
150	94
151	48
152	10
153	6
154	8
155	11
157	27
158	8
159	31
160	12
161	28
162	13
163	19
164	6
165	5
166	2
167	4
168	3
169	8
170	4
171	14
172	5
173	19
174	10
175	24
176	19
177	7
178	2
179	2
180	1
181	3
182	1
183	7
184	3
185	10
186	4
187	12
189	24
190	4
191	2
192	1
193	1
194	1
195	3
196	1
197	6
198	2
199	7
200	3
201	8
202	4
203	5
204	2
205	1
206	0
207	1
208	0
209	2
211	9
213	10
214	2
215	7
216	3
217	5
218	2
219	0
220	0
221	0
222	0
223	2
224	1
225	5
226	5
227	14
229	50
231	85
232	12
233	1
234	0
235	0
236	0
237	1
238	0
239	2
240	1
242	20
244	137
245	97
246	423
247	71
248	7
249	1
250	0
251	2
252	1
253	2
254	0
255	1
256	0
257	1
258	0
263	0
264	0
265	0
267	1
268	2
269	8
270	2
271	1
273	0
275	0
279	1
281	8
282	1
283	0
293	0
294	0
295	0
296	0
297	1
298	0
307	0
309	1
310	0
312	5
313	1
319	0
320	0
321	0
322	0
323	0
324	2
325	0
333	4
334	1
335	3
336	3
337	1
347	0
348	2
349	8
351	63
352	14
353	2
361	2
362	0
376	7
377	2
379	11
380	2
381	0
390	2
391	2
394	144
395	38
396	6
397	0
