Mass Spectrum: Tungsten, [1,2-bis(methylthio)ethane-S,S']tetracarbonyl-, (OC-6-22)-
Formula: C8H10O4S2W
CAS: 38536-75-3
Molecular weight: 418
m/z	intensity
61	999
74	194
75	378
79	38
102	24
107	9
122	684
153	1
184	2
211	8
212	2
228	15
229	9
248	3
263	5
276	4
278	3
291	2
306	4
319	1
334	3
362	2
390	2
418	4
