Mass Spectrum: Butanedioic acid, 2,3-dihydroxy-2-(3-methylbutyl)-, dimethyl ester
Formula: C11H20O6
CAS: 38535-05-6
Molecular weight: 248
m/z	intensity
12	2
14	4
15	100
16	5
17	32
18	105
19	30
25	1
26	7
27	83
28	28
29	111
30	23
31	46
32	7
33	171
34	7
35	1
36	4
37	2
38	4
39	68
40	15
41	239
42	35
43	336
44	14
45	41
46	2
47	4
48	3
50	6
51	12
52	6
53	25
54	7
55	98
56	46
57	63
58	55
59	107
60	10
61	15
62	19
64	4
65	7
66	4
67	15
68	7
69	61
70	7
71	98
72	7
73	28
74	17
75	25
76	3
77	9
78	5
79	7
80	2
81	145
82	13
83	26
84	5
85	17
86	6
87	18
88	3
89	17
90	999
91	41
92	9
93	37
94	4
95	9
96	5
97	15
98	3
99	196
100	15
101	43
102	7
103	13
104	4
105	5
106	2
107	2
109	6
110	2
111	22
112	3
113	12
114	2
115	9
116	3
117	5
118	11
119	5
120	1
121	3
123	7
124	2
125	3
126	1
127	5
128	4
129	57
130	6
131	2
132	3
137	4
138	2
139	37
140	4
141	3
142	1
143	8
145	2
151	2
152	1
153	3
155	11
156	2
157	1
158	1
159	15
160	9
161	3
169	2
170	2
171	14
172	1
173	14
174	2
175	2
187	3
189	45
190	5
191	2
238	1
