Mass Spectrum: Pentanamide, 2-(dimethylamino)-N-[1-(1H-indol-3-ylmethyl)-2-[3,3a,11,12,13,14,15,15a-octahydro-13-(1-methylpropyl)-12,15-dioxo-5,8-ethenopyrrolo[3,2-b][1,5,8]oxadiazacyclotetradecin-1(2H)-yl]-2-oxoethyl]-4-methyl-
Formula: C38H50N6O5
CAS: 38541-75-2
Molecular weight: 670
m/z	intensity
37	1
38	2
39	6
40	3
41	17
42	12
43	13
44	7
45	4
46	3
50	2
51	3
52	3
53	3
54	2
55	7
56	6
57	10
58	2
61	0
62	1
63	2
64	1
65	2
66	4
67	1
68	17
69	25
70	12
71	10
72	37
73	2
74	1
75	1
76	1
77	5
78	3
79	1
80	2
81	3
82	4
83	3
84	6
85	5
86	17
87	2
88	0
89	2
90	2
91	3
92	1
93	1
94	3
95	1
96	6
97	4
98	17
99	3
100	6
101	2
102	3
103	4
104	2
105	2
106	2
107	4
108	4
109	1
110	3
111	2
112	12
113	13
114	999
115	10
116	1
117	8
118	3
119	1
120	1
121	2
123	3
124	3
125	3
126	1
127	1
128	2
129	5
130	83
131	12
132	2
133	2
134	14
135	20
136	4
137	2
138	2
139	1
140	0
141	3
142	4
143	11
144	5
145	2
146	0
147	3
148	2
149	2
150	2
152	3
153	4
154	11
155	5
156	2
157	0
159	3
160	1
161	1
162	2
163	3
164	2
165	2
166	2
167	5
168	3
169	3
170	10
171	5
172	2
173	5
174	2
175	1
200	2
201	0
202	0
203	1
204	1
205	0
206	0
207	0
208	0
209	0
210	0
211	1
212	0
213	0
214	1
215	0
216	0
217	0
218	0
219	0
220	0
221	0
222	0
223	0
224	0
225	0
226	0
227	0
228	0
229	1
230	0
231	0
232	0
233	0
234	0
235	0
236	0
237	0
238	0
239	1
240	1
241	0
242	0
243	0
244	0
245	0
246	0
247	0
248	0
249	0
250	0
251	0
252	0
253	0
254	0
255	0
256	0
257	0
258	0
259	0
260	0
261	0
262	0
263	0
264	0
265	0
266	0
267	0
268	0
269	0
270	0
271	0
272	0
273	0
274	1
275	0
276	0
278	0
279	0
280	0
281	0
282	1
283	0
284	0
285	0
286	0
287	0
288	0
289	0
290	0
291	0
292	0
293	0
294	0
295	0
296	0
297	0
298	0
299	0
300	0
301	0
325	0
326	0
327	0
328	0
329	0
341	0
342	1
343	1
344	2
345	0
370	0
371	0
372	0
397	0
398	0
399	0
400	0
511	2
512	0
513	0
514	0
555	0
556	0
557	1
558	0
559	0
613	1
614	0
615	0
627	0
628	0
642	0
668	0
669	1
670	2
671	0
672	0
