Mass Spectrum: Butanoic acid, 2-ethyl-2,3,3-trimethyl-
Formula: C9H18O2
CAS: 38541-67-2
Molecular weight: 158
m/z	intensity
26	10
27	179
28	42
29	333
30	9
31	20
35	0
36	0
37	2
38	7
39	179
40	27
41	569
42	35
43	161
44	10
45	108
46	3
47	1
48	0
50	6
51	15
52	7
53	49
54	10
55	180
56	46
57	999
58	58
59	215
60	10
61	1
62	2
63	3
64	0
65	10
66	4
67	29
68	8
69	73
70	7
71	97
72	7
73	70
74	11
75	0
77	7
78	1
79	7
80	1
81	8
82	4
83	56
84	23
85	33
87	825
88	44
89	4
91	1
92	0
93	0
94	0
95	2
96	6
97	51
98	10
99	8
100	4
101	81
102	986
103	67
104	6
105	1
106	0
107	0
109	1
110	0
111	0
112	2
113	28
114	4
115	24
116	5
117	0
143	43
144	4
145	0
158	0
159	0
