Mass Spectrum: Imidosulfurous difluoride, (fluorocarbonyl)-
Formula: CF3NOS
CAS: 3855-41-2
Molecular weight: 131
m/z	intensity
12	10
14	12
16	28
19	5
26	6
28	122
29	5
30	27
31	45
32	122
33	23
34	8
41	11
42	73
43	37
44	251
46	800
47	898
48	211
51	143
52	11
57	18
58	11
61	8
64	216
65	297
67	45
70	412
84	22
85	16
86	22
89	33
93	80
112	999
131	720
