Mass Spectrum: 4-Benzyloxyphenoxyacetic acid
Formula: C15H14O4
CAS: 38559-92-1
Molecular weight: 258
m/z	intensity
42	14
43	1
45	11
49	3
50	8
51	18
52	9
53	10
54	10
55	2
59	7
62	7
63	36
64	28
65	88
66	11
68	1
74	1
75	2
76	5
77	9
79	5
81	28
82	6
84	1
86	2
89	22
91	999
92	60
94	6
105	3
106	0
107	1
109	82
110	5
115	3
121	0
128	1
139	1
141	2
151	0
152	2
153	2
155	1
167	22
168	2
169	1
181	4
183	1
200	1
213	1
258	382
259	55
260	7
