Mass Spectrum: Pyridine, 4-[2-(4-methylphenylsulfonyl)ethyl]-
Formula: C14H15NO2S
CAS: 38563-78-9
Molecular weight: 261
m/z	intensity
29	1
35	3
38	6
39	99
40	8
41	25
44	2
45	6
50	24
51	150
52	60
53	65
54	19
55	0
57	1
60	0
62	1
63	38
64	12
65	188
66	18
67	9
69	0
71	1
74	0
75	1
76	6
77	189
78	137
79	68
80	36
81	0
89	29
90	20
91	360
92	177
93	16
94	0
95	0
97	0
102	0
103	0
104	40
105	81
106	999
107	105
108	17
111	1
115	0
122	0
139	43
140	2
141	0
154	0
155	16
156	7
167	2
170	0
181	0
196	13
197	0
260	0
261	87
262	23
263	3
264	0
