Mass Spectrum: 3-(Perfluoro-n-octyl)propenoxide
Formula: C11H5F17O
CAS: 38565-53-6
Molecular weight: 476
m/z	intensity
14	4
15	47
17	1
18	4
20	2
26	5
27	80
28	43
29	361
30	13
31	262
32	8
33	22
37	1
38	2
39	23
40	2
41	47
42	22
43	452
44	18
45	6
46	9
47	27
49	5
50	4
51	174
52	1
53	2
55	17
56	2
57	916
58	38
59	198
60	7
61	25
62	5
63	2
64	17
65	46
66	1
67	2
68	4
69	456
70	6
71	19
72	2
73	2
74	1
75	23
76	14
77	209
78	11
79	69
80	2
81	9
82	1
83	6
85	3
86	1
87	12
88	12
89	32
90	10
91	54
92	2
93	15
94	3
95	86
96	3
97	5
99	2
100	69
101	11
102	1
104	4
105	9
106	6
107	999
108	59
109	153
110	6
111	5
112	4
113	17
114	1
115	11
117	8
118	5
119	155
120	10
121	9
122	10
123	2
124	1
125	2
126	6
127	23
128	1
131	148
132	6
133	11
137	9
138	6
139	28
140	7
141	2
143	4
144	2
145	14
147	3
148	2
150	4
151	7
152	1
155	1
157	10
158	2
159	4
162	7
163	9
167	3
168	2
169	72
170	13
171	2
172	1
175	3
177	3
181	28
182	1
183	1
187	1
188	2
189	5
190	2
193	2
195	4
198	1
200	1
201	4
207	3
209	1
213	4
219	9
220	4
225	2
231	17
232	1
237	2
239	1
243	1
245	2
251	1
257	2
263	3
269	4
270	1
275	5
281	8
289	2
295	6
301	1
307	1
313	6
319	7
325	5
327	1
331	4
339	15
340	1
345	15
346	1
357	2
359	4
363	13
364	1
367	2
369	2
377	2
381	2
389	17
390	2
391	3
395	4
405	1
407	1
408	1
409	8
410	1
417	3
421	1
427	2
428	10
429	1
436	3
437	11
438	1
440	1
441	32
442	3
455	1
457	9
458	1
460	3
461	22
462	2
475	2
476	219
477	26
478	1
