Mass Spectrum: 4,7-Methano-2,3,8-methenocyclopent[a]indene, 10-bromo-1,2,3,3a,3b,4,7,7a,8,8a-decahydro-, stereoisomer
Formula: C14H15Br
CAS: 38560-40-6
Molecular weight: 262
m/z	intensity
39	330
51	140
63	110
65	300
67	150
77	200
78	100
79	240
91	380
103	100
105	480
115	230
116	120
117	999
118	599
130	150
142	170
156	100
183	579
262	56
264	55
