Mass Spectrum: 3,8,4,7-Ethanediylidenecyclopent[a]indene, 1,2,3,3a,3b,4,7,7a,8,8a-decahydro-
Formula: C14H16
CAS: 38589-62-7
Molecular weight: 184
m/z	intensity
41	145
51	100
65	140
77	235
78	240
79	200
80	390
91	463
92	170
93	208
104	167
105	205
106	434
115	221
116	127
117	999
118	331
119	365
128	153
129	200
130	160
141	155
142	261
143	320
155	160
156	140
169	132
184	873
185	138
