Mass Spectrum: 2,3-Dichlorobenzyl alcohol
Formula: C7H6Cl2O
CAS: 38594-42-2
Molecular weight: 176
m/z	intensity
15	1
25	1
26	10
27	19
28	7
29	77
30	10
31	64
35	10
36	12
37	41
38	56
39	49
40	3
41	1
42	3
43	23
44	11
47	9
48	5
49	42
50	170
51	228
52	110
53	17
55	18
56	22
57	7
59	1
60	16
61	64
62	73
63	81
64	6
65	4
66	3
67	1
68	1
69	4
70	23
71	11
72	23
73	97
74	211
75	396
76	78
77	999
78	95
79	10
81	1
82	1
83	4
84	75
85	79
86	57
87	57
89	54
90	4
91	1
94	2
95	2
96	10
97	29
98	6
99	18
100	2
101	6
102	1
103	8
104	7
105	39
106	5
107	10
108	14
109	99
110	67
111	644
112	127
113	603
114	64
115	129
116	9
118	2
119	5
120	4
121	6
123	109
124	24
125	41
126	8
127	2
131	1
133	16
134	1
135	10
136	1
137	2
139	271
140	102
141	986
142	101
143	275
144	23
145	61
146	46
147	201
148	38
149	110
150	12
151	17
152	1
157	2
158	9
159	88
160	14
161	56
162	5
163	9
164	1
173	44
174	15
175	98
176	527
177	89
178	326
179	35
180	54
181	4
