Mass Spectrum: N,N-Di(cyclohexyl)heptafluorobutyramide
Formula: C16H22F7NO
CAS: 386-84-5
Molecular weight: 377
m/z	intensity
29	219
31	26
33	14
36	38
37	10
38	20
39	183
40	26
41	727
42	113
43	411
44	206
45	29
50	10
51	26
52	8
53	80
54	125
55	999
56	130
57	93
58	10
65	13
66	6
67	230
68	34
69	207
70	65
71	20
77	25
78	12
79	38
80	21
81	215
82	388
83	963
84	87
85	38
86	5
95	49
96	19
97	18
98	16
100	31
109	9
112	9
114	7
119	16
124	4
125	3
126	112
127	12
128	20
131	4
138	7
140	2
150	6
154	6
169	49
176	3
178	5
180	8
194	10
195	3
208	24
210	116
211	19
214	97
215	4
226	71
227	17
228	4
237	34
239	40
240	77
241	10
251	6
252	169
253	62
254	12
266	16
267	5
268	7
276	7
278	5
280	7
294	30
295	23
296	182
297	25
298	96
299	15
308	55
309	10
310	3
320	18
334	11
335	2
337	6
377	13
378	2
