Mass Spectrum: Cyclohept-4-enol
Formula: C7H12O
CAS: 38607-27-1
Molecular weight: 112
m/z	intensity
26	7
27	121
28	31
29	99
31	29
38	9
39	225
40	76
41	256
42	95
43	203
44	65
45	14
50	9
51	33
52	22
53	189
54	110
55	192
56	62
57	165
58	161
59	7
63	11
65	51
66	210
67	341
68	223
69	72
70	111
71	35
75	5
77	100
78	27
79	999
80	79
81	51
82	20
83	103
84	90
85	9
91	37
92	10
93	111
94	523
95	71
96	7
97	50
98	5
108	6
109	5
110	15
111	13
112	31
113	4
