Mass Spectrum: Acetic acid, 2-methyl-2-phenyl-, hydrazide
Formula: C9H12N2O
CAS: 38604-68-1
Molecular weight: 164
m/z	intensity
27	53
28	44
29	53
38	38
39	143
42	45
43	329
50	139
51	434
52	95
53	29
63	78
64	58
65	160
74	45
75	38
76	46
77	999
78	178
79	119
90	18
91	60
92	345
93	88
94	42
104	148
105	711
106	156
107	336
108	27
120	13
121	918
122	389
123	31
164	232
165	30
166	3
