Mass Spectrum: 2-Cyclopenten-1-one, 3,4-dihydroxy-5-(3-methyl-2-butenyl)-2-(2-methyl-1-oxopropyl)-
Formula: C14H20O4
CAS: 38602-14-1
Molecular weight: 252
m/z	intensity
39	180
41	810
42	60
43	650
53	90
55	150
56	100
57	250
67	80
69	999
70	90
71	320
77	50
79	50
81	50
83	60
84	50
95	120
96	70
97	110
109	70
111	50
113	200
122	90
123	130
124	110
137	60
139	70
141	70
149	50
153	60
163	50
165	180
166	460
167	90
179	50
181	60
183	350
184	230
191	210
196	60
197	150
209	140
210	160
219	80
234	50
252	570
253	100
