Mass Spectrum: 4-(Aminosulfonyl)-5-chlorophthalimide
Formula: C8H5ClN2O4S
CAS: 3861-99-2
Molecular weight: 260
m/z	intensity
42	252
43	157
44	733
45	361
46	71
47	55
48	128
49	144
50	104
51	70
52	44
53	68
55	98
56	7
57	19
58	11
60	26
61	127
62	195
63	29
64	645
65	48
66	30
67	10
69	72
70	42
71	46
72	26
73	330
74	999
75	165
76	20
77	42
78	19
79	5
80	139
81	16
82	12
83	11
84	73
85	20
86	44
87	67
88	66
89	52
90	68
91	25
92	9
93	39
94	14
95	11
96	12
97	95
98	5
99	125
100	23
101	89
102	33
103	27
104	6
105	19
106	53
108	100
109	540
110	45
111	206
112	25
113	10
114	7
115	9
116	11
117	8
118	18
119	13
120	6
121	4
122	5
123	9
124	28
125	76
126	43
127	35
128	13
129	12
130	1
131	5
132	6
133	13
134	6
135	18
136	49
137	436
138	49
139	146
140	23
141	11
142	8
143	10
144	17
145	15
146	12
147	6
148	6
149	4
150	7
151	8
152	33
153	113
154	58
155	61
156	18
157	25
158	5
159	5
160	4
161	30
162	17
163	17
164	6
165	5
166	2
167	3
168	4
169	3
170	0
171	28
172	28
173	17
174	12
175	5
176	1
177	11
178	7
179	8
180	106
181	18
182	39
183	14
184	3
185	3
186	1
187	2
188	6
189	20
190	4
191	9
192	1
193	1
194	1
195	6
196	222
197	141
198	82
199	45
200	13
201	3
202	2
205	7
206	5
207	6
208	4
209	4
210	2
211	2
214	1
215	2
216	32
217	67
218	22
219	34
220	5
221	3
222	0
225	14
226	7
227	4
228	2
242	0
243	2
244	24
245	4
259	2
260	264
261	40
262	103
263	14
264	7
