Mass Spectrum: Pentane-1,1-diol diacetate
Formula: C9H16O4
CAS: 38620-86-9
Molecular weight: 188
m/z	intensity
39	40
41	78
42	30
43	999
44	59
45	20
53	9
55	10
57	50
58	20
60	9
61	9
68	9
69	20
71	10
72	9
85	79
86	29
87	9
89	10
100	19
103	110
128	9
129	119
130	9
131	20
