Mass Spectrum: Androstan-17-one, 3-(acetyloxy)-14-hydroxy-, (3.beta.,5.alpha.,14.beta.)-
Formula: C21H32O4
CAS: 38632-10-9
Molecular weight: 348
m/z	intensity
41	379
42	3
43	999
44	18
53	67
55	415
56	36
57	73
65	18
67	327
68	45
69	192
70	12
71	27
77	85
78	12
79	281
80	64
81	363
82	36
83	107
84	21
85	36
91	238
92	52
93	357
94	97
95	278
96	30
97	143
98	6
99	48
105	220
106	235
107	452
108	263
109	201
110	88
111	42
112	48
113	397
114	113
117	24
118	18
119	186
120	110
121	259
122	73
123	70
124	18
125	180
126	21
131	52
133	119
134	42
135	79
136	6
137	21
139	21
145	91
146	24
147	171
148	58
149	76
150	12
159	52
160	48
161	91
162	52
163	58
173	30
174	27
175	73
176	42
177	24
180	357
181	107
203	24
213	39
215	571
216	107
228	24
229	9
231	67
232	9
233	9
234	27
246	55
247	9
255	67
256	6
270	39
271	6
273	636
274	116
275	73
276	6
288	577
289	100
291	97
292	232
293	30
333	70
334	9
348	712
349	159
350	12
