Mass Spectrum: Ethanethioic acid, S-[1-(methylthio)ethyl] ester
Formula: C5H10OS2
CAS: 38634-60-5
Molecular weight: 150
m/z	intensity
43	710
45	120
59	250
61	60
75	999
79	50
103	50
107	50
150	170
