Mass Spectrum: 4,4'-Dibromo terephthalanilide
Formula: C20H14Br2N2O2
CAS: 38636-25-8
Molecular weight: 472
m/z	intensity
41	151
42	196
50	40
51	37
63	78
64	127
70	472
76	518
77	184
84	90
88	37
91	43
104	999
105	247
132	86
135	471
167	37
302	282
304	278
472	85
474	170
476	83
