Mass Spectrum: Ethanethioic acid, S-[(methylthio)methyl] ester
Formula: C4H8OS2
CAS: 38634-59-2
Molecular weight: 136
m/z	intensity
35	100
43	999
45	340
46	130
61	420
63	30
77	10
94	50
136	50
