Mass Spectrum: 3,5-Di-pyridin-4-yl-[1,2,4]triazol-4-ylamine
Formula: C12H10N6
CAS: 38634-05-8
Molecular weight: 238
m/z	intensity
33	0
34	5
37	27
38	33
39	46
40	70
41	33
42	8
43	24
44	35
45	4
49	8
50	142
51	505
52	102
53	42
54	7
55	12
56	9
57	16
59	3
60	0
61	19
62	96
63	205
64	70
65	27
66	10
67	8
68	4
69	4
70	2
71	3
74	2
75	21
76	75
77	155
78	730
79	71
80	15
81	4
82	0
83	2
84	1
87	3
88	6
89	3
90	25
91	22
92	20
93	11
94	2
95	2
98	0
100	1
103	20
104	78
105	999
106	91
107	21
108	2
111	0
112	1
113	2
118	2
119	27
120	11
121	4
133	9
134	18
135	1
137	1
149	4
150	1
151	38
152	11
153	0
155	2
164	28
165	3
171	2
182	1
183	2
184	2
194	0
209	10
210	9
211	61
212	8
220	1
223	14
224	0
235	7
237	97
238	603
239	88
240	4
