Mass Spectrum: .alpha.-[2-Nitro-4-trifluoromethylphenyl]-4-methylcinnamic acid
Formula: C17H12F3NO4
CAS: 38635-50-6
Molecular weight: 351
m/z	intensity
41	69
42	3
43	47
45	377
46	6
50	56
51	159
52	47
53	60
55	27
57	43
60	2
62	55
63	187
65	281
66	14
69	58
70	3
71	3
74	56
75	108
76	40
77	225
78	92
79	23
81	40
82	32
83	26
84	3
85	24
86	23
87	36
88	28
89	69
91	639
92	81
93	386
94	45
95	65
96	7
97	24
98	17
99	17
100	9
101	26
102	44
103	160
104	74
105	47
106	14
107	61
108	23
109	15
110	11
111	16
112	6
113	58
114	14
115	91
116	41
117	9
118	38
119	999
120	320
121	435
122	44
123	16
125	45
126	12
127	103
128	20
129	12
131	16
132	119
133	24
134	10
135	17
137	25
138	36
139	33
140	29
141	20
143	25
144	58
145	98
147	452
149	191
150	29
151	34
152	59
153	18
155	3
156	3
157	13
158	81
159	14
160	92
161	18
162	7
163	58
164	11
165	227
166	96
167	15
169	11
170	21
172	104
173	23
174	14
175	56
176	56
177	29
178	86
179	26
180	8
181	19
182	16
183	63
184	9
185	15
186	4
187	101
188	20
189	94
190	32
191	35
192	41
193	39
194	30
195	18
196	24
197	7
198	26
201	26
202	33
203	68
204	15
205	16
206	15
207	35
208	13
212	15
213	4
214	88
215	94
216	16
219	14
220	20
221	7
222	28
223	10
225	33
226	14
227	26
228	10
231	169
232	51
233	74
234	13
235	41
236	8
237	4
238	22
239	6
240	3
241	12
242	45
243	20
244	9
245	28
246	41
247	42
248	39
249	10
256	13
257	15
258	12
259	36
260	22
261	47
262	111
263	35
264	12
274	27
275	23
276	16
277	6
278	32
287	12
288	6
290	67
291	18
302	6
304	25
305	14
306	663
307	102
314	83
315	16
317	3
319	12
320	1
334	38
335	16
351	59
352	12
