Mass Spectrum: Methyl 22-hydroxydocosanoate
Formula: C23H46O3
CAS: 38646-51-4
Molecular weight: 370
m/z	intensity
15	6
26	2
27	19
29	69
30	4
31	50
33	1
39	28
40	6
41	329
42	84
43	399
44	20
45	22
50	1
51	3
52	2
53	24
54	68
55	788
56	141
57	297
58	24
59	120
60	8
61	5
65	7
66	13
67	177
68	128
69	580
70	116
71	159
72	13
73	48
74	999
75	503
76	21
77	10
78	6
79	33
80	36
81	203
82	209
83	457
84	427
85	122
87	667
88	66
89	6
91	9
92	5
93	35
94	37
95	192
96	233
97	421
98	854
99	88
100	15
101	75
102	14
103	3
105	13
106	4
107	30
108	26
109	116
110	102
111	223
112	267
113	46
114	22
115	55
116	59
117	7
118	1
119	11
120	4
121	50
122	26
123	81
124	59
125	115
126	63
127	30
128	17
129	89
130	34
131	4
133	13
134	12
135	48
136	18
137	54
138	49
139	59
140	44
141	32
142	9
143	174
144	21
145	2
147	11
148	9
149	34
150	11
151	31
152	38
153	37
154	84
155	19
156	5
157	30
158	9
159	1
161	8
162	4
163	20
164	7
165	22
166	21
167	27
168	43
169	12
170	3
171	24
172	12
173	2
175	7
176	2
177	13
178	5
179	14
180	17
181	18
182	23
183	10
184	2
185	48
186	14
187	2
189	5
190	2
191	9
192	5
193	12
194	17
195	18
196	23
197	14
198	2
199	54
200	12
201	2
203	3
204	1
205	7
206	5
207	13
208	20
209	16
210	22
211	11
212	2
213	18
214	9
215	1
217	2
218	1
219	6
220	6
221	18
222	23
223	16
224	22
225	12
226	3
227	19
228	9
229	2
231	1
233	4
234	4
235	19
236	44
237	19
238	16
239	15
240	3
241	40
242	15
243	3
245	1
246	1
247	4
248	4
249	23
250	25
251	15
252	13
253	27
254	6
255	32
256	14
257	7
258	1
259	2
261	2
262	1
263	25
264	16
265	11
266	7
267	14
268	5
269	16
270	9
271	5
272	1
273	1
274	2
275	3
276	14
277	26
278	50
279	17
280	4
281	7
282	50
283	22
284	8
285	5
289	1
291	18
292	36
293	16
294	6
295	20
296	11
297	59
298	11
299	2
302	12
303	8
304	2
305	3
306	2
307	2
308	5
309	58
310	15
311	11
312	3
315	2
316	1
317	1
318	3
319	6
320	185
321	80
322	14
323	9
324	3
325	8
326	2
327	2
331	1
334	1
335	2
336	4
337	3
338	126
339	38
340	444
341	102
342	13
343	1
352	52
353	13
354	4
