Mass Spectrum: Propanoic acid, 2,2-dimethyl-, 2,3,3a,9a-tetrahydro-2-(hydroxymethyl)-6-oxo-6H-furo[2',3':4,5]oxazolo[3,2-a]pyrimidin-3-yl ester, [2R-(2.alpha.,3.beta.,3a.beta.,9a.beta.)]-
Formula: C14H18N2O6
CAS: 38642-35-2
Molecular weight: 310
m/z	intensity
51	50
52	110
53	110
54	90
55	320
56	230
57	999
58	150
59	330
60	50
67	110
68	200
69	710
70	250
71	210
72	100
73	110
74	190
79	160
80	50
81	260
82	120
83	140
85	710
86	70
87	90
94	120
95	220
96	410
97	580
98	160
99	160
103	150
108	100
109	80
110	70
111	150
112	240
113	580
114	90
115	100
135	70
136	180
137	990
138	140
139	80
140	40
141	50
154	230
155	40
165	190
166	90
167	410
168	80
177	999
178	190
179	290
180	60
181	80
182	40
183	60
191	190
192	40
193	160
194	20
195	120
196	50
197	60
198	40
199	450
200	200
201	30
208	160
209	380
210	150
211	30
221	50
225	380
226	80
227	30
279	90
280	20
293	60
294	20
295	300
296	50
309	80
310	690
311	140
312	20
