Mass Spectrum: 3-Buten-1-amine, N,N-diethyl-3-methyl-2-methylene-
Formula: C10H19N
CAS: 38644-66-5
Molecular weight: 153
m/z	intensity
26	16
27	107
28	104
29	130
30	153
31	3
35	0
37	2
38	6
39	106
40	22
41	132
42	97
43	48
44	22
45	1
46	0
49	0
50	7
51	16
52	15
53	67
54	19
55	49
56	79
57	10
58	138
59	8
61	2
62	2
63	4
64	1
65	19
66	12
67	28
68	11
69	8
70	18
71	4
72	18
73	1
74	0
75	0
76	0
77	17
78	3
79	43
80	12
81	44
82	11
83	20
84	6
85	1
86	999
87	57
88	1
91	2
92	2
93	6
94	12
95	5
96	13
97	5
98	16
99	1
101	1
104	0
105	0
106	1
107	2
108	13
109	4
110	7
111	2
112	1
113	1
120	0
121	1
122	11
123	6
124	4
125	4
126	0
132	0
133	0
134	0
135	0
136	8
137	2
138	113
139	12
140	2
147	0
150	0
151	0
152	7
153	113
154	12
155	0
