Mass Spectrum: 5H-Cyclopenta-1,4-dioxin, 4a,6,7,7a-tetrahydro-2-methyl-, trans-
Formula: C8H12O2
CAS: 38653-47-3
Molecular weight: 140
m/z	intensity
12	4
13	12
14	48
15	234
16	5
17	1
18	5
19	7
25	8
26	93
27	479
28	120
29	298
30	10
31	41
32	0
36	1
37	20
38	59
39	470
40	174
41	378
42	133
43	567
44	46
45	34
46	1
49	2
51	24
52	14
53	238
54	20
55	132
56	21
57	27
58	5
61	2
62	3
63	9
64	3
65	43
66	100
67	930
68	999
69	103
70	10
71	10
72	4
73	12
74	39
75	2
77	6
78	1
79	21
80	2
81	6
82	4
83	30
84	14
85	103
86	5
89	1
91	2
93	2
95	4
96	1
97	44
98	31
99	4
111	469
112	85
113	7
121	1
125	2
138	1
139	8
140	405
141	37
142	3
