Mass Spectrum: 1,4-Benzodioxin, octahydro-2-methylene-, trans-
Formula: C9H14O2
CAS: 38653-34-8
Molecular weight: 154
m/z	intensity
12	2
13	6
14	41
15	78
16	2
17	1
18	5
19	3
25	3
26	62
27	367
28	228
29	337
30	16
31	69
32	1
37	9
38	30
39	364
40	106
41	454
42	122
43	113
44	19
45	9
47	1
49	1
50	10
51	48
52	27
53	137
54	235
55	217
56	74
57	285
58	49
59	9
61	1
62	2
63	7
64	1
65	22
66	23
67	411
68	70
69	214
70	64
71	15
72	2
73	3
74	11
75	3
77	27
78	9
79	91
80	107
81	333
82	84
83	38
84	38
85	999
86	49
87	7
91	2
93	5
94	4
95	15
96	23
97	76
98	133
99	14
100	1
107	2
108	3
109	1
110	1
111	88
112	9
113	3
123	3
125	5
126	1
127	2
153	4
154	328
155	33
156	2
