Mass Spectrum: Ethanol, 2-[(1-methylene-2-propenyl)oxy]-
Formula: C6H10O2
CAS: 38653-51-9
Molecular weight: 114
m/z	intensity
12	11
13	24
14	105
15	288
16	14
17	42
18	142
19	64
24	2
25	14
26	132
27	785
28	136
29	238
30	22
31	145
32	3
36	2
37	17
38	31
39	237
40	55
41	163
42	276
43	999
44	186
45	289
46	7
48	1
49	11
50	67
51	97
52	73
53	451
54	113
55	596
56	23
57	6
58	11
59	2
60	2
61	7
65	2
66	3
67	2
68	3
69	76
70	176
71	743
72	34
73	5
81	2
82	1
83	35
84	4
86	3
87	377
88	17
89	2
95	2
99	203
100	12
101	2
113	4
114	21
115	3
