Mass Spectrum: Benzimidazol-2-amine, 1-(2-diethylaminoethyl)-
Formula: C13H20N4
CAS: 38652-79-8
Molecular weight: 232
m/z	intensity
33	9
34	1
36	0
37	1
38	5
39	16
40	16
41	20
42	71
43	21
44	23
45	1
50	12
51	31
52	11
53	6
54	9
56	65
58	125
59	3
60	0
61	0
62	3
63	14
64	13
65	17
66	1
67	1
68	2
70	15
71	7
72	13
74	3
75	5
76	14
77	36
78	13
79	3
80	1
82	0
84	22
86	999
89	3
90	27
91	17
92	21
93	1
94	0
96	0
97	0
98	9
99	5
100	2
102	8
103	4
104	5
105	17
106	3
107	0
109	1
116	1
117	8
118	20
119	40
120	2
128	0
129	9
130	2
131	6
132	12
133	14
134	2
143	0
144	5
145	4
146	24
147	5
148	0
157	2
158	7
159	3
160	3
172	1
173	1
187	0
188	1
202	0
215	0
216	0
229	0
230	3
232	54
233	8
234	0
