Mass Spectrum: Benzene, 1-azido-3-methoxy-
Formula: C7H7N3O
CAS: 3866-16-8
Molecular weight: 149
m/z	intensity
37	112
38	285
39	496
40	82
41	82
50	353
51	999
52	402
53	105
61	56
62	127
63	270
64	300
65	157
66	112
67	60
75	56
76	56
77	101
78	808
79	195
80	60
91	203
92	101
93	120
94	56
106	962
107	75
108	30
121	639
122	67
123	131
149	300
150	30
