Mass Spectrum: 2H-Quinolizin-3-ol, 6-(3-furanyl)octahydro-3,9-dimethyl-, [3R-(3.alpha.,6.beta.,9.alpha.,9a.alpha.)]-
Formula: C15H23NO2
CAS: 38681-18-4
Molecular weight: 249
m/z	intensity
39	134
40	40
41	215
42	67
43	224
53	107
55	161
56	156
57	83
65	83
66	44
67	56
68	67
69	44
70	179
71	58
77	112
79	156
81	217
82	44
84	60
91	60
93	67
94	869
95	116
96	242
107	237
108	112
113	192
114	999
115	89
120	26
121	89
122	44
134	44
135	60
136	818
137	152
141	67
148	89
162	49
163	40
164	116
176	49
177	60
178	387
179	49
182	49
191	31
192	40
193	38
194	67
204	17
206	148
207	26
218	22
220	107
221	26
232	38
234	98
248	107
249	426
250	85
