Mass Spectrum: 2-Cyclohexene-1-thione, 3,6,6-trimethyl-
Formula: C9H14S
CAS: 38693-71-9
Molecular weight: 154
m/z	intensity
39	999
41	639
45	450
51	310
53	350
55	250
58	480
59	220
65	310
67	200
77	440
79	390
82	350
91	440
93	220
97	460
98	789
105	330
111	230
126	499
139	280
154	390
