Mass Spectrum: Tricyclo[4.2.1.0(2,5)]nonane, 3-ethenyl-
Formula: C11H16
CAS: 38698-52-1
Molecular weight: 148
m/z	intensity
27	140
28	22
29	34
38	10
39	201
40	42
41	153
42	10
50	15
51	52
52	41
53	83
54	49
55	39
63	16
64	9
65	82
66	999
67	149
68	12
70	9
77	144
78	55
79	388
80	242
81	93
82	19
91	212
92	114
93	112
94	100
95	12
103	11
104	10
105	92
106	64
107	71
108	7
117	10
118	8
119	182
120	120
121	9
133	59
134	10
148	39
149	6
