Mass Spectrum: 2-Cyclopentene-1-thione, 2-ethyl-3-methyl-
Formula: C8H12S
CAS: 38693-67-3
Molecular weight: 140
m/z	intensity
39	420
41	340
45	260
53	200
65	300
77	450
79	539
91	999
97	230
105	340
111	220
125	350
139	959
140	969
