Mass Spectrum: 4-Acetoxy-thiacyclohexane 1,1-dioxide
Formula: C7H12O4S
CAS: 38690-86-7
Molecular weight: 192
m/z	intensity
41	161
42	39
43	999
53	79
55	40
57	70
61	99
63	20
64	19
65	19
66	30
67	549
68	218
69	40
71	10
72	89
83	19
85	29
100	19
131	29
132	229
133	40
134	20
149	9
174	20
