Mass Spectrum: 1-Pentene, 5-chloro-4-(chloromethyl)-2,4-dimethyl-
Formula: C8H14Cl2
CAS: 38696-17-2
Molecular weight: 180
m/z	intensity
26	15
27	171
28	35
29	159
30	3
31	5
32	1
33	0
34	0
35	1
36	3
37	4
38	12
39	193
40	35
41	221
42	15
43	32
44	1
45	1
46	0
47	1
48	1
49	33
50	12
51	37
52	12
53	167
54	58
55	380
56	999
57	185
58	7
59	1
60	0
61	5
62	7
63	99
64	5
65	38
66	4
67	46
68	61
69	23
70	2
71	4
72	0
73	4
74	1
75	27
76	13
77	36
78	8
79	18
80	4
81	16
82	2
83	0
85	1
86	0
87	2
88	4
89	187
90	82
91	80
92	27
93	40
94	2
95	77
96	6
97	1
99	1
101	1
102	1
103	6
104	14
105	3
106	4
107	1
108	1
109	12
110	1
111	2
112	1
113	6
114	0
115	1
116	0
117	1
119	0
123	0
124	60
125	12
126	37
127	9
128	6
129	3
130	0
131	27
132	2
133	9
134	0
144	8
145	1
146	3
147	0
180	8
181	0
182	5
183	0
184	0
