Mass Spectrum: 17.alpha.-Hydroxypregnenolone
Formula: C21H32O3
CAS: 387-79-1
Molecular weight: 332
m/z	intensity
40	11
41	323
43	999
44	11
45	24
51	12
53	110
55	367
57	118
58	14
59	16
65	62
66	21
67	265
68	33
69	108
71	56
77	179
78	33
79	314
80	36
81	379
82	23
83	68
85	28
87	119
91	434
92	72
93	341
94	54
95	254
96	15
97	78
100	35
103	27
104	25
105	404
106	72
107	341
108	63
109	136
110	12
111	18
115	56
116	27
117	131
118	52
119	248
120	84
121	191
122	27
123	74
124	16
125	19
128	50
129	94
130	36
131	214
132	50
133	308
134	57
135	111
136	11
137	44
141	34
142	31
143	203
144	58
145	337
146	61
147	187
148	35
149	58
151	45
155	44
156	22
157	201
158	77
159	314
160	63
161	116
163	73
164	11
165	11
169	44
171	147
172	40
173	116
174	28
175	68
176	15
177	21
183	62
184	27
185	124
186	39
187	60
189	34
190	11
191	16
195	11
197	115
198	23
199	73
200	11
201	39
203	21
209	16
211	110
212	33
213	423
214	94
215	83
217	17
223	15
225	46
226	44
227	122
228	89
229	105
230	11
231	128
232	39
233	11
237	11
238	11
239	13
244	59
245	181
246	91
253	553
255	37
263	24
269	16
271	631
272	126
273	59
281	69
282	11
287	20
289	336
290	65
291	12
296	45
299	70
314	72
315	16
332	454
