Mass Spectrum: 1,5-Diazabicyclo[3.1.0]hexane, 6-spiro-cyclohexane-
Formula: C9H16N2
CAS: 38705-02-1
Molecular weight: 152
m/z	intensity
36	17
39	507
41	999
42	323
43	139
44	111
45	10
47	19
48	20
49	19
50	34
51	62
52	44
53	158
54	255
55	244
56	234
57	54
58	38
60	2
61	1
62	2
63	14
65	24
67	215
68	89
69	101
71	238
72	30
73	4
74	3
75	1
77	56
79	82
80	56
81	162
82	111
83	100
85	63
86	1
87	8
89	0
91	16
92	4
93	16
94	45
95	82
96	78
97	32
98	51
99	2
103	4
104	7
105	14
106	10
107	9
108	36
109	42
110	39
111	77
112	7
115	4
117	4
118	2
119	1
121	21
123	451
124	125
125	13
126	1
127	1
129	4
130	2
131	3
132	9
133	6
135	7
136	0
137	28
138	2
146	0
149	13
151	295
152	151
153	18
154	5
155	0
