Mass Spectrum: N-Carbethoxy-N-methoxyamine
Formula: C4H9NO3
CAS: 3871-28-1
Molecular weight: 119
m/z	intensity
27	155
28	315
29	999
30	56
31	70
32	152
33	19
43	33
44	19
45	44
46	48
47	444
48	11
60	185
61	19
74	37
119	4
