Mass Spectrum: [1,4]Dioxino[2,3-b]-1,4-dioxin, hexahydro-2,2,3,3-tetramethyl-
Formula: C10H18O4
CAS: 38737-49-4
Molecular weight: 202
m/z	intensity
39	105
41	230
43	240
45	110
55	115
57	100
58	230
59	80
67	25
69	430
73	30
83	200
84	230
85	100
86	999
87	80
129	167
142	10
144	10
202	58
