Mass Spectrum: Akuammilan-17-oic acid, 10-methoxy-, methyl ester
Formula: C21H24N2O3
CAS: 38734-64-4
Molecular weight: 352
m/z	intensity
40	23
41	103
42	33
43	96
44	263
45	256
46	6
49	16
50	116
51	150
52	153
53	26
54	10
55	36
56	23
57	26
58	6
59	13
60	10
61	6
62	10
63	30
64	10
65	70
66	10
67	33
68	16
69	43
70	16
71	23
72	6
73	20
74	70
75	30
76	60
77	246
78	999
79	130
80	23
81	30
82	16
83	26
84	10
85	13
87	6
89	10
90	6
91	26
92	170
93	53
94	16
95	26
96	13
97	20
98	6
99	6
101	6
102	10
103	10
104	43
105	66
106	100
107	160
108	26
109	20
110	6
111	13
113	6
115	20
116	13
117	13
118	6
119	13
120	13
121	80
122	30
123	16
124	6
125	6
127	10
128	10
129	10
130	10
131	6
135	13
137	10
139	10
140	10
141	13
142	20
143	26
144	23
145	10
146	10
149	26
151	10
152	10
153	10
154	16
155	16
156	16
157	13
158	13
159	10
160	10
165	10
167	10
168	10
169	10
170	13
171	16
172	33
173	16
174	16
182	10
184	13
185	16
186	150
187	60
188	26
189	10
196	10
197	13
198	13
199	13
200	23
201	10
210	13
211	10
212	10
213	10
224	10
225	10
226	10
230	16
231	16
232	16
245	20
246	13
247	13
264	13
266	13
273	36
274	16
275	16
277	20
290	13
291	16
292	16
293	23
294	16
302	10
303	10
304	10
321	13
337	13
350	13
351	13
352	23
353	16
