Mass Spectrum: [1,4]Dioxino[2,3-b]-1,4-dioxin, hexahydro-2,3,6,7-tetramethyl-
Formula: C10H18O4
CAS: 38737-48-3
Molecular weight: 202
m/z	intensity
39	160
40	35
41	465
43	260
45	105
55	600
56	999
57	130
60	25
71	70
72	75
73	560
85	60
101	520
114	370
202	54
