Mass Spectrum: [1,4]Dioxino[2,3-b]-1,4-dioxin, hexahydro-2,3-dimethyl-
Formula: C8H14O4
CAS: 38737-47-2
Molecular weight: 174
m/z	intensity
39	30
41	330
43	230
44	65
45	200
55	210
56	999
57	100
58	100
71	30
73	340
86	270
101	170
174	145
