Mass Spectrum: Methanone, [3-[1,1'-biphenyl]4-yl-1-(1,1-dimethylethyl)-2-aziridinyl]phenyl-, trans-
Formula: C25H25NO
CAS: 38751-82-5
Molecular weight: 355
m/z	intensity
39	30
41	84
51	34
55	11
56	47
57	128
77	352
78	41
89	65
90	38
91	54
92	6
105	999
106	84
107	13
115	52
116	27
117	13
145	11
146	57
147	13
152	65
153	30
164	43
165	335
166	65
167	137
168	31
180	75
181	82
182	17
193	109
194	178
195	31
202	17
222	34
228	20
240	23
241	9
242	65
243	11
250	23
269	24
270	24
282	263
283	74
284	9
297	19
298	520
299	452
300	205
301	38
338	8
354	30
355	550
356	123
357	23
