Mass Spectrum: Methanone, (1-ethyl-3-phenyl-2-aziridinyl)phenyl-, trans-
Formula: C17H17NO
CAS: 38751-78-9
Molecular weight: 251
m/z	intensity
29	52
30	11
39	98
41	109
51	120
63	63
65	54
77	712
78	79
79	13
89	150
90	150
91	242
92	24
104	65
105	999
106	82
107	16
117	141
118	221
119	27
120	27
145	27
146	523
147	17
152	46
165	86
166	31
167	178
168	34
174	369
175	46
206	100
207	71
208	13
209	13
210	41
222	150
223	35
224	16
234	328
235	43
236	11
250	104
251	465
252	106
253	20
