Mass Spectrum: 7-Oxo-1,3,5-cycloheptatrienyl p-toluenesulfonate
Formula: C14H12O4S
CAS: 38768-08-0
Molecular weight: 276
m/z	intensity
26	2
27	7
28	7
29	1
37	3
38	13
39	184
40	8
41	12
43	1
44	1
45	4
48	1
50	11
51	30
52	5
53	7
55	4
57	2
61	2
62	9
63	48
64	20
65	292
66	20
67	4
69	2
71	1
74	3
75	2
76	2
77	41
78	8
79	6
80	1
81	1
83	1
85	1
86	1
87	1
89	28
90	13
91	999
92	91
93	33
94	9
95	2
97	1
105	6
106	2
107	5
108	3
109	2
111	2
115	7
116	1
119	1
120	1
121	6
122	11
123	4
124	6
127	1
128	4
129	3
135	1
139	18
140	3
141	9
142	1
149	1
152	2
153	3
154	1
155	503
156	46
157	25
158	2
165	2
167	1
168	3
169	3
181	3
182	1
183	6
184	9
185	2
195	42
196	7
197	28
198	4
210	1
211	38
212	346
213	51
214	5
276	1
