Mass Spectrum: 4-Amino-2(1H)-pyridinone
Formula: C5H6N2O
CAS: 38767-72-5
Molecular weight: 110
m/z	intensity
41	95
42	63
43	17
44	11
49	4
50	7
51	21
52	75
53	31
54	159
55	144
56	12
63	5
64	12
65	26
66	35
67	24
68	55
69	84
70	19
75	0
77	3
78	0
79	0
80	3
81	88
82	363
83	39
84	3
92	9
93	3
94	2
109	28
110	999
111	62
112	1
