Mass Spectrum: 1H-Pyrrole-2,5-dione, 3,4-dichloro-1-phenyl-
Formula: C10H5Cl2NO2
CAS: 3876-05-9
Molecular weight: 241
m/z	intensity
35	48
36	20
37	108
38	238
39	306
40	73
41	62
42	5
44	11
47	67
49	38
50	190
51	293
52	187
53	23
54	9
55	4
59	121
60	9
61	77
62	103
63	371
64	572
65	165
66	9
69	5
71	4
73	18
74	47
75	62
76	45
77	175
78	83
80	7
85	16
86	13
87	999
88	56
89	320
90	65
91	649
92	61
94	490
95	14
96	323
97	9
98	52
99	5
103	8
106	4
108	7
114	14
115	4
119	708
120	67
122	219
123	21
124	134
125	7
126	19
143	9
148	5
149	7
150	63
151	4
152	15
156	9
162	790
163	73
164	260
165	22
170	8
177	8
178	126
179	13
180	41
185	5
199	16
201	5
240	11
241	742
242	87
243	483
244	51
245	72
246	5
