Mass Spectrum: 2-Tropylpropanal tosylhydrazone
Formula: C17H20N2O2S
CAS: 38774-89-9
Molecular weight: 316
m/z	intensity
17	3
18	1
26	1
27	11
28	54
29	2
30	1
32	1
37	2
38	6
39	55
40	6
41	26
42	6
43	4
44	1
45	9
46	2
48	6
49	1
50	12
51	31
52	9
53	13
54	6
55	3
56	2
57	6
58	3
60	2
61	4
62	10
63	30
64	27
65	117
66	9
67	6
68	1
69	7
70	4
71	3
74	4
75	4
76	4
77	43
78	33
79	20
80	5
81	1
82	1
83	7
84	1
85	2
86	3
87	2
88	1
89	31
90	16
91	999
92	183
93	11
94	1
95	2
97	1
101	1
102	5
103	12
104	12
105	11
106	8
107	16
108	11
109	2
111	3
113	1
114	1
115	92
116	40
117	250
118	29
119	4
121	6
122	4
123	15
124	41
125	4
126	3
127	7
128	15
129	30
130	15
131	76
132	115
133	12
134	1
138	1
139	59
140	18
141	4
142	4
143	4
144	13
145	5
146	42
147	5
154	2
155	7
156	49
157	9
158	6
159	5
160	1
161	7
165	1
167	2
171	1
181	1
182	1
214	2
246	3
