Mass Spectrum: 2H-Pyran-2-acetic acid, tetrahydro-, ethyl ester
Formula: C9H16O3
CAS: 38786-78-6
Molecular weight: 172
m/z	intensity
12	6
13	6
14	32
15	163
16	12
17	25
18	85
19	15
22	1
24	1
25	4
26	75
27	552
28	269
29	955
30	48
31	182
33	1
34	1
37	5
38	15
39	271
40	66
41	716
42	206
43	448
44	96
45	119
46	11
47	30
48	2
49	4
50	6
51	13
52	8
53	65
54	73
55	388
56	246
57	229
58	22
59	35
60	134
61	65
62	2
63	5
64	1
65	9
66	11
67	149
68	45
69	65
70	64
71	192
72	15
73	24
74	3
75	27
76	2
77	5
78	2
79	19
80	28
81	48
82	16
83	110
84	192
85	999
86	70
87	90
88	137
89	58
90	3
91	2
92	1
93	1
94	1
95	5
96	10
97	267
98	269
99	18
101	47
102	21
103	4
104	1
105	3
106	1
107	2
108	5
109	4
110	4
111	4
112	3
113	5
114	9
115	69
116	6
117	8
118	1
119	1
120	1
121	1
122	1
123	1
124	3
125	46
126	18
127	123
128	12
129	11
130	493
131	38
132	5
133	1
134	1
139	1
140	1
141	2
142	31
143	205
144	20
145	2
150	1
154	2
155	1
156	1
157	1
170	1
171	6
172	10
173	2
