Mass Spectrum: 5,9-Undecadien-2-one, 6,10-dimethyl-, (Z)-
Formula: C13H22O
CAS: 3879-26-3
Molecular weight: 194
m/z	intensity
26	0
27	36
29	28
30	0
31	0
38	0
39	42
40	9
41	284
42	14
43	999
44	22
45	6
50	0
51	4
52	2
53	33
54	5
55	35
56	3
57	2
58	21
59	2
62	0
63	1
64	0
65	8
66	3
67	49
68	39
69	367
70	21
71	23
72	1
77	11
78	2
79	18
80	10
81	42
82	21
83	37
84	4
85	9
86	0
91	12
92	6
93	72
94	12
95	36
96	11
97	3
98	2
99	1
103	0
104	0
105	6
106	2
107	94
108	34
109	51
110	5
111	14
112	2
113	1
115	0
117	0
118	0
119	4
120	3
121	36
122	5
123	17
124	9
125	103
126	12
127	0
132	0
133	14
134	3
135	4
136	111
137	14
138	7
139	1
147	0
148	0
149	0
150	6
151	122
152	13
153	0
161	12
162	1
176	41
177	6
178	0
179	3
180	0
194	74
195	10
196	0
