Mass Spectrum: 1-Phenyl-2-(1H-purin-8-ylthio)ethanone
Formula: C13H10N4OS
CAS: 38801-62-6
Molecular weight: 270
m/z	intensity
42	7
43	16
50	25
51	86
52	14
53	9
63	18
64	8
65	85
66	55
67	3
74	1
75	1
76	1
77	3
78	97
89	16
90	11
91	102
92	19
93	18
94	19
103	19
104	18
105	999
106	225
107	14
118	15
119	57
120	23
124	36
151	18
152	44
153	4
165	43
228	64
229	10
242	51
243	19
270	117
271	20
