Mass Spectrum: Trichothec-9-ene-3,15-diol, 12,13-epoxy-, diacetate, (3.alpha.)-
Formula: C19H26O6
CAS: 38818-51-8
Molecular weight: 350
m/z	intensity
41	181
43	999
55	119
57	67
67	44
69	53
79	103
81	66
91	269
95	105
105	217
106	169
107	137
121	95
122	195
123	209
135	34
143	57
145	60
157	71
159	86
171	71
175	55
185	56
187	62
199	57
202	65
215	15
217	14
233	7
235	10
247	41
248	13
262	228
263	40
275	8
282	7
290	253
291	52
307	12
335	2
