Mass Spectrum: .alpha.-d-Mannofuranosyl bromide, 2,3:5,6-bis-O-(1-methylethylidene)-
Formula: C12H19BrO5
CAS: 38838-12-9
Molecular weight: 322
m/z	intensity
26	11
27	71
28	17
29	45
30	3
31	45
32	3
36	1
37	1
38	4
39	73
40	15
41	132
42	43
43	999
44	24
45	12
47	1
50	1
51	5
52	4
53	34
54	7
55	37
56	5
57	44
58	13
59	135
60	11
61	19
62	4
63	1
65	3
66	2
67	3
68	32
69	57
70	12
71	49
72	68
73	42
74	2
77	2
78	0
79	2
80	2
81	57
82	18
83	24
84	10
85	74
86	5
87	4
89	0
91	0
92	1
93	1
94	3
95	7
96	1
97	18
98	8
99	53
100	11
101	304
102	17
103	12
105	2
107	2
108	0
109	13
110	7
111	8
112	0
113	8
114	5
115	6
116	1
117	3
119	3
121	4
122	0
123	2
125	6
126	5
127	42
128	4
129	12
130	1
133	4
135	5
137	1
139	1
141	16
142	1
143	6
144	0
145	1
146	2
147	12
148	1
149	11
150	0
151	0
153	1
155	2
156	0
157	0
159	1
161	7
163	8
165	2
167	3
168	0
169	2
171	0
177	1
179	1
184	0
185	120
186	10
187	2
189	85
190	6
191	79
192	6
193	1
202	0
204	1
205	1
206	0
207	3
208	0
209	2
213	3
219	0
229	0
236	2
237	0
238	1
243	17
244	2
245	2
247	2
249	22
250	2
251	20
252	1
263	1
264	3
265	0
266	3
307	142
308	16
309	148
310	18
311	2
