Mass Spectrum: 4-Ethyl-2,6,7-trioxa-1-phosphabicyclo[2.2.2]octane 1-selenide
Formula: C6H11O3PSe
CAS: 3883-97-4
Molecular weight: 242
m/z	intensity
27	130
28	60
29	160
39	220
41	999
42	40
43	300
47	110
53	140
55	190
57	210
67	140
68	150
69	420
79	160
80	50
81	240
119	70
131	50
132	60
161	30
162	30
200	30
238	150
239	120
240	440
242	920
243	30
244	140
