Mass Spectrum: 2-Pentanone, 5-bromo-
Formula: C5H9BrO
CAS: 3884-71-7
Molecular weight: 164
m/z	intensity
41	140
42	60
43	999
44	30
50	10
51	10
53	20
54	30
55	20
56	10
58	660
59	30
69	20
83	50
84	100
85	50
93	10
95	10
121	20
123	20
149	20
151	20
164	30
166	30
