Mass Spectrum: 2-Ethyl-2-methyl-5-oxooxolane-3-carboxylic acid
Formula: C8H12O4
CAS: 38840-97-0
Molecular weight: 172
m/z	intensity
37	3
38	11
39	102
40	47
41	126
42	46
43	999
44	296
45	378
46	4
50	12
51	18
52	5
53	44
54	17
55	471
56	64
57	257
58	8
60	3
63	1
65	3
66	1
67	28
68	8
69	27
70	6
71	48
72	46
73	243
74	10
77	1
79	2
81	8
82	19
83	23
84	2
85	8
94	1
95	5
97	34
98	7
99	11
100	59
101	18
110	3
111	3
112	5
113	8
115	143
116	15
125	11
129	6
139	5
142	10
143	381
144	23
145	2
157	27
158	2
172	19
173	1
