Mass Spectrum: 2-Pyrrolidinemethanol, 1-(1,3-benzodioxol-5-ylacetyl)-
Formula: C14H17NO4
CAS: 38847-94-8
Molecular weight: 263
m/z	intensity
43	94
44	9
45	3
50	39
51	65
52	7
53	7
55	40
56	20
57	98
58	5
62	3
63	7
65	7
67	65
68	14
69	9
70	999
71	45
72	1
74	2
75	4
76	18
77	85
78	26
79	14
82	15
83	21
84	119
85	117
86	4
89	2
90	1
91	26
92	1
98	8
100	46
101	1
102	22
103	1
104	3
105	31
106	14
107	3
110	6
111	10
112	3
114	2
116	7
117	1
120	10
122	1
128	155
129	9
132	2
133	1
134	29
135	476
136	115
137	10
149	2
161	1
162	40
163	5
170	2
203	2
232	212
233	35
234	5
245	24
246	67
247	8
262	16
263	346
264	214
265	32
