Mass Spectrum: 8-Azabicyclo[3.2.1]octan-3-ol, 2-bromo-8-methyl-, (exo,exo)-
Formula: C8H14BrNO
CAS: 38853-62-2
Molecular weight: 219
m/z	intensity
15	140
16	11
17	11
18	33
26	44
27	244
28	106
29	222
30	100
31	50
36	11
37	11
38	33
39	238
40	50
41	266
42	833
43	188
44	144
45	22
49	16
50	27
51	55
52	50
53	122
54	105
55	255
56	122
57	144
58	50
60	22
63	22
65	61
66	44
67	111
68	155
69	50
70	88
71	22
72	5
73	5
74	5
75	11
76	5
77	38
78	50
79	38
80	50
81	105
82	999
83	161
84	44
85	11
86	11
91	27
92	11
93	27
94	294
95	50
96	600
97	205
98	27
107	8
108	19
109	16
110	38
111	16
112	150
140	244
141	33
149	25
181	16
183	11
194	5
196	5
204	13
206	13
219	11
221	11
