Mass Spectrum: 1-[(1-Oxo-2-propenyl)oxy]-2,5-pyrrolidinedione
Formula: C7H7NO4
CAS: 38862-24-7
Molecular weight: 169
m/z	intensity
13	1
14	2
15	4
18	2
25	3
26	33
27	168
28	84
29	4
30	5
31	1
32	1
37	1
38	1
39	2
40	1
41	2
42	24
43	6
44	3
45	1
51	1
52	1
53	6
54	6
55	999
56	76
57	6
59	2
69	1
70	27
71	1
72	1
80	1
82	1
84	4
87	16
88	1
97	1
98	2
99	3
114	1
115	2
116	1
169	7
170	1
