Mass Spectrum: Phthalic anhydride, 4-benzoyl-
Formula: C15H8O4
CAS: 3886-01-9
Molecular weight: 252
m/z	intensity
50	250
51	740
52	60
53	90
55	20
57	20
62	40
63	80
69	150
73	60
74	450
75	800
76	250
77	920
78	200
86	25
87	30
98	30
99	25
100	15
101	30
102	115
103	550
104	120
105	999
106	590
107	35
119	60
120	90
125	20
126	45
131	30
148	240
149	40
150	140
151	190
152	380
153	50
156	30
162	15
163	15
169	20
175	530
176	60
179	35
180	245
181	50
192	40
207	40
208	540
209	100
252	990
253	520
254	60
