Mass Spectrum: 1,5-Dihydro-2,3,4-benzotrithiepin-2-oxide
Formula: C8H8OS3
CAS: 3886-46-2
Molecular weight: 216
m/z	intensity
41	12
42	3
43	3
44	2
45	55
46	5
47	4
48	39
49	7
50	78
51	141
52	54
53	15
54	3
55	4
56	2
57	4
58	9
59	3
60	1
61	8
62	33
63	96
64	110
65	54
66	14
67	15
68	2
69	27
70	6
71	5
73	3
74	24
75	22
76	32
77	166
78	253
79	26
80	6
81	6
82	10
83	5
84	6
85	3
86	5
87	5
88	2
89	57
90	22
91	143
92	28
93	8
94	0
95	6
96	11
97	4
98	4
99	1
101	6
102	50
103	266
104	999
105	101
106	5
107	0
108	9
109	4
110	2
112	8
114	0
115	0
117	1
118	2
119	3
120	2
121	25
122	6
123	3
124	0
128	14
130	3
132	2
133	12
134	137
135	852
136	197
137	55
138	12
139	1
144	1
149	10
150	1
151	7
152	17
153	5
154	1
160	14
162	4
163	2
164	12
165	9
166	13
168	968
169	99
170	101
171	9
172	3
174	3
176	1
178	1
179	1
184	9
185	2
186	1
199	1
200	3
216	46
217	5
218	6
