Mass Spectrum: N-Methyl methacrylamide
Formula: C5H9NO
CAS: 3887-02-3
Molecular weight: 99
m/z	intensity
38	60
39	517
40	103
41	999
42	40
43	2
44	20
45	3
46	1
51	1
53	5
54	1
56	1
58	1
64	1
67	5
69	757
70	35
98	56
99	2
