Mass Spectrum: 2,6,10-Trimethyltridecane
Formula: C16H34
CAS: 3891-99-4
Molecular weight: 226
m/z	intensity
18	8
20	1
27	34
29	82
30	1
38	5
39	42
40	16
41	273
42	74
43	670
44	12
51	11
53	19
54	15
55	222
56	150
57	999
58	54
67	16
68	6
69	100
70	208
71	927
72	55
77	14
82	4
83	16
84	103
85	414
86	25
89	3
96	16
97	69
98	20
99	122
100	9
111	8
112	98
113	140
114	13
124	3
125	4
126	14
127	40
128	6
135	4
140	32
141	103
142	8
154	10
155	26
156	5
169	2
182	10
183	46
184	9
197	3
211	11
226	12
