Mass Spectrum: D-Arabino-Hexose, 2-deoxy-, 3,4,5,6-tetraacetate
Formula: C14H20O9
CAS: 3891-61-0
Molecular weight: 332
m/z	intensity
44	320
45	769
46	26
47	8
50	26
51	39
52	26
53	90
54	49
55	180
56	46
57	141
58	26
59	9
60	190
61	62
62	8
63	13
64	8
65	31
66	24
67	13
68	57
69	98
70	37
71	29
72	4
73	46
74	11
80	11
81	93
82	102
83	62
84	65
85	29
86	999
87	46
88	4
89	4
94	8
95	8
96	8
97	141
98	24
99	52
100	13
101	8
102	8
103	171
104	9
109	19
110	227
111	72
112	13
115	59
116	16
126	8
127	11
128	289
129	24
139	39
140	8
141	11
142	28
145	108
146	9
152	13
153	24
157	14
158	11
169	4
170	32
171	3
199	4
200	1
201	2
202	1
205	2
211	1
212	2
213	34
214	3
215	0
217	24
218	2
230	1
231	0
244	13
245	1
247	1
259	3
273	6
274	1
289	2
