Mass Spectrum: n-Pentane, 2-cyclohexyl-5-[1-cycloazapropyl]-
Formula: C13H25N
CAS: 38914-53-3
Molecular weight: 195
m/z	intensity
41	999
42	592
43	555
44	369
45	26
46	8
47	2
49	10
51	24
53	137
55	832
56	911
57	323
58	247
59	10
63	5
65	24
67	120
69	252
71	972
72	35
73	4
75	1
77	26
79	53
81	96
82	49
84	754
85	93
86	9
87	1
88	2
89	0
91	15
92	6
93	10
94	9
95	40
96	23
97	14
98	24
99	4
100	0
102	3
103	2
105	3
107	12
108	3
109	30
110	20
112	226
113	28
114	2
115	0
121	5
122	4
123	5
124	15
125	3
126	3
130	0
133	1
135	9
136	4
138	25
139	4
140	2
150	5
152	36
153	5
154	0
156	1
164	1
166	3
168	1
180	24
181	2
182	2
193	1
194	23
195	56
196	8
197	0
