Mass Spectrum: D-Arabinose, 2,3,4,5-tetraacetate
Formula: C13H18O9
CAS: 3891-58-5
Molecular weight: 318
m/z	intensity
41	5
43	999
44	8
45	5
47	0
49	0
50	0
51	2
53	1
54	0
55	4
56	2
57	5
58	1
60	7
61	7
65	1
68	32
69	25
70	5
71	6
72	1
73	27
74	2
75	0
77	2
78	2
81	1
82	2
83	1
84	6
85	26
86	47
87	4
88	0
89	2
91	9
92	0
96	10
97	33
98	5
99	4
100	8
101	5
102	36
103	123
104	6
105	3
106	2
110	1
111	0
112	2
113	16
114	13
115	141
116	11
117	1
124	1
125	0
126	5
127	23
128	224
129	17
130	2
131	9
132	0
138	10
139	79
140	9
141	1
142	3
143	52
144	25
145	149
146	10
147	1
155	2
156	39
157	130
158	11
159	1
161	3
170	332
171	31
172	4
173	37
174	3
175	4
185	1
186	3
187	19
188	1
198	33
199	6
200	1
203	26
204	2
215	13
216	24
217	33
218	3
219	0
224	0
225	0
228	0
230	32
231	3
232	0
233	0
245	47
246	5
247	0
258	12
259	33
260	4
261	0
275	27
276	4
277	0
318	2
319	0
