Mass Spectrum: 2-Benzoyl-6,8-dichloro-cinchoninic acid
Formula: C17H9Cl2NO3
CAS: 38923-25-0
Molecular weight: 345
m/z	intensity
41	30
42	10
43	48
44	627
45	44
49	34
50	84
51	261
52	28
53	5
55	24
57	27
60	11
62	10
63	13
68	5
69	20
71	12
73	21
74	31
75	24
76	14
77	840
78	48
84	26
85	6
86	12
87	16
95	4
97	19
98	23
99	27
101	4
104	21
105	999
106	69
109	5
112	4
122	60
124	50
126	5
133	11
134	5
135	9
150	4
157	9
159	5
160	19
161	25
162	6
163	6
173	4
194	5
196	5
198	5
201	18
237	10
238	20
239	4
240	9
266	45
267	4
268	21
300	90
301	127
302	84
303	88
304	26
345	37
346	9
347	26
349	6
