Mass Spectrum: Thiosulfuric acid S-[2-[[5-[O-tolyloxy]pentyl]amino]propyl ester
Formula: C15H25NO4S2
CAS: 38920-47-7
Molecular weight: 347
m/z	intensity
41	478
42	175
43	97
44	262
45	52
46	23
47	66
48	540
49	11
50	35
51	29
52	21
53	35
54	35
55	64
56	187
57	79
58	90
59	30
60	9
61	24
62	8
63	11
64	999
65	69
66	58
67	32
68	27
69	261
70	262
71	44
72	11
73	24
74	39
75	52
76	7
77	92
78	26
79	50
80	29
81	11
82	18
83	16
84	109
85	19
86	161
88	48
89	16
90	29
91	115
92	11
93	11
94	7
95	15
96	16
97	8
98	31
99	9
100	11
101	4
102	55
103	4
104	29
105	7
106	5
107	83
108	103
109	27
110	26
111	5
112	278
113	25
114	7
115	5
116	15
117	9
118	6
119	2
121	63
122	6
123	1
124	15
125	17
126	28
127	3
128	30
129	5
130	4
134	6
135	2
138	2
140	1
142	4
144	4
147	2
150	1
151	6
152	1
154	3
155	1
156	6
158	4
160	6
165	5
172	1
177	6
193	1
194	12
207	4
208	5
218	8
220	316
221	47
222	4
234	4
260	1
263	5
268	2
276	2
278	2
347	1
