Mass Spectrum: Ethanethiol, 2-((4-(2,4-diisopropylphenoxy)butyl)amino)-, hydrogen sulfate
Formula: C18H31NO4S2
CAS: 38920-50-2
Molecular weight: 389
m/z	intensity
41	187
42	158
43	309
44	76
45	39
46	9
47	26
48	216
49	8
50	14
51	17
52	6
53	32
54	17
55	189
56	115
57	43
58	28
59	37
60	32
61	163
62	8
63	17
64	358
65	56
66	25
67	21
68	16
69	21
70	114
71	37
72	999
73	55
74	7
75	10
76	13
77	59
78	17
79	30
80	13
81	8
82	14
83	19
84	768
85	55
86	91
87	19
88	27
89	13
90	64
91	116
92	14
93	19
94	9
95	16
96	24
97	21
98	103
99	14
100	28
101	13
102	22
103	45
104	16
105	43
106	8
107	65
108	9
109	5
110	14
111	13
112	19
113	8
114	53
115	50
116	35
117	40
118	12
119	23
120	15
121	64
122	15
124	89
125	5
126	12
127	19
128	57
129	27
130	69
131	39
132	652
133	82
134	43
135	45
136	9
137	5
138	4
139	5
140	12
141	9
142	19
143	8
144	19
145	14
146	9
147	54
148	12
149	52
150	9
151	2
152	9
153	6
154	12
155	8
156	23
157	9
158	24
159	11
160	38
161	42
162	28
163	213
164	37
165	3
166	10
167	7
168	6
169	5
170	27
171	5
172	19
173	33
174	36
175	14
176	10
177	29
178	47
179	10
180	5
181	2
182	7
183	2
184	8
185	4
186	4
187	4
188	6
189	13
190	5
191	28
192	7
194	3
198	3
199	2
201	2
204	3
205	1
208	3
212	2
217	5
219	5
220	5
224	1
231	4
232	4
233	22
234	6
236	4
240	2
243	2
248	18
249	4
250	36
251	6
260	6
262	124
263	23
264	3
268	1
276	14
277	3
288	8
294	4
295	5
296	16
297	2
302	19
303	5
304	2
305	9
306	7
307	4
308	16
309	49
310	168
311	34
312	11
316	2
318	5
319	4
320	36
321	8
322	5
330	2
331	2
332	10
333	26
334	13
335	6
336	5
337	4
338	1
339	8
340	4
341	14
342	5
343	2
344	4
346	52
347	13
373	2
374	7
375	2
388	4
389	13
390	3
391	1
