Mass Spectrum: Pentadecane, 2,6,10-trimethyl-
Formula: C18H38
CAS: 3892-00-0
Molecular weight: 254
m/z	intensity
26	1
27	90
28	18
29	170
30	2
32	2
33	1
36	0
37	1
38	1
39	42
40	6
41	305
42	72
43	615
44	12
45	1
50	1
51	1
52	1
53	17
54	9
55	181
56	152
57	999
58	41
59	0
63	0
65	2
66	1
67	13
68	11
69	83
70	76
71	489
72	23
77	2
78	0
79	2
80	0
81	4
82	2
83	19
84	61
85	263
86	15
91	0
92	0
93	0
94	0
95	3
96	15
97	36
98	70
99	98
100	7
105	0
107	0
108	0
109	0
110	3
111	16
112	49
113	84
114	7
119	0
121	0
123	0
124	0
125	3
126	9
127	37
128	3
138	0
139	1
140	9
141	27
142	2
149	0
151	0
152	0
153	1
154	7
155	11
156	1
167	0
168	8
169	32
170	3
181	0
182	15
183	33
184	4
196	2
197	2
207	0
210	2
211	5
225	3
226	0
238	1
239	4
240	1
254	1
