Mass Spectrum: Bicyclo[2.2.1]heptan-2-ol, 7-cyclohexyl-, (endo,syn)-
Formula: C13H22O
CAS: 38935-75-0
Molecular weight: 194
m/z	intensity
26	29
27	193
29	270
31	39
39	243
40	49
41	782
42	76
43	162
44	39
45	13
50	30
51	50
52	36
53	164
54	120
55	708
56	63
57	222
58	17
63	13
65	102
66	352
67	999
68	214
69	140
70	120
71	72
77	174
78	123
79	486
80	780
81	660
82	574
83	354
84	33
91	199
92	130
93	391
94	424
95	336
96	71
97	106
98	42
99	22
105	63
106	36
107	174
108	213
109	214
110	63
111	149
112	42
119	54
120	37
121	155
122	486
123	66
124	10
133	76
134	69
135	152
136	20
138	16
147	139
148	861
149	292
150	896
151	123
152	11
153	28
161	22
163	38
175	11
176	720
177	118
178	10
194	81
195	12
