Mass Spectrum: Bicyclo[2.2.1]heptan-2-ol, 3-cyclohexyl-, (2-endo,3-exo)-
Formula: C13H22O
CAS: 38935-71-6
Molecular weight: 194
m/z	intensity
25	12
26	64
27	247
29	388
30	9
31	70
38	13
39	326
40	68
41	999
42	128
43	215
44	21
45	19
50	29
51	51
52	33
53	202
54	122
55	928
56	109
57	593
58	30
63	13
65	96
66	385
67	951
68	158
69	188
70	237
71	56
77	160
78	84
79	480
80	837
81	770
82	336
83	444
84	67
91	185
92	98
93	343
94	793
95	607
96	393
97	309
98	79
99	22
105	74
106	30
107	101
108	158
109	151
110	79
111	141
112	91
113	19
119	65
120	51
121	83
122	91
123	64
124	23
125	33
126	53
133	210
134	167
135	110
136	23
137	26
138	45
139	12
147	147
148	200
149	36
150	55
151	23
161	57
162	14
163	370
164	51
165	21
175	22
176	768
177	131
178	12
193	11
194	252
195	37
