Mass Spectrum: Oxirane, [(tetradecyloxy)methyl]-
Formula: C17H34O2
CAS: 38954-75-5
Molecular weight: 270
m/z	intensity
26	16
27	212
28	34
29	775
30	41
31	308
39	157
40	45
41	999
42	224
43	768
44	63
45	116
46	2
47	5
53	82
54	70
55	725
56	200
57	735
58	299
59	46
61	1
65	6
66	6
67	135
68	83
69	399
70	126
71	172
72	12
74	11
75	23
79	9
80	2
81	62
82	38
83	197
84	40
85	70
86	3
87	46
88	3
89	11
94	2
95	29
96	13
97	131
98	26
99	4
109	13
110	10
111	67
112	17
123	5
125	12
137	1
138	3
140	10
141	2
183	2
197	11
