Mass Spectrum: 2-Methyl-4-phenyl-1,2,4-thiadiazolidine-3,5-dione
Formula: C9H8N2O2S
CAS: 38958-66-6
Molecular weight: 208
m/z	intensity
33	21
34	20
37	81
38	171
39	216
40	49
41	46
42	9
43	8
44	10
45	16
46	113
48	10
49	15
50	111
51	186
52	72
53	5
54	4
55	3
56	50
57	10
58	8
59	21
60	155
61	999
62	78
63	226
64	301
65	82
69	3
70	20
71	5
73	8
74	25
75	16
76	16
77	85
78	11
79	6
83	2
84	3
86	3
87	5
89	419
90	46
91	305
92	21
96	98
97	8
98	5
107	2
109	3
118	2
119	147
120	12
122	21
123	259
124	22
125	12
150	5
151	218
152	13
153	6
208	346
209	39
210	17
211	2
