Mass Spectrum: Butyric acid, 4,4'-thiodi-, dioctadecyl ester
Formula: C44H86O4S
CAS: 3895-83-8
Molecular weight: 710
m/z	intensity
43	773
55	91
57	181
68	27
69	95
71	110
85	223
87	999
101	24
119	25
126	22
129	26
134	29
135	23
143	12
147	27
148	26
170	20
189	26
206	27
207	12
339	206
371	14
386	206
399	20
440	16
458	26
710	15
