Mass Spectrum: Cobalt, [(1,2,3,4-.eta.)-1,3-cyclohexadiene](.eta.5-2,4-cyclopentadien-1-yl)-
Formula: C11H13Co
CAS: 38959-22-7
Molecular weight: 204
m/z	intensity
27	40
28	5
29	2
37	4
38	11
39	77
40	7
41	13
42	1
43	0
49	1
50	10
51	22
52	14
53	12
54	1
55	0
56	1
57	0
59	520
60	22
61	1
62	3
63	9
64	1
65	15
66	6
67	10
71	0
72	1
73	3
74	4
75	1
76	3
77	36
78	11
79	29
80	7
81	0
84	31
85	26
86	9
87	0
89	1
91	1
95	0
96	8
97	30
98	89
99	11
100	4
101	0
102	0
103	0
108	2
109	4
110	7
111	5
112	2
113	1
115	3
116	0
120	1
121	2
122	3
123	3
124	999
125	58
126	6
127	0
128	1
129	0
130	0
134	0
135	3
136	10
137	357
138	48
139	2
141	1
148	0
149	0
160	0
161	0
162	0
163	0
164	0
174	1
175	0
176	1
185	0
187	1
188	0
190	0
199	0
200	10
201	3
202	312
203	42
204	340
205	42
206	2
