Mass Spectrum: Chromium, (.eta.5-2,4-cyclopentadien-1-yl)dinitrosyl[2,3,3,3-tetrafluoro-1-(trifluoromethyl)-1-propenyl]-
Formula: C9H5CrF7N2O2
CAS: 38960-75-7
Molecular weight: 358
m/z	intensity
39	439
52	348
65	378
66	999
69	757
71	802
74	696
75	499
82	181
93	187
113	72
124	43
136	151
143	257
147	7
150	4
155	6
162	605
163	109
166	21
177	40
182	49
298	60
328	681
358	121
