Mass Spectrum: Toluene-4-sulfonic acid 4-amino-phenyl ester
Formula: C13H13NO3S
CAS: 3899-93-2
Molecular weight: 263
m/z	intensity
33	0
34	0
35	0
36	0
37	1
38	5
39	40
40	8
41	14
42	2
43	2
44	4
45	3
46	0
47	0
48	2
49	0
50	8
51	20
52	37
53	78
54	18
55	2
56	0
57	1
58	0
59	0
60	0
61	1
62	6
63	20
64	12
65	74
66	5
67	2
68	1
69	2
70	1
71	1
72	0
73	0
74	1
75	1
76	2
77	6
78	7
79	14
80	146
81	11
82	1
83	1
85	1
86	0
87	1
89	18
90	11
91	92
92	21
93	1
94	0
95	1
96	0
97	0
98	0
99	0
101	0
102	0
103	0
105	2
108	999
109	83
110	5
111	1
112	0
114	0
115	1
116	0
117	0
118	0
119	0
121	1
122	0
123	1
124	1
125	0
126	0
127	0
128	1
129	1
130	0
131	0
133	0
135	0
137	0
138	0
139	3
140	1
141	0
142	0
143	0
144	0
145	0
148	0
149	2
150	0
151	0
152	0
153	1
154	1
155	9
156	6
157	1
158	0
161	0
165	0
166	0
167	0
168	0
169	0
170	8
171	7
172	1
173	0
179	0
180	0
181	0
182	0
183	0
184	0
185	0
196	0
197	0
198	0
199	1
200	0
205	0
207	0
227	0
245	0
261	1
263	85
264	13
265	4
266	0
267	0
