Mass Spectrum: Benzenesulfonic acid, 4-methyl-, (1-methylethylidene)hydrazide
Formula: C10H14N2O2S
CAS: 3900-79-6
Molecular weight: 226
m/z	intensity
27	13
30	15
39	100
42	91
43	82
44	809
45	43
51	36
55	13
62	19
63	68
64	21
65	261
71	999
72	42
77	18
79	10
80	29
89	84
90	31
91	618
92	134
93	11
107	10
108	11
118	14
119	87
120	45
121	10
134	18
135	18
139	16
147	50
155	84
156	12
157	10
161	27
162	25
181	6
226	539
227	95
228	31
229	4
