Mass Spectrum: Bufa-20,22-dienolide, 14,15-epoxy-3,11-dihydroxy-, (3.beta.,5.beta.,11.alpha.,15.beta.)-
Formula: C24H32O5
CAS: 39005-15-7
Molecular weight: 400
m/z	intensity
41	540
42	119
43	304
44	190
45	54
47	23
50	23
51	52
52	42
53	214
54	33
55	428
56	52
57	147
58	23
59	23
60	14
61	14
62	23
63	23
64	23
65	221
66	183
67	633
68	95
69	285
70	64
71	102
72	23
73	33
74	23
75	9
76	9
77	583
78	159
79	838
80	128
81	530
82	80
83	183
84	52
85	52
86	16
88	16
89	35
90	23
91	761
92	138
93	530
94	261
95	476
96	90
97	128
98	42
99	33
100	14
101	14
102	14
103	80
104	64
105	699
106	290
107	999
108	219
109	309
110	80
111	80
112	33
113	33
114	23
115	147
116	64
117	254
118	138
119	342
120	78
121	333
122	178
123	380
124	109
125	71
126	30
127	47
128	109
129	219
130	71
131	428
132	119
133	323
134	499
135	507
136	200
137	95
138	42
139	42
140	23
141	128
142	88
143	214
144	100
145	373
146	109
147	309
148	100
149	178
150	64
151	90
152	119
153	90
154	47
155	126
156	47
157	238
158	107
159	261
160	135
161	209
162	107
163	71
164	42
165	90
166	30
167	78
168	64
169	123
170	61
171	200
172	90
173	166
174	95
175	178
176	71
177	109
178	119
179	71
180	30
181	95
182	47
183	147
184	47
185	159
186	71
187	190
188	159
189	119
190	107
191	107
192	28
193	61
194	42
195	126
196	71
197	123
198	47
199	114
200	78
201	95
202	95
203	88
204	109
205	95
206	95
207	71
208	30
209	95
210	71
211	159
212	88
213	452
214	126
215	95
216	78
217	71
218	42
219	47
220	30
221	47
222	19
223	61
224	30
225	71
226	90
227	123
228	95
229	119
230	71
231	190
232	71
233	95
234	42
235	47
236	30
237	61
238	119
239	71
240	71
241	76
242	59
243	76
244	40
245	59
246	19
247	42
248	19
249	309
250	76
251	47
252	61
253	107
254	47
255	47
256	102
257	71
258	47
259	42
260	28
261	42
262	19
263	42
264	19
265	28
266	19
267	19
268	42
269	42
270	28
271	40
272	19
273	11
274	11
275	30
276	19
277	42
278	71
279	40
280	19
281	28
282	19
283	19
284	9
285	9
286	9
287	19
288	9
289	40
290	9
291	28
292	19
293	28
294	47
295	28
296	19
297	7
298	7
299	7
300	7
302	7
303	7
304	28
305	7
306	28
307	7
308	61
309	28
310	28
311	19
312	19
313	40
314	19
317	9
318	19
319	47
320	19
321	71
322	28
323	28
324	9
335	47
336	95
337	40
338	40
339	47
340	9
346	59
347	19
348	7
349	102
350	40
352	9
353	66
354	40
355	19
356	9
363	9
364	228
365	76
366	19
367	47
368	9
370	9
381	9
382	142
383	38
384	19
385	7
398	9
399	9
400	76
401	19
402	19
