Mass Spectrum: Prostaglandin E2, 3TMS
Formula: C29H56O5Si3
CAS: 39003-20-8
Molecular weight: 568
m/z	intensity
15	1
26	1
27	5
29	9
31	1
39	5
40	1
41	29
42	5
43	58
44	8
45	76
46	5
47	36
48	2
49	1
51	1
52	1
53	11
54	6
55	90
56	7
57	14
58	7
59	35
60	8
61	25
62	2
63	1
65	9
66	8
67	83
68	7
69	15
70	3
71	20
73	999
74	90
75	438
76	32
77	39
78	13
79	72
80	25
81	74
82	9
83	14
84	2
85	8
86	5
87	4
88	2
89	8
90	3
91	88
92	18
93	39
94	31
95	24
96	6
97	7
98	2
99	20
100	2
101	37
102	5
103	53
104	14
105	63
106	27
107	42
108	10
109	28
110	4
111	10
112	2
113	6
114	2
115	24
116	26
117	98
118	23
119	77
120	28
121	23
122	8
123	7
124	2
125	6
126	2
127	12
128	11
129	131
130	51
131	111
132	23
133	62
134	16
135	17
136	6
137	6
138	1
139	6
140	2
141	11
142	14
143	107
144	23
145	56
146	14
147	103
148	30
149	31
150	14
151	21
152	4
153	11
154	17
155	44
156	11
157	27
158	7
159	17
160	6
161	17
162	6
163	9
164	17
165	13
166	7
167	34
168	13
169	31
170	23
171	27
172	7
173	130
174	23
175	14
176	4
177	7
178	3
179	16
180	8
181	23
182	15
183	32
184	8
185	20
186	6
187	12
188	6
189	12
190	42
191	19
192	5
193	15
194	5
195	8
196	5
197	9
198	4
199	70
200	15
201	14
202	7
203	19
204	19
205	16
206	6
207	12
208	6
209	20
210	5
211	5
212	3
213	4
214	4
215	8
216	5
217	30
218	7
219	7
220	3
221	12
222	4
223	10
224	4
225	158
226	34
227	28
228	6
229	7
230	2
231	2
232	1
233	9
234	3
235	6
236	3
237	7
238	9
239	6
240	1
241	5
242	4
243	17
244	6
245	7
246	2
247	4
248	1
249	3
250	1
251	6
252	4
253	3
254	2
255	6
256	8
257	8
258	2
259	2
260	1
261	4
262	3
263	25
264	6
265	5
266	1
267	1
268	1
269	3
270	6
271	10
272	5
273	6
274	3
275	9
276	3
277	5
278	6
279	31
280	22
281	10
282	3
283	2
284	1
285	1
286	1
287	3
288	1
289	8
290	4
291	14
292	4
293	7
294	2
295	2
296	1
297	3
298	14
299	11
300	3
301	4
302	1
303	3
304	2
305	5
306	3
307	5
308	2
309	1
310	1
311	2
312	1
313	30
314	9
315	4
316	1
317	54
318	14
319	10
320	2
321	1
323	1
324	1
325	7
326	4
327	1
328	1
329	1
330	1
331	1
332	1
333	3
334	10
335	4
336	1
337	2
338	1
339	1
341	1
343	1
344	1
345	2
346	4
347	7
348	2
349	1
351	3
352	10
353	63
354	18
355	8
356	3
357	1
359	1
360	3
361	2
362	1
363	4
364	4
365	8
366	3
367	2
368	1
369	2
370	4
371	3
372	1
373	24
374	7
375	2
376	1
377	1
378	1
379	18
380	8
381	5
382	2
383	1
387	1
388	27
389	11
390	3
391	1
392	1
393	1
394	1
395	3
396	1
397	1
407	55
408	21
409	9
410	2
411	1
421	1
423	1
424	3
425	1
426	1
435	1
436	1
437	1
441	2
442	1
450	1
454	1
455	1
460	1
461	1
463	31
464	11
465	4
466	1
478	24
479	10
480	4
481	1
497	9
498	4
499	2
553	6
554	2
555	1
