Mass Spectrum: 2,4-Di-tert-butylphenyl benzoate
Formula: C21H26O2
CAS: 39000-49-2
Molecular weight: 310
m/z	intensity
34	32
36	7
37	4
38	9
39	42
40	475
41	96
42	16
43	28
44	180
45	5
46	1
48	2
50	13
51	63
52	8
53	13
55	38
56	11
57	81
58	6
59	1
60	2
61	2
62	2
63	6
64	4
65	10
67	10
68	4
69	10
70	7
71	6
72	3
73	4
74	5
75	6
77	242
78	22
79	9
80	2
81	4
82	3
83	5
84	4
85	2
86	1
87	2
89	3
90	2
91	19
92	4
93	3
94	2
95	5
96	3
97	4
98	1
99	2
101	1
102	3
103	9
105	999
106	72
107	12
108	1
109	2
110	1
111	1
112	3
113	1
115	9
116	3
117	5
118	2
119	7
120	1
121	3
122	2
123	1
126	1
127	3
128	4
129	3
130	1
131	4
132	2
133	5
134	3
135	3
141	1
142	1
144	1
145	2
147	6
148	3
149	3
153	1
157	1
159	2
160	1
161	2
163	3
171	1
173	1
175	14
176	2
189	4
190	2
191	11
192	2
207	9
208	2
209	1
281	1
295	5
296	1
308	1
310	43
311	9
312	2
