Mass Spectrum: Cyclohexanol, 1-methyl-4-(1-methylethyl)-, cis-
Formula: C10H20O
CAS: 3901-95-9
Molecular weight: 156
m/z	intensity
24	0
26	4
27	110
29	86
30	2
31	15
37	0
38	2
39	73
40	25
41	175
42	15
43	329
44	8
45	18
46	0
47	0
48	0
49	0
50	1
51	7
52	3
53	32
54	9
55	94
56	20
57	75
58	121
59	20
60	0
61	0
62	0
63	1
64	0
65	8
66	3
67	83
68	12
69	59
70	25
71	999
72	147
73	9
74	0
77	12
78	2
79	20
80	3
81	109
82	15
83	32
84	18
85	82
86	6
87	0
89	0
91	6
92	0
93	9
94	6
95	82
96	19
97	8
98	268
99	64
100	4
101	0
103	0
105	0
107	2
108	1
109	39
110	4
111	1
112	18
113	32
114	2
115	0
119	0
121	1
122	0
123	127
124	12
125	1
127	0
128	0
136	0
137	4
138	38
139	5
140	0
141	114
142	11
143	0
156	101
157	10
158	0
