Mass Spectrum: 1-Methylimidazole-5-carboxaldehyde
Formula: C5H6N2O
CAS: 39021-62-0
Molecular weight: 110
m/z	intensity
25	9
26	50
27	162
28	139
29	48
37	20
38	30
39	50
40	101
41	50
42	70
50	9
51	29
52	81
53	51
54	306
55	70
56	9
66	29
67	10
80	10
81	271
82	39
83	9
108	20
109	377
110	999
111	120
112	10
