Mass Spectrum: Histidine, N-acetyl-2-amino-, methyl(ester)
Formula: C9H14N4O3
CAS: 39037-21-3
Molecular weight: 226
m/z	intensity
41	55
42	72
43	318
44	47
45	113
46	93
47	3
48	9
49	0
50	7
51	6
52	12
53	15
54	50
55	69
56	38
57	51
58	6
59	16
60	29
61	6
62	1
63	2
64	12
65	4
66	8
67	21
68	18
69	76
70	17
71	27
72	3
73	13
74	5
75	2
76	2
77	9
78	20
79	14
80	14
81	42
82	36
83	50
84	15
85	16
86	3
87	6
88	33
89	7
90	1
91	5
92	2
93	8
94	26
95	24
96	999
97	200
98	37
99	14
100	3
101	3
102	2
103	1
104	0
105	5
106	11
107	18
108	76
109	55
110	21
111	10
112	5
113	6
114	1
115	4
116	2
117	3
119	3
120	1
121	6
122	8
123	45
124	57
125	199
126	18
127	3
128	1
129	8
130	1
131	2
132	1
133	3
134	6
135	124
136	262
137	26
138	7
139	5
140	2
141	4
142	1
143	3
145	1
147	5
148	1
149	32
150	9
151	20
152	6
153	3
154	1
155	1
156	1
157	1
158	1
159	0
161	1
162	2
163	2
165	3
166	18
167	920
168	111
169	10
170	1
171	2
173	0
175	1
179	1
180	0
181	11
182	4
183	53
184	6
185	3
186	1
191	0
193	3
194	8
195	23
196	2
197	1
199	1
209	2
210	1
211	7
212	1
213	1
224	0
226	409
227	115
228	13
229	2
