Mass Spectrum: 9-Octadecenamide, N,N-dimethyl-
Formula: C20H39NO
CAS: 3906-30-7
Molecular weight: 309
m/z	intensity
39	27
40	8
41	207
42	57
43	158
44	118
45	249
46	142
47	6
53	24
54	51
55	243
56	39
57	65
58	19
65	8
66	8
67	88
68	28
69	98
70	26
71	14
72	382
73	22
74	8
77	14
79	20
80	9
81	56
82	16
83	45
84	16
85	8
86	8
87	999
88	57
89	5
91	8
93	10
95	27
96	9
97	23
98	20
99	5
100	675
101	123
102	8
105	5
107	6
109	11
110	6
111	8
112	8
113	8
114	104
115	23
121	5
123	8
124	5
126	16
127	6
128	33
129	17
140	10
141	6
142	77
143	19
154	18
155	6
156	117
157	20
168	17
169	5
170	27
171	6
182	30
183	10
184	9
196	41
197	9
198	7
210	84
211	15
212	7
224	68
225	16
226	5
238	36
239	8
252	22
253	6
265	6
266	22
267	6
280	16
281	5
294	8
307	6
308	18
309	292
310	63
311	10
