Mass Spectrum: Bicyclo[2.2.2]octanone, 4-methoxy-1-methyl-
Formula: C10H16O2
CAS: 3907-11-7
Molecular weight: 168
m/z	intensity
40	200
41	999
42	250
43	560
44	40
45	130
50	30
51	80
52	40
53	230
54	100
55	280
56	40
57	40
58	20
59	30
60	10
62	10
63	20
65	60
66	30
67	150
68	150
69	510
70	30
71	20
72	220
73	10
74	10
75	10
77	120
78	20
79	190
80	30
81	120
82	20
83	70
84	680
85	170
86	10
91	80
92	30
93	180
94	140
95	60
96	10
97	590
98	380
99	50
100	10
105	10
107	10
108	130
109	70
110	10
111	440
112	60
121	30
123	10
124	30
125	220
126	60
127	40
136	80
137	20
139	50
140	260
141	10
153	100
154	10
168	510
169	50
