Mass Spectrum: 5Z,?8Z,?11Z,?14Z-Eeicosatetraenoic acid,? 3-?theinylmethyl ester
Formula: C25H36O2S
CAS: 390824-17-6
Molecular weight: 400
m/z	intensity
26	1
27	23
28	4
29	48
30	1
38	2
39	45
40	6
41	180
42	12
43	72
44	3
45	53
46	2
47	4
50	3
51	11
52	8
53	71
54	35
55	165
56	10
57	32
58	5
59	3
60	2
61	1
62	1
63	4
64	1
65	38
66	33
67	237
68	23
69	81
70	14
71	36
72	2
73	3
74	1
76	1
77	101
78	49
79	283
80	115
81	126
82	17
83	31
84	5
85	40
86	3
87	4
88	1
89	1
90	1
91	228
92	44
93	168
94	32
95	84
96	34
97	999
98	100
99	59
100	5
101	4
102	1
103	12
104	11
105	167
106	33
107	51
108	8
109	33
110	7
111	13
112	2
113	13
114	21
115	14
116	7
117	62
118	11
119	89
120	14
121	58
122	8
123	34
124	6
125	3
126	1
127	7
128	6
129	21
130	6
131	55
132	9
133	39
134	7
135	50
136	12
137	20
138	3
139	8
140	1
141	8
142	2
143	14
144	3
145	44
146	6
147	51
148	8
149	31
150	60
151	18
152	3
153	7
154	2
155	5
156	1
157	8
158	1
159	17
160	3
161	32
162	13
163	18
164	7
165	35
166	9
167	6
168	1
169	12
170	2
171	4
172	1
173	16
174	3
175	23
176	6
177	12
178	4
179	9
180	2
181	2
182	1
183	7
184	1
185	2
186	1
187	17
188	3
189	14
190	5
191	13
192	3
193	4
194	1
195	1
197	2
199	1
201	10
202	2
203	6
204	2
205	24
206	4
207	2
208	1
209	3
210	1
211	1
213	1
215	4
216	1
217	2
218	1
219	5
220	1
221	2
222	1
223	4
224	1
225	1
229	2
231	3
232	1
233	5
234	2
235	1
236	1
237	3
239	1
241	2
243	5
244	1
245	1
246	1
247	2
248	1
249	3
250	1
257	3
258	1
259	1
261	1
262	1
267	4
268	1
271	1
273	3
274	1
275	1
285	8
286	2
287	1
289	4
290	1
302	4
303	53
304	11
305	1
