Mass Spectrum: 2-Chloro-N-(1,1-dimethylpropynyl)acetamide
Formula: C7H10ClNO
CAS: 39089-55-9
Molecular weight: 159
m/z	intensity
40	76
41	311
42	205
43	32
44	19
48	8
49	119
50	50
51	141
52	182
53	19
54	15
55	39
56	54
57	8
58	34
62	8
63	26
65	138
66	81
67	302
68	999
69	76
76	10
77	48
78	6
79	25
80	36
81	15
82	60
83	68
84	29
94	46
95	14
96	51
102	5
106	12
108	6
110	32
111	8
123	33
124	263
125	14
131	8
139	12
144	489
145	30
146	167
147	7
158	104
159	111
160	82
161	23
