Mass Spectrum: 3,4-Hexanedione, 2,5-dibromo-
Formula: C6H8Br2O2
CAS: 39081-91-9
Molecular weight: 270
m/z	intensity
15	6
18	1
25	9
26	132
27	561
28	413
29	481
30	15
31	38
32	2
36	16
37	8
38	17
39	38
40	16
41	38
42	12
43	25
45	7
53	21
54	7
55	148
56	999
57	598
58	28
65	3
66	6
67	26
68	23
69	17
79	10
80	6
81	12
82	7
83	7
84	7
85	101
86	3
95	17
99	5
106	8
107	331
108	14
109	327
110	7
112	23
113	67
114	76
115	1
135	101
136	8
137	97
192	6
194	5
