Mass Spectrum: 2-Propanol, 1-[(2-hydroxyethyl)thio]-3-phenoxy-
Formula: C11H16O3S
CAS: 39093-59-9
Molecular weight: 228
m/z	intensity
26	10
27	111
28	2
29	68
30	6
31	89
35	19
38	11
39	100
40	21
41	125
42	7
43	157
44	62
45	264
46	65
47	149
48	32
49	41
50	27
51	151
52	18
53	10
54	1
55	52
56	7
57	115
58	19
59	95
60	56
61	593
62	41
63	41
64	10
65	91
66	52
67	18
68	4
69	18
70	4
71	14
72	7
73	263
74	45
75	115
76	23
77	453
78	81
79	91
80	12
81	11
82	10
83	11
84	2
85	37
86	8
87	30
88	9
89	98
90	13
91	233
92	58
93	53
94	560
95	76
96	10
97	11
98	1
99	31
100	2
101	4
102	4
103	447
104	23
105	88
106	10
107	324
108	306
109	28
110	3
111	6
112	1
113	1
115	11
116	41
117	999
118	61
119	142
120	15
121	27
122	5
123	3
125	3
127	1
128	1
131	12
132	7
133	765
134	93
135	753
136	290
137	83
138	7
139	4
141	1
144	2
145	2
147	6
148	1
149	12
150	14
151	5
152	1
153	1
154	1
155	1
160	3
162	2
163	1
164	2
165	18
166	12
167	3
168	2
169	1
175	3
176	1
177	2
179	3
183	8
184	4
185	3
195	1
199	1
204	2
209	1
210	303
211	34
212	17
213	2
226	9
227	1
228	449
229	50
230	24
231	2
