Mass Spectrum: 3-Chloro-N-(1,1-dimethylpropynyl)propanamide
Formula: C8H12ClNO
CAS: 39109-07-4
Molecular weight: 173
m/z	intensity
41	17
42	9
51	17
52	18
55	20
57	5
58	9
61	7
63	92
65	72
66	80
67	157
68	999
69	64
72	21
81	15
82	58
83	188
84	107
85	12
90	12
91	89
92	6
93	29
94	6
95	6
96	12
108	31
109	6
110	168
111	62
120	39
122	16
124	22
138	18
158	316
159	27
160	98
161	12
172	498
173	284
174	193
175	107
176	9
