Mass Spectrum: .alpha.-D-Galactopyranosiduronic acid, methyl 3,4-O-(1-methylethylidene)-2-(2,3,4,6-tetra-O-methyl-.beta.-D-glucopyranosyl)-, methyl ester
Formula: C21H36O12
CAS: 39102-75-5
Molecular weight: 480
m/z	intensity
43	964
45	864
59	232
71	314
75	290
88	999
101	784
111	125
127	125
145	66
155	40
173	44
187	461
219	24
231	24
245	43
275	27
305	312
379	14
406	4
449	6
465	15
