Mass Spectrum: 2,5-Dipropionylpyrazine
Formula: C10H12N2O2
CAS: 39112-24-8
Molecular weight: 192
m/z	intensity
39	53
40	94
41	41
42	20
43	45
44	29
45	6
49	3
50	18
51	73
52	145
53	114
54	24
55	52
56	61
57	999
58	32
59	5
60	7
61	3
62	2
63	6
64	7
65	12
66	13
67	19
68	25
69	18
70	4
71	10
73	2
74	2
76	3
77	17
78	56
79	86
80	62
81	48
82	11
83	8
84	4
85	7
91	7
92	6
93	8
94	8
95	10
96	10
97	10
98	2
99	2
102	2
105	4
106	15
107	46
108	66
109	23
110	4
111	3
117	3
118	3
119	10
120	3
121	20
122	5
123	4
125	2
133	3
134	6
135	255
136	340
137	46
138	4
145	3
146	2
147	2
149	13
150	5
163	56
164	217
165	24
166	2
167	3
168	5
169	6
175	2
177	6
191	29
192	77
193	9
