Mass Spectrum: Trimebutine
Formula: C22H29NO5
CAS: 39133-31-8
Molecular weight: 387
m/z	intensity
42	10
45	9
46	7
56	2
58	999
59	33
69	2
73	2
77	14
81	6
86	1
91	9
96	2
109	2
115	4
117	5
122	2
131	3
144	5
147	2
152	4
160	20
175	31
195	40
197	2
212	9
282	1
