Mass Spectrum: 2-Cyclohexylimino-3-methylbutane
Formula: C11H21N
CAS: 39139-90-7
Molecular weight: 167
m/z	intensity
41	187
42	412
43	66
54	37
55	441
64	0
66	2
67	32
69	33
70	104
71	10
76	1
79	13
81	20
83	999
84	78
85	10
86	153
87	9
96	10
97	8
98	24
110	8
111	2
112	12
113	3
122	1
124	253
125	28
137	4
139	15
148	0
152	26
165	3
166	7
167	95
