Mass Spectrum: 2-Bromopropionic acid tert-butyl ester
Formula: C7H13BrO2
CAS: 39149-80-9
Molecular weight: 208
m/z	intensity
15	6
26	13
27	90
28	43
29	130
30	3
31	9
37	1
38	3
39	46
40	8
41	239
42	13
43	40
44	4
45	4
50	2
51	3
53	5
54	2
55	30
56	77
57	999
58	50
59	132
60	4
73	3
79	3
80	5
81	3
82	5
105	1
106	1
107	109
108	5
109	107
110	4
134	1
135	131
136	6
137	126
138	4
193	35
194	2
195	35
196	2
