Mass Spectrum: dl-Alanyl-dl-.alpha.-amino-n-butyric acid
Formula: C7H14N2O3
CAS: 3914-53-2
Molecular weight: 174
m/z	intensity
15	9
17	3
18	11
26	3
27	21
28	42
29	9
30	10
31	4
32	2
39	7
40	3
41	18
42	27
43	17
44	999
45	30
46	1
54	2
55	9
56	12
57	7
58	77
59	3
69	1
70	7
71	4
72	1
73	2
74	1
84	4
85	12
86	1
98	1
99	11
102	2
113	28
114	2
127	1
128	22
129	3
131	3
174	2
