Mass Spectrum: 2-Benzamino-2-methylbutyronitrile
Formula: C12H14N2O
CAS: 39149-36-5
Molecular weight: 202
m/z	intensity
42	32
43	3
44	16
45	1
47	1
49	13
50	32
51	144
52	13
53	12
54	8
55	9
56	2
57	1
60	0
61	4
63	4
64	1
65	2
66	2
67	0
68	1
69	1
71	8
72	1
74	7
77	376
78	26
79	11
80	0
81	1
82	9
84	7
86	5
88	1
89	0
91	1
92	1
94	0
95	0
97	14
99	13
102	0
105	999
106	68
107	3
109	0
121	32
122	24
123	2
125	4
130	0
133	0
148	15
149	2
157	2
158	1
160	9
162	6
171	1
173	6
174	45
175	10
176	2
185	4
187	20
188	2
201	3
202	44
203	7
