Mass Spectrum: N-Acetyl-dl-histidine
Formula: C8H11N3O3
CAS: 39145-52-3
Molecular weight: 197
m/z	intensity
12	5
13	5
14	24
15	107
16	7
17	2
18	7
25	4
26	43
27	83
28	389
29	40
30	66
31	12
32	6
34	1
35	2
36	12
37	11
38	34
39	101
40	59
41	106
42	94
43	584
44	175
45	33
46	9
47	1
50	5
51	15
52	63
53	49
54	222
55	115
56	68
57	29
58	4
59	7
60	85
61	4
62	1
63	4
64	9
65	16
66	40
67	32
68	45
69	46
70	13
71	13
72	5
73	9
74	48
75	4
76	2
77	5
78	5
79	14
80	22
81	999
82	704
83	146
84	20
85	8
86	9
87	3
88	2
90	1
91	7
92	19
93	112
94	389
95	57
96	9
97	11
98	9
99	14
100	4
101	2
102	1
103	1
104	2
105	7
106	9
107	22
108	38
109	128
110	528
111	42
112	5
113	3
114	3
115	3
116	2
117	3
118	5
119	5
120	156
121	42
122	5
123	3
124	5
125	3
126	2
127	2
128	2
129	4
130	2
131	2
132	5
133	27
134	29
135	20
136	30
137	47
138	226
139	35
140	5
141	2
142	1
143	2
144	2
145	2
146	3
147	2
148	1
149	2
150	2
151	72
152	106
153	44
154	26
155	5
156	1
157	2
158	1
159	1
160	1
161	3
162	2
163	2
164	3
165	2
166	2
167	1
168	2
169	1
170	1
171	2
172	1
173	1
176	2
177	4
178	3
179	42
180	6
181	1
182	4
183	1
195	1
197	92
198	9
199	2
