Mass Spectrum: 2(3H)-Benzofuranone, hexahydro-7a-methyl-
Formula: C9H14O2
CAS: 39163-24-1
Molecular weight: 154
m/z	intensity
26	13
27	124
28	26
29	86
30	4
31	6
37	7
38	13
39	178
40	41
41	295
42	61
43	612
44	21
45	18
49	3
50	15
51	30
52	16
53	81
54	65
55	431
56	58
57	31
58	288
59	45
60	14
61	10
62	8
63	14
64	5
65	36
66	37
67	432
68	487
69	211
70	64
71	259
72	30
73	11
74	5
75	5
76	3
77	37
78	15
79	90
80	37
81	192
82	156
83	209
84	89
85	38
86	6
87	3
88	2
89	5
91	28
92	13
93	116
94	69
95	163
96	38
97	139
98	115
99	15
100	4
102	4
103	13
104	4
105	9
106	6
107	9
108	34
109	32
110	54
111	999
112	116
113	14
114	5
115	4
116	4
117	4
118	3
119	5
121	125
122	20
123	10
124	7
125	22
126	37
127	8
128	4
129	5
133	3
134	4
135	7
136	8
137	7
138	5
139	900
140	86
141	12
142	2
143	2
144	3
145	4
150	3
151	3
152	5
153	9
154	405
155	56
156	7
