Mass Spectrum: (3,4,trans-6-Trimethyl-3-cyclohexenyl)formaldehyde 2,4-dinitrophenylhydrazone
Formula: C16H20N4O4
CAS: 39163-68-3
Molecular weight: 332
m/z	intensity
14	1
15	2
16	1
17	30
18	2
26	9
27	100
28	180
29	86
30	169
31	2
37	5
38	18
39	155
40	30
41	369
42	44
43	150
44	19
45	3
46	2
49	1
50	23
51	71
52	61
53	151
54	51
55	180
56	47
57	39
58	6
59	4
60	1
61	5
62	26
63	94
64	63
65	104
66	38
67	203
68	59
69	110
70	44
71	16
72	1
73	1
74	10
75	59
76	41
77	233
78	88
79	287
80	77
81	278
82	69
83	18
84	9
85	5
86	1
87	3
88	9
89	32
90	52
91	426
92	111
93	365
94	193
95	137
96	230
97	27
98	4
99	2
100	1
101	6
102	18
103	67
104	38
105	367
106	116
107	999
108	318
109	91
110	29
111	9
112	3
113	4
114	5
115	32
116	38
117	93
118	69
119	173
120	194
121	967
122	660
123	212
124	26
125	6
126	4
127	12
128	32
129	31
130	67
131	68
132	133
133	270
134	207
135	880
136	125
137	60
138	26
139	8
140	5
141	7
142	15
143	29
144	23
145	34
146	74
147	83
148	80
149	105
150	41
151	30
152	51
153	45
154	10
155	21
156	57
157	53
158	18
159	23
160	9
161	10
162	9
163	23
164	51
165	44
166	38
167	105
168	104
169	57
170	18
171	12
172	7
173	9
174	5
175	9
176	11
177	486
178	202
179	32
180	18
181	20
182	18
183	78
184	37
185	13
186	10
187	5
188	6
189	53
190	51
191	23
192	14
193	84
194	102
195	42
196	21
197	13
198	8
199	6
200	4
201	12
202	105
203	191
204	35
205	19
206	14
207	17
208	19
209	20
210	14
211	19
212	9
213	5
214	7
215	36
216	17
217	16
218	9
219	9
220	35
221	30
222	21
223	25
224	23
225	12
226	9
227	9
228	15
229	30
230	16
231	37
232	9
233	47
234	29
235	93
236	39
237	18
238	15
239	11
240	11
241	15
242	21
243	29
244	11
245	14
246	6
247	12
248	8
249	9
250	62
251	101
252	28
253	16
254	17
255	46
256	34
257	32
258	11
259	9
260	2
261	6
262	17
263	12
264	6
265	6
266	13
267	19
268	39
269	79
270	40
271	36
272	15
273	16
274	6
275	9
276	2
277	2
278	1
279	2
280	18
281	23
282	37
283	23
284	6
285	9
286	12
287	4
288	4
289	19
290	3
291	1
295	7
296	9
297	168
298	65
299	18
300	6
302	8
303	4
313	9
314	23
315	131
316	30
317	9
318	2
328	4
330	5
332	404
333	94
334	12
335	1
