Mass Spectrum: 3-Penten-1-ol
Formula: C5H10O
CAS: 39161-19-8
Molecular weight: 86
m/z	intensity
25	2
27	319
28	84
29	448
30	17
31	314
37	13
38	31
39	341
40	55
41	421
42	56
43	77
44	92
45	34
49	6
50	38
51	48
52	19
53	173
54	132
55	999
56	719
57	153
58	32
59	8
60	2
61	3
62	4
63	7
65	14
66	10
67	97
68	713
69	65
70	11
71	16
81	2
83	8
84	6
85	4
86	93
87	6
