Mass Spectrum: N-Carbobenzyloxy-glycylglutamine
Formula: C15H18N2O7
CAS: 3916-39-0
Molecular weight: 338
m/z	intensity
41	95
42	71
43	66
44	240
45	81
46	20
47	0
49	18
50	59
51	111
52	38
53	22
54	21
55	46
56	125
57	48
58	20
59	11
60	18
61	13
62	32
63	78
64	19
65	211
66	15
68	11
69	12
70	18
71	15
72	10
73	18
74	65
75	14
76	8
77	141
78	35
79	163
80	15
81	0
82	25
83	9
84	209
85	61
86	40
87	10
88	11
89	76
90	70
91	999
92	116
93	6
95	6
96	0
97	7
98	3
99	5
100	10
101	11
102	53
103	26
104	35
105	24
106	7
107	151
108	278
109	21
110	11
111	2
112	16
113	13
114	21
115	6
116	8
117	1
118	1
120	9
124	1
126	0
127	0
128	5
129	15
130	24
131	12
139	4
140	6
141	2
143	5
146	9
148	5
158	14
159	3
165	2
167	0
168	1
182	0
185	10
186	15
189	0
192	3
202	3
208	0
209	22
231	8
237	1
265	3
293	3
338	1
