Mass Spectrum: Cyclohexanone, 3-butyl-
Formula: C10H18O
CAS: 39178-69-3
Molecular weight: 154
m/z	intensity
26	6
27	67
28	12
29	65
37	1
38	2
39	73
40	18
41	222
42	88
43	62
44	4
50	2
51	5
52	3
53	24
54	36
55	349
56	158
57	33
58	3
63	1
65	4
66	3
67	33
68	54
69	121
70	45
71	10
72	4
77	6
78	0
79	15
80	2
81	42
82	17
83	74
84	34
85	5
86	1
91	3
93	3
94	10
95	16
96	33
97	999
98	117
99	10
107	8
108	0
109	0
110	45
111	251
112	49
113	4
121	1
125	12
126	7
127	0
135	1
136	1
139	7
140	0
153	0
154	104
155	12
