Mass Spectrum: p-Chlorophenyl methylethynyl ketone
Formula: C10H7ClO
CAS: 39180-27-3
Molecular weight: 178
m/z	intensity
38	52
39	210
50	140
51	61
57	35
62	33
63	59
66	50
67	999
68	47
74	87
75	220
76	38
89	31
111	96
113	50
114	42
115	480
116	51
139	43
149	92
150	230
151	50
152	71
178	490
179	58
180	160
