Mass Spectrum: 1,3-Butadiene, 1-chloropentafluoro-
Formula: C4ClF5
CAS: 392-44-9
Molecular weight: 178
m/z	intensity
15	1
17	1
18	7
24	2
27	2
28	6
29	7
31	186
32	3
35	8
36	9
37	3
39	1
42	1
43	9
44	8
45	2
47	16
48	1
49	5
50	69
51	2
55	75
58	2
59	8
62	1
63	1
64	1
65	1
66	4
67	2
69	41
71	6
73	2
74	155
75	9
76	1
77	2
78	23
79	1
80	8
81	4
82	1
84	1
85	23
86	6
87	9
89	35
90	26
92	3
93	999
94	32
95	2
96	10
97	4
98	1
99	2
100	4
101	1
102	1
103	1
105	10
106	2
108	1
109	552
110	18
111	183
112	12
113	2
114	1
116	5
117	1
118	2
119	1
121	1
123	1
124	98
125	10
126	2
127	2
129	2
130	9
131	4
133	1
140	3
141	1
142	2
143	460
144	25
145	3
146	1
147	11
148	1
149	4
159	18
160	1
177	3
178	803
179	37
180	260
181	13
