Mass Spectrum: 2-Chloro-3,5-dinitrobenzotrifluoride
Formula: C7H2ClF3N2O4
CAS: 392-95-0
Molecular weight: 270
m/z	intensity
28	2
30	999
31	11
35	1
37	8
38	5
46	102
49	2
50	13
51	2
53	11
57	2
61	12
62	13
63	2
67	1
69	60
71	1
72	5
73	15
74	73
75	38
76	3
77	3
79	1
80	3
81	20
82	1
84	11
85	15
86	6
87	10
88	8
89	1
90	1
91	6
92	13
93	50
94	3
95	1
96	3
97	46
98	6
99	35
100	5
102	1
103	5
104	8
105	5
106	6
108	19
109	78
110	14
111	29
112	7
113	2
115	7
116	2
117	19
118	6
119	12
121	2
122	6
123	54
124	11
125	2
126	2
127	7
128	24
129	4
130	19
131	64
132	7
133	6
135	2
139	4
140	2
141	14
143	841
144	78
145	4
146	7
147	37
148	6
152	6
153	4
154	4
157	16
158	4
159	63
160	17
161	19
162	6
165	11
166	112
167	12
168	34
169	2
172	2
174	2
175	36
176	4
177	104
178	374
179	61
180	123
181	14
182	2
192	17
193	12
194	39
195	8
196	10
205	12
207	3
208	3
209	2
224	20
225	2
226	7
238	3
240	31
241	5
242	10
243	1
251	80
252	6
253	26
254	127
255	11
256	40
257	3
270	658
271	65
272	208
273	20
274	1
