Mass Spectrum: 3-Penten-2-one, 3-methyl-, O-methyloxime
Formula: C7H13NO
CAS: 39209-03-5
Molecular weight: 127
m/z	intensity
39	440
40	80
41	400
42	999
43	100
44	20
45	20
50	60
51	110
52	110
53	290
54	260
55	710
56	130
57	20
58	30
59	40
65	30
66	30
67	100
68	70
69	70
70	110
71	320
72	40
77	40
78	10
79	140
80	170
81	480
82	90
84	20
85	50
86	240
87	20
94	110
95	40
96	430
97	50
98	10
112	160
113	20
126	20
127	530
128	40
