Mass Spectrum: 2-Chloro-3,4-pyridinediamine
Formula: C5H6ClN3
CAS: 39217-08-8
Molecular weight: 143
m/z	intensity
41	111
42	39
43	37
44	5
45	1
47	55
48	20
49	29
50	23
51	152
52	700
53	999
54	629
55	97
56	27
57	10
58	4
59	0
60	5
61	21
62	185
63	52
64	167
65	60
66	52
67	46
68	6
69	9
70	4
71	6
72	11
73	21
74	22
75	36
76	16
77	41
78	13
79	178
80	731
81	214
82	14
83	1
84	5
85	0
86	21
87	4
88	24
89	11
90	13
91	15
92	4
94	0
97	3
98	3
99	7
100	4
101	4
102	0
103	1
105	0
106	38
107	124
108	27
109	2
111	1
113	3
115	66
116	10
117	21
118	3
125	1
126	0
127	6
131	0
142	25
143	959
144	89
145	354
146	34
147	1
148	0
