Mass Spectrum: 4-Ethylamino-1-butanol
Formula: C6H15NO
CAS: 39216-86-9
Molecular weight: 117
m/z	intensity
14	1
15	10
16	1
17	2
18	7
26	7
27	53
28	88
29	64
30	384
31	35
37	1
38	3
39	30
40	9
41	78
42	123
43	112
44	101
45	35
46	9
50	2
51	3
52	3
53	12
54	12
55	92
56	71
57	16
58	999
59	50
65	2
66	2
67	12
68	23
69	14
70	47
71	50
72	9
73	24
74	2
77	1
78	3
79	2
80	22
81	4
82	23
83	4
84	291
85	17
86	7
87	4
88	2
89	1
91	1
92	1
93	3
94	5
95	19
96	17
97	16
98	115
99	79
100	14
102	84
103	5
112	1
113	2
114	1
116	6
117	55
118	25
119	2
