Mass Spectrum: 3-n-Dodecylmercapto-2-hydroxy-1,4-naphthoquinoe
Formula: C22H30O3S
CAS: 39226-85-2
Molecular weight: 374
m/z	intensity
41	887
43	999
44	31
45	42
47	32
49	1
50	35
51	40
53	51
55	793
57	300
59	19
60	9
61	13
62	5
63	26
65	13
67	65
69	322
71	72
73	16
74	10
76	123
77	114
78	8
79	14
81	34
83	148
84	4
85	38
87	31
89	81
90	8
91	18
93	9
95	28
97	71
98	4
101	23
102	4
104	138
105	113
106	10
108	1
109	12
111	14
113	1
115	14
116	1
117	15
118	5
120	3
121	73
122	7
123	10
127	1
129	19
132	57
133	58
134	14
135	7
136	10
143	7
144	3
145	13
146	10
147	26
149	42
150	16
151	7
153	1
155	5
157	12
159	39
160	18
161	28
162	8
163	16
165	19
167	2
171	9
173	154
175	71
176	34
178	530
179	69
180	26
181	1
183	9
185	7
187	38
188	29
189	33
190	10
191	11
192	16
194	2
197	8
199	10
200	4
201	12
202	3
206	247
207	209
208	330
209	37
210	18
211	2
213	34
214	11
215	7
217	6
219	144
220	22
221	9
227	6
229	9
230	2
233	6
241	7
314	6
340	5
358	8
373	5
374	713
375	165
376	48
377	8
