Mass Spectrum: 7-n-Octadecylmercapto-6-hydroxy-5,8-quinolinedione
Formula: C27H41NO3S
CAS: 39226-81-8
Molecular weight: 459
m/z	intensity
41	548
43	999
44	12
45	39
47	11
50	17
51	27
52	16
53	30
55	466
57	320
58	8
59	3
60	4
61	5
62	4
63	17
64	6
65	10
67	45
69	125
71	68
72	3
73	5
74	1
75	2
76	11
77	34
78	72
79	64
80	9
81	18
83	60
85	27
87	12
89	1
90	16
91	11
92	5
93	6
95	25
96	1
97	26
98	1
99	2
101	4
102	5
103	7
104	3
105	19
106	38
107	10
108	3
109	4
110	4
111	5
113	1
115	0
116	2
117	6
118	8
119	13
120	2
122	36
123	40
124	11
125	3
127	1
130	5
131	2
132	3
134	23
135	29
136	9
137	2
138	1
143	1
144	0
146	6
147	9
148	20
149	4
151	52
152	13
153	3
154	0
158	2
160	25
161	6
162	13
163	1
164	9
166	7
172	3
174	41
175	7
176	48
177	38
178	50
179	68
180	48
181	8
182	3
184	1
186	7
188	35
189	47
190	53
191	41
193	44
194	5
195	1
197	1
198	1
200	5
202	70
203	12
204	17
206	11
207	107
208	428
209	323
210	48
211	17
212	5
214	29
215	38
216	32
217	9
218	8
220	21
221	10
222	10
223	5
224	1
225	0
226	0
228	23
229	3
230	19
231	2
232	4
234	47
235	8
236	14
237	1
238	1
242	9
243	3
244	5
246	2
248	15
249	10
250	1
256	10
257	3
258	4
260	1
262	16
263	4
264	3
270	4
271	0
272	2
274	0
276	11
277	2
278	1
283	0
284	5
285	2
286	2
290	9
291	0
298	3
300	1
304	7
305	1
306	1
312	2
314	0
318	6
326	2
328	0
332	4
340	1
346	7
347	1
354	0
356	2
358	1
360	6
368	0
370	1
372	1
374	7
375	0
382	0
384	2
386	9
387	1
388	7
389	0
396	1
398	7
399	5
400	1
402	4
408	7
409	1
412	7
413	1
416	4
417	0
424	3
425	77
426	195
427	59
428	11
430	7
431	1
442	4
443	0
444	3
457	2
458	40
459	301
460	88
461	14
462	8
463	0
