Mass Spectrum: 1-Thiophen-2-ylmethyl-piperazine
Formula: C9H14N2S
CAS: 39244-79-6
Molecular weight: 182
m/z	intensity
33	1
39	46
40	38
41	63
42	168
43	82
44	294
45	121
46	4
47	9
48	0
50	8
51	15
52	14
53	88
54	41
55	47
56	498
57	138
58	94
59	8
60	1
61	1
62	3
63	12
64	3
65	7
66	3
67	4
68	7
69	28
70	27
71	31
72	3
73	1
74	0
75	1
76	2
77	4
78	3
79	2
80	8
81	9
82	9
83	21
85	311
86	105
87	4
90	0
91	4
92	3
93	3
94	3
95	12
97	999
98	70
99	58
100	3
101	0
103	0
104	0
105	1
106	1
107	0
108	1
109	3
110	36
111	14
112	7
113	1
114	0
115	0
117	0
118	0
119	1
120	14
121	2
122	1
123	4
124	33
125	61
126	97
127	15
128	5
129	0
130	0
131	0
132	0
133	0
134	0
135	1
136	4
137	31
138	23
139	28
140	203
141	19
142	9
143	0
147	0
148	1
149	22
150	3
151	4
152	19
153	25
154	5
155	1
156	0
157	0
164	3
165	12
167	9
180	4
182	329
183	35
184	14
185	1
