Mass Spectrum: .alpha.-Kessyl acetate
Formula: C17H28O3
CAS: 3925-77-7
Molecular weight: 280
m/z	intensity
15	1
27	22
28	3
29	37
30	1
31	10
39	66
40	12
41	229
42	40
43	999
44	26
45	16
50	2
51	15
52	9
53	83
54	14
55	188
56	16
57	37
58	27
59	48
60	3
61	12
63	5
65	52
66	19
67	150
68	42
69	170
70	41
71	140
72	10
73	2
76	2
77	125
78	28
79	213
80	121
81	437
82	110
83	87
84	25
85	25
86	2
87	6
91	159
92	33
93	243
94	145
95	206
96	32
97	138
98	26
99	11
102	2
103	18
104	8
105	155
106	49
107	237
108	605
109	266
110	33
111	83
112	14
113	8
115	19
116	9
117	38
118	13
119	206
120	85
121	226
122	76
123	110
124	29
125	46
126	886
127	153
128	17
129	12
130	6
131	41
132	8
133	87
134	40
135	92
136	39
137	47
138	26
139	52
140	7
141	4
144	4
145	45
146	11
147	198
148	30
149	73
150	30
151	11
152	4
153	4
154	2
155	2
157	2
158	2
159	71
160	16
161	46
162	131
163	212
164	29
165	8
168	7
171	1
173	4
175	5
177	73
178	15
179	6
187	55
188	8
191	3
192	24
193	3
195	20
202	11
203	18
205	79
206	12
207	2
220	10
221	8
222	3
237	1
238	1
252	1
264	26
265	21
266	4
280	10
