Mass Spectrum: 2-Furancarboxylic acid, octyl ester
Formula: C13H20O3
CAS: 39251-88-2
Molecular weight: 224
m/z	intensity
25	9
26	35
27	197
28	24
29	271
30	3
31	3
36	15
37	57
38	147
39	565
40	55
41	388
42	145
43	235
44	64
45	16
47	3
49	3
50	13
51	29
52	18
53	39
54	28
55	218
56	182
57	79
58	6
61	4
63	6
65	8
66	18
67	52
68	81
69	148
70	119
71	12
77	6
79	8
80	2
81	11
82	11
83	81
84	65
85	6
93	3
95	999
96	68
97	19
110	8
111	6
112	521
113	739
114	45
115	3
224	19
225	2
