Mass Spectrum: 2-Furancarboxylic acid, cyclohexyl ester
Formula: C11H14O3
CAS: 39251-91-7
Molecular weight: 194
m/z	intensity
26	15
27	98
28	10
29	49
30	4
31	6
37	31
38	88
39	362
40	31
41	221
42	39
43	31
44	29
45	9
49	4
50	13
51	25
52	13
53	59
54	181
55	197
56	17
57	8
65	11
66	25
67	442
68	49
69	11
77	13
79	25
80	7
81	73
82	303
83	61
84	15
94	8
95	999
96	62
97	6
98	4
99	62
110	25
112	187
113	884
114	58
115	8
123	11
193	3
194	18
195	3
