Mass Spectrum: Benzenecarbothioic acid,S-propyl ester
Formula: C10H12OS
CAS: 39251-01-9
Molecular weight: 180
m/z	intensity
45	18
61	15
77	404
91	47
105	999
121	2
138	1
180	77
181	9
182	5
