Mass Spectrum: Dehydroadamantane
Formula: C10H14
CAS: 39257-33-5
Molecular weight: 134
m/z	intensity
39	280
41	210
43	100
44	210
51	120
52	60
53	80
55	50
56	140
63	50
64	150
65	190
66	200
77	450
78	330
79	970
80	450
81	40
91	640
92	999
93	500
105	210
106	110
119	260
134	840
135	100
