Mass Spectrum: 1,3,5-Triazolidine-2-thione, 5-methyl-2-phenyl-5-(2-phenylethyl)-
Formula: C17H19N3S
CAS: 39263-75-7
Molecular weight: 297
m/z	intensity
33	120
34	15
36	0
39	151
40	66
42	690
44	43
45	21
46	12
47	2
48	5
51	146
52	28
53	16
54	13
55	10
56	20
57	45
59	508
61	19
63	62
65	339
66	36
67	2
68	4
69	9
70	25
72	3
73	0
74	14
77	467
78	87
79	119
81	3
83	3
84	3
85	5
86	8
88	16
91	999
92	285
93	532
96	8
97	6
98	1
99	2
100	4
101	10
103	125
104	126
105	237
106	608
107	109
108	108
109	62
110	22
111	9
112	2
114	4
115	30
116	18
117	42
118	88
119	102
120	72
121	8
122	5
123	8
124	19
125	2
126	2
127	7
128	16
130	91
131	132
132	93
133	51
134	12
135	26
136	3
137	0
142	12
144	261
145	104
147	838
148	39
151	96
152	15
153	4
154	0
157	2
158	3
159	4
160	5
161	0
163	1
164	0
165	5
167	20
168	18
169	0
171	2
172	2
175	8
176	10
177	7
178	16
179	25
180	25
181	43
182	79
183	7
188	3
189	27
190	88
192	811
194	88
195	5
196	4
203	3
204	16
206	68
207	12
209	7
216	2
217	7
218	8
220	68
221	199
222	32
223	4
235	4
238	802
239	100
240	9
249	0
262	2
264	21
265	1
280	2
282	63
283	9
284	1
294	3
295	9
297	329
298	58
299	16
300	1
