Mass Spectrum: 6-Hydroxychlorpromazine
Formula: C17H19ClN2OS
CAS: 3926-65-6
Molecular weight: 334
m/z	intensity
41	20
42	40
43	30
44	55
45	15
50	5
51	10
52	5
56	20
57	30
58	999
59	25
63	15
65	10
69	15
70	30
71	15
72	30
75	10
77	5
78	5
84	30
85	80
86	170
87	15
95	10
96	5
108	5
116	5
117	5
140	10
141	5
152	5
153	5
158	5
166	5
167	5
171	5
184	15
185	20
186	5
187	10
188	10
201	10
212	5
214	5
219	5
220	10
228	5
229	5
230	15
231	5
232	10
234	5
241	10
248	40
249	30
250	20
251	10
254	5
256	5
262	20
263	15
264	10
265	5
275	5
276	5
288	40
289	25
290	20
291	10
334	110
335	30
336	50
337	10
