Mass Spectrum: 2-Amino-4-hydroxy-7-[2-phenylethyl]pteridine
Formula: C14H13N5O
CAS: 39267-72-6
Molecular weight: 267
m/z	intensity
41	93
43	941
44	28
45	58
47	68
49	106
51	310
52	73
53	96
54	47
55	42
57	13
60	48
62	13
63	121
65	398
67	79
68	45
69	175
70	9
71	18
73	10
75	12
77	138
79	118
80	33
81	26
84	34
85	12
86	22
88	25
89	41
91	999
92	145
96	10
102	14
103	12
104	12
105	16
106	64
108	61
109	13
113	12
115	80
117	10
125	11
127	52
128	22
133	9
134	11
136	92
142	9
145	37
152	26
153	9
154	11
163	61
164	47
169	36
173	35
176	10
177	29
190	326
191	10
194	9
196	34
197	7
221	59
222	9
251	9
252	108
253	15
266	219
267	664
268	83
