Mass Spectrum: Spiro[2-cyclohexene-1,2'(1'H)-cyclopenta[de]naphthacene]-9'-carboxamide, 7',7'a,8',11',11'a,12'-hexahydro-5',6',7'a,10',11'a,12'-hexahydroxy-3'-methoxy-2,6,6-trimethyl-7',8'-dioxo-, (2'.alpha.,7'a.beta.,11'a.beta.,12'.beta.)-(-)-
Formula: C30H31NO10
CAS: 39277-41-3
Molecular weight: 565
m/z	intensity
30	78
31	26
34	13
36	13
39	236
41	526
42	342
43	421
44	999
46	26
51	13
52	13
53	26
54	26
55	236
56	394
57	342
61	26
63	52
65	13
67	52
68	26
69	157
70	78
71	131
72	26
80	13
81	13
88	13
91	13
93	26
95	65
98	26
102	26
103	26
105	26
106	26
107	26
109	39
111	13
112	26
115	26
125	26
128	52
130	26
133	26
135	26
139	13
140	13
141	26
143	26
145	26
149	105
150	26
152	26
156	13
165	13
167	13
168	13
169	52
179	26
180	13
182	26
189	65
195	13
198	26
200	13
201	13
205	26
207	26
217	26
219	13
223	26
224	13
238	13
241	13
246	13
247	13
249	13
253	26
265	26
267	13
269	26
279	39
281	39
291	13
293	26
295	26
297	65
306	26
309	26
323	52
324	105
325	39
333	26
335	26
350	13
351	13
360	26
375	13
378	13
379	26
380	39
391	13
439	26
465	78
466	26
474	26
477	26
492	789
493	210
494	52
505	13
509	473
510	105
511	52
546	13
547	26
548	197
549	78
550	13
563	26
565	526
566	184
567	26
