Mass Spectrum: Undecanedioic acid, monomethyl ester
Formula: C12H22O4
CAS: 3927-60-4
Molecular weight: 230
m/z	intensity
40	34
41	591
42	242
43	677
44	32
45	43
53	60
54	48
55	999
56	91
57	211
59	485
67	114
68	68
69	611
70	59
71	29
73	102
74	937
75	65
79	37
80	32
81	98
82	31
83	202
84	460
85	137
87	365
88	34
93	63
95	62
96	90
97	280
98	773
99	48
101	65
109	13
110	60
111	124
112	196
113	12
115	36
121	86
124	45
125	56
129	58
135	56
138	73
139	326
140	56
152	160
153	46
170	19
171	261
172	20
181	10
213	253
214	30
