Mass Spectrum: Phenol, 2,6-dinitro-4-(trifluoromethyl)-
Formula: C7H3F3N2O5
CAS: 393-77-1
Molecular weight: 252
m/z	intensity
30	999
31	45
36	4
37	43
38	38
39	17
40	4
41	5
42	8
43	8
44	15
45	72
46	75
47	3
48	3
49	12
50	59
51	56
52	15
53	213
54	20
55	7
56	13
57	50
58	4
59	1
60	5
61	63
62	177
63	226
64	70
65	46
66	28
67	21
68	11
69	171
70	27
71	12
72	2
73	8
74	19
75	76
76	34
77	19
78	8
79	25
80	18
81	217
82	36
83	4
84	3
85	1
86	4
87	15
88	17
89	5
90	41
91	18
92	29
93	14
94	10
95	24
96	3
97	6
98	4
99	18
100	24
101	16
102	7
103	3
104	2
105	3
106	14
107	27
108	3
109	3
110	3
111	8
112	40
113	8
114	5
115	3
116	3
117	1
118	7
119	76
120	47
121	11
122	3
123	23
124	1
125	3
126	6
127	3
128	7
129	1
130	7
131	136
132	49
133	6
134	3
136	34
137	2
139	3
140	6
141	17
142	2
143	2
144	2
145	11
147	50
148	13
149	11
150	7
151	4
157	1
159	105
160	30
161	22
162	3
163	1
164	2
166	1
171	1
174	1
175	25
176	13
177	23
178	1
187	7
189	45
190	3
191	1
194	125
195	8
196	1
205	1
219	2
222	16
223	1
233	38
234	3
236	7
252	161
253	14
254	2
