Mass Spectrum: Dinocap
Formula: C10H9NO4
CAS: 39300-45-3
Molecular weight: 207
m/z	intensity
15	3
17	0
25	0
27	29
28	4
29	40
30	6
37	1
39	82
41	227
42	16
43	57
44	2
45	0
50	3
51	6
52	4
53	10
55	21
56	4
57	4
62	2
63	6
64	4
65	7
66	2
69	999
70	44
71	3
74	0
75	3
76	3
77	10
78	4
79	3
80	1
81	1
83	0
86	1
87	0
89	9
90	4
91	6
92	1
93	0
101	1
102	2
103	4
104	2
105	2
106	0
115	3
116	2
117	4
118	3
119	2
120	0
128	1
129	0
130	2
131	2
132	1
133	1
134	0
144	1
145	1
146	1
147	3
148	0
149	0
150	0
151	1
161	0
163	3
176	0
177	3
181	0
191	1
192	0
