Mass Spectrum: 1-Nonene, 1,1,9-trichloro-
Formula: C9H15Cl3
CAS: 3930-10-7
Molecular weight: 228
m/z	intensity
26	11
27	236
28	96
29	260
35	11
36	139
37	3
38	39
39	204
41	740
42	207
43	358
45	16
49	66
51	96
52	9
53	87
54	191
55	999
56	150
57	94
59	20
61	15
62	13
63	74
65	65
66	19
67	237
68	178
69	177
70	168
73	30
74	13
75	78
76	14
77	79
78	6
79	52
80	8
81	240
82	24
83	230
85	34
87	11
88	47
89	56
90	97
91	100
92	22
93	59
94	9
95	63
96	80
97	4
98	12
99	9
101	18
102	13
103	36
104	214
105	21
106	75
107	14
109	232
110	22
111	128
112	11
113	24
115	30
116	65
117	63
118	23
119	16
121	16
122	40
123	11
124	24
125	12
126	3
127	6
129	15
130	59
131	16
132	38
133	4
134	5
136	39
138	23
141	9
143	4
149	6
150	4
151	3
156	12
157	32
158	4
159	10
164	4
165	5
167	8
168	3
192	10
193	15
194	7
195	8
228	24
230	22
232	6
