Mass Spectrum: Nickel, 2,6,10-dodecatriendi-1,12-diyl-
Formula: C12H18Ni
CAS: 39330-67-1
Molecular weight: 220
m/z	intensity
25	0
26	16
27	118
28	52
29	48
30	6
31	11
37	0
38	3
39	226
40	21
41	200
42	8
43	6
44	1
45	5
46	1
49	0
50	9
51	25
52	18
53	83
54	999
55	69
56	3
57	1
58	158
59	0
60	61
61	3
62	9
63	8
64	1
65	51
66	65
67	361
68	19
69	3
70	0
71	0
72	1
73	1
74	0
75	1
76	1
77	62
78	43
79	290
80	226
81	44
82	5
83	2
84	23
85	21
86	8
87	8
88	1
89	2
90	0
91	131
92	44
93	255
94	59
95	36
96	10
97	22
98	16
99	22
100	16
101	8
102	5
103	7
104	2
105	39
106	23
107	21
108	44
109	4
110	14
111	18
112	327
113	36
114	112
115	18
116	17
117	3
118	5
119	93
120	42
121	42
122	3
123	47
124	62
125	26
126	44
127	9
128	9
129	1
130	1
131	1
132	1
133	116
134	73
135	7
136	146
137	50
138	88
139	29
140	39
141	9
142	11
143	3
144	1
145	0
146	0
147	12
148	2
149	12
150	52
151	13
152	62
153	16
154	22
155	6
156	4
157	1
158	0
159	0
160	0
161	5
162	24
163	24
164	79
165	38
166	218
167	28
168	80
169	11
170	11
171	2
172	3
173	2
174	1
175	1
176	6
177	4
178	7
179	11
180	4
181	4
182	0
183	0
185	0
186	0
188	0
189	0
190	2
191	0
192	2
193	0
194	0
195	0
199	0
200	0
201	0
202	0
203	0
204	0
205	1
206	0
207	1
209	0
213	0
215	0
216	0
217	0
218	2
219	2
220	299
221	40
222	113
223	21
224	18
225	21
