Mass Spectrum: Vanadium, (.eta.6-benzene)(.eta.5-2,4-cyclopentadien-1-yl)-
Formula: C11H11V
CAS: 39358-56-0
Molecular weight: 194
m/z	intensity
26	4
27	4
28	11
29	0
31	0
37	2
38	4
39	18
40	1
41	0
43	0
44	0
49	1
50	10
51	133
52	13
53	0
58	0
61	1
62	1
63	3
64	6
65	3
66	3
67	0
70	0
73	0
74	3
75	1
76	43
77	11
78	58
79	3
84	0
86	0
87	0
88	17
89	52
90	138
91	2
92	2
97	31
99	0
100	4
101	4
102	6
103	0
104	0
112	1
113	4
114	7
115	16
116	999
117	47
118	1
124	0
126	0
127	1
128	1
129	2
130	0
138	0
139	2
140	5
141	4
142	1
143	0
152	0
153	0
154	0
164	1
165	1
166	3
167	1
189	0
190	1
191	2
192	1
193	6
194	301
195	33
196	1
