Mass Spectrum: Allyldimethylsilane
Formula: C5H12Si
CAS: 3937-30-2
Molecular weight: 100
m/z	intensity
29	20
31	77
39	28
41	19
42	10
43	271
44	42
45	70
55	29
57	50
58	92
59	999
60	81
61	39
67	7
69	20
71	21
72	163
73	17
83	6
84	20
85	192
86	19
99	41
100	113
101	10
