Mass Spectrum: 4-[(4-Bromo-phenylimino)-methyl]-benzoic acid
Formula: C14H10BrNO2
CAS: 3939-36-4
Molecular weight: 303
m/z	intensity
33	34
34	5
35	1
36	8
37	46
38	118
39	231
40	93
41	12
42	4
43	16
44	87
45	195
50	650
51	363
52	75
53	24
54	3
55	10
56	2
57	6
60	6
61	41
62	138
63	297
64	84
65	139
66	14
67	2
68	0
69	6
70	6
71	5
74	225
75	697
76	999
77	350
78	42
79	17
80	26
81	14
82	24
84	19
85	16
86	22
87	35
88	48
89	383
91	12
92	10
93	18
94	5
95	3
96	1
98	23
99	13
100	11
101	28
102	129
103	80
104	57
105	107
106	10
107	4
108	0
109	2
110	2
111	7
112	24
113	7
114	9
115	16
116	8
117	8
118	3
119	10
120	44
121	21
122	20
123	3
124	2
125	12
126	18
127	20
128	19
129	34
130	82
131	15
132	4
133	1
135	1
137	0
138	2
139	10
140	9
141	4
143	64
144	56
146	0
148	20
149	16
150	42
151	99
152	136
153	55
155	490
157	485
158	27
159	0
164	0
165	0
166	5
167	4
168	2
169	0
171	1
172	0
173	0
174	0
175	2
176	11
177	44
178	77
179	101
180	55
181	36
182	212
183	45
184	194
185	14
194	1
195	1
196	2
205	2
206	9
207	1
222	4
223	14
224	27
225	7
239	8
240	8
241	11
242	0
255	0
256	3
257	20
258	11
259	19
260	7
261	1
286	2
288	2
302	513
303	628
304	446
305	555
306	80
307	7
