Mass Spectrum: (1R,3aS,4R,7R,8aR)-1,4-Dimethyl-1,2,3,3a,4,7,8,8a-octahydro-4,7-ethanoazulene
Formula: C14H22
CAS: 394217-22-2
Molecular weight: 190
m/z	intensity
29	27
39	70
40	10
42	11
50	7
53	65
54	23
55	85
65	65
66	20
67	88
68	9
77	177
78	46
79	525
80	104
81	165
82	14
93	318
94	999
95	178
96	16
107	147
108	74
109	22
121	13
122	16
134	49
135	42
147	49
148	89
149	18
161	226
162	38
175	137
176	19
189	7
190	100
191	14
