Mass Spectrum: 1-Methyl-1-n-butyl-1-silacyclobutane
Formula: C8H18Si
CAS: 3944-04-5
Molecular weight: 142
m/z	intensity
53	20
54	10
55	80
56	20
57	90
58	560
59	450
60	60
61	20
67	20
69	30
70	30
71	120
72	590
73	190
74	40
75	30
83	20
84	10
85	190
86	999
87	120
88	50
97	20
99	170
100	40
101	70
113	10
114	350
115	60
116	20
117	2
127	10
142	170
143	24
144	7
145	0
