Mass Spectrum: 1-Propanol, 2-(1-methylethoxy)-
Formula: C6H14O2
CAS: 3944-37-4
Molecular weight: 118
m/z	intensity
14	2
15	16
16	1
17	5
18	23
19	8
26	4
27	65
28	17
29	34
30	3
31	123
32	3
33	5
36	1
37	1
38	2
39	31
40	6
41	138
42	33
43	379
44	22
45	999
46	23
47	3
55	3
56	1
57	23
58	11
59	180
60	7
61	37
62	1
69	47
70	3
71	1
72	1
73	4
74	1
75	12
76	1
77	6
85	2
86	2
87	402
88	22
89	1
101	1
103	4
118	1
119	1
