Mass Spectrum: Cyclohexanone, 4-methyl-, O-methyloxime
Formula: C8H15NO
CAS: 39477-43-5
Molecular weight: 141
m/z	intensity
39	252
40	60
41	767
42	232
43	171
44	20
45	50
51	30
52	40
53	171
54	424
55	565
56	616
57	60
58	40
59	20
60	40
65	30
66	30
67	282
68	252
69	999
70	80
71	20
73	212
77	40
78	20
79	50
80	50
82	191
83	141
84	20
85	10
86	232
87	10
91	30
93	90
94	70
95	90
96	30
98	20
99	30
100	10
108	40
109	10
110	272
111	30
112	131
113	80
126	80
127	10
140	10
141	757
142	70
