Mass Spectrum: Furfuryl heptanoate
Formula: C12H18O3
CAS: 39481-28-2
Molecular weight: 210
m/z	intensity
25	1
26	10
27	177
28	32
29	87
30	2
31	1
37	2
38	8
39	68
40	13
41	127
42	38
43	264
44	10
45	6
49	1
50	9
51	26
52	110
53	139
54	10
55	58
56	10
57	28
58	2
59	1
60	5
61	0
65	1
66	1
67	3
68	8
69	43
70	12
71	3
73	3
75	1
77	1
79	3
80	97
81	999
82	191
83	45
84	6
85	28
86	2
87	6
89	1
93	1
94	4
95	17
96	5
97	38
98	312
99	18
100	2
107	2
108	1
109	6
111	25
112	4
113	68
114	5
121	0
122	0
123	6
124	1
129	9
131	1
137	13
138	2
140	0
150	4
151	1
152	0
153	1
163	1
166	0
167	12
168	2
181	5
182	0
210	72
211	10
212	1
