Mass Spectrum: 5-Hexenoic acid, 5-methyl-, ethyl ester
Formula: C9H16O2
CAS: 39495-82-4
Molecular weight: 156
m/z	intensity
27	220
28	95
29	571
30	17
31	25
32	9
38	3
39	172
40	61
41	554
42	83
43	218
44	8
45	123
46	4
47	1
50	2
51	7
52	7
53	114
54	43
55	671
56	174
57	27
58	18
59	10
60	665
61	321
62	8
63	2
65	21
66	14
67	291
68	323
69	490
70	283
71	45
72	7
73	141
74	8
77	8
78	3
79	39
80	6
81	135
82	999
83	243
84	16
85	250
86	19
87	5
88	285
89	12
91	5
92	1
93	14
94	8
95	51
96	6
97	11
98	2
99	22
100	5
101	100
102	6
103	1
105	1
107	5
108	2
109	55
110	169
111	334
112	33
113	33
114	4
121	2
123	2
127	39
128	14
129	9
135	2
137	2
138	1
141	15
156	116
157	15
158	1
