Mass Spectrum: Methyl 1-trimethylsilyl-2-methyl-cyclopropene-3-carboxylate
Formula: C9H16O2Si
CAS: 39492-10-9
Molecular weight: 184
m/z	intensity
43	99
44	30
45	141
52	183
53	38
55	58
59	195
73	588
74	59
75	39
80	999
81	66
83	46
85	46
89	233
125	156
126	15
141	20
169	38
184	50
