Mass Spectrum: 1-Acetyl-1,3-diphenylurea
Formula: C15H14N2O2
CAS: 39510-74-2
Molecular weight: 254
m/z	intensity
15	5
26	2
27	6
28	8
31	1
37	11
38	24
39	48
40	9
41	20
42	5
43	88
44	5
45	9
46	1
49	2
50	18
51	37
52	16
53	3
54	5
59	13
60	2
61	6
62	10
63	46
64	117
65	89
66	133
67	11
73	1
74	7
75	5
76	6
77	44
78	7
79	2
87	1
88	2
89	1
90	9
91	227
92	60
93	999
94	78
95	2
103	1
104	1
106	6
117	3
118	3
119	569
120	50
121	3
134	2
135	375
136	37
137	2
165	2
194	2
211	4
212	63
213	9
254	27
255	5
