Mass Spectrum: 3,5-Heptanedione, 4-bromo-2,2,6,6-tetramethyl-
Formula: C11H19BrO2
CAS: 39516-78-4
Molecular weight: 262
m/z	intensity
26	1
27	30
29	176
30	3
31	0
37	0
38	1
39	43
40	13
41	250
42	17
43	146
44	3
45	0
50	0
51	2
52	0
53	7
54	1
55	24
56	23
57	999
58	48
59	1
63	0
65	2
66	1
67	3
68	0
69	22
70	4
71	8
77	1
79	3
80	0
81	24
82	1
83	11
84	1
85	299
86	16
87	2
91	1
92	0
93	0
95	1
96	0
97	2
98	0
99	104
100	9
101	0
105	0
107	0
109	23
110	1
111	4
112	0
113	1
120	0
121	0
122	0
123	0
124	2
125	2
126	0
127	325
128	24
129	1
133	2
134	1
135	0
136	0
137	0
141	0
145	0
147	0
149	0
155	3
156	0
161	1
163	9
164	0
165	9
166	0
169	0
178	73
179	4
180	71
181	5
182	0
183	35
184	11
185	1
190	0
247	0
249	0
262	9
263	1
264	9
265	1
