Mass Spectrum: Spiro[4.5]decan-7-one, 1,8-dimethyl-4-(1-methylethyl)-
Formula: C15H26O
CAS: 39510-26-4
Molecular weight: 222
m/z	intensity
26	7
27	280
28	79
29	288
30	7
39	273
40	75
41	999
42	117
43	541
44	26
45	8
50	6
51	37
52	30
53	240
54	65
55	703
56	135
57	100
58	7
59	5
63	13
64	6
65	90
66	49
67	471
68	152
69	612
70	74
71	34
72	22
73	4
75	5
77	125
78	31
79	205
80	70
81	564
82	284
83	184
84	34
85	23
91	96
92	20
93	140
94	65
95	613
96	269
97	125
98	41
103	8
105	45
106	15
107	123
108	77
109	478
110	174
111	727
112	78
113	9
119	27
120	8
121	49
122	25
123	151
124	148
125	48
126	7
133	15
134	5
135	36
136	15
137	174
138	696
139	81
140	9
147	15
148	5
149	17
150	35
151	473
152	121
153	18
161	59
162	10
163	6
164	3
165	122
166	176
167	26
178	7
179	93
180	62
181	9
189	7
193	10
194	5
207	31
208	4
222	444
223	75
224	7
