Mass Spectrum: 5,12-Dioxapentacyclo[7.5.2.0(2.8).0(3.7).0(10.14)]hexadec-15-en-4,6,11,13-tetraone, 15-methyl-
Formula: C15H12O6
CAS: 3951-53-9
Molecular weight: 288
m/z	intensity
34	3
36	4
37	4
38	10
39	99
40	33
41	36
42	7
43	45
44	29
45	14
46	1
50	35
51	85
52	181
53	33
54	11
55	43
56	15
57	40
58	28
59	3
60	2
61	3
62	14
63	57
64	29
65	81
66	22
67	11
68	9
69	25
70	29
71	67
72	9
73	8
74	8
75	15
76	15
77	79
78	64
79	19
80	10
81	13
82	29
83	17
84	16
85	12
86	4
87	9
88	6
89	31
90	14
91	364
92	999
93	83
94	6
95	9
96	9
97	19
98	9
99	81
100	135
101	14
102	33
103	43
104	22
105	32
106	4
107	9
108	2
109	7
110	7
111	13
112	14
113	8
114	5
115	106
116	43
117	153
118	68
119	55
120	13
121	1
122	3
123	5
124	4
125	4
126	10
127	36
128	129
129	200
130	20
131	41
132	7
133	15
134	2
135	7
136	2
138	8
139	4
140	2
141	29
142	26
143	189
144	57
145	131
146	16
147	11
148	3
149	4
151	4
152	7
153	4
154	2
155	6
156	4
157	12
159	8
160	6
161	202
162	38
163	4
164	1
165	0
169	6
170	11
171	47
172	16
173	11
174	3
176	2
177	5
179	1
184	1
185	10
186	7
187	8
188	18
189	9
190	13
192	5
194	1
196	1
197	5
198	5
199	2
201	4
203	2
204	1
207	1
212	1
214	6
215	6
216	18
217	4
221	1
226	1
228	1
230	1
231	0
232	4
233	1
238	1
241	1
242	3
244	4
245	4
246	2
247	1
254	2
255	2
256	1
260	15
261	5
265	1
272	1
274	2
283	6
284	3
287	0
288	182
289	30
290	4
