Mass Spectrum: Benzamide, N-(2-furfuryl)-
Formula: C12H11NO2
CAS: 3952-30-5
Molecular weight: 201
m/z	intensity
44	1
45	89
46	5
47	1
49	2
50	77
51	175
52	72
53	138
54	11
55	20
56	6
57	12
58	105
59	7
60	1
61	1
62	4
63	8
64	5
65	9
66	12
67	15
68	38
69	86
70	8
71	3
72	1
73	2
74	13
75	19
76	382
77	107
78	28
79	57
80	143
81	21
82	1
83	2
85	1
88	1
89	3
90	4
91	6
92	3
93	2
94	39
95	37
96	90
97	16
98	7
99	3
100	48
101	7
102	2
103	11
104	2
105	999
106	3
107	20
113	1
114	8
115	5
117	6
118	2
119	1
120	1
121	19
122	58
123	17
127	10
128	14
129	12
130	6
131	2
132	9
133	2
134	5
135	1
140	1
143	2
144	8
145	6
146	6
147	1
149	2
150	1
152	1
154	8
155	5
156	20
157	12
158	8
159	1
166	1
170	4
171	6
172	99
173	16
174	1
182	15
183	11
184	4
198	1
199	9
201	493
202	138
203	25
204	1
