Mass Spectrum: Alizarine-3-methylimino-N,N-diacetic acid
Formula: C19H15NO8
CAS: 3952-78-1
Molecular weight: 385
m/z	intensity
12	9
13	4
14	22
15	73
16	30
17	4
18	18
25	1
26	3
27	23
28	176
29	42
30	175
31	65
35	4
36	14
37	2
38	12
39	18
40	30
41	74
42	999
43	122
44	715
45	69
46	5
47	2
49	3
50	22
51	16
52	7
53	8
54	3
55	9
56	9
57	17
58	30
59	14
60	164
61	6
62	10
63	29
64	7
65	7
66	4
67	3
68	3
69	13
70	17
71	6
72	5
73	5
74	34
75	24
76	34
77	30
78	5
79	4
80	2
81	3
83	3
84	8
85	4
86	20
87	18
88	505
89	35
90	8
91	9
92	7
93	5
94	3
96	1
97	3
98	8
99	8
100	42
101	27
102	53
103	6
104	11
105	22
106	4
107	1
108	1
109	4
110	4
111	6
112	7
113	18
114	8
115	54
116	4
117	4
118	2
119	3
120	5
121	5
122	3
123	4
124	1
125	10
126	23
127	21
128	8
129	7
130	3
131	1
133	36
134	4
135	3
136	1
137	9
138	13
139	57
140	24
141	23
142	9
143	7
144	1
145	8
146	3
147	5
148	2
149	5
150	11
151	19
152	31
153	9
154	7
155	11
156	3
157	17
158	3
161	2
163	1
164	2
165	2
166	2
167	5
168	38
169	11
170	7
171	3
172	2
173	2
174	2
175	2
177	2
178	1
179	4
180	18
181	9
182	6
183	11
184	14
185	7
186	24
187	3
188	1
191	1
193	2
194	2
195	4
196	87
197	42
198	13
199	3
200	1
204	1
207	5
208	9
209	5
210	2
211	6
212	13
213	4
214	1
217	3
218	3
220	2
221	1
222	2
223	5
224	39
225	26
226	31
227	6
228	2
230	8
231	2
233	1
234	1
235	3
236	3
237	3
238	3
239	12
240	61
241	14
242	2
243	1
245	2
246	5
247	2
248	1
251	3
252	64
253	34
254	302
255	53
256	9
257	1
259	1
263	2
264	2
265	1
266	2
267	1
268	4
269	2
270	33
271	6
272	2
273	5
274	51
275	10
276	17
277	6
278	2
279	1
280	2
281	3
282	3
283	1
284	1
288	1
290	6
291	1
292	1
295	8
296	2
297	5
298	3
302	1
305	1
306	2
308	2
310	1
