Mass Spectrum: l-Alanyl-l-glutamine
Formula: C8H15N3O4
CAS: 39537-23-0
Molecular weight: 217
m/z	intensity
12	2
13	1
14	7
15	19
16	38
17	40
18	114
24	2
25	8
26	83
27	176
28	285
29	27
30	18
31	3
37	5
38	17
39	43
40	56
41	184
42	134
43	77
44	999
45	38
46	2
49	1
50	9
51	24
52	53
53	62
54	53
55	110
56	144
57	38
58	8
59	179
60	6
63	2
64	8
65	9
66	11
67	11
68	24
69	28
70	52
71	21
72	48
73	82
74	5
75	1
76	3
77	4
78	4
79	4
80	8
81	9
82	29
83	93
84	467
85	149
86	12
87	2
88	2
89	1
91	3
92	5
93	6
94	5
95	9
96	9
97	46
98	40
99	40
100	17
101	30
102	5
103	1
104	1
105	1
106	1
107	2
108	4
109	32
110	17
111	51
112	46
113	114
114	13
115	3
118	3
119	3
120	2
121	2
122	3
123	6
124	5
125	10
126	81
127	30
128	58
129	9
130	3
131	9
134	1
135	1
136	3
137	8
138	33
139	48
140	97
141	67
142	6
143	3
145	9
146	3
152	2
153	5
154	103
155	17
156	23
157	4
163	1
164	2
165	4
166	2
167	7
171	5
174	6
179	2
180	3
181	31
182	756
183	88
184	10
185	1
199	51
200	13
201	2
