Mass Spectrum: Pentylidenecyclohexane
Formula: C11H20
CAS: 39546-79-7
Molecular weight: 152
m/z	intensity
26	5
27	153
28	24
29	127
30	3
38	5
39	189
40	35
41	370
42	35
43	72
50	11
51	42
52	29
53	127
54	107
55	303
56	22
57	7
62	3
63	13
64	4
65	66
66	46
67	999
68	158
69	69
70	13
71	3
75	2
76	3
77	94
78	27
79	167
80	67
81	603
82	266
83	57
84	6
85	3
89	2
90	2
91	49
92	8
93	52
94	23
95	177
96	535
97	97
98	8
103	2
104	2
105	6
106	2
107	18
108	28
109	771
110	121
111	9
121	1
122	1
123	26
124	22
125	2
137	3
149	1
150	1
151	2
152	366
153	48
154	3
155	1
