Mass Spectrum: 7-Octen-2-ol
Formula: C8H16O
CAS: 39546-75-3
Molecular weight: 128
m/z	intensity
26	15
27	170
28	17
29	47
30	4
31	87
33	0
37	2
38	7
39	166
40	27
41	361
42	106
43	139
44	33
45	999
46	24
47	2
48	0
49	0
50	6
51	11
52	6
53	46
54	300
55	221
56	258
57	56
58	37
59	27
60	1
61	0
62	0
63	2
64	0
65	7
66	8
67	182
68	232
69	199
70	14
71	88
72	8
73	1
74	10
75	0
77	5
78	1
79	11
80	10
81	163
82	171
83	25
84	14
85	15
86	3
87	2
91	2
92	0
93	7
94	1
95	128
96	11
97	1
98	0
99	2
100	0
105	0
107	0
108	0
109	4
110	11
111	2
112	0
113	5
114	0
127	1
128	0
