Mass Spectrum: Thioimidodiphosphoryl chloride fluoride (ClfP(O)NHP(S)F2), methyl-
Formula: CH3ClF3NOP2S
CAS: 39564-21-1
Molecular weight: 231
m/z	intensity
29	60
32	0
35	20
36	70
45	20
46	80
47	180
50	90
60	40
61	50
63	50
66	50
69	999
78	80
82	30
85	140
98	70
101	880
110	140
114	100
130	880
199	80
231	110
233	40
