Mass Spectrum: Thioimidodiphosphoryl chloride fluoride (Cl2P(O)NHP(S)F2), methyl-
Formula: CH3Cl2F2NOP2S
CAS: 39564-20-0
Molecular weight: 247
m/z	intensity
29	50
45	20
46	40
47	490
50	60
60	120
61	70
63	100
69	999
82	90
85	130
98	90
101	590
103	80
110	260
114	100
117	140
130	990
146	90
212	50
247	190
249	120
251	20
