Mass Spectrum: 2-Methylsulfinyl-5-(4-pyridyl)-1,3,4-thiadiazole
Formula: C8H7N3OS2
CAS: 39577-53-2
Molecular weight: 225
m/z	intensity
51	584
61	999
63	585
76	392
77	746
104	885
105	323
106	658
119	341
122	540
162	120
177	270
179	308
209	632
225	342
