Mass Spectrum: Benzoic acid, (1-(1,1'-biphenyl)-4-ylethylidene)hydrazide
Formula: C21H18N2O
CAS: 39575-19-4
Molecular weight: 314
m/z	intensity
38	4
39	23
40	16
41	6
42	24
43	9
44	6
45	1
50	33
51	120
52	15
53	4
54	0
55	2
56	1
57	2
58	0
59	0
62	4
63	17
64	4
65	9
66	1
67	0
69	1
70	1
71	1
76	38
77	420
78	39
79	2
80	0
89	9
90	5
91	14
92	3
93	0
104	17
105	999
106	87
107	6
108	0
115	27
116	4
117	1
118	5
119	5
120	1
126	8
127	11
128	8
129	0
134	94
135	25
136	2
139	9
140	5
141	26
142	3
143	0
151	28
152	60
153	24
154	8
155	0
161	18
162	2
165	26
166	9
167	41
168	9
169	3
170	0
176	8
177	9
178	44
179	26
180	32
181	18
182	3
183	0
193	7
194	10
195	4
196	0
208	3
209	49
210	10
211	2
212	0
223	0
228	0
237	2
238	0
256	5
257	1
258	0
285	1
286	0
299	54
300	11
301	1
302	0
313	6
314	55
315	13
316	1
317	0
