Mass Spectrum: Benzenemethanamine, 2-bromo-
Formula: C7H8BrN
CAS: 3959-05-5
Molecular weight: 185
m/z	intensity
26	2
27	8
28	6
29	22
30	139
31	2
36	2
37	9
38	18
39	32
40	2
41	4
43	2
49	11
50	112
51	146
52	104
54	8
61	11
62	25
63	55
64	12
65	8
66	2
67	2
73	11
74	50
75	64
76	64
77	294
78	134
79	150
80	14
81	3
82	2
85	3
86	6
87	4
88	3
89	63
90	45
91	7
92	2
93	2
102	16
103	15
104	121
105	29
106	999
107	82
108	6
110	2
117	2
119	2
128	2
129	2
130	2
131	2
155	5
156	20
157	33
158	20
159	29
160	2
169	27
170	2
171	24
172	2
182	5
184	164
185	43
186	157
187	40
188	2
