Mass Spectrum: Indole-2,3-dione, 5,7-dimethyl-
Formula: C10H9NO2
CAS: 39603-24-2
Molecular weight: 175
m/z	intensity
15	1
26	6
27	21
29	2
37	10
38	25
39	115
40	17
41	33
42	5
43	5
44	2
45	5
46	20
49	7
50	68
51	129
52	104
53	49
54	9
55	1
56	1
57	4
58	99
61	17
62	40
63	96
64	40
65	151
66	27
67	8
68	1
73	38
75	30
76	42
77	80
78	43
79	10
80	9
85	4
86	8
87	10
88	6
89	67
90	46
91	286
92	69
93	15
94	1
98	3
99	3
100	2
101	3
102	26
103	33
104	317
105	31
106	2
114	1
115	1
116	74
117	73
118	914
119	999
120	95
121	5
130	2
132	3
133	1
145	2
146	30
147	436
148	44
149	2
173	4
174	9
175	479
176	55
177	6
