Mass Spectrum: (Benzyloxycarbonyl)sarcosine
Formula: C11H13NO4
CAS: 39608-31-6
Molecular weight: 223
m/z	intensity
27	5
28	6
29	2
30	2
31	5
38	3
39	32
40	3
41	15
42	34
43	20
44	64
45	6
50	8
51	24
52	7
53	2
55	2
56	1
57	3
58	3
59	1
60	7
61	1
62	4
63	17
64	6
65	81
66	5
69	2
70	1
71	2
72	1
73	1
74	2
75	1
76	2
77	25
78	6
79	33
80	3
81	1
83	1
85	1
86	1
87	1
88	144
89	54
90	25
91	999
92	91
93	4
104	7
105	6
106	1
107	43
108	180
109	15
110	1
115	2
116	4
118	1
120	2
126	1
132	6
133	1
134	63
135	6
148	10
149	3
151	1
167	2
178	9
179	3
180	3
181	2
223	41
224	6
