Mass Spectrum: Propanamide, 2,2-dimethyl-N-(2,6-dimethylphenyl)-
Formula: C13H19NO
CAS: 39627-97-9
Molecular weight: 205
m/z	intensity
34	0
37	2
38	9
39	124
40	21
41	266
42	40
43	7
44	0
45	0
46	0
50	10
51	32
52	21
53	26
54	8
55	18
57	999
58	47
61	0
62	3
63	15
64	7
65	38
66	8
67	3
68	1
69	7
70	4
71	0
74	1
75	2
77	92
78	25
79	29
80	7
81	1
82	0
83	1
85	24
87	5
89	8
91	77
92	19
93	13
94	4
95	0
100	0
102	7
103	23
104	16
105	41
106	95
107	9
108	0
114	0
115	1
116	3
117	7
118	25
119	19
120	101
121	246
122	41
123	3
127	0
128	0
129	0
130	2
131	1
132	6
133	1
134	1
142	0
143	0
144	1
145	0
146	4
147	17
148	85
149	11
150	1
156	0
157	0
158	0
159	0
160	1
162	16
163	2
164	0
172	0
173	0
174	0
175	0
176	0
188	0
190	13
191	2
192	0
205	149
206	24
207	2
