Mass Spectrum: 2,13-Dioxabicyclo[12.2.2]octadeca-14,16,17-triene-15-carboxylic acid, 18-[[(1-phenylethyl)amino]carbonyl]-, stereoisomer
Formula: C26H33NO5
CAS: 39622-73-6
Molecular weight: 439
m/z	intensity
25	1
26	6
27	58
28	44
29	88
30	6
31	10
33	1
34	1
35	5
36	27
37	3
38	11
39	49
40	10
41	217
42	71
43	147
44	339
45	32
46	4
47	2
48	2
49	2
50	15
51	35
52	18
53	56
54	18
55	233
56	31
57	39
58	4
59	5
60	8
61	16
62	8
63	25
64	7
65	19
66	8
67	46
68	15
69	81
70	21
71	10
72	2
73	8
74	5
75	7
76	7
77	89
78	52
79	111
80	19
81	52
82	13
83	48
84	7
85	4
86	1
87	2
88	9
89	6
90	8
91	31
92	12
93	15
94	8
95	34
96	7
97	20
98	5
99	2
100	1
101	4
102	9
103	72
104	87
105	999
106	592
107	48
108	23
109	14
110	44
111	7
112	2
113	1
114	1
115	5
116	3
117	6
118	12
119	19
120	329
121	64
122	15
123	31
124	5
125	4
126	2
127	2
128	3
129	4
130	2
131	4
132	14
133	9
134	26
135	34
136	127
137	57
138	9
139	3
140	1
141	2
142	2
143	2
144	2
145	5
146	16
147	13
148	7
149	15
150	13
151	10
152	7
153	26
154	13
155	3
156	1
157	2
158	1
159	2
160	4
161	9
162	42
163	77
164	15
165	13
166	5
167	3
168	2
169	1
170	1
171	1
172	2
173	3
174	3
175	11
176	7
177	9
178	10
179	82
180	73
181	42
182	11
183	3
184	1
185	2
186	2
187	4
188	3
189	13
190	9
191	8
192	6
193	8
194	8
195	4
196	6
197	72
198	10
199	7
200	4
201	3
202	3
203	7
204	7
205	6
206	6
207	7
208	3
209	7
210	4
211	4
212	2
213	7
214	5
215	6
216	6
217	11
218	7
219	5
220	3
221	4
222	15
223	4
224	2
225	2
226	2
227	3
228	3
229	5
230	3
231	12
232	7
233	5
234	6
235	5
236	5
237	3
238	3
239	4
240	3
241	4
242	4
243	5
244	5
245	13
246	6
247	4
248	8
249	6
250	4
251	2
252	2
253	6
254	8
255	9
256	8
257	10
258	10
259	14
260	5
261	4
262	3
263	6
264	4
265	3
266	5
267	3
268	3
269	3
270	6
271	4
272	16
273	17
274	74
275	21
276	7
277	6
278	3
279	2
280	2
281	5
282	7
283	13
284	13
285	8
286	3
287	3
288	4
289	4
290	7
291	104
292	31
293	8
294	4
295	2
296	4
297	3
298	8
299	23
300	56
301	35
302	21
303	9
304	3
305	3
306	2
307	2
308	2
309	19
310	6
311	3
312	4
313	14
314	5
315	3
316	14
317	67
318	69
319	25
320	6
321	3
322	1
323	1
324	1
325	2
326	22
327	7
328	1
329	1
330	1
331	1
332	2
333	2
334	13
335	81
336	18
337	3
338	1
339	0
340	1
341	0
348	0
349	1
350	1
351	0
352	0
353	1
354	1
355	1
356	0
364	0
365	0
366	0
367	0
368	0
371	0
373	0
376	0
377	0
378	1
379	0
380	0
381	2
382	2
383	1
392	1
393	3
394	5
395	42
396	16
397	4
398	1
402	1
403	1
404	2
405	1
406	2
407	1
408	1
409	1
410	1
411	3
412	1
413	7
414	2
415	0
419	1
420	3
421	6
422	6
423	2
424	6
425	2
437	2
439	132
440	53
441	11
442	1
