Mass Spectrum: 1-o-Tolylprop-2-en-1-ol
Formula: C10H12O
CAS: 39627-62-8
Molecular weight: 148
m/z	intensity
31	31
32	12
37	25
38	52
39	251
40	22
41	72
42	15
43	182
44	8
45	8
48	2
49	9
50	82
51	186
52	47
53	36
54	3
55	369
56	24
57	63
58	54
59	11
60	11
61	21
62	48
63	142
64	78
65	265
66	27
67	4
72	16
73	19
74	31
75	30
76	21
77	357
78	93
79	75
80	7
81	2
85	6
86	12
87	10
89	72
90	25
91	999
92	204
93	395
94	29
101	4
102	29
103	62
104	130
105	219
106	83
107	15
114	4
115	260
116	63
117	61
118	9
119	603
120	73
121	135
122	16
126	6
127	40
128	81
129	233
130	786
131	129
132	18
133	359
134	41
135	7
147	66
148	95
149	12
