Mass Spectrum: N-Carbobenzyloxy-S-benzylcysteinyltyrosine
Formula: C27H28N2O6S
CAS: 39621-64-2
Molecular weight: 508
m/z	intensity
41	24
42	15
43	37
44	49
45	41
46	2
47	16
48	2
49	29
50	30
51	54
52	16
53	13
55	26
56	11
57	21
59	12
60	6
61	8
62	14
63	38
64	12
65	97
66	6
67	2
69	19
70	9
71	14
73	5
74	20
75	10
76	18
77	87
78	28
79	90
80	3
81	16
82	5
83	12
84	24
85	14
86	22
87	5
88	4
89	42
90	19
91	999
92	85
93	2
94	4
95	11
97	12
99	7
102	22
103	2
104	12
105	15
106	17
107	204
108	104
109	13
111	7
117	2
118	5
119	7
120	7
121	18
122	7
123	18
124	101
125	12
126	4
129	2
134	2
135	7
136	25
137	12
147	11
148	5
149	26
160	8
162	7
163	8
164	70
165	14
166	25
168	3
173	8
176	7
177	23
179	2
180	9
181	11
182	12
193	10
194	65
195	9
197	9
209	11
210	7
220	5
222	6
234	51
235	8
251	6
254	10
256	13
266	45
267	6
345	23
346	3
357	11
373	41
374	8
417	3
508	3
