Mass Spectrum: 2-Oxa-7-thiatricyclo[4.4.0.0(3,8)]decane
Formula: C8H12OS
CAS: 39637-14-4
Molecular weight: 156
m/z	intensity
25	5
26	58
27	549
28	52
29	282
30	8
31	48
33	12
34	12
35	15
36	5
37	24
38	73
39	632
40	128
41	726
42	82
43	176
44	38
45	545
46	39
47	161
48	11
49	17
50	80
51	169
52	78
53	405
54	132
55	428
56	37
57	117
58	156
59	212
60	471
61	82
62	48
63	67
64	26
65	382
66	219
67	707
68	415
69	264
70	48
71	177
72	51
73	144
74	39
75	21
76	18
77	339
78	173
79	999
80	327
81	855
82	95
83	335
84	188
85	366
86	129
87	222
88	233
89	37
90	18
91	139
92	31
93	152
94	180
95	375
96	159
97	565
98	58
99	312
100	530
101	61
102	44
103	24
104	32
105	98
106	14
107	22
108	10
109	63
110	111
111	77
112	280
113	159
114	42
115	26
116	5
117	6
118	4
119	6
120	5
121	18
122	69
123	136
124	15
125	14
126	5
127	56
128	105
129	16
130	9
131	4
132	4
133	5
134	4
135	6
136	4
137	18
138	95
139	17
140	6
141	5
142	2
143	2
144	2
145	2
146	2
154	2
155	13
156	758
157	114
158	66
159	8
