Mass Spectrum: 2-Amino-benzoyl fluoride
Formula: C7H6FNO
CAS: 39638-05-6
Molecular weight: 139
m/z	intensity
25	90
27	124
28	26
29	784
30	22
31	28
33	25
34	74
36	14
37	28
38	80
39	158
40	50
41	258
42	164
43	597
44	680
45	170
46	28
47	25
49	19
50	62
51	54
52	108
53	54
54	32
55	179
56	74
57	181
58	46
59	22
60	151
61	54
62	77
63	185
64	290
65	178
66	38
67	69
68	37
69	114
70	65
71	106
72	38
73	35
74	38
75	38
76	44
77	90
78	37
79	43
80	35
81	90
82	63
83	145
84	72
85	89
86	37
89	40
90	90
91	240
92	648
93	102
94	41
95	94
96	47
97	94
98	44
99	47
105	87
109	94
110	62
111	84
112	41
119	999
120	172
139	508
140	74
