Mass Spectrum: (-)-Camphanic acid chloride
Formula: C10H13ClO3
CAS: 39637-74-6
Molecular weight: 216
m/z	intensity
15	2
17	1
18	1
26	5
27	61
28	26
29	33
31	1
35	3
36	21
37	2
38	9
39	108
40	22
41	232
42	27
43	83
44	9
45	5
46	3
47	1
49	1
50	9
51	25
52	11
53	73
54	23
55	293
56	19
57	9
58	2
59	2
60	1
61	2
62	7
63	12
64	2
65	28
66	9
67	139
68	19
69	115
70	36
71	3
73	1
74	1
75	3
76	1
77	49
78	9
79	42
80	6
81	65
82	142
83	999
84	69
85	3
87	2
88	2
89	4
90	3
91	35
92	5
93	59
94	17
95	27
96	194
97	323
98	24
99	2
100	1
102	1
103	5
104	1
105	6
106	3
107	58
108	20
109	306
110	30
111	27
112	5
113	2
116	1
117	3
118	7
119	4
120	3
121	11
122	11
123	6
124	126
125	580
126	53
127	21
128	2
129	92
130	8
131	31
132	4
133	2
134	9
135	21
136	59
137	436
138	46
139	56
140	4
141	1
142	5
143	1
144	3
145	106
146	10
147	35
148	3
149	1
151	3
152	81
153	30
154	12
155	7
157	3
160	40
161	11
162	14
163	4
164	11
165	2
169	3
170	59
171	5
172	1
173	4
175	1
180	5
181	28
182	12
183	2
188	516
189	51
190	166
191	16
192	1
198	2
199	3
216	24
217	5
218	9
219	2
