Mass Spectrum: trans-3-Methyl-4-octanolide
Formula: C9H16O2
CAS: 39638-67-0
Molecular weight: 156
m/z	intensity
25	1
26	35
27	478
28	38
29	391
31	31
32	35
35	2
37	10
38	23
39	302
40	39
41	892
42	776
43	622
44	116
45	35
46	3
47	2
49	3
50	11
51	12
52	3
53	57
54	18
55	197
56	233
57	185
58	27
59	3
60	8
61	5
65	9
66	9
67	42
68	26
69	400
70	196
71	405
72	28
74	8
75	6
77	9
78	2
79	11
80	5
81	26
82	5
83	14
84	20
85	76
86	18
87	228
88	13
89	2
91	7
92	5
93	11
95	15
96	49
97	6
98	7
99	999
100	45
101	5
102	5
104	5
110	10
111	5
112	2
113	3
114	43
115	2
119	8
121	3
123	4
127	4
128	16
129	4
131	4
133	6
138	11
139	4
156	8
157	4
