Mass Spectrum: 1,3,4-Oxadiazol-2(3H)-one, 5-ethoxy-3-ethyl-
Formula: C6H10N2O3
CAS: 39636-01-6
Molecular weight: 158
m/z	intensity
15	185
27	670
29	886
30	231
31	22
32	15
40	30
41	56
42	181
43	87
44	121
45	227
46	53
55	25
56	106
57	303
58	481
59	20
70	27
71	204
73	30
85	68
102	196
113	35
115	250
130	999
131	60
158	409
159	32
