Mass Spectrum: 1,2,4-Triazolidine-3,5-dione, 1,4-diethyl-2-methyl-
Formula: C7H13N3O2
CAS: 39636-08-3
Molecular weight: 171
m/z	intensity
15	867
17	446
26	60
27	462
29	834
30	165
31	57
32	322
40	66
41	115
42	363
43	999
44	363
45	115
55	49
56	297
57	173
58	330
71	74
72	206
73	90
85	950
114	49
115	826
116	44
121	77
128	66
142	99
143	595
144	49
156	520
157	67
171	983
172	87
