Mass Spectrum: 1,3,4-Oxadiazol-2(3H)-one, 3-ethyl-5-methoxy-
Formula: C5H8N2O3
CAS: 39636-00-5
Molecular weight: 144
m/z	intensity
15	765
17	36
18	154
26	63
27	252
28	270
29	756
40	22
42	90
43	180
44	40
45	67
57	76
58	76
59	999
60	67
85	135
116	104
129	85
144	423
145	27
