Mass Spectrum: 3-Isopropyl-5-(phenoxymethyl)-2-oxazolidinone
Formula: C13H17NO3
CAS: 39631-50-0
Molecular weight: 235
m/z	intensity
37	18
38	101
39	835
40	28
41	999
42	439
43	975
44	82
45	12
50	87
51	265
52	33
53	24
54	152
55	287
56	974
57	53
58	38
60	4
61	3
62	24
63	94
64	50
65	522
66	120
67	14
68	140
69	74
70	104
71	18
72	3
73	0
74	16
75	12
77	550
78	64
79	104
80	10
81	3
82	81
83	18
84	6
85	102
86	220
87	4
88	3
91	26
92	15
93	82
94	156
95	15
96	7
97	2
98	53
99	11
100	37
103	3
104	0
105	47
106	4
107	142
108	17
110	8
119	6
120	0
121	6
126	1
127	3
128	6
131	1
133	97
134	23
135	6
136	0
141	8
142	15
220	38
221	2
235	34
236	3
