Mass Spectrum: Octanedioic acid, 4-methoxy-, dimethyl ester, (R)-
Formula: C11H20O5
CAS: 39637-88-2
Molecular weight: 232
m/z	intensity
26	11
27	70
28	11
29	108
30	13
31	33
33	7
35	5
36	45
38	16
39	61
40	18
41	243
42	64
43	160
44	100
45	98
47	10
50	15
51	10
52	6
53	43
54	39
55	233
56	38
57	63
58	91
59	184
60	29
61	11
65	12
66	11
67	102
68	40
69	55
70	18
71	999
72	120
73	29
74	93
75	77
76	9
77	19
78	5
79	40
80	22
81	150
82	38
83	39
84	45
85	307
86	29
87	29
88	15
91	17
92	5
93	7
94	18
95	41
96	31
97	104
98	37
99	384
100	31
101	29
102	24
103	8
104	5
105	7
107	14
108	19
109	141
110	34
111	48
112	12
113	361
114	54
115	20
116	4
117	8
118	4
119	11
120	4
121	7
122	17
123	12
124	13
125	37
126	19
127	74
128	19
129	49
130	10
131	661
132	94
133	18
135	9
136	39
137	330
138	67
139	21
140	19
141	42
142	12
143	9
144	17
145	485
146	77
147	13
149	23
150	17
151	5
153	42
154	10
155	10
156	8
157	21
158	10
159	270
160	46
161	8
163	8
165	10
166	6
167	11
168	9
169	169
170	50
171	23
172	10
173	5
185	58
186	7
199	4
200	11
201	130
202	29
203	7
216	1
217	19
218	2
231	4
232	2
