Mass Spectrum: 2,2-Diphenylethylamine
Formula: C14H15N
CAS: 3963-62-0
Molecular weight: 197
m/z	intensity
28	15
30	999
31	14
39	17
51	15
63	19
65	17
75	1
76	9
77	21
89	19
91	25
115	20
128	11
139	15
151	10
152	85
153	18
163	13
164	21
165	208
166	65
167	167
168	46
178	9
197	8
