Mass Spectrum: 1-tert-Butyl-3-methyl-2-thiourea
Formula: C6H14N2S
CAS: 3964-50-9
Molecular weight: 146
m/z	intensity
14	2
15	28
26	6
27	58
28	92
29	201
30	209
31	39
32	57
33	3
34	6
35	4
36	1
37	3
38	9
39	100
40	21
41	368
42	123
43	75
44	15
45	25
46	7
47	16
48	1
49	5
50	5
51	7
52	5
53	10
54	5
55	65
56	75
57	999
58	302
59	28
60	42
61	18
62	23
63	2
64	2
65	23
66	3
67	2
68	3
69	3
70	8
71	11
72	53
73	65
74	137
75	9
76	7
77	1
81	1
83	3
84	4
85	1
86	2
87	2
88	2
89	22
90	108
91	63
92	8
93	3
97	31
98	2
99	2
100	40
101	3
102	2
103	1
104	8
112	3
113	9
114	2
115	134
116	9
117	6
129	2
130	7
145	172
146	485
147	47
148	22
149	1
