Mass Spectrum: Cyclopropane, (2,2-dimethylpropylidene)-
Formula: C8H14
CAS: 39647-71-7
Molecular weight: 110
m/z	intensity
27	300
28	144
29	241
30	5
31	0
34	0
36	0
37	8
38	23
39	358
40	69
41	576
42	240
43	66
44	2
45	8
48	0
49	3
50	38
51	78
52	32
53	185
54	115
55	844
56	170
57	170
58	7
59	0
61	1
62	5
63	14
64	3
65	51
66	20
67	589
68	280
69	73
70	382
71	20
72	0
73	0
74	3
75	1
76	1
77	76
78	14
79	70
80	28
81	316
82	116
83	8
84	1
85	0
86	0
87	0
89	1
90	0
91	32
92	3
93	61
94	7
95	999
96	72
97	17
98	0
103	0
105	0
107	0
109	16
110	38
111	3
112	7
113	0
