Mass Spectrum: Acetamide, 2-chloro-N-[1-[(1-cyano-2-methylpropyl)hydroxyamino]-2-methylpropyl]-
Formula: C11H20ClN3O2
CAS: 39651-28-0
Molecular weight: 261
m/z	intensity
26	25
27	226
28	258
29	164
30	81
31	17
35	10
36	16
37	11
38	21
39	180
40	42
41	360
42	134
43	258
44	450
45	22
46	16
47	11
48	15
49	127
50	14
51	49
52	22
53	62
54	111
55	731
56	254
57	58
58	32
59	16
60	12
61	23
64	11
66	32
67	28
68	88
69	33
70	154
71	31
72	999
73	66
76	17
77	129
78	13
79	44
80	24
81	26
82	308
83	57
84	21
85	14
86	60
87	14
88	34
93	117
94	64
95	38
96	26
97	18
98	111
99	13
104	11
106	32
107	16
108	28
109	131
110	28
111	31
112	36
113	10
114	16
124	21
125	273
126	32
132	10
142	22
147	10
148	960
149	86
150	312
152	13
153	16
167	11
168	21
169	33
218	22
220	10
261	1
