Mass Spectrum: tert-Butyl hydroperoxide, TMS derivative
Formula: C7H18O2Si
CAS: 3965-63-7
Molecular weight: 162
m/z	intensity
41	168
43	179
45	97
47	38
56	380
57	999
59	206
61	170
73	126
89	181
91	88
117	9
132	48
147	9
162	129
