Mass Spectrum: Benzoic acid, 2-hydroxy-4-methoxy-, 2-(diethylamino)ethyl ester
Formula: C14H21NO4
CAS: 39682-69-4
Molecular weight: 267
m/z	intensity
33	2
34	1
39	18
40	20
41	26
42	70
43	21
44	61
45	13
46	0
49	0
50	5
51	17
52	19
53	15
54	9
55	12
56	54
57	16
58	80
60	1
61	0
62	3
63	11
64	5
65	11
66	3
67	3
68	3
69	12
70	20
71	36
72	18
73	2
74	2
75	0
76	0
77	3
78	2
79	14
80	9
81	2
82	1
83	1
84	23
86	999
87	49
88	3
89	0
90	0
91	3
92	3
93	3
94	3
95	14
96	2
97	1
98	1
99	126
100	23
102	54
103	3
104	0
105	0
106	0
107	12
108	18
109	1
110	0
111	0
112	0
113	0
114	0
115	0
116	22
117	2
119	1
120	1
121	1
122	12
123	2
124	0
125	0
126	1
127	0
128	0
129	0
130	0
131	0
132	0
133	0
134	0
135	0
136	0
137	0
138	0
139	0
143	0
144	0
146	0
147	0
149	0
150	9
151	52
152	5
153	0
157	0
163	0
164	0
165	1
166	0
167	1
168	0
169	0
171	0
178	0
179	0
180	0
181	0
192	0
193	0
194	0
195	4
196	0
222	0
236	0
238	0
252	0
265	0
267	11
268	1
269	0
