Mass Spectrum: Methyl isocyanoacetate
Formula: C4H5NO2
CAS: 39687-95-1
Molecular weight: 99
m/z	intensity
12	5
13	8
14	23
15	332
16	4
26	9
27	43
28	165
29	82
30	26
31	54
32	21
33	1
34	1
38	31
39	55
40	419
41	45
42	77
43	8
44	11
45	11
50	1
51	2
52	5
53	2
54	434
55	17
56	5
58	15
59	999
60	28
61	5
67	21
68	325
69	20
70	5
72	11
73	5
74	1
96	31
97	15
98	1
99	14
100	7
101	3
