Mass Spectrum: 1,6-Anhydro-3,4-dideoxy-.beta.-D-manno-hexapyranose
Formula: C6H10O3
CAS: 39682-49-0
Molecular weight: 130
m/z	intensity
38	15
39	152
40	48
41	999
42	70
43	380
44	483
45	55
47	20
50	12
51	19
52	10
53	38
54	40
55	254
56	150
57	228
58	75
59	56
65	14
66	22
67	22
69	77
70	15
71	25
72	16
73	12
77	11
78	5
81	29
82	21
83	145
84	350
85	25
86	9
87	111
88	7
95	14
97	11
98	10
99	14
109	8
111	7
115	6
130	9
131	4
132	2
