Mass Spectrum: 1,6-Anhydro-3,4-dideoxy-.beta.-D-gluco-hexopyranose
Formula: C6H10O3
CAS: 39682-48-9
Molecular weight: 130
m/z	intensity
38	13
39	151
40	50
41	999
42	65
43	383
44	514
45	59
47	28
50	10
51	15
52	8
53	37
54	39
55	234
56	142
57	226
58	54
59	46
60	6
65	11
66	21
67	14
69	74
70	12
71	19
72	16
73	15
81	24
82	20
83	128
84	337
85	25
86	9
87	125
88	6
95	5
99	8
113	4
130	5
