Mass Spectrum: 6H-Furo[2',3':4,5]oxazolo[3,2-a]pyrimidin-6-one, 3-(acetyloxy)-2-[(acetyloxy)methyl]-2,3,3a,9a-tetrahydro-7-methyl-, [2R-(2.alpha.,3.beta.,3a.beta.,9a.beta.)]-
Formula: C14H16N2O7
CAS: 39687-10-0
Molecular weight: 324
m/z	intensity
51	21
52	15
53	47
54	63
55	150
56	68
57	176
58	15
59	18
60	255
61	34
65	15
66	18
67	60
68	73
69	178
70	105
71	86
72	18
73	78
74	21
75	26
76	18
77	31
78	15
79	31
80	250
81	310
82	152
83	126
84	57
85	100
86	47
87	34
91	18
92	15
93	34
94	34
95	73
96	78
97	689
98	999
99	26
100	26
101	31
102	18
103	31
104	18
105	23
106	21
107	34
108	31
109	92
110	163
111	78
112	34
113	315
114	136
115	136
116	26
117	31
118	5
119	26
120	18
121	36
122	57
123	65
124	31
125	157
126	315
127	136
128	42
129	44
130	15
131	18
132	23
133	23
134	21
135	34
136	26
137	36
138	31
139	113
140	121
141	31
142	21
143	21
145	21
147	18
148	18
149	110
150	105
151	310
152	47
153	26
154	18
155	21
156	13
157	84
158	21
159	18
160	7
161	15
162	18
163	52
164	18
165	31
166	18
167	31
168	57
169	26
170	15
171	15
173	15
175	21
176	31
177	21
178	15
179	71
180	47
181	60
182	15
183	18
185	18
186	47
187	18
189	15
191	205
192	47
193	152
194	26
195	21
203	15
204	105
209	21
210	21
211	15
217	21
218	18
219	18
221	18
222	18
223	31
236	21
237	15
263	18
265	31
281	47
282	47
324	773
325	139
326	31
