Mass Spectrum: 5-Cyclopentylidene-2,2-dimethyl-1,3-dioxane-4,6-dione
Formula: C11H14O4
CAS: 3968-30-7
Molecular weight: 210
m/z	intensity
25	17
26	78
27	186
28	89
29	75
31	22
36	9
37	44
38	75
39	235
40	38
41	136
42	110
43	999
44	620
45	29
46	8
49	11
50	75
51	125
52	144
53	101
54	20
55	47
56	12
57	37
58	344
59	47
60	10
61	9
62	11
63	23
64	7
65	44
66	113
67	103
68	29
69	24
70	8
71	25
73	10
74	12
75	17
76	9
77	188
78	70
79	391
80	143
81	36
82	12
83	15
84	9
85	17
87	10
88	13
91	10
93	10
95	22
96	27
97	14
98	9
99	10
101	10
103	9
104	8
105	22
106	50
107	241
108	302
109	54
110	10
111	13
113	8
115	8
117	11
118	8
119	8
122	7
123	27
124	267
125	34
126	15
127	15
128	8
129	8
133	8
134	89
135	36
139	15
141	8
151	44
152	439
153	116
154	30
155	10
195	45
196	8
