Mass Spectrum: 8-Nonenoic acid, 9-(1,3-nonadienyloxy)-, methyl ester
Formula: C19H32O3
CAS: 39692-46-1
Molecular weight: 308
m/z	intensity
26	8
27	122
28	21
29	217
31	10
32	81
39	163
40	39
41	585
42	50
43	428
44	12
45	20
51	15
52	12
53	231
54	68
55	612
56	65
57	408
58	15
59	136
65	47
66	61
67	999
68	77
69	387
70	72
71	272
72	12
73	19
74	40
75	9
77	59
78	24
79	238
80	190
81	662
82	71
83	421
84	43
85	182
86	9
87	36
91	68
92	21
93	193
94	57
95	444
96	149
97	70
98	27
99	34
101	10
105	45
106	16
107	67
108	21
109	213
110	33
111	40
112	19
113	21
115	9
117	15
119	74
120	16
121	43
122	64
123	278
124	29
125	20
126	12
127	16
129	8
131	16
133	24
134	9
135	31
136	25
137	205
138	35
139	28
140	33
141	15
143	8
145	10
147	19
148	9
149	26
150	10
151	129
152	19
153	9
154	12
155	12
157	8
159	16
161	22
162	10
163	16
164	9
165	145
166	19
167	9
168	8
169	15
173	13
175	13
177	17
178	9
179	47
180	10
183	9
187	9
189	8
191	19
192	8
193	12
197	9
201	8
205	10
211	8
219	16
220	7
223	12
225	8
233	9
237	21
238	6
247	9
251	204
252	25
253	8
277	34
278	9
279	11
308	700
309	163
310	16
