Mass Spectrum: 2,5-Cyclohexadiene-1,4-dione, 2-[(1,4,4a,5,6,7,8,8a-octahydro-2,5,5,8a-tetramethyl-1-naphthalenyl)methyl]-, [1R-(1.alpha.,4a.beta.,8a.alpha.)]-
Formula: C21H28O2
CAS: 39707-59-0
Molecular weight: 312
m/z	intensity
39	140
41	609
43	180
53	120
55	499
65	110
67	180
69	210
77	150
79	170
81	170
83	100
91	260
93	130
95	170
105	200
107	150
109	380
119	999
120	200
121	130
124	250
125	390
133	200
147	100
161	90
173	90
189	370
190	80
312	10
313	10
314	10
315	10
