Mass Spectrum: Benzyl chloromethyl sulfide
Formula: C8H9ClS
CAS: 3970-13-6
Molecular weight: 172
m/z	intensity
27	3
36	2
38	8
39	43
40	2
41	8
45	40
46	12
47	1
49	6
50	10
51	22
52	5
61	3
62	11
63	34
64	9
65	98
66	5
69	4
74	3
75	2
77	21
78	6
79	4
86	0
89	39
90	15
91	999
92	87
93	4
121	12
123	1
124	2
126	3
137	29
138	8
172	126
173	11
174	45
175	3
