Mass Spectrum: Carbamothioic acid, dimethyl-, S-(3-methyl-2-butenyl) ester
Formula: C8H15NOS
CAS: 39707-44-3
Molecular weight: 173
m/z	intensity
26	5
27	80
28	18
29	26
30	7
31	1
33	1
34	0
35	0
37	3
38	11
39	135
40	28
41	402
42	150
43	55
44	72
45	46
46	7
47	15
48	0
49	1
50	11
51	24
52	10
53	75
54	13
55	18
56	34
57	6
58	21
59	46
60	7
61	21
62	3
63	5
64	0
65	14
66	5
67	71
68	22
69	446
70	25
71	5
72	999
73	44
74	8
75	0
76	34
77	2
78	1
79	0
81	0
82	0
83	1
84	2
85	18
86	2
87	1
88	19
89	1
90	3
91	1
92	0
93	0
95	1
96	0
97	2
98	7
99	14
100	2
101	39
102	3
103	1
104	3
105	352
106	61
107	17
108	2
140	45
141	4
142	1
144	1
173	240
174	25
175	11
176	1
