Mass Spectrum: 8,9-Dehydrothymol methyl ether
Formula: C11H14O
CAS: 39701-08-1
Molecular weight: 162
m/z	intensity
27	8
37	2
38	6
39	49
41	35
43	17
50	18
51	58
52	19
53	33
55	11
57	7
58	6
61	3
62	13
63	58
64	16
65	74
66	14
67	11
69	7
72	18
74	14
75	15
76	17
77	144
78	59
79	47
80	6
86	6
87	6
88	4
89	35
90	6
91	300
93	28
101	9
102	39
103	100
104	61
105	57
106	6
107	13
113	4
114	6
115	253
116	55
117	237
118	27
119	999
120	105
121	14
122	4
126	6
127	33
128	60
129	83
130	12
131	141
132	81
133	9
143	2
144	6
145	58
146	30
147	904
148	96
159	2
160	2
162	521
163	66
