Mass Spectrum: Cyclopropaneoctanoic acid, 2-octyl-, methyl ester, cis-
Formula: C20H38O2
CAS: 3971-54-8
Molecular weight: 310
m/z	intensity
14	1
15	44
17	1
18	3
26	3
27	98
28	36
29	249
30	7
31	9
32	2
33	1
38	1
39	107
40	22
41	761
42	142
43	604
44	22
45	33
46	1
50	2
51	7
52	6
53	94
54	273
55	999
56	340
57	408
58	22
59	173
60	21
61	9
62	1
63	1
64	1
65	24
66	29
67	481
68	343
69	886
70	314
71	197
72	18
73	72
74	764
75	136
76	9
77	30
78	13
79	115
80	84
81	499
82	380
83	738
84	543
85	149
86	12
87	529
88	61
89	7
90	1
91	37
92	13
93	79
94	108
95	422
96	663
97	666
98	485
99	79
100	16
101	117
102	16
103	4
104	3
105	24
106	11
107	64
108	80
109	253
110	374
111	376
112	179
113	60
114	71
115	119
116	26
117	8
118	7
119	49
120	23
121	95
122	50
123	227
124	198
125	213
126	68
127	68
128	93
129	107
130	43
131	10
132	5
133	47
134	52
135	115
136	51
137	172
138	255
139	249
140	59
141	138
142	42
143	151
144	26
145	8
146	7
147	41
148	46
149	64
150	50
151	131
152	199
153	186
154	52
155	51
156	17
157	72
158	20
159	8
160	3
161	34
162	17
163	37
164	37
165	105
166	118
167	73
168	42
169	40
170	16
171	93
172	19
173	10
174	3
175	23
176	9
177	21
178	36
179	64
180	120
181	54
182	21
183	54
184	13
185	91
186	21
187	15
188	3
189	13
190	6
191	14
192	39
193	46
194	183
195	54
196	20
197	38
198	13
199	46
200	21
201	12
202	2
203	8
204	3
205	12
206	14
207	38
208	59
209	24
210	16
211	18
212	11
213	37
214	19
215	6
216	1
217	5
218	3
219	8
220	18
221	42
222	67
223	30
224	65
225	20
226	7
227	28
228	20
229	6
230	1
231	5
232	6
233	5
234	84
235	60
236	215
237	69
238	13
239	14
240	5
241	14
242	11
243	3
245	3
246	8
247	5
248	5
249	38
250	76
251	33
252	9
253	11
254	5
255	17
256	15
257	6
258	2
259	4
260	55
261	26
262	7
263	9
264	107
265	45
266	9
267	27
268	8
269	6
270	22
271	6
273	3
276	4
277	11
278	902
279	344
280	56
281	14
282	15
283	4
284	20
285	5
286	1
287	1
288	1
289	1
290	7
291	16
292	19
293	9
294	8
295	4
305	1
306	7
307	4
308	16
309	5
310	163
311	37
312	5
313	1
