Mass Spectrum: 2-Butanone, 4-(2,6,6-trimethyl-2-cyclohexen-1-yl)-, (R)-
Formula: C13H22O
CAS: 39721-65-8
Molecular weight: 194
m/z	intensity
26	10
27	150
29	190
30	10
38	10
39	160
40	40
41	590
42	50
43	999
45	20
50	10
51	30
52	20
53	120
54	30
55	310
56	60
57	60
58	30
59	10
60	10
63	10
65	40
66	30
67	150
68	60
69	280
70	30
71	120
72	10
73	10
77	70
78	10
79	90
80	80
81	220
82	140
83	80
84	90
85	30
86	10
91	50
92	20
93	120
94	60
95	490
96	50
97	50
98	30
99	10
105	30
106	10
107	60
108	30
109	470
110	60
111	370
112	100
113	20
119	20
120	10
121	100
122	20
123	140
124	100
125	60
126	10
134	10
135	10
136	180
137	60
138	40
139	30
147	10
149	10
150	10
151	160
152	20
160	10
161	40
162	10
163	10
176	50
177	10
179	50
180	10
194	80
195	10
