Mass Spectrum: 1,6-Anhydro-2,3-dideoxy-.beta.-D-erythro-hexopyranose
Formula: C6H10O3
CAS: 39726-36-8
Molecular weight: 130
m/z	intensity
38	25
39	219
40	38
41	328
42	196
43	431
44	254
45	130
47	300
50	15
51	30
53	65
54	40
55	338
56	900
57	762
58	150
59	50
60	12
61	29
65	19
66	25
67	38
68	12
69	134
70	38
71	78
72	12
73	162
74	25
81	50
82	20
83	112
84	147
85	12
86	70
87	999
88	50
101	37
102	132
103	9
130	38
131	6
