Mass Spectrum: Ethanol, 2-(2-propynyloxy)-
Formula: C5H8O2
CAS: 3973-18-0
Molecular weight: 100
m/z	intensity
12	11
13	18
14	42
15	95
16	5
17	5
18	10
19	27
24	6
25	25
26	66
27	155
28	48
29	280
30	29
31	473
32	12
33	2
36	6
37	55
38	115
39	999
40	148
41	291
42	45
43	94
44	231
45	95
46	5
49	1
50	6
51	9
52	10
53	96
54	24
55	47
56	51
57	166
58	8
59	1
60	1
61	38
62	1
66	2
67	2
68	2
69	468
70	25
71	18
72	12
73	2
79	1
81	13
82	29
83	10
97	1
99	5
100	2
