Mass Spectrum: Piperidine, 3-phenyl-
Formula: C11H15N
CAS: 3973-62-4
Molecular weight: 161
m/z	intensity
39	71
40	13
41	43
42	82
43	85
44	999
45	26
46	0
47	0
50	30
51	71
52	23
53	18
54	12
55	20
56	130
57	214
58	9
59	1
60	1
61	1
62	8
63	31
64	9
65	44
66	7
67	5
68	12
69	7
70	38
71	3
73	2
74	9
75	10
76	16
77	83
78	86
79	12
80	7
81	5
82	9
83	34
84	14
85	1
86	1
87	2
89	19
90	7
91	94
92	8
93	1
94	0
95	0
96	0
97	0
98	1
99	0
100	0
101	3
102	22
103	74
104	149
105	19
106	2
107	0
109	0
111	0
112	0
113	0
115	44
116	16
117	33
118	12
119	4
120	2
121	0
126	1
127	6
128	13
129	12
130	14
131	12
132	16
133	3
134	0
141	0
142	1
143	2
144	1
145	0
146	1
149	1
160	60
161	129
162	16
163	0
