Mass Spectrum: Spiro[4.4]nona-1,6-diene, (S)-
Formula: C9H12
CAS: 39746-39-9
Molecular weight: 120
m/z	intensity
27	66
28	2
29	22
39	148
40	55
41	160
42	20
43	12
44	55
50	12
51	68
52	57
53	80
54	12
55	101
56	35
57	12
58	12
59	12
63	20
64	12
65	138
66	123
67	45
69	12
75	10
76	10
77	311
78	311
79	404
80	57
83	12
84	35
89	22
90	33
91	779
92	614
93	101
94	12
102	12
103	78
104	43
105	999
106	101
115	57
116	20
117	80
118	33
119	175
120	989
121	101
