Mass Spectrum: N-[Dimethylaminomethyl]aziridine
Formula: C5H12N2
CAS: 3974-91-2
Molecular weight: 100
m/z	intensity
41	26
42	241
43	56
44	257
45	132
46	7
47	3
48	0
49	1
51	0
52	1
54	9
55	13
56	85
57	44
58	999
59	49
60	2
61	4
63	0
68	2
69	5
70	35
71	82
72	161
73	19
74	5
77	0
81	0
82	2
83	11
84	16
85	47
86	38
87	7
88	16
89	2
98	1
99	16
100	68
101	6
102	2
