Mass Spectrum: Ethane, 1,1,2,2-tetraethoxy-
Formula: C10H22O4
CAS: 3975-14-2
Molecular weight: 206
m/z	intensity
43	40
44	40
45	70
47	690
49	20
58	12
59	380
60	70
61	30
75	620
87	30
88	30
103	999
104	60
105	40
116	20
133	50
161	20
