Mass Spectrum: Tricosan-2-ol
Formula: C23H48O
CAS: 39754-77-3
Molecular weight: 340
m/z	intensity
41	205
42	74
43	453
45	999
46	18
47	19
49	80
51	21
53	14
54	35
55	287
56	125
57	357
58	57
59	132
67	66
68	60
69	204
70	96
71	193
72	13
79	11
81	53
82	98
83	203
84	99
85	120
86	29
95	40
96	80
97	211
98	45
99	33
109	19
110	34
111	120
112	31
113	21
123	11
124	22
125	68
126	22
127	14
137	3
138	19
139	38
140	19
141	11
152	14
153	24
154	15
155	7
166	7
167	16
168	14
169	3
180	6
181	13
182	7
194	7
195	11
196	3
208	3
209	3
210	7
222	3
223	3
224	10
265	3
280	8
294	27
296	3
308	7
322	167
323	44
325	23
340	14
341	6
