Mass Spectrum: Pregn-9(11)-en-3-one, 18,20-dihydroxy-, cyclic 1,2-ethanediyl acetal, (5.alpha.,20R)-
Formula: C23H36O4
CAS: 39766-63-7
Molecular weight: 376
m/z	intensity
26	15
29	14
30	3
31	41
36	3
39	15
40	10
41	74
42	82
43	75
44	73
45	66
46	5
47	2
49	14
50	1
51	7
52	2
53	27
54	8
55	132
56	22
57	48
58	14
59	9
60	15
61	4
62	7
63	2
64	2
65	17
66	6
67	66
68	12
69	39
70	8
71	44
72	13
73	49
74	7
75	3
76	52
77	16
78	89
79	19
80	85
81	18
82	34
83	18
85	21
86	49
87	42
88	3
89	4
90	2
91	116
92	26
93	62
94	18
95	70
96	13
97	21
98	11
99	999
100	79
101	51
102	6
103	17
104	12
105	104
106	33
107	60
108	19
109	42
110	9
111	22
112	81
113	21
114	6
115	44
116	20
117	67
118	22
119	59
120	24
121	49
122	16
123	49
124	13
125	292
126	29
127	31
128	38
129	80
130	35
131	84
132	26
133	106
134	29
135	35
136	19
137	15
138	7
139	6
140	5
141	57
142	30
143	82
144	28
145	95
146	33
147	143
148	26
149	24
150	7
151	24
152	9
153	23
154	35
155	66
156	25
157	88
158	32
159	112
160	51
161	64
162	13
163	17
164	9
165	21
166	23
167	75
168	63
169	51
170	24
171	59
172	47
173	86
174	17
175	6
176	10
177	10
178	19
179	11
181	37
182	13
183	43
184	17
185	37
186	25
187	45
189	11
190	11
191	17
192	32
193	7
194	23
195	7
196	25
197	11
198	36
199	14
200	18
201	17
202	6
203	13
204	11
205	28
206	15
207	42
208	14
209	37
210	12
211	37
212	15
213	45
214	16
215	20
216	7
217	10
218	4
219	11
220	6
221	10
222	9
223	28
224	8
225	50
226	28
227	23
228	7
229	13
230	6
231	9
232	8
233	6
234	5
235	12
236	8
237	26
238	13
239	150
240	37
241	35
242	10
243	13
244	18
245	11
246	6
247	17
248	8
249	10
250	5
251	32
252	27
253	31
254	11
255	12
256	9
257	19
258	8
259	21
260	16
261	18
262	8
263	28
264	8
265	70
266	24
267	21
268	8
269	14
270	17
271	22
272	18
273	13
274	11
275	8
276	37
277	11
278	11
279	8
280	3
281	34
282	8
283	31
284	11
285	18
286	7
287	20
288	8
289	5
290	8
291	3
295	7
296	11
297	13
298	4
299	25
300	14
301	196
302	53
303	11
304	4
309	1
310	2
311	5
312	6
313	74
314	57
316	8
317	3
323	2
325	27
326	9
327	91
328	50
329	22
330	10
331	9
332	3
340	39
341	11
342	2
343	55
344	16
345	165
346	44
347	10
348	3
355	3
356	3
358	123
359	37
360	10
361	6
375	2
376	17
377	2
