Mass Spectrum: (S,E)-4-Hydroxy-3,5,5-trimethyl-4-(3-oxobut-1-en-1-yl)cyclohex-2-enone
Formula: C13H18O3
CAS: 39763-33-2
Molecular weight: 222
m/z	intensity
26	2
27	22
29	18
38	4
39	71
40	25
41	101
42	16
43	427
44	13
45	6
48	2
50	6
51	20
52	11
53	41
54	14
55	90
56	21
57	20
61	2
62	5
63	10
64	4
65	38
66	16
67	53
68	20
69	77
70	13
71	14
77	50
78	14
79	28
81	17
82	13
83	6
85	10
91	37
92	3
93	14
94	13
95	67
96	38
97	18
98	20
102	2
103	4
104	4
105	7
106	7
107	16
108	7
109	28
110	10
111	8
112	3
119	9
120	37
121	26
122	10
123	76
124	999
125	82
126	9
128	2
131	3
133	5
136	6
137	15
138	11
146	1
147	10
148	12
149	44
150	7
151	23
152	3
164	12
165	9
166	98
167	27
168	4
169	2
175	3
176	3
179	6
180	13
181	3
189	4
222	3
