Mass Spectrum: Cis-1-methyl-3-n-nonylcyclohexane
Formula: C16H32
CAS: 39762-39-5
Molecular weight: 224
m/z	intensity
41	300
42	60
43	120
55	630
56	990
57	880
58	40
67	70
69	150
81	120
83	70
96	360
97	999
98	90
224	70
225	12
226	1
