Mass Spectrum: 1-Octyne, 3-(methoxymethoxy)-
Formula: C10H18O2
CAS: 39764-94-8
Molecular weight: 170
m/z	intensity
26	714
27	79
28	6
29	78
30	4
31	14
33	27
37	0
38	9
39	87
40	19
41	145
42	34
43	82
44	7
45	999
46	37
47	7
50	10
51	24
52	45
53	41
54	39
55	97
56	99
57	17
58	3
59	7
60	3
61	14
62	2
63	6
64	1
65	25
66	14
67	107
68	26
69	68
70	17
71	19
72	3
73	5
74	2
75	3
76	0
77	22
78	6
79	42
80	9
81	44
82	15
83	30
84	155
85	19
86	2
87	8
88	0
89	1
91	15
92	2
93	21
94	5
95	12
96	3
97	11
98	3
99	566
100	32
101	21
102	1
103	0
104	0
105	3
106	0
107	5
108	2
109	31
110	4
111	5
112	1
113	4
114	5
115	70
116	9
117	0
120	0
121	0
123	5
124	0
125	19
126	1
127	0
128	0
129	0
137	2
138	0
139	2
140	0
141	3
142	1
150	0
155	1
169	1
