Mass Spectrum: Piperidin-4-ol, 1,2,5-trimethyl-4-(2,5-dimethylphenyl)-
Formula: C16H25NO
CAS: 39764-36-8
Molecular weight: 247
m/z	intensity
34	12
36	29
39	29
40	42
41	258
42	550
43	307
44	367
45	29
53	28
55	109
56	284
57	317
58	209
59	12
65	68
68	12
70	999
71	172
72	27
77	155
78	51
79	85
82	25
84	115
89	12
91	78
96	15
98	65
99	24
103	99
104	22
105	389
106	76
107	22
115	64
117	27
124	537
125	29
127	27
128	56
129	17
131	11
133	183
141	22
142	34
143	31
158	29
212	11
214	209
215	24
230	106
232	273
233	31
247	92
248	13
249	2
