Mass Spectrum: Cyclohexene, 4,4,5-trifluoro-
Formula: C6H7F3
CAS: 39763-15-0
Molecular weight: 136
m/z	intensity
50	36
51	70
53	43
54	470
57	54
59	90
64	69
72	999
73	48
77	105
90	420
95	66
96	39
97	46
115	7
116	70
136	360
