Mass Spectrum: 2,2-Dimethyl-cyclohexan-1,3-dione dioxime
Formula: C8H14N2O2
CAS: 39760-81-1
Molecular weight: 170
m/z	intensity
41	999
55	643
80	218
81	298
122	159
123	546
126	19
136	88
137	69
138	79
152	89
153	199
154	49
170	99
