Mass Spectrum: 3,17-Dihydroxypregnan-20-one o-methyloxime (3.beta., 5.alpha.)-, 2TMS derivative
Formula: C28H53NO3Si2
CAS: 39780-68-2
Molecular weight: 507
m/z	intensity
41	210
42	140
43	210
44	130
45	110
46	15
47	45
51	15
52	10
53	40
54	25
55	270
56	40
57	65
58	35
59	110
60	25
61	65
65	25
66	20
67	220
68	100
69	110
70	75
71	40
72	70
73	999
74	210
75	935
76	80
77	100
78	30
79	220
80	50
81	300
82	55
83	70
84	70
85	40
86	25
87	25
88	15
89	130
90	20
91	220
92	45
93	260
94	80
95	200
96	55
97	50
98	25
99	35
100	40
101	70
102	10
103	55
104	20
105	210
106	60
107	280
108	80
109	110
110	30
111	30
112	15
113	60
114	130
115	110
116	50
117	90
118	40
119	150
120	50
121	130
122	60
123	50
124	20
125	20
126	20
127	35
128	35
129	140
130	55
131	120
132	60
133	165
134	60
135	110
136	40
137	20
138	20
139	10
140	15
141	35
142	90
143	80
144	75
145	140
146	55
147	195
148	50
149	50
150	20
151	15
152	15
153	15
154	40
155	65
156	540
157	120
158	405
159	150
160	55
161	100
162	30
163	25
164	15
165	20
166	10
167	20
168	40
169	90
170	295
171	95
172	265
173	100
174	40
175	100
176	30
177	25
178	20
179	15
180	10
181	30
182	50
183	50
184	80
185	50
186	50
187	170
188	570
189	100
190	40
191	20
192	10
193	20
194	10
195	25
196	25
197	30
198	50
199	40
200	135
201	55
202	25
203	20
207	100
208	50
209	35
210	15
211	30
212	10
213	30
214	25
215	40
216	20
217	20
218	10
221	40
222	30
224	25
225	20
226	10
227	20
228	10
229	35
230	10
235	10
237	10
239	30
240	10
241	35
253	20
254	15
255	190
256	50
257	10
268	15
269	15
279	25
280	10
281	80
282	30
283	20
294	20
295	30
296	175
297	50
298	10
305	10
312	30
313	10
319	10
326	20
327	10
328	15
329	15
331	10
341	10
345	20
346	10
347	30
348	20
355	51
356	30
357	11
358	45
359	15
362	20
363	10
364	195
365	60
366	20
369	30
370	15
384	20
385	10
386	225
387	90
388	40
389	10
402	40
403	15
416	10
417	40
418	20
419	40
420	30
421	15
429	40
430	15
431	15
434	30
435	25
436	15
474	70
475	70
476	999
477	410
478	160
479	40
480	10
492	90
493	40
494	20
503	20
505	30
506	20
507	290
508	130
509	55
510	15
