Mass Spectrum: 3-Methylcyclohexanol, (Z)-, TMS derivative
Formula: C10H22OSi
CAS: 39789-15-6
Molecular weight: 186
m/z	intensity
73	432
74	52
75	999
76	78
77	44
79	22
81	82
95	123
96	223
127	3
129	171
130	22
143	320
144	63
145	14
171	253
172	26
173	7
186	78
