Mass Spectrum: 5-Dodecanol, TMS derivative
Formula: C15H34OSi
CAS: 39789-29-2
Molecular weight: 258
m/z	intensity
23	1
25	2
26	10
27	48
28	118
29	90
30	2
31	4
32	2
34	1
35	1
36	1
37	2
38	2
39	29
40	0
41	145
42	27
43	91
44	20
45	85
46	6
47	45
48	4
49	3
50	3
51	3
52	3
53	14
54	15
55	166
56	42
57	60
58	14
59	58
60	10
61	63
62	6
63	2
64	2
65	3
66	1
67	22
68	12
69	382
70	45
71	13
72	17
73	999
74	108
75	635
76	46
77	27
78	1
79	4
80	2
81	11
82	8
83	33
84	13
85	21
86	4
87	6
88	3
89	10
90	1
91	25
92	2
93	2
94	1
95	5
96	0
97	15
98	5
99	13
100	2
101	29
102	2
103	285
104	26
105	14
107	1
108	1
109	3
110	2
111	31
112	4
113	5
115	18
116	9
117	6
119	0
124	0
125	2
126	1
127	3
128	0
129	28
130	6
131	3
133	2
135	1
139	2
141	1
142	1
143	13
144	3
145	3
147	1
149	3
150	1
155	1
157	3
158	2
159	770
160	113
161	30
162	2
163	1
166	0
167	1
168	4
169	0
171	2
173	3
177	1
178	0
183	0
185	3
187	2
188	1
189	0
197	1
199	2
200	1
201	374
202	64
203	17
204	2
205	0
207	1
209	1
213	0
221	1
223	0
227	0
243	36
244	7
245	2
