Mass Spectrum: 3-Methylcyclohexanol, (E)-, TMS derivative
Formula: C10H22OSi
CAS: 39789-16-7
Molecular weight: 186
m/z	intensity
73	411
74	61
75	999
76	80
77	42
79	7
81	50
95	80
96	200
101	23
129	130
130	26
143	307
144	65
145	7
171	319
172	23
173	11
186	69
