Mass Spectrum: Androstan-17-one, 3,11-bis[(trimethylsilyl)oxy]-, O-methyloxime, (3.beta.,5.alpha.,11.beta.)-
Formula: C26H49NO3Si2
CAS: 39780-65-9
Molecular weight: 479
m/z	intensity
41	110
42	30
43	50
44	40
45	80
47	40
53	40
54	20
55	160
56	30
57	35
58	20
59	80
60	15
61	80
65	20
66	20
67	220
68	30
69	70
70	50
71	30
72	35
73	999
74	180
75	999
76	80
77	110
78	20
79	220
80	50
81	250
82	60
83	40
84	45
85	20
87	75
89	70
91	250
92	60
93	260
94	120
95	150
96	50
97	20
99	20
100	25
101	85
103	75
104	30
105	300
106	110
107	320
108	110
109	120
110	40
113	40
115	35
116	35
117	120
118	65
119	190
120	90
121	90
122	50
123	25
124	40
125	470
126	140
127	70
128	40
129	160
130	50
131	120
132	60
133	180
134	100
135	70
136	20
138	80
139	40
140	20
141	40
142	60
143	210
144	80
145	140
146	90
147	250
148	90
149	110
150	30
151	30
152	40
153	20
155	60
156	45
157	80
158	120
159	150
160	170
161	60
162	60
163	20
164	20
166	25
167	25
168	80
169	130
170	45
171	45
172	70
173	70
174	70
175	20
176	20
179	20
181	50
182	380
183	170
184	70
185	60
186	45
187	25
188	20
191	20
192	20
193	20
194	30
195	55
196	65
197	40
198	290
199	80
200	40
207	35
208	30
209	65
210	75
211	120
212	70
213	740
214	160
215	170
216	30
217	30
219	20
221	25
225	20
226	45
227	35
228	20
240	100
241	30
242	30
251	40
252	45
253	70
254	35
258	35
267	25
268	580
269	130
270	20
284	80
285	20
298	20
299	25
300	35
301	30
332	25
339	40
340	15
341	15
342	60
344	40
357	20
358	480
359	180
360	45
362	20
363	20
374	170
375	45
376	20
389	35
390	20
391	17
419	10
420	10
421	10
432	35
433	30
434	25
448	999
449	470
450	180
451	40
464	40
465	15
478	10
479	70
480	30
481	10
