Mass Spectrum: 4-Nonanol, TMS derivative
Formula: C12H28OSi
CAS: 39789-12-3
Molecular weight: 216
m/z	intensity
69	8
71	8
72	25
73	999
74	87
75	554
99	4
101	50
103	208
104	16
145	787
146	95
147	37
173	483
174	75
201	70
