Mass Spectrum: 3-Dodecanol, TMS derivative
Formula: C15H34OSi
CAS: 39789-26-9
Molecular weight: 258
m/z	intensity
25	1
26	8
27	46
28	56
29	87
31	4
36	1
37	1
38	0
39	31
40	2
41	146
42	33
43	106
44	14
45	86
46	6
47	47
48	3
49	2
50	1
51	1
52	2
53	10
54	10
55	143
56	42
57	75
58	9
59	47
60	10
61	67
62	4
63	2
64	0
65	1
66	1
67	17
68	8
69	132
70	33
71	27
72	21
73	999
74	87
75	625
76	45
77	26
78	1
79	3
80	1
81	11
82	5
83	184
84	19
85	12
86	1
87	3
88	1
89	8
90	0
91	22
92	1
93	1
95	5
96	3
97	81
98	8
99	7
100	1
101	24
102	2
103	121
104	10
105	4
106	0
107	0
109	1
110	0
111	5
112	1
113	2
114	0
115	16
116	4
117	5
118	0
119	0
123	0
125	1
126	0
127	1
128	1
129	25
130	9
131	924
132	106
133	33
134	1
137	0
139	0
140	0
141	0
142	0
143	3
144	2
145	1
147	0
152	1
155	0
156	0
157	3
159	0
167	0
168	3
169	0
171	1
176	0
185	1
186	0
191	0
192	0
194	1
197	0
207	2
209	0
213	0
215	0
221	0
227	0
228	0
229	146
230	26
231	7
232	0
241	0
242	0
243	28
244	4
245	1
257	1
