Mass Spectrum: 4-Dodecanol, TMS derivative
Formula: C15H34OSi
CAS: 39789-28-1
Molecular weight: 258
m/z	intensity
25	7
26	2
27	47
28	96
29	49
30	7
31	0
37	5
38	5
39	25
41	146
42	37
43	79
44	26
45	75
46	11
47	32
48	4
49	3
50	2
51	3
53	10
54	14
55	128
56	31
57	83
58	11
59	53
60	10
61	63
62	4
63	10
64	5
65	1
66	0
67	12
68	5
69	274
70	17
71	19
72	18
73	999
74	100
75	645
76	41
77	29
78	1
79	3
80	0
81	7
82	10
83	127
84	19
85	13
86	1
87	6
88	1
89	6
90	3
91	31
92	1
93	5
95	3
96	5
97	23
98	9
99	7
101	21
102	5
103	247
104	18
105	0
107	0
108	4
109	4
110	4
111	9
112	1
113	8
114	3
115	9
116	3
121	2
125	3
127	5
129	19
130	10
131	3
132	3
133	3
141	2
143	9
144	8
145	897
146	115
147	26
148	6
149	3
152	2
154	2
157	4
165	3
168	4
169	0
171	3
176	4
177	2
185	3
187	0
193	3
200	3
201	0
208	8
215	226
216	42
217	12
243	34
244	4
249	1
