Mass Spectrum: 3-Nonanol, TMS derivative
Formula: C12H28OSi
CAS: 39789-09-8
Molecular weight: 216
m/z	intensity
70	29
72	16
73	999
74	87
75	574
76	58
97	91
99	8
101	29
103	116
104	4
129	25
131	874
132	166
133	29
187	358
188	83
201	70
