Mass Spectrum: 2,3-2H-4-Methyl-imidazole-2-one
Formula: C4H6N2O
CAS: 39799-77-4
Molecular weight: 98
m/z	intensity
41	136
42	825
43	169
44	21
45	6
46	1
47	1
52	20
53	17
54	25
55	28
56	105
57	8
58	9
59	1
60	1
66	1
67	6
68	30
69	254
70	50
71	2
74	3
75	2
78	1
79	4
81	17
82	1
83	23
84	2
97	144
98	999
99	118
100	6
