Mass Spectrum: 1,3,4-Oxadiazol-2(3H)-one, 3-(2,4-dichloro-5-hydroxyphenyl)-5-(1,1-dimethylethyl)-
Formula: C12H12Cl2N2O3
CAS: 39807-19-7
Molecular weight: 302
m/z	intensity
12	5
13	1
14	21
15	175
16	22
17	78
18	276
19	1
25	2
26	38
27	279
28	222
29	688
30	20
31	3
32	8
34	1
35	11
36	42
37	27
38	48
39	333
40	80
41	999
42	159
43	59
44	25
45	13
46	1
47	13
48	3
49	18
50	66
51	47
52	74
53	149
54	41
55	85
56	69
57	714
58	37
59	4
60	29
61	46
62	97
63	84
64	19
65	22
66	17
67	31
68	75
69	46
70	14
71	9
72	28
73	86
74	19
75	74
76	224
77	34
78	12
79	5
80	5
81	4
82	11
83	18
84	45
85	67
86	24
87	35
88	24
89	16
90	8
91	9
92	1
93	5
94	1
95	3
96	8
97	89
98	15
99	29
100	9
101	5
102	5
103	4
104	28
105	3
106	3
107	19
108	7
109	17
110	55
111	92
112	384
113	74
114	128
115	27
116	10
117	3
119	7
120	23
121	12
122	30
123	10
124	6
125	14
126	6
127	8
128	3
129	4
130	2
131	2
133	47
134	8
135	30
136	4
137	9
138	3
139	20
140	150
141	22
142	49
143	6
144	4
145	15
146	18
147	127
148	48
149	102
150	27
151	29
152	5
153	6
155	1
156	7
157	1
158	3
159	5
160	3
161	19
162	7
163	10
164	3
165	4
166	1
167	2
173	3
175	821
176	67
177	502
178	36
179	88
180	11
181	3
182	2
183	1
184	6
185	2
186	2
187	1
189	1
190	3
191	1
192	2
201	10
202	74
203	26
204	46
205	13
206	7
207	2
208	1
215	1
243	3
245	1
258	82
260	59
261	6
262	7
302	90
304	70
305	8
306	8
