Mass Spectrum: 2(1H)-Pyrimidinone, 4-amino-1-[4-(phenylmethoxy)-3-[(phenylmethoxy)methyl]butyl]-
Formula: C23H27N3O3
CAS: 39809-23-9
Molecular weight: 393
m/z	intensity
28	50
41	50
51	50
65	110
81	130
91	999
92	110
111	60
112	70
138	50
139	50
166	110
196	190
302	80
