Mass Spectrum: 4-Oxazolecarboxylic acid, 2-phenyl-, ethyl ester
Formula: C12H11NO3
CAS: 39819-39-1
Molecular weight: 217
m/z	intensity
26	17
27	89
28	34
29	138
38	17
39	100
49	38
50	98
51	8
61	12
62	51
63	149
64	25
75	21
76	42
77	247
78	25
86	57
87	17
88	47
89	226
90	68
105	999
106	106
107	8
114	29
115	36
116	145
117	27
143	36
144	49
161	17
172	106
173	15
189	282
190	47
217	260
218	55
