Mass Spectrum: Benzenepentanoic acid, .gamma.-bromo-.delta.-oxo-
Formula: C11H11BrO3
CAS: 39826-14-7
Molecular weight: 270
m/z	intensity
41	50
42	60
43	50
44	30
45	220
50	100
51	260
52	20
55	50
56	20
57	30
63	20
74	30
75	20
76	20
77	450
78	30
79	400
80	890
81	410
82	860
83	30
85	130
105	999
106	80
115	20
117	10
120	10
122	10
131	20
145	10
146	20
173	70
