Mass Spectrum: Benzene, 1-(chloromethyl)-3-ethenyl-
Formula: C9H9Cl
CAS: 39833-65-3
Molecular weight: 152
m/z	intensity
39	122
50	49
51	78
58	44
63	87
65	60
89	51
91	141
102	23
115	277
116	72
117	999
118	105
152	347
154	112
