Mass Spectrum: N,N'-Bis[pentamethyleneformamidinium] dithiocarboxylate
Formula: C12H20N2S2
CAS: 3984-35-8
Molecular weight: 256
m/z	intensity
41	718
42	472
45	77
47	18
49	33
51	23
53	67
54	143
55	713
57	26
59	22
60	9
61	4
62	1
63	3
64	3
65	14
66	13
67	52
68	75
69	274
70	14
72	95
73	4
74	2
76	46
77	36
79	11
80	16
81	36
82	93
83	27
84	999
88	12
89	2
90	18
91	3
92	2
93	4
94	16
95	22
96	249
97	100
98	32
100	7
101	5
102	1
103	4
104	3
105	1
106	7
107	3
108	8
109	33
110	73
111	133
112	12
113	14
114	1
115	2
116	1
117	22
118	1
119	2
121	5
123	84
124	167
125	41
126	25
128	37
129	2
130	1
131	6
133	1
134	1
135	5
137	123
138	46
140	57
141	4
142	14
143	6
144	5
145	4
149	2
150	3
151	160
152	55
153	12
154	2
155	2
156	1
157	1
163	3
165	39
166	5
167	5
169	3
170	1
172	14
174	6
179	21
180	125
181	15
187	8
191	13
192	1
193	2
195	5
199	7
201	3
223	28
224	8
225	2
256	268
257	46
258	19
259	2
