Mass Spectrum: Tricyclo[4.4.1.1(3,8)]dodeca-4,9-diene
Formula: C12H16
CAS: 39840-95-4
Molecular weight: 160
m/z	intensity
26	4
27	141
28	2
29	32
38	12
39	288
40	37
41	343
42	22
43	10
44	10
50	28
51	121
52	67
53	123
54	39
55	40
56	5
57	10
58	7
61	3
62	9
63	47
64	28
65	186
66	117
67	395
68	39
69	39
70	5
71	14
72	3
74	5
75	13
76	11
77	468
78	290
79	763
80	488
81	188
82	294
83	21
86	3
87	4
88	3
89	18
90	7
91	999
92	595
93	320
94	189
95	36
96	3
102	17
103	68
104	228
105	303
106	231
107	23
109	3
112	3
114	3
115	90
116	36
117	406
118	182
119	212
120	22
127	16
128	39
129	32
130	18
131	280
132	118
133	14
144	6
145	96
146	9
159	12
160	460
161	52
162	4
