Mass Spectrum: 1,3-Dithiane, 2-octyl-
Formula: C12H24S2
CAS: 39854-46-1
Molecular weight: 232
m/z	intensity
27	50
28	12
29	73
31	6
39	38
40	3
41	151
42	11
43	48
45	69
46	20
47	30
53	12
54	7
55	64
56	5
57	13
58	10
59	28
60	35
61	22
64	2
65	5
67	27
68	7
69	40
70	2
71	13
72	3
73	57
74	52
75	31
76	1
77	8
78	0
79	14
81	24
82	18
83	20
85	16
86	3
87	51
88	3
89	2
91	16
93	5
95	11
96	5
97	6
99	4
100	4
101	30
102	1
103	6
105	22
106	60
107	33
108	14
109	9
113	1
115	9
119	999
120	60
121	93
122	3
123	11
124	12
125	5
129	3
133	24
134	21
135	3
136	1
147	7
149	0
157	199
158	35
159	11
171	1
177	1
185	15
186	0
189	1
199	4
218	2
231	2
232	456
233	68
234	43
235	4
