Mass Spectrum: 2-Methylseleno-3-benzo[b]thiophenecarboxaldehyde
Formula: C10H8OSSe
CAS: 39857-07-3
Molecular weight: 256
m/z	intensity
39	270
45	180
50	130
51	200
62	220
63	400
69	400
75	290
77	200
82	180
87	180
88	150
89	999
90	90
93	360
94	60
95	70
101	220
106	120
108	70
117	210
119	140
121	440
132	670
133	400
134	130
145	80
147	360
160	90
161	820
162	100
163	70
165	150
166	160
167	290
168	180
169	490
170	60
171	80
175	170
209	140
210	150
211	330
212	150
213	600
214	90
215	140
237	110
238	120
239	250
240	80
241	490
242	70
243	110
252	90
253	100
254	240
255	50
256	480
257	60
258	110
