Mass Spectrum: 3-Methylseleno-2-benzo[b]thiophenecarboxaldehyde
Formula: C10H8OSSe
CAS: 39857-04-0
Molecular weight: 256
m/z	intensity
39	190
45	110
50	100
51	140
62	170
63	350
69	340
74	120
75	250
77	130
81	70
82	160
87	150
88	150
89	999
90	90
98	320
101	170
102	80
103	70
105	60
106	110
120	50
121	320
132	540
133	300
134	110
145	90
147	450
148	60
160	90
161	460
162	60
165	110
166	120
167	230
168	110
169	410
170	60
171	80
175	260
209	120
210	130
211	280
212	120
213	570
214	80
215	130
237	80
238	80
239	210
240	50
241	380
242	50
243	80
252	60
253	70
254	170
255	30
256	340
257	40
258	70
