Mass Spectrum: Phosphine, dicyclopentyl-
Formula: C10H19P
CAS: 39864-68-1
Molecular weight: 170
m/z	intensity
26	4
27	69
28	9
29	38
35	71
37	1
38	4
39	117
40	166
41	515
42	33
43	12
44	2
45	48
46	3
47	11
48	4
49	3
51	6
52	2
53	40
54	8
55	36
56	3
57	59
58	11
59	25
60	8
61	122
62	9
63	2
65	36
66	25
67	213
68	279
69	999
70	49
71	49
72	18
73	178
74	46
75	11
76	3
77	4
79	7
80	1
81	8
82	3
83	14
84	2
85	45
86	3
87	18
88	2
91	3
93	2
94	1
95	6
96	2
97	14
99	33
100	50
101	122
102	304
103	769
104	44
105	2
109	2
113	4
114	5
115	2
116	1
118	2
127	5
128	5
129	759
130	58
131	2
136	3
137	5
139	2
141	21
142	8
145	2
147	2
155	14
156	1
163	2
169	33
170	335
171	40
172	2
