Mass Spectrum: 2,5-Methano-2H-thiopyrano[3,2-b]furan-8-one, hexahydro-
Formula: C8H10O2S
CAS: 39869-44-8
Molecular weight: 170
m/z	intensity
26	103
27	816
28	147
29	469
37	50
38	119
39	773
40	114
41	533
42	113
43	85
44	37
45	690
46	53
47	209
49	25
50	87
51	155
52	66
53	381
54	233
55	797
56	48
57	73
58	298
59	330
60	323
61	67
62	39
63	44
65	185
66	173
67	399
68	103
69	183
70	141
71	214
72	61
73	125
74	35
77	219
78	57
79	973
80	372
81	719
82	105
83	82
84	77
85	586
86	308
87	78
88	29
91	95
94	42
95	74
96	34
97	379
98	999
99	271
100	86
108	215
109	138
111	55
113	683
114	184
115	48
123	52
124	318
125	35
142	696
143	66
144	38
170	642
171	65
172	34
