Mass Spectrum: Bicyclo[2.2.2]octa-2,5-diene-2-carbonitrile
Formula: C9H9N
CAS: 39863-23-5
Molecular weight: 131
m/z	intensity
38	36
39	160
40	11
41	85
42	4
43	8
44	4
45	1
47	4
48	1
49	11
50	112
51	131
52	66
53	19
54	2
55	1
56	1
57	1
58	0
59	1
60	0
61	7
62	15
63	45
64	26
65	17
66	2
69	0
71	0
73	2
74	16
75	40
76	205
77	89
78	29
79	17
80	3
81	0
84	13
86	9
87	3
88	5
89	13
90	4
91	9
92	1
98	0
99	2
100	2
101	4
102	14
103	999
104	103
105	5
115	0
116	25
117	2
128	2
129	1
130	28
131	28
132	2
