Mass Spectrum: Benzoic acid, (3-isopropyl-6-methyl-4-oxo-2,5-cyclohexadienylidene)amino ester
Formula: C17H17NO3
CAS: 39870-46-7
Molecular weight: 283
m/z	intensity
33	0
34	0
36	0
37	1
38	5
39	37
40	10
41	23
42	4
43	10
44	2
45	2
50	19
51	59
52	15
53	16
54	3
55	7
56	1
57	6
58	1
59	0
63	6
64	3
65	14
66	10
67	17
68	4
69	4
70	1
76	12
77	249
78	22
79	12
80	5
90	1
91	16
92	4
93	7
94	13
95	3
96	0
103	6
104	11
105	999
106	89
107	10
108	2
109	0
119	4
120	11
121	5
122	32
123	3
124	0
127	1
128	2
129	2
130	4
131	1
132	3
133	4
134	4
135	4
136	3
137	0
144	3
145	1
146	4
147	3
148	36
149	4
150	4
151	1
152	0
162	3
163	21
164	2
165	2
166	0
171	2
172	0
173	0
177	0
178	1
179	1
283	27
284	5
285	0
