Mass Spectrum: N-Benzyliminodiacetic acid
Formula: C11H13NO4
CAS: 3987-53-9
Molecular weight: 223
m/z	intensity
14	3
15	7
16	1
17	10
18	3
26	3
27	11
28	53
29	4
30	4
31	5
37	1
38	5
39	30
40	8
41	28
42	146
43	9
44	64
45	5
50	10
51	24
52	7
53	2
55	1
56	1
57	1
58	6
59	3
60	8
61	1
62	6
63	22
64	7
65	89
66	6
67	2
69	2
74	3
75	3
76	6
77	18
78	9
79	4
85	1
86	6
87	2
88	38
89	27
90	15
91	999
92	110
93	5
101	1
102	4
103	13
104	10
105	9
106	7
107	3
108	1
115	2
116	4
117	9
118	27
119	14
120	12
121	6
128	2
129	6
130	5
131	5
132	39
133	36
134	13
135	3
143	1
145	1
146	2
148	1
149	1
159	1
164	60
165	6
176	3
177	4
178	339
179	40
180	4
204	1
205	17
206	2
223	15
224	2
