Mass Spectrum: 4-Acetylpyrimidine
Formula: C6H6N2O
CAS: 39870-05-8
Molecular weight: 122
m/z	intensity
25	11
26	69
27	29
28	136
29	5
32	4
36	3
37	20
38	23
39	24
40	16
41	8
42	60
43	999
44	28
45	6
49	3
50	12
51	72
52	431
53	424
54	16
57	3
64	3
65	2
66	7
67	11
68	6
76	3
77	5
78	4
79	204
80	725
81	74
82	2
87	2
93	3
94	156
95	13
105	2
107	15
108	1
122	599
123	38
124	3
