Mass Spectrum: Methanamine, 1-methoxy-N-methyl-N-nitroso-
Formula: C3H8N2O2
CAS: 39885-14-8
Molecular weight: 104
m/z	intensity
29	130
30	110
31	8
33	7
40	20
41	31
42	295
43	521
44	18
45	999
46	18
47	1
55	3
62	8
67	7
73	126
75	10
104	95
105	3
