Mass Spectrum: N-Nitroso-2-isopropyl-4,4-dimethyloxazolidine
Formula: C8H16N2O2
CAS: 39884-58-7
Molecular weight: 172
m/z	intensity
40	64
41	520
42	421
43	573
44	39
45	24
46	76
47	25
48	4
49	1
50	6
51	8
52	9
53	31
54	41
55	371
56	999
57	217
58	64
59	32
60	2
63	1
64	3
65	6
66	25
67	8
68	21
69	244
70	176
71	481
72	106
73	293
74	69
75	8
77	1
78	1
79	1
80	4
81	11
82	44
83	31
84	210
85	91
86	16
87	3
88	11
89	4
93	1
94	2
95	9
96	17
97	16
98	53
99	49
100	255
101	127
102	40
103	3
104	5
109	1
110	2
111	11
112	69
113	27
114	3
115	1
125	1
126	34
127	31
128	26
129	345
130	141
131	10
140	1
141	2
142	20
143	8
144	1
145	2
155	7
156	2
171	4
172	100
173	9
174	0
