Mass Spectrum: 1-(Morpholinocarbonylmethyl)piperazine
Formula: C10H19N3O2
CAS: 39890-46-5
Molecular weight: 213
m/z	intensity
15	29
26	3
27	18
28	77
29	35
30	32
31	2
39	1
40	2
41	22
42	94
43	26
44	57
45	4
49	1
54	12
55	16
56	227
57	38
58	26
59	1
68	9
69	10
70	158
71	16
72	12
81	1
82	4
83	9
84	30
85	45
86	15
87	5
88	5
95	1
96	1
97	34
98	13
99	999
100	144
101	7
111	1
112	1
113	9
114	9
115	1
125	3
126	4
127	11
128	5
129	7
141	1
144	6
145	251
146	18
147	1
153	1
154	1
155	3
156	1
157	64
158	6
169	10
170	49
171	462
172	44
173	4
183	47
184	61
185	8
196	44
197	5
211	1
212	4
213	110
214	39
215	4
