Mass Spectrum: 3-Benzofurancarboxylic acid, 2,3-dihydro-, methyl ester
Formula: C10H10O3
CAS: 39891-56-0
Molecular weight: 178
m/z	intensity
26	3
27	17
28	8
29	12
30	2
31	3
36	1
37	5
38	18
39	85
40	8
41	22
42	2
43	13
44	9
45	18
46	1
49	1
50	16
51	35
52	8
53	7
54	1
55	8
56	2
57	4
58	1
59	18
60	3
61	5
62	19
63	61
64	18
65	123
66	8
67	2
68	1
69	3
70	2
71	2
73	1
74	4
75	7
76	3
77	10
78	3
79	4
80	1
81	2
82	1
83	2
84	1
85	2
86	3
87	4
88	2
89	53
90	29
91	660
92	55
93	3
94	1
95	2
96	0
97	1
98	1
99	0
101	4
102	1
103	2
104	1
105	3
106	1
107	1
108	0
109	1
110	0
111	1
112	0
113	0
115	1
117	2
118	39
119	999
120	88
121	7
122	0
123	0
128	0
129	1
131	0
132	0
133	2
134	0
135	1
141	1
142	0
143	1
144	1
145	9
146	13
147	3
148	0
149	2
176	4
177	1
178	316
179	37
180	5
181	0
