Mass Spectrum: Benzenesulfonic acid, 4-(acetylamino)-, hydrazide
Formula: C8H11N3O3S
CAS: 3989-50-2
Molecular weight: 229
m/z	intensity
31	380
43	999
63	150
64	130
65	520
91	110
92	380
93	340
108	520
134	310
135	670
136	60
140	720
150	20
151	20
157	570
182	20
198	240
199	720
200	100
229	210
