Mass Spectrum: 2-Butenedioic acid (Z)-, monoethyl ester
Formula: C6H8O4
CAS: 3990-03-2
Molecular weight: 144
m/z	intensity
12	4
13	9
14	12
15	30
16	2
17	3
18	10
24	7
25	32
26	313
27	223
28	40
29	248
30	19
31	280
32	3
36	2
37	3
39	2
40	2
41	10
42	13
43	48
44	19
45	173
46	52
47	11
52	4
53	43
54	285
55	71
56	10
57	2
58	2
59	2
60	1
68	1
69	2
70	1
71	38
72	21
73	7
74	1
81	9
82	61
83	5
86	1
88	3
89	1
97	1
98	53
99	999
100	113
101	10
114	1
117	6
125	13
126	167
127	300
128	90
129	8
141	1
143	37
144	3
145	9
