Mass Spectrum: Carvone oxide, trans-
Formula: C10H14O2
CAS: 39903-97-4
Molecular weight: 166
m/z	intensity
41	310
43	999
44	27
45	14
50	26
51	58
52	33
53	199
54	60
55	229
56	20
57	13
58	23
59	3
62	6
63	12
64	3
65	45
67	340
68	147
69	78
70	44
71	76
72	4
74	2
77	45
79	115
80	82
81	169
82	87
83	22
84	3
85	17
90	3
91	30
92	4
93	24
94	24
95	126
96	51
97	60
98	6
105	19
106	8
107	37
108	257
109	332
110	27
111	5
119	2
121	7
122	25
123	31
124	10
125	2
133	4
135	8
136	2
138	3
148	3
