Mass Spectrum: 1-.beta.-d-Ribofuranosyl-1,2,4-triazole-3-carboxylic acid
Formula: C8H11N3O6
CAS: 39925-19-4
Molecular weight: 245
m/z	intensity
42	773
43	269
44	999
45	144
46	8
47	38
50	9
51	23
52	7
53	39
54	31
55	162
56	69
57	453
58	102
59	14
60	179
61	60
63	2
65	9
67	17
68	92
69	938
70	548
71	136
72	24
73	445
74	60
75	14
77	27
78	40
79	15
81	10
82	30
83	37
84	66
85	95
86	96
87	13
88	2
89	9
91	26
92	2
94	13
95	24
96	70
97	37
98	181
99	14
101	21
102	13
103	19
104	13
105	14
106	25
107	27
108	6
110	12
111	14
112	232
113	21
114	121
115	21
124	71
125	8
128	13
132	26
133	26
134	3
138	45
140	9
142	18
143	11
152	14
154	15
156	72
157	3
161	7
170	8
171	100
172	8
175	17
215	7
245	4
