Mass Spectrum: Benzoic acid, 4-(tetrahydro-5,5,7,7-tetramethyl-2-oxopyrrolo[1,2-b][1,2,4]oxadiazol-1(2H)-yl)-, ethyl ester
Formula: C18H24N2O4
CAS: 39931-32-3
Molecular weight: 332
m/z	intensity
58	190
63	160
65	140
69	350
83	999
84	130
85	120
90	350
98	999
110	110
118	200
121	120
126	260
141	200
146	729
147	120
163	230
176	170
191	190
273	110
288	50
332	40
