Mass Spectrum: 2,4(1H,3H)-Pyridinedione, 1-.beta.-D-ribofuranosyl-
Formula: C10H13NO6
CAS: 39935-49-4
Molecular weight: 243
m/z	intensity
41	239
42	452
43	619
44	257
45	214
46	19
47	56
48	1
49	25
50	26
51	40
52	48
53	98
54	150
55	414
56	126
57	500
58	89
59	30
60	180
61	113
62	8
63	11
64	17
65	21
66	40
67	41
68	172
69	281
70	862
71	209
72	83
73	370
74	54
75	12
76	9
77	11
78	14
79	9
80	12
81	15
82	67
83	194
84	86
85	118
86	78
87	22
88	7
89	10
90	3
91	6
92	6
93	1
94	158
95	46
96	50
97	41
98	16
99	6
100	6
101	11
102	7
103	18
104	4
105	4
106	5
107	4
108	6
109	8
111	999
112	962
113	26
114	60
115	32
116	4
117	1
118	2
119	4
120	5
121	3
122	9
123	10
124	30
125	18
126	5
127	2
128	3
129	1
130	1
131	2
132	19
133	37
134	3
135	18
136	52
137	10
138	9
139	1
140	125
141	11
142	4
143	7
144	1
145	1
146	1
147	1
148	6
149	11
150	1
151	241
152	24
153	6
154	65
155	5
156	1
157	1
159	0
160	1
161	5
162	5
163	6
164	5
165	5
166	9
167	3
168	2
169	4
170	66
171	5
172	0
173	0
174	1
175	1
176	1
177	6
178	11
179	2
180	2
181	0
182	2
183	0
184	0
185	1
186	0
187	0
188	2
189	2
190	2
191	4
192	1
193	1
194	3
195	0
196	1
197	0
200	0
201	0
202	1
203	1
204	0
205	2
206	0
207	6
208	5
209	0
210	0
211	0
212	2
213	2
214	0
215	1
217	0
219	0
221	0
225	4
226	2
227	0
241	0
242	6
243	29
244	2
245	0
