Mass Spectrum: Pyrazole, 1-(4-methylphenylsulfonyl)-4-nitro-
Formula: C10H9N3O4S
CAS: 3994-49-8
Molecular weight: 267
m/z	intensity
34	8
36	2
37	6
38	62
39	116
40	122
41	41
42	7
43	14
44	45
45	15
46	3
48	9
50	21
51	41
52	14
53	8
54	2
55	10
56	6
57	7
60	2
61	2
63	78
64	29
65	271
66	15
67	5
68	0
69	8
70	4
71	4
74	1
75	4
76	3
77	23
78	8
79	5
82	6
83	5
84	2
89	67
90	40
91	999
92	85
93	2
97	4
102	0
103	0
107	1
113	14
118	9
123	3
124	6
128	2
129	1
130	1
139	10
140	0
155	186
156	14
157	9
203	224
204	29
