Mass Spectrum: 3,3-Dimethylbutan-1,2-dione oxime
Formula: C6H12N2O2
CAS: 39951-01-4
Molecular weight: 144
m/z	intensity
12	1
14	4
15	35
16	10
17	38
18	36
25	1
26	25
27	202
28	178
29	299
30	63
31	17
32	1
33	2
37	15
38	32
39	296
40	74
41	874
42	460
43	159
44	106
45	9
46	11
47	2
49	3
50	20
51	40
52	58
53	104
54	62
55	221
56	321
57	741
58	58
59	164
60	9
61	2
62	4
63	6
64	11
65	34
66	74
67	95
68	845
69	125
70	80
71	408
72	21
73	7
74	2
75	2
76	2
77	7
78	4
79	10
80	45
81	121
82	314
83	134
84	326
85	31
86	54
87	30
88	2
92	43
93	16
94	104
95	308
96	69
97	42
98	105
99	11
100	75
101	8
102	5
103	8
107	2
108	5
109	202
110	467
111	999
112	155
113	40
114	17
115	1
124	1
125	8
126	14
127	863
128	65
129	19
130	1
142	4
143	1
144	153
145	21
146	2
