Mass Spectrum: Pyrazine, 2,3,5-tris(1,1-dimethylethyl)-
Formula: C16H28N2
CAS: 39950-98-6
Molecular weight: 248
m/z	intensity
39	250
40	80
41	999
42	140
43	120
44	100
51	60
52	50
53	170
54	60
55	120
56	60
57	670
65	130
66	140
67	560
68	80
69	70
77	70
79	100
80	50
81	100
82	60
84	90
91	50
92	50
93	70
94	50
108	60
120	40
135	110
150	230
161	80
164	50
177	310
178	40
186	50
191	190
192	100
203	50
205	170
206	440
207	80
217	50
233	500
234	110
247	60
248	500
249	110
