Mass Spectrum: 3,4-Hexanedione, 2,2,5,5-tetramethyl-, monooxime
Formula: C10H19NO2
CAS: 39950-93-1
Molecular weight: 185
m/z	intensity
15	5
17	4
18	1
26	3
27	31
28	16
29	111
30	3
31	4
37	2
38	4
39	54
40	11
41	272
42	135
43	10
44	1
45	5
50	2
51	4
52	6
53	8
54	5
55	24
56	39
57	999
58	53
59	24
60	1
64	1
65	1
66	4
67	20
68	64
69	9
70	6
71	1
82	9
83	9
84	216
85	167
86	9
87	7
96	6
97	3
100	77
101	6
102	8
103	1
112	1
128	1
129	58
130	5
140	17
141	2
168	1
185	88
186	13
187	1
