Mass Spectrum: Butanamide, 2-hydroxy-2,N-dimethyl-
Formula: C5H11NO2
CAS: 39961-72-3
Molecular weight: 117
m/z	intensity
26	14
27	46
28	12
29	46
30	106
31	283
37	7
38	12
39	73
40	21
41	201
42	81
43	272
44	44
45	6
53	6
55	15
56	15
57	20
58	165
59	999
60	88
61	5
65	6
67	5
69	20
70	12
71	7
72	33
76	6
89	237
90	14
98	9
99	8
100	13
102	19
117	11
118	7
