Mass Spectrum: Boranamine, N-methyl-1-(1-methylethyl)-N,1-diphenyl-
Formula: C16H20BN
CAS: 39967-39-0
Molecular weight: 237
m/z	intensity
14	9
15	65
25	2
26	21
27	61
28	82
29	14
30	48
36	9
37	26
38	56
39	152
40	20
41	25
42	20
43	19
44	3
45	6
49	10
50	95
51	197
52	82
53	69
54	17
55	7
56	3
60	3
61	17
62	26
63	62
64	41
65	122
66	22
67	5
68	2
70	3
71	2
72	4
73	13
74	41
75	26
76	25
77	268
78	110
79	95
80	15
87	5
88	5
89	9
90	6
91	32
92	34
93	3
99	2
100	2
101	2
103	12
104	46
105	61
106	999
107	792
108	61
109	2
113	3
114	3
115	3
116	4
117	5
132	4
147	5
165	4
178	6
179	15
180	2
193	17
194	66
195	10
236	5
237	19
238	3
