Mass Spectrum: Lysine, ethyl(ester)
Formula: C8H18N2O2
CAS: 39978-33-1
Molecular weight: 174
m/z	intensity
42	441
43	468
44	242
45	144
46	45
53	46
54	70
55	160
56	527
57	101
59	45
60	24
61	216
63	31
65	70
67	88
68	10
69	51
70	64
71	74
72	497
73	50
74	145
75	24
77	30
78	24
79	12
82	100
83	91
84	999
85	70
86	36
88	24
89	38
91	95
92	74
100	77
101	49
107	10
117	10
128	21
129	62
130	24
143	21
144	36
157	66
158	23
174	59
175	10
