Mass Spectrum: DL-Norleucine, ethyl ester
Formula: C8H17NO2
CAS: 39978-46-6
Molecular weight: 159
m/z	intensity
18	18
26	12
27	83
29	93
30	320
31	11
41	82
42	43
43	82
44	91
46	15
55	17
56	64
57	29
69	60
70	12
74	61
84	13
86	999
87	64
102	83
