Mass Spectrum: Zinc, di-4-pentenyl-
Formula: C10H18Zn
CAS: 39995-48-7
Molecular weight: 202
m/z	intensity
26	61
27	176
28	74
29	60
30	1
31	5
32	2
33	0
36	2
37	14
38	32
39	317
40	92
41	999
42	158
43	11
45	0
49	1
50	10
51	15
52	9
53	107
54	20
55	71
56	4
57	1
60	0
61	3
62	6
63	10
64	58
65	31
66	31
67	181
68	134
69	60
70	37
71	2
73	0
77	1
78	5
79	2
80	3
81	5
82	4
83	2
85	0
89	1
90	0
91	9
92	4
93	8
94	3
95	4
96	1
97	1
102	0
103	1
104	1
105	448
106	19
107	244
108	45
109	165
110	7
111	6
112	0
114	0
119	0
121	0
127	1
129	0
131	2
132	5
133	569
134	37
135	326
136	67
137	211
138	13
139	8
140	2
142	1
143	1
144	1
145	1
146	2
147	1
148	1
149	0
150	1
152	0
153	0
154	0
161	24
162	2
163	14
164	2
165	9
166	1
167	0
171	0
173	2
174	24
175	2
176	14
177	3
178	10
179	1
180	0
184	3
186	4
188	3
190	1
202	6
203	0
204	4
205	1
206	2
