Mass Spectrum: Trifluoroacetic Acid, TMS derivative
Formula: C5H9F3O2Si
CAS: 400-53-3
Molecular weight: 186
m/z	intensity
26	4
27	23
29	40
30	5
31	16
33	0
39	1
40	0
41	4
42	24
43	104
44	25
45	93
46	7
47	104
48	8
49	76
50	13
51	7
52	0
53	12
54	4
55	12
56	4
57	7
58	21
59	26
60	3
61	8
62	16
63	65
64	5
65	2
66	2
67	0
68	0
69	95
70	3
71	2
72	13
73	396
74	34
75	16
76	25
77	999
78	68
79	27
80	0
81	8
82	0
83	0
85	1
87	0
89	0
91	3
92	0
93	0
94	0
95	0
97	3
102	0
105	0
110	1
117	14
118	1
119	0
120	0
121	174
122	14
123	7
124	0
126	1
127	35
128	3
129	1
171	40
172	4
173	1
