Mass Spectrum: 2,4-Hexanedione, 1,1,1-trifluoro-
Formula: C6H7F3O2
CAS: 400-54-4
Molecular weight: 168
m/z	intensity
29	490
39	50
43	200
50	30
51	40
52	60
53	50
57	480
58	20
61	20
69	900
70	10
71	10
99	999
100	40
119	190
120	10
139	430
140	20
168	230
169	10
