Mass Spectrum: 11-Oxadispiro[4.0.4.1]undecane
Formula: C10H16O
CAS: 40008-58-0
Molecular weight: 152
m/z	intensity
26	7
27	80
28	67
29	43
30	6
36	14
38	10
39	153
40	45
41	260
42	34
43	54
44	142
45	13
46	7
50	24
51	74
52	38
53	109
54	89
55	262
56	30
57	35
58	18
60	4
62	7
63	30
64	22
65	115
66	171
67	783
68	126
69	68
70	63
71	12
74	4
75	4
76	7
77	153
78	95
79	190
80	111
81	138
82	118
83	102
84	62
85	22
89	8
91	585
92	215
93	573
94	61
95	222
96	39
97	14
98	14
102	7
103	27
104	15
105	179
106	171
107	28
108	273
109	59
110	99
111	999
112	89
113	11
115	26
116	11
117	30
118	7
119	150
120	22
121	12
123	99
124	47
125	5
126	5
127	11
128	23
129	10
130	4
131	11
132	12
133	86
134	434
135	58
136	5
137	8
139	4
141	4
151	17
152	327
153	46
154	5
