Mass Spectrum: 9,10-Secocholesta-5,7,10(19)-triene-3,24,25-triol, (3.beta.,5Z,7E)-
Formula: C27H44O3
CAS: 40013-87-4
Molecular weight: 416
m/z	intensity
43	999
44	999
45	406
46	62
48	31
49	31
50	120
51	151
52	69
53	231
54	158
55	999
56	406
57	713
58	206
59	841
60	310
61	48
63	48
64	48
65	117
66	79
67	606
68	331
69	672
70	234
71	475
72	268
73	144
74	79
75	41
76	27
77	224
78	117
79	455
80	124
81	655
82	206
83	351
84	155
85	206
86	82
87	127
89	27
91	558
92	165
93	434
94	165
95	548
96	165
97	262
98	137
99	124
100	58
101	34
102	27
103	79
104	69
105	413
106	120
107	344
108	117
109	310
110	117
111	158
112	96
113	89
114	48
115	148
116	69
117	179
118	920
119	427
120	137
121	244
122	117
123	165
124	89
125	96
126	86
127	113
128	131
129	268
130	89
131	268
132	96
133	248
134	117
135	268
136	999
137	217
138	69
139	58
140	41
141	131
142	89
143	268
144	103
145	275
146	89
147	186
148	69
149	127
150	48
151	62
152	62
153	62
154	62
155	96
156	79
157	172
158	275
159	255
160	96
161	268
162	62
163	93
164	51
165	69
166	41
167	55
168	44
169	89
170	55
171	134
172	62
173	117
174	69
175	96
176	148
177	79
178	41
179	48
180	41
181	48
182	31
183	89
184	55
185	89
186	41
187	79
188	41
189	96
190	34
191	62
192	27
193	48
194	41
195	51
196	27
197	82
198	41
199	86
200	27
201	62
202	27
203	48
205	65
206	41
207	237
209	37
210	27
211	96
212	41
213	69
214	27
215	48
217	62
218	27
219	27
220	41
221	96
222	41
223	69
224	27
226	51
227	62
228	27
229	27
230	37
231	27
235	41
236	27
237	27
239	37
241	31
243	31
245	31
248	69
249	27
250	58
251	41
253	127
254	41
255	58
256	27
257	27
269	27
271	117
272	34
273	41
281	89
283	27
291	31
357	27
382	31
383	69
384	41
398	31
416	120
417	41
