Mass Spectrum: Pyrimido[5,4-E]1,2,4-triazine-5,7(6H,8H)-dione, 6,8-dimethyl-, 1-oxide
Formula: C7H7N5O3
CAS: 40011-95-8
Molecular weight: 209
m/z	intensity
33	21
34	0
36	3
38	82
39	59
40	108
42	999
43	41
45	21
46	1
50	2
53	367
54	54
56	161
58	108
59	4
61	2
65	161
67	339
68	133
69	72
70	21
72	5
73	1
74	0
75	0
76	1
77	6
80	123
81	138
82	148
83	27
84	2
85	1
86	1
87	0
89	0
90	2
91	3
93	136
94	137
95	75
96	46
97	8
98	3
99	1
100	0
104	1
106	1
108	37
109	19
110	54
111	4
112	2
113	3
114	0
116	0
118	0
119	0
120	2
121	46
122	62
123	56
124	44
125	5
126	3
128	0
129	0
132	0
137	615
138	16
139	1
142	6
143	5
144	0
146	0
148	0
149	3
150	24
151	43
152	18
153	10
154	1
155	0
157	2
159	0
160	0
162	0
163	4
165	345
167	0
171	1
179	3
181	84
182	5
183	0
189	0
192	0
193	22
194	1
195	0
206	9
209	788
210	42
211	6
