Mass Spectrum: p-Dithiane-2,5-diol
Formula: C4H8O2S2
CAS: 40018-26-6
Molecular weight: 152
m/z	intensity
12	3
13	8
14	32
15	91
16	2
17	3
18	11
24	2
25	7
26	18
27	19
28	40
29	173
30	3
31	14
32	43
33	55
34	38
35	4
36	3
37	1
38	1
39	4
40	4
41	18
42	151
43	27
44	55
45	506
46	246
47	987
48	588
49	70
50	30
51	1
55	1
56	9
57	29
58	34
59	16
60	8
61	6
64	3
68	1
69	3
70	1
71	8
72	7
73	6
74	11
75	2
76	999
77	36
78	51
79	2
84	8
85	2
86	1
87	3
88	1
89	1
90	7
91	1
92	2
93	1
97	1
100	1
101	2
102	4
103	4
104	1
105	6
106	1
108	1
115	1
116	6
117	5
118	1
121	4
131	1
132	2
134	9
135	1
136	1
