Mass Spectrum: D-Xylitol, 2,5-anhydro-1-C-[6-(benzoylamino)-9H-purin-9-yl]-1-S-ethyl-1-thio-, 3,4-diacetate
Formula: C23H25N5O6S
CAS: 40031-66-1
Molecular weight: 499
m/z	intensity
105	999
115	110
135	50
141	50
158	60
159	130
187	50
200	80
201	110
210	80
211	80
238	50
239	100
240	220
252	50
260	50
281	60
282	60
290	40
294	40
307	90
312	150
336	60
350	180
380	70
396	60
410	140
439	579
440	150
470	50
499	50
