Mass Spectrum: 2-[2-Pyrimidylthio]-5-nitrothiazole
Formula: C7H4N4O2S2
CAS: 40045-67-8
Molecular weight: 240
m/z	intensity
44	62
45	166
46	52
47	13
49	37
51	70
52	215
53	448
54	12
56	39
57	422
58	89
59	49
60	26
64	27
65	5
68	4
70	171
71	177
72	36
73	23
76	44
77	25
78	19
79	999
80	53
82	51
83	162
84	180
85	26
86	41
88	92
89	133
90	10
91	31
92	50
96	27
97	39
99	13
102	17
106	418
107	25
108	4
109	28
110	11
111	31
112	64
113	65
114	16
115	287
116	19
117	28
118	36
120	4
123	175
124	30
125	4
135	4
136	90
137	27
138	21
139	4
141	11
150	641
151	52
152	37
155	18
162	9
166	17
167	11
168	10
182	714
183	56
184	37
194	288
195	32
196	20
224	12
240	367
241	57
242	36
