Mass Spectrum: Propionic acid, 2-chloro-, isopropyl ester
Formula: C6H11ClO2
CAS: 40058-87-5
Molecular weight: 150
m/z	intensity
41	340
42	156
43	999
45	227
46	7
47	14
48	10
49	88
51	31
53	5
55	54
56	37
57	9
58	10
59	72
60	11
61	8
62	16
63	281
64	48
65	85
66	12
67	1
69	2
70	3
71	2
73	19
74	8
76	6
77	5
78	2
79	2
81	1
82	1
83	2
86	3
87	25
88	9
89	3
91	261
93	94
94	3
95	1
97	5
99	3
101	1
103	1
104	0
106	3
107	47
109	17
110	0
115	5
116	1
118	2
119	12
120	8
121	3
122	0
123	0
125	0
127	0
129	0
131	1
133	0
135	137
137	50
138	2
148	0
149	5
150	9
151	0
152	2
