Mass Spectrum: 2,8-Dioxatricyclo[5.3.0.0(3,9)]decane
Formula: C8H12O2
CAS: 40076-38-8
Molecular weight: 140
m/z	intensity
26	14
27	221
28	71
29	276
30	12
31	26
34	1
37	3
38	14
39	241
40	39
41	511
42	109
43	184
44	78
45	26
46	1
47	3
50	7
51	21
52	9
53	94
54	108
55	454
56	110
57	162
58	24
59	3
60	5
61	1
62	1
63	4
64	1
65	42
66	72
67	999
68	708
69	223
70	96
71	44
72	4
73	9
74	2
75	2
76	2
77	44
78	37
79	152
80	76
81	185
82	32
83	148
84	206
85	20
86	7
87	2
91	30
92	32
93	73
94	92
95	92
96	331
97	119
98	33
99	9
101	1
103	2
104	10
105	3
107	31
108	4
109	36
110	76
111	32
112	60
113	7
119	2
120	1
121	13
122	94
123	14
124	3
125	8
126	2
127	1
129	1
133	1
134	1
135	3
136	4
137	5
138	2
139	10
140	176
141	17
142	2
