Mass Spectrum: Sydnone, 3,4-dimethyl-
Formula: C4H6N2O2
CAS: 4007-18-5
Molecular weight: 114
m/z	intensity
40	180
41	320
42	90
43	220
44	590
45	50
46	150
47	10
54	60
55	140
56	560
57	30
114	999
115	50
