Mass Spectrum: 1,3-cis,5-cis-Octatriene
Formula: C8H12
CAS: 40087-62-5
Molecular weight: 108
m/z	intensity
18	25
26	61
27	250
29	150
39	345
40	60
41	300
42	76
43	119
51	155
52	93
53	176
56	86
57	150
65	145
66	173
67	150
77	560
78	224
79	999
80	155
91	290
93	222
108	557
