Mass Spectrum: Acetic acid, chlorofluoro-, ethyl ester
Formula: C4H6ClFO2
CAS: 401-56-9
Molecular weight: 140
m/z	intensity
13	2
14	3
15	13
25	2
26	39
27	289
28	100
29	999
30	34
31	53
32	81
33	12
35	11
36	3
37	4
39	3
40	2
41	19
42	13
43	50
44	14
45	49
46	2
47	20
48	26
49	65
50	9
51	11
57	3
58	3
59	53
60	147
61	117
62	6
63	25
65	12
66	10
67	515
68	11
69	172
70	2
73	19
76	13
77	36
78	12
93	4
94	4
95	15
96	4
97	70
98	2
99	21
105	14
111	1
113	3
125	11
127	3
