Mass Spectrum: Propanedinitrile, cyclooctylidene-
Formula: C11H14N2
CAS: 40106-05-6
Molecular weight: 174
m/z	intensity
24	0
25	0
26	43
27	464
28	78
29	344
30	14
31	0
36	0
37	11
38	27
39	444
40	36
41	999
42	251
43	171
44	9
45	0
49	0
50	38
51	86
52	63
53	108
54	72
55	646
56	303
57	56
58	2
59	0
61	2
62	15
63	58
64	94
65	96
66	92
67	182
68	60
69	330
70	522
71	28
72	0
73	0
74	2
75	15
76	47
77	116
78	111
79	94
80	46
81	159
82	51
83	192
84	8
85	0
86	0
87	2
88	9
89	20
90	33
91	108
92	79
93	58
94	54
95	35
96	24
99	0
100	1
101	4
102	17
103	22
104	79
105	157
106	186
107	65
108	53
109	69
110	6
113	0
114	2
115	9
116	31
117	23
118	113
119	119
120	199
121	39
122	5
123	0
127	1
128	8
129	10
130	15
131	133
132	240
133	110
134	68
135	5
136	0
140	0
141	1
142	15
143	9
144	10
145	210
146	197
147	63
148	8
149	0
150	0
151	0
155	0
156	10
157	11
158	9
159	236
160	26
161	1
169	0
170	0
171	2
172	0
173	129
174	242
175	32
176	2
