Mass Spectrum: Ethanol, 2-(4-methylthiazol-2-yl)thio-
Formula: C6H9NOS2
CAS: 40107-47-9
Molecular weight: 175
m/z	intensity
33	20
34	3
37	39
38	88
39	245
40	62
41	38
42	147
43	303
44	143
45	999
46	181
47	89
48	7
49	2
50	42
51	12
52	24
53	4
54	8
55	25
56	16
57	61
58	107
59	126
60	48
61	6
62	3
64	36
68	17
69	132
70	82
71	358
72	211
73	68
74	6
76	25
77	25
80	1
81	32
82	5
83	12
84	35
85	15
86	140
87	2
89	4
90	46
91	7
96	4
97	20
98	36
99	13
100	42
103	98
104	4
105	2
112	97
113	18
114	2
115	20
130	31
131	374
132	20
133	26
144	78
145	108
146	9
147	3
156	26
157	8
158	6
175	78
176	3
