Mass Spectrum: 4-(Iodomethyl)-1-azabicyclo[2.2.2]octane
Formula: C8H14IN
CAS: 40117-60-0
Molecular weight: 251
m/z	intensity
27	208
28	150
29	100
39	204
40	57
41	320
42	650
43	55
44	212
53	108
54	66
55	116
56	57
67	150
70	115
81	125
96	50
124	999
125	91
127	50
251	79
