Mass Spectrum: 2,4,6-Triiodophenyl-.beta.-phenylpropionate
Formula: C15H11I3O2
CAS: 40123-53-3
Molecular weight: 604
m/z	intensity
41	18
42	7
43	4
44	3
47	15
48	7
49	74
50	30
51	116
52	21
53	22
54	2
55	15
56	0
57	1
60	3
61	75
62	201
63	58
64	2
65	102
66	7
69	1
73	11
74	35
75	10
76	14
77	180
78	73
79	122
80	7
83	2
84	42
86	28
88	5
89	21
90	33
91	999
92	76
93	3
101	1
102	14
103	99
104	73
105	924
106	77
107	6
115	2
127	15
128	1
131	22
132	20
133	651
134	61
135	4
139	3
149	1
150	2
151	2
152	7
153	1
163	2
164	7
165	4
176	0
179	2
181	1
188	8
189	133
190	9
201	8
217	23
218	24
259	7
291	1
315	2
316	23
317	5
328	1
344	99
345	11
346	1
386	6
443	22
471	47
472	392
473	22
604	4
