Mass Spectrum: 2,4,6-Tribromophenyl-.beta.-phenylpropionate
Formula: C15H11Br3O2
CAS: 40123-55-5
Molecular weight: 460
m/z	intensity
41	12
42	9
43	1
44	0
47	7
48	3
49	30
50	31
51	104
52	25
53	20
54	2
55	13
56	0
57	4
60	3
61	41
62	110
63	45
64	9
65	98
66	7
73	7
74	28
75	11
76	16
77	190
78	95
79	120
80	7
81	2
82	0
83	7
84	17
85	0
86	12
87	2
88	2
89	24
91	871
92	64
93	3
95	0
101	2
102	18
103	117
104	116
105	999
106	87
107	5
111	2
112	7
115	3
116	5
117	4
118	5
119	3
128	0
130	1
131	39
132	45
133	595
134	56
135	5
139	2
140	7
141	67
142	11
143	62
144	4
150	1
151	0
152	3
153	5
154	1
155	4
165	0
169	2
170	2
171	3
172	2
173	3
175	1
181	1
195	7
196	0
197	11
199	5
219	2
220	9
221	5
222	18
223	5
224	8
225	2
232	1
234	3
236	2
248	7
249	0
250	15
251	1
252	8
290	1
292	2
299	14
301	43
302	1
303	41
304	2
305	12
313	1
315	1
327	5
328	6
329	16
330	18
331	15
332	17
333	5
334	5
