Mass Spectrum: 3,3,3-Trifluoro-2-methoxy-2-phenyl-propionic acid, 1-methyl-heptyl ester
Formula: C18H25F3O3
CAS: 40121-44-6
Molecular weight: 346
m/z	intensity
26	5
27	55
28	37
29	144
30	3
31	4
37	1
38	3
39	46
40	8
41	265
42	78
43	602
44	20
45	5
50	9
51	26
52	3
53	13
54	7
55	158
56	64
57	999
58	41
59	1
62	1
63	6
65	6
67	8
68	7
69	71
70	48
71	802
72	39
73	1
74	2
75	4
76	8
77	108
78	9
79	1
80	1
81	4
82	4
83	23
84	10
85	9
86	1
87	1
88	1
89	8
90	2
91	39
92	24
93	4
94	0
95	3
96	2
97	7
98	1
99	1
100	1
101	1
103	1
104	4
105	198
106	15
107	5
108	7
109	5
110	1
111	4
112	54
113	66
114	5
115	1
118	0
119	47
120	5
121	7
122	1
123	3
126	0
127	24
128	2
130	0
132	1
137	1
138	3
139	27
140	4
141	17
142	2
145	2
155	2
157	1
158	19
159	6
160	0
164	2
165	10
166	0
167	2
169	1
170	6
171	1
174	0
175	6
180	1
183	2
184	2
186	12
187	1
189	755
190	92
191	6
195	3
200	0
201	2
202	3
203	7
204	14
208	3
209	1
210	1
211	1
212	0
213	0
214	0
215	10
216	1
217	1
218	1
219	1
220	1
221	0
222	0
233	1
234	0
235	3
236	0
237	0
238	0
239	0
240	1
241	0
242	0
243	0
244	0
245	0
246	15
247	2
248	0
249	0
250	0
251	0
252	0
253	0
254	2
255	0
256	0
257	0
258	0
259	0
260	1
261	0
262	0
263	0
264	0
265	0
266	0
267	0
268	1
269	0
270	0
271	0
272	0
273	0
274	0
275	0
276	0
277	2
302	11
303	2
346	0
