Mass Spectrum: 4-Azidosulfonyl-benzoyl azide
Formula: C7H4N6O3S
CAS: 40120-90-9
Molecular weight: 252
m/z	intensity
12	4
14	58
15	8
16	7
17	5
18	17
24	1
25	4
26	44
27	29
28	101
29	13
30	21
31	2
32	8
33	1
34	0
35	0
36	3
37	83
38	125
39	269
40	28
42	123
43	11
44	7
45	25
46	9
48	98
49	25
50	415
51	91
52	91
53	36
54	14
55	2
56	3
57	9
58	4
59	1
60	3
61	35
62	95
63	439
64	208
65	20
66	7
67	3
68	5
69	28
70	26
71	4
72	2
73	25
74	145
75	161
76	320
77	57
78	30
79	6
80	7
81	6
82	7
83	4
84	33
85	4
86	5
87	8
88	19
90	999
91	77
92	31
93	5
94	3
95	12
96	13
97	2
98	1
99	2
100	1
101	1
102	7
103	39
104	243
105	25
106	10
107	2
108	3
109	1
110	2
111	1
113	0
118	136
119	14
120	29
121	5
122	1
123	1
124	16
125	1
126	1
132	2
133	0
134	12
135	7
136	1
138	2
139	1
140	2
141	0
146	115
147	11
148	0
149	2
152	8
153	0
154	0
166	1
168	0
182	10
183	1
184	3
198	0
199	3
203	5
204	0
205	1
210	494
211	48
212	28
213	2
224	1
252	9
253	1
254	0
