Mass Spectrum: 2-Bromophenyl-.beta.-phenylpropionate
Formula: C15H13BrO2
CAS: 40123-43-1
Molecular weight: 304
m/z	intensity
41	17
42	14
43	5
44	0
45	9
49	4
50	66
51	130
52	32
53	24
54	4
55	19
61	8
62	35
63	188
64	95
65	164
66	12
67	1
69	2
73	2
74	17
75	25
76	30
77	224
78	134
79	157
80	8
81	2
82	1
83	0
86	0
87	2
89	32
90	18
91	999
92	108
93	15
94	6
95	3
101	4
102	24
103	143
104	200
105	890
106	88
107	5
115	2
116	2
117	21
118	2
119	18
120	11
121	6
122	0
128	0
129	1
130	9
131	79
132	141
133	688
134	60
135	9
139	1
142	0
143	30
144	2
145	33
146	1
148	3
149	1
150	18
151	3
152	1
153	1
154	0
155	4
157	5
163	1
165	1
171	6
172	48
173	8
174	53
175	4
181	2
225	1
226	0
304	8
305	0
306	10
307	0
