Mass Spectrum: 4-Chloro-2-nitrophenyl-.beta.-phenylpropionate
Formula: C15H12ClNO4
CAS: 40123-54-4
Molecular weight: 305
m/z	intensity
41	15
42	16
43	3
44	1
45	1
46	0
47	3
48	1
49	14
50	40
51	129
52	27
53	24
54	4
55	17
60	2
61	10
62	45
63	212
64	24
65	117
66	8
67	0
71	1
72	9
73	16
74	17
75	24
76	30
77	220
78	98
79	154
80	9
82	0
83	0
84	7
85	3
86	13
87	5
88	4
89	26
90	23
91	915
92	93
93	3
96	0
97	6
98	30
99	15
100	11
101	7
102	20
103	140
104	145
105	999
106	123
107	13
108	1
110	1
111	1
112	3
113	0
114	7
115	8
116	2
117	2
119	0
120	1
126	3
127	5
128	9
129	2
130	3
131	48
132	28
133	613
134	73
135	4
139	0
140	2
142	0
143	2
145	0
147	0
148	0
149	126
150	12
151	1
152	1
153	0
156	5
157	38
158	4
159	11
160	0
165	0
168	0
172	0
173	16
174	0
175	5
245	2
246	3
247	1
248	0
305	0
