Mass Spectrum: 2,6-Dibromophenyl .beta.-phenylpropionate
Formula: C15H12Br2O2
CAS: 40123-52-2
Molecular weight: 382
m/z	intensity
41	27
42	5
43	5
44	2
45	10
47	5
48	2
49	28
50	48
51	161
52	36
53	32
54	3
55	23
56	1
57	2
60	2
61	20
62	73
63	241
64	26
65	134
66	11
67	2
68	0
69	3
70	1
71	1
73	5
74	28
75	34
76	23
77	257
78	128
79	153
80	13
81	4
82	6
83	2
84	21
85	1
86	13
87	2
88	3
89	35
90	31
91	988
92	97
93	5
94	0
95	2
97	1
98	1
99	0
101	4
102	26
103	173
104	212
105	999
106	112
107	14
108	1
109	0
111	1
112	0
113	0
115	4
116	6
117	21
118	8
119	20
120	3
121	4
122	0
123	0
125	0
126	1
127	1
128	2
129	1
130	3
131	73
132	86
133	917
134	114
135	8
136	0
137	0
139	4
141	13
142	22
143	17
144	18
145	8
146	1
147	0
148	1
149	3
150	32
151	4
152	4
153	3
154	4
155	3
156	4
157	0
158	0
159	0
160	0
163	0
165	2
166	0
167	1
168	0
169	1
170	16
171	5
172	16
173	5
174	1
175	2
176	2
177	1
178	3
179	2
180	0
181	3
182	1
183	0
195	4
197	5
199	3
201	0
212	2
214	2
215	2
221	25
222	2
223	48
224	0
225	24
226	1
233	2
235	3
237	2
249	6
250	17
251	12
252	34
253	8
254	17
255	0
259	1
260	0
261	2
262	0
263	0
264	0
265	1
268	0
274	0
275	1
276	0
281	0
301	0
303	1
305	0
330	0
332	0
339	0
341	0
347	0
382	1
384	3
385	0
386	1
