Mass Spectrum: Phosphonic acid, [(methylsulfonyl)methyl]-, diethyl ester
Formula: C6H15O5PS
CAS: 40137-11-9
Molecular weight: 230
m/z	intensity
12	4
13	4
14	25
15	463
16	12
17	9
18	27
19	22
25	3
26	76
27	538
28	174
29	999
30	33
31	368
32	17
33	31
34	12
35	12
36	2
39	11
40	3
41	40
42	64
43	106
44	25
45	226
46	47
47	223
48	143
49	40
50	19
51	7
54	2
55	5
57	9
58	6
59	51
60	35
61	96
62	39
63	213
64	47
65	554
66	7
67	6
69	1
71	2
73	2
75	2
77	355
78	389
79	359
80	124
81	231
82	22
83	17
91	55
92	10
93	208
94	493
95	317
96	423
97	326
98	8
99	53
104	2
105	6
106	16
107	12
108	39
109	79
110	13
111	30
112	6
113	56
114	1
121	5
122	9
123	53
124	27
125	105
126	6
127	12
128	6
129	1
137	3
138	5
139	4
140	5
141	12
142	31
143	5
144	2
145	9
151	10
152	24
153	2
155	1
157	439
158	93
159	116
160	7
161	6
171	1
173	2
174	12
175	631
176	22
177	37
178	1
185	120
186	41
187	13
188	3
189	1
201	1
203	483
204	27
205	26
206	1
215	1
229	0
230	1
231	6
232	0
