Mass Spectrum: Pregn-5-en-20-one, 3-(acetyloxy)-, cyclic 20-(1,2-ethanediyl acetal), (3.beta.)-
Formula: C25H38O4
CAS: 40148-10-5
Molecular weight: 402
m/z	intensity
50	2
51	8
52	5
53	31
54	8
55	61
56	4
57	6
58	5
59	4
60	17
61	2
62	1
63	4
64	2
65	20
66	8
67	50
68	8
69	14
70	2
71	23
72	3
73	3
74	1
75	2
76	1
77	49
78	16
79	64
80	11
81	51
82	6
83	7
84	5
85	16
86	6
87	999
88	47
89	8
90	2
91	93
92	22
93	53
94	14
95	32
96	5
97	6
98	5
99	40
100	3
101	2
102	2
103	10
104	9
105	76
106	22
107	58
108	16
109	16
110	3
111	3
112	2
113	6
114	2
115	24
116	10
117	29
118	13
119	38
120	27
121	43
122	8
123	6
124	1
125	3
126	3
127	7
128	19
129	24
130	10
131	30
132	9
133	30
134	8
135	15
136	3
137	5
138	1
139	2
140	1
141	12
142	9
143	25
144	9
145	43
146	11
147	34
148	7
149	9
150	2
151	2
152	3
153	3
154	2
155	7
156	12
157	14
158	10
159	30
160	9
161	16
162	3
163	3
164	2
165	4
166	1
167	3
168	1
169	5
170	2
171	8
172	4
173	10
174	3
175	6
176	2
177	5
178	2
179	2
180	1
181	2
182	2
183	5
184	2
185	7
186	2
187	4
188	1
189	4
190	2
191	3
192	1
193	1
194	1
195	2
196	1
197	4
198	1
199	6
200	2
201	3
202	1
203	1
204	1
205	1
206	1
207	1
208	1
209	3
210	1
211	5
212	2
213	18
214	4
215	4
216	1
217	1
218	1
219	1
220	1
221	1
223	2
224	1
225	3
226	2
227	5
228	3
229	2
230	2
231	1
232	1
233	1
234	1
235	1
236	1
237	1
238	1
239	3
240	3
241	3
242	1
243	1
244	2
245	1
246	1
251	1
252	1
253	3
254	2
255	14
256	5
257	1
258	1
259	1
263	1
265	8
266	2
267	1
268	1
269	6
270	3
271	1
272	1
273	1
274	1
278	1
279	1
280	7
281	3
282	2
283	27
284	6
285	1
287	1
288	1
294	1
296	4
297	4
298	144
299	34
300	4
309	1
310	1
311	1
312	2
313	1
314	1
315	1
316	1
324	2
325	2
327	28
328	7
329	1
330	1
340	1
342	34
343	9
344	1
387	17
388	5
