Mass Spectrum: 4-Hydroxy-7-(p-cyanophenacyl)-xanthopterin
Formula: C15H10N6O3
CAS: 40155-61-1
Molecular weight: 322
m/z	intensity
102	488
130	999
164	30
165	198
192	170
193	369
219	20
220	39
293	40
294	19
304	19
305	19
321	20
322	130
