Mass Spectrum: Benzene, 1-(1-hydroxyethyl)-4-isobutyl-
Formula: C12H18O
CAS: 40150-92-3
Molecular weight: 178
m/z	intensity
26	3
27	72
29	44
30	0
31	0
37	0
38	5
39	89
40	8
41	114
42	7
43	568
44	15
45	41
46	0
50	19
51	48
52	12
53	15
54	0
55	19
56	1
57	286
58	23
59	1
60	11
61	1
62	10
63	40
64	16
65	63
66	12
67	7
68	0
69	1
70	6
71	4
72	13
73	18
74	12
75	9
76	8
77	78
78	24
79	44
80	3
81	1
82	0
85	0
86	0
87	3
88	1
89	35
90	20
91	300
92	61
93	68
94	6
95	0
98	0
99	0
101	3
102	17
103	25
104	36
105	34
106	2
107	20
108	1
109	0
110	0
111	0
113	1
114	1
115	143
116	41
117	999
118	217
119	105
120	62
121	168
122	14
123	1
126	1
127	5
128	24
129	12
130	5
131	6
132	0
133	13
134	41
135	182
136	24
137	1
139	0
141	3
142	1
143	1
144	1
145	11
146	1
147	7
148	0
149	0
152	0
159	3
160	228
161	68
162	19
163	836
164	102
165	6
176	8
177	10
178	226
179	30
180	2
