Mass Spectrum: 1H-Isoindole-1,3(2H)-dione, 2-(ethylsulfinyl)-
Formula: C10H9NO3S
CAS: 40167-12-2
Molecular weight: 223
m/z	intensity
29	162
46	999
50	513
60	513
76	729
90	324
103	405
104	486
105	405
130	540
131	270
147	432
148	324
174	459
194	972
223	81
