Mass Spectrum: Bicyclo[4.1.0]heptan-3-ol, 4,7,7-trimethyl-, [1R-(1.alpha.,3.alpha.,4.beta.,6.alpha.)]-
Formula: C10H18O
CAS: 4017-88-3
Molecular weight: 154
m/z	intensity
15	17
27	217
29	250
30	17
31	50
39	242
40	50
41	575
42	83
43	692
44	25
45	42
51	42
52	17
53	167
54	83
55	642
56	183
57	217
58	333
59	42
65	50
66	33
67	333
68	108
69	383
70	150
71	133
72	42
77	117
78	33
79	283
80	100
81	700
82	158
83	208
84	150
85	117
86	8
91	108
92	225
93	999
94	117
95	258
96	417
97	367
98	42
105	58
106	17
107	442
108	92
109	42
110	50
111	100
112	42
119	8
121	967
122	83
123	25
136	983
137	92
139	25
154	33
