Mass Spectrum: Bicyclo[4.1.0]heptan-3-ol, 3,7,7-trimethyl-, [1S-(1.alpha.,3.beta.,6.alpha.)]-
Formula: C10H18O
CAS: 4017-92-9
Molecular weight: 154
m/z	intensity
15	33
27	133
29	117
31	17
39	167
40	42
41	367
42	42
43	999
44	42
45	33
51	33
52	17
53	117
54	67
55	350
56	58
57	83
58	333
59	250
60	17
61	17
62	83
63	17
65	42
66	17
67	167
68	92
69	250
70	58
71	367
72	42
77	108
78	33
79	200
80	83
81	767
82	83
83	125
84	92
85	83
86	8
91	100
92	167
93	650
94	58
95	100
96	775
97	117
98	17
99	8
105	50
106	8
107	150
108	50
109	17
110	8
111	92
112	8
119	8
121	658
122	58
125	33
136	617
137	75
139	50
154	17
