Mass Spectrum: 3-(Dimethoxy-phosphoryl)-3-hydroxy-butyric acid ethyl ester
Formula: C8H17O6P
CAS: 40170-82-9
Molecular weight: 240
m/z	intensity
33	14
34	1
36	0
37	0
39	38
40	35
41	45
42	77
43	650
44	46
45	27
47	69
48	8
49	11
50	3
51	3
52	1
53	2
54	2
55	14
56	17
57	32
58	124
59	11
60	25
61	24
62	3
63	16
65	22
67	7
68	3
69	17
70	10
71	9
72	10
73	17
75	49
76	3
77	10
79	281
80	254
81	8
82	3
83	4
85	426
86	24
87	11
88	26
89	14
90	1
91	2
93	122
95	138
96	9
97	8
98	2
99	3
100	0
101	4
103	112
104	5
105	6
106	0
107	3
109	152
110	999
111	137
112	10
113	8
114	2
115	10
116	1
117	4
119	9
120	1
121	2
122	0
123	1
124	10
125	2
127	97
128	8
129	4
131	765
132	50
133	7
135	15
137	6
138	1
139	0
140	0
141	1
142	0
143	0
144	0
145	0
146	0
147	2
149	18
150	2
151	12
152	2
153	15
154	1
155	0
156	0
157	0
163	11
164	0
166	37
167	71
168	6
169	1
171	2
172	0
174	1
177	161
178	11
179	6
180	0
181	1
182	0
185	0
191	0
192	0
193	2
195	131
196	7
197	1
200	0
203	0
209	2
211	0
219	0
225	0
240	1
241	0
