Mass Spectrum: trans-2-Caren-4-ol
Formula: C10H16O
CAS: 4017-82-7
Molecular weight: 152
m/z	intensity
27	389
28	52
29	144
30	6
31	40
37	9
38	35
39	411
40	63
41	525
42	39
43	421
44	20
45	51
49	2
50	40
51	112
52	51
53	178
54	36
55	153
56	26
57	26
58	7
59	80
60	9
61	9
62	14
63	44
64	15
65	117
66	39
67	196
68	26
69	64
70	6
71	10
74	7
75	7
76	6
77	202
78	47
79	169
80	27
81	187
82	35
83	27
84	30
85	2
89	12
90	6
91	304
92	46
93	173
94	116
95	216
96	27
97	7
102	3
103	23
104	11
105	53
106	11
107	77
108	96
109	999
110	76
111	6
115	15
116	3
117	18
118	6
119	238
120	28
121	20
122	12
123	33
124	3
133	6
134	45
135	10
137	94
138	9
152	66
153	8
