Mass Spectrum: 2-Fluoro-4-methylpyridine
Formula: C6H6FN
CAS: 401815-98-3
Molecular weight: 111
m/z	intensity
12	1
13	3
14	3
15	9
16	1
18	3
25	5
26	35
27	36
28	54
29	3
31	73
32	6
33	22
35	1
36	6
37	55
38	92
39	163
40	33
41	37
42	4
44	27
45	10
46	19
48	3
49	26
50	83
51	99
52	36
53	8
54	6
55	5
56	29
57	139
58	37
59	7
60	9
61	40
62	39
63	94
64	150
65	69
66	16
67	6
68	21
69	48
70	47
71	43
72	79
73	2
75	9
76	31
77	4
78	8
79	4
80	9
81	44
82	33
83	213
84	200
85	71
86	4
87	2
89	7
91	460
92	47
93	2
96	23
97	2
108	1
110	230
111	999
112	66
113	2
