Mass Spectrum: Trimethyl(3,3-difluoro-2-propenyl)silane
Formula: C6H12F2Si
CAS: 40207-81-6
Molecular weight: 150
m/z	intensity
39	113
58	20
73	999
74	91
75	37
77	120
150	38
