Mass Spectrum: O,O'-Bis[phenylcarbamyl]terephthalic dihydroxamic acid
Formula: C22H18N4O6
CAS: 40212-25-7
Molecular weight: 434
m/z	intensity
41	158
42	36
44	844
45	127
46	68
48	5
49	31
50	142
51	196
52	231
53	81
54	75
55	12
56	6
57	5
59	77
61	44
62	82
63	290
64	542
65	352
66	272
67	52
68	1
69	4
70	1
73	13
74	37
75	34
76	57
77	65
78	37
79	97
80	47
81	12
82	1
83	1
84	4
86	7
87	7
88	56
89	4
90	164
91	771
92	207
93	607
94	27
97	1
99	1
102	6
103	10
104	48
105	47
106	75
107	19
108	54
109	5
118	49
119	999
120	271
121	26
128	1
130	4
132	16
133	5
134	191
135	20
136	4
137	36
138	3
144	2
146	193
147	16
148	16
149	14
152	34
153	5
160	29
161	4
162	2
163	6
164	67
165	11
166	3
177	2
178	25
179	4
180	5
194	1
196	7
197	2
212	8
227	1
