Mass Spectrum: 5-methoxy DIPT
Formula: C17H26N2O
CAS: 4021-34-5
Molecular weight: 274
m/z	intensity
41	70
42	28
43	103
44	10
50	4
51	7
52	4
53	3
54	4
56	44
57	10
58	8
61	2
62	7
63	23
64	5
65	4
68	3
70	26
72	254
73	13
74	6
75	7
76	7
77	17
78	5
79	2
80	2
84	6
86	6
87	4
89	38
90	24
91	7
98	5
99	2
100	7
101	6
102	11
103	14
104	7
105	2
109	2
112	3
114	999
115	92
116	36
117	71
118	13
119	2
128	8
129	12
130	34
131	15
132	5
142	3
143	10
144	35
145	65
146	14
147	4
156	2
157	2
158	11
159	53
160	139
161	21
162	3
172	3
173	11
174	32
175	5
188	2
216	2
243	2
257	2
274	2
