Mass Spectrum: Borane, butyldiethyl-
Formula: C8H19B
CAS: 40218-56-2
Molecular weight: 126
m/z	intensity
27	259
28	9
29	55
30	0
31	0
35	0
36	13
37	52
38	47
39	195
40	241
41	772
42	17
43	7
44	1
45	0
46	0
48	1
49	5
50	16
51	24
52	25
53	88
54	283
55	999
56	41
57	18
58	0
59	0
60	1
61	2
62	1
63	4
64	3
65	6
66	6
67	20
68	57
69	206
70	9
71	0
73	0
74	0
77	0
79	0
81	0
83	0
84	0
85	2
86	0
95	0
96	87
97	380
98	24
99	0
113	0
124	0
125	0
126	3
127	0
