Mass Spectrum: 2-Pentanamine, N-(1-methylbutyl)-
Formula: C10H23N
CAS: 40221-44-1
Molecular weight: 157
m/z	intensity
27	45
29	56
30	47
39	25
41	81
42	50
43	132
44	605
45	20
53	6
55	25
56	21
57	13
58	18
59	27
67	6
68	6
69	10
70	39
71	31
72	112
73	7
84	8
86	27
87	5
94	11
98	17
114	999
115	96
116	7
117	7
142	97
143	11
156	6
157	9
158	2
