Mass Spectrum: 1-Hexadecanesulfonic acid, 3,5-dichloro-2,6-dimethyl-4-pyridyl ester
Formula: C23H39Cl2NO3S
CAS: 40220-85-7
Molecular weight: 479
m/z	intensity
41	836
42	333
43	999
44	40
45	27
46	24
47	17
48	8
49	36
50	40
51	90
52	38
53	83
54	116
55	769
56	268
57	726
58	24
59	10
60	11
61	22
62	18
63	36
64	23
65	61
66	30
67	111
68	109
69	384
70	205
71	418
72	23
73	40
74	13
75	20
76	15
77	17
78	11
79	27
80	16
81	66
82	152
83	429
84	186
85	303
86	48
87	33
88	12
89	10
90	8
91	10
92	28
93	24
94	5
95	34
96	89
97	277
98	78
99	54
100	10
101	28
102	6
103	12
104	2
105	1
106	1
107	3
108	1
109	15
110	28
111	161
112	68
113	40
114	11
115	11
116	4
117	2
118	10
120	16
121	14
122	3
123	17
124	22
125	95
126	43
127	27
128	30
129	10
130	11
131	3
132	1
133	3
134	1
135	2
136	1
137	11
138	10
139	24
140	19
141	9
142	1
144	1
147	1
148	1
149	1
150	2
151	13
152	9
153	19
154	23
155	2
156	95
157	8
158	20
159	2
161	1
162	8
163	4
164	6
165	20
166	7
167	10
168	7
169	1
173	1
174	3
175	1
176	4
178	2
179	12
180	1
181	4
182	4
183	1
185	1
189	1
190	6
191	245
192	105
193	235
194	83
195	50
196	33
197	3
205	1
206	1
207	12
208	1
220	1
221	6
222	1
223	1
224	50
225	10
226	0
232	1
234	2
235	6
236	1
237	1
249	1
253	0
255	1
256	2
257	2
263	1
265	1
277	1
305	14
306	2
307	9
309	1
479	2
481	1
