Mass Spectrum: 2,3-Dicyano-5,6-dimethylpyrazine
Formula: C8H6N4
CAS: 40227-17-6
Molecular weight: 158
m/z	intensity
76	887
77	421
91	40
92	13
105	11
117	999
118	122
131	9
132	7
158	433
159	48
