Mass Spectrum: Boranamine, N,N,1,1-tetraethyl-
Formula: C8H20BN
CAS: 4023-39-6
Molecular weight: 141
m/z	intensity
27	217
28	136
29	200
30	65
36	5
37	24
38	22
39	102
40	157
41	184
42	61
43	14
44	28
48	1
49	2
50	9
51	13
52	23
53	76
54	224
55	47
56	89
57	39
58	54
59	1
63	13
64	6
65	8
66	21
67	23
68	78
69	88
70	196
71	9
72	19
73	12
74	0
77	1
78	3
79	2
80	15
81	33
82	130
83	255
84	999
85	63
86	1
89	3
90	0
91	1
92	1
93	0
94	3
95	7
96	21
97	52
98	164
99	11
108	2
109	5
110	23
111	188
112	788
113	59
114	1
123	2
124	13
125	49
126	110
127	8
128	1
138	1
139	1
140	46
141	166
142	17
