Mass Spectrum: 2,2,5-Trimethylhexan-4-one
Formula: C9H18O
CAS: 40239-50-7
Molecular weight: 142
m/z	intensity
15	49
17	7
18	12
27	239
28	107
29	183
31	56
39	150
40	13
41	389
42	33
43	581
44	10
45	12
53	7
55	45
56	47
57	999
58	47
59	52
60	12
71	394
72	8
85	10
86	28
99	284
142	104
143	9
