Mass Spectrum: 6-Ethyl-3-octanone
Formula: C10H20O
CAS: 40237-85-2
Molecular weight: 156
m/z	intensity
41	200
42	60
43	440
44	20
45	20
53	20
55	160
56	40
57	999
58	40
67	60
69	100
70	20
71	80
72	360
73	120
83	100
84	270
85	340
86	60
109	340
110	40
127	140
128	20
156	60
157	6
