Mass Spectrum: Androstane-17,19-diol, 5,6-epoxy-3-fluoro-, 17-acetate, (3.beta.,5.alpha.,6.alpha.,17.beta.)-
Formula: C21H31FO4
CAS: 40242-94-2
Molecular weight: 366
m/z	intensity
41	295
43	999
51	53
53	128
55	192
65	74
67	162
77	146
79	203
81	141
91	221
92	51
93	177
94	72
95	97
105	162
106	56
107	164
109	51
115	54
117	79
119	136
120	56
121	62
127	77
128	51
129	156
131	105
133	172
134	151
135	79
139	51
141	164
142	108
143	119
145	95
146	90
147	136
152	59
155	67
162	146
163	218
166	51
167	182
177	51
179	64
181	59
183	54
257	410
258	81
275	97
317	77
335	33
348	33
366	6
