Mass Spectrum: Benzenesulfonamide, N,4-dimethyl-N-(6a,7,10,10a-tetrahydro-1-hydroxy-6,6,9-trimethyl-6H-dibenzo[b,d]pyran-3-yl)-, (6aR-trans)-
Formula: C24H29NO4S
CAS: 40248-05-3
Molecular weight: 427
m/z	intensity
91	999
105	120
119	110
133	80
150	100
155	200
174	60
188	190
204	110
213	70
228	210
242	60
265	130
272	150
280	190
295	130
308	50
322	80
344	160
363	709
412	12
427	140
