Mass Spectrum: 1-Methyl-2-tetralone
Formula: C11H12O
CAS: 4024-14-0
Molecular weight: 160
m/z	intensity
15	2
26	2
27	18
28	3
29	2
37	1
38	6
39	52
40	5
41	7
42	13
43	2
49	1
50	32
51	79
52	21
53	19
54	2
55	4
56	1
57	22
61	4
62	19
63	64
64	33
65	61
66	8
73	2
74	19
75	20
76	18
77	85
78	37
79	12
80	1
85	2
86	5
87	9
88	4
89	41
90	9
91	176
92	16
93	1
98	3
99	2
100	1
101	6
102	34
103	54
104	15
105	10
106	1
110	1
113	4
115	335
116	90
117	999
118	792
119	72
120	3
126	6
127	23
128	46
129	29
130	7
131	46
132	9
133	2
139	1
141	3
142	3
143	1
144	1
145	31
146	3
158	1
160	426
161	50
162	4
