Mass Spectrum: Benzenesulfonamide, N,4-dimethyl-N-(6a,7,10,10a-tetrahydro-3-hydroxy-6,6,9-trimethyl-6H-dibenzo[b,d]pyran-1-yl)-, (6aR-trans)-
Formula: C24H29NO4S
CAS: 40248-04-2
Molecular weight: 427
m/z	intensity
69	450
82	789
91	999
105	330
119	220
133	280
150	170
188	300
204	220
216	280
229	220
272	420
280	280
295	160
322	90
344	250
363	80
412	30
427	180
428	70
429	30
