Mass Spectrum: Androstane-17,19-diol, 5,6-epoxy-3-fluoro-, 17-acetate, (3.beta.,5.beta.,6.beta.,17.beta.)-
Formula: C21H31FO4
CAS: 40242-93-1
Molecular weight: 366
m/z	intensity
41	264
43	999
53	128
55	223
57	51
59	50
65	74
67	196
69	55
77	175
78	60
79	302
80	89
81	321
91	358
92	104
93	358
94	145
95	211
97	57
105	295
106	102
107	283
108	100
109	87
117	121
119	200
120	91
121	79
122	53
123	53
127	104
128	74
129	226
130	60
131	189
132	71
133	358
134	321
135	264
136	60
141	211
142	717
143	283
144	79
145	149
146	57
147	147
148	132
151	58
153	83
155	85
157	57
159	64
162	72
163	206
164	104
165	62
167	107
176	89
177	53
181	66
243	74
257	100
258	90
259	53
275	85
317	60
318	142
336	792
337	191
348	85
366	2
