Mass Spectrum: 2-Pentene, 2-methyl-5-nitro-
Formula: C6H11NO2
CAS: 40244-93-7
Molecular weight: 129
m/z	intensity
26	30
27	280
28	140
29	240
30	60
31	30
37	20
38	40
39	420
40	100
41	999
42	110
44	80
45	10
46	20
49	30
50	40
51	80
52	40
53	230
54	80
55	600
56	40
57	20
58	10
59	330
60	20
61	10
62	20
63	20
64	10
65	50
66	70
67	570
68	260
69	80
70	30
71	100
72	20
77	20
78	30
79	40
80	70
81	60
82	420
83	120
84	20
86	10
92	20
93	40
94	60
95	110
96	40
97	20
98	10
99	20
111	20
129	4
