Mass Spectrum: 1-Undecene, 11-nitro-
Formula: C11H21NO2
CAS: 40244-98-2
Molecular weight: 199
m/z	intensity
26	20
27	150
28	90
29	220
30	70
31	10
39	180
40	40
41	70
42	150
44	10
45	20
46	30
51	10
52	20
53	80
54	160
55	999
56	210
57	100
58	10
59	30
62	20
65	10
66	20
67	270
68	120
69	500
70	80
71	50
72	10
78	10
79	50
80	70
81	250
82	120
83	190
84	30
85	30
86	20
91	20
93	30
94	80
95	200
96	80
97	90
98	20
99	10
100	20
102	10
107	20
108	50
109	80
110	50
111	20
112	10
120	10
121	20
122	180
123	40
124	40
134	20
136	130
137	20
138	10
150	20
152	10
164	30
182	10
