Mass Spectrum: 2-Hexene, 6-nitro-
Formula: C6H11NO2
CAS: 40244-96-0
Molecular weight: 129
m/z	intensity
26	40
27	280
28	110
29	370
30	70
37	20
38	30
39	350
40	70
41	470
42	70
44	30
45	30
46	20
50	30
51	50
52	40
53	200
54	120
55	999
56	60
57	50
62	30
63	20
65	40
66	60
67	480
68	280
69	40
70	10
71	190
72	10
73	40
77	20
78	10
79	60
80	30
81	190
82	60
83	30
84	10
85	50
86	10
93	20
94	20
95	80
96	20
99	10
100	10
111	10
112	20
