Mass Spectrum: (2-Aziridinylethyl)amine
Formula: C4H10N2
CAS: 4025-37-0
Molecular weight: 86
m/z	intensity
41	2
42	4
43	7
44	999
45	32
46	28
55	1
56	10
57	4
58	5
59	0
69	0
70	5
71	2
72	0
84	2
85	6
86	7
87	2
88	1
