Mass Spectrum: Pyrrolidine, 1-methyl-3,2'-spiro-benzo-1,3-dioxolane-
Formula: C11H13NO2
CAS: 40259-14-1
Molecular weight: 191
m/z	intensity
45	70
46	2
50	14
51	14
52	16
53	26
55	151
56	241
57	999
58	36
63	22
64	20
65	11
66	5
67	21
68	8
69	50
70	33
71	20
77	5
81	27
82	37
83	28
84	6
94	5
147	5
191	102
