Mass Spectrum: Perhydrophenalene, (3a.alpha., 6a.alpha., 9a.alpha., 9b.beta.)-
Formula: C13H22
CAS: 40250-64-4
Molecular weight: 178
m/z	intensity
39	327
40	50
41	800
42	90
43	90
53	221
54	125
55	370
65	125
66	102
67	850
68	123
69	137
77	280
78	90
79	61
80	225
81	999
82	180
83	57
91	280
92	70
93	435
94	280
95	680
96	121
105	80
106	40
107	220
108	110
109	140
120	30
121	365
122	175
123	103
135	810
136	300
137	920
138	120
149	67
150	50
163	23
177	75
178	970
179	138
180	9
