Mass Spectrum: (.+/-.)-3-(2-Carboxy-trans-propenyl)-2,2-dimethylcyclopropane-trans-1-carboxylic acid,[1.alpha., 3.beta.(E)]-
Formula: C10H14O4
CAS: 40253-03-0
Molecular weight: 198
m/z	intensity
12	1
14	4
15	15
16	6
17	32
18	159
19	2
22	1
25	1
26	13
27	181
28	61
29	133
30	3
31	23
32	1
37	9
38	30
39	381
40	68
41	386
42	54
43	391
44	172
45	105
46	9
47	4
49	4
50	40
51	117
52	52
53	206
54	42
55	300
56	31
57	33
58	9
59	153
60	13
61	16
62	21
63	56
64	19
65	178
66	88
67	241
68	52
69	148
70	63
71	46
72	6
73	12
74	12
75	11
76	8
77	280
78	66
79	254
80	46
81	148
82	81
83	999
84	69
85	31
86	7
87	8
88	14
89	16
90	9
91	613
92	93
93	437
94	121
95	101
96	35
97	215
98	819
99	65
100	18
101	427
102	30
103	39
104	11
105	134
106	73
107	910
108	167
109	308
110	65
111	813
112	91
113	17
114	4
115	49
116	21
117	49
118	44
119	74
120	25
121	162
122	85
123	39
124	27
125	146
126	15
127	12
128	9
129	5
130	3
131	5
132	7
133	37
134	499
135	235
136	285
137	201
138	44
139	22
140	15
141	4
142	3
143	2
144	14
145	5
146	9
147	19
148	4
149	4
150	5
151	33
152	232
153	663
154	87
155	216
156	17
157	3
158	1
160	2
161	4
162	216
163	34
164	8
165	38
166	4
167	1
170	1
178	1
179	3
180	348
181	47
182	6
183	33
184	4
198	6
199	1
