Mass Spectrum: 6-Deoxy-1,2:3,4-di-O-isopropylidine-6-iodo-.alpha.-D-galactopyranose
Formula: C12H19IO5
CAS: 4026-28-2
Molecular weight: 370
m/z	intensity
26	4
27	93
28	5
29	44
30	2
31	60
36	0
37	0
38	2
39	63
40	29
41	138
42	20
43	999
44	33
45	20
46	0
47	1
49	0
50	0
51	2
52	2
53	23
54	9
55	36
56	12
57	89
58	47
59	311
60	15
61	6
62	0
63	0
64	0
65	2
66	2
67	4
68	7
69	91
70	16
71	89
72	3
73	29
74	1
75	0
77	0
78	0
79	1
80	1
81	112
82	100
83	31
84	26
85	199
86	13
87	4
88	0
89	1
90	0
91	0
92	0
93	1
94	3
95	7
96	1
97	13
98	9
99	37
100	225
101	87
102	6
103	0
107	2
108	0
109	18
110	16
111	6
112	1
113	148
114	18
115	4
116	0
117	0
122	0
123	1
124	0
125	1
126	7
127	88
128	9
129	31
130	1
131	0
139	1
141	12
142	2
143	6
150	0
152	0
153	1
155	10
157	0
159	3
160	0
167	2
168	2
169	27
170	23
171	11
172	2
179	0
181	0
183	5
185	52
186	4
187	12
188	0
194	2
195	2
197	4
198	0
199	0
200	1
207	0
208	0
209	111
210	6
211	4
213	1
221	1
224	1
225	11
226	1
227	13
228	0
229	0
237	88
238	5
239	1
241	1
243	65
244	8
245	2
251	0
253	1
254	1
255	22
256	1
257	0
267	0
269	0
270	0
277	0
279	0
281	0
283	0
284	0
295	3
296	0
297	31
298	2
299	0
313	1
341	0
355	605
356	70
357	10
358	0
370	127
371	14
372	1
