Mass Spectrum: Butanoic acid, 2-hydroxy-3,3-dimethyl-
Formula: C6H12O3
CAS: 4026-20-4
Molecular weight: 132
m/z	intensity
41	470
42	39
43	166
44	88
45	88
55	88
56	39
57	999
58	58
69	58
71	58
76	176
88	117
99	49
132	1
