Mass Spectrum: 2,6,10-Dodecatrien-1-al, 12-(acetoxy)-2,6,10-trimethyl-, (E,E,E)-
Formula: C17H26O3
CAS: 40266-21-5
Molecular weight: 278
m/z	intensity
26	2
27	80
28	5
29	156
30	2
31	8
38	1
39	85
40	15
41	226
42	18
43	999
44	25
45	9
50	1
51	9
52	7
53	105
54	23
55	358
56	26
57	37
58	7
59	17
60	2
61	5
63	1
65	27
66	10
67	162
68	212
69	104
70	7
71	54
72	5
73	16
74	1
75	2
77	47
78	8
79	95
80	84
81	256
82	82
83	55
84	168
85	104
86	7
87	3
89	0
91	61
92	32
93	451
94	64
95	101
96	19
97	59
98	7
99	5
100	0
101	2
103	4
104	2
105	51
106	16
107	146
108	38
109	63
110	15
111	13
112	3
113	4
114	1
115	2
116	1
117	9
118	4
119	63
120	21
121	79
122	34
123	58
124	20
125	8
126	21
127	52
128	5
129	2
131	10
132	14
133	44
134	151
135	201
136	37
137	40
138	82
139	17
140	3
141	6
142	0
143	3
144	8
145	21
146	7
147	36
148	17
149	28
150	70
151	19
152	6
153	7
154	1
155	0
157	5
158	4
159	11
160	28
161	43
162	16
163	13
164	3
165	2
166	0
167	6
168	0
171	3
172	0
173	3
174	2
175	13
176	9
177	4
179	0
183	0
185	18
186	2
187	6
188	1
189	23
190	13
191	3
192	0
193	0
194	0
195	15
196	1
199	1
200	18
201	6
202	1
203	24
204	4
205	3
206	2
209	5
211	1
217	3
218	43
219	9
220	1
221	0
233	0
235	1
236	4
237	0
278	3
279	0
