Mass Spectrum: Cholestane-3,5,6-triol, (3.beta.,5.alpha.,6.beta.)-, 2TMS derivative
Formula: C33H64O3Si2
CAS: 40272-82-0
Molecular weight: 564
m/z	intensity
127	55
128	40
129	999
130	177
131	314
132	114
133	403
134	100
135	296
136	81
137	100
141	48
142	192
143	499
144	203
145	325
146	74
147	400
148	96
149	274
150	103
151	77
152	29
153	25
154	66
155	200
156	66
157	177
158	96
159	233
160	66
161	140
162	25
163	74
321	881
322	288
323	111
365	40
366	111
367	229
368	74
369	59
402	111
403	962
404	355
405	118
441	133
442	37
456	796
457	355
458	107
459	288
460	111
517	44
518	14
531	81
532	29
546	474
547	229
548	100
549	18
564	29
565	7
