Mass Spectrum: Methanethiol, N-(3-phenoxypropyl)amidino-, hydrogen thiosulfate
Formula: C11H16N2O4S2
CAS: 40283-89-4
Molecular weight: 304
m/z	intensity
41	179
42	92
43	59
44	92
45	35
46	12
47	26
48	414
49	6
50	37
51	49
53	13
54	18
55	46
56	74
57	38
58	122
59	17
60	11
62	4
64	999
65	106
66	87
67	14
68	16
69	6
70	14
71	28
72	74
73	7
74	31
75	4
76	11
77	140
78	17
79	24
81	4
82	5
83	20
84	29
85	34
86	57
87	3
89	4
91	19
92	10
93	13
94	114
95	24
96	11
97	12
98	22
99	30
100	13
101	9
103	15
104	77
105	23
106	7
107	84
108	8
110	7
111	5
113	13
114	4
115	8
116	6
117	18
118	26
119	8
123	4
124	10
125	5
126	9
127	56
128	26
129	10
130	5
131	56
132	5
133	47
134	44
135	40
136	6
137	11
138	22
139	4
140	9
141	15
142	4
143	19
144	47
145	5
146	4
147	12
148	3
150	7
151	32
152	12
154	7
155	4
160	16
161	3
162	6
163	3
164	4
165	7
166	27
167	13
168	21
169	3
173	6
177	11
191	4
192	18
193	8
194	15
200	5
218	5
224	26
225	10
250	4
254	11
256	54
257	3
258	0
271	12
287	3
304	19
