Mass Spectrum: S-[N-[2-Adamantyl]amidino]methyl hydrogen thiosulfate
Formula: C12H20N2O3S2
CAS: 40283-71-4
Molecular weight: 304
m/z	intensity
41	189
42	85
43	101
44	39
45	105
46	8
48	434
50	30
51	18
52	13
53	65
54	32
55	88
56	81
57	14
58	17
59	100
60	15
61	2
62	6
64	999
65	43
66	62
67	161
68	22
69	32
70	35
71	12
72	19
73	6
74	5
76	41
77	95
78	45
79	213
80	65
81	89
82	20
83	9
84	8
85	5
86	3
87	3
88	21
89	5
90	2
91	144
92	114
93	116
94	28
95	15
96	21
97	12
98	8
99	6
100	5
101	7
102	0
103	4
104	5
105	39
106	23
107	34
108	26
109	9
110	6
111	5
112	5
113	4
114	3
115	5
116	3
117	6
118	5
119	31
120	7
121	7
122	5
123	5
124	3
125	3
126	4
127	7
128	27
129	2
130	6
131	4
132	6
133	22
134	76
135	122
136	15
137	4
138	3
139	2
140	3
141	2
142	2
143	0
144	1
145	3
146	2
147	2
148	5
149	20
150	193
151	55
152	7
153	0
155	0
157	1
159	0
160	24
161	7
162	26
163	8
164	3
165	2
166	2
167	1
174	4
175	4
176	7
177	32
178	20
179	3
180	0
181	0
187	11
188	4
189	35
190	10
191	26
192	57
193	14
194	6
201	0
202	2
203	2
204	8
205	3
206	0
207	2
209	0
216	0
218	7
219	3
220	7
221	34
222	19
223	17
224	4
225	4
226	1
228	7
229	1
232	2
233	5
234	3
235	3
236	9
237	2
240	1
243	2
248	0
253	4
254	95
255	30
256	9
257	0
258	10
259	4
260	7
261	26
262	5
263	1
275	3
276	4
277	2
279	0
282	0
283	6
284	3
288	3
293	2
299	0
304	4
