Mass Spectrum: Methanethiol, (N-cycloheptylmethyl)amidino-, hydrogen sulfate
Formula: C10H20N2O3S2
CAS: 40283-61-2
Molecular weight: 280
m/z	intensity
41	263
42	86
43	117
44	54
45	28
46	5
48	442
50	34
51	6
53	49
54	24
55	304
56	39
57	30
58	23
59	46
60	17
62	8
64	999
65	50
66	43
67	95
69	252
70	18
71	59
72	50
73	17
74	26
75	5
76	5
77	10
78	2
79	22
80	5
81	54
82	43
83	14
84	23
85	11
86	15
87	9
88	3
89	13
90	26
91	74
93	11
95	36
96	14
97	22
98	15
99	15
100	18
101	10
103	68
104	67
105	10
106	5
107	6
108	5
109	22
110	24
111	41
112	16
113	23
114	9
115	7
116	20
117	2
118	3
121	4
123	5
124	15
126	82
127	30
128	23
129	14
130	8
131	9
132	4
133	9
136	14
138	49
139	14
140	19
141	23
142	12
143	23
144	29
145	20
146	2
150	11
152	16
153	34
155	59
156	10
157	8
159	21
160	6
163	12
165	13
167	64
168	19
169	23
171	15
172	3
173	22
174	2
177	4
178	2
179	5
180	8
183	8
190	11
192	2
194	33
195	13
196	7
197	4
200	13
201	6
202	2
204	10
209	2
219	5
224	2
226	19
230	1
233	2
234	16
236	2
237	33
238	19
239	8
248	13
249	9
250	8
251	2
252	48
253	8
254	5
265	33
266	6
279	7
280	30
281	4
