Mass Spectrum: Cyclopentanol, 1,2-dimethyl-3-(1-methylethenyl)-, [1R-(1.alpha.,2.alpha.,3.beta.)]-
Formula: C10H18O
CAS: 4028-59-5
Molecular weight: 154
m/z	intensity
26	8
27	180
28	140
29	160
31	30
38	8
39	220
40	43
41	400
42	50
43	999
44	130
45	35
50	10
51	36
52	20
53	150
54	55
55	500
56	70
57	140
58	130
59	44
62	2
63	15
65	40
66	12
67	250
68	110
69	380
70	60
71	740
72	100
73	10
77	60
78	16
79	110
80	55
81	450
82	100
83	300
84	250
85	50
86	13
91	60
92	20
93	170
94	80
95	100
96	500
97	160
98	30
99	2
105	32
106	15
107	230
108	43
109	20
110	13
111	110
112	14
121	400
122	40
123	13
125	110
126	12
136	300
137	40
139	50
154	5
