Mass Spectrum: l-Leucine, N-[(phenylmethoxy)carbonyl]-, (4-nitrophenyl)methyl ester
Formula: C21H24N2O6
CAS: 40299-11-4
Molecular weight: 400
m/z	intensity
26	4
27	37
28	15
29	29
30	71
31	5
37	3
38	7
39	51
40	9
41	89
42	17
43	225
44	21
45	8
46	0
49	2
50	20
51	47
52	19
53	13
54	6
55	29
56	12
57	42
58	2
59	1
60	5
61	3
62	7
63	28
64	14
65	69
66	6
67	8
68	6
69	97
70	65
71	15
72	2
73	7
74	12
75	5
76	7
77	75
78	66
79	119
80	13
81	8
82	5
83	57
84	11
85	12
86	11
87	2
88	3
89	76
90	67
91	999
92	100
93	6
94	2
95	7
96	4
97	9
98	13
99	3
100	0
101	4
102	0
103	1
104	2
105	15
106	46
107	166
108	149
109	16
110	3
111	5
112	71
113	9
114	2
115	1
116	1
117	1
118	1
119	1
120	9
121	7
122	2
123	3
124	1
125	3
126	0
127	1
128	2
129	2
130	8
131	2
132	2
133	1
134	1
135	2
136	77
137	134
138	13
139	2
140	1
141	3
142	1
143	0
144	0
145	0
146	0
147	0
148	0
149	9
150	2
151	2
152	3
153	11
154	2
155	2
156	1
157	1
158	6
159	1
160	1
161	0
162	0
163	1
164	0
165	2
166	1
167	5
168	1
169	0
170	0
171	0
172	0
173	0
174	0
175	0
176	225
177	37
178	3
179	2
180	2
181	1
182	0
183	1
190	1
191	1
192	0
193	1
194	1
195	1
196	0
197	1
198	0
199	0
200	0
201	2
202	1
203	0
204	0
205	1
206	0
207	0
208	0
209	1
210	0
219	1
220	73
221	12
222	2
223	1
224	0
225	0
226	0
227	1
235	0
236	1
237	0
241	0
242	0
243	3
244	0
248	0
249	1
256	0
257	0
263	0
264	6
265	3
266	1
276	22
277	3
278	0
279	0
283	0
284	0
294	0
309	0
341	0
349	0
355	0
356	0
357	0
368	1
400	0
