Mass Spectrum: Borane, diethylpropyl-
Formula: C7H17B
CAS: 40291-76-7
Molecular weight: 112
m/z	intensity
2	4
10	1
11	3
12	4
13	18
14	2
15	13
25	7
26	76
27	243
28	22
29	40
36	10
37	39
38	37
39	137
40	291
41	999
42	32
43	7
48	1
49	8
50	23
51	34
52	31
53	98
54	61
55	121
56	6
57	6
61	2
62	1
63	3
64	2
65	5
66	4
67	12
68	48
69	179
70	9
71	2
81	2
82	106
83	421
84	24
111	6
112	24
113	2
