Mass Spectrum: 4-Fluorophenylmethylcarbinol
Formula: C8H9FO
CAS: 403-41-8
Molecular weight: 140
m/z	intensity
14	1
15	7
16	1
19	1
26	3
27	17
28	3
29	24
30	1
31	6
33	2
37	4
38	11
39	25
40	2
42	4
43	211
44	11
45	32
46	2
48	3
49	6
50	62
51	76
52	11
53	5
54	1
55	3
56	5
57	33
59	3
60	8
61	10
63	34
64	3
65	5
66	2
67	1
68	17
69	31
70	33
71	8
72	1
73	5
74	39
75	124
76	15
77	210
78	17
79	2
80	2
81	14
82	3
83	17
84	2
85	3
86	3
87	4
88	1
89	4
90	1
91	9
92	6
93	6
94	19
95	212
96	179
97	699
98	48
99	5
100	2
101	38
102	8
103	38
104	4
105	21
106	3
107	13
108	3
109	33
110	3
111	4
112	1
119	2
120	16
121	25
122	31
123	127
125	999
126	78
127	5
138	8
139	34
140	187
141	17
142	1
