Mass Spectrum: 2,6-Dichloro-4-nitrophenyl-.beta.-phenylpropionate
Formula: C15H11Cl2NO4
CAS: 40300-03-6
Molecular weight: 339
m/z	intensity
41	12
42	13
43	2
47	3
49	7
50	36
51	100
52	23
53	17
54	3
55	15
56	1
57	0
60	2
61	12
62	40
63	124
64	15
65	94
66	8
68	0
71	3
72	11
73	54
74	25
75	36
76	19
77	215
78	100
79	126
80	7
82	0
83	17
84	5
85	13
86	3
87	4
89	30
90	22
91	881
92	88
93	3
96	3
97	23
98	26
99	16
100	9
101	6
102	24
103	162
104	167
105	999
106	143
107	20
108	1
109	24
110	3
111	7
112	1
115	2
117	0
125	2
126	5
127	2
128	4
129	1
130	1
131	109
132	137
133	872
134	118
135	64
136	3
137	9
139	1
145	9
146	0
147	6
149	1
151	0
152	3
153	1
155	0
161	29
162	127
163	25
164	79
165	8
166	11
167	1
168	1
181	1
215	1
251	1
294	11
295	2
296	7
297	1
298	1
339	0
