Mass Spectrum: Pentanoic acid, 3-hydroxy-4-methyl-, ethyl ester
Formula: C8H16O3
CAS: 40309-42-0
Molecular weight: 160
m/z	intensity
25	1
26	14
27	178
29	235
30	10
31	76
36	0
37	1
38	6
39	62
40	7
41	189
42	115
43	748
44	97
45	148
46	13
47	83
48	0
49	0
50	2
51	4
52	1
53	17
54	6
55	154
56	27
57	91
58	7
59	13
60	139
61	88
62	2
63	0
65	1
66	0
67	8
68	19
69	133
70	103
71	999
72	93
73	339
74	15
75	191
76	6
77	1
79	1
81	3
82	2
83	1
84	0
85	3
86	10
87	10
88	172
89	419
90	18
91	3
92	0
94	0
95	2
96	57
97	151
98	17
99	46
100	6
101	3
102	0
103	1
105	0
107	0
108	0
111	0
112	2
113	28
114	18
115	90
116	18
117	870
118	53
119	7
120	0
122	0
123	0
127	1
131	10
132	0
133	0
136	0
138	0
139	0
141	1
142	38
143	4
144	0
145	3
146	0
158	1
159	2
160	1
161	1
