Mass Spectrum: 3,4-Dimethyl-3-pyrrolin-2-one
Formula: C6H9NO
CAS: 4030-22-2
Molecular weight: 111
m/z	intensity
26	39
27	193
28	202
29	97
30	104
37	20
38	38
39	255
40	58
41	217
42	88
43	263
44	14
49	13
50	71
51	102
52	71
53	194
54	116
55	365
56	101
57	31
62	8
63	13
64	6
65	34
66	39
67	121
68	311
69	33
80	37
81	31
82	225
83	117
84	9
94	9
96	480
97	31
109	8
110	78
111	999
112	91
113	7
