Mass Spectrum: 4-Trifluoromethylphenyl-.beta.-phenylpropionate
Formula: C16H13F3O2
CAS: 40300-02-5
Molecular weight: 294
m/z	intensity
41	60
43	9
44	2
45	0
47	3
49	17
50	79
51	235
52	52
53	33
54	6
55	38
56	6
57	45
61	4
62	27
63	141
64	34
65	200
66	14
67	1
68	3
69	14
70	2
73	2
74	16
75	35
76	27
77	313
78	137
79	154
80	9
81	5
82	3
83	73
84	11
86	6
87	5
88	17
89	31
90	24
91	999
92	75
93	5
94	0
95	15
99	3
101	4
102	21
103	135
104	119
105	963
106	77
107	6
112	19
113	58
114	32
115	4
119	1
120	0
121	15
125	6
131	40
132	44
133	477
134	42
135	3
141	1
142	3
143	80
144	3
145	23
150	1
161	16
162	37
163	3
183	1
253	3
294	32
295	5
