Mass Spectrum: Ergosta-4,22-dien-3-one
Formula: C28H44O
CAS: 4030-92-6
Molecular weight: 396
m/z	intensity
41	517
42	69
43	588
53	96
55	138
56	69
57	359
65	55
66	13
67	494
68	117
69	999
70	117
71	141
73	317
74	41
75	58
77	235
78	82
79	376
80	41
81	588
82	235
83	494
91	541
92	69
93	282
94	117
95	623
96	152
97	200
105	317
106	82
107	364
108	117
109	470
117	124
118	27
119	235
120	82
121	352
122	193
123	364
124	705
125	129
131	164
132	55
133	305
134	117
136	235
137	270
138	27
143	94
144	27
145	223
146	69
147	505
148	211
149	352
150	117
156	117
157	82
158	27
159	164
160	82
161	247
162	55
163	124
165	138
171	41
172	41
173	124
174	124
175	235
176	55
177	69
179	82
180	55
185	55
187	117
188	13
189	41
191	55
193	69
195	179
196	27
201	69
202	13
203	69
211	82
213	41
215	69
227	124
228	41
229	258
230	55
231	124
243	124
244	41
245	470
246	69
256	207
257	138
259	138
260	27
261	41
268	152
269	529
270	423
271	588
272	166
281	235
282	55
297	235
298	729
299	305
353	262
354	41
396	494
397	341
398	41
