Mass Spectrum: 1H-Isoindole-1,3(2H)-dione, 2-(butylsulfinyl)-
Formula: C12H13NO3S
CAS: 40318-14-7
Molecular weight: 251
m/z	intensity
41	769
43	919
44	230
46	230
50	460
55	420
56	260
57	499
59	120
63	230
69	180
74	190
75	190
76	879
77	150
81	190
90	150
103	270
104	999
105	150
106	150
130	919
131	120
147	879
148	270
149	130
195	420
251	10
