Mass Spectrum: 2-Oxabicyclo[3.1.0]hex-3-ene-6-carboxylic acid, ethyl ester
Formula: C8H10O3
CAS: 40310-44-9
Molecular weight: 154
m/z	intensity
23	0
25	8
26	198
27	830
28	85
29	892
30	25
31	259
33	1
35	0
36	0
37	6
38	17
39	74
40	12
41	89
42	49
43	88
44	9
45	91
46	3
47	2
48	2
49	26
50	55
51	111
52	110
53	446
54	87
55	121
56	7
57	4
58	3
59	26
60	7
61	16
62	2
63	2
64	1
65	2
66	1
67	4
68	23
69	41
70	13
71	51
72	12
73	6
74	1
75	1
76	3
77	40
78	3
79	32
80	52
81	999
82	107
83	14
84	2
85	1
86	3
87	0
88	10
89	0
90	0
91	4
92	5
93	3
94	8
95	4
96	2
97	155
98	26
99	334
100	50
101	4
102	1
103	2
104	1
105	4
106	1
107	4
108	52
109	115
110	10
111	1
113	0
114	0
115	1
116	0
117	10
118	0
119	2
120	1
121	2
122	2
123	2
124	9
125	71
126	201
127	270
128	40
129	4
153	0
154	81
155	9
156	1
