Mass Spectrum: 3-Phenylthiane
Formula: C11H14S
CAS: 40324-32-1
Molecular weight: 178
m/z	intensity
25	10
26	61
27	287
28	66
29	45
31	3
33	10
34	16
35	10
36	8
37	32
38	92
39	531
40	69
41	227
42	29
43	8
44	16
45	421
46	473
47	194
48	36
49	34
50	238
51	469
52	139
53	105
54	18
55	25
57	18
58	71
59	126
60	73
61	271
62	75
63	212
64	43
65	239
66	32
67	32
69	32
70	8
71	46
72	17
73	46
74	138
75	91
76	89
77	419
78	388
79	59
81	6
82	11
83	3
84	11
85	48
86	26
87	143
88	13
89	115
90	33
91	684
92	71
93	11
95	6
97	11
98	8
99	19
100	21
101	29
102	131
103	355
104	626
105	81
106	6
108	6
109	8
110	6
113	15
114	17
115	265
116	144
117	662
118	999
119	107
120	3
121	27
122	11
123	9
126	6
127	38
128	93
129	169
130	71
131	199
132	31
134	45
135	83
136	29
137	38
138	9
139	3
141	6
143	32
144	48
145	17
147	11
149	10
161	3
162	3
163	178
164	22
165	11
176	3
177	42
178	419
179	65
180	29
