Mass Spectrum: Methyl(3,3-difluoro-2-propenyl)dichlorosilane
Formula: C4H6Cl2F2Si
CAS: 40331-32-6
Molecular weight: 190
m/z	intensity
39	160
40	4
51	47
63	60
65	19
77	80
81	9
97	77
99	41
101	20
113	999
114	107
115	668
116	40
117	150
118	12
190	80
192	49
194	11
