Mass Spectrum: O,O,O'-Tris-trimethylsilylmalonate
Formula: C12H28O4Si3
CAS: 40333-06-0
Molecular weight: 320
m/z	intensity
15	2
16	0
26	4
29	16
31	9
39	2
42	6
43	40
44	39
45	251
46	20
47	11
51	0
53	7
54	2
55	12
56	1
57	16
58	14
59	64
60	6
61	5
66	2
67	1
68	2
69	4
70	5
71	8
72	23
73	999
74	92
75	34
76	4
83	3
85	5
86	2
87	12
88	3
89	2
99	13
100	3
101	6
102	10
103	9
104	2
105	2
113	5
115	8
116	3
117	9
118	3
119	5
120	2
127	2
129	8
130	4
131	29
132	5
133	80
134	11
135	9
141	2
143	105
144	15
145	10
147	516
148	90
149	47
150	9
151	3
157	10
159	4
161	4
173	18
174	4
175	3
187	3
189	16
190	3
191	9
192	3
201	2
205	9
206	2
207	20
215	8
216	2
217	31
218	6
219	3
221	249
222	66
223	38
224	10
225	2
231	4
232	3
291	3
293	3
303	2
305	377
306	111
307	64
308	16
309	3
319	3
320	39
321	7
322	8
