Mass Spectrum: 2-Propenoic acid, 2,3,3-tris[(trimethylsilyl)oxy]-, trimethylsilyl ester
Formula: C15H36O5Si4
CAS: 40333-10-6
Molecular weight: 408
m/z	intensity
28	33
29	7
45	150
46	10
47	8
55	13
57	7
58	13
59	48
60	4
61	4
71	4
72	32
73	999
74	86
75	51
89	51
90	5
99	4
101	5
102	5
103	4
115	5
117	11
119	6
131	35
132	7
133	46
134	7
135	4
147	435
148	72
149	38
150	5
157	10
163	54
164	8
165	5
175	12
189	4
190	82
191	20
192	8
205	6
207	31
208	7
209	4
219	5
221	91
222	22
223	13
231	63
232	12
233	6
237	4
303	4
305	17
306	5
323	32
324	10
325	5
379	6
393	279
394	104
395	58
396	17
397	7
408	60
409	24
410	14
