Mass Spectrum: 9-Bromo-9-chlorobicyclo[6.1.0]nonane
Formula: C9H14BrCl
CAS: 40347-51-1
Molecular weight: 236
m/z	intensity
22	2
24	3
25	8
26	60
27	223
28	92
29	102
30	1
35	11
36	59
37	13
38	74
39	572
40	97
41	606
42	90
43	60
44	8
45	3
46	2
47	7
48	2
49	24
50	87
51	250
52	116
53	287
54	408
55	582
56	38
57	13
58	4
60	13
61	46
62	35
63	97
64	24
65	417
66	158
67	814
68	297
69	92
70	13
73	65
74	24
75	100
76	13
77	428
78	122
79	858
80	202
81	999
82	113
83	66
84	6
86	13
87	179
88	69
89	109
90	27
91	314
92	83
93	483
94	85
95	169
96	678
97	47
99	30
100	80
101	132
102	47
103	49
104	17
105	72
106	12
107	33
108	2
109	61
110	5
112	8
113	25
114	17
115	171
116	26
117	76
118	14
119	44
120	29
121	463
122	66
123	6
124	2
125	8
127	31
128	19
129	33
130	9
131	16
132	5
133	13
134	8
135	6
140	15
141	3
142	20
143	7
144	3
145	7
146	4
147	2
153	133
154	6
155	173
156	17
157	94
158	14
159	13
160	2
161	1
166	649
167	35
168	828
169	52
170	203
171	12
177	2
179	12
180	9
181	24
182	10
183	2
184	4
193	10
194	3
195	9
196	3
197	1
201	7
202	1
203	3
207	10
208	7
209	14
210	2
211	2
236	129
237	13
238	151
239	10
240	46
241	3
