Mass Spectrum: 1H-1,5-Benzodiazepine, 2,3,4,5-tetrahydro-2-methyl-
Formula: C10H14N2
CAS: 40358-34-7
Molecular weight: 162
m/z	intensity
37	23
38	31
39	170
40	11
41	71
42	63
50	55
51	127
52	119
53	51
54	31
55	7
56	7
62	27
63	83
64	67
65	309
66	107
67	23
75	11
76	31
77	146
78	79
79	51
80	79
81	47
89	27
90	39
91	119
92	349
93	79
94	31
103	19
104	23
105	47
106	31
107	71
108	39
109	27
116	11
117	63
118	130
119	999
120	186
121	31
130	150
131	107
132	261
133	210
134	39
144	79
145	107
146	71
147	742
148	107
161	47
162	730
163	119
