Mass Spectrum: 2H-Pyran, 2-(3-butynyloxy)tetrahydro-
Formula: C9H14O2
CAS: 40365-61-5
Molecular weight: 154
m/z	intensity
26	9
27	111
28	46
29	123
30	4
31	47
37	3
38	8
39	77
40	24
41	238
42	29
43	104
44	29
45	5
47	5
50	12
51	27
52	44
53	338
54	67
55	140
56	196
57	137
58	7
59	5
65	6
66	20
67	140
68	19
69	20
70	9
71	24
72	2
74	2
77	7
78	4
79	66
80	14
81	20
82	9
83	50
84	19
85	999
86	60
87	4
91	4
93	9
94	3
95	37
96	75
97	13
98	31
99	90
100	32
101	43
102	4
109	14
110	8
111	7
113	2
115	20
123	4
124	10
125	18
126	23
127	2
128	2
153	20
154	2
