Mass Spectrum: 1-[2,3,5-Tri-O-acetyl-.beta.-d-ribofuranosyl]-1,2,4-triazole-3-carboxamide
Formula: C14H18N4O8
CAS: 40372-03-0
Molecular weight: 370
m/z	intensity
42	75
43	999
44	63
45	17
51	1
52	3
53	10
54	12
55	31
56	8
57	25
58	6
59	4
60	13
61	18
66	1
67	6
68	46
69	80
70	50
71	19
73	36
74	2
77	1
79	3
80	3
81	13
82	7
83	18
84	26
85	53
86	31
87	4
89	0
93	0
94	6
95	12
96	106
97	148
98	17
99	14
100	7
101	8
102	6
103	10
104	1
105	2
107	4
108	5
109	2
110	4
111	3
113	540
114	56
115	99
116	10
117	1
121	3
122	4
123	2
124	2
125	27
126	16
127	30
128	39
129	5
132	0
134	1
135	1
136	5
137	6
138	74
139	169
141	198
142	8
143	21
144	4
145	4
148	2
149	0
150	15
151	4
152	2
153	4
154	10
155	123
156	118
157	59
158	5
159	1
162	3
163	3
164	13
165	8
166	7
167	31
168	24
169	3
170	12
171	2
173	1
174	2
175	1
177	2
178	5
179	9
180	12
181	2
182	2
183	17
184	2
185	1
186	2
187	3
188	1
190	2
191	23
192	3
195	19
196	5
197	58
198	71
199	7
200	1
201	0
206	5
207	3
208	42
209	12
210	8
211	2
213	8
214	1
215	1
216	6
217	10
218	1
222	1
223	5
224	21
225	5
226	3
227	3
237	2
238	2
239	31
240	5
242	0
250	2
251	12
252	2
255	21
256	8
257	1
258	19
259	59
260	6
261	1
266	31
267	4
268	11
269	3
281	0
282	1
284	1
297	6
298	33
299	4
310	1
311	0
328	9
329	2
370	3
371	0
