Mass Spectrum: Benzeneethanamine, 3-fluoro-4-hydroxy-
Formula: C8H10FNO
CAS: 404-84-2
Molecular weight: 155
m/z	intensity
41	51
42	97
43	74
44	62
45	51
46	40
47	5
48	6
49	21
50	120
51	473
52	122
53	160
54	23
55	56
56	19
57	71
58	12
59	13
60	6
61	19
62	47
63	98
64	36
65	62
66	24
67	18
68	24
69	24
70	45
71	14
72	3
73	16
74	25
75	47
76	30
77	558
78	129
79	68
80	32
81	35
82	9
83	34
84	12
85	5
86	11
87	6
88	6
89	41
90	27
91	64
92	12
93	8
94	14
95	31
96	43
97	20
98	8
99	5
100	14
101	4
102	3
103	3
104	11
105	42
106	32
107	567
108	999
109	124
110	10
111	3
112	8
113	1
115	1
116	7
117	7
118	5
119	10
120	21
121	11
122	3
123	9
124	18
125	327
126	596
127	46
128	3
129	0
132	3
133	4
134	10
135	14
136	10
137	220
138	53
139	13
140	1
141	2
142	1
143	0
144	0
149	1
150	1
151	2
152	6
153	17
154	8
155	305
156	45
157	3
