Mass Spectrum: 3-Fluorophenethylamine
Formula: C8H10FN
CAS: 404-70-6
Molecular weight: 139
m/z	intensity
15	1
18	3
27	5
28	32
29	3
30	999
31	18
36	2
37	0
38	5
39	18
40	1
41	3
42	9
43	3
50	9
51	12
52	2
56	0
57	25
58	1
59	8
61	3
62	9
63	22
64	3
65	5
68	5
69	6
70	5
74	5
75	15
76	2
77	3
81	9
82	2
83	59
84	3
86	1
87	2
89	12
90	1
91	11
94	2
95	7
96	8
101	14
102	1
107	19
108	5
109	112
110	21
111	2
117	4
118	4
120	2
121	5
122	5
135	1
136	6
137	5
138	3
139	14
140	0
