Mass Spectrum: Acetamide, N-cyclohexyl-2,2,2-trifluoro-
Formula: C8H12F3NO
CAS: 404-23-9
Molecular weight: 195
m/z	intensity
14	1
15	47
16	4
19	0
20	2
25	0
26	24
27	224
28	254
29	115
30	25
31	11
33	3
35	0
36	0
37	4
38	13
39	196
40	36
41	367
42	69
43	104
44	42
45	8
46	4
47	3
48	0
49	0
50	23
51	30
52	16
53	74
54	208
55	182
56	88
57	116
58	11
59	7
60	1
61	0
62	1
63	5
64	3
65	11
66	14
67	405
68	34
69	238
70	138
71	13
72	5
73	0
74	1
75	0
76	1
77	18
78	28
79	29
80	10
81	96
82	999
83	197
84	31
85	3
86	0
87	0
88	0
89	0
90	8
91	2
92	4
93	2
94	8
95	3
96	28
97	19
98	44
99	8
100	0
101	0
102	1
103	0
104	21
105	2
106	1
107	1
108	1
109	1
110	3
111	0
112	1
113	1
114	248
115	8
116	2
118	1
119	0
120	0
121	0
122	1
123	0
124	2
125	1
126	160
127	35
128	4
129	0
131	0
132	29
133	5
134	0
135	0
136	1
137	3
138	33
139	142
140	42
141	3
142	0
146	0
147	0
148	1
149	2
150	2
151	1
152	812
153	59
154	10
155	0
162	1
164	0
165	2
166	36
167	18
168	1
176	1
177	0
178	0
180	7
181	0
193	0
194	10
195	27
196	13
197	1
