Mass Spectrum: Benzene, (1-propenylsulfonyl)-, (Z)-
Formula: C9H10O2S
CAS: 40410-87-5
Molecular weight: 182
m/z	intensity
27	82
29	28
30	1
31	7
33	1
34	3
35	21
37	30
38	72
39	795
40	52
41	404
42	15
44	11
45	98
46	4
47	11
48	10
49	13
50	215
51	783
52	65
53	38
54	2
55	28
56	3
57	14
58	22
59	15
60	3
61	50
62	16
63	36
64	13
65	99
66	45
67	3
68	2
69	28
70	5
71	20
72	9
73	15
74	62
75	44
76	45
77	999
78	420
79	40
80	4
81	34
82	7
83	3
84	3
85	1
86	3
87	8
88	2
89	35
90	4
91	111
92	13
93	11
94	178
95	17
96	2
97	228
98	16
99	9
102	6
103	16
104	7
105	16
106	2
107	1
108	6
109	48
110	17
111	5
112	1
113	3
114	4
115	458
116	247
117	135
118	18
121	2
122	1
124	1
125	942
126	102
127	44
128	4
131	6
132	2
133	5
134	6
135	8
136	1
137	12
138	1
139	1
141	24
145	1
147	362
148	37
149	25
150	19
151	3
152	1
153	4
157	1
158	1
162	1
163	6
164	12
165	248
166	25
167	13
168	1
181	15
182	632
183	67
184	24
185	3
