Mass Spectrum: Ergost-8(14)-en-3-ol, acetate, (3.beta.,5.alpha.)-
Formula: C30H50O2
CAS: 4042-95-9
Molecular weight: 442
m/z	intensity
41	137
43	999
44	20
49	10
51	4
53	14
55	144
57	94
58	2
61	18
65	4
67	59
69	80
71	90
72	2
77	19
79	88
81	135
83	54
84	3
85	26
86	1
91	91
93	96
95	106
96	9
97	42
99	3
103	5
105	118
106	17
107	170
108	3
109	59
111	17
115	9
116	1
117	39
118	12
119	76
120	9
121	72
122	24
123	39
124	4
125	6
127	6
128	5
129	16
130	7
131	58
132	16
133	99
134	34
135	55
136	9
137	14
141	5
142	4
143	23
144	5
145	57
146	17
147	100
149	45
151	6
152	0
153	1
155	4
156	1
157	24
159	52
160	4
161	65
162	3
163	11
165	1
166	3
167	1
169	5
170	1
171	19
172	7
173	28
175	19
176	1
177	4
178	0
179	1
183	4
184	1
185	16
186	6
187	15
188	3
189	8
191	2
197	4
198	1
199	15
200	8
201	26
202	1
203	6
205	2
211	3
213	111
214	22
215	22
216	6
217	7
219	0
220	2
221	2
225	0
227	15
228	26
229	122
230	24
231	5
233	1
234	1
239	4
241	11
242	5
243	2
245	2
247	5
253	1
254	1
255	77
256	17
257	4
259	11
260	11
261	11
262	2
267	1
271	2
273	31
274	22
275	11
276	6
283	2
285	0
287	4
288	19
289	6
299	4
300	1
301	4
302	5
313	3
314	7
315	60
316	13
327	5
328	1
339	2
343	2
367	44
368	11
369	2
381	9
382	19
383	107
384	36
385	6
399	4
400	0
427	109
428	33
429	6
440	0
441	28
442	611
443	191
444	37
445	4
