Mass Spectrum: Benzene,2-isothiocyanato-1,3,5-trinitro-
Formula: C7H2N4O6S
CAS: 40421-53-2
Molecular weight: 270
m/z	intensity
30	999
46	70
61	50
62	160
64	210
69	110
70	120
74	275
75	108
76	121
86	145
87	155
88	705
92	245
116	110
120	200
124	80
132	350
146	20
148	18
150	38
166	30
182	100
192	100
194	98
222	40
224	40
226	80
228	110
238	30
254	10
270	900
271	90
272	44
273	4
