Mass Spectrum: Pent-1-en-3-one, 1-(2-furyl)-5-dimethylamino-
Formula: C11H15NO2
CAS: 40432-37-9
Molecular weight: 193
m/z	intensity
33	2
39	150
40	21
41	28
42	185
43	76
44	90
45	28
46	4
47	0
50	9
51	17
52	9
53	15
54	11
55	69
56	58
57	193
58	999
59	36
60	4
61	5
62	12
63	35
64	21
65	137
66	16
67	4
68	4
69	5
70	26
71	100
72	60
73	5
74	2
75	2
76	2
77	27
78	7
79	14
80	3
81	9
82	9
83	5
84	8
85	2
86	1
87	1
89	2
90	2
91	16
92	7
93	14
94	21
95	4
96	3
97	4
98	35
99	5
100	1
101	0
102	0
103	3
104	1
105	2
106	2
107	18
108	4
109	2
110	2
111	10
112	4
113	0
115	0
117	0
118	1
119	5
120	8
121	75
122	23
123	3
124	3
125	19
126	2
127	0
130	0
131	2
132	2
133	1
134	2
135	2
136	3
137	4
138	0
144	0
146	1
147	2
148	10
149	8
150	6
151	2
152	0
162	1
163	1
164	2
165	1
166	0
169	0
171	0
174	0
175	1
176	1
177	0
178	2
191	1
193	67
194	7
195	1
