Mass Spectrum: Pentanoic acid, 5-(1-oxo-2-phenylethylamino)-
Formula: C13H17NO3
CAS: 40434-97-7
Molecular weight: 235
m/z	intensity
33	9
34	2
35	1
36	5
37	5
39	221
40	57
41	189
42	60
43	143
44	126
45	119
47	1
48	1
50	29
51	59
52	20
53	22
55	530
56	75
57	38
58	38
59	118
60	30
61	5
62	20
63	65
65	286
66	16
67	3
68	5
69	12
70	19
71	8
72	9
73	12
74	7
75	5
76	6
77	29
78	13
79	8
80	5
82	202
83	129
84	11
85	2
86	3
87	5
89	85
91	999
92	840
93	57
94	4
95	1
96	2
98	89
99	18
100	116
101	63
102	4
103	2
104	5
105	11
106	9
107	7
108	5
109	2
110	1
111	0
112	1
113	0
115	5
116	32
117	8
118	42
119	8
120	9
121	1
122	0
123	2
126	448
127	27
128	6
129	1
130	1
131	1
132	1
133	1
134	3
135	3
136	4
137	1
138	0
139	0
140	0
141	0
142	3
144	124
145	8
146	2
147	1
148	11
149	36
150	3
151	0
152	0
153	0
154	0
155	0
156	0
157	0
158	0
159	0
160	1
161	9
162	9
163	2
164	0
165	1
166	0
167	0
168	0
170	1
171	1
172	0
174	1
176	87
177	10
178	1
183	0
185	0
186	0
187	0
188	1
189	1
190	2
191	1
192	0
195	0
197	0
200	0
201	0
206	0
210	0
211	0
212	1
216	0
217	2
218	1
219	0
221	0
222	1
223	0
225	0
226	0
227	0
228	0
232	0
235	127
236	17
237	2
240	0
