Mass Spectrum: l-Pyrrolid-2-one, N-carbamoyl-
Formula: C5H8N2O2
CAS: 40451-67-0
Molecular weight: 128
m/z	intensity
41	400
42	50
43	37
44	209
45	31
46	2
50	0
51	6
52	18
53	12
54	51
55	64
56	288
57	17
58	1
59	1
63	0
64	0
66	18
67	2
68	2
69	5
70	1
71	3
72	14
73	8
77	1
78	1
81	1
82	4
84	999
85	61
86	4
91	0
95	0
97	1
99	1
100	4
101	0
109	0
111	2
112	0
127	0
128	62
129	28
130	2
