Mass Spectrum: 2,3-Dimethoxypropan-1-ol
Formula: C5H12O3
CAS: 40453-77-8
Molecular weight: 120
m/z	intensity
15	4
26	8
27	54
28	51
29	279
30	25
31	299
33	79
39	21
41	29
43	550
45	999
46	25
47	44
55	18
56	19
57	65
58	894
59	559
60	33
61	21
74	193
75	674
76	26
87	11
88	103
89	463
90	84
