Mass Spectrum: 8-Oxabicyclo[3.2.1]oct-6-en-3-one
Formula: C7H8O2
CAS: 40458-77-3
Molecular weight: 124
m/z	intensity
25	1
26	28
27	148
28	46
29	31
30	0
31	2
36	1
37	12
38	27
39	246
40	23
41	41
42	69
43	123
44	6
47	0
48	0
49	6
50	43
51	65
52	34
53	259
54	343
55	36
56	8
57	1
61	2
62	5
63	7
64	1
65	14
66	11
67	54
68	72
69	12
70	2
71	20
73	0
74	2
77	19
78	16
79	11
80	12
81	833
82	999
83	40
84	3
91	0
94	2
95	83
96	14
97	1
105	0
106	11
107	4
108	0
109	4
123	8
124	876
125	82
126	5
