Mass Spectrum: Cyclopentanol, 2-(aminomethyl)-, cis-
Formula: C6H13NO
CAS: 40482-00-6
Molecular weight: 115
m/z	intensity
15	8
16	5
17	9
26	6
27	46
29	49
30	999
31	42
38	4
39	52
41	119
42	58
43	65
44	153
45	8
46	23
48	96
51	5
53	33
54	93
55	69
56	67
57	50
58	49
59	16
65	11
66	25
67	198
68	238
69	82
70	62
71	22
72	63
73	8
77	9
79	31
82	18
83	34
84	12
85	10
86	18
87	15
94	7
95	7
96	26
97	55
98	96
99	9
100	9
101	8
114	9
115	13
116	14
117	4
