Mass Spectrum: 6-Hepten-1-ol, 3-methyl-
Formula: C8H16O
CAS: 4048-32-2
Molecular weight: 128
m/z	intensity
25	2
26	26
27	251
28	118
29	277
30	12
31	280
32	19
37	3
38	9
39	221
40	45
41	568
42	106
43	295
44	63
45	41
46	2
47	2
48	0
49	1
50	10
51	27
52	12
53	118
54	148
55	999
56	361
57	142
58	23
59	4
60	0
61	1
62	1
63	5
64	1
65	18
66	22
67	406
68	363
69	232
70	119
71	63
72	12
73	62
74	4
75	13
76	1
77	33
78	5
79	51
80	12
81	289
82	243
83	51
84	34
85	24
86	2
87	0
89	0
90	0
91	14
92	2
93	18
94	13
95	356
96	31
97	8
98	2
99	15
100	4
101	0
103	0
104	0
105	0
106	0
107	0
108	1
109	9
110	126
111	14
112	0
113	1
127	0
128	1
129	0
