Mass Spectrum: .alpha.-Acetyl-N,N-dinormethadol
Formula: C21H27NO2
CAS: 40488-01-5
Molecular weight: 325
m/z	intensity
41	15
42	38
43	325
44	999
45	30
47	3
50	3
51	14
52	3
53	3
55	2
56	6
57	34
58	20
59	8
60	1
63	4
65	8
67	1
68	1
69	2
70	8
71	1
72	2
75	2
76	4
77	39
78	8
79	6
82	1
83	10
84	2
85	26
86	4
87	14
88	1
89	6
90	1
91	92
92	7
93	6
94	2
101	6
102	10
103	27
104	10
105	74
106	9
107	1
113	1
115	65
116	11
117	13
118	8
119	6
120	408
121	35
126	2
127	10
128	28
129	52
130	63
131	92
132	16
133	2
134	2
139	7
141	3
143	6
144	21
145	4
146	8
147	16
148	1
150	2
151	7
152	26
153	5
154	1
157	2
158	7
159	1
163	5
164	8
165	96
166	19
167	16
168	2
172	1
176	8
177	7
178	68
179	65
180	37
181	8
182	1
187	2
188	9
189	9
190	5
191	18
192	8
193	109
194	22
195	3
202	4
203	4
204	4
205	4
206	5
207	25
208	67
209	11
210	1
218	1
219	3
220	3
221	1
222	65
223	14
224	5
225	12
226	2
234	2
235	1
236	7
237	1
250	2
264	1
265	27
266	10
267	5
282	2
325	5
326	2
