Mass Spectrum: 4-Nitroimidazole-5-carboxylic acid
Formula: C4H3N3O4
CAS: 40507-59-3
Molecular weight: 157
m/z	intensity
41	154
42	106
43	522
44	995
45	693
46	294
51	112
52	33
53	499
54	266
55	560
56	187
57	172
58	48
60	179
64	21
65	259
66	462
67	252
68	39
69	893
70	91
71	31
72	639
73	102
77	128
78	70
81	75
82	45
83	125
84	47
85	23
88	63
91	45
92	21
93	64
95	26
96	74
97	98
99	77
105	81
109	42
113	999
114	50
115	66
123	191
127	30
129	28
140	74
156	83
157	749
158	76
