Mass Spectrum: 1H-1,2,4-Triazole, 3-(2-methylpropyl)-
Formula: C6H11N3
CAS: 40515-29-5
Molecular weight: 125
m/z	intensity
27	79
28	49
39	60
41	68
43	60
53	29
54	19
55	38
82	50
83	999
84	99
96	40
97	39
110	150
125	59
126	9
