Mass Spectrum: Benzamide, N,N-diphenyl-
Formula: C19H15NO
CAS: 4051-56-3
Molecular weight: 273
m/z	intensity
27	2
28	3
39	7
50	5
51	43
52	2
63	3
64	1
65	5
66	1
74	1
75	2
76	5
77	288
78	19
83	2
89	2
91	1
104	1
105	999
106	82
107	5
115	4
116	1
126	1
127	1
128	1
139	6
140	4
141	2
151	1
152	1
153	1
166	10
167	37
168	17
169	14
170	1
180	142
181	20
182	1
254	2
255	3
272	2
273	371
274	78
275	9
