Mass Spectrum: 2-Propanol, 1-[(2,3-dihydro-1H-inden-4-yl)oxy]-3-[(1-methylethyl)amino]-
Formula: C15H23NO2
CAS: 4051-88-1
Molecular weight: 249
m/z	intensity
50	17
51	43
52	17
53	14
54	17
55	26
56	173
57	39
58	40
60	23
63	19
65	21
72	999
73	67
77	58
78	36
79	31
82	14
84	43
89	11
91	62
92	11
98	28
100	36
102	47
103	33
104	18
105	44
107	10
115	80
116	34
117	78
118	12
119	11
131	29
132	39
133	107
134	111
135	14
145	8
147	29
173	18
205	45
206	7
234	32
249	71
250	12
