Mass Spectrum: 1,3-Cycloheptadiene
Formula: C7H10
CAS: 4054-38-0
Molecular weight: 94
m/z	intensity
25	0
26	8
27	59
29	5
31	1
36	1
37	10
38	24
39	192
40	34
41	58
42	6
43	7
44	0
45	10
46	8
49	4
50	27
51	59
52	26
53	62
54	24
55	8
57	0
60	1
61	6
62	15
63	36
64	5
65	95
66	181
67	38
68	3
70	0
71	0
73	1
74	3
75	2
76	1
77	375
78	59
79	999
80	58
81	2
84	0
85	4
86	3
87	2
88	0
89	8
90	2
91	159
92	15
93	107
94	345
95	25
96	0
97	0
