Mass Spectrum: 2(3H)-Furanone, dihydro-3-(3-methylbutyl)-
Formula: C9H16O2
CAS: 40541-41-1
Molecular weight: 156
m/z	intensity
27	78
28	63
29	83
31	3
39	57
40	10
41	168
42	52
43	88
44	8
45	3
53	15
54	7
55	180
56	71
57	38
58	43
67	10
68	7
69	47
70	15
71	5
73	3
81	9
83	3
85	37
86	999
87	31
95	3
99	150
100	16
113	5
141	2
