Mass Spectrum: Benzene, [1-(1,1-dimethylethyl)-3,3-dimethylbutyl]-
Formula: C16H26
CAS: 40544-18-1
Molecular weight: 218
m/z	intensity
36	0
37	0
38	0
39	19
40	0
41	133
42	3
43	22
44	1
45	0
46	0
49	0
50	3
51	10
52	3
53	6
54	1
55	8
56	8
57	999
58	38
59	1
60	0
62	0
63	3
64	1
65	12
66	0
67	2
68	1
69	10
70	6
71	13
74	0
75	1
76	1
77	22
78	16
79	18
80	1
81	0
83	0
84	0
85	0
89	3
90	0
91	152
92	17
93	0
95	0
97	0
99	0
100	0
101	0
102	2
103	15
104	46
105	251
106	96
107	36
108	3
109	0
110	0
112	0
114	0
115	12
116	6
117	11
118	1
119	12
120	3
121	2
122	0
126	0
127	3
128	6
129	6
130	2
131	9
132	1
133	15
134	2
141	0
142	0
143	1
144	0
145	15
146	2
147	27
148	3
152	0
153	0
154	0
159	0
160	16
161	25
162	214
163	26
164	1
218	3
219	0
