Mass Spectrum: Cyclopentanone, 2-octyl-
Formula: C13H24O
CAS: 40566-23-2
Molecular weight: 196
m/z	intensity
41	120
42	30
43	60
53	10
54	20
55	100
56	20
57	20
67	20
68	10
69	50
70	10
83	90
84	999
85	70
97	160
98	20
111	10
196	60
