Mass Spectrum: Cyclohexanol, 3-(3,3-dimethylbutyl)-
Formula: C12H24O
CAS: 40564-98-5
Molecular weight: 184
m/z	intensity
41	240
42	26
43	115
53	21
54	26
55	122
56	172
57	999
58	43
66	17
67	117
68	61
69	277
70	69
71	43
73	48
74	4
75	2
77	21
79	26
80	39
81	336
82	401
83	69
85	28
95	257
96	37
97	41
99	39
121	28
151	80
166	74
167	17
