Mass Spectrum: 5-Oxo-6-phenylhexanoic acid
Formula: C12H14O3
CAS: 40564-60-1
Molecular weight: 206
m/z	intensity
41	313
42	242
43	999
45	695
47	7
49	34
50	15
51	85
52	18
53	10
55	314
56	8
57	6
58	12
60	34
62	4
63	91
65	299
66	10
67	1
69	29
70	5
71	32
73	21
74	5
75	5
76	3
77	21
78	4
79	2
81	1
82	0
84	32
86	18
87	602
89	47
91	643
92	601
93	35
94	2
95	2
96	0
97	56
99	20
100	0
101	4
102	0
103	8
104	2
105	39
107	5
114	5
115	690
116	25
117	16
118	3
119	2
122	4
127	1
128	2
129	5
130	10
131	8
133	3
134	1
143	2
144	1
145	5
146	6
147	3
155	1
157	1
160	2
161	8
162	0
165	0
171	1
173	14
174	2
175	3
188	8
189	29
190	5
191	1
205	4
206	25
207	3
