Mass Spectrum: Cycloheptanone, 3-(3,3-dimethylbutyl)-
Formula: C13H24O
CAS: 40564-95-2
Molecular weight: 196
m/z	intensity
41	21
42	35
43	75
44	18
45	18
53	27
54	24
55	232
56	75
57	754
58	45
59	54
65	54
66	32
67	156
68	59
69	129
70	56
71	2
72	5
77	5
80	21
81	78
82	156
83	251
84	83
85	108
91	18
93	43
94	21
95	54
96	54
97	127
98	216
99	35
108	8
110	5
111	2
112	999
113	108
114	13
121	29
122	18
123	18
124	16
125	43
126	24
138	18
139	70
140	62
141	16
163	94
164	13
181	27
196	70
197	16
