Mass Spectrum: Benzene, 1,3-dibromo-2,4,6-tris(2,2-dimethylpropyl)-5-nitro-
Formula: C21H33Br2NO2
CAS: 40572-24-5
Molecular weight: 489
m/z	intensity
29	140
39	20
41	190
43	40
55	20
56	20
57	999
58	50
305	20
306	20
323	20
360	50
362	90
364	40
377	20
379	40
381	20
416	20
418	30
420	20
433	20
435	40
437	20
489	1
491	2
493	1
