Mass Spectrum: Lithocholic acid 3-acetate
Formula: C26H42O4
CAS: 4057-84-5
Molecular weight: 418
m/z	intensity
41	257
43	999
45	71
47	2
49	15
51	9
53	69
54	23
55	438
56	7
57	50
59	51
60	82
61	73
65	20
66	3
67	225
68	64
69	104
70	3
71	21
73	28
74	13
77	57
78	10
79	214
80	13
81	280
82	26
83	77
84	7
85	23
87	13
91	132
92	18
93	178
94	68
95	161
96	21
97	27
98	1
99	9
101	15
103	7
104	8
105	128
106	72
107	150
108	73
109	79
110	12
111	12
114	1
115	12
117	25
118	13
119	63
120	44
121	76
122	34
123	32
124	8
125	5
127	8
128	1
129	7
131	28
132	6
133	60
134	35
135	60
136	14
137	10
140	11
141	3
142	2
143	4
144	2
145	44
146	8
147	59
148	26
149	59
150	12
151	11
154	2
157	3
159	33
160	18
161	45
162	37
163	14
165	2
171	5
173	22
174	16
175	27
176	21
177	6
179	1
181	2
185	5
187	18
188	13
189	11
195	1
199	6
201	25
202	10
203	13
209	1
210	2
213	6
214	1
215	166
216	63
217	39
218	17
229	9
230	73
231	16
232	3
248	10
249	7
250	3
257	37
258	7
261	1
262	2
264	2
275	6
285	1
287	1
290	6
303	6
304	12
316	2
343	19
344	1
345	1
357	7
358	133
359	36
360	9
372	14
373	2
418	3
