Mass Spectrum: Benzene, 1,3,5-tris(2,2-dimethylpropyl)-2-nitro-
Formula: C21H35NO2
CAS: 40572-19-8
Molecular weight: 333
m/z	intensity
29	240
40	30
41	290
43	100
53	30
56	20
57	999
58	40
71	20
91	20
119	20
134	20
146	20
147	30
148	50
188	20
202	20
203	20
204	420
205	60
220	30
221	70
244	20
246	30
260	800
261	160
277	210
278	40
318	210
319	50
333	55
334	13
335	7
