Mass Spectrum: Benzene, 1,3,5-tris(2,2-dimethylpropyl)-2-methyl-4,6-dinitro-
Formula: C22H36N2O4
CAS: 40572-21-2
Molecular weight: 392
m/z	intensity
29	140
39	40
41	200
43	30
55	30
56	50
57	999
58	50
207	30
233	20
263	110
264	20
280	70
319	30
336	40
377	60
392	2
393	6
