Mass Spectrum: 4-Chlorobuten-3-yne
Formula: C4H3Cl
CAS: 40589-38-6
Molecular weight: 86
m/z	intensity
49	195
50	465
51	999
52	45
60	105
62	35
84	105
85	120
86	985
87	85
88	305
89	15
