Mass Spectrum: Tartaric acid, methyl ester
Formula: C6H10O6
CAS: 405897-14-5
Molecular weight: 178
m/z	intensity
26	1
27	9
29	149
30	40
31	114
33	533
34	5
39	1
41	5
42	58
43	22
44	3
45	69
46	2
47	3
53	1
55	2
57	8
58	75
59	147
60	95
61	17
62	14
63	73
64	1
69	11
70	4
71	23
72	2
73	104
74	5
75	59
76	3
77	3
85	3
87	4
89	79
90	999
91	153
92	11
101	18
102	3
103	6
104	1
105	1
117	4
118	2
119	366
120	16
121	9
146	0
163	0
179	0
