Mass Spectrum: 3,4-Pentadien-1-ol, 2,2-dimethyl-
Formula: C7H12O
CAS: 4058-52-0
Molecular weight: 112
m/z	intensity
15	87
26	33
27	388
29	298
31	237
37	38
38	87
39	578
40	94
41	830
42	64
43	408
45	117
50	51
51	87
52	33
53	592
54	45
55	351
56	37
57	52
65	107
66	80
67	75
69	80
70	43
73	23
77	140
78	34
79	542
80	130
81	999
82	107
83	41
95	22
97	374
98	20
112	13
