Mass Spectrum: 1,2:3,4-Bis-O-isopropylidene-d-galactopyranose sulfamate
Formula: C12H21NO8S
CAS: 40591-92-2
Molecular weight: 339
m/z	intensity
43	999
55	100
59	305
69	119
71	137
73	49
80	159
81	726
83	60
85	338
97	89
99	59
100	337
109	98
113	197
127	159
143	19
206	59
266	39
324	278
