Mass Spectrum: Ethyl trans-3-methyltetrazole-5-acrylate
Formula: C7H10N4O2
CAS: 40595-01-5
Molecular weight: 182
m/z	intensity
37	104
38	164
39	495
40	166
41	368
42	166
43	263
44	103
45	111
50	200
51	335
52	289
53	999
54	92
55	87
66	108
67	197
68	192
69	307
70	92
79	41
80	52
81	175
82	60
83	75
84	23
85	26
93	39
94	277
95	37
96	300
97	234
98	688
99	21
108	112
109	337
110	103
111	94
112	46
125	49
126	245
127	23
136	67
137	236
138	21
139	50
154	354
155	35
182	70
183	10
