Mass Spectrum: Benzeneethanol, .beta.-ethenyl-.alpha.-methyl-
Formula: C11H14O
CAS: 40596-14-3
Molecular weight: 162
m/z	intensity
25	33
27	16
39	73
40	6
41	20
43	64
45	209
50	18
51	57
52	14
53	6
55	7
57	4
62	12
63	42
64	9
65	58
74	6
75	10
76	8
77	44
78	34
79	7
89	34
90	10
91	192
92	18
102	15
103	34
105	11
115	237
116	96
117	778
118	999
119	93
