Mass Spectrum: Dodecanoic acid, 2-octyl-
Formula: C20H40O2
CAS: 40596-46-1
Molecular weight: 312
m/z	intensity
25	9
26	46
27	174
29	370
30	22
31	38
37	16
38	36
39	168
40	47
41	999
42	281
43	931
44	85
45	71
50	22
51	22
52	29
53	80
54	86
55	922
56	305
57	551
58	44
59	58
60	155
61	11
62	9
65	31
66	32
67	239
68	110
69	594
70	229
71	301
72	32
73	821
74	119
75	12
77	52
78	32
79	85
80	67
81	237
82	113
83	363
84	206
85	150
86	44
87	506
88	41
91	23
93	12
94	36
95	147
96	84
97	278
98	205
99	109
100	22
101	131
102	23
104	23
105	6
106	2
107	2
108	8
109	61
110	37
111	154
112	80
113	18
115	190
116	19
118	20
122	1
123	20
124	13
125	21
127	6
129	476
130	56
131	4
136	12
138	19
139	12
140	15
141	5
143	177
144	26
145	9
147	6
148	14
151	7
154	9
157	178
158	40
165	12
167	10
171	150
172	605
173	57
174	20
178	11
183	13
185	266
186	14
193	5
195	7
199	116
200	421
201	49
210	9
213	123
214	8
215	4
226	5
227	75
228	10
237	7
241	29
242	6
269	33
270	6
312	109
313	23
314	4
