Mass Spectrum: 2,3-Dibenzyl-5-p-nitrobenzoyl-d-arabinose
Formula: C26H25NO8
CAS: 4060-26-8
Molecular weight: 479
m/z	intensity
41	3
43	4
45	1
49	0
50	5
51	9
53	0
55	1
63	5
65	34
68	4
69	5
71	2
75	3
76	10
77	37
79	15
81	5
82	18
83	0
84	1
85	2
86	0
89	10
91	999
92	77
93	1
97	11
104	15
105	145
106	17
107	17
108	12
117	2
120	6
122	5
131	0
132	1
136	0
147	5
150	26
151	3
157	1
158	4
160	2
163	33
164	5
167	0
173	2
175	1
176	16
177	0
181	7
188	6
189	1
191	4
204	54
205	8
282	6
294	14
295	3
311	3
479	0
