Mass Spectrum: Pyridine, 3-(2,4-dinitrophenoxy)-
Formula: C11H7N3O5
CAS: 40604-27-1
Molecular weight: 261
m/z	intensity
39	640
40	50
46	20
50	150
51	720
52	90
53	50
54	20
55	30
61	20
62	110
63	230
64	50
65	50
66	999
67	80
73	20
74	100
75	110
76	50
77	40
78	430
79	350
80	30
82	80
87	40
88	80
89	20
91	30
93	140
94	560
95	50
102	20
107	20
113	100
114	130
115	40
140	140
141	40
142	30
167	930
168	130
169	80
170	30
180	30
183	40
185	20
198	20
244	20
261	330
262	40
