Mass Spectrum: .beta.-Methyl-2-O-benzyl-3,5-O-di-p-nitrobenzoyl-d-arabinofursnose
Formula: C27H24N2O11
CAS: 4060-28-0
Molecular weight: 552
m/z	intensity
41	21
42	3
43	6
44	4
45	13
46	1
50	21
51	10
52	5
53	3
54	0
55	5
56	0
57	3
59	1
60	1
61	8
62	0
63	9
65	45
66	2
68	11
69	6
70	0
71	5
73	2
74	7
75	10
76	51
77	26
78	3
79	6
80	15
81	16
82	1
83	1
84	0
85	4
87	3
89	7
91	999
92	86
93	4
95	0
97	18
98	5
99	6
103	1
104	91
105	69
106	8
107	7
108	2
109	1
111	2
112	1
115	2
117	2
118	1
119	4
120	17
121	11
122	6
129	6
130	6
131	1
133	1
134	15
135	2
136	0
137	1
139	0
145	4
146	1
150	380
151	53
152	5
157	0
158	61
159	6
165	0
167	7
173	1
175	1
181	2
187	4
195	2
210	2
219	1
234	1
235	8
236	46
237	13
238	0
241	24
242	3
246	4
247	16
248	1
255	0
257	0
264	3
312	3
325	1
326	0
372	1
402	4
414	6
415	0
428	1
447	0
461	0
