Mass Spectrum: 2-O-Benzyl 3,5-di-p-nitrobenzoyl-d-arabinoside
Formula: C26H22N2O11
CAS: 4060-29-1
Molecular weight: 538
m/z	intensity
43	54
45	68
46	63
50	64
51	120
75	53
76	72
90	173
91	999
92	141
104	46
105	110
150	214
151	32
388	66
389	25
433	146
434	33
447	65
448	20
538	15
