Mass Spectrum: 3-Methyl-3-trifluoromethyldiaziridine
Formula: C3H5F3N2
CAS: 40618-95-9
Molecular weight: 126
m/z	intensity
31	720
32	90
33	60
39	20
40	120
41	680
42	840
43	100
44	50
45	20
46	170
47	40
48	20
51	700
52	40
53	5
56	110
57	760
58	700
59	50
60	110
61	4
64	80
65	30
66	260
67	20
69	800
70	30
71	4
76	120
77	780
78	50
87	190
88	11
105	840
106	999
107	80
126	550
127	30
128	4
