Mass Spectrum: N-Phenyl-N'-(1,2,2-trimethyl-1-cyano-propyl)diazene
Formula: C13H17N3
CAS: 40620-30-2
Molecular weight: 215
m/z	intensity
27	69
29	68
36	71
39	99
41	187
43	101
44	119
51	121
55	79
57	181
68	59
69	70
77	906
78	241
91	49
94	70
95	49
96	60
102	60
105	999
106	99
131	29
132	30
159	49
172	148
215	9
