Mass Spectrum: Propanedioic acid, 2-propenyl-, dimethyl ester
Formula: C8H12O4
CAS: 40637-56-7
Molecular weight: 172
m/z	intensity
25	2
26	61
27	448
28	76
29	106
30	17
31	41
33	11
35	13
36	3
37	9
38	21
39	339
40	30
41	534
42	65
43	90
44	9
45	81
46	2
47	38
48	7
49	99
50	37
51	85
52	54
53	522
54	149
55	257
56	23
57	27
58	40
59	596
60	17
61	5
62	1
63	1
64	0
65	8
66	7
67	44
68	20
69	219
70	24
71	327
72	23
73	6
74	15
75	10
76	1
77	4
78	1
79	13
80	55
81	990
82	354
83	41
84	137
85	71
86	80
87	12
88	11
91	5
92	1
93	5
94	2
95	6
96	4
97	236
98	19
99	12
100	66
101	29
102	2
103	0
104	1
105	4
106	1
107	1
108	329
109	728
110	54
111	254
112	858
113	999
114	71
115	10
116	0
117	0
118	0
119	2
120	1
121	2
122	0
123	0
125	3
126	0
127	4
128	10
129	1
130	1
131	0
132	43
133	3
134	1
135	0
137	0
138	1
139	7
140	125
141	119
142	10
143	1
144	0
145	1
148	0
149	1
150	1
151	0
152	1
153	1
157	0
171	1
172	11
173	5
174	0
