Mass Spectrum: Ethanimidamide, 2-chloro-N-(1,2-dichloroethenyl)-
Formula: C4H5Cl3N2
CAS: 40645-66-7
Molecular weight: 186
m/z	intensity
42	644
49	266
51	88
75	999
76	855
77	344
78	277
151	300
153	200
155	61
186	166
188	166
190	55
