Mass Spectrum: Cyclohexene, 1-bromo-6-methyl-
Formula: C7H11Br
CAS: 40648-09-7
Molecular weight: 174
m/z	intensity
12	1
13	2
14	8
15	75
16	1
25	2
26	32
27	178
28	26
29	36
30	0
36	1
37	14
38	39
39	236
40	37
41	158
42	10
43	11
44	3
45	14
46	13
49	5
50	82
51	138
52	59
53	164
54	24
55	141
56	7
57	1
60	2
61	13
62	25
63	50
64	11
65	80
66	40
67	298
68	23
69	6
73	3
74	9
75	8
76	4
77	139
78	41
79	206
80	73
81	41
82	10
83	5
85	2
86	2
87	1
88	1
89	4
90	2
91	41
92	6
93	48
94	20
95	999
96	76
97	3
104	2
105	3
106	2
107	4
108	1
109	12
110	4
111	2
116	0
117	4
118	1
119	7
121	3
130	1
131	1
132	8
133	14
134	8
135	13
143	0
144	0
145	1
146	15
147	1
148	13
149	1
156	1
157	1
158	2
159	7
160	3
161	7
162	2
174	103
175	8
176	100
177	7
