Mass Spectrum: Propanimidamide, 2-chloro-N-(1,2-dichloro-1-propenyl)-
Formula: C6H9Cl3N2
CAS: 40645-80-5
Molecular weight: 214
m/z	intensity
54	934
56	586
63	413
65	130
89	999
90	739
91	423
92	250
143	293
145	97
151	260
153	173
155	54
179	739
181	500
183	152
214	445
216	445
218	152
