Mass Spectrum: Cyclohexene, 1-(1,1-dimethylethoxy)-2-methyl-
Formula: C11H20O
CAS: 40648-26-8
Molecular weight: 168
m/z	intensity
27	229
29	274
39	228
41	453
43	104
53	109
55	282
57	320
67	69
69	206
83	195
84	424
95	121
97	613
98	43
111	99
112	999
113	76
153	12
154	0
168	9
169	1
