Mass Spectrum: Butanimidamide, N-(1-chloro-2-methyl-1-butenyl)-2-methyl-
Formula: C10H19ClN2
CAS: 40645-73-6
Molecular weight: 202
m/z	intensity
27	350
28	380
29	589
36	209
38	70
41	430
54	460
55	999
57	519
68	490
83	400
84	330
167	30
202	20
204	10
