Mass Spectrum: 2-Methylenecyclohexanol
Formula: C7H12O
CAS: 4065-80-9
Molecular weight: 112
m/z	intensity
38	50
39	820
40	195
41	999
42	336
43	573
44	105
45	47
46	2
47	5
48	2
49	2
50	44
51	110
52	58
53	268
54	113
55	904
56	241
57	225
58	132
59	6
61	2
62	9
63	29
64	7
65	85
66	79
67	294
68	302
69	459
70	339
71	109
72	5
73	3
74	2
75	4
76	1
77	120
78	25
79	332
80	34
81	151
82	29
83	741
84	473
85	30
86	2
87	0
89	2
90	1
91	51
92	6
93	44
94	123
95	30
96	7
97	547
98	38
99	2
109	2
110	2
111	60
112	314
113	25
114	1
