Mass Spectrum: 3,6,9,12-Tetraazatetradecane-1,14-diamine
Formula: C10H28N6
CAS: 4067-16-7
Molecular weight: 232
m/z	intensity
41	54
42	186
43	115
44	999
45	31
46	1
47	9
48	3
52	3
53	4
54	21
55	30
56	266
57	56
58	142
59	12
60	5
61	54
62	1
63	3
67	6
68	21
69	24
70	159
71	50
72	19
73	295
74	20
75	25
76	0
77	1
78	2
80	3
81	5
82	16
83	47
84	73
85	113
86	42
87	137
88	12
89	0
93	1
94	4
95	9
96	9
97	81
98	67
99	261
100	32
101	38
102	3
104	39
105	2
107	2
108	4
109	4
110	4
111	30
112	31
113	44
114	11
116	112
117	7
118	6
122	2
123	3
124	7
125	48
126	35
127	52
128	45
129	28
130	60
131	3
132	1
136	1
137	2
138	23
139	9
140	36
141	18
142	138
143	15
144	4
145	1
147	34
148	2
151	0
152	3
153	4
154	7
155	16
156	5
157	2
159	62
160	5
161	0
166	0
167	0
168	4
169	6
170	3
171	5
172	0
173	5
200	8
201	20
202	186
203	16
204	9
214	0
215	26
216	96
217	8
218	1
230	6
231	10
232	69
234	7
