Mass Spectrum: 2H-Thiopyran, 5,6-dihydro-
Formula: C5H8S
CAS: 40697-99-2
Molecular weight: 100
m/z	intensity
45	190
46	100
47	30
50	40
51	40
53	90
54	350
55	50
58	50
59	60
65	160
66	60
67	230
69	40
71	90
85	470
86	40
97	50
99	949
100	999
