Mass Spectrum: Thiourea, 1-phenyl-3-[(methylthio)-(diphenylamino)methylidene]-
Formula: C21H19N3S2
CAS: 40699-82-9
Molecular weight: 377
m/z	intensity
41	4
42	6
43	3
44	11
45	25
46	9
47	19
48	4
49	23
50	37
51	207
52	20
58	5
59	7
60	2
61	3
62	6
63	21
64	9
65	49
66	14
67	4
69	6
70	11
72	3
74	37
75	7
77	999
78	41
79	14
81	3
84	2
89	6
90	5
91	30
92	21
93	6
96	2
97	4
102	24
103	10
104	24
108	9
109	36
110	4
111	2
114	2
115	22
116	5
117	6
118	8
119	2
123	2
124	7
128	4
134	10
135	89
136	25
137	4
138	3
139	14
140	14
141	11
142	4
143	4
149	7
150	37
151	17
152	21
153	6
154	3
161	60
164	5
166	46
167	195
168	191
169	154
170	19
175	3
176	2
177	5
178	17
179	14
180	21
182	6
184	3
188	5
192	6
193	31
194	28
195	266
196	37
197	4
205	13
207	3
210	3
211	7
212	80
213	12
214	7
219	3
220	29
221	5
222	4
224	4
225	19
226	4
227	10
228	3
237	30
238	7
239	36
240	10
241	77
242	31
243	5
251	6
252	22
253	3
258	2
259	9
260	2
266	4
268	300
269	50
270	9
271	2
285	310
286	80
287	31
288	4
296	5
298	29
299	11
300	4
328	9
330	80
331	19
332	4
344	18
345	6
361	56
362	722
363	182
364	71
365	5
376	24
377	195
378	40
379	14
380	4
