Mass Spectrum: 8-Thiabicyclo[3.2.1]octan-3-one, 8-thiabicyclo[3.2.1]oct-3-ylidenehydrazone
Formula: C14H20N2S2
CAS: 40697-29-8
Molecular weight: 280
m/z	intensity
65	430
67	360
69	240
71	280
77	100
79	250
81	200
85	470
97	330
98	190
99	999
106	190
139	609
140	360
141	250
142	280
247	290
280	659
