Mass Spectrum: 1-Pentacontanol
Formula: C50H102O
CAS: 40710-43-8
Molecular weight: 718
m/z	intensity
24	2
25	23
26	78
27	34
28	58
30	29
38	8
39	78
40	17
41	324
42	113
43	695
45	11
51	8
53	23
54	75
55	510
56	281
57	999
58	46
66	17
67	121
68	194
69	463
70	208
71	594
72	34
77	5
79	14
80	17
81	107
82	252
83	492
84	118
85	373
86	23
91	5
93	5
94	11
95	86
96	147
97	402
98	72
99	78
100	2
107	2
108	2
109	49
110	52
111	191
112	46
113	46
121	5
122	2
123	26
124	29
125	81
126	23
127	29
137	17
138	23
139	37
140	17
141	20
151	5
152	20
153	26
154	11
155	20
166	11
167	20
168	11
169	11
180	8
181	17
182	5
183	8
194	5
195	5
196	5
197	5
208	5
209	5
210	2
211	2
222	5
223	5
224	2
225	2
236	5
237	5
238	2
239	2
250	2
251	2
252	2
253	2
264	5
265	2
292	2
293	2
306	2
307	2
308	2
309	2
321	2
334	2
335	2
362	2
390	2
698	37
699	17
700	52
701	26
702	5
718	2
