Mass Spectrum: Hexafluoroisopropanol, TMS derivative
Formula: C6H10F6OSi
CAS: 4071-95-8
Molecular weight: 240
m/z	intensity
27	4
28	2
29	15
30	1
31	3
32	1
33	1
39	1
41	2
42	7
43	35
44	9
45	39
46	3
47	55
48	4
49	43
50	3
51	32
53	5
54	1
55	8
56	2
57	4
58	5
59	9
60	4
61	4
62	6
63	69
64	5
65	26
66	1
67	3
69	41
70	2
71	2
72	7
73	246
74	22
75	16
76	23
77	999
78	75
79	45
80	3
81	32
82	6
83	2
85	2
89	1
91	9
92	1
93	2
95	1
97	31
98	2
99	1
100	1
101	93
102	2
105	2
109	1
110	1
111	1
112	1
113	9
117	1
125	6
126	1
127	1
128	4
129	226
130	7
131	1
147	1
156	2
160	2
171	1
175	24
176	2
177	1
224	2
225	107
226	11
227	4
