Mass Spectrum: Hexacontanoic acid, methyl ester
Formula: C61H122O2
CAS: 40710-35-8
Molecular weight: 886
m/z	intensity
15	20
16	5
17	47
18	176
20	5
26	26
27	41
28	88
29	67
30	5
31	8
32	11
39	32
40	14
41	161
42	55
43	523
44	35
45	5
50	14
51	2
52	2
53	8
54	47
55	314
56	191
57	999
58	52
59	20
60	5
61	17
66	5
67	73
68	76
69	341
70	123
71	626
72	44
73	17
74	488
75	652
76	29
77	8
78	2
79	11
80	14
81	82
82	94
83	352
84	105
85	420
86	32
87	558
88	52
91	5
93	11
94	11
95	79
96	70
97	300
98	94
99	105
100	14
101	41
102	8
103	5
107	8
108	5
109	47
110	29
111	158
112	38
113	61
114	5
115	32
116	20
121	17
122	5
123	26
124	17
125	76
126	20
127	38
128	2
129	64
130	26
135	20
136	5
137	14
138	8
139	38
140	14
141	26
143	144
144	20
149	11
151	2
152	5
153	23
154	11
155	20
157	17
158	2
163	5
167	17
168	5
169	11
171	11
177	2
181	11
182	8
183	11
185	23
186	5
195	14
196	5
197	5
199	23
200	5
209	5
210	5
211	5
213	5
223	5
224	5
225	5
227	5
241	11
242	2
251	2
252	2
255	5
270	2
271	2
280	5
283	5
307	5
308	5
321	2
322	2
335	2
336	2
339	8
340	5
382	23
383	8
787	2
788	5
801	2
802	5
803	5
843	29
844	20
845	5
852	20
853	35
854	20
855	20
856	5
857	5
858	5
859	5
884	2
885	23
886	817
887	555
888	226
889	52
890	8
