Mass Spectrum: Hexacontanoic acid, propyl ester
Formula: C63H126O2
CAS: 40710-40-5
Molecular weight: 914
m/z	intensity
15	5
16	4
17	9
18	47
25	2
26	11
27	28
28	21
29	42
30	1
31	8
36	1
37	2
38	2
39	21
40	7
41	110
42	56
43	537
44	19
45	4
49	1
50	2
51	2
52	1
53	6
54	27
55	242
56	161
57	999
58	44
59	20
60	89
61	322
62	9
63	2
65	1
66	4
67	54
68	57
69	295
70	121
71	671
72	36
73	174
74	15
75	5
77	2
78	2
79	7
80	11
81	65
82	84
83	34
84	88
85	456
86	30
87	39
88	5
89	5
91	3
92	2
93	7
94	10
95	66
96	64
97	302
98	94
99	117
100	9
101	26
102	181
103	463
104	27
105	4
106	1
107	7
108	5
109	40
110	24
111	154
112	33
113	67
114	7
115	342
116	46
117	8
118	1
119	2
120	2
121	12
122	4
123	26
124	13
125	75
126	16
127	44
128	5
129	98
130	11
131	2
132	1
133	2
134	1
135	13
136	3
137	13
138	9
139	41
140	11
141	31
142	4
143	21
144	13
145	2
147	1
148	1
149	10
150	2
151	7
152	5
153	26
154	8
155	21
156	3
157	34
158	19
159	2
161	1
162	1
163	7
164	1
165	4
166	4
167	18
168	5
169	16
170	2
171	91
172	15
173	2
175	1
176	1
177	5
178	1
179	3
180	3
181	13
182	5
183	12
184	2
185	30
186	5
187	1
189	1
191	3
192	1
193	2
194	2
195	11
196	4
197	9
198	2
199	11
200	4
201	1
205	2
206	1
207	1
208	2
209	9
210	4
211	7
212	1
213	14
214	5
215	1
219	2
220	1
221	1
222	2
223	7
224	3
225	6
226	1
227	18
228	4
229	1
233	1
234	1
235	2
236	2
237	6
238	3
239	5
240	1
241	11
242	3
243	1
247	1
248	1
249	1
250	2
251	5
252	3
253	4
254	1
255	7
256	2
257	1
261	1
262	1
263	1
264	2
265	5
266	2
267	3
268	1
269	7
270	3
271	1
275	1
276	1
277	1
278	2
279	4
280	2
281	3
282	1
283	7
284	2
285	1
289	1
290	1
291	1
292	2
293	4
294	2
295	3
296	1
297	5
298	2
299	1
303	1
305	1
306	2
307	4
308	2
309	2
310	1
311	4
312	2
313	1
317	1
319	1
320	2
321	3
322	2
323	2
324	1
325	3
326	2
327	1
331	1
333	1
334	2
335	3
336	2
337	2
338	1
339	3
340	2
341	1
347	1
348	2
349	3
350	2
351	2
352	1
353	3
354	2
355	1
361	1
362	1
363	3
364	2
365	1
367	2
368	2
369	1
375	1
376	1
377	3
378	2
379	1
381	2
382	1
383	1
389	1
390	1
391	3
392	2
393	1
395	2
396	1
397	1
403	1
404	1
405	28
406	2
407	1
409	2
410	1
411	1
417	1
418	1
419	3
420	2
421	1
423	2
424	1
425	1
431	1
432	1
433	3
434	2
435	1
437	1
438	1
439	1
445	1
446	1
447	2
448	2
449	1
451	1
452	1
453	1
459	1
460	1
461	2
462	1
463	1
465	1
466	1
467	1
473	1
474	1
475	2
476	1
477	1
479	1
480	1
481	1
487	1
488	1
489	2
490	1
491	1
493	1
494	1
495	1
501	1
502	1
503	2
504	1
505	1
507	1
508	1
509	1
515	1
516	1
517	2
518	1
519	1
521	1
522	1
523	1
529	1
530	1
531	2
532	1
533	1
535	1
536	1
543	1
544	1
545	2
546	1
547	1
549	1
550	1
557	1
558	1
559	2
560	1
561	1
563	1
564	1
571	1
572	1
573	2
574	1
575	1
577	1
578	1
579	1
585	1
586	1
587	2
588	1
589	1
591	1
592	1
593	1
600	1
601	2
602	1
603	1
605	1
606	1
607	1
613	1
614	1
615	2
616	1
617	1
619	1
620	1
621	1
628	1
629	2
630	1
631	1
633	1
634	1
642	1
643	2
644	1
645	1
647	1
648	1
649	1
655	1
656	1
657	1
658	1
659	1
661	1
662	1
663	1
670	1
671	1
672	1
673	1
675	1
676	1
677	1
684	1
685	2
686	1
687	1
689	1
690	1
691	1
698	1
699	1
700	1
701	1
703	1
704	1
705	1
712	1
713	1
714	1
715	1
717	2
718	1
719	1
727	1
728	1
731	1
732	1
733	1
740	1
741	1
742	1
743	1
745	1
746	1
754	1
755	1
756	1
757	1
759	1
760	1
761	1
768	1
769	1
770	1
771	1
773	6
774	4
775	2
783	1
784	1
787	3
788	2
789	1
797	1
798	1
801	1
802	1
803	1
810	1
811	2
812	1
815	2
816	2
817	1
824	1
825	1
826	1
827	1
829	19
830	13
831	4
835	2
836	2
837	3
838	2
839	1
840	1
843	3
844	2
845	1
851	1
852	24
853	42
854	27
855	28
856	15
857	5
858	2
859	1
870	1
871	9
872	68
873	79
874	36
875	11
876	2
881	1
885	1
886	1
887	1
899	1
900	4
901	3
902	1
912	2
913	5
914	503
915	349
916	121
917	28
918	5
919	1
