Mass Spectrum: Pentacontanoic acid, 18-oxo-
Formula: C50H98O3
CAS: 40710-26-7
Molecular weight: 746
m/z	intensity
15	5
16	5
17	26
18	147
26	23
27	41
28	76
29	94
39	29
40	5
41	250
42	64
43	764
44	67
45	14
52	14
53	52
54	514
56	164
57	999
58	311
59	455
60	50
61	14
66	5
67	147
68	105
69	499
70	111
71	558
72	38
73	50
79	20
80	32
81	208
82	220
83	485
84	111
85	317
86	20
87	8
93	26
94	26
95	252
96	258
97	376
98	244
99	64
100	52
101	17
105	2
107	23
108	17
109	141
110	61
111	147
112	79
113	47
114	32
115	17
118	2
119	2
121	35
122	14
123	70
124	26
125	73
126	32
127	35
128	17
129	14
135	32
136	5
137	35
138	20
139	29
140	23
141	17
142	17
143	5
149	20
150	2
151	20
152	20
153	20
154	23
155	14
156	38
157	17
163	5
165	2
166	2
167	5
168	23
169	5
170	5
177	2
179	2
181	5
182	58
183	17
192	2
194	8
195	5
196	135
197	23
198	2
208	2
209	2
210	20
211	2
233	2
234	2
236	73
237	50
238	14
250	2
251	23
252	70
253	41
254	38
255	5
264	5
265	11
266	17
268	2
269	20
270	2
276	11
277	23
278	8
279	76
280	20
281	5
294	5
295	311
296	147
297	26
298	108
299	20
307	26
308	23
310	14
312	602
313	152
314	20
350	17
432	26
433	14
434	5
474	58
475	26
476	26
477	123
478	47
479	5
492	267
493	247
494	76
495	14
687	20
688	11
726	14
727	64
728	100
729	44
730	14
746	52
747	29
748	5
