Mass Spectrum: Hentetracontanoic acid, 18-oxo-
Formula: C41H80O3
CAS: 40710-25-6
Molecular weight: 620
m/z	intensity
15	14
16	20
17	29
18	167
25	2
26	23
27	52
28	285
29	129
36	5
39	35
40	17
41	294
42	82
43	852
44	264
45	23
53	17
54	61
55	617
56	164
57	999
58	414
59	441
60	79
61	14
66	5
67	182
68	123
69	573
70	120
71	620
72	52
73	76
74	23
75	17
79	26
80	38
81	258
82	264
83	520
84	147
85	323
86	23
87	20
91	5
93	35
94	35
95	311
96	344
97	379
98	308
99	73
100	70
101	23
105	2
107	29
108	20
109	173
110	85
111	158
112	97
113	50
114	47
115	20
119	2
121	47
122	17
123	82
124	38
125	82
126	35
127	52
128	23
129	20
130	2
135	38
136	11
137	41
138	29
139	32
140	35
141	20
142	26
143	14
149	23
150	2
151	23
152	20
153	20
154	35
155	17
156	50
157	23
163	20
164	5
165	8
166	8
167	11
168	32
169	11
170	17
171	2
177	2
179	2
180	2
181	8
182	76
183	17
184	2
185	2
192	5
194	17
195	14
196	173
197	29
198	2
208	14
209	5
210	29
211	11
218	2
219	2
222	2
223	5
224	5
234	5
235	2
237	105
238	70
239	20
250	14
251	23
252	85
253	52
254	47
255	17
264	11
265	14
266	20
267	5
268	17
269	26
276	17
277	32
278	17
279	88
280	23
281	5
292	5
293	5
294	358
295	144
296	26
297	141
298	26
306	50
307	50
308	38
309	8
310	20
311	20
312	852
313	205
314	26
321	5
322	8
323	8
324	5
325	14
326	108
327	35
348	58
349	23
350	61
362	5
363	2
364	14
365	2
366	494
367	408
368	94
369	14
379	20
380	2
384	5
393	14
394	5
408	5
505	8
519	5
559	2
560	2
561	35
562	17
574	2
583	2
584	5
600	11
601	76
602	120
603	55
604	17
620	132
621	58
622	14
