Mass Spectrum: Pentacontanoic acid, ethyl ester
Formula: C52H104O2
CAS: 40710-37-0
Molecular weight: 760
m/z	intensity
12	2
13	2
14	6
15	16
16	13
17	72
18	313
19	2
20	3
24	2
25	5
26	30
27	63
28	66
29	103
30	5
31	13
32	4
36	2
37	4
38	6
39	50
40	13
41	194
42	72
43	563
44	28
45	27
46	3
47	2
49	3
50	11
51	13
52	16
53	19
54	48
55	375
56	175
57	999
58	47
59	14
60	47
61	53
62	2
63	3
64	2
65	5
66	7
67	86
68	72
69	375
70	150
71	625
72	38
73	81
74	17
75	22
76	2
77	9
78	6
79	38
80	16
81	94
82	88
83	391
84	91
85	406
86	30
87	16
88	656
89	594
90	31
91	16
92	4
93	14
94	10
95	81
96	66
97	313
98	73
99	81
100	7
101	594
102	50
103	6
104	2
105	6
106	3
107	14
108	6
109	53
110	28
111	141
112	33
113	45
114	5
115	45
116	8
117	5
118	2
119	4
120	2
121	19
122	5
123	28
124	16
125	66
126	17
127	28
128	4
129	27
130	19
131	3
132	2
133	3
134	3
135	19
136	4
137	14
138	9
139	34
140	9
141	16
142	3
143	48
144	25
145	4
146	2
147	3
148	2
149	14
150	3
151	7
152	6
153	20
154	7
155	11
156	3
157	116
158	16
159	3
161	2
163	8
164	2
165	4
166	4
167	13
168	4
169	8
170	2
171	13
172	3
177	5
179	3
180	3
181	8
182	4
183	7
185	10
186	4
191	4
193	3
194	3
195	7
196	4
197	5
199	16
200	5
205	3
207	2
208	3
209	6
210	3
211	4
213	19
214	4
219	3
221	2
222	3
223	5
224	3
225	3
227	8
228	3
233	2
235	2
236	3
237	5
238	3
239	3
241	8
242	3
247	2
249	2
250	3
251	4
252	3
253	3
255	7
256	3
261	2
263	2
264	3
265	4
266	2
267	2
269	7
270	3
277	2
278	3
279	4
280	3
281	2
283	6
284	3
285	2
289	2
291	2
292	3
293	3
294	2
295	2
297	5
298	3
306	2
307	4
308	2
309	2
311	5
312	3
319	2
320	2
321	3
322	2
323	2
325	5
326	3
333	2
334	2
335	3
336	2
339	5
340	3
347	2
348	2
349	3
350	2
353	3
354	2
362	2
363	3
364	2
367	3
368	3
376	2
377	3
378	2
381	3
382	2
390	2
391	3
392	2
395	3
396	2
404	2
405	3
406	2
409	3
410	2
418	2
419	3
420	2
423	2
424	2
433	3
434	2
437	2
438	2
447	3
448	2
451	2
452	2
461	3
462	2
465	2
466	2
475	3
476	2
479	2
480	2
489	2
490	2
493	2
494	2
503	2
507	2
508	1
517	2
518	2
521	1
522	2
531	2
536	2
545	2
550	2
559	2
564	1
573	2
578	2
587	2
592	1
601	2
606	1
615	2
620	1
629	1
634	1
643	1
648	1
657	1
661	3
662	3
670	2
671	1
672	2
675	2
676	2
695	2
696	2
703	2
704	3
712	16
713	23
714	11
715	16
716	8
717	16
718	8
719	3
731	3
732	3
746	13
758	3
759	7
760	516
761	313
762	88
763	19
764	3
