Mass Spectrum: Pentacontanoic acid, methyl ester
Formula: C51H102O2
CAS: 40710-34-7
Molecular weight: 746
m/z	intensity
15	20
17	23
18	112
26	20
27	38
28	30
29	88
30	11
31	23
39	26
40	17
41	138
42	50
43	573
44	138
45	11
46	14
50	5
51	5
52	5
53	14
54	41
55	329
56	158
57	999
58	52
59	26
60	26
61	20
64	8
66	5
67	76
68	67
69	373
70	129
71	641
72	38
73	29
74	635
75	641
76	35
77	11
78	8
79	17
80	17
81	82
82	85
83	373
84	94
85	435
86	32
87	841
88	79
89	17
91	17
92	5
93	17
94	14
95	82
96	67
97	323
98	100
99	108
100	17
101	76
102	20
103	5
104	5
105	5
107	20
108	14
109	52
110	29
111	152
112	41
113	67
114	11
115	44
116	38
117	8
118	2
119	2
120	2
121	26
122	11
123	38
124	20
125	82
126	23
127	47
128	14
129	117
130	52
135	29
136	5
137	20
138	14
139	50
140	20
141	32
142	2
143	344
144	38
145	2
149	20
150	2
151	14
152	5
153	32
154	17
155	23
156	2
157	35
158	5
163	17
165	2
166	2
167	23
168	14
169	20
171	26
172	17
177	11
178	2
179	2
180	2
181	20
182	14
183	20
185	52
186	20
191	5
195	14
196	14
197	14
199	79
200	20
205	2
209	14
210	14
211	14
213	20
214	8
219	2
220	2
223	14
224	5
225	8
227	17
228	5
233	2
237	14
238	5
239	5
241	23
242	8
250	2
251	2
252	2
255	23
265	5
266	5
269	17
279	5
280	5
281	5
283	8
297	5
298	2
310	5
311	5
489	2
491	2
561	2
581	8
605	8
620	11
647	35
648	20
649	5
661	23
662	14
663	5
689	17
690	20
691	14
703	102
704	52
705	20
712	17
713	23
714	20
715	23
716	17
717	20
718	20
719	8
745	20
746	970
747	588
748	167
749	35
750	5
