Mass Spectrum: 7,7-Dimethyl-2,3-dioxobicyclo[2.2.1]heptane-1-carboxylic acid, methyl ester
Formula: C11H14O4
CAS: 40724-68-3
Molecular weight: 210
m/z	intensity
20	1
25	0
26	13
27	169
28	57
29	69
30	2
31	7
32	4
33	2
37	1
38	7
39	178
40	40
41	402
42	31
43	49
44	5
45	35
46	3
47	1
49	0
50	11
51	47
52	35
53	156
54	33
55	999
56	45
57	11
58	1
59	166
60	8
61	3
62	2
63	9
64	4
65	53
66	20
67	400
68	153
69	369
70	22
71	5
72	2
73	93
74	5
75	1
76	2
77	133
78	30
79	273
80	56
81	36
82	39
83	22
84	2
85	30
86	12
87	3
88	1
89	1
90	2
91	34
92	6
93	77
94	85
95	721
96	133
97	15
98	6
99	3
100	0
101	2
102	1
103	1
104	4
105	19
106	4
107	99
108	78
109	17
110	5
111	38
112	5
113	360
114	24
115	4
118	0
119	2
120	3
121	13
122	367
123	605
124	61
125	12
126	35
127	19
128	2
129	0
131	1
132	4
133	25
134	5
135	44
136	6
137	5
138	3
139	146
140	24
141	4
142	0
146	0
147	1
148	0
149	12
150	296
151	229
152	23
153	4
154	554
155	55
156	5
157	1
163	1
164	4
165	2
166	1
167	116
168	13
169	1
170	0
175	0
177	0
178	4
179	29
180	3
181	2
182	355
183	39
184	4
193	1
194	2
195	2
196	0
207	0
209	0
210	81
211	10
212	1
