Mass Spectrum: 1-Butene, 3,3,4,4-tetrafluoro-
Formula: C4H4F4
CAS: 40723-71-5
Molecular weight: 128
m/z	intensity
27	205
31	68
33	21
39	70
51	475
57	59
59	80
69	11
75	42
77	999
78	33
82	23
89	103
100	4
101	9
109	31
128	23
