Mass Spectrum: 1,5-Octadiene, 3,3,4,4,7,7,8,8,8-nonafluoro-
Formula: C8H5F9
CAS: 40723-75-9
Molecular weight: 272
m/z	intensity
27	21
31	10
38	3
39	5
51	160
56	5
57	32
69	51
75	39
77	999
78	33
95	28
113	8
119	4
126	25
145	45
163	7
175	5
183	14
195	22
203	3
213	3
233	6
253	3
272	0
