Mass Spectrum: 1-Hexene, 3,3,4,4-tetrafluoro-6-iodo-
Formula: C6H7F4I
CAS: 40723-84-0
Molecular weight: 282
m/z	intensity
26	20
27	130
31	20
33	11
39	31
41	21
47	98
51	171
57	35
59	40
65	39
75	30
77	999
78	33
91	70
95	30
109	24
115	39
127	51
128	10
135	70
141	58
155	122
185	5
205	10
263	1
282	172
283	12
