Mass Spectrum: Pentane, 1,1,2,2,3,3,4,4-octafluoro-
Formula: C5H4F8
CAS: 40723-64-6
Molecular weight: 216
m/z	intensity
15	20
27	10
31	69
33	21
44	21
45	198
46	30
51	624
57	31
64	73
65	999
66	22
69	292
75	31
77	100
82	62
93	11
95	139
96	81
100	50
101	122
109	10
113	98
115	26
119	30
127	148
131	50
145	15
146	11
151	6
157	6
177	24
197	8
201	7
216	0
