Mass Spectrum: 3-Hexene, 1,1,2,2,5,5,6,6-octafluoro-
Formula: C6H4F8
CAS: 40723-73-7
Molecular weight: 228
m/z	intensity
31	48
38	20
39	35
51	999
52	11
57	113
65	104
69	82
75	83
77	129
82	20
88	19
89	32
95	231
101	69
107	34
108	78
113	463
114	16
126	130
127	155
139	118
157	132
158	26
169	7
177	619
178	34
189	100
209	5
228	7
