Mass Spectrum: 6H-Furo[2',3':4,5]oxazolo[3,2-a]pyrimidin-6-one, 2-[(acetyloxy)methyl]-2,3,3a,9a-tetrahydro-3-[(trimethylsilyl)oxy]-, [2R-(2.alpha.,3.beta.,3a.beta.,9a.beta.)]-
Formula: C14H20N2O6Si
CAS: 40732-60-3
Molecular weight: 340
m/z	intensity
52	30
53	40
54	30
55	130
56	70
57	320
58	30
61	50
67	50
68	60
69	100
70	60
71	160
72	60
73	999
74	120
75	490
76	50
77	60
79	50
81	80
82	50
83	60
84	70
85	130
86	40
89	70
93	60
95	60
96	100
97	70
98	60
99	60
100	50
101	60
102	40
103	80
105	60
116	50
117	380
118	50
128	180
129	160
130	30
135	60
136	170
137	480
138	50
143	230
144	40
145	210
146	40
147	130
148	60
149	80
168	100
169	780
170	170
171	150
172	40
173	60
179	60
195	50
196	60
197	30
209	450
210	90
211	50
217	70
237	40
238	40
239	210
240	50
253	60
263	50
265	40
280	30
281	120
282	30
283	320
284	70
297	80
306	40
325	100
326	30
340	160
341	60
342	20
