Mass Spectrum: N-Methanesulfonylimidazole
Formula: C4H6N2O2S
CAS: 40736-26-3
Molecular weight: 146
m/z	intensity
25	1
26	9
27	13
28	74
29	19
30	2
31	6
33	5
34	3
37	0
38	26
39	64
40	382
41	136
42	38
43	2
44	3
45	21
46	11
47	9
48	36
49	4
50	3
51	4
52	6
53	4
54	41
55	21
56	3
57	1
58	0
59	1
60	10
61	0
62	2
63	42
64	30
65	14
66	22
67	76
68	999
69	45
70	1
71	0
72	1
73	0
74	2
75	1
76	2
77	3
78	13
79	283
80	8
81	42
82	12
83	1
84	0
87	2
88	1
89	0
90	1
91	0
103	1
115	0
116	0
117	1
129	0
130	0
131	0
146	549
147	35
148	28
149	3
150	0
