Mass Spectrum: d-Arabinose, cyclic 1,2-ethanediyl mercaptal, tetraacetate
Formula: C15H22O8S2
CAS: 40733-16-2
Molecular weight: 394
m/z	intensity
44	280
45	999
46	63
47	70
48	16
49	16
50	35
51	35
52	18
53	35
54	16
55	56
56	16
57	56
58	100
59	130
60	102
61	336
62	16
63	23
64	18
65	14
66	7
67	7
68	18
69	46
70	14
71	42
72	14
73	65
74	16
75	9
76	28
77	58
78	14
79	18
81	16
82	7
83	7
84	16
85	44
86	18
87	37
88	9
89	18
90	9
91	16
92	7
93	4
97	18
98	2
99	4
100	2
101	7
102	14
103	37
104	4
105	999
106	58
107	93
108	4
111	14
112	7
113	14
115	23
116	9
117	4
118	16
119	16
120	4
127	11
129	4
131	18
134	16
135	7
144	18
145	14
147	105
148	7
149	14
159	16
160	14
161	4
171	4
172	16
173	18
186	35
187	7
189	39
190	4
202	1
203	1
204	1
214	0
215	1
231	4
232	4
233	1
246	1
274	10
275	2
276	1
334	0
335	0
