Mass Spectrum: 6H-Furo[2',3':4,5]oxazolo[3,2-a]pyrimidin-6-one, 3-(acetyloxy)-2,3,3a,9a-tetrahydro-2-[[(trimethylsilyl)oxy]methyl]-, [2R-(2.alpha.,3.beta.,3a.beta.,9a.beta.)]-
Formula: C14H20N2O6Si
CAS: 40732-58-9
Molecular weight: 340
m/z	intensity
53	50
55	70
57	50
59	90
61	40
67	30
68	70
69	60
70	60
71	30
72	50
73	999
74	100
75	430
76	40
77	50
81	80
82	40
83	40
84	40
85	80
89	60
95	60
96	120
97	100
98	50
99	40
100	90
101	70
103	410
104	50
105	40
108	60
109	40
113	90
116	40
117	250
118	30
125	50
126	70
127	40
129	90
136	150
137	630
138	60
139	50
145	310
146	40
147	40
148	120
149	280
150	30
166	50
167	60
168	40
169	280
170	80
171	480
172	60
177	60
179	80
180	50
183	120
184	90
185	300
186	220
187	410
188	70
189	40
191	380
192	50
199	150
207	30
208	40
209	190
210	40
215	270
216	40
222	60
227	80
228	30
229	120
235	720
236	150
237	60
239	70
251	220
252	50
257	30
265	90
269	30
281	120
282	50
325	450
326	100
327	30
340	120
341	30
342	10
