Mass Spectrum: 3-Azabicyclo[3.2.1]octane, 1,8,8-trimethyl-3-nitroso-
Formula: C10H18N2O
CAS: 4074-30-0
Molecular weight: 182
m/z	intensity
12	4
14	11
15	53
16	13
26	18
27	247
29	237
30	701
31	9
37	9
38	15
39	322
40	70
41	933
42	999
43	486
45	79
50	15
51	22
52	31
53	210
54	70
55	583
56	182
57	145
58	44
63	15
64	9
65	35
66	22
67	370
68	346
69	331
70	127
71	22
72	6
73	2
74	4
75	6
76	4
77	105
78	15
79	138
80	72
81	596
82	464
83	250
84	64
85	11
91	110
92	28
93	136
94	112
95	517
96	263
97	44
98	11
103	11
104	4
105	46
106	22
107	171
108	138
109	260
110	74
111	15
119	11
120	18
121	50
122	94
123	186
124	42
125	6
126	9
134	13
135	9
136	372
137	50
138	33
139	9
150	39
151	267
152	197
153	79
154	11
165	83
166	11
167	7
168	4
182	694
183	83
184	7
