Mass Spectrum: Methanone, (5-methyl-1,2,3-thiadiazol-4-yl)phenyl-
Formula: C10H8N2OS
CAS: 40757-62-8
Molecular weight: 204
m/z	intensity
50	100
51	280
63	70
67	100
77	670
78	20
105	999
106	80
115	290
116	200
144	80
147	80
148	90
176	300
177	40
204	100
205	20
