Mass Spectrum: Ethyl-2-thiopheneglyoxylate
Formula: C8H8O3S
CAS: 4075-58-5
Molecular weight: 184
m/z	intensity
15	1
26	3
27	16
28	12
29	50
30	1
31	1
32	2
37	3
38	8
39	138
40	4
41	1
43	1
44	4
45	11
49	1
50	3
51	1
53	5
55	1
57	23
58	4
59	1
69	2
77	1
81	6
82	9
83	64
84	8
85	3
110	1
111	999
112	70
113	50
114	3
128	6
140	2
141	1
156	31
157	2
158	1
184	86
185	8
186	4
