Mass Spectrum: Ethanone, 1-(5-methyl-1,2,3-thiadiazol-4-yl)-
Formula: C5H6N2OS
CAS: 40757-61-7
Molecular weight: 142
m/z	intensity
37	40
38	50
39	150
43	999
44	15
45	160
59	70
67	140
69	70
70	30
71	260
72	330
73	40
76	40
99	30
114	300
115	30
142	10
