Mass Spectrum: 2-Amino-6-carboxy-4-hydroxypyrimidine
Formula: C5H5N3O3
CAS: 40769-70-8
Molecular weight: 155
m/z	intensity
36	1
37	6
38	50
39	95
40	234
41	171
42	189
43	270
44	459
45	140
46	3
51	25
52	32
53	73
54	22
55	43
56	74
57	2
62	2
64	1
65	6
66	24
67	75
68	89
69	88
70	253
71	9
82	11
83	178
84	14
85	1
93	1
94	8
95	13
96	4
110	214
111	999
112	56
113	3
127	6
128	5
137	98
138	88
139	5
155	324
156	22
157	2
