Mass Spectrum: Nonanoic acid, 2-acetyl-, ethyl ester
Formula: C13H24O3
CAS: 40778-30-1
Molecular weight: 228
m/z	intensity
41	210
42	21
43	999
44	18
45	55
46	3
47	6
49	3
50	2
51	4
52	2
53	22
54	6
55	284
56	39
57	204
58	27
59	14
60	23
61	13
63	0
65	6
67	41
68	18
69	79
70	28
71	75
73	175
74	5
75	3
76	4
77	7
78	0
79	12
80	1
81	44
82	20
83	54
84	44
85	54
86	12
87	27
88	33
89	23
90	2
91	5
93	10
94	4
95	36
96	25
97	66
98	41
99	33
101	221
102	44
103	12
104	5
105	11
107	10
108	1
109	39
110	8
111	23
112	11
113	34
114	7
115	56
116	5
117	21
118	0
119	4
121	9
122	1
123	14
124	4
125	38
126	3
127	149
128	10
129	13
130	199
131	31
132	2
133	4
134	0
135	12
136	1
137	10
138	11
139	19
140	3
141	52
143	120
144	10
145	13
146	2
147	3
149	24
150	1
151	7
152	3
153	15
154	5
155	15
156	4
157	52
158	7
159	9
160	0
161	4
163	7
164	0
165	4
166	0
167	9
168	5
169	13
170	5
171	14
172	5
173	5
174	3
175	1
176	2
177	7
178	2
179	4
180	2
181	16
182	1
183	43
184	11
185	13
186	69
187	11
188	1
191	0
193	2
194	0
198	3
199	130
200	6
201	1
212	1
213	8
214	0
226	4
227	13
228	43
229	8
230	1
