Mass Spectrum: Pyridine, 3-(2-piperidinyl)-
Formula: C10H14N2
CAS: 40774-73-0
Molecular weight: 162
m/z	intensity
36	9
38	17
39	52
40	71
41	33
42	75
43	16
48	2
50	54
51	141
52	109
53	51
54	52
55	25
56	70
58	25
59	34
64	58
65	60
66	21
67	22
68	2
70	16
71	34
77	45
78	46
79	70
80	225
81	26
82	10
83	97
84	999
85	118
92	224
93	41
97	4
98	2
104	164
105	477
106	440
107	124
111	15
112	2
117	101
118	117
119	409
120	183
121	62
130	58
131	100
132	95
133	498
134	100
147	36
156	14
159	34
160	39
161	286
162	459
163	51
