Mass Spectrum: Ethyl 4-ethoxyphenylacetate
Formula: C12H16O3
CAS: 40784-88-1
Molecular weight: 208
m/z	intensity
14	1
15	13
18	2
19	1
25	1
26	19
27	136
28	25
29	229
30	9
31	5
37	1
38	6
39	40
40	5
41	4
42	3
43	12
44	2
45	8
50	21
51	71
52	52
53	33
54	2
55	14
60	2
61	1
62	7
63	30
64	10
65	10
66	3
67	4
68	1
69	1
74	2
75	3
77	185
78	117
79	36
80	3
81	6
87	1
89	50
90	30
91	10
92	2
93	2
94	4
95	4
103	1
105	18
106	40
107	999
108	80
109	5
117	1
119	1
121	1
122	2
123	5
124	1
132	1
133	15
135	972
136	94
137	6
149	1
151	3
161	1
162	3
163	3
179	2
180	9
181	1
193	1
208	330
209	43
210	4
