Mass Spectrum: 1-n-Butoxy-2,2,3,3-tetramethylaziridine
Formula: C10H21NO
CAS: 40780-54-9
Molecular weight: 171
m/z	intensity
29	120
30	10
39	40
40	20
41	230
42	320
43	50
44	9
55	40
56	40
57	110
58	50
59	8
69	80
70	6
73	40
74	7
82	20
83	80
84	110
85	19
98	999
99	70
100	40
101	8
171	1
172	2
