Mass Spectrum: 1,4-Bis-(4-methyl-phenyl-carbonyloxy)-benzene
Formula: C22H18O4
CAS: 40781-81-5
Molecular weight: 346
m/z	intensity
51	7
63	6
65	62
77	16
81	1
89	11
90	15
91	204
92	14
105	33
110	12
118	3
119	999
120	87
121	2
136	3
332	3
346	44
347	10
