Mass Spectrum: 1-Aziridinepropanenitrile, .beta.-methyl-
Formula: C6H10N2
CAS: 4078-19-7
Molecular weight: 110
m/z	intensity
41	371
42	999
43	248
44	34
45	25
47	6
51	12
52	43
53	35
54	58
55	30
56	38
57	35
64	23
65	41
66	47
67	171
68	118
69	111
70	430
71	23
77	25
84	41
85	11
93	8
94	334
95	51
109	25
110	27
111	4
