Mass Spectrum: 3-[N-Aziridyl]-2-methylpropionitrile
Formula: C6H10N2
CAS: 4078-20-0
Molecular weight: 110
m/z	intensity
41	999
42	464
43	87
44	115
51	161
52	265
54	102
56	51
58	41
66	161
67	453
68	95
70	91
110	158
111	17
