Mass Spectrum: Nickel, [[4,4'-(1,2-ethanediyldinitrilo)bis[1,1,1-trifluoro-2-pentanonato]](2-)-N,N',O,O']-, (SP-4-2)
Formula: C12H12F6N2NiO2
CAS: 40792-92-5
Molecular weight: 388
m/z	intensity
36	4
37	1
38	9
39	130
40	34
41	186
42	262
43	66
44	43
45	2
49	0
50	13
51	29
52	12
53	27
54	61
55	219
56	37
57	67
58	62
59	17
60	31
61	6
62	11
63	11
64	8
65	13
66	20
67	85
68	105
69	214
70	23
71	41
72	15
73	9
74	3
75	12
76	28
77	23
78	14
79	11
80	45
81	47
82	174
83	35
84	39
85	53
86	17
87	98
88	11
89	25
90	7
91	18
92	6
93	6
94	21
95	14
96	999
97	151
98	257
99	122
100	36
101	40
102	10
103	10
104	8
105	12
106	4
107	7
108	7
109	20
110	109
111	31
112	19
113	20
114	6
115	8
116	5
117	31
118	29
119	28
120	6
121	6
122	4
123	6
124	7
125	39
126	39
127	71
128	21
129	6
130	3
131	27
132	19
133	9
134	6
135	6
137	22
138	23
139	13
140	15
141	16
142	2
143	4
144	4
145	9
146	51
147	7
148	3
149	44
150	17
151	9
152	5
153	5
154	84
155	9
156	12
157	3
158	4
159	4
160	2
162	13
163	3
164	6
165	8
166	361
167	82
168	17
169	18
170	7
172	2
173	9
174	9
175	2
176	6
177	2
178	17
179	249
180	64
181	27
182	7
184	4
185	3
187	1
189	3
190	6
191	5
192	3
193	7
194	11
195	6
196	7
197	3
198	3
199	5
201	0
202	5
203	4
204	7
205	2
209	2
210	7
211	6
212	21
213	9
214	14
215	5
217	1
219	7
221	16
222	10
223	800
224	68
225	310
226	42
227	47
228	7
229	12
230	2
231	7
233	3
234	2
235	8
236	10
237	2
238	3
242	3
243	3
244	3
247	1
248	3
249	6
250	7
251	11
252	6
253	4
255	1
256	4
260	2
262	5
263	32
264	3
265	6
266	1
267	5
268	0
271	10
273	2
277	2
281	4
289	9
291	44
292	4
293	64
294	5
295	33
296	2
306	8
308	14
310	7
319	36
320	3
321	10
332	7
334	0
339	3
341	8
343	5
352	0
369	49
370	4
371	11
372	2
386	7
387	16
388	542
389	78
390	217
391	33
392	32
393	5
