Mass Spectrum: Thiazolidine, 2-hexyl-
Formula: C9H19NS
CAS: 40790-77-0
Molecular weight: 173
m/z	intensity
26	9
27	78
28	38
29	45
30	137
31	4
32	2
33	2
34	8
35	14
36	1
38	1
39	32
40	36
41	104
42	58
43	87
44	59
45	29
46	6
47	7
51	1
52	1
53	7
54	15
55	60
56	186
57	31
58	10
59	28
60	40
61	66
62	4
63	2
65	1
66	1
67	12
68	17
69	20
70	53
71	7
73	4
74	10
75	2
76	1
77	1
79	1
80	1
81	3
82	8
83	2
84	16
85	4
86	5
87	7
88	999
89	49
90	46
91	1
95	2
96	2
97	10
98	6
99	5
100	1
101	10
102	6
103	34
104	2
112	4
113	1
114	11
116	62
117	3
118	2
124	1
126	131
127	15
129	1
130	4
140	5
171	0
172	17
173	60
174	7
175	2
