Mass Spectrum: 1-Methoxy-2,2,3-trimethylaziridine (sin)
Formula: C6H13NO
CAS: 40802-08-2
Molecular weight: 115
m/z	intensity
29	200
30	80
31	80
32	9
33	40
34	9
39	270
40	70
41	690
42	999
43	480
44	280
45	89
53	40
54	40
55	320
56	120
57	90
58	50
59	190
60	8
67	40
68	220
69	290
70	150
71	7
72	100
73	40
74	30
75	20
82	40
83	30
84	920
85	110
86	19
87	620
88	30
100	270
101	20
115	90
116	7
