Mass Spectrum: 5-Bromo-2-methoxycinnamic acid
Formula: C10H9BrO3
CAS: 40803-53-0
Molecular weight: 256
m/z	intensity
15	38
16	2
17	1
26	9
27	20
29	23
30	3
31	8
36	1
37	18
38	48
39	96
40	4
41	8
42	6
43	35
44	42
45	114
46	2
49	14
50	120
51	160
52	50
53	40
54	7
55	28
56	2
57	4
58	6
59	6
60	6
61	43
62	165
63	334
64	42
65	30
66	18
67	6
68	3
69	10
71	3
73	16
74	113
75	120
76	69
77	157
78	136
79	46
80	7
81	7
82	4
83	2
84	12
85	37
86	52
87	78
88	93
89	497
90	255
91	79
92	18
93	15
94	5
95	4
96	2
97	5
98	42
99	38
100	30
101	50
102	200
103	115
104	61
105	64
106	32
107	12
108	8
109	2
111	1
112	2
113	5
114	5
115	15
116	27
117	134
118	999
119	114
120	16
121	24
122	3
124	2
128	2
129	5
130	16
131	309
132	157
133	37
134	106
135	15
136	2
137	1
138	5
139	1
141	8
142	8
143	15
144	15
145	28
146	12
147	9
148	4
149	13
150	2
151	5
152	6
154	1
155	11
156	13
157	15
158	15
159	25
160	30
161	7
162	61
163	6
167	37
168	13
169	86
170	25
171	57
172	40
173	7
174	27
175	2
176	1
177	12
178	3
179	3
180	4
181	16
182	7
183	15
184	7
185	10
186	5
187	7
188	1
194	1
195	9
196	236
197	49
198	237
199	44
200	9
201	5
203	1
209	68
210	27
211	68
212	27
213	5
214	1
215	3
223	3
224	100
225	430
226	138
227	424
228	41
229	4
238	1
239	16
240	4
241	19
242	3
243	1
255	4
256	324
257	38
258	312
259	35
260	3
