Mass Spectrum: 21-Hydroxypregnenolone, 2TMS derivative
Formula: C27H48O3Si2
CAS: 40822-83-1
Molecular weight: 476
m/z	intensity
41	80
42	5
43	55
44	20
45	75
46	5
47	20
50	5
51	5
52	5
53	20
54	5
55	160
56	10
57	15
58	15
59	50
60	5
61	35
62	5
63	5
65	10
66	5
67	120
68	10
69	45
70	5
71	10
72	20
73	999
74	90
75	400
76	30
77	60
78	15
79	120
80	15
81	275
82	20
83	20
85	20
87	10
88	10
89	30
90	5
91	150
92	25
93	155
94	35
95	115
96	15
97	15
98	5
99	15
100	5
101	35
102	5
103	195
104	25
105	185
106	30
107	150
108	25
109	60
110	10
111	15
113	10
115	30
116	20
117	155
118	25
119	140
120	50
121	95
122	15
123	30
124	5
125	5
127	15
128	15
129	300
130	50
131	110
132	30
134	35
135	100
136	10
137	20
139	5
141	15
142	30
143	230
144	45
145	230
146	35
148	30
149	40
150	5
151	10
153	5
154	5
155	30
156	15
157	80
158	25
159	200
160	30
161	60
162	10
163	15
165	5
167	5
168	5
169	30
170	10
171	35
172	10
173	55
174	10
175	25
176	5
177	5
179	5
181	10
182	5
183	25
184	5
185	30
186	10
187	25
188	5
189	25
190	5
191	5
193	5
194	5
195	15
196	5
197	15
198	5
199	25
200	5
201	40
202	5
203	5
205	5
209	20
210	5
211	25
212	10
213	105
214	20
215	15
216	5
217	5
224	5
225	10
226	5
227	15
228	5
229	10
235	5
237	10
238	5
239	30
240	10
241	10
243	5
249	5
251	5
253	15
254	15
255	999
256	220
257	40
258	5
263	5
265	15
267	15
268	5
277	5
278	5
279	35
280	10
283	40
284	10
315	5
343	5
344	10
345	15
346	25
347	55
348	15
349	5
352	5
357	25
358	10
369	10
370	5
371	40
372	35
373	440
374	165
375	45
376	10
385	5
386	95
387	30
388	10
420	35
421	15
422	5
459	5
460	10
461	190
462	75
463	30
464	5
474	10
475	10
476	125
477	50
478	20
479	5
