Mass Spectrum: Suprofen
Formula: C14H12O3S
CAS: 40828-46-4
Molecular weight: 260
m/z	intensity
26	1
27	19
29	1
31	0
37	1
38	5
39	163
41	3
43	19
44	7
45	17
47	0
50	17
51	40
52	10
53	10
54	1
55	5
57	5
58	2
59	4
60	0
61	1
62	5
63	19
64	4
65	11
66	1
67	0
69	3
71	1
73	1
74	7
75	10
76	13
77	112
78	46
79	10
80	4
81	3
82	6
83	67
84	3
85	5
86	1
87	3
88	2
89	10
90	2
91	11
92	1
93	7
94	2
97	1
98	1
99	1
101	4
102	13
103	103
104	52
105	18
106	2
107	3
108	1
109	1
110	0
111	999
112	55
113	44
114	2
115	16
116	2
117	1
118	0
119	0
120	0
121	9
122	0
126	1
127	3
128	9
129	3
130	3
131	45
132	25
133	11
134	4
135	0
139	2
140	1
141	7
142	2
143	2
144	0
145	1
147	2
148	1
149	14
150	2
151	1
152	6
153	16
154	14
155	1
158	2
159	3
160	2
161	1
162	0
165	1
171	10
172	7
173	3
174	0
175	1
176	2
177	162
178	17
179	1
181	0
182	1
183	0
184	5
185	4
186	4
187	170
188	22
189	10
197	2
198	0
199	0
200	16
201	2
202	1
204	0
213	4
214	7
215	807
216	131
217	47
218	6
219	0
231	0
232	2
242	0
243	0
245	0
253	1
259	2
260	626
261	101
262	36
263	3
