Mass Spectrum: 4H-Pyran-4-one, 2-(chloromethyl)-5-methoxy-
Formula: C7H7ClO3
CAS: 40838-34-4
Molecular weight: 174
m/z	intensity
15	50
25	20
26	60
27	120
28	140
29	510
30	20
31	30
36	50
37	80
38	170
39	670
40	40
41	80
42	70
43	100
44	60
45	10
49	60
50	60
51	130
52	30
53	190
54	20
55	100
56	150
57	20
58	10
65	30
66	40
67	140
68	190
69	220
70	20
71	30
72	20
73	50
74	10
75	40
77	20
79	40
80	10
81	20
83	60
84	10
93	20
94	10
95	999
96	60
97	30
98	10
99	40
110	40
111	290
112	20
119	20
125	30
138	40
139	340
140	30
144	110
145	30
146	40
173	60
174	140
175	30
176	50
