Mass Spectrum: 3-Amino-2,4-dimethylpentane
Formula: C7H17N
CAS: 4083-57-2
Molecular weight: 115
m/z	intensity
15	4
18	14
26	2
27	42
28	25
29	32
30	79
31	1
38	3
39	42
40	5
41	61
42	25
43	42
44	41
45	1
51	2
52	2
53	10
54	12
55	387
56	92
57	50
58	12
65	1
67	2
68	2
69	1
70	12
71	6
72	999
73	51
74	1
82	1
83	5
84	7
98	2
100	4
114	2
