Mass Spectrum: 1,6:2,3-Dianhydro-4-deoxy-.beta.-d-ribo-hexopyranose
Formula: C6H8O3
CAS: 40838-15-1
Molecular weight: 128
m/z	intensity
40	109
41	779
42	289
43	659
44	539
53	279
54	549
55	209
57	269
69	999
70	129
71	119
81	819
82	729
83	99
