Mass Spectrum: Buphedrone
Formula: C11H15NO
CAS: 408332-79-6
Molecular weight: 177
m/z	intensity
15	6
26	2
27	19
28	48
29	15
30	54
31	1
32	5
37	1
38	3
39	18
40	3
41	56
42	73
43	14
44	64
45	2
49	1
50	24
51	86
52	8
53	3
54	7
55	9
56	50
57	119
58	5
62	2
63	5
64	1
65	3
66	1
67	1
68	3
69	2
70	34
71	10
72	999
73	50
74	7
75	5
76	10
77	152
78	16
79	3
88	1
89	3
90	1
91	9
92	1
102	1
103	3
104	2
105	50
106	5
107	1
115	3
116	1
117	2
118	2
119	1
120	6
121	1
127	1
128	1
129	1
130	2
131	1
132	1
133	5
134	1
144	1
145	1
146	2
147	3
148	19
149	2
