Mass Spectrum: Diethyl 2-[4-chlorophenyl]-6-methoxy-7-chlorocinchoninylpropanedioate
Formula: C24H21Cl2NO6
CAS: 40846-28-4
Molecular weight: 489
m/z	intensity
41	310
42	316
43	604
44	438
45	721
46	251
47	385
48	163
49	188
50	186
51	69
53	42
57	99
58	142
62	158
63	226
69	539
70	41
73	109
74	258
75	432
76	42
77	41
84	113
85	42
86	94
87	999
88	272
91	112
92	41
97	56
98	154
99	417
100	231
101	277
102	221
111	293
112	44
113	197
122	172
123	144
127	336
129	150
133	57
134	109
135	107
137	138
138	164
139	176
150	241
188	202
189	95
201	182
202	41
224	599
225	150
226	213
237	184
252	359
254	47
259	91
261	41
267	204
302	386
303	250
304	322
305	161
306	41
328	41
330	463
332	345
375	259
377	157
443	926
444	260
445	637
446	165
447	86
489	911
490	245
491	635
492	156
493	89
