Mass Spectrum: 2,4-Imidazolidinedione, 5-(2-methylpropyl)-, (S)-
Formula: C7H12N2O2
CAS: 40856-75-5
Molecular weight: 156
m/z	intensity
15	5
26	2
27	32
28	63
29	56
30	4
37	1
38	3
39	31
40	7
41	102
42	31
43	211
44	29
45	9
50	1
51	3
52	2
53	6
54	6
55	18
56	11
57	93
58	4
59	1
61	1
65	1
67	4
68	8
69	6
70	53
71	7
72	11
73	1
80	1
81	1
82	7
83	1
84	6
85	8
86	3
91	2
95	1
96	13
97	3
98	10
99	93
100	999
101	41
102	5
112	1
113	85
114	6
115	1
128	1
139	1
141	4
154	1
156	9
157	1
