Mass Spectrum: Hexanoic acid, 3-hydroxy-5-methyl-2-(1-methylethyl)-, methyl ester
Formula: C11H22O3
CAS: 40853-50-7
Molecular weight: 202
m/z	intensity
31	101
33	27
34	0
37	8
38	22
39	259
40	37
41	635
42	62
43	390
44	94
45	85
46	2
47	0
49	1
50	7
51	12
52	5
53	40
54	7
55	95
56	44
57	138
58	35
59	105
60	2
61	23
62	0
63	0
65	7
66	3
67	39
68	19
69	510
70	31
71	192
72	8
73	22
74	43
75	3
77	5
79	7
80	0
81	26
82	8
83	49
84	93
85	82
86	10
87	20
88	3
89	0
91	1
93	0
95	12
96	2
97	3
98	0
99	3
100	22
101	999
102	61
103	37
104	1
107	1
109	28
110	6
111	4
112	0
113	144
114	9
115	22
116	357
117	20
118	1
123	1
124	3
125	24
126	3
127	43
128	7
129	5
135	0
137	1
141	17
142	3
143	2
145	64
146	4
147	1
153	14
154	0
155	0
159	43
160	4
169	2
171	5
