Mass Spectrum: Thiocyanic acid, 2,4,6-trinitrophenyl ester
Formula: C7H2N4O6S
CAS: 40864-29-7
Molecular weight: 270
m/z	intensity
30	999
61	50
62	100
64	30
69	71
70	20
74	110
88	160
90	40
102	40
117	60
119	60
120	58
130	20
132	30
148	10
177	10
181	9
192	10
194	10
224	10
226	10
228	20
270	100
271	10
272	5
