Mass Spectrum: 1H-2,1,3-Benzothiadiazin-4(3H)-one, 1,3-diethyl-, 2,2-dioxide
Formula: C11H14N2O3S
CAS: 40864-18-4
Molecular weight: 254
m/z	intensity
39	150
50	60
51	150
69	100
77	120
78	140
81	280
82	40
83	260
84	50
85	250
91	430
95	260
96	50
109	130
110	300
111	50
117	110
118	999
119	380
131	220
132	649
133	210
145	50
146	210
147	250
148	100
149	260
150	100
160	120
161	240
164	270
165	100
185	270
186	120
187	120
198	150
199	30
211	140
212	90
226	140
227	10
239	150
240	20
254	380
255	140
