Mass Spectrum: Acetic acid, (4-methyl-3-nitrophenyl)methyl ester
Formula: C10H11NO4
CAS: 40870-71-1
Molecular weight: 209
m/z	intensity
14	3
15	21
26	2
27	14
28	6
29	12
30	14
31	3
37	3
38	12
39	90
40	11
41	22
42	20
43	999
44	29
45	5
46	4
49	2
50	47
51	129
52	46
53	33
54	5
55	8
57	1
60	1
61	6
62	31
63	113
64	35
65	149
66	27
67	16
68	11
69	1
73	2
74	16
75	21
76	33
77	361
78	138
79	27
80	6
81	6
82	2
84	1
85	2
86	6
87	9
88	5
89	119
90	53
91	262
92	100
93	77
94	39
95	11
96	1
97	1
98	1
99	1
101	10
102	79
103	691
104	169
105	69
106	22
107	15
108	9
109	18
110	2
115	2
116	3
117	5
118	12
119	124
120	262
121	172
122	72
123	8
124	3
130	1
132	278
133	66
134	7
135	12
136	4
137	19
138	8
139	2
147	3
148	64
149	459
150	489
151	46
152	73
153	5
154	1
163	2
164	2
166	25
167	123
168	11
169	1
179	3
192	127
193	16
194	2
209	5
210	1
