Mass Spectrum: 6,8-Dibromo-2-methyl-4H-3,1-benzoxazin-4-one
Formula: C9H5Br2NO2
CAS: 40889-42-7
Molecular weight: 317
m/z	intensity
33	8
34	2
36	9
37	77
38	42
39	97
40	44
41	15
43	999
44	32
45	12
48	2
49	18
50	29
51	21
52	17
53	20
54	1
55	4
56	3
57	25
58	13
60	15
61	112
62	77
63	35
64	14
65	8
66	3
67	0
68	0
69	2
70	1
71	3
72	8
73	75
74	219
75	32
76	15
77	13
78	4
79	12
80	9
81	13
82	14
83	32
85	11
86	23
87	68
88	198
89	28
90	18
91	8
92	2
93	5
94	6
95	2
97	4
98	9
99	20
100	13
101	3
102	9
103	10
104	4
105	4
106	3
107	0
109	1
111	328
112	18
113	16
114	9
115	13
116	25
117	23
118	15
119	13
120	2
121	2
123	1
124	3
125	1
128	5
129	1
130	6
131	5
132	0
133	3
136	0
137	1
139	1
140	2
141	20
142	11
143	19
144	10
145	1
150	1
151	1
152	12
153	51
154	15
155	53
156	5
157	0
158	0
159	3
160	2
161	0
166	4
167	11
168	24
169	12
170	19
171	5
173	4
175	1
180	0
181	3
182	3
183	2
184	2
194	12
195	11
196	19
197	14
198	9
199	2
200	0
210	5
211	0
212	4
220	0
221	0
222	1
224	0
225	5
228	41
229	6
230	1
232	7
234	16
235	3
236	6
237	0
238	10
239	1
240	10
241	0
246	27
247	21
248	53
249	42
250	28
251	20
252	1
273	45
275	169
277	196
278	15
279	67
280	4
290	0
295	1
302	16
304	32
305	2
306	15
307	0
317	112
319	219
320	20
321	101
322	9
