Mass Spectrum: Propanedioic acid, (phenylhydrazono)-
Formula: C9H8N2O4
CAS: 40885-82-3
Molecular weight: 208
m/z	intensity
65	999
77	500
91	930
92	430
93	330
118	130
162	500
164	130
190	60
208	340
