Mass Spectrum: Cycloprop[a]indene-1-carboxylic acid, 6-benzoyl-1-formyl-1,1a,6,6a-tetrahydro-6a-phenyl-, methyl ester
Formula: C26H20O4
CAS: 40897-29-8
Molecular weight: 396
m/z	intensity
105	999
106	180
121	90
122	150
135	200
138	180
149	270
167	60
168	50
178	50
189	60
194	50
202	70
252	50
279	60
396	18
