Mass Spectrum: 1-(Benzenesulfonyl)indole
Formula: C14H11NO2S
CAS: 40899-71-6
Molecular weight: 257
m/z	intensity
37	3
38	16
39	106
40	35
41	5
43	3
44	16
45	4
48	2
50	68
51	230
52	17
53	5
61	3
62	41
63	155
64	29
65	21
66	3
69	4
74	11
75	12
76	19
77	617
78	47
86	2
87	9
88	21
89	328
90	86
91	6
97	9
104	3
114	12
115	17
116	999
117	149
118	7
125	19
126	10
132	64
133	5
139	4
141	254
142	17
143	10
163	5
164	9
165	63
166	10
167	3
190	7
191	20
192	26
193	21
194	1
257	704
258	118
259	42
260	4
