Mass Spectrum: Malononitrile, o-chlorobenzyl-
Formula: C10H7ClN2
CAS: 40915-55-7
Molecular weight: 190
m/z	intensity
36	28
38	22
39	54
45	29
50	42
51	52
57	16
62	28
63	82
64	27
65	22
73	29
74	23
75	64
76	29
77	36
87	17
89	108
90	39
99	52
100	21
101	49
102	24
112	25
125	999
126	101
127	358
128	61
153	31
155	24
163	36
165	16
190	212
191	27
192	62
