Mass Spectrum: 1,6-Octadiene, 3-(1-ethoxyethoxy)-3,7-dimethyl-
Formula: C14H26O2
CAS: 40910-49-4
Molecular weight: 226
m/z	intensity
28	22
29	9
41	51
43	32
45	519
46	8
55	22
67	21
68	41
69	258
70	9
71	38
72	7
73	999
74	51
79	9
80	81
81	139
82	10
83	9
92	28
93	128
94	22
95	21
96	9
107	9
111	8
121	33
136	49
137	59
