Mass Spectrum: Ethenesulfonyl chloride, 2-phenyl-
Formula: C8H7ClO2S
CAS: 4091-26-3
Molecular weight: 202
m/z	intensity
14	13
15	22
16	18
17	24
18	118
26	38
27	88
28	173
29	22
32	45
34	8
35	49
36	151
37	48
38	112
39	187
40	16
41	8
43	4
44	60
45	67
48	109
49	31
50	368
51	668
52	187
53	35
54	5
55	6
57	5
58	22
61	41
62	90
63	207
64	134
65	107
66	4
69	29
70	6
73	32
74	174
75	171
76	264
77	857
78	135
79	26
82	7
83	7
84	11
86	6
87	30
89	62
90	44
91	177
92	28
97	10
98	26
101	65
102	627
103	999
104	254
105	49
107	6
108	21
112	44
114	5
115	9
117	10
118	63
119	4
120	8
121	6
123	8
125	10
128	6
129	10
134	42
135	44
136	36
137	58
138	272
139	61
140	91
141	5
149	8
152	4
167	621
168	63
169	43
202	408
203	48
204	152
205	12
206	5
