Mass Spectrum: 4-Hexadecenoic acid, 2-methoxy-, methyl ester
Formula: C18H34O3
CAS: 40924-23-0
Molecular weight: 298
m/z	intensity
26	6
28	11
29	3
30	4
41	3
42	3
43	14
45	14
54	6
55	34
56	6
57	42
58	3
59	4
66	6
67	66
68	20
69	54
70	12
71	80
72	7
78	4
79	11
80	34
81	95
82	50
83	95
84	23
85	15
87	25
89	30
92	4
93	11
94	61
95	112
96	50
97	77
98	17
99	9
100	42
101	7
103	61
104	999
105	28
106	6
107	9
108	28
109	76
110	28
111	228
112	31
113	47
114	3
115	3
116	3
117	3
121	28
122	23
123	47
124	20
125	25
126	23
127	14
128	4
129	3
135	23
136	33
137	27
138	20
139	20
140	28
141	12
142	3
143	3
149	12
150	39
151	19
152	12
153	15
154	12
155	3
157	3
163	6
164	7
165	7
166	3
167	15
168	14
169	3
170	6
177	3
178	3
179	3
180	22
181	11
182	3
183	1
184	19
185	9
190	4
191	3
192	49
193	12
194	3
195	3
198	12
205	1
206	28
207	19
208	3
209	1
211	1
238	3
239	96
240	23
266	111
267	27
268	4
298	9
299	1
