Mass Spectrum: 4-Hexadecynoic acid, 2-butoxy-, butyl ester
Formula: C24H44O3
CAS: 40924-20-7
Molecular weight: 380
m/z	intensity
26	20
27	11
28	43
29	19
30	11
39	11
40	8
41	32
42	16
43	38
44	11
45	11
50	11
52	9
54	12
55	33
56	48
57	999
58	46
66	9
67	59
68	19
69	62
70	16
71	123
72	14
73	20
74	9
75	9
76	11
77	9
78	11
79	25
80	19
81	105
82	43
83	145
84	27
85	48
86	12
87	11
89	11
91	11
92	9
93	35
94	28
95	142
96	46
97	112
98	24
99	22
100	19
101	22
103	12
105	11
106	11
107	43
108	24
109	110
110	51
111	76
112	46
113	32
114	14
115	11
119	25
120	20
121	107
122	27
123	89
124	32
125	35
126	32
127	19
128	12
129	16
131	131
132	46
133	24
134	25
135	76
136	27
137	44
138	36
139	81
140	19
141	28
142	12
143	9
145	12
147	16
148	12
149	35
150	20
151	44
152	57
153	27
154	12
155	32
156	12
159	11
161	11
163	19
164	12
165	40
166	28
167	27
168	19
169	19
170	9
177	16
178	16
179	51
180	28
181	14
182	14
183	19
184	12
187	14
188	72
189	14
190	20
191	16
192	20
193	22
194	11
195	84
196	19
197	33
198	12
203	11
204	22
205	110
206	25
207	24
208	20
209	11
211	16
212	11
217	12
221	16
222	16
223	534
224	94
225	105
226	33
227	11
232	11
234	11
235	59
236	25
237	11
239	219
240	46
241	12
249	19
250	32
251	152
252	48
253	40
254	11
261	16
263	32
264	16
265	12
267	9
277	11
278	16
279	171
280	41
281	48
282	12
294	11
306	28
307	33
308	28
309	28
310	11
322	11
327	62
328	19
352	9
380	16
381	9
