Mass Spectrum: 4-Hexadecynoic acid, 2-(phenylmethoxy)-, methyl ester
Formula: C24H36O3
CAS: 40924-21-8
Molecular weight: 372
m/z	intensity
39	4
41	11
42	4
43	29
44	3
50	8
52	3
53	3
54	12
55	40
56	11
57	59
58	3
59	8
65	3
66	9
67	62
68	29
69	45
70	11
71	35
72	8
73	1
74	21
75	4
77	6
78	9
79	19
80	50
81	98
82	95
83	61
84	61
85	35
86	4
87	83
88	6
89	3
90	32
91	999
92	95
93	41
94	67
95	112
96	101
97	62
98	27
99	11
100	27
101	8
104	6
105	298
106	32
107	69
108	72
109	66
110	32
111	125
112	29
113	25
114	12
115	9
116	6
117	48
118	19
119	16
120	12
121	46
122	35
123	41
124	22
125	98
126	146
127	29
128	11
129	125
130	33
131	45
132	12
133	21
134	12
135	51
136	72
137	35
138	14
139	38
140	137
141	29
142	11
143	61
144	61
145	51
146	16
147	11
148	4
149	32
150	64
151	24
152	16
153	27
154	14
155	21
156	4
157	58
158	19
159	35
160	11
161	3
162	11
163	16
164	16
165	21
166	11
167	11
168	14
169	12
170	9
171	83
172	29
173	11
174	1
175	3
177	12
178	4
179	11
180	16
181	19
182	11
183	9
185	45
186	12
187	9
188	3
189	12
190	9
191	3
192	58
193	12
194	3
195	12
196	6
197	3
199	35
200	16
201	3
203	14
204	19
205	3
206	11
207	1
209	9
210	12
211	3
213	14
214	16
215	1
217	709
218	104
219	14
221	3
223	11
224	1
227	1
228	1
231	470
232	74
233	9
234	8
235	8
236	1
237	9
238	6
245	6
251	16
252	3
263	3
264	1
265	148
266	156
267	46
268	3
269	24
270	11
281	12
282	1
283	6
284	1
285	6
286	1
287	4
295	12
296	4
311	12
312	24
313	72
314	4
315	25
341	8
342	4
354	4
371	3
372	30
373	11
374	1
