Mass Spectrum: 4-Hexadecynoic acid, 2-methoxy-, methyl ester
Formula: C18H32O3
CAS: 40924-17-2
Molecular weight: 296
m/z	intensity
18	30
26	17
28	28
29	12
41	19
42	12
43	68
45	73
54	17
55	103
56	20
57	104
58	17
59	28
66	19
67	242
68	39
69	185
70	19
71	241
72	23
74	27
75	106
78	31
79	165
80	60
81	317
82	82
83	261
84	27
85	60
87	31
88	28
89	25
91	27
92	31
93	244
94	84
95	380
96	92
97	609
98	76
99	22
100	42
101	20
103	466
104	999
105	100
106	58
107	333
108	57
109	317
110	47
111	171
112	25
113	42
114	15
117	73
118	22
119	166
120	93
121	338
122	58
123	188
124	127
125	88
126	63
127	27
128	15
130	12
133	117
134	127
135	230
136	42
137	184
138	111
139	42
140	17
141	25
147	69
148	57
149	96
150	22
151	63
152	44
153	27
155	22
156	149
157	20
161	41
162	15
163	42
164	19
165	169
166	230
167	58
168	15
169	41
170	19
175	20
176	12
177	28
178	47
179	82
180	60
181	17
189	12
190	44
191	27
193	63
194	20
195	122
196	20
203	15
204	33
205	287
206	52
207	23
221	12
232	14
233	12
237	344
238	61
239	12
249	15
253	20
264	54
265	336
266	63
267	12
296	34
297	12
