Mass Spectrum: 2H-Pyran, 2-(2,5-hexadiynyloxy)tetrahydro-
Formula: C11H14O2
CAS: 40924-58-1
Molecular weight: 178
m/z	intensity
24	12
25	39
26	265
27	886
28	416
29	643
30	31
31	250
32	2
33	21
34	1
36	28
37	212
38	265
39	999
40	310
41	621
42	121
43	227
44	60
45	26
46	2
47	4
48	12
49	69
50	515
51	810
52	151
53	151
54	90
55	515
56	181
57	151
58	10
59	9
60	34
61	98
62	151
63	227
64	54
65	348
66	318
67	113
68	37
69	43
70	7
71	11
72	4
73	37
74	151
75	90
76	136
77	272
78	136
79	46
80	8
81	24
82	8
83	64
84	85
85	227
86	15
87	6
88	3
89	11
90	4
91	113
92	1
93	28
94	15
95	15
96	3
97	4
98	4
99	3
100	9
101	50
102	7
103	28
104	9
105	10
106	2
107	11
108	3
109	3
110	3
111	10
112	2
113	2
114	2
115	18
116	4
117	9
118	1
119	3
120	5
121	5
122	3
123	9
124	1
125	1
126	1
127	2
128	3
129	5
130	1
131	3
132	1
133	3
134	1
135	3
136	1
137	1
138	3
139	2
140	1
141	21
142	4
143	1
144	1
145	1
149	1
150	1
151	1
152	3
153	3
154	3
155	7
156	2
157	1
165	2
166	1
167	2
168	1
169	2
170	1
177	3
178	1
179	1
