Mass Spectrum: 5-Hexen-2-one, 4-methyl-3-phenyl-
Formula: C13H16O
CAS: 40931-43-9
Molecular weight: 188
m/z	intensity
25	1
26	21
27	242
28	35
29	159
30	4
31	1
36	0
37	4
38	22
39	262
40	26
41	196
42	24
43	999
44	23
45	5
49	1
50	46
51	145
52	30
53	58
54	9
55	187
56	13
57	3
58	0
59	1
61	3
62	21
63	77
64	23
65	126
66	10
67	81
68	8
69	3
70	1
71	2
72	6
73	1
74	10
75	14
76	18
77	140
78	39
79	53
80	3
81	1
82	1
83	1
84	0
85	1
86	3
87	5
88	3
89	60
90	35
91	451
92	50
93	4
94	1
95	3
96	2
97	32
98	3
99	0
101	4
102	21
103	67
104	17
105	224
106	19
107	1
108	0
109	1
110	0
113	2
115	147
116	97
117	288
118	38
119	18
120	2
126	4
127	27
128	89
129	79
130	103
131	27
132	4
133	29
134	314
135	29
136	2
139	2
140	0
141	8
142	4
143	41
144	54
145	638
146	82
147	5
148	0
152	0
153	1
154	0
155	3
156	0
157	2
158	0
159	1
170	4
171	1
172	1
173	6
174	0
187	0
188	7
189	1
