Mass Spectrum: 2-Pyridinamine, N-methyl-5-nitro-
Formula: C6H7N3O2
CAS: 4093-89-4
Molecular weight: 153
m/z	intensity
15	39
26	19
27	53
28	137
29	31
30	999
31	19
37	34
38	77
39	108
40	30
41	31
42	52
43	1
44	63
46	14
49	9
50	74
51	137
52	83
53	141
54	44
55	51
56	8
57	4
63	15
64	56
65	92
66	142
67	38
68	49
75	4
76	22
77	22
78	209
79	85
80	283
81	23
82	2
92	76
93	27
94	7
95	25
105	3
106	202
107	66
109	20
120	9
123	18
124	115
125	230
126	16
137	22
152	173
153	689
154	65
