Mass Spectrum: Silane, 2-cyclohexen-1-yltrimethyl-
Formula: C9H18Si
CAS: 40934-71-2
Molecular weight: 154
m/z	intensity
41	10
43	20
44	10
45	50
59	70
68	20
72	10
73	999
74	70
75	50
77	10
78	10
79	60
80	150
81	10
96	10
135	10
139	30
154	70
155	10
