Mass Spectrum: Butanedioic acid, (2,2-dimethylpropylidene)-
Formula: C9H14O4
CAS: 40938-21-4
Molecular weight: 186
m/z	intensity
41	999
42	100
43	570
44	110
45	120
46	10
47	10
49	10
50	70
51	140
52	70
53	410
54	250
55	370
56	150
57	440
58	20
59	430
60	20
61	10
62	30
63	60
64	20
65	120
66	70
67	240
68	60
69	90
70	80
71	30
72	10
73	10
74	10
77	180
78	40
79	640
80	110
81	810
82	200
83	90
84	10
85	30
86	10
87	20
91	30
93	70
94	220
95	500
96	110
97	250
98	50
99	120
100	110
101	10
107	100
108	40
109	320
110	40
111	90
112	20
113	10
121	10
122	230
123	210
124	50
125	620
126	540
127	120
128	40
135	50
139	100
140	810
141	140
142	30
150	30
151	10
153	330
154	30
167	20
168	370
169	70
170	10
171	30
