Mass Spectrum: 2-Hepten-6-one, 5-phenyl-, (Z)-
Formula: C13H16O
CAS: 40931-42-8
Molecular weight: 188
m/z	intensity
25	0
26	17
27	235
28	31
29	150
30	3
31	2
37	4
38	20
39	304
40	29
41	219
42	23
43	999
44	22
45	7
49	2
50	49
51	156
52	34
53	53
54	8
55	121
56	8
57	6
59	0
61	4
62	20
63	77
64	22
65	137
66	14
67	119
68	13
69	5
70	1
71	2
72	0
73	2
74	10
75	15
76	20
77	171
78	52
79	50
80	3
81	0
82	1
83	2
84	0
85	0
86	4
87	6
88	4
89	58
90	29
91	475
92	46
93	2
94	1
95	9
96	8
97	478
98	34
99	3
101	4
102	29
103	83
104	65
105	203
106	19
107	2
108	1
111	1
113	3
114	1
115	151
116	49
117	361
118	42
119	12
120	2
121	0
126	4
127	30
128	96
129	97
130	120
131	22
132	4
133	18
134	109
135	12
139	3
140	0
141	12
142	7
143	52
144	31
145	494
146	62
152	0
153	2
154	1
155	6
156	0
157	1
158	0
159	4
165	0
170	4
172	1
173	12
174	3
187	0
188	53
189	9
