Mass Spectrum: 2,4-Dimethylhexanedioic acid
Formula: C8H14O4
CAS: 40933-45-7
Molecular weight: 174
m/z	intensity
26	25
27	260
28	68
29	219
30	24
31	106
36	11
37	5
38	17
39	236
40	49
41	673
42	210
43	361
44	86
45	678
46	17
47	6
48	4
49	13
50	23
51	9
52	9
53	63
54	21
55	549
56	252
57	176
58	24
59	310
60	170
61	21
62	3
63	11
64	5
65	28
66	11
67	82
68	67
69	999
70	95
71	120
72	19
73	222
74	566
75	26
76	12
77	24
78	6
79	24
80	6
81	42
82	146
83	507
84	49
85	46
86	30
87	390
88	90
89	11
90	3
91	23
92	7
93	15
94	12
95	40
96	118
97	237
98	25
99	50
100	28
101	84
102	9
103	3
104	10
105	13
106	5
107	13
108	7
109	16
110	48
111	59
112	18
113	80
114	189
115	402
116	30
117	6
118	2
119	6
120	2
121	12
122	13
123	12
124	11
125	25
126	5
127	16
128	312
129	86
130	11
131	4
132	3
133	4
135	5
136	2
137	8
138	36
139	9
140	2
141	16
142	6
156	21
157	36
158	5
159	2
173	3
