Mass Spectrum: Benzenepropanoic acid, .alpha.-[(2,4-dinitrophenyl)hydrazono]-4-hydroxy-
Formula: C15H12N4O7
CAS: 40941-46-6
Molecular weight: 360
m/z	intensity
12	4
13	1
15	116
16	4
17	19
18	57
19	1
24	0
25	3
26	23
27	59
28	22
29	62
30	139
31	45
32	4
36	1
37	15
38	47
39	91
40	16
41	27
42	15
43	104
44	186
45	17
46	9
47	2
48	1
49	9
50	61
51	116
52	104
53	39
54	15
55	33
56	2
57	4
58	1
59	162
60	11
61	23
62	69
63	116
64	58
65	51
66	19
67	9
68	5
69	6
70	5
71	2
72	0
73	9
74	23
75	66
76	54
77	209
78	174
79	56
80	16
81	10
82	2
83	3
84	2
85	4
86	3
87	8
88	20
89	37
90	46
91	104
92	27
93	26
94	59
95	11
96	3
97	2
98	2
99	1
100	3
101	6
102	13
103	30
104	34
105	61
106	116
107	999
108	93
109	9
110	4
111	2
112	1
113	1
114	2
115	10
116	13
117	12
118	52
119	41
120	23
121	63
122	30
123	11
124	4
125	1
126	1
127	3
128	3
129	2
130	5
131	19
132	593
133	325
134	89
135	17
136	6
137	40
138	10
139	4
140	2
141	2
142	1
143	2
144	3
145	16
146	10
147	63
148	17
149	10
150	4
151	6
152	18
153	33
154	6
155	2
156	1
157	1
158	3
159	26
160	55
161	11
162	6
163	6
164	11
165	18
166	6
167	26
168	11
169	2
170	2
171	2
172	1
173	1
174	1
175	3
176	197
177	60
178	48
179	13
180	11
181	41
182	9
183	151
184	15
185	2
186	3
187	2
188	1
189	1
190	16
191	23
192	23
193	116
194	24
195	16
196	6
197	2
198	1
199	1
200	0
201	0
202	0
203	2
204	3
205	3
206	9
207	10
208	10
209	4
210	2
211	4
212	1
213	1
214	1
215	1
216	0
217	0
218	0
219	1
220	3
221	6
222	10
223	12
224	4
225	2
226	1
227	2
228	1
229	0
230	0
231	0
232	0
233	1
234	4
235	10
236	4
237	4
238	2
239	3
240	3
241	4
242	2
243	3
244	1
245	0
246	0
247	0
248	0
249	1
250	3
251	2
252	0
253	6
254	18
255	5
256	2
257	3
258	1
260	0
261	0
262	1
263	0
264	1
265	1
266	3
267	4
268	4
269	12
270	4
271	2
272	0
273	1
274	0
275	0
276	0
277	0
278	0
279	2
280	6
281	11
282	6
283	3
284	2
285	6
286	2
287	0
288	1
289	0
292	0
293	4
294	2
295	2
296	1
297	8
298	5
299	2
300	0
302	0
304	0
307	1
308	1
309	2
310	3
311	4
312	2
313	6
314	13
315	2
316	0
323	1
324	1
325	2
326	2
327	1
328	1
329	1
330	0
332	0
338	0
339	77
340	27
341	5
342	6
343	3
344	9
345	2
356	8
357	11
358	4
359	1
360	0
