Mass Spectrum: 2,4,5-Trichlorophenyl propenoate
Formula: C9H5Cl3O2
CAS: 40952-23-6
Molecular weight: 250
m/z	intensity
55	999
56	357
61	77
62	105
72	25
73	38
74	26
83	26
97	331
98	38
99	92
107	159
109	132
132	26
133	38
167	158
169	172
171	39
195	13
215	12
234	12
249	52
250	159
252	132
