Mass Spectrum: Bicyclo[4.3.0]nonane, 2-methylene-, cis-
Formula: C10H16
CAS: 40954-37-8
Molecular weight: 136
m/z	intensity
27	182
29	94
30	0
31	14
37	1
38	12
39	282
41	327
42	12
43	28
45	1
50	18
51	75
52	54
53	167
54	84
55	167
56	11
57	8
58	6
59	9
62	5
63	21
64	5
65	109
66	86
67	631
68	98
69	21
71	1
74	2
75	3
77	278
78	109
79	999
80	360
81	248
82	76
83	9
89	5
90	3
91	268
92	48
93	624
94	826
95	926
96	78
97	3
98	3
99	2
103	7
104	7
105	45
106	15
107	492
108	221
109	22
110	3
111	1
115	6
116	2
117	5
119	13
121	753
122	75
123	4
131	2
133	2
134	6
135	38
136	596
137	65
138	5
