Mass Spectrum: Oxazole, 2,5-diethyl-4-methyl-
Formula: C8H13NO
CAS: 40953-15-9
Molecular weight: 139
m/z	intensity
26	50
27	157
28	2
29	117
32	5
34	4
37	6
38	30
39	180
40	42
41	197
42	100
43	657
44	42
45	8
50	4
51	11
52	37
53	41
54	56
55	75
56	360
57	74
62	46
63	2
65	4
66	15
67	13
68	21
69	411
70	22
80	17
81	5
82	41
83	27
84	55
85	2
94	2
96	48
97	5
110	24
122	5
123	2
124	999
125	83
126	4
138	114
139	500
140	40
