Mass Spectrum: Piperidin-4-ol, 1,2,5-trimethyl-4-[2-(1-naphthyl)ethynyl]-
Formula: C20H23NO
CAS: 40964-05-4
Molecular weight: 293
m/z	intensity
33	0
34	2
39	36
40	82
41	191
42	704
43	212
44	171
45	9
50	6
51	22
52	6
53	18
55	186
56	426
57	182
58	183
59	4
61	0
62	8
63	22
64	4
65	11
67	15
68	36
70	999
71	330
72	104
73	9
74	15
75	32
76	21
77	32
78	6
79	12
80	6
81	16
82	83
83	30
84	174
85	18
87	22
88	19
89	17
90	9
91	6
92	1
93	4
94	14
96	184
98	255
99	29
100	14
101	20
102	15
103	3
104	2
105	7
106	4
107	7
108	29
109	15
110	51
111	101
112	165
113	24
114	7
115	45
116	8
117	3
118	4
119	1
120	0
121	5
122	24
124	205
125	36
126	171
127	51
128	65
129	10
130	3
132	3
133	3
134	5
135	5
136	3
137	9
138	40
139	95
140	84
141	126
142	16
143	1
147	9
148	25
149	23
150	114
151	146
152	194
153	70
154	14
155	11
161	2
162	8
163	44
164	51
165	193
166	53
167	26
168	8
169	2
174	7
175	15
176	51
177	32
178	70
179	154
180	28
181	47
182	11
183	4
184	0
186	2
187	6
188	7
189	44
190	25
191	20
192	11
193	17
194	26
195	9
196	2
198	4
200	2
201	3
202	25
203	28
204	12
205	13
206	12
207	34
208	29
209	5
210	3
215	7
216	3
217	9
218	11
219	14
220	11
221	59
222	78
223	19
224	1
228	0
230	0
231	1
232	5
233	2
234	6
235	6
236	16
237	3
244	2
245	1
246	2
247	2
249	0
250	10
251	1
258	1
260	12
261	1
262	1
263	1
264	2
274	8
276	282
277	62
278	134
279	26
280	3
282	9
283	2
290	2
291	2
292	23
293	91
294	18
295	2
297	0
