Mass Spectrum: Trimethyl-1,1,2-ethanetricarboxylate
Formula: C8H12O6
CAS: 40967-67-7
Molecular weight: 204
m/z	intensity
29	46
30	9
31	29
32	3
33	2
39	11
41	25
42	29
43	24
44	13
45	44
47	5
53	20
54	17
55	408
56	22
57	13
58	9
59	330
60	9
61	3
68	3
69	25
70	2
71	6
72	2
73	9
74	7
75	15
76	1
77	2
81	4
82	9
83	4
84	3
85	44
86	17
87	13
95	0
96	1
97	1
98	0
99	11
100	5
101	36
102	25
103	4
104	2
109	1
112	7
113	999
114	123
115	60
116	3
137	1
140	97
141	156
142	11
143	3
144	25
145	845
146	64
147	11
148	3
149	9
159	3
160	8
172	131
173	318
174	32
175	5
204	1
205	2
