Mass Spectrum: .alpha.-Methyl mannofuranoside
Formula: C7H14O6
CAS: 4097-91-0
Molecular weight: 194
m/z	intensity
26	23
27	106
28	77
29	167
30	18
31	238
32	14
33	125
34	0
35	2
36	12
38	5
39	40
40	10
41	96
42	49
43	262
44	125
45	495
46	14
47	9
50	0
51	2
52	2
53	10
54	33
55	65
56	86
57	236
58	56
59	78
60	26
61	307
62	14
63	3
65	0
66	1
67	1
68	48
69	137
70	71
71	181
72	61
73	999
74	259
75	262
76	15
77	0
80	2
81	1
82	1
83	3
84	13
85	271
86	166
87	489
88	27
89	14
90	1
91	32
92	1
93	0
94	0
95	0
96	1
97	14
98	11
99	7
100	2
101	36
102	15
103	100
104	15
105	43
106	2
107	0
108	0
109	4
110	0
112	0
113	4
114	0
115	35
116	311
117	19
118	2
119	23
120	2
122	0
124	0
125	0
126	2
127	13
128	1
129	3
131	25
132	3
133	141
134	11
135	3
136	0
137	0
138	0
140	0
141	0
142	0
143	2
144	1
145	54
146	4
147	2
151	1
153	0
156	0
157	1
158	1
159	0
160	0
161	0
162	1
163	24
164	1
