Mass Spectrum: Cyclohexasilane, dodecamethyl-
Formula: C12H36Si6
CAS: 4098-30-0
Molecular weight: 348
m/z	intensity
26	0
27	0
28	2
29	1
31	9
40	10
43	44
44	4
45	105
46	5
47	2
53	0
55	2
57	1
58	4
59	138
60	9
61	4
69	12
70	1
71	9
72	1
73	999
74	80
75	33
76	0
81	2
83	5
84	1
85	27
86	5
87	8
88	0
89	1
95	1
96	0
97	5
98	1
99	73
100	14
101	44
102	5
103	9
104	0
109	0
111	12
112	3
113	57
114	10
115	64
116	32
117	35
118	5
119	1
123	0
125	62
126	14
127	45
128	12
129	63
130	10
131	63
132	9
133	4
139	6
140	1
141	52
142	15
143	65
144	13
145	22
146	3
147	0
153	4
154	0
155	28
156	8
157	137
158	33
159	46
160	9
161	4
167	1
168	0
169	15
170	4
171	81
172	18
173	40
174	9
175	4
176	0
181	4
182	0
183	16
184	4
185	69
186	48
187	49
188	14
189	6
190	0
197	16
198	4
199	130
200	64
201	450
202	130
203	69
204	14
205	3
211	1
212	0
213	59
214	19
215	250
216	71
217	64
218	15
219	5
220	0
225	0
227	9
228	1
229	23
230	5
231	8
232	1
233	0
239	1
240	0
241	1
242	0
243	5
244	1
245	14
246	4
247	1
253	0
255	1
256	0
257	12
258	4
259	135
260	89
261	44
262	16
263	4
264	0
271	1
272	0
273	28
274	45
275	99
276	39
277	20
278	4
279	0
290	1
291	0
333	11
334	4
335	2
336	0
348	374
349	155
350	100
351	31
352	10
353	1
