Mass Spectrum: Cyclopentanol, 1,2-dimethyl-3-(1-methylethenyl)-, [1R-(1.alpha.,2.beta.,3.alpha.)]-
Formula: C10H18O
CAS: 4099-07-4
Molecular weight: 154
m/z	intensity
26	11
27	190
28	50
29	160
31	20
38	10
39	260
40	50
41	400
42	45
43	999
44	40
45	35
50	16
51	50
52	25
53	160
54	55
55	500
56	60
57	130
58	120
59	33
61	2
62	8
63	20
65	60
66	25
67	280
68	110
69	330
70	52
71	570
72	90
73	5
77	110
78	22
79	200
80	60
81	460
82	90
83	290
84	220
85	43
91	100
92	25
93	290
94	120
95	250
96	450
97	150
98	25
99	1
103	5
105	70
106	25
107	250
108	50
109	15
110	10
111	90
112	10
119	16
121	640
122	65
123	18
125	90
126	10
135	10
136	370
137	53
139	60
154	10
