Mass Spectrum: Cyclopentanol, 2-methyl-, acetate, trans-
Formula: C8H14O2
CAS: 40991-94-4
Molecular weight: 142
m/z	intensity
41	118
42	29
43	999
44	39
53	19
54	19
55	138
56	19
57	79
58	39
67	227
68	9
71	59
72	178
81	89
82	386
83	59
85	29
98	9
99	49
100	99
