Mass Spectrum: Thioimidodiphosphoryl chloride fluoride (Cl2P(S)NHP(O)F2), methyl-
Formula: CH3Cl2F2NOP2S
CAS: 41006-37-5
Molecular weight: 247
m/z	intensity
47	110
50	40
60	170
63	370
69	519
85	160
101	170
114	999
128	220
130	330
133	170
134	220
163	240
212	160
247	150
