Mass Spectrum: 1,2,3-Thiadiazole-4-carboxylic acid, hydrazide
Formula: C3H4N4OS
CAS: 4100-18-9
Molecular weight: 144
m/z	intensity
33	23
34	14
35	3
36	6
37	6
38	26
39	26
40	63
41	27
43	999
44	147
45	341
46	232
47	26
48	16
49	2
50	5
51	9
52	16
53	194
54	15
55	28
56	120
57	978
58	583
59	193
60	44
61	41
62	6
63	4
64	2
65	1
66	1
67	4
68	12
69	29
70	121
71	68
72	76
73	286
74	50
75	15
76	3
77	1
79	1
80	2
81	0
82	11
83	37
84	51
85	424
86	116
87	598
88	35
89	36
90	2
91	2
95	0
96	0
98	11
99	8
100	3
101	12
102	6
103	2
105	1
110	0
111	2
112	5
113	59
114	6
115	8
116	114
117	8
118	5
121	1
122	0
127	2
128	0
129	2
131	0
133	1
137	1
138	0
142	2
144	179
145	12
146	11
147	0
