Mass Spectrum: Methanamine, N-(difluorophosphinoyl)-N-(chlorofluorothiophosphinoyl)-
Formula: CH3ClF3NOP2S
CAS: 41006-38-6
Molecular weight: 231
m/z	intensity
47	50
50	70
69	170
82	90
85	330
87	70
114	999
117	220
118	190
164	110
196	120
231	260
