Mass Spectrum: 4-(3,4-Dimethyl-5-isoxazolylazo)-3,4-dimethyl-5(4H)-isoxazolone
Formula: C10H12N4O3
CAS: 4100-38-3
Molecular weight: 236
m/z	intensity
15	37
25	1
26	23
27	144
28	71
29	9
30	27
37	3
38	7
39	54
40	22
41	127
42	597
43	31
44	25
45	1
50	3
51	10
52	21
53	147
54	66
55	31
56	9
57	2
58	2
63	1
64	3
65	2
66	9
67	14
68	121
69	18
70	1
78	1
79	1
80	62
81	9
82	8
83	3
84	8
85	12
93	2
94	3
95	3
96	27
97	12
98	8
108	1
109	4
110	11
111	6
112	7
113	15
114	2
122	4
123	10
124	999
125	67
126	4
136	1
139	1
149	1
151	8
152	1
163	1
164	1
167	1
177	1
191	8
192	19
193	3
208	5
209	1
210	3
237	1
