Mass Spectrum: Benzophenone, 2-acetamino-5-nitro-
Formula: C15H12N2O4
CAS: 41019-22-1
Molecular weight: 284
m/z	intensity
41	28
42	41
43	999
44	8
45	6
47	81
48	15
49	3
51	3
52	54
53	31
54	5
55	5
56	0
57	3
60	1
61	7
62	38
63	101
64	32
65	13
66	4
67	4
68	1
69	10
70	1
71	2
72	2
74	20
75	22
77	428
78	39
79	10
80	4
81	1
82	3
84	1
86	1
88	45
89	30
90	26
91	53
92	6
93	0
94	0
95	0
97	1
98	4
99	4
100	2
101	4
102	6
103	3
104	1
105	227
106	19
107	5
108	0
110	1
111	1
113	10
114	9
115	22
117	20
119	38
120	2
121	0
123	1
125	3
126	9
127	6
128	5
129	2
131	3
132	0
133	9
134	2
135	0
137	4
138	3
139	54
140	25
141	17
142	2
143	1
145	11
146	1
148	1
149	1
150	7
151	20
152	14
153	6
154	10
155	1
156	3
157	0
159	1
161	4
163	2
164	6
165	50
166	54
167	79
168	15
169	2
171	0
176	1
177	6
178	5
179	110
180	11
181	3
182	6
183	8
184	3
185	0
189	1
191	5
192	0
194	12
195	114
196	32
197	4
205	0
207	7
208	1
209	1
210	1
211	1
212	8
213	8
214	3
215	0
218	1
223	0
224	8
225	40
226	17
227	2
238	0
239	0
241	683
242	444
243	68
244	5
248	0
255	1
267	2
268	4
269	4
270	0
284	172
285	35
286	5
287	0
