Mass Spectrum: l-Valine, N-(carboxymethyl)-
Formula: C7H13NO4
CAS: 41035-83-0
Molecular weight: 175
m/z	intensity
25	0
26	11
27	121
28	178
29	124
30	340
31	87
33	2
34	7
35	3
36	7
37	1
38	3
39	158
40	36
41	286
42	338
43	128
44	132
45	103
46	17
47	2
48	4
49	1
50	7
51	10
52	11
53	31
54	36
55	320
56	194
57	65
58	190
59	58
60	58
61	4
62	1
63	3
64	7
65	5
66	6
67	27
68	79
69	86
70	281
71	80
72	126
73	20
74	81
75	10
76	7
77	4
78	3
79	9
80	23
81	14
82	54
83	35
84	999
85	131
86	757
87	119
88	110
89	8
90	1
91	7
92	2
93	3
94	3
95	8
96	14
97	10
98	35
99	20
100	11
101	9
102	46
103	4
104	61
105	5
106	2
107	5
108	3
109	5
110	6
111	5
112	4
113	5
114	84
115	23
116	9
117	1
118	1
119	1
120	1
121	1
122	1
123	2
124	3
125	2
126	3
127	2
128	8
129	6
130	589
131	43
132	204
133	13
134	2
175	0
