Mass Spectrum: t-Butoxycarbonylalanylalanamide
Formula: C11H21N3O4
CAS: 41036-24-2
Molecular weight: 259
m/z	intensity
26	6
27	36
28	54
29	55
30	5
31	26
37	3
38	6
39	51
40	14
41	163
42	56
43	49
44	999
45	37
46	2
49	1
50	7
51	6
52	2
53	9
54	7
55	47
56	69
57	486
58	23
59	107
60	5
61	2
63	1
65	2
67	1
68	2
69	5
70	98
71	18
72	27
73	107
74	14
75	1
76	3
77	3
81	2
82	1
83	2
84	3
85	6
86	2
87	32
88	165
89	31
90	4
91	1
93	2
95	2
96	1
97	4
98	4
99	36
100	23
101	2
102	1
105	2
109	2
111	1
112	1
113	39
114	10
115	78
116	39
117	5
121	2
122	1
123	1
124	6
125	2
126	1
127	4
128	4
129	1
131	1
132	1
139	1
140	2
141	199
142	88
143	10
144	223
145	25
146	2
158	2
159	52
160	16
161	2
165	1
167	2
168	2
169	92
170	8
171	1
172	42
173	4
181	1
183	1
185	1
186	35
187	7
190	1
191	1
194	1
201	1
203	5
204	7
215	88
216	12
217	2
219	1
220	21
221	7
222	1
259	1
260	3
