Mass Spectrum: 1-Propanamine, 3-(methylthio)-
Formula: C4H11NS
CAS: 4104-45-4
Molecular weight: 105
m/z	intensity
14	2
15	13
16	1
26	9
27	49
28	107
29	27
30	999
31	34
32	8
33	2
34	3
35	21
37	2
38	4
39	26
40	5
41	81
42	37
43	24
44	50
45	78
46	38
47	78
48	34
49	22
50	3
51	3
52	5
53	4
54	13
55	10
56	238
57	268
58	22
59	23
60	10
61	140
62	12
63	8
65	2
66	2
67	2
68	5
69	9
70	6
71	3
72	7
73	124
74	12
75	45
76	6
77	12
78	1
79	1
82	2
83	1
84	1
85	2
86	2
87	6
88	334
89	19
90	35
91	2
92	3
100	2
101	3
102	1
104	1
105	170
106	10
107	9
