Mass Spectrum: Acetic acid, 4-oxocyclohexyl ester
Formula: C8H12O3
CAS: 41043-88-3
Molecular weight: 156
m/z	intensity
26	16
27	106
28	150
29	144
30	6
31	13
37	2
38	8
39	105
40	30
41	188
42	96
43	909
44	53
45	13
47	3
49	2
50	4
51	11
52	7
53	47
54	328
55	353
56	49
57	108
58	35
59	25
60	298
61	16
62	3
63	4
64	2
65	9
66	13
67	91
68	480
69	166
70	55
71	75
72	34
73	323
74	11
75	2
77	3
78	4
79	7
80	3
81	79
82	8
83	7
84	5
85	106
86	45
87	4
91	2
94	4
95	24
96	999
97	130
98	14
99	116
100	9
102	4
103	2
110	2
111	2
112	3
113	35
114	331
115	29
116	3
123	2
128	8
141	2
156	11
157	2
