Mass Spectrum: Pyrimidin-4(3H)-one, 5-bromo-2,6-diphenyl-
Formula: C16H11BrN2O
CAS: 41062-99-1
Molecular weight: 326
m/z	intensity
38	17
39	85
40	32
41	20
43	21
44	33
50	112
51	251
52	55
55	27
57	19
59	35
61	14
62	44
63	103
64	26
65	15
69	20
72	15
74	59
75	129
76	185
77	621
78	50
82	22
83	43
87	26
88	86
89	436
90	45
91	20
93	12
95	27
96	15
98	15
99	17
100	30
101	97
102	71
103	165
104	999
105	101
109	45
114	90
115	176
116	325
117	63
118	12
120	48
122	50
124	41
127	56
128	21
129	47
136	14
137	13
140	13
141	16
143	24
144	64
145	17
149	11
163	28
164	28
165	35
167	16
168	18
169	20
170	21
171	14
180	112
181	17
182	83
183	14
184	23
190	28
191	13
192	185
193	32
194	78
195	84
196	76
197	87
203	19
204	88
205	25
218	98
219	388
220	70
223	61
224	19
225	59
246	12
247	846
248	185
249	18
271	21
273	21
297	15
298	262
299	59
300	258
301	49
325	19
326	766
327	167
328	759
329	134
330	13
