Mass Spectrum: N-p-toluenesulfonylhomoserine
Formula: C11H15NO5S
CAS: 41088-83-9
Molecular weight: 273
m/z	intensity
41	64
42	38
43	37
44	23
45	18
47	15
48	15
52	19
53	12
54	26
55	33
56	162
57	27
62	21
63	86
64	31
65	297
66	19
67	13
69	20
71	15
72	25
74	28
77	37
78	17
79	17
81	4
83	14
88	35
89	105
90	53
91	999
92	153
93	15
97	4
100	9
105	25
106	66
107	31
108	17
111	14
118	22
119	44
120	88
121	16
130	21
132	87
133	112
134	10
139	63
140	22
146	62
147	148
148	17
155	514
156	49
157	34
197	38
198	20
210	9
211	151
212	19
213	8
228	35
255	392
256	52
257	27
273	7
