Mass Spectrum: Cholest-20(22)-ene-3,6-dione, (5.alpha.)-
Formula: C27H42O2
CAS: 41084-10-0
Molecular weight: 398
m/z	intensity
41	450
42	30
43	350
44	60
53	100
54	20
55	600
56	110
57	510
58	90
67	410
68	520
69	610
70	140
71	180
77	90
78	10
79	330
80	90
81	660
82	630
83	450
84	50
85	90
91	190
92	20
93	290
94	150
95	999
96	330
97	230
105	150
106	50
107	200
108	70
109	450
110	80
111	120
119	110
120	40
121	120
122	50
123	360
124	50
133	90
134	120
135	90
136	20
137	90
138	660
139	80
145	30
147	70
148	50
149	70
150	10
151	30
152	120
153	20
159	30
161	30
162	90
163	50
173	30
175	40
176	20
177	20
185	20
187	20
189	30
191	20
215	20
217	20
229	40
230	10
231	40
243	30
244	20
245	170
246	70
247	20
257	30
258	30
259	510
260	150
261	50
269	70
270	30
271	40
272	540
273	110
284	60
285	310
286	280
287	130
299	50
300	40
313	260
314	190
315	50
327	40
328	90
329	30
383	130
384	40
398	840
399	240
400	70
