Mass Spectrum: Benzene, 1,3,5-tris(2,2-dimethylpropyl)-2-iodo-4-methyl-
Formula: C22H37I
CAS: 41080-91-5
Molecular weight: 428
m/z	intensity
29	280
39	90
40	20
41	410
42	20
43	430
50	20
55	80
56	70
57	999
58	40
69	20
71	280
80	20
91	50
105	20
115	40
116	20
117	40
119	30
128	40
129	40
131	40
132	50
133	120
134	80
141	30
142	30
143	40
145	20
157	30
159	30
173	120
174	40
187	50
188	30
189	80
190	50
219	30
220	30
243	50
244	20
245	110
246	50
259	50
260	390
261	40
315	120
316	410
317	60
371	240
372	270
373	50
428	281
429	65
430	8
