Mass Spectrum: N-(2-Propynyl)aziridine
Formula: C5H7N
CAS: 41104-29-4
Molecular weight: 81
m/z	intensity
26	14
27	63
28	99
29	8
38	14
39	110
40	11
41	68
42	999
43	63
44	5
51	9
52	38
53	56
54	178
55	11
80	16
81	31
82	2
