Mass Spectrum: Benzene, (2-chloroethenyl)-, (E)-
Formula: C8H7Cl
CAS: 4110-77-4
Molecular weight: 138
m/z	intensity
26	5
27	25
29	39
34	1
36	1
37	11
38	29
39	58
40	1
43	5
44	4
45	0
49	14
50	162
51	360
52	52
53	4
61	15
62	27
63	63
64	2
68	6
69	30
70	7
73	19
74	67
75	91
76	75
77	406
78	78
79	1
84	1
85	2
86	5
87	5
89	1
97	1
98	5
99	3
101	37
102	139
103	999
104	83
105	1
112	8
114	0
137	0
138	572
139	50
140	175
141	13
