Mass Spectrum: 2,4(1H,3H)-Quinazolinedione, 1-methyl-3-[(phenylsulfonyl)oxy]-
Formula: C15H12N2O5S
CAS: 41120-15-4
Molecular weight: 332
m/z	intensity
39	50
50	60
51	180
64	50
77	999
78	200
90	50
92	60
104	280
105	320
132	130
133	170
134	50
141	879
142	60
161	80
176	120
332	509
333	90
334	40
