Mass Spectrum: 2,4(1H,3H)-Quinazolinedione, 3-methoxy-
Formula: C9H8N2O3
CAS: 41120-18-7
Molecular weight: 192
m/z	intensity
39	60
63	110
64	130
90	200
91	90
92	300
119	999
120	120
146	46
147	6
162	410
163	70
192	310
193	33
