Mass Spectrum: 2-Butenediamide, 2-methyl-, (E)-
Formula: C5H8N2O2
CAS: 41138-18-5
Molecular weight: 128
m/z	intensity
39	987
40	697
41	707
42	48
43	40
44	607
45	10
53	16
54	22
55	50
66	74
67	170
68	34
69	68
82	54
83	324
84	68
110	48
111	999
112	76
128	2
