Mass Spectrum: 2-Butenediamide, 2-methyl-, (Z)-
Formula: C5H8N2O2
CAS: 41138-17-4
Molecular weight: 128
m/z	intensity
38	205
39	999
40	884
41	728
42	92
43	96
44	625
45	14
66	61
67	135
68	248
69	448
70	72
83	168
84	72
85	316
86	26
110	61
111	102
112	370
128	12
