Mass Spectrum: Heptanedioic acid, 2-propyl-, dimethyl ester
Formula: C12H22O4
CAS: 41144-33-6
Molecular weight: 230
m/z	intensity
25	0
26	20
27	257
28	41
29	221
30	16
31	71
32	18
33	10
35	1
36	1
37	6
38	10
39	186
40	37
41	546
42	131
43	226
44	19
45	78
46	2
47	2
48	1
49	1
50	7
51	15
52	9
53	75
54	59
55	744
56	99
57	61
58	9
59	342
60	13
61	5
62	1
63	3
64	2
65	21
66	11
67	127
68	113
69	298
70	47
71	47
72	11
73	130
74	250
75	15
76	1
77	14
78	5
79	38
80	12
81	112
82	34
83	153
84	147
85	61
86	6
87	999
88	61
89	5
91	10
92	3
93	28
94	17
95	83
96	161
97	280
98	58
99	17
100	86
101	32
102	16
103	1
105	5
106	1
107	4
108	2
109	38
110	30
111	46
112	9
113	31
114	25
115	146
116	513
117	39
118	3
119	3
120	4
121	39
122	6
123	23
124	105
125	25
126	3
127	31
128	233
129	45
130	6
131	0
135	1
136	1
137	23
138	137
139	170
140	17
141	28
142	31
143	9
144	1
145	2
146	7
147	4
148	1
151	2
152	0
153	2
154	0
155	15
156	210
157	73
158	6
159	0
165	4
166	27
167	4
168	2
169	14
170	49
171	157
172	16
173	0
174	5
180	0
183	2
188	68
189	5
198	22
199	58
200	5
