Mass Spectrum: 1-(Allylamino)butane-1,3-dione
Formula: C7H11NO2
CAS: 41153-95-1
Molecular weight: 141
m/z	intensity
27	144
28	310
29	102
30	363
39	212
40	42
41	513
42	166
43	999
44	93
54	63
55	119
56	953
57	667
58	226
59	34
68	18
69	50
70	14
80	26
81	26
83	21
84	65
85	120
92	15
96	27
97	8
98	105
99	48
113	8
124	9
126	19
141	87
142	22
143	4
