Mass Spectrum: Benzene-1,4-diol, bis[.beta.-methyl-2-butenoate] ester
Formula: C16H18O4
CAS: 41167-82-2
Molecular weight: 274
m/z	intensity
41	2
42	1
43	1
47	2
48	1
49	9
50	3
51	8
52	3
53	31
54	12
55	132
56	4
63	3
64	1
65	1
66	0
67	5
68	0
80	0
81	3
82	20
83	999
84	66
85	4
86	6
88	1
97	0
109	1
110	31
111	2
175	1
191	3
192	338
193	36
194	4
274	141
275	26
276	2
