Mass Spectrum: Benzene-1,4-diol, mono[.beta.-methyl-2-butenoate] ester
Formula: C11H12O3
CAS: 41167-81-1
Molecular weight: 192
m/z	intensity
41	11
42	17
43	8
44	1
45	1
47	2
48	1
49	11
50	24
51	58
52	42
53	230
54	88
55	673
56	30
57	2
61	3
62	9
63	21
64	8
65	20
66	5
67	18
68	3
69	3
70	0
71	1
74	1
75	1
77	2
78	0
79	3
81	126
82	72
83	999
84	68
85	5
86	2
88	0
91	1
92	0
93	3
94	0
95	0
97	0
107	1
109	46
110	202
111	11
112	1
135	0
147	0
151	0
177	1
191	1
192	359
193	53
194	6
