Mass Spectrum: L-Serine, ethyl ester
Formula: C5H11NO3
CAS: 4117-31-1
Molecular weight: 133
m/z	intensity
14	1
15	29
17	5
18	19
19	1
26	4
27	28
28	67
29	90
30	51
31	26
32	2
40	1
41	9
42	160
43	25
44	5
45	6
46	29
47	9
55	2
56	7
57	28
58	14
59	10
60	999
61	28
62	2
69	1
70	3
71	4
72	1
74	253
75	10
76	1
84	2
87	1
88	1
102	248
103	54
104	3
115	1
116	1
133	22
134	5
