Mass Spectrum: L-Lysine, ethyl ester
Formula: C8H18N2O2
CAS: 4117-33-3
Molecular weight: 174
m/z	intensity
29	144
30	490
31	34
32	2
33	1
34	1
37	1
38	2
39	25
40	1
41	64
42	103
43	220
44	52
45	27
46	17
47	4
50	6
51	2
52	2
53	7
54	18
55	38
56	290
57	45
58	12
59	8
60	1
61	1
65	3
66	2
67	42
68	8
69	16
70	31
71	17
72	120
73	19
74	41
75	3
76	4
80	3
81	3
82	40
83	31
84	999
85	63
86	4
87	1
88	1
95	1
96	1
97	1
98	2
99	7
100	11
101	140
102	36
103	6
104	1
110	4
111	6
112	1
113	1
114	3
115	1
116	4
117	1
126	1
127	2
128	19
129	2
130	1
131	1
139	1
140	1
144	1
145	2
155	1
156	3
157	10
158	5
159	1
174	8
175	2
