Mass Spectrum: Benzenecarboximidoyl bromide, N-methyl-
Formula: C8H8BrN
CAS: 41182-85-8
Molecular weight: 197
m/z	intensity
39	40
50	80
51	180
52	20
59	30
63	30
75	30
76	90
77	310
78	30
91	50
103	190
104	20
118	999
119	90
