Mass Spectrum: N-Ethylbenzimidoyl bromide
Formula: C9H10BrN
CAS: 41182-87-0
Molecular weight: 211
m/z	intensity
26	40
27	120
28	30
29	90
38	40
39	80
50	190
51	300
52	80
62	50
63	70
64	30
74	60
75	70
76	250
77	370
78	50
91	50
103	490
104	999
105	110
132	750
133	100
