Mass Spectrum: n-Butyl-.alpha.-bromobenziminium bromide
Formula: C11H15Br2N
CAS: 41182-90-5
Molecular weight: 319
m/z	intensity
28	30
29	60
39	40
41	60
50	30
51	60
57	50
76	90
77	150
79	60
80	110
81	50
82	150
89	30
91	30
103	220
104	999
105	110
117	70
160	450
161	70
