Mass Spectrum: Bis-[1,3]-oxazino[5,6-f:6',5'-H]quinoline,3,10-dibenzyl-6-trifluoromethyl-3,4,9,10(2H,11H)tetrahydro-
Formula: C28H24F3N3O2
CAS: 41193-01-5
Molecular weight: 491
m/z	intensity
41	89
42	124
43	8
45	9
49	14
50	43
51	80
52	20
53	5
59	15
61	9
62	21
63	55
64	14
65	127
66	7
69	7
74	7
75	12
76	9
77	23
78	7
84	5
86	6
87	4
88	1
89	43
90	19
91	999
92	91
93	5
99	4
101	11
102	4
117	9
118	43
119	66
120	69
121	7
126	4
127	5
128	38
129	5
131	5
132	5
151	1
158	2
176	13
177	6
178	11
196	8
197	12
198	10
206	5
224	40
225	27
226	10
227	5
234	1
253	88
254	13
255	6
281	10
343	1
344	3
371	5
372	121
373	30
374	7
491	21
492	7
