Mass Spectrum: Bis-[1,3]-oxazino[6,5-a:5',6'-c]naphthalene, 3,4,5,6(2H,7H)-tetrahydro-N,N'-dibenzyl-
Formula: C28H26N2O2
CAS: 41193-14-0
Molecular weight: 422
m/z	intensity
41	60
42	86
43	3
44	4
45	1
46	2
49	3
50	30
51	48
52	12
53	8
54	1
55	3
57	0
58	2
59	4
61	2
63	50
65	187
66	9
74	8
76	46
77	26
78	5
79	2
80	1
84	3
86	3
87	2
89	26
91	999
92	89
93	4
101	5
102	7
104	28
105	19
106	15
107	1
113	3
114	3
115	13
116	1
117	2
118	31
119	18
120	7
127	31
128	33
129	11
130	2
133	8
134	7
139	3
140	1
141	4
143	4
152	0
154	8
155	7
156	8
157	11
158	0
166	5
167	4
168	1
169	0
170	2
182	8
184	29
185	15
186	3
194	7
195	9
196	3
198	14
199	0
209	0
210	2
212	142
213	16
214	1
215	1
218	1
225	1
226	28
227	3
246	2
260	2
274	3
286	2
287	2
288	13
289	3
290	0
302	71
303	176
304	31
305	4
331	3
368	3
422	31
423	10
424	2
