Mass Spectrum: Triazinate
Formula: C21H25ClN6O2
CAS: 41191-04-2
Molecular weight: 428
m/z	intensity
42	999
43	190
44	106
45	81
46	30
48	22
49	9
50	29
51	56
52	47
53	32
54	15
55	21
56	26
57	102
58	82
59	13
60	3
61	5
62	21
63	81
64	39
65	82
66	20
67	66
68	34
69	9
70	24
72	57
73	8
74	7
75	12
76	16
77	46
78	22
79	37
80	25
81	20
82	58
83	50
84	23
85	28
86	5
87	8
89	133
90	205
91	152
92	15
93	11
94	9
95	6
96	8
97	20
98	20
99	14
100	22
101	4
102	5
103	9
104	16
105	26
106	17
107	18
108	7
109	6
110	8
111	6
112	5
113	4
114	16
115	9
116	10
117	9
118	111
119	283
120	46
121	89
122	14
123	7
124	13
125	35
126	17
127	11
128	4
129	2
130	5
131	7
132	17
133	25
134	10
135	7
136	1
137	3
138	2
139	20
140	6
141	11
142	43
143	23
144	16
145	10
146	20
147	7
148	11
149	27
150	5
151	5
152	8
153	56
154	7
155	18
156	2
157	1
158	1
159	4
160	18
161	29
162	132
163	181
164	30
165	13
166	7
167	54
168	48
169	24
170	16
171	3
172	2
173	4
174	4
175	3
176	7
177	8
178	3
179	2
180	4
181	8
182	454
183	68
184	193
185	24
186	15
187	3
188	4
189	2
192	2
193	3
194	3
195	2
196	30
197	21
198	11
199	6
200	2
203	1
204	1
205	1
206	3
207	7
208	3
209	10
210	24
211	7
212	2
215	2
216	4
217	3
218	2
220	1
221	3
222	8
223	3
224	9
225	2
226	3
227	11
228	2
229	1
236	1
237	2
248	1
249	9
250	8
251	47
252	15
253	22
254	13
255	3
256	2
258	1
264	2
265	1
266	46
267	6
268	13
269	2
270	2
271	2
276	1
282	1
285	2
287	1
291	5
293	4
294	2
295	1
299	1
300	2
304	3
305	1
306	3
309	2
310	2
329	1
332	2
334	1
343	2
344	46
345	12
346	17
347	3
368	2
369	1
376	1
377	4
378	3
379	4
413	7
414	2
415	2
