Mass Spectrum: 2,3,4,5,6,7-Hexahydro-3,6-dipropyl-10,11-diphenyl-bis-[1,3]-oxazino[6,5-f:5',6'-H]quinoxaline
Formula: C30H32N4O2
CAS: 41193-08-2
Molecular weight: 480
m/z	intensity
41	269
42	999
43	227
44	12
47	5
48	1
49	29
50	5
51	19
52	11
53	12
54	14
55	6
56	19
57	0
58	2
63	5
64	1
65	4
66	2
67	6
68	4
70	212
71	11
72	17
76	14
77	21
78	8
79	1
80	3
83	0
84	19
86	13
88	3
89	4
90	2
91	8
92	2
102	4
103	5
104	16
105	8
106	4
115	2
119	0
127	2
128	1
134	1
139	0
140	0
151	3
152	4
153	1
163	1
165	4
167	2
168	0
175	1
176	6
177	5
178	13
179	9
180	3
190	4
191	11
203	1
204	3
205	2
206	5
207	1
283	4
311	13
312	3
339	8
340	35
341	10
342	4
351	0
352	1
353	3
380	16
381	5
382	30
383	7
394	13
395	4
408	9
409	13
410	12
411	24
412	7
480	5
481	0
