Mass Spectrum: Bis-[1,3]-oxazino[5,6-c:5',6'-H]quinoline,3,9-dibenzyl-3,4,9,10(2H,8H)-tetrahydro-5-trifluoromethyl-
Formula: C28H24F3N3O2
CAS: 41193-04-8
Molecular weight: 491
m/z	intensity
41	44
42	53
43	3
45	1
49	1
50	16
51	31
52	8
53	3
55	2
57	6
58	1
59	0
61	0
62	3
63	42
65	168
66	6
74	4
75	6
76	4
77	11
78	3
84	0
86	0
89	21
91	999
92	87
93	4
101	4
102	3
103	2
104	3
107	5
115	0
118	219
119	27
120	11
128	7
129	1
130	0
131	0
134	0
151	2
155	1
156	2
157	0
158	4
176	4
178	6
185	1
196	3
197	0
206	4
225	13
226	5
227	2
233	1
234	1
253	2
254	31
255	9
256	1
261	0
267	0
281	33
282	5
303	3
343	0
344	0
355	0
371	12
372	78
373	19
374	6
400	1
463	3
490	0
491	74
492	20
493	3
