Mass Spectrum: Thiazolidine, 2-pentyl-
Formula: C8H17NS
CAS: 41204-65-3
Molecular weight: 159
m/z	intensity
26	11
27	94
28	40
29	119
30	150
31	7
32	85
33	2
34	14
35	16
36	1
37	0
38	2
39	41
41	101
42	74
43	70
44	90
45	39
46	9
47	10
48	1
50	1
51	2
52	2
53	9
54	19
55	66
56	244
57	50
58	15
59	40
60	61
61	92
62	6
63	4
65	2
67	10
68	19
69	12
70	80
71	10
72	1
73	5
74	14
75	3
76	2
77	1
78	1
79	2
80	2
81	5
82	9
83	11
84	17
85	4
86	7
87	7
88	999
89	62
90	55
91	2
96	1
98	7
99	9
100	13
101	11
102	7
103	34
104	2
105	1
110	2
112	136
113	16
114	7
115	4
116	79
117	5
118	2
126	9
130	4
155	1
157	1
158	27
159	146
160	16
161	7
