Mass Spectrum: 5-Benzoyl-5H-dibenz[b,f]azepin
Formula: C21H15NO
CAS: 41216-97-1
Molecular weight: 297
m/z	intensity
32	131
36	1
37	1
38	4
39	41
40	10
41	4
42	1
43	3
44	6
49	1
50	35
51	121
52	11
53	2
55	2
57	3
61	1
62	11
63	39
64	7
65	9
66	1
69	2
70	1
71	1
73	1
74	13
75	24
76	20
77	320
78	25
79	1
82	4
85	1
86	5
87	13
88	10
89	27
90	6
91	2
94	1
96	5
97	1
98	3
99	4
100	5
101	10
102	8
103	2
105	999
106	86
107	6
110	2
111	6
112	3
113	17
114	9
115	20
116	6
117	1
120	3
122	1
123	1
124	1
125	4
126	11
127	6
128	7
129	1
133	2
137	9
138	10
139	49
140	32
141	7
149	2
150	7
151	6
152	18
153	8
154	1
161	2
162	6
163	52
164	60
165	173
166	34
167	4
175	1
176	4
177	23
178	4
179	1
187	1
188	7
189	19
190	135
191	208
192	755
193	124
194	9
206	1
213	1
226	0
237	0
238	0
239	1
240	1
241	1
252	0
263	0
264	1
265	2
266	3
267	3
268	2
269	0
270	0
272	0
278	0
294	0
295	0
297	242
298	57
299	6
300	0
