Mass Spectrum: 2',4'-Dinitrobenzanilide
Formula: C13H9N3O5
CAS: 41214-79-3
Molecular weight: 287
m/z	intensity
27	4
28	2
30	8
37	1
38	4
39	6
40	1
41	1
43	1
44	3
50	13
51	66
52	6
53	1
55	1
57	2
61	1
62	5
63	10
64	4
65	1
69	1
71	1
74	5
75	7
76	13
77	432
78	30
79	2
81	1
83	1
85	1
88	1
89	2
90	1
91	1
95	1
97	1
103	2
104	4
105	999
106	88
107	6
139	2
140	1
149	1
165	1
166	1
183	1
195	1
239	1
241	12
242	2
287	78
288	11
289	1
