Mass Spectrum: [2-(Aminocarbonyl)phenyl]carbamic acid, ethyl ester
Formula: C10H12N2O3
CAS: 41217-30-5
Molecular weight: 208
m/z	intensity
44	25
52	21
53	9
63	55
64	56
65	105
77	35
80	34
90	160
91	83
92	191
93	37
105	21
106	10
107	42
117	13
118	92
119	999
120	127
121	14
132	149
135	13
136	87
146	501
147	58
162	630
163	201
164	22
191	34
192	16
193	14
208	548
209	67
