Mass Spectrum: 2-Amino-1,3,5-triazine
Formula: C3H4N4
CAS: 4122-04-7
Molecular weight: 96
m/z	intensity
12	3
13	11
14	2
16	5
17	2
24	2
25	3
26	7
27	79
28	224
29	8
34	1
38	11
39	14
40	12
41	80
42	458
43	340
44	8
52	7
53	80
54	65
55	10
66	1
67	9
68	64
69	108
70	4
96	999
97	48
