Mass Spectrum: Benzo-1,2,3-triazin-4(3H)-one, 3-amino-
Formula: C7H6N4O
CAS: 41225-81-4
Molecular weight: 162
m/z	intensity
37	35
38	106
39	43
40	9
42	7
43	5
44	18
48	1
49	10
50	250
51	99
52	74
53	26
54	5
58	2
60	0
61	37
62	41
63	96
64	83
65	19
67	4
73	9
74	225
75	133
76	399
77	999
78	149
79	116
80	6
85	2
86	6
87	10
88	7
89	17
90	86
91	36
92	19
99	3
103	3
104	40
105	861
107	28
116	1
118	3
119	10
133	5
134	13
147	2
151	0
152	2
162	20
163	0
