Mass Spectrum: Octadecanedioic acid, 2-methyl-, dimethyl ester
Formula: C21H40O4
CAS: 41240-36-2
Molecular weight: 356
m/z	intensity
27	60
28	36
29	120
31	24
39	36
40	12
41	301
42	72
43	265
45	48
53	24
54	36
55	410
56	72
57	169
58	24
59	157
60	24
67	84
68	48
69	313
70	60
71	84
72	24
73	145
74	289
75	36
79	24
80	24
81	96
82	48
83	193
84	108
85	72
86	12
87	180
88	999
89	60
90	12
93	24
94	24
95	84
96	48
97	145
98	494
99	60
100	12
101	145
102	24
107	24
108	36
109	48
110	36
111	96
112	506
113	60
114	24
115	48
116	12
121	24
122	12
123	36
124	24
125	48
126	169
127	36
128	12
129	36
130	24
135	24
136	12
137	24
138	12
139	36
140	36
141	24
143	36
144	24
151	12
152	12
153	24
154	48
155	12
157	12
158	24
163	12
167	12
168	36
169	12
171	12
172	36
180	12
181	12
182	36
185	12
186	24
195	12
196	24
199	12
200	12
209	12
210	60
211	12
222	12
224	12
227	12
228	12
236	12
237	36
238	12
241	24
250	12
251	24
255	12
263	12
264	36
265	24
268	24
269	241
270	48
271	24
282	24
283	133
284	36
285	12
292	36
296	12
297	72
298	24
311	12
324	72
325	108
326	24
356	24
357	1
