Mass Spectrum: Pentadecanoic acid, 15-bromo-, methyl ester
Formula: C16H31BrO2
CAS: 41240-56-6
Molecular weight: 334
m/z	intensity
25	0
26	5
27	83
29	138
30	3
31	8
33	1
38	1
39	51
41	334
42	55
43	136
44	5
45	10
50	0
51	1
52	1
53	25
54	18
55	329
56	35
57	74
58	1
59	82
60	5
61	1
65	4
66	1
67	33
68	14
69	138
70	17
71	21
72	1
73	23
74	999
75	139
76	8
77	3
78	0
79	9
80	3
81	31
82	8
83	86
84	24
85	13
86	0
87	531
88	56
89	4
91	1
92	0
93	8
94	1
95	35
96	8
97	77
98	21
99	5
100	2
101	57
102	5
103	1
105	0
106	0
107	13
108	1
109	23
110	5
111	34
112	8
113	5
114	0
115	22
116	9
117	1
119	1
120	0
121	15
122	2
123	14
124	3
125	23
126	2
127	2
128	0
129	68
130	15
131	1
133	1
134	0
135	14
136	1
137	8
138	3
139	15
140	2
141	1
143	145
144	15
145	1
147	0
148	3
149	9
150	3
151	11
152	2
153	6
154	0
155	0
157	18
158	2
161	1
162	1
163	3
164	1
165	2
166	0
167	3
168	0
171	9
172	2
175	0
176	0
177	2
178	0
179	3
180	1
181	2
182	0
183	0
185	15
186	3
187	0
189	0
190	0
191	0
193	1
194	0
195	9
196	1
198	0
199	12
200	1
203	0
205	15
206	2
207	2
209	0
211	0
213	1
217	0
218	0
219	0
221	2
222	1
223	37
224	7
225	0
227	2
231	0
232	0
235	5
236	0
237	4
238	1
241	2
242	0
249	6
250	0
251	5
252	0
255	225
256	36
257	4
258	1
260	5
261	0
262	3
263	3
265	2
277	4
278	0
279	4
280	1
283	0
291	22
292	2
293	23
294	3
303	15
304	2
305	21
306	3
307	4
308	1
322	0
334	37
335	7
336	36
337	9
338	0
