Mass Spectrum: Hexadecanedioic acid, 2-propyl-, dimethyl ester
Formula: C21H40O4
CAS: 41240-34-0
Molecular weight: 356
m/z	intensity
27	54
28	54
29	81
31	27
39	27
41	162
42	54
43	216
44	27
45	41
53	27
54	41
55	338
56	68
57	135
58	14
59	95
60	14
67	68
68	41
69	162
70	41
71	81
73	27
74	162
75	27
79	14
80	14
81	68
82	41
83	162
84	149
85	54
87	513
88	41
91	14
93	14
94	14
95	68
96	41
97	122
98	432
99	54
100	14
101	41
102	14
107	27
108	27
109	54
110	41
111	68
112	122
113	27
114	14
115	41
116	999
117	81
118	14
119	14
121	27
122	14
123	27
124	27
125	41
126	122
127	27
128	14
129	68
130	27
135	27
136	27
137	27
138	27
139	41
140	135
141	27
143	27
149	14
150	14
151	14
152	14
153	27
154	81
155	27
157	14
158	14
165	14
166	14
167	14
168	410
171	14
172	14
180	14
181	14
182	41
185	14
186	27
191	14
196	41
200	27
208	14
209	27
210	41
211	14
221	14
222	27
224	14
225	14
226	14
227	14
228	14
240	27
241	122
242	41
250	27
251	27
263	14
264	41
265	27
282	122
283	135
284	41
292	27
299	27
300	81
301	27
314	108
315	27
324	68
325	95
326	27
356	14
