Mass Spectrum: 2-Allyloxyanisole
Formula: C10H12O2
CAS: 4125-43-3
Molecular weight: 164
m/z	intensity
14	3
15	26
16	1
17	2
18	7
25	1
26	29
27	43
28	31
29	13
30	1
31	23
32	6
36	2
37	12
38	39
39	202
40	17
41	319
42	11
43	7
44	3
45	3
49	4
50	47
51	104
52	188
53	40
54	11
55	65
56	3
57	4
59	1
60	3
61	6
62	13
63	62
64	46
65	179
66	17
67	97
68	7
69	3
71	1
73	3
74	7
75	5
76	7
77	420
78	48
79	28
80	82
81	81
82	6
83	1
85	1
89	4
90	3
91	33
92	37
93	53
94	11
95	653
96	52
97	4
98	1
101	1
102	3
103	35
104	15
105	24
106	5
107	11
108	13
109	129
110	13
111	1
112	1
114	1
115	5
116	2
117	3
118	3
119	5
120	6
121	53
122	24
123	999
124	163
125	13
126	1
129	1
130	1
131	28
132	15
133	18
134	6
135	15
136	11
137	9
138	2
145	2
146	2
147	9
148	4
149	32
150	4
161	4
162	5
163	43
164	729
165	81
166	8
