Mass Spectrum: Propanoic acid, 3-(phenylmethoxy)-, methyl ester
Formula: C11H14O3
CAS: 4126-60-7
Molecular weight: 194
m/z	intensity
41	20
42	10
43	40
45	130
50	10
51	40
52	10
55	40
56	30
57	120
58	10
59	90
61	40
63	20
65	110
71	60
73	10
77	70
78	30
79	150
80	10
87	90
88	260
89	50
90	50
91	999
92	130
103	20
105	80
106	70
107	930
108	120
121	130
134	50
162	20
166	20
194	110
195	20
