Mass Spectrum: Silane, 1,6-heptadiyne-1,7-diylbis[trimethyl-
Formula: C13H24Si2
CAS: 41268-43-3
Molecular weight: 236
m/z	intensity
27	3
28	9
29	10
31	8
40	14
41	3
43	74
44	11
45	79
46	4
53	23
54	5
55	34
57	5
58	11
59	75
60	5
66	9
67	26
68	7
69	30
70	7
71	7
72	6
73	999
74	87
75	39
79	13
81	45
82	9
83	75
84	9
85	16
87	3
88	12
89	7
91	4
93	17
95	36
96	45
97	69
98	9
99	7
101	5
103	299
104	30
105	13
106	3
107	20
108	3
109	115
110	18
111	12
112	23
113	6
115	10
117	15
119	15
120	11
121	25
122	5
123	63
124	30
125	24
126	3
127	5
129	21
130	4
131	17
132	4
133	179
134	28
135	42
136	7
137	13
138	4
139	5
141	19
142	3
143	5
145	49
146	11
147	378
148	630
149	126
150	29
151	6
153	4
155	75
156	11
157	6
159	15
160	3
161	73
162	225
163	127
164	23
165	14
167	3
169	13
170	3
175	4
177	18
178	6
179	33
180	6
181	7
189	4
191	21
192	4
193	54
194	10
195	5
197	15
198	3
205	29
206	7
207	6
219	8
220	4
221	270
222	65
223	26
224	4
236	159
237	39
238	15
