Mass Spectrum: Azetidine, TMS derivative
Formula: C6H15NSi
CAS: 41268-75-1
Molecular weight: 129
m/z	intensity
29	50
43	160
44	10
45	190
46	20
53	620
60	50
61	30
70	120
71	20
72	35
73	820
74	60
75	35
86	999
87	100
88	50
101	330
102	30
103	20
114	500
115	50
116	30
128	35
129	440
130	54
131	17
132	1
