Mass Spectrum: Quinoline-2-ol, 8-chloro-4-methyl-O-[5-[1-azacyclopropyl]-n-pentyl]-
Formula: C17H21ClN2O
CAS: 41288-79-3
Molecular weight: 304
m/z	intensity
41	743
42	999
43	199
44	261
45	8
47	2
49	19
50	20
51	50
52	15
53	67
54	81
55	227
56	786
57	350
58	93
59	4
61	2
62	19
63	44
64	12
65	16
67	54
68	61
69	106
70	55
71	18
73	11
74	12
75	35
76	13
77	61
78	10
79	2
80	9
82	256
83	555
84	78
85	20
87	22
88	19
89	20
90	7
91	2
94	7
96	241
97	22
98	61
99	72
101	76
102	45
103	35
104	2
110	85
111	315
112	250
113	46
114	48
115	41
116	10
123	11
124	4
125	5
126	10
127	13
128	94
130	74
131	9
136	9
137	2
138	5
140	133
141	97
142	20
143	9
149	17
150	21
151	8
152	8
157	2
159	3
162	8
164	145
166	75
167	10
172	4
174	8
176	59
177	41
178	35
179	14
180	7
184	7
191	89
193	258
194	94
195	74
196	32
204	25
206	61
207	7
208	17
218	7
220	40
221	2
222	15
248	4
249	24
251	14
262	7
269	12
275	7
304	4
