Mass Spectrum: 1-Isoquinolionl, o-(5-aziridinopentyl)-
Formula: C16H20N2O
CAS: 41288-87-3
Molecular weight: 256
m/z	intensity
41	308
42	394
43	95
44	125
45	3
50	10
51	17
52	6
53	24
54	35
55	66
56	357
57	146
58	41
59	1
62	15
63	35
64	6
65	5
67	22
68	23
69	61
70	27
71	11
72	1
74	2
75	14
76	7
77	19
78	2
79	2
80	3
82	112
83	120
84	36
85	10
86	2
87	4
89	108
90	42
91	7
94	1
96	69
98	91
99	94
100	10
101	17
102	8
103	4
110	46
112	999
113	75
114	7
115	10
116	39
117	25
118	46
119	3
123	3
124	1
125	2
126	1
128	109
129	19
130	12
131	1
143	50
145	162
146	31
147	3
150	1
151	1
152	2
154	0
156	12
157	4
158	22
159	7
160	1
162	2
167	1
168	1
170	18
171	45
172	36
173	3
177	0
179	5
180	1
181	2
183	4
184	3
185	2
186	2
194	1
196	0
198	2
199	0
200	2
201	24
202	3
206	1
210	5
211	1
212	2
213	1
214	5
227	9
228	5
229	0
238	7
239	2
254	7
255	32
256	147
257	24
258	2
