Mass Spectrum: Ethanethiol, 2-(5-(6-chloro-4-methyl-2-quinolyloxy)pentyl)amino-, hydrogen sulfate
Formula: C17H23ClN2O4S2
CAS: 41287-35-8
Molecular weight: 418
m/z	intensity
41	151
42	126
43	40
44	86
45	18
46	4
47	7
48	136
49	9
50	52
51	115
52	33
53	15
54	24
55	118
56	72
57	20
58	14
59	16
60	15
61	47
62	28
63	49
64	430
65	64
66	14
67	13
68	13
69	44
70	46
71	1
72	7
73	17
74	24
75	42
76	22
77	47
78	13
79	1
80	5
81	3
82	27
83	21
84	67
85	33
86	19
87	16
88	14
89	18
90	11
91	3
92	1
93	1
94	1
96	40
98	999
99	76
101	62
102	54
103	30
104	5
108	2
109	2
110	15
111	26
112	89
113	17
114	15
115	8
116	6
117	3
121	0
122	0
123	7
124	6
125	4
126	6
127	6
128	44
129	28
130	91
131	9
133	0
135	1
136	6
137	5
138	5
139	3
140	15
141	10
142	12
143	13
144	44
145	32
146	21
147	3
148	0
149	4
150	4
151	3
152	2
153	1
154	6
156	4
157	2
158	2
160	1
162	6
163	1
164	372
165	65
166	116
167	22
168	2
169	0
170	0
171	1
174	1
175	4
176	12
177	82
178	11
179	9
180	1
181	0
182	0
187	0
190	1
191	9
192	1
193	465
194	88
195	153
196	28
197	3
204	2
205	2
206	5
208	2
209	2
210	0
218	0
220	3
222	0
226	1
230	0
248	0
289	3
291	2
305	5
306	0
307	1
349	0
362	1
370	0
402	0
418	0
