Mass Spectrum: 2-Pyridol, o-[5-[1-cycloazapropyl]-n-pentyl]-5-methyl-
Formula: C13H20N2O
CAS: 41288-54-4
Molecular weight: 220
m/z	intensity
41	485
42	562
43	157
44	177
45	6
50	18
51	51
52	66
53	219
54	69
55	147
56	490
57	276
58	81
59	3
62	4
63	13
65	125
66	23
67	40
68	37
69	84
70	44
71	26
72	3
77	7
78	11
80	203
81	111
82	163
83	197
84	84
85	27
86	3
92	115
93	30
94	26
96	113
97	18
98	71
99	91
100	6
107	132
109	245
110	187
111	156
112	999
113	82
114	3
115	3
117	0
118	2
120	22
121	13
122	46
123	12
124	5
125	3
126	1
128	18
130	8
132	2
134	20
135	53
136	64
137	6
139	1
140	0
148	8
149	6
150	8
151	3
152	5
153	1
160	0
162	6
163	0
164	10
165	24
166	4
169	1
174	0
176	7
177	1
178	14
179	2
183	1
185	3
191	13
192	8
205	3
206	0
219	17
220	646
221	97
222	10
223	3
