Mass Spectrum: Ethanethiol, 2-(3-(4-(trifluoromethyl)-2-quinolyloxy)propyl)amino-, hydrogen sulfate
Formula: C15H17F3N2O4S2
CAS: 41287-23-4
Molecular weight: 410
m/z	intensity
41	209
42	298
43	111
44	40
45	28
46	2
48	130
50	35
51	28
52	17
54	26
56	109
57	62
58	46
59	25
60	7
61	106
62	41
64	283
65	9
66	10
68	81
70	999
71	42
72	3
73	15
74	16
75	25
76	10
77	3
78	4
79	5
80	14
81	14
82	9
83	79
84	167
85	15
88	314
89	60
90	31
91	1
92	32
94	4
95	1
96	13
97	6
99	20
101	32
102	13
103	3
105	0
107	36
108	26
109	2
110	3
111	0
112	10
114	40
115	6
116	65
117	100
118	9
119	22
120	4
121	0
123	0
124	4
125	1
126	19
127	2
128	14
129	33
130	13
131	1
132	10
134	7
135	77
137	30
138	22
139	15
140	3
142	14
143	3
144	18
145	19
146	9
147	1
148	4
150	90
151	4
152	8
154	1
156	5
157	18
158	22
159	1
162	1
163	1
164	15
165	17
166	184
167	12
169	4
170	1
176	53
177	3
179	4
182	2
185	255
186	9
192	0
194	12
196	59
197	13
198	2
210	0
211	2
212	4
213	619
214	112
224	2
225	5
226	8
227	4
238	4
240	19
241	1
243	0
252	2
253	2
254	16
255	2
271	0
283	38
284	5
296	7
297	26
298	4
331	5
341	1
354	2
368	1
