Mass Spectrum: 2-Pyridinol, 5-bromo-O-[5-[1-cycloazapropyl]-n-pentyl]-
Formula: C12H17BrN2O
CAS: 41288-35-1
Molecular weight: 284
m/z	intensity
41	619
42	574
43	272
44	197
45	6
47	3
49	10
50	48
51	36
52	18
53	47
56	999
57	388
58	81
59	4
64	30
65	18
66	34
67	65
68	27
69	163
70	68
71	81
72	5
76	52
77	30
78	24
79	22
80	10
82	339
83	313
84	108
85	50
86	6
88	1
91	6
92	4
93	9
94	16
96	136
97	46
98	122
99	151
100	9
104	2
105	4
106	4
107	5
108	7
110	97
112	556
113	41
114	2
115	2
117	30
119	25
120	2
121	3
122	2
123	7
124	4
125	12
126	6
128	24
129	4
130	2
131	3
133	2
135	3
137	5
138	1
139	4
140	2
141	3
145	46
146	3
147	30
148	2
149	2
150	2
151	4
152	2
153	3
154	2
156	37
158	47
159	7
160	6
163	2
165	2
167	2
168	0
169	2
171	33
173	68
174	25
175	38
176	24
177	2
179	2
180	0
182	0
184	7
186	14
187	5
188	7
189	2
193	0
196	3
197	1
198	3
199	12
200	8
201	7
202	6
204	1
205	2
207	1
211	1
212	2
213	3
214	3
215	2
221	1
223	1
224	2
225	3
228	4
229	3
230	3
231	3
235	2
237	2
239	3
240	1
242	4
244	3
252	1
253	1
254	0
255	3
256	1
257	3
267	0
282	2
283	10
284	56
286	59
287	6
