Mass Spectrum: Ethanethiol, 2-(5-(3-bromo-4-pyridyloxy)pentyl)amino-, hydrogen sulfate
Formula: C12H19BrN2O4S2
CAS: 41287-18-7
Molecular weight: 398
m/z	intensity
41	187
42	154
43	57
44	121
45	27
46	5
47	15
48	118
49	16
50	33
51	21
52	23
53	68
54	31
55	122
56	61
57	22
58	13
59	21
60	20
61	39
62	2
64	267
65	23
66	68
67	51
68	17
69	51
70	49
71	4
72	4
75	4
76	14
77	1
78	7
79	12
80	13
81	12
82	17
83	14
84	57
85	25
86	16
87	1
88	12
90	8
91	7
92	4
93	7
94	115
95	8
96	29
98	999
99	52
101	1
102	4
104	5
106	5
108	2
110	12
111	13
112	43
113	5
114	8
116	13
117	9
118	6
119	11
120	6
128	1
129	3
131	5
132	2
133	1
135	1
142	11
143	13
144	35
145	25
146	19
147	1
148	5
150	3
156	6
158	3
171	9
173	184
175	184
176	21
177	61
178	4
179	9
186	3
188	1
271	5
273	5
