Mass Spectrum: Urea, N,N'-bis(1-methylethyl)-
Formula: C7H16N2O
CAS: 4128-37-4
Molecular weight: 144
m/z	intensity
14	2
15	26
16	1
17	1
26	4
27	47
28	47
29	5
30	14
31	0
37	1
38	3
39	26
40	11
41	82
42	91
43	152
44	999
45	26
46	2
49	7
50	0
51	1
52	1
54	2
55	1
56	14
57	51
58	212
59	11
60	13
61	4
64	0
69	5
70	174
71	6
72	1
73	6
74	1
84	4
85	26
86	8
87	24
88	1
101	1
102	1
103	0
113	1
115	0
129	77
130	6
144	152
145	15
146	1
