Mass Spectrum: Ethanethiol, 2-(3-(5-chloro-2-pyridyloxy)propyl)amino-, hydrogen sulfate
Formula: C10H15ClN2O4S2
CAS: 41286-96-8
Molecular weight: 326
m/z	intensity
41	166
42	196
43	86
44	86
45	42
46	12
47	32
48	177
49	22
50	55
51	41
52	20
53	7
54	28
55	23
56	134
57	160
58	65
59	45
60	53
61	105
62	21
63	12
64	509
65	15
66	77
67	10
68	50
70	999
71	54
73	133
74	62
75	40
76	88
77	11
78	29
79	12
80	11
82	31
83	59
84	159
85	16
86	34
87	13
88	198
90	54
92	13
93	2
94	27
96	19
97	2
98	12
99	6
100	39
101	286
102	30
103	105
104	11
106	7
108	11
110	5
112	101
113	21
114	64
115	25
116	38
117	48
118	13
120	18
124	9
126	11
127	2
129	402
130	127
131	133
132	46
133	5
134	3
135	10
137	4
138	5
140	12
141	17
142	36
143	40
144	26
145	3
146	5
148	3
150	42
152	4
154	11
156	52
157	6
158	19
159	10
160	6
163	9
165	11
166	2
168	12
169	30
170	112
171	13
172	39
176	5
187	9
197	2
199	135
201	54
205	2
212	29
213	42
214	9
215	19
233	5
247	10
249	2
270	2
