Mass Spectrum: Bicyclo[3.1.0]hexan-2-ol, 5-methyl-, (1.alpha.,2.beta.,5.alpha.)-
Formula: C7H12O
CAS: 41299-39-2
Molecular weight: 112
m/z	intensity
12	5
13	11
14	46
15	200
16	7
17	7
18	17
19	12
25	6
26	119
27	856
28	176
29	649
30	25
31	178
32	4
37	32
38	85
39	737
40	211
41	692
42	198
43	520
44	71
45	28
46	3
47	6
48	4
49	11
50	84
51	150
52	67
53	443
54	80
55	595
56	227
57	516
58	217
59	12
61	7
62	16
63	34
64	9
65	73
66	148
67	624
68	673
69	211
70	999
71	78
72	7
74	5
75	8
76	4
77	158
78	37
79	401
80	40
81	76
82	45
83	168
84	137
85	13
86	3
89	4
90	3
91	56
92	10
93	56
94	265
95	70
96	16
97	527
98	36
99	2
105	4
108	7
109	6
111	44
112	71
113	6
