Mass Spectrum: Cyclohexanecarboxylic acid, 2-oxo-, methyl ester
Formula: C8H12O3
CAS: 41302-34-5
Molecular weight: 156
m/z	intensity
26	96
27	513
28	76
29	300
30	65
31	603
33	6
37	31
38	71
39	415
40	199
41	656
42	292
43	154
44	205
45	41
49	15
50	42
51	54
52	38
53	104
54	81
55	951
56	65
57	61
59	178
61	12
62	14
63	21
64	8
65	67
66	63
67	233
68	999
69	294
70	63
71	18
72	8
73	11
74	248
75	14
76	10
77	78
78	99
79	104
80	54
81	91
82	25
83	119
84	8
85	50
87	414
88	19
92	9
93	8
94	42
95	89
96	334
97	167
98	50
99	22
100	359
101	41
105	35
106	16
109	12
110	13
111	30
112	9
113	74
114	9
122	11
123	143
124	854
125	411
126	37
127	33
128	350
129	18
141	21
155	14
156	474
157	31
