Mass Spectrum: 2H-Pyran, 2-(4-chlorobutoxy)tetrahydro-
Formula: C9H17ClO2
CAS: 41302-05-0
Molecular weight: 192
m/z	intensity
14	2
15	11
17	2
18	7
25	1
26	20
27	177
28	113
29	220
30	7
31	129
32	3
33	1
35	2
36	12
37	3
38	7
39	108
40	27
41	382
42	155
43	120
44	72
45	15
47	25
49	17
50	7
51	9
52	4
53	38
54	59
55	643
56	418
57	122
58	7
59	9
60	3
61	2
62	17
63	22
64	7
65	8
66	3
67	76
68	7
69	13
70	5
71	45
72	12
73	4
74	13
75	6
76	2
77	3
78	1
79	1
80	2
81	3
82	2
83	39
84	69
85	999
86	62
87	5
88	1
89	2
90	17
91	690
92	36
93	224
94	10
98	2
99	2
100	3
101	33
102	4
103	2
105	1
107	3
109	2
115	13
116	1
119	3
121	3
123	1
134	11
135	1
136	4
137	3
139	1
157	3
164	1
191	26
192	9
193	10
194	3
