Mass Spectrum: L-Proline, phenylmethyl ester
Formula: C12H15NO2
CAS: 41324-66-7
Molecular weight: 205
m/z	intensity
26	3
27	14
28	112
29	4
31	4
35	11
36	84
37	4
38	27
39	29
40	5
41	50
42	12
43	67
44	6
50	5
51	15
52	5
53	4
63	9
64	3
65	45
66	3
68	34
69	12
70	999
71	48
77	15
78	3
79	4
86	3
89	7
90	4
91	118
92	11
105	3
