Mass Spectrum: DL-Alanine, N-[(phenylmethoxy)carbonyl]-
Formula: C11H13NO4
CAS: 4132-86-9
Molecular weight: 223
m/z	intensity
12	5
13	3
14	20
15	74
16	8
25	6
26	45
27	122
28	371
29	71
30	1
31	25
36	1
37	16
38	39
39	150
40	42
41	66
42	118
43	274
44	199
45	57
46	8
49	9
50	84
51	183
52	55
53	44
54	19
55	18
56	16
61	13
62	25
63	67
64	21
65	183
66	14
70	48
71	17
72	2
73	11
74	39
75	16
76	16
77	291
78	68
79	526
80	54
81	1
86	0
87	2
88	73
89	87
90	97
91	999
92	110
93	1
104	1
105	35
106	18
107	374
108	812
109	70
110	1
114	1
115	12
132	13
134	43
135	2
178	13
187	4
205	3
223	35
224	2
