Mass Spectrum: Methyl 2-acetamido-2,6-dideoxy-6-fluoro-3,4-di-O-methyl-.alpha.-D-glucopyranoside
Formula: C11H20FNO5
CAS: 41341-97-3
Molecular weight: 265
m/z	intensity
39	22
40	6
41	60
42	39
43	259
44	25
45	119
46	4
47	22
53	20
54	10
55	26
56	27
57	20
58	139
59	46
60	27
61	19
68	12
69	21
70	21
71	46
72	27
73	999
74	71
75	199
76	6
77	24
80	28
81	6
82	8
83	10
84	28
85	24
86	159
87	27
88	119
89	56
90	84
96	13
97	9
98	46
99	15
100	37
101	65
102	22
103	37
104	4
108	3
110	12
111	18
112	16
114	15
115	549
116	50
117	65
118	5
126	9
128	479
129	44
130	23
131	24
132	16
133	5
140	7
141	4
142	13
143	52
144	9
146	2
158	7
159	1
160	43
161	4
162	1
168	10
170	13
171	2
172	10
173	51
174	22
175	4
176	1
186	0
190	1
200	6
202	52
203	25
204	2
205	1
206	6
218	0
233	0
234	7
235	0
265	0
266	0
