Mass Spectrum: Cyclohexylsulfide, decyl-
Formula: C16H32S
CAS: 41346-30-9
Molecular weight: 256
m/z	intensity
39	108
40	18
41	563
42	72
43	308
44	218
45	51
47	57
53	54
54	149
55	974
56	123
57	223
58	10
59	20
60	49
61	84
65	14
67	807
68	72
69	167
70	80
71	128
73	44
75	15
77	19
78	10
79	54
80	23
81	244
82	999
83	717
84	77
85	115
87	131
88	21
89	44
95	31
96	20
97	92
98	22
99	23
101	36
103	13
111	26
112	18
114	30
115	180
116	102
117	49
129	141
130	18
131	13
140	26
143	20
171	26
172	77
173	819
174	95
175	69
187	24
213	26
256	205
257	42
258	13
