Mass Spectrum: 4'-Bromophenyl-1-thio-.beta.-d-glucoside, tetraacetate(ester)
Formula: C20H23BrO9S
CAS: 41341-50-8
Molecular weight: 518
m/z	intensity
41	0
43	999
44	29
45	14
47	1
50	6
51	3
52	1
53	4
54	2
55	10
56	3
57	8
58	3
59	1
60	5
61	12
63	10
64	1
65	6
66	1
67	1
68	3
69	34
70	5
71	13
72	1
73	18
74	3
75	6
76	5
77	4
78	3
79	1
80	1
81	63
82	14
83	7
84	3
85	35
86	7
87	6
88	0
89	2
90	1
91	2
93	1
94	0
95	2
96	2
97	79
98	13
99	25
100	2
101	4
102	5
103	49
104	2
105	1
106	1
107	3
108	78
109	636
110	62
111	12
112	2
113	8
114	2
115	64
116	8
117	2
118	0
119	1
120	1
121	5
122	10
123	2
124	1
125	7
126	7
127	243
128	17
129	4
130	0
131	2
133	0
134	3
135	2
136	1
137	1
139	99
140	7
141	10
142	1
143	6
144	2
145	67
146	4
147	5
148	2
149	1
150	10
151	6
152	3
153	1
154	0
155	4
156	3
157	9
158	4
159	1
160	1
161	1
163	3
164	1
165	1
167	2
168	3
169	881
170	109
171	18
172	2
173	1
174	0
175	0
176	2
177	0
181	0
183	0
185	3
186	2
187	79
188	30
189	51
190	27
191	4
192	1
193	0
199	3
200	1
201	14
202	1
203	13
204	2
205	4
206	0
211	43
212	4
213	1
215	1
216	0
217	1
218	1
219	0
225	2
227	2
228	0
229	29
230	7
231	3
232	4
233	1
241	1
243	6
244	0
245	6
246	1
247	2
248	0
255	1
256	0
257	1
258	0
259	1
261	1
267	1
269	1
271	55
272	7
273	5
274	0
275	0
283	2
285	2
287	1
288	1
289	3
295	0
296	0
297	4
298	1
299	3
301	0
313	0
315	0
327	0
331	439
332	70
333	13
334	1
518	0
