Mass Spectrum: l-Cysteine, S-butyl-
Formula: C7H15NO2S
CAS: 4134-56-9
Molecular weight: 177
m/z	intensity
26	9
27	116
28	118
29	241
30	69
39	52
40	7
41	201
42	126
43	199
44	43
45	56
46	32
47	76
48	22
49	10
51	3
53	9
54	5
55	146
56	90
57	152
58	13
59	54
60	16
61	999
62	34
63	42
69	4
70	12
71	13
73	13
74	176
75	43
76	63
88	28
89	24
90	37
91	5
103	231
104	183
105	21
106	7
115	3
120	4
121	7
132	100
133	6
134	4
160	7
177	94
178	9
179	4
180	4
