Mass Spectrum: Diisopropylthiuram disulfide
Formula: C14H28N2S4
CAS: 4136-91-8
Molecular weight: 352
m/z	intensity
15	10
26	6
27	123
28	60
29	7
30	9
32	8
33	2
34	3
36	1
37	3
38	7
39	70
40	16
41	364
42	129
43	768
44	83
45	13
46	3
47	30
48	1
49	2
51	1
52	3
53	2
54	13
55	3
56	8
57	4
58	457
59	29
60	375
61	11
62	16
63	1
64	29
65	3
66	3
68	10
69	9
70	27
71	3
72	18
73	11
74	12
75	111
76	34
77	31
78	4
79	3
82	1
83	1
84	17
85	3
86	42
87	3
88	3
90	3
91	6
92	211
93	7
94	18
96	1
97	1
98	7
99	2
100	143
101	57
102	999
103	57
104	46
105	4
106	1
107	19
108	1
109	2
112	1
118	2
119	4
120	1
121	1
122	9
123	1
124	6
128	5
129	1
130	1
131	1
132	3
133	5
134	109
135	8
136	9
137	4
139	3
141	1
142	2
144	732
145	73
146	36
147	3
148	1
155	1
156	1
157	1
162	9
163	1
164	12
165	1
166	6
170	1
171	1
173	1
174	1
175	11
176	356
177	88
178	38
179	8
180	1
181	1
187	1
189	1
196	3
197	1
198	2
206	2
208	11
209	1
210	1
219	4
221	1
223	1
229	1
230	1
231	1
232	1
233	1
238	3
239	8
240	13
241	5
242	6
243	1
265	2
271	2
272	3
273	1
274	1
320	2
352	22
353	4
354	4
