Mass Spectrum: Imidazole, 5-fluoro-4-methyl-
Formula: C4H5FN2
CAS: 41367-01-5
Molecular weight: 100
m/z	intensity
41	60
42	256
43	42
44	34
45	34
46	74
47	6
50	3
51	27
52	65
53	23
54	32
55	5
56	6
57	16
58	26
59	49
60	3
70	15
71	12
72	140
73	24
79	6
81	6
84	4
85	4
98	13
99	880
100	999
101	74
102	4
