Mass Spectrum: Pyridine-4-carbohydrazide, N2-(2-hydroxy-5-nitrobenzylideno)-
Formula: C13H10N4O4
CAS: 41377-70-2
Molecular weight: 286
m/z	intensity
36	0
37	8
38	24
39	36
40	8
41	9
42	6
43	12
44	11
45	4
46	8
50	201
51	451
52	92
53	56
54	11
55	11
56	28
57	2
60	0
61	10
62	34
63	61
64	26
65	24
66	13
67	8
68	4
69	2
73	3
74	22
75	33
76	52
77	112
78	785
79	145
80	16
81	3
82	1
83	0
85	0
86	2
87	5
88	7
89	6
90	17
91	16
92	19
93	9
94	8
95	6
96	1
101	1
102	1
103	5
104	24
106	999
107	74
108	6
109	1
110	0
115	0
116	1
117	2
118	7
119	12
120	8
122	331
123	70
124	5
128	0
130	0
131	0
133	23
134	42
135	6
136	1
137	2
138	0
143	0
145	0
147	0
148	6
149	5
150	9
151	1
152	1
154	0
157	0
159	1
160	0
161	0
163	30
164	4
165	4
166	2
167	4
171	0
180	1
182	0
188	0
200	0
212	0
215	0
229	1
240	32
241	3
242	0
256	2
268	0
270	0
271	3
286	78
287	12
288	0
294	0
