Mass Spectrum: 2,5-Furandione, dihydro-3-isooctadecyl-
Formula: C22H40O3
CAS: 41375-88-6
Molecular weight: 352
m/z	intensity
15	5
16	2
17	7
18	21
26	9
27	176
28	60
29	412
30	9
31	1
32	1
38	2
39	115
40	25
41	857
42	151
43	999
44	32
45	6
50	2
51	8
52	7
53	76
54	146
55	897
56	251
57	654
58	29
59	8
60	6
61	3
63	2
65	16
66	15
67	230
68	129
69	563
70	338
71	306
72	20
73	48
74	10
75	1
77	18
78	6
79	57
80	30
81	226
82	136
83	386
84	177
85	166
86	72
87	16
88	3
90	1
91	18
92	6
93	47
94	27
95	188
96	124
97	277
98	178
99	57
100	204
101	35
102	15
103	3
104	2
105	14
106	5
107	36
108	23
109	131
110	100
111	168
112	106
113	43
114	51
115	15
116	33
117	7
118	2
119	14
120	6
121	32
122	20
123	85
124	79
125	112
126	74
127	618
128	59
129	29
130	24
131	6
132	2
133	16
134	7
135	28
136	18
137	69
138	59
139	93
140	53
141	114
142	39
143	13
144	33
145	6
146	1
147	14
148	7
149	20
150	14
151	54
152	57
153	83
154	50
155	132
156	69
157	16
158	32
159	5
160	1
161	11
162	6
163	14
164	11
165	45
166	58
167	75
168	33
169	79
170	86
171	16
172	25
173	5
174	1
175	9
176	5
177	11
178	10
179	38
180	50
181	59
182	27
183	89
184	91
185	16
186	19
187	4
188	1
189	8
190	6
191	9
192	9
193	36
194	39
195	52
196	23
197	57
198	88
199	17
200	13
201	3
202	1
203	7
204	5
205	7
206	8
207	31
208	34
209	46
210	19
211	59
212	92
213	18
214	9
215	2
216	1
217	6
218	4
219	6
220	7
221	31
222	36
223	42
224	17
225	45
226	71
227	17
228	6
229	2
231	5
232	4
233	4
234	4
235	31
236	32
237	38
238	14
239	53
240	74
241	17
242	5
243	1
245	4
246	3
247	6
248	19
249	32
250	63
251	43
252	26
253	47
254	65
255	15
256	3
257	1
259	3
260	3
261	4
262	4
263	23
264	36
265	23
266	8
267	47
268	74
269	15
270	2
273	3
274	9
275	6
276	5
277	24
278	37
279	22
280	17
281	39
282	71
283	12
284	2
287	3
288	3
289	5
290	3
291	12
292	26
293	17
294	6
295	41
296	67
297	12
298	2
303	1
304	4
305	11
306	36
307	18
308	7
309	21
310	48
311	9
312	1
316	3
317	2
318	1
319	2
320	2
321	2
322	6
323	11
324	25
325	6
330	1
332	4
333	4
334	122
335	29
336	5
337	5
338	2
350	17
351	11
352	114
353	28
354	4
