Mass Spectrum: 3,5-Bis(1-methylcyclopropyl)phenyl trifluoromethanesulfonate
Formula: C15H17F3O3S
CAS: 41381-29-7
Molecular weight: 334
m/z	intensity
39	490
41	309
52	78
53	239
55	999
63	138
65	208
67	79
69	578
77	382
78	109
79	171
81	90
89	59
91	520
92	50
93	110
103	99
105	110
115	379
116	119
117	251
118	60
119	160
127	119
128	410
129	468
130	131
131	442
132	60
141	178
142	139
144	150
147	120
154	69
155	59
157	110
158	180
159	141
169	139
171	79
173	541
174	79
184	90
185	502
186	140
201	530
202	89
279	230
334	60
