Mass Spectrum: 2(1H)-Naphthalenone, 1-methyl-1-(2-propynyl)-
Formula: C14H12O
CAS: 41389-92-8
Molecular weight: 196
m/z	intensity
77	170
102	100
115	100
129	999
167	280
168	260
181	290
196	539
