Mass Spectrum: 2(1H)-Pyrimidinone, 5-methyl-
Formula: C5H6N2O
CAS: 41398-85-0
Molecular weight: 110
m/z	intensity
40	100
41	85
43	70
44	90
52	60
53	50
54	150
55	480
56	90
57	80
69	70
71	50
81	115
82	370
83	70
95	50
109	115
110	999
111	80
