Mass Spectrum: 1-Benzotriazoleacetic acid
Formula: C8H7N3O2
CAS: 4144-64-3
Molecular weight: 177
m/z	intensity
33	0
34	1
35	1
36	11
37	63
38	113
39	187
40	41
41	86
42	40
43	89
44	48
45	189
46	3
47	1
48	1
49	23
50	284
51	495
52	162
53	33
54	14
55	63
56	25
57	72
58	6
59	31
60	18
61	35
62	65
63	224
64	220
65	137
66	85
67	40
68	12
69	97
70	21
71	42
73	39
74	92
75	88
76	166
77	999
78	216
79	47
80	10
89	11
90	113
91	802
92	917
93	205
94	63
95	35
96	14
97	34
98	11
103	29
104	175
105	63
106	17
107	9
119	14
120	230
121	62
122	8
132	119
133	24
134	6
148	16
149	64
150	12
151	1
177	827
178	85
179	12
180	4
