Mass Spectrum: 5-Benzoylpentanoic acid
Formula: C12H14O3
CAS: 4144-62-1
Molecular weight: 206
m/z	intensity
12	1
15	1
17	6
18	21
19	0
26	6
27	81
28	41
29	20
36	2
37	2
38	10
39	70
40	7
41	46
42	23
43	14
44	2
45	86
46	2
47	1
49	2
50	66
51	226
52	20
53	18
54	5
55	77
56	11
57	4
58	1
60	11
61	1
62	4
63	11
64	2
65	13
66	2
67	1
68	3
69	2
71	1
73	2
75	13
76	31
77	569
78	62
79	7
80	1
81	1
82	1
83	7
84	16
85	1
86	2
87	1
89	4
90	1
91	18
92	4
95	1
101	3
102	3
103	6
104	1
105	999
106	72
107	8
111	2
115	7
116	2
117	2
118	1
120	290
121	28
122	4
123	1
127	1
128	15
129	3
131	3
132	2
133	22
134	3
137	1
143	5
144	3
145	3
146	12
147	2
160	4
161	4
179	2
187	1
188	11
189	2
206	5
207	1
