Mass Spectrum: 7-Tetradecene, (E)-
Formula: C14H28
CAS: 41446-63-3
Molecular weight: 196
m/z	intensity
22	1
23	0
25	3
26	9
27	160
28	19
29	335
30	7
32	2
33	1
35	2
36	2
37	5
38	3
39	131
40	21
41	672
42	230
43	709
44	8
45	0
47	2
48	1
49	2
50	3
51	8
52	6
53	56
54	193
55	999
56	671
57	506
58	21
61	1
63	2
65	16
66	16
67	165
68	91
69	907
70	544
71	197
72	9
75	1
77	10
78	5
79	24
80	7
81	70
82	105
83	558
84	267
85	79
86	3
91	7
93	5
94	1
95	22
96	45
97	300
98	117
99	15
100	0
105	0
109	6
110	18
111	118
112	54
113	6
123	1
124	6
125	34
126	23
127	2
138	1
139	7
140	7
141	1
153	3
154	2
168	5
196	67
197	10
