Mass Spectrum: Decanoic acid, 4-oxo-
Formula: C10H18O3
CAS: 4144-54-1
Molecular weight: 186
m/z	intensity
41	380
43	999
45	50
55	440
56	150
57	280
69	100
73	120
85	300
86	20
98	790
99	110
101	570
102	25
111	150
112	8
113	660
114	50
116	760
117	40
186	110
187	12
