Mass Spectrum: 2-Nonen-1-ol, (Z)-
Formula: C9H18O
CAS: 41453-56-9
Molecular weight: 142
m/z	intensity
15	7
17	3
18	10
26	7
27	189
28	48
29	293
30	9
31	60
32	6
37	1
38	6
39	195
40	34
41	604
42	209
43	517
44	143
45	39
46	1
50	8
51	22
52	12
53	90
54	618
55	557
56	260
57	999
58	85
59	26
60	2
61	1
62	2
63	5
64	1
65	34
66	41
67	461
68	400
69	306
70	188
71	127
72	49
73	10
74	1
75	2
76	1
77	22
78	5
79	56
80	18
81	346
82	333
83	154
84	39
85	41
86	10
87	4
91	8
92	1
93	13
94	9
95	271
96	177
97	26
98	29
99	31
100	4
101	5
102	3
103	1
105	3
107	3
109	29
110	3
111	8
112	2
113	9
114	4
115	1
120	1
121	1
122	2
123	4
124	230
125	25
126	4
127	1
138	2
139	2
140	1
141	2
142	4
