Mass Spectrum: Bruceantin
Formula: C28H36O11
CAS: 41451-75-6
Molecular weight: 548
m/z	intensity
41	80
43	140
53	10
55	107
57	55
59	20
67	72
69	57
71	42
81	41
82	10
83	67
84	22
85	23
91	10
93	37
95	71
97	19
109	24
110	86
111	999
112	70
113	9
138	29
139	9
297	19
438	33
