Mass Spectrum: Bicyclo[2.2.1]hept-2-en-2-amine, N,N-dimethyl-
Formula: C9H15N
CAS: 41455-23-6
Molecular weight: 137
m/z	intensity
39	323
43	323
50	45
51	96
52	68
53	163
54	51
55	94
56	35
57	25
58	23
62	20
63	43
64	35
65	170
66	132
67	109
68	94
69	35
70	30
77	102
78	45
79	63
80	35
81	66
82	43
91	56
92	45
93	53
94	670
95	66
108	262
109	999
110	107
120	30
122	71
137	130
