Mass Spectrum: 2-Methyl-4-(1-methylethyl)-2-cyclohexenone
Formula: C10H16O
CAS: 41469-46-9
Molecular weight: 152
m/z	intensity
36	6
39	82
40	53
41	363
42	15
43	331
44	13
50	30
51	79
52	24
53	136
54	33
55	61
56	35
57	19
61	12
63	29
65	36
66	73
67	73
68	88
69	145
70	16
73	7
74	1
77	95
78	9
79	158
80	64
81	394
82	118
83	44
84	58
85	36
91	56
93	19
94	9
95	837
96	150
97	151
98	10
105	9
107	30
108	90
109	608
110	999
111	128
115	4
119	3
123	27
126	6
137	90
149	4
152	668
153	76
