Mass Spectrum: 3-Azabicyclo[3.3.1]nonan-9-one, 3-methyl-
Formula: C9H15NO
CAS: 4146-35-4
Molecular weight: 153
m/z	intensity
39	220
41	308
42	512
43	311
44	999
52	58
53	230
54	340
56	379
57	198
67	246
68	275
70	123
81	90
82	77
84	136
96	64
97	61
124	71
152	133
153	363
