Mass Spectrum: Ethynyl tert-butyl sulfoxide
Formula: C6H10OS
CAS: 41463-34-7
Molecular weight: 130
m/z	intensity
14	5
15	23
25	6
26	22
27	113
29	413
30	9
31	40
37	11
38	21
39	214
40	34
41	712
42	30
43	51
44	23
45	37
46	9
48	21
49	12
50	18
51	18
53	26
55	95
56	123
57	999
58	80
59	98
60	4
73	11
74	41
75	9
76	8
89	4
115	3
130	3
