Mass Spectrum: 2-Amino-4-isopropylamino-6-methylthio-1,3,5-triazine
Formula: C7H13N5S
CAS: 4147-57-3
Molecular weight: 199
m/z	intensity
33	10
34	14
35	17
36	27
37	14
38	24
39	106
40	120
41	322
42	351
43	999
44	386
45	102
46	78
47	130
48	38
49	104
50	14
51	40
52	12
53	48
54	24
55	52
56	50
57	83
58	721
59	64
60	22
61	8
62	7
64	7
65	12
66	10
67	41
68	538
69	740
70	69
71	54
72	27
73	71
74	210
75	71
76	17
77	10
78	8
79	12
80	10
81	20
82	20
83	114
84	88
85	99
86	64
88	10
89	17
90	10
91	104
92	113
93	48
95	99
96	38
97	22
98	24
99	41
100	8
101	27
103	7
104	7
105	7
106	7
107	8
108	14
109	217
110	233
111	52
112	12
113	12
114	20
115	29
116	22
117	8
118	8
121	7
122	7
123	10
124	10
125	24
126	8
127	101
128	14
129	10
131	40
132	7
133	10
135	12
136	43
137	12
138	34
139	7
140	10
141	17
142	88
143	29
144	8
145	7
147	7
149	8
150	12
151	10
152	10
153	38
154	7
156	60
157	327
158	36
159	19
165	7
166	12
168	20
169	14
170	8
171	7
177	7
180	7
181	7
182	19
184	705
185	68
186	38
190	7
191	8
193	8
194	7
196	8
198	36
199	771
200	74
201	38
