Mass Spectrum: 1-Hexanamine, N-pentyl-
Formula: C11H25N
CAS: 41495-45-8
Molecular weight: 171
m/z	intensity
29	180
30	590
39	40
41	240
42	110
43	600
44	999
45	30
55	80
56	150
57	110
58	20
68	10
69	20
70	80
71	40
72	10
84	60
86	30
98	160
99	10
100	850
101	60
112	130
113	30
114	650
115	50
126	30
127	10
128	10
140	30
142	10
170	10
171	60
172	10
