Mass Spectrum: 2-Hydroxyethyl ethyl disulfide
Formula: C4H10OS2
CAS: 4151-67-1
Molecular weight: 138
m/z	intensity
45	999
46	230
47	221
48	31
57	21
58	125
59	151
61	163
62	64
64	272
66	320
67	20
75	15
76	29
78	48
79	234
81	37
82	11
91	34
92	43
93	98
94	344
96	56
107	37
109	7
121	139
122	17
138	509
139	13
140	77
141	4
