Mass Spectrum: cis-3-Hexenyl iso-butyrate
Formula: C10H18O2
CAS: 41519-23-7
Molecular weight: 170
m/z	intensity
14	1
15	10
17	5
18	17
26	10
27	140
28	21
29	59
30	2
31	12
32	4
36	1
37	4
38	9
39	123
40	26
41	318
42	57
43	999
44	34
45	6
46	1
50	7
51	12
52	9
53	44
54	78
55	159
56	14
57	21
58	4
59	8
60	2
61	1
62	1
63	4
64	2
65	14
66	10
67	795
68	56
69	49
70	21
71	597
72	29
73	15
74	2
75	1
77	8
78	4
79	21
80	17
81	79
82	884
83	88
84	7
85	8
86	1
87	3
88	5
89	24
90	2
91	31
92	9
93	2
94	1
95	9
96	24
97	10
98	11
99	4
100	1
101	6
102	1
103	1
105	7
106	10
107	2
109	1
110	2
113	2
114	3
115	3
116	2
127	1
128	2
129	1
168	1
169	2
170	1
