Mass Spectrum: 1,3(2H,4H)-Isoquinolinedione, dioxime
Formula: C9H9N3O2
CAS: 41536-78-1
Molecular weight: 191
m/z	intensity
63	240
77	240
89	585
90	250
102	290
103	580
104	265
114	157
115	390
116	999
117	370
129	345
132	290
142	370
143	161
144	187
156	133
157	65
159	102
160	59
173	120
174	156
191	67
192	7
