Mass Spectrum: .alpha.-d-Allopyranoside, methyl 4,6-O-(phenylmethylene)-, 2-(4-methylbenzenesulfonate)
Formula: C21H24O8S
CAS: 4153-14-4
Molecular weight: 436
m/z	intensity
26	62
28	44
29	82
31	95
33	49
39	70
40	19
41	201
42	26
43	136
44	23
45	245
50	20
51	57
52	17
53	26
54	18
55	76
56	23
57	205
58	64
59	87
60	51
61	78
63	22
65	89
68	53
69	260
70	51
71	101
73	206
74	118
75	74
77	189
78	49
79	209
81	65
82	24
83	29
85	106
86	37
87	321
88	29
89	42
90	43
91	785
92	111
97	83
98	25
99	82
101	76
103	37
105	568
106	148
107	999
108	111
109	60
111	18
113	15
115	376
116	42
119	28
121	96
123	16
127	41
128	21
129	38
133	64
139	131
140	14
141	24
143	18
144	14
145	33
147	23
149	291
150	32
155	415
156	48
157	42
161	16
162	44
163	17
167	12
172	25
173	17
175	30
177	89
178	15
179	61
187	9
191	13
203	11
207	11
214	10
221	537
222	78
223	11
227	16
228	25
229	16
233	12
235	9
249	407
250	67
251	11
255	22
263	11
264	11
281	24
282	11
287	21
299	5
435	39
436	21
437	8
438	1
