Mass Spectrum: 2,6-Pyrazinediamine
Formula: C4H6N4
CAS: 41536-80-5
Molecular weight: 110
m/z	intensity
39	330
41	999
43	420
44	370
55	490
56	280
57	330
67	240
69	270
81	260
83	480
109	125
110	470
111	28
