Mass Spectrum: Acetamide, N,N'-2,6-pyrazinediylbis-
Formula: C8H10N4O2
CAS: 41536-74-7
Molecular weight: 194
m/z	intensity
40	242
43	999
55	131
66	162
67	149
82	147
83	750
110	897
152	456
194	198
195	19
