Mass Spectrum: .alpha.-D-Glucopyranoside, methyl 2,3,4-tri-O-methyl-
Formula: C10H20O6
CAS: 4153-24-6
Molecular weight: 236
m/z	intensity
26	0
27	20
28	2
29	37
30	3
31	32
33	25
38	0
39	13
40	3
41	43
42	10
43	27
44	5
45	172
46	3
47	14
48	0
49	0
50	0
51	1
52	0
53	12
54	3
55	21
56	17
57	32
58	19
59	37
60	13
61	12
65	0
67	1
68	4
69	19
70	3
71	49
72	4
73	150
74	41
75	385
76	11
77	2
81	9
82	2
83	14
84	6
85	33
86	3
87	32
88	999
89	98
90	7
91	1
95	3
97	4
98	8
99	17
100	1
101	506
102	26
103	5
105	1
109	1
111	10
112	2
113	15
114	5
115	9
116	2
117	13
118	2
119	3
127	9
128	1
129	7
130	1
131	13
132	1
133	0
135	22
136	1
141	5
142	0
143	5
144	2
145	21
146	1
149	4
155	0
159	0
161	0
173	36
174	3
175	1
176	38
177	3
178	0
205	10
206	0
