Mass Spectrum: Acetamide, N,N'-2,6-pyrazinediylbis-, N-oxide
Formula: C8H10N4O3
CAS: 41536-73-6
Molecular weight: 210
m/z	intensity
40	263
41	138
43	999
55	123
66	127
67	187
82	178
83	85
99	272
109	186
110	152
126	615
168	373
194	7
210	170
211	17
