Mass Spectrum: .beta.-D-Xylo-Hexopyranosid-4-ulose, methyl 2,3,6-tri-O-methyl-, (2,4-dinitrophenyl)hydrazone
Formula: C16H22N4O9
CAS: 41545-25-9
Molecular weight: 414
m/z	intensity
39	55
40	51
41	67
42	75
43	67
44	103
45	999
46	63
47	31
75	396
88	305
89	87
93	103
94	51
95	59
96	23
97	39
98	71
99	47
100	31
101	202
149	202
150	31
183	127
281	630
282	134
305	103
337	115
338	63
339	47
340	27
369	190
414	63
