Mass Spectrum: 3,6-Epoxy-2H,8H-pyrimido[6,1-b][1,3]oxazocine-8,10(9H)-dione, 3,4,5,6-tetrahydro-4,5-dimethoxy-9-methyl-, [3R-(3.alpha.,4.beta.,5.beta.,6.alpha.)]-
Formula: C12H16N2O6
CAS: 41547-69-7
Molecular weight: 284
m/z	intensity
69	879
71	999
81	170
83	210
85	280
99	330
101	519
110	400
111	499
114	170
115	210
122	90
124	100
125	290
129	290
141	150
142	100
154	150
167	110
168	100
181	70
193	20
195	30
196	10
198	10
209	10
211	10
224	250
228	150
241	10
255	10
257	80
269	70
284	709
