Mass Spectrum: O6,5'-Cyclothymidine, TMS derivative
Formula: C13H20N2O5Si
CAS: 41547-76-6
Molecular weight: 312
m/z	intensity
69	70
73	769
75	210
81	999
96	320
101	70
117	70
129	180
145	110
155	20
168	70
169	40
170	20
171	30
225	20
240	80
297	90
312	260
