Mass Spectrum: Phosphorothioic triamide, hexaethyl-
Formula: C12H30N3PS
CAS: 4154-77-2
Molecular weight: 279
m/z	intensity
26	6
27	22
28	47
29	59
30	22
31	1
32	2
33	1
34	1
35	0
36	0
38	0
39	1
40	2
41	8
42	60
43	7
44	137
45	4
46	44
47	1
48	5
49	1
50	0
51	0
52	0
53	0
54	2
55	2
56	51
57	6
58	90
59	4
60	11
61	3
62	3
63	37
64	1
65	5
66	0
68	1
69	1
70	42
71	29
72	999
73	67
74	84
75	5
76	20
77	2
78	1
79	2
80	2
84	0
85	0
86	2
87	2
88	1
89	1
90	1
91	1
92	2
93	1
94	3
95	20
96	1
97	1
98	0
99	0
100	1
101	1
102	22
103	8
104	253
105	13
106	11
107	3
108	7
109	0
110	0
113	0
115	5
116	0
117	1
118	1
119	1
120	6
121	1
122	3
123	10
124	0
125	1
131	0
132	2
133	1
134	12
135	14
136	42
137	3
138	2
141	0
142	0
143	1
144	1
145	2
146	0
147	6
148	0
149	1
150	2
151	8
152	1
153	1
154	0
155	0
156	0
161	1
163	3
164	0
173	1
175	846
176	77
177	18
178	2
179	14
180	1
181	1
190	1
191	10
192	1
193	0
204	0
205	1
206	21
207	282
208	53
209	16
210	3
211	0
218	1
234	0
246	0
247	0
248	0
263	2
264	0
277	0
278	4
279	173
280	28
281	11
282	1
