Mass Spectrum: 3,6-Epoxy-2H,8H-pyrimido[6,1-b][1,3]oxazocine-8,10(9H)-dione, 4-(acetyloxy)-3,4,5,6-tetrahydro-11-methyl-, [3R-(3.alpha.,4.beta.,6.alpha.)]-
Formula: C12H14N2O6
CAS: 41547-71-1
Molecular weight: 282
m/z	intensity
69	30
70	10
71	20
80	10
81	999
82	80
83	170
84	10
95	10
96	30
97	20
98	10
99	20
108	10
123	30
124	60
136	10
140	10
142	10
150	40
151	30
161	10
168	10
179	10
193	70
194	30
195	10
222	10
282	40
