Mass Spectrum: O6,5'-Cyclo-2'-deoxyuridine, TMS derivative
Formula: C12H18N2O5Si
CAS: 41547-75-5
Molecular weight: 298
m/z	intensity
69	230
73	999
81	679
101	110
117	60
129	180
145	130
147	260
155	150
169	250
170	230
171	100
226	100
265	30
283	40
298	140
