Mass Spectrum: O6,5'-Cyclouridine,  [3R-(3.alpha.,4.beta.,5.beta.,6.alpha.)]-,  2TMS derivative
Formula: C15H26N2O6Si2
CAS: 41547-72-2
Molecular weight: 386
m/z	intensity
69	440
73	999
75	609
101	160
103	80
110	80
117	250
129	739
131	130
133	150
143	220
145	70
147	809
156	60
169	80
171	120
183	130
184	60
185	120
186	20
187	20
217	170
230	60
231	80
243	290
245	440
246	80
247	30
253	40
255	120
256	20
257	40
258	80
268	60
272	20
273	50
281	170
285	30
289	50
299	50
300	10
301	200
302	50
314	50
330	30
343	20
371	569
386	50
