Mass Spectrum: .beta.-D-Gluco-Hexodialdo-1,5-pyranoside, methyl 2,3,4-tri-O-methyl-, (2,4-dinitrophenyl)hydrazone
Formula: C16H22N4O9
CAS: 41545-31-7
Molecular weight: 414
m/z	intensity
45	298
46	54
47	39
48	31
49	23
75	745
76	78
77	74
78	54
86	58
87	66
88	999
101	298
102	70
103	54
104	35
130	11
131	27
193	31
235	125
236	54
266	227
267	62
414	66
