Mass Spectrum: 3,6-Epoxy-2H,8H-pyrimido[6,1-b][1,3]oxazocin-8-one, 3,4,5,6,9,10-hexahydro-10-[(trimethylsilyl)imino]-4,5-bis[(trimethylsilyl)oxy]-, [3R-(3.alpha.,4.beta.,5.beta.,6.alpha.)]-
Formula: C18H35N3O5Si3
CAS: 41547-78-8
Molecular weight: 457
m/z	intensity
73	999
75	180
93	270
100	270
111	210
117	120
129	300
131	110
133	140
142	180
147	849
169	360
183	939
193	280
204	140
210	180
217	200
230	280
231	170
238	120
243	220
256	120
258	100
270	190
272	280
312	80
370	70
415	40
442	400
457	180
