Mass Spectrum: 1,3-Dioxane, 5,5-dimethyl-2-(1-methylethenyl)-
Formula: C9H16O2
CAS: 41556-05-2
Molecular weight: 156
m/z	intensity
24	0
25	1
26	34
27	372
28	115
29	357
30	23
31	94
32	2
33	0
34	0
35	0
36	0
37	16
38	46
39	568
40	115
41	999
42	271
43	259
44	11
45	190
46	3
47	0
48	0
49	2
50	18
51	28
52	15
53	86
54	26
55	454
56	924
57	211
58	17
59	5
60	0
61	0
62	1
63	2
64	0
65	2
66	1
67	16
68	16
69	715
70	280
71	411
72	23
73	16
74	1
77	1
79	2
80	0
81	4
82	5
83	11
84	8
85	10
86	2
87	17
88	31
89	1
91	0
92	0
93	6
94	0
95	6
96	1
97	13
98	4
99	4
100	0
101	1
107	0
108	7
109	2
110	0
111	34
112	2
113	0
115	166
116	11
117	0
125	0
126	12
127	3
128	2
129	0
137	0
139	1
140	0
141	356
142	32
143	3
154	0
155	40
156	54
157	6
