Mass Spectrum: 1H-Pyrazole, 5-(2-furanyl)-4,5-dihydro-3-(4-nitrophenyl)-1-phenyl-
Formula: C19H15N3O3
CAS: 4155-82-2
Molecular weight: 333
m/z	intensity
37	6
38	20
39	101
40	31
41	36
42	3
43	0
46	2
49	0
50	45
51	139
52	44
53	30
54	3
55	7
61	3
62	12
63	76
64	225
65	170
66	55
67	4
68	4
69	1
73	2
74	16
75	33
76	51
77	293
78	29
79	6
80	4
81	42
82	4
83	0
86	3
87	6
88	8
89	26
91	999
92	218
93	78
94	59
95	4
96	1
98	1
99	2
100	2
101	10
102	29
103	18
104	27
105	17
106	4
107	1
108	0
109	1
110	0
113	6
114	10
115	35
116	15
117	17
118	8
119	7
120	3
121	0
122	5
123	0
125	2
126	11
127	19
128	26
129	17
130	13
131	3
132	1
133	0
134	2
135	1
136	0
137	2
138	2
139	18
140	14
141	11
142	10
143	22
149	3
150	5
151	19
152	53
153	38
154	26
155	15
156	37
157	9
158	8
163	2
164	6
165	12
166	31
167	39
168	11
169	5
170	15
171	3
172	0
176	2
177	1
178	2
179	5
180	6
181	15
182	15
183	18
184	26
185	19
186	3
188	2
189	1
190	2
191	9
192	24
193	13
194	16
195	71
196	12
197	1
200	0
201	9
202	5
203	2
204	3
205	3
206	3
207	1
208	6
209	6
210	5
211	9
213	47
214	10
215	2
216	1
217	2
218	5
219	10
220	14
221	2
225	3
226	1
227	0
228	15
229	5
230	21
231	5
232	2
233	0
238	1
239	10
240	8
241	39
242	9
243	4
244	3
245	1
246	0
251	3
252	3
255	2
256	6
257	9
258	23
259	10
260	1
265	2
266	12
267	2
269	1
270	8
271	2
273	0
277	3
278	3
279	3
284	2
285	3
286	13
287	17
288	4
289	2
290	5
292	1
301	1
302	4
303	15
304	95
305	23
306	2
316	37
317	13
318	2
331	6
333	590
334	129
335	17
336	0
