Mass Spectrum: 1,2,4-Triacetoxy-3-dodecylmercaptonaphthalene
Formula: C28H38O6S
CAS: 41565-78-0
Molecular weight: 502
m/z	intensity
41	371
43	999
44	21
45	17
47	13
49	9
50	15
51	18
53	23
55	300
57	203
58	2
59	10
60	8
61	7
62	1
63	14
65	5
67	30
69	143
71	77
72	4
73	5
74	3
76	44
77	42
78	5
79	8
81	21
83	53
84	2
85	32
87	24
89	48
90	4
91	6
93	5
95	14
97	29
99	2
101	12
102	2
104	54
105	44
106	5
109	8
111	6
113	1
115	8
117	7
120	1
121	27
122	1
123	4
129	10
132	23
133	23
134	6
135	4
136	1
143	5
145	7
146	3
147	12
149	21
150	7
151	4
157	7
159	21
160	2
161	24
162	10
163	10
165	7
171	6
173	66
175	37
176	19
178	181
179	36
180	10
183	4
185	2
187	18
188	6
189	18
190	8
191	9
192	4
193	1
197	4
199	8
201	26
202	5
203	4
206	72
207	176
208	145
209	17
210	6
213	12
214	4
215	2
217	14
219	43
220	7
222	13
233	4
234	4
314	1
357	4
372	6
374	227
375	71
376	365
377	86
378	34
379	1
402	11
403	1
418	91
419	24
420	10
460	27
461	8
462	1
502	16
503	5
