Mass Spectrum: Iron, tricarbonyl(1,1a,2,7.eta.4-1-methylene-2,4,6-cycloheptadiene)-
Formula: C11H8FeO3
CAS: 41576-77-6
Molecular weight: 244
m/z	intensity
56	350
57	100
63	350
65	140
68	190
77	999
78	509
89	140
91	320
102	320
103	529
104	869
105	380
106	140
160	370
188	80
216	140
244	30
