Mass Spectrum: 1,3-Dioxocane, 2-pentadecyl-
Formula: C21H42O2
CAS: 41583-11-3
Molecular weight: 326
m/z	intensity
25	3
26	13
27	67
28	195
29	144
30	7
31	24
32	13
36	5
37	3
38	5
39	45
40	15
41	362
42	65
43	326
44	39
45	36
46	2
47	2
50	5
51	5
52	2
53	21
54	32
55	224
56	94
57	224
58	18
59	10
60	12
61	5
63	3
65	5
66	10
67	94
68	94
69	847
70	94
71	74
72	12
73	21
74	4
75	5
76	2
77	7
78	4
79	13
80	8
81	45
82	59
83	68
84	52
85	420
86	42
87	115
88	6
89	2
90	2
91	9
92	4
93	8
94	7
95	39
96	39
97	43
98	21
99	9
100	3
101	7
102	2
103	10
104	5
105	10
106	3
107	7
108	5
109	20
110	12
111	18
112	10
113	8
114	2
115	999
116	68
117	10
118	2
119	4
120	3
121	5
122	3
123	10
124	9
125	10
126	5
127	7
128	4
129	9
130	5
131	4
132	2
133	3
134	2
135	4
136	2
137	7
138	5
139	5
140	4
141	7
142	3
143	3
144	2
145	2
146	3
147	6
148	2
149	6
150	2
151	5
152	5
153	3
154	4
155	5
156	2
157	2
158	2
159	2
160	2
161	2
162	2
163	2
164	2
165	4
166	5
167	5
168	3
169	4
170	2
171	2
172	2
173	1
174	2
175	2
176	2
177	2
178	2
179	2
180	3
181	2
182	2
183	3
184	2
185	6
186	2
187	2
188	2
189	2
190	2
191	3
192	2
193	3
194	5
195	4
196	4
197	5
198	2
199	2
200	2
201	2
202	2
203	2
204	2
205	2
206	2
207	3
208	2
209	2
210	4
211	2
212	2
213	3
214	2
215	2
216	2
217	3
218	4
219	8
220	2
221	4
222	7
223	4
224	3
225	4
227	2
228	2
229	2
230	2
231	2
232	2
233	2
234	2
235	2
236	2
237	2
238	2
239	5
240	3
241	5
242	2
243	2
248	2
249	2
250	2
251	3
252	2
253	3
254	2
255	2
256	2
257	2
258	2
259	2
260	2
261	2
262	2
263	2
264	7
265	3
266	3
267	4
268	2
269	2
273	2
277	2
278	7
279	5
280	2
281	2
282	2
284	6
285	2
291	2
292	2
293	2
294	2
295	3
296	2
297	2
298	2
310	1
311	2
323	2
324	2
325	3
326	2
327	0
