Mass Spectrum: Bicyclo[3.1.0]hexan-2-one
Formula: C6H8O
CAS: 4160-49-0
Molecular weight: 96
m/z	intensity
25	5
26	59
27	335
28	53
29	31
30	1
31	14
33	3
36	3
37	45
38	98
39	636
40	221
41	168
42	91
43	35
44	3
45	5
46	1
47	2
48	2
49	14
50	57
51	75
52	40
53	305
54	465
55	894
56	34
57	3
60	3
61	13
62	20
63	27
64	5
65	51
66	41
67	301
68	999
69	63
70	4
72	1
73	2
74	5
75	1
76	1
77	5
78	4
79	4
81	50
82	3
83	6
84	1
85	4
88	1
90	1
95	15
96	642
97	56
98	3
