Mass Spectrum: 1-Tert-butyl-2,4-dinitrobenzene
Formula: C10H12N2O4
CAS: 4160-54-7
Molecular weight: 224
m/z	intensity
30	215
31	14
38	16
39	295
40	238
41	239
42	25
43	999
44	162
45	19
46	40
50	75
51	177
52	50
53	60
54	1
55	45
56	8
57	124
58	1
59	20
62	30
63	154
64	44
65	165
66	26
67	4
69	1
74	55
75	92
76	65
77	210
78	154
79	110
80	23
81	1
87	3
88	2
89	179
90	176
91	256
92	192
93	101
94	7
101	1
102	40
103	96
104	85
105	97
106	110
107	54
108	19
109	6
115	467
116	156
117	276
118	120
119	50
120	52
121	25
122	2
128	26
129	18
130	13
131	35
132	33
133	88
134	22
135	19
136	21
138	47
143	9
144	12
145	64
146	53
147	12
149	27
150	44
161	2
162	10
163	15
164	134
165	52
166	56
175	20
178	32
179	368
180	27
184	2
191	22
192	26
193	1
207	52
208	8
209	973
210	87
211	9
224	47
225	9
