Mass Spectrum: 2-Propanone, 1-cyclopropyl-
Formula: C6H10O
CAS: 4160-75-2
Molecular weight: 98
m/z	intensity
27	69
28	19
29	69
39	69
41	59
42	19
43	999
44	89
50	9
51	9
53	29
54	9
55	178
56	29
69	9
83	59
97	19
98	49
