Mass Spectrum: 2-Pentanone, 4-hydroxy-
Formula: C5H10O2
CAS: 4161-60-8
Molecular weight: 102
m/z	intensity
26	22
27	76
28	5
29	75
30	2
31	47
33	1
34	0
36	2
37	7
38	12
39	67
40	71
41	116
42	110
43	999
44	49
45	263
46	6
47	1
48	0
49	1
50	2
51	2
52	0
53	2
54	0
55	3
56	2
57	18
58	178
59	30
60	1
61	73
62	3
63	1
64	0
65	0
66	0
67	1
68	1
69	73
70	3
71	2
72	1
73	2
74	0
77	0
78	0
79	0
81	0
82	0
83	0
84	156
85	13
86	1
87	50
88	2
89	4
90	0
91	0
98	0
99	1
100	0
101	4
102	14
103	3
104	0
105	0
