Mass Spectrum: .beta.-D-Galactopyranose, pentaacetate
Formula: C16H22O11
CAS: 4163-60-4
Molecular weight: 390
m/z	intensity
14	3
15	31
16	1
18	2
27	3
28	20
29	5
31	2
39	2
41	5
42	13
43	999
44	38
45	9
53	3
54	2
55	7
56	3
57	7
58	1
60	12
61	17
68	3
69	32
70	20
71	10
72	1
73	79
74	4
80	24
81	61
82	8
83	2
84	6
85	32
86	27
87	3
89	2
96	4
97	65
98	406
99	46
100	5
101	8
102	21
103	167
104	9
105	1
109	26
110	4
111	4
112	22
113	20
114	42
115	549
116	45
117	5
122	3
123	1
125	9
126	53
127	28
128	5
129	4
131	20
132	1
138	2
139	34
140	213
141	28
142	4
143	21
144	11
145	111
146	7
147	1
153	3
155	20
156	8
157	410
158	119
159	11
160	1
161	1
167	2
168	25
169	42
170	4
171	4
173	2
175	1
182	50
183	5
184	1
185	5
186	12
187	9
188	1
197	13
198	2
199	83
200	211
201	21
202	3
203	12
204	2
210	4
211	14
212	2
215	13
216	1
217	1
228	17
229	9
230	1
242	278
243	35
244	6
245	34
246	6
247	1
259	1
270	1
271	1
287	2
288	10
289	2
317	2
330	1
331	28
332	4
333	1
347	1
