Mass Spectrum: Methanamine, N-methyl-N-nitro-
Formula: C2H6N2O2
CAS: 4164-28-7
Molecular weight: 90
m/z	intensity
29	43
30	200
38	11
39	17
40	59
41	80
42	999
43	750
44	437
45	55
46	18
59	10
60	118
73	16
74	73
88	17
90	737
91	23
