Mass Spectrum: 2-Phenylacetyl-benzisothiazolinone-1,1-dioxide
Formula: C15H11NO4S
CAS: 41643-16-7
Molecular weight: 301
m/z	intensity
41	27
42	1
43	9
45	19
46	0
47	3
48	9
49	6
50	158
51	68
52	21
53	6
55	2
56	0
57	1
58	1
59	2
61	3
62	30
63	133
64	21
65	306
66	11
67	0
69	9
70	28
71	1
74	47
75	13
76	156
77	25
78	7
79	2
80	0
81	1
82	2
84	10
86	9
87	3
89	44
90	518
91	629
92	66
93	4
95	6
96	7
97	0
98	0
102	27
103	1
104	37
105	6
106	2
107	0
108	1
110	0
112	0
115	1
118	999
119	111
120	35
121	3
122	1
128	0
130	1
132	1
133	0
136	10
137	0
139	2
140	1
141	0
146	30
147	2
152	8
153	0
154	0
155	0
163	0
165	8
166	2
167	1
169	0
180	3
181	1
183	27
184	2
185	2
194	1
208	3
210	36
211	2
212	1
259	0
272	0
301	24
302	4
303	1
