Mass Spectrum: 2-Methyl-4-carboxytetrahydrothiazole
Formula: C5H9NO2S
CAS: 4165-32-6
Molecular weight: 147
m/z	intensity
27	235
31	237
42	285
43	349
44	596
45	530
52	577
55	685
56	159
58	156
59	541
60	116
68	131
75	999
79	876
83	448
85	417
86	563
87	197
100	468
101	275
102	958
103	69
104	60
105	62
114	67
132	799
133	55
146	82
147	746
148	74
149	60
150	8
