Mass Spectrum: tri-n-Hexylphosphine
Formula: C18H39P
CAS: 4168-73-4
Molecular weight: 286
m/z	intensity
15	1
26	3
27	54
28	17
29	133
30	3
31	1
32	1
34	1
35	1
39	29
40	4
41	315
42	32
43	367
44	12
45	25
46	9
47	35
48	62
49	22
50	1
51	2
52	1
53	15
54	8
55	377
56	41
57	52
58	11
59	67
60	24
61	201
62	718
63	56
64	7
65	4
66	2
67	25
68	7
69	90
70	6
71	18
72	7
73	72
74	67
75	233
76	999
77	50
78	26
79	8
80	3
81	12
82	8
83	70
84	14
85	35
86	6
87	50
88	74
89	192
90	424
91	28
92	14
93	1
94	1
95	4
96	1
97	6
99	6
100	7
101	37
102	55
103	111
104	199
105	13
106	4
109	1
111	1
113	4
114	4
115	38
116	33
117	284
118	112
119	58
120	4
127	2
128	2
129	19
130	15
131	124
132	998
133	125
134	8
135	1
141	2
142	1
143	22
144	7
145	206
146	802
147	79
148	12
149	2
150	11
151	5
152	1
155	1
157	12
158	4
159	384
160	274
161	32
162	7
163	1
165	5
167	1
169	1
171	20
172	3
173	137
174	86
175	13
176	2
177	1
183	1
185	14
186	2
187	232
188	36
189	5
190	1
199	14
200	5
201	188
202	780
203	142
204	10
205	1
213	9
214	2
215	62
216	214
217	34
218	8
219	2
227	19
229	873
230	167
231	14
232	2
233	2
234	8
235	6
236	1
241	7
242	1
243	66
244	18
245	7
246	1
255	11
256	1
257	514
258	94
259	8
269	4
271	170
272	31
273	5
283	3
284	1
285	163
286	360
287	77
288	8
