Mass Spectrum: 4-Piperidinone, 2,2,6,6-tetramethyl-, oxime
Formula: C9H18N2O
CAS: 4168-79-0
Molecular weight: 170
m/z	intensity
14	1
15	19
16	1
18	7
19	1
26	5
27	53
28	64
29	66
30	44
31	11
33	1
37	2
38	7
39	114
40	35
41	209
42	341
43	45
44	14
45	3
46	1
48	1
50	4
51	10
52	12
53	51
54	48
55	201
56	100
57	76
58	999
59	66
60	20
61	3
62	1
63	3
64	3
65	12
66	14
67	36
68	23
69	24
70	45
71	14
72	9
73	8
74	3
75	4
77	11
78	5
79	26
80	40
81	58
82	66
83	49
84	14
85	1
86	1
91	5
92	3
93	16
94	44
95	46
96	96
97	40
98	231
99	20
100	1
103	1
104	1
105	4
106	6
107	9
108	26
109	19
110	69
111	7
112	18
113	5
114	13
115	1
118	1
119	3
120	36
121	21
122	99
123	40
124	10
125	2
134	1
135	3
136	28
137	68
138	38
139	28
140	3
153	89
155	382
156	36
157	3
170	135
171	14
172	1
