Mass Spectrum: Bicyclo[2.2.1]hept-2-en-2-amine, 5-(1-ethoxyethoxy)-N,N-dimethyl-
Formula: C13H23NO2
CAS: 41696-74-6
Molecular weight: 225
m/z	intensity
64	112
65	109
66	109
67	109
68	41
69	41
70	22
71	22
72	316
76	135
77	54
78	122
79	48
80	58
81	51
91	77
92	48
93	54
94	316
95	58
96	32
106	29
107	25
108	206
109	999
110	164
111	25
121	58
122	32
123	61
124	38
125	51
136	29
138	222
139	45
153	125
197	25
