Mass Spectrum: Cyclohexanemethanol, 2-(acetyloxy)-.alpha.-methyl-, acetate
Formula: C12H20O4
CAS: 41692-59-5
Molecular weight: 228
m/z	intensity
26	6
27	82
28	63
29	106
30	4
31	19
33	0
35	0
36	3
37	0
38	4
39	98
40	27
41	267
42	58
43	999
44	90
45	60
46	2
47	2
48	1
49	1
50	3
51	11
52	10
53	68
54	174
55	271
56	50
57	81
58	64
59	41
60	11
61	90
62	3
63	2
64	4
65	20
66	27
67	496
68	89
69	82
70	77
71	56
72	36
73	4
74	2
75	2
76	2
77	29
78	28
79	134
80	91
81	185
82	396
83	95
84	77
85	39
86	12
87	149
88	7
89	2
91	20
92	5
93	168
94	18
95	29
96	13
97	252
98	86
99	20
100	7
101	2
102	1
103	235
104	13
105	15
106	4
107	18
108	394
109	132
110	17
111	126
112	17
113	4
114	3
115	1
116	1
117	1
118	1
119	2
120	1
121	3
122	3
123	7
124	166
125	127
126	342
127	46
128	5
129	1
130	1
131	1
132	1
133	2
134	1
135	4
136	1
137	3
138	1
139	3
140	3
141	2
142	1
143	3
144	1
145	1
146	1
147	15
148	1
149	8
150	5
151	2
152	1
153	11
154	1
155	1
156	1
157	1
159	1
160	0
161	1
162	0
163	1
164	1
165	2
166	1
167	2
168	46
169	8
170	1
171	13
172	1
185	7
186	2
211	1
213	1
215	0
