Mass Spectrum: Butanoic acid, 2,3-dihydroxy-2-(1-methylethyl)- (2,3,5,7a-tetrahydro-1-hydroxy-1H-pyrrolizin-7-yl) methyl ester, N-oxide, (1R-(1.alpha.,7(2R*,3S*),7a.b.eta.))-
Formula: C15H25NO6
CAS: 41708-76-3
Molecular weight: 315
m/z	intensity
41	441
42	118
43	999
44	84
45	661
46	25
47	18
48	3
49	11
50	56
51	103
52	96
53	179
54	62
55	202
56	223
57	353
58	38
59	16
60	4
61	28
62	13
63	62
64	31
65	78
66	88
67	202
68	84
69	37
70	26
71	147
72	55
73	127
74	25
75	15
76	18
77	72
78	73
79	145
80	358
81	72
82	62
83	31
84	2
85	375
86	25
87	22
88	10
89	51
90	29
91	34
92	53
93	485
94	493
95	228
96	33
97	9
98	10
99	39
100	194
101	25
102	57
103	474
104	98
105	77
106	138
107	51
108	77
109	34
110	17
111	72
112	9
113	3
114	1
115	3
116	11
117	215
118	492
119	142
120	127
121	23
122	92
123	97
124	21
125	7
126	3
127	6
128	0
129	2
130	2
131	1
132	13
133	19
134	136
135	165
136	768
137	172
138	604
139	281
140	21
141	5
142	1
143	0
144	1
145	1
147	1
148	4
149	1
150	32
151	178
152	22
153	84
154	21
155	53
156	59
157	5
163	3
164	1
165	1
166	1
167	1
168	1
169	2
170	1
171	1
172	3
182	0
183	0
193	0
209	1
210	1
211	1
212	0
221	1
222	0
223	0
233	1
234	7
235	2
236	3
237	2
238	2
239	0
240	1
241	0
251	1
252	4
253	3
254	6
255	9
256	3
268	0
269	0
270	4
271	1
272	1
279	3
280	2
281	4
282	3
283	0
284	1
297	22
298	4
299	18
300	12
301	2
