Mass Spectrum: Imidazole-4-carboxylic acid, 1-methyl-
Formula: C5H6N2O2
CAS: 41716-18-1
Molecular weight: 126
m/z	intensity
41	92
42	384
43	83
44	999
46	17
54	86
55	38
56	18
68	170
69	63
81	43
82	381
109	208
110	32
126	357
127	44
