Mass Spectrum: d-Glucosamine, N-benzoyl-3,4,6-O-tribenzyl-1-O-t-butyl-
Formula: C38H43NO6
CAS: 4171-67-9
Molecular weight: 609
m/z	intensity
41	11
57	167
77	62
91	999
92	72
105	425
106	27
122	14
163	48
181	80
200	10
216	19
224	46
253	12
266	361
267	82
322	10
324	28
344	56
354	16
446	11
552	102
553	32
609	11
