Mass Spectrum: 3-Octyn-2-ol
Formula: C8H14O
CAS: 41746-22-9
Molecular weight: 126
m/z	intensity
26	80
27	590
29	490
30	10
31	20
37	30
38	80
39	530
40	240
41	830
42	180
43	999
44	460
45	170
46	10
49	10
50	90
51	140
52	70
53	220
54	220
55	290
56	60
57	60
58	40
59	30
61	10
62	20
63	50
64	10
65	110
66	120
67	820
68	100
69	310
70	30
71	40
72	10
74	10
75	10
77	160
78	30
79	140
80	30
81	150
82	40
83	60
84	150
85	20
91	60
92	10
93	80
94	10
95	20
96	10
97	310
98	30
107	10
108	40
109	70
110	10
111	260
112	20
123	2
124	3
125	10
126	3
