Mass Spectrum: Thiazole, 2,5-dimethyl-
Formula: C5H7NS
CAS: 4175-66-0
Molecular weight: 113
m/z	intensity
26	49
27	32
34	20
36	14
37	47
38	67
39	237
41	92
42	259
44	56
45	313
46	57
47	51
50	41
51	60
52	42
53	29
55	35
56	10
59	22
67	31
68	89
69	30
70	8
71	673
72	687
73	234
74	55
77	20
78	19
79	26
80	153
83	1
84	30
109	20
111	29
112	320
113	999
114	88
115	74
