Mass Spectrum: Sandaracopimar-15-ene-8.beta.,18-diol
Formula: C20H34O2
CAS: 41756-41-6
Molecular weight: 306
m/z	intensity
31	109
39	109
40	41
41	383
42	82
43	465
51	13
52	13
53	273
55	999
56	137
57	164
65	82
66	54
67	684
68	164
69	849
70	109
71	68
77	219
78	41
79	616
80	137
81	862
82	164
83	219
91	506
92	137
93	589
94	164
95	589
96	82
97	137
105	410
106	137
107	465
108	191
109	397
110	68
111	82
117	150
118	68
119	315
120	137
121	356
122	137
123	191
129	68
131	164
132	68
133	342
134	137
135	260
137	164
138	41
139	356
145	137
146	68
147	273
148	123
149	219
150	493
151	68
152	273
159	95
161	178
163	82
173	150
175	109
176	205
179	137
187	137
188	164
189	410
190	95
191	68
201	137
202	68
205	68
215	109
216	794
217	137
229	178
230	54
243	273
247	95
257	465
258	630
259	178
270	82
275	684
276	137
288	273
306	41
