Mass Spectrum: Hexadecanoic acid, phenylmethyl ester
Formula: C23H38O2
CAS: 41755-60-6
Molecular weight: 346
m/z	intensity
27	12
29	45
39	28
41	165
42	38
43	269
44	10
50	3
51	12
52	4
53	11
54	13
55	163
56	41
57	254
58	15
60	4
63	9
64	4
65	68
68	15
69	114
70	28
71	156
72	9
73	10
77	35
78	9
79	49
80	7
81	39
83	100
84	29
85	89
86	7
87	7
89	22
90	50
91	999
92	266
93	24
94	4
95	43
96	16
97	91
98	31
99	22
101	14
104	10
105	25
106	6
107	61
108	994
109	105
110	15
111	56
112	12
113	12
115	18
118	2
121	15
123	21
124	6
125	39
126	7
127	12
129	14
135	17
136	3
137	9
138	6
139	31
140	4
141	5
143	11
149	15
150	12
153	22
157	9
163	10
165	3
167	13
171	8
177	9
179	2
194	5
195	9
219	31
220	6
236	24
237	66
238	11
239	40
240	7
255	75
256	13
273	4
286	2
328	5
329	1
346	17
347	5
