Mass Spectrum: 4,10a(1H)-Phenanthrenediol, 2-ethenyldodecahydro-2,4b,8,8-tetramethyl-, 4-acetate, [2S-(2.alpha.,4.alpha.,4a.alpha.,4b.beta.,8a.alpha.,10a.beta.)]-
Formula: C22H36O3
CAS: 41756-38-1
Molecular weight: 348
m/z	intensity
31	188
39	100
41	822
42	111
43	999
44	77
45	88
53	111
54	55
55	722
56	133
57	288
65	55
67	400
68	155
69	811
70	111
71	133
77	111
79	288
80	111
81	555
82	222
83	222
84	66
85	77
91	244
92	122
93	344
94	144
95	444
96	133
97	188
98	55
105	255
106	133
107	288
108	111
109	477
110	111
111	88
117	111
118	55
119	222
120	88
121	277
122	88
123	311
124	266
125	88
132	222
133	377
134	188
135	155
136	166
137	488
138	388
139	66
144	55
145	33
146	133
147	255
148	233
150	111
151	288
152	66
153	55
154	55
158	33
160	77
163	211
164	211
165	55
171	55
173	88
174	33
175	100
179	66
185	88
187	77
190	77
199	66
201	77
205	144
214	88
220	244
227	77
228	55
229	77
255	422
256	111
270	999
271	244
273	255
288	288
330	55
348	33
