Mass Spectrum: 4(1H)-Phenanthrenone, 3-(acetyloxy)-2-ethenyldodecahydro-10a-hydroxy-2,4b,8,8-tetramethyl-, [2S-(2.alpha.,3.beta.,4a.alpha.,4b.beta.,8a.alpha.,10a.beta.)]-
Formula: C22H34O4
CAS: 41756-17-6
Molecular weight: 362
m/z	intensity
31	31
39	63
41	536
43	999
53	105
55	557
56	84
57	52
67	294
68	105
69	631
70	52
71	52
75	63
77	178
79	442
80	115
81	157
82	631
83	52
89	136
90	42
91	189
92	42
93	368
94	52
95	115
113	126
114	42
115	168
116	63
117	315
119	105
127	105
129	126
130	52
131	178
132	63
133	63
134	210
145	105
146	73
147	147
221	368
252	684
284	52
287	84
294	252
302	157
320	21
344	10
362	115
