Mass Spectrum: Bicyclo[4.1.0]heptan-3-one, 4,7,7-trimethyl-, [1R-(1.alpha.,4.beta.,6.alpha.)]-
Formula: C10H16O
CAS: 4176-01-6
Molecular weight: 152
m/z	intensity
15	17
26	17
27	250
28	125
29	125
38	8
39	292
40	58
41	567
42	108
43	150
45	8
46	8
47	8
50	8
51	50
52	25
53	183
54	100
55	325
56	200
57	17
63	8
65	50
66	42
67	700
68	192
69	342
70	92
71	8
77	75
78	17
79	150
80	50
81	999
82	633
83	150
84	67
91	42
93	50
94	33
95	425
96	342
97	100
105	8
107	17
108	33
109	417
110	400
111	58
119	33
123	75
124	58
125	17
134	33
137	150
138	17
152	958
153	100
