Mass Spectrum: Naphthalene, decahydro-1,4-dimethoxy-, (1.alpha.,4.alpha.,4a.alpha.,8a.beta.)-
Formula: C12H22O2
CAS: 41766-63-6
Molecular weight: 198
m/z	intensity
39	341
40	158
41	831
42	158
43	390
44	265
45	913
51	117
52	15
53	176
54	71
55	372
56	94
57	250
58	576
59	237
65	96
66	76
67	441
68	107
69	199
70	58
71	724
72	199
73	224
74	38
75	510
76	76
77	193
78	168
79	426
80	71
81	199
82	58
83	94
84	142
85	155
91	265
92	221
93	522
94	135
95	877
96	132
97	265
98	51
99	17
100	17
101	63
105	140
106	127
107	145
108	346
109	155
110	79
111	61
119	158
120	15
121	91
123	135
124	127
125	999
126	137
127	525
128	137
134	489
135	204
136	433
137	137
138	53
166	464
167	74
168	155
169	66
198	33
