Mass Spectrum: Thiazolo[3.2-a]benzimidazol-3(2H)-one, 2-(4-acetoxybenzylideno)-
Formula: C18H12N2O3S
CAS: 41776-86-7
Molecular weight: 336
m/z	intensity
33	2
34	2
36	2
37	10
38	25
39	93
40	21
41	12
43	999
45	84
46	1
47	2
49	2
50	36
51	70
52	18
53	19
54	2
55	8
56	1
57	5
58	3
59	2
60	6
61	11
62	57
63	141
64	53
65	33
66	5
67	1
69	45
70	20
71	11
72	2
73	2
74	13
75	25
76	32
77	135
78	40
79	7
80	1
81	4
82	11
83	6
84	3
85	2
86	5
87	13
88	23
89	97
90	103
91	16
92	8
93	23
94	21
95	22
96	11
97	2
98	2
99	2
100	2
101	4
102	27
103	12
104	12
105	38
106	10
107	14
108	9
109	25
110	3
111	2
112	1
113	1
114	2
115	4
116	17
117	17
118	61
119	15
120	28
121	109
122	34
123	8
124	2
125	2
126	1
127	3
128	4
129	9
130	3
131	4
132	34
133	14
134	30
135	8
136	4
137	39
138	7
139	6
140	4
141	1
142	1
143	6
145	477
146	53
147	20
148	13
149	70
150	52
151	15
152	10
153	6
154	4
155	1
157	1
159	20
160	5
161	9
162	7
163	2
164	4
165	4
166	5
167	6
168	2
169	1
170	0
171	1
172	0
173	2
174	1
175	5
176	6
177	9
178	12
179	8
180	3
181	2
182	0
183	1
184	0
185	1
187	0
188	0
189	2
190	4
191	3
192	10
193	12
194	2
195	2
196	0
198	0
201	2
202	0
203	3
204	5
205	25
206	11
207	4
208	2
209	3
210	4
211	2
212	1
213	0
221	19
222	10
223	2
224	1
225	0
226	1
232	1
233	10
234	17
235	12
236	11
237	26
238	10
239	4
240	1
247	1
248	4
249	9
250	2
251	1
252	0
253	1
261	0
263	2
264	12
265	98
266	61
267	13
268	3
269	0
276	1
277	5
278	1
279	1
280	1
281	1
283	0
288	0
289	1
290	3
291	8
292	13
293	77
294	963
295	196
296	62
297	9
298	0
308	24
309	6
310	3
311	0
322	0
332	1
333	1
334	2
336	190
337	39
338	25
339	5
340	1
