Mass Spectrum: Thiazolo[3.2-a]benzimidazol-3(2H)-one, 2-(2-nitrobenzylideno)-
Formula: C16H9N3O3S
CAS: 41776-79-8
Molecular weight: 323
m/z	intensity
33	5
34	2
36	3
37	45
38	110
39	339
40	48
41	46
42	9
43	31
44	35
45	92
46	15
47	3
48	3
50	197
51	253
52	109
53	59
54	4
55	5
56	3
57	18
58	12
59	7
60	14
61	44
62	212
63	543
64	374
65	107
66	19
67	7
69	116
70	68
71	23
72	15
74	202
75	223
76	216
77	268
78	51
79	27
80	7
81	22
82	47
83	24
84	12
85	10
86	25
87	53
88	116
89	874
90	586
91	348
92	910
93	138
94	35
95	30
96	54
97	14
98	33
99	23
100	33
101	51
102	138
103	71
104	141
105	44
106	34
107	35
108	28
109	24
110	7
111	8
112	6
113	5
114	26
115	45
116	75
117	22
119	999
120	150
121	174
122	66
123	30
124	12
125	9
126	5
127	11
128	21
129	21
130	56
131	13
132	51
133	185
134	114
135	42
136	13
137	10
139	25
140	13
141	2
142	3
143	34
144	38
145	125
146	141
147	72
148	163
149	165
150	68
151	141
152	23
153	14
154	3
155	0
156	1
157	3
159	110
160	50
161	169
162	63
163	20
164	11
165	5
166	4
167	3
168	1
169	2
170	2
171	3
172	1
173	4
174	13
176	367
177	59
178	33
179	96
180	12
181	10
182	2
183	2
184	2
185	1
186	1
187	3
188	3
189	7
190	15
191	5
192	8
193	4
194	2
195	3
196	3
197	0
198	1
199	0
201	1
202	2
203	8
204	17
205	26
206	13
207	13
208	3
209	9
210	4
211	2
212	1
213	2
215	3
216	4
217	1
218	7
219	7
220	6
221	6
222	10
223	6
224	5
225	13
226	2
227	1
230	1
231	1
232	1
233	10
234	39
235	40
236	14
237	30
238	15
239	11
240	2
241	0
247	9
248	19
249	12
250	13
251	8
252	2
253	1
262	2
263	2
264	1
265	6
267	16
268	2
275	3
276	11
277	160
278	36
279	10
280	1
291	1
292	1
293	4
301	0
306	17
307	3
308	1
319	0
321	4
323	307
324	60
325	19
326	3
328	1
