Mass Spectrum: 1,4,7-Trioxa-10-azacyclododecane
Formula: C8H17NO3
CAS: 41775-76-2
Molecular weight: 175
m/z	intensity
54	57
55	151
56	838
57	999
58	270
59	184
60	32
61	20
65	20
66	4
67	18
68	30
69	60
70	151
71	114
72	243
73	103
74	432
75	43
76	6
77	16
78	3
79	15
80	5
81	15
82	11
83	21
84	27
85	30
86	703
87	324
88	265
89	62
90	12
91	78
92	13
93	6
94	10
95	10
96	8
97	10
98	34
99	12
100	297
101	84
102	37
103	18
104	17
105	9
106	6
107	7
108	8
109	4
114	47
115	22
116	35
117	15
118	284
119	28
120	12
128	19
129	10
130	26
131	11
132	55
133	8
142	43
143	4
144	119
145	27
146	73
147	10
148	3
149	17
160	14
161	3
162	5
163	2
164	7
174	8
175	60
176	11
177	5
