Mass Spectrum: 3-Pentenoic acid, 2,2,4-trimethyl-
Formula: C8H14O2
CAS: 4177-03-1
Molecular weight: 142
m/z	intensity
39	74
41	140
43	121
53	40
55	512
57	93
67	25
69	91
79	15
81	68
83	33
97	999
109	40
127	59
142	279
