Mass Spectrum: 2-Propenethioamide, 3-(acetyloxy)-N,N-dimethyl-, (Z)-
Formula: C7H11NO2S
CAS: 41783-61-3
Molecular weight: 173
m/z	intensity
41	40
42	563
43	956
44	798
45	295
46	73
47	13
54	26
55	73
56	57
57	36
58	97
59	147
60	23
61	10
69	33
70	184
71	33
72	33
73	33
74	120
81	60
82	33
84	60
85	43
86	20
87	322
88	201
89	20
90	13
98	57
100	20
102	43
103	117
114	999
115	83
116	60
130	94
131	402
132	40
133	23
173	731
174	53
175	23
