Mass Spectrum: Butanedioic acid, bis(methylene)-, diethyl ester
Formula: C10H14O4
CAS: 41793-20-8
Molecular weight: 198
m/z	intensity
26	76
27	555
28	156
29	999
30	27
31	40
39	62
40	36
41	196
42	53
43	70
44	18
45	67
50	76
51	250
52	364
53	147
54	45
55	35
59	10
66	10
67	18
68	27
69	473
70	75
79	84
80	170
81	27
84	13
85	10
95	10
96	40
97	267
98	275
99	18
108	10
113	20
119	10
124	270
125	675
126	85
141	10
142	832
143	58
146	13
153	290
154	30
170	293
171	40
198	244
199	27
