Mass Spectrum: 2-Phenyl-5,6-dihydro-1,4-oxathiine
Formula: C10H10OS
CAS: 41803-45-6
Molecular weight: 178
m/z	intensity
45	20
51	61
77	267
89	60
105	999
106	90
150	30
178	570
