Mass Spectrum: 1-Propanamine, 2-methyl-N-(3-methylbutylidene)-
Formula: C9H19N
CAS: 41807-56-1
Molecular weight: 141
m/z	intensity
33	61
34	17
40	18
41	105
42	13
43	247
44	160
45	28
53	41
54	19
56	214
57	714
58	31
69	135
70	852
71	48
73	14
80	20
84	352
85	50
86	31
98	432
99	999
100	90
112	112
113	93
126	804
127	94
140	109
141	36
