Mass Spectrum: 1-(4-Oxo-5H-1,3-thiazol-2-yl)guanidine
Formula: C4H6N4OS
CAS: 41812-62-8
Molecular weight: 158
m/z	intensity
33	2
36	3
38	12
39	11
40	30
41	63
42	222
43	999
44	221
45	157
46	243
47	25
48	6
53	37
55	5
56	6
57	10
58	15
59	7
60	2
68	220
69	32
70	22
72	7
74	9
84	521
85	782
86	31
87	4
102	7
112	78
113	6
114	4
116	67
117	5
118	3
158	735
159	41
160	28
