Mass Spectrum: 19-Norpregn-4-ene-3,20-dione, 1-methyl-, (1.beta.)-
Formula: C21H30O2
CAS: 4183-69-1
Molecular weight: 314
m/z	intensity
40	20
41	261
42	10
43	999
45	11
51	23
52	11
53	99
55	272
65	62
66	12
67	183
68	19
69	123
71	141
77	177
78	50
79	271
80	31
81	191
83	16
84	145
85	69
91	275
92	39
93	215
94	58
95	191
97	21
103	25
104	13
105	171
106	30
107	185
108	46
109	110
110	21
111	55
115	28
116	14
117	60
118	20
119	100
120	77
121	170
122	167
123	83
124	887
125	106
128	11
129	29
131	79
132	72
133	173
134	64
135	130
136	83
137	143
138	44
141	13
143	32
145	50
146	28
147	190
148	43
149	101
157	25
158	16
159	79
160	29
161	68
162	15
163	31
171	20
172	20
173	45
174	40
175	48
176	34
177	30
178	14
183	12
185	24
187	67
190	71
191	240
192	30
199	11
201	39
202	11
211	52
215	21
216	13
228	10
229	247
230	42
231	79
241	18
243	20
244	260
253	19
256	21
257	46
267	15
270	28
271	72
272	315
281	12
296	71
299	26
314	447
315	122
