Mass Spectrum: 4,5,6,7-Tetrahydro-1H-indazol-3-amine
Formula: C7H11N3
CAS: 41832-27-3
Molecular weight: 137
m/z	intensity
33	3
35	1
36	3
37	1
38	209
39	266
40	66
41	399
42	102
43	212
44	31
45	76
46	1
49	2
50	99
51	158
52	175
53	517
54	181
55	67
56	43
57	18
58	35
59	4
60	3
61	4
62	5
63	30
64	25
65	67
66	61
67	87
68	75
69	37
70	18
71	6
72	23
73	4
74	3
75	7
76	20
77	106
78	45
79	119
80	86
81	53
82	34
83	25
84	15
85	3
86	1
89	2
90	6
91	23
92	57
93	32
94	50
95	47
96	103
97	13
98	12
102	1
103	2
104	17
105	17
106	52
107	47
108	111
109	999
110	120
111	14
119	29
120	23
121	37
122	26
123	12
135	68
136	104
137	494
138	128
139	18
