Mass Spectrum: Allyl dithiopropanoate
Formula: C6H10S2
CAS: 41830-43-7
Molecular weight: 146
m/z	intensity
39	179
41	268
43	131
45	269
58	79
59	40
69	40
71	139
72	128
73	999
74	39
76	80
77	50
85	39
105	49
113	30
131	328
146	179
