Mass Spectrum: Bicyclo[4.1.0]hept-3-ene, 7-bromo-, (1.alpha.,6.alpha.,7.alpha.)-
Formula: C7H9Br
CAS: 41848-99-1
Molecular weight: 172
m/z	intensity
26	19
27	73
28	11
30	15
31	19
37	17
38	46
39	220
40	35
41	115
42	10
43	35
44	12
45	61
46	18
49	49
50	46
51	106
52	39
53	79
54	17
55	13
57	13
58	8
59	10
61	14
62	33
63	73
64	19
65	204
66	173
67	45
74	13
77	631
78	149
79	315
80	26
83	150
89	12
91	596
92	88
93	999
94	109
99	7
105	4
119	12
157	7
172	111
173	9
174	107
175	7
