Mass Spectrum: tert-Butyl S-(4,6-dimethylpyrimidin-2-yl)thiolcarbonate
Formula: C11H16N2O2S
CAS: 41840-28-2
Molecular weight: 240
m/z	intensity
15	4
26	2
27	17
29	60
30	1
32	1
37	3
38	10
39	111
40	21
41	210
42	38
43	37
44	11
45	8
46	1
47	1
49	1
50	4
51	8
52	8
53	16
54	7
55	20
56	22
57	999
58	60
59	14
60	7
61	1
62	1
63	2
64	6
65	8
66	39
67	80
68	4
69	2
70	7
71	10
72	54
73	2
74	7
75	1
76	1
77	1
78	2
79	1
80	18
81	9
82	84
83	17
84	4
85	2
86	1
91	1
93	1
94	1
95	8
96	8
97	2
98	24
99	8
100	2
101	1
105	1
106	2
107	124
108	12
109	2
110	1
112	6
113	4
114	1
123	4
124	12
125	23
126	2
127	1
137	1
139	29
140	322
141	77
142	20
143	3
167	50
168	4
169	2
181	1
195	1
