Mass Spectrum: Cyclopropane, 1,1-dibromo-2-hexyl-
Formula: C9H16Br2
CAS: 41848-90-2
Molecular weight: 282
m/z	intensity
36	1
37	4
38	22
39	258
40	50
41	627
42	234
43	441
44	15
45	1
49	1
50	21
51	99
52	47
53	229
54	124
55	622
56	786
57	255
58	11
61	0
62	3
63	11
65	82
66	55
67	601
68	91
69	475
70	528
71	34
72	1
74	1
75	0
77	44
78	11
79	89
81	999
82	83
83	140
84	13
85	9
86	0
89	0
91	18
92	3
93	46
94	9
95	56
96	62
97	130
98	65
99	4
104	2
105	24
106	4
107	31
108	3
109	6
111	3
117	18
118	3
119	49
120	14
121	37
123	776
124	82
125	3
129	0
131	44
132	36
133	68
134	39
135	26
136	5
137	3
143	0
144	0
145	5
146	6
147	26
148	8
149	21
150	2
159	4
160	4
161	17
162	5
163	13
164	1
170	1
171	2
172	3
173	8
174	2
175	6
176	19
177	2
178	17
179	1
184	19
185	1
186	37
187	3
188	18
189	1
197	13
198	5
199	24
200	9
201	12
202	7
203	2
204	2
205	1
210	0
211	2
212	2
213	7
214	1
215	8
217	2
226	8
227	0
228	16
229	1
230	8
240	2
241	0
242	6
243	0
244	2
