Mass Spectrum: Androstan-17-one, 3,14-bis(acetyloxy)-5-hydroxy-, (3.beta.,5.alpha.,14.beta.)-
Formula: C23H34O6
CAS: 41853-31-0
Molecular weight: 406
m/z	intensity
43	999
44	0
67	100
69	90
79	110
81	170
91	90
93	100
95	930
105	100
107	110
119	70
121	60
125	60
213	100
225	100
235	0
240	250
268	340
269	120
285	110
286	100
300	130
328	690
329	160
346	80
388	150
406	30
