Mass Spectrum: 4-Undecene, 5-methyl-, (E)-
Formula: C12H24
CAS: 41851-94-9
Molecular weight: 168
m/z	intensity
21	9
22	14
23	3
25	20
26	18
27	216
28	104
29	208
33	1
34	6
35	5
37	22
39	172
40	33
41	471
42	39
43	254
44	41
45	1
46	4
48	20
50	20
51	18
53	103
54	18
55	999
56	538
57	204
58	13
63	14
64	6
65	35
66	10
67	72
68	73
69	394
70	254
71	40
72	4
73	1
75	13
77	44
78	12
79	35
80	38
81	41
82	41
83	300
84	105
91	16
93	16
94	18
95	25
96	36
97	66
98	55
102	0
105	9
107	2
109	8
110	38
111	61
112	3
118	7
123	7
128	4
133	1
140	9
145	0
153	0
168	43
169	11
