Mass Spectrum: Piperidinium, 1-ethyl-1-methyl-, iodide
Formula: C8H18IN
CAS: 4186-71-4
Molecular weight: 255
m/z	intensity
41	100
42	230
43	130
44	50
53	10
54	20
55	60
56	50
57	80
58	40
68	10
69	20
70	70
71	30
72	10
82	10
83	10
84	50
98	999
99	130
112	100
113	120
127	220
128	30
139	10
141	50
142	420
156	270
