Mass Spectrum: Bis(trifluoromethyl) peroxycarbonate
Formula: C3F6O4
CAS: 41864-59-9
Molecular weight: 214
m/z	intensity
19	32
28	125
31	27
44	999
47	725
50	22
66	475
69	190
85	7
113	10
129	12
