Mass Spectrum: L-Threonine, N-[N-[1-[N-[(1,1-dimethylethoxy)carbonyl]glycyl]-L-prolyl]-L-alanyl]-, methyl ester
Formula: C20H34N4O8
CAS: 41863-54-1
Molecular weight: 458
m/z	intensity
41	250
42	50
43	50
44	150
45	20
50	20
51	20
53	20
54	10
55	50
56	70
57	420
58	30
59	50
60	10
67	20
68	30
69	50
70	999
71	80
72	30
73	20
74	50
75	20
76	20
82	20
83	40
84	30
85	20
86	20
88	20
99	20
100	50
101	20
102	20
104	30
111	50
112	20
113	10
114	70
115	20
116	20
127	20
128	80
129	20
135	60
136	20
140	30
141	10
142	20
143	20
144	10
145	30
146	30
147	20
153	70
154	60
155	70
156	20
157	10
158	30
159	10
160	30
161	20
167	20
168	20
169	30
170	20
171	150
172	130
173	20
180	40
185	20
189	20
197	20
198	40
199	200
200	30
215	20
216	40
226	20
227	40
228	30
229	30
230	30
231	10
233	20
240	20
241	40
242	30
251	20
255	80
256	30
257	20
260	10
261	20
269	20
270	30
271	30
272	20
283	50
284	10
285	20
286	20
298	30
299	10
300	20
313	20
314	400
315	40
326	10
327	5
328	8
329	4
330	8
340	17
341	16
342	5
343	8
344	9
345	2
357	20
358	25
359	7
401	3
402	18
403	4
414	27
415	5
440	15
441	3
442	1
458	12
459	3
