Mass Spectrum: Cyclohexanethiol, 2,5-dimethyl-, acetate
Formula: C10H18OS
CAS: 4186-80-5
Molecular weight: 186
m/z	intensity
26	4
27	73
28	69
29	85
30	3
32	8
33	2
34	5
35	2
36	1
38	3
39	81
40	13
41	193
42	18
43	480
44	12
45	56
46	3
47	24
48	2
49	6
50	3
51	11
52	5
53	58
54	22
55	392
56	33
57	32
58	10
59	26
60	8
61	14
62	2
63	3
64	1
65	14
66	6
67	121
68	217
69	699
70	37
71	8
72	2
73	9
74	6
75	5
76	3
77	52
78	4
79	17
80	6
81	121
82	31
83	15
84	7
85	10
86	3
87	26
88	5
89	3
91	11
92	2
93	13
94	5
95	320
96	27
97	5
98	1
99	4
100	1
101	9
102	1
103	1
105	1
107	3
108	9
109	121
110	999
111	350
112	29
113	2
114	1
115	2
117	1
127	1
128	3
129	2
131	1
142	3
143	20
144	8
145	2
186	16
187	3
188	1
