Mass Spectrum: Hydroxylamine, TBDMS derivative
Formula: C6H17NOSi
CAS: 41879-39-4
Molecular weight: 147
m/z	intensity
14	1
15	11
16	2
17	1
26	2
27	25
28	13
29	60
30	46
31	11
32	4
33	1
37	1
38	2
39	43
40	7
41	89
42	12
43	60
44	32
45	101
46	11
47	32
48	2
49	1
50	1
51	2
52	1
53	7
54	2
55	12
56	22
57	67
58	23
59	65
60	352
61	83
62	18
63	3
66	1
67	2
69	2
70	1
71	2
72	3
73	99
74	58
75	148
76	309
77	25
78	11
81	1
83	2
85	3
86	1
87	1
88	1
90	999
91	78
92	39
93	1
97	1
99	4
100	1
101	2
115	6
116	2
132	24
133	3
134	1
