Mass Spectrum: 5(4H)-Oxazolone, 4-(1,3-benzodioxol-5-ylmethylene)-2-methyl-
Formula: C12H9NO4
CAS: 41888-62-4
Molecular weight: 231
m/z	intensity
41	5
42	26
43	999
44	25
45	6
47	2
48	1
49	19
50	82
51	93
52	23
53	25
54	3
55	2
56	0
57	1
58	2
60	0
61	13
62	56
63	36
64	16
65	9
66	4
67	2
68	1
69	1
73	9
74	22
75	90
76	162
77	53
78	22
79	6
80	8
81	0
84	7
85	3
86	14
87	18
88	18
89	12
90	5
91	3
92	4
94	0
99	3
100	4
101	7
102	52
103	113
104	39
105	13
106	4
114	1
115	3
116	2
117	0
119	2
124	1
129	0
130	19
131	26
132	14
133	8
134	35
135	11
145	17
146	5
148	0
158	2
159	8
160	97
161	849
162	88
163	7
186	2
188	4
203	7
207	3
208	1
214	2
231	170
232	37
233	4
