Mass Spectrum: 1-Propene, 2-(1-methylethoxy)
Formula: C6H12O
CAS: 4188-63-0
Molecular weight: 100
m/z	intensity
26	13
27	96
29	18
30	8
31	26
37	5
38	16
39	140
40	16
41	218
42	52
43	643
44	20
45	87
57	71
58	999
59	237
60	11
85	10
99	6
100	199
101	15
