Mass Spectrum: Methyl 4-oxo-2-pentenoate
Formula: C6H8O3
CAS: 4188-88-9
Molecular weight: 128
m/z	intensity
13	3
14	19
15	237
16	3
17	1
18	3
25	8
26	104
27	37
28	13
29	41
30	7
31	15
36	2
37	11
38	17
39	65
40	10
41	62
42	65
43	713
44	17
45	7
49	4
50	10
51	9
52	4
53	114
54	86
55	46
56	5
57	5
58	1
59	229
60	6
61	1
67	1
68	11
69	146
70	9
71	2
79	2
81	35
82	49
83	3
85	188
86	9
87	2
96	9
97	325
98	19
99	3
100	21
101	1
113	999
114	57
115	9
127	3
128	166
129	11
130	1
