Mass Spectrum: Benzene, (2-bromo-1-cyclobuten-1-yl)-
Formula: C10H9Br
CAS: 41893-67-8
Molecular weight: 208
m/z	intensity
39	60
50	100
51	230
63	110
64	60
65	170
74	70
75	70
76	60
77	110
102	110
117	110
119	110
127	270
128	570
129	999
130	130
208	850
210	820
