Mass Spectrum: 2H-Inden-2-one, octahydro-
Formula: C9H14O
CAS: 41894-93-3
Molecular weight: 138
m/z	intensity
26	10
27	146
28	31
29	77
30	1
31	1
33	0
34	0
35	0
36	1
37	2
38	13
39	299
40	60
41	434
42	45
43	31
44	3
45	4
46	2
47	1
48	1
49	1
50	17
51	46
52	30
53	185
54	358
55	222
56	47
57	50
58	2
59	0
60	0
61	3
62	5
63	25
64	4
65	52
66	53
67	744
68	333
69	72
70	24
71	6
72	0
73	0
74	2
75	1
76	1
77	54
78	31
79	212
80	54
81	787
82	232
83	22
84	14
85	0
86	0
88	0
89	1
90	0
91	55
92	64
93	46
94	999
95	338
96	334
97	32
98	2
99	0
101	0
102	0
103	1
104	0
105	24
106	3
107	16
108	6
109	377
110	63
111	4
115	1
116	0
117	0
118	0
119	12
120	54
121	7
122	1
123	28
124	2
125	0
137	10
138	586
139	63
140	4
