Mass Spectrum: 1-Propanesulfinic acid, methyl ester
Formula: C4H10O2S
CAS: 41892-32-4
Molecular weight: 122
m/z	intensity
41	750
43	999
44	29
50	91
59	76
79	394
80	350
91	120
107	11
121	1
122	30
123	9
