Mass Spectrum: 2-Undecenoic acid
Formula: C11H20O2
CAS: 4189-02-0
Molecular weight: 184
m/z	intensity
26	30
27	520
28	158
29	785
30	21
31	23
32	0
33	2
34	3
36	3
37	2
38	14
39	393
40	134
41	999
42	284
43	854
44	38
45	116
46	6
47	1
50	8
51	20
52	21
53	137
54	114
55	541
56	319
57	538
58	39
59	7
60	46
61	4
62	2
63	1
65	25
66	19
67	130
68	210
69	271
70	274
71	80
72	5
73	511
74	28
77	16
78	3
79	28
80	17
81	151
82	147
83	175
84	228
85	42
86	160
87	74
88	6
89	2
91	5
92	2
93	8
94	12
95	82
96	124
97	99
98	112
99	114
100	44
101	31
102	15
105	3
106	3
107	5
108	7
109	29
110	41
111	29
112	63
113	73
114	63
115	27
116	20
117	3
119	12
120	2
122	38
123	51
124	76
125	20
126	2
127	35
128	10
129	4
130	1
131	2
133	3
136	1
137	37
138	10
139	4
140	2
141	10
148	18
151	3
152	4
155	4
166	25
167	5
