Mass Spectrum: 1,3-Dithiane, 2,2-dimethyl-, 1-oxide
Formula: C6H12OS2
CAS: 41893-06-5
Molecular weight: 164
m/z	intensity
26	90
27	232
29	45
31	20
33	33
34	67
35	16
37	40
38	74
39	549
40	134
41	999
42	187
43	196
44	72
45	457
46	229
47	235
48	61
49	28
50	18
51	18
52	9
53	51
54	61
55	269
56	24
57	45
58	196
59	850
60	154
61	116
62	45
63	50
64	96
65	22
66	14
67	70
68	12
69	69
70	9
71	146
72	132
73	396
74	749
75	250
76	57
77	37
78	43
79	86
80	19
81	114
82	18
83	28
85	51
86	26
87	83
88	194
89	29
90	892
91	107
92	58
94	7
97	31
98	8
99	48
100	32
101	288
102	21
103	24
104	14
105	37
106	434
107	130
108	44
109	12
111	28
112	23
113	118
114	22
115	53
117	46
118	11
119	10
123	49
124	9
133	32
145	12
146	224
147	187
148	73
149	22
164	641
165	83
166	74
