Mass Spectrum: Germane, 3,4-pentadien-1-yne-1,3-diyl-5-ylidenetetrakis[trimethyl-
Formula: C17H36Ge4
CAS: 41898-95-7
Molecular weight: 536
m/z	intensity
41	50
44	70
55	40
57	40
69	40
81	40
84	50
87	80
89	100
91	50
100	40
102	40
104	60
105	40
115	539
117	739
118	240
119	999
120	50
121	260
137	50
139	50
165	40
166	40
207	40
221	40
263	40
265	90
267	80
269	70
271	40
276	40
278	80
279	60
280	170
281	80
282	190
283	90
284	130
285	40
286	40
295	40
296	40
379	50
381	80
382	40
383	100
384	40
385	90
387	50
392	80
393	40
394	200
395	90
396	360
397	180
398	450
399	200
400	400
401	150
402	230
403	70
404	90
410	40
412	50
413	40
414	60
415	40
416	50
418	40
517	40
524	40
526	80
527	40
528	120
529	60
530	160
531	80
532	150
533	70
534	120
535	50
536	60
