Mass Spectrum: 4-Chloro-3-nitrophenyl 4-chlorophenyl sulfone
Formula: C12H7Cl2NO4S
CAS: 41890-38-4
Molecular weight: 331
m/z	intensity
41	10
43	6
45	77
46	141
47	21
48	19
49	108
50	477
51	234
52	18
53	24
54	2
55	4
56	1
57	5
58	5
60	16
61	78
62	119
63	461
64	41
65	18
66	4
67	2
69	65
70	16
71	12
72	27
73	135
74	396
75	999
76	174
77	27
79	41
80	1
81	18
82	12
84	130
85	94
86	78
87	65
88	16
89	18
90	6
91	8
92	6
93	19
95	116
96	23
97	35
98	68
99	403
101	94
102	5
103	3
104	1
105	8
106	9
107	25
108	87
109	73
110	169
111	715
113	414
114	28
115	21
117	13
118	8
120	4
121	3
122	4
123	21
124	16
125	15
126	15
127	860
129	257
131	126
133	67
135	11
136	6
137	4
138	7
139	31
140	6
141	5
142	14
143	54
145	24
146	3
147	2
148	3
149	19
150	65
151	34
152	4
153	0
155	2
156	14
158	74
159	648
161	355
162	19
163	8
164	0
166	0
167	3
168	1
169	3
170	4
171	3
172	1
173	23
175	117
177	59
178	3
179	3
180	1
181	0
182	2
183	4
184	4
185	10
186	49
187	11
188	19
189	3
190	0
192	0
193	0
194	2
196	2
197	0
201	4
202	56
204	241
206	111
207	9
208	1
209	16
211	11
212	1
213	3
215	1
216	0
217	1
218	2
220	12
221	4
222	8
223	3
224	2
225	0
232	0
233	0
235	0
236	2
238	2
239	1
240	1
241	0
249	1
250	0
251	0
252	0
267	2
269	2
284	3
285	3
286	3
287	3
288	0
299	0
301	0
302	0
314	0
315	5
317	2
318	0
330	1
331	259
332	38
333	184
334	26
335	37
336	5
