Mass Spectrum: Germane, 1,3-pentadiyn-1-yl-5-ylidynetetrakis[trimethyl-
Formula: C17H36Ge4
CAS: 41898-96-8
Molecular weight: 536
m/z	intensity
87	50
89	60
104	50
105	60
115	549
117	749
118	230
119	999
121	220
139	40
177	40
179	40
207	50
249	40
251	40
267	40
269	40
279	50
280	50
281	50
282	60
284	40
307	40
309	50
311	40
379	80
381	130
382	60
383	160
384	70
385	150
386	50
387	90
392	120
393	60
394	320
395	120
396	549
397	250
398	669
399	280
400	589
401	210
402	350
403	90
404	130
413	40
415	40
511	50
514	40
515	70
517	50
524	80
525	50
526	140
527	80
528	190
529	100
530	190
531	90
532	140
533	60
534	80
