Mass Spectrum: Pyrazine, 2,3-di(2-furyl)-5,6-dihydro-
Formula: C12H10N2O2
CAS: 4190-91-4
Molecular weight: 214
m/z	intensity
33	8
34	6
37	51
38	143
39	296
40	150
41	42
42	32
43	27
44	56
45	2
50	70
51	111
52	71
53	52
54	16
55	18
56	8
57	10
58	1
60	0
61	7
62	22
63	51
64	124
65	118
66	40
67	12
68	5
69	8
70	0
71	0
73	4
74	22
75	42
76	43
77	44
78	34
79	48
80	23
81	80
82	8
83	3
84	0
85	0
86	0
87	3
88	2
89	8
90	10
91	27
93	999
94	99
95	8
96	0
97	0
98	2
99	1
100	2
101	15
102	31
103	16
104	6
105	5
106	6
107	19
108	4
109	3
110	0
111	0
115	0
116	2
117	4
118	3
119	2
120	13
121	19
122	1
123	5
127	0
128	7
129	14
130	24
131	10
132	4
133	1
134	1
135	6
136	16
137	13
142	0
143	0
144	2
145	1
146	1
147	2
149	0
155	32
156	46
157	44
158	26
159	6
160	0
161	1
165	23
167	0
169	0
171	4
178	0
180	28
181	0
183	21
184	26
185	97
186	40
187	3
191	0
192	2
194	0
195	23
196	1
197	4
199	13
200	0
211	10
212	78
213	55
214	314
215	37
216	4
