Mass Spectrum: Hexanoic acid, octadecyl ester
Formula: C24H48O2
CAS: 41927-67-7
Molecular weight: 368
m/z	intensity
25	4
26	31
27	168
28	31
29	258
30	11
31	11
36	7
37	11
38	18
39	137
40	39
41	568
42	193
43	895
44	79
45	22
47	3
49	3
50	4
51	14
52	7
53	47
54	96
55	606
56	253
57	491
58	31
59	7
60	95
61	48
65	8
66	11
67	96
68	119
69	371
70	205
71	325
72	19
73	77
74	11
75	7
77	9
78	3
79	17
80	7
81	65
82	141
83	335
84	131
85	122
86	11
87	38
88	4
89	11
91	7
92	4
94	7
95	29
96	68
97	255
98	96
99	346
100	25
109	15
110	25
111	118
112	49
113	15
114	9
115	21
116	134
117	999
118	71
123	7
124	11
125	49
126	31
127	13
128	3
129	3
137	3
138	9
139	21
140	21
141	7
151	7
152	9
154	13
155	6
165	4
166	9
168	12
171	15
181	7
182	3
193	4
195	4
196	9
206	4
210	7
224	34
225	7
251	4
252	66
253	6
297	12
298	2
