Mass Spectrum: Isoindole-1,3(2H)-dione, 2-(3,5-dimethyl-1H-pyrazol-4-yl)methyl-
Formula: C14H13N3O2
CAS: 41935-25-5
Molecular weight: 255
m/z	intensity
33	8
39	52
40	44
41	71
42	194
44	16
45	1
46	0
50	59
51	36
52	58
53	27
54	12
55	7
56	11
57	3
59	0
60	0
61	1
62	4
63	11
64	8
65	15
66	23
67	35
68	54
70	5
71	1
72	0
74	19
75	26
76	99
77	90
78	12
79	11
80	8
81	9
82	4
83	1
84	1
85	0
86	0
87	0
88	2
89	8
90	8
91	3
92	2
93	6
95	32
96	15
97	4
99	1
100	0
102	24
104	62
105	44
108	999
109	129
110	6
111	0
112	0
113	1
114	1
115	7
116	4
117	3
118	1
119	1
120	5
122	65
123	8
125	3
128	26
130	41
131	5
132	10
133	13
134	1
136	0
140	3
141	1
142	3
143	1
144	1
145	4
146	0
147	2
148	3
149	0
150	2
151	0
152	1
153	2
154	1
155	1
156	1
160	185
161	15
162	2
167	1
168	2
169	3
170	1
171	5
172	2
173	0
180	0
181	2
182	3
183	8
184	3
185	3
186	9
187	1
194	0
195	0
196	0
197	1
198	4
199	1
208	1
209	1
210	2
211	1
212	9
213	1
214	0
222	1
223	0
224	0
226	9
227	2
236	1
237	0
238	1
240	48
241	6
242	0
251	0
252	2
255	276
256	38
257	3
