Mass Spectrum: cis-Tetrafluoro(trifluoromethoxy)(trifluoromethylhydroperoxidato)sulfur
Formula: C2F10O3S
CAS: 41938-43-6
Molecular weight: 294
m/z	intensity
31	25
32	11
44	178
47	452
48	19
50	25
51	19
65	19
66	999
67	108
69	662
70	32
83	25
85	32
86	134
88	19
89	115
91	76
92	19
102	38
105	707
107	45
121	64
124	45
127	198
129	19
171	38
187	57
193	32
209	115
212	13
225	19
