Mass Spectrum: 3-Methyl-4-amino-4,5(1H)-dihydro-1,2,4-triazole-5-one
Formula: C3H6N4O
CAS: 4194-37-0
Molecular weight: 114
m/z	intensity
40	88
41	90
42	280
43	58
44	189
55	58
56	220
57	277
58	20
68	29
72	20
83	190
84	20
114	999
