Mass Spectrum: 3,4(2H)-Dihydro-3-cyclohexyl-9-trifluoromethyl[1,3]oxazino[5,6-H]quinoline
Formula: C18H19F3N2O
CAS: 41958-11-6
Molecular weight: 336
m/z	intensity
41	999
42	349
43	129
44	28
47	29
48	12
52	28
53	132
54	167
55	912
56	99
57	30
62	12
63	30
64	9
65	15
66	9
67	73
68	215
69	54
70	27
71	5
74	11
75	32
76	19
77	66
78	15
79	63
80	22
81	112
82	206
83	138
84	5
86	5
87	8
88	21
89	14
94	6
95	5
96	52
97	17
98	62
99	15
100	11
101	55
102	22
103	8
108	7
109	2
110	247
111	31
112	10
113	7
114	9
115	8
116	8
119	15
120	2
124	11
125	4
126	22
127	25
128	166
129	22
131	6
132	25
133	4
134	7
137	1
139	8
140	9
141	1
144	1
146	3
147	27
149	7
150	12
151	22
152	9
153	6
156	9
157	1
158	24
159	3
165	7
168	4
169	7
170	3
176	52
177	25
178	60
179	9
189	6
190	8
194	2
196	23
197	75
198	22
204	2
205	6
206	185
207	38
208	6
213	4
214	2
218	3
219	3
223	6
224	17
225	51
226	552
227	591
228	64
229	7
233	6
235	10
237	3
238	10
239	39
240	7
241	12
251	7
252	7
253	105
254	24
255	7
265	2
267	6
279	7
281	4
293	100
294	20
305	2
307	10
317	11
319	31
320	4
321	23
335	32
336	297
337	57
338	4
