Mass Spectrum: 3,4-Dihydro-3-[3-methylbenzyl]-9-trifluoromethyl-2H[1,3]oxazino[5,6-H]quinoline
Formula: C20H17F3N2O
CAS: 41958-13-8
Molecular weight: 358
m/z	intensity
41	27
42	37
43	5
44	1
45	2
47	8
49	43
51	50
52	2
53	20
55	7
57	7
60	1
62	1
63	19
65	23
66	1
67	2
69	5
70	1
71	1
73	2
74	1
75	16
77	121
79	98
80	4
81	1
82	1
84	32
86	20
88	6
89	5
90	0
91	14
92	0
93	1
95	1
96	0
97	2
99	2
101	18
103	75
105	999
106	85
107	4
109	0
111	1
112	1
113	1
114	1
115	2
117	7
118	5
120	14
121	1
124	0
125	0
126	5
127	5
128	41
129	1
130	3
132	222
133	22
134	3
137	0
138	0
139	1
140	1
143	1
144	1
145	0
146	1
147	2
148	0
149	1
150	1
151	4
152	0
153	1
154	0
155	1
156	2
158	4
162	1
163	0
164	0
165	2
168	0
169	2
170	0
171	1
176	11
177	3
178	9
179	2
184	1
189	0
190	1
194	0
196	3
197	11
198	3
203	0
204	0
205	0
206	19
207	3
208	1
211	1
213	1
218	0
223	1
224	1
225	4
226	60
227	32
228	2
233	3
238	2
239	0
240	1
241	1
251	1
252	1
253	93
254	9
255	0
300	0
312	1
314	1
316	3
327	0
328	2
329	3
330	1
339	5
340	0
341	2
357	5
358	149
359	32
360	3
