Mass Spectrum: 3-Benzyl-6-chloro-3,4-dihydro-2H-pyrido[3,2-H]-1,3-benzoxazine
Formula: C18H15ClN2O
CAS: 41957-82-8
Molecular weight: 310
m/z	intensity
41	50
42	50
43	4
47	10
49	43
50	26
51	71
52	12
53	4
55	3
57	0
61	2
62	8
63	45
65	141
66	6
71	1
73	4
74	13
75	34
76	17
77	31
78	10
79	3
81	0
82	1
84	17
86	15
87	6
88	6
89	28
91	999
92	56
93	1
97	4
99	18
100	12
101	46
102	25
103	5
106	0
108	0
109	1
110	0
113	2
114	4
115	3
116	3
117	1
118	76
119	9
123	3
126	12
127	14
128	75
129	17
130	4
136	9
137	3
138	3
140	3
141	1
148	1
150	1
151	1
153	2
155	6
156	5
157	0
158	7
162	6
163	69
164	15
165	18
166	5
176	0
177	4
179	4
183	3
184	36
185	5
188	1
189	2
191	32
192	245
193	35
194	87
195	12
204	13
206	8
217	4
219	106
220	3
221	39
222	3
246	7
247	2
252	4
264	6
266	3
276	4
280	17
281	15
282	25
283	9
284	7
309	4
310	186
311	23
312	69
313	9
