Mass Spectrum: 3,4-Dihydro-3-benzyl-8-trifluoromethyl-2H-1,3-oxazino[6,5-f]quinoline
Formula: C19H15F3N2O
CAS: 41958-17-2
Molecular weight: 344
m/z	intensity
41	48
42	44
43	14
44	2
45	13
46	4
47	13
49	60
50	23
51	61
52	12
53	6
54	2
57	6
59	12
61	2
62	13
63	35
64	5
65	104
66	7
69	12
74	9
75	15
76	9
77	24
78	8
79	6
84	26
86	23
87	6
88	10
89	28
91	999
92	64
93	5
95	6
99	6
100	2
101	17
102	7
103	2
105	8
106	14
107	6
114	4
115	4
117	4
118	75
119	17
120	16
126	8
127	10
128	29
131	5
132	2
133	3
134	9
144	3
149	2
150	7
151	5
158	9
164	5
169	2
176	25
177	5
178	20
184	32
186	2
194	2
196	13
197	37
198	4
206	19
208	5
212	10
225	14
226	30
227	33
228	2
233	7
238	5
239	12
252	2
253	70
254	28
267	2
311	2
314	4
325	8
327	18
330	2
343	11
344	148
345	35
346	5
