Mass Spectrum: 3,4-Dihydro-2-[2-propylimino]-3-[2-propyl]-9-chloro-4-oxo-2H-1,3-oxazin[5,6-c]quinoline
Formula: C17H18ClN3O2
CAS: 41957-81-7
Molecular weight: 331
m/z	intensity
41	536
43	974
44	18
47	6
49	37
50	12
51	17
53	117
54	6
55	57
56	28
58	40
59	1
61	1
62	33
63	31
64	7
65	2
67	18
69	999
70	44
71	2
73	15
75	50
76	5
77	6
83	356
84	43
85	17
86	6
87	66
88	23
89	5
90	2
95	3
97	12
98	12
99	14
100	8
101	1
102	2
110	7
111	445
112	34
114	249
115	21
116	2
117	0
122	5
123	60
125	151
126	59
127	21
128	1
134	3
135	2
136	4
138	39
139	2
140	17
141	7
142	10
143	3
144	2
149	83
150	47
151	30
152	16
153	3
154	0
160	5
161	9
162	8
163	6
164	3
165	1
168	2
170	17
171	3
175	4
177	61
178	49
179	22
180	15
181	2
184	0
188	9
190	11
191	0
192	1
205	584
206	167
207	171
208	36
209	3
212	2
217	0
219	42
220	8
221	12
222	2
231	6
233	18
234	2
235	3
244	1
245	1
247	145
248	32
249	47
250	8
251	0
258	1
260	20
261	12
262	5
263	2
272	0
274	81
275	32
276	27
277	10
278	1
286	1
288	129
289	101
290	102
291	37
292	32
293	3
303	1
316	19
318	7
319	3
328	0
331	362
332	75
333	126
334	36
335	1
