Mass Spectrum: 1-Imidazol-1-yl-2,2-dimethylpropan-1-one
Formula: C8H12N2O
CAS: 4195-19-1
Molecular weight: 152
m/z	intensity
25	1
26	25
27	125
28	82
29	361
30	9
31	4
34	2
36	0
37	5
38	26
39	226
40	290
41	797
42	107
43	18
44	3
45	13
46	0
47	3
48	0
49	0
50	5
51	12
52	13
53	22
54	7
55	64
56	63
57	999
58	86
59	13
60	1
61	0
62	0
63	0
64	0
65	1
66	5
67	46
68	533
69	336
70	28
71	2
72	0
73	0
74	0
75	0
76	0
77	0
78	0
79	1
80	1
81	4
82	23
83	6
84	1
85	486
86	29
87	9
88	0
91	0
92	1
93	1
94	1
95	19
96	2
97	1
98	0
99	0
100	0
101	0
102	3
103	0
105	0
106	0
107	1
108	1
109	30
110	4
111	1
112	0
113	0
119	0
120	0
121	1
122	0
123	2
124	0
125	0
137	1
138	0
139	0
151	0
152	98
153	15
154	0
