Mass Spectrum: 6-Chloro-3-[m-chlorobenzyl]-3,4-dihydro-2H-pyrido[3,2-H]-1,3-benzixazine
Formula: C18H14Cl2N2O
CAS: 41957-85-1
Molecular weight: 344
m/z	intensity
41	34
42	55
43	8
49	24
50	27
51	61
52	11
53	3
55	2
57	1
61	7
62	4
63	74
64	10
65	10
73	15
74	8
75	49
76	18
77	36
78	12
79	1
84	12
85	4
86	11
87	9
89	157
90	44
91	8
97	7
99	61
100	11
101	59
102	29
103	6
111	1
113	4
114	4
116	4
117	6
123	4
125	999
126	41
127	285
128	83
129	20
130	1
136	11
137	1
138	5
140	9
150	1
151	1
152	67
153	15
154	16
155	7
156	5
158	13
162	8
163	86
164	13
165	29
166	7
177	4
179	4
183	1
184	42
185	6
188	2
191	78
192	372
194	223
195	24
204	23
206	11
207	2
217	1
219	120
221	56
222	3
280	8
282	6
286	1
298	4
300	4
310	3
312	1
314	21
315	42
316	35
317	28
318	21
319	11
320	2
343	3
344	201
345	45
346	160
347	34
348	30
349	6
