Mass Spectrum: 6-Chloro-3-[p-chlorobenzyl]-3,4-dihydro-2H-pyrido[3,2-b]-1,3-benzoxazine
Formula: C18H14Cl2N2O
CAS: 41957-84-0
Molecular weight: 344
m/z	intensity
41	106
42	193
43	9
44	5
45	2
47	9
49	64
50	86
51	183
52	30
53	12
54	4
55	2
61	8
62	22
63	241
64	36
65	37
69	2
73	49
74	40
75	150
76	58
77	105
78	31
79	5
82	8
84	27
85	9
86	28
87	27
89	385
90	115
91	39
97	13
99	163
100	37
101	211
102	85
103	16
109	2
110	2
111	9
112	7
113	10
114	15
115	11
116	12
117	22
123	16
125	999
126	75
127	422
128	301
129	59
130	10
136	39
137	11
138	11
139	2
140	13
141	6
142	3
150	8
151	3
152	87
153	24
154	33
155	17
156	17
157	6
158	22
163	374
164	38
165	109
166	18
176	2
177	9
179	5
184	96
185	12
189	7
191	385
192	634
193	222
194	199
195	41
204	24
205	7
206	10
207	2
216	4
217	11
219	354
221	147
222	12
245	8
253	2
280	14
282	6
298	4
309	4
310	4
314	10
315	9
316	32
317	3
318	16
343	9
344	340
346	270
347	37
348	39
349	2
