Mass Spectrum: Pentaerythritol tetrabenzoate
Formula: C33H28O8
CAS: 4196-86-5
Molecular weight: 552
m/z	intensity
28	7
39	2
41	1
44	3
50	3
51	11
52	2
54	1
55	1
75	1
76	5
77	115
78	16
79	1
81	2
82	45
83	3
91	1
99	1
104	3
105	999
106	80
107	5
122	5
123	2
131	2
152	1
153	1
158	33
159	4
161	1
174	2
175	8
176	116
177	13
178	1
181	2
186	16
187	2
191	3
203	1
204	118
205	15
206	1
227	32
228	5
280	1
296	4
308	5
309	1
325	21
326	4
430	8
431	3
