Mass Spectrum: 4-Bromo-3-methylbenzonitrile
Formula: C8H6BrN
CAS: 41963-20-6
Molecular weight: 195
m/z	intensity
15	1
25	1
26	7
27	10
36	2
37	28
38	47
39	102
40	6
41	4
43	8
44	6
48	2
49	15
50	75
51	57
52	20
53	2
56	4
57	39
60	5
61	48
62	107
63	163
64	60
65	25
66	3
72	1
73	8
74	24
75	37
76	25
77	3
78	1
79	6
80	3
81	6
82	3
83	1
84	5
85	15
86	24
87	48
88	112
89	281
90	57
91	4
93	2
95	1
97	8
99	12
100	10
101	3
102	1
104	1
106	1
110	1
111	4
112	3
113	1
114	126
115	273
116	999
117	99
118	5
119	6
128	1
130	1
141	2
142	1
143	2
144	1
167	2
168	2
169	2
170	2
194	16
195	270
196	39
197	257
198	23
