Mass Spectrum: (p-Chlorophenoxy)acetaldehyde diethyl acetal
Formula: C12H17ClO3
CAS: 41964-04-9
Molecular weight: 244
m/z	intensity
15	6
17	1
26	3
27	33
28	9
29	106
30	3
31	31
32	1
36	1
37	1
38	6
39	10
41	3
42	5
43	50
44	52
45	34
46	5
47	579
48	7
49	4
50	19
51	15
52	1
53	2
55	1
57	2
58	1
59	17
60	7
61	66
62	8
63	24
64	11
65	16
66	1
71	3
72	13
73	20
74	9
75	650
76	36
77	42
78	6
79	6
84	1
85	6
87	2
88	1
89	20
90	1
91	5
92	4
93	3
94	1
98	1
99	41
100	7
101	13
102	3
103	999
104	58
105	7
106	1
107	7
108	1
110	2
111	109
112	20
113	54
114	8
115	7
116	1
117	6
118	2
119	2
124	1
125	22
126	3
127	53
128	51
129	18
130	16
131	1
133	5
134	3
135	3
136	1
139	2
141	69
142	7
143	22
144	2
153	196
154	17
155	74
156	7
157	4
169	2
170	36
171	19
172	13
173	6
181	3
183	1
198	28
199	22
200	10
201	7
244	15
245	2
246	5
