Mass Spectrum: 2,4-Pyrimidinedione,1,2,3,4-tetrahydro-6-(methylamino)-5-nitro
Formula: C5H6N4O4
CAS: 41964-42-5
Molecular weight: 186
m/z	intensity
25	3
26	25
27	106
28	404
29	109
30	285
31	14
37	1
38	60
39	88
40	112
41	113
42	356
43	282
44	190
45	15
46	38
47	1
48	0
50	5
51	19
52	79
53	451
54	262
55	339
56	305
57	999
58	63
59	10
60	1
63	0
64	9
65	19
66	73
67	530
68	247
69	489
70	443
71	57
72	9
73	5
76	1
77	5
78	4
79	10
80	31
81	31
82	194
83	459
84	163
85	51
86	13
87	22
88	1
89	0
90	0
91	9
92	1
93	14
94	16
95	14
96	25
97	52
98	39
99	23
100	15
101	1
102	0
103	1
104	0
105	3
106	1
107	1
108	15
109	55
110	221
111	51
112	39
113	19
114	12
115	1
116	0
118	0
119	0
120	0
121	1
122	3
123	6
124	10
125	59
126	203
127	234
128	15
129	2
134	4
135	3
136	30
137	6
138	4
139	10
140	6
141	22
142	8
143	48
144	2
149	5
150	0
151	7
152	56
153	37
154	16
155	5
156	130
157	22
158	1
165	1
166	2
167	6
168	436
169	49
170	327
171	23
172	2
173	1
186	519
187	41
188	4
