Mass Spectrum: Bicyclo[4.1.0]heptane, 3-methyl-
Formula: C8H14
CAS: 41977-47-3
Molecular weight: 110
m/z	intensity
40	90
41	818
42	90
43	40
50	10
51	60
52	30
53	242
54	545
55	535
56	242
57	10
63	10
65	50
66	50
67	868
68	878
69	343
70	20
77	60
78	10
79	70
80	40
81	999
82	505
83	30
91	30
93	10
95	838
96	60
109	10
110	191
111	10
