Mass Spectrum: Cyclopropane, 1-methyl-1-(2-methylpropyl)-2-nonyl-
Formula: C17H34
CAS: 41977-41-7
Molecular weight: 238
m/z	intensity
41	710
42	80
43	740
44	30
53	100
54	60
55	870
56	730
57	750
58	20
65	20
66	10
67	210
68	170
69	990
70	440
71	150
73	10
77	20
79	40
80	10
81	130
82	100
83	999
84	200
85	130
91	10
93	10
95	90
96	30
97	440
98	120
99	40
109	30
110	10
111	330
112	60
125	90
126	20
139	20
140	20
180	50
181	30
182	200
238	50
239	10
