Mass Spectrum: N-(2,4,6-Trinitrophenyl)-p-phenylenediamine
Formula: C12H9N5O6
CAS: 4197-62-0
Molecular weight: 319
m/z	intensity
15	1
16	1
26	8
27	44
28	4
29	1
30	50
31	1
37	2
38	7
39	39
40	5
41	15
42	5
43	17
44	25
45	3
46	1
50	12
51	26
52	43
53	22
54	10
55	2
57	1
61	6
62	18
63	58
64	35
65	97
66	19
67	8
68	3
69	2
70	4
71	4
73	2
74	16
75	19
76	29
77	53
78	39
79	26
80	35
81	5
82	1
83	2
84	5
85	1
86	3
87	7
88	11
89	15
90	75
91	44
92	36
93	7
94	3
95	4
96	8
97	4
98	5
99	8
100	8
101	18
102	15
103	9
104	9
105	14
106	11
107	30
108	999
109	73
110	5
111	1
112	2
113	9
114	12
115	15
116	11
117	22
118	25
119	6
120	4
121	2
122	3
123	2
124	3
125	18
126	31
127	57
128	34
129	16
130	7
131	5
132	1
133	3
134	7
135	1
136	3
137	7
138	7
139	8
140	25
141	17
142	18
143	17
144	6
145	2
150	2
151	19
152	53
153	56
154	87
155	25
156	9
157	4
158	2
159	38
160	7
162	1
163	3
164	20
165	18
166	15
167	18
168	42
169	35
170	9
171	3
174	1
176	1
177	5
178	14
179	145
180	299
181	261
182	50
183	9
184	5
185	3
188	1
189	1
191	1
192	20
193	92
194	31
195	11
196	15
197	29
198	8
199	2
200	1
201	2
207	1
208	4
209	41
210	81
211	12
212	22
213	4
214	5
215	3
216	4
217	1
224	5
225	28
226	90
227	44
228	9
229	2
238	1
239	113
240	27
241	5
242	5
243	3
244	2
245	1
254	3
255	20
256	25
257	4
258	2
260	2
261	1
262	1
269	2
271	5
272	88
273	32
274	6
284	1
285	302
286	55
287	8
288	1
289	4
301	11
302	15
303	7
304	1
317	41
318	14
319	838
320	130
321	18
322	2
