Mass Spectrum: Bicyclo[4.1.0]heptane, 2-methyl-
Formula: C8H14
CAS: 41977-46-2
Molecular weight: 110
m/z	intensity
40	90
41	830
42	70
43	50
44	20
50	20
51	70
52	30
53	250
54	840
55	630
56	410
57	20
63	20
65	60
66	60
67	999
68	870
69	330
70	20
77	70
78	20
79	100
80	40
81	700
82	920
83	60
91	30
93	10
95	890
96	60
109	10
110	110
111	10
