Mass Spectrum: Bicyclo[4.1.0]heptane, 3-methyl-7-pentyl-
Formula: C13H24
CAS: 41977-48-4
Molecular weight: 180
m/z	intensity
41	333
42	40
43	101
51	10
52	10
53	70
54	141
55	464
56	70
57	50
65	30
66	20
67	464
68	414
69	212
70	30
71	10
77	40
78	10
79	70
80	60
81	999
82	313
83	90
84	10
91	20
93	30
94	30
95	757
96	404
97	272
98	30
108	20
109	272
110	262
111	50
123	111
124	60
137	10
138	10
151	10
152	10
165	30
180	212
181	30
