Mass Spectrum: Cyclopropane, 1-(1,2-dimethylpropyl)-1-methyl-2-nonyl-
Formula: C18H36
CAS: 41977-42-8
Molecular weight: 252
m/z	intensity
41	690
42	80
43	880
44	30
53	30
54	50
55	880
56	130
57	440
58	10
59	10
65	10
66	10
67	190
68	150
69	999
70	860
71	830
72	40
73	10
77	20
79	40
80	10
81	160
82	80
83	980
84	80
85	100
91	20
93	30
95	100
96	40
97	640
98	590
99	60
109	50
110	10
111	340
112	50
113	10
123	30
124	10
125	130
126	20
137	10
138	10
139	30
153	10
180	30
181	30
182	40
208	10
209	60
210	10
252	20
