Mass Spectrum: Cyclopropane, 1,1,2-trimethyl-3-(2-methylpropyl)-
Formula: C10H20
CAS: 41977-43-9
Molecular weight: 140
m/z	intensity
41	332
42	54
43	196
50	11
51	30
52	37
53	56
54	26
55	999
56	117
57	84
65	15
67	69
68	22
69	656
70	249
71	34
77	17
79	67
81	47
82	66
83	867
84	554
85	66
95	15
96	28
97	324
98	52
140	183
141	24
