Mass Spectrum: Cyclopropane, 1-(1-methylethyl)-2-nonyl-
Formula: C15H30
CAS: 41977-39-3
Molecular weight: 210
m/z	intensity
41	350
42	70
43	290
55	390
56	999
57	440
69	360
70	210
71	80
83	180
84	90
85	40
97	110
98	40
111	70
112	20
125	20
154	40
182	20
210	40
