Mass Spectrum: Cyclopropanecarboxylic acid, 3-ethenyl-2,2-dimethyl-, methyl ester, trans-
Formula: C9H14O2
CAS: 41977-59-7
Molecular weight: 154
m/z	intensity
39	234
41	269
43	107
51	107
53	168
55	351
59	117
67	318
73	138
77	89
79	175
80	70
81	74
94	60
95	999
96	107
109	89
111	60
123	60
139	51
154	156
