Mass Spectrum: Cyclopropane, 1-butyl-1-methyl-2-propyl-
Formula: C11H22
CAS: 41977-34-8
Molecular weight: 154
m/z	intensity
41	310
42	60
43	220
44	10
51	10
52	10
53	40
54	20
55	999
56	490
57	260
58	10
65	10
67	60
68	50
69	710
70	360
71	60
77	10
79	10
81	30
82	20
83	180
84	160
85	50
95	10
96	20
97	350
98	150
99	20
105	10
109	10
110	10
111	110
112	120
113	10
125	20
126	10
154	140
155	20
