Mass Spectrum: Bicyclo[4.1.0]heptane, 7-pentyl-
Formula: C12H22
CAS: 41977-45-1
Molecular weight: 166
m/z	intensity
41	600
55	680
67	999
68	230
69	180
81	600
82	850
83	500
95	350
96	450
97	120
109	280
110	70
124	40
166	170
