Mass Spectrum: Cyclopropane, 1-butyl-2-(2-methylpropyl)-
Formula: C11H22
CAS: 41977-35-9
Molecular weight: 154
m/z	intensity
41	520
42	210
43	490
55	760
56	999
57	430
68	70
69	760
70	370
71	70
83	140
84	100
85	30
97	70
98	90
111	60
112	50
126	50
139	30
154	60
