Mass Spectrum: Ethanone, 1-[4-(chloromethyl)-2-phenyl-5-thiazolyl]-
Formula: C12H10ClNOS
CAS: 41981-05-9
Molecular weight: 251
m/z	intensity
43	999
44	150
45	80
51	60
69	120
70	230
71	80
76	50
77	80
103	70
104	220
105	160
106	40
107	50
121	30
148	20
202	140
208	60
216	120
236	220
238	80
251	290
253	120
