Mass Spectrum: Thiazole, 4-propyl-
Formula: C6H9NS
CAS: 41981-60-6
Molecular weight: 127
m/z	intensity
18	0
26	8
27	44
28	21
29	16
32	3
33	0
34	1
37	5
38	12
39	74
40	10
41	47
42	4
43	1
44	5
45	215
46	0
47	14
49	1
50	9
51	15
52	11
53	19
54	7
55	13
56	4
57	16
58	43
59	21
60	4
61	4
62	4
63	5
64	1
65	30
66	6
67	14
68	3
69	29
70	12
71	335
72	86
73	16
74	3
76	1
77	0
80	2
81	3
82	9
83	5
84	10
85	80
86	14
87	3
93	1
94	1
95	0
97	14
98	413
99	999
100	73
101	45
102	1
110	0
111	0
112	268
113	16
114	11
124	2
125	1
126	190
127	272
128	28
129	13
