Mass Spectrum: Ethanone, 1-[2-(4-bromophenyl)-4-(chloromethyl)-5-thiazolyl]-
Formula: C12H9BrClNOS
CAS: 41981-07-1
Molecular weight: 329
m/z	intensity
43	999
44	260
45	110
69	100
70	220
71	80
75	50
102	50
105	140
106	30
107	50
148	10
182	30
184	30
280	50
282	50
286	20
288	20
294	30
296	30
314	60
316	90
329	90
331	130
