Mass Spectrum: 1,4-Methano-3-benzoxepin-5,10-diol, 1,2,4,5,7,8,9,9a-octahydro-2,2,9,9a-tetramethyl-
Formula: C15H24O3
CAS: 41988-43-6
Molecular weight: 252
m/z	intensity
41	310
43	350
55	200
69	180
77	120
79	140
81	160
91	170
93	170
95	240
105	70
107	80
109	200
113	999
121	230
123	180
133	60
135	80
137	90
138	90
139	50
147	50
149	70
161	40
175	30
177	30
191	10
193	10
219	40
234	60
235	30
252	10
