Mass Spectrum: Trityl hydroperoxide
Formula: C19H16O2
CAS: 4198-93-0
Molecular weight: 276
m/z	intensity
17	1
18	3
26	2
27	11
28	3
37	4
38	9
39	36
40	13
41	1
42	1
43	1
47	5
49	2
50	31
51	116
52	9
53	5
55	10
61	3
62	7
63	18
64	6
65	35
66	46
67	3
68	1
73	1
74	13
75	12
76	30
77	458
78	36
79	3
81	1
82	1
86	3
87	5
88	4
89	6
90	1
91	22
92	1
93	4
94	216
95	15
96	1
98	2
99	2
100	3
101	9
102	4
103	3
104	4
105	999
106	80
107	9
108	4
110	1
111	1
112	2
113	12
114	7
115	20
116	2
118	5
119	15
120	10
121	6
122	2
125	1
126	8
127	7
128	6
129	3
137	1
138	1
139	13
140	1
141	2
149	1
150	7
151	15
152	52
153	37
154	147
155	83
156	9
162	1
163	14
164	20
165	355
166	77
167	53
168	8
176	3
177	1
178	2
180	1
181	83
182	434
183	395
184	51
185	4
187	3
188	2
189	6
190	1
191	2
197	4
198	1
199	1
200	3
201	2
202	12
203	5
204	1
211	2
212	1
213	7
214	2
215	32
216	17
217	3
224	1
225	1
226	15
227	10
228	44
229	13
230	2
231	4
237	7
238	5
239	47
240	19
241	65
242	51
243	752
244	188
245	21
246	1
255	1
257	6
258	6
259	84
260	219
261	44
262	5
274	2
276	1
