Mass Spectrum: Ethanone, 1-[4-(chloromethyl)-2-(4-methylphenyl)-5-thiazolyl]-
Formula: C13H12ClNOS
CAS: 41991-34-8
Molecular weight: 265
m/z	intensity
43	999
44	160
45	110
65	50
69	100
70	220
71	130
90	50
91	70
105	140
106	40
107	50
116	60
117	50
118	330
148	20
216	190
222	60
230	160
250	240
252	90
265	350
267	140
