Mass Spectrum: 2-Naphthacenecarboxamide, 4-(dimethylamino)-1,4,4a,5,5a,6,11,12a-octahydro-3,6,10,12-tetrahydroxy-6-methyl-1,11-dioxo-, [4S-(4.alpha.,4a.alpha.,5a.alpha.,6.beta.,12a.alpha.)]-
Formula: C22H24N2O7
CAS: 4199-36-4
Molecular weight: 428
m/z	intensity
61	40
62	30
63	120
64	80
65	80
66	50
67	290
68	190
69	630
70	999
71	960
72	210
73	100
74	50
75	80
76	70
77	100
78	30
79	70
80	50
81	310
82	190
83	500
84	380
85	810
86	130
87	70
88	130
89	90
91	70
93	60
94	80
95	270
96	150
97	420
98	370
99	170
100	999
101	130
102	70
103	40
104	50
106	50
107	50
108	150
109	80
110	210
111	60
112	80
113	50
114	120
119	50
121	50
123	80
124	70
125	130
126	270
127	130
128	110
129	60
137	80
138	60
139	150
140	50
141	70
143	100
144	40
145	30
147	50
149	40
150	40
151	80
152	120
153	90
154	140
155	50
157	30
163	80
164	60
165	190
166	60
167	50
168	60
169	40
170	60
171	60
176	60
177	50
178	60
179	50
180	40
181	80
182	60
183	40
186	50
187	30
188	30
189	60
190	20
191	20
192	20
193	30
194	40
196	30
197	70
198	20
205	40
209	30
210	50
211	60
212	30
213	30
214	100
215	30
221	40
222	20
223	50
224	50
225	90
226	50
227	20
235	30
236	30
237	40
238	40
239	70
240	290
241	60
249	30
250	50
251	40
252	110
253	70
254	30
263	30
264	40
265	50
266	190
267	110
268	100
269	30
278	30
279	60
280	60
281	50
282	50
291	40
292	40
293	40
294	40
295	50
296	100
297	30
305	40
306	30
307	100
308	50
309	20
393	190
394	50
410	210
411	50
