Mass Spectrum: Spirogermanium
Formula: C17H36GeN2
CAS: 41992-23-8
Molecular weight: 342
m/z	intensity
41	73
42	218
43	72
44	155
45	25
46	4
47	7
48	3
49	40
51	15
53	20
54	15
55	43
56	85
57	136
58	999
59	52
60	2
65	6
66	4
67	33
68	32
69	20
70	197
71	85
72	118
73	30
74	10
75	24
76	4
77	27
78	3
79	29
80	20
81	23
82	62
83	169
84	212
85	946
86	153
87	69
88	11
89	20
90	24
91	28
92	4
93	15
94	33
95	25
96	46
97	17
98	14
99	55
100	17
101	99
102	30
103	114
104	26
105	84
106	18
107	24
108	127
110	97
111	21
112	16
113	22
114	15
115	28
116	8
117	6
118	7
119	6
120	14
121	6
122	40
123	11
124	17
125	9
126	18
127	36
128	34
129	64
130	9
131	62
132	19
133	70
134	16
135	25
136	433
137	117
138	51
139	20
140	11
141	26
142	19
143	28
144	5
145	7
146	2
147	2
148	2
149	3
150	16
151	6
152	4
153	13
154	6
155	14
156	9
157	16
158	5
159	8
160	4
161	6
162	5
163	3
164	19
165	6
166	10
167	18
168	13
169	23
170	17
171	24
172	7
173	11
174	3
175	2
179	4
180	7
181	28
182	17
183	29
184	19
185	31
186	11
187	13
188	5
189	5
193	2
194	5
195	12
196	8
197	18
198	15
199	21
200	6
201	8
202	2
203	4
208	13
209	14
210	25
211	22
212	35
213	23
214	18
215	5
216	2
222	6
223	5
224	16
225	10
226	23
227	12
228	15
229	3
230	3
236	35
237	66
238	80
239	90
240	132
241	135
242	77
243	33
244	14
250	6
251	2
252	36
253	9
254	69
255	19
256	78
257	17
258	47
259	5
260	8
264	35
265	51
266	158
267	94
268	225
269	154
270	216
271	44
272	44
273	5
278	28
279	4
280	55
281	21
282	71
283	19
284	43
285	6
286	6
292	2
293	171
294	31
295	229
296	97
297	311
298	47
299	68
300	9
309	4
310	3
311	6
312	7
313	9
314	5
327	2
337	2
338	55
339	19
340	74
341	44
342	104
343	29
344	23
345	5
