Mass Spectrum: m-Toluic acid, phenyl ester
Formula: C14H12O2
CAS: 41998-14-5
Molecular weight: 212
m/z	intensity
26	15
27	23
29	4
39	295
40	23
41	58
42	3
43	5
50	57
51	112
52	22
53	14
55	7
61	13
62	52
63	136
64	51
65	491
66	42
67	3
69	7
70	10
74	15
75	14
76	12
77	32
78	7
79	12
85	4
86	5
87	6
88	5
89	84
90	71
91	886
92	95
93	21
94	31
95	5
105	12
107	3
115	5
118	22
119	999
120	298
121	14
211	3
212	70
213	14
214	2
