Mass Spectrum: Arsine, difluoromethyl
Formula: CH3AsF2
CAS: 420-24-6
Molecular weight: 128
m/z	intensity
51	9
75	48
76	9
87	14
88	129
89	168
90	55
94	159
95	4
106	21
107	20
108	49
109	294
113	999
125	5
127	6
128	521
129	7
