Mass Spectrum: Propane, 1-chloro-2,2-difluoro-
Formula: C3H5ClF2
CAS: 420-99-5
Molecular weight: 114
m/z	intensity
12	1
13	1
14	3
15	8
19	1
20	1
24	1
25	1
26	6
27	19
28	3
29	1
31	16
32	2
33	25
34	1
35	2
36	3
37	7
38	8
39	14
40	1
41	1
43	1
44	7
45	54
46	4
47	5
48	7
49	54
50	6
51	63
52	2
54	1
55	1
56	2
57	11
58	2
59	67
60	6
61	2
62	1
63	5
64	150
65	999
66	23
67	16
68	1
69	5
71	1
72	1
73	1
74	1
75	8
76	1
77	18
78	1
79	25
80	1
81	10
82	1
83	1
85	2
87	1
91	1
93	1
94	1
95	14
96	1
97	5
98	11
99	103
100	6
101	33
102	1
110	2
111	1
112	1
113	1
114	47
115	2
116	15
117	1
