Mass Spectrum: Silane, dichlorofluoromethyl-
Formula: CH3Cl2FSi
CAS: 420-58-6
Molecular weight: 132
m/z	intensity
27	1
33	1
35	21
36	5
37	7
38	2
40	7
41	15
42	10
43	5
44	2
47	455
48	39
49	61
50	6
51	14
59	2
60	10
61	9
62	13
63	100
64	6
65	35
66	4
67	2
75	2
76	4
77	3
78	2
79	1
80	5
81	7
82	88
83	15
84	33
85	15
86	2
94	2
95	11
96	105
97	258
98	58
99	91
100	12
101	12
102	2
103	3
112	3
113	6
114	3
115	4
116	4
117	999
118	53
119	682
120	33
121	146
122	6
123	4
130	2
131	6
132	273
133	21
134	209
135	12
136	35
137	2
138	1
