Mass Spectrum: N-(o-Toluoyl)-glycine
Formula: C10H11NO3
CAS: 42013-20-7
Molecular weight: 193
m/z	intensity
14	1
15	2
17	4
18	14
26	2
27	8
28	14
29	3
30	12
31	5
37	3
38	9
39	65
40	6
41	19
42	4
43	8
44	5
45	11
49	1
50	14
51	30
52	7
53	3
56	9
57	1
58	3
59	2
60	1
61	4
62	14
63	49
64	16
65	162
66	9
67	1
73	8
74	10
75	5
76	4
77	10
78	3
79	2
85	1
86	3
87	3
88	2
89	59
90	106
91	517
92	43
93	2
102	1
103	2
104	4
105	6
106	1
116	7
117	7
118	656
119	999
120	91
121	6
128	1
130	3
132	4
133	1
134	10
135	2
146	11
147	11
148	17
149	12
150	1
152	1
160	1
165	5
175	34
176	5
178	8
179	1
191	1
192	3
193	382
194	44
195	5
