Mass Spectrum: Phosphoric acid, dimethyl 1-phenylethenyl ester
Formula: C10H13O4P
CAS: 4202-12-4
Molecular weight: 228
m/z	intensity
50	18
51	51
63	13
65	12
75	17
76	18
77	102
78	12
79	25
91	64
93	31
95	44
102	999
103	177
104	26
105	77
109	94
113	51
115	13
116	127
117	25
118	25
126	102
127	95
213	69
214	10
228	320
229	37
