Mass Spectrum: Acetic acid, trifluoro-, 2,2,2-trifluoro-1-(trifluoromethyl)ethyl ester
Formula: C5HF9O2
CAS: 42031-15-2
Molecular weight: 264
m/z	intensity
29	314
31	206
32	109
44	120
50	342
51	553
63	78
69	78
78	174
79	277
82	109
97	999
98	42
100	36
101	101
113	109
128	36
129	47
130	53
132	36
151	814
167	252
175	36
195	927
225	950
226	78
245	157
