Mass Spectrum: 4-Oxepanone, 5-(acetyloxy)-3,3,6,6-tetramethyl-
Formula: C12H20O4
CAS: 42031-68-5
Molecular weight: 228
m/z	intensity
41	320
43	999
55	140
56	589
57	240
72	150
73	150
85	380
86	90
113	80
115	100
131	170
145	80
157	70
173	310
185	30
228	10
