Mass Spectrum: Urea, N-(4-chlorophenyl)-N'-(5-phenyl-1,2,4-thiadiazol-3-yl)-
Formula: C15H11ClN4OS
CAS: 42053-82-7
Molecular weight: 330
m/z	intensity
73	80
74	460
77	190
104	999
125	60
126	60
127	460
129	150
135	230
153	90
155	30
177	710
204	60
205	70
329	600
330	160
331	200
