Mass Spectrum: Methyl(3,3-difluoro-2-propenyl)difluorosilane
Formula: C4H6F4Si
CAS: 42067-92-5
Molecular weight: 158
m/z	intensity
39	178
40	10
47	72
51	126
57	428
58	927
59	31
77	278
78	9
81	999
82	41
83	30
85	32
158	448
159	50
