Mass Spectrum: Naphthalene, decahydro-1,4-dimethoxy-, (1.alpha.,4.alpha.,4a.beta.,8a.beta.)-
Formula: C12H22O2
CAS: 42067-56-1
Molecular weight: 198
m/z	intensity
39	291
40	78
41	851
42	91
43	307
44	125
45	688
47	60
51	76
52	44
53	172
54	53
55	248
56	53
57	159
58	641
59	150
65	109
66	58
67	399
68	49
69	192
70	35
71	704
72	107
73	65
75	307
76	17
77	242
78	112
79	417
80	188
81	163
82	51
83	40
84	150
85	125
91	291
92	369
93	437
94	116
95	999
96	89
97	130
98	94
99	60
100	9
101	60
105	145
106	74
107	74
108	282
109	44
110	78
111	170
119	150
120	31
121	49
123	71
124	134
125	515
126	85
127	475
128	53
134	982
135	165
136	174
137	71
138	58
166	273
167	40
168	94
169	20
198	197
199	51
