Mass Spectrum: Methyl(3,3-difluoro-2-propenyl)silane
Formula: C4H8F2Si
CAS: 42067-93-6
Molecular weight: 122
m/z	intensity
39	956
40	22
43	270
44	13
45	948
46	28
47	227
51	80
57	321
58	999
59	30
63	567
64	25
67	161
77	345
78	9
81	422
82	21
83	14
122	120
123	11
