Mass Spectrum: 2-Pyridinemethanamine, .alpha.-methyl-
Formula: C7H10N2
CAS: 42088-91-5
Molecular weight: 122
m/z	intensity
14	1
15	13
16	1
17	6
18	46
25	1
26	27
27	132
28	172
29	13
30	18
31	0
32	1
34	0
35	0
36	6
37	7
38	22
39	77
40	24
41	46
42	105
43	62
44	999
45	26
46	1
47	1
48	0
49	3
50	55
51	151
52	187
53	170
54	27
55	6
56	8
57	3
58	1
59	0
60	4
61	3
62	6
63	15
64	9
65	40
66	64
67	14
68	4
69	1
70	1
71	0
72	0
73	0
74	3
75	6
76	11
77	25
78	148
79	196
80	396
81	23
82	2
83	1
84	7
85	3
86	0
87	0
88	0
89	0
90	0
91	3
92	18
93	120
94	57
95	5
96	2
97	0
98	2
99	0
100	0
101	0
102	1
103	0
104	67
105	46
106	33
107	999
108	77
109	2
110	1
111	0
115	0
117	0
118	1
119	3
120	1
121	69
122	68
123	20
124	2
125	0
