Mass Spectrum: Phosphonic acid, [1-(1,1-dimethylethyl)-4,4-dimethyl-1,2-pentadienyl]-
Formula: C11H21O3P
CAS: 42087-76-3
Molecular weight: 232
m/z	intensity
41	721
43	288
45	230
53	250
55	596
57	999
65	298
67	403
69	336
71	201
73	163
77	826
79	615
81	740
83	269
91	644
96	759
97	326
119	269
120	442
121	317
127	961
128	980
135	884
137	413
143	336
151	221
161	961
162	894
176	961
177	596
217	413
232	951
