Mass Spectrum: N-(2-Morpholynocarbonylphenyl)benzamide
Formula: C18H18N2O3
CAS: 42091-35-0
Molecular weight: 310
m/z	intensity
37	3
38	16
39	46
40	19
41	38
42	59
43	19
44	42
45	16
46	0
50	80
51	264
52	38
53	10
54	25
55	21
56	95
57	78
58	11
59	0
61	0
62	10
63	53
64	63
65	80
66	9
67	2
68	1
69	1
70	17
72	9
73	2
74	20
75	24
76	70
77	999
78	68
79	4
84	6
85	10
86	105
87	366
88	23
89	6
90	77
91	46
92	201
93	21
94	1
95	0
100	0
101	1
102	4
103	10
104	27
105	894
106	73
107	5
108	0
113	1
114	3
115	3
116	1
117	5
118	13
119	79
120	173
121	14
128	1
129	1
130	4
131	3
132	14
133	4
134	2
139	9
140	5
141	0
144	0
146	162
147	34
148	4
151	4
152	3
157	0
160	0
161	1
162	0
163	1
164	1
165	0
166	11
167	15
168	5
169	0
173	0
174	0
175	0
177	1
178	5
179	21
180	8
181	2
189	1
190	0
194	3
195	9
196	29
197	15
198	2
205	11
206	1
207	0
211	3
221	3
222	11
223	19
224	806
225	135
226	12
240	0
249	0
251	0
267	26
268	21
269	3
282	2
291	2
308	0
309	11
310	39
311	8
312	0
