Mass Spectrum: Isoxazole, 3-ethyl-5-phenyl-
Formula: C11H11NO
CAS: 4211-90-9
Molecular weight: 173
m/z	intensity
39	230
41	160
50	240
51	560
52	110
63	150
68	200
76	160
77	940
78	320
89	160
91	160
103	230
105	999
106	90
117	100
131	190
144	60
145	70
158	110
172	110
173	660
174	110
