Mass Spectrum: Butanoic acid, 2-pentenyl ester, (Z)-
Formula: C9H16O2
CAS: 42125-13-3
Molecular weight: 156
m/z	intensity
25	0
26	14
27	193
28	38
29	80
30	2
31	9
36	0
37	2
38	11
39	167
40	35
41	449
42	91
43	601
44	23
45	10
47	1
49	0
50	5
51	10
52	6
53	65
54	16
55	40
56	7
57	33
58	3
59	0
60	12
61	1
62	2
63	2
65	7
66	6
67	188
68	253
69	227
70	29
71	999
72	47
73	14
78	0
79	0
81	4
82	1
83	4
84	8
85	56
86	23
87	3
88	4
89	46
90	2
93	0
95	1
96	1
99	8
100	2
101	1
112	2
113	9
114	11
115	1
127	6
128	7
141	2
156	18
157	2
