Mass Spectrum: Acetic acid, trifluoro-, undecafluoropentyl ester
Formula: C7F14O2
CAS: 42133-36-8
Molecular weight: 382
m/z	intensity
31	28
44	11
47	11
50	38
69	999
78	18
97	288
100	16
119	68
131	18
181	38
247	10
269	8
285	8
313	44
363	44
