Mass Spectrum: Thiazole, 2-(2-thienyl)-
Formula: C7H5NS2
CAS: 42140-95-4
Molecular weight: 167
m/z	intensity
45	80
57	50
58	999
59	50
60	60
69	50
109	30
110	40
167	960
168	100
169	100
