Mass Spectrum: 2-Propenal, 2,3-bis(dimethylamino)-
Formula: C7H14N2O
CAS: 42145-18-6
Molecular weight: 142
m/z	intensity
40	105
41	50
42	300
43	70
44	180
54	70
55	330
56	280
68	120
69	190
70	769
71	100
72	170
82	370
83	50
84	609
85	100
98	529
99	70
114	40
125	999
126	70
142	300
