Mass Spectrum: 2-Amino-6-methyl-5-nitropyrimidine-4(3H)-one
Formula: C5H6N4O3
CAS: 4214-85-1
Molecular weight: 170
m/z	intensity
40	97
42	592
43	999
44	88
45	19
46	12
51	21
52	79
53	121
54	194
55	106
56	37
57	35
58	166
60	7
64	7
65	8
66	22
67	94
68	136
69	331
70	188
71	39
72	5
73	9
79	9
80	27
81	61
82	197
83	94
84	44
85	43
94	59
95	22
96	66
97	47
98	18
99	8
108	6
109	7
110	38
111	35
112	46
113	6
123	34
124	22
125	99
126	12
136	11
137	40
140	47
141	7
153	994
154	84
156	10
170	893
171	89
172	12
