Mass Spectrum: 2-Methano-3-benzazocine-8-carboxylic acid, 3-(cyclopropylmethyl)-1,2,3,4,5,6-hexahydro-6,11-dimethyl-, hydrazide, (2R,6R,11R)-rel-
Formula: C19H27N3O
CAS: 421551-95-3
Molecular weight: 313
m/z	intensity
50	20
51	47
52	21
53	114
54	95
55	999
56	224
57	124
58	66
59	22
63	19
64	10
65	25
67	35
68	76
69	47
70	152
71	76
72	12
77	39
78	16
79	17
80	15
81	21
82	76
83	18
84	90
85	10
89	17
90	10
91	45
93	11
94	18
95	24
96	31
97	18
98	42
99	54
100	14
102	12
103	11
105	16
108	15
110	56
111	11
112	22
115	123
116	26
117	20
118	10
121	101
122	18
123	17
124	132
125	14
127	49
128	120
129	95
130	32
131	21
136	55
139	15
141	119
142	74
143	54
144	22
145	37
150	16
152	19
153	37
154	24
155	64
156	37
157	68
158	17
159	13
164	204
165	32
167	15
168	17
169	33
170	21
171	25
172	12
182	11
183	75
184	28
185	147
186	25
197	11
198	16
199	26
200	12
212	16
213	20
215	10
226	30
227	10
228	13
240	11
244	12
257	20
258	26
271	48
272	292
273	54
282	28
283	14
284	29
297	30
298	125
299	29
312	57
313	271
314	58
