Mass Spectrum: 2-Amino-6-n-butyl-3-cyano-4,5,6,7-tetrahydrothieno[2,3-c]pyridine
Formula: C12H17N3S
CAS: 42159-78-4
Molecular weight: 235
m/z	intensity
42	999
43	38
44	30
45	24
46	1
47	3
49	7
51	22
52	14
53	16
54	15
55	19
56	16
57	31
58	10
60	48
62	9
63	8
64	14
65	16
66	10
67	6
69	20
70	11
71	6
72	3
73	1
76	14
77	12
78	15
79	10
80	9
81	5
82	6
84	28
86	108
87	6
88	1
90	13
91	9
92	5
93	4
94	5
96	53
97	9
98	12
99	2
102	3
103	4
105	31
106	13
107	7
108	2
109	6
110	3
111	0
112	2
116	7
117	6
118	12
119	7
120	2
122	19
123	15
124	8
125	2
127	2
129	4
130	4
131	3
132	2
133	0
134	8
135	5
136	8
137	7
138	3
142	1
144	4
145	3
146	3
147	0
150	413
151	60
152	25
153	3
158	4
161	20
163	45
164	6
165	6
173	0
175	13
176	6
178	50
179	5
180	2
190	10
192	544
193	56
194	24
195	2
202	3
204	2
206	1
207	4
211	2
217	49
218	6
219	2
232	3
233	0
234	136
235	223
236	27
237	9
238	1
