Mass Spectrum: Bicyclo[2.2.2]octane-2,3-dione
Formula: C8H10O2
CAS: 4216-89-1
Molecular weight: 138
m/z	intensity
25	2
26	39
27	262
29	31
30	0
31	1
33	0
37	10
38	26
39	284
41	412
42	24
43	5
45	0
48	0
49	3
50	30
51	42
52	24
53	70
54	610
55	98
56	4
57	0
60	0
61	2
62	3
63	7
64	1
65	26
66	31
67	999
68	92
69	5
70	0
72	0
73	1
74	3
75	1
76	0
77	25
78	32
79	107
80	17
81	179
82	113
83	6
84	0
91	12
92	89
93	8
94	0
95	40
96	7
97	0
98	0
103	0
104	0
105	1
106	0
107	0
108	0
109	8
110	326
111	25
112	2
114	0
119	0
121	0
123	0
124	1
125	0
126	0
127	0
138	221
139	22
140	2
