Mass Spectrum: 1,1-Diphenylethane-1,2-diol
Formula: C14H14O2
CAS: 4217-62-3
Molecular weight: 214
m/z	intensity
31	100
39	140
51	590
76	230
77	999
78	380
91	320
105	840
106	380
152	240
165	510
183	750
184	610
196	40
214	30
