Mass Spectrum: Octadecanamide, N-butyl-
Formula: C22H45NO
CAS: 4219-50-5
Molecular weight: 339
m/z	intensity
15	3
27	30
28	70
29	80
30	130
31	4
41	140
42	30
43	180
44	120
45	7
55	130
56	40
57	230
58	30
59	20
60	40
71	60
72	60
73	200
74	90
85	30
86	70
87	30
88	3
99	10
100	110
101	10
114	7
115	999
116	80
128	230
129	40
142	40
143	9
156	20
157	10
170	40
171	10
184	40
185	8
197	10
198	30
199	6
212	20
213	30
226	20
227	4
239	20
240	20
241	4
268	20
282	10
295	20
311	1
339	20
