Mass Spectrum: 1,3-Dithiane, 2-nonyl-
Formula: C13H26S2
CAS: 42196-81-6
Molecular weight: 246
m/z	intensity
26	0
27	62
28	21
29	103
30	0
39	51
40	6
41	254
42	22
43	94
44	1
45	92
46	32
47	48
48	1
49	0
51	0
53	19
54	11
55	113
56	11
57	33
58	16
59	38
60	57
61	37
62	2
64	6
65	6
66	2
67	46
68	14
69	57
70	5
71	24
72	7
73	83
74	70
75	45
76	3
77	10
78	5
79	16
80	0
81	32
82	18
83	39
84	5
85	26
86	2
87	66
88	8
89	5
91	19
93	7
95	22
96	13
97	19
99	6
100	4
101	29
102	2
103	4
105	26
106	66
107	38
108	15
109	10
110	2
111	3
113	3
115	7
119	999
120	60
121	95
122	3
123	5
129	5
133	26
134	20
135	3
136	0
137	1
138	8
139	0
143	1
145	1
147	9
148	3
149	0
171	174
172	31
173	10
175	0
189	2
191	0
199	11
200	0
203	1
213	3
245	2
246	284
247	48
248	30
249	3
