Mass Spectrum: Cyclopropanepentanoic acid, 2-undecyl-, methyl ester, trans-
Formula: C20H38O2
CAS: 42199-20-2
Molecular weight: 310
m/z	intensity
26	1
27	230
28	70
29	500
30	14
31	15
32	9
33	4
35	2
37	3
38	5
39	190
40	40
41	999
42	170
43	880
44	30
45	30
46	1
47	3
48	1
49	2
50	4
51	10
52	10
53	100
54	130
55	600
56	130
57	280
58	20
59	170
60	10
61	10
62	2
63	20
64	2
65	23
66	20
67	230
68	130
69	250
70	70
71	70
72	10
73	40
74	350
75	50
76	4
77	30
78	10
79	60
80	30
81	140
82	70
83	140
84	90
85	50
86	4
87	180
88	40
89	10
90	1
91	20
93	30
94	20
95	110
96	90
97	100
98	70
99	10
101	40
102	4
103	2
104	2
105	7
106	3
107	10
108	10
109	40
110	50
111	60
112	20
113	10
114	10
115	20
116	5
117	3
118	2
119	10
120	3
121	10
122	4
123	30
124	20
125	20
126	5
127	10
128	40
129	20
130	6
131	2
132	1
133	6
134	5
135	10
136	4
137	20
138	20
139	10
140	4
141	10
142	10
143	30
144	4
145	1
146	1
147	6
148	4
149	10
150	3
151	10
152	10
154	3
155	5
156	5
157	7
158	2
159	1
160	1
161	3
162	1
163	2
164	2
165	5
166	5
167	4
168	2
169	5
170	3
171	5
172	2
175	2
176	1
177	2
178	2
179	4
180	7
181	3
182	2
183	4
184	1
185	5
186	2
187	1
189	1
191	1
192	1
193	2
194	20
195	6
196	3
197	3
198	1
199	5
200	2
203	1
205	1
206	1
207	3
208	3
209	2
210	2
211	2
212	1
213	3
214	2
221	2
222	3
223	2
224	2
225	1
226	5
228	3
229	1
234	8
235	4
236	20
237	6
238	1
239	4
240	1
241	3
242	2
249	3
250	4
251	1
253	1
255	4
256	2
260	4
261	4
262	2
263	1
264	1
267	5
268	2
269	2
270	14
271	3
277	1
278	40
279	20
280	3
281	2
282	1
284	3
285	1
292	1
294	1
298	20
299	4
300	1
310	10
311	3
312	2
313	1
