Mass Spectrum: Methyl 6-(2-furoyl)hexanoate
Formula: C12H16O4
CAS: 4219-21-0
Molecular weight: 224
m/z	intensity
39	150
41	70
55	90
59	50
68	40
69	50
74	30
81	50
95	640
110	999
111	130
123	120
136	10
147	60
164	10
193	20
206	10
224	20
