Mass Spectrum: n-Heptafluoropropyl bromide
Formula: C3BrF7
CAS: 422-85-5
Molecular weight: 248
m/z	intensity
31	952
50	370
69	999
79	139
81	157
93	48
100	353
112	32
129	432
131	437
169	862
229	32
231	30
248	21
250	21
