Mass Spectrum: Propane, 3,3-dichloro-1,1,1,2,2-pentafluoro-
Formula: C3HCl2F5
CAS: 422-56-0
Molecular weight: 202
m/z	intensity
31	300
35	142
47	116
48	130
50	126
51	126
67	124
69	880
79	31
83	999
85	905
87	175
98	155
100	77
132	40
134	25
167	11
183	3
202	3
