Mass Spectrum: DOI
Formula: C11H16INO2
CAS: 42203-78-1
Molecular weight: 321
m/z	intensity
40	5
41	10
42	43
44	999
45	26
46	1
47	1
49	1
50	16
51	27
52	8
53	30
54	5
55	4
56	3
57	4
58	2
60	1
61	3
62	9
63	29
64	24
65	27
66	8
67	7
68	3
69	2
70	1
73	1
74	10
75	14
76	18
77	75
78	25
79	18
80	5
81	2
82	3
85	1
86	2
87	3
89	27
90	28
91	50
92	23
93	14
94	3
95	1
96	1
98	1
100	1
101	1
102	2
103	6
104	6
105	34
106	12
107	11
108	11
109	2
110	1
115	2
116	1
117	4
118	4
119	8
120	12
121	28
122	6
123	4
124	1
127	10
128	7
130	1
131	3
132	4
133	4
134	4
135	5
136	10
137	3
138	1
142	2
144	1
146	7
147	4
148	5
149	6
150	6
151	4
152	3
153	3
160	1
161	3
162	5
163	4
164	8
165	2
167	1
176	1
177	1
178	3
179	3
180	1
181	1
189	1
191	7
192	1
193	1
203	1
204	1
205	1
206	1
217	2
218	1
219	4
220	1
221	1
232	10
233	2
234	5
235	2
244	1
247	25
248	3
249	2
260	1
261	1
263	23
264	2
271	1
272	1
273	1
274	1
275	2
276	3
278	183
279	18
280	2
288	1
289	1
290	1
291	1
302	1
304	1
305	1
306	1
319	1
321	4
322	1
