Mass Spectrum: Carbamic acid, 2-(dimethylamino)ethyl ester
Formula: C5H12N2O2
CAS: 4220-32-0
Molecular weight: 132
m/z	intensity
12	2
13	3
14	10
15	133
16	3
24	2
25	1
26	9
27	33
28	69
29	47
30	136
31	72
32	2
35	16
36	103
37	6
38	31
39	5
40	9
41	24
42	165
43	63
44	149
45	28
46	2
47	9
48	5
49	14
50	171
51	7
52	54
53	1
54	4
55	7
56	70
57	41
58	999
59	65
60	1
67	1
68	2
69	7
70	25
71	18
72	9
73	3
74	1
78	1
79	1
80	1
81	1
82	1
83	2
84	1
85	4
86	5
87	2
88	32
89	38
90	2
97	1
98	1
99	3
100	3
101	1
106	1
113	9
114	2
