Mass Spectrum: 2,6,10,14-Hexadecatetraenoic acid, 3,7,11,15-tetramethyl-, methyl ester, (E,E,E)-
Formula: C21H34O2
CAS: 42207-88-5
Molecular weight: 318
m/z	intensity
27	27
28	45
29	62
39	39
40	31
41	376
42	19
43	53
44	2
45	10
51	6
52	3
53	59
54	17
55	124
56	9
57	32
59	28
63	2
65	18
66	6
67	108
68	90
69	999
70	48
71	16
73	9
77	29
78	5
79	70
80	36
81	487
82	87
83	54
84	4
85	12
87	6
91	77
92	47
93	147
94	36
95	134
96	23
97	14
98	2
99	7
101	6
103	3
105	40
106	12
107	104
108	37
109	89
110	10
111	10
112	8
113	4
114	215
115	20
117	4
119	32
120	12
121	182
122	63
123	123
124	26
125	14
126	3
127	16
128	8
129	3
131	5
133	37
134	32
135	122
136	264
137	122
138	15
139	39
140	6
141	3
145	5
146	3
147	46
148	22
149	56
150	17
151	7
153	5
159	5
160	2
161	35
162	18
163	18
164	3
165	10
166	6
167	8
173	8
175	30
176	9
177	18
178	5
179	8
180	5
181	6
182	4
187	3
189	44
190	8
191	20
192	8
193	8
194	9
195	11
196	3
199	3
201	5
202	2
203	8
204	23
205	24
206	6
207	10
208	3
215	10
217	10
218	3
233	7
234	4
235	4
236	13
237	2
243	7
244	4
247	3
249	7
258	2
259	3
262	4
271	2
275	21
276	5
286	4
287	18
288	3
297	5
298	8
303	4
318	119
319	30
320	3
