Mass Spectrum: AX 56
Formula: C9H10N4OS
CAS: 42204-09-1
Molecular weight: 222
m/z	intensity
41	436
42	110
43	856
44	59
45	89
46	6
47	7
49	16
51	31
52	19
53	68
54	26
55	12
56	13
57	21
58	7
59	7
60	9
61	1
62	1
64	21
65	26
66	19
67	13
68	9
69	32
70	305
71	999
72	59
73	6
74	1
76	5
77	21
78	7
79	8
80	17
82	62
83	47
84	23
85	6
86	6
87	1
88	1
90	1
91	11
92	12
93	6
94	4
96	9
97	41
98	42
99	6
100	3
101	0
103	1
104	1
105	3
106	2
107	0
108	6
109	15
110	6
111	4
112	2
118	2
119	21
120	3
121	1
122	1
123	3
124	30
125	96
126	16
127	4
128	0
130	1
131	1
132	1
133	1
134	1
135	1
136	7
137	8
138	3
139	2
144	0
147	1
148	1
149	0
150	1
151	12
152	314
153	337
154	32
155	12
156	0
159	1
161	1
162	1
163	0
164	6
165	9
166	4
167	1
175	1
176	1
177	3
179	152
180	14
181	8
182	0
191	7
192	3
193	3
194	8
195	1
200	1
221	1
222	87
223	13
224	5
225	0
