Mass Spectrum: Tricyclo[4.3.1.0(2,5)]decane
Formula: C10H16
CAS: 42210-02-6
Molecular weight: 136
m/z	intensity
26	13
27	49
28	92
29	51
38	7
39	113
40	23
41	196
42	22
43	44
44	44
45	7
50	13
51	37
52	23
53	76
54	80
55	85
56	22
57	38
63	5
64	7
65	56
66	111
67	762
68	83
69	60
70	18
71	22
76	5
77	114
78	84
79	999
80	975
81	158
82	78
83	22
84	8
85	8
91	146
92	30
93	679
94	738
95	410
96	19
97	14
98	8
105	26
106	10
107	237
108	580
109	37
110	5
121	447
122	27
123	7
136	84
137	12
138	4
