Mass Spectrum: Oxazolidine, 2,2,3-trimethyl-
Formula: C6H13NO
CAS: 42219-47-6
Molecular weight: 115
m/z	intensity
15	41
26	10
27	37
29	34
30	73
39	45
40	20
41	55
42	187
43	197
44	98
50	52
54	19
55	23
56	123
57	36
58	775
59	37
70	138
71	18
72	29
84	21
85	52
100	999
101	64
115	71
116	5
