Mass Spectrum: Behenyl chloride
Formula: C22H45Cl
CAS: 42217-03-8
Molecular weight: 344
m/z	intensity
15	1
26	2
27	70
28	19
29	222
30	5
36	2
39	46
40	10
41	473
42	114
43	827
44	27
49	3
51	2
52	1
53	24
54	43
55	501
56	166
57	999
58	45
62	1
63	9
65	4
66	4
67	48
68	43
69	316
70	127
71	610
72	33
75	2
76	1
77	8
78	1
79	6
80	2
81	24
82	50
83	208
84	90
85	396
86	26
89	1
90	2
91	259
92	11
93	82
94	4
95	11
96	30
97	157
98	71
99	136
100	10
103	1
104	13
105	89
106	9
107	29
108	2
109	7
110	14
111	73
112	63
113	95
114	9
117	2
118	6
119	45
120	6
121	14
122	1
123	4
124	9
125	35
126	48
127	71
128	7
131	3
132	4
133	42
134	5
135	12
136	1
137	2
138	6
139	17
140	41
141	53
142	6
145	3
146	5
147	38
148	5
149	11
150	1
152	3
153	9
154	32
155	44
156	6
159	3
160	6
161	29
162	4
163	10
164	1
166	2
167	6
168	25
169	34
170	5
173	2
174	7
175	27
176	6
177	9
178	1
180	2
181	4
182	17
183	27
184	4
187	2
188	8
189	23
190	5
191	8
192	1
194	1
195	3
196	13
197	21
198	3
202	9
203	20
204	5
205	7
206	1
208	1
209	2
210	9
211	17
212	3
216	9
217	21
218	6
219	7
220	1
223	2
224	6
225	13
226	2
230	8
231	19
232	6
233	7
234	1
237	1
238	3
239	9
240	2
244	9
245	20
246	6
247	7
248	1
252	2
253	4
254	1
258	8
259	20
260	6
261	7
262	1
266	1
267	1
272	7
273	19
274	6
275	7
276	2
280	2
281	1
286	6
287	16
288	5
289	6
290	1
300	3
301	11
302	3
303	4
308	8
309	2
314	2
315	8
316	3
317	3
342	1
343	1
344	49
345	12
346	19
347	4
