Mass Spectrum: trans-3-(O-Hydroxyphenyl)-1-phenyl-2-propen-1-one
Formula: C15H12O2
CAS: 42224-53-3
Molecular weight: 224
m/z	intensity
15	3
16	1
17	1
18	3
26	10
27	53
28	8
29	10
31	2
37	9
38	51
39	212
40	18
41	37
42	2
43	15
44	1
45	6
46	1
49	8
50	131
51	465
52	50
53	39
54	3
55	11
56	2
57	4
58	2
59	3
61	14
62	58
63	179
64	69
65	270
66	22
67	5
68	3
69	4
70	5
71	3
72	2
73	6
74	53
75	101
76	83
77	999
78	91
79	10
80	1
81	3
82	11
83	11
84	8
85	7
86	14
87	19
88	17
89	191
90	114
91	711
92	60
93	4
94	37
95	3
96	2
97	16
98	36
99	7
100	4
101	57
102	42
103	297
104	33
105	819
106	70
107	7
109	2
110	4
111	4
112	7
113	6
114	5
115	35
116	6
117	3
118	370
119	368
120	34
121	7
122	3
123	2
125	2
126	9
127	10
128	16
129	5
130	13
131	35
132	5
133	2
134	1
137	3
138	3
139	24
140	5
141	11
142	4
143	1
144	4
145	29
146	121
147	692
148	75
149	7
150	8
151	20
152	67
153	26
154	5
155	6
156	3
157	1
159	1
161	4
162	2
163	9
164	9
165	84
166	25
167	62
168	13
169	5
170	3
174	1
175	4
176	30
177	48
178	137
179	59
180	9
181	47
182	8
183	2
184	1
187	1
189	6
190	2
191	3
192	2
193	3
194	17
195	94
196	53
197	9
198	1
202	1
203	1
204	3
205	91
206	136
207	855
208	190
209	23
210	2
220	2
221	5
222	17
223	136
224	679
225	116
226	12
227	1
