Mass Spectrum: 2H-1-Benzopyran-2-one, 4,5,7-trihydroxy-3-phenyl-
Formula: C15H10O5
CAS: 4222-02-0
Molecular weight: 270
m/z	intensity
101	12
102	20
103	30
104	27
105	125
106	25
107	30
108	52
109	32
110	14
111	31
115	45
116	15
117	24
118	999
119	105
120	13
121	30
122	30
123	21
124	110
125	12
126	11
127	20
128	28
129	30
131	12
132	10
133	14
135	45
136	40
137	20
138	10
139	20
141	14
143	12
145	13
147	20
148	17
149	75
150	13
151	10
152	400
153	450
154	40
155	14
157	1
159	1
161	1
162	1
163	1
165	15
166	2
167	1
168	1
175	1
177	3
178	2
182	1
192	6
193	1
203	1
213	3
218	1
219	1
242	22
254	13
255	15
270	649
271	110
272	17
