Mass Spectrum: Docosanoic acid nonyl ester
Formula: C31H62O2
CAS: 42233-05-6
Molecular weight: 466
m/z	intensity
33	2
34	5
36	1
37	2
38	5
39	41
40	64
41	367
42	130
43	999
44	108
45	13
46	2
50	5
51	9
52	4
53	18
54	51
55	467
56	292
57	866
58	57
59	19
60	115
61	312
62	8
63	6
64	1
65	12
67	84
68	95
69	342
70	256
71	563
72	39
73	199
74	22
75	6
76	5
77	13
78	7
79	15
80	11
81	71
82	145
83	310
84	216
85	318
86	26
87	51
88	6
89	7
90	0
91	13
92	4
93	14
94	13
95	60
96	80
97	316
98	219
99	64
100	10
101	32
102	12
103	10
104	5
105	12
106	4
107	11
108	7
109	33
110	20
111	78
112	28
113	32
115	51
116	35
117	8
118	3
119	5
120	5
121	16
122	8
123	20
124	18
125	49
126	409
127	79
128	12
129	91
130	14
131	3
132	1
133	5
134	3
135	16
136	3
137	11
138	8
139	20
140	10
141	15
142	4
143	20
144	5
145	2
146	0
147	4
149	45
150	7
151	8
152	5
153	16
154	7
155	9
156	3
157	13
158	6
159	3
160	3
161	1
162	1
163	7
164	3
165	5
166	4
167	10
168	5
169	9
171	64
172	12
173	5
174	0
175	2
176	1
177	6
178	1
179	3
180	3
181	7
182	4
183	9
184	4
185	30
186	11
187	54
188	7
189	2
191	5
193	3
194	3
195	6
196	4
197	6
198	1
199	30
200	6
201	2
202	1
203	1
205	3
206	0
207	5
208	3
209	5
210	4
211	4
212	1
213	13
214	3
215	2
217	2
219	1
221	4
222	2
223	5
224	4
225	3
226	1
227	14
228	5
229	3
233	2
235	3
237	5
238	3
239	2
241	26
242	6
243	3
249	2
250	4
251	6
252	2
253	2
254	1
255	18
256	5
257	4
263	1
264	0
265	1
266	2
267	4
269	11
270	3
275	0
276	0
277	2
278	4
279	2
280	3
281	5
282	1
283	9
284	6
285	8
286	2
292	3
293	3
294	3
295	13
296	4
297	26
298	6
299	2
303	2
305	2
306	0
309	2
311	8
312	28
313	77
314	16
320	9
321	9
322	7
323	35
324	10
326	6
327	2
337	2
339	8
340	95
341	278
342	64
343	10
351	2
367	3
368	3
369	4
377	0
381	2
394	1
395	2
396	3
407	0
409	0
410	3
411	0
422	1
423	3
424	0
437	1
438	34
439	10
440	2
452	2
464	3
466	161
467	51
468	10
469	0
