Mass Spectrum: Dodecanoic acid, nonyl ester
Formula: C21H42O2
CAS: 42231-74-3
Molecular weight: 326
m/z	intensity
26	3
27	43
28	51
29	152
30	10
31	5
32	19
37	3
38	3
39	68
40	17
41	610
42	201
43	999
44	30
45	17
53	31
54	49
55	719
56	457
57	829
58	38
59	20
60	138
61	376
62	15
66	5
67	103
68	192
69	520
70	508
71	608
72	35
73	253
74	20
75	4
79	21
81	53
82	211
83	501
84	403
85	347
86	26
87	55
89	19
91	80
92	75
93	19
94	14
95	54
96	131
97	517
98	415
99	59
101	54
102	11
103	22
107	12
109	29
110	17
111	70
112	40
113	9
114	6
115	65
116	52
117	19
121	14
123	27
124	15
125	38
126	757
127	103
129	167
130	12
131	9
134	10
135	15
136	4
138	20
139	10
140	10
141	14
143	29
146	5
151	6
153	9
154	35
155	20
157	77
158	17
159	13
160	2
162	6
163	15
168	5
171	63
172	13
173	73
174	3
181	11
182	6
183	219
184	22
185	5
187	24
188	2
189	8
197	5
198	4
199	24
200	121
201	906
202	123
203	5
204	4
212	4
214	5
216	4
225	3
231	3
236	3
238	4
239	6
241	13
246	2
254	2
255	12
256	12
261	2
278	6
281	6
282	8
293	3
326	57
327	14
328	5
329	3
