Mass Spectrum: Hencosanedioic acid, dimethyl ester
Formula: C23H44O4
CAS: 42235-57-4
Molecular weight: 384
m/z	intensity
52	40
53	62
54	60
55	726
56	123
57	104
58	36
59	233
64	28
65	63
67	159
68	76
69	493
70	39
71	38
74	785
75	38
80	22
81	97
82	47
83	285
84	414
85	115
87	459
88	82
94	61
95	108
96	117
97	287
98	999
99	149
101	88
105	37
107	57
108	31
109	90
110	101
111	199
112	386
113	94
115	23
116	24
117	44
121	92
123	41
124	23
125	105
126	141
127	33
129	82
130	49
133	35
135	62
137	85
139	41
140	151
141	28
143	79
144	49
149	129
151	55
153	79
154	137
157	90
158	27
159	57
163	27
165	46
166	23
167	59
168	75
172	21
185	30
186	24
192	50
193	50
194	23
196	51
205	28
209	30
210	46
211	21
218	26
219	21
221	35
223	31
236	25
238	101
251	21
261	23
262	28
263	25
269	23
273	22
278	105
279	114
283	34
284	23
293	103
296	89
310	22
311	186
312	26
341	26
352	53
353	252
354	47
355	50
