Mass Spectrum: Eicosanebioic acid, dimethyl ester
Formula: C22H42O4
CAS: 42235-38-1
Molecular weight: 370
m/z	intensity
14	4
15	130
16	2
17	1
18	3
25	1
26	6
27	104
28	48
29	243
30	6
31	30
32	3
33	2
36	1
37	1
38	4
39	100
40	23
41	676
42	127
43	492
44	21
45	52
46	2
48	1
50	2
51	6
52	4
53	59
54	70
55	875
56	120
57	261
58	29
59	259
60	16
61	7
62	1
63	2
64	1
65	11
66	9
67	163
68	68
69	508
70	64
71	109
72	13
73	74
74	845
75	84
76	7
77	12
78	7
79	43
80	53
81	166
82	74
83	313
84	368
85	80
86	9
87	423
88	52
89	6
90	1
91	12
92	7
93	46
94	59
95	143
96	92
97	251
98	999
99	113
100	15
101	60
102	7
103	3
104	3
105	10
106	6
107	42
108	54
109	83
110	47
111	131
112	315
113	49
114	13
115	42
116	22
117	7
118	3
119	10
120	7
121	77
122	31
123	53
124	27
125	79
126	92
127	24
128	16
129	47
130	33
131	8
132	3
133	12
134	9
135	62
136	20
137	30
138	21
139	47
140	73
141	24
142	9
143	45
144	42
145	7
146	2
147	8
148	8
149	33
150	14
151	22
152	25
153	31
154	115
155	21
156	7
157	26
158	47
159	7
160	2
161	7
162	4
163	19
164	10
165	13
166	14
167	21
168	54
169	11
170	3
171	25
172	46
173	7
174	2
175	5
176	3
177	13
178	9
179	9
180	13
181	23
182	36
183	9
184	3
185	21
186	19
187	4
188	1
189	4
190	2
191	9
192	6
193	8
194	9
195	15
196	31
197	9
198	2
199	17
200	13
201	3
202	1
203	2
204	2
205	9
206	6
207	7
208	13
209	16
210	36
211	9
212	4
213	12
214	10
215	3
216	1
217	2
218	2
219	3
220	8
221	7
222	22
223	24
224	75
225	14
226	5
227	10
228	8
229	1
230	2
231	1
232	1
233	3
234	4
235	6
236	9
237	9
238	13
239	5
240	12
241	16
242	8
243	2
245	2
246	7
247	26
248	7
249	5
250	6
251	7
252	4
253	4
254	16
255	23
256	7
257	2
258	2
259	2
260	4
261	6
262	4
263	7
264	70
265	84
266	15
267	5
268	3
269	5
270	4
271	1
272	1
275	1
276	1
277	5
278	37
279	17
280	4
281	3
282	26
283	9
284	22
285	5
286	1
287	3
288	8
289	4
290	1
291	1
292	2
293	1
294	4
295	6
296	37
297	186
298	41
299	6
300	2
304	2
305	8
306	50
307	16
308	5
309	3
310	9
311	6
312	5
313	2
318	1
319	1
320	8
321	3
322	1
323	1
324	3
325	2
326	1
327	1
329	1
332	1
336	1
337	5
338	104
339	182
340	42
341	7
342	2
353	1
369	1
370	35
371	10
372	2
