Mass Spectrum: 1,13-Tridecanediol, diacetate
Formula: C17H32O4
CAS: 42236-70-4
Molecular weight: 300
m/z	intensity
36	1
37	2
38	2
39	27
40	7
41	230
42	80
43	999
44	38
45	17
46	1
47	1
50	1
51	2
52	2
53	18
54	175
55	410
56	100
57	90
58	19
59	8
60	5
61	205
62	6
63	2
65	4
66	50
67	250
68	340
69	285
70	70
71	43
72	10
73	44
74	4
75	2
76	2
77	5
78	2
79	15
80	21
81	230
82	510
83	240
84	38
85	16
86	6
87	9
88	6
89	2
90	1
91	4
92	1
93	8
94	17
95	210
96	340
97	140
98	40
99	6
100	3
101	12
102	4
103	4
104	3
105	3
106	2
107	4
108	9
109	120
110	140
111	51
112	17
113	4
114	5
115	4
116	16
117	2
118	1
119	1
120	1
121	5
122	7
123	80
124	90
125	16
126	5
127	2
128	2
129	4
130	2
131	1
132	1
133	2
134	1
135	3
136	3
137	40
138	39
139	8
140	3
141	1
142	1
143	1
144	1
145	1
147	1
148	1
149	16
150	3
151	14
152	55
153	9
154	2
155	2
156	1
157	1
158	1
159	1
163	1
164	1
165	2
166	1
167	1
168	2
169	1
171	1
172	1
177	1
178	2
179	4
180	60
181	9
182	1
183	1
184	1
185	1
193	1
194	1
195	1
196	1
197	3
198	1
199	1
205	2
206	1
207	2
208	1
209	1
210	1
211	1
212	1
213	1
214	1
215	1
219	1
220	1
221	1
222	1
223	1
225	1
239	1
240	1
241	1
242	1
243	1
258	7
259	2
264	2
265	1
