Mass Spectrum: 3-Chloropropionic acid, 2-methylphenyl ester
Formula: C10H11ClO2
CAS: 42244-85-9
Molecular weight: 198
m/z	intensity
25	12
26	66
27	173
28	2
29	15
39	100
40	18
41	47
42	8
43	8
55	242
56	10
57	12
60	4
61	8
62	11
63	199
64	13
65	89
66	7
67	7
68	5
69	10
70	2
71	4
72	20
73	15
74	7
75	9
76	14
77	98
78	83
82	7
83	9
89	8
90	42
91	122
92	9
93	24
94	56
95	7
97	3
99	2
101	3
103	7
104	6
105	7
106	11
107	132
108	999
109	78
110	8
111	3
162	7
163	3
198	22
199	6
200	8
201	2
