Mass Spectrum: Oxetane, 2,2,3,3-tetramethyl-4,4-diphenyl-
Formula: C19H22O
CAS: 42245-06-7
Molecular weight: 266
m/z	intensity
41	200
43	110
69	570
77	180
84	999
85	80
91	70
105	190
115	80
183	310
208	90
266	20
267	20
