Mass Spectrum: 4H-Pyran-4-one, 2-methoxy-6-phenyl-
Formula: C12H10O3
CAS: 4225-43-8
Molecular weight: 202
m/z	intensity
62	25
63	63
69	157
74	34
75	34
76	110
77	204
78	15
102	999
103	113
105	100
115	26
129	18
131	55
159	89
174	141
175	20
202	204
203	31
