Mass Spectrum: 13-Azabicyclo[7.3.1]trideca-1(13),9,11-triene, 3,3-dimethyl-
Formula: C14H21N
CAS: 42273-47-2
Molecular weight: 203
m/z	intensity
41	180
77	140
106	190
107	999
108	100
120	799
121	230
134	110
146	180
147	440
149	150
160	180
161	130
188	340
202	170
203	380
