Mass Spectrum: Glyoxal bis(nicotinoylhydrazone)
Formula: C14H12N6O2
CAS: 42273-42-7
Molecular weight: 296
m/z	intensity
33	6
36	8
37	3
38	44
39	68
40	7
41	44
42	60
44	328
46	8
47	8
50	233
51	724
52	108
53	62
55	30
56	15
57	23
58	6
59	11
60	13
61	5
62	8
63	13
64	12
65	9
66	6
67	11
68	8
69	19
70	9
71	12
72	2
73	7
75	52
77	32
78	999
79	90
80	9
81	5
82	9
83	3
84	4
85	6
86	3
87	2
89	3
91	9
92	6
93	7
94	8
95	5
97	2
98	3
99	3
100	2
101	4
105	43
106	938
107	44
108	7
109	3
110	1
111	2
112	5
113	1
116	3
117	3
118	6
119	5
120	5
122	110
123	43
124	5
127	1
129	1
131	1
133	2
134	5
135	5
136	4
137	9
145	5
146	8
147	22
148	51
149	9
150	2
152	2
161	2
162	14
163	2
175	16
176	1
180	13
181	2
188	1
190	90
191	7
251	2
