Mass Spectrum: 13-Azabicyclo[7.3.1]trideca-1(13),9,11-trien-2-one, 3,3-dimethyl-
Formula: C14H19NO
CAS: 42273-46-1
Molecular weight: 217
m/z	intensity
41	260
65	170
77	110
91	110
92	100
93	999
94	100
106	639
107	300
120	120
121	120
132	110
133	120
146	180
147	100
160	140
161	100
163	150
174	160
188	100
189	200
200	110
202	110
217	370
