Mass Spectrum: 2H-1,2,4-Oxadiazine-3,6(4H,5H)-dione, 4,5-dimethyl-2-phenyl-
Formula: C11H12N2O3
CAS: 42284-00-4
Molecular weight: 220
m/z	intensity
34	0
36	2
37	5
38	19
39	35
40	23
41	20
42	9
43	47
44	13
45	2
50	11
51	40
52	17
53	2
55	15
56	17
57	8
58	10
59	0
61	1
62	5
63	40
64	111
65	35
66	3
67	0
68	0
69	1
70	2
71	0
73	0
74	1
75	2
77	45
78	5
79	2
80	0
81	0
83	0
85	0
87	0
88	1
90	22
91	999
92	67
93	24
94	3
104	1
105	1
106	1
107	4
108	0
117	1
118	1
119	49
120	6
121	0
125	1
127	1
129	0
132	0
134	13
135	18
136	1
147	0
149	0
153	0
163	1
220	68
221	8
222	0
