Mass Spectrum: 2H-1,2,4-Oxadiazine-3,6(4H,5H)-dione, 4-(2-chlorophenyl)-2-(4-chlorophenyl)-5-methyl-
Formula: C16H12Cl2N2O3
CAS: 42284-07-1
Molecular weight: 350
m/z	intensity
35	2
36	11
37	9
38	21
39	45
40	6
41	3
42	4
43	60
44	13
45	2
47	1
48	0
49	4
50	17
51	15
52	6
53	1
55	16
56	4
57	0
58	0
59	0
60	1
61	7
62	28
63	106
64	41
65	9
66	1
67	0
69	1
70	1
71	0
72	3
73	14
74	9
75	39
76	9
77	5
78	4
79	0
80	0
84	1
85	4
86	1
87	2
88	6
89	45
90	216
91	20
92	2
93	1
97	3
98	19
99	13
100	7
101	4
102	3
103	0
104	1
105	0
106	1
110	1
111	29
112	3
113	10
114	1
115	0
116	0
117	0
118	0
119	2
120	2
121	0
125	999
126	83
127	378
128	30
129	15
130	1
132	0
133	0
134	1
136	0
137	3
138	3
139	2
140	1
141	6
142	0
143	1
144	0
146	1
147	0
150	0
151	4
153	121
154	18
155	37
156	4
157	0
162	0
163	0
164	0
165	0
166	0
167	0
169	43
170	4
171	13
172	1
179	0
180	0
181	0
183	0
189	0
197	10
198	1
199	4
200	0
201	0
203	0
208	1
209	0
215	0
217	0
236	0
243	1
244	0
245	1
246	0
262	0
279	0
280	0
315	1
316	0
317	0
330	0
332	0
350	30
351	5
352	18
353	2
354	3
355	0
