Mass Spectrum: 2H-1,2,4-Oxadiazine-3,6(4H,5H)-dione, 4-(3-chlorophenyl)-2-(4-chlorophenyl)-5-methyl-
Formula: C16H12Cl2N2O3
CAS: 42284-08-2
Molecular weight: 350
m/z	intensity
34	1
35	1
36	5
37	9
38	20
39	43
40	20
41	8
42	8
43	65
44	20
45	5
47	1
49	4
50	16
51	14
52	7
53	1
54	1
55	16
56	6
57	4
58	2
59	1
60	1
61	7
62	29
63	100
64	39
65	7
66	1
67	0
68	0
69	2
70	2
71	3
73	17
74	10
75	34
76	9
77	5
78	2
79	0
80	0
81	0
82	0
83	0
85	6
86	3
87	2
88	6
89	39
90	194
91	40
92	4
93	3
97	2
98	15
99	13
100	7
101	3
102	3
103	0
104	0
105	1
106	0
107	0
109	0
111	37
112	3
113	11
114	1
115	0
117	1
118	0
119	6
120	1
121	0
122	0
124	22
125	999
126	87
127	355
128	27
129	13
130	1
132	0
134	0
135	0
137	1
138	2
139	2
140	0
141	6
142	0
143	1
144	0
149	0
150	0
151	1
152	2
153	120
154	16
155	36
156	5
157	0
163	0
167	0
168	0
169	35
170	3
171	12
172	0
179	0
180	0
183	1
185	0
197	10
198	0
199	3
200	0
201	0
205	1
208	1
215	0
243	1
244	0
245	0
248	1
315	0
350	29
351	5
352	17
353	2
354	2
