Mass Spectrum: Benzeneacetic acid, cyclohexyl ester
Formula: C14H18O2
CAS: 42288-75-5
Molecular weight: 218
m/z	intensity
22	2
26	14
27	60
28	8
29	50
30	2
31	5
35	7
36	45
37	3
38	14
39	124
40	15
41	265
42	24
43	34
44	22
45	21
49	1
50	21
51	40
52	21
53	32
54	60
55	687
56	35
57	13
58	2
59	4
60	3
61	3
62	10
63	36
64	11
65	130
66	13
67	109
68	9
69	10
70	3
71	5
73	17
74	5
75	10
76	6
77	159
78	24
79	40
80	11
81	42
82	87
83	999
84	66
85	6
86	1
87	2
89	46
90	35
91	692
92	318
93	30
94	3
95	2
96	6
97	4
98	2
99	6
103	3
104	3
105	13
106	5
107	5
108	1
109	2
110	1
111	2
112	3
113	3
115	7
116	2
117	9
118	23
119	17
120	4
121	2
122	2
126	2
127	13
128	3
129	4
130	2
131	4
132	2
133	57
134	9
135	12
136	45
137	238
138	19
139	4
141	2
144	1
145	5
146	1
147	4
149	2
151	7
152	2
153	1
155	1
156	3
159	2
161	1
163	1
164	2
165	2
169	2
174	1
177	3
178	1
179	2
217	2
218	10
219	2
