Mass Spectrum: 2H-1,2,4-Oxadiazine-3,6(4H,5H)-dione, 5-methyl-2,4-diphenyl-
Formula: C16H14N2O3
CAS: 42283-66-9
Molecular weight: 282
m/z	intensity
50	18
51	45
52	19
53	2
55	20
56	6
57	9
58	4
62	4
63	48
64	162
65	41
66	7
69	5
70	2
71	4
76	2
77	62
78	3
91	999
92	71
93	56
94	4
105	4
107	5
119	149
120	14
134	30
135	48
163	21
282	37
