Mass Spectrum: 3,4-Dihydroxyphenylacetylformic acid
Formula: C9H8O5
CAS: 4228-66-4
Molecular weight: 196
m/z	intensity
41	31
42	25
43	47
44	170
45	146
46	14
47	10
49	6
50	51
51	127
52	40
53	67
54	16
55	74
56	18
57	20
58	2
59	15
60	18
61	19
62	30
63	53
64	22
65	64
66	59
67	26
68	12
69	28
70	9
71	15
73	21
74	13
75	22
76	27
77	143
78	39
79	31
80	8
81	54
82	14
83	16
84	10
85	11
89	10
91	22
92	11
93	20
94	75
95	24
96	7
97	14
98	5
99	6
104	9
105	36
106	17
107	29
108	15
109	91
110	23
111	13
113	3
115	6
119	8
120	3
121	31
122	131
123	999
124	90
125	15
127	3
129	11
133	7
134	3
135	17
136	15
137	35
138	23
139	17
141	11
148	6
149	47
150	140
151	24
152	11
153	2
154	11
161	6
162	21
163	16
164	87
165	20
166	13
167	11
168	77
169	12
173	3
176	3
177	10
178	12
179	39
180	11
182	7
185	3
186	3
193	3
194	3
195	5
196	401
197	40
198	11
