Mass Spectrum: 1-Nonanol, 2,2,3,3,4,4,5,5,6,6,7,7,8,8,9,9,9-heptadecafluoro-
Formula: C9H3F17O
CAS: 423-56-3
Molecular weight: 450
m/z	intensity
14	0
15	1
16	0
17	8
18	40
19	0
20	3
26	0
27	1
28	7
29	87
30	9
31	999
32	14
33	23
36	0
39	0
41	2
42	2
43	6
44	4
45	7
47	1
49	78
50	3
51	204
52	2
55	2
56	1
57	4
58	1
59	1
60	2
61	48
62	5
63	2
64	3
65	5
67	3
69	110
70	1
71	2
75	5
79	10
80	7
81	27
82	16
83	8
85	1
89	3
91	3
93	8
94	1
95	19
96	1
97	10
99	7
100	29
101	42
109	1
111	17
112	3
113	40
114	1
117	2
119	14
125	1
129	3
131	132
132	4
133	3
137	2
141	2
143	2
144	1
145	3
151	14
161	5
162	2
163	13
169	4
173	0
175	2
179	0
181	8
182	5
183	0
191	0
193	1
195	0
199	0
200	0
201	6
202	1
211	3
213	3
223	0
225	1
229	0
231	19
232	1
243	0
245	0
261	0
263	2
275	1
281	0
282	0
295	0
323	1
331	1
343	1
345	4
363	0
381	2
394	1
414	3
436	1
450	0
