Mass Spectrum: 1H-Benzotriazole, 1-benzoyl-
Formula: C13H9N3O
CAS: 4231-62-3
Molecular weight: 223
m/z	intensity
39	89
50	120
51	357
63	86
64	116
77	860
78	65
90	51
92	89
105	999
106	82
167	111
195	491
196	72
223	123
