Mass Spectrum: Oxirane, 2-methyl-2-(1-methylpropyl)-
Formula: C7H14O
CAS: 42328-43-8
Molecular weight: 114
m/z	intensity
41	999
42	110
43	710
44	20
45	20
50	30
51	40
52	20
53	130
54	30
55	400
56	130
57	230
58	370
59	40
63	10
65	20
67	90
68	10
69	420
70	30
71	50
72	10
73	10
79	10
81	30
82	10
83	30
84	40
85	180
86	60
96	10
97	20
99	520
100	40
114	10
