Mass Spectrum: Octanoic acid, 6-oxo-, ethyl ester
Formula: C10H18O3
CAS: 4233-58-3
Molecular weight: 186
m/z	intensity
41	170
42	70
43	210
44	10
45	100
53	30
54	30
55	390
56	110
57	720
58	20
59	110
60	100
61	70
67	10
68	20
69	60
70	30
71	10
72	60
73	140
74	30
82	10
83	240
84	80
85	40
87	80
88	100
95	300
96	10
98	10
99	20
100	20
101	330
102	20
110	10
111	999
112	100
113	10
114	10
115	420
116	20
123	50
128	210
129	110
130	10
140	90
141	90
156	20
157	470
158	40
186	20
