Mass Spectrum: Chloromethyl n-propyl sulfide
Formula: C4H9ClS
CAS: 42330-15-4
Molecular weight: 124
m/z	intensity
45	595
46	502
47	432
49	196
51	56
58	41
59	85
60	43
61	206
63	17
71	13
73	28
75	65
80	11
81	23
82	31
83	17
88	38
89	999
90	54
91	41
95	258
96	9
97	87
109	6
124	326
125	21
126	108
127	7
