Mass Spectrum: Tris(pyridin-4-yl)-1,3,5-triazine
Formula: C18H12N6
CAS: 42333-78-8
Molecular weight: 312
m/z	intensity
37	5
38	6
39	7
40	11
41	4
43	4
44	13
49	3
50	235
51	302
52	76
53	60
54	4
62	4
63	10
64	126
65	10
74	8
75	29
76	213
77	239
78	596
79	12
102	3
103	84
104	999
105	362
106	19
130	3
181	6
182	1
208	23
209	4
234	9
285	14
286	5
312	256
313	55
314	5
