Mass Spectrum: N-Methyl-2-carbethoxyazetidine
Formula: C7H13NO2
CAS: 42364-44-3
Molecular weight: 143
m/z	intensity
28	53
29	4
42	180
43	30
44	20
70	999
71	49
72	1
143	48
144	8
145	1
