Mass Spectrum: N-Cyano-2-methylazetidine
Formula: C5H8N2
CAS: 42364-46-5
Molecular weight: 96
m/z	intensity
26	71
27	405
28	653
29	243
30	43
39	161
40	101
41	503
42	999
43	43
44	9
53	272
54	153
55	861
56	203
57	41
58	9
67	141
68	313
69	181
70	33
81	83
82	9
95	21
96	222
97	21
98	1
