Mass Spectrum: Benzeneethanoic acid, .alpha.-(4-methoxyphenyl)-.alpha.-hydroxy-
Formula: C15H14O4
CAS: 4237-50-7
Molecular weight: 258
m/z	intensity
12	1
13	0
15	116
16	4
17	11
18	36
19	0
26	5
27	25
28	18
29	20
30	2
31	7
32	1
36	0
37	3
38	18
39	55
40	4
41	5
42	2
43	6
44	11
45	58
46	3
47	0
50	52
51	144
52	23
53	26
54	3
55	7
56	2
57	5
59	1
60	1
61	3
62	18
63	86
64	94
65	54
66	12
67	5
68	1
69	7
70	6
71	3
72	1
73	2
74	24
75	33
76	74
77	784
78	122
79	25
80	1
82	8
84	2
85	2
86	6
87	12
88	7
89	17
90	5
91	11
92	170
93	23
94	5
95	1
96	0
98	12
99	5
100	3
101	8
102	10
103	4
105	999
106	81
107	96
108	9
109	4
110	2
111	2
112	1
113	8
114	5
115	50
116	6
117	1
118	1
119	2
120	27
121	6
122	1
123	1
124	0
125	2
126	15
127	14
128	5
129	2
130	1
131	1
133	3
135	496
136	43
137	6
138	1
139	20
140	5
141	28
142	7
143	1
144	1
145	0
149	0
150	5
151	14
152	50
153	27
154	4
155	2
161	0
162	0
163	3
164	2
165	10
166	3
167	1
168	6
169	8
170	4
171	1
179	0
180	2
181	16
182	5
183	2
184	0
185	3
186	0
195	4
196	13
197	6
198	3
199	0
209	0
211	4
213	560
214	86
215	8
216	0
224	0
225	0
239	0
240	0
241	1
242	0
258	15
259	2
260	0
