Mass Spectrum: 9-Borabicyclo[3.3.1]nonane, 9-hexyl-
Formula: C14H27B
CAS: 42371-64-2
Molecular weight: 206
m/z	intensity
27	284
29	127
31	4
35	5
36	10
37	61
38	63
39	312
40	306
41	999
42	57
43	97
44	0
45	2
50	52
51	139
52	261
53	763
54	241
55	331
56	62
57	22
58	1
59	7
60	6
62	7
63	40
64	121
65	348
66	248
67	536
68	123
69	88
70	14
71	8
72	13
73	0
75	13
76	51
77	147
78	159
79	510
80	366
81	598
82	253
83	230
84	41
85	9
88	8
89	40
90	51
91	186
92	301
93	671
94	554
95	271
96	77
97	81
98	7
103	6
104	9
105	27
106	35
107	121
108	247
109	109
110	61
111	56
112	7
117	8
118	12
119	36
120	146
121	514
122	321
123	62
124	14
125	14
132	8
133	4
134	20
135	83
136	35
137	16
138	3
139	4
148	9
149	25
150	23
163	13
164	16
165	59
166	6
177	7
178	24
204	7
205	161
206	695
207	104
208	8
