Mass Spectrum: 2-[[4-[[2-[Dimethylamino]ethyl]amino]-6-methyl-2-pyrimidinyl]amino]-5,6-dimethylbenzimidazole
Formula: C20H29N7
CAS: 42389-22-0
Molecular weight: 367
m/z	intensity
41	13
42	53
43	17
44	16
45	0
47	1
49	2
50	0
51	3
52	3
53	5
54	9
55	5
56	27
58	118
59	3
63	1
64	0
65	6
66	13
67	11
68	6
69	2
70	7
71	7
72	6
76	0
77	6
78	1
79	6
80	2
81	1
82	2
83	1
84	14
86	999
87	48
89	3
90	0
91	12
92	4
93	4
95	6
96	1
98	1
99	21
100	8
102	2
103	1
104	3
105	2
106	3
107	2
108	3
109	3
111	0
113	0
116	5
117	2
118	10
119	1
120	6
122	1
129	1
130	0
131	7
132	1
133	7
134	3
135	0
138	0
140	4
141	0
143	2
144	3
145	4
146	13
147	4
148	2
150	0
156	2
157	3
158	2
159	2
160	13
161	5
162	2
168	0
170	1
171	10
172	6
173	0
174	3
175	1
177	0
185	15
186	7
187	17
188	0
195	1
199	4
200	0
209	1
211	7
213	2
225	0
227	4
228	0
236	1
237	2
238	1
240	3
250	2
252	12
253	5
254	1
265	2
266	0
267	7
268	184
269	127
270	16
271	1
279	3
280	8
281	54
282	11
283	1
293	9
295	20
296	6
297	0
308	0
321	0
322	2
338	12
339	3
351	0
352	0
365	0
366	2
367	22
368	5
369	1
