Mass Spectrum: 1,8,15,22-Tetraaza-2,7,16,21-cyclooctacosanetetrone
Formula: C24H44N4O4
CAS: 4238-35-1
Molecular weight: 452
m/z	intensity
14	3
15	9
16	8
17	1
18	9
24	1
25	4
26	50
27	135
28	197
29	118
30	783
31	24
32	1
36	4
37	7
38	14
39	125
40	37
41	453
42	145
43	236
44	263
45	43
46	9
49	3
50	14
51	26
52	42
53	94
54	174
55	999
56	399
57	174
58	115
59	40
60	34
61	3
62	3
63	7
64	7
65	33
66	36
67	142
68	95
69	189
70	165
71	53
72	162
73	75
74	33
75	3
76	4
77	22
78	18
79	57
80	67
81	151
82	290
83	397
84	360
85	154
86	446
87	93
88	11
89	3
90	4
91	30
92	17
93	34
94	60
95	85
96	242
97	535
98	693
99	172
100	813
101	91
102	19
103	7
104	7
105	13
106	21
107	31
108	62
109	72
110	271
111	237
112	219
113	131
114	162
115	79
116	18
117	37
118	15
119	16
120	28
121	29
122	50
123	69
124	70
125	54
126	165
127	104
128	289
129	74
130	19
131	11
132	18
133	16
134	33
135	24
136	49
137	43
138	55
139	96
140	224
141	180
142	257
143	170
144	36
145	16
146	16
147	19
148	19
149	20
150	55
151	31
152	139
153	74
154	379
155	96
156	143
157	125
158	90
159	58
160	14
161	13
162	17
163	23
164	35
165	35
166	81
167	71
168	303
169	85
170	104
171	247
172	130
173	46
174	12
175	10
176	9
177	12
178	17
179	28
180	37
181	69
182	252
183	87
184	163
185	169
186	62
187	17
188	9
189	10
190	12
191	17
192	19
193	17
194	16
195	64
196	313
197	137
198	108
199	113
200	245
201	96
202	14
203	8
204	7
205	10
206	13
207	63
208	58
209	153
210	394
211	114
212	93
213	154
214	139
215	30
216	6
217	6
218	5
219	8
220	6
221	16
222	18
223	52
224	60
225	162
226	172
227	434
228	229
229	42
230	7
231	5
232	7
233	6
234	6
235	19
236	13
237	29
238	25
239	137
240	97
241	142
242	97
243	26
244	43
245	12
246	5
247	6
248	6
249	14
250	12
251	29
252	35
253	338
254	101
255	115
256	73
257	34
258	22
259	6
260	4
261	4
262	8
263	16
264	12
265	25
266	27
267	99
268	86
269	204
270	110
271	25
272	21
273	6
274	6
275	6
276	9
277	12
278	19
279	20
280	48
281	364
282	115
283	112
284	65
285	24
286	16
287	4
288	4
289	5
290	8
291	8
292	14
293	32
294	62
295	184
296	73
297	40
298	40
299	69
300	37
301	8
302	3
303	3
304	4
305	4
306	14
307	17
308	29
309	46
310	74
311	184
312	148
313	51
314	22
315	4
316	3
317	3
318	8
319	6
320	11
321	10
322	15
323	17
324	43
325	76
326	120
327	39
328	305
329	61
330	9
331	2
332	3
333	3
334	17
335	10
336	41
337	43
338	74
339	47
340	55
341	29
342	9
343	5
344	2
345	2
346	2
347	2
348	10
349	8
350	13
351	9
352	62
353	56
354	130
355	45
356	11
357	2
358	1
359	1
360	3
361	2
362	13
363	7
364	8
365	6
366	65
367	36
368	56
369	22
370	5
371	2
372	1
373	1
374	1
375	2
376	5
377	8
378	16
379	16
380	117
381	49
382	22
383	7
384	4
385	4
386	12
387	5
388	2
389	3
390	3
391	5
392	6
393	8
394	22
395	25
396	13
397	5
398	6
399	2
400	1
404	1
405	6
406	9
407	19
408	9
409	11
410	10
411	9
412	3
413	1
414	1
415	1
416	4
417	2
418	1
419	2
420	1
421	1
422	3
423	21
424	65
425	17
426	3
430	1
432	3
433	4
434	25
435	12
436	3
437	6
438	1
450	3
451	7
452	153
453	71
454	14
455	1
