Mass Spectrum: 5,6-Dichloro-2-[[4-methyl-6-[(2-piperidinoethyl)amino]-2-pyrimidinyl]amino]-1H-benzimidazole
Formula: C19H23Cl2N7
CAS: 42388-96-5
Molecular weight: 419
m/z	intensity
41	100
42	93
43	35
44	68
45	5
46	1
47	4
49	2
50	17
51	1
52	10
53	10
54	20
55	98
56	21
57	5
60	1
64	1
66	19
67	16
68	12
69	30
70	27
71	4
73	1
77	1
79	6
80	4
81	6
82	9
83	16
84	2
86	1
88	1
93	3
95	10
96	30
98	999
99	58
100	2
103	1
105	1
107	5
108	2
109	8
110	9
111	196
112	18
120	2
124	4
125	4
135	1
139	1
158	5
160	1
164	1
166	1
167	1
168	1
173	2
185	1
186	4
188	1
192	6
194	1
201	3
214	5
226	8
227	8
228	5
229	4
251	1
253	1
267	1
274	7
275	16
276	3
277	9
287	4
292	2
294	1
301	3
308	16
309	37
310	14
311	21
312	7
313	1
321	10
322	3
323	9
324	3
333	5
334	1
335	13
336	5
337	5
417	2
419	12
420	5
421	8
423	1
