Mass Spectrum: 5,6-Dichloro-2-[[4-[[2-[diallylamino]ethyl]amino]-6-methyl-2-pyrimidinyl]amino]benzimidazole
Formula: C20H23Cl2N7
CAS: 42388-80-7
Molecular weight: 431
m/z	intensity
41	625
42	233
43	92
44	45
45	15
46	4
49	4
51	7
52	10
53	31
54	40
55	79
56	28
57	19
58	9
59	4
60	11
61	2
62	5
64	5
65	4
66	49
67	43
68	80
69	27
70	41
71	5
72	9
73	10
74	3
75	1
76	5
77	7
78	4
79	44
80	6
81	72
82	30
83	23
84	49
85	6
86	11
87	4
88	4
90	1
91	5
92	5
93	8
94	12
95	25
96	13
97	15
98	10
99	4
100	2
101	5
103	6
105	2
106	4
107	5
108	56
110	999
111	2
112	181
113	10
114	2
115	3
119	3
120	10
122	25
123	150
124	21
125	19
126	11
128	5
132	1
133	4
134	6
135	5
137	7
139	9
141	2
143	2
146	2
149	10
151	3
152	2
154	2
157	11
158	8
160	13
161	2
162	1
164	11
165	2
166	4
167	5
169	3
173	11
175	7
176	2
186	16
188	10
191	2
192	13
193	4
194	4
197	2
200	9
201	13
202	4
203	10
212	4
214	7
216	4
218	1
226	20
227	26
228	5
229	22
230	2
231	3
239	6
240	1
251	11
252	1
253	7
254	2
257	2
267	6
269	5
274	2
275	2
277	5
286	2
292	13
293	5
294	9
295	2
296	1
308	34
309	36
310	23
311	23
312	6
313	4
320	1
321	30
322	10
323	16
324	6
325	2
333	8
334	2
335	18
336	4
337	9
362	9
364	6
390	13
392	9
402	2
404	1
430	2
431	7
432	3
433	4
435	1
