Mass Spectrum: 5,6-Dichloro-2-[4-[2-diethylamino]propyl]amino]-6-methylpyrimidin-2-ylamino-1H-benzimidazole
Formula: C19H25Cl2N7
CAS: 42388-85-2
Molecular weight: 421
m/z	intensity
41	15
42	33
43	9
44	107
45	3
52	2
53	4
54	10
55	6
56	15
57	4
58	5
65	0
66	9
67	6
68	4
69	2
70	13
71	5
72	48
73	2
76	0
78	0
79	2
80	2
81	1
82	2
83	3
84	4
85	2
86	2
93	0
95	3
96	0
97	2
98	6
100	999
101	52
102	1
106	0
107	2
108	3
109	0
112	1
113	6
114	0
120	2
123	2
124	1
127	0
130	0
139	0
149	0
150	0
157	0
158	3
160	3
161	0
164	1
166	0
167	2
173	2
175	2
186	4
188	3
192	2
194	1
197	0
200	2
201	2
202	2
203	2
204	0
212	0
214	2
216	1
226	5
227	6
228	3
229	4
231	0
239	1
241	1
243	0
251	3
253	2
277	0
280	0
292	4
293	1
294	3
295	0
308	2
309	0
310	2
320	1
321	8
322	7
323	6
324	4
325	0
333	2
335	1
347	1
349	6
351	4
353	0
421	4
422	2
423	3
425	0
