Mass Spectrum: 5-Butyl-2-[[4-[[2-[diethylamino]ethyl]amino]-6-methyl-2-pyrimidinyl]amino]benzimidazole
Formula: C22H33N7
CAS: 42389-24-2
Molecular weight: 395
m/z	intensity
41	7
42	15
43	9
44	11
45	1
49	0
51	1
52	0
53	2
54	5
55	4
56	12
57	6
58	54
59	2
65	1
66	4
67	4
68	3
69	2
70	6
71	10
72	4
73	0
76	0
77	3
78	2
79	1
80	1
81	1
82	2
83	2
84	8
86	999
87	51
88	1
90	1
91	2
92	1
93	1
94	0
95	5
96	3
97	2
98	5
99	40
100	17
102	1
103	2
104	2
105	2
106	1
107	2
108	2
109	4
111	0
113	1
115	1
116	1
117	3
118	5
119	2
120	1
124	0
129	1
130	2
131	4
132	1
133	2
134	2
135	2
139	0
140	13
143	1
144	2
145	7
146	9
147	1
148	0
149	1
151	0
152	0
153	2
154	0
155	0
156	1
157	0
158	3
159	2
160	0
167	1
169	2
170	2
171	16
172	4
175	0
176	1
177	0
183	1
184	1
185	2
189	0
190	1
195	2
196	0
197	1
202	0
211	0
213	0
214	0
215	3
224	1
225	1
227	1
236	3
237	3
238	1
239	1
250	0
251	0
252	2
253	30
254	6
265	11
266	7
267	2
268	1
277	0
278	1
279	6
280	5
281	2
293	1
295	3
296	159
297	222
298	35
299	3
308	4
309	45
310	11
311	1
321	5
322	2
323	17
324	7
325	1
350	1
352	2
366	13
367	3
380	0
394	4
395	22
396	7
397	1
