Mass Spectrum: N-Butyl-2-furancarbothioamide
Formula: C9H13NOS
CAS: 42383-72-2
Molecular weight: 183
m/z	intensity
55	49
57	29
60	29
69	29
71	49
72	39
82	40
83	59
94	569
100	211
111	999
127	9
128	20
150	169
154	100
182	39
183	707
