Mass Spectrum: 2-[4-[2-[Diethylamino]ethyl]amino]-6-methyl-2-pyrimidinyl]amino]-5-[trifluoromethyl]benzimidazole
Formula: C19H24F3N7
CAS: 42389-19-5
Molecular weight: 407
m/z	intensity
41	7
42	28
43	11
44	13
53	5
54	9
55	5
56	15
58	67
60	1
66	11
67	7
68	4
69	4
70	8
71	14
72	8
79	3
80	2
82	2
83	4
84	11
86	999
87	51
95	5
96	8
97	2
99	131
100	8
105	0
107	3
108	4
109	3
111	15
120	0
126	0
130	1
132	1
135	1
140	1
153	2
157	1
158	4
160	2
167	6
173	5
176	0
182	1
186	10
200	2
201	7
202	0
207	5
212	3
214	3
225	2
226	5
227	20
228	1
239	3
251	8
253	1
267	2
277	2
278	1
292	8
293	5
307	1
308	14
309	71
310	7
316	3
317	14
318	2
320	4
321	21
322	9
333	7
334	2
335	15
336	4
362	1
378	2
388	11
389	3
406	5
407	9
408	1
