Mass Spectrum: 5,6-Dichloro-2-[[4-[[1-isobutyl-3-piperidyl]amino]-6-methyl-2-pyrimidinyl]amino]benzimidazole
Formula: C21H27Cl2N7
CAS: 42389-07-1
Molecular weight: 447
m/z	intensity
41	79
42	119
43	51
44	35
53	18
54	8
55	33
56	17
57	28
66	20
67	28
68	26
69	13
70	21
80	19
82	42
83	16
84	17
92	2
93	2
94	16
96	999
97	64
98	5
100	11
106	5
107	14
108	12
109	7
122	2
123	5
124	9
133	2
134	13
136	12
137	14
139	968
140	81
149	2
158	8
160	9
162	2
164	2
166	2
167	2
168	2
173	2
174	5
175	3
180	3
186	14
187	2
188	11
192	9
201	12
202	30
203	29
204	2
223	4
226	12
227	19
228	5
229	15
251	4
252	2
275	24
277	12
292	10
293	3
294	6
308	10
309	151
311	100
312	12
313	26
321	9
323	10
327	4
329	2
333	30
335	19
336	3
337	2
347	11
348	3
349	2
361	11
363	4
373	10
375	13
376	2
404	26
406	16
447	16
449	11
451	2
