Mass Spectrum: 5,6-Dichloro-2-[[4-[[2-dimethylamino]-1-methylethyl]amino]-6-methyl-2-pyrimidinyl]amino]benzimidazole
Formula: C17H21Cl2N7
CAS: 42388-82-9
Molecular weight: 393
m/z	intensity
41	19
42	44
43	21
44	15
45	4
46	1
47	2
48	0
49	8
50	1
51	3
52	2
53	3
54	4
55	7
56	7
58	999
59	31
60	3
61	1
62	0
64	1
65	1
66	12
67	13
68	9
69	6
70	7
72	66
73	4
74	1
75	0
76	3
77	2
78	1
79	1
80	1
81	3
82	4
83	6
84	13
85	158
86	12
87	1
88	2
91	1
92	3
93	2
94	1
95	2
96	0
97	3
98	0
99	1
101	2
102	1
103	2
104	0
105	1
106	1
107	3
108	4
109	11
110	1
111	0
112	2
114	1
115	0
120	1
121	1
122	0
123	1
124	1
126	0
130	3
132	0
133	2
134	4
135	0
137	1
139	2
141	0
144	2
146	1
147	1
148	1
149	1
150	1
152	1
154	0
157	2
158	3
160	5
161	0
162	0
164	2
165	0
166	1
167	1
168	1
173	4
174	2
175	5
176	0
177	0
186	4
188	2
191	0
192	4
194	1
200	2
201	3
202	3
203	1
204	0
212	0
214	0
226	4
227	5
228	3
229	4
230	1
239	0
240	0
251	2
253	2
265	1
267	1
269	0
275	0
277	1
279	0
280	0
292	3
293	2
294	2
295	0
298	0
300	0
301	0
307	3
308	1
309	29
311	24
312	4
313	2
314	1
321	3
322	1
323	2
325	0
333	4
335	17
336	6
337	10
338	3
339	1
347	2
348	3
349	1
350	2
351	2
391	2
393	6
395	4
396	0
397	0
