Mass Spectrum: 5,6-Dichloro-2-[[4-[[2-[dipropylamino]-1-methylethyl]amino]-6-methyl-2-pyrimidinyl]amino]benzimidazole
Formula: C21H29Cl2N7
CAS: 42388-89-6
Molecular weight: 449
m/z	intensity
41	43
42	41
43	93
44	32
45	1
49	2
50	0
51	3
52	2
53	3
54	4
55	3
56	10
57	4
58	5
59	0
60	0
62	0
64	0
66	14
67	10
68	7
70	16
72	49
73	2
75	0
76	1
77	3
78	2
79	1
80	1
81	0
82	5
83	7
84	13
86	47
87	2
88	0
91	1
92	2
93	2
94	1
95	1
97	1
98	5
99	1
100	4
101	1
103	1
104	0
105	2
106	4
107	3
109	15
110	1
112	20
114	999
115	65
116	2
119	1
120	0
121	1
123	3
124	1
126	2
127	1
128	103
129	5
130	0
132	0
134	5
135	0
137	5
138	0
139	2
141	126
142	8
143	0
146	0
147	1
148	1
149	1
150	0
151	0
155	1
157	2
158	1
160	2
161	0
162	0
164	2
165	2
166	0
167	4
168	2
169	0
173	2
174	0
175	3
176	0
181	0
183	0
185	0
186	3
188	3
191	0
192	2
193	0
194	1
195	0
197	6
198	0
200	1
201	3
202	2
203	1
204	0
205	0
210	0
211	0
212	0
214	0
216	0
226	4
227	7
228	4
229	4
230	1
240	0
251	1
253	2
265	1
267	1
269	0
275	0
277	1
279	0
280	0
292	2
293	1
294	2
295	1
299	0
300	0
307	1
308	5
309	6
310	3
311	3
312	1
313	0
314	1
315	0
316	0
321	1
322	0
323	1
333	3
334	2
335	10
336	4
337	6
338	1
339	1
346	0
347	3
348	2
349	9
350	2
351	6
352	1
376	0
419	1
420	3
421	0
422	1
448	0
449	3
450	1
451	2
453	0
