Mass Spectrum: 2-Pyrimidinamine, 4-[4-[3-[1-(2-hydroxyethyl)piperidin-4-yl]propyl]piperidino]-6-methyl-N-(5,6-dichloro-1,3(1H)-benzimidazol-2-yl)-
Formula: C27H37Cl2N7O
CAS: 42389-10-6
Molecular weight: 545
m/z	intensity
41	600
42	999
43	427
44	737
45	207
50	12
51	21
52	25
53	105
54	132
55	777
56	383
57	212
58	348
60	43
61	12
62	12
65	44
66	128
67	245
68	94
69	188
70	273
71	72
72	19
73	48
74	49
76	12
77	55
78	63
79	73
80	40
81	132
82	209
83	95
84	65
85	24
86	22
88	26
91	34
92	25
93	56
94	76
95	80
96	291
97	104
98	53
100	58
103	11
105	36
106	52
107	45
108	49
109	50
110	239
111	27
112	74
113	10
115	12
118	11
119	13
120	26
121	20
122	23
123	25
124	93
125	35
126	76
127	11
128	22
131	10
132	11
133	16
134	30
135	28
136	14
137	12
138	33
139	39
140	12
146	20
147	38
148	16
149	64
150	11
151	11
152	36
154	12
156	14
158	35
160	23
161	14
162	12
163	12
164	28
166	57
167	31
168	10
173	15
175	13
178	13
180	16
186	67
187	23
188	42
189	13
192	29
194	24
200	17
201	115
202	22
203	74
204	13
205	17
209	15
212	12
214	28
215	11
217	14
221	15
223	191
224	75
226	62
227	89
228	40
229	41
236	11
237	16
239	27
243	18
251	88
252	26
253	40
257	47
258	87
259	13
267	27
277	24
278	13
279	16
287	17
288	11
292	67
293	62
294	61
295	47
296	14
307	12
308	19
309	29
310	11
320	21
321	103
322	57
323	81
324	36
325	27
327	49
329	37
331	12
333	22
334	18
335	45
336	21
337	17
347	42
349	31
361	31
363	11
375	89
376	62
377	76
378	39
379	10
389	99
390	30
391	55
403	46
404	38
405	38
406	29
417	83
418	29
419	58
445	60
446	12
447	42
459	26
460	11
461	13
471	14
473	11
480	21
481	11
485	12
486	23
487	19
488	19
498	22
499	11
500	306
501	86
502	206
503	36
504	23
514	311
515	153
516	239
517	103
518	55
519	15
527	23
528	14
545	25
547	16
