Mass Spectrum: Cis-bicyclo[4.4.0]decan-1-ol-3-one
Formula: C10H16O2
CAS: 42393-93-1
Molecular weight: 168
m/z	intensity
51	160
52	94
53	423
54	170
55	999
56	100
57	125
58	145
63	61
64	26
65	200
66	123
67	376
68	127
69	307
70	469
71	226
72	33
76	11
77	295
78	94
79	360
80	142
81	213
82	92
83	494
84	180
85	34
91	180
92	36
93	233
94	127
95	224
96	67
97	482
98	814
99	53
105	23
106	13
107	82
108	233
109	64
110	150
111	704
112	127
113	14
121	80
122	231
123	28
124	16
125	233
126	61
127	10
134	13
135	81
136	10
139	13
140	26
149	18
150	148
151	24
153	16
168	519
169	57
170	3
