Mass Spectrum: 2,2,3,3,4,4,5,5,6,6,7,7-Dodecafluoroheptyl 4-methylbenzene-1-sulfonate
Formula: C14H10F12O3S
CAS: 424-16-8
Molecular weight: 486
m/z	intensity
29	27
30	14
31	7
33	6
39	88
40	7
41	22
44	2
45	4
47	0
48	1
51	162
52	8
53	6
56	1
57	1
61	6
62	12
63	46
65	220
66	9
69	42
74	2
75	4
76	4
77	21
78	8
79	12
80	1
81	1
82	3
83	6
86	0
87	1
89	55
91	999
92	76
94	0
95	7
100	8
101	11
105	0
107	30
108	3
109	4
110	3
111	4
112	5
113	10
114	5
116	0
119	3
121	1
131	15
133	0
139	23
140	1
141	0
151	0
152	0
155	739
156	59
157	38
158	1
161	0
185	3
235	0
245	0
467	4
486	57
487	10
488	3
