Mass Spectrum: 3.beta.-Methyl-trans-hexahydrophthalide
Formula: C9H14O2
CAS: 42412-71-5
Molecular weight: 154
m/z	intensity
27	150
28	40
29	67
39	215
40	45
41	290
42	31
43	211
51	36
53	114
54	284
55	120
65	33
66	140
67	999
68	340
69	117
77	38
79	69
80	39
81	432
82	530
83	43
93	51
95	208
96	21
108	13
109	15
110	235
111	37
125	4
126	2
139	13
140	3
153	3
154	34
155	6
156	1
