Mass Spectrum: Nicotinonitrile, 1,2-dihydro-2-oxo-6-phenethyl-
Formula: C14H12N2O
CAS: 4241-21-8
Molecular weight: 224
m/z	intensity
27	15
39	50
41	12
43	10
50	15
51	47
52	12
63	25
64	40
65	100
77	32
78	25
89	15
91	999
92	75
103	12
105	12
146	17
147	40
223	95
224	229
225	40
