Mass Spectrum: 2,2-Dimethyl-4-bromoethynyl-tetrahydropyran-4-ole
Formula: C9H13BrO2
CAS: 42414-47-1
Molecular weight: 232
m/z	intensity
27	40
28	64
29	60
31	31
39	253
41	316
43	999
50	67
51	109
52	37
53	121
55	148
56	253
57	109
58	153
59	666
65	65
66	35
67	185
71	31
73	45
77	77
78	102
81	31
89	28
94	33
95	75
120	21
131	143
133	128
145	18
146	47
147	23
148	43
157	79
159	189
161	111
172	43
174	60
176	16
217	114
219	111
232	5
234	5
