Mass Spectrum: L-Proline, 1-methyl-5-oxo-, methyl ester
Formula: C7H11NO3
CAS: 42435-88-1
Molecular weight: 157
m/z	intensity
27	70
41	150
42	180
55	70
59	60
68	50
70	120
98	999
99	70
157	10
