Mass Spectrum: Methanimine, 1-(1,4,4-trimethyl-2-tetrazenyl)-
Formula: C4H11N5
CAS: 42448-53-3
Molecular weight: 129
m/z	intensity
43	50
44	100
45	130
57	70
58	70
59	170
72	140
85	120
102	999
103	110
129	380
