Mass Spectrum: 2-Tetradecanol, TMS derivative
Formula: C17H38OSi
CAS: 42449-19-4
Molecular weight: 286
m/z	intensity
55	50
57	20
59	20
61	20
69	30
73	370
74	30
75	410
76	20
117	999
118	130
119	70
258	20
271	120
272	28
273	7
274	1
