Mass Spectrum: N-Ethyl-N-nitroso-N'-nitroguanidine
Formula: C3H7N5O3
CAS: 4245-77-6
Molecular weight: 161
m/z	intensity
14	3
15	21
16	2
17	11
18	151
25	1
26	12
27	80
28	200
29	118
30	377
31	49
38	5
39	9
40	27
41	44
42	258
43	999
44	995
45	180
46	249
47	4
48	1
52	1
53	9
54	4
55	105
56	24
57	17
58	51
59	112
60	60
61	1
62	2
63	9
64	1
67	3
68	3
69	466
70	97
71	96
72	143
73	13
75	1
81	2
82	1
83	4
84	40
85	50
86	552
87	77
88	23
89	2
95	2
96	1
97	3
98	1
99	1
100	2
101	1
102	27
103	6
104	11
105	1
109	1
110	1
111	2
112	1
113	1
114	2
115	3
116	10
117	13
123	1
125	1
126	1
131	1
132	688
133	372
134	20
135	2
