Mass Spectrum: 2-Propenoic acid, 2-methyl-, ethenyl ester
Formula: C6H8O2
CAS: 4245-37-8
Molecular weight: 112
m/z	intensity
14	3
15	35
16	1
17	1
18	3
25	3
26	21
27	59
28	28
29	10
31	2
32	5
36	1
37	11
38	28
39	272
40	51
41	963
42	32
43	56
44	103
45	8
50	1
53	8
54	2
55	6
56	1
57	2
58	1
63	1
67	2
68	4
69	999
70	46
71	3
81	1
83	1
84	11
85	1
112	29
113	2
