Mass Spectrum: 1,3-Dimethyl-2-phenylpiperidin-4-one
Formula: C13H17NO
CAS: 42473-31-4
Molecular weight: 203
m/z	intensity
39	62
40	48
41	58
42	460
43	97
44	55
45	2
49	1
50	21
51	70
52	22
53	14
54	16
55	83
56	38
57	42
58	29
59	2
61	1
62	8
63	35
64	12
65	71
66	31
67	6
68	21
69	15
70	7
71	5
72	11
73	9
74	9
75	12
76	22
77	140
78	86
79	19
80	5
81	3
82	14
83	9
84	200
85	25
86	4
87	19
88	5
89	42
90	26
91	280
92	29
93	3
94	3
95	1
96	7
97	3
98	7
101	3
102	22
103	59
104	77
105	38
106	10
107	16
108	3
110	2
112	3
113	3
114	4
115	140
116	62
117	280
118	999
119	250
120	56
121	5
124	3
125	11
126	250
127	24
128	10
129	9
130	23
131	87
132	220
133	47
134	7
135	1
142	2
143	4
144	20
145	19
146	540
147	75
148	6
157	2
158	6
159	6
160	41
161	5
170	1
171	4
172	5
173	2
174	54
175	8
186	17
187	3
188	22
189	3
200	3
202	320
203	760
204	108
205	7
