Mass Spectrum: 1,4-Dibromoheptane
Formula: C7H14Br2
CAS: 42474-23-7
Molecular weight: 256
m/z	intensity
36	21
37	8
38	21
39	131
40	32
41	346
42	84
43	194
44	9
45	21
46	3
48	8
49	16
50	10
51	20
52	10
53	86
54	53
55	999
56	70
57	222
58	12
65	12
66	8
67	60
68	25
69	136
70	21
71	21
72	3
77	9
78	5
79	15
80	24
81	45
82	29
83	13
93	16
95	45
96	16
97	591
98	48
106	9
107	36
108	9
109	34
120	5
121	30
122	14
123	30
134	7
135	49
136	10
137	45
176	7
177	103
178	12
179	96
180	9
