Mass Spectrum: Pyrimidin-4-ol, 6-methyl-2-(1-piperidyl)-
Formula: C10H15N3O
CAS: 42487-69-4
Molecular weight: 193
m/z	intensity
33	20
34	2
37	10
39	660
40	246
41	561
42	457
43	108
44	85
45	5
49	0
50	12
51	31
52	72
53	154
54	278
55	520
56	210
57	25
58	2
62	3
63	6
64	15
65	35
66	81
67	257
68	209
69	292
70	43
71	5
73	0
75	4
76	6
77	6
78	8
79	19
80	37
81	89
82	200
83	311
84	999
85	52
86	5
89	3
90	1
91	6
92	14
93	34
94	19
95	61
96	96
97	21
98	8
101	0
105	3
106	5
107	11
108	61
109	304
110	478
111	88
112	6
113	2
114	2
115	0
118	0
119	7
120	5
121	6
122	25
123	16
124	60
125	57
126	24
127	1
128	0
129	0
134	7
135	14
136	65
137	210
138	373
139	75
140	5
142	0
147	3
148	8
149	49
150	353
151	109
152	59
153	4
155	0
161	3
162	11
163	106
164	667
165	110
166	12
175	3
176	8
177	37
178	223
179	23
180	1
182	1
183	3
190	4
191	27
192	249
193	535
194	70
195	3
