Mass Spectrum: 3,4-Dinitrobenzonitrile
Formula: C7H3N3O4
CAS: 4248-33-3
Molecular weight: 193
m/z	intensity
17	3
18	11
26	7
27	4
28	10
29	0
30	999
31	5
32	4
36	6
37	71
38	141
39	23
40	24
41	5
43	0
44	7
45	5
46	188
47	1
48	6
49	22
50	424
51	48
52	25
53	15
54	4
60	4
61	30
62	212
63	90
64	129
65	15
66	9
67	3
68	2
72	4
73	30
74	75
75	125
76	60
77	23
78	12
79	3
85	3
86	9
87	14
88	72
89	148
90	29
91	9
92	5
93	0
98	4
99	69
100	47
101	63
102	16
103	32
104	6
105	11
106	3
115	15
116	3
117	38
118	4
119	33
120	1
133	8
134	2
137	7
145	29
146	3
147	13
161	4
163	18
164	5
177	4
193	184
194	15
195	1
