Mass Spectrum: 1,9-Nonanediol, dimethanesulfonate
Formula: C11H24O6S2
CAS: 4248-77-5
Molecular weight: 316
m/z	intensity
15	223
16	6
17	18
18	72
26	8
27	105
28	74
29	200
30	8
31	35
32	10
39	115
40	28
41	605
42	196
43	149
44	20
45	59
48	22
53	64
54	627
55	938
56	244
57	88
59	20
63	30
64	15
65	49
66	47
67	649
68	999
69	688
70	96
71	27
73	11
77	13
78	10
79	786
80	39
81	494
82	606
83	291
84	33
85	10
93	11
94	16
95	367
96	589
97	169
98	11
99	11
104	15
109	133
110	10
111	30
112	11
123	37
124	88
125	16
132	10
135	16
137	25
141	10
148	11
149	10
150	11
151	10
152	13
162	8
164	3
175	23
193	11
