Mass Spectrum: Ursane-3,16-dione, (18.alpha.,19.alpha.,20.beta.)-
Formula: C30H48O2
CAS: 42483-55-6
Molecular weight: 440
m/z	intensity
55	999
205	550
206	500
219	160
220	100
232	70
233	70
245	50
342	50
354	130
355	120
397	40
407	50
422	140
425	130
440	720
