Mass Spectrum: Pyridinium, 3-ethyl-1-methyl-, iodide
Formula: C8H12IN
CAS: 42493-47-0
Molecular weight: 249
m/z	intensity
39	190
50	110
51	140
65	350
77	100
78	80
79	180
92	999
93	70
106	40
107	849
108	70
122	50
127	250
128	50
141	120
142	849
