Mass Spectrum: 1,3-Cyclopentadiene, 1,2,5,5-tetramethyl-
Formula: C9H14
CAS: 4249-12-1
Molecular weight: 122
m/z	intensity
27	88
29	75
30	1
37	3
38	13
39	168
40	23
41	119
42	5
43	13
44	0
45	1
46	1
49	1
50	21
51	68
52	29
53	58
54	5
55	22
56	1
57	1
58	9
59	18
60	3
61	3
62	9
63	32
64	8
65	95
66	15
67	38
68	3
69	2
73	0
74	6
75	7
76	3
77	123
78	29
79	301
80	24
81	6
82	0
85	0
86	1
87	2
88	2
89	8
90	4
91	604
92	85
93	76
94	20
95	2
98	0
99	0
100	0
101	1
102	3
103	27
104	9
105	204
106	44
107	999
108	85
109	3
115	2
116	0
117	2
119	10
120	3
121	78
122	486
123	48
124	1
