Mass Spectrum: 2-Phenoxy-1-phenylethanol
Formula: C14H14O2
CAS: 4249-72-3
Molecular weight: 214
m/z	intensity
15	1
17	1
18	9
26	1
27	9
28	5
29	8
31	1
37	1
38	6
39	48
40	8
41	6
42	1
43	52
44	2
50	23
51	110
52	18
53	10
55	7
61	1
62	4
63	17
64	6
65	63
66	25
67	2
68	1
74	7
75	7
76	10
77	387
78	115
79	436
80	29
81	1
89	7
90	3
91	115
92	15
93	12
94	484
95	39
96	2
98	1
101	1
102	6
103	67
104	21
105	42
106	7
107	999
108	993
109	80
110	5
115	1
119	6
120	77
121	28
122	2
141	1
152	4
153	1
165	3
166	1
167	2
177	1
195	1
196	2
197	1
212	1
214	271
215	42
216	4
