Mass Spectrum: Benzamide, N-(1,1-dimethylethyl)-4-methyl-
Formula: C12H17NO
CAS: 42498-32-8
Molecular weight: 191
m/z	intensity
38	50
40	60
41	50
63	40
65	130
89	50
90	40
91	300
92	30
93	40
119	999
120	90
135	40
136	110
176	80
190	20
191	220
192	40
