Mass Spectrum: N-Heptafluorobutyrylmorpholine
Formula: C8H8F7NO2
CAS: 425-20-7
Molecular weight: 283
m/z	intensity
30	80
31	40
41	140
42	530
43	160
44	40
45	70
54	40
55	120
56	999
57	200
58	30
69	440
70	380
71	40
78	120
84	170
86	150
100	80
109	40
114	280
115	200
119	40
169	200
170	20
192	40
220	40
226	120
227	30
239	120
240	80
253	40
254	30
264	30
268	220
269	20
283	260
284	24
285	1
