Mass Spectrum: Benzo[g]pteridine-10(2H)-acetaldehyde, 3,4-dihydro-7,8-dimethyl-2,4-dioxo-
Formula: C14H12N4O3
CAS: 4250-90-2
Molecular weight: 284
m/z	intensity
40	104
41	239
42	216
43	999
44	280
45	32
48	3
49	12
50	167
51	432
52	249
53	248
54	66
55	64
56	76
57	46
58	75
59	32
60	24
61	16
62	72
63	264
64	171
65	275
66	98
67	60
68	30
69	54
70	152
71	39
72	86
73	22
74	43
75	130
76	187
77	675
78	204
79	115
80	24
81	14
82	6
83	32
84	42
85	34
86	19
87	30
88	66
89	230
90	180
91	269
92	70
93	7
94	4
95	5
97	15
98	15
99	30
100	34
101	103
102	242
103	497
104	255
105	76
106	24
108	4
109	8
110	7
111	3
112	6
113	14
114	82
115	103
116	332
117	160
118	103
119	21
120	5
121	22
122	5
126	11
127	36
128	121
129	146
130	268
131	184
132	50
133	18
134	5
135	6
136	6
137	6
138	3
139	8
140	12
141	66
142	98
143	117
144	126
145	39
146	3
147	19
148	4
149	43
150	3
151	4
153	31
154	19
155	66
156	595
157	532
158	473
159	83
160	5
161	6
162	6
164	4
167	16
168	41
169	102
170	422
171	775
172	120
173	23
174	5
175	4
176	6
177	3
178	6
179	6
180	15
181	14
182	55
183	59
184	312
185	379
186	122
187	20
188	4
189	3
192	3
193	5
194	19
195	8
196	231
197	319
198	256
199	11
200	19
201	7
202	5
203	4
205	3
206	3
207	55
208	5
209	4
210	6
211	3
212	49
213	891
214	141
215	10
218	3
219	8
220	4
221	29
222	123
223	18
224	38
225	6
226	5
227	34
228	22
229	9
230	3
232	3
233	3
234	4
238	3
239	7
240	31
241	55
242	756
243	149
244	9
245	3
246	3
252	3
255	16
256	999
257	234
258	16
259	3
260	3
263	3
264	3
265	3
266	56
267	22
268	58
269	12
270	19
271	3
282	3
283	9
284	85
285	17
286	46
287	7
