Mass Spectrum: Thiocyanic acid, propyl ester
Formula: C4H7NS
CAS: 4251-16-5
Molecular weight: 101
m/z	intensity
26	56
27	500
28	27
29	26
30	3
33	5
34	0
36	0
37	18
38	37
39	233
41	771
42	122
43	999
44	50
45	77
46	81
47	30
48	6
54	9
57	8
58	59
59	48
60	56
62	2
68	1
69	6
71	5
72	43
73	8
74	5
86	6
101	564
102	36
103	25
