Mass Spectrum: cis-(.+/-.)-4-Methylaminorex
Formula: C10H12N2O
CAS: 42510-77-0
Molecular weight: 176
m/z	intensity
15	7
16	1
26	6
27	29
28	61
29	26
30	4
37	3
38	13
39	63
40	16
41	24
42	203
43	569
44	100
45	2
49	2
50	53
51	127
52	34
53	15
54	30
55	14
56	6
57	2
58	1
61	5
62	24
63	79
64	26
65	55
66	6
67	3
68	1
69	421
70	999
71	44
72	1
73	1
74	13
75	12
76	15
77	188
78	42
79	68
80	6
84	1
85	3
86	4
87	7
88	4
89	122
90	67
91	145
92	23
93	2
94	1
98	1
99	1
101	1
102	7
103	24
104	26
105	127
106	17
107	33
108	6
113	1
114	1
115	33
116	18
117	70
118	45
119	22
120	2
128	1
130	17
131	7
132	243
133	133
134	12
135	1
138	1
147	1
161	225
162	25
163	1
174	1
175	24
176	209
177	25
178	2
