Mass Spectrum: Benzene, (3-methyl-4-pentenyl)-
Formula: C12H16
CAS: 42524-30-1
Molecular weight: 160
m/z	intensity
25	0
26	5
27	107
28	13
29	72
30	1
32	1
34	0
35	0
36	0
37	1
38	7
39	132
40	14
41	304
42	14
43	7
44	0
45	0
47	1
48	0
49	1
50	23
51	82
52	21
53	44
54	10
55	102
56	8
57	0
58	1
59	0
60	1
61	1
62	7
63	36
64	12
65	164
66	11
67	65
68	36
69	202
70	11
71	0
73	1
74	4
75	8
76	6
77	131
78	55
79	120
80	7
81	4
82	8
83	0
86	1
87	1
88	1
89	23
90	14
91	968
92	659
93	44
94	2
95	0
96	0
97	0
98	0
99	0
101	3
102	11
103	76
104	999
105	532
106	39
107	2
108	0
109	0
110	0
113	5
114	1
115	27
116	9
117	69
118	36
119	3
120	0
121	0
123	0
126	1
127	5
128	15
129	10
130	3
131	63
132	19
133	2
134	0
135	0
139	0
140	0
141	2
142	1
143	2
144	1
145	108
146	12
147	1
148	0
152	0
153	0
154	0
158	0
159	2
160	109
161	15
162	1
