Mass Spectrum: Pentane, 1,1'-sulfonylbis-
Formula: C10H22O2S
CAS: 4253-99-0
Molecular weight: 206
m/z	intensity
26	10
27	170
28	90
29	210
30	10
33	10
39	90
40	10
41	330
42	160
43	999
44	50
48	10
53	20
54	10
55	130
56	20
57	30
63	20
64	10
65	20
67	20
68	10
69	50
70	120
71	570
72	40
80	20
81	50
93	10
94	10
103	10
107	20
108	10
119	40
133	10
135	90
136	10
137	450
138	30
139	20
150	4
151	1
163	17
164	2
165	1
173	1
177	3
189	14
190	1
191	1
206	38
207	5
208	2
