Mass Spectrum: 7-Benzyloxy-3-phenyl-4H-chromen-4-one
Formula: C22H16O3
CAS: 4253-05-8
Molecular weight: 328
m/z	intensity
28	3
38	1
39	10
41	4
43	1
50	3
51	10
52	3
53	2
55	3
62	3
63	21
64	3
65	51
66	3
69	1
74	2
75	4
76	6
77	4
78	1
79	3
87	1
89	9
90	7
91	999
92	78
93	2
101	1
102	12
103	2
105	1
107	2
108	1
115	1
119	1
125	2
126	2
127	3
131	1
136	1
137	1
139	1
150	1
151	4
152	15
153	7
163	2
165	1
181	3
208	1
209	9
210	1
227	5
228	1
237	6
238	2
250	2
300	1
327	3
328	217
329	52
330	7
