Mass Spectrum: Trisulfide, bis(1,1-dimethylethyl)
Formula: C8H18S3
CAS: 4253-90-1
Molecular weight: 210
m/z	intensity
45	12
49	14
55	27
56	13
57	999
58	50
59	36
64	9
74	8
89	26
154	59
156	9
210	51
211	8
212	6
