Mass Spectrum: 2-Acetoxyindane
Formula: C11H12O2
CAS: 4254-31-3
Molecular weight: 176
m/z	intensity
77	40
78	23
79	16
89	15
91	25
103	28
104	23
105	100
106	16
115	140
116	999
117	130
176	1
177	0
