Mass Spectrum: 1-Methyl-4-amino-4,5(1H)-dihydro-1,2,4-triazole-5-one
Formula: C3H6N4O
CAS: 4254-55-1
Molecular weight: 114
m/z	intensity
28	495
41	78
42	121
43	856
44	200
45	159
46	38
55	118
56	120
57	137
58	198
59	199
60	101
69	60
71	59
81	19
83	40
85	39
86	59
97	39
98	19
99	20
114	999
