Mass Spectrum: 1-Aziridinenonanoic acid, 2,2-dimethyl-.theta.-oxo-, methyl ester
Formula: C14H25NO3
CAS: 42550-29-8
Molecular weight: 255
m/z	intensity
29	101
30	22
31	31
39	70
40	19
41	308
42	73
43	131
44	29
45	19
51	5
53	38
54	73
55	426
56	84
57	42
59	122
60	10
61	5
63	14
65	5
66	5
67	77
68	85
69	141
70	81
71	189
72	167
73	44
74	230
75	14
77	10
78	4
79	11
80	16
81	91
82	71
83	201
84	98
85	17
87	95
88	20
92	4
93	4
94	6
95	33
96	62
97	91
98	116
99	15
100	5
101	39
107	5
108	4
109	5
110	53
111	135
112	38
113	999
114	84
115	18
116	3
122	2
123	13
124	99
125	79
126	358
127	76
128	18
129	11
130	20
134	1
135	0
136	1
138	16
139	10
140	51
141	11
142	20
143	167
144	16
149	0
150	2
151	11
152	313
153	43
154	38
155	7
156	15
157	22
158	5
163	48
164	20
165	4
166	6
168	91
169	15
170	5
171	14
177	9
178	4
180	3
182	105
183	12
184	64
185	200
186	20
187	2
196	15
197	3
198	5
199	16
205	6
206	44
207	5
208	6
210	10
211	2
212	7
213	11
224	112
225	14
226	11
227	4
240	5
241	5
242	4
254	3
255	61
256	9
