Mass Spectrum: 1,2-Cyclooctanediol, trans-
Formula: C8H16O2
CAS: 42565-22-0
Molecular weight: 144
m/z	intensity
15	11
18	1
19	12
26	13
27	188
29	293
30	24
31	138
32	1
37	2
38	10
39	247
40	47
41	567
42	272
43	309
44	275
45	82
46	3
47	15
48	1
49	1
50	9
51	23
52	9
53	86
54	210
55	616
56	144
57	999
58	140
59	15
60	23
61	3
62	5
63	6
65	19
66	28
67	404
68	112
69	215
70	579
71	120
72	18
73	13
74	14
75	3
77	20
78	15
79	134
80	133
81	91
82	359
83	387
84	139
85	30
86	9
87	22
88	2
91	15
92	2
93	184
94	16
95	75
96	59
97	194
98	299
99	23
100	2
101	124
102	7
103	1
105	1
107	7
108	60
109	12
110	2
111	36
112	3
113	14
114	9
115	5
116	1
124	2
125	6
126	28
127	4
143	3
144	7
