Mass Spectrum: N-(3-Pyridyl)-maleamic acid
Formula: C9H8N2O3
CAS: 42574-72-1
Molecular weight: 192
m/z	intensity
33	2
34	2
36	3
37	28
38	97
39	233
40	92
41	92
42	16
43	45
44	106
45	126
46	13
47	3
48	0
49	3
50	25
51	71
52	31
53	48
54	73
55	73
56	8
57	14
58	2
59	4
60	13
61	3
62	2
63	9
64	30
65	44
66	64
67	222
68	22
69	12
70	6
71	74
72	15
73	28
74	4
75	4
76	5
77	9
78	47
79	7
80	4
81	14
82	10
83	7
84	4
85	4
86	0
87	6
88	2
89	0
90	2
91	7
92	22
93	78
94	999
95	66
96	5
97	7
99	312
100	15
101	4
102	1
103	1
104	7
105	5
106	0
107	0
109	1
110	1
111	3
112	1
113	1
115	5
116	2
117	3
118	13
119	17
120	13
121	10
122	1
123	1
125	1
126	0
127	1
128	0
129	10
130	7
131	1
133	1
135	1
138	0
143	4
144	1
145	4
146	8
147	44
148	13
149	3
151	1
157	1
164	1
165	1
166	1
171	1
172	0
173	5
174	74
175	11
176	1
185	1
190	0
192	205
193	21
194	2
