Mass Spectrum: Benzeneacethydrazide, N2-(2,6-dichlorobenzylideno)-
Formula: C15H12Cl2N2O
CAS: 42596-37-2
Molecular weight: 306
m/z	intensity
33	2
34	3
35	4
36	9
37	14
39	199
40	62
41	51
42	14
43	22
44	33
45	10
46	6
47	1
49	9
50	49
51	66
52	22
53	8
54	3
55	14
56	4
57	8
58	1
60	4
61	25
62	63
63	128
65	281
66	13
67	2
68	1
69	5
70	3
71	3
73	67
74	36
75	52
76	10
77	14
78	6
79	5
80	2
81	2
82	1
83	7
84	12
85	13
86	25
87	32
89	124
91	999
92	459
93	36
94	1
95	2
96	4
97	15
98	10
99	20
100	21
101	5
102	3
103	1
104	2
105	2
106	5
107	4
109	28
110	7
111	10
112	3
113	1
114	0
115	1
116	5
118	110
119	10
120	1
121	2
123	146
124	32
125	50
126	12
127	3
128	1
129	0
131	0
133	7
134	50
135	182
136	28
137	4
138	5
139	1
143	0
145	7
146	2
147	4
148	1
149	2
150	1
151	11
152	50
153	75
154	21
155	20
156	2
158	6
159	11
160	11
161	4
162	3
163	1
164	0
165	1
167	0
171	9
172	13
173	6
174	9
175	2
176	2
177	0
178	2
179	1
180	0
186	1
187	7
188	10
189	6
190	5
191	1
192	1
199	0
205	0
207	0
215	1
217	1
222	0
233	0
306	0
308	0
