Mass Spectrum: Benzene, [(trifluoromethyl)sulfonyl]-
Formula: C7H5F3O2S
CAS: 426-58-4
Molecular weight: 210
m/z	intensity
24	0
26	2
27	16
29	0
31	1
36	0
37	4
38	7
39	17
40	2
41	1
43	0
44	0
45	5
47	0
48	4
49	4
50	64
51	193
52	11
53	5
54	0
55	0
57	1
58	1
59	0
60	0
61	1
62	4
63	5
64	1
65	11
66	0
67	0
68	0
69	41
70	1
71	0
72	0
73	4
74	25
75	18
76	17
77	999
78	64
79	2
80	0
81	2
82	2
83	0
84	0
89	0
90	0
91	7
92	3
93	4
94	0
95	1
96	1
97	14
98	1
99	0
102	0
103	1
104	15
105	3
106	0
107	0
108	1
109	5
110	0
111	0
114	0
115	3
116	1
117	11
118	2
119	0
123	0
125	16
126	1
127	1
128	1
129	3
130	1
131	3
132	0
139	0
140	0
141	381
142	27
143	17
144	1
145	1
146	2
147	0
152	0
153	0
154	0
155	0
157	0
158	0
159	0
160	5
161	0
165	0
166	0
167	1
168	1
169	0
170	0
171	0
172	0
174	1
178	0
210	90
211	7
212	4
