Mass Spectrum: 4-Thiazolidinecarboxylic acid, 2-phenyl-
Formula: C10H11NO2S
CAS: 42607-21-6
Molecular weight: 209
m/z	intensity
25	3
26	28
27	124
28	131
29	24
30	16
31	16
33	22
34	44
35	6
36	3
37	13
38	40
39	152
40	28
41	42
42	55
43	61
44	93
45	160
46	53
47	41
48	6
49	12
50	137
51	376
52	98
53	24
54	49
55	37
56	6
57	29
58	95
59	246
60	26
61	32
62	71
63	180
64	72
65	114
66	17
67	4
68	5
69	27
70	10
71	8
72	6
73	43
74	65
75	61
76	105
77	489
78	203
79	211
80	17
81	4
82	15
83	7
84	7
85	11
86	233
87	58
88	32
89	310
90	472
91	493
92	75
93	13
94	6
95	8
96	3
97	5
98	3
99	3
100	3
101	10
102	35
103	249
104	791
105	236
106	302
107	69
108	9
109	32
110	12
111	5
112	4
114	3
115	11
116	254
117	999
118	475
119	60
120	17
121	383
122	93
123	35
124	7
128	14
129	17
130	329
131	168
132	244
133	29
134	23
135	67
136	56
137	912
138	98
139	50
140	5
144	35
145	71
146	87
147	32
148	8
149	17
150	4
156	4
157	2
158	27
159	5
160	2
161	3
162	227
163	227
164	433
165	64
166	27
167	5
174	4
175	27
176	161
177	19
178	3
191	2
192	7
207	3
208	126
209	308
210	118
211	28
212	7
