Mass Spectrum: Cycloheptane, methoxy-
Formula: C8H16O
CAS: 42604-04-6
Molecular weight: 128
m/z	intensity
41	114
45	57
54	29
55	29
67	86
68	86
71	999
72	57
81	114
85	200
96	200
97	29
99	57
128	86
