Mass Spectrum: D-Glucose, 2,3,4,5-tetra-O-methyl-
Formula: C10H20O6
CAS: 4261-26-1
Molecular weight: 236
m/z	intensity
29	224
31	102
41	109
42	22
43	96
44	83
45	624
56	86
57	19
58	19
59	64
71	182
72	22
73	121
74	64
75	173
85	102
87	54
88	657
89	112
99	51
101	999
102	121
115	38
119	32
127	44
129	57
130	115
131	89
141	10
162	11
172	23
191	30
218	8
