Mass Spectrum: d-Glucose, didecyl mercaptal
Formula: C26H54O5S2
CAS: 4263-57-4
Molecular weight: 510
m/z	intensity
25	9
26	25
27	294
29	441
30	25
31	77
33	4
34	9
35	22
37	5
38	12
39	237
41	806
42	202
43	999
45	87
46	24
47	141
48	16
49	7
50	4
51	15
52	9
53	74
54	63
55	671
56	411
57	597
58	25
59	48
60	68
61	298
62	11
63	13
64	2
65	25
66	18
67	118
68	123
69	425
70	426
71	287
72	21
73	82
74	25
75	29
76	146
77	36
78	30
79	111
80	19
81	74
82	111
83	404
84	187
85	195
86	19
87	192
88	29
89	99
90	10
91	20
92	6
93	4
94	10
95	44
96	50
97	248
98	75
99	47
100	12
101	69
102	13
103	62
104	5
105	4
106	4
107	2
108	2
109	13
110	19
111	125
112	75
113	29
114	10
115	40
116	4
117	13
118	2
119	0
120	2
121	4
122	1
123	3
124	2
125	4
126	10
127	87
128	7
129	44
130	3
131	4
133	6
134	2
136	1
137	3
138	8
139	5
140	103
141	11
142	5
143	18
144	7
145	80
146	5
151	2
152	1
153	1
154	1
155	3
156	2
157	6
158	2
159	4
161	5
162	2
163	51
164	3
165	3
166	1
170	1
171	49
172	29
173	83
174	73
175	24
176	6
177	2
178	1
179	1
180	1
181	1
182	1
183	2
184	1
185	34
186	9
187	114
188	19
189	9
190	1
191	2
192	1
193	1
195	1
197	2
198	4
199	4
200	2
201	4
205	2
206	1
208	2
209	1
211	1
212	1
213	16
214	4
215	8
216	75
217	163
218	22
219	79
220	13
221	8
222	1
223	1
224	1
226	1
227	17
228	7
229	25
230	2
231	3
232	4
233	1
239	4
240	2
241	5
242	6
243	2
244	4
245	6
248	1
249	1
250	1
251	1
252	15
253	8
254	2
255	4
256	1
257	5
258	2
259	4
260	1
261	2
262	1
263	1
265	1
266	2
267	2
268	5
269	2
270	2
271	2
272	1
274	1
275	4
282	1
283	4
284	2
285	2
286	1
287	4
288	1
289	1
299	2
300	2
301	12
302	2
303	2
304	1
305	5
306	2
307	1
313	5
314	1
315	2
317	1
318	1
319	29
320	6
321	2
322	1
327	2
328	1
329	1
331	5
332	2
333	1
334	1
336	1
337	3
347	1
357	1
359	635
360	201
361	90
362	20
363	6
364	1
370	1
372	12
373	4
374	2
385	1
387	1
388	1
389	1
401	18
402	5
403	2
404	1
424	1
439	1
510	10
511	3
512	2
