Mass Spectrum: Benzene, 1-nitro-2-(2-phenylethenyl)-, (E)-
Formula: C14H11NO2
CAS: 4264-29-3
Molecular weight: 225
m/z	intensity
27	38
28	14
29	7
30	17
32	0
33	0
34	0
37	3
38	17
39	134
40	16
41	42
42	1
43	0
44	1
45	2
46	1
47	0
49	1
50	78
51	220
52	59
53	9
54	1
55	2
56	1
58	0
59	0
60	0
61	7
62	44
63	194
64	239
65	136
66	11
67	3
68	1
69	9
71	8
72	1
73	1
74	51
75	91
76	313
77	416
78	81
79	13
80	2
81	5
83	10
84	2
85	3
86	18
87	40
88	135
89	280
90	89
91	877
92	999
93	69
94	10
97	5
98	16
99	15
100	8
101	20
102	65
103	15
104	281
105	377
106	31
107	3
108	0
109	1
110	5
111	7
112	3
113	19
114	10
115	52
116	9
117	6
118	17
119	892
120	121
121	16
122	24
123	4
124	2
125	9
126	42
127	33
128	37
129	7
130	32
131	5
132	5
133	1
134	51
135	5
136	1
137	6
138	7
139	60
140	13
141	15
142	3
143	2
144	1
145	0
146	6
147	1
148	5
149	8
150	50
151	137
152	244
153	62
154	11
155	2
156	1
157	0
158	0
159	0
161	1
162	4
163	28
164	25
165	201
166	49
167	50
168	24
169	4
170	1
171	0
172	0
173	1
174	9
175	28
176	186
177	109
178	291
179	179
180	254
181	36
182	4
183	1
188	1
189	1
190	10
191	13
192	24
193	126
194	32
195	18
196	99
197	15
198	1
205	0
206	4
207	5
208	321
209	62
210	6
211	0
214	0
222	0
224	18
225	242
226	39
227	4
228	0
