Mass Spectrum: 5.alpha.-Estran-3-one, 17.beta.-hydroxy-2.alpha.-methyl-
Formula: C19H30O2
CAS: 4267-75-8
Molecular weight: 290
m/z	intensity
39	242
40	80
41	999
42	121
43	404
44	101
45	30
51	30
52	20
53	272
54	80
55	656
56	80
57	242
58	30
65	90
66	50
67	535
68	272
69	262
70	20
71	70
72	10
74	30
77	222
78	50
79	444
80	101
81	505
82	90
83	80
84	20
85	10
88	20
91	323
92	70
93	353
94	141
95	292
96	40
97	111
98	10
103	10
104	20
105	242
106	80
107	292
108	90
109	141
110	30
111	40
115	10
117	40
118	20
119	121
120	60
121	141
122	151
123	90
124	101
125	10
129	10
131	60
132	20
133	111
134	70
135	90
136	50
137	60
143	20
145	70
146	20
147	101
148	40
149	111
150	20
151	10
157	20
158	10
159	161
160	40
161	111
162	101
163	60
164	20
165	10
166	10
167	10
171	10
172	10
173	40
174	40
175	70
176	161
177	30
185	20
187	10
188	10
189	111
190	50
191	10
192	10
199	10
200	10
201	222
202	50
203	60
204	80
205	10
213	50
215	111
216	10
217	70
218	131
219	70
220	10
228	10
229	20
230	10
231	484
232	111
233	161
234	20
244	10
246	242
247	111
248	10
257	40
261	10
272	80
273	10
275	10
290	505
291	111
292	10
