Mass Spectrum: Propionamide, 3-(1-piperidyl)-
Formula: C8H16N2O
CAS: 4269-30-1
Molecular weight: 156
m/z	intensity
33	0
34	0
35	0
36	0
37	1
38	4
39	61
40	20
41	219
42	248
43	54
44	242
45	11
46	1
47	2
48	1
49	0
50	4
51	5
52	7
53	20
54	51
55	217
56	160
57	34
58	7
59	19
60	2
61	0
62	0
63	0
64	1
65	3
66	2
67	16
68	35
69	84
70	98
71	9
72	35
73	29
74	2
75	0
76	0
77	1
78	1
79	3
80	7
81	7
82	22
83	36
84	370
85	50
86	5
87	9
88	0
89	0
91	1
92	0
93	1
94	6
95	14
96	152
97	99
98	999
99	70
100	8
101	3
102	0
103	0
105	0
106	0
107	1
108	3
109	1
110	14
111	6
112	44
113	16
114	3
115	1
116	0
118	0
119	0
120	0
121	0
122	0
123	0
124	0
125	0
127	11
128	1
129	0
131	0
133	0
135	1
136	0
137	0
138	4
139	0
140	0
141	1
142	0
143	0
149	0
151	0
152	0
153	2
154	1
155	13
156	37
157	4
158	0
159	0
