Mass Spectrum: Pyrimidine, 1,4,5,6-tetrahydro-1,2-dimethyl-
Formula: C6H12N2
CAS: 4271-96-9
Molecular weight: 112
m/z	intensity
40	631
42	973
43	391
44	706
45	24
51	9
52	17
54	106
56	999
58	168
59	4
66	2
67	15
68	155
69	144
70	118
71	32
72	23
73	13
82	6
83	10
84	9
85	3
86	5
87	19
97	79
98	4
109	5
112	705
115	6
