Mass Spectrum: 1,4-Cyclohexanediol, diacetate, cis-
Formula: C10H16O4
CAS: 42742-00-7
Molecular weight: 200
m/z	intensity
27	29
28	79
29	29
31	9
32	9
39	29
40	9
41	59
42	29
43	732
44	29
45	19
53	19
54	79
55	49
56	19
57	29
60	9
61	29
67	19
68	9
69	59
70	39
71	9
77	9
78	9
79	89
80	999
81	148
82	19
83	39
86	9
97	29
98	128
99	19
103	9
112	9
114	9
140	39
