Mass Spectrum: 1-Butanol, 2-amino-3-methyl-, (R)-
Formula: C5H13NO
CAS: 4276-09-9
Molecular weight: 103
m/z	intensity
14	2
15	39
16	2
17	20
18	87
20	28
26	19
27	120
28	253
29	138
30	211
31	44
32	4
39	113
40	25
41	170
42	274
43	135
44	62
51	3
52	6
53	24
54	20
55	470
56	163
57	93
58	38
59	21
60	748
61	17
67	4
68	16
69	7
70	122
71	22
72	999
73	43
84	6
85	16
86	41
