Mass Spectrum: 1,9-Cyclohexadecadiene
Formula: C16H28
CAS: 4277-06-9
Molecular weight: 220
m/z	intensity
26	1
27	157
28	50
29	202
38	0
39	312
40	59
41	949
42	99
43	106
50	0
51	29
52	20
53	222
54	546
55	747
56	62
57	42
63	0
65	74
66	93
67	999
68	492
69	272
70	22
71	8
77	83
78	40
79	320
80	806
81	794
82	527
83	235
84	14
85	0
91	48
92	17
93	266
94	405
95	475
96	381
97	142
98	7
105	8
106	3
107	135
108	108
109	182
110	92
111	26
119	14
120	0
121	156
122	61
123	48
124	33
125	0
135	134
136	39
137	15
138	10
149	49
150	11
151	0
163	14
164	0
177	5
191	0
192	0
220	215
221	38
