Mass Spectrum: 2-Hydroxyethyl isobutyl sulfide
Formula: C6H14OS
CAS: 42779-10-2
Molecular weight: 134
m/z	intensity
14	8
15	52
16	2
18	6
19	35
25	1
26	24
27	262
28	65
29	377
30	14
31	149
32	5
33	2
34	3
35	17
36	3
37	6
38	15
39	249
40	33
41	608
42	62
43	180
44	62
45	405
46	139
47	223
48	58
49	40
50	10
51	12
52	2
53	33
54	18
55	175
56	531
57	956
58	67
59	97
60	133
61	999
62	46
63	44
64	3
65	1
67	18
69	38
70	4
71	11
72	5
73	37
74	11
75	21
76	8
77	22
78	44
79	35
80	3
81	3
83	1
85	6
86	1
87	29
88	45
89	76
90	37
91	346
92	31
93	13
98	1
99	2
100	2
101	28
103	331
104	24
105	35
106	1
115	7
116	4
117	1
119	6
134	658
135	53
136	31
137	2
