Mass Spectrum: 2-([(4-Methylbenzene)sulfonyl]oxy)ethanol
Formula: C9H12O4S
CAS: 42772-85-0
Molecular weight: 216
m/z	intensity
33	6
34	9
38	15
39	191
40	44
41	60
42	11
43	41
44	40
45	45
48	4
50	39
51	71
52	24
53	16
55	10
57	7
61	9
62	28
63	120
64	56
65	474
66	28
67	9
69	6
70	5
71	4
74	5
75	7
76	6
77	67
78	14
79	38
80	15
87	5
89	122
90	69
91	999
92	531
93	42
105	5
107	72
108	45
109	5
139	27
155	790
156	523
157	77
158	24
172	8
173	196
174	21
175	11
185	14
186	110
187	12
216	135
217	15
218	7
