Mass Spectrum: N,N'-Bis-(2,2,6,6-tetramethylpiperid-4-yl)phthalamide
Formula: C26H42N4O2
CAS: 42774-14-1
Molecular weight: 442
m/z	intensity
39	9
40	7
41	53
42	76
43	23
44	18
53	5
55	57
56	20
57	49
58	191
59	7
65	6
66	3
67	14
68	9
69	9
70	12
71	14
76	7
77	10
79	10
80	4
81	15
82	35
83	23
84	31
85	8
91	10
92	3
93	5
94	6
95	7
96	11
97	10
98	46
99	42
100	4
102	4
103	3
104	7
105	16
107	44
108	22
109	9
110	7
111	5
112	19
113	9
121	3
122	12
124	999
125	76
126	4
129	5
130	11
136	4
138	26
139	19
140	32
141	8
147	7
148	18
149	7
157	7
167	4
174	4
206	4
271	6
287	10
304	96
305	14
344	3
427	30
428	8
442	4
