Mass Spectrum: 2,5-Hexanedione, 3-acetyl-
Formula: C8H12O3
CAS: 42781-07-7
Molecular weight: 156
m/z	intensity
25	0
26	6
27	46
28	0
29	5
31	2
37	0
38	3
39	19
40	5
41	19
42	21
43	999
44	25
45	4
49	0
50	2
51	4
52	2
53	18
54	3
55	25
56	1
57	2
58	1
59	0
60	1
61	3
62	0
63	0
65	1
66	0
67	7
68	1
69	4
70	5
71	494
72	28
73	1
74	0
75	0
77	1
78	0
79	0
80	0
81	3
82	1
83	1
84	0
85	3
86	0
88	0
91	0
93	0
94	0
95	20
96	187
97	15
98	2
99	35
100	2
101	2
102	0
107	0
108	0
109	4
110	0
111	0
112	0
113	106
114	38
115	2
116	0
117	0
121	0
122	0
123	9
124	1
125	0
126	0
127	0
135	0
136	0
137	0
138	7
139	1
140	0
141	0
153	0
154	0
156	20
