Mass Spectrum: 2-Propanone, 1-(1-methylethoxy)-
Formula: C6H12O2
CAS: 42781-12-4
Molecular weight: 116
m/z	intensity
23	0
24	0
25	2
26	14
27	136
28	36
29	67
30	3
31	32
32	0
33	1
36	1
37	7
38	9
39	62
40	17
41	195
42	62
43	999
44	26
45	30
46	0
53	0
55	17
56	2
57	105
58	148
59	84
60	2
71	4
72	1
73	116
74	5
75	1
78	0
83	1
97	0
101	3
115	0
