Mass Spectrum: Pyridine-3-carboxamide, 1,2-dihydro-6-hydroxy-1,4-dimethyl-2-oxo-
Formula: C8H10N2O3
CAS: 42799-45-1
Molecular weight: 182
m/z	intensity
33	12
34	6
37	40
38	88
39	261
40	193
41	119
42	175
43	69
44	337
45	7
49	25
50	95
51	154
52	200
53	310
54	133
55	55
56	52
57	19
58	79
59	2
61	2
62	7
63	14
64	24
65	45
66	156
67	238
68	85
69	65
70	18
71	3
74	0
75	7
76	13
77	23
78	30
79	42
80	211
81	92
82	132
83	22
84	10
85	3
91	16
92	20
93	52
94	18
95	21
96	53
97	115
98	58
99	5
103	3
104	1
105	3
108	999
109	369
110	191
111	193
112	12
113	0
119	1
120	6
121	11
122	13
123	7
124	13
125	29
126	1
127	1
128	2
131	3
132	0
136	161
137	131
139	265
140	19
150	1
152	5
153	3
165	562
166	49
167	5
180	6
182	385
183	28
184	3
