Mass Spectrum: trans-Ethyl 7-oxabicyclo[4.3.0]nonan-8-one-9-carboxylate
Formula: C11H16O4
CAS: 42798-05-0
Molecular weight: 212
m/z	intensity
26	90
27	670
29	999
30	30
31	120
38	30
39	440
40	120
41	660
42	90
43	270
44	120
45	110
46	20
50	30
51	80
52	20
53	280
54	160
55	710
56	70
57	90
60	60
61	70
65	90
66	130
67	740
68	550
69	110
70	90
71	50
73	430
74	20
77	140
78	60
79	470
80	490
81	550
82	100
83	70
84	50
85	140
86	70
87	90
88	80
91	110
92	30
93	360
94	490
95	470
96	80
97	140
98	130
99	130
101	200
102	20
115	140
121	160
122	420
123	340
124	30
127	55
128	50
137	50
138	240
139	160
140	470
141	80
154	30
155	40
165	80
166	70
167	110
168	590
169	90
184	40
185	10
212	30
213	10
