Mass Spectrum: Hexafluoropropylene oxide
Formula: C3F6O
CAS: 428-59-1
Molecular weight: 166
m/z	intensity
16	4
19	7
24	5
28	22
31	536
36	1
47	180
50	342
55	2
62	2
66	5
69	999
74	3
78	10
81	211
93	10
97	70
100	199
119	166
131	2
147	23
