Mass Spectrum: Propanoic acid, 2-(4-hydroxyphenoxy)-2-methyl-, ethyl ester
Formula: C12H16O4
CAS: 42806-90-6
Molecular weight: 224
m/z	intensity
29	120
30	20
31	40
32	50
38	30
39	110
40	30
41	180
42	90
43	170
44	40
45	40
50	20
51	30
52	30
53	40
54	30
55	40
56	20
57	40
58	10
59	40
60	15
61	15
62	15
63	25
64	25
65	60
66	10
67	20
68	15
69	80
70	60
71	40
73	70
75	70
77	30
78	20
79	15
81	50
82	20
83	15
86	20
87	50
88	30
89	20
91	25
92	20
93	25
94	25
95	25
96	15
103	15
105	20
107	30
108	25
109	40
110	999
111	120
112	25
115	20
116	25
117	20
135	30
146	15
147	15
148	15
149	95
150	220
151	30
178	70
224	130
225	25
