Mass Spectrum: N-Benzoylaspartic acid, diethyl ester
Formula: C15H19NO5
CAS: 42807-38-5
Molecular weight: 293
m/z	intensity
42	19
43	19
44	7
45	7
46	0
47	5
48	2
49	23
50	12
51	60
52	4
53	1
54	0
55	7
56	2
57	2
58	0
59	0
60	10
61	3
62	0
63	1
64	0
65	3
66	0
67	0
68	1
69	1
70	10
71	3
72	0
73	2
74	3
75	5
76	15
77	255
78	18
79	1
80	0
81	0
82	2
83	0
88	7
89	1
91	13
92	2
93	0
94	0
95	0
96	0
97	1
98	0
99	10
100	1
101	0
102	1
103	2
104	3
105	999
106	65
107	5
108	0
109	0
110	0
111	0
112	0
114	3
115	0
116	6
117	1
118	3
119	2
121	2
122	1
123	0
124	0
125	0
127	3
128	1
129	0
130	1
131	0
132	2
133	0
134	0
135	0
136	0
137	0
138	0
139	0
140	0
141	0
142	2
143	0
144	0
145	1
146	10
147	7
148	5
149	1
150	0
151	0
152	0
153	0
154	0
155	0
157	0
158	0
159	0
160	0
161	0
162	0
163	0
164	0
165	1
166	0
167	0
168	0
170	4
171	0
173	5
174	10
175	1
176	0
177	0
178	0
179	0
180	0
181	0
182	0
183	0
184	0
185	0
186	0
188	36
189	3
191	3
192	1
193	0
194	0
195	0
196	0
197	0
198	0
200	0
201	0
202	0
203	0
204	0
205	0
206	0
207	0
208	0
209	0
211	0
212	0
213	0
214	0
215	0
216	0
217	0
218	0
219	3
220	460
221	60
222	5
223	0
224	0
225	0
226	0
227	0
228	0
229	0
230	0
231	0
232	0
233	0
234	0
236	0
237	0
238	0
239	0
241	0
243	1
244	0
245	0
246	0
247	4
248	47
249	7
250	0
251	0
252	0
253	0
254	0
255	0
256	0
257	0
258	0
260	0
261	0
262	0
263	0
264	0
265	0
266	0
268	0
269	0
271	0
272	0
273	0
275	0
276	0
277	0
278	0
279	0
291	0
292	0
293	65
294	12
295	2
