Mass Spectrum: 2-Propenal, 3-(dimethylamino)-2-[(1-methylethyl)amino]-
Formula: C8H16N2O
CAS: 42801-01-4
Molecular weight: 156
m/z	intensity
39	190
40	100
41	470
42	939
43	729
44	999
45	230
55	90
56	140
57	170
58	390
61	90
68	110
69	115
70	340
72	240
82	649
83	250
84	165
85	400
86	130
87	190
96	40
97	110
98	90
99	220
100	35
111	40
112	70
113	150
139	20
141	20
156	440
