Mass Spectrum: Ethanone, 1-(4,5-dihydro-5,5-dimethyl-3-phenyl-4-isoxazolyl)-
Formula: C13H15NO2
CAS: 42812-87-3
Molecular weight: 217
m/z	intensity
39	250
43	999
51	315
63	90
77	490
89	60
91	110
103	100
104	90
105	60
117	130
118	160
128	120
132	70
144	100
160	620
161	240
175	520
184	10
186	10
201	10
217	140
