Mass Spectrum: Malonic acid, 2-trifluoroacetamido-2-trimethylsiloxy-, di(trimethylsilyl)-
Formula: C14H28F3NO6Si3
CAS: 42827-96-3
Molecular weight: 447
m/z	intensity
69	15
72	40
73	999
74	91
75	149
76	11
77	129
78	8
84	14
91	4
100	9
105	4
116	39
117	24
120	52
131	25
132	2
133	40
134	5
143	4
147	348
148	64
149	37
151	50
166	7
170	59
172	20
175	7
190	175
191	34
192	19
193	19
219	8
244	7
247	19
250	2
258	31
259	3
285	13
314	44
315	11
330	72
331	19
332	33
333	5
335	9
342	29
403	17
404	20
432	94
433	30
434	11
