Mass Spectrum: Dihydroxymalonic acid, 4TMS derivative
Formula: C15H36O6Si4
CAS: 42827-95-2
Molecular weight: 424
m/z	intensity
44	46
45	94
49	38
69	50
72	23
73	999
74	90
75	135
77	29
84	12
93	9
131	48
133	16
147	457
148	74
149	36
221	57
307	574
308	159
309	83
381	32
409	199
410	68
411	41
