Mass Spectrum: 1,3-Cyclohexanedione, 4,5-dimethyl-
Formula: C8H12O2
CAS: 42824-00-0
Molecular weight: 140
m/z	intensity
41	366
42	355
43	179
44	2
45	3
47	13
50	25
51	58
52	19
53	87
55	433
56	999
57	51
58	9
62	2
63	7
65	12
66	2
67	25
68	4
69	362
70	200
71	19
77	10
79	14
81	5
82	2
83	239
84	90
86	18
88	2
91	2
97	211
98	97
99	7
111	13
112	140
113	11
125	9
140	333
141	31
