Mass Spectrum: 5-Nitrothiophene-2-carboxaldehyde pivalhydrazone
Formula: C10H13N3O3S
CAS: 42826-28-8
Molecular weight: 255
m/z	intensity
41	275
42	31
43	16
45	94
46	11
47	5
48	1
49	21
50	9
51	28
52	12
53	10
54	4
55	19
57	999
58	46
59	41
60	1
61	1
62	2
63	4
64	6
65	0
66	0
67	0
68	1
69	44
70	22
71	7
72	1
73	2
75	0
78	0
79	2
80	1
81	14
82	14
83	8
84	13
85	124
86	79
87	4
88	1
92	1
93	6
94	1
95	53
96	7
97	10
98	7
99	0
100	0
101	94
102	5
106	0
108	1
109	14
110	0
111	1
112	1
113	1
114	0
123	1
124	104
125	4
126	8
127	1
137	0
138	6
139	4
140	0
141	4
142	0
143	1
149	0
150	0
151	1
152	2
153	3
154	19
155	39
156	1
157	13
158	0
166	2
169	1
170	9
171	96
172	6
173	2
182	4
183	0
184	0
195	1
196	0
197	1
198	19
199	1
200	0
205	0
209	1
210	1
211	1
212	14
213	0
214	1
226	0
238	1
239	10
240	6
241	0
242	0
253	3
254	64
255	262
256	29
257	14
258	3
