Mass Spectrum: Cyclobutanecarboxylic acid, 2,2-dimethyl-
Formula: C7H12O2
CAS: 42836-66-8
Molecular weight: 128
m/z	intensity
41	797
42	584
43	965
53	72
55	264
56	999
57	72
59	70
60	84
67	95
68	95
69	345
70	310
71	89
82	95
84	191
85	322
113	286
128	131
