Mass Spectrum: Cyclobutanecarboxylic acid, 2,2-dimethyl-, methyl ester
Formula: C8H14O2
CAS: 42836-65-7
Molecular weight: 142
m/z	intensity
41	875
42	90
43	816
44	53
45	40
51	43
53	157
54	53
55	513
56	198
57	493
59	195
67	338
68	383
69	770
70	70
74	870
75	45
79	40
81	100
82	999
83	240
85	138
87	255
95	63
97	95
109	50
110	192
111	305
127	45
142	358
143	43
