Mass Spectrum: N-(Dimethylthiophosphinyl)cyclohexylamine
Formula: C8H18NPS
CAS: 42847-71-2
Molecular weight: 191
m/z	intensity
56	290
65	220
76	170
81	210
93	860
94	950
98	999
99	260
158	810
191	450
