Mass Spectrum: Propionic acid, 2-chloro-3-(p-tolylsulfonyl)-, methyl ester
Formula: C11H13ClO4S
CAS: 4284-72-4
Molecular weight: 276
m/z	intensity
26	18
27	169
29	12
30	3
31	8
35	0
36	7
38	1
39	80
40	7
41	40
42	2
43	13
44	1
45	9
47	1
49	1
50	9
51	30
52	11
53	9
54	3
55	234
56	8
58	2
59	163
60	3
61	9
62	15
63	38
64	17
65	253
66	15
67	7
68	0
69	0
70	0
71	3
74	0
75	3
76	4
77	28
78	10
79	32
80	3
81	6
82	0
83	0
84	0
85	4
86	1
87	56
88	5
89	60
90	38
91	999
92	155
93	13
94	1
95	3
96	0
97	0
101	0
103	1
104	0
105	6
106	1
107	39
108	12
109	2
110	1
111	7
112	0
113	0
115	4
116	1
117	5
118	5
119	7
120	1
121	93
122	8
123	34
124	4
125	0
126	1
127	0
128	0
133	2
135	2
137	4
138	3
139	296
140	29
141	16
142	1
145	2
147	0
151	1
153	1
154	3
155	709
156	64
157	36
158	3
159	0
162	0
166	13
167	1
169	7
170	10
171	3
172	0
175	1
176	1
177	15
178	1
186	6
187	50
188	5
189	2
209	6
210	2
211	2
212	1
214	0
228	0
241	108
242	16
243	7
244	1
245	55
246	7
247	21
248	3
249	1
274	0
276	129
277	18
278	50
279	6
280	3
