Mass Spectrum: .alpha.-D-Xylofuranose, 1,2-O-isopropylidene-5-bromo-5-deoxy-
Formula: C8H13BrO4
CAS: 42854-94-4
Molecular weight: 252
m/z	intensity
27	80
29	79
30	7
31	97
37	0
38	2
39	49
40	9
41	83
42	24
43	779
44	28
45	14
47	2
50	1
51	5
52	1
53	5
54	9
55	84
56	4
57	180
58	20
59	999
60	42
61	8
63	0
65	0
67	1
68	31
69	29
70	4
71	70
72	24
73	43
74	1
75	0
76	0
77	1
78	0
79	1
80	0
81	1
82	0
83	2
84	2
85	30
86	3
87	3
88	0
89	1
91	0
93	7
94	1
95	7
96	1
97	11
98	3
99	2
100	7
101	22
102	8
103	1
105	1
107	7
108	13
109	9
111	0
113	2
114	2
115	35
116	2
119	1
120	0
121	6
122	1
123	8
125	3
126	0
127	16
128	1
129	7
130	14
131	1
133	0
135	11
136	6
137	10
138	5
139	1
140	0
141	0
147	1
148	2
149	3
150	2
151	1
152	3
153	0
154	1
157	1
158	0
159	4
160	0
161	0
170	0
177	90
178	4
179	96
180	4
181	5
182	0
186	0
195	1
196	0
197	1
219	16
220	1
221	14
222	1
237	235
238	17
239	224
240	18
241	2
