Mass Spectrum: Aluminum, tetrakis(2-methylpropyl)di-.mu.-1-piperidinyldi-
Formula: C26H56Al2N2
CAS: 42859-27-8
Molecular weight: 450
m/z	intensity
57	960
84	999
85	650
195	28
251	28
295	13
309	7
323	7
326	10
337	149
351	18
365	6
379	6
393	89
