Mass Spectrum: Benzene, 1-(2,2-dimethoxyethyl)-4-methoxy-
Formula: C11H16O3
CAS: 42866-92-2
Molecular weight: 196
m/z	intensity
27	23
28	11
29	41
30	6
31	70
33	1
37	2
38	9
39	40
40	3
41	17
42	2
43	11
44	4
45	44
47	167
48	3
50	18
51	44
52	28
53	12
54	1
55	6
57	5
58	2
59	2
61	6
62	9
63	31
64	13
65	28
66	3
67	2
69	1
71	1
74	6
75	999
76	37
77	65
78	69
79	18
80	1
81	2
82	1
83	2
87	1
88	1
89	21
90	15
91	42
92	11
93	2
95	2
97	4
102	1
103	7
104	1
105	28
106	9
107	8
108	1
109	2
117	1
118	6
119	5
120	3
121	190
122	19
123	2
132	1
133	14
134	6
135	27
136	6
137	4
138	2
147	1
148	1
149	12
150	13
151	5
152	2
164	11
165	87
166	10
167	1
195	1
196	24
197	4
