Mass Spectrum: 6-Bromo-1-hexanol
Formula: C6H13BrO
CAS: 4286-55-9
Molecular weight: 180
m/z	intensity
14	0
15	10
18	1
19	7
26	27
27	314
28	76
29	283
30	14
31	543
32	8
33	2
36	0
37	4
38	14
39	226
40	45
41	728
42	322
43	216
44	43
45	30
46	0
48	0
49	1
50	6
51	10
52	4
53	47
54	82
55	999
56	123
57	59
58	3
59	4
62	0
63	1
65	8
66	4
67	225
68	28
69	271
70	27
71	17
72	7
73	3
77	2
79	12
80	2
81	47
82	212
83	932
84	58
85	1
93	16
94	0
95	16
105	1
106	6
107	50
108	6
109	48
110	1
119	4
120	13
121	14
122	14
123	10
133	2
134	229
135	15
136	239
137	13
149	4
151	4
152	4
154	4
162	23
163	2
164	23
165	0
