Mass Spectrum: Hexane, 1,6-dinitro-
Formula: C6H12N2O4
CAS: 4286-47-9
Molecular weight: 176
m/z	intensity
45	85
46	130
47	2
48	10
50	4
51	10
52	20
53	188
54	299
55	999
56	410
57	397
58	66
59	44
60	74
61	16
62	210
63	2
64	5
65	29
66	30
67	293
68	182
69	457
70	64
71	215
72	27
73	57
74	20
75	15
76	9
77	16
78	5
79	69
80	21
81	462
82	112
83	759
84	202
85	62
86	37
87	47
88	58
89	8
90	2
91	3
93	2
94	4
95	14
96	33
97	51
98	24
99	78
100	22
101	179
102	63
103	7
104	4
106	3
107	6
108	10
109	12
110	12
111	17
112	48
113	24
114	104
116	49
117	16
119	3
122	2
123	4
126	7
128	7
129	31
130	379
131	35
135	2
136	2
137	5
140	3
141	3
142	4
143	2
146	383
147	23
148	12
149	6
152	3
153	2
158	2
176	12
