Mass Spectrum: Benzeneacetonitrile, 3-benzoyl-.alpha.-methyl-
Formula: C16H13NO
CAS: 42872-30-0
Molecular weight: 235
m/z	intensity
27	4
28	2
38	1
39	6
50	10
51	46
52	4
53	2
62	3
63	7
64	2
65	4
74	4
75	8
76	14
77	252
78	20
79	1
81	1
82	2
87	2
88	5
89	6
90	3
91	1
92	1
93	1
95	1
96	1
97	3
101	5
102	10
103	64
104	19
105	999
106	78
107	5
109	7
110	1
114	3
115	8
116	3
125	1
126	1
127	1
128	10
129	5
130	62
131	9
132	1
133	1
139	1
141	1
143	1
150	1
151	3
152	9
153	7
154	8
155	1
156	2
157	3
158	319
159	36
160	5
163	2
164	2
165	7
166	1
167	1
173	1
174	2
175	4
176	2
177	2
178	3
179	3
180	3
181	79
182	10
183	1
184	2
185	3
186	4
189	1
190	6
191	2
192	5
193	1
194	2
201	1
202	15
203	3
204	2
206	1
207	8
208	18
209	7
210	1
218	1
219	1
220	2
233	1
234	6
235	502
236	91
237	9
