Mass Spectrum: 1,3-Pentadiyne, 1-(methylthio)-
Formula: C6H6S
CAS: 42875-80-9
Molecular weight: 110
m/z	intensity
21	1
24	2
25	11
26	21
27	16
29	24
30	3
31	10
32	5
33	10
34	10
36	26
37	56
38	25
39	49
40	27
41	19
43	47
44	27
45	234
47	153
48	24
49	70
50	94
51	186
52	12
53	6
54	1
56	21
57	13
58	23
59	4
60	31
61	89
62	62
63	53
64	9
65	68
66	3
68	59
69	604
70	50
71	27
73	5
74	9
75	1
76	5
77	2
80	11
81	8
82	8
83	12
84	6
92	93
93	359
94	188
95	999
96	85
97	37
98	4
99	5
106	3
107	1
108	3
109	12
110	997
111	70
112	59
