Mass Spectrum: 1-Amino-3-phenoxypropan-2-ol
Formula: C9H13NO2
CAS: 4287-19-8
Molecular weight: 167
m/z	intensity
30	60
37	7
38	35
39	199
40	59
41	21
42	95
43	90
44	102
45	11
46	1
50	49
51	174
52	19
53	10
54	9
55	29
56	249
57	21
58	3
59	10
60	249
61	9
62	13
63	45
64	21
65	153
66	116
67	10
68	4
70	2
71	2
72	15
73	7
74	58
75	10
76	13
77	291
78	47
79	52
80	5
81	2
91	39
92	7
93	33
94	999
95	94
96	6
103	2
105	7
106	3
107	65
108	68
109	5
118	2
119	22
120	10
121	3
122	1
123	422
124	33
125	2
131	4
132	5
133	5
136	12
137	2
148	3
149	139
150	13
167	122
168	20
169	2
