Mass Spectrum: N-Formyl-l-methionine
Formula: C6H11NO3S
CAS: 4289-98-9
Molecular weight: 177
m/z	intensity
12	10
13	8
14	22
15	85
16	14
17	21
18	77
19	2
24	4
25	14
26	118
27	315
28	590
29	146
30	90
31	10
32	19
33	18
34	23
35	107
36	7
37	23
38	33
39	148
40	56
41	297
42	137
43	45
44	282
45	374
46	169
47	521
48	290
49	65
50	20
51	29
52	74
53	65
54	195
55	166
56	383
57	167
58	26
59	81
60	37
61	999
62	230
63	54
64	20
65	9
66	19
67	43
68	30
69	10
70	84
71	35
72	30
73	36
74	166
75	902
76	46
77	45
78	3
79	2
80	3
81	4
82	9
83	93
84	225
85	850
86	106
87	89
88	130
89	18
90	9
91	2
93	5
94	3
95	5
96	4
97	4
98	173
99	32
100	26
101	20
102	41
103	724
104	56
105	8
106	3
108	2
109	3
110	3
111	73
112	26
113	11
114	51
115	29
116	168
117	28
118	7
119	2
125	3
126	4
127	6
128	3
129	15
130	58
131	39
132	36
133	6
134	4
135	1
141	6
142	1
144	5
148	5
149	4
157	3
159	47
160	4
161	3
162	3
175	3
177	238
178	16
179	11
