Mass Spectrum: 1,3,9-Trioxaspiro[5.5]undecane
Formula: C8H14O3
CAS: 429-36-7
Molecular weight: 158
m/z	intensity
24	1
25	2
26	41
27	262
28	117
29	312
30	69
31	173
33	1
35	1
36	2
37	7
38	20
39	247
40	49
41	482
42	89
43	999
44	61
45	49
46	2
47	1
48	1
49	2
50	11
51	23
52	13
53	75
54	27
55	263
56	35
57	129
58	63
59	10
60	2
61	6
62	2
63	4
64	2
65	12
66	11
67	60
68	34
69	75
70	60
71	326
72	119
73	22
74	3
75	1
77	9
78	4
79	23
80	9
81	75
82	36
83	114
84	36
85	41
86	6
87	60
88	5
89	9
90	1
91	2
92	2
93	14
94	9
95	34
96	13
97	164
98	21
99	31
100	42
101	44
102	4
103	1
104	1
105	1
107	1
108	1
109	7
110	53
111	35
112	29
113	187
114	18
115	3
122	1
124	1
125	1
126	1
127	10
128	109
129	11
130	2
131	1
138	1
139	1
140	31
141	4
142	1
143	83
144	6
145	1
157	4
158	20
