Mass Spectrum: 1-Isopropylcyclohex-1-ene
Formula: C9H16
CAS: 4292-04-0
Molecular weight: 124
m/z	intensity
15	5
16	1
26	4
27	75
28	12
29	35
37	2
38	6
39	147
40	25
41	243
42	18
43	85
44	2
46	2
50	21
51	63
52	38
53	133
54	63
55	205
56	27
57	40
58	2
61	1
62	4
63	17
64	2
65	61
66	45
67	480
68	80
69	64
70	10
74	3
75	1
76	1
77	72
78	23
79	248
80	180
81	999
82	287
83	29
89	3
90	1
91	58
92	9
93	25
94	12
95	95
96	25
97	2
102	1
103	3
105	9
106	1
107	18
108	3
109	376
110	33
111	2
123	1
124	345
125	34
126	1
