Mass Spectrum: Benzenepropanamide, N-[4-[acetyl[3-(acetylamino)propyl]amino]butyl]-N-[3-(acetylamino)propyl]-4-(acetyloxy)-
Formula: C27H42N4O6
CAS: 42920-02-5
Molecular weight: 518
m/z	intensity
51	10
52	20
53	41
54	67
55	318
56	476
57	313
58	295
59	51
60	139
61	25
62	7
66	7
67	25
68	75
69	103
70	445
71	139
72	326
73	150
74	25
75	5
80	18
81	57
82	103
83	202
84	562
85	111
86	111
87	82
88	41
89	18
90	10
91	155
92	13
94	15
95	33
96	75
97	108
98	284
99	72
100	999
101	82
102	51
103	18
104	5
105	46
106	31
107	632
108	67
109	72
110	240
111	72
112	114
113	72
114	38
115	15
118	31
119	64
120	186
121	124
122	57
123	36
124	13
125	41
126	25
127	46
128	75
129	455
130	62
131	20
132	5
140	5
141	23
142	59
143	108
144	59
145	31
146	18
147	69
148	33
149	10
153	15
154	46
155	90
156	54
157	103
158	28
159	10
164	5
165	25
166	5
167	23
168	54
169	194
170	49
171	90
172	41
173	13
174	7
180	5
181	25
182	25
183	25
184	10
195	5
196	23
197	41
198	20
199	41
200	13
209	2
210	13
211	31
212	10
213	5
224	10
225	23
226	5
240	5
241	20
242	108
243	51
244	18
245	5
254	7
255	20
256	150
257	36
258	13
266	7
267	31
268	178
269	51
270	67
271	20
272	5
309	7
310	25
311	5
325	10
326	23
327	243
328	90
329	51
330	15
331	5
388	1
389	7
390	25
391	4
392	1
401	1
402	3
403	9
404	34
405	2
406	0
413	1
414	4
415	12
416	43
417	15
418	4
419	1
420	0
431	2
432	3
433	16
434	6
435	2
436	1
444	1
445	4
446	20
447	7
448	2
449	0
472	0
473	3
474	10
475	72
476	16
477	4
478	1
479	4
480	1
515	0
516	1
517	8
518	53
519	21
520	1
