Mass Spectrum: Hexanoic acid, 2-[[[(dimethylamino)carbonyl]methylamino]carbonyl]-2-ethyl-3-methyl-, methyl ester
Formula: C15H28N2O4
CAS: 42948-65-2
Molecular weight: 300
m/z	intensity
44	219
45	19
71	29
72	999
73	29
111	449
112	21
129	149
130	11
139	149
140	13
171	339
172	31
199	99
200	11
230	99
231	8
241	29
242	7
256	89
257	11
269	29
270	6
300	9
301	4
