Mass Spectrum: Butanoic acid, 2-[[[(dimethylamino)carbonyl]methylamino]carbonyl]-2-ethyl-, methyl ester
Formula: C12H22N2O4
CAS: 42948-63-0
Molecular weight: 258
m/z	intensity
44	129
45	13
71	34
72	999
73	23
97	179
98	11
101	132
102	12
129	549
130	31
141	29
142	6
154	49
155	6
157	109
158	11
170	29
171	5
182	15
199	29
200	6
214	91
215	9
227	49
228	6
243	8
244	2
258	9
259	3
