Mass Spectrum: 1-Cyclohexene-1-acetic acid, .alpha.-[[[(dimethylamino)carbonyl]methylamino]carbonyl]-.alpha.-methyl-, methyl ester
Formula: C15H24N2O4
CAS: 42948-64-1
Molecular weight: 296
m/z	intensity
41	40
42	20
43	30
44	30
45	40
46	20
53	20
55	20
56	20
57	20
59	20
65	20
67	20
72	999
73	35
77	30
79	70
81	20
85	120
86	10
91	70
92	10
93	20
105	20
107	70
108	20
135	90
136	30
138	20
164	20
166	50
167	80
168	10
180	25
192	20
194	10
224	10
237	480
238	80
239	10
240	10
252	20
264	2
265	7
266	1
281	7
282	1
296	8
297	3
