Mass Spectrum: Propanediamide, 2,2-diethyl-N,N,N',N'-tetramethyl-
Formula: C11H22N2O2
CAS: 42948-58-3
Molecular weight: 214
m/z	intensity
41	70
42	40
43	20
44	100
45	30
46	20
55	50
56	20
58	20
69	40
72	999
73	40
83	30
97	50
98	30
114	30
117	20
126	20
128	30
142	430
143	50
154	20
169	100
170	120
171	15
184	2
185	2
186	3
199	10
200	1
214	10
215	2
