Mass Spectrum: 2-Pentanamine, N-ethyl-4-methyl-
Formula: C8H19N
CAS: 42966-64-3
Molecular weight: 129
m/z	intensity
12	1
13	1
14	3
15	40
16	5
26	5
27	101
28	84
29	85
30	81
31	2
32	1
37	1
38	2
39	44
40	8
41	95
42	68
43	94
44	261
45	30
46	6
47	1
48	1
49	1
50	1
51	2
52	1
53	6
54	4
55	11
56	33
57	14
58	56
59	2
65	1
66	1
67	2
68	3
69	14
70	13
71	7
72	999
73	51
74	1
80	1
81	1
82	2
83	1
84	5
85	5
86	7
87	1
88	1
91	1
92	1
93	1
94	1
95	1
96	1
97	1
98	3
99	1
100	1
101	1
112	2
113	1
114	62
115	5
116	1
128	5
129	8
130	1
