Mass Spectrum: Methanone, (2-benzyloxy-5-methoxyphenyl)(2-phenyl-1-oxiranyl]-
Formula: C23H20O4
CAS: 42972-55-4
Molecular weight: 360
m/z	intensity
33	0
34	0
36	0
37	1
38	5
39	29
40	4
41	11
42	1
43	2
44	2
45	1
46	0
49	0
50	9
51	32
52	8
53	10
54	3
55	4
56	0
57	1
58	0
59	1
60	0
61	1
62	6
63	32
64	22
65	91
66	7
67	1
68	0
69	4
70	0
71	0
72	0
73	0
74	2
75	4
76	8
77	60
78	8
79	24
80	3
81	1
82	2
83	1
84	0
85	0
86	0
87	1
89	43
91	999
92	114
93	7
94	3
95	4
96	0
97	0
98	0
99	0
100	0
101	0
102	3
103	10
104	6
105	47
106	14
107	27
108	5
109	1
110	0
111	1
112	0
113	0
114	0
115	5
116	1
118	12
119	5
120	4
121	2
122	5
123	3
124	0
125	0
126	0
127	1
128	1
129	1
130	0
131	1
132	1
133	1
134	2
135	20
136	2
137	1
138	0
139	3
140	1
141	3
142	1
143	0
144	0
145	0
146	0
147	1
148	4
150	101
151	77
152	11
153	6
154	1
155	0
156	0
157	0
158	0
159	0
160	0
161	1
163	78
164	8
165	5
166	2
167	4
168	2
169	1
170	1
171	0
175	0
176	1
177	7
178	2
179	4
180	4
181	25
182	5
183	1
184	0
185	1
186	0
189	0
190	0
191	0
192	1
193	1
194	0
195	1
196	0
197	5
198	2
199	0
202	0
205	0
206	0
207	0
208	0
209	6
210	41
211	12
212	2
213	15
214	11
215	1
216	0
221	0
222	0
223	0
224	0
225	1
226	1
227	1
228	0
235	0
236	0
237	1
238	1
239	1
240	3
241	29
242	4
243	0
244	0
249	0
251	2
252	8
253	35
254	69
255	12
256	1
257	0
265	0
267	1
269	43
270	7
271	1
272	0
282	0
283	0
303	0
311	0
313	0
314	1
315	0
325	0
326	0
327	0
329	0
331	7
332	1
333	0
341	0
342	1
343	1
344	1
345	0
358	0
360	18
361	4
362	0
