Mass Spectrum: Methanone, (2-benzyloxy-5-chlorophenyl)(2-phenyl-1-oxiranyl)-
Formula: C22H17ClO3
CAS: 42972-65-6
Molecular weight: 364
m/z	intensity
33	0
34	0
35	0
36	2
37	1
38	4
39	31
40	5
41	11
42	0
43	2
44	2
45	0
46	0
50	11
51	24
52	5
53	2
54	0
55	1
56	0
57	1
58	0
59	0
60	0
61	2
62	7
63	34
64	13
65	95
66	5
67	0
68	0
69	2
70	0
71	1
72	0
73	3
74	5
75	24
76	9
77	34
78	5
79	2
80	0
81	0
82	0
83	0
84	1
85	2
86	1
87	3
89	56
91	999
92	86
93	3
94	0
95	0
96	0
97	1
98	4
99	4
100	1
101	2
102	3
103	7
104	10
105	25
106	3
107	1
108	0
109	1
110	5
111	18
112	3
113	6
114	1
115	2
116	0
118	10
119	3
120	4
121	8
122	1
123	1
124	0
125	2
126	9
127	5
128	3
129	1
130	0
131	1
132	0
133	0
134	0
135	0
136	0
137	0
138	2
139	14
140	2
141	8
142	4
143	0
144	0
145	0
146	0
147	1
148	0
149	1
150	1
151	5
152	15
153	8
154	19
155	17
156	6
157	5
158	0
159	0
160	0
161	0
163	0
164	2
165	6
167	49
168	6
169	13
170	1
171	0
174	0
175	0
176	0
177	0
178	1
179	2
180	7
181	40
182	7
183	8
184	0
185	1
186	0
187	0
188	0
189	0
190	0
191	0
192	1
193	1
194	1
195	0
196	0
197	0
198	0
199	0
200	0
201	0
202	2
203	0
204	0
205	0
206	0
207	0
209	6
210	22
211	3
212	0
213	0
214	0
215	7
216	1
217	5
218	2
219	0
220	0
221	0
223	12
224	2
225	0
226	0
227	0
228	1
229	2
230	2
231	2
232	0
233	0
235	0
236	0
237	0
238	0
239	0
240	0
241	3
242	1
243	4
244	5
245	15
246	3
247	4
248	0
249	0
252	0
253	0
255	1
256	3
257	35
258	46
259	17
260	15
261	2
262	0
269	0
271	1
273	47
274	9
275	8
276	1
277	0
287	0
313	0
317	0
318	0
319	0
320	0
323	0
324	0
329	0
330	0
331	0
333	0
335	6
336	1
337	2
338	0
345	0
346	0
347	0
348	0
349	0
350	0
363	0
364	10
365	2
366	3
367	0
