Mass Spectrum: Cyclopropane, 1,2,3-trimethyl-
Formula: C6H12
CAS: 42984-19-0
Molecular weight: 84
m/z	intensity
24	5
25	1
26	38
27	239
28	34
29	133
30	3
31	0
35	0
36	0
37	8
38	18
39	224
40	37
41	999
42	140
43	168
44	4
49	3
50	22
51	32
52	11
53	85
54	21
55	228
56	123
57	19
58	0
59	0
61	1
62	3
63	6
64	1
65	11
66	5
67	46
68	12
69	492
70	33
71	34
72	1
74	0
77	1
79	1
81	1
82	0
83	2
84	231
85	13
86	3
