Mass Spectrum: Cyclobutanone, 2,2,4,4-tetramethyl-
Formula: C8H14O
CAS: 4298-75-3
Molecular weight: 126
m/z	intensity
41	190
42	380
43	10
55	130
70	999
71	60
83	110
84	10
126	130
127	10
