Mass Spectrum: Phosphorus(1+), amino[[diphenyl[(1-phenylethyl)amino]phosphoranylidene]amino]diphenyl-, chloride, (T-4)-
Formula: C32H32ClN3P2
CAS: 42998-82-3
Molecular weight: 555
m/z	intensity
78	999
79	548
80	631
105	155
106	353
107	379
108	929
109	196
110	155
111	83
122	12
124	695
125	108
126	370
162	86
184	370
185	76
186	203
198	208
199	137
200	452
201	170
202	61
245	76
264	113
278	91
306	70
308	47
321	118
323	402
324	118
338	71
339	71
384	63
392	58
400	496
414	113
428	75
429	63
445	109
455	105
486	75
493	63
505	193
521	210
527	178
