Mass Spectrum: (2E,4E)-1-(Piperidin-1-yl)deca-2,4-dien-1-one
Formula: C15H25NO
CAS: 42997-42-2
Molecular weight: 235
m/z	intensity
26	4
27	59
28	40
29	128
30	16
31	2
38	4
39	117
40	40
41	411
42	120
44	21
45	10
50	7
51	34
52	22
53	241
54	83
55	342
56	150
57	63
63	9
64	6
65	112
66	261
67	323
68	76
69	442
70	101
77	127
78	31
79	190
80	65
81	721
82	132
83	169
84	999
85	93
86	25
87	9
89	2
91	53
92	10
93	48
94	61
95	160
100	5
103	4
104	3
105	20
106	11
107	51
108	79
109	61
112	117
117	3
118	3
120	12
121	21
122	61
123	39
124	22
125	18
127	30
128	4
129	6
133	17
134	40
135	14
136	79
137	75
138	355
139	108
140	15
146	1
148	14
149	6
150	134
151	165
160	2
162	7
164	647
165	94
174	1
175	2
176	6
177	4
178	321
190	3
192	818
193	127
194	18
204	1
206	140
207	28
218	70
219	12
220	46
221	11
234	76
235	379
236	46
