Mass Spectrum: L-Tryptophan, methyl ester
Formula: C12H14N2O2
CAS: 4299-70-1
Molecular weight: 218
m/z	intensity
40	12
41	12
42	12
43	12
44	12
51	24
52	12
55	12
56	12
57	12
60	12
63	12
65	12
71	12
74	12
75	12
76	12
77	92
78	12
79	12
81	12
83	12
88	12
89	24
90	12
101	12
102	32
103	64
104	12
115	12
116	12
117	24
128	24
129	32
130	999
131	92
132	32
142	12
143	12
157	12
158	12
159	52
218	44
