Mass Spectrum: Arsine, ethyldifluoro-
Formula: C2H5AsF2
CAS: 430-40-0
Molecular weight: 142
m/z	intensity
75	153
76	84
77	18
88	72
89	125
94	976
95	337
100	82
101	187
102	237
103	243
104	47
113	999
114	169
121	23
123	661
124	13
142	868
143	27
