Mass Spectrum: N-(4-Methylphenyl)-N'-phenyl-urea
Formula: C14H14N2O
CAS: 4300-33-8
Molecular weight: 226
m/z	intensity
63	110
64	118
65	178
66	179
77	297
78	148
79	150
91	149
92	120
93	847
94	100
104	119
105	100
106	750
107	999
119	219
130	118
131	199
226	398
227	79
