Mass Spectrum: 2-Propanone, 1-(2-methoxyphenyl)-, oxime
Formula: C10H13NO2
CAS: 43021-97-2
Molecular weight: 179
m/z	intensity
39	190
40	80
41	170
42	110
50	70
51	190
52	110
55	100
63	100
65	230
77	210
78	190
79	70
89	90
90	60
91	999
92	130
93	60
103	50
105	50
106	50
107	150
108	70
118	70
119	90
120	70
121	240
122	130
130	70
131	90
132	120
146	130
147	100
148	740
149	70
162	50
179	170
