Mass Spectrum: 2-Chloromethyl-1,4-naphthoquinone
Formula: C11H7ClO2
CAS: 43027-41-4
Molecular weight: 206
m/z	intensity
35	26
36	42
37	71
38	195
39	467
40	20
41	22
42	12
43	134
44	13
45	4
47	8
48	5
49	59
50	688
51	171
52	34
53	60
54	2
55	15
56	5
57	83
58	12
59	3
60	6
61	39
62	103
63	178
64	27
65	72
66	47
67	52
68	4
69	12
70	1
71	105
72	14
73	95
74	325
75	347
76	999
77	187
78	15
79	81
80	2
81	29
82	1
83	4
84	5
85	26
86	58
87	91
88	81
89	201
90	21
91	4
92	6
93	8
94	1
95	2
96	1
97	10
98	20
99	17
100	8
101	73
102	18
103	10
104	388
105	134
106	9
107	1
108	1
109	5
110	9
111	20
112	3
113	81
114	298
115	964
116	108
117	13
118	1
119	2
120	1
121	2
122	2
123	5
124	1
125	10
126	9
127	20
128	10
129	42
130	6
131	6
132	3
133	5
136	3
138	1
139	6
141	4
142	44
143	908
144	103
145	7
146	1
147	4
148	2
149	25
150	8
151	8
152	3
153	11
154	2
155	7
156	3
157	15
158	4
159	5
160	3
161	2
163	2
164	3
165	1
167	4
169	5
170	9
171	223
172	54
173	7
177	7
178	437
179	48
180	135
181	14
182	2
183	2
184	2
186	1
187	3
188	25
189	3
191	2
192	15
193	2
194	4
198	1
205	2
206	868
207	105
208	283
209	31
210	3
