Mass Spectrum: 2-Chloroethyl isopropyl sulfide
Formula: C5H11ClS
CAS: 4303-41-7
Molecular weight: 138
m/z	intensity
32	122
35	89
39	518
41	983
43	999
45	389
47	320
49	168
55	84
58	137
59	358
60	182
61	103
63	160
75	61
76	29
77	16
89	245
90	38
96	178
97	88
98	84
99	46
103	40
123	185
125	65
138	176
139	27
140	78
141	23
