Mass Spectrum: Arnebin 7
Formula: C16H16O4
CAS: 43043-74-9
Molecular weight: 272
m/z	intensity
17	1
18	4
26	2
27	24
28	9
29	15
38	3
39	56
40	7
41	447
42	17
43	15
50	8
51	30
52	21
53	47
54	7
55	18
56	2
57	1
61	1
62	5
63	17
64	8
65	39
66	7
67	20
68	3
69	999
70	66
71	2
74	4
75	9
76	9
77	25
78	9
79	18
80	5
81	12
82	7
83	1
84	1
86	1
87	4
88	2
89	13
90	7
91	51
92	9
93	9
94	3
95	3
98	1
99	1
100	2
101	8
102	10
103	9
104	3
105	8
106	3
107	12
108	36
109	7
110	1
112	1
113	3
114	3
115	14
116	3
117	3
118	7
119	20
120	5
121	15
122	3
126	1
127	5
128	6
129	7
130	5
131	9
132	3
133	3
134	4
135	6
136	9
137	28
138	3
139	3
140	1
141	3
142	1
143	2
144	1
145	4
146	5
147	29
148	10
149	3
150	1
151	1
152	4
153	3
154	1
155	3
156	1
157	3
158	5
159	3
160	5
161	5
162	2
163	3
164	1
165	9
166	2
167	1
168	1
169	1
170	1
171	3
172	1
173	3
174	5
175	45
176	17
177	3
178	2
179	3
181	2
182	1
183	2
184	2
185	3
186	3
187	15
188	18
189	23
190	5
191	8
192	6
193	1
195	1
196	1
197	3
198	2
199	3
200	2
201	4
202	2
203	39
204	663
205	88
206	19
207	2
209	1
210	1
211	8
212	8
213	5
214	4
215	9
216	211
217	39
218	7
219	1
224	1
225	7
226	6
227	3
228	3
229	172
230	29
231	6
236	2
237	3
238	1
239	52
240	9
241	4
242	3
243	15
244	5
245	1
253	4
254	58
255	16
256	4
257	22
258	4
270	1
272	582
273	105
274	21
275	2
