Mass Spectrum: 2-Hexanone, 6-(acetyloxy)-
Formula: C8H14O3
CAS: 4305-26-4
Molecular weight: 158
m/z	intensity
41	60
42	30
43	999
44	30
55	70
56	100
57	20
58	50
59	30
61	50
71	30
83	50
97	20
98	170
99	20
101	60
