Mass Spectrum: .beta.-l-Mannopyranose, 6-deoxy-1,2-O-(1-methoxyethylidene)-, diacetate
Formula: C13H20O8
CAS: 4306-43-8
Molecular weight: 304
m/z	intensity
26	2
27	15
28	31
29	17
30	2
31	10
39	12
40	2
41	17
42	20
43	999
44	32
45	16
53	6
54	3
55	20
56	7
57	29
58	22
59	12
60	11
61	10
65	2
67	3
69	30
70	7
71	46
72	4
73	48
74	9
75	110
76	4
77	2
81	6
82	35
83	151
84	25
85	77
86	11
87	13
88	2
89	2
95	2
96	2
97	8
98	3
99	88
100	30
101	12
102	12
103	8
110	7
111	99
112	11
113	27
114	4
115	158
116	18
117	29
125	3
126	11
127	14
128	37
129	91
130	9
131	3
141	9
142	30
143	14
144	4
145	3
149	3
153	54
154	4
157	100
158	11
159	14
169	10
170	18
171	22
172	15
184	10
185	8
187	3
188	6
201	3
213	6
230	2
231	8
245	44
246	5
273	29
274	4
289	3
