Mass Spectrum: 2-Propenoic acid, pentadecyl ester
Formula: C18H34O2
CAS: 43080-23-5
Molecular weight: 282
m/z	intensity
39	120
40	23
41	362
42	135
43	460
44	51
45	57
49	9
50	58
51	90
52	30
53	45
54	79
55	999
56	268
57	362
58	22
59	8
61	8
62	12
63	40
64	16
65	17
66	10
67	80
68	120
69	338
70	250
71	155
72	150
73	360
74	75
75	60
76	60
77	28
78	20
79	15
81	50
82	128
83	331
84	150
85	92
86	12
87	10
95	42
96	77
97	231
98	85
99	40
100	10
105	8
109	20
110	40
111	122
112	48
113	95
114	45
115	5
121	5
122	5
123	12
124	30
125	65
126	35
127	105
137	8
138	12
139	20
140	20
141	6
142	5
143	2
151	2
152	3
153	17
154	11
155	4
165	4
166	6
167	6
181	6
182	21
183	6
210	25
211	6
