Mass Spectrum: N-Formyl-dl-methionine
Formula: C6H11NO3S
CAS: 4309-82-4
Molecular weight: 177
m/z	intensity
14	4
15	31
16	2
17	2
18	7
26	15
27	158
28	475
29	105
30	84
31	9
32	5
33	3
34	5
35	95
36	2
37	6
38	8
39	64
40	9
41	198
42	125
43	38
44	51
45	174
46	100
47	214
48	54
49	54
50	3
51	4
52	9
53	6
54	75
55	88
56	343
57	169
58	20
59	59
60	23
61	852
62	229
63	43
64	9
66	1
67	3
68	9
69	5
70	86
71	17
72	21
73	22
74	130
75	999
76	42
77	47
78	1
82	3
83	58
84	177
85	835
86	75
87	81
88	124
89	11
90	7
91	1
96	2
97	1
98	123
99	25
100	20
101	15
102	37
103	790
104	63
105	8
106	3
111	71
112	18
113	3
114	40
115	4
116	166
117	23
118	4
119	1
128	1
129	12
130	69
131	20
132	37
133	4
134	2
144	4
148	4
149	3
150	1
159	14
160	2
162	1
177	237
178	18
179	11
