Mass Spectrum: Cyanoarsine, bis(trifluoromethyl)-
Formula: C3AsF6N
CAS: 431-96-9
Molecular weight: 239
m/z	intensity
50	26
69	999
75	165
88	53
94	381
101	438
106	23
113	473
120	436
125	150
126	7
132	22
135	12
137	9
144	610
151	116
163	28
170	126
171	4
189	81
190	3
213	14
220	59
221	3
239	4
240	4
