Mass Spectrum: 2-Butenoic acid, 3-amino-, phenylmethyl ester
Formula: C11H13NO2
CAS: 43107-11-5
Molecular weight: 191
m/z	intensity
26	2
27	12
28	58
29	17
30	25
31	0
37	0
38	4
39	48
41	33
42	104
43	6
44	7
50	5
51	23
52	7
53	1
54	10
55	4
56	5
57	609
58	42
59	0
61	0
62	3
63	17
64	5
65	127
66	6
67	2
68	13
69	0
70	2
73	0
74	0
76	0
77	17
78	2
83	6
84	693
85	49
86	4
89	24
90	9
91	999
92	68
93	1
96	1
100	0
101	0
103	1
104	4
105	21
106	15
114	0
115	0
116	0
117	1
118	2
128	1
129	5
130	5
131	7
132	4
133	0
144	8
145	1
146	25
147	3
148	0
158	0
163	11
164	0
172	3
173	2
174	1
176	0
190	2
191	248
192	35
193	2
