Mass Spectrum: Cyclohexanone, 2-(2-methylpropylidene)-
Formula: C10H16O
CAS: 43108-69-6
Molecular weight: 152
m/z	intensity
26	50
27	586
28	141
29	231
30	6
31	11
36	1
37	13
38	38
39	564
40	124
41	981
42	94
43	319
44	10
45	20
46	6
47	5
48	3
49	5
50	55
51	125
52	68
53	323
54	110
55	507
56	173
57	68
58	9
59	13
60	8
61	8
62	12
63	41
64	8
65	115
66	78
67	999
68	209
69	185
70	47
71	51
72	13
73	10
74	10
75	4
76	3
77	142
78	37
79	412
80	76
81	867
82	246
83	93
84	212
85	15
86	4
87	3
89	5
90	2
91	160
92	29
93	323
94	49
95	414
96	137
97	502
98	54
99	3
101	2
102	2
103	6
104	2
105	49
106	33
107	42
108	126
109	819
110	97
111	42
112	5
115	5
116	2
117	8
118	1
119	60
120	8
121	9
122	4
123	108
124	159
125	15
126	2
127	2
129	2
131	5
133	20
134	6
135	18
136	3
137	318
138	34
151	87
152	750
153	96
154	4
