Mass Spectrum: N-Methyl-1,2,3,4-tetra-O-acetyl-beta-d-glucopyranuronamide
Formula: C15H21NO10
CAS: 4310-09-2
Molecular weight: 375
m/z	intensity
12	3
13	6
14	69
15	47
16	3
17	27
18	2
24	2
25	6
26	15
27	20
28	156
29	30
30	26
31	10
32	7
33	1
36	1
37	4
38	10
39	27
40	36
41	109
42	307
43	999
44	64
45	67
46	1
47	1
49	2
50	9
51	6
52	6
53	6
54	7
55	20
56	15
57	34
58	121
59	6
60	82
61	29
62	1
63	2
64	3
65	2
66	5
67	5
68	31
69	48
70	8
71	44
72	7
73	95
74	9
75	2
76	3
77	2
78	1
79	3
80	7
81	6
82	5
83	17
84	37
85	327
86	69
87	9
88	55
89	205
90	8
91	2
92	1
93	2
94	3
95	19
96	300
97	275
98	25
99	9
100	23
101	60
102	147
103	87
104	5
105	2
106	1
107	6
108	4
109	12
110	9
111	5
112	30
113	93
114	121
115	312
116	21
117	385
118	29
119	4
120	1
121	2
122	1
123	8
124	10
125	38
126	55
127	51
128	30
129	4
130	63
131	68
132	5
133	1
135	1
136	1
137	3
138	196
139	308
140	27
141	6
142	43
143	178
144	75
145	81
146	9
147	1
148	3
149	1
151	1
152	6
153	18
154	96
155	203
156	75
157	106
158	9
159	13
160	8
161	3
166	2
167	4
168	46
169	14
170	19
171	38
172	130
173	41
174	4
175	1
183	1
184	9
185	28
186	11
187	1
188	26
189	4
190	7
195	2
196	13
197	209
198	222
199	47
200	6
201	2
202	3
203	12
204	1
206	7
207	1
210	1
211	2
212	9
213	45
214	45
215	319
216	33
217	6
226	1
227	16
228	4
229	1
230	11
231	43
232	10
233	2
244	3
245	19
246	2
248	3
255	40
256	11
257	5
258	54
259	7
260	2
272	3
273	48
274	11
275	5
286	1
290	1
315	15
316	16
317	61
318	9
319	1
333	1
376	1
