Mass Spectrum: 2-Aminophenol, 2TMS derivative
Formula: C12H23NOSi2
CAS: 43112-53-4
Molecular weight: 253
m/z	intensity
27	1
28	1
29	4
31	2
39	2
41	1
42	1
43	18
44	10
45	104
46	6
47	5
50	1
51	2
52	2
53	3
54	1
55	4
56	2
57	5
58	6
59	13
60	2
61	2
63	2
64	2
65	4
66	1
67	2
68	1
69	2
70	3
71	2
72	6
73	999
74	78
75	37
76	2
77	6
78	3
79	3
80	2
81	1
82	1
83	3
84	4
85	2
86	1
87	1
89	2
90	1
91	8
92	4
93	2
94	1
95	2
96	4
98	1
100	2
101	1
102	2
103	2
104	3
105	4
106	7
107	2
108	1
109	1
111	1
115	2
116	1
117	2
118	2
119	3
120	3
121	3
122	1
123	1
130	1
131	6
132	5
133	4
134	6
135	55
136	10
137	3
145	1
146	3
147	16
148	14
149	7
150	153
151	19
152	6
153	1
158	1
160	2
161	1
162	4
163	2
164	8
165	21
166	6
167	1
176	1
177	1
178	10
179	3
180	5
181	4
182	1
190	1
192	1
193	1
194	2
195	1
204	1
205	1
206	1
207	1
208	4
209	1
218	1
220	2
222	12
223	3
224	1
236	3
237	2
238	39
239	8
240	3
253	347
254	73
255	26
256	4
