Mass Spectrum: 2-Hexenoic acid, 5-hydroxy-
Formula: C6H10O3
CAS: 43112-27-2
Molecular weight: 130
m/z	intensity
26	18
27	124
28	17
29	86
30	6
31	48
37	11
38	31
39	214
40	94
41	243
42	65
43	277
44	48
45	928
46	25
49	12
50	9
51	18
52	6
53	20
54	7
55	61
56	17
57	57
58	29
59	32
60	20
61	12
63	8
65	15
66	10
67	40
68	644
69	212
70	28
71	59
72	11
73	23
77	15
78	7
79	13
81	18
82	12
83	27
84	17
85	30
86	999
87	64
88	9
91	18
93	10
95	22
96	9
97	119
98	15
99	8
100	152
101	24
111	16
112	22
113	37
114	8
115	24
116	2
128	1
129	12
130	10
131	3
