Mass Spectrum: Oxetano[2,3-c]indane, perhydro-6,6,8a-trimethyl-
Formula: C13H22O
CAS: 43125-92-4
Molecular weight: 194
m/z	intensity
27	29
28	18
29	91
30	70
31	4
39	64
40	10
41	186
42	10
43	32
44	325
45	5
50	5
51	26
52	14
53	73
54	8
55	98
56	9
57	14
58	5
59	9
63	13
64	6
65	51
66	14
67	111
68	27
69	321
70	27
71	11
76	4
77	159
78	37
79	261
80	40
81	153
82	28
83	24
89	6
91	189
92	43
93	319
94	329
95	999
96	150
97	18
102	4
103	16
104	9
105	104
106	32
107	244
108	433
109	74
110	10
111	3
115	20
116	8
117	19
118	6
119	44
120	39
121	137
122	30
123	24
124	7
127	5
128	16
129	13
130	4
131	10
132	5
133	22
134	6
135	22
136	42
137	9
138	7
141	5
142	4
143	4
145	3
147	27
148	11
149	599
150	81
151	10
155	3
156	4
159	3
161	40
162	17
163	511
164	384
165	40
166	5
167	5
176	35
177	8
178	6
179	13
180	3
194	35
195	5
