Mass Spectrum: Methyl 1,2-diphenyl-3-hydroxy-cyclopropene-3-carboxylate
Formula: C17H14O3
CAS: 43123-04-2
Molecular weight: 266
m/z	intensity
27	38
29	52
38	23
39	95
45	81
50	80
51	152
52	43
59	61
62	45
63	102
73	88
74	105
75	123
76	206
77	49
86	47
87	64
88	53
89	104
98	52
99	37
101	40
102	61
105	999
106	100
113	34
115	42
121	37
126	105
127	36
128	31
129	77
138	26
139	79
145	24
150	105
151	184
152	259
153	46
161	23
163	35
165	57
167	82
176	340
177	290
178	998
179	462
180	62
189	39
190	14
194	25
195	75
205	85
206	41
207	217
208	44
221	24
222	12
223	95
224	17
233	35
234	154
235	48
236	19
237	35
238	30
249	258
250	64
251	441
252	89
253	14
265	22
266	420
267	92
268	14
