Mass Spectrum: Propanoic acid, 2-methyl-2-(acetylamino)-, methyl ester
Formula: C7H13NO3
CAS: 43135-06-4
Molecular weight: 159
m/z	intensity
26	3
27	16
28	28
29	14
30	13
31	4
33	2
38	3
39	27
40	9
41	74
42	171
43	192
44	10
45	3
52	1
53	2
54	4
55	17
56	18
57	35
58	999
59	47
60	19
65	1
67	3
68	2
69	34
70	14
71	7
72	7
73	19
74	3
76	1
77	2
79	2
81	3
82	2
83	5
84	10
85	3
86	2
88	2
91	2
93	2
95	3
97	3
98	4
99	13
100	427
101	36
102	129
103	7
104	2
105	2
107	1
109	2
110	1
111	4
114	4
115	1
116	7
117	1
128	5
129	3
144	2
159	4
