Mass Spectrum: N-Acetyl-1,1-dimethyl-2-carbomethoxyethylamine
Formula: C8H15NO3
CAS: 43135-04-2
Molecular weight: 173
m/z	intensity
43	241
44	61
45	5
58	999
59	123
60	621
61	32
62	3
73	181
74	41
82	151
83	421
84	247
85	19
100	283
101	41
114	261
115	53
116	613
117	53
118	8
141	19
142	101
143	21
158	61
159	12
173	93
174	19
175	1
