Mass Spectrum: 4-(Benzyloxy-methyl)-2,2,5-trimethyl-[1,3]dioxolane
Formula: C14H20O3
CAS: 43137-00-4
Molecular weight: 236
m/z	intensity
26	2
27	23
28	1
29	30
30	1
31	34
38	2
39	42
40	6
41	53
42	24
43	218
44	10
45	45
46	1
49	6
50	7
51	22
52	7
53	5
54	5
55	40
56	9
57	81
58	67
59	309
60	12
61	6
62	3
63	14
64	5
65	80
66	5
69	5
70	4
71	17
72	22
73	8
74	2
75	5
76	2
77	29
78	9
79	26
80	2
83	3
84	4
85	15
86	36
87	10
88	1
89	27
90	16
91	999
92	141
93	8
97	27
98	2
99	4
100	7
101	15
103	1
104	33
105	49
106	9
107	141
108	22
109	2
110	2
111	1
113	2
114	4
115	282
116	21
117	4
118	6
119	4
120	6
121	5
122	5
123	4
128	1
129	2
131	20
132	3
133	6
134	31
135	3
145	9
147	1
148	1
149	5
159	1
160	35
161	6
162	1
163	2
177	14
178	73
179	9
180	9
181	1
191	0
221	126
222	19
223	2
