Mass Spectrum: 1,3-Dioxolane-4-methanol, 2-ethenyl-
Formula: C6H10O3
CAS: 4313-32-0
Molecular weight: 130
m/z	intensity
13	6
14	27
15	183
25	15
26	132
27	435
28	568
29	638
30	54
31	350
37	19
38	49
39	253
40	77
41	706
42	185
43	462
44	223
45	127
46	7
47	111
49	2
50	3
51	6
52	4
53	20
54	16
55	371
56	529
57	999
58	56
59	18
60	4
61	7
62	3
63	1
67	6
68	5
69	53
70	37
71	92
72	29
73	57
74	124
75	18
80	12
81	19
82	15
83	4
84	1
85	6
86	4
87	6
88	3
97	3
98	1
99	348
100	35
101	29
103	250
104	11
105	3
129	59
130	14
131	3
