Mass Spectrum: N-[3-(2-Oxopyrrolidin-1-yl)-propyl]-2-(2-([3-(2-oxopyrrolidin-1-yl)-propylcarbamoyl]-methoxy)-ethoxy)-acetamide
Formula: C20H34N4O6
CAS: 43133-02-4
Molecular weight: 426
m/z	intensity
26	20
27	57
28	62
29	64
30	131
31	32
39	45
41	273
42	102
43	111
44	227
45	128
53	15
54	32
55	103
56	193
57	87
58	55
59	19
60	20
67	36
68	63
69	180
70	297
71	69
72	61
73	55
74	15
75	16
77	12
78	10
80	15
81	56
82	26
83	56
84	84
85	45
86	114
87	49
88	40
89	11
90	11
91	14
92	15
93	12
95	38
96	46
97	65
98	546
99	214
100	49
101	24
102	41
103	20
104	12
105	11
106	9
109	23
110	20
111	33
112	999
113	84
114	43
115	38
116	39
117	19
118	10
120	20
121	15
122	18
123	50
124	143
125	122
126	712
127	68
128	36
129	20
130	11
131	20
132	12
133	33
134	24
135	10
137	12
138	12
139	52
140	45
141	92
142	221
143	116
144	16
145	12
146	27
147	19
152	11
153	23
154	21
155	241
156	46
157	14
158	11
159	12
160	25
161	16
164	12
167	9
168	10
169	318
170	112
171	39
172	19
174	17
181	16
182	122
183	42
184	73
185	32
186	14
190	15
191	27
196	15
197	15
198	57
199	993
200	203
201	75
202	15
203	18
204	31
205	9
212	11
213	43
214	15
217	46
218	12
223	15
224	18
225	42
226	81
227	165
228	173
229	25
230	13
232	10
240	16
241	28
242	15
243	29
244	14
245	274
246	43
247	12
256	12
257	137
258	154
259	36
270	20
271	20
272	10
284	16
285	13
300	11
302	30
314	11
315	242
316	48
317	10
323	12
328	474
329	127
330	28
342	20
425	14
426	253
427	79
428	14
