Mass Spectrum: 4,6-Nonadien-8-yn-3-ol, (E,E)-
Formula: C9H12O
CAS: 43142-42-3
Molecular weight: 136
m/z	intensity
51	57
52	89
53	142
57	177
63	78
65	136
66	21
77	999
78	136
79	478
80	10
91	93
93	21
103	27
105	40
107	531
117	38
118	17
119	21
136	212
137	7
