Mass Spectrum: 3,5-Nonadien-7-yn-2-ol, (E,E)-
Formula: C9H12O
CAS: 43142-43-4
Molecular weight: 136
m/z	intensity
43	999
44	12
45	16
50	36
51	130
52	40
53	112
63	77
65	149
77	502
78	81
79	116
80	53
91	510
93	265
119	59
121	285
135	61
136	204
