Mass Spectrum: 3-(2-Ethoxycarbonyl-ethyl)-4-methyl-1H-pyrrole-2-carboxylic acid, ethyl ester
Formula: C13H19NO4
CAS: 43142-35-4
Molecular weight: 253
m/z	intensity
25	2
26	64
27	418
28	206
29	999
30	29
31	43
37	4
38	18
39	91
40	19
41	36
42	78
43	69
44	6
45	90
46	3
47	2
48	1
49	3
50	25
51	56
52	62
53	63
54	13
55	16
56	1
57	2
58	2
59	4
60	1
61	2
62	5
63	20
64	22
65	103
66	57
67	29
68	4
69	2
71	3
72	2
73	2
74	4
75	11
76	12
77	111
78	65
79	102
80	55
81	12
82	7
83	3
84	2
85	2
86	3
87	2
88	2
89	2
90	4
91	27
92	40
93	57
94	64
95	5
96	4
97	2
99	7
100	4
102	6
103	8
104	59
105	50
106	128
107	89
108	80
109	31
110	12
111	1
112	1
114	2
115	5
116	3
117	4
118	5
119	60
120	269
121	32
122	82
123	11
124	7
125	6
126	9
129	3
131	5
132	56
133	235
134	227
135	49
136	48
137	13
138	124
139	9
140	4
141	4
142	3
144	5
145	3
146	3
147	3
148	4
150	63
151	49
152	29
153	29
154	6
155	4
156	4
157	4
158	5
160	18
161	6
162	4
163	3
164	5
165	63
166	351
167	37
168	2
170	3
171	2
173	2
174	2
176	2
178	104
179	932
180	293
181	35
182	8
183	1
184	0
186	1
187	1
188	0
190	1
192	1
193	1
194	1
195	2
196	1
199	2
200	2
202	2
203	1
204	1
205	2
206	14
207	25
208	153
209	20
210	1
211	1
212	1
214	1
215	1
217	1
218	2
220	1
222	2
223	1
224	1
225	3
226	0
228	0
229	0
231	1
232	0
234	0
236	0
237	0
240	1
242	1
243	1
245	1
246	2
247	2
248	2
250	4
251	5
252	8
253	366
254	52
255	6
