Mass Spectrum: N-Ethylnicotinamide
Formula: C8H10N2O
CAS: 4314-66-3
Molecular weight: 150
m/z	intensity
14	2
15	10
17	2
18	7
25	2
26	14
27	45
28	29
29	47
30	10
37	5
38	9
39	16
40	6
41	7
42	14
43	6
44	52
45	2
49	9
50	72
51	248
52	59
53	19
54	2
55	1
56	1
57	1
61	1
62	1
63	2
64	3
65	4
66	5
67	9
68	2
72	5
74	1
75	7
76	12
77	26
78	543
79	78
80	11
81	2
92	2
93	10
94	10
95	3
104	5
105	28
106	999
107	77
108	9
109	1
110	1
117	1
119	1
120	1
121	4
122	7
123	12
124	1
131	6
132	3
133	4
134	2
135	48
136	4
148	8
149	370
150	503
151	54
152	4
