Mass Spectrum: Methylamine, N-heptafluorobutyryl-
Formula: C5H4F7NO
CAS: 4314-42-5
Molecular weight: 227
m/z	intensity
15	28
27	4
28	66
29	14
30	6
31	18
32	1
33	3
40	1
41	1
42	1
43	2
44	4
45	1
46	3
47	1
50	13
51	4
54	1
55	1
56	12
58	999
59	28
60	8
61	2
62	3
63	1
64	1
65	1
69	207
70	5
71	3
74	2
75	1
76	2
77	2
78	20
79	5
80	12
81	11
82	1
88	1
90	22
91	3
92	2
93	8
95	1
96	1
98	1
100	85
101	2
107	1
108	20
109	27
110	6
111	5
112	2
119	68
120	3
122	1
126	1
128	27
129	1
130	2
131	8
138	1
140	1
146	3
148	1
150	6
151	2
158	1
159	2
160	26
161	1
169	217
170	7
180	156
181	8
208	121
209	7
210	1
226	88
227	11
228	5
