Mass Spectrum: 3-Piperidinone, 1,6-dimethyl-
Formula: C7H13NO
CAS: 43152-92-7
Molecular weight: 127
m/z	intensity
41	109
42	282
43	122
44	104
53	22
54	22
55	49
56	313
57	29
70	78
71	404
72	33
82	16
84	999
85	69
96	11
98	54
112	97
126	18
127	346
128	27
