Mass Spectrum: 3-Piperidinone, 1-ethyl-
Formula: C7H13NO
CAS: 43152-93-8
Molecular weight: 127
m/z	intensity
14	3
15	28
26	9
27	53
28	82
29	43
30	28
31	1
39	42
40	12
41	110
42	334
43	418
44	18
48	2
50	1
51	2
52	3
53	5
54	14
55	36
56	74
57	29
58	10
65	1
67	3
68	11
69	12
70	38
71	171
72	14
77	1
79	2
80	2
81	1
82	8
83	4
84	999
85	59
86	2
91	2
92	1
94	1
96	8
97	4
98	144
99	85
100	6
107	2
108	3
109	1
110	2
111	2
112	45
113	3
114	4
125	2
126	18
127	331
128	31
129	3
