Mass Spectrum: Methyl 8-oxooctanoate
Formula: C9H16O3
CAS: 4316-48-7
Molecular weight: 172
m/z	intensity
25	4
26	24
27	282
29	280
30	17
31	182
33	12
34	2
35	3
37	5
38	11
39	238
40	52
41	673
42	140
43	557
44	182
45	126
46	4
47	7
48	4
49	49
50	8
51	21
52	11
53	74
54	89
55	493
56	94
57	315
58	40
59	352
60	18
61	15
62	2
63	5
64	3
65	15
66	14
67	137
68	230
69	727
70	85
71	76
72	12
73	68
74	999
75	94
76	9
77	15
78	7
79	47
80	72
81	133
82	22
83	108
84	137
85	45
86	23
87	954
88	101
89	11
90	2
91	21
92	6
93	20
94	52
95	315
96	87
97	452
98	109
99	31
100	8
101	160
102	14
103	4
105	7
106	9
107	3
109	5
110	9
111	39
112	89
113	35
114	6
115	43
116	11
117	2
121	6
122	44
123	14
124	23
125	5
126	4
127	8
128	23
129	623
130	58
131	7
138	5
139	12
140	42
141	340
142	44
143	10
144	195
145	20
146	2
149	2
154	23
155	5
157	2
170	1
172	2
