Mass Spectrum: 3-[4-Diethylamino-1-methylbutylamino]-1-methoxy naphthalene
Formula: C20H30N2O
CAS: 43171-56-8
Molecular weight: 314
m/z	intensity
41	77
42	98
43	54
44	63
45	1
46	6
47	0
49	8
51	8
52	1
53	6
54	10
56	100
58	195
59	5
62	0
63	8
64	1
65	4
67	8
68	6
69	28
70	34
71	45
72	79
73	99
74	8
75	1
76	5
77	8
78	0
79	4
80	4
81	2
82	8
84	53
86	999
87	49
88	6
89	5
90	0
91	6
93	3
94	1
95	2
96	5
99	105
100	14
101	10
102	12
103	7
104	1
105	1
106	1
108	1
110	5
112	109
113	36
114	56
115	38
116	7
117	2
118	1
121	0
124	2
126	45
127	18
128	13
129	3
130	24
131	5
132	0
135	0
137	0
140	31
142	49
143	14
145	36
146	3
150	12
151	0
152	4
153	3
154	8
156	23
157	27
158	27
159	33
160	5
165	2
166	1
167	11
168	12
169	7
170	6
171	7
173	36
174	21
175	3
176	0
177	1
178	1
180	9
181	3
182	3
183	6
184	16
185	16
186	13
187	2
188	0
193	0
194	3
195	0
196	7
198	31
200	115
201	14
202	1
203	0
204	2
208	1
209	0
210	3
211	3
212	8
213	14
214	6
215	3
223	3
224	4
226	86
227	2
228	27
229	3
230	0
237	3
238	0
239	1
240	85
241	33
242	50
243	10
244	2
252	0
254	1
255	1
256	0
266	0
270	0
285	6
286	2
299	8
300	1
301	0
302	0
312	1
313	14
314	749
315	155
316	26
317	1
