Mass Spectrum: 4H-1,3-Benzodioxin, 2-phenyl-
Formula: C14H12O2
CAS: 43186-35-2
Molecular weight: 212
m/z	intensity
50	82
51	227
52	164
53	18
63	54
74	27
75	17
76	36
77	354
78	999
79	54
89	18
91	27
105	427
106	791
107	91
212	309
213	45
