Mass Spectrum: 4H-1,2,4-Triazole, 4-ethyl-
Formula: C4H7N3
CAS: 43183-55-7
Molecular weight: 97
m/z	intensity
27	120
28	260
29	180
40	80
41	60
42	150
43	50
44	20
55	120
56	100
69	80
70	60
82	280
83	10
97	999
98	60
