Mass Spectrum: D-Ribo-Hexitol, 2-(acetylamino)-1,5-anhydro-2,3-dideoxy-, 4,6-diacetate
Formula: C12H19NO6
CAS: 43180-03-6
Molecular weight: 273
m/z	intensity
43	990
44	999
45	230
53	100
54	160
55	490
56	410
57	490
58	230
59	110
60	910
61	780
62	100
66	60
67	200
68	200
69	400
70	270
71	230
72	280
73	130
74	60
77	50
79	70
80	160
81	760
82	430
83	320
84	230
85	610
86	320
87	50
88	50
91	50
93	90
94	999
95	400
96	500
97	200
98	400
99	170
100	170
101	70
102	70
107	40
109	90
110	160
111	230
112	280
113	130
114	410
115	100
116	90
117	400
118	40
123	70
124	70
125	70
126	40
127	40
128	170
129	40
135	70
137	40
138	50
139	50
140	230
141	200
142	410
143	60
145	50
149	60
152	40
153	560
154	280
155	180
156	180
158	180
170	60
171	60
172	150
173	50
183	160
189	40
190	400
197	230
200	200
213	30
273	100
