Mass Spectrum: Pyridine, 2,5-diamino-
Formula: C5H7N3
CAS: 4318-76-7
Molecular weight: 109
m/z	intensity
14	2
15	3
16	4
25	2
26	8
27	18
28	65
29	17
30	3
39	18
40	26
41	47
42	26
43	13
44	4
50	6
51	13
52	54
53	47
54	170
55	108
56	44
57	4
62	1
63	3
64	5
65	14
66	13
67	9
68	13
69	33
70	2
71	1
76	2
77	4
78	5
79	7
80	12
81	114
82	172
83	12
91	2
92	9
93	6
94	3
95	1
107	4
108	83
109	999
110	68
111	2
