Mass Spectrum: Pyrimidine, 5-bromo-4,6-dimethoxy-
Formula: C6H7BrN2O2
CAS: 4319-77-1
Molecular weight: 218
m/z	intensity
33	11
34	44
36	5
38	128
40	97
41	106
42	387
43	166
44	230
45	17
46	6
48	20
50	16
51	45
52	123
53	94
54	146
55	122
57	145
58	26
59	11
64	23
65	20
66	67
67	94
68	111
69	70
70	53
71	18
77	25
79	51
80	47
81	145
82	999
83	138
84	52
85	31
91	19
93	50
95	25
96	26
97	21
98	39
99	29
105	21
107	22
108	112
109	71
110	48
111	22
112	13
117	45
118	14
119	76
120	36
121	31
122	25
123	4
130	9
133	17
134	22
135	8
138	28
139	31
140	4
145	43
146	23
147	52
148	54
149	12
150	29
151	9
152	6
158	3
160	23
161	3
162	15
171	9
176	6
178	15
179	5
188	187
189	96
190	168
191	105
217	403
218	384
219	381
220	438
221	27
