Mass Spectrum: 2-Cyclohexene-1-carboxaldehyde, 2,6,6-trimethyl-
Formula: C10H16O
CAS: 432-24-6
Molecular weight: 152
m/z	intensity
26	9
27	199
28	62
29	178
30	6
31	6
37	3
38	12
39	283
40	52
41	483
42	31
43	314
44	15
45	12
50	19
51	63
52	26
53	156
54	22
55	234
56	79
57	149
58	9
59	31
60	4
61	2
62	6
63	23
64	6
65	93
66	28
67	317
68	69
69	141
70	21
71	8
72	3
74	3
75	4
76	3
77	138
78	30
79	162
80	27
81	999
82	109
83	38
84	38
85	11
87	1
89	4
90	1
91	161
92	26
93	113
94	427
95	333
96	167
97	66
98	7
99	3
102	2
103	10
104	7
105	42
106	10
107	192
108	51
109	210
110	26
111	6
112	1
113	1
115	3
117	3
118	1
119	73
120	31
121	241
122	32
123	756
124	73
125	9
131	0
133	1
134	27
135	6
136	1
137	50
138	17
139	2
151	1
152	77
153	11
154	0
