Mass Spectrum: 1H-Pyrazole, 4,5-dihydro-5,5-dimethyl-
Formula: C5H10N2
CAS: 4320-85-8
Molecular weight: 98
m/z	intensity
26	19
27	100
28	244
29	65
30	36
38	15
39	110
40	32
41	166
42	500
43	75
50	9
51	13
52	8
53	26
54	26
55	19
56	234
57	24
58	7
66	9
67	10
68	12
81	19
82	5
83	999
84	52
97	6
98	301
99	26
