Mass Spectrum: (1R,4S,5S)-1,8-Dimethyl-4-(prop-1-en-2-yl)spiro[4.5]dec-7-ene
Formula: C15H24
CAS: 43219-80-3
Molecular weight: 204
m/z	intensity
27	33
29	43
30	2
37	1
38	2
39	129
40	28
41	279
42	31
43	63
44	4
45	1
50	12
51	52
52	27
53	165
54	19
55	286
56	70
57	32
58	2
59	2
62	4
63	26
64	13
65	127
66	34
67	245
68	139
69	289
70	45
71	15
74	3
75	5
76	8
77	305
78	73
79	431
80	65
81	173
82	79
83	45
84	6
86	2
87	1
89	16
90	4
91	469
92	157
93	544
94	120
95	107
96	8
97	11
98	1
101	2
102	6
103	60
104	51
105	783
106	155
107	258
108	51
109	91
110	19
111	111
112	12
114	1
115	122
116	42
117	219
118	98
119	999
120	179
121	664
122	128
123	10
124	2
126	2
127	17
128	64
129	54
130	21
131	164
132	72
133	181
134	155
135	36
139	3
141	20
142	9
143	19
144	8
145	71
146	79
147	394
148	94
149	9
150	3
152	3
153	3
154	1
155	1
156	2
157	4
158	3
159	45
160	13
161	145
162	27
163	5
164	1
165	1
171	1
172	2
173	4
174	1
187	28
188	4
189	29
190	2
191	1
202	33
203	7
204	92
205	11
206	1
