Mass Spectrum: 2-Bromopropionic acid, 2-phenylethyl ester
Formula: C11H13BrO2
CAS: 43216-34-8
Molecular weight: 256
m/z	intensity
25	3
26	29
27	132
28	3
29	23
39	65
40	7
41	25
42	3
43	8
50	32
51	86
52	33
53	12
54	5
55	45
56	81
57	20
58	3
59	2
60	2
61	4
62	11
63	37
64	8
65	81
66	8
69	3
70	9
71	4
73	3
74	7
75	6
76	5
77	98
78	54
79	66
80	7
81	4
82	2
83	3
85	3
86	3
88	3
89	24
90	14
91	355
92	42
93	4
101	3
102	10
103	63
104	999
105	300
106	22
107	90
108	4
109	87
110	2
117	2
119	2
120	5
121	4
122	3
135	37
136	4
137	36
