Mass Spectrum: 2,4-Nonadien-6-yn-1-ol, (E,E)-
Formula: C9H12O
CAS: 43212-86-8
Molecular weight: 136
m/z	intensity
51	475
52	167
53	232
54	10
63	178
65	340
77	891
78	918
79	945
80	27
91	999
93	243
103	205
105	324
106	43
107	281
115	118
116	43
117	216
118	75
119	135
121	32
133	756
134	75
135	194
136	540
