Mass Spectrum: 1-Acetyl-2,2,6,6-tetramethyl-4-acetyloxypiperidyne
Formula: C13H23NO3
CAS: 43224-65-3
Molecular weight: 241
m/z	intensity
36	1
38	5
39	72
40	26
41	241
42	242
43	688
44	95
45	73
46	27
50	6
51	10
52	2
53	34
54	7
55	180
56	99
57	152
58	210
59	20
60	48
61	2
63	3
64	1
65	18
66	4
67	67
68	23
69	53
70	45
71	59
72	37
73	30
74	4
75	1
76	2
77	20
78	7
79	29
80	9
81	49
82	74
83	88
84	61
85	68
86	32
87	7
91	31
92	7
93	15
94	11
95	23
96	23
97	31
98	33
99	22
100	94
101	26
102	2
103	2
104	2
105	27
107	119
108	27
109	18
110	16
111	14
112	9
113	8
115	6
117	2
119	11
120	7
121	13
122	17
124	999
125	87
126	9
127	7
128	6
129	1
131	3
133	4
134	1
135	25
136	3
137	3
138	8
139	5
140	11
141	8
142	11
147	1
149	47
150	6
151	2
155	1
156	1
159	2
163	5
166	397
167	42
168	5
169	1
226	129
227	14
241	7
