Mass Spectrum: .beta.-Ethoxypropionic acid
Formula: C5H10O3
CAS: 4324-38-3
Molecular weight: 118
m/z	intensity
12	2
13	4
14	22
15	83
16	4
17	9
18	35
19	2
24	2
25	9
26	93
27	445
28	85
29	606
30	36
31	999
32	16
33	2
35	4
36	2
37	1
38	1
39	6
40	3
41	38
42	127
43	508
44	134
45	434
46	31
47	47
48	1
50	5
51	3
52	1
53	7
54	3
55	236
56	156
57	24
58	11
59	429
60	91
61	40
62	1
63	1
69	5
70	4
71	606
72	215
73	863
74	496
75	35
76	3
77	1
79	1
82	1
83	1
85	3
86	1
87	2
88	1
89	426
90	16
91	3
99	5
100	29
101	27
102	3
103	20
104	1
115	1
117	6
118	1
119	1
