Mass Spectrum: Propanoic acid, 2-methoxy-
Formula: C4H8O3
CAS: 4324-37-2
Molecular weight: 104
m/z	intensity
13	1
14	7
15	87
16	2
17	3
18	10
19	3
25	2
26	20
27	65
28	39
29	257
30	9
31	269
32	5
33	47
39	2
41	15
42	11
43	115
44	10
45	82
46	3
47	1
53	2
54	1
55	23
56	8
57	8
58	11
59	999
60	40
61	9
71	2
72	2
73	20
74	13
75	1
85	1
86	1
89	9
103	1
104	1
