Mass Spectrum: 1,3,5-Pentanetriol
Formula: C5H12O3
CAS: 4328-94-3
Molecular weight: 120
m/z	intensity
27	61
28	487
29	237
30	5
31	356
39	24
40	5
41	59
42	61
43	152
44	51
45	512
46	257
47	13
49	7
53	7
54	16
55	86
56	231
57	284
58	22
59	5
61	4
64	3
69	8
71	9
72	7
73	208
74	49
75	999
76	10
83	22
84	98
85	7
100	6
101	33
102	36
