Mass Spectrum: 1-Methyl-8-nitroisoxazolizidine
Formula: C6H10N2O4
CAS: 4328-95-4
Molecular weight: 174
m/z	intensity
29	124
30	914
31	152
32	124
39	56
40	38
41	331
42	202
43	246
44	277
45	82
48	28
53	49
54	246
55	264
56	90
57	108
58	113
59	28
60	15
64	90
65	10
67	56
68	295
69	106
70	90
71	51
72	36
77	25
79	31
80	103
81	62
82	103
83	31
84	98
85	33
86	20
94	75
95	23
96	23
97	54
98	567
99	999
100	31
105	59
106	25
107	18
108	15
109	15
110	212
111	222
112	67
113	90
114	49
126	33
128	551
129	409
130	69
