Mass Spectrum: Acetic acid, difluoro-, methyl ester
Formula: C3H4F2O2
CAS: 433-53-4
Molecular weight: 110
m/z	intensity
25	3
26	5
27	9
29	317
30	44
31	333
33	49
34	3
35	70
36	4
40	6
41	16
42	6
43	21
44	80
45	50
46	7
47	29
48	5
49	8
50	93
51	896
52	42
53	4
55	5
56	7
57	3
58	5
59	999
60	148
61	37
62	9
63	108
64	9
65	202
66	20
67	29
78	36
79	75
80	9
81	401
82	20
83	3
84	7
85	3
86	6
91	6
92	2
93	2
94	2
95	10
109	6
110	22
111	4
