Mass Spectrum: Cyclohexanecarboxylic acid, 4-methyl-
Formula: C8H14O2
CAS: 4331-54-8
Molecular weight: 142
m/z	intensity
41	462
42	165
43	291
45	237
46	3
47	16
49	18
50	33
51	68
52	25
53	150
54	46
55	999
56	113
57	55
58	33
59	28
60	47
61	30
62	19
63	46
64	1
65	99
66	9
67	232
68	91
69	184
70	788
71	98
73	337
74	44
75	6
76	1
77	52
79	83
80	53
81	371
82	389
83	188
84	44
85	31
86	91
87	99
88	8
89	34
90	9
94	21
95	179
96	93
97	275
98	5
99	106
100	26
101	10
102	0
103	0
104	0
105	6
106	21
107	16
109	51
110	26
111	17
112	44
113	62
114	22
115	3
121	3
122	11
123	39
124	218
125	78
127	94
128	21
129	1
140	52
141	39
142	401
143	109
144	9
145	1
