Mass Spectrum: Cyanomethyl 2-chloroethyl sulfide
Formula: C4H6ClNS
CAS: 4332-57-4
Molecular weight: 135
m/z	intensity
58	327
59	301
60	104
62	52
63	272
65	61
70	84
71	51
72	45
73	334
86	999
87	27
88	35
90	54
95	125
97	28
100	69
135	302
137	97
