Mass Spectrum: Glycine, N-(N-DL-leucylglycyl)-
Formula: C10H19N3O4
CAS: 4337-37-5
Molecular weight: 245
m/z	intensity
12	2
13	2
14	10
15	19
16	10
17	43
18	132
25	3
26	19
27	91
28	166
29	66
30	561
31	13
32	5
34	3
36	3
37	3
38	11
39	58
40	29
41	160
42	82
43	285
44	281
45	9
46	2
50	4
51	7
52	9
53	13
54	21
55	37
56	32
57	30
58	8
59	6
60	6
64	2
65	5
66	6
67	15
68	17
69	19
70	59
71	11
72	10
73	5
74	13
75	6
76	17
77	3
78	3
79	4
80	8
81	15
82	18
83	9
84	32
85	59
86	999
87	59
88	4
89	3
91	3
92	3
93	4
94	9
95	7
96	11
97	15
98	13
99	9
100	2
101	3
103	4
104	2
105	3
107	3
108	4
109	7
110	9
111	6
112	7
113	25
114	70
115	6
116	3
117	6
118	2
119	3
120	2
121	3
122	5
123	4
124	7
125	14
126	5
127	11
128	3
129	2
130	1
131	2
132	2
133	8
134	2
135	2
136	3
137	4
138	3
139	2
140	2
141	8
142	3
143	4
144	2
149	3
150	2
151	4
152	5
153	36
154	4
155	4
156	2
157	1
160	4
164	2
165	2
166	9
167	3
168	7
169	3
171	7
184	2
189	2
195	2
201	1
202	4
207	2
209	2
210	7
230	1
