Mass Spectrum: 1-Propanol, 3-(dimethylamino)-, acetate
Formula: C7H15NO2
CAS: 4339-94-0
Molecular weight: 145
m/z	intensity
42	10
43	30
44	50
46	10
56	10
58	999
59	70
60	10
85	20
103	10
130	10
145	40
