Mass Spectrum: Nandrolone
Formula: C18H26O2
CAS: 434-22-0
Molecular weight: 274
m/z	intensity
15	1
19	1
26	2
27	49
28	7
29	83
30	7
31	20
37	1
38	3
39	132
40	32
41	348
42	29
43	164
44	29
45	17
46	1
50	6
51	48
52	40
53	205
54	34
55	373
56	25
57	153
58	22
59	4
60	2
62	2
63	17
64	15
65	145
66	57
67	316
68	59
69	67
70	9
71	38
72	8
73	5
74	3
75	3
76	7
77	379
78	113
79	515
80	113
81	233
82	41
83	69
84	14
85	18
86	13
87	7
88	3
89	15
90	12
91	667
92	136
93	322
94	112
95	191
96	60
97	127
98	14
99	10
100	5
101	6
102	11
103	72
104	67
105	429
106	132
107	339
108	172
109	242
110	999
111	116
112	8
113	4
114	4
115	113
116	46
117	205
118	92
119	253
120	226
121	211
122	148
123	223
124	63
125	8
126	3
127	21
128	75
129	114
130	47
131	222
132	103
133	206
134	140
135	186
136	55
137	22
138	5
139	5
140	2
141	40
142	35
143	78
144	60
145	166
146	154
147	270
148	159
149	86
150	22
151	37
152	16
153	16
154	9
155	29
156	27
157	68
158	54
159	145
160	168
161	109
162	61
163	37
164	59
165	71
166	19
167	11
168	5
169	30
170	22
171	60
172	46
173	179
174	121
175	88
176	19
177	6
178	6
179	3
180	2
181	10
182	7
183	27
184	22
185	60
186	46
187	92
188	60
189	36
190	27
191	5
192	9
193	2
194	1
195	10
196	8
197	103
198	33
199	86
200	35
201	41
202	71
203	40
204	17
205	3
206	1
209	4
210	5
211	8
212	38
213	39
214	62
215	197
216	52
217	68
218	32
219	6
220	1
221	1
223	12
224	3
225	2
226	1
227	13
228	23
229	11
230	48
231	139
232	122
233	21
234	2
237	1
238	17
239	5
240	1
241	34
242	7
243	1
244	2
245	5
246	53
247	9
248	1
254	2
255	4
256	130
257	27
258	4
259	11
260	2
270	1
272	8
273	9
274	717
275	143
276	17
277	2
