Mass Spectrum: 1-Methylcyclohex-1-en-4-carboxylic acid
Formula: C8H12O2
CAS: 4342-60-3
Molecular weight: 140
m/z	intensity
41	160
42	40
43	115
44	40
45	40
47	20
51	40
52	30
53	140
54	40
55	230
56	40
57	50
58	40
60	30
65	70
66	50
67	470
68	405
69	70
70	30
71	40
73	50
77	180
78	60
79	705
80	110
81	100
82	25
83	40
84	25
85	30
86	30
91	140
92	50
93	150
94	999
95	800
96	80
97	100
98	40
99	20
107	70
108	10
109	20
110	15
111	70
112	15
122	250
123	60
124	15
125	130
126	20
140	730
141	64
142	2
