Mass Spectrum: 4-Amino-3-mercapto-1,2,4-triazole
Formula: C2H4N4S
CAS: 4343-75-3
Molecular weight: 116
m/z	intensity
27	85
28	395
29	98
30	74
31	67
32	145
41	29
42	57
43	95
44	97
45	81
46	33
57	20
58	233
59	166
60	222
69	17
70	39
71	62
74	56
77	9
85	41
86	43
87	15
116	999
117	57
118	54
119	8
