Mass Spectrum: Methane, tert-butoxyisopropoxy-
Formula: C8H18O2
CAS: 4346-01-4
Molecular weight: 146
m/z	intensity
41	360
42	70
43	570
44	30
45	80
47	20
55	40
56	80
57	999
58	120
59	890
60	30
72	20
73	290
74	20
87	20
89	50
101	100
131	90
