Mass Spectrum: Methyl-3,4-di-O-methyl.alpha.l-rhamnopyranoside
Formula: C9H18O5
CAS: 4348-82-7
Molecular weight: 206
m/z	intensity
59	100
72	515
73	8
74	838
75	680
87	178
88	999
101	178
114	70
115	33
119	97
127	15
130	68
143	26
145	15
161	33
162	15
175	68
