Mass Spectrum: Methyl-2,3-di-O-methyl.alpha.l-rhamnopyranoside
Formula: C9H18O5
CAS: 4348-80-5
Molecular weight: 206
m/z	intensity
45	10
58	14
59	26
61	10
70	18
71	13
72	16
73	24
74	124
75	266
83	44
85	70
87	50
88	999
99	17
101	55
114	29
119	26
130	279
142	11
143	10
161	26
162	6
174	18
175	41
