Mass Spectrum: 1,3-Dioxolane, 2-methyl-2-propyl-
Formula: C7H14O2
CAS: 4352-98-1
Molecular weight: 130
m/z	intensity
26	60
27	300
28	100
29	120
30	20
31	40
38	50
39	300
40	50
41	300
42	170
43	930
44	40
45	80
50	40
51	50
52	20
53	60
54	20
55	130
56	20
57	30
58	20
59	20
67	20
69	30
85	230
86	90
87	999
88	70
98	60
99	40
115	260
116	30
