Mass Spectrum: 1,3-Dioxolane, 2-methyl-2-tridecyl-
Formula: C17H34O2
CAS: 4353-03-1
Molecular weight: 270
m/z	intensity
40	10
41	20
42	10
43	170
44	40
45	10
53	20
54	10
55	40
56	30
57	20
58	10
59	10
71	30
72	20
85	30
87	999
88	50
99	30
255	200
256	60
257	10
