Mass Spectrum: Hexanol-1, 6-cyclohexyl-
Formula: C12H24O
CAS: 4354-58-9
Molecular weight: 184
m/z	intensity
15	12
16	5
17	16
18	70
19	5
24	0
25	0
26	8
27	134
28	163
29	200
30	7
31	185
32	15
39	141
40	27
41	619
42	105
43	157
44	24
45	17
46	1
47	0
48	0
49	0
50	2
51	10
52	7
53	72
54	149
55	999
56	208
57	83
58	6
59	5
60	1
61	0
62	0
63	2
64	0
65	15
66	25
67	385
68	134
69	182
70	28
71	21
72	4
73	8
74	21
75	3
76	1
77	17
78	5
79	29
80	23
81	270
82	577
83	619
84	83
85	19
86	1
87	21
88	5
89	1
90	0
91	10
92	2
93	8
94	11
95	98
96	536
97	133
98	13
99	4
100	1
101	4
102	2
103	0
104	3
105	2
106	0
107	4
108	9
109	148
110	56
111	12
112	4
113	2
114	0
115	2
116	2
117	1
118	0
119	0
120	0
121	3
122	3
123	21
124	30
125	6
126	1
127	2
128	0
129	2
130	1
131	0
132	0
133	0
134	0
135	4
136	2
137	11
138	37
139	5
140	0
141	1
142	0
143	0
144	0
145	0
146	0
147	0
148	0
149	2
150	0
151	1
152	1
153	0
154	0
155	0
156	0
157	0
158	0
159	0
160	0
161	0
162	2
163	1
164	3
165	1
166	84
167	13
168	1
169	1
170	0
180	1
181	0
182	2
183	0
184	0
