Mass Spectrum: Cyclohexaneglycolic acid, .alpha.-phenyl-, 1-methyl-3-piperidyl ester
Formula: C20H29NO3
CAS: 4354-45-4
Molecular weight: 331
m/z	intensity
27	12
29	15
39	11
41	51
42	65
43	58
44	87
55	61
56	12
57	16
58	25
67	14
68	11
69	18
70	55
71	52
77	42
79	38
82	60
83	16
84	243
85	15
91	42
94	8
96	110
97	999
98	196
99	38
105	68
106	8
107	73
108	6
114	29
115	10
116	17
117	6
129	11
133	7
143	5
188	7
189	65
190	9
248	10
249	9
