Mass Spectrum: .beta.-d-Glucopyranoside, methyl 2,3,4-tris-O-(phenylmethyl)-
Formula: C28H32O6
CAS: 4356-80-3
Molecular weight: 464
m/z	intensity
26	0
27	6
29	9
30	1
31	11
33	4
37	0
38	1
39	21
40	2
41	18
42	3
43	12
44	4
45	19
46	1
50	3
51	14
52	3
53	4
54	1
55	4
56	1
57	6
58	1
59	2
60	4
61	21
62	1
63	7
64	3
65	70
66	4
67	0
68	1
69	14
70	2
71	8
72	1
73	8
74	1
75	1
76	0
77	13
78	3
79	11
80	1
81	9
82	2
83	1
84	1
85	6
86	1
87	7
88	1
89	10
90	10
91	999
92	175
93	7
94	1
95	0
96	0
97	4
98	1
99	17
100	2
101	6
102	0
103	4
104	7
105	11
106	3
107	18
108	6
109	1
110	0
111	2
112	6
113	2
114	0
115	4
116	3
117	8
118	2
119	7
120	1
121	19
122	1
123	1
124	0
125	0
126	1
127	17
128	2
129	10
130	1
131	4
132	1
133	27
134	9
135	11
136	1
137	0
138	0
139	0
141	3
142	0
143	6
144	1
145	14
146	3
147	5
148	1
149	12
150	2
151	7
152	1
153	1
154	0
155	0
156	0
157	3
158	1
159	14
160	2
161	8
162	1
163	18
164	7
165	4
166	2
167	7
168	1
169	0
170	0
171	7
172	1
173	2
174	0
175	25
176	4
177	13
178	2
179	3
180	2
181	42
182	13
183	1
186	1
187	11
188	4
189	4
190	3
191	1
192	1
193	40
194	6
195	0
196	0
197	18
198	3
199	1
200	0
201	0
202	0
203	1
204	0
205	4
206	0
207	1
208	0
209	0
210	0
211	17
212	3
213	0
214	0
215	0
216	0
217	7
218	2
219	2
220	1
221	1
222	0
223	2
224	0
233	1
234	0
235	29
236	4
237	0
238	0
239	0
240	43
241	8
242	1
247	0
248	0
249	2
250	1
251	2
252	0
253	285
254	67
255	7
256	1
263	0
264	0
265	1
266	0
267	11
268	2
269	0
270	0
271	0
281	0
282	0
283	0
295	0
296	0
297	0
312	1
325	0
326	1
327	0
328	0
340	0
341	68
342	15
343	2
344	0
372	0
373	45
374	11
375	1
432	0
