Mass Spectrum: Glucobrassicin
Formula: C16H20N2O9S2
CAS: 4356-52-9
Molecular weight: 448
m/z	intensity
31	56
32	2
33	24
34	74
36	12
37	10
38	23
39	70
41	76
42	279
43	195
44	508
45	97
46	23
47	85
48	111
49	12
50	37
51	56
52	40
53	39
54	29
55	68
56	48
57	125
58	999
59	483
60	123
61	30
62	23
63	44
64	133
65	23
66	20
67	17
68	28
69	74
70	40
71	39
72	21
73	67
74	44
75	46
76	67
77	94
78	31
79	22
80	30
81	29
82	27
83	17
84	23
85	41
86	21
87	28
88	21
89	79
90	96
91	23
92	7
93	11
94	25
95	30
96	27
97	56
98	54
99	30
100	30
101	67
102	116
103	79
104	17
105	9
106	6
107	7
108	15
109	19
110	23
111	32
112	10
113	36
114	38
115	38
116	47
117	281
118	34
119	10
120	5
121	10
122	19
123	15
124	14
125	21
126	138
127	60
128	135
129	183
130	715
131	107
132	26
133	16
134	7
135	7
136	4
137	6
138	6
139	10
140	17
141	23
142	54
143	34
144	54
145	24
146	12
147	8
148	14
149	11
150	5
151	8
152	8
153	13
154	29
155	194
156	153
157	31
158	14
159	10
160	28
161	34
162	15
163	13
164	7
165	7
166	8
167	12
168	31
169	20
170	14
171	8
172	13
173	13
174	58
175	63
176	29
177	11
178	6
179	7
180	8
181	7
182	4
183	7
184	11
185	12
186	17
187	26
188	23
189	14
190	10
191	8
192	8
193	6
194	5
195	5
196	11
197	8
198	7
199	7
200	9
201	9
202	20
203	8
204	8
205	5
206	5
207	4
208	5
209	4
210	8
211	8
212	8
213	6
214	12
215	7
216	10
217	14
218	13
219	7
220	12
221	6
222	6
223	5
224	6
225	9
226	10
227	11
228	12
229	19
230	10
231	7
232	6
233	4
234	4
235	2
236	5
237	4
238	4
239	7
240	8
241	9
242	10
243	22
244	14
245	66
246	60
247	14
248	5
249	2
250	7
251	5
252	10
253	13
254	13
255	35
256	73
257	40
258	18
259	28
260	28
261	9
262	2
264	3
265	3
266	4
267	5
268	7
269	8
270	9
271	10
272	5
273	3
274	4
275	11
276	3
277	2
278	5
279	7
280	15
281	39
282	26
283	21
284	14
285	22
286	8
287	3
288	3
289	3
293	1
294	3
295	4
296	12
297	6
298	3
299	5
300	2
301	3
302	1
303	10
304	7
305	5
306	13
307	10
308	15
309	5
310	4
312	3
313	7
314	2
315	3
319	2
324	2
326	2
327	5
328	8
329	13
330	4
369	3
370	2
371	9
372	4
375	3
385	4
387	8
