Mass Spectrum: 8(14),22-Ergostadienol acetate
Formula: C30H48O2
CAS: 4356-15-4
Molecular weight: 440
m/z	intensity
41	220
43	999
44	22
53	34
55	427
57	127
58	4
59	1
61	8
65	12
67	138
69	465
70	40
71	55
77	41
79	155
81	459
82	65
83	103
84	4
85	8
91	192
93	171
94	28
95	161
96	15
97	22
99	6
103	10
105	184
107	260
108	54
109	114
110	11
111	11
115	19
117	79
118	7
119	117
120	26
121	82
122	20
123	30
124	3
125	88
126	5
127	11
128	13
129	27
131	91
132	10
133	164
134	35
135	68
136	9
137	10
141	10
142	6
143	37
145	111
146	30
147	120
148	19
149	27
150	15
151	18
152	14
153	4
155	11
156	1
157	28
159	71
160	5
161	99
162	14
163	10
164	19
165	3
167	1
169	9
170	1
171	27
173	44
174	7
175	11
177	3
179	1
183	8
185	21
186	8
187	22
188	4
189	8
195	1
197	10
199	23
200	7
201	18
202	2
203	9
211	18
212	4
213	54
214	11
215	17
216	4
218	1
225	8
226	1
227	28
228	37
229	134
230	22
231	2
239	9
241	72
242	13
243	4
252	1
253	17
255	116
256	23
257	8
259	4
260	4
261	2
267	1
269	1
270	1
271	7
272	6
273	10
274	6
275	1
281	1
285	1
286	3
287	3
288	89
289	17
290	2
299	28
300	15
301	9
302	3
309	7
312	1
313	96
314	36
315	80
316	17
327	1
328	11
329	1
337	5
341	13
342	6
355	1
365	23
366	7
369	8
380	10
381	15
382	4
397	12
398	4
411	2
425	39
426	12
427	5
439	6
440	180
441	61
442	26
443	5
