Mass Spectrum: 1,1-Bis(4-methoxyphenyl)ethene
Formula: C16H16O2
CAS: 4356-69-8
Molecular weight: 240
m/z	intensity
12	3
13	5
15	999
16	16
17	7
18	25
26	13
27	62
28	15
29	74
30	7
31	17
33	1
37	5
38	34
39	148
40	11
41	21
42	3
43	14
44	3
45	40
46	1
50	81
51	102
52	30
53	28
54	4
55	15
56	2
57	4
60	1
61	6
62	42
63	179
64	86
65	55
66	8
67	2
68	2
70	11
71	2
73	2
74	35
75	58
76	76
77	110
78	39
79	23
80	2
82	20
84	2
85	2
86	11
87	28
88	21
89	133
90	46
91	27
92	50
93	8
94	1
95	1
96	2
97	4
98	15
99	10
100	7
101	23
102	46
103	25
104	7
105	10
106	2
107	17
108	11
109	2
110	4
111	7
113	40
114	12
115	63
116	9
117	28
118	24
119	8
120	39
121	11
122	2
123	1
124	1
125	5
126	37
127	52
128	65
129	13
130	5
131	4
132	20
133	29
135	64
136	6
137	6
138	5
139	87
140	16
141	16
142	4
143	4
144	1
145	4
149	1
150	12
151	40
152	166
153	236
154	80
155	18
156	6
157	3
158	2
159	1
162	2
163	22
164	30
165	263
166	92
167	30
168	9
169	6
170	1
171	7
172	1
175	1
176	9
177	28
178	24
179	13
180	4
181	55
182	90
183	16
184	1
191	0
192	3
193	8
194	41
195	29
196	22
197	36
198	6
199	2
207	3
209	157
210	102
211	38
212	5
213	1
223	2
224	17
225	281
226	61
227	7
228	1
239	28
240	359
241	64
242	16
243	2
