Mass Spectrum: 1,3-Dioxolane, 2,4-dimethyl-2-phenyl-
Formula: C11H14O2
CAS: 4359-30-2
Molecular weight: 178
m/z	intensity
15	19
27	30
28	17
29	26
31	10
39	35
41	124
42	18
43	671
44	18
50	30
51	100
52	17
57	16
58	13
63	14
65	16
75	10
76	22
77	267
78	82
79	15
91	41
101	396
102	38
103	95
104	126
105	999
106	82
120	19
133	156
134	26
147	33
163	890
164	102
