Mass Spectrum: Malonic acid, 2-hexyl-2-methyl-
Formula: C10H18O4
CAS: 4360-86-5
Molecular weight: 202
m/z	intensity
26	10
27	195
28	40
29	213
30	7
31	14
38	2
39	114
40	22
41	466
42	92
43	194
44	91
45	59
46	5
47	2
51	6
52	3
53	35
54	16
55	230
56	40
57	43
58	8
59	50
60	4
65	5
66	4
67	45
68	19
69	157
70	72
71	22
72	156
73	37
74	212
75	6
77	5
78	2
79	6
80	7
81	28
82	40
83	52
84	13
85	11
86	17
87	439
88	21
89	2
93	3
95	15
96	10
97	18
98	26
99	26
100	706
101	74
102	8
109	20
110	13
111	20
112	27
113	30
114	33
115	23
116	2
117	3
118	999
119	53
120	9
121	5
123	7
124	55
125	7
126	3
127	26
128	4
129	16
137	5
138	35
139	13
140	11
141	7
142	129
143	9
145	8
151	2
155	3
156	33
157	5
158	47
159	5
165	3
166	17
184	3
185	4
