Mass Spectrum: 2(3H)-Furanone, 5-phenyl-3-(phenylmethylene)-
Formula: C17H12O2
CAS: 4361-96-0
Molecular weight: 248
m/z	intensity
51	80
77	400
78	30
89	20
99	20
105	999
106	80
115	50
124	20
143	20
220	20
248	440
249	80
