Mass Spectrum: Cyclohexanepropanamide, N-phenyl-
Formula: C15H21NO
CAS: 4361-30-2
Molecular weight: 231
m/z	intensity
26	2
27	31
28	3
29	42
30	1
36	0
37	0
38	3
39	45
40	9
41	104
42	9
43	19
44	2
50	3
51	16
52	4
53	20
54	11
55	153
56	7
57	10
58	0
62	1
63	5
64	7
65	42
66	37
67	36
68	4
69	68
70	4
71	5
72	0
74	0
75	0
76	2
77	55
78	7
79	25
80	3
81	10
82	1
83	22
84	1
85	2
89	0
91	17
92	79
93	999
94	108
95	41
96	4
97	2
99	1
103	0
104	4
105	3
106	11
107	1
108	0
109	1
110	1
111	2
113	1
116	0
117	2
118	2
119	6
120	13
121	32
122	3
130	3
131	0
132	1
133	0
134	28
135	384
136	29
137	3
138	3
139	2
146	0
148	17
149	2
202	0
230	2
231	27
232	6
