Mass Spectrum: [1,4]Dioxino[2,3-b]-1,4-dioxin, hexahydro-
Formula: C6H10O4
CAS: 4362-05-4
Molecular weight: 146
m/z	intensity
27	96
28	232
29	147
30	69
31	206
33	3
37	0
39	1
40	0
41	2
42	20
43	93
44	54
45	364
46	9
47	38
48	0
49	0
50	0
55	1
56	0
57	8
58	33
59	4
60	75
61	23
62	1
63	1
71	2
72	2
73	999
74	36
75	4
86	22
87	2
89	2
90	0
91	3
101	1
102	1
103	0
117	0
119	5
145	0
146	139
147	10
148	1
