Mass Spectrum: 1,3-Dioxolane, 2,2-diethyl-
Formula: C7H14O2
CAS: 4362-57-6
Molecular weight: 130
m/z	intensity
26	30
27	90
28	100
29	350
30	20
31	10
39	30
40	20
41	80
42	30
43	65
44	20
45	40
53	20
55	90
56	30
57	700
58	40
67	30
68	20
69	60
70	30
71	70
81	40
82	20
83	40
84	20
85	40
86	40
87	20
95	40
96	20
97	40
98	10
99	20
100	60
101	999
102	70
103	10
