Mass Spectrum: 1,3-Dioxolane, 2-(1-phenylethyl)-
Formula: C11H14O2
CAS: 4362-22-5
Molecular weight: 178
m/z	intensity
26	7
27	44
29	4
30	1
31	1
38	2
39	26
41	7
42	3
43	13
45	215
46	5
50	7
51	31
52	8
53	4
55	2
62	2
63	7
64	2
65	10
66	1
73	999
74	34
75	8
76	4
77	55
78	20
79	26
89	4
90	2
91	23
102	4
103	18
104	9
105	75
106	7
115	5
117	12
118	13
119	2
131	3
177	4
