Mass Spectrum: 1,3-Dioxolane, 2-methyl-2-(phenylmethyl)-
Formula: C11H14O2
CAS: 4362-18-9
Molecular weight: 178
m/z	intensity
27	25
29	10
31	10
37	14
38	30
40	10
41	20
42	13
43	500
44	20
45	10
50	10
51	20
55	10
57	10
62	10
63	25
64	14
65	30
77	24
78	10
79	14
81	10
86	10
87	999
88	40
89	20
90	10
91	140
92	30
103	10
105	30
106	10
115	20
116	10
117	20
118	10
122	10
134	20
163	25
