Mass Spectrum: 1,3-Diaminoguanidine
Formula: CH7N5
CAS: 4364-78-7
Molecular weight: 89
m/z	intensity
14	7
15	8
16	96
17	211
18	474
19	2
26	9
27	57
28	391
29	184
30	91
31	538
32	698
33	66
34	1
41	36
42	251
43	999
44	80
45	2
53	1
54	2
55	3
56	8
57	46
58	642
59	46
60	2
68	2
69	4
70	3
71	1
72	64
73	55
74	18
75	1
87	4
88	1
89	607
90	19
91	1
