Mass Spectrum: Pregna-1,4-diene-3,11,20-trione
Formula: C21H26O3
CAS: 4368-11-0
Molecular weight: 326
m/z	intensity
40	13
41	140
42	12
43	999
45	12
50	4
51	20
52	10
53	75
55	126
57	4
58	5
63	10
65	50
66	15
67	100
68	18
69	26
111	6
115	119
116	35
117	80
118	15
119	48
120	30
121	215
122	108
123	46
124	13
125	11
127	24
128	57
129	64
130	34
131	119
132	57
133	56
134	85
135	48
136	20
137	34
138	16
141	33
142	22
143	32
144	34
145	93
146	48
147	139
148	29
149	32
150	4
151	4
152	10
153	13
154	5
155	17
156	6
157	34
158	95
159	168
160	168
161	118
162	26
163	20
165	23
166	8
167	11
169	15
170	14
171	68
172	34
173	49
174	16
175	10
179	6
181	8
182	5
183	21
184	21
185	54
186	36
187	86
188	19
189	22
190	9
191	16
193	6
195	22
196	11
197	24
198	8
199	25
200	18
201	11
202	6
203	8
204	4
205	7
206	4
207	11
208	4
209	24
210	9
211	41
212	14
213	34
214	14
221	9
222	25
223	71
224	43
225	35
227	16
228	4
235	11
236	12
237	38
238	41
239	183
240	49
241	32
242	17
249	11
250	11
251	21
253	28
254	7
255	28
256	15
257	4
263	13
264	13
265	97
266	53
267	11
268	6
269	6
275	5
280	30
281	15
282	40
283	43
284	15
285	6
291	5
293	16
297	4
298	50
306	6
308	47
309	19
311	15
312	4
324	107
326	451
