Mass Spectrum: 1-Propanol, 3-(diethylamino)-1,1-diphenyl-
Formula: C19H25NO
CAS: 4369-48-6
Molecular weight: 283
m/z	intensity
15	1
26	1
27	7
28	14
29	17
30	68
31	1
36	13
38	4
39	4
40	1
41	4
42	18
43	6
44	36
45	1
50	4
51	14
52	3
53	1
54	2
55	3
56	22
57	11
58	153
59	6
62	1
63	8
64	2
65	3
68	1
69	2
70	9
71	9
72	50
73	93
74	6
75	5
76	31
77	52
78	9
79	17
80	65
81	17
82	65
83	2
84	9
85	13
86	999
87	68
88	120
89	50
90	7
91	11
92	1
95	1
96	2
97	2
98	15
99	8
100	34
101	93
102	17
103	11
104	2
105	51
106	5
107	1
108	1
110	1
111	1
112	1
113	3
114	1
115	16
116	2
117	1
125	1
126	2
127	2
128	3
133	1
134	1
135	1
139	4
141	1
149	1
150	4
151	10
152	20
153	6
154	1
160	1
162	1
163	5
164	9
165	246
166	36
167	5
168	1
172	1
174	4
175	2
176	26
177	22
178	195
179	232
180	354
181	53
182	12
183	7
184	6
185	1
186	2
188	4
189	1
190	2
191	3
192	2
193	19
194	5
204	1
205	7
206	15
207	3
208	1
234	1
236	3
237	1
263	1
264	4
265	5
266	7
267	2
268	15
269	3
281	1
282	2
283	45
284	10
285	1
