Mass Spectrum: 1H-Indene-1,2-diol, 2,3-dihydro-
Formula: C9H10O2
CAS: 4370-02-9
Molecular weight: 150
m/z	intensity
27	47
29	25
30	3
31	10
37	19
38	28
39	126
40	2
41	20
43	25
44	11
45	5
47	5
49	10
50	100
51	274
52	74
53	29
55	18
56	0
57	13
58	33
59	4
60	14
61	14
62	52
63	115
64	19
65	127
66	26
67	9
70	4
73	11
74	32
75	36
76	50
77	431
78	290
79	213
80	20
82	5
85	4
86	6
87	22
88	14
89	82
90	32
91	335
92	33
93	50
94	8
98	6
99	3
101	10
102	76
103	423
104	999
105	221
106	14
107	619
108	54
109	4
113	3
114	12
115	252
116	284
117	18
118	9
119	119
120	66
121	39
122	4
129	5
130	14
131	354
132	652
133	83
134	15
135	8
146	7
147	7
148	23
149	14
150	221
151	17
152	0
