Mass Spectrum: Ethanamine, N-methylene-
Formula: C3H7N
CAS: 43729-97-1
Molecular weight: 57
m/z	intensity
27	106
28	279
29	73
30	137
31	51
38	1
39	6
40	23
41	47
42	999
43	24
44	3
45	1
50	0
51	3
52	10
53	4
54	41
55	23
56	272
57	334
58	12
59	1
