Mass Spectrum: 9.beta.-Estr-4-en-3-one, 17.beta.-hydroxy-
Formula: C18H26O2
CAS: 4374-03-2
Molecular weight: 274
m/z	intensity
90	399
91	91
92	245
93	89
94	131
95	17
96	44
104	44
105	330
106	91
107	236
108	118
109	96
110	999
115	67
117	111
118	62
119	171
120	216
121	178
122	120
123	185
124	46
131	178
132	73
133	180
134	151
135	205
136	33
137	22
142	33
143	24
144	62
145	67
146	111
147	263
148	160
149	62
150	22
151	22
157	62
158	46
159	133
160	160
161	125
162	67
163	46
164	84
165	82
169	31
170	22
171	49
172	49
173	156
174	136
175	109
183	37
185	60
186	60
187	107
188	69
189	44
197	73
198	24
199	69
201	44
202	62
211	13
212	29
213	24
214	82
215	290
216	71
217	136
218	53
230	84
231	207
232	198
233	31
238	29
239	44
241	67
242	8
246	113
256	236
257	37
274	799
275	294
