Mass Spectrum: 1,4-Dioxane-2,5-dione, 3,6-diethyl-
Formula: C8H12O4
CAS: 4374-57-6
Molecular weight: 172
m/z	intensity
26	250
28	250
31	250
39	200
41	250
42	200
55	999
56	40
57	260
58	90
59	580
60	20
69	120
70	960
71	100
144	500
145	40
