Mass Spectrum: Cyclopropanemethanol, .alpha.-butyl-
Formula: C8H16O
CAS: 4379-16-2
Molecular weight: 128
m/z	intensity
26	17
27	245
28	36
29	203
30	7
31	56
37	4
38	11
39	161
40	25
41	345
42	56
43	698
44	50
45	16
46	0
50	5
51	13
52	5
53	60
54	27
55	51
56	20
57	180
58	150
59	9
60	0
61	0
62	1
63	2
65	8
66	5
67	50
68	24
69	72
71	999
72	50
73	4
74	1
77	5
78	1
79	12
80	2
81	23
82	21
83	4
84	5
85	11
86	1
87	2
91	1
93	0
94	0
95	4
96	0
97	0
98	0
99	5
100	8
109	0
110	5
111	1
112	0
127	0
