Mass Spectrum: 1,4,9(11)-Pregnatriene-3,20-dione, 21-acetoxy-17-hydroxy-
Formula: C23H28O5
CAS: 4380-55-6
Molecular weight: 384
m/z	intensity
39	26
40	6
41	59
42	122
43	999
44	26
45	10
51	13
52	8
53	38
54	6
55	67
57	16
58	17
59	7
61	9
63	8
64	5
65	43
66	11
67	34
69	27
70	4
71	29
72	4
73	91
74	59
75	4
77	113
78	31
79	90
80	8
81	34
82	8
83	15
85	6
87	17
89	16
91	230
92	34
93	38
94	8
95	25
96	7
97	92
98	9
99	7
100	7
101	26
102	20
103	47
104	20
105	109
106	14
107	45
108	13
109	18
110	7
111	7
115	151
116	50
117	86
118	19
119	54
120	16
121	188
122	32
123	15
125	7
126	5
127	49
128	161
129	139
130	43
131	88
132	21
133	61
134	15
135	92
136	11
137	5
138	4
139	22
140	6
141	114
142	62
143	111
144	43
145	79
146	28
147	151
148	17
149	8
151	16
152	70
153	94
154	48
155	86
156	31
157	108
158	46
159	68
160	30
161	24
162	6
163	8
164	5
165	124
166	60
167	94
168	43
169	63
170	24
171	201
172	50
173	49
174	9
175	7
176	6
177	8
178	46
179	70
180	36
181	90
182	48
183	68
184	32
185	50
186	16
187	37
188	5
189	11
190	10
191	28
192	31
193	37
194	37
195	133
196	65
197	154
198	49
199	30
200	7
201	5
202	7
203	16
204	5
205	22
206	16
207	64
208	58
209	153
210	116
211	103
212	39
213	43
214	12
215	8
217	6
219	20
220	19
221	70
222	47
223	500
224	175
225	517
226	116
227	36
228	10
229	4
231	4
232	6
233	10
234	11
235	48
236	44
237	143
238	302
239	133
240	49
241	15
245	7
246	3
247	31
248	15
249	51
250	41
251	33
252	8
253	25
254	32
255	14
256	4
261	11
262	6
263	55
264	26
265	280
266	63
267	56
268	13
269	7
271	3
273	10
277	4
278	17
279	9
280	4
281	23
282	82
283	160
284	31
285	9
288	4
289	4
291	20
292	4
293	8
296	7
306	18
307	6
309	11
324	43
325	19
326	5
369	23
370	5
384	86
385	21
386	5
