Mass Spectrum: Sulfoximine, S-methyl-S-phenyl-
Formula: C7H9NOS
CAS: 4381-25-3
Molecular weight: 155
m/z	intensity
50	110
51	340
65	250
77	940
78	90
91	90
92	999
93	70
94	140
97	60
109	30
124	40
125	140
140	640
141	40
142	20
155	80
156	10
