Mass Spectrum: Ethanol, 1-methoxy-, acetate
Formula: C5H10O3
CAS: 4382-77-8
Molecular weight: 118
m/z	intensity
41	29
42	84
43	999
44	57
45	260
58	63
59	740
60	190
75	120
87	23
103	17
118	1
