Mass Spectrum: 2H-1-Benzopyran-6-ol, 3,4-dihydro-2,7,8-trimethyl-2-(4,8,12,16,20,24,28,32-octamethyl-3,7,11,15,19,23,27,31-tritriacontaoctaenyl)-, [r-(all-E)]-
Formula: C53H82O2
CAS: 4382-43-8
Molecular weight: 750
m/z	intensity
41	275
42	29
43	202
51	32
52	13
53	69
54	23
55	252
56	41
57	119
65	23
66	23
67	160
68	188
69	999
70	69
71	64
76	23
77	64
78	9
79	101
80	41
81	643
82	69
83	82
84	13
85	23
91	82
92	34
93	241
94	50
95	62
96	23
97	50
105	98
106	11
107	206
108	41
109	202
110	29
111	41
119	91
120	23
121	188
122	50
123	137
124	23
131	23
133	64
134	46
135	172
136	41
137	110
138	23
145	41
147	69
148	23
149	133
150	91
151	827
152	133
153	23
159	29
161	64
162	23
163	46
164	32
165	32
175	29
176	50
177	23
178	64
179	11
189	257
190	50
191	241
192	46
200	4
201	18
202	16
203	55
204	20
205	48
206	69
207	34
270	2
271	11
272	9
273	13
274	23
275	4
342	9
362	4
409	2
410	4
411	2
478	4
479	2
546	4
614	2
682	2
750	137
751	82
752	23
