Mass Spectrum: 3H-2-Benzopyran-3-one, 1,4-dihydro-
Formula: C9H8O2
CAS: 4385-35-7
Molecular weight: 148
m/z	intensity
39	150
50	100
51	160
52	70
62	60
63	140
65	100
77	90
78	200
89	100
91	300
92	60
103	220
104	999
105	110
148	250
