Mass Spectrum: Butanoic acid, 2-(aminooxy)-
Formula: C4H9NO3
CAS: 4385-95-9
Molecular weight: 119
m/z	intensity
33	180
41	900
43	890
44	860
45	940
57	330
58	350
59	999
69	550
74	390
87	620
101	120
119	89
