Mass Spectrum: 2,2-Bis(acrylamido)acetic acid
Formula: C8H10N2O4
CAS: 4387-85-3
Molecular weight: 198
m/z	intensity
12	1
14	2
15	4
16	6
25	4
26	41
27	381
28	41
29	13
30	9
36	2
37	1
38	3
39	5
40	3
41	7
42	9
43	33
44	100
45	332
46	59
47	1
50	1
51	4
52	8
53	16
54	39
55	999
56	52
57	8
58	1
60	1
63	1
64	1
65	1
67	1
68	1
69	13
70	8
71	32
72	77
73	5
74	3
77	4
78	1
79	1
80	1
81	2
82	5
83	39
84	9
85	2
89	37
90	2
91	1
93	1
95	2
96	6
97	12
98	5
99	489
100	30
101	2
105	1
106	1
107	1
108	1
109	1
110	1
111	1
118	1
121	1
123	1
124	2
125	1
126	1
128	5
135	2
136	1
143	45
144	3
149	1
153	207
154	49
155	4
