Mass Spectrum: 2-Cyano-1-hexene
Formula: C7H11N
CAS: 4388-91-4
Molecular weight: 109
m/z	intensity
27	686
29	213
39	555
40	330
41	705
42	389
43	652
52	184
53	250
54	76
55	64
56	74
65	59
66	140
67	591
68	999
69	49
77	21
79	29
80	34
81	44
82	35
91	8
92	9
93	8
94	70
95	7
108	41
109	16
110	68
111	7
