Mass Spectrum: Pelletierine
Formula: C8H15NO
CAS: 4396-01-4
Molecular weight: 141
m/z	intensity
41	89
42	62
43	252
54	37
55	98
56	192
57	33
58	60
69	16
79	18
80	84
81	25
82	82
83	42
84	999
85	52
97	16
98	123
99	10
126	8
140	16
141	111
142	8
