Mass Spectrum: Cyclopentylphenylmethanol
Formula: C12H16O
CAS: 4397-01-7
Molecular weight: 176
m/z	intensity
26	10
27	62
29	24
38	19
39	158
40	27
41	142
42	13
50	67
51	183
52	49
53	49
55	26
62	29
63	101
64	48
65	191
66	166
67	612
68	41
69	24
70	8
71	8
74	28
75	35
76	58
77	377
78	110
79	570
80	136
81	11
87	13
88	10
89	66
90	10
91	389
92	63
101	10
102	45
103	31
104	42
105	125
106	10
107	999
108	87
115	343
116	82
117	278
118	28
126	17
127	74
128	190
129	298
130	167
131	20
133	13
141	29
142	23
143	102
144	11
152	16
153	19
154	10
155	9
156	9
157	33
158	478
159	64
174	12
176	44
