Mass Spectrum: 3-Hydroxy-.alpha.,.alpha.,4-trimethylbenzyl alcohol
Formula: C10H14O2
CAS: 4397-18-6
Molecular weight: 166
m/z	intensity
39	130
43	999
51	100
77	140
105	100
107	100
108	140
133	170
148	320
151	170
166	120
