Mass Spectrum: 6-exo-Methylbicyclo[2.2.1]hept-2-ene-5-endo-carboxylic acid
Formula: C9H12O2
CAS: 4397-23-3
Molecular weight: 152
m/z	intensity
27	35
28	18
29	18
38	9
39	81
40	32
41	55
51	26
53	21
55	13
63	12
65	57
66	999
67	85
69	12
77	49
78	17
79	45
80	19
81	27
87	38
91	64
92	16
93	24
105	15
107	12
115	15
117	17
152	25
153	34
