Mass Spectrum: Ethanone, 1-oxiranyl-
Formula: C4H6O2
CAS: 4401-11-0
Molecular weight: 86
m/z	intensity
26	100
27	200
28	80
29	160
31	40
39	20
41	20
42	140
43	999
44	50
55	150
57	10
71	170
85	110
86	190
