Mass Spectrum: Thiazolo[5,4-d]thiazole, 2,5-bis(4-nitrophenyl)-
Formula: C16H8N4O4S2
CAS: 4402-40-8
Molecular weight: 384
m/z	intensity
33	0
34	0
36	0
37	9
38	18
39	40
40	8
41	10
42	36
43	62
44	125
45	45
46	10
47	0
48	3
49	6
50	67
51	75
52	12
53	2
54	0
55	2
56	2
57	3
58	3
59	4
60	6
61	10
62	19
63	25
64	22
65	5
66	1
67	0
69	31
70	26
71	4
72	20
73	7
74	24
75	72
76	55
77	30
78	3
79	0
80	1
81	2
82	6
83	1
84	2
85	4
88	999
89	41
90	82
91	6
92	5
93	12
94	9
95	4
96	5
97	1
98	0
99	2
100	5
102	90
103	8
104	9
105	13
106	3
107	2
108	4
109	0
111	4
112	0
114	7
115	1
117	2
118	14
119	16
120	31
121	4
122	2
123	0
124	7
127	0
131	1
132	16
133	6
134	5
135	2
136	1
139	0
140	0
144	0
146	114
147	11
148	6
150	34
151	20
152	1
153	0
154	0
157	0
158	0
159	0
160	1
161	0
163	2
164	0
166	5
167	1
171	0
177	1
178	2
184	1
188	0
189	1
190	4
192	13
193	0
204	0
205	0
210	0
215	0
216	1
217	1
220	0
221	0
247	1
248	1
254	0
259	0
260	0
261	0
262	0
263	4
265	1
266	1
267	0
277	0
280	8
281	1
282	0
290	4
291	23
292	34
293	8
294	2
308	0
326	1
338	34
339	5
340	1
354	4
368	0
376	0
379	0
380	0
384	187
385	38
386	10
387	2
