Mass Spectrum: 2-Methyl-2-butenenitrile
Formula: C5H7N
CAS: 4403-61-6
Molecular weight: 81
m/z	intensity
14	2
15	10
24	1
25	7
26	76
27	193
28	142
29	27
30	1
31	1
36	6
37	70
38	94
39	432
40	56
41	667
42	52
43	1
48	6
49	40
50	146
51	212
52	301
53	445
54	999
55	90
56	3
60	2
61	5
62	13
63	32
64	84
65	33
66	347
67	16
74	3
75	23
76	18
77	3
78	13
79	8
80	227
81	751
82	47
83	1
