Mass Spectrum: 1,3-Dioxolane, 2-methyl-2-(1-methylethyl)-
Formula: C7H14O2
CAS: 4405-16-7
Molecular weight: 130
m/z	intensity
26	50
27	250
28	100
29	100
30	20
31	30
38	20
39	250
40	40
41	250
42	100
43	999
44	50
45	70
50	30
51	50
52	20
53	70
54	20
55	160
56	30
57	50
69	40
70	50
71	80
85	180
86	30
87	950
88	70
98	60
100	60
115	200
