Mass Spectrum: Diazene, methylphenyl-, 2-oxide
Formula: C7H8N2O
CAS: 4406-68-2
Molecular weight: 136
m/z	intensity
15	78
17	29
18	207
26	19
27	77
28	160
30	36
37	15
38	58
39	192
40	10
41	45
43	191
44	12
45	22
49	5
50	60
51	185
52	50
53	9
58	5
61	7
62	17
63	117
64	309
65	999
66	49
74	18
75	7
76	9
77	331
78	84
79	13
90	19
91	288
92	53
93	3
105	24
120	31
121	282
122	22
135	96
136	556
137	47
