Mass Spectrum: 1,3,2-Dioxaborolane, 2-phenyl-
Formula: C8H9BO2
CAS: 4406-72-8
Molecular weight: 148
m/z	intensity
25	3
26	29
27	42
28	36
29	20
30	3
31	9
33	2
36	4
37	14
38	13
39	55
40	58
41	4
42	11
43	30
44	8
45	15
46	1
48	2
49	8
50	72
51	118
52	41
53	45
54	4
55	1
56	4
57	1
58	2
59	6
60	9
61	28
62	16
63	27
64	9
65	43
66	21
67	5
68	1
70	2
71	1
72	3
73	32
74	31
75	12
76	32
77	135
78	34
79	8
81	1
84	3
85	6
86	6
87	17
88	13
89	40
90	51
91	999
92	93
93	3
94	1
100	2
101	4
102	9
103	48
104	70
105	29
106	2
115	2
116	38
117	224
118	423
119	56
120	4
121	1
132	1
133	3
145	1
146	13
147	249
148	854
149	76
150	6
