Mass Spectrum: Cyprenorphine
Formula: C26H33NO4
CAS: 4406-22-8
Molecular weight: 423
m/z	intensity
43	94
44	85
55	999
59	423
70	58
71	71
84	482
121	270
123	177
136	80
148	88
149	104
161	81
173	54
174	53
175	147
190	75
202	157
204	224
241	78
244	201
255	780
256	214
262	135
282	67
310	68
337	111
338	78
364	802
365	178
404	310
408	89
422	67
423	999
