Mass Spectrum: Methyliminodiacetic acid
Formula: C5H9NO4
CAS: 4408-64-4
Molecular weight: 147
m/z	intensity
12	3
13	2
14	16
15	58
16	5
17	4
18	16
25	2
26	12
27	43
28	105
29	28
30	23
31	30
32	1
38	6
39	11
40	37
41	80
42	396
43	61
44	514
45	33
46	1
51	2
52	3
53	2
54	6
55	7
56	14
57	116
58	102
59	11
60	22
61	1
67	1
68	2
69	3
70	3
71	1
72	5
73	12
74	300
75	10
76	1
80	1
81	1
82	1
83	2
84	1
86	11
87	1
88	31
89	1
100	4
101	24
102	999
103	50
104	5
129	10
147	102
148	7
149	1
