Mass Spectrum: Benzylcyclopentane
Formula: C12H16
CAS: 4410-78-0
Molecular weight: 160
m/z	intensity
51	30
53	10
60	70
61	40
62	60
63	220
64	10
77	20
78	10
79	10
91	400
92	999
93	60
103	10
104	20
105	10
115	30
116	10
117	30
118	10
131	10
160	170
161	20
