Mass Spectrum: 2-Dodecenoic acid
Formula: C12H22O2
CAS: 4412-16-2
Molecular weight: 198
m/z	intensity
25	3
26	22
27	444
28	120
29	744
30	22
31	31
33	0
34	8
36	5
37	5
38	9
39	315
40	176
41	995
42	325
43	999
44	41
45	79
46	6
47	1
50	2
51	27
52	11
53	125
54	95
55	552
56	315
57	358
58	28
59	18
60	36
61	10
65	16
66	23
67	158
68	169
69	249
70	252
71	145
72	14
73	497
74	18
75	8
77	16
78	2
79	26
80	14
81	157
82	110
83	193
84	244
85	46
86	159
87	66
88	11
89	2
91	12
92	2
93	2
94	21
95	85
96	161
97	192
98	141
99	139
100	49
101	38
102	12
103	14
105	5
106	1
107	6
108	8
109	44
110	57
111	48
112	37
113	80
114	56
115	37
116	6
117	2
119	9
120	6
121	2
123	41
124	36
125	12
126	45
127	55
128	16
129	10
130	20
133	12
134	5
135	10
136	36
137	33
138	69
139	21
141	8
142	2
143	4
144	1
148	2
151	23
152	6
153	2
154	2
156	2
157	3
162	14
165	2
166	0
180	23
181	4
198	3
