Mass Spectrum: Ethane, 1,2-bis(vinylthio)-
Formula: C6H10S2
CAS: 4413-12-1
Molecular weight: 146
m/z	intensity
41	43
45	999
46	57
47	178
48	13
53	116
57	146
58	515
59	659
60	86
61	54
64	15
71	3
73	178
85	402
86	27
87	652
88	24
89	20
91	26
105	7
112	82
113	5
118	169
119	16
120	11
