Mass Spectrum: Ether, tert-butyl 3,3-dimethylbutyl
Formula: C10H22O
CAS: 4419-58-3
Molecular weight: 158
m/z	intensity
41	240
42	20
43	330
44	40
53	20
55	50
56	100
57	999
58	50
59	110
67	20
68	20
69	50
85	350
86	30
87	70
93	20
143	140
144	20
