Mass Spectrum: Pyrrolidine, 1-(1-oxopentyl)-
Formula: C9H17NO
CAS: 4419-57-2
Molecular weight: 155
m/z	intensity
41	188
42	69
43	316
44	29
55	267
56	138
57	178
68	29
69	39
70	534
71	277
72	79
84	19
85	267
86	29
98	168
99	39
112	79
113	999
114	79
126	138
127	39
140	59
154	19
155	118
156	19
