Mass Spectrum: cis-1,2-Cyclododecanediol
Formula: C12H24O2
CAS: 4422-05-3
Molecular weight: 200
m/z	intensity
14	3
15	19
16	3
17	25
18	97
25	1
26	11
27	243
28	43
29	346
30	16
31	100
32	9
34	1
36	3
37	2
38	6
39	219
40	47
41	873
42	207
43	375
44	175
45	72
46	3
47	8
48	2
49	2
50	6
51	17
52	10
53	98
54	301
55	999
56	285
57	580
58	233
59	67
60	13
61	5
62	7
63	6
64	2
65	22
66	76
67	607
68	534
69	528
70	329
71	321
72	58
73	22
74	55
75	15
76	2
77	29
78	19
79	184
80	217
81	527
82	881
83	527
84	240
85	139
86	36
87	50
88	5
89	2
91	26
92	12
93	155
94	170
95	398
96	482
97	333
98	341
99	55
100	30
101	50
102	4
103	3
104	2
105	14
106	8
107	103
108	101
109	149
110	125
111	209
112	101
113	25
114	16
115	16
116	2
117	3
118	1
119	11
120	7
121	162
122	93
123	66
124	76
125	88
126	58
127	16
128	3
129	3
130	3
131	4
132	1
133	8
134	5
135	118
136	79
137	26
138	48
139	53
140	12
141	7
142	5
143	4
144	1
145	1
147	3
148	2
149	25
150	5
151	13
152	10
153	13
154	11
155	3
156	1
157	2
158	1
159	1
160	1
161	1
162	6
163	3
164	40
165	7
166	11
167	7
168	2
169	20
170	5
171	1
172	1
175	1
178	1
180	6
181	3
182	61
183	9
184	1
185	1
196	1
198	7
199	2
200	2
