Mass Spectrum: 1,4-Dioxaspiro(4.5)decane-2-one
Formula: C8H12O3
CAS: 4423-79-4
Molecular weight: 156
m/z	intensity
14	6
15	10
17	1
18	3
26	12
27	122
28	75
29	63
30	8
31	15
32	1
33	1
34	4
35	1
37	2
38	9
39	157
40	39
41	281
42	487
43	195
44	15
45	22
46	2
48	5
50	7
51	15
52	9
53	39
54	120
55	999
56	145
57	20
58	3
59	1
60	6
61	1
62	1
63	2
64	1
65	8
66	5
67	69
68	18
69	408
70	309
71	24
72	25
73	2
74	1
77	9
78	3
79	22
80	202
81	42
82	6
83	118
84	55
85	134
86	9
87	3
91	1
94	1
95	1
96	3
97	73
98	988
99	75
100	27
101	2
109	1
110	2
111	21
112	46
113	646
114	38
115	6
126	52
127	82
128	20
129	2
138	1
155	1
156	270
157	28
158	3
