Mass Spectrum: Silicic acid, tetrakis(phenylmethyl) ester
Formula: C28H28O4Si
CAS: 4424-00-4
Molecular weight: 456
m/z	intensity
27	35
28	28
29	26
31	15
37	7
38	18
39	78
40	9
41	21
42	4
43	17
44	27
45	6
49	7
50	67
51	155
52	36
53	32
54	6
55	14
56	5
57	14
61	8
62	17
63	40
64	6
65	94
66	9
67	4
68	13
69	4
70	8
71	6
72	19
73	9
74	10
75	354
76	66
77	626
78	49
79	10
82	5
83	4
84	6
88	42
90	37
91	999
92	79
93	6
94	9
95	5
97	4
103	5
104	52
105	20
106	303
107	408
108	27
114	5
118	6
120	5
139	13
141	11
142	5
149	19
150	8
151	43
152	12
153	20
154	4
155	6
165	11
166	4
167	70
168	15
169	7
170	4
178	8
179	24
180	11
181	66
182	8
183	6
199	12
211	20
212	5
213	3
227	4
229	76
230	13
231	4
241	17
242	3
243	3
257	7
259	8
273	4
287	16
288	3
365	432
366	102
367	26
368	4
456	2
