Mass Spectrum: 1H-2-Benzothiopyran-4(3H)-one
Formula: C9H8OS
CAS: 4426-76-0
Molecular weight: 164
m/z	intensity
50	40
51	80
63	120
64	50
65	20
74	20
75	20
76	20
77	60
78	20
89	200
90	600
91	30
105	20
118	999
119	80
133	20
135	30
164	700
165	70
166	30
