Mass Spectrum: 1-Butaneboronic acid
Formula: C4H11BO2
CAS: 4426-47-5
Molecular weight: 102
m/z	intensity
41	155
42	75
43	132
44	283
45	999
47	20
48	7
52	5
53	18
54	15
55	59
56	318
57	43
58	3
59	15
60	57
61	9
62	9
63	34
65	1
66	0
67	2
68	2
69	6
70	1
71	5
72	109
73	391
74	15
75	2
77	1
81	2
82	3
83	7
84	5
85	21
86	30
87	16
88	4
100	1
101	6
102	19
103	3
104	0
