Mass Spectrum: Phenyl isoselenocyanate
Formula: C7H5NSe
CAS: 4426-68-0
Molecular weight: 183
m/z	intensity
50	300
51	480
52	85
62	22
63	63
64	44
73	20
74	84
75	110
76	460
77	999
78	94
80	30
91	60
92	30
102	26
103	960
104	78
156	28
179	88
180	78
181	220
182	23
183	480
184	38
185	80
