Mass Spectrum: Ethanol, 2,2'-trithiobis-
Formula: C4H10O2S3
CAS: 4428-14-2
Molecular weight: 186
m/z	intensity
43	292
44	45
45	999
46	281
47	353
48	18
59	614
60	394
61	168
64	272
77	23
79	280
92	219
124	318
186	226
