Mass Spectrum: Benzene, 1-chloro-3-fluoro-2-methyl-
Formula: C7H6ClF
CAS: 443-83-4
Molecular weight: 144
m/z	intensity
26	1
27	2
28	1
31	8
33	1
36	3
37	4
38	5
39	14
43	9
44	45
49	3
50	12
51	12
52	1
53	9
54	34
56	3
57	40
58	2
59	6
60	2
61	10
62	24
63	29
64	3
65	1
67	3
68	3
69	4
70	2
71	4
72	10
73	10
74	7
75	6
76	1
77	1
80	4
81	25
82	7
83	77
84	6
85	5
86	5
87	5
88	3
89	18
90	2
91	5
92	1
93	6
94	2
97	2
99	1
104	1
105	4
106	2
107	127
108	93
109	999
110	79
111	3
115	1
117	17
118	1
119	6
124	1
125	2
141	1
142	2
143	142
144	514
145	84
146	164
147	12
