Mass Spectrum: Hexanamide, N-hexanoyl-
Formula: C12H23NO2
CAS: 4430-07-3
Molecular weight: 213
m/z	intensity
39	195
40	292
41	402
43	999
44	181
45	9
51	4
52	10
53	31
55	277
57	100
59	419
60	112
67	11
68	14
69	76
72	953
73	74
74	9
80	9
81	10
83	14
86	255
87	6
98	157
99	286
100	58
101	98
102	12
114	107
116	420
117	7
128	11
129	14
141	1
142	32
143	3
157	174
170	312
171	26
184	37
213	44
