Mass Spectrum: Lesquerellin
Formula: C8H15NS2
CAS: 4430-39-1
Molecular weight: 189
m/z	intensity
26	4
27	56
28	17
29	42
30	6
32	4
34	2
35	34
37	3
38	4
39	123
40	21
41	392
42	37
43	26
44	15
45	110
46	51
47	98
48	63
49	34
50	8
51	13
52	7
53	62
54	100
55	515
56	57
57	11
58	41
59	90
60	64
61	999
62	69
63	51
64	6
65	14
66	9
67	244
68	40
69	121
70	37
71	25
72	485
73	63
74	85
75	88
76	23
77	12
78	6
79	42
80	60
81	188
82	257
83	198
84	71
85	90
86	92
87	105
88	17
89	17
90	2
91	12
92	2
93	8
94	13
95	4
96	24
97	15
98	68
99	28
100	62
101	56
102	18
103	7
104	2
105	4
106	7
107	10
108	169
109	108
110	190
111	20
112	47
113	128
114	110
115	212
116	20
117	20
118	4
119	2
123	3
124	4
125	6
126	20
127	5
128	185
129	32
130	24
131	41
132	7
133	2
139	2
140	146
141	49
142	293
143	130
144	24
145	6
146	2
156	439
157	43
158	21
159	2
160	1
174	84
175	9
176	8
188	3
189	731
190	75
191	70
192	7
193	3
