Mass Spectrum: Erucin
Formula: C6H11NS2
CAS: 4430-36-8
Molecular weight: 161
m/z	intensity
26	7
27	46
29	22
30	16
35	34
38	10
39	75
40	13
41	79
43	45
45	134
46	58
47	80
48	59
49	31
50	12
51	11
53	60
54	49
55	194
56	27
58	79
59	68
60	76
61	656
62	24
63	23
65	16
66	18
67	34
68	26
70	27
72	393
73	38
74	204
75	32
76	11
78	30
80	30
81	18
82	56
84	15
85	335
86	60
87	255
88	13
89	27
98	18
100	96
102	46
103	19
105	27
106	9
112	65
113	267
114	194
115	999
116	100
117	55
118	16
128	23
146	93
161	285
162	29
163	31
