Mass Spectrum: 2,3-Dimethyl-cyclohexa-1,3-diene
Formula: C8H12
CAS: 4430-91-5
Molecular weight: 108
m/z	intensity
26	8
27	76
29	24
37	8
38	20
39	146
40	25
41	84
42	8
43	14
44	8
45	8
46	7
49	7
50	31
51	82
52	44
53	72
54	17
55	22
56	7
57	12
60	6
61	8
62	17
63	36
64	12
65	100
66	29
67	33
68	10
69	11
70	7
71	6
72	5
73	6
74	8
75	8
76	7
77	429
78	64
79	138
80	24
81	12
82	6
83	7
84	6
85	5
89	13
90	6
91	600
92	79
93	999
94	100
95	9
102	7
103	23
104	11
105	68
106	21
107	131
108	614
109	59
110	8
111	6
112	7
