Mass Spectrum: Butanoic acid, 2-(aminocarbonyl)-2-ethyl-
Formula: C7H13NO3
CAS: 4431-54-3
Molecular weight: 159
m/z	intensity
44	460
45	290
55	490
57	250
59	80
69	300
70	100
71	80
72	90
73	90
83	200
85	160
86	140
87	290
97	60
98	220
99	100
100	570
101	999
112	170
113	140
114	210
115	290
116	600
130	120
131	320
144	80
159	180
