Mass Spectrum: 2-Carbamoyl-3-methylbutanoic acid
Formula: C6H11NO3
CAS: 4431-61-2
Molecular weight: 145
m/z	intensity
12	2
14	3
15	13
16	10
17	22
18	29
26	11
27	125
28	50
29	73
30	5
31	7
37	11
38	25
39	165
40	35
41	474
42	114
43	569
44	573
45	46
46	5
47	1
49	2
50	9
51	12
52	11
53	23
54	22
55	65
56	14
57	54
58	7
59	308
60	15
61	1
62	1
63	3
64	8
65	5
66	30
67	18
68	50
69	293
70	13
71	3
72	1
73	2
75	47
76	2
77	1
80	5
81	16
82	20
83	74
84	68
85	396
86	165
87	450
88	20
89	2
94	30
95	4
98	2
99	25
100	152
101	57
102	29
103	999
104	39
105	7
108	1
109	20
110	2
112	12
113	5
126	1
127	5
128	19
129	5
130	7
145	3
146	27
147	2
