Mass Spectrum: 5-Azabicyclo[2.2.0]hex-2-en-6-one
Formula: C5H5NO
CAS: 4432-69-3
Molecular weight: 95
m/z	intensity
27	43
28	347
37	81
38	143
39	361
40	170
41	247
50	171
51	206
52	999
53	56
66	21
67	76
68	17
69	19
95	88
96	7
