Mass Spectrum: 2-(N-Morpholino)ethanesulfonic acid
Formula: C6H13NO4S
CAS: 4432-31-9
Molecular weight: 195
m/z	intensity
13	1
14	4
15	23
16	1
17	10
18	30
19	2
20	1
23	1
24	3
25	10
26	87
27	117
28	194
29	157
30	78
31	12
32	7
33	2
34	7
36	2
37	1
38	4
39	18
40	15
41	66
42	277
43	61
44	63
45	31
46	26
47	1
48	85
49	1
50	4
51	5
52	8
53	8
54	68
55	227
56	279
57	394
58	48
59	10
60	2
63	1
64	324
65	34
66	17
67	14
68	18
69	20
70	52
71	10
72	24
73	19
74	1
76	2
77	2
78	3
79	5
80	9
81	6
82	17
83	19
84	71
85	45
86	139
87	469
88	25
89	2
91	4
92	3
93	7
94	5
95	5
96	3
97	2
98	36
99	6
100	999
101	64
102	4
104	1
105	1
106	2
107	2
108	3
109	15
110	7
111	11
112	18
113	98
114	40
115	43
116	4
117	1
118	1
119	1
120	5
121	1
122	1
124	1
125	1
126	1
127	1
128	1
129	2
130	3
131	6
132	2
133	1
134	1
135	1
136	2
137	9
138	5
139	1
145	1
150	1
152	2
164	5
165	3
166	2
180	1
193	3
194	13
195	38
196	25
197	4
198	1
