Mass Spectrum: Nonadecane, 1-bromo-
Formula: C19H39Br
CAS: 4434-66-6
Molecular weight: 346
m/z	intensity
25	1
26	2
27	74
29	167
30	5
31	18
38	0
39	44
40	16
41	391
42	85
43	648
44	24
45	0
50	1
51	1
52	1
53	25
54	40
55	377
56	96
57	999
58	35
59	0
63	1
65	5
66	3
67	53
68	42
69	226
70	76
71	567
72	26
76	1
77	2
78	1
79	8
80	7
81	20
82	35
83	139
84	44
85	277
86	18
91	0
92	1
93	3
94	2
96	10
97	75
98	24
99	108
100	6
107	5
108	0
110	3
111	32
112	13
113	69
114	4
115	0
119	0
120	0
121	3
124	4
125	11
126	8
127	38
128	3
134	1
135	214
136	11
137	249
138	9
139	3
140	3
141	30
142	2
148	7
149	50
150	8
151	47
152	1
153	0
154	3
155	18
156	2
162	4
163	12
164	4
165	9
166	0
167	1
168	0
169	13
170	1
177	8
178	1
179	6
182	1
183	11
184	2
191	5
192	1
193	5
194	0
196	1
197	9
198	2
205	5
206	1
207	4
211	6
212	0
219	2
220	1
221	2
224	0
225	1
233	1
234	1
235	2
247	1
249	1
261	1
263	0
267	26
268	5
269	0
275	1
279	1
282	0
289	0
291	1
303	0
346	7
347	1
348	6
349	1
