Mass Spectrum: 3-Hexenedioic acid
Formula: C6H8O4
CAS: 4436-74-2
Molecular weight: 144
m/z	intensity
41	174
42	134
43	473
44	40
45	409
46	12
47	3
49	25
50	51
51	81
52	44
53	288
54	291
55	588
56	122
57	564
58	106
59	3
60	111
61	10
67	15
69	33
70	91
71	50
72	3
73	26
79	15
80	119
81	165
82	43
83	18
84	134
85	44
86	13
87	16
89	3
97	94
98	152
99	177
100	57
102	14
108	999
109	50
125	15
126	686
127	85
144	19
145	3
