Mass Spectrum: Fumaranilic acid
Formula: C10H9NO3
CAS: 4437-08-5
Molecular weight: 191
m/z	intensity
37	11
38	45
39	160
40	24
41	19
42	8
43	21
44	52
45	322
46	19
50	53
51	131
52	71
53	109
54	101
55	81
61	5
62	22
63	88
64	85
65	277
66	142
67	15
68	10
71	97
72	7
73	4
74	10
75	7
76	12
77	96
78	13
80	11
81	6
82	7
89	8
90	13
91	58
92	119
93	999
94	73
98	4
99	227
100	8
103	6
104	4
117	19
118	14
119	12
120	4
127	3
128	21
129	5
136	5
144	3
145	34
146	103
147	10
148	1
155	2
173	5
191	151
192	16
193	1
