Mass Spectrum: 1,3-Dioxolan-2-one, 4,5-dimethyl-
Formula: C5H8O3
CAS: 4437-70-1
Molecular weight: 116
m/z	intensity
26	70
27	210
28	330
29	410
39	40
41	70
42	30
43	999
44	330
45	240
55	10
57	60
70	20
71	60
72	90
73	20
86	10
101	220
116	80
