Mass Spectrum: 8-Azabicyclo[3.2.1]oct-6-en-3-one, 8-methyl-
Formula: C8H11NO
CAS: 4438-38-4
Molecular weight: 137
m/z	intensity
32	60
35	10
36	5
37	10
38	15
39	75
40	15
41	65
42	130
43	65
44	5
47	30
48	15
49	15
50	15
51	30
52	30
53	85
54	15
55	10
56	5
58	5
59	10
62	5
63	10
64	5
65	30
66	25
67	40
68	15
77	15
78	20
79	10
80	15
81	10
82	10
83	105
84	5
85	65
87	10
92	15
93	60
94	999
95	155
96	10
108	5
109	5
137	115
138	15
