Mass Spectrum: 1,2-Longidione
Formula: C15H22O2
CAS: 4439-95-6
Molecular weight: 234
m/z	intensity
26	23
27	372
29	472
30	23
31	34
34	13
36	19
38	17
39	490
40	162
41	999
42	168
43	431
44	429
45	25
49	12
50	22
51	93
52	60
53	451
54	149
55	731
56	150
57	117
58	25
59	30
60	27
61	12
62	11
63	29
64	36
65	268
66	176
67	735
68	313
69	577
70	90
71	87
72	19
73	28
74	20
75	37
76	12
77	521
78	148
79	610
80	197
81	664
82	621
83	227
84	54
85	34
86	17
89	31
90	25
91	556
92	168
93	704
94	597
95	616
96	351
97	124
98	51
99	24
101	13
102	24
103	55
104	35
105	375
106	214
107	726
108	631
109	727
110	414
111	140
112	30
113	17
115	41
116	24
117	66
118	70
119	277
120	174
121	475
122	412
123	210
124	96
125	53
126	25
127	21
128	36
129	35
130	17
131	161
132	176
133	261
134	200
135	628
136	200
137	273
138	81
139	25
140	15
141	15
142	40
143	12
144	25
145	688
146	161
147	672
148	168
149	267
150	181
151	38
152	24
153	18
156	13
157	27
158	16
159	116
160	123
161	41
162	48
163	619
164	147
165	29
167	16
170	14
172	23
173	507
174	93
175	519
176	87
177	138
178	104
179	21
181	15
182	15
183	17
186	14
187	22
188	213
189	43
190	15
191	427
192	65
201	11
203	11
204	12
205	25
206	505
207	137
208	14
234	615
235	204
236	30
