Mass Spectrum: 2,4,6(1H,3H,5H)-Pyrimidinetrione, 5-hydroxy-
Formula: C4H4N2O4
CAS: 444-15-5
Molecular weight: 144
m/z	intensity
27	57
28	193
29	311
30	586
31	15
32	3
33	1
36	8
37	1
38	36
40	27
41	36
43	28
44	239
45	108
47	4
48	4
53	14
55	4
57	10
58	999
59	34
60	13
65	3
66	2
67	5
68	3
69	18
70	65
71	4
73	3
77	1
79	6
80	1
81	2
82	12
83	4
84	7
86	6
87	10
88	2
92	3
93	1
94	1
99	1
101	273
102	4
103	7
105	4
109	5
110	1
111	6
112	2
113	6
114	12
115	4
116	6
119	5
120	1
137	5
138	4
139	5
144	91
145	11
146	2
