Mass Spectrum: 1,3,2-Dioxathiolane, 4,5-dimethyl-, 2-oxide
Formula: C4H8O3S
CAS: 4440-90-8
Molecular weight: 136
m/z	intensity
26	20
27	100
28	40
29	230
39	20
41	40
42	30
43	999
44	80
45	20
48	70
55	20
57	50
64	150
65	20
66	10
72	60
92	160
93	10
94	10
121	7
136	1
