Mass Spectrum: 4-Cyclohexylbutyramide
Formula: C10H19NO
CAS: 4441-62-7
Molecular weight: 169
m/z	intensity
41	243
42	54
43	102
44	275
45	1
46	9
47	1
49	3
50	1
51	12
52	8
53	56
54	42
55	223
56	19
57	12
59	999
60	84
61	4
63	2
64	0
65	13
66	6
67	68
68	13
69	34
70	6
72	327
73	85
74	2
76	1
77	14
78	3
79	27
80	4
81	38
82	6
83	20
85	6
86	94
87	8
88	1
90	3
91	8
92	1
93	6
95	9
96	2
97	6
98	7
99	1
100	1
105	2
107	6
108	6
109	13
110	10
112	5
113	4
114	2
116	0
118	1
123	2
124	3
126	363
127	17
128	0
133	2
134	7
135	9
140	4
141	1
151	16
152	7
153	2
160	4
167	14
168	77
169	225
170	18
171	2
