Mass Spectrum: 1-Benzoxepin-2(3H)-one, octahydro-
Formula: C10H16O2
CAS: 4441-65-0
Molecular weight: 168
m/z	intensity
27	20
28	10
29	13
39	50
40	10
41	125
42	18
43	20
44	8
51	7
53	27
54	53
55	126
56	20
57	19
65	14
66	22
67	204
68	68
69	49
70	33
71	30
72	8
77	15
79	48
80	49
81	76
82	45
83	102
84	999
85	93
86	7
91	10
93	19
94	10
95	35
96	48
97	168
98	43
99	9
107	12
108	11
109	9
110	7
111	32
112	9
121	16
122	9
123	9
124	16
125	90
126	10
127	28
139	8
140	14
150	21
168	95
169	9
