Mass Spectrum: Tripiperidinophosphine oxide
Formula: C15H30N3OP
CAS: 4441-17-2
Molecular weight: 299
m/z	intensity
15	3
27	6
28	16
29	14
30	28
39	4
41	25
42	34
43	7
44	11
46	1
47	6
49	2
53	2
54	6
55	41
56	39
57	8
60	2
64	1
67	7
68	4
69	4
70	9
74	1
75	3
76	17
77	1
78	6
80	2
81	1
82	20
83	86
84	999
85	208
86	39
87	2
89	1
90	2
91	1
98	1
102	3
103	5
104	3
105	1
112	1
114	1
115	10
116	4
128	1
130	11
131	27
132	28
133	2
148	8
149	1
159	6
161	1
167	2
168	1
169	2
185	1
199	1
213	2
214	44
215	129
216	27
217	6
298	3
299	84
300	30
301	4
