Mass Spectrum: Cyclohexanebutanoic acid
Formula: C10H18O2
CAS: 4441-63-8
Molecular weight: 170
m/z	intensity
14	2
15	6
17	4
18	17
26	5
27	117
28	44
29	114
30	4
31	10
32	6
36	7
38	6
39	150
40	26
41	468
42	65
43	112
44	8
45	68
46	3
47	4
50	6
51	19
52	10
53	68
54	101
55	999
56	74
57	37
58	9
59	18
60	819
61	112
62	8
63	7
64	3
65	23
66	16
67	246
68	76
69	314
70	39
71	25
72	3
73	236
74	36
75	9
76	2
77	32
78	13
79	62
80	27
81	168
82	185
83	610
84	73
85	15
86	6
87	95
88	270
89	35
90	4
91	24
92	33
93	31
94	31
95	49
96	43
97	111
98	15
99	14
100	9
101	10
102	5
103	7
104	3
105	21
106	9
107	50
110	72
111	342
112	31
113	6
114	7
115	6
116	3
117	3
119	20
120	6
121	13
122	20
123	24
124	17
125	6
126	3
152	31
153	6
168	7
169	3
170	26
171	6
