Mass Spectrum: Bicyclo[2.2.1]heptane, 2-methoxy-1,7,7-trimethyl-
Formula: C11H20O
CAS: 4443-51-0
Molecular weight: 168
m/z	intensity
26	4
27	124
28	30
29	146
30	5
31	13
33	6
38	4
39	149
40	27
41	364
42	29
43	113
44	7
45	71
50	6
51	26
52	13
53	107
54	19
55	243
56	21
57	31
58	38
59	152
60	6
63	7
65	37
66	15
67	168
68	36
69	68
70	8
71	40
72	6
73	33
77	74
78	16
79	99
80	25
81	77
82	21
83	24
84	75
85	140
86	77
87	6
91	62
92	32
93	222
94	34
95	999
96	146
97	46
98	12
99	12
105	29
106	8
107	39
108	220
109	78
110	269
111	31
112	5
113	20
119	4
121	234
122	23
123	13
125	23
127	7
136	161
137	22
139	4
140	6
153	32
154	4
168	47
169	5
