Mass Spectrum: Cyclohexane, (1-hexyltetradecyl)-
Formula: C26H52
CAS: 4443-60-1
Molecular weight: 364
m/z	intensity
36	1
37	2
38	4
39	74
40	18
41	718
42	135
43	999
44	35
45	1
46	1
47	1
48	1
49	1
50	2
51	4
52	3
53	39
54	102
55	970
56	221
57	955
58	43
59	1
60	1
61	1
62	1
63	1
64	1
65	7
66	10
67	245
68	69
69	417
70	150
71	544
72	31
73	1
74	1
75	1
76	1
77	8
78	2
79	21
80	9
81	97
82	655
83	752
84	113
85	366
86	25
87	1
89	1
90	1
91	6
92	2
93	7
94	4
95	44
96	103
97	423
98	63
99	117
100	9
101	1
102	1
103	1
104	1
105	1
106	1
107	2
108	2
109	30
110	23
111	218
112	41
113	70
114	6
115	1
116	1
117	1
118	1
119	1
120	1
121	1
122	1
123	8
124	15
125	117
126	28
127	47
128	5
129	1
130	1
131	1
132	1
133	1
134	1
135	1
136	1
137	4
138	11
139	46
140	16
141	34
142	4
143	1
147	1
149	1
150	1
151	2
152	10
153	29
154	12
155	25
156	3
157	1
165	1
166	7
167	22
168	10
169	19
170	2
171	1
177	1
178	1
179	1
180	54
181	97
182	19
183	17
184	2
185	1
193	1
194	4
195	13
196	6
197	13
198	2
199	1
206	1
207	1
208	3
209	8
210	4
211	8
212	1
213	1
221	1
222	2
223	5
224	3
225	5
226	1
235	1
236	1
237	3
238	2
239	2
240	1
241	1
250	2
251	2
252	6
253	1
254	1
264	1
265	2
266	1
267	1
278	20
279	35
280	75
281	43
282	9
283	1
292	1
293	1
294	1
295	1
306	1
307	1
308	1
309	1
320	1
321	1
322	1
323	1
335	1
349	1
362	1
363	1
364	1
365	1
