Mass Spectrum: Propanamide, 3-(1,3-dihydro-1,3-dioxoisoindol-2-yl)-N-phenyl-
Formula: C17H14N2O3
CAS: 4443-34-9
Molecular weight: 294
m/z	intensity
33	8
34	1
35	0
36	2
37	6
38	18
39	72
40	31
41	13
42	23
43	11
44	9
45	2
46	0
50	86
51	72
52	19
53	9
55	166
56	20
57	4
58	4
59	0
60	0
61	2
62	9
63	30
64	36
65	119
66	58
67	6
68	2
70	12
71	1
74	33
75	51
76	155
77	204
78	20
79	8
80	1
81	0
82	0
83	1
84	0
85	0
86	0
87	2
88	6
89	12
90	17
91	34
93	999
94	52
96	4
97	0
98	1
99	0
100	0
102	47
103	23
104	87
105	63
106	20
107	1
110	0
111	0
112	0
114	3
115	1
116	4
117	8
118	6
119	8
120	4
121	0
123	0
125	0
128	3
130	96
131	9
132	12
133	55
134	7
135	0
139	0
140	0
143	0
144	2
145	7
146	26
147	21
148	17
149	13
150	1
151	0
152	0
156	0
160	862
161	74
162	7
163	0
164	0
166	0
167	0
170	0
171	2
173	31
174	16
175	4
176	0
178	0
179	0
180	0
187	0
190	0
192	0
196	0
199	2
200	6
202	311
203	36
204	3
205	3
206	0
207	1
218	0
219	0
221	0
222	0
223	0
245	1
246	0
247	0
249	3
250	1
251	0
275	0
276	0
277	0
280	1
281	1
282	1
283	0
284	0
290	0
291	0
292	2
294	158
295	30
296	3
