Mass Spectrum: 2,4(1H,3H)-Pyrimidinedione, 1-(2-deoxy-.alpha.-D-erythro-pentofuranosyl)-5-methyl-
Formula: C10H14N2O5
CAS: 4449-43-8
Molecular weight: 242
m/z	intensity
26	34
27	173
28	248
29	181
30	36
31	164
32	17
39	147
40	86
41	173
42	162
43	575
44	199
45	599
46	17
47	15
52	21
53	58
54	134
55	281
56	71
57	127
58	30
59	106
60	36
61	41
65	8
66	8
67	19
68	49
69	158
70	58
71	212
72	30
73	519
74	19
75	34
76	17
78	17
79	4
80	71
81	86
82	123
83	58
84	23
85	21
86	17
87	13
94	10
96	19
97	41
98	90
99	246
100	15
108	6
109	15
110	136
111	6
114	4
116	21
117	999
118	64
119	8
126	281
127	222
128	19
150	17
153	39
154	15
156	6
181	51
182	4
206	8
242	90
243	13
