Mass Spectrum: AM1241
Formula: C22H22IN3O3
CAS: 444912-48-5
Molecular weight: 503
m/z	intensity
41	12
42	41
43	5
44	7
45	1
50	1
51	2
52	1
53	2
54	3
55	14
56	7
57	4
58	1
62	2
63	4
64	1
65	2
66	1
67	4
68	10
70	108
71	6
73	1
74	4
75	14
76	5
77	4
78	2
79	2
80	2
81	4
82	12
83	6
84	7
85	1
86	1
87	1
88	4
89	4
90	1
91	1
92	1
93	1
94	6
96	35
98	999
99	72
100	3
101	7
102	12
103	5
104	1
105	1
108	1
110	4
111	2
112	2
113	1
114	2
115	7
116	3
117	1
125	1
126	1
127	6
128	18
129	20
130	4
131	1
137	1
138	1
139	1
140	1
141	1
143	3
144	3
149	1
150	3
151	4
152	2
153	1
154	2
155	1
156	2
157	4
158	2
161	1
162	1
163	4
164	3
165	3
167	2
168	1
169	1
170	1
174	1
175	2
176	10
177	4
178	1
179	1
180	1
184	1
188	2
189	2
190	5
191	4
192	1
193	1
195	1
197	1
201	4
202	11
203	13
204	10
205	3
207	1
209	1
210	1
215	1
216	1
217	1
218	3
219	2
220	1
225	1
226	1
228	1
230	8
231	4
232	3
233	2
234	1
246	2
247	2
248	1
249	1
255	1
276	9
277	2
278	1
279	1
284	1
312	1
343	1
359	4
360	1
405	11
406	2
