Mass Spectrum: AM2233
Formula: C22H23IN2O
CAS: 444912-55-4
Molecular weight: 458
m/z	intensity
41	7
42	26
43	3
44	7
45	1
50	3
51	2
52	1
53	2
54	3
55	9
56	3
57	3
58	3
62	1
63	1
64	1
65	1
66	1
67	3
68	7
70	82
71	4
73	1
74	2
75	4
76	13
77	7
78	1
79	1
80	2
81	3
82	10
83	4
84	2
87	1
88	3
89	4
91	1
94	4
95	1
96	24
98	999
99	74
100	2
101	4
102	10
103	4
104	1
105	3
107	1
108	1
109	2
110	4
111	2
112	6
113	2
114	3
115	7
116	1
117	1
121	1
125	1
127	5
128	12
129	10
130	3
133	1
135	1
137	1
138	1
139	2
140	1
141	1
142	1
143	3
144	4
145	1
147	1
149	1
150	4
151	6
152	4
153	1
154	1
155	1
156	1
157	1
158	3
159	1
161	1
162	1
163	12
164	11
165	3
166	1
167	1
168	1
169	1
170	1
174	1
175	3
176	16
177	9
178	9
179	2
180	1
181	1
182	1
183	1
184	1
185	1
187	1
188	1
189	1
190	9
191	3
192	1
193	1
197	1
199	1
200	1
201	1
203	41
204	40
205	8
206	2
207	1
208	1
209	1
214	1
215	1
216	2
217	2
218	1
219	3
220	2
221	1
225	2
226	1
227	1
228	1
229	1
231	47
232	17
233	4
234	3
235	1
239	1
242	1
243	1
244	1
246	1
247	1
248	1
253	1
254	1
255	1
257	1
258	1
267	1
280	1
281	2
283	1
315	1
327	1
328	1
343	1
354	1
360	16
361	3
382	1
405	1
413	1
428	1
431	1
439	1
440	1
456	1
457	1
458	1
