Mass Spectrum: 4-Fluoro-2-nitroanisole
Formula: C7H6FNO3
CAS: 445-83-0
Molecular weight: 171
m/z	intensity
14	2
15	25
18	2
26	13
27	9
28	13
29	36
30	182
31	116
32	2
33	7
36	3
37	21
38	28
39	30
44	9
45	9
46	21
49	9
50	88
51	60
52	9
53	27
54	1
55	10
56	67
57	81
58	4
59	26
60	3
61	49
62	56
63	180
64	14
65	51
66	3
68	61
69	58
70	137
71	14
72	8
73	14
74	60
75	346
76	84
77	58
78	5
79	7
80	16
81	242
82	477
83	178
84	16
85	9
92	13
93	28
94	96
95	999
96	194
97	119
98	61
99	4
109	5
110	522
111	225
112	45
113	177
114	10
123	6
124	828
125	55
126	14
138	2
140	11
141	291
142	24
154	6
155	7
171	567
172	43
173	3
