Mass Spectrum: 4-Hydroxy-1-methyl-5-oxo-2,5-dihydro-1H-pyrrole-3-carboxylic acid, ethyl ester
Formula: C8H11NO4
CAS: 4450-97-9
Molecular weight: 185
m/z	intensity
25	6
26	124
27	389
28	311
29	445
30	93
31	72
36	6
37	3
38	8
39	17
40	20
41	66
42	539
43	91
44	100
45	95
46	12
47	3
50	3
51	6
52	12
53	73
54	378
55	420
56	108
57	48
58	190
59	7
60	3
65	3
66	10
67	38
68	43
69	48
70	17
71	36
72	97
73	57
74	3
80	6
81	6
82	149
83	169
84	178
85	53
86	5
87	8
88	6
95	5
96	4
98	5
99	248
100	31
101	36
110	21
111	77
112	999
113	517
114	36
115	4
126	5
127	39
128	24
129	16
138	30
139	203
140	396
141	131
142	15
156	6
157	13
170	3
185	631
186	62
187	9
