Mass Spectrum: Fructofuranose, 2,6-anhydro-1,3,4-tri-O-methyl-, .beta.-d-
Formula: C9H16O5
CAS: 4451-11-0
Molecular weight: 204
m/z	intensity
25	1
26	15
27	68
28	15
29	105
30	9
31	70
33	22
35	7
36	1
37	2
38	4
39	48
40	9
41	206
42	25
43	70
44	13
45	999
46	21
47	21
48	11
49	7
50	4
51	4
52	2
53	28
54	20
55	99
56	25
57	33
58	19
59	39
60	2
61	12
63	0
65	2
66	1
67	4
68	13
69	139
70	21
71	167
72	15
73	43
74	10
75	70
76	2
77	9
78	1
79	0
80	0
81	16
82	6
83	90
84	28
85	123
86	17
87	13
88	39
89	8
91	2
92	1
94	1
95	2
96	1
97	8
98	4
99	58
100	6
101	614
102	35
103	6
105	14
109	1
110	0
111	7
112	12
113	21
114	72
115	22
116	3
117	1
118	9
119	2
120	1
121	1
125	0
127	6
128	1
129	8
130	0
131	1
133	0
139	0
140	1
141	4
142	0
144	4
145	3
146	4
153	0
155	1
159	9
160	0
161	0
162	0
163	0
173	4
174	1
175	1
