Mass Spectrum: Hexanediamide, N,N'-diphenyl-
Formula: C18H20N2O2
CAS: 4456-80-8
Molecular weight: 296
m/z	intensity
27	50
28	17
29	46
30	2
31	7
36	0
37	4
38	15
39	98
40	9
41	46
42	7
43	6
44	4
45	3
46	1
47	0
49	1
50	13
51	43
52	14
53	18
54	7
55	150
56	6
57	16
58	0
59	0
60	0
61	2
62	5
63	16
64	17
65	94
66	61
67	13
68	1
69	4
70	0
71	0
72	0
73	0
74	2
75	2
76	6
77	167
78	16
79	3
80	1
81	4
82	4
83	61
84	8
85	6
86	0
87	0
88	1
89	0
90	2
91	26
92	96
93	999
94	252
95	17
96	0
97	0
98	0
99	0
101	1
102	0
103	2
104	10
105	4
106	11
107	1
108	0
109	2
110	1
111	109
112	9
113	1
115	1
116	1
117	4
118	7
119	36
120	160
121	15
122	1
127	0
128	1
129	1
130	7
131	1
132	9
133	2
134	18
135	29
136	3
137	0
139	0
142	0
143	2
144	1
145	0
146	7
147	11
148	29
149	10
150	2
151	0
154	0
155	0
156	2
157	1
158	45
159	8
160	10
161	3
162	26
163	3
164	0
165	0
167	0
168	1
169	0
170	0
172	1
173	1
174	10
175	37
176	99
177	11
178	0
180	0
181	0
183	0
184	2
185	2
186	10
187	0
188	0
194	0
195	0
196	0
197	0
200	0
201	2
202	11
203	10
204	355
205	47
206	4
207	0
209	0
210	5
211	0
212	0
220	0
221	0
227	0
228	0
229	0
230	0
237	0
239	0
245	0
251	0
259	0
260	0
262	0
277	1
278	1
279	0
295	3
296	107
297	19
298	2
299	0
