Mass Spectrum: Butane, 1-bromo-4-methoxy-
Formula: C5H11BrO
CAS: 4457-67-4
Molecular weight: 166
m/z	intensity
25	0
26	18
27	79
28	14
29	108
30	5
31	12
33	7
37	1
38	7
39	60
40	7
41	59
42	23
43	20
44	4
45	999
46	30
47	2
50	3
51	4
52	0
53	16
54	4
55	135
56	9
57	51
58	16
59	10
60	1
69	1
70	0
71	6
72	0
79	1
80	0
81	2
82	1
85	6
87	151
88	9
93	8
95	8
106	18
107	10
108	21
109	7
121	0
123	0
125	1
134	110
135	6
136	109
137	6
151	8
153	8
165	3
166	15
167	2
168	12
169	0
