Mass Spectrum: Methane, bis(neopentyloxy)-
Formula: C11H24O2
CAS: 4457-17-4
Molecular weight: 188
m/z	intensity
41	200
42	40
43	720
44	80
45	10
47	10
53	20
54	10
55	110
56	110
57	160
58	10
59	10
70	10
71	999
72	80
73	10
85	10
101	240
102	30
103	70
104	10
131	30
158	20
