Mass Spectrum: Methane, phenoxypropoxy-
Formula: C10H14O2
CAS: 4457-16-3
Molecular weight: 166
m/z	intensity
41	150
42	30
43	999
44	120
50	70
51	180
52	30
55	60
63	40
64	20
65	150
66	110
73	320
74	40
77	250
78	40
79	50
94	999
95	70
107	140
108	10
137	30
166	160
167	20
