Mass Spectrum: .alpha.-epi-7-epi-5-Eudesmol
Formula: C15H26O
CAS: 446050-56-2
Molecular weight: 222
m/z	intensity
27	9
29	22
30	1
31	28
39	34
40	7
41	119
42	9
43	116
44	4
45	8
50	2
51	11
52	7
53	54
54	6
55	116
56	7
57	19
58	7
59	999
60	36
61	3
62	1
63	4
64	2
65	45
66	14
67	146
68	39
70	9
71	35
72	4
73	2
75	2
77	109
78	22
79	143
80	26
81	184
83	29
87	1
89	3
90	2
91	204
92	35
93	253
94	44
95	129
96	95
97	16
102	2
103	15
104	7
105	191
106	70
107	329
108	202
109	878
110	87
115	16
116	5
117	19
118	6
119	87
120	91
121	136
122	145
123	108
124	11
125	17
127	4
128	7
129	7
130	4
131	19
132	5
133	81
134	26
135	210
136	41
137	12
141	1
143	2
144	1
145	12
147	52
148	30
149	584
150	70
153	1
157	1
159	6
160	9
161	239
162	36
164	39
165	7
173	3
174	1
175	25
176	5
189	240
190	38
193	1
203	2
204	419
205	73
207	14
208	2
222	27
223	5
224	1
