Mass Spectrum: 1,2-Ethanediol, phenyl-, cyclic sulfite
Formula: C8H8O3S
CAS: 4464-74-8
Molecular weight: 184
m/z	intensity
48	115
50	44
51	93
52	17
61	11
62	26
63	71
64	266
65	200
66	11
74	13
77	55
78	62
89	44
90	40
91	999
92	240
93	11
102	11
103	26
104	84
105	55
106	11
119	6
120	177
121	17
126	11
154	33
184	1
