Mass Spectrum: Phenyl 2,3,4,6-tetra-O-acetyl-.beta.-d-glucopyranoside
Formula: C20H24O10
CAS: 4468-72-8
Molecular weight: 424
m/z	intensity
41	9
42	19
43	999
44	45
45	11
50	5
51	15
53	8
54	2
55	23
56	5
57	9
60	12
61	15
62	3
65	22
66	17
68	5
69	34
70	11
71	19
72	2
77	31
78	8
81	139
82	11
83	8
84	5
85	66
86	11
94	249
95	26
96	8
97	75
98	23
99	51
100	5
101	8
102	15
103	82
109	679
110	52
111	9
113	12
115	68
116	11
125	8
126	22
127	379
128	25
129	6
131	9
136	17
139	51
141	22
142	2
143	6
144	9
145	57
146	5
147	5
157	14
169	999
170	109
171	14
177	5
185	5
186	8
187	31
188	2
189	5
203	5
211	42
215	2
229	45
230	5
231	2
245	1
246	3
247	1
271	8
288	2
289	5
331	429
332	75
