Mass Spectrum: .alpha.-Ketostearic acid
Formula: C18H34O3
CAS: 4468-17-1
Molecular weight: 298
m/z	intensity
41	594
42	70
43	999
44	94
45	353
46	14
47	41
49	81
51	33
53	51
54	55
55	599
56	70
57	901
58	71
60	255
61	70
63	89
65	156
67	164
68	36
69	415
70	80
71	485
72	22
73	247
74	31
77	63
79	50
81	164
82	64
83	294
84	128
85	267
86	14
87	72
89	55
91	270
92	130
93	19
95	161
96	75
97	220
98	111
99	96
101	71
105	60
107	42
108	16
109	113
110	32
111	101
112	33
113	65
115	42
119	38
120	139
121	31
123	42
125	65
127	44
129	116
137	16
139	34
140	15
149	38
150	14
155	70
156	43
171	64
185	53
194	14
199	19
219	47
227	40
242	19
253	860
254	142
255	17
256	45
270	224
271	39
297	38
298	235
299	47
