Mass Spectrum: 4-Fluoromethcathinone
Formula: C10H12FNO
CAS: 447-40-5
Molecular weight: 181
m/z	intensity
15	12
18	1
26	2
27	15
28	56
29	25
30	115
31	3
32	2
36	1
37	1
38	2
39	5
40	4
41	17
42	63
43	37
44	5
45	2
49	1
50	16
51	12
52	2
53	2
54	5
55	7
56	88
57	25
58	999
59	38
60	1
61	1
62	3
63	4
65	1
68	6
69	14
70	4
71	1
73	1
74	12
75	76
76	7
77	4
78	1
81	2
82	1
83	2
85	1
86	1
87	1
89	1
92	2
93	3
94	12
95	125
96	13
97	2
101	2
102	1
103	4
105	1
107	4
108	1
109	7
110	1
115	1
120	1
121	2
122	2
123	59
124	5
125	1
133	3
134	1
135	2
136	1
138	2
148	1
149	1
150	3
151	4
152	1
164	1
165	1
166	3
180	1
