Mass Spectrum: 6-Phenyl-3-thioxo-5-oxo-2,3,4,5-tetrahydro-1,2,4-triazine
Formula: C9H7N3OS
CAS: 447-00-7
Molecular weight: 205
m/z	intensity
41	60
42	72
50	180
51	209
59	122
60	111
62	98
63	303
69	121
75	100
76	222
77	353
89	312
90	151
91	362
103	280
104	300
118	999
119	180
205	881
