Mass Spectrum: Benzenemethanol, .alpha.-pentyl-
Formula: C12H18O
CAS: 4471-05-0
Molecular weight: 178
m/z	intensity
15	3
26	4
27	81
28	13
29	95
30	2
38	4
39	66
40	9
41	79
42	18
43	52
45	1
50	21
51	80
52	23
53	24
54	3
55	25
56	2
57	7
61	1
62	3
63	15
64	3
65	17
66	3
69	1
71	4
74	7
75	7
77	367
78	79
79	580
80	36
81	2
83	1
87	1
89	9
90	3
91	69
92	7
93	1
101	1
102	4
103	24
104	20
105	72
107	999
108	76
109	5
115	17
116	4
117	13
119	1
120	2
121	1
122	0
127	1
147	2
160	3
161	4
178	43
179	7
