Mass Spectrum: Monobutyl carbonotrithioate
Formula: C5H10S3
CAS: 44747-15-1
Molecular weight: 166
m/z	intensity
27	164
29	173
39	78
41	418
43	76
44	162
45	40
46	29
47	119
55	67
56	398
57	151
61	54
66	2
76	999
90	159
110	8
122	16
133	7
