Mass Spectrum: Ethanone, 1-(3,3-dimethyloxiranyl)-
Formula: C6H10O2
CAS: 4478-63-1
Molecular weight: 114
m/z	intensity
38	10
39	112
40	32
41	239
42	122
43	999
44	24
45	22
53	12
54	10
55	34
56	24
57	161
58	17
59	24
71	32
72	200
73	15
74	156
99	415
100	24
114	17
