Mass Spectrum: Sulforaphane
Formula: C6H11NOS2
CAS: 4478-93-7
Molecular weight: 177
m/z	intensity
26	3
27	34
28	15
29	44
30	2
31	3
32	3
33	2
34	2
35	4
37	1
38	3
39	59
40	10
41	49
42	8
43	7
44	7
45	53
46	16
47	32
48	12
49	6
50	5
51	9
52	5
53	38
54	12
55	353
56	21
57	6
58	26
59	41
60	49
61	44
62	6
63	80
64	168
65	13
66	8
67	2
68	5
69	7
70	9
71	22
72	999
73	34
74	78
75	9
76	4
77	3
78	20
79	2
80	3
81	1
82	2
83	1
84	8
85	56
86	57
87	13
88	5
89	2
90	2
91	5
92	1
93	1
96	2
98	5
99	1
100	3
101	10
102	2
103	4
104	1
105	1
106	1
112	63
113	11
114	112
115	16
116	7
117	9
118	2
119	51
120	3
121	2
144	8
145	1
146	1
160	704
161	59
162	68
163	5
164	2
177	1
