Mass Spectrum: N,N-bis[2-hydroxybenzyl]amine
Formula: C14H15NO2
CAS: 4481-51-0
Molecular weight: 229
m/z	intensity
41	60
42	35
43	20
44	32
45	5
46	6
47	2
48	1
49	11
50	66
51	268
52	150
53	172
54	29
55	46
56	5
57	8
58	4
59	1
60	2
61	4
62	17
63	68
64	34
65	111
66	113
67	57
68	9
69	5
70	3
71	2
72	0
73	2
74	9
75	14
76	33
77	951
78	563
79	257
80	28
81	9
82	3
83	3
84	7
85	1
86	4
87	2
88	1
89	17
90	13
91	24
92	18
93	54
94	57
95	136
96	9
97	2
98	1
99	1
100	1
101	1
102	16
103	6
104	15
105	59
106	706
107	999
108	106
109	7
110	1
111	1
115	6
116	1
117	6
118	11
119	2
120	32
121	88
122	774
123	806
124	81
125	5
126	1
127	1
128	2
129	1
130	1
131	1
132	1
133	2
134	24
135	16
136	15
137	1
139	1
141	1
149	0
151	1
152	3
153	2
154	1
155	1
165	2
169	1
171	1
181	3
183	1
195	3
196	0
197	1
199	7
200	2
210	1
211	2
212	5
213	1
226	1
227	1
228	9
229	304
230	51
231	5
