Mass Spectrum: 2,6-Octadiene-4,5-diol
Formula: C8H14O2
CAS: 4486-59-3
Molecular weight: 142
m/z	intensity
41	170
42	20
43	200
44	10
51	10
53	100
54	10
55	40
57	60
67	10
69	50
70	30
71	999
72	100
73	20
81	10
82	10
95	10
107	10
125	40
142	10
