Mass Spectrum: 2-Propen-1-amine, N,N-bis(1-methylethyl)-
Formula: C9H19N
CAS: 44898-60-4
Molecular weight: 141
m/z	intensity
26	13
27	180
28	79
29	30
30	180
31	3
36	0
37	3
38	9
39	150
40	22
41	669
42	250
43	212
44	69
45	2
50	1
51	3
52	6
53	8
54	33
55	40
56	123
57	22
58	25
59	1
61	0
62	0
63	1
64	0
65	3
66	1
67	18
68	23
69	8
70	46
71	8
72	46
73	2
74	0
77	0
78	0
79	2
80	4
81	6
82	26
83	9
84	999
85	56
86	7
87	0
89	0
90	0
91	13
92	10
93	0
94	1
95	0
96	4
97	1
98	61
99	6
100	1
101	0
108	0
109	0
110	10
111	1
112	6
113	1
114	37
115	3
116	0
122	0
124	25
125	3
126	901
127	76
128	3
138	0
139	3
140	6
141	156
142	16
143	0
