Mass Spectrum: N-(2-Cyanoethyl)-N'-methylpiperazine
Formula: C8H15N3
CAS: 4491-92-3
Molecular weight: 153
m/z	intensity
12	1
13	2
14	7
15	146
16	3
17	1
18	23
25	2
26	38
27	153
28	315
29	74
30	74
31	3
37	1
38	4
39	22
40	28
41	152
42	999
43	926
44	379
45	8
50	1
51	8
52	30
53	19
54	158
55	60
56	319
57	176
58	99
59	11
65	1
66	4
67	11
68	26
70	844
71	259
72	30
73	2
79	3
80	9
81	23
82	43
83	53
84	14
85	37
86	1
94	1
95	19
96	11
97	52
98	61
99	112
100	7
109	52
110	11
111	33
113	316
114	23
123	1
124	5
125	1
126	1
138	4
151	3
153	438
154	38
155	2
