Mass Spectrum: 2,4-Decadienoic acid, methyl ester, (E,Z)-
Formula: C11H18O2
CAS: 4493-42-9
Molecular weight: 182
m/z	intensity
26	14
27	228
28	144
29	347
31	12
32	11
33	9
35	2
37	3
38	21
39	323
40	73
41	371
42	41
44	6
45	24
46	3
47	3
48	5
49	2
50	28
51	102
52	66
53	266
57	5
58	9
59	280
60	12
61	11
62	8
63	32
64	23
65	217
66	417
67	558
71	17
73	10
76	6
77	192
78	65
79	430
80	128
81	847
82	250
83	22
89	2
91	62
92	11
93	156
94	124
95	66
96	102
97	202
98	84
100	50
103	5
105	12
106	10
107	118
108	108
109	20
111	999
112	431
113	257
114	105
117	5
119	3
121	60
122	87
123	42
125	46
126	40
131	3
133	2
135	9
139	82
140	19
147	3
149	5
150	20
151	176
167	4
181	3
182	191
183	29
