Mass Spectrum: Pentanoic acid, 2,2-dimethyl-, ethenyl ester
Formula: C9H16O2
CAS: 44970-05-0
Molecular weight: 156
m/z	intensity
28	79
29	163
30	3
31	5
32	5
33	0
35	0
36	0
37	4
38	12
39	170
40	32
41	336
42	86
43	999
44	50
45	10
46	0
47	0
49	0
50	4
51	8
52	3
53	25
54	5
55	71
56	61
57	115
58	5
59	7
60	1
61	0
62	0
63	1
64	0
65	3
66	1
67	8
68	2
69	80
70	73
71	14
72	0
73	2
74	0
75	0
76	0
77	1
78	0
79	1
80	0
81	1
82	0
83	14
84	21
85	772
86	52
87	2
88	1
91	0
93	0
94	0
95	1
96	0
97	3
98	0
99	1
100	0
101	0
107	0
109	0
110	0
111	0
112	0
113	72
114	9
115	0
127	0
141	0
156	0
