Mass Spectrum: 3-Methyladipoyl chloride
Formula: C7H10Cl2O2
CAS: 44987-62-4
Molecular weight: 196
m/z	intensity
14	13
15	28
16	3
25	4
26	58
27	307
28	86
29	190
30	6
31	5
32	3
33	4
34	11
35	33
36	202
37	16
38	64
39	320
40	72
41	757
42	253
43	64
44	49
45	4
46	2
47	3
48	57
49	35
50	29
51	43
52	18
53	140
54	65
55	999
56	130
57	15
58	2
59	2
60	3
61	9
62	7
63	105
64	5
65	39
66	7
67	53
68	100
69	975
70	84
71	7
72	4
73	4
74	2
75	28
76	12
77	58
78	85
79	24
80	26
81	36
82	108
83	568
84	33
85	4
86	1
87	3
88	1
89	48
90	114
91	69
92	43
93	20
94	5
95	14
96	36
97	310
98	51
99	6
100	2
101	3
102	2
103	8
104	52
105	26
106	19
107	11
108	2
109	50
110	5
111	3
112	1
113	2
114	4
115	4
116	3
117	7
118	12
119	32
120	7
121	11
122	3
123	5
124	91
125	298
126	26
127	4
128	2
129	1
130	3
131	5
132	66
133	83
134	26
135	27
136	3
137	1
141	2
142	2
143	9
144	2
145	7
146	1
147	3
149	2
150	2
151	2
152	1
153	2
154	1
155	2
157	1
158	2
159	1
160	9
161	321
162	30
163	111
164	9
165	2
