Mass Spectrum: Dibenzepin
Formula: C18H21N3O
CAS: 4498-32-2
Molecular weight: 295
m/z	intensity
26	0
27	3
29	10
30	35
31	0
36	1
38	0
39	4
41	9
42	24
43	29
44	5
45	0
50	3
51	8
52	1
53	1
54	1
55	9
56	11
57	45
58	999
59	34
60	1
61	0
62	0
63	3
64	2
65	4
66	1
67	1
68	1
69	6
70	7
71	107
72	70
73	2
74	0
75	1
76	5
77	16
78	4
79	1
80	0
81	2
82	1
83	5
84	2
85	16
86	1
87	0
88	0
89	2
90	2
91	5
92	3
93	1
94	0
95	0
96	1
97	4
98	2
99	5
100	0
101	1
102	2
103	2
104	3
105	1
106	0
107	0
109	0
110	0
111	2
112	1
113	4
114	0
115	1
116	1
117	1
118	1
119	1
120	0
123	0
124	0
125	1
126	1
127	3
128	2
129	1
130	0
131	1
132	1
133	0
134	0
137	0
138	0
139	3
140	3
141	2
142	0
143	0
145	0
147	0
149	0
150	0
151	2
152	4
153	3
154	2
155	1
156	0
157	0
161	1
164	0
165	1
166	8
167	8
168	3
169	1
170	0
171	0
177	0
178	1
179	4
180	16
181	8
182	1
183	1
184	1
185	0
190	0
191	0
192	2
193	4
194	8
195	20
196	14
197	1
198	0
205	1
206	2
207	4
208	8
209	26
210	6
211	1
213	0
219	0
220	0
221	3
222	1
223	21
224	323
225	47
226	3
234	0
235	1
236	1
237	5
238	1
239	1
249	0
250	0
251	6
252	1
253	0
256	0
264	0
266	0
267	0
279	0
280	0
281	0
284	0
294	0
295	11
296	2
297	0
