Mass Spectrum: N,N,N',N'-Tetramethyl-1,5-pentanediamine
Formula: C9H22N2
CAS: 44994-28-7
Molecular weight: 158
m/z	intensity
42	153
44	71
58	999
84	155
98	69
113	56
114	52
158	3
