Mass Spectrum: 2,3,5,7-Tetrathiaoctane 3,3-dioxide
Formula: C4H10O2S4
CAS: 450365-65-8
Molecular weight: 218
m/z	intensity
27	15
32	3
33	2
34	1
35	37
37	2
44	9
45	214
46	94
47	60
48	16
49	13
58	7
59	15
60	8
61	999
62	36
63	49
64	29
65	4
66	3
73	1
75	3
76	8
77	11
78	36
79	16
80	7
91	11
92	9
93	256
94	27
95	24
96	4
106	28
107	34
108	17
109	5
110	6
111	5
125	6
126	10
139	458
140	28
141	61
142	4
143	3
153	6
154	110
155	8
156	14
157	3
172	4
174	1
218	34
219	3
220	8
222	1
