Mass Spectrum: Dibenz[b,e]oxepin-11-ol, 11-[3-(dimethylamino)propyl]-6,11-dihydro-
Formula: C19H23NO2
CAS: 4504-88-5
Molecular weight: 297
m/z	intensity
42	101
44	111
45	26
56	20
58	999
63	19
65	19
71	71
77	34
84	38
87	173
91	39
95	10
101	8
107	8
115	23
127	6
128	13
139	9
141	6
152	30
153	10
155	6
163	6
165	42
166	6
176	7
178	21
181	14
189	17
191	17
194	15
202	16
203	8
205	11
211	21
219	20
220	13
231	4
234	5
262	1
277	17
278	5
279	3
296	0
297	1
