Mass Spectrum: 4-Ethyl-7-iodo-5-(p-tolylazo)tropolone
Formula: C16H15IN2O2
CAS: 4508-97-8
Molecular weight: 394
m/z	intensity
15	1
17	11
18	1
26	2
27	18
28	17
29	5
30	1
37	2
38	6
39	60
40	7
41	27
42	5
43	6
44	2
49	1
50	19
51	53
52	39
53	54
54	9
55	12
56	1
57	2
61	3
62	12
63	40
64	17
65	197
66	23
67	8
68	4
69	3
70	1
71	2
73	1
74	5
75	8
76	14
77	86
78	59
79	52
80	13
81	9
82	2
83	3
84	1
85	1
86	1
87	2
88	3
89	32
90	24
91	999
92	107
93	15
94	7
95	2
96	3
97	3
98	3
99	1
101	2
102	11
103	15
104	41
105	38
106	184
107	338
108	37
109	4
110	2
111	8
112	6
113	1
114	1
115	8
116	7
117	9
118	26
119	118
120	107
121	17
122	6
123	1
125	1
126	2
127	30
128	59
129	3
130	7
131	9
132	42
133	93
134	30
135	7
136	9
137	2
138	1
139	2
140	2
141	4
142	8
143	4
144	7
145	4
146	9
147	11
148	26
149	8
150	4
151	3
152	6
153	7
154	4
155	4
156	4
157	3
158	5
159	2
160	9
161	18
162	4
163	4
164	2
165	8
166	5
167	10
168	11
169	6
170	3
171	2
172	2
173	1
174	1
175	1
176	2
177	3
178	4
179	5
180	5
181	12
182	11
183	7
184	3
185	2
186	2
187	1
189	1
190	1
191	2
192	5
193	9
194	12
195	14
196	29
197	13
198	4
199	1
205	2
206	5
207	9
208	8
209	26
210	9
211	8
212	4
213	3
218	1
219	2
220	3
221	8
222	13
223	18
224	49
225	13
226	3
227	2
231	1
232	1
233	8
234	4
235	4
236	12
237	28
238	25
239	18
240	7
241	2
242	1
244	1
245	1
246	2
247	11
248	36
249	5
250	4
251	7
252	9
253	13
254	3
255	3
259	5
260	13
261	21
262	3
263	32
264	4
265	9
266	43
267	23
268	31
269	7
270	5
271	1
272	1
273	3
274	2
275	12
276	15
277	3
279	1
287	4
288	22
289	10
290	1
291	36
292	4
302	2
303	17
304	2
321	1
322	1
323	2
324	2
335	1
336	2
337	1
348	2
349	6
350	6
351	81
352	14
353	2
363	27
364	87
365	24
366	7
367	1
377	3
378	13
379	297
380	53
381	6
392	284
393	66
394	817
395	150
396	17
397	1
