Mass Spectrum: 3,4-Epoxytetrahydrothiophene-1,1-dioxide
Formula: C4H6O3S
CAS: 4509-11-9
Molecular weight: 134
m/z	intensity
12	1
13	4
14	29
15	127
16	5
25	7
26	89
27	570
28	99
29	177
30	4
31	19
32	14
33	9
34	9
35	1
36	1
37	9
38	17
39	165
40	80
41	446
42	999
43	713
44	537
45	53
46	24
47	9
48	84
49	17
50	24
51	21
52	9
53	33
54	98
55	84
56	5
57	10
58	10
59	8
60	2
61	1
62	6
63	27
64	59
65	30
66	5
67	1
68	3
69	70
70	581
71	29
72	2
73	5
74	1
75	1
76	4
78	10
79	2
80	1
81	1
84	2
85	2
86	1
87	1
91	6
92	1
102	4
105	1
107	1
109	1
118	4
134	4
135	2
