Mass Spectrum: 1-Methyl-4-(6-methylhept-5-en-2-yl)cyclohexa-1,3-diene
Formula: C15H24
CAS: 451-55-8
Molecular weight: 204
m/z	intensity
26	1
27	26
28	2
29	40
30	1
38	2
39	84
40	14
41	288
42	17
43	61
44	2
50	5
51	29
52	13
53	72
54	9
55	198
56	72
57	19
58	2
62	2
63	12
64	5
65	67
66	13
67	88
68	16
69	199
70	33
71	3
74	1
75	2
76	3
77	219
78	49
79	216
80	28
81	52
82	101
83	57
84	10
85	2
87	1
89	6
90	2
91	323
92	120
93	512
94	81
95	45
96	4
97	8
98	1
101	1
102	4
103	36
104	12
105	396
106	86
107	193
108	31
109	76
110	10
111	1
112	1
115	23
116	6
117	26
118	13
119	999
120	134
121	791
122	129
123	10
124	1
127	2
128	6
129	5
130	1
133	130
134	174
135	51
136	8
141	1
142	1
147	69
148	45
149	7
150	1
160	2
161	98
162	18
163	2
175	2
176	1
189	27
190	4
204	357
205	59
206	4
