Mass Spectrum: Diethylene glycol monomethyl ether methacrylate
Formula: C9H16O4
CAS: 45103-58-0
Molecular weight: 188
m/z	intensity
14	3
15	74
16	2
17	1
18	3
26	11
27	39
28	53
29	98
30	6
31	103
32	3
33	6
36	1
37	4
38	10
39	140
40	48
41	568
42	26
43	65
44	20
45	397
46	10
47	1
50	1
51	1
53	5
54	2
55	6
56	2
57	9
58	687
59	689
60	24
61	3
63	1
65	1
67	2
68	16
69	999
70	51
71	7
72	13
73	8
74	1
75	4
77	1
78	2
82	8
83	2
84	4
85	4
86	37
87	62
88	10
89	111
90	7
91	14
92	10
93	1
96	1
98	2
99	6
100	45
101	5
102	40
103	4
105	1
112	15
113	438
114	41
115	5
119	2
120	3
126	3
143	19
144	2
145	1
