Mass Spectrum: Undecanoic acid, 2-ethyl-
Formula: C13H26O2
CAS: 45158-84-7
Molecular weight: 214
m/z	intensity
27	60
28	19
29	136
30	3
31	36
32	2
33	3
38	3
39	51
40	8
41	223
42	38
43	238
44	5
45	73
46	1
47	5
51	2
52	4
53	23
54	13
55	192
56	14
57	159
58	59
59	22
60	7
61	2
65	3
67	9
68	9
69	85
70	19
71	50
72	10
73	345
74	41
75	3
76	5
77	5
78	3
79	1
81	6
82	1
83	40
84	21
85	51
86	9
87	76
88	999
89	47
90	7
91	5
92	4
93	1
94	1
95	7
96	7
97	19
98	7
99	9
100	9
101	353
102	39
103	3
107	2
108	5
109	5
110	2
111	5
112	15
114	1
115	37
116	7
121	1
122	2
125	10
126	3
127	20
128	4
129	19
137	2
139	3
140	2
141	4
143	116
144	10
145	2
157	97
158	12
159	3
167	1
168	4
169	1
171	5
172	3
173	40
174	4
175	1
185	11
186	7
194	1
196	3
199	3
200	1
214	64
215	9
