Mass Spectrum: 2-Piperidinecarboxylic acid, 1-nitroso-
Formula: C6H10N2O3
CAS: 4515-18-8
Molecular weight: 158
m/z	intensity
30	124
31	55
38	17
39	142
40	37
41	231
42	155
43	79
44	73
45	55
53	51
54	146
55	742
56	142
58	38
68	30
70	79
82	155
83	999
84	177
92	15
100	19
113	542
114	48
128	97
129	8
158	105
159	8
