Mass Spectrum: 2-Propenoic acid, 2-bromo-, methyl ester
Formula: C4H5BrO2
CAS: 4519-46-4
Molecular weight: 164
m/z	intensity
59	470
85	800
105	999
107	940
119	20
121	20
133	880
135	920
164	590
166	580
