Mass Spectrum: 3a,6-Methano-3ah-cyclopentacycloocten-10-one, decahydro-8,8-dimethyl-, (3as,6R,9ar)-
Formula: C14H22O
CAS: 452049-65-9
Molecular weight: 206
m/z	intensity
39	259
41	836
42	54
43	122
45	76
53	262
54	64
55	472
56	59
57	37
59	105
65	91
66	59
67	416
68	90
69	125
70	12
77	178
78	50
79	454
80	167
81	551
82	999
83	145
84	14
91	162
92	45
93	284
94	340
95	306
96	197
97	121
98	23
104	26
105	53
106	41
107	193
108	176
109	284
110	380
111	75
112	48
117	53
119	40
121	139
122	137
123	92
124	34
125	49
131	34
132	294
133	77
134	28
135	230
136	74
137	76
138	19
145	31
147	20
148	16
149	153
150	94
151	68
152	48
159	52
160	22
162	27
163	137
164	38
165	71
173	107
174	50
175	21
177	24
178	108
179	16
187	5
188	415
189	80
190	8
191	63
192	61
193	8
205	11
206	448
207	75
208	6
