Mass Spectrum: 1-Decanol, 2-octyl-
Formula: C18H38O
CAS: 45235-48-1
Molecular weight: 270
m/z	intensity
26	3
27	55
28	13
29	169
30	5
31	36
36	1
37	1
38	2
39	49
40	12
41	454
42	82
43	650
44	29
45	8
50	1
51	3
52	2
53	30
54	57
55	547
56	285
57	999
58	49
59	4
65	8
66	10
67	99
68	73
69	407
70	244
71	603
72	36
73	2
77	6
78	1
79	16
80	6
81	69
82	108
83	396
84	149
85	388
86	26
87	1
91	3
93	3
94	2
95	36
96	78
97	347
98	120
99	103
100	8
107	1
108	1
109	14
110	44
111	215
112	79
113	54
114	5
115	1
123	6
124	20
125	91
126	66
127	31
128	4
129	1
137	4
138	28
139	77
140	48
141	21
142	2
151	1
152	10
153	16
154	40
155	21
156	6
157	1
166	6
167	10
168	12
169	9
170	1
179	1
180	5
181	6
182	7
183	5
184	1
194	2
195	3
196	4
197	2
208	1
209	2
210	4
211	1
222	1
223	1
224	16
225	3
238	6
239	4
240	1
252	20
253	5
