Mass Spectrum: Silane, 1,3-butadiynyltrimethyl-
Formula: C7H10Si
CAS: 4526-06-1
Molecular weight: 122
m/z	intensity
27	4
28	1
29	24
30	2
31	3
36	0
37	1
38	1
39	14
40	0
41	2
42	13
43	109
44	11
45	7
46	0
47	0
48	0
49	1
50	3
51	2
52	3
53	113
54	14
55	38
56	3
57	6
58	5
59	1
60	1
61	2
62	4
63	5
64	2
65	27
66	25
67	35
68	4
69	8
70	1
71	1
72	2
73	2
74	1
75	2
76	9
77	124
78	15
79	64
80	7
81	15
82	2
83	4
84	0
88	0
89	12
90	19
91	42
92	13
93	19
94	4
95	1
96	0
98	0
100	0
101	2
102	0
103	0
104	1
105	3
106	11
107	999
108	113
109	37
110	2
120	0
121	1
122	208
123	28
124	9
125	0
