Mass Spectrum: Acetic acid, trifluoro-, 1,5-pentanediyl ester
Formula: C9H10F6O4
CAS: 453-44-1
Molecular weight: 296
m/z	intensity
15	2
26	4
27	31
28	20
29	48
30	3
31	5
33	6
34	1
35	1
38	2
39	46
40	19
41	310
42	61
43	23
44	3
45	4
46	1
47	10
50	13
51	6
53	41
54	11
55	157
56	16
57	11
58	1
59	11
60	2
61	3
65	6
67	275
68	518
69	999
70	36
71	2
78	14
79	1
80	4
83	2
84	1
85	7
91	1
93	1
95	3
97	44
99	99
100	2
112	5
113	9
114	1
115	5
125	11
126	1
127	12
128	1
134	1
135	1
139	1
140	9
141	16
142	1
152	3
153	16
154	9
155	9
156	1
169	1
181	1
182	1
