Mass Spectrum: Methanamine, 1,1,1-trifluoro-N-[2,2,2-trifluoro-1-(trifluoromethyl)ethylidene]-
Formula: C4F9N
CAS: 453-22-5
Molecular weight: 233
m/z	intensity
31	40
50	52
69	999
70	11
76	48
81	2
93	4
95	5
100	7
114	69
119	5
131	0
145	21
164	413
165	15
169	1
171	0
176	8
195	17
214	147
233	3
