Mass Spectrum: 3-Methyl-5-nitro-3H-imidazol-4-ylamine
Formula: C4H6N4O2
CAS: 4531-54-8
Molecular weight: 142
m/z	intensity
34	0
35	1
36	5
37	0
38	8
39	18
40	56
41	83
42	999
43	45
44	25
45	1
46	12
47	0
48	5
50	0
51	1
52	5
53	71
54	57
55	91
56	24
57	335
58	10
64	3
65	1
66	6
67	19
68	8
69	21
70	1
71	2
72	0
74	0
75	0
78	0
79	1
80	2
81	6
82	2
83	2
84	2
85	1
91	0
93	0
94	2
95	2
96	16
97	1
98	8
99	0
105	0
106	0
108	0
109	1
110	0
112	27
113	1
116	0
117	0
118	0
122	0
124	0
125	3
126	6
127	3
128	0
129	0
131	0
132	1
133	0
134	0
135	0
139	0
141	1
142	227
143	19
144	1
