Mass Spectrum: Meso-1,2,3,4-butanetetracarboxylic acid
Formula: C8H10O8
CAS: 4534-68-3
Molecular weight: 234
m/z	intensity
12	5
13	6
14	23
15	24
16	13
17	111
18	398
24	1
25	12
26	110
27	444
28	135
29	185
30	5
31	24
32	2
34	3
35	1
36	7
37	25
38	45
39	380
40	44
41	147
42	186
43	266
44	74
45	222
46	9
47	4
48	3
49	13
50	52
51	74
52	59
53	222
54	999
55	392
56	74
57	237
58	65
59	4
60	54
61	6
62	2
63	4
64	1
65	2
66	7
67	15
68	16
69	57
70	72
71	35
72	29
73	36
74	4
75	1
76	1
77	3
78	2
79	7
80	51
81	109
82	82
83	16
84	182
85	214
86	11
87	3
89	3
90	1
91	2
92	1
93	1
94	2
95	10
96	7
97	54
98	245
99	79
100	119
101	13
102	6
103	1
105	1
107	1
108	338
109	25
110	10
111	7
112	377
113	77
114	8
115	2
116	15
117	9
118	3
123	1
124	7
125	30
126	373
127	39
128	6
129	2
130	1
131	2
136	2
138	3
139	9
140	1
141	1
142	2
143	1
144	108
145	9
146	1
151	1
152	33
153	19
154	89
155	8
156	6
157	3
170	33
171	5
172	5
180	1
181	5
198	5
199	4
