Mass Spectrum: Pentadecane, 6-phenyl-
Formula: C21H36
CAS: 4534-62-7
Molecular weight: 288
m/z	intensity
27	34
28	17
29	73
30	1
38	0
39	14
40	3
41	78
42	10
43	73
44	3
50	0
51	3
52	1
53	5
54	2
55	38
56	5
57	34
58	1
63	1
64	0
65	7
66	1
67	4
68	1
69	16
70	2
71	19
72	1
74	0
75	1
76	2
77	22
78	21
79	13
80	1
81	4
82	1
83	14
84	1
85	6
86	0
87	0
88	1
89	4
90	4
91	999
92	95
93	5
94	0
95	1
97	3
98	0
99	0
100	0
101	1
102	5
103	22
104	92
105	135
106	12
107	0
111	0
113	2
115	22
116	9
117	66
118	19
119	48
120	5
125	0
127	2
128	5
129	5
130	2
131	9
132	2
133	23
134	2
141	1
142	0
143	1
145	2
147	18
148	2
159	1
160	10
161	250
162	42
163	3
169	0
174	1
175	5
176	1
188	1
197	1
216	6
217	127
218	28
219	3
239	0
260	0
286	0
288	73
289	17
290	2
