Mass Spectrum: Isopropyl phosphine
Formula: C3H9P
CAS: 4538-29-8
Molecular weight: 76
m/z	intensity
39	150
40	19
41	653
42	128
43	999
44	79
45	150
46	29
47	49
48	20
61	39
76	802
77	39
