Mass Spectrum: Tetramethylene diisocyanate
Formula: C6H8N2O2
CAS: 4538-37-8
Molecular weight: 140
m/z	intensity
14	3
15	27
25	1
26	22
27	77
28	218
29	45
30	32
37	5
38	9
39	62
40	34
41	250
42	198
43	834
44	30
46	3
50	2
51	7
52	10
53	21
54	49
55	33
56	999
57	52
58	241
59	9
60	1
64	1
66	1
67	16
68	38
69	548
70	80
71	7
78	5
82	77
83	66
84	62
85	9
91	1
95	70
96	9
97	13
98	5
99	2
111	3
112	5
139	1
