Mass Spectrum: d-Xylopyranose, tetra-O-acetyl-5-thio-
Formula: C13H18O8S
CAS: 4539-84-8
Molecular weight: 334
m/z	intensity
26	2
27	5
28	65
29	10
30	0
31	2
32	12
33	0
34	1
36	0
37	0
38	0
39	8
40	2
41	7
42	17
43	999
44	27
45	34
46	2
47	4
48	0
49	0
50	1
51	1
52	1
53	2
54	0
55	6
56	0
57	7
58	4
59	4
60	14
61	7
62	0
63	0
64	0
65	0
67	0
68	6
69	5
70	4
71	8
72	1
73	23
74	2
75	1
76	2
77	1
78	0
79	0
80	0
81	0
82	2
83	2
84	25
85	24
86	12
87	7
88	2
89	7
90	1
91	0
92	0
93	0
95	0
96	2
97	15
98	2
99	4
100	2
101	41
102	19
103	15
104	1
105	0
108	0
110	1
111	6
112	80
113	118
114	18
115	33
116	3
117	1
118	1
119	1
124	1
126	4
127	1
128	7
129	19
130	44
131	16
132	2
133	0
135	0
139	2
140	0
143	6
144	2
145	1
147	1
148	0
149	0
153	0
154	62
155	63
156	9
157	6
158	0
161	0
167	0
168	1
169	0
170	1
171	4
172	42
173	11
174	2
175	0
185	0
186	0
187	0
189	1
190	1
207	0
214	10
215	2
216	0
232	1
274	0
