Mass Spectrum: dl-Homocysteine
Formula: C4H9NO2S
CAS: 454-29-5
Molecular weight: 135
m/z	intensity
12	4
13	4
14	11
15	45
16	9
17	51
18	172
19	3
24	2
25	10
26	76
27	202
28	773
29	178
30	245
31	8
32	55
33	54
34	103
35	41
36	29
37	10
38	23
39	71
40	25
41	84
42	286
43	557
44	667
45	203
46	109
47	274
48	10
49	14
50	5
51	14
52	39
53	23
54	125
55	152
56	999
57	162
58	47
59	54
60	53
61	277
62	18
63	15
64	2
65	3
66	4
67	7
68	7
69	10
70	25
71	25
72	66
73	124
74	336
75	159
76	8
77	3
78	1
79	2
80	4
81	4
82	5
83	43
84	17
85	7
86	14
87	19
88	127
89	569
90	767
91	66
92	41
93	4
94	2
95	2
96	1
97	3
98	3
99	27
100	19
101	132
102	17
103	3
104	2
105	2
106	1
107	5
108	1
109	3
111	2
112	1
113	2
114	4
115	14
116	3
117	508
118	35
119	28
120	3
129	2
130	1
131	2
132	1
133	31
134	4
135	15
136	3
137	1
