Mass Spectrum: 1-Butanol, 4-(hexyloxy)-
Formula: C10H22O2
CAS: 4541-13-3
Molecular weight: 174
m/z	intensity
41	336
42	243
43	999
44	163
45	63
53	34
54	34
55	681
56	277
57	122
61	31
69	56
71	527
72	63
73	436
74	36
82	50
83	140
84	113
85	281
86	38
89	204
101	90
103	34
111	22
131	27
144	13
