Mass Spectrum: 1-Pentanol, 5-(phenylmethoxy)-
Formula: C12H18O2
CAS: 4541-15-5
Molecular weight: 194
m/z	intensity
41	170
42	30
43	50
44	20
45	20
50	20
51	60
52	20
53	20
55	60
57	30
63	30
64	10
65	150
66	10
67	30
69	60
70	10
71	10
77	70
78	40
79	100
80	10
85	100
89	30
90	20
91	999
92	250
93	60
103	10
104	20
105	40
106	10
107	270
108	80
109	10
117	10
118	10
131	10
147	10
194	20
