Mass Spectrum: 4-Morpholinepropionitrile
Formula: C7H12N2O
CAS: 4542-47-6
Molecular weight: 140
m/z	intensity
13	2
14	10
15	133
16	1
19	2
25	3
26	54
27	180
28	320
29	133
30	63
31	24
38	2
39	17
40	29
41	135
42	999
43	56
44	25
45	12
50	1
51	10
52	35
53	20
54	137
55	45
56	192
57	139
58	15
59	1
66	3
67	7
68	21
69	5
70	79
71	9
72	22
79	4
80	6
81	13
82	38
83	6
84	1
85	3
86	3
95	13
96	1
98	36
100	977
101	56
102	2
109	6
111	1
139	5
140	60
141	3
