Mass Spectrum: N-n-Butyl-n-butan-4-ol-amine
Formula: C8H19NO
CAS: 4543-95-7
Molecular weight: 145
m/z	intensity
14	1
15	17
16	1
17	10
18	27
26	8
27	92
28	88
29	158
30	600
31	72
32	9
37	1
38	4
39	58
40	9
41	170
42	225
43	164
44	294
45	15
50	2
51	4
52	3
53	17
54	16
55	237
56	81
57	116
58	16
59	2
60	1
65	1
66	1
67	9
68	25
69	11
70	80
71	64
72	56
73	76
74	5
77	1
78	1
79	1
80	13
81	20
82	97
83	9
84	999
85	61
86	595
87	36
88	4
89	2
93	1
94	3
95	2
96	8
97	4
98	13
99	2
100	7
101	2
102	605
103	37
104	2
106	1
108	3
110	9
111	1
112	3
114	5
115	3
116	1
121	3
122	2
123	9
124	5
125	18
126	24
127	57
128	9
144	10
145	18
146	2
