Mass Spectrum: Benzene, (1-methyl-2-propynyl)-
Formula: C10H10
CAS: 4544-28-9
Molecular weight: 130
m/z	intensity
26	9
27	34
28	5
29	0
31	0
37	11
38	22
39	92
40	7
41	8
42	1
43	21
44	3
45	10
46	9
49	5
50	63
51	112
52	24
53	15
55	1
57	2
58	4
61	14
62	37
63	85
64	33
65	79
66	6
73	6
74	29
75	25
76	19
77	92
78	27
79	8
84	0
85	8
86	15
87	17
88	12
89	89
90	15
91	507
92	370
93	26
97	1
98	3
99	1
101	6
102	28
103	22
104	9
105	76
106	8
107	1
109	0
110	0
113	18
114	19
115	999
116	99
117	18
118	3
119	1
120	24
121	8
126	11
127	70
128	154
129	267
130	497
131	72
132	8
133	5
