Mass Spectrum: 1,3a-Ethano-3aH-indene, 1,2,3,6,7,7a-hexahydro-2,2,4,7a-tetramethyl-, [1R-(1.alpha.,3a.alpha.,7a.alpha.)]-
Formula: C15H24
CAS: 4545-68-0
Molecular weight: 204
m/z	intensity
26	34
27	424
28	106
29	432
30	9
37	4
38	12
39	562
40	112
41	999
42	81
43	148
44	4
50	33
51	149
52	73
53	358
54	49
55	411
56	82
57	30
58	4
62	8
63	61
64	23
65	222
66	55
67	252
68	50
69	189
70	17
71	11
72	1
74	5
75	10
76	11
77	475
78	117
79	433
80	66
81	157
82	30
83	45
84	5
85	7
87	4
89	25
90	8
91	737
92	112
93	283
94	88
95	192
96	18
97	10
98	7
101	5
102	18
103	95
104	37
105	704
106	152
107	294
108	55
109	39
110	15
111	54
112	6
114	1
115	154
116	66
117	183
118	37
119	402
120	194
121	205
122	113
123	19
126	1
127	20
128	71
129	65
130	37
131	106
132	41
133	377
134	75
135	35
136	13
139	2
141	17
142	8
143	15
144	11
145	70
146	25
147	132
148	54
149	21
152	1
153	1
157	2
159	21
160	23
161	756
162	108
163	11
173	1
174	1
175	233
176	80
177	9
189	454
190	71
191	5
204	151
205	24
