Mass Spectrum: Piperilate
Formula: C21H25NO3
CAS: 4546-39-8
Molecular weight: 339
m/z	intensity
15	1
26	1
27	5
28	13
29	7
30	8
38	1
39	7
40	1
41	54
42	44
43	8
44	25
45	3
50	6
51	27
52	3
53	4
54	8
55	54
56	32
57	5
58	3
62	1
63	3
64	1
65	1
67	3
68	4
69	19
70	17
71	1
73	4
74	2
75	2
76	6
77	129
78	12
79	1
80	1
81	1
82	6
83	8
84	11
85	10
86	1
87	1
88	1
89	1
91	1
94	1
96	24
97	7
98	999
99	68
100	4
101	1
102	1
104	1
105	183
106	14
107	1
108	1
109	1
110	7
111	103
112	26
113	5
114	1
115	2
126	2
127	2
128	14
129	6
130	1
139	2
142	1
150	1
151	2
152	9
153	4
154	1
156	1
163	2
164	2
165	11
166	2
167	2
168	1
181	7
182	16
183	31
184	4
194	1
337	1
338	2
339	3
340	1
