Mass Spectrum: 4,5-Dicarboxy-1,2,3-triazole
Formula: C4H3N3O4
CAS: 4546-95-6
Molecular weight: 157
m/z	intensity
12	62
13	32
14	62
15	7
16	56
17	29
18	89
19	1
24	21
25	18
26	27
27	113
28	701
29	321
30	19
31	5
32	3
33	14
34	1
36	3
37	1
38	308
39	456
40	798
41	678
42	327
43	21
44	914
45	626
46	38
47	5
48	18
50	7
51	5
52	25
53	34
54	63
55	36
56	23
57	204
58	12
60	1
63	3
64	27
66	25
67	427
68	906
69	323
70	14
71	3
72	5
73	3
74	1
75	1
77	1
78	1
79	1
80	14
81	1
82	3
83	5
84	111
85	999
86	49
87	5
88	5
94	1
95	5
96	224
97	12
99	1
102	1
110	1
111	34
112	162
113	511
114	30
115	1
122	1
123	1
129	1
139	1
140	19
157	5
158	9
