Mass Spectrum: 3-Methyl-5-hydroxy-isoxazole
Formula: C4H5NO2
CAS: 45469-93-0
Molecular weight: 99
m/z	intensity
37	29
38	50
39	260
40	108
41	999
42	259
43	61
44	423
45	141
46	70
51	20
52	19
54	80
55	19
56	10
57	29
58	50
69	49
71	551
72	40
73	59
82	19
99	550
100	49
