Mass Spectrum: Benzenesulfonyl azide, 4-nitro-
Formula: C6H4N4O4S
CAS: 4547-62-0
Molecular weight: 228
m/z	intensity
37	150
38	280
39	520
40	60
41	60
42	240
43	980
45	90
48	520
49	40
50	999
51	300
52	110
53	80
58	600
59	30
61	40
62	130
63	430
64	670
65	100
66	40
69	60
70	90
73	50
74	390
75	980
76	999
77	150
92	570
93	50
95	40
96	40
106	40
122	730
123	60
124	20
138	30
186	630
187	50
188	40
228	30
