Mass Spectrum: 3-Phenyl-4-(N-methylphenylhydrazono)isoxazol-5-one
Formula: C16H13N3O2
CAS: 4550-13-4
Molecular weight: 279
m/z	intensity
63	100
64	60
65	180
75	60
76	200
77	999
78	210
90	50
91	440
103	460
104	220
105	780
106	530
117	70
131	70
132	100
221	50
279	140
