Mass Spectrum: Carbanilide, 4,4'-diamino-
Formula: C13H14N4O
CAS: 4550-72-5
Molecular weight: 242
m/z	intensity
41	45
42	20
43	8
44	12
46	2
48	0
49	4
50	18
51	49
52	138
53	168
54	162
55	21
56	6
57	1
60	0
61	7
62	14
63	29
64	28
65	29
66	15
67	42
68	6
69	3
73	5
74	4
75	6
76	10
77	21
78	30
79	86
80	305
81	119
82	12
83	1
86	1
87	5
88	4
89	7
90	15
91	26
92	5
93	5
99	1
100	2
101	4
102	5
103	3
104	20
105	58
106	100
107	294
108	999
109	85
110	3
114	2
115	1
116	13
117	26
118	2
121	3
127	1
129	8
130	9
131	2
132	22
133	10
134	243
135	21
136	2
143	0
144	19
145	3
150	0
154	0
155	0
159	3
160	87
161	8
162	2
164	1
174	1
175	2
176	2
177	1
188	0
190	1
199	1
200	1
201	4
202	2
203	1
215	2
225	4
226	1
240	1
241	10
242	114
243	20
244	2
