Mass Spectrum: 2-Oxazolamine, 4,5-dimethyl-
Formula: C5H8N2O
CAS: 45529-92-8
Molecular weight: 112
m/z	intensity
27	232
28	401
29	70
30	19
32	20
37	10
38	20
39	99
40	120
41	334
42	999
43	575
44	102
45	9
50	20
51	48
52	50
53	70
54	292
55	209
56	69
67	69
68	181
69	452
70	101
71	50
81	30
82	9
83	50
84	20
95	9
97	19
111	419
112	863
113	139
114	10
