Mass Spectrum: 1H-1,2,4-Triazol-3-amine, 5-(methylthio)-
Formula: C3H6N4S
CAS: 45534-08-5
Molecular weight: 130
m/z	intensity
14	5
15	13
18	3
26	8
27	22
28	94
29	55
30	30
32	57
33	8
36	8
38	7
39	13
40	4
41	14
42	110
43	335
44	47
45	198
46	97
47	104
48	20
49	20
53	49
54	7
55	5
56	9
57	276
58	81
59	116
60	69
61	11
64	25
65	5
67	2
68	26
69	4
70	23
71	5
72	13
73	45
74	270
75	13
76	19
77	12
84	22
85	293
86	96
87	25
88	67
97	811
98	36
100	5
101	9
115	13
129	138
130	999
131	65
132	54
