Mass Spectrum: Morpholine-N-carboxanilide
Formula: C11H14N2O2
CAS: 4559-92-6
Molecular weight: 206
m/z	intensity
41	75
42	502
43	57
44	92
45	105
46	3
50	39
51	163
52	38
53	7
54	45
55	60
56	355
57	610
58	60
59	11
61	3
62	12
63	59
64	73
65	210
66	55
67	7
68	5
69	7
70	999
71	32
72	35
73	1
74	11
75	9
76	14
77	302
78	25
79	6
84	4
85	30
86	186
87	154
88	23
89	1
90	7
91	76
92	123
93	367
94	27
104	21
105	10
106	30
107	2
114	640
115	79
116	5
117	1
118	5
119	105
120	83
121	7
132	18
133	4
134	4
135	2
147	6
148	5
149	15
161	13
162	12
163	9
175	9
178	2
189	5
205	23
206	284
207	65
208	7
