Mass Spectrum: Thiazole, 5-(2-chloroethyl)-
Formula: C5H6ClNS
CAS: 45592-77-6
Molecular weight: 147
m/z	intensity
41	126
42	37
43	103
44	63
45	211
46	19
47	20
50	31
51	42
52	23
53	39
54	44
55	84
56	42
57	46
58	86
59	31
60	11
65	23
66	11
67	51
68	31
69	35
70	11
71	151
72	19
73	19
80	20
81	104
82	42
83	16
84	37
85	63
86	11
87	15
88	12
98	999
99	73
100	42
147	211
148	19
149	82
