Mass Spectrum: Phenylalanine, 3-fluoro-
Formula: C9H10FNO2
CAS: 456-88-2
Molecular weight: 183
m/z	intensity
15	7
16	2
18	1
19	1
26	1
27	7
28	178
29	10
30	23
31	3
32	1
33	1
37	2
38	5
39	18
40	2
41	6
42	24
43	14
44	16
45	6
46	79
47	1
49	1
50	9
51	10
52	2
53	1
54	1
55	1
56	10
57	19
58	3
59	7
60	1
61	2
62	6
63	17
64	3
65	5
67	3
68	10
69	16
70	5
71	1
74	999
75	40
76	6
77	3
78	2
80	1
81	6
82	2
83	47
84	4
85	1
86	2
87	2
88	1
89	11
90	3
91	29
92	3
94	2
95	9
96	8
97	2
98	1
101	24
102	3
103	1
107	14
108	11
109	183
110	58
111	10
112	1
115	1
116	3
117	10
118	32
119	3
120	3
121	20
122	15
123	2
134	4
135	15
136	33
137	36
138	228
139	18
148	2
149	2
150	2
164	2
165	4
166	2
181	2
182	2
183	9
184	1
