Mass Spectrum: Leucine, N-[N-[N-(N-stearoyl-L-alanyl)-L-valyl]glycyl]-, methyl ester, L-
Formula: C35H66N4O6
CAS: 4560-73-0
Molecular weight: 638
m/z	intensity
41	196
42	84
43	401
44	654
55	186
56	84
57	247
69	112
70	56
71	149
72	999
73	205
86	317
87	88
98	60
100	42
113	101
114	44
126	44
127	59
146	144
147	15
169	27
170	8
171	13
203	71
204	7
212	12
213	20
214	283
245	10
267	14
268	4
271	14
272	3
286	112
287	17
301	9
302	32
303	4
310	11
311	28
312	6
328	66
329	18
338	241
339	65
392	12
393	4
409	11
410	28
411	8
436	9
437	17
438	4
467	6
468	2
494	70
495	22
561	1
562	0
564	2
565	0
579	3
580	1
582	4
583	1
595	2
596	0
607	1
608	0
620	5
621	2
623	2
624	0
638	9
639	3
