Mass Spectrum: 1-(Propylamino)-3-(1-naphthyloxy)-2-propanol
Formula: C16H21NO2
CAS: 4563-04-6
Molecular weight: 259
m/z	intensity
41	65
42	53
43	123
44	91
56	27
70	17
72	999
73	41
86	20
89	10
98	7
101	5
102	19
114	18
115	108
116	63
126	8
127	30
128	17
143	16
144	90
145	9
155	4
157	7
158	2
169	2
183	4
184	3
186	4
215	32
216	4
230	3
259	17
260	2
