Mass Spectrum: 1-Vinyl-2-hydroxymethylimidazole
Formula: C6H8N2O
CAS: 45662-46-2
Molecular weight: 124
m/z	intensity
27	704
29	174
31	373
39	388
40	591
41	999
42	437
51	84
52	284
53	188
54	268
55	64
65	37
66	125
67	456
68	782
69	288
70	100
79	84
80	87
81	442
82	42
83	28
93	125
94	74
95	824
96	121
97	63
106	44
107	323
108	31
109	30
122	18
123	351
124	968
125	137
