Mass Spectrum: 3-Benzyl-5-(2-hydroxyethyl)-4-methylthiazolium chloride
Formula: C13H16ClNOS
CAS: 4568-71-2
Molecular weight: 269
m/z	intensity
14	1
15	4
17	1
18	3
25	1
26	13
27	35
28	9
29	11
30	2
31	30
32	4
33	1
34	2
35	11
36	83
37	7
38	26
39	85
40	11
41	50
42	13
43	55
44	11
45	111
46	5
47	8
48	1
49	5
50	30
51	46
52	18
53	32
54	8
55	27
56	6
57	18
58	21
59	36
60	9
61	11
62	25
63	54
64	14
65	105
66	9
67	6
68	14
69	16
70	8
71	34
72	22
73	16
74	8
75	5
76	4
77	14
78	5
79	4
80	5
81	7
82	4
83	16
84	19
85	139
86	29
87	15
88	5
89	47
90	23
91	999
92	88
93	6
94	2
95	3
96	3
97	8
98	10
99	11
100	9
101	4
102	3
103	6
104	5
105	4
106	3
107	3
108	2
109	2
110	3
111	7
112	449
113	170
114	32
115	18
116	11
117	18
118	6
119	3
120	5
121	9
122	2
123	3
124	4
125	24
126	153
127	21
128	53
129	9
130	3
131	3
132	2
133	1
134	4
135	3
136	2
137	4
138	3
139	3
140	1
141	2
142	4
143	172
144	17
145	11
146	2
147	2
148	4
149	4
150	7
151	3
152	3
153	1
154	2
155	2
156	2
157	1
158	2
159	1
160	2
161	2
162	4
163	2
164	1
165	2
166	1
167	4
168	3
169	4
170	2
171	4
172	9
173	6
174	2
175	1
176	1
177	1
178	2
179	2
180	1
181	2
182	1
183	1
185	2
186	2
187	2
188	3
189	2
190	2
191	2
192	2
193	1
194	1
196	1
199	1
200	3
201	4
202	14
203	6
204	6
205	2
206	9
207	5
208	3
209	6
210	3
211	1
212	1
213	1
214	4
215	2
216	2
218	1
219	1
221	1
222	21
223	13
224	4
225	1
226	1
227	2
228	1
230	1
231	1
232	25
233	11
234	147
235	32
236	9
237	4
238	3
