Mass Spectrum: 5,9-Dimethyl-2-(1-methylethyl)-1-cyclodecanone
Formula: C15H28O
CAS: 4570-15-4
Molecular weight: 224
m/z	intensity
41	999
42	150
43	540
53	140
54	60
55	900
56	280
57	260
58	30
59	50
65	30
66	20
67	260
68	170
69	620
70	130
71	130
77	40
79	80
80	30
81	340
82	170
83	260
84	70
85	40
86	80
91	20
93	90
94	30
95	310
96	90
97	220
99	30
100	30
107	80
108	40
109	260
110	80
111	120
112	30
113	110
121	30
122	10
123	70
124	50
125	40
126	30
127	10
135	20
137	30
138	20
139	40
140	40
149	10
151	10
153	80
154	20
165	20
167	10
179	80
181	790
182	90
191	10
209	20
224	80
