Mass Spectrum: 2-Amino-oxazole
Formula: C3H4N2O
CAS: 4570-45-0
Molecular weight: 84
m/z	intensity
30	22
31	22
32	21
38	44
39	42
40	68
41	66
42	243
43	155
44	109
51	21
52	22
53	65
54	67
55	244
56	619
57	21
84	999
85	90
