Mass Spectrum: 1-Oxaspiro[4.5]deca-6,9-diene-2,8-dione
Formula: C9H8O3
CAS: 4572-26-3
Molecular weight: 164
m/z	intensity
12	4
13	5
14	15
15	9
16	6
17	6
18	43
22	1
24	3
25	29
26	307
27	230
28	630
29	30
30	1
31	13
32	6
33	40
36	6
37	63
38	138
39	292
40	75
41	27
42	73
43	21
44	123
45	24
46	7
47	7
48	3
49	29
50	123
51	200
52	200
53	123
54	246
55	830
56	999
57	38
58	2
59	3
60	13
61	61
62	107
63	215
64	92
65	169
66	143
67	7
68	81
69	12
70	0
71	1
72	0
73	6
74	20
75	10
76	5
77	50
78	24
79	50
80	153
81	40
82	307
83	13
84	3
85	4
86	4
87	3
88	1
89	20
90	15
91	692
92	230
93	16
94	76
95	20
96	32
97	3
98	0
99	0
101	0
102	0
103	1
104	0
105	8
106	2
107	84
108	86
109	56
110	132
111	7
112	1
113	0
114	0
115	0
117	0
118	4
119	13
120	76
121	12
122	169
123	13
124	1
131	0
135	3
136	60
137	4
138	3
139	0
146	1
147	0
149	0
154	0
162	0
163	1
164	784
165	76
166	13
167	0
