Mass Spectrum: 1-(3-Aminopropyl)-4-methylpiperazine
Formula: C8H19N3
CAS: 4572-03-6
Molecular weight: 157
m/z	intensity
26	18
27	56
28	169
29	57
30	280
31	18
39	16
40	9
41	88
42	397
43	592
44	567
45	18
53	6
54	43
55	55
56	333
57	269
58	354
59	32
67	7
68	25
69	28
70	999
71	529
72	85
73	8
75	15
80	6
81	8
82	34
83	64
84	96
85	98
86	16
87	78
88	8
89	6
95	8
96	23
97	42
98	106
99	132
100	45
101	249
102	16
111	33
112	17
113	406
114	104
115	56
116	7
125	7
126	46
127	168
128	19
140	26
141	7
142	6
155	8
157	13
