Mass Spectrum: 3-Isothiazolecarboxylic acid
Formula: C4H3NO2S
CAS: 4576-90-3
Molecular weight: 129
m/z	intensity
33	40
45	190
52	75
57	460
58	410
59	97
60	40
76	150
83	75
84	420
85	999
86	37
87	60
111	18
112	360
113	26
129	829
130	54
131	40
