Mass Spectrum: Cyclobutanone, 2-(1,1-dimethylethyl)-
Formula: C8H14O
CAS: 4579-31-1
Molecular weight: 126
m/z	intensity
41	575
42	52
43	43
55	474
56	172
57	374
58	86
69	999
70	339
71	52
83	790
84	57
85	172
86	29
98	431
99	63
126	52
127	23
