Mass Spectrum: (+-)-5-(1-Hydroxy-1-methylethyl)-2-methyl-2-cyclohexen-1-one semicarbazone
Formula: C11H19N3O2
CAS: 4581-66-2
Molecular weight: 225
m/z	intensity
12	1
13	1
14	4
15	25
16	45
17	97
18	11
25	3
26	33
27	184
28	208
29	61
30	40
31	111
32	12
36	1
37	9
38	19
39	174
40	55
41	282
42	118
43	567
44	108
45	23
46	3
49	3
50	26
51	75
52	59
53	195
54	67
55	91
56	28
57	33
58	55
59	580
60	32
61	101
62	11
63	32
64	18
65	122
66	98
67	132
68	69
69	74
70	40
71	34
72	8
73	5
74	10
75	11
76	17
77	310
78	98
79	355
80	150
81	120
82	41
83	28
84	11
85	9
86	5
87	12
88	3
89	23
90	20
91	369
92	143
93	275
94	432
95	107
96	45
97	21
98	6
99	28
100	4
101	5
102	11
103	40
104	83
105	226
106	999
107	655
108	559
109	165
110	23
111	11
112	7
113	9
114	6
115	46
116	29
117	98
118	54
119	302
120	101
121	490
122	132
123	346
124	82
125	14
126	10
127	53
128	16
129	18
130	50
131	68
132	439
133	142
134	177
135	49
136	47
137	15
138	8
139	22
140	6
141	4
142	6
143	9
144	20
145	20
146	249
147	701
148	597
149	327
150	175
151	45
152	16
153	4
154	3
155	2
156	1
157	5
158	2
159	2
160	4
161	19
162	15
163	196
164	364
165	78
166	253
167	324
168	35
169	4
170	4
171	1
172	2
173	1
174	4
175	54
176	8
177	1
178	1
179	2
180	2
181	4
182	113
183	15
184	2
187	1
188	1
189	8
190	180
191	27
192	25
193	24
194	3
195	1
196	1
197	1
204	1
205	1
206	3
207	473
208	75
209	8
210	84
211	10
212	1
224	1
225	508
226	83
227	8
