Mass Spectrum: N-Benzoylphthalimide
Formula: C15H9NO3
CAS: 4583-50-0
Molecular weight: 251
m/z	intensity
36	0
37	5
38	9
39	25
40	5
41	0
42	0
44	10
45	1
47	0
48	1
50	118
51	169
52	10
53	4
54	0
55	0
57	0
60	0
61	1
62	5
63	21
64	17
65	4
66	2
68	0
70	15
71	0
72	0
73	4
74	32
75	42
76	138
77	568
78	35
79	1
80	0
83	1
85	0
86	0
87	1
88	1
89	4
90	80
91	7
92	4
93	1
94	0
98	0
99	0
100	1
102	21
103	14
104	75
105	999
106	79
107	4
112	0
117	0
118	3
119	2
120	39
121	4
122	1
126	1
127	0
129	0
130	9
131	0
132	0
137	0
138	0
139	1
140	1
141	0
146	2
147	12
148	1
149	0
150	1
151	2
152	3
153	1
164	0
166	1
167	0
172	0
174	24
175	2
176	0
177	1
178	2
179	25
180	4
181	2
182	0
194	0
195	0
207	0
209	1
221	1
222	7
223	121
224	17
225	1
234	0
249	2
251	312
252	47
253	5
254	0
