Mass Spectrum: 2,5-Cyclohexadiene-1,4-dione, 2,5-bis(1,1-dimethylpropyl)-
Formula: C16H24O2
CAS: 4584-63-8
Molecular weight: 248
m/z	intensity
24	1
25	5
26	48
27	684
28	121
29	829
30	20
31	8
32	5
36	2
37	8
38	21
39	436
40	84
41	999
42	69
43	719
44	25
45	10
46	2
47	2
48	2
49	3
50	34
51	160
52	80
53	347
54	48
55	519
56	36
57	90
58	11
59	15
60	4
61	3
62	11
63	54
64	30
65	173
66	79
67	352
68	36
69	473
70	46
71	185
72	19
73	10
74	9
75	19
76	18
77	253
78	72
79	194
80	41
81	131
82	26
83	198
84	21
85	10
86	6
87	8
88	10
89	23
90	17
91	264
92	43
93	93
94	28
95	124
96	26
97	35
98	9
99	7
100	6
101	10
102	20
103	57
104	27
105	129
106	26
107	108
108	29
109	77
110	15
111	17
112	4
113	7
114	7
115	84
116	39
117	60
118	21
119	87
120	29
121	116
122	38
123	105
124	28
125	28
126	7
127	27
128	54
129	38
130	18
131	66
132	27
133	72
134	40
135	168
136	90
137	112
138	22
139	11
140	5
141	21
142	16
143	24
144	24
145	59
146	27
147	79
148	34
149	221
150	89
151	70
152	20
153	10
154	5
155	10
156	10
157	23
158	25
159	43
160	27
161	96
162	49
163	428
164	90
165	51
166	18
167	9
168	6
169	9
170	8
171	14
172	14
173	44
174	21
175	66
176	42
177	792
178	139
179	32
180	14
181	5
182	4
183	4
184	4
185	10
186	9
187	30
188	13
189	40
190	45
191	545
192	227
193	44
194	13
195	6
197	4
198	3
199	4
200	4
201	16
202	7
203	29
204	30
205	218
206	69
207	20
208	4
209	1
213	4
214	2
215	9
216	4
217	14
218	21
219	284
220	95
221	79
222	17
223	6
228	4
229	5
230	6
231	32
232	32
233	355
234	78
235	14
236	13
237	4
246	4
248	666
249	116
250	22
251	3
