Mass Spectrum: 2,5-Cyclohexadiene-1,4-dione, 3-hydroxy-2-methyl-5-(1-methylethyl)-
Formula: C10H12O3
CAS: 4586-58-7
Molecular weight: 180
m/z	intensity
50	470
51	870
52	360
53	850
54	120
55	580
56	60
61	60
62	150
63	360
64	120
65	500
66	280
67	760
68	620
69	999
70	50
74	70
75	80
76	50
77	470
78	190
79	470
80	120
81	250
82	80
83	220
89	90
90	60
91	580
92	60
93	60
94	150
95	140
96	130
105	100
106	80
107	150
108	60
109	760
110	80
111	50
119	110
123	120
124	150
125	50
137	640
138	60
147	140
152	100
180	110
181	20
