Mass Spectrum: Geranic acid
Formula: C10H16O2
CAS: 459-80-3
Molecular weight: 168
m/z	intensity
27	26
39	86
41	423
42	27
53	70
55	32
67	60
68	27
69	999
70	52
81	36
82	68
85	26
100	175
111	26
122	30
123	139
124	32
125	54
168	12
