Mass Spectrum: 1-[p-Fluorophenyl]-2-thiourea
Formula: C7H7FN2S
CAS: 459-05-2
Molecular weight: 170
m/z	intensity
41	21
42	33
43	176
44	21
45	36
46	13
47	9
48	7
49	7
50	58
51	48
52	61
53	16
54	10
55	12
56	56
57	204
58	22
59	64
60	469
61	43
62	84
63	124
64	85
65	32
66	5
67	4
68	19
69	36
70	19
71	7
72	9
73	10
74	60
75	254
76	27
77	5
78	3
79	0
80	6
81	59
82	75
83	510
84	392
85	61
86	5
87	5
88	4
89	8
90	10
91	27
92	9
93	13
94	36
95	265
96	49
97	4
98	12
99	0
100	0
102	2
105	2
106	4
107	3
108	22
109	27
110	106
111	999
112	83
113	4
114	7
115	12
116	1
117	2
121	6
122	41
123	4
124	1
125	1
126	10
127	60
128	207
129	14
130	9
133	2
134	1
135	1
136	27
137	219
138	13
140	1
141	2
142	14
143	1
144	1
152	1
153	13
154	6
155	1
168	4
169	23
170	513
171	72
172	39
173	4
