Mass Spectrum: Glycine, ethyl ester
Formula: C4H9NO2
CAS: 459-73-4
Molecular weight: 103
m/z	intensity
26	11
27	42
28	36
29	76
30	999
31	33
42	12
43	10
44	7
45	7
46	4
57	4
60	21
74	8
103	38
104	4
