Mass Spectrum: Cyclopentaneacetic acid, ethenyl ester
Formula: C9H14O2
CAS: 45955-66-6
Molecular weight: 154
m/z	intensity
28	218
29	173
30	4
31	8
32	21
33	0
34	0
35	0
36	0
37	8
38	25
39	336
40	66
41	727
42	197
43	145
44	40
45	14
46	0
47	0
48	0
49	1
50	17
51	31
52	17
53	91
54	65
55	718
56	34
57	9
58	18
59	1
60	9
61	2
62	4
63	6
64	1
65	16
66	20
67	139
68	42
69	131
70	9
71	6
72	0
73	2
74	1
75	0
76	0
77	12
78	3
79	18
80	4
81	44
82	13
83	999
84	67
85	8
86	64
87	11
88	1
89	0
91	1
92	1
93	4
94	13
95	9
96	1
97	2
98	0
99	1
100	0
101	0
102	0
103	0
104	0
105	0
106	0
107	1
108	2
109	4
110	3
111	590
112	45
113	3
114	0
115	0
116	0
117	0
118	0
120	0
121	0
122	0
123	0
124	0
125	1
126	0
127	0
136	0
154	5
