Mass Spectrum: Pyrazolidine-3,5-dione, 4-(2-ethoxybenzylideno)-1-phenyl-
Formula: C18H16N2O3
CAS: 4599-12-6
Molecular weight: 308
m/z	intensity
33	16
34	4
36	2
37	26
38	83
39	329
40	150
41	121
42	41
43	128
44	64
45	20
47	1
50	214
51	608
52	113
53	83
55	96
56	24
57	75
58	8
59	4
60	8
61	31
62	112
63	353
64	159
65	132
66	26
67	16
68	14
69	57
70	29
71	31
73	13
74	74
75	127
77	999
78	134
79	42
80	14
81	17
82	3
83	39
84	17
85	4
86	15
87	30
89	712
90	283
91	247
92	64
93	131
94	29
95	33
96	3
97	14
98	12
99	8
100	17
101	135
102	172
103	118
104	57
105	271
106	69
107	201
108	65
109	10
111	7
112	16
113	9
115	86
116	47
117	73
118	282
119	74
120	24
121	15
123	49
125	6
126	8
127	20
128	23
129	46
131	637
132	101
133	97
134	53
135	48
136	1
140	9
143	18
144	42
145	226
146	142
147	76
148	10
149	2
150	3
151	3
152	9
153	2
154	3
155	5
156	10
157	15
158	6
159	33
160	15
162	1
164	2
165	16
166	5
167	2
169	7
170	26
171	87
173	549
174	82
175	35
176	19
177	9
178	6
180	5
181	1
182	4
183	7
184	5
185	3
186	7
187	35
188	29
189	13
190	1
193	3
195	79
196	10
197	8
198	46
199	37
200	11
201	57
202	120
203	21
207	4
208	8
211	26
212	2
214	2
215	3
216	7
217	2
220	2
234	1
235	5
236	1
238	1
239	39
240	37
241	9
246	1
248	8
249	12
250	1
260	3
262	14
263	123
264	28
265	13
274	1
279	8
283	6
290	3
291	1
293	7
305	11
306	23
308	382
309	68
310	14
