Mass Spectrum: Pyrano[2,3-c]pyrazol-3(2H)-one, 4,6-dimethyl-2-phenyl-
Formula: C14H12N2O2
CAS: 4599-18-2
Molecular weight: 240
m/z	intensity
33	0
34	0
37	11
38	34
39	123
40	24
41	57
42	11
43	129
44	10
45	5
48	0
49	4
50	49
51	179
52	55
53	23
54	3
55	4
56	1
57	2
58	0
59	1
60	4
61	4
62	16
63	77
64	220
65	75
66	34
67	68
68	5
69	17
70	1
71	1
72	1
73	2
74	10
75	11
76	29
77	224
78	66
79	13
80	6
81	2
82	1
83	2
84	1
85	1
86	0
87	1
88	2
89	11
91	999
92	79
93	14
94	8
95	2
96	0
97	0
98	1
99	0
100	0
101	1
102	4
103	11
104	8
105	12
106	11
107	5
108	2
109	1
111	11
112	1
113	1
114	1
115	18
116	8
117	2
118	7
119	7
120	59
121	16
122	2
123	1
124	0
125	0
126	1
127	2
128	4
129	6
130	2
131	1
132	1
133	3
134	8
135	8
136	1
138	0
139	5
140	3
141	9
142	6
143	4
144	3
145	1
146	0
147	0
148	1
149	3
150	6
151	1
152	2
153	3
154	3
155	8
156	3
157	1
158	2
159	2
160	13
161	2
165	1
166	1
167	2
168	9
169	48
170	10
171	2
172	2
173	0
175	1
179	0
181	1
182	2
183	22
184	6
185	3
186	2
193	1
195	4
196	2
197	26
198	7
199	1
200	6
201	1
209	1
211	72
212	18
213	2
214	1
223	2
224	1
225	3
226	0
234	0
235	0
236	0
237	2
240	718
241	111
242	11
243	1
