Mass Spectrum: Cyanogen
Formula: C2N2
CAS: 460-19-5
Molecular weight: 52
m/z	intensity
26	47
52	999
53	31
