Mass Spectrum: 1,3-Butadiyne
Formula: C4H2
CAS: 460-12-8
Molecular weight: 50
m/z	intensity
12	38
13	24
24	26
25	95
26	6
36	29
37	54
38	10
48	84
49	360
50	999
51	42
52	2
