Mass Spectrum: 1H-1,2,3-Triazole-4-carboxylic acid, 1-phenyl-
Formula: C9H7N3O2
CAS: 4600-04-8
Molecular weight: 189
m/z	intensity
34	1
37	30
38	70
39	133
40	51
41	14
42	6
43	8
44	27
45	60
50	161
51	543
52	53
53	37
54	4
55	5
56	3
57	6
58	11
59	0
60	1
61	13
62	33
63	89
64	53
65	55
66	67
67	10
69	75
70	4
71	4
72	3
73	6
74	33
75	32
77	999
78	94
79	6
80	5
82	1
83	1
84	1
85	1
86	3
87	7
88	18
89	155
90	168
91	28
93	484
94	39
95	3
96	0
97	1
98	0
99	0
100	0
104	121
105	56
106	4
108	0
109	0
110	0
111	0
112	1
114	11
115	50
116	172
117	513
118	47
119	9
120	7
121	0
123	0
127	0
128	0
129	0
130	0
131	0
132	4
133	12
134	0
141	0
142	2
143	28
144	214
145	34
146	2
149	0
152	0
160	0
161	5
162	0
163	0
172	10
173	0
189	115
190	11
191	0
