Mass Spectrum: 1-Methyltricyclo[2.2.1.0(2,6)]heptane
Formula: C8H12
CAS: 4601-85-8
Molecular weight: 108
m/z	intensity
27	74
29	35
39	166
40	42
41	136
51	67
52	37
53	71
65	102
66	142
67	79
77	462
78	96
79	531
80	272
81	44
91	491
92	63
93	999
94	117
105	31
107	97
108	832
109	76
