Mass Spectrum: Androstane-6,17-dione, 3-hydroxy-, (3.beta.,5.alpha.)-
Formula: C19H28O3
CAS: 4601-47-2
Molecular weight: 304
m/z	intensity
40	134
41	999
42	170
43	591
44	123
45	13
50	43
51	107
52	73
53	409
54	116
55	933
56	83
57	181
58	30
59	14
63	39
64	25
65	158
66	100
67	751
68	262
69	214
70	45
71	46
77	361
78	124
79	603
80	165
81	449
82	151
83	162
84	59
85	44
87	29
88	13
89	33
90	15
91	414
92	101
93	634
94	334
95	751
96	155
97	287
98	25
99	23
103	41
104	33
105	259
106	118
107	326
108	377
109	210
110	97
111	137
112	29
115	39
116	29
117	76
118	43
119	148
120	111
121	224
122	128
123	173
124	102
125	46
131	97
132	29
133	127
134	68
135	97
136	98
137	59
138	49
139	719
140	79
141	30
142	18
143	30
144	23
145	84
146	66
147	109
148	86
149	101
150	66
151	31
152	25
159	35
160	25
161	59
162	46
163	57
164	51
165	29
173	35
174	35
175	32
176	25
177	26
188	16
189	30
190	44
191	30
204	51
205	54
206	20
213	35
214	19
215	45
219	29
220	44
226	19
227	34
228	18
229	38
230	27
231	21
232	18
233	94
234	18
243	45
244	29
245	22
246	34
247	101
248	158
249	35
253	37
254	11
255	21
257	28
258	22
260	64
261	68
262	34
268	37
269	14
270	14
271	70
272	18
273	28
274	14
275	81
276	24
277	13
286	75
288	9
289	121
290	28
302	32
304	685
305	143
306	14
307	1
