Mass Spectrum: 2-Hexanone, 5-methyl-5-nitro-
Formula: C7H13NO3
CAS: 4604-49-3
Molecular weight: 159
m/z	intensity
15	6
26	2
27	22
28	12
29	24
30	26
39	46
40	2
41	101
42	36
43	999
44	14
45	2
51	2
53	14
55	119
56	16
57	4
59	4
67	16
68	2
69	247
70	52
71	8
95	36
96	4
97	10
113	111
114	8
143	2
