Mass Spectrum: Cyclooctene, 5,6-diethenyl-
Formula: C12H18
CAS: 46045-35-6
Molecular weight: 162
m/z	intensity
25	2
26	11
27	220
28	37
29	90
30	1
33	0
34	0
37	6
38	10
39	411
40	51
41	518
42	27
43	22
46	0
47	0
48	0
49	1
50	18
51	66
52	42
53	183
54	999
55	159
56	10
57	2
58	1
61	0
62	5
63	23
64	10
65	131
66	167
67	735
68	62
69	18
70	3
71	3
72	0
74	3
75	17
76	6
77	283
78	155
79	994
80	453
81	133
82	18
83	7
84	0
87	1
88	0
89	7
90	8
91	459
92	221
93	579
94	182
95	112
96	14
97	0
101	0
102	2
103	12
104	8
105	187
106	115
107	100
108	89
109	8
111	0
114	0
115	7
116	2
117	12
118	6
119	271
120	141
121	93
122	8
127	0
128	1
129	1
131	4
132	3
133	223
134	121
135	12
145	0
147	78
148	9
160	0
161	7
162	14
163	1
