Mass Spectrum: 2,7(1H,3H)-Naphthalenedione, hexahydro-
Formula: C10H14O2
CAS: 46048-64-0
Molecular weight: 166
m/z	intensity
25	0
26	13
27	161
28	28
29	77
30	2
31	17
33	1
34	2
37	3
38	14
39	259
40	76
41	381
42	78
43	116
44	6
45	19
46	2
47	2
48	3
49	1
50	14
51	36
52	27
53	137
54	193
55	999
56	57
57	23
58	16
59	7
60	2
61	7
62	4
63	12
64	3
65	45
66	37
67	249
68	933
69	270
70	227
71	19
72	12
73	6
74	4
75	6
76	1
77	42
78	14
79	118
80	47
81	166
82	150
83	108
84	31
85	9
86	1
88	2
89	1
90	1
91	31
92	12
93	32
94	66
95	160
96	160
97	89
98	31
99	4
103	1
104	1
105	16
106	32
107	26
108	71
109	277
110	612
111	91
112	39
113	3
115	1
117	0
119	7
120	19
121	25
122	69
123	152
124	79
125	9
126	0
127	1
128	0
129	1
130	3
131	1
133	33
134	3
135	1
136	3
137	52
138	89
139	9
140	0
141	1
147	4
148	130
149	23
150	2
151	19
152	2
153	1
165	9
166	866
167	102
168	9
169	0
