Mass Spectrum: Benzene, (2-chloroethenyl)-, (Z)-
Formula: C8H7Cl
CAS: 4604-28-8
Molecular weight: 138
m/z	intensity
26	5
27	26
29	4
33	1
34	1
36	1
37	11
38	29
39	54
40	15
44	1
49	13
50	162
51	387
52	56
53	6
61	15
62	30
63	65
64	2
65	0
68	8
69	29
70	5
73	17
74	74
75	90
76	81
77	413
78	80
79	1
85	3
86	4
87	7
89	1
97	1
98	6
99	4
101	35
102	139
103	999
104	84
105	1
112	8
114	0
137	1
138	597
139	50
140	183
141	12
