Mass Spectrum: 3,5-Dithioxo-2,3,4,5-tetrahydro-1,2,4-triazine
Formula: C3H3N3S2
CAS: 461-90-5
Molecular weight: 145
m/z	intensity
41	201
42	501
43	120
45	206
46	249
47	150
57	520
58	863
59	999
60	804
70	181
84	50
85	266
86	49
118	48
145	824
