Mass Spectrum: Thiophene, 2,3-dihydro-5-methyl-
Formula: C5H8S
CAS: 4610-02-0
Molecular weight: 100
m/z	intensity
25	5
26	51
27	356
29	30
33	5
34	11
35	4
36	1
37	33
38	71
39	491
40	33
41	184
42	7
44	6
45	469
46	65
47	79
48	13
49	26
50	50
51	63
52	22
53	151
54	32
55	78
56	3
57	26
58	131
59	935
60	74
61	67
62	16
63	20
64	3
65	416
66	64
67	62
68	4
69	44
70	8
71	66
72	23
73	2
76	3
81	2
82	6
83	2
84	49
85	999
86	58
87	54
88	3
93	1
97	82
98	19
99	776
100	890
101	86
102	40
