Mass Spectrum: 2-Butenoic acid, phenyl ester
Formula: C10H10O2
CAS: 46117-37-7
Molecular weight: 162
m/z	intensity
37	12
38	30
39	210
40	40
41	312
42	17
50	20
52	30
53	10
55	15
62	10
63	24
64	10
65	75
66	40
68	110
69	999
70	55
77	30
93	9
94	200
95	15
162	148
163	16
