Mass Spectrum: 2,6,6-Trimethylbicyclo[3.2.0]hept-2-en-7-one
Formula: C10H14O
CAS: 4613-37-0
Molecular weight: 150
m/z	intensity
17	1
26	4
27	44
32	2
36	1
37	5
38	14
39	172
40	30
41	79
42	114
49	1
50	31
51	85
52	43
53	77
59	6
61	3
62	9
63	30
64	7
65	73
66	21
70	208
71	98
75	4
76	5
77	179
78	47
79	609
80	999
82	71
89	3
90	1
91	299
92	41
104	3
105	120
106	18
107	588
108	42
115	4
116	2
117	3
121	19
122	301
123	30
132	1
135	15
149	1
150	57
151	6
