Mass Spectrum: Phenanthro[3,2-b]furan-4-carboxylic acid, 1,2,3,4,4a,5,6,6a,7,11,11a,11b-dodecahydro-4,7,11b.beta.-trimethyl-, methyl ester, [4S-(4.alpha.,4a.beta.,6a.alpha.,7.beta.,11a.beta.,11b.alpha.)]-
Formula: C21H30O3
CAS: 4614-50-0
Molecular weight: 330
m/z	intensity
27	14
28	38
29	21
39	30
40	10
41	91
42	12
43	61
51	14
53	43
54	11
55	124
56	20
57	45
59	35
65	34
66	16
67	70
68	15
69	61
70	14
71	28
73	16
77	79
78	25
79	120
80	25
81	109
82	22
83	31
84	10
85	19
89	10
91	120
92	21
93	64
94	25
95	88
96	20
97	28
99	10
101	28
103	17
104	12
105	123
106	26
107	112
108	999
109	197
110	35
111	33
114	13
115	32
116	12
117	30
118	16
119	76
120	30
121	80
122	37
123	36
125	13
127	16
128	25
129	29
130	10
131	138
132	40
133	124
134	36
135	55
136	15
137	23
141	18
142	11
143	16
144	12
145	95
146	32
147	36
148	62
149	48
150	22
153	10
155	13
157	14
158	15
159	28
160	17
161	161
162	64
163	61
164	10
165	15
169	10
171	15
173	33
174	10
175	15
185	13
187	10
189	21
190	10
197	16
199	10
201	13
202	10
207	10
220	25
221	14
248	18
252	112
253	26
271	68
272	15
283	10
315	56
316	16
330	803
331	187
332	26
