Mass Spectrum: N'-(Diaminomethylidene)pyridine-3-carbohydrazide
Formula: C7H9N5O
CAS: 46189-75-7
Molecular weight: 179
m/z	intensity
35	3
36	32
37	12
38	35
39	49
40	61
41	71
42	101
43	999
44	377
45	17
46	2
49	9
50	103
51	276
52	86
53	73
54	9
55	29
56	12
57	49
58	25
59	21
61	69
62	12
63	16
64	9
65	20
66	12
67	12
68	7
69	14
70	5
71	6
73	343
74	26
75	9
76	28
77	53
78	630
79	241
80	38
81	7
84	10
86	3
90	2
91	157
92	29
93	19
94	10
95	2
96	3
97	4
98	6
101	8
103	4
104	4
105	44
106	472
107	49
108	23
109	13
110	4
111	2
112	2
117	2
119	86
120	22
122	8
123	2
124	3
130	3
131	5
133	2
135	4
136	30
137	29
140	3
142	3
144	7
145	5
148	25
149	6
161	52
162	39
163	19
165	6
166	6
177	5
178	274
179	228
180	19
181	2
