Mass Spectrum: 4-Oxo-4-(para-tolyl)-butyric acid
Formula: C11H12O3
CAS: 4619-20-9
Molecular weight: 192
m/z	intensity
14	1
26	3
27	20
28	20
29	9
31	2
37	1
38	4
39	37
40	4
41	11
42	2
43	3
44	4
45	29
50	13
51	22
52	5
53	4
55	18
56	2
59	1
61	2
62	10
63	34
64	9
65	114
66	7
72	1
73	6
74	4
75	8
76	5
77	11
78	2
79	2
80	1
82	1
85	1
86	2
87	2
88	1
89	43
90	24
91	329
92	27
93	2
101	2
102	3
103	6
104	3
105	4
106	1
111	7
113	2
115	9
116	2
117	5
118	7
119	999
120	91
121	7
127	1
128	2
129	2
131	7
132	1
133	4
135	1
136	1
138	1
139	23
140	1
141	7
145	2
146	1
147	5
148	2
157	2
159	1
174	6
175	8
176	1
192	51
193	6
