Mass Spectrum: 1-(1-Azacyclopropyl)decane
Formula: C12H25N
CAS: 46237-34-7
Molecular weight: 183
m/z	intensity
41	549
42	405
43	676
44	429
45	32
46	16
47	1
49	1
51	5
53	28
54	38
55	280
56	999
57	678
58	273
59	19
64	1
65	5
67	23
68	22
69	79
70	282
71	457
72	36
73	6
77	4
79	5
81	10
82	25
83	29
84	647
85	118
86	9
92	15
94	7
95	4
96	12
97	11
98	257
99	37
100	5
102	5
106	3
110	4
112	283
113	29
126	145
127	15
136	7
138	1
140	112
141	11
154	70
155	8
167	2
168	33
169	3
182	43
183	48
184	7
