Mass Spectrum: 1H-Imidazole, 1-(phenylsulfonyl)-
Formula: C9H8N2O2S
CAS: 46248-01-5
Molecular weight: 208
m/z	intensity
41	30
42	0
45	30
47	1
48	13
49	26
50	81
51	262
52	16
53	4
63	11
64	9
65	11
66	8
67	14
68	17
69	7
73	0
74	21
75	16
76	2
77	999
78	67
81	0
82	9
89	17
90	17
97	8
125	6
141	205
142	15
143	11
207	0
208	210
209	25
210	11
