Mass Spectrum: Ribofuranose, 1,5-anhydro-2,3-O-isopropylidene-, d-
Formula: C8H12O4
CAS: 4625-13-2
Molecular weight: 172
m/z	intensity
25	1
26	20
27	124
28	24
29	186
30	20
31	204
33	2
34	2
36	6
37	6
38	9
39	175
40	71
41	201
42	91
43	999
44	133
45	32
46	2
47	10
48	1
50	2
51	2
52	2
53	8
54	23
55	136
56	45
57	446
58	102
59	627
60	46
61	14
62	1
63	3
64	2
65	2
66	1
67	10
68	632
69	453
70	30
71	183
72	32
73	43
74	5
75	2
76	1
77	2
78	2
79	3
80	1
81	3
82	2
83	14
84	18
85	250
86	81
87	6
88	2
89	2
91	3
93	1
94	1
95	13
96	2
97	19
98	2
99	5
100	8
101	16
102	1
103	1
104	1
105	2
106	2
107	3
109	2
111	12
112	3
113	35
114	141
115	16
116	3
121	2
122	2
126	38
127	5
128	3
129	7
157	139
158	12
159	1
