Mass Spectrum: 4-Piperidinone, 1,3-dimethyl-
Formula: C7H13NO
CAS: 4629-80-5
Molecular weight: 127
m/z	intensity
15	90
17	47
18	239
27	99
28	143
29	30
30	22
39	61
41	107
42	460
43	999
44	161
54	27
55	73
56	50
57	200
58	36
70	391
71	257
72	13
83	22
84	214
85	65
98	24
110	18
112	13
126	257
127	669
128	53
129	2
