Mass Spectrum: Decan-1-one, 1-(2,6-dimethyl-1-piperidyl)-
Formula: C17H33NO
CAS: 4629-19-0
Molecular weight: 267
m/z	intensity
39	8
41	227
43	302
44	31
55	275
56	53
57	102
58	24
68	8
69	163
70	163
71	53
72	11
77	4
81	26
82	14
83	21
84	41
85	4
86	4
96	57
98	999
99	67
111	72
112	193
113	49
114	38
126	51
128	6
140	337
141	28
152	9
155	873
156	78
168	496
169	46
172	150
182	43
196	26
210	70
224	142
238	40
252	365
253	43
266	104
267	913
268	145
