Mass Spectrum: 1-Fluorooctane
Formula: C8H17F
CAS: 463-11-6
Molecular weight: 132
m/z	intensity
26	19
27	216
28	13
29	434
30	9
31	0
33	24
34	0
36	2
37	1
38	4
39	111
40	60
41	693
42	296
43	999
44	36
45	3
46	9
47	96
48	2
49	0
50	2
51	7
52	2
53	24
54	19
55	507
56	385
57	512
58	20
59	41
60	10
61	145
62	4
63	0
64	0
65	2
66	1
67	22
68	26
69	248
70	441
71	205
72	9
73	12
74	22
75	23
76	1
77	1
78	0
79	1
81	2
82	28
83	238
84	117
85	21
86	1
87	1
88	13
89	9
91	0
93	1
95	0
96	0
97	19
98	1
99	0
102	7
103	4
104	0
112	4
113	0
130	0
132	1
