Mass Spectrum: .gamma.-Guanidinobutyric acid
Formula: C5H11N3O2
CAS: 463-00-3
Molecular weight: 145
m/z	intensity
41	287
42	448
43	315
44	999
45	195
46	44
47	7
49	36
50	7
51	27
52	32
53	46
54	61
55	301
56	497
57	200
58	41
59	37
60	260
61	14
62	6
63	7
64	7
65	17
67	8
68	42
69	152
70	42
71	23
72	9
73	245
74	98
75	7
77	26
78	9
80	6
81	18
82	38
83	125
84	257
85	374
86	102
87	46
88	14
91	37
92	6
95	18
97	7
98	22
99	107
100	25
101	76
102	11
105	6
107	19
108	15
109	11
110	39
111	23
112	32
113	6
114	6
127	57
128	195
129	15
145	6
