Mass Spectrum: Allene
Formula: C3H4
CAS: 463-49-0
Molecular weight: 40
m/z	intensity
12	41
13	34
14	40
15	3
19	31
20	38
24	27
25	46
26	48
27	7
36	94
37	326
38	405
39	962
40	999
41	33
42	1
