Mass Spectrum: Cyclohexanol, 4-(1,1,3,3-tetramethylbutyl)-
Formula: C14H28O
CAS: 4631-98-5
Molecular weight: 212
m/z	intensity
18	4
27	18
28	15
29	54
31	5
32	3
39	20
40	4
41	125
42	8
43	65
44	8
53	15
54	15
55	72
56	64
57	999
58	43
59	3
65	5
66	3
67	165
68	14
69	44
70	13
71	16
75	4
77	8
78	4
79	21
80	32
81	159
82	65
83	64
84	8
85	3
91	15
93	7
94	6
95	29
96	5
97	40
98	12
99	44
100	4
101	16
107	13
109	11
112	126
113	100
114	8
118	4
119	53
120	6
121	3
122	33
123	407
124	42
125	12
135	44
136	5
137	4
139	5
140	4
141	22
179	4
