Mass Spectrum: Cyclohexanol, 2-(1-methylpropyl)-
Formula: C10H20O
CAS: 4632-01-3
Molecular weight: 156
m/z	intensity
15	5
18	8
26	4
27	98
28	48
29	201
30	7
31	32
32	9
38	3
39	93
40	15
41	324
42	48
43	200
44	62
45	32
50	4
51	11
52	6
53	60
54	68
55	424
56	122
57	475
58	35
59	34
63	3
65	15
66	28
67	437
68	151
69	170
70	340
71	193
72	17
73	10
77	18
78	4
79	51
80	35
81	506
82	494
83	265
84	47
85	81
86	8
87	3
91	9
92	3
93	10
94	6
95	111
96	193
97	57
98	89
99	40
100	6
107	9
108	19
109	999
110	163
111	21
112	4
113	7
121	4
123	78
124	10
125	15
126	2
127	86
128	9
137	6
138	242
139	34
140	2
141	3
154	5
