Mass Spectrum: 2-Chloro-2-phenylethylamine
Formula: C8H10ClN
CAS: 4633-92-5
Molecular weight: 155
m/z	intensity
28	74
30	999
35	49
36	69
38	31
39	79
42	23
50	44
51	74
52	20
62	27
63	79
64	20
65	50
74	14
75	17
76	12
77	60
78	28
89	90
90	34
91	104
92	14
99	20
102	14
103	50
104	36
117	21
118	41
119	23
120	70
125	48
127	17
155	6
