Mass Spectrum: Piperidine, 1-(1-oxobutyl)-
Formula: C9H17NO
CAS: 4637-70-1
Molecular weight: 155
m/z	intensity
29	51
30	113
31	6
35	1
36	1
37	1
38	6
39	189
40	43
41	651
42	370
43	845
44	273
45	12
49	1
51	3
52	5
53	40
54	71
55	225
56	411
57	261
58	30
59	7
60	74
61	1
63	1
65	8
66	3
67	42
68	65
69	311
70	274
71	184
72	33
73	23
75	4
77	2
78	4
79	2
80	11
81	7
82	48
83	47
84	999
85	254
86	80
87	7
88	22
91	3
93	1
94	2
95	1
96	5
97	6
98	36
99	40
100	8
103	2
105	4
109	2
110	3
111	3
112	302
113	36
114	3
117	1
119	1
124	4
125	3
126	170
127	316
128	23
129	2
131	1
133	1
137	5
138	2
139	2
140	351
141	27
142	1
149	5
153	3
154	20
155	236
156	23
157	1
