Mass Spectrum: Pyrrolidine, 1-(1-oxo-9-octadecenyl)-, (Z)-
Formula: C22H41NO
CAS: 4637-54-1
Molecular weight: 335
m/z	intensity
41	271
42	90
43	331
44	52
45	7
50	10
51	10
52	10
53	27
54	52
55	439
56	97
57	268
58	76
59	10
60	31
65	7
66	7
67	90
68	34
69	146
70	292
71	177
72	257
73	24
74	10
75	24
76	7
77	24
78	10
79	24
80	10
81	62
82	20
83	59
84	27
85	108
86	7
87	7
89	7
91	20
92	10
93	20
94	7
95	41
96	24
97	38
98	216
99	27
100	7
103	7
105	10
107	10
108	7
109	20
110	3
111	20
112	27
113	999
114	90
115	7
117	10
119	10
121	7
122	7
123	7
124	7
125	7
126	599
127	132
128	20
129	10
130	7
137	10
138	10
139	10
140	90
141	27
142	10
143	10
144	10
149	20
151	10
152	10
153	10
154	31
155	7
159	7
160	10
168	48
169	13
180	7
182	97
183	20
194	7
196	24
197	7
200	7
208	24
209	10
210	7
216	7
222	20
223	10
224	7
236	90
237	20
250	66
251	20
264	27
265	7
278	20
292	20
306	7
320	10
334	17
335	271
336	62
