Mass Spectrum: 5-Chlorosalicylanilide
Formula: C13H10ClNO2
CAS: 4638-48-6
Molecular weight: 247
m/z	intensity
26	1
27	3
28	7
29	1
36	2
37	3
38	8
39	33
40	4
41	2
49	2
50	6
51	15
52	5
53	12
54	1
61	2
62	7
63	33
64	11
65	40
66	30
67	3
72	1
73	19
74	3
75	7
76	2
77	18
78	3
90	2
91	5
92	19
93	999
94	69
95	2
97	1
98	5
99	56
100	5
101	18
102	1
119	1
120	4
121	29
122	2
123	3
124	1
125	1
126	10
127	95
128	10
129	31
130	2
139	1
153	1
154	8
155	144
156	12
157	48
158	3
166	1
168	1
182	1
183	1
186	1
201	1
211	3
212	1
229	3
231	1
246	2
247	152
248	24
249	52
250	7
