Mass Spectrum: Cyclopropanecarboxylic acid, 2,2-dimethyl-3-(2-methyl-1-propenyl)-, (1R-trans)-
Formula: C10H16O2
CAS: 4638-92-0
Molecular weight: 168
m/z	intensity
27	55
29	48
38	9
39	177
40	34
41	312
42	28
44	10
45	70
46	4
50	15
51	49
52	26
53	133
54	19
55	167
56	34
57	19
60	10
62	7
63	21
64	5
65	86
66	30
67	501
68	74
69	155
75	4
76	4
77	142
78	25
79	215
80	28
81	260
82	24
83	32
84	21
85	9
87	5
91	228
92	28
93	341
94	48
95	44
103	10
105	66
106	9
107	474
108	114
109	999
110	85
111	139
112	34
113	9
123	30
124	7
125	17
135	11
137	12
153	18
168	468
169	52
170	5
