Mass Spectrum: Cyclopentanecarboxylic acid, 1,2,2,3-tetramethyl-
Formula: C10H18O2
CAS: 464-88-0
Molecular weight: 170
m/z	intensity
26	23
27	125
28	96
29	104
30	2
31	7
32	1
37	2
38	4
39	128
40	25
41	343
42	43
43	94
44	10
45	30
46	2
47	0
49	1
50	6
51	16
52	8
53	65
54	16
55	201
56	61
57	25
58	3
59	49
60	2
61	1
62	1
63	4
64	0
65	16
66	6
67	67
68	25
69	741
70	80
71	19
72	1
73	4
74	10
75	1
77	18
78	4
79	18
80	3
81	38
82	19
83	54
84	999
85	66
86	3
87	149
88	9
89	1
91	12
92	1
93	6
94	3
95	21
96	89
97	83
98	7
99	25
100	28
101	12
102	1
105	1
107	3
108	1
109	91
110	12
111	2
112	1
113	31
114	32
115	10
116	4
121	1
123	5
124	8
125	7
126	0
127	17
128	5
136	2
137	4
152	18
153	2
155	8
170	82
171	11
172	0
