Mass Spectrum: 2-Pyrrolidinone, 1-phenyl-
Formula: C10H11NO
CAS: 4641-57-0
Molecular weight: 161
m/z	intensity
26	3
27	22
28	3
30	5
33	0
34	1
37	4
38	13
39	60
40	8
41	11
45	0
49	0
50	19
51	72
52	15
58	0
61	1
62	3
63	15
64	17
65	13
73	0
74	5
75	5
76	8
77	160
78	21
79	40
85	0
88	0
89	1
90	4
91	29
92	3
98	0
102	1
103	2
104	46
105	18
106	999
107	63
112	0
115	2
116	1
117	7
118	4
119	20
125	0
126	0
130	6
131	1
132	16
133	15
134	1
143	0
160	18
161	387
162	44
163	1
