Mass Spectrum: .delta.2,.alpha.-Pyrrolidineacetonitrile, 5-(2-ethoxy-1-pyrrolin-5-yl)-
Formula: C12H17N3O
CAS: 4641-50-3
Molecular weight: 219
m/z	intensity
26	11
27	73
28	140
29	85
30	22
31	4
35	2
36	1
37	1
38	4
39	43
40	20
41	149
42	28
43	21
44	10
45	6
50	2
51	14
52	27
53	45
54	56
55	41
56	68
57	14
58	2
59	2
60	5
61	5
62	12
63	21
64	23
65	23
66	23
67	37
68	14
69	8
70	2
71	1
72	0
73	0
74	0
75	1
76	2
77	5
78	18
79	14
80	54
81	15
82	11
83	8
84	999
85	68
86	5
87	1
88	1
89	0
90	2
91	3
92	9
93	5
94	4
95	3
96	2
97	2
98	1
104	2
105	26
106	15
107	229
108	38
111	3
112	312
113	202
114	20
115	4
218	3
219	141
220	21
