Mass Spectrum: Spiro[androstane-3,2'-thiazolidine], (5.alpha.)-
Formula: C21H35NS
CAS: 4642-50-6
Molecular weight: 333
m/z	intensity
55	999
56	250
57	460
58	100
59	160
60	270
61	270
62	50
63	40
64	30
65	150
66	90
67	610
68	200
69	950
70	550
71	260
72	30
73	170
74	40
75	30
76	40
77	270
78	70
79	400
80	160
81	650
82	330
83	330
84	100
85	150
86	50
87	50
88	50
89	40
90	20
91	360
92	90
93	340
94	160
95	600
96	340
97	250
98	60
99	170
100	80
101	130
102	60
103	50
104	40
105	250
106	70
107	250
108	200
109	270
110	150
111	150
112	70
113	80
114	460
115	110
116	50
117	80
118	50
119	150
120	100
121	170
122	200
123	190
124	70
125	80
126	50
127	140
128	80
129	320
130	120
131	120
132	50
133	110
134	50
135	160
136	90
137	90
138	50
139	50
140	130
141	80
142	60
143	70
144	60
145	100
146	60
147	110
148	70
149	210
150	50
151	50
152	50
153	50
154	50
155	70
156	50
157	50
158	40
159	70
160	50
161	70
162	50
163	80
164	40
165	70
166	40
167	40
168	50
169	90
170	50
171	50
173	50
174	40
175	50
176	40
177	50
178	40
179	50
180	40
181	40
182	50
183	70
184	30
185	50
186	30
187	70
188	50
189	100
190	60
191	30
192	20
193	20
194	20
195	30
196	70
197	30
198	10
199	30
200	20
201	40
202	130
203	110
204	40
205	20
206	10
207	20
208	30
209	20
210	20
211	20
212	20
213	30
214	30
215	30
216	90
217	40
218	20
219	30
220	20
221	10
222	20
223	20
224	20
225	10
227	20
228	20
229	10
230	70
231	50
232	30
234	20
235	20
236	20
237	10
241	30
242	20
244	110
245	40
246	20
255	50
256	40
257	50
258	270
259	70
260	20
272	50
273	260
274	130
276	40
286	340
287	80
299	70
300	70
301	20
304	130
305	30
318	70
331	120
332	480
333	110
334	30
