Mass Spectrum: Acetamide, N-[(3.beta.,5.alpha.)-androstan-3-yl]-
Formula: C21H35NO
CAS: 4642-61-9
Molecular weight: 317
m/z	intensity
41	90
42	20
43	90
44	20
53	30
54	10
55	120
56	70
57	30
58	30
60	999
61	60
65	10
67	130
68	30
69	70
70	30
73	10
77	30
78	10
79	100
80	30
81	150
82	40
83	30
91	50
92	10
93	110
94	50
95	180
96	20
97	10
99	20
105	40
106	20
107	100
108	180
109	70
110	10
111	10
117	10
119	20
120	20
121	60
122	30
123	20
131	10
133	40
134	20
135	50
136	10
137	10
147	40
148	60
149	70
150	10
161	40
162	30
163	30
175	50
176	20
187	10
188	10
189	100
190	30
201	20
202	20
203	10
204	100
205	10
215	10
216	10
217	20
229	10
243	170
244	30
258	150
259	30
273	10
302	20
317	250
318	100
