Mass Spectrum: o-Benzyl-l-serine methyl ester
Formula: C11H15NO3
CAS: 46460-82-6
Molecular weight: 209
m/z	intensity
15	16
26	1
27	6
28	21
29	6
30	13
31	7
39	25
40	5
41	19
42	95
43	49
44	35
45	6
50	8
51	26
52	7
53	5
54	1
55	8
56	3
57	5
58	5
59	7
60	20
61	1
62	3
63	15
64	4
65	93
66	5
69	1
70	9
71	9
72	1
73	2
74	3
75	20
76	2
77	42
78	9
79	59
80	5
85	1
86	1
87	46
88	999
89	64
90	22
91	996
92	108
93	5
101	36
102	9
103	457
104	24
105	13
106	4
107	49
108	62
109	5
117	1
118	10
119	4
120	185
121	18
122	1
132	1
150	210
151	21
152	2
165	1
167	2
168	1
178	1
179	3
209	2
210	5
