Mass Spectrum: 4-Amino-3,5-cyclohexadien-1,2-dione, N-benzoyl-
Formula: C13H9NO3
CAS: 4648-86-6
Molecular weight: 227
m/z	intensity
41	28
42	16
43	33
44	33
45	16
49	11
50	67
51	169
52	33
53	32
54	8
55	29
56	9
57	16
62	5
63	9
65	7
66	7
67	15
68	25
69	31
70	8
71	10
73	7
74	16
75	15
76	33
77	506
78	51
79	14
80	17
81	8
82	9
83	11
84	7
85	5
91	2
95	11
96	14
97	21
103	11
104	38
105	999
106	77
107	7
109	2
111	8
114	12
121	40
122	41
123	8
124	16
125	11
126	10
128	2
153	12
190	18
191	26
226	10
227	180
228	26
229	5
