Mass Spectrum: Resibufogenin
Formula: C24H32O4
CAS: 465-39-4
Molecular weight: 384
m/z	intensity
27	47
29	118
31	12
39	103
40	37
41	469
42	30
43	267
45	13
50	13
51	46
52	29
53	226
54	35
55	632
56	37
57	131
63	7
65	192
66	139
67	493
68	74
69	170
70	17
71	24
77	470
78	144
79	754
80	118
81	509
82	68
83	92
84	10
85	13
89	4
90	10
91	713
92	124
93	505
94	190
95	549
96	67
97	86
98	7
99	9
102	5
103	59
104	35
105	560
106	247
107	999
108	255
109	348
110	86
111	45
112	4
115	109
116	34
117	166
118	79
119	332
120	115
121	369
122	135
123	201
124	66
125	56
126	21
127	29
128	105
129	125
130	64
131	264
132	78
133	307
134	457
135	404
136	134
137	53
138	47
139	20
140	20
141	49
142	47
143	90
144	54
145	287
146	109
147	323
148	153
149	193
150	27
151	42
152	55
153	37
154	20
155	41
156	32
157	94
158	70
159	236
160	292
161	456
162	118
163	68
164	26
165	34
166	16
167	22
168	11
169	50
170	28
171	70
172	47
173	138
174	65
175	69
176	39
177	52
178	49
179	25
180	6
181	38
182	8
183	48
184	29
185	57
186	60
187	102
188	42
189	40
190	29
191	41
192	12
193	19
194	8
195	23
196	9
197	58
198	25
199	83
200	42
201	69
202	25
203	62
204	167
205	68
206	7
209	24
210	8
211	55
212	28
213	148
214	63
215	480
216	134
217	110
218	24
219	15
222	5
223	15
224	7
225	25
226	19
227	60
228	56
229	96
230	29
231	24
232	12
233	346
234	54
235	13
237	11
239	17
240	25
241	49
242	15
243	37
244	21
245	28
246	9
247	6
249	10
250	30
251	12
252	6
253	14
254	16
255	20
256	14
257	21
258	16
259	16
261	14
262	6
265	7
267	7
270	4
271	11
273	4
283	10
293	10
311	7
320	8
321	17
323	21
324	9
333	7
337	7
338	32
340	4
348	7
351	59
352	11
366	147
367	38
368	9
369	10
384	16
