Mass Spectrum: 2-Chlorobenzoic acid, 2-tetrahydrofurylmethyl ester
Formula: C12H13ClO3
CAS: 4650-88-8
Molecular weight: 240
m/z	intensity
26	10
27	48
28	5
29	35
30	4
39	36
40	10
41	84
42	45
43	257
44	13
50	51
51	36
52	10
53	8
54	10
55	23
56	24
57	12
58	3
59	3
60	3
61	3
62	3
63	7
64	8
65	6
66	2
68	2
69	13
70	53
71	999
72	49
73	7
74	22
75	91
76	35
77	29
78	4
79	14
81	4
82	3
83	10
84	265
85	28
86	6
87	3
89	2
91	23
92	3
96	3
98	4
99	3
101	4
104	9
105	12
107	3
109	2
110	4
111	99
112	8
113	34
114	3
117	2
118	8
119	8
122	5
125	2
130	4
131	2
134	2
135	14
136	5
138	2
139	252
140	18
141	70
142	5
147	3
152	4
156	34
157	34
158	13
159	11
161	3
