Mass Spectrum: 4-Chlorobenzoic acid, 2-tetrahydrofurylmethyl ester
Formula: C12H13ClO3
CAS: 4650-87-7
Molecular weight: 240
m/z	intensity
26	10
27	48
28	10
29	26
30	7
31	7
36	11
37	4
38	7
39	40
40	10
41	123
42	40
43	511
44	16
49	4
50	5
51	28
52	4
53	14
54	23
55	31
56	20
57	6
61	5
63	3
65	4
67	5
69	14
70	49
71	999
72	122
73	9
74	33
75	192
76	54
77	22
78	3
81	7
82	12
83	22
84	813
85	45
87	7
91	6
103	6
104	12
105	7
110	12
111	466
112	46
113	131
114	14
125	4
135	11
137	4
138	4
139	809
140	63
141	295
142	20
154	10
156	41
157	13
158	14
159	4
168	3
169	17
170	6
171	8
