Mass Spectrum: Stigmasta-7,22-dien-3-ol, acetate, (3.beta.,5.alpha.,22E)-
Formula: C31H50O2
CAS: 4651-46-1
Molecular weight: 454
m/z	intensity
27	51
29	133
41	421
42	63
43	866
53	51
55	999
56	177
57	962
67	326
68	90
69	701
70	165
71	606
77	63
79	252
80	63
81	919
82	190
83	788
84	133
85	416
91	263
92	55
93	309
94	122
95	496
96	185
97	459
98	86
99	137
105	346
106	69
107	390
108	80
109	307
110	110
111	228
112	57
113	98
117	91
119	223
120	78
121	189
122	70
123	220
124	70
125	130
127	82
129	57
131	152
132	53
133	220
134	68
135	173
137	161
138	50
139	110
141	63
143	78
145	197
146	65
147	250
148	52
149	110
151	89
155	53
157	70
159	165
161	165
163	65
165	63
167	31
171	52
173	90
175	76
181	23
185	55
187	86
199	70
201	86
206	13
213	181
215	70
227	69
228	107
229	206
241	81
253	100
255	490
256	110
273	89
288	171
300	35
313	874
314	257
315	203
341	58
342	153
343	55
351	90
411	123
439	145
454	324
455	111
