Mass Spectrum: 3-(2-Thenoyl)-propionic acid
Formula: C8H8O3S
CAS: 4653-08-1
Molecular weight: 184
m/z	intensity
26	2
27	11
29	6
31	1
37	3
38	8
39	104
40	3
41	1
42	3
43	3
44	2
45	54
46	1
47	1
49	2
50	7
51	6
52	1
53	14
54	1
55	34
56	4
57	34
58	14
59	3
60	1
61	2
62	2
63	3
65	3
66	2
67	1
69	7
70	1
71	1
72	1
73	9
74	1
77	4
78	1
79	1
81	12
82	16
83	71
84	11
85	6
86	1
93	1
95	1
97	3
101	3
109	3
111	999
112	67
113	51
114	3
121	1
129	3
137	1
138	1
139	6
140	32
141	3
142	1
156	1
166	5
167	8
168	1
184	75
185	7
186	4
