Mass Spectrum: Proscillaridin
Formula: C30H42O8
CAS: 466-06-8
Molecular weight: 530
m/z	intensity
41	590
42	303
43	999
44	676
45	544
46	85
47	50
51	51
52	52
53	247
54	122
55	622
56	179
57	463
58	325
59	163
60	904
61	129
65	141
66	114
67	279
68	79
69	412
70	84
71	554
72	104
73	676
74	92
75	64
77	336
78	107
79	479
80	110
81	445
82	115
83	128
84	59
85	176
87	168
89	32
91	737
92	128
93	305
94	168
95	227
96	57
97	188
98	62
99	85
100	179
101	54
102	93
103	93
104	86
105	580
106	161
107	328
108	98
109	179
110	85
111	89
115	177
116	78
117	257
118	113
119	232
120	106
121	198
122	127
123	213
124	105
125	59
126	311
127	81
128	152
129	243
130	81
131	310
132	78
133	173
134	80
135	129
136	56
137	101
138	41
141	117
142	111
143	237
144	220
145	594
146	146
147	239
148	91
149	125
150	37
151	27
152	17
153	42
155	85
156	56
157	175
158	237
159	206
160	87
161	166
162	59
163	146
164	45
165	58
167	35
169	76
170	33
171	100
172	63
173	101
174	62
175	121
176	59
177	63
178	50
179	48
181	55
183	87
184	21
185	78
186	29
187	68
188	50
189	59
191	55
193	56
195	59
197	74
198	41
199	90
200	39
201	100
202	31
203	49
205	41
207	65
209	57
210	20
211	115
212	57
213	81
214	29
215	65
217	71
219	149
221	44
223	38
225	51
226	53
227	93
228	120
229	131
230	52
231	58
235	25
237	43
239	46
241	23
242	17
243	71
244	42
245	65
246	68
247	41
251	27
253	63
254	31
255	35
257	18
261	36
264	58
269	42
271	19
283	24
284	18
287	63
297	26
298	18
299	21
305	21
311	17
314	18
315	41
320	20
321	89
322	63
323	217
324	90
325	61
326	38
333	71
334	36
335	46
336	140
337	95
338	117
339	158
340	81
341	51
342	28
348	186
349	136
350	75
351	193
352	191
353	127
354	235
355	100
356	66
364	146
365	58
366	612
367	245
368	151
369	81
370	151
371	57
372	63
380	58
382	294
383	130
384	196
385	57
386	32
398	58
409	43
530	10
