Mass Spectrum: Cyclopropane, 1-propenyl-
Formula: C6H10
CAS: 4663-21-2
Molecular weight: 82
m/z	intensity
26	36
27	290
28	144
29	106
37	19
38	43
39	638
40	56
41	622
42	72
43	10
45	1
50	40
51	66
52	22
53	145
54	999
55	156
56	18
63	5
65	36
66	8
67	545
68	22
77	14
79	23
81	32
82	5
