Mass Spectrum: Acetic acid, phenoxy-, hydrazide
Formula: C8H10N2O2
CAS: 4664-55-5
Molecular weight: 166
m/z	intensity
13	2
14	11
15	18
16	4
17	1
18	3
26	7
27	28
28	27
29	36
30	27
31	160
32	141
33	13
36	1
37	10
38	34
39	132
40	20
41	8
42	37
43	77
44	39
45	692
46	12
49	4
50	67
51	242
52	24
53	7
54	1
55	21
56	2
57	1
58	1
59	3
61	4
62	12
63	31
64	14
65	99
66	54
67	5
68	1
71	1
72	3
73	190
74	19
75	13
76	21
77	863
78	84
79	174
80	13
81	1
83	1
90	1
91	2
92	4
93	14
94	999
95	195
96	12
97	1
104	1
105	14
106	3
107	234
108	24
109	2
120	4
121	16
122	2
123	1
133	2
134	50
135	10
136	1
137	1
147	1
149	1
151	1
166	243
167	27
168	1
