Mass Spectrum: 2(1H)-Naphthalenone, 3,4,4a,5,6,7-hexahydro-1,1,4a-trimethyl-
Formula: C13H20O
CAS: 4668-61-5
Molecular weight: 192
m/z	intensity
39	416
40	95
41	999
42	95
43	261
50	35
51	130
52	71
53	315
54	59
55	386
56	23
57	107
65	202
66	71
67	464
68	35
69	250
73	214
75	119
77	404
78	95
79	488
80	95
81	297
82	83
83	83
91	446
92	83
93	809
94	178
95	309
96	71
103	53
104	29
105	261
106	107
107	535
108	172
109	83
110	166
117	83
119	119
120	47
121	476
122	119
123	119
124	35
129	47
131	59
133	71
134	35
135	380
136	357
137	476
138	71
147	71
149	535
150	154
151	35
159	59
163	59
164	59
177	595
191	47
192	857
193	130
