Mass Spectrum: Tricyclo[4.4.1.1(2,5)]dodeca-7,9-dien-11-one, (1.alpha.,2.beta.,5.beta.,6.alpha.)-
Formula: C12H14O
CAS: 4668-71-7
Molecular weight: 174
m/z	intensity
26	11
27	89
28	12
29	16
31	5
37	4
38	15
39	187
40	39
41	125
42	18
43	13
44	2
45	4
46	1
49	1
50	34
51	102
52	56
53	85
54	8
55	19
56	4
57	7
58	26
59	5
60	1
61	2
62	12
65	95
66	68
67	257
68	170
69	12
70	3
71	4
72	4
73	7
74	8
75	10
76	10
77	181
78	206
79	231
80	544
81	128
82	11
84	1
85	1
86	3
87	4
88	1
89	21
90	14
91	192
92	168
93	22
94	76
95	32
96	14
97	2
98	0
99	1
101	2
102	11
103	42
104	95
105	143
106	20
107	999
108	165
110	13
111	1
113	2
115	71
116	28
117	170
118	57
119	14
120	140
121	13
122	2
126	1
127	9
128	20
129	17
130	14
131	68
132	17
133	28
134	3
135	1
139	1
141	7
142	2
143	3
144	3
145	40
146	24
147	6
148	2
149	2
152	1
153	1
155	3
156	2
157	3
158	1
159	16
160	2
161	0
173	15
174	422
175	54
176	13
177	1
