Mass Spectrum: Ethanol, 2-((2-chloroethyl)ethylamino)-
Formula: C6H14ClNO
CAS: 4669-20-9
Molecular weight: 151
m/z	intensity
42	204
43	331
45	594
47	165
49	331
51	104
58	107
59	138
61	96
63	37
72	83
73	999
74	131
75	782
93	342
95	375
97	93
105	35
117	63
120	20
123	33
125	9
151	578
152	55
153	184
154	12
