Mass Spectrum: (E)-3,7-Dimethylocta-2,6-dien-1-yl icosanoate
Formula: C30H56O2
CAS: 467252-74-0
Molecular weight: 448
m/z	intensity
26	2
27	18
29	22
31	1
38	2
39	39
40	14
41	332
42	31
43	254
44	14
50	2
51	9
52	6
53	48
55	74
56	16
57	208
58	9
59	4
60	6
61	2
62	1
63	3
64	1
65	15
66	7
67	125
68	464
69	999
70	74
71	117
72	9
73	14
74	1
76	2
77	31
78	10
79	47
80	510
81	157
83	15
84	16
86	1
87	3
90	1
91	34
92	211
93	663
94	138
95	55
97	6
98	8
99	9
102	1
103	4
104	72
105	77
106	9
107	96
108	32
109	8
111	9
112	2
113	4
115	5
118	1
119	9
120	3
121	404
122	41
123	54
129	2
134	2
135	8
136	338
137	70
139	7
141	2
153	3
154	40
155	4
160	1
164	2
165	5
171	2
185	2
189	1
190	1
205	3
211	1
228	7
295	17
296	3
379	6
380	1
