Mass Spectrum: Diethyl methylsuccinate
Formula: C9H16O4
CAS: 4676-51-1
Molecular weight: 188
m/z	intensity
25	1
27	257
28	40
29	999
30	27
31	50
35	1
37	1
38	4
39	84
40	32
41	253
42	311
43	404
44	18
45	291
46	8
47	8
53	4
54	2
55	53
56	21
57	8
58	5
59	16
60	41
61	20
66	3
67	3
68	8
69	136
70	54
71	79
72	5
73	327
74	18
75	3
85	11
86	63
87	325
88	141
89	22
90	1
93	12
94	1
96	3
98	3
99	15
100	2
101	146
102	9
103	1
108	1
113	21
114	162
115	699
116	123
117	11
127	1
129	3
142	244
143	761
144	63
145	7
161	4
188	9
189	1
