Mass Spectrum: Drim-7-en-11-ol
Formula: C15H26O
CAS: 468-68-8
Molecular weight: 222
m/z	intensity
27	9
28	1
29	20
30	1
31	17
38	1
39	33
40	6
41	129
42	10
43	59
44	3
45	1
50	1
51	10
52	5
53	45
54	6
55	125
56	21
57	19
58	2
59	1
63	4
64	2
65	32
66	8
67	77
68	20
69	178
70	35
71	12
72	1
75	1
76	1
77	78
78	17
79	95
80	36
81	143
82	35
83	58
84	16
85	8
86	1
89	2
90	1
91	141
92	26
93	104
94	22
95	130
96	29
97	54
98	65
99	6
102	2
103	13
104	6
105	109
106	29
107	113
108	29
109	999
110	91
111	17
112	2
115	16
116	6
117	20
118	5
119	84
120	23
121	84
122	32
123	98
124	434
125	58
126	6
127	3
128	8
129	7
130	3
131	10
132	3
133	35
134	11
135	45
136	26
137	16
138	15
139	6
140	5
141	3
142	1
143	2
144	1
145	6
146	2
147	13
148	6
149	20
150	6
151	4
152	6
153	2
154	1
157	1
161	16
162	3
163	8
164	2
165	1
166	3
167	1
173	1
176	3
177	11
178	4
179	4
180	1
189	24
190	5
191	66
192	11
193	2
203	1
204	13
205	3
207	12
208	2
222	94
223	16
224	1
