Mass Spectrum: 1,3-Cyclopentanedione, 4,4-dimethyl-
Formula: C7H10O2
CAS: 4683-51-6
Molecular weight: 126
m/z	intensity
41	550
42	120
43	90
55	110
56	999
69	100
70	50
71	10
84	30
97	5
112	10
126	300
127	20
