Mass Spectrum: 2-Pyridinecarboxylic acid, 6-chloro-
Formula: C6H4ClNO2
CAS: 4684-94-0
Molecular weight: 157
m/z	intensity
44	156
49	47
50	156
51	249
52	86
75	39
76	117
77	39
78	921
79	47
112	70
113	999
114	78
115	288
157	23
