Mass Spectrum: 3H-Indole, 2,3-dimethyl-3-(phenylmethyl)-
Formula: C17H17N
CAS: 46854-91-5
Molecular weight: 235
m/z	intensity
77	110
91	999
102	40
103	40
115	50
128	30
130	30
143	70
144	200
145	50
158	30
178	40
220	20
234	30
235	700
