Mass Spectrum: Diethyl 2,3-dibenzoylsuccinate
Formula: C22H22O6
CAS: 4687-38-1
Molecular weight: 382
m/z	intensity
15	1
26	1
27	7
28	7
29	11
30	1
31	14
39	1
41	1
43	3
44	4
45	9
46	5
50	3
51	21
52	1
53	2
54	1
55	2
57	3
69	2
71	2
74	1
75	1
76	5
77	190
78	13
79	1
81	1
82	1
83	1
85	1
91	1
95	1
97	2
99	3
102	1
103	3
104	3
105	999
106	78
107	5
109	1
111	1
115	1
121	1
127	1
130	1
131	4
132	1
135	1
149	3
157	1
159	4
160	1
186	1
187	1
188	1
190	1
191	1
192	1
203	8
204	1
205	2
210	6
211	1
231	14
232	6
233	1
235	1
247	1
260	179
261	30
262	4
263	6
264	2
277	6
278	1
289	2
290	6
291	46
292	9
293	2
308	1
309	2
319	1
336	1
337	9
338	2
364	8
365	3
382	1
