Mass Spectrum: Propanoic acid, 2-mercapto-2-methyl-
Formula: C4H8O2S
CAS: 4695-31-2
Molecular weight: 120
m/z	intensity
27	95
39	320
41	712
42	83
43	110
45	241
47	156
53	16
57	28
58	78
59	516
60	30
61	27
69	44
73	21
74	118
75	999
76	58
77	53
86	25
87	108
92	25
102	50
120	314
121	20
122	17
