Mass Spectrum: 1-Butene, 4-methoxy
Formula: C5H10O
CAS: 4696-30-4
Molecular weight: 86
m/z	intensity
27	60
29	110
38	10
39	90
40	10
41	60
42	20
43	70
45	999
46	20
51	10
53	20
54	10
55	40
56	70
57	30
58	20
71	30
85	30
86	10
