Mass Spectrum: 4-Nitrobenzoic acid, 2-tetrahydrofurylmethyl ester
Formula: C12H13NO5
CAS: 4696-98-4
Molecular weight: 251
m/z	intensity
26	3
27	13
28	3
29	7
30	6
31	2
36	3
37	1
38	2
39	14
40	3
41	35
42	16
43	122
44	10
50	25
51	7
52	2
53	5
54	7
55	10
56	4
57	2
62	1
63	5
64	6
65	13
66	2
67	1
69	5
70	4
71	999
72	39
73	4
74	11
75	26
76	63
77	9
78	2
79	2
81	4
82	5
83	6
84	58
85	4
91	2
92	22
93	4
96	1
103	12
104	80
105	9
109	2
119	1
120	18
121	9
122	3
123	1
134	10
135	7
137	9
150	125
151	28
152	3
164	1
165	2
167	10
168	2
180	1
191	1
193	3
207	9
208	2
209	1
221	15
222	2
235	2
