Mass Spectrum: Bicyclo[5.2.1]decan-10-one
Formula: C10H16O
CAS: 4696-15-5
Molecular weight: 152
m/z	intensity
39	220
41	380
54	250
55	340
67	500
68	190
69	100
70	70
81	460
82	310
83	250
84	460
95	460
96	510
97	420
98	999
99	90
109	300
110	530
111	100
112	230
123	50
124	130
152	550
