Mass Spectrum: Dichloroacetic acid, 2-tetrahydrofurylmethyl ester
Formula: C7H10Cl2O3
CAS: 4697-00-1
Molecular weight: 212
m/z	intensity
27	29
28	8
29	36
31	6
36	17
38	6
39	28
40	7
41	91
42	45
43	157
44	7
48	10
53	8
54	20
55	34
57	29
67	32
69	5
71	999
72	41
76	18
78	6
79	7
83	55
84	31
85	35
87	6
93	6
111	12
113	10
