Mass Spectrum: 2,6-Octadienoic acid, 3,7-dimethyl-, (E)-
Formula: C10H16O2
CAS: 4698-08-2
Molecular weight: 168
m/z	intensity
26	1
27	35
28	7
29	23
30	1
31	2
37	1
38	5
39	105
40	17
41	469
42	23
43	42
44	3
45	16
46	1
50	6
51	19
52	9
53	71
54	14
55	25
56	6
57	6
58	2
59	5
60	2
62	2
63	5
64	1
65	19
66	8
67	57
68	20
69	999
70	53
71	4
72	1
74	1
77	21
78	5
79	22
80	3
81	19
82	63
83	11
85	18
86	1
91	17
93	8
96	3
97	5
98	2
99	1
100	136
101	8
102	1
105	6
106	1
107	14
108	9
109	7
111	13
112	3
113	4
114	1
121	4
122	22
123	115
124	24
125	52
126	8
127	1
135	2
139	1
140	1
150	5
151	3
153	6
168	10
169	1
