Mass Spectrum: Alpha-l-sorbopyranose
Formula: C6H12O6
CAS: 470-15-5
Molecular weight: 180
m/z	intensity
13	4
14	21
15	92
16	3
17	44
18	220
19	31
24	2
25	7
26	40
27	67
28	147
29	257
30	97
31	397
32	51
33	15
36	1
37	5
38	8
39	38
40	18
41	58
42	198
43	545
44	175
45	136
46	5
47	15
49	36
50	7
51	6
52	8
53	18
54	22
55	97
56	54
57	224
58	59
59	35
60	455
61	516
62	21
63	4
64	2
65	2
66	3
67	5
68	33
69	71
70	11
71	261
72	326
73	999
74	82
75	16
76	4
77	57
78	3
79	2
80	7
81	7
82	6
83	11
84	22
85	128
86	155
87	22
88	6
89	46
90	152
91	42
92	4
93	1
94	4
95	24
96	35
97	20
98	9
99	3
100	4
101	26
102	29
103	285
104	22
105	6
106	1
107	1
108	3
109	3
110	7
111	1
112	1
113	34
114	8
115	13
116	4
117	1
118	1
119	11
120	3
121	22
122	2
123	1
124	1
125	1
126	10
127	8
128	2
131	67
132	11
133	10
134	1
135	1
144	9
145	9
146	1
147	1
149	109
150	7
151	1
162	1
163	12
164	3
