Mass Spectrum: Cholestane, 3-(methoxymethoxy)-, (3.beta.,5.alpha.)-
Formula: C29H52O2
CAS: 4707-81-7
Molecular weight: 432
m/z	intensity
45	999
55	470
56	65
57	380
67	300
68	95
69	380
71	180
79	220
80	65
81	580
82	130
83	280
85	50
91	150
92	55
93	350
94	150
95	600
96	75
97	170
105	220
106	160
107	490
108	360
109	370
110	50
111	110
119	200
120	130
121	340
122	190
123	230
131	65
133	130
134	85
135	230
136	150
137	110
145	130
147	380
149	220
150	60
151	50
159	85
160	70
161	160
162	80
163	90
173	70
175	140
176	50
177	140
178	95
179	75
187	55
189	60
191	55
201	120
203	70
215	760
216	600
217	440
218	90
230	350
231	140
233	50
245	340
246	180
247	120
257	70
260	85
261	50
262	180
263	40
277	240
278	280
291	70
355	200
356	60
370	310
371	130
372	50
375	55
385	160
386	55
387	50
417	50
432	730
433	220
