Mass Spectrum: Cholest-4-ene, 3.beta.-(methoxymethoxy)-
Formula: C29H50O2
CAS: 4707-85-1
Molecular weight: 430
m/z	intensity
26	3
27	32
29	114
30	27
31	104
33	27
34	1
38	1
39	25
40	7
41	261
42	28
43	436
44	16
45	999
46	27
47	4
50	2
51	4
52	3
53	47
54	14
55	403
56	48
57	449
58	23
59	6
60	11
61	63
62	2
63	2
64	1
65	20
66	12
67	229
68	64
69	368
70	38
71	259
72	16
73	8
74	2
75	5
76	3
77	65
78	21
79	214
80	60
81	575
82	67
83	282
84	30
85	66
86	6
87	4
88	2
89	4
90	3
91	252
92	75
93	284
94	86
95	557
96	62
97	195
98	20
99	17
100	46
101	9
102	3
103	12
104	16
105	275
106	184
107	336
108	124
109	237
110	42
111	116
112	14
113	69
114	70
115	68
116	13
117	55
118	55
119	136
120	85
121	177
122	60
123	187
124	102
125	66
126	12
127	43
128	16
129	28
130	15
131	87
132	26
133	127
134	56
135	151
136	59
137	92
138	21
139	22
140	5
141	17
142	10
143	39
144	17
145	108
146	37
147	181
148	50
149	129
150	22
151	54
152	11
153	15
154	6
155	10
156	6
157	28
158	28
159	89
160	44
161	101
162	30
163	84
164	14
165	36
166	7
167	10
168	5
169	6
170	6
171	21
172	9
173	54
174	21
175	52
176	20
177	63
178	11
179	31
180	7
181	14
182	3
183	6
184	4
185	23
186	9
187	44
188	12
189	33
190	8
191	42
192	8
193	42
194	8
195	3
196	2
197	9
198	5
199	29
200	11
201	52
202	16
203	60
204	12
205	87
206	22
207	55
208	11
209	2
210	2
211	8
212	5
213	46
214	15
215	67
216	24
217	81
218	16
219	55
220	12
221	12
222	4
223	3
224	3
225	5
226	4
227	22
228	13
229	54
230	25
231	68
232	14
233	42
234	8
235	11
236	3
237	2
238	3
239	5
240	3
241	28
242	8
243	18
244	13
245	48
246	13
247	57
248	14
249	8
250	7
251	2
252	2
253	7
254	4
255	73
256	18
257	28
258	11
259	105
260	47
261	45
262	12
263	5
264	2
265	1
266	1
267	2
268	1
269	8
270	5
271	40
272	11
273	57
274	20
275	22
276	6
277	2
278	1
279	1
280	1
281	2
282	1
283	11
284	4
285	9
286	3
287	17
288	8
289	10
290	4
291	1
292	1
295	1
296	1
297	4
298	2
299	11
300	7
301	18
302	7
303	5
304	1
305	1
309	1
310	2
311	5
312	3
313	9
314	16
315	55
316	51
317	22
318	4
319	1
325	4
326	5
327	20
328	20
329	16
330	4
331	2
332	3
333	1
339	4
340	3
341	4
342	16
343	8
344	4
345	4
346	3
350	8
351	6
352	3
353	41
354	14
355	24
356	9
357	5
358	2
359	2
360	3
361	1
362	1
363	1
364	1
365	4
366	9
367	101
368	180
369	93
370	67
371	20
372	6
373	3
380	2
381	2
382	3
383	21
384	48
385	290
386	87
387	14
388	2
395	1
396	1
397	3
398	60
399	20
400	11
401	11
402	4
403	1
411	0
412	1
413	1
414	1
415	3
416	1
428	8
429	6
430	233
431	77
432	13
433	1
