Mass Spectrum: 1H-Imidazole-2-carboxaldehyde, 2,4-dinitrophenylhydrazone
Formula: C10H8N6O4
CAS: 47074-95-3
Molecular weight: 276
m/z	intensity
27	45
29	330
39	90
40	248
41	120
42	112
43	14
44	13
45	8
50	61
51	113
52	281
53	281
54	316
55	45
56	3
57	8
61	23
62	113
63	231
64	113
65	37
66	46
67	141
68	325
69	105
73	5
74	78
75	182
76	87
77	92
78	60
79	97
80	143
81	699
82	54
83	3
87	12
88	31
89	35
90	53
91	44
92	23
93	55
94	164
95	225
96	24
97	999
98	86
99	4
100	5
101	74
102	74
103	46
104	15
105	16
106	26
107	20
108	3
109	176
110	6
111	6
114	7
115	34
116	14
117	13
118	10
119	4
122	6
127	4
128	44
129	102
130	23
131	5
142	3
143	29
144	11
153	4
154	12
155	97
156	55
157	17
168	33
169	10
171	3
183	10
184	12
185	6
214	7
215	4
230	7
246	4
276	222
277	27
278	1
