Mass Spectrum: Bicyclo[3.1.0]hexan-3-one, 4-methyl-1-(1-methylethyl)-, [1S-(1.alpha.,4.beta.,5.alpha.)]-
Formula: C10H16O
CAS: 471-15-8
Molecular weight: 152
m/z	intensity
27	538
28	213
29	127
39	423
41	999
42	82
43	267
51	63
52	60
53	257
54	98
55	446
56	101
57	15
58	30
65	79
67	665
68	687
69	647
70	274
71	59
77	123
79	151
80	60
81	936
82	235
83	51
87	2
95	536
96	67
109	390
110	621
111	55
152	66
153	7
154	0
