Mass Spectrum: 3-Cyclohexen-1-one, 3,5,5-trimethyl-
Formula: C9H14O
CAS: 471-01-2
Molecular weight: 138
m/z	intensity
26	15
27	212
28	31
29	98
30	1
31	26
37	3
38	17
39	289
40	49
41	294
42	31
43	60
44	45
45	44
46	3
47	1
49	0
50	22
51	61
52	32
53	150
54	102
55	171
56	53
57	9
58	5
59	4
60	1
61	4
62	5
63	19
64	5
65	46
66	14
67	299
68	55
69	14
70	3
71	6
72	0
73	1
74	3
75	2
76	0
77	90
78	22
79	130
80	28
81	812
82	369
83	25
84	1
85	13
86	12
87	18
88	0
89	5
91	35
92	4
93	49
94	11
95	770
96	999
97	72
98	3
99	0
100	8
103	1
105	5
107	5
108	3
109	9
110	10
111	1
119	0
121	4
122	3
123	710
124	61
125	3
129	1
131	4
137	2
138	657
139	68
140	5
