Mass Spectrum: Levobunolol
Formula: C17H25NO3
CAS: 47141-42-4
Molecular weight: 291
m/z	intensity
41	201
44	43
57	179
58	40
60	40
70	74
71	71
85	23
86	999
87	58
105	11
114	21
115	17
116	33
124	8
131	11
133	8
134	9
145	8
147	12
160	1
161	3
162	12
175	3
201	8
206	12
207	3
247	15
276	164
277	25
291	18
