Mass Spectrum: Peroxide, bis(1-methylpropyl)
Formula: C8H18O2
CAS: 4715-28-0
Molecular weight: 146
m/z	intensity
15	20
19	20
21	20
27	120
28	70
29	490
30	20
31	30
37	30
40	10
41	340
42	30
43	320
44	50
45	729
46	20
53	10
54	10
55	100
56	999
57	929
58	50
59	30
61	40
70	10
71	10
72	30
73	60
89	60
90	60
146	100
147	10
