Mass Spectrum: 2,5-Furandione, dihydro-3-tetradecyl-
Formula: C18H32O3
CAS: 47165-57-1
Molecular weight: 296
m/z	intensity
14	1
15	7
26	9
27	221
28	60
29	454
30	9
31	2
38	3
39	196
40	40
41	999
42	208
43	724
44	25
45	7
47	1
50	2
51	9
52	9
53	85
54	132
55	655
56	194
57	312
58	13
59	5
60	9
61	3
63	1
64	1
65	14
66	11
67	173
68	103
69	310
70	116
71	97
72	12
73	36
74	17
75	2
77	13
78	4
79	39
80	20
81	134
82	95
83	219
84	72
85	46
86	12
87	23
88	5
91	12
92	5
93	28
94	20
95	89
96	81
97	225
98	101
99	22
100	46
101	10
102	10
103	1
104	2
105	9
106	5
107	20
108	16
109	55
110	49
111	79
112	48
113	22
114	14
115	8
116	16
117	4
118	15
119	16
120	6
121	18
122	11
123	35
124	38
125	38
126	22
127	13
128	60
129	11
130	12
131	4
132	2
133	16
134	9
135	15
136	11
137	32
138	64
139	24
140	20
141	32
142	142
143	15
144	17
145	3
146	1
147	13
148	7
149	9
150	9
151	30
152	43
153	19
154	16
155	23
156	143
157	16
158	12
159	2
160	1
161	9
162	7
163	6
164	10
165	22
166	33
167	12
168	12
169	9
170	18
171	6
172	9
173	1
174	1
175	5
176	6
177	4
178	8
179	17
180	24
181	9
182	12
183	6
184	9
185	4
186	4
189	3
190	3
191	2
192	7
193	11
194	21
195	7
196	9
197	6
198	11
199	4
200	3
203	2
204	3
205	2
206	4
207	9
208	16
209	6
210	3
211	4
212	18
213	4
214	1
217	2
218	6
219	4
220	2
221	5
222	15
223	4
224	36
225	8
226	27
227	5
231	1
232	3
233	3
234	2
235	4
236	9
237	4
239	4
240	23
241	5
242	1
249	4
250	15
251	6
252	2
253	3
254	18
255	5
260	2
267	1
268	6
269	1
270	1
277	1
278	33
279	7
280	1
295	1
296	18
297	6
298	1
