Mass Spectrum: 19-Norpregn-4-ene-3,20-dione
Formula: C20H28O2
CAS: 472-54-8
Molecular weight: 300
m/z	intensity
41	283
42	15
43	999
45	17
51	22
52	19
53	111
54	24
55	249
57	6
63	9
65	81
66	27
67	208
68	51
69	72
71	234
77	186
78	57
79	263
80	48
81	185
82	27
83	38
84	238
85	69
91	306
92	53
93	171
94	55
95	165
96	13
97	53
98	9
102	6
103	24
104	18
105	176
106	51
107	163
108	78
109	118
110	395
111	59
115	39
116	21
117	83
118	23
119	119
120	102
121	105
122	96
123	98
124	39
127	6
128	31
129	37
130	17
131	71
132	79
133	123
134	45
135	115
136	17
137	17
141	14
142	6
143	39
144	20
145	79
146	44
147	166
148	54
149	61
150	6
153	5
155	13
156	6
157	28
158	22
159	73
160	57
161	55
162	40
163	25
169	13
170	14
171	32
172	26
173	85
174	37
175	37
176	5
177	8
178	5
183	15
184	9
185	29
186	18
187	56
188	22
189	14
190	29
191	78
195	6
196	4
197	38
199	24
200	18
201	42
202	11
203	6
211	10
212	20
213	27
214	8
215	205
216	52
217	87
218	16
224	9
225	8
227	7
229	35
230	173
232	16
239	18
240	21
241	12
242	35
243	25
244	26
245	5
248	7
253	23
254	9
255	29
256	34
257	75
258	82
259	20
267	6
282	74
283	18
284	21
285	20
300	255
301	26
