Mass Spectrum: 1-Cyclohexene-1-ethanol, 2,6,6-trimethyl-
Formula: C11H20O
CAS: 472-65-1
Molecular weight: 168
m/z	intensity
17	10
27	71
29	90
31	111
38	13
39	224
40	55
41	585
42	41
43	215
45	28
51	52
52	33
53	266
54	59
55	450
56	41
57	83
58	17
60	19
63	16
65	206
66	45
67	462
68	52
69	350
71	57
77	427
78	50
79	606
80	137
81	651
82	54
83	98
84	35
91	449
92	68
93	737
94	135
95	627
96	68
97	66
103	69
105	202
106	35
107	999
108	106
109	908
110	76
111	39
112	34
117	27
119	111
120	33
121	98
122	69
123	781
124	135
125	59
133	18
134	12
135	266
136	32
137	133
140	9
148	12
149	13
150	22
153	843
154	72
168	360
169	54
