Mass Spectrum: Astaxanthin
Formula: C40H52O4
CAS: 472-61-7
Molecular weight: 596
m/z	intensity
12	3
13	5
14	12
15	26
16	10
17	45
18	184
24	3
25	10
26	37
27	82
28	126
29	111
30	6
31	10
36	7
37	12
38	24
39	146
40	31
41	418
42	30
43	515
44	32
45	25
46	5
49	10
50	50
51	89
52	41
53	165
54	19
55	486
56	36
57	107
58	7
59	19
60	10
61	12
62	22
63	59
64	21
65	124
66	32
67	223
68	19
69	369
70	28
71	51
72	7
73	16
74	21
75	17
76	19
77	291
78	76
79	320
80	59
81	36
82	35
83	214
84	19
85	63
86	12
87	13
88	7
89	36
90	24
91	999
92	282
93	388
94	58
95	272
96	38
97	87
98	17
99	15
100	7
101	12
102	20
103	85
104	45
105	709
106	282
107	388
108	78
109	243
110	40
111	79
112	17
113	34
114	10
115	175
116	82
117	214
118	58
119	72
120	165
121	330
122	72
123	175
124	53
125	122
126	33
127	66
128	204
129	282
130	128
131	330
132	125
133	563
134	136
135	311
136	66
137	291
138	57
139	104
140	22
141	175
142	204
143	408
144	264
145	583
146	165
147	689
148	115
149	120
150	41
151	194
152	204
153	214
154	77
155	214
156	214
157	458
158	196
159	359
160	99
161	214
162	77
163	107
164	40
165	233
166	90
167	130
168	83
169	234
170	121
171	291
172	100
173	262
174	70
175	184
176	55
177	80
178	74
179	140
180	81
181	175
182	84
183	252
184	93
185	204
186	70
187	175
188	59
189	184
190	66
191	164
192	86
193	119
194	86
195	224
196	116
197	274
198	85
199	129
200	49
201	116
202	68
203	466
204	107
205	124
206	89
207	175
208	103
209	291
210	106
211	194
212	56
213	92
214	37
215	97
216	49
217	88
218	60
219	97
220	60
221	125
222	63
223	137
224	54
225	93
226	38
227	68
228	33
229	69
230	39
231	67
232	63
233	70
234	53
235	82
236	36
237	72
238	31
239	70
240	31
241	57
242	28
243	46
244	28
245	48
246	31
247	58
248	49
249	64
250	26
251	51
252	25
253	56
254	26
255	60
256	32
257	62
258	32
259	44
260	29
261	67
262	35
263	54
264	25
265	54
266	26
267	73
268	38
269	62
270	38
271	51
272	35
273	42
274	29
275	50
276	25
277	43
278	20
279	42
280	23
281	54
282	38
283	58
284	40
285	49
286	28
287	35
288	17
289	31
290	17
291	29
292	17
293	30
294	19
295	41
296	39
297	59
298	44
299	34
300	18
301	17
302	10
303	20
304	12
305	22
306	13
307	25
308	17
309	25
310	19
311	25
312	16
313	15
314	9
315	15
316	8
317	16
318	10
319	16
320	11
321	20
322	16
323	23
324	14
325	15
326	9
327	12
328	7
329	14
330	9
331	15
332	10
333	18
334	12
335	23
336	15
337	16
338	10
339	10
340	5
341	10
342	6
343	14
344	8
345	19
346	13
347	25
348	17
349	29
350	17
351	18
352	10
353	7
354	5
355	8
356	5
357	10
358	8
359	18
360	17
361	35
362	36
363	38
364	21
365	18
366	6
367	6
368	5
369	6
370	6
371	8
372	7
373	15
374	13
375	21
376	21
377	35
378	21
379	15
380	7
381	5
382	5
383	5
384	5
385	6
386	5
387	8
388	8
389	13
390	10
391	9
392	5
393	5
394	5
395	5
396	7
397	6
398	8
399	8
400	5
401	8
402	5
403	5
404	5
405	5
406	7
407	5
408	5
409	6
410	6
411	8
412	8
413	13
414	12
415	16
416	10
417	9
418	5
419	5
420	6
421	5
422	7
423	5
424	6
425	6
426	10
427	13
428	15
429	16
430	16
431	12
432	6
433	5
434	5
435	4
436	7
437	4
438	7
439	5
440	7
441	7
442	16
443	15
444	15
445	8
446	8
447	5
448	3
449	3
450	5
451	3
452	3
453	2
454	2
455	3
456	5
457	5
458	8
459	6
460	5
461	3
462	2
472	18
473	10
474	21
475	10
476	6
477	3
484	5
485	4
486	15
487	8
488	39
489	16
490	34
491	12
492	5
493	3
500	11
501	8
502	20
503	8
504	24
505	9
506	5
507	3
514	3
515	3
516	9
517	6
518	5
519	3
524	4
532	3
533	3
534	3
535	3
546	3
547	4
548	10
549	7
550	10
551	7
552	5
553	3
560	4
561	4
562	14
563	10
564	61
565	31
566	30
567	15
568	10
569	5
575	8
576	6
577	20
578	36
579	19
580	88
581	42
582	31
583	12
584	5
585	2
592	11
593	6
594	39
595	17
596	65
