Mass Spectrum: 2,5-Cyclohexadien-1-one, 3,3'-(3,7,11,15-tetramethyl-1,3,5,7,9,11,13,15,17-octadecanonaene-1,18-diyl)bis[6-hydroxy-2,4,4-trimethyl-
Formula: C40H48O4
CAS: 472-60-6
Molecular weight: 592
m/z	intensity
36	29
38	21
39	135
40	21
41	162
43	265
44	36
45	27
50	34
51	89
52	39
53	69
55	182
56	20
57	36
62	20
63	51
64	21
65	120
66	21
67	63
69	49
76	17
77	161
78	45
79	122
80	22
81	78
83	260
84	21
89	39
90	17
91	999
92	419
93	132
94	20
95	60
97	18
102	18
103	60
104	21
105	267
106	250
107	110
108	17
109	38
115	87
116	43
117	66
118	18
119	171
120	37
121	92
122	22
123	46
124	18
125	22
127	31
128	91
129	105
130	44
131	91
132	40
133	107
134	29
135	67
136	19
137	200
138	24
139	18
141	92
142	69
143	147
144	58
145	185
146	37
147	109
148	22
149	49
150	19
151	297
152	253
153	78
154	38
155	77
156	116
157	162
158	63
159	123
160	36
161	61
162	17
163	37
164	18
165	222
166	51
167	49
168	27
169	78
170	46
171	93
172	41
173	137
174	40
175	100
176	34
177	49
178	42
179	54
180	33
181	60
182	30
183	71
184	31
185	73
186	26
187	140
188	46
189	107
190	30
191	57
192	27
193	46
194	39
195	82
196	49
197	84
198	28
199	51
200	21
201	72
202	195
203	662
204	133
205	76
206	42
207	57
208	36
209	103
210	42
211	56
212	23
213	41
214	19
215	43
216	21
217	84
218	29
219	31
220	26
221	43
222	30
223	49
224	22
225	38
226	19
227	30
228	22
229	77
230	33
231	46
232	24
233	24
235	38
236	21
237	32
239	31
240	17
241	33
242	22
243	33
244	17
245	42
246	17
247	21
249	34
251	30
252	16
253	32
254	20
255	32
257	24
261	30
262	16
263	24
265	25
267	41
268	21
269	44
270	17
271	19
273	17
275	23
277	24
279	21
281	32
282	53
283	40
293	23
295	44
296	43
297	22
307	19
308	16
309	20
349	17
361	24
362	21
375	22
486	21
500	42
501	19
577	18
578	16
592	397
593	176
594	66
