Mass Spectrum: N'-Hydroxy-2H-1,3-benzodioxole-5-carboximidamide
Formula: C8H8N2O3
CAS: 4720-72-3
Molecular weight: 180
m/z	intensity
37	255
38	517
39	545
40	140
41	207
42	484
43	362
44	226
45	23
47	7
49	58
50	430
51	454
52	561
53	463
54	103
55	62
56	6
57	13
59	41
60	17
61	228
62	650
63	999
64	244
65	907
66	146
67	48
68	31
69	20
70	6
71	3
74	82
75	108
76	111
77	501
78	167
79	159
80	47
81	43
87	6
88	42
89	61
90	152
91	99
92	56
93	38
94	9
103	11
104	16
105	80
106	51
107	12
117	13
118	51
119	8
120	13
121	111
122	23
133	22
136	13
137	4
146	85
147	28
148	193
149	69
150	10
161	4
162	87
163	319
164	28
165	9
180	263
181	18
