Mass Spectrum: Hydroperoxide, 1,4-dioxan-2-yl
Formula: C4H8O4
CAS: 4722-59-2
Molecular weight: 120
m/z	intensity
15	466
29	826
30	195
31	666
41	66
42	144
43	722
44	666
45	866
57	44
58	100
59	84
60	155
61	33
63	17
69	22
73	777
74	55
75	17
87	999
88	71
102	17
104	11
120	11
