Mass Spectrum: Butane-1,4-diol bis(p-toluene-1,4-sulfonate)
Formula: C18H22O6S2
CAS: 4724-56-5
Molecular weight: 398
m/z	intensity
50	7
51	21
54	67
55	491
56	22
63	27
64	7
65	178
66	9
71	575
72	22
73	22
77	23
78	4
79	21
89	44
90	198
91	999
92	109
107	110
108	21
121	22
139	22
154	88
155	554
156	43
157	22
162	89
163	11
171	22
172	166
173	212
174	27
226	178
227	231
228	36
398	33
399	7
