Mass Spectrum: Adipic dihydroxamic acid monohydrate
Formula: C6H12N2O4
CAS: 4726-83-4
Molecular weight: 176
m/z	intensity
41	328
42	286
43	318
44	999
45	95
46	13
47	1
49	4
50	7
51	10
52	8
53	41
54	34
55	647
56	306
57	63
58	25
59	98
60	83
61	1
65	1
67	10
68	20
69	30
70	81
71	33
72	22
73	17
74	24
75	64
76	1
80	25
81	12
82	34
83	173
84	17
85	8
86	13
87	9
88	21
89	2
96	4
97	11
98	148
99	169
100	137
101	67
102	18
103	1
108	14
109	9
110	2
111	369
112	25
113	10
114	35
115	33
116	39
117	4
118	2
125	4
126	43
127	11
128	11
129	88
130	6
133	15
140	2
141	1
142	1
143	97
144	180
145	12
157	2
158	1
159	14
160	1
175	1
176	11
177	1
