Mass Spectrum: L-Serine, O-(phenylmethyl)-
Formula: C10H13NO3
CAS: 4726-96-9
Molecular weight: 195
m/z	intensity
14	1
15	13
16	2
17	9
18	14
26	3
27	13
28	22
29	11
30	31
31	4
32	3
37	2
38	6
39	46
40	7
41	23
42	73
43	151
44	31
45	7
46	41
49	1
50	15
51	40
52	10
53	5
54	1
55	4
56	5
57	4
58	7
59	1
60	7
61	2
62	6
63	22
64	7
65	117
66	6
68	1
69	2
70	9
71	33
72	2
73	14
74	587
75	20
76	5
77	49
78	11
79	55
80	5
84	1
85	1
86	1
87	3
88	6
89	270
90	28
91	999
92	138
93	8
100	1
103	1
104	12
105	16
106	6
107	32
108	35
109	2
117	1
118	3
119	3
120	137
121	14
147	1
149	1
150	44
151	4
165	12
166	1
167	1
