Mass Spectrum: Cyclopentadecanamine
Formula: C15H31N
CAS: 4727-20-2
Molecular weight: 225
m/z	intensity
29	70
30	200
39	40
41	190
42	50
43	210
44	50
55	160
56	999
57	100
67	70
68	30
69	80
70	120
81	70
82	110
83	60
84	70
95	50
96	130
97	50
98	80
110	30
122	240
124	30
126	100
138	20
140	60
154	60
168	90
182	170
196	40
208	120
224	30
225	150
226	30
