Mass Spectrum: Spiro[5.6]dodecan-7-one
Formula: C12H20O
CAS: 4728-90-9
Molecular weight: 180
m/z	intensity
26	10
27	177
29	165
30	4
31	0
33	1
37	0
38	8
39	253
40	48
41	597
42	87
43	115
44	5
45	5
46	0
47	4
48	2
50	10
51	37
52	20
53	155
54	219
55	599
56	47
57	24
58	5
62	10
63	10
64	3
65	43
66	48
67	999
68	244
69	141
70	62
71	31
72	0
76	2
77	64
78	25
79	150
80	185
81	924
82	339
83	160
84	110
85	25
86	4
87	0
89	1
91	54
92	35
93	77
94	335
95	338
96	583
97	193
98	169
99	77
100	6
102	0
103	3
104	5
105	18
106	19
107	78
108	55
109	575
110	101
111	52
112	227
113	21
114	0
115	3
117	5
118	3
119	75
120	77
121	70
122	46
123	35
124	66
125	584
126	58
127	4
128	1
130	2
131	0
133	180
134	107
135	61
136	78
137	155
138	87
139	60
140	5
141	1
145	0
147	59
148	10
149	41
150	18
151	26
152	23
153	3
154	0
160	12
161	3
162	399
163	72
164	12
165	16
166	1
171	2
176	1
179	18
180	603
181	88
182	7
