Mass Spectrum: 5.beta.-Pregnan-20-one
Formula: C21H34O
CAS: 4729-67-3
Molecular weight: 302
m/z	intensity
41	242
43	999
44	28
45	16
47	6
48	3
49	29
50	2
51	17
52	5
53	99
54	32
55	345
56	21
57	22
58	11
59	3
60	2
61	6
62	0
63	2
65	49
66	21
67	347
68	79
69	109
71	166
72	7
73	2
74	1
75	0
77	122
78	29
79	289
80	64
81	336
82	44
83	80
84	439
85	91
86	27
87	3
88	3
89	1
91	217
92	30
93	252
94	93
95	325
96	45
97	46
98	11
99	7
100	1
101	3
102	3
103	13
104	3
105	146
106	50
107	182
108	191
109	250
110	40
111	21
112	2
113	3
115	18
116	8
117	36
118	20
119	99
120	63
121	213
122	95
123	89
124	14
125	8
126	1
127	3
128	9
129	13
130	6
131	41
132	32
133	107
134	100
135	200
136	51
137	46
138	10
139	4
140	0
141	5
142	3
143	10
144	2
145	55
146	22
147	114
148	71
149	173
150	36
151	32
152	6
153	2
154	1
155	2
156	0
157	12
158	4
159	73
160	22
161	85
162	71
163	82
164	17
165	8
166	2
167	1
168	0
169	1
170	0
171	11
172	4
173	51
174	70
175	106
176	28
177	37
178	7
179	4
180	1
181	0
183	1
185	9
186	3
187	30
188	28
189	44
190	16
191	11
192	56
193	15
194	2
195	0
197	2
198	0
199	19
200	5
201	26
202	16
203	57
204	13
205	8
206	20
207	5
208	0
211	2
212	0
213	14
214	10
215	88
216	35
217	606
218	152
219	32
220	5
221	0
225	1
226	1
227	24
228	10
229	37
230	14
231	39
232	34
233	6
234	0
239	1
240	0
241	9
242	24
243	21
244	126
245	67
246	22
247	8
248	1
253	1
254	1
255	22
256	18
257	72
258	73
259	146
260	29
261	3
262	0
267	4
268	0
269	85
270	18
271	3
272	1
273	2
274	1
282	2
283	1
284	154
285	53
286	4
287	326
288	69
289	8
290	0
300	57
301	14
302	613
303	149
304	16
305	1
