Mass Spectrum: 1-Naphthalenol, decahydro-1,4a-dimethyl-7-(1-methylethylidene)-, [1R-(1.alpha.,4a.beta.,8a.alpha.)]-
Formula: C15H26O
CAS: 473-04-1
Molecular weight: 222
m/z	intensity
27	165
28	6
29	171
30	7
31	11
39	187
40	45
41	651
42	39
43	999
44	21
45	32
51	39
52	24
53	170
54	39
55	473
56	32
57	58
58	80
59	18
63	17
65	69
66	26
67	342
68	58
69	171
70	19
71	208
72	15
73	11
75	10
77	146
78	30
79	194
80	44
81	591
82	157
83	140
84	32
85	44
91	210
92	35
93	279
94	47
95	211
96	135
97	55
98	10
103	18
104	1
105	212
106	37
107	230
108	110
109	198
110	25
111	33
115	18
116	10
117	25
118	10
119	96
120	29
121	236
122	187
123	152
124	23
125	131
126	16
127	10
129	11
131	14
133	196
134	117
135	352
136	53
137	110
138	8
145	20
147	99
148	105
149	98
150	16
151	19
161	465
162	54
163	23
164	25
175	31
179	31
189	532
190	71
204	433
205	59
207	19
222	246
223	39
