Mass Spectrum: Methanesulfonamide, N,N-bis(2-(methylsulfonyloxy)ethyl)-
Formula: C7H17NO8S3
CAS: 473-51-8
Molecular weight: 339
m/z	intensity
33	1
34	2
36	1
39	3
40	33
41	31
42	161
43	33
44	41
45	27
46	3
48	20
49	1
50	1
54	18
55	39
56	999
57	58
58	10
59	5
60	1
63	14
64	28
65	10
66	2
67	5
68	7
69	18
70	51
71	14
72	9
73	1
77	2
79	202
80	9
81	16
82	3
83	9
84	18
85	14
86	13
91	2
93	1
95	6
96	3
97	9
98	1
99	2
105	2
107	4
108	6
109	9
110	1
111	6
113	1
117	1
121	1
122	11
123	44
124	2
125	4
127	1
134	24
135	3
136	4
137	1
147	1
148	6
149	1
150	10
152	237
153	11
154	9
163	1
164	28
165	3
166	5
180	2
200	6
228	6
230	445
231	30
232	40
233	1
243	14
244	6
245	1
260	6
