Mass Spectrum: 2-Heptadecyl-N-methylimidazoline
Formula: C21H42N2
CAS: 47306-57-0
Molecular weight: 322
m/z	intensity
39	6
41	88
42	51
43	85
44	6
54	12
55	61
56	57
57	48
58	16
66	3
67	14
68	24
69	3
70	6
71	8
72	3
73	14
79	3
81	4
82	4
83	19
84	12
91	3
95	3
96	22
97	95
98	999
99	67
109	12
111	370
112	114
113	4
123	8
125	56
126	8
137	8
139	33
140	9
152	3
153	117
154	11
167	53
168	5
181	30
182	3
195	25
196	2
209	32
210	3
223	24
224	3
237	16
238	3
251	12
265	12
279	19
280	5
293	8
321	95
322	67
323	11
