Mass Spectrum: Cholest-5-en-3-ol, (3.alpha.)-
Formula: C27H46O
CAS: 474-77-1
Molecular weight: 386
m/z	intensity
53	42
54	37
55	641
56	160
57	999
58	37
60	37
65	21
67	267
68	90
69	491
70	133
71	609
72	26
73	37
77	58
78	26
79	229
80	48
81	465
82	106
83	320
84	112
85	363
86	16
91	235
92	74
93	299
94	106
95	449
96	101
97	240
98	48
99	101
104	26
105	326
106	133
107	427
108	117
109	245
110	58
111	139
112	53
113	80
115	32
116	16
117	112
118	69
119	213
120	197
121	208
122	53
123	133
124	69
125	112
126	26
127	69
128	37
129	69
130	32
131	155
132	53
133	208
134	74
135	176
136	42
137	74
138	37
139	32
140	21
141	58
142	21
143	117
144	58
145	342
146	69
147	192
148	58
149	133
150	26
151	58
155	53
157	64
158	106
159	235
160	133
161	197
162	48
163	128
164	26
165	37
169	42
171	64
172	32
173	101
174	32
175	58
176	26
177	48
178	74
179	26
182	10
183	42
185	58
187	48
188	16
189	16
190	32
191	32
192	10
193	37
196	16
197	37
199	69
200	26
201	37
202	10
203	32
205	21
206	16
207	10
212	37
213	165
214	53
215	53
217	26
219	21
220	21
225	21
228	48
229	64
230	16
231	117
232	26
233	10
238	16
239	37
241	21
245	16
246	58
247	165
248	16
253	21
255	224
256	58
257	21
259	21
260	37
261	37
262	21
267	21
273	159
274	127
275	414
276	79
281	10
287	10
299	5
301	234
302	42
313	15
314	21
315	26
316	37
325	21
326	69
327	37
328	21
329	47
338	42
339	21
340	15
352	117
353	393
354	122
368	755
369	239
370	122
371	340
372	117
384	10
386	962
387	286
388	41
389	4
