Mass Spectrum: m-Dioxan-4-ol, 2,6-dimethyl-
Formula: C6H12O3
CAS: 4740-77-6
Molecular weight: 132
m/z	intensity
25	25
26	73
27	207
28	68
29	644
30	10
31	49
32	11
33	0
34	0
35	0
36	2
37	17
38	26
39	151
40	35
41	245
42	440
43	706
44	508
45	999
46	25
47	69
48	1
49	2
50	5
51	3
52	1
53	9
54	1
55	24
56	1
57	9
58	4
59	3
60	9
61	69
62	1
63	2
66	0
67	0
68	2
69	45
70	93
71	299
72	15
73	39
74	1
75	1
81	0
85	0
86	20
87	19
88	17
89	10
91	9
113	4
114	1
115	4
117	82
118	4
119	0
131	15
132	0
