Mass Spectrum: Pyrrolo(2,3-b)pyrazine
Formula: C6H5N3
CAS: 4745-93-1
Molecular weight: 119
m/z	intensity
45	109
52	50
64	80
65	149
66	48
91	30
92	320
118	99
119	999
120	78
