Mass Spectrum: 1,4-Dioxaspiro[4.5]decan-8-one
Formula: C8H12O3
CAS: 4746-97-8
Molecular weight: 156
m/z	intensity
26	21
27	74
28	132
29	40
31	6
38	4
39	41
40	13
41	39
42	49
43	56
44	34
45	22
50	4
51	7
52	5
53	21
54	25
55	161
56	110
57	37
63	5
65	7
66	5
67	37
68	9
69	15
70	15
71	26
73	10
77	4
79	3
81	7
82	5
83	37
84	53
85	13
86	45
87	4
95	9
96	4
97	35
98	40
99	999
100	421
101	34
109	4
110	3
111	14
112	14
113	6
126	14
127	6
128	3
129	17
141	5
155	7
156	157
157	13
