Mass Spectrum: 4-Penten-1-one, 1,5-diphenyl-
Formula: C17H16O
CAS: 4746-09-2
Molecular weight: 236
m/z	intensity
39	10
50	10
51	40
63	10
65	10
76	5
77	190
78	30
89	5
91	120
92	10
102	10
103	10
104	60
105	999
106	80
115	80
116	40
117	150
118	30
127	15
128	20
129	30
130	40
131	50
132	10
144	15
145	50
236	620
237	120
238	10
