Mass Spectrum: Pentanoic acid, 2-methyl-4-oxo-, ethyl ester
Formula: C8H14O3
CAS: 4749-12-6
Molecular weight: 158
m/z	intensity
39	40
40	17
41	73
42	73
43	999
44	33
45	67
55	27
56	27
57	17
58	40
59	17
60	17
61	17
69	17
70	73
71	33
72	100
73	160
74	27
84	27
85	50
86	17
87	117
88	133
89	33
99	40
101	227
102	27
112	167
113	433
114	40
115	107
116	133
118	33
130	17
143	83
144	17
158	73
