Mass Spectrum: Oxacycloundecane-2,7-dione
Formula: C10H16O3
CAS: 4753-58-6
Molecular weight: 184
m/z	intensity
26	26
27	229
28	244
29	201
30	9
31	34
38	9
39	188
40	44
41	388
42	247
43	248
44	26
45	25
50	6
51	13
52	8
53	58
54	63
55	999
56	406
57	81
58	39
59	81
60	12
65	5
66	6
67	26
68	92
69	62
70	82
71	58
72	10
73	29
74	4
77	8
78	4
79	19
80	35
81	28
82	47
83	364
84	451
85	64
86	14
87	6
91	7
92	4
93	16
94	12
95	14
96	15
97	66
98	574
99	78
100	156
101	784
102	57
103	7
105	4
106	13
107	6
108	6
109	12
110	29
111	142
112	20
113	6
114	21
115	17
116	10
119	5
120	11
121	15
122	4
123	8
124	19
125	22
126	60
127	14
128	16
129	145
130	11
131	2
137	11
138	45
139	8
140	2
141	3
142	4
148	5
151	3
154	3
155	2
156	32
157	4
166	40
167	8
184	136
185	34
186	5
