Mass Spectrum: 15-Octadecenoic acid, methyl ester
Formula: C19H36O2
CAS: 4764-72-1
Molecular weight: 296
m/z	intensity
26	5
27	107
28	46
29	242
30	7
31	14
32	3
33	3
36	2
38	2
39	101
40	24
41	937
42	169
43	451
44	21
45	27
46	1
47	1
48	1
49	1
50	2
51	6
52	5
53	69
54	129
55	999
56	231
57	225
58	16
59	175
60	7
61	3
62	1
63	2
64	1
65	13
66	15
67	237
68	186
69	728
70	169
71	96
72	12
73	44
74	666
75	107
76	6
77	11
78	5
79	35
80	25
81	186
82	169
83	429
84	305
85	67
86	6
87	446
88	42
89	3
90	1
91	9
92	3
93	23
94	29
95	152
96	271
97	361
98	237
99	33
100	8
101	58
102	7
103	1
104	1
105	6
106	3
107	22
108	23
109	90
110	146
111	169
112	56
113	22
114	32
115	57
116	11
117	2
118	2
119	15
120	6
121	29
122	14
123	96
124	84
125	90
126	18
127	22
128	38
129	46
130	12
131	2
132	1
133	15
134	14
135	29
136	11
137	58
138	67
139	54
140	11
141	42
142	12
143	49
144	7
145	2
146	1
147	12
148	12
149	21
150	10
151	37
152	53
153	35
154	6
155	12
156	4
157	18
158	3
159	1
160	1
161	10
162	6
163	16
164	10
165	25
166	42
167	23
168	5
169	16
170	3
171	12
172	3
173	1
174	1
175	9
176	3
177	10
178	5
179	16
180	71
181	24
182	5
183	10
184	2
185	11
186	4
187	2
188	1
189	6
190	2
191	5
192	2
193	12
194	18
195	10
196	2
197	3
198	1
199	11
200	5
201	1
202	1
203	3
204	1
205	2
206	3
207	14
208	16
209	7
210	2
211	2
212	1
213	8
214	5
215	1
217	2
218	1
219	1
220	26
221	22
222	101
223	21
224	2
225	1
226	1
227	3
228	3
229	1
230	1
231	1
232	1
233	1
234	1
235	17
236	15
237	3
238	1
239	2
240	1
241	2
242	1
243	1
244	1
245	1
246	11
247	3
248	1
249	2
250	9
251	6
252	1
253	6
254	1
255	3
256	1
260	1
261	1
263	3
264	248
265	158
266	25
267	6
268	1
269	1
270	1
278	2
279	1
280	1
281	1
282	2
283	1
284	1
294	1
295	1
296	32
297	7
298	8
299	2
300	1
