Mass Spectrum: 2H-Pyrano[3,2-b]pyridine
Formula: C8H7NO
CAS: 4767-91-3
Molecular weight: 133
m/z	intensity
37	220
38	370
39	999
50	210
51	240
52	160
64	80
78	90
104	110
132	150
133	140
