Mass Spectrum: 2-Propanol, 1-chloro-3-phenoxy-
Formula: C9H11ClO2
CAS: 4769-73-7
Molecular weight: 186
m/z	intensity
36	2
37	5
38	17
39	89
40	17
41	13
42	6
43	42
44	20
45	2
49	15
50	30
51	113
52	12
53	7
55	17
56	2
57	59
58	3
61	3
62	8
63	26
64	11
65	90
66	68
67	7
68	2
73	2
74	9
75	13
76	11
77	382
78	60
79	94
80	7
81	6
91	43
92	13
93	36
94	999
95	217
96	17
103	3
105	5
107	266
108	46
109	5
115	1
117	1
118	1
119	62
120	20
121	5
133	4
136	2
137	60
138	7
146	3
150	121
151	13
186	232
187	29
188	79
189	10
