Mass Spectrum: Clivonine
Formula: C17H19NO5
CAS: 477-16-7
Molecular weight: 317
m/z	intensity
51	19
52	6
53	22
54	11
55	55
56	15
57	40
58	9
59	5
60	9
61	1
62	12
63	20
64	7
65	20
66	8
67	24
68	20
69	21
70	11
71	13
73	8
74	7
75	15
76	19
77	36
78	43
79	12
80	11
81	22
82	272
83	999
84	62
85	37
86	7
87	7
88	7
89	19
90	6
91	12
92	4
93	8
94	19
95	15
96	552
97	49
98	12
99	10
101	7
102	6
103	8
104	8
105	10
106	21
107	11
108	6
109	7
111	5
113	4
114	4
115	20
116	7
117	7
118	5
119	7
120	2
121	9
122	5
123	5
124	20
125	6
126	17
127	10
128	8
129	5
130	4
131	6
133	14
134	15
135	15
139	7
141	5
143	4
145	5
146	6
147	10
148	2
149	9
151	1
155	1
159	4
161	4
162	18
163	7
165	1
172	1
173	8
174	6
175	6
177	4
184	1
185	1
188	5
189	5
190	6
191	6
197	1
199	1
201	1
202	3
203	2
204	2
209	1
225	5
226	5
228	6
316	1
317	118
318	23
319	1
