Mass Spectrum: Benzamide, N-hexyl-
Formula: C13H19NO
CAS: 4773-75-5
Molecular weight: 205
m/z	intensity
41	50
42	10
43	30
44	20
50	20
51	70
52	10
53	10
55	20
56	10
74	10
75	10
76	20
77	310
78	30
79	20
81	10
91	10
103	10
104	10
105	999
106	70
107	10
121	10
122	40
134	140
135	160
136	20
148	70
149	20
162	80
163	20
176	50
177	10
204	20
205	110
206	10
