Mass Spectrum: 4-Chloro-3-nitrophenyl phenylsulfone
Formula: C12H8ClNO4S
CAS: 4779-36-6
Molecular weight: 297
m/z	intensity
41	4
43	4
45	16
46	65
47	5
48	5
49	25
50	141
51	490
52	25
53	22
55	4
57	3
58	2
60	4
61	11
62	36
63	133
65	164
66	8
67	1
69	28
70	5
71	7
72	1
73	30
74	172
75	227
76	15
77	988
78	71
79	11
81	19
82	5
84	5
85	2
86	3
87	10
88	7
89	10
90	4
91	8
93	179
95	64
97	153
98	32
99	18
100	7
101	3
102	6
103	2
104	1
105	5
106	4
107	15
108	13
109	87
110	108
111	6
112	48
113	9
114	4
115	19
116	11
118	8
120	2
121	3
122	0
123	11
125	999
126	88
127	41
128	6
129	5
130	3
131	2
132	2
133	2
134	2
135	0
136	1
137	2
139	59
141	133
142	12
143	7
144	3
145	2
146	4
147	1
149	13
150	42
151	49
152	83
153	10
155	2
156	9
158	67
160	39
161	6
162	3
164	1
165	2
166	0
167	4
168	71
169	9
170	1
171	15
172	0
173	5
175	27
176	3
177	9
178	1
181	1
182	1
183	2
184	4
186	20
187	9
188	8
189	2
190	0
197	1
199	3
200	0
202	12
204	479
206	228
207	14
208	7
213	0
215	3
216	1
218	2
220	4
221	0
222	0
223	0
233	3
234	0
235	0
250	15
251	9
252	7
253	2
267	2
269	1
279	1
281	6
283	4
294	1
297	670
298	99
299	255
300	36
301	12
302	1
