Mass Spectrum: Butane, 1-(ethenylthio)-
Formula: C6H12S
CAS: 4789-70-2
Molecular weight: 116
m/z	intensity
26	5
27	88
29	88
35	6
38	0
39	59
40	33
41	287
42	12
43	10
44	1
45	251
46	34
47	66
48	8
50	5
51	6
53	20
54	13
55	76
56	175
57	146
58	117
59	227
60	999
61	201
62	47
63	8
67	35
68	7
69	11
70	6
71	6
73	267
74	111
75	28
76	6
81	6
82	10
83	6
85	14
87	68
88	16
89	7
99	0
101	200
102	12
103	8
115	11
116	947
117	71
118	47
