Mass Spectrum: Furosemide, methyl ester
Formula: C13H13ClN2O5S
CAS: 4793-48-0
Molecular weight: 344
m/z	intensity
51	29
52	23
53	212
64	28
75	21
81	999
82	68
95	12
96	109
97	20
105	9
109	20
111	10
117	10
123	6
125	6
129	5
140	6
141	5
147	10
149	12
157	1
159	3
168	1
178	0
203	1
207	2
283	3
284	2
311	10
312	2
313	0
329	3
344	36
346	3
