Mass Spectrum: 4-Hexen-3-ol, 2-methyl-
Formula: C7H14O
CAS: 4798-60-1
Molecular weight: 114
m/z	intensity
26	7
27	182
28	1
29	41
30	1
31	35
35	0
37	2
38	8
39	134
40	18
41	255
42	28
43	350
44	11
45	19
46	0
47	0
48	0
49	0
50	6
51	13
52	4
53	111
54	11
55	71
56	6
57	31
58	4
59	5
60	0
61	0
62	1
63	1
64	0
65	4
66	2
67	16
68	2
69	40
70	46
71	999
72	54
73	17
74	0
77	5
78	0
79	10
80	0
81	20
82	2
83	32
84	2
85	13
86	1
87	2
88	0
89	0
91	0
93	0
95	1
96	8
97	13
98	1
99	13
100	1
101	0
109	0
110	0
111	1
112	0
113	4
114	29
115	2
