Mass Spectrum: Ethanol, 2-(1-phenylethoxy)-
Formula: C10H14O2
CAS: 4799-66-0
Molecular weight: 166
m/z	intensity
15	11
17	8
18	37
19	7
26	2
27	39
28	4
29	13
30	1
31	29
32	3
33	6
37	2
38	5
39	27
40	3
41	4
42	3
43	89
44	7
45	86
46	3
50	25
51	76
52	16
53	9
55	2
56	2
57	1
61	4
62	5
63	15
64	3
65	12
73	7
74	8
75	8
76	9
77	207
78	53
79	226
80	15
87	3
89	11
90	5
91	32
92	3
102	8
103	67
104	44
105	999
106	127
107	410
108	23
120	29
121	129
122	32
123	4
149	4
151	248
152	24
159	6
161	4
166	127
167	16
