Mass Spectrum: 2-Butanol, 4-(phenylmethoxy)-
Formula: C11H16O2
CAS: 4799-69-3
Molecular weight: 180
m/z	intensity
14	1
15	4
17	1
18	6
19	5
26	2
27	21
28	74
29	19
30	1
31	17
32	21
38	4
39	44
40	5
41	40
42	5
43	62
44	5
45	71
46	2
50	12
51	40
52	12
53	6
54	1
55	29
56	157
57	18
58	3
59	4
61	2
62	5
63	22
64	7
65	114
66	7
69	2
71	19
72	4
73	7
74	3
75	3
76	3
77	77
78	30
79	14
80	12
83	1
84	4
85	3
87	1
89	35
90	21
91	999
92	227
93	15
101	2
103	2
104	17
105	90
106	24
107	462
108	107
109	8
115	1
117	19
118	23
119	8
120	135
121	13
122	3
123	2
129	2
131	1
133	3
134	2
135	2
144	3
145	1
147	8
148	2
162	101
163	79
164	9
165	2
180	17
181	3
