Mass Spectrum: Cyclohexaneethanethiol, 3-mercapto-.beta.,4-dimethyl-
Formula: C10H20S2
CAS: 4802-20-4
Molecular weight: 204
m/z	intensity
27	131
28	20
29	166
32	2
33	3
34	8
35	14
38	2
39	274
40	43
41	763
42	56
43	111
44	6
45	201
46	25
47	378
48	10
49	19
50	7
51	38
52	20
53	234
54	51
55	638
56	42
57	64
58	27
59	110
60	31
61	89
63	13
65	90
66	29
67	506
68	141
69	222
70	16
71	37
72	9
73	81
74	84
75	348
76	20
77	153
78	27
79	303
80	60
81	966
82	87
83	38
84	6
85	58
86	16
87	56
88	11
89	7
91	101
92	47
93	311
94	278
95	999
96	95
97	66
98	5
99	57
100	16
101	49
102	5
103	3
105	22
106	3
107	264
108	80
109	45
110	8
111	6
113	133
114	29
115	35
121	149
122	50
123	488
124	51
127	29
128	49
129	11
135	1
136	490
137	134
138	11
141	28
142	2
155	76
156	6
169	3
170	448
171	74
172	25
204	14
