Mass Spectrum: Ginkgolide C 4TMS
Formula: C32H56O11Si4
CAS: 480427-40-5
Molecular weight: 728
m/z	intensity
29	6
41	26
44	8
45	20
47	3
57	252
58	12
59	8
61	3
72	11
73	999
74	82
75	89
76	5
83	9
85	4
86	1
87	2
97	12
99	5
101	6
102	5
103	16
109	4
115	6
116	5
117	10
125	3
127	6
129	14
130	4
131	18
132	5
133	43
135	8
137	2
140	2
141	6
142	3
143	27
144	5
147	191
148	30
149	35
150	5
151	4
155	8
157	45
158	7
159	7
160	2
161	4
163	4
166	2
169	22
170	4
171	13
172	2
173	5
174	2
177	8
178	2
179	5
181	5
183	6
185	7
186	4
189	5
190	2
191	121
192	25
193	32
194	7
195	9
197	9
198	4
199	10
204	5
206	5
207	19
208	6
211	5
213	11
214	3
215	6
216	3
217	13
218	4
219	10
220	3
221	22
222	4
223	9
229	5
230	3
231	6
233	8
234	3
235	12
236	3
239	4
240	2
241	4
243	19
244	8
245	13
246	4
248	4
249	8
250	4
251	10
254	3
255	7
256	2
257	9
258	13
259	30
260	6
261	9
262	6
265	6
266	3
267	43
268	15
269	13
270	4
271	11
272	3
273	24
274	6
275	8
278	2
279	5
280	6
282	5
283	8
284	4
285	9
286	7
287	18
288	4
289	6
291	8
292	3
293	10
294	5
295	21
296	9
297	13
298	11
299	8
300	3
301	6
302	2
303	7
304	4
305	9
306	4
307	13
308	5
309	11
310	3
311	9
312	3
313	9
314	2
315	5
316	3
317	3
318	3
319	8
320	6
321	12
322	7
323	19
324	11
325	9
326	3
327	4
328	1
329	4
331	7
332	4
335	9
336	5
337	9
338	3
339	7
340	3
341	7
342	3
346	3
347	9
348	4
349	9
350	4
351	9
352	4
353	5
354	2
355	9
356	7
357	9
358	5
359	13
360	4
361	4
362	2
363	7
364	5
365	5
366	3
367	5
368	3
369	8
370	4
371	5
372	2
373	3
375	9
376	5
377	7
378	2
379	4
381	5
382	3
383	4
385	3
386	2
387	5
388	1
392	4
393	8
394	5
395	6
396	4
397	4
398	2
403	4
404	3
405	5
406	2
407	5
408	3
409	4
410	4
411	4
413	5
414	2
415	5
419	4
420	3
421	8
422	3
423	5
425	4
426	2
427	2
429	2
432	2
433	5
434	2
437	4
438	2
439	2
440	1
441	3
442	3
443	4
444	1
447	4
448	2
449	5
450	1
451	3
453	3
455	4
456	3
457	3
459	2
460	1
463	3
464	1
465	3
466	2
467	3
468	1
469	2
470	6
471	6
472	3
473	1
476	3
477	8
478	3
481	5
482	2
483	26
484	9
485	5
486	2
487	1
493	4
494	2
495	3
496	2
497	2
498	1
499	1
501	1
506	1
509	3
510	2
511	8
512	4
513	3
514	1
515	1
516	1
520	2
521	2
522	1
523	5
524	2
525	2
529	1
533	1
534	1
537	42
538	18
539	21
540	7
541	4
542	2
543	1
544	7
545	3
546	2
550	1
551	2
552	1
553	3
557	1
565	1
566	7
567	29
568	13
569	7
570	2
571	2
572	1
573	3
574	1
579	11
580	5
594	2
595	19
596	7
599	1
600	1
601	1
605	2
606	1
609	1
610	1
611	2
612	1
613	1
623	2
628	5
629	6
630	2
639	2
641	1
642	1
655	9
656	4
657	6
658	3
659	2
669	2
670	1
684	6
685	5
686	3
687	1
688	1
695	1
713	51
714	29
715	17
716	6
717	2
718	1
