Mass Spectrum: Ginkgolide B 3TMS
Formula: C29H48O10Si3
CAS: 480427-39-2
Molecular weight: 640
m/z	intensity
29	9
39	3
41	32
42	2
43	22
44	11
45	42
46	3
47	6
49	1
51	2
53	5
55	29
56	5
57	97
58	6
59	20
60	2
61	9
63	1
65	4
67	10
69	29
70	8
71	6
72	11
73	999
74	85
75	243
76	15
77	18
78	3
79	9
80	2
81	7
82	2
83	20
84	2
85	8
86	2
87	4
89	9
90	1
91	18
92	2
93	9
94	2
95	45
96	5
97	12
98	2
99	6
101	11
102	6
103	29
104	4
105	18
106	3
107	11
108	2
109	11
110	3
111	29
112	3
113	26
114	3
115	19
116	12
117	18
118	5
119	21
120	4
121	9
122	2
123	7
124	1
125	4
126	2
127	15
128	12
129	26
130	9
131	41
132	7
133	65
134	12
135	19
136	3
137	5
139	4
140	2
141	9
142	10
143	54
144	9
145	22
146	4
147	174
148	30
149	51
150	7
151	14
152	3
153	8
154	3
155	23
156	6
157	23
158	5
159	15
160	4
161	14
162	3
163	11
164	2
165	7
166	4
167	16
168	5
169	14
170	5
171	41
172	7
173	13
174	3
175	14
176	4
177	12
178	3
179	25
180	7
181	13
182	4
183	16
184	5
185	40
186	9
187	27
188	5
189	14
190	4
192	3
193	19
194	8
195	13
196	4
197	12
198	4
199	23
200	5
201	15
202	5
203	19
204	8
205	12
206	7
207	31
208	10
209	18
210	5
211	8
212	4
213	12
214	6
215	25
216	10
217	26
218	7
219	35
220	10
221	21
222	6
223	16
224	4
225	16
226	4
227	19
228	6
229	17
230	6
231	27
232	11
233	26
234	7
235	21
236	7
237	16
238	4
239	9
240	3
241	10
242	4
243	25
244	10
245	21
246	8
247	21
248	8
249	18
250	4
251	15
252	4
253	14
254	5
255	12
256	5
257	13
258	7
259	22
260	9
261	23
262	6
263	25
264	7
265	19
266	5
267	13
268	5
269	13
270	5
271	23
272	7
273	30
274	7
275	26
276	11
277	25
278	7
279	12
280	5
281	21
282	9
283	13
284	4
285	11
286	4
287	35
288	13
289	29
290	8
291	14
292	5
293	11
294	3
295	5
296	3
297	9
298	4
299	14
300	5
301	18
302	5
303	16
304	5
305	14
306	5
307	8
308	3
309	10
310	4
311	6
312	3
313	4
314	2
315	15
316	6
317	21
318	6
319	13
320	4
321	10
322	7
323	8
324	2
325	7
326	3
327	11
328	4
329	8
330	3
331	16
332	6
333	28
334	8
335	12
336	3
337	9
338	6
339	7
340	2
341	4
342	2
343	9
344	2
345	20
346	6
347	9
348	2
349	6
350	2
351	3
352	1
353	16
354	6
355	7
357	4
359	4
360	4
361	15
362	5
363	13
364	3
365	9
366	5
367	4
368	2
369	2
371	5
372	3
373	7
374	3
375	3
377	12
378	5
379	12
380	3
381	4
382	3
383	5
384	1
387	2
388	3
389	16
390	5
391	29
392	9
393	7
394	3
395	3
399	4
400	2
401	5
402	2
403	2
404	1
405	6
406	2
407	6
408	2
409	4
411	2
412	5
413	2
415	1
417	5
418	2
419	1
420	1
421	5
422	2
423	6
424	2
425	1
427	1
433	3
434	2
435	13
436	4
437	5
438	1
439	1
442	1
443	1
445	4
446	1
447	2
449	2
450	1
451	4
456	2
461	2
462	1
463	3
464	1
465	2
466	1
474	1
479	13
480	5
481	2
482	1
489	2
491	7
492	2
493	2
494	1
506	1
507	11
508	4
509	2
517	2
519	1
525	3
526	1
527	1
533	1
535	2
536	1
539	15
540	6
541	2
542	1
553	1
554	1
567	20
568	10
569	5
570	2
581	64
582	30
583	14
584	3
585	1
597	13
598	5
599	3
607	2
608	1
625	201
626	94
627	43
628	13
629	2
630	1
