Mass Spectrum: Benzenamine, 2-cyclohexyl-
Formula: C12H17N
CAS: 4806-81-9
Molecular weight: 175
m/z	intensity
41	140
42	60
43	90
50	35
51	40
52	30
53	50
54	30
55	70
56	40
57	50
58	10
70	30
71	15
73	40
74	10
75	40
76	25
77	170
78	35
79	80
80	20
81	40
89	35
90	55
91	140
92	40
93	170
94	30
104	30
105	75
106	999
107	180
115	80
116	30
117	150
118	280
119	220
120	70
130	100
131	75
132	760
133	160
134	70
146	75
174	60
175	550
176	130
