Mass Spectrum: Nerinine
Formula: C19H25NO5
CAS: 481-44-7
Molecular weight: 347
m/z	intensity
42	92
43	10
44	23
45	4
47	13
48	6
49	68
50	4
51	27
52	5
53	15
54	7
55	10
56	2
57	4
58	1
59	1
60	0
62	1
63	4
64	2
65	13
66	10
67	18
68	5
69	3
70	2
71	2
72	1
73	0
74	0
75	1
76	2
77	15
78	7
79	11
80	9
81	26
82	38
83	5
84	37
85	0
86	25
87	1
88	4
89	3
90	3
91	11
92	6
93	17
94	30
95	6
96	10
97	2
98	1
99	1
100	1
101	1
102	2
103	2
104	2
105	4
106	7
107	11
108	223
109	999
110	55
111	5
112	1
113	1
114	1
115	6
116	1
117	3
118	3
119	3
120	6
121	4
122	4
123	2
124	1
125	1
126	0
127	3
128	4
129	2
130	2
131	2
132	4
133	3
134	8
135	4
136	3
137	3
138	2
139	2
140	0
141	2
142	1
143	1
144	2
145	1
146	1
147	2
148	2
149	3
150	2
151	5
152	4
153	2
154	1
155	1
156	1
157	1
158	1
160	4
161	1
162	2
163	4
164	2
165	3
166	2
167	4
168	2
169	1
170	1
171	1
172	1
173	1
174	1
175	1
176	1
177	3
178	2
179	3
180	1
181	2
182	1
183	0
184	1
185	0
186	0
187	0
188	0
189	1
190	0
191	3
192	1
193	2
194	1
195	7
196	1
197	0
198	0
199	0
200	0
201	0
202	0
203	0
204	0
205	2
206	0
207	3
208	1
209	3
210	2
211	0
212	0
213	0
214	0
215	0
216	0
219	0
220	0
221	7
222	1
223	2
224	0
225	0
226	0
227	0
228	0
229	0
230	0
236	0
237	1
238	2
239	0
240	0
241	0
242	0
243	0
244	0
252	0
254	0
255	0
256	0
257	0
258	0
266	0
268	0
269	0
270	0
271	0
272	0
274	0
284	0
285	0
286	0
288	0
296	0
298	0
300	0
327	0
329	0
330	3
331	0
346	0
347	1
348	0
