Mass Spectrum: Estr-4-en-3-one
Formula: C18H26O
CAS: 4811-77-2
Molecular weight: 258
m/z	intensity
40	99
41	999
42	127
43	192
44	24
50	17
51	89
52	75
53	326
54	65
55	515
56	37
57	65
58	6
59	3
60	3
62	3
63	24
64	17
65	247
66	82
67	446
68	68
69	89
70	30
71	37
72	10
73	10
74	3
75	6
76	17
77	378
78	130
79	515
80	140
81	312
82	48
83	48
84	6
85	6
86	24
87	13
89	13
90	13
91	481
92	113
93	323
94	158
95	343
96	48
97	34
98	3
100	6
101	6
102	10
103	51
104	51
105	219
106	120
107	257
108	127
109	161
110	859
111	79
112	10
113	10
114	3
115	72
116	34
117	113
118	41
119	130
120	147
121	144
122	134
123	161
124	24
127	13
128	41
129	54
130	24
131	106
132	44
133	240
134	113
135	347
136	85
137	20
141	17
142	13
143	27
144	24
145	68
146	48
147	109
148	230
149	515
150	127
151	13
152	3
153	3
154	3
155	10
156	6
157	17
158	17
159	75
160	41
161	75
162	58
163	37
164	6
165	3
167	27
168	6
169	10
170	6
171	13
172	13
173	68
174	106
175	37
176	24
177	6
183	6
184	3
185	17
186	34
187	113
188	79
189	17
190	3
197	13
198	6
199	6
200	24
201	123
202	61
203	10
207	3
211	3
212	3
213	3
214	6
215	44
216	161
217	27
218	3
225	24
226	3
229	10
230	123
231	20
232	3
240	20
241	3
243	120
244	24
257	6
258	343
259	96
260	13
