Mass Spectrum: 1-Hexene, 6-nitro-
Formula: C6H11NO2
CAS: 4812-17-3
Molecular weight: 129
m/z	intensity
26	40
27	270
28	110
29	290
30	70
31	20
37	10
38	30
39	440
40	70
41	999
42	120
44	20
45	40
46	90
50	30
51	40
52	20
53	190
54	360
55	920
56	80
57	290
58	20
59	10
60	20
62	200
63	10
65	30
66	40
67	300
68	250
69	40
70	10
71	30
72	10
77	20
78	10
79	90
80	30
81	250
82	40
83	40
84	40
85	20
88	20
93	20
94	40
95	60
96	20
97	10
98	10
128	2
129	2
