Mass Spectrum: 2-Butene, 2-nitro-
Formula: C4H7NO2
CAS: 4812-23-1
Molecular weight: 101
m/z	intensity
11	18
17	3
18	11
26	25
27	284
29	426
30	131
36	11
38	15
39	357
41	2
42	6
43	52
46	55
48	17
50	41
51	54
53	299
54	95
55	999
56	92
57	100
58	150
69	13
98	14
101	367
102	19
