Mass Spectrum: 3-Chloro-5-nitroindazole
Formula: C7H4ClN3O2
CAS: 4812-45-7
Molecular weight: 197
m/z	intensity
26	3
27	3
29	2
30	41
35	2
36	4
37	27
38	58
39	27
40	6
41	9
43	3
44	2
46	16
47	5
48	3
49	22
50	44
51	60
52	107
53	22
54	3
58	3
60	11
61	99
62	212
63	171
64	79
65	62
66	8
67	1
71	2
72	21
73	55
74	33
75	48
76	73
77	48
78	26
79	7
80	7
81	1
84	20
85	40
86	93
87	159
88	145
89	168
90	43
91	3
95	2
96	25
97	56
98	25
99	24
100	10
101	3
102	2
103	152
104	31
105	11
106	2
108	1
109	1
110	6
111	2
112	38
113	4
114	17
115	57
116	999
117	85
118	3
120	4
121	7
122	40
123	9
124	195
125	15
126	58
127	4
130	5
131	1
132	20
133	3
134	1
138	1
139	148
140	10
141	48
142	4
149	1
150	12
151	301
152	30
153	98
154	8
165	2
167	555
168	48
169	182
170	15
181	17
182	1
183	5
197	870
198	78
199	286
200	25
201	1
