Mass Spectrum: Pyridine, 2-ethyl-, 1-oxide
Formula: C7H9NO
CAS: 4833-24-3
Molecular weight: 123
m/z	intensity
37	20
38	40
39	140
40	20
41	20
43	20
49	10
50	70
51	180
52	130
53	80
54	30
60	10
61	10
62	20
63	40
64	20
65	80
66	20
67	10
74	20
75	20
76	20
77	100
78	430
79	230
80	60
92	30
93	20
94	10
95	20
96	20
104	60
105	50
106	999
107	270
108	30
109	10
122	50
123	300
124	30
