Mass Spectrum: 4-Aminoisoxazolidin-3-one
Formula: C3H6N2O2
CAS: 4834-58-6
Molecular weight: 102
m/z	intensity
26	21
27	101
28	678
29	681
30	510
31	80
33	47
38	8
39	14
40	30
41	84
42	306
43	999
44	97
45	49
53	8
55	21
56	14
57	16
58	52
59	499
60	52
69	9
71	5
72	19
73	7
74	259
75	10
102	137
103	6
