Mass Spectrum: l-Histidinol
Formula: C6H11N3O
CAS: 4836-52-6
Molecular weight: 141
m/z	intensity
15	24
26	7
27	18
28	128
29	16
30	52
31	19
39	21
40	14
41	35
42	148
43	33
44	5
45	1
50	1
51	3
52	11
53	14
54	107
55	89
56	58
57	5
58	2
59	8
60	230
61	5
64	1
65	2
66	14
67	8
68	11
69	13
70	2
71	1
78	2
79	2
80	8
81	244
82	999
83	136
84	6
85	1
91	3
92	1
93	49
94	11
95	15
96	2
99	1
106	1
107	3
108	2
109	13
110	266
111	46
112	2
122	4
123	12
124	1
125	1
141	1
142	1
