Mass Spectrum: 2-(para-Tolylsulfonyl)-acetic acid hydrazide
Formula: C9H12N2O3S
CAS: 4837-35-8
Molecular weight: 228
m/z	intensity
13	1
14	10
15	9
16	4
17	27
18	148
24	1
25	5
26	24
27	20
28	118
29	20
30	8
31	65
32	430
33	5
34	8
37	2
38	7
39	66
40	9
41	34
42	44
43	97
44	24
45	25
46	4
47	2
48	18
49	2
50	19
51	38
52	10
53	8
54	1
55	54
56	5
57	7
58	3
59	3
60	4
61	7
62	18
63	50
64	67
65	206
66	15
67	8
68	1
69	8
70	2
71	5
72	5
73	969
74	36
75	7
76	4
77	53
78	20
79	33
80	8
81	2
82	2
83	3
84	3
85	8
86	4
87	3
88	1
89	56
90	32
91	999
92	262
93	42
94	4
95	4
96	2
97	4
98	1
99	2
102	2
103	6
104	6
105	29
106	16
107	43
108	21
109	6
110	2
111	7
112	1
113	1
115	1
116	2
117	2
118	3
119	8
120	5
121	14
122	9
123	40
124	138
125	12
126	7
127	1
128	1
129	1
130	1
131	1
132	18
133	2
134	1
135	2
136	1
137	1
138	2
139	72
140	90
141	11
142	4
146	2
147	80
148	46
149	9
150	1
151	1
152	1
153	1
154	1
155	195
156	21
157	21
158	2
162	1
163	1
164	69
165	8
166	1
167	1
170	10
171	1
176	2
179	1
182	1
195	3
196	1
197	11
198	2
199	1
211	1
228	160
229	23
230	9
231	1
