Mass Spectrum: Tropinone, 6.beta.-methoxy-, (+)-
Formula: C9H15NO2
CAS: 4839-12-7
Molecular weight: 169
m/z	intensity
41	283
42	999
43	119
44	31
45	52
53	68
54	79
55	132
56	52
57	31
58	31
79	37
81	47
82	439
83	965
84	97
85	31
94	153
96	74
97	37
110	92
111	986
112	190
169	132
170	23
