Mass Spectrum: Nitrobenzene, 3-fluoro-2-methoxy-
Formula: C7H6FNO3
CAS: 484-94-6
Molecular weight: 171
m/z	intensity
46	39
50	119
51	115
52	23
53	63
56	98
57	127
61	68
62	70
63	208
64	21
65	76
68	111
69	100
70	166
71	32
75	495
76	128
77	168
80	31
81	356
82	505
83	408
84	42
92	37
93	47
94	141
95	999
96	236
97	148
98	92
110	509
111	844
112	118
113	44
124	58
138	6
141	893
142	65
171	586
172	47
