Mass Spectrum: Cyclohexanecarboxylic acid, ethenyl ester
Formula: C9H14O2
CAS: 4840-76-0
Molecular weight: 154
m/z	intensity
28	105
29	135
30	2
31	4
32	6
36	0
37	5
38	14
39	207
40	33
41	409
42	73
43	82
44	25
45	15
46	0
47	0
48	0
49	1
50	13
51	26
52	11
53	66
54	74
55	641
56	29
57	3
58	0
59	0
60	6
61	0
62	1
63	3
64	0
65	9
66	7
67	108
68	16
69	4
70	2
71	3
72	0
73	3
74	1
75	1
76	0
77	16
78	4
79	17
80	4
81	45
82	36
83	999
84	68
85	2
86	1
87	1
88	0
89	0
90	0
91	1
92	1
93	1
94	1
95	1
96	0
97	0
98	0
99	1
100	0
101	0
102	0
103	0
104	0
105	7
106	0
107	0
108	1
109	4
110	2
111	296
112	23
113	1
114	0
115	0
116	0
117	0
118	0
119	0
120	0
121	0
122	0
123	0
124	0
125	0
126	0
127	0
128	0
129	0
130	0
135	0
136	0
154	2
155	0
