Mass Spectrum: N-Nitrosotomatidine
Formula: C27H44N2O3
CAS: 4847-05-6
Molecular weight: 444
m/z	intensity
41	654
42	195
43	485
44	88
45	25
47	6
49	17
50	5
51	14
52	2
53	136
54	99
55	999
56	177
57	471
58	88
59	48
60	8
65	48
66	17
67	398
68	130
69	409
70	107
71	59
72	9
73	7
77	123
78	20
79	353
80	71
81	331
82	87
83	205
84	99
85	24
86	26
87	5
91	271
92	50
93	343
94	95
95	263
96	98
97	62
98	49
99	36
100	7
101	5
103	15
105	215
106	48
107	260
108	100
109	135
110	57
111	49
112	57
113	55
114	117
115	31
116	11
117	55
118	17
119	119
120	45
121	149
122	109
123	53
124	60
125	52
126	25
127	11
128	17
129	28
130	14
131	67
132	19
133	119
134	40
135	69
136	34
137	22
138	112
139	24
140	17
141	17
142	28
143	29
144	13
145	67
146	24
147	122
148	38
149	49
150	35
151	24
152	22
153	7
155	11
156	2
157	28
158	10
159	62
160	19
161	204
162	60
163	38
164	42
165	123
166	48
167	13
168	4
170	24
171	18
172	7
173	39
174	13
175	27
176	40
177	26
178	29
179	9
180	6
183	7
184	3
185	15
186	6
187	19
188	7
189	16
190	14
191	10
192	8
197	6
199	15
200	6
201	18
202	9
203	6
204	3
205	1
211	2
213	10
214	6
215	18
216	9
217	18
218	9
219	3
227	7
229	7
230	1
231	5
232	10
234	1
241	3
243	1
245	10
246	7
253	9
255	51
256	12
257	4
258	6
269	13
270	3
271	29
273	419
274	80
275	11
285	25
286	6
287	32
288	11
300	1
302	16
303	6
314	1
342	2
343	14
344	6
355	33
357	551
358	136
359	20
369	23
371	333
372	87
373	14
380	6
384	3
385	16
386	11
387	8
396	1
398	32
400	352
401	91
402	15
412	36
414	515
415	144
416	24
417	3
427	4
442	4
444	58
445	14
