Mass Spectrum: 3-Piperidino-1,2-propanediol
Formula: C8H17NO2
CAS: 4847-93-2
Molecular weight: 159
m/z	intensity
15	4
17	3
18	10
26	1
27	9
28	17
29	12
30	15
31	6
32	1
39	9
40	2
41	52
42	54
43	21
44	40
45	4
51	1
52	1
53	4
54	7
55	65
56	27
57	16
58	4
60	3
61	2
65	1
67	8
68	8
69	35
70	63
71	7
72	7
73	1
74	4
77	1
79	2
80	3
81	4
82	9
83	17
84	51
85	27
86	5
91	1
92	1
93	1
94	2
95	3
96	23
97	9
98	999
99	76
100	7
105	1
108	1
109	2
110	8
111	3
112	5
113	3
114	1
115	1
116	1
117	1
118	1
119	1
120	1
121	1
122	1
123	2
124	9
125	5
126	7
127	7
128	170
129	14
130	2
135	2
137	1
138	1
139	1
140	3
141	4
142	4
143	2
144	1
154	1
155	1
156	3
157	2
158	6
159	23
160	6
161	1
