Mass Spectrum: Karbutilate
Formula: C14H21N3O3
CAS: 4849-32-5
Molecular weight: 279
m/z	intensity
14	4
15	82
16	0
26	10
27	41
28	42
29	83
30	19
37	3
38	17
39	46
40	21
41	109
42	75
43	24
44	205
45	215
46	48
50	11
51	20
52	35
53	22
54	6
55	21
56	87
57	182
58	32
62	1
63	21
64	23
65	19
68	16
69	2
71	36
72	999
73	69
74	5
77	1
78	10
79	21
80	13
81	21
82	5
84	196
85	20
90	15
91	14
92	3
93	15
94	0
106	11
107	13
108	31
109	23
110	31
118	3
122	16
123	8
134	19
135	379
136	67
137	8
151	19
162	0
163	52
164	9
165	9
179	74
180	723
181	94
182	11
279	15
