Mass Spectrum: Pancracine, O3-methyl-, (3.alpha.)-
Formula: C17H19NO4
CAS: 485-59-6
Molecular weight: 301
m/z	intensity
42	999
43	302
44	101
45	307
46	9
47	7
48	2
49	54
50	98
51	314
52	94
53	177
54	75
55	216
56	89
57	82
58	209
59	101
60	19
61	27
62	58
63	243
64	141
65	204
66	56
67	57
68	54
69	54
70	58
71	108
72	42
73	21
74	56
75	104
76	175
77	407
78	198
79	87
80	39
81	50
82	58
83	65
84	68
85	25
86	34
87	60
88	54
89	204
90	68
91	163
92	85
93	35
94	23
95	16
96	13
97	20
98	36
99	28
100	29
101	61
102	135
103	133
104	46
105	47
106	155
108	12
109	11
110	7
111	15
113	84
114	106
115	508
116	150
117	73
118	33
119	20
120	29
121	35
122	19
123	9
124	11
125	12
126	76
127	274
128	407
129	188
130	70
131	47
132	12
133	8
134	11
135	90
136	18
137	7
138	9
139	165
140	66
141	229
142	64
143	71
144	40
145	24
146	15
147	46
148	61
149	45
150	17
151	40
152	161
153	186
154	122
155	110
156	75
157	91
158	18
159	51
160	53
161	65
162	38
163	18
164	15
165	113
166	50
167	84
168	53
169	102
170	32
171	87
172	145
173	171
174	150
175	104
176	69
177	14
178	12
179	8
180	23
181	223
182	65
183	52
184	45
185	667
186	207
187	93
188	60
189	25
190	8
191	5
192	13
193	41
194	20
195	18
196	23
197	163
198	146
199	386
200	140
201	86
202	78
203	15
204	26
205	21
206	4
207	2
208	4
209	52
210	41
211	153
212	216
213	102
214	559
215	243
216	40
217	12
218	6
219	0
220	3
221	3
222	17
223	175
224	137
225	107
226	172
227	83
228	43
229	23
230	8
231	3
236	0
237	6
238	60
239	41
240	154
241	154
242	269
243	666
244	111
245	16
246	2
250	12
251	11
252	107
253	30
254	27
255	11
256	35
257	13
258	20
259	6
266	2
267	0
268	192
269	335
270	271
271	79
272	21
273	8
274	0
282	8
283	5
284	44
285	11
286	78
287	15
288	1
299	8
300	131
301	929
302	180
303	25
304	2
