Mass Spectrum: Cyclopentaneethanol, 2-(hydroxymethyl)-.beta.,3-dimethyl-
Formula: C10H20O2
CAS: 485-42-7
Molecular weight: 172
m/z	intensity
27	275
28	68
29	380
30	33
31	760
32	19
39	308
40	68
41	655
42	101
43	303
44	35
45	71
51	74
52	33
53	110
54	71
55	550
56	82
57	242
58	101
59	38
65	71
66	35
67	440
68	165
69	212
70	71
71	101
72	35
77	101
78	38
79	165
80	99
81	999
82	165
83	137
84	137
85	35
91	71
92	33
93	137
94	101
95	380
96	99
98	71
107	68
108	33
109	99
110	68
111	99
112	33
121	137
122	44
123	661
124	170
125	33
136	33
137	33
139	33
141	71
