Mass Spectrum: 1-Phenylpropane-1,3-diol
Formula: C9H12O2
CAS: 4850-49-1
Molecular weight: 152
m/z	intensity
37	0
38	5
39	60
40	4
41	12
42	5
43	83
44	5
45	20
46	2
50	40
51	156
52	41
53	26
54	1
55	21
56	9
57	7
58	8
59	1
62	5
63	21
64	3
65	24
66	3
67	3
68	1
69	1
71	2
73	13
74	8
75	16
76	15
77	439
78	130
79	755
80	50
81	2
83	0
85	0
87	0
89	9
90	4
91	50
92	17
93	4
94	2
95	3
97	0
101	0
102	7
103	57
104	51
105	275
106	58
107	999
108	103
109	6
113	1
115	8
116	2
117	10
118	9
119	2
120	1
121	2
131	0
132	2
133	71
134	74
135	10
136	0
147	1
150	0
151	2
152	168
153	14
154	0
