Mass Spectrum: Phosphoric acid, ethenyl diethyl ester
Formula: C6H13O4P
CAS: 4851-64-3
Molecular weight: 180
m/z	intensity
45	285
54	408
57	71
65	116
71	123
81	805
82	65
91	134
93	121
99	659
107	171
109	999
111	37
124	244
125	415
127	244
136	82
137	293
151	100
152	92
153	512
179	17
180	512
