Mass Spectrum: 1H-Pyrrole-2,5-dione, 1,1'-(1,6-hexanediyl)bis-
Formula: C14H16N2O4
CAS: 4856-87-5
Molecular weight: 276
m/z	intensity
29	12
30	36
31	1
32	13
36	2
37	0
38	0
39	13
40	19
41	105
42	12
43	10
44	9
45	0
46	0
49	0
54	100
55	83
56	50
57	4
58	2
59	1
60	0
62	0
64	0
65	2
66	4
67	24
68	21
69	62
70	35
71	5
72	3
73	0
74	0
77	1
78	17
79	27
80	247
81	213
82	262
83	78
84	45
85	9
86	1
90	0
91	0
92	1
93	4
94	10
95	16
96	46
97	26
98	144
99	114
100	29
101	1
102	0
104	1
105	1
106	3
107	2
108	32
109	8
110	999
111	252
112	110
113	18
114	5
115	0
116	0
117	0
118	1
119	2
120	4
121	2
122	15
123	26
124	57
125	31
126	5
127	7
128	0
131	0
132	5
133	2
134	10
135	8
136	57
137	10
138	42
139	12
140	2
141	0
143	0
145	0
146	3
147	0
148	16
149	16
150	47
151	18
152	70
153	96
154	10
155	1
159	7
160	7
161	7
162	3
163	1
164	22
165	4
166	97
167	11
168	1
169	0
173	0
174	0
175	3
176	2
177	70
178	49
179	76
180	11
181	0
187	0
189	0
191	1
192	2
193	51
194	13
195	203
196	23
197	5
198	0
202	1
203	2
204	1
205	0
206	1
207	0
209	0
211	0
213	0
216	0
217	5
218	1
219	2
220	3
221	4
222	1
223	0
229	0
230	2
231	12
232	2
233	1
234	1
235	0
241	0
243	0
247	2
248	12
249	2
257	1
258	15
259	4
260	0
261	0
275	2
276	250
277	41
278	6
279	1
