Mass Spectrum: Borane-morpholine complex
Formula: C4H12BNO
CAS: 4856-95-5
Molecular weight: 101
m/z	intensity
11	3
12	11
13	40
14	6
15	56
16	2
17	2
18	40
19	3
24	2
25	8
26	52
27	224
28	491
29	646
30	235
31	35
32	5
35	3
36	6
37	13
38	19
39	122
40	402
41	298
42	459
43	134
44	396
45	37
46	4
47	9
48	2
49	1
50	3
51	10
52	23
53	49
54	187
55	59
56	350
57	746
58	67
59	15
60	1
61	4
62	11
63	1
64	5
65	17
66	26
67	117
68	366
69	137
70	478
71	85
72	80
73	3
78	1
79	3
80	8
81	3
82	8
83	11
84	43
85	7
86	236
87	607
88	39
89	2
95	4
96	14
97	113
98	485
99	462
100	999
101	49
102	3
