Mass Spectrum: 1,3,4-Thiodiazole-2(3H)-thione, 5-dodecylthio-
Formula: C14H26N2S3
CAS: 4858-31-5
Molecular weight: 318
m/z	intensity
33	8
34	5
35	3
36	1
37	2
39	177
41	999
43	974
45	157
46	45
47	43
48	3
49	2
50	5
51	13
53	75
55	624
56	102
57	361
59	183
60	83
61	26
62	6
64	89
65	18
66	16
67	64
69	264
70	40
71	123
73	91
74	61
76	68
77	49
78	10
79	19
80	6
81	27
82	16
83	85
84	16
85	59
87	215
88	68
89	17
90	25
91	18
92	25
93	20
94	16
95	13
96	11
97	42
98	10
99	9
101	155
102	54
103	12
104	13
105	8
106	3
107	3
108	2
109	4
110	5
111	11
112	6
113	12
114	19
115	41
116	31
117	26
118	17
119	37
120	6
121	5
122	3
123	3
124	3
125	4
126	5
127	14
128	10
129	38
130	10
131	6
132	10
133	12
134	3
135	2
136	1
137	3
138	2
139	3
140	4
141	5
142	9
143	36
144	13
145	42
146	8
147	15
150	741
151	326
152	107
153	45
154	8
155	5
157	30
158	6
159	18
160	5
161	2
164	95
166	22
167	2
168	3
169	3
170	6
171	13
172	3
173	8
174	2
175	4
177	32
178	19
179	9
180	4
181	1
183	7
184	8
185	30
186	5
187	8
188	2
189	2
190	2
191	2
192	12
193	1
194	3
195	1
196	0
197	2
198	2
199	19
200	37
201	22
202	8
203	3
204	4
205	22
206	3
207	3
208	0
209	1
211	11
212	3
213	3
215	10
216	3
217	2
219	20
220	4
221	2
222	0
224	0
225	3
226	19
227	4
229	8
230	3
231	2
232	4
233	10
234	3
235	1
239	4
240	0
241	1
243	8
244	2
245	1
246	2
247	12
248	3
249	1
250	0
253	0
255	0
257	14
258	3
259	3
261	18
262	4
263	2
264	0
269	0
271	95
272	15
273	9
275	17
276	3
277	2
278	0
281	3
285	443
286	74
287	44
288	7
289	14
290	2
291	2
299	8
300	1
301	1
303	5
304	0
305	0
313	2
314	2
315	3
318	395
319	73
320	55
321	14
322	3
323	0
324	1
326	0
