Mass Spectrum: Trans-6-methylbicyclo[4.4.0]decan-1-ol-3-one
Formula: C11H18O2
CAS: 4858-91-7
Molecular weight: 182
m/z	intensity
51	25
52	21
53	167
54	48
55	764
56	99
57	82
58	68
59	16
63	15
64	4
65	51
66	35
67	255
68	100
69	313
70	94
71	106
72	13
77	94
78	25
79	164
80	44
81	243
82	509
83	304
84	178
85	56
86	10
91	85
92	16
93	95
94	65
95	121
96	121
97	677
98	76
99	13
100	126
105	25
106	33
107	193
108	65
109	225
110	42
111	105
112	999
113	143
114	10
120	10
121	80
122	130
123	35
124	73
125	409
126	106
127	16
131	10
135	18
136	53
137	10
138	9
139	21
140	24
149	53
150	6
153	7
155	6
164	73
165	15
167	27
168	7
182	260
183	31
184	2
