Mass Spectrum: 1,3-Dioxane-4,6-dione, 5,5-dimethyl-2-(1-methylethylidene)-
Formula: C9H12O4
CAS: 4858-67-7
Molecular weight: 184
m/z	intensity
39	335
40	973
41	979
42	184
43	97
53	295
54	60
55	932
56	385
57	194
69	328
70	999
71	389
81	43
82	395
83	94
98	83
110	181
111	395
