Mass Spectrum: Methyl 2,3,4,6-tetra-O-acetyl-.beta.-D-glucopyranoside
Formula: C15H22O10
CAS: 4860-85-9
Molecular weight: 362
m/z	intensity
55	59
57	59
59	49
60	69
61	119
68	29
69	569
70	489
71	149
73	219
74	459
75	39
80	99
81	949
82	79
83	49
84	49
85	269
86	99
87	409
88	19
97	199
98	799
99	579
100	59
101	29
102	759
103	819
104	39
109	269
110	29
111	39
112	659
113	99
115	999
116	369
117	59
123	9
125	19
126	69
127	409
128	89
129	169
139	109
140	579
141	519
142	49
144	399
145	689
157	879
158	229
159	49
168	19
169	449
170	49
171	49
182	109
183	59
187	39
199	119
200	439
201	69
211	29
217	16
229	23
242	179
243	239
244	39
259	10
271	15
289	19
331	38
