Mass Spectrum: Thiophene, 2-pentyl-
Formula: C9H14S
CAS: 4861-58-9
Molecular weight: 154
m/z	intensity
25	3
26	2
27	39
28	5
29	27
32	1
34	12
35	2
36	1
37	4
38	9
39	34
40	8
41	42
43	1
45	66
47	4
48	8
49	6
50	5
51	12
53	30
54	2
57	9
58	15
60	2
61	3
63	8
65	6
66	7
67	9
68	1
69	7
70	3
71	5
72	3
73	4
76	2
77	6
78	6
79	2
80	3
82	3
83	5
84	17
85	9
86	4
87	3
91	3
93	2
94	3
95	4
97	999
98	105
99	32
100	4
101	3
103	3
105	2
106	3
108	1
109	3
110	1
111	26
112	1
115	4
119	1
120	4
122	2
123	3
125	2
126	2
127	1
128	1
136	2
139	1
143	2
146	2
147	1
148	3
154	84
155	9
156	1
157	4
