Mass Spectrum: (2E,4E)-1-(Piperidin-1-yl)hexadeca-2,4-dien-1-one
Formula: C21H37NO
CAS: 486447-33-0
Molecular weight: 319
m/z	intensity
27	67
29	128
37	4
38	9
39	103
41	542
42	72
43	413
52	21
53	188
54	72
55	391
56	113
57	197
58	33
64	18
65	51
66	186
67	250
68	78
69	325
77	108
78	24
79	175
80	34
81	625
82	129
83	123
84	999
85	114
86	40
93	53
94	63
95	171
96	48
97	37
101	16
105	57
107	93
108	32
109	88
112	199
115	144
116	40
118	18
120	15
121	31
122	42
123	54
124	45
125	42
127	113
128	44
129	30
130	24
131	80
132	70
133	36
134	44
137	74
138	471
139	158
143	29
144	23
150	91
151	49
152	95
153	35
155	12
156	14
158	8
160	16
161	19
163	14
164	714
165	114
174	21
175	35
176	23
178	304
179	139
180	43
181	17
187	9
192	716
193	115
195	36
202	22
203	58
206	115
220	83
221	17
234	67
235	29
248	81
262	67
276	48
277	14
290	29
291	7
293	4
302	79
303	14
304	34
318	65
319	276
320	58
321	6
