Mass Spectrum: Cyclohexanone, 3-methyl-, (2,4-dinitrophenyl)hydrazone
Formula: C13H16N4O4
CAS: 4864-46-4
Molecular weight: 292
m/z	intensity
37	22
38	81
39	445
40	95
41	999
42	136
43	122
44	10
46	10
50	73
51	185
52	136
53	418
54	177
55	527
56	92
57	18
61	25
62	122
63	327
64	122
65	95
66	70
67	409
68	155
69	381
70	28
74	79
75	390
76	139
77	245
78	381
79	363
80	59
81	309
82	68
83	37
87	11
88	40
89	59
90	76
91	103
92	92
93	100
94	57
95	318
96	50
97	10
102	21
103	48
104	49
105	33
106	48
107	29
108	23
109	10
110	46
111	19
113	227
114	19
115	60
116	62
117	31
118	21
119	27
120	14
122	119
123	11
127	21
128	65
129	42
130	57
131	42
132	24
133	12
135	19
136	19
137	15
141	29
142	27
143	29
144	28
145	22
149	17
150	13
152	87
153	46
154	15
155	19
156	26
157	34
158	16
159	14
162	16
164	12
165	59
166	11
167	16
168	21
169	17
170	18
171	21
172	14
175	26
176	11
177	17
180	15
181	30
182	17
183	28
184	14
185	12
188	12
189	19
190	19
191	18
196	24
199	12
202	25
203	26
204	10
211	13
215	10
216	10
217	33
219	27
229	11
231	9
245	11
257	29
258	10
275	9
276	13
277	12
292	318
293	59
294	9
