Mass Spectrum: 4,5-Isoxazoledione, 3-phenyl-, 4-(phenylhydrazone)
Formula: C15H11N3O2
CAS: 4865-99-0
Molecular weight: 265
m/z	intensity
51	240
52	110
53	30
54	20
55	20
61	20
62	40
63	130
64	230
65	330
66	150
67	30
73	20
74	50
75	90
76	230
77	820
78	100
79	10
87	10
88	30
89	60
90	40
91	999
92	180
93	340
94	30
101	10
102	20
103	660
104	230
105	80
114	10
115	50
116	30
117	30
118	150
119	20
127	20
128	30
129	210
130	50
131	40
132	20
144	30
145	40
146	20
157	40
158	10
159	10
160	60
161	10
162	70
163	10
219	20
220	130
221	30
232	30
233	10
264	20
265	270
266	50
267	10
