Mass Spectrum: 11-Hydroxyetiocholanolone (3.alpha.,5.beta.,11.beta.)-, TMS derivative
Formula: C22H38O3Si
CAS: 4867-16-7
Molecular weight: 378
m/z	intensity
41	949
42	100
43	700
44	100
45	280
46	20
47	180
48	9
49	9
50	20
51	20
52	20
53	209
54	69
55	989
56	100
57	220
58	49
59	200
60	49
61	249
62	20
63	20
65	109
66	49
67	800
68	149
69	420
70	100
71	149
72	89
73	999
74	209
75	999
76	180
77	389
78	100
79	709
80	149
81	800
82	120
83	249
84	149
85	109
86	9
87	20
89	69
90	9
91	700
92	200
93	800
94	509
95	749
96	200
97	560
98	100
99	80
100	9
101	149
102	20
103	100
104	80
105	649
106	509
107	789
108	389
109	500
110	200
111	149
112	20
113	100
114	80
115	649
116	509
117	789
118	40
119	49
120	189
121	149
122	29
123	49
124	9
125	109
126	100
127	120
128	380
129	480
130	200
131	380
132	209
133	349
134	189
135	289
136	100
137	120
138	20
139	49
140	9
141	49
142	149
143	200
144	169
145	380
146	180
147	449
148	200
149	480
150	129
151	80
152	80
153	20
154	20
155	269
156	100
157	200
158	109
159	300
160	180
161	209
162	100
163	149
164	49
165	120
166	20
167	89
168	9
169	109
170	49
171	200
172	149
173	200
174	320
175	349
176	109
177	149
178	229
179	100
180	9
181	29
182	29
183	100
184	20
185	149
186	80
187	120
188	100
189	100
190	29
191	180
192	149
193	49
195	80
196	49
197	100
198	29
199	200
200	49
201	89
202	49
203	49
204	9
205	120
206	29
207	49
209	29
211	100
212	89
213	229
214	160
215	180
216	249
217	100
218	20
219	49
221	9
225	20
226	100
227	149
228	120
229	280
230	80
231	449
232	129
233	80
234	100
235	9
237	120
238	9
241	60
242	160
243	80
244	149
245	100
246	49
247	100
251	9
252	100
253	89
255	300
256	80
257	9
259	49
260	49
269	100
270	849
271	220
272	9
273	589
274	120
275	9
287	998
288	998
289	200
290	9
360	180
361	49
362	9
377	9
378	209
379	80
380	9
