Mass Spectrum: Uracil, 1-benzyl-5-fluoro-
Formula: C11H9FN2O2
CAS: 4871-13-0
Molecular weight: 220
m/z	intensity
33	3
34	0
37	2
39	61
40	8
41	13
42	1
43	4
44	12
45	14
47	0
49	1
50	17
51	34
52	11
53	3
54	0
55	0
56	1
57	2
58	11
59	3
60	3
61	5
62	8
63	28
65	130
66	6
68	0
70	6
71	7
72	2
74	6
75	10
76	5
77	16
78	5
79	1
80	0
81	0
83	0
84	0
85	1
86	1
87	2
89	37
91	999
92	62
93	2
94	0
95	1
96	1
98	0
99	0
100	6
101	10
102	2
103	2
104	5
105	1
107	0
109	0
110	4
111	0
113	0
114	0
115	0
116	1
117	1
118	0
119	0
120	2
121	2
122	0
125	0
126	0
127	0
128	3
129	0
130	0
132	0
133	0
135	0
141	0
143	0
144	0
146	0
148	8
149	1
156	0
174	0
176	1
190	0
217	0
218	0
220	157
221	18
222	1
