Mass Spectrum: 5-Isoxazolecarboxylic acid, 4,5-dihydro-3-phenyl-
Formula: C10H9NO3
CAS: 4872-58-6
Molecular weight: 191
m/z	intensity
39	110
46	70
50	170
51	400
52	60
63	110
65	60
74	50
75	60
76	160
77	999
78	130
89	80
91	320
103	190
104	140
115	70
117	120
118	859
119	100
146	639
147	80
191	300
