Mass Spectrum: 2-Benzoyl-N-benzyl-4-chloroaniline
Formula: C20H16ClNO
CAS: 4873-58-9
Molecular weight: 321
m/z	intensity
31	212
35	4
36	29
38	7
39	24
40	53
41	18
42	33
43	9
44	22
45	188
46	13
51	27
52	84
53	9
56	6
58	11
59	4
62	4
63	50
64	8
65	101
66	6
69	5
70	5
71	5
72	24
74	13
75	26
76	17
77	153
78	22
79	23
83	5
84	7
85	4
86	73
87	4
89	31
90	20
91	999
92	68
93	5
96	5
97	9
98	4
99	6
100	4
101	5
102	6
103	8
104	19
105	86
106	317
107	28
110	5
111	14
112	5
113	5
115	4
117	7
122	55
123	19
125	3
126	5
129	4
132	6
134	35
135	5
138	5
139	9
140	4
149	3
150	4
151	13
152	19
153	5
154	5
161	8
164	4
165	13
166	19
167	26
168	8
179	8
180	21
181	16
182	4
186	4
193	4
195	8
200	5
201	8
202	6
207	4
208	5
214	36
215	9
216	28
217	7
218	8
228	7
229	4
230	29
231	5
232	6
242	16
243	21
244	38
245	10
246	12
256	9
257	4
258	4
269	7
283	5
284	9
286	4
290	13
303	13
304	39
305	21
306	12
319	12
320	97
321	247
322	73
323	72
324	18
