Mass Spectrum: 3,4-Dihydroisoquinoline, 1-benzyl-6,7-dimethoxy-
Formula: C18H19NO2
CAS: 4876-00-0
Molecular weight: 281
m/z	intensity
41	51
43	34
44	14
45	77
46	3
49	1
50	122
51	381
52	72
53	84
54	22
55	32
56	4
57	6
60	2
61	5
62	23
63	75
64	35
65	96
66	22
67	16
68	4
69	10
70	6
71	12
72	10
73	5
74	27
75	39
76	86
77	999
78	163
79	38
80	12
81	11
82	7
83	6
84	3
85	1
86	5
87	11
88	24
89	90
90	35
91	124
92	19
93	9
94	6
95	11
96	7
98	30
99	16
100	2
101	8
102	36
103	37
104	97
105	549
106	63
107	19
108	6
109	1
110	5
111	9
112	4
113	2
114	12
115	26
116	120
117	24
118	15
119	15
120	5
121	7
122	28
123	5
124	3
126	16
127	10
128	10
129	4
130	11
131	7
132	64
133	62
134	19
135	14
136	4
137	7
139	11
140	7
141	18
142	1
143	4
144	14
145	4
146	10
147	9
148	5
149	23
150	17
151	12
152	26
153	12
154	8
155	2
159	2
160	22
161	32
162	15
163	11
164	8
165	32
166	11
167	13
168	5
174	11
175	11
176	34
177	11
178	31
179	11
180	23
181	21
182	10
183	1
189	1
190	8
191	13
192	31
193	13
194	22
195	10
196	8
204	11
205	7
206	21
207	13
208	16
209	19
210	24
211	4
219	4
220	34
221	19
222	47
223	18
224	54
225	12
232	4
233	4
234	13
235	12
236	84
237	62
238	53
239	9
248	8
249	20
250	142
251	77
252	632
253	604
254	100
255	10
264	29
265	47
266	459
267	182
268	31
269	3
278	2
279	1
280	131
281	286
282	68
283	14
