Mass Spectrum: 4,4-Dimethylazetidin-2-one
Formula: C5H9NO
CAS: 4879-95-2
Molecular weight: 99
m/z	intensity
26	15
27	69
28	112
29	47
30	19
37	8
38	18
39	117
40	67
41	603
42	891
43	104
44	32
50	11
51	13
52	9
53	16
54	20
55	109
56	999
57	94
58	86
59	12
68	4
69	5
70	16
71	27
82	5
83	25
84	16
98	7
99	29
100	15
