Mass Spectrum: D-Glucitol, 1-amino-1-deoxy-
Formula: C6H15NO5
CAS: 488-43-7
Molecular weight: 181
m/z	intensity
14	7
15	110
16	2
17	5
18	101
19	30
26	9
27	58
28	74
29	95
30	999
31	154
32	18
33	1
37	1
38	3
39	17
40	6
41	37
42	105
43	166
44	79
45	75
46	7
47	6
48	15
49	1
50	1
51	2
52	2
53	4
54	7
55	29
56	31
57	51
58	9
59	16
60	222
61	79
62	4
63	1
66	1
67	2
68	6
69	16
70	7
71	25
72	41
73	272
74	19
75	3
79	1
80	2
81	1
82	1
83	2
84	8
85	12
86	10
87	3
88	2
89	3
90	58
91	16
92	1
96	4
97	6
98	5
99	1
102	78
103	19
104	3
110	1
114	4
115	5
116	16
117	2
120	29
121	2
132	9
133	5
134	1
138	1
146	2
150	6
182	7
