Mass Spectrum: Neo-Inositol
Formula: C6H12O6
CAS: 488-54-0
Molecular weight: 180
m/z	intensity
39	15
41	32
42	26
43	83
44	38
45	41
47	8
53	7
54	11
55	43
56	22
57	48
58	9
59	5
60	171
61	32
69	30
70	12
71	88
72	57
73	999
74	48
75	7
81	19
83	16
84	9
85	21
89	27
90	7
91	33
95	14
96	6
97	20
98	11
99	5
100	2
101	4
102	102
103	4
109	14
115	10
125	5
126	10
127	4
144	22
145	6
149	1
162	2
163	4
181	2
