Mass Spectrum: D-glycero-D-manno-Heptitol
Formula: C7H16O7
CAS: 488-38-0
Molecular weight: 212
m/z	intensity
42	369
43	856
44	295
45	476
46	41
47	64
48	7
49	18
50	5
51	13
52	4
53	30
54	23
55	168
56	260
57	327
58	43
59	68
60	263
61	654
62	28
63	23
65	5
67	9
68	7
69	97
70	15
71	120
73	999
74	196
75	53
76	14
77	26
78	9
79	7
81	18
82	7
83	15
84	11
85	110
86	32
87	31
89	19
91	48
97	29
98	5
99	16
101	10
102	22
103	192
104	32
105	42
106	7
107	23
109	6
111	2
115	38
116	24
117	12
119	2
127	22
128	4
129	4
133	127
134	7
135	68
136	22
137	7
145	36
163	35
177	6
187	2
212	8
