Mass Spectrum: 4-Cyclopentene-1,2,3-trione, 4,5-dihydroxy-
Formula: C5H2O5
CAS: 488-86-8
Molecular weight: 142
m/z	intensity
27	16
28	296
29	937
30	22
31	13
34	2
35	13
36	78
37	4
38	26
39	8
40	99
41	80
42	9
43	15
44	11
45	20
46	4
47	2
48	2
50	2
51	3
52	30
53	7
54	5
55	10
56	61
57	5
58	999
59	27
60	8
63	1
64	1
65	3
66	2
67	7
68	69
69	37
70	4
71	2
72	6
73	3
74	1
75	1
77	5
78	1
79	3
80	7
81	3
82	6
83	2
84	2
85	11
86	240
87	11
88	2
91	2
92	2
93	2
95	2
96	1
97	2
98	1
99	2
100	5
105	3
109	1
110	2
111	1
112	1
114	153
115	8
116	2
118	1
119	1
120	3
122	1
128	3
133	1
135	1
142	283
143	16
144	3
