Mass Spectrum: Pentanoic acid, 2-hydroxy-3-methyl-
Formula: C6H12O3
CAS: 488-15-3
Molecular weight: 132
m/z	intensity
19	2
26	3
27	52
28	23
29	198
30	16
31	36
32	2
36	1
37	2
38	3
39	84
40	11
41	377
42	26
43	96
44	11
45	434
46	11
47	6
49	2
50	7
51	8
53	24
55	31
56	30
57	349
58	158
59	7
60	5
62	1
65	2
66	1
67	9
68	4
69	169
70	15
71	27
74	2
76	999
77	24
78	5
80	1
81	2
85	2
87	313
88	18
89	2
90	1
91	2
97	2
98	6
99	20
100	1
114	2
