Mass Spectrum: Cyclohexanone, 2-nitro-
Formula: C6H9NO3
CAS: 4883-67-4
Molecular weight: 143
m/z	intensity
25	3
26	49
27	298
28	124
29	156
30	85
31	21
33	2
37	13
38	33
39	322
40	108
41	999
42	217
43	113
44	21
45	21
46	6
47	6
48	3
49	4
50	20
51	36
52	23
53	128
54	88
55	495
56	48
57	83
58	11
59	5
60	4
61	2
62	5
63	10
64	5
65	60
66	20
67	583
68	243
69	226
70	48
71	25
72	3
73	5
74	15
75	4
76	6
77	20
78	6
79	23
80	57
81	22
82	45
83	22
84	6
85	45
86	4
87	3
88	2
91	4
92	1
93	6
94	5
95	114
96	48
97	31
98	25
99	5
102	1
104	5
105	4
106	1
107	2
108	10
109	15
110	14
111	8
112	2
113	5
115	6
121	3
122	1
123	2
124	1
125	20
126	3
127	15
128	2
135	1
142	5
143	112
144	10
145	1
