Mass Spectrum: Pyridazin-3(2H)-one, 6-chloro-4-methoxy-2-phenyl-
Formula: C11H9ClN2O2
CAS: 4884-40-6
Molecular weight: 236
m/z	intensity
36	0
37	16
38	48
39	131
40	25
41	29
42	15
43	18
44	3
47	1
49	5
50	44
51	407
52	84
53	55
54	7
55	4
56	1
57	2
59	0
60	72
61	8
62	26
63	99
64	173
65	82
66	16
67	64
68	18
69	0
71	1
72	4
73	2
74	25
75	16
76	32
77	999
78	314
79	33
80	0
81	7
82	13
83	0
87	9
88	45
89	53
90	64
91	470
92	158
93	218
94	42
95	82
96	10
97	1
100	1
101	4
102	20
103	157
104	42
105	210
106	49
107	4
108	2
115	7
116	37
117	33
118	18
119	63
120	18
124	2
126	2
127	0
128	16
129	28
130	37
131	105
132	7
133	21
137	2
138	2
142	18
143	173
144	108
145	71
146	43
147	2
151	10
152	5
154	3
155	1
156	17
157	19
158	10
159	0
160	1
165	0
166	0
167	0
169	0
171	46
172	21
173	37
174	8
175	0
176	0
177	0
178	8
179	12
180	0
181	4
182	0
183	28
184	2
185	0
191	0
192	46
193	98
194	23
195	11
196	1
200	6
201	334
202	107
203	3
205	6
206	49
207	94
208	25
209	16
210	1
217	0
222	0
235	192
236	942
237	345
238	273
239	82
