Mass Spectrum: 1,3-Butanediamine, N1,1-diphenyl-
Formula: C16H20N2
CAS: 4888-68-0
Molecular weight: 240
m/z	intensity
26	2
27	28
28	22
29	4
30	30
38	5
39	54
40	8
41	26
42	75
43	28
44	999
45	27
50	17
51	120
52	22
53	9
54	8
55	1
56	7
57	11
58	17
59	5
60	1
62	2
63	17
64	12
65	71
66	29
67	5
68	2
69	3
70	32
71	2
74	3
75	6
76	15
77	454
78	96
79	24
80	2
81	1
89	15
90	9
91	79
92	51
93	294
94	38
95	2
101	3
102	11
103	58
104	314
105	47
106	29
107	4
111	0
114	1
115	25
116	10
117	16
118	41
119	29
120	29
121	3
126	1
127	8
128	12
129	13
130	18
131	19
132	107
133	12
135	8
139	1
140	2
141	2
143	1
144	3
145	4
146	68
147	423
148	47
149	2
151	4
152	14
153	8
154	4
155	3
165	7
166	3
167	10
168	1
177	1
178	4
179	4
180	144
181	36
182	822
183	116
184	8
191	1
192	1
193	7
194	38
195	34
196	55
197	10
198	1
206	5
207	3
208	115
209	20
210	1
221	8
222	247
223	188
224	31
225	2
240	126
241	25
242	2
