Mass Spectrum: Benzoic acid, 2-(2-phenylethyl)-
Formula: C15H14O2
CAS: 4890-85-1
Molecular weight: 226
m/z	intensity
27	3
28	1
38	1
39	16
40	1
41	5
50	4
51	16
52	4
53	4
55	1
62	2
63	13
64	4
65	67
66	4
74	2
75	4
76	10
77	52
78	9
79	27
80	2
81	1
82	1
83	1
87	1
88	4
89	27
90	12
91	999
92	84
93	3
95	1
101	2
102	4
103	11
104	10
105	9
107	5
113	3
115	4
118	13
119	4
120	1
126	1
127	1
128	1
129	1
130	4
131	5
133	16
134	8
135	140
136	14
137	1
139	2
141	1
147	4
148	16
149	2
150	2
151	4
152	8
153	2
164	1
165	15
166	6
167	1
176	6
177	5
178	26
179	18
180	10
181	7
182	1
191	1
192	1
193	11
194	2
207	16
208	458
209	77
210	7
211	3
224	3
225	1
226	319
227	53
228	7
