Mass Spectrum: Thiophene, 2-(2,2-dimethylpropyl)-
Formula: C9H14S
CAS: 4891-29-6
Molecular weight: 154
m/z	intensity
43	7
44	3
45	284
46	10
47	30
48	1
49	5
50	40
51	59
52	28
53	124
54	9
55	72
56	17
57	999
58	82
59	20
60	4
61	9
62	21
63	43
64	6
65	7
66	6
67	9
68	9
69	52
70	24
71	36
72	4
73	4
74	4
75	4
76	3
77	33
78	11
79	16
80	2
81	7
82	12
83	5
84	12
85	14
86	3
87	2
88	1
89	3
90	1
91	14
92	3
93	8
94	1
95	15
96	22
97	784
98	716
99	81
100	31
101	2
102	1
103	3
104	1
105	6
106	2
107	1
108	4
109	12
110	10
111	28
112	3
113	2
114	1
115	1
117	1
119	1
120	1
121	9
122	4
123	28
124	11
125	3
126	1
134	2
135	2
136	1
137	5
138	6
139	172
140	15
141	11
142	1
154	301
155	30
156	14
157	1
