Mass Spectrum: Thiophene, 2-(2-ethylhexyl)-
Formula: C12H20S
CAS: 4891-44-5
Molecular weight: 196
m/z	intensity
43	273
44	9
45	167
46	5
47	15
48	1
49	2
50	11
51	31
52	13
53	93
54	8
55	22
56	16
57	560
58	43
59	9
60	2
61	2
62	5
63	14
64	4
65	22
66	8
67	10
68	3
69	31
70	17
71	27
72	2
73	3
74	2
75	2
76	2
77	24
78	8
79	16
80	2
81	5
82	6
83	5
84	20
85	12
86	3
87	2
89	3
90	1
91	13
92	2
93	4
94	1
95	8
96	10
97	999
98	588
99	98
100	38
101	3
102	1
103	3
104	1
105	3
106	1
107	2
108	2
109	10
110	17
111	12
112	4
113	2
114	1
115	2
116	1
117	1
118	1
119	1
120	1
121	5
122	2
123	34
124	5
125	10
126	4
127	1
133	1
134	2
135	5
136	3
137	7
138	5
139	8
140	3
141	2
142	1
147	1
149	2
150	1
151	2
152	1
153	3
154	2
162	1
163	2
166	1
167	10
168	2
181	1
186	1
195	1
196	184
197	34
198	13
199	1
