Mass Spectrum: Bicyclo[2.2.2]octanone, 4-methoxy-
Formula: C9H14O2
CAS: 4893-16-7
Molecular weight: 154
m/z	intensity
41	520
42	110
43	500
44	20
45	130
50	20
51	70
52	30
53	180
54	150
55	620
56	40
57	70
58	30
59	10
62	10
63	20
64	10
65	50
67	290
68	140
69	110
70	50
71	50
72	200
73	10
74	10
75	10
77	110
78	30
79	210
80	60
81	90
82	20
83	190
84	930
85	150
87	10
91	40
93	20
94	30
95	80
96	30
97	999
98	410
99	80
100	10
107	20
109	20
110	20
111	330
112	90
113	20
121	20
122	30
123	70
124	10
125	80
126	480
127	40
137	10
139	140
140	10
153	30
154	880
155	100
156	10
