Mass Spectrum: Isomenthylamine
Formula: C10H21N
CAS: 4894-99-9
Molecular weight: 155
m/z	intensity
39	20
40	4
41	65
42	24
43	89
44	18
45	3
51	3
52	2
53	14
54	11
55	54
56	68
57	12
58	2
65	4
66	2
67	32
68	16
70	999
71	51
72	3
77	6
79	8
80	6
81	48
82	19
83	6
84	32
85	2
91	3
93	3
94	5
95	37
96	9
98	50
99	4
109	3
110	1
112	11
123	12
138	28
139	3
140	26
141	2
154	2
155	26
156	3
