Mass Spectrum: Phenol, 2,3,4,5-tetrachloro-, acetate
Formula: C8H4Cl4O2
CAS: 4901-57-9
Molecular weight: 272
m/z	intensity
35	1
36	36
37	2
38	11
39	15
40	6
41	54
42	32
43	999
44	21
45	9
46	0
49	15
50	2
51	5
53	1
54	3
55	14
56	24
57	13
58	4
60	6
61	25
62	4
63	2
65	2
66	6
67	4
70	1
71	10
72	7
73	15
74	1
75	3
77	2
78	0
79	9
81	4
83	12
84	4
85	12
87	7
89	0
93	0
94	2
95	9
96	42
97	23
98	15
99	1
102	1
106	3
107	23
108	12
109	17
111	4
116	2
117	5
118	2
119	8
127	2
128	0
129	0
130	2
131	65
132	10
133	34
135	7
137	2
140	0
141	12
142	4
143	14
145	9
147	3
148	1
158	1
162	0
166	15
167	12
168	13
169	2
170	1
171	9
177	2
178	3
180	2
187	2
194	27
195	0
196	24
197	2
198	5
201	11
202	1
203	17
205	15
213	5
215	1
219	3
229	1
230	276
231	24
232	448
233	29
234	213
235	6
236	36
238	1
272	46
273	1
274	52
275	5
276	29
277	0
278	1
