Mass Spectrum: CH3C(O)OCH(CH3)C(O)CH3
Formula: C6H10O3
CAS: 4906-24-5
Molecular weight: 130
m/z	intensity
14	23
15	96
19	2
25	2
26	14
27	38
28	19
29	26
31	1
37	1
38	3
39	13
40	3
41	13
42	49
43	999
44	27
45	45
46	1
50	2
51	2
52	1
53	4
54	1
55	9
56	6
57	1
59	1
60	1
61	3
69	1
70	3
71	1
72	1
86	18
87	166
88	12
89	1
130	31
131	3
