Mass Spectrum: 9-Azabicyclo[3.3.1]nonane,9-methyl-
Formula: C9H17N
CAS: 491-25-8
Molecular weight: 139
m/z	intensity
27	16
29	11
30	3
39	28
40	4
41	45
42	82
43	10
44	10
51	4
52	4
53	15
54	14
55	37
56	21
57	99
58	6
60	7
65	4
66	4
67	18
68	34
69	27
70	26
71	6
73	10
77	6
78	2
79	11
80	7
81	26
82	102
83	30
84	9
85	3
91	3
93	6
94	25
95	12
96	999
97	262
98	25
99	3
108	9
109	5
110	488
111	42
112	5
123	3
124	24
125	10
137	4
138	23
139	306
140	23
141	4
