Mass Spectrum: Cyclohexanone, 5-methyl-2-(1-methylethyl)-, cis-
Formula: C10H18O
CAS: 491-07-6
Molecular weight: 154
m/z	intensity
26	10
27	292
28	5
29	185
31	4
38	13
39	284
40	33
41	885
42	176
43	360
44	12
45	11
51	22
53	104
54	43
55	579
56	387
57	88
58	31
65	16
67	95
68	60
69	914
70	419
71	78
72	9
77	23
79	41
81	65
82	25
83	271
84	195
85	20
91	15
93	38
94	18
95	179
96	30
97	312
98	105
99	17
109	25
110	72
111	279
112	999
113	72
121	44
123	8
125	57
139	375
140	37
154	232
155	27
