Mass Spectrum: 1-Hexen-3-yne, 5,5-dimethyl-
Formula: C8H12
CAS: 4911-58-4
Molecular weight: 108
m/z	intensity
15	76
26	30
27	186
29	49
39	428
41	250
50	132
51	299
52	106
53	193
54	18
55	22
62	38
63	109
64	31
65	231
66	42
67	45
74	46
75	375
77	815
78	170
79	91
89	26
91	549
92	64
93	999
94	72
105	12
107	36
108	119
109	10
