Mass Spectrum: Cyclohexane, 1-methyl-4-(2-hydroxyethyl)-
Formula: C9H18O
CAS: 4916-87-4
Molecular weight: 142
m/z	intensity
36	0
37	1
38	6
39	224
40	50
41	388
42	106
43	92
44	23
45	12
46	1
49	0
50	7
51	24
52	12
53	99
54	94
55	693
56	61
57	36
58	2
59	0
62	1
63	4
64	1
65	29
66	17
67	296
68	275
69	184
70	28
71	10
72	0
76	0
77	31
78	7
79	57
80	19
81	495
82	206
83	56
84	4
85	1
86	0
89	0
90	0
91	14
92	1
93	15
94	22
95	999
96	374
97	225
98	16
99	0
105	1
107	6
109	146
110	13
111	3
112	0
113	0
114	0
119	0
121	0
122	0
123	18
124	162
125	18
126	0
135	0
141	0
142	1
