Mass Spectrum: s-Triazolo[4,3-a]pyridine, 6-methyl-
Formula: C7H7N3
CAS: 4919-09-9
Molecular weight: 133
m/z	intensity
39	230
50	160
51	290
52	999
53	230
78	100
79	350
80	30
105	100
106	190
107	10
133	970
134	130
