Mass Spectrum: s-Triazolo[4,3-a]pyridine, 7-methyl-
Formula: C7H7N3
CAS: 4919-10-2
Molecular weight: 133
m/z	intensity
38	310
39	80
40	150
41	180
50	560
51	999
52	870
53	620
64	210
65	150
66	100
77	100
78	360
79	210
80	130
81	10
91	50
92	50
105	360
106	460
107	30
132	30
133	640
134	80
