Mass Spectrum: Ethanedione, di-2-pyridinyl-
Formula: C12H8N2O2
CAS: 492-73-9
Molecular weight: 212
m/z	intensity
16	3
25	4
26	36
27	119
28	51
29	2
37	16
38	24
39	48
40	6
41	2
44	10
48	2
49	25
50	134
51	462
52	182
53	20
54	2
55	2
57	1
60	1
61	5
62	9
63	12
64	7
65	3
66	1
67	1
68	1
73	1
74	5
75	23
76	42
77	33
78	999
79	103
80	5
86	1
87	2
88	1
89	3
90	2
91	5
92	1
98	1
99	1
100	1
101	6
102	10
103	14
104	12
105	8
106	102
107	8
108	2
115	5
116	3
117	4
126	1
127	3
128	53
129	93
130	56
131	8
132	1
133	2
139	1
140	1
141	3
142	1
143	1
144	1
153	1
154	4
155	169
156	467
157	55
158	4
159	1
160	2
169	1
170	2
172	1
174	1
183	11
184	39
185	6
212	144
213	22
214	3
