Mass Spectrum: Atropic acid
Formula: C9H8O2
CAS: 492-38-6
Molecular weight: 148
m/z	intensity
27	62
28	21
29	19
30	2
31	22
34	0
35	1
36	6
37	20
38	28
39	81
40	7
41	18
42	5
43	21
44	6
45	62
46	3
47	1
48	1
49	14
50	148
51	295
52	44
53	16
54	6
55	25
56	4
57	4
58	4
59	9
60	7
61	16
62	37
63	65
64	8
65	19
66	7
67	10
68	2
69	2
70	2
71	2
72	6
73	20
74	76
75	61
76	62
77	400
78	73
79	14
80	2
81	4
82	2
83	0
84	1
85	4
86	5
87	9
88	1
89	2
90	5
91	66
92	10
93	4
94	27
95	3
96	1
97	2
98	9
99	3
100	4
101	15
102	107
103	999
104	109
105	51
106	5
107	3
108	2
109	2
110	3
111	2
112	1
113	0
114	1
117	1
118	5
119	11
120	14
121	2
122	4
123	1
125	0
126	0
130	4
131	25
132	6
133	1
135	1
136	2
137	1
142	0
143	0
145	0
146	1
147	27
148	547
149	53
150	10
151	0
