Mass Spectrum: 1,2-Ethanediol, 1,2-diphenyl-
Formula: C14H14O2
CAS: 492-70-6
Molecular weight: 214
m/z	intensity
25	0
26	4
27	34
29	35
30	1
31	6
37	1
38	5
39	38
41	3
42	0
43	1
45	1
46	0
49	0
50	25
51	88
52	25
53	17
54	1
55	2
56	0
57	0
58	0
61	1
62	6
63	21
64	4
65	14
66	1
67	0
68	0
69	0
70	0
71	0
73	0
74	8
75	7
76	14
77	363
78	66
79	700
80	50
81	3
82	4
83	4
84	0
86	1
87	3
88	3
89	30
90	23
91	25
92	3
93	0
94	0
97	0
98	1
99	2
101	0
102	4
103	1
104	0
105	108
106	28
107	916
108	999
109	70
110	4
111	0
113	1
114	0
115	10
116	0
118	1
119	0
120	0
121	0
122	0
125	0
126	2
127	2
128	5
129	0
137	0
138	0
139	7
140	0
141	2
142	0
149	0
150	2
151	6
152	48
153	9
154	1
155	0
162	0
163	5
164	8
165	81
166	25
167	132
168	20
169	1
175	0
176	4
177	3
178	19
179	25
180	25
181	4
193	0
194	0
195	3
196	10
197	3
207	0
214	22
215	3
