Mass Spectrum: 1,5-Anhydro-d-mannitol
Formula: C6H12O5
CAS: 492-93-3
Molecular weight: 164
m/z	intensity
41	155
42	160
43	465
44	191
45	312
46	14
47	29
49	2
50	2
51	5
52	2
53	24
54	12
55	134
56	182
57	448
58	52
59	46
60	362
61	241
62	7
63	1
65	1
66	2
67	6
68	16
69	209
70	94
71	93
72	15
73	999
74	311
75	28
76	1
77	4
78	4
79	2
81	12
82	6
83	10
84	8
85	87
86	44
87	34
88	6
89	11
90	1
91	13
95	4
96	2
97	30
98	32
99	16
100	13
101	1
102	2
103	295
104	15
105	4
110	2
111	1
112	3
113	1
114	1
115	124
116	30
117	4
119	4
121	1
124	1
126	2
127	1
128	5
129	5
131	16
132	6
133	48
134	1
146	26
147	1
149	1
164	3
