Mass Spectrum: Benzamide, N-[(phenylamino)thioxomethyl]-
Formula: C14H12N2OS
CAS: 4921-82-8
Molecular weight: 256
m/z	intensity
41	6
42	2
43	2
44	7
45	7
47	5
48	2
49	33
50	54
51	252
52	23
53	5
54	2
58	2
59	2
60	3
61	0
62	4
63	18
64	15
65	75
66	13
67	2
69	7
70	2
74	10
75	13
76	31
77	827
78	57
79	3
80	3
82	2
83	1
84	17
86	18
88	2
90	4
91	18
92	30
93	125
94	9
96	4
97	3
102	0
103	2
105	999
106	69
107	5
108	5
109	21
110	46
111	4
112	2
118	40
119	47
120	4
121	2
122	4
123	2
124	2
135	565
136	49
137	27
138	4
139	0
147	15
150	2
151	7
152	2
212	3
214	1
223	2
255	80
256	386
257	70
258	23
259	3
