Mass Spectrum: 2,8,4,6-(Epoxyethanediylidenoxy)[1,3]dioxino[5,4-d]-1,3-dioxin, tetrahydro-
Formula: C8H8O6
CAS: 4922-14-9
Molecular weight: 200
m/z	intensity
12	22
13	12
14	19
15	130
16	72
17	48
18	162
19	38
20	5
22	3
24	3
25	7
26	87
27	244
28	19
29	999
30	55
31	259
32	24
33	2
34	3
35	2
36	2
37	10
38	15
39	289
40	53
41	491
42	302
43	135
44	118
45	34
46	5
47	59
48	5
49	2
50	15
51	34
52	24
53	52
54	20
55	115
56	30
57	315
58	20
59	15
61	21
62	8
63	9
64	8
65	2
66	2
67	3
68	23
69	236
70	144
71	113
72	19
73	48
74	2
75	2
76	2
77	2
78	8
79	12
80	58
81	293
82	23
83	11
84	132
85	103
86	27
87	5
88	58
89	2
90	2
91	2
93	2
94	4
95	5
96	5
97	387
98	103
99	22
100	0
101	15
102	2
103	3
104	5
105	5
107	2
108	9
109	22
110	5
111	2
112	32
113	58
114	9
115	6
116	3
117	4
119	5
123	4
125	88
126	85
127	15
128	2
129	6
130	3
131	3
133	2
135	4
143	5
144	3
147	2
149	4
153	2
154	15
155	5
156	2
163	2
169	3
171	7
172	2
177	2
200	136
201	10
207	3
