Mass Spectrum: 1,2,4-Triazolo[4,3-a]pyridin-3(2H)-one, 8-methyl-
Formula: C7H7N3O
CAS: 4926-20-9
Molecular weight: 149
m/z	intensity
38	160
39	740
40	120
41	140
42	100
43	100
44	320
50	40
51	220
52	300
53	100
60	200
63	120
64	160
65	560
66	300
78	140
79	160
92	600
93	999
94	60
105	160
106	40
107	40
148	20
149	740
150	100
