Mass Spectrum: 2,2-Dimethyl-5-phenyl-3(2H)-furanone
Formula: C12H12O2
CAS: 493-71-0
Molecular weight: 188
m/z	intensity
51	40
69	30
77	60
102	999
105	20
130	20
145	10
173	6
188	180
