Mass Spectrum: Carbamic acid, phenyl-, phenyl ester
Formula: C13H11NO2
CAS: 4930-03-4
Molecular weight: 213
m/z	intensity
40	70
41	40
43	10
44	30
50	70
51	100
52	20
53	10
55	30
61	20
62	30
63	90
64	130
65	160
66	130
77	60
91	220
92	40
93	20
94	999
95	80
119	550
120	50
213	50
