Mass Spectrum: L-Proline, 5-oxo-, methyl ester
Formula: C6H9NO3
CAS: 4931-66-2
Molecular weight: 143
m/z	intensity
24	0
25	1
26	31
27	84
28	270
29	57
30	36
31	16
32	5
33	8
34	0
35	0
36	0
37	4
38	6
39	37
40	10
41	424
42	31
43	9
44	20
45	8
50	1
51	2
52	8
53	5
54	30
55	48
56	137
57	9
58	0
59	33
60	9
66	7
67	0
68	2
69	5
70	0
71	0
72	0
74	0
80	2
81	0
82	5
83	12
84	999
85	53
86	3
87	3
88	6
98	2
99	0
100	0
115	13
143	23
144	2
