Mass Spectrum: Propanamide, N-(2,6-dimethylphenyl)-3-(1-piperidinyl)-
Formula: C16H24N2O
CAS: 4933-38-4
Molecular weight: 260
m/z	intensity
34	0
37	0
39	36
41	147
42	59
43	13
44	52
45	0
50	2
51	10
52	7
53	13
54	21
55	56
56	100
57	18
58	13
59	2
62	0
63	4
64	1
65	15
66	3
67	7
68	10
69	36
70	14
71	2
72	0
75	0
77	37
78	6
79	14
80	4
81	1
82	7
83	4
84	31
85	2
86	0
87	0
89	3
91	31
92	8
93	6
94	2
96	10
97	1
98	4
101	0
102	2
103	10
104	6
105	16
106	5
107	1
108	0
110	18
112	999
113	87
114	3
115	0
116	1
117	3
118	10
119	6
120	22
121	4
122	0
124	0
128	0
129	0
130	1
131	1
132	3
133	2
134	0
138	0
139	0
142	0
143	0
144	0
145	0
146	1
148	6
149	0
155	0
156	0
158	0
160	1
161	0
162	0
173	0
174	0
175	0
176	0
177	0
229	0
245	0
259	0
260	0
261	0
