Mass Spectrum: 1-Cyclohexene-1-glyoxylamide, N-tert-butyl-
Formula: C12H19NO2
CAS: 4933-46-4
Molecular weight: 209
m/z	intensity
41	590
42	190
44	110
53	210
55	110
57	640
77	100
79	180
81	580
82	90
86	90
87	80
105	70
108	50
109	999
110	100
124	70
125	110
135	40
153	320
154	50
194	60
209	230
210	50
