Mass Spectrum: 1-Hydroxy-cyclohexanecarboxylic acid, t-butyl-amide
Formula: C11H21NO2
CAS: 4933-47-5
Molecular weight: 199
m/z	intensity
26	3
27	38
28	9
29	86
30	10
31	13
38	2
39	46
40	10
41	163
42	53
43	69
44	12
45	5
46	91
51	4
52	2
53	29
54	10
55	114
56	29
57	208
58	670
59	28
65	5
66	2
67	15
68	3
69	27
70	22
71	9
72	16
73	2
77	8
78	2
79	39
80	8
81	697
82	43
83	20
84	6
85	2
86	54
87	3
88	10
95	2
96	2
97	17
98	35
99	999
100	59
101	30
102	79
103	5
108	2
109	14
110	3
114	3
115	2
124	3
125	4
126	10
128	4
141	2
142	5
143	7
144	2
156	145
157	16
166	2
171	13
181	3
184	2
199	7
200	5
