Mass Spectrum: Ethyl N-(o-tolyl)formimidate
Formula: C10H13NO
CAS: 4943-59-3
Molecular weight: 163
m/z	intensity
39	140
40	50
51	90
52	50
63	50
65	200
77	180
78	70
79	70
80	50
89	70
90	80
91	420
92	50
104	50
106	790
107	260
108	50
117	100
118	999
119	140
120	80
134	110
135	230
148	60
163	690
164	80
