Mass Spectrum: Smilagenin, acetate
Formula: C29H46O4
CAS: 4947-75-5
Molecular weight: 458
m/z	intensity
41	188
42	187
43	999
44	20
45	14
47	6
49	4
51	12
53	42
54	67
55	310
56	35
57	45
61	169
67	110
69	287
70	25
71	30
73	19
77	33
78	5
79	119
81	147
83	43
84	5
91	88
93	114
94	19
95	90
97	85
99	6
105	77
106	27
107	91
108	42
109	61
111	7
114	39
115	201
117	27
119	42
120	15
121	56
122	45
123	6
124	8
125	22
126	27
128	4
129	5
131	25
133	43
134	6
135	38
138	5
139	397
140	44
143	5
145	26
147	36
149	14
159	25
161	29
173	4
175	27
176	20
187	5
215	6
255	40
269	39
284	72
285	16
315	64
316	4
329	52
330	11
344	34
386	32
399	11
458	21
