Mass Spectrum: Ornithuric acid
Formula: C19H20N2O4
CAS: 495-46-5
Molecular weight: 340
m/z	intensity
43	112
44	26
45	175
50	26
51	180
52	42
55	24
69	177
70	44
77	501
78	181
105	999
106	27
122	56
123	23
128	24
162	52
163	23
174	118
175	36
218	95
219	29
340	88
341	24
