Mass Spectrum: 2-Buten-1-one, 1-phenyl-
Formula: C10H10O
CAS: 495-41-0
Molecular weight: 146
m/z	intensity
14	2
15	11
17	1
18	3
25	1
26	7
27	28
28	8
29	12
36	1
37	9
38	19
39	145
40	27
41	221
42	9
43	11
44	9
45	1
49	6
50	76
51	254
52	22
53	9
55	2
56	1
57	3
58	6
59	1
60	1
61	5
62	10
63	20
64	9
65	11
66	2
67	3
68	38
69	506
70	22
71	2
72	6
73	6
74	24
75	18
76	28
77	647
78	61
79	5
85	2
86	3
87	3
88	1
89	9
90	4
91	30
92	3
98	1
101	2
102	9
103	38
104	7
105	999
106	78
107	5
113	1
114	1
115	37
116	17
117	100
118	76
119	9
120	14
121	1
126	1
127	23
128	14
129	15
130	3
131	369
132	37
133	4
144	5
145	166
146	554
147	63
148	5
