Mass Spectrum: 3-(1H-Imidazol-4-yl)-propan-1-ol
Formula: C6H10N2O
CAS: 49549-75-9
Molecular weight: 126
m/z	intensity
31	70
32	7
33	1
36	2
37	24
38	50
39	217
40	129
41	342
42	116
43	87
44	126
45	297
46	41
47	4
49	7
50	22
51	46
52	107
53	144
54	365
55	144
56	30
57	17
58	18
64	6
65	12
66	35
67	63
68	252
69	92
70	15
71	50
72	9
73	11
80	256
81	999
82	706
83	81
84	8
85	10
93	71
94	60
95	838
96	283
97	25
98	6
107	178
108	47
109	61
110	9
111	3
124	1
125	26
126	112
127	30
128	2
