Mass Spectrum: .alpha.-d-Galactopyranose, pentakis(trifluoroacetate)
Formula: C16H7F15O11
CAS: 49560-82-9
Molecular weight: 660
m/z	intensity
40	7
41	30
42	12
43	135
44	46
45	18
47	6
49	40
50	30
51	35
52	6
53	80
54	42
55	93
56	18
57	28
59	50
65	35
67	20
68	10
69	999
70	17
71	20
73	12
77	25
78	55
80	11
81	105
82	9
83	316
84	30
85	10
86	20
87	15
89	20
91	5
93	8
95	20
97	285
98	5
99	90
103	13
105	7
109	70
110	5
112	10
113	5
115	20
117	25
121	10
123	8
125	29
127	50
135	8
137	10
139	50
140	42
141	10
143	15
149	87
152	15
153	85
154	6
155	15
157	7
165	30
166	36
167	98
168	30
169	57
177	155
178	13
179	6
180	12
181	32
183	30
193	52
194	25
195	10
196	25
197	5
205	48
206	10
207	10
209	45
221	40
222	5
223	8
237	28
252	45
253	4
265	450
266	40
277	10
278	15
279	5
290	20
291	25
293	120
294	10
305	20
318	92
319	445
320	53
321	7
378	10
379	35
404	20
407	222
408	26
409	5
413	70
414	10
433	10
449	2
533	1
547	65
548	10
641	1
