Mass Spectrum: 1,3-Butadiene, 1-(ethylthio)-3-methyl-
Formula: C7H12S
CAS: 49563-09-9
Molecular weight: 128
m/z	intensity
39	141
41	113
43	141
52	42
53	85
55	85
65	366
84	56
97	62
99	999
100	56
101	37
128	141
