Mass Spectrum: .alpha.-D-Galactofuranose, pentakis(trifluoroacetate)
Formula: C16H7F15O11
CAS: 49560-99-8
Molecular weight: 660
m/z	intensity
40	10
41	28
42	14
43	87
44	40
45	17
47	13
48	7
49	70
50	20
51	30
53	62
54	10
55	42
56	20
57	10
59	40
65	15
67	15
68	7
69	999
70	15
71	20
73	12
77	15
78	40
80	13
81	140
82	10
83	70
84	50
86	30
87	10
88	5
89	10
95	15
97	220
99	72
103	8
108	5
109	100
110	8
115	15
117	10
125	20
127	73
135	7
137	10
139	30
140	12
141	5
143	8
149	90
150	5
152	42
153	78
154	6
155	30
157	30
165	25
166	55
167	50
169	50
177	180
178	15
181	25
183	55
193	62
194	25
195	8
196	80
205	23
209	17
211	7
221	63
222	8
223	10
248	22
252	235
253	122
254	10
265	270
266	50
267	6
277	8
278	10
279	13
290	36
291	40
305	30
319	300
320	35
321	5
390	12
391	8
404	50
405	13
413	80
414	7
432	8
433	7
533	13
547	45
548	6
