Mass Spectrum: Cycloheptene, 1-(1,1-dimethylethoxy)-
Formula: C11H20O
CAS: 49565-07-3
Molecular weight: 168
m/z	intensity
14	5
15	63
16	1
18	2
26	14
27	181
28	38
29	215
30	5
31	18
37	3
38	10
39	190
40	31
41	374
42	28
43	109
44	5
45	7
49	0
50	9
51	55
52	36
53	125
54	50
55	138
56	118
57	999
58	64
59	59
60	2
61	1
62	4
63	12
64	4
65	40
66	35
67	142
68	67
69	23
70	50
71	15
72	2
73	2
74	2
75	3
76	2
77	68
78	19
79	165
80	43
81	174
82	29
83	116
84	43
85	4
86	1
87	1
88	1
89	2
90	1
91	29
92	7
93	42
94	145
95	462
96	36
97	43
98	4
99	1
102	0
105	0
107	1
108	1
109	3
110	8
111	76
112	388
113	48
114	3
116	1
135	1
168	2
