Mass Spectrum: D-Arabino-Hexitol, 5-deoxy-, pentaacetate
Formula: C16H24O10
CAS: 49560-35-2
Molecular weight: 376
m/z	intensity
41	4
42	8
43	999
44	17
45	4
54	1
55	7
56	4
57	20
58	1
60	2
61	11
66	1
67	2
68	1
69	4
70	27
71	8
72	2
73	12
74	1
79	1
80	1
81	4
82	9
83	6
84	2
85	8
86	4
87	3
94	4
95	15
96	2
98	2
99	57
100	5
101	2
102	1
103	56
104	2
111	6
112	40
113	8
115	87
116	41
117	1
118	2
124	1
126	2
127	3
129	44
130	4
141	12
142	4
145	32
146	2
153	1
154	16
155	6
157	4
158	29
159	67
160	4
171	1
172	1
175	5
187	2
201	25
202	2
214	5
215	1
217	12
218	1
231	3
303	4
317	2
