Mass Spectrum: 2-Butenedinitrile, 2,2'-(1,2-ethanediylidenedinitrilo)bis[3-amino-
Formula: C10H6N8
CAS: 49585-73-1
Molecular weight: 238
m/z	intensity
27	999
76	619
77	120
78	260
81	499
103	999
104	120
108	380
119	80
130	769
157	50
184	350
185	80
211	120
238	10
