Mass Spectrum: 3-Buten-2-one, 4,4-bis(dimethylamino)-
Formula: C8H16N2O
CAS: 49582-46-9
Molecular weight: 156
m/z	intensity
41	80
42	320
43	340
44	140
54	60
55	220
56	420
68	100
69	60
70	999
71	80
72	320
82	80
85	60
96	80
98	579
112	260
113	60
139	180
141	60
156	100
