Mass Spectrum: 3-Buten-2-one, 4-(dimethylamino)-4-ethoxy-
Formula: C8H15NO2
CAS: 49582-71-0
Molecular weight: 157
m/z	intensity
39	40
40	30
41	60
42	220
43	350
44	999
45	240
46	390
55	100
56	125
58	70
68	40
69	140
70	290
71	50
77	270
81	30
84	20
85	230
86	110
87	125
96	20
98	180
100	30
112	70
113	150
114	190
115	20
128	20
129	70
140	50
142	80
157	270
