Mass Spectrum: 3-Buten-2-one, 4-(dimethylamino)-4-(1-piperidinyl)-
Formula: C11H20N2O
CAS: 49582-40-3
Molecular weight: 196
m/z	intensity
39	90
41	330
42	350
43	440
44	120
54	120
55	230
56	260
68	90
69	120
70	999
71	70
72	140
82	90
84	559
86	70
96	120
98	599
110	110
113	140
138	35
152	35
153	50
179	50
181	35
196	120
