Mass Spectrum: 2-Propenoic acid, 3-(dimethylamino)-3-methoxy-, methyl ester
Formula: C7H13NO3
CAS: 49582-69-6
Molecular weight: 159
m/z	intensity
41	50
42	270
43	100
44	999
45	85
55	90
56	40
57	70
58	30
59	110
68	70
69	170
70	55
72	340
82	80
86	100
98	80
100	50
101	70
114	90
128	400
129	50
144	95
159	210
