Mass Spectrum: 2-Propenoic acid, 3-(dimethylamino)-3-ethoxy-, ethyl ester
Formula: C9H17NO3
CAS: 49582-72-1
Molecular weight: 187
m/z	intensity
41	40
42	170
43	135
44	999
45	270
46	220
55	60
56	50
57	40
58	40
68	30
69	140
70	65
71	80
72	180
82	30
85	30
86	65
87	130
98	50
100	60
113	25
114	170
115	40
128	180
131	30
142	180
143	50
157	20
158	130
172	25
187	140
