Mass Spectrum: 3-Buten-2-one, 3,4-bis(dimethylamino)-
Formula: C8H16N2O
CAS: 49582-60-7
Molecular weight: 156
m/z	intensity
39	80
40	170
41	170
42	919
43	539
44	370
45	80
54	80
55	210
56	290
57	80
58	290
68	210
69	120
70	669
71	80
72	250
82	80
83	290
84	80
96	250
97	669
98	999
99	80
100	170
112	210
113	210
139	170
156	579
