Mass Spectrum: 2-Propenoic acid, 3-(1-aziridinyl)-3-(dimethylamino)-, methyl ester
Formula: C8H14N2O2
CAS: 49582-44-7
Molecular weight: 170
m/z	intensity
41	200
42	440
43	350
44	559
55	110
56	100
57	70
58	120
59	100
67	85
68	450
69	260
70	110
71	50
72	440
74	60
82	340
83	60
84	60
96	70
98	70
99	210
100	999
112	60
114	50
127	909
128	230
139	430
155	10
170	569
