Mass Spectrum: 3-Buten-2-one, 4-(dimethylamino)-3-(methylamino)-
Formula: C7H14N2O
CAS: 49582-63-0
Molecular weight: 142
m/z	intensity
41	220
42	999
43	400
44	559
45	120
54	120
55	120
56	340
57	100
58	779
68	100
69	160
70	120
71	60
72	80
83	599
84	400
85	80
86	340
96	160
98	240
99	260
100	180
112	80
125	200
127	120
142	759
