Mass Spectrum: 2-Propenoic acid, 3-(dimethylamino)-3-(methylamino)-, methyl ester
Formula: C7H14N2O2
CAS: 49582-53-8
Molecular weight: 158
m/z	intensity
39	60
40	80
41	190
42	709
43	180
44	839
45	120
46	240
54	190
55	450
56	440
57	140
58	130
59	130
68	120
69	170
70	200
71	100
72	869
73	50
74	70
82	739
83	80
84	120
85	200
96	70
97	40
98	140
99	50
100	60
113	60
114	999
115	90
126	110
127	380
128	80
129	90
141	30
143	50
158	549
