Mass Spectrum: 3-Buten-2-one, 4-(1-aziridinyl)-4-(dimethylamino)-
Formula: C8H14N2O
CAS: 49582-43-6
Molecular weight: 154
m/z	intensity
39	100
41	280
42	899
43	999
44	549
54	140
55	260
56	210
58	70
67	70
68	749
69	280
70	400
72	260
82	559
83	809
84	390
94	50
96	140
97	50
98	90
111	719
112	370
137	70
139	210
154	470
