Mass Spectrum: 2-Propenoic acid, 3-(dimethylamino)-3-(1-piperidinyl)-, methyl ester
Formula: C11H20N2O2
CAS: 49582-41-4
Molecular weight: 212
m/z	intensity
41	250
42	450
43	250
44	300
47	220
49	250
55	190
56	120
57	120
58	90
59	90
68	250
69	220
70	270
71	120
72	509
82	220
84	999
86	669
88	130
98	450
99	90
100	480
114	639
127	300
128	190
129	250
139	150
144	60
168	60
169	30
170	180
171	90
181	120
183	60
212	300
