Mass Spectrum: Thiophene, 3-(1,1-dimethylethoxy)-
Formula: C8H12OS
CAS: 49596-64-7
Molecular weight: 156
m/z	intensity
40	42
41	214
43	28
45	157
55	57
56	42
57	228
58	42
71	42
72	28
99	57
100	999
101	85
102	71
113	57
141	42
156	28
