Mass Spectrum: Limonene oxide, trans-
Formula: C10H16O
CAS: 4959-35-7
Molecular weight: 152
m/z	intensity
41	379
43	999
44	144
45	27
46	1
50	15
51	46
52	20
53	121
54	35
55	167
56	28
57	15
58	12
59	5
61	1
62	4
63	13
65	35
67	381
68	77
69	73
70	11
71	41
72	3
74	2
75	1
77	57
79	254
80	37
81	173
82	62
83	46
84	57
85	5
89	1
91	67
92	27
93	219
94	353
95	104
96	16
97	14
98	2
102	0
103	2
105	15
106	10
108	202
109	87
110	13
111	5
115	1
117	2
119	24
120	2
121	12
123	15
124	3
134	3
135	1
137	21
138	2
152	1
