Mass Spectrum: Indane
Formula: C9H10
CAS: 496-11-7
Molecular weight: 118
m/z	intensity
27	19
29	2
33	0
37	3
38	11
39	81
40	1
41	11
42	1
43	1
44	0
45	1
49	1
50	26
51	57
52	14
53	8
55	1
56	2
57	32
58	115
59	14
61	6
62	25
63	65
64	12
65	56
66	4
69	0
70	0
73	0
74	10
75	11
76	9
77	31
78	21
79	4
85	2
86	5
87	7
88	4
89	49
90	14
91	130
92	13
98	0
101	1
102	14
103	34
104	3
109	1
110	0
111	0
112	1
113	12
114	11
115	266
116	104
117	999
118	692
119	68
120	3
