Mass Spectrum: Cyclononanone, 2-hydroxy-
Formula: C9H16O2
CAS: 496-83-3
Molecular weight: 156
m/z	intensity
26	14
27	247
29	244
30	20
31	90
38	6
39	225
41	575
42	178
43	210
44	262
45	66
46	3
50	4
51	13
52	10
53	74
54	172
55	320
56	205
57	999
58	94
59	13
63	1
65	11
66	35
67	357
68	309
69	154
70	69
71	123
72	42
73	15
74	6
77	13
78	12
79	64
80	43
81	305
82	375
83	79
84	130
85	80
86	19
87	5
88	5
89	3
91	22
92	25
93	19
94	290
95	261
96	97
97	133
98	105
99	54
100	37
101	5
105	9
107	12
108	16
109	106
110	146
111	89
112	82
113	25
114	3
115	2
119	2
120	88
121	11
122	5
123	36
125	11
126	6
127	13
128	5
136	2
137	23
138	248
139	28
140	5
142	2
156	81
157	11
