Mass Spectrum: 1H-Isoindole, 2,3-dihydro-
Formula: C8H9N
CAS: 496-12-8
Molecular weight: 119
m/z	intensity
41	10
50	10
51	20
52	10
59	120
60	20
116	20
117	230
118	999
119	290
120	30
