Mass Spectrum: Cyclooctanol-2-one
Formula: C8H14O2
CAS: 496-82-2
Molecular weight: 142
m/z	intensity
26	14
27	213
28	70
29	179
30	13
31	81
33	0
34	0
36	0
37	1
38	5
39	148
40	30
41	305
42	139
43	113
44	217
45	41
46	1
47	2
48	0
50	4
51	11
52	5
53	39
54	93
55	163
56	34
57	999
58	62
59	6
60	5
61	0
62	1
63	2
64	0
65	6
66	16
67	128
68	180
69	29
70	55
71	84
72	21
73	10
74	2
75	2
76	0
77	7
78	13
79	10
80	218
81	229
82	58
83	58
84	16
85	29
86	19
87	3
88	1
89	0
90	0
91	11
92	2
93	7
94	4
95	95
96	79
97	25
98	156
99	16
100	2
101	1
102	0
103	1
104	0
105	5
106	15
107	3
108	2
109	12
110	1
111	7
112	2
113	6
114	3
115	1
121	0
123	7
124	223
125	21
126	1
127	0
129	1
130	0
136	0
138	2
139	1
140	2
141	1
142	102
143	9
144	0
