Mass Spectrum: d-Arabinal
Formula: C5H8O3
CAS: 496-61-7
Molecular weight: 116
m/z	intensity
29	145
30	17
31	59
39	79
40	17
41	33
42	55
43	229
44	143
45	73
46	15
51	13
53	19
54	19
55	45
56	11
57	11
58	13
71	139
72	19
73	999
74	79
75	7
81	9
98	11
99	11
116	65
