Mass Spectrum: 4-Iodo-1,2-thiazole
Formula: C3H2INS
CAS: 49602-28-0
Molecular weight: 211
m/z	intensity
33	38
34	12
37	104
38	213
39	25
40	33
44	53
45	228
46	91
47	11
48	3
50	22
51	83
52	96
53	2
56	149
57	999
58	79
59	88
60	3
68	15
69	35
70	8
82	67
83	99
84	560
85	31
86	24
127	562
128	44
139	47
140	12
141	3
151	10
152	40
153	3
154	5
164	4
165	26
166	3
167	2
183	65
184	197
185	8
186	7
211	554
212	24
213	22
214	3
