Mass Spectrum: 1H-1,2,4-Triazol-3-amine, 1-methyl-
Formula: C3H6N4
CAS: 49607-51-4
Molecular weight: 98
m/z	intensity
27	200
28	820
41	60
42	500
43	360
53	80
70	50
71	220
98	999
99	100
