Mass Spectrum: Benzo[f]cyclopenta[a]quinolizine-6,7,7a,8,9,10(8H)-hexacarboxylic acid, 6,7,9,10,11,12-hexahydro-, hexamethyl ester
Formula: C28H31NO12
CAS: 49616-75-3
Molecular weight: 573
m/z	intensity
59	999
85	120
113	580
192	100
193	110
218	100
220	100
252	180
278	250
284	280
310	100
337	990
338	670
362	40
365	90
369	930
397	250
422	190
429	280
444	10
454	130
482	90
500	60
514	350
515	90
541	10
542	10
573	350
