Mass Spectrum: Methanamine, N-nitro-N-(1-piperidylmethyl)-
Formula: C7H15N3O2
CAS: 49615-05-6
Molecular weight: 173
m/z	intensity
33	2
34	0
37	2
39	81
40	52
41	233
42	318
43	140
44	136
45	16
46	86
50	4
51	9
52	8
53	21
54	39
55	129
56	83
57	53
58	13
59	9
60	0
63	1
65	3
66	2
67	16
68	18
69	49
70	72
71	18
72	4
75	1
76	15
77	4
78	2
79	1
80	6
81	4
82	13
83	24
84	103
85	30
86	12
88	0
89	12
90	1
91	1
93	1
94	6
95	7
96	25
97	104
98	999
99	74
100	3
105	3
108	3
109	1
110	1
111	6
112	3
113	5
114	0
125	8
126	31
127	4
135	0
136	4
137	4
138	1
151	6
152	4
153	2
164	4
173	3
174	0
