Mass Spectrum: 1-Decene, 3,3,4-trimethyl-
Formula: C13H26
CAS: 49622-17-5
Molecular weight: 182
m/z	intensity
25	2
26	20
27	135
28	25
29	186
30	5
31	0
32	1
37	2
38	3
39	96
40	24
41	521
42	123
43	400
44	13
45	0
49	0
50	3
51	4
52	5
53	60
54	20
55	296
56	115
57	491
58	21
59	1
63	1
64	0
65	8
66	4
67	61
68	127
69	409
70	999
71	365
72	18
77	3
78	1
79	10
80	2
81	21
82	16
83	85
84	42
85	14
91	2
92	0
93	2
94	1
95	7
96	5
97	47
98	36
99	4
105	0
107	0
109	3
110	8
111	31
112	52
113	7
114	0
115	0
117	0
123	0
124	0
125	3
126	33
127	11
128	1
137	0
138	1
139	3
140	14
141	1
153	0
154	0
182	3
