Mass Spectrum: 1,3-Dithiole-2-thione, 4,5-bis(methylthio)-
Formula: C5H6S5
CAS: 49638-64-4
Molecular weight: 226
m/z	intensity
33	4
34	6
38	0
39	12
40	14
41	14
42	3
43	14
44	56
45	232
46	62
47	49
48	8
49	3
51	0
53	1
54	2
55	16
56	15
57	35
58	73
59	104
61	320
62	5
63	20
64	40
65	2
66	2
67	5
68	7
69	33
70	13
71	18
73	11
74	3
76	296
77	22
78	25
79	5
80	2
81	9
82	4
83	8
84	4
85	12
86	3
88	643
89	57
91	999
92	42
93	83
94	3
95	2
96	5
97	4
98	5
100	15
101	7
103	362
104	57
105	35
106	9
108	7
109	1
110	2
111	4
113	5
114	4
115	11
116	2
118	27
120	7
122	0
123	1
125	1
127	1
129	2
130	0
135	468
136	28
137	56
138	1
139	4
140	0
143	0
147	5
149	143
150	225
151	31
152	30
153	1
154	1
156	0
161	1
165	0
166	1
167	3
179	1
180	3
182	1
183	0
190	0
193	9
195	1
211	18
213	2
226	731
228	226
229	16
230	14
231	0
