Mass Spectrum: 2,4-Diamino-6,7-bis[4-chlorobenzyl]pteridine
Formula: C20H16Cl2N6
CAS: 49647-21-4
Molecular weight: 410
m/z	intensity
41	27
43	999
44	27
45	12
50	43
51	64
52	11
53	79
54	17
55	36
57	4
62	22
63	118
64	23
65	82
66	132
67	56
68	76
69	30
73	35
74	5
75	120
76	30
77	68
79	23
80	32
85	10
86	5
87	16
89	224
90	70
91	19
92	44
95	12
96	11
97	5
99	71
100	12
101	67
102	32
103	10
106	17
107	5
108	9
110	5
111	18
112	74
113	26
114	51
115	26
116	101
117	11
121	15
123	41
125	583
126	23
127	223
128	26
129	5
131	163
134	5
135	12
136	20
137	17
138	19
139	16
140	23
141	4
142	10
145	5
147	5
148	4
149	59
150	46
151	17
152	39
153	26
154	15
155	25
161	12
162	21
163	28
164	20
165	25
166	9
168	12
169	43
170	6
174	11
176	23
177	16
179	5
180	17
187	5
188	5
189	19
194	4
202	21
203	5
204	5
207	18
208	19
209	4
216	5
217	4
219	13
221	5
225	5
226	5
227	6
228	9
233	21
238	5
243	9
245	4
246	17
249	19
250	48
251	5
255	10
257	5
262	4
263	48
264	20
268	22
270	9
280	9
284	19
285	132
286	27
287	49
297	47
298	10
299	26
373	18
374	28
375	34
376	19
394	46
395	5
396	32
409	280
410	366
411	181
412	253
413	57
414	35
