Mass Spectrum: 2-Amino-4-hydroxy-6,7-bis[2-phenylethyl]pteridine
Formula: C22H21N5O
CAS: 49647-38-3
Molecular weight: 371
m/z	intensity
41	99
43	532
44	27
45	41
46	27
48	211
49	189
50	39
51	146
52	69
53	66
54	47
55	53
57	37
59	19
60	20
64	271
65	280
67	73
68	50
69	73
70	29
71	26
73	21
75	7
77	100
78	69
80	344
81	86
82	60
84	117
86	101
88	23
89	55
91	999
92	38
93	44
94	8
95	23
96	7
97	30
98	30
102	21
103	49
104	39
105	45
106	33
107	40
108	21
109	45
111	32
113	7
115	152
116	35
117	26
119	23
120	16
121	15
122	7
123	7
125	19
127	33
128	31
129	33
130	29
131	9
132	32
133	8
134	38
135	27
136	51
139	16
140	50
141	93
142	41
143	17
147	8
149	22
152	53
153	38
154	26
155	16
156	26
157	28
159	7
162	35
163	22
165	15
166	38
167	50
168	45
169	39
170	7
176	7
178	19
179	20
181	29
183	20
185	28
191	7
192	7
193	38
194	40
195	23
196	16
202	68
203	32
204	20
208	63
209	14
210	21
219	8
221	44
222	18
233	16
235	66
236	14
237	7
239	7
263	17
264	13
265	53
266	151
267	36
268	7
278	77
280	732
281	118
282	16
294	45
356	54
357	7
370	30
371	515
372	114
373	20
