Mass Spectrum: 2-Amino-6,7-bis[3,4-dichlorobenzyl]-4-hydroxypteridine
Formula: C20H13Cl4N5O
CAS: 49647-31-6
Molecular weight: 479
m/z	intensity
41	36
42	34
43	999
44	84
48	21
50	20
51	32
53	106
54	29
55	17
57	11
61	13
62	26
63	163
64	46
65	22
66	17
67	31
68	78
69	156
70	19
71	12
73	101
74	94
75	177
77	22
84	30
85	22
86	23
87	46
88	18
89	204
90	15
92	27
93	21
95	16
97	46
99	100
100	20
101	39
107	15
109	96
111	109
112	15
113	31
114	52
115	27
121	14
123	390
124	171
125	178
126	97
127	28
133	95
135	128
136	37
137	22
138	12
145	25
146	196
148	130
150	117
151	18
152	63
153	21
159	351
161	315
163	108
164	18
165	12
169	30
173	16
174	25
175	13
176	17
182	14
184	20
185	17
186	24
187	37
188	14
189	14
196	17
197	12
198	12
199	12
205	12
208	15
210	12
214	21
216	12
222	14
223	13
224	12
225	12
227	23
228	14
250	12
275	16
285	16
287	12
298	13
320	28
322	20
444	34
446	32
448	12
478	29
479	35
480	39
481	48
482	23
483	24
484	20
