Mass Spectrum: 2-Amino-4-hydroxy-6,7-bis[3,4-dimethylbenzyl]pteridine
Formula: C24H25N5O
CAS: 49647-32-7
Molecular weight: 399
m/z	intensity
41	267
43	999
44	42
45	98
48	140
49	18
51	139
53	165
55	146
57	136
60	50
63	71
64	127
65	54
66	14
67	66
69	262
70	21
71	59
73	32
77	320
79	229
80	101
81	66
83	19
86	15
89	44
90	14
91	313
93	14
95	19
97	49
98	20
103	153
104	50
105	306
106	22
107	71
109	99
111	17
113	23
115	169
116	20
117	157
119	303
120	15
121	22
122	30
125	17
126	20
127	38
128	23
129	22
130	50
132	18
133	291
134	17
135	19
139	37
140	73
141	22
142	60
144	15
147	16
150	15
152	14
153	41
154	14
156	21
157	17
159	199
166	47
168	75
169	22
170	39
177	73
179	15
181	17
182	17
183	19
185	30
192	15
193	31
194	22
195	79
205	19
207	53
208	45
222	41
223	18
229	45
230	19
233	52
235	37
264	31
265	17
275	14
278	140
279	89
280	217
281	83
292	49
293	85
294	67
300	68
320	124
321	18
322	51
384	623
385	94
398	234
399	416
400	117
401	21
