Mass Spectrum: 2-Amino-6,7-bis[3-trifluoromethylbenzyl]-4-hydroxypteridine
Formula: C22H15F6N5O
CAS: 49647-33-8
Molecular weight: 479
m/z	intensity
43	999
44	46
45	11
49	6
51	43
53	68
54	25
55	20
57	21
58	2
59	12
60	4
62	2
63	28
64	7
65	10
66	20
67	26
69	176
70	19
71	30
75	20
77	24
78	3
79	16
80	14
81	11
82	11
83	12
85	6
86	18
87	4
88	6
89	49
90	9
91	2
92	8
93	15
95	24
96	20
97	6
98	8
99	17
101	11
102	12
104	2
106	2
107	26
109	150
111	20
112	10
113	18
114	18
115	9
116	37
119	51
120	5
121	10
123	18
124	5
125	28
126	12
127	24
128	9
129	3
132	31
133	13
134	42
136	3
137	6
138	15
139	8
140	44
141	75
142	3
143	8
144	4
145	28
146	8
147	8
148	4
149	10
150	7
151	62
152	4
153	16
155	17
156	17
157	19
158	14
159	368
161	2
162	3
163	8
164	6
165	14
166	31
167	4
169	69
170	21
171	23
172	15
173	4
174	7
175	6
176	23
177	16
178	12
179	7
180	11
181	8
182	5
183	12
184	17
185	32
186	20
188	10
189	15
190	4
192	3
195	127
196	7
197	26
198	15
200	5
202	15
203	21
204	7
205	22
207	6
208	23
209	5
210	14
211	4
212	4
219	23
220	4
221	7
222	12
223	40
224	16
225	12
229	65
230	10
231	4
233	5
236	3
237	5
238	4
242	8
248	15
249	11
250	23
251	22
252	5
255	8
257	6
258	7
262	6
264	18
265	11
266	6
269	5
270	2
272	5
273	5
275	42
276	14
277	8
278	8
287	9
289	4
293	12
294	7
298	4
300	121
301	28
302	10
303	13
304	4
313	4
314	14
316	3
319	9
320	218
321	43
322	15
323	6
332	14
333	8
334	23
335	3
339	4
341	4
348	7
350	3
366	6
367	6
368	9
369	4
381	4
388	4
389	4
390	27
391	8
393	4
407	3
408	8
409	9
410	222
411	49
412	7
416	3
418	24
419	7
422	3
438	13
439	10
444	29
445	7
457	9
458	38
459	12
460	64
461	17
463	57
464	13
477	9
478	90
479	471
480	122
481	23
