Mass Spectrum: Silane, trimethyl-1-propenyl-, (Z)-
Formula: C6H14Si
CAS: 4964-02-7
Molecular weight: 114
m/z	intensity
27	14
29	35
30	3
31	38
33	1
35	0
37	1
38	3
39	26
40	0
41	16
42	25
43	191
44	30
45	104
46	6
47	3
48	1
49	1
50	1
51	1
52	1
53	37
54	16
55	45
56	7
57	24
58	48
59	645
60	45
61	21
62	0
63	0
64	0
65	6
66	15
67	28
68	4
69	21
70	6
71	11
72	10
73	675
74	53
75	22
76	0
77	2
78	0
79	1
80	0
81	6
82	1
83	31
84	4
85	6
86	5
87	0
93	0
95	1
96	0
97	10
98	10
99	999
100	109
101	39
102	1
114	120
115	13
116	4
