Mass Spectrum: Phenanthrene-10-ethanamine, 3-bromo-.beta.-hydroxy-N,N-diheptyl-, hydrosulfate
Formula: C30H42BrNO4S
CAS: 49647-04-3
Molecular weight: 591
m/z	intensity
42	663
43	999
44	538
45	14
46	6
47	1
48	128
49	8
50	16
51	10
53	29
55	322
57	710
58	41
62	3
64	156
65	10
66	10
67	23
68	27
69	32
70	87
71	19
72	9
74	7
75	6
77	3
80	49
81	20
82	24
84	55
86	23
87	10
88	10
91	1
93	6
94	5
95	16
96	16
97	15
98	26
99	7
100	10
101	34
103	1
107	3
108	5
109	1
110	11
112	11
114	19
115	7
116	3
122	15
123	45
124	13
126	137
128	269
129	15
136	2
138	6
139	1
140	64
141	3
142	24
144	1
150	7
151	1
152	6
154	47
155	5
162	4
163	10
164	3
165	3
166	8
168	12
174	6
176	25
177	3
178	17
180	5
182	5
184	4
187	8
188	7
189	24
190	20
191	11
192	7
194	4
198	2
200	17
202	138
203	84
204	35
205	7
206	7
207	1
208	6
210	5
212	3
213	20
215	35
216	27
217	32
218	6
220	2
222	8
224	148
226	92
227	6
228	18
229	16
230	36
231	18
232	5
234	1
236	7
239	1
240	1
241	5
242	5
243	2
244	9
245	17
246	5
247	1
248	5
252	3
253	2
254	4
256	10
258	8
267	1
269	25
270	24
271	18
272	22
273	1
280	2
281	2
282	15
283	8
284	16
285	7
286	6
293	4
294	5
295	8
296	7
297	6
298	6
300	1
308	18
309	8
310	20
311	7
312	1
315	1
318	1
321	1
322	3
324	22
326	24
327	1
394	4
395	1
396	6
406	4
408	25
409	7
410	26
411	6
414	2
420	4
422	6
424	7
426	5
434	4
436	5
437	1
491	8
492	4
493	111
494	41
495	108
496	36
497	5
