Mass Spectrum: 2-Amino-4-hydroxy-6,7-decamethylenepteridine
Formula: C16H23N5O
CAS: 49647-40-7
Molecular weight: 301
m/z	intensity
41	782
42	174
43	999
45	184
46	13
47	41
49	111
51	103
52	100
53	231
54	155
55	415
56	48
57	69
59	17
60	31
61	5
63	65
64	10
65	144
66	62
67	197
68	109
69	134
70	44
71	27
73	30
74	11
75	12
76	12
77	99
78	21
79	133
80	99
81	67
82	57
83	69
84	55
85	31
86	34
89	7
90	11
91	88
92	47
93	123
94	64
95	85
96	20
97	40
98	24
101	24
102	4
103	17
104	36
105	84
106	62
107	67
108	42
109	22
110	25
111	41
112	14
114	12
115	28
116	6
117	26
118	25
119	49
120	52
121	55
122	48
123	21
124	10
125	9
126	25
129	10
130	19
131	23
132	41
133	33
134	31
135	30
136	29
139	4
142	6
143	9
144	21
145	51
146	39
147	31
148	28
149	9
150	27
151	4
152	5
157	25
158	17
159	31
160	16
161	11
162	10
163	22
165	9
171	23
172	4
173	35
174	30
175	19
177	27
178	26
179	12
185	22
186	16
187	18
188	17
190	27
191	167
192	136
193	21
195	4
199	13
201	9
202	55
203	39
204	103
205	33
206	4
214	10
215	12
216	105
217	84
218	232
219	29
230	57
231	25
232	87
233	12
244	76
245	19
246	4
258	33
286	11
300	9
301	187
302	56
303	16
