Mass Spectrum: 2-Amino-6,8-bis[4-chlorophenyl]-6,8-dihydro-4-hydroxythieno[3,4-g]pteridine-7,7-dioxide
Formula: C20H13Cl2N5O3S
CAS: 49647-41-8
Molecular weight: 473
m/z	intensity
41	17
42	64
43	252
44	165
45	27
48	308
49	3
50	65
51	35
52	9
53	38
54	8
55	11
60	2
61	10
62	19
63	29
64	999
65	168
66	36
67	6
68	12
69	38
70	9
73	38
74	37
75	121
76	30
77	32
78	5
79	2
80	5
81	8
82	13
84	20
85	33
86	26
87	28
88	23
89	142
90	50
91	76
92	18
93	29
94	32
95	3
96	7
97	13
98	10
99	56
100	24
101	67
102	31
104	9
105	6
106	22
107	20
109	5
110	6
111	203
112	76
113	83
114	40
115	10
116	40
117	6
119	3
121	11
122	5
123	20
125	331
126	65
127	85
128	24
130	5
131	3
132	7
134	15
135	6
136	9
137	16
138	8
139	93
140	16
141	40
142	5
143	3
146	4
148	4
150	5
151	4
152	16
153	10
154	3
155	10
156	25
158	4
161	3
162	6
163	15
164	11
165	34
166	8
167	16
168	3
170	4
174	15
175	8
176	8
177	3
178	4
180	8
181	2
186	4
187	13
188	7
189	3
190	4
193	2
194	6
195	3
199	4
200	7
201	16
202	5
203	8
204	3
205	7
206	6
212	11
213	6
214	23
215	10
216	6
217	2
223	4
224	2
225	24
226	13
227	7
228	9
235	6
236	10
237	4
238	7
239	11
240	3
241	3
242	2
243	5
246	2
248	14
250	5
251	2
252	7
254	3
257	2
261	2
263	4
264	11
265	4
266	5
267	16
268	2
272	2
275	10
276	11
277	2
278	6
286	18
287	10
288	8
289	3
295	2
298	4
300	2
302	5
303	7
304	17
305	8
309	2
310	3
327	2
329	16
331	5
337	11
338	11
339	14
340	2
342	2
345	2
347	2
355	8
363	3
364	5
365	6
368	5
372	9
373	8
374	9
375	3
376	21
378	6
382	9
384	11
386	3
407	13
408	8
409	47
410	27
411	30
412	4
413	5
414	2
