Mass Spectrum: 2-Amino-6,7-bis[4-chlorobenzyl]-4-hydroxypteridine
Formula: C20H15Cl2N5O
CAS: 49647-30-5
Molecular weight: 411
m/z	intensity
41	86
43	479
44	39
45	188
46	11
47	109
49	140
50	307
51	286
53	71
55	187
56	45
57	83
59	27
60	40
61	49
62	72
63	236
65	100
67	31
68	33
69	23
70	35
71	37
73	107
74	82
75	156
76	44
77	98
78	49
79	23
81	24
82	13
83	34
84	39
85	44
86	33
87	25
89	179
90	63
91	100
92	14
93	22
95	19
96	7
97	33
99	60
101	55
102	19
105	22
106	24
107	25
109	9
111	103
112	25
113	57
114	18
115	21
116	39
119	8
121	8
123	45
125	999
127	336
128	20
132	35
133	11
134	25
135	14
136	23
137	33
139	282
140	54
141	154
142	15
143	13
147	24
149	20
150	11
151	11
152	27
153	16
154	19
155	23
156	187
157	31
158	49
159	10
163	8
164	7
165	24
166	9
170	76
172	46
176	24
181	9
246	8
264	18
286	27
288	9
376	95
377	24
378	39
396	8
410	37
411	47
412	26
413	26
414	7
