Mass Spectrum: 9-Azabicyclo[3.3.1]non-6-en-2-ol, 9-methyl-, endo-
Formula: C9H15NO
CAS: 49656-54-4
Molecular weight: 153
m/z	intensity
26	8
27	78
28	43
29	37
30	27
31	16
37	3
38	9
39	89
40	19
41	111
42	406
43	42
44	76
45	7
49	1
50	11
51	29
52	22
53	55
54	22
55	36
56	19
57	63
58	56
59	3
60	5
61	1
62	2
63	7
64	3
65	28
66	26
67	54
68	55
69	13
70	41
71	61
72	19
73	78
74	5
75	2
76	2
77	23
78	23
79	34
80	26
81	48
82	51
83	26
84	10
85	2
86	4
89	0
90	1
91	9
92	11
93	23
94	999
95	108
96	171
97	23
98	3
99	1
100	0
102	1
103	2
104	2
105	3
106	7
107	31
108	214
109	67
110	25
111	2
112	27
113	2
117	1
118	3
119	2
120	10
121	3
122	8
123	5
124	32
125	8
126	2
132	2
133	1
134	13
135	2
136	34
137	4
138	13
139	1
150	1
151	1
152	107
153	213
154	20
155	0
