Mass Spectrum: 9-Azabicyclo[4.2.1]nonane-2,5-diol, 9-methyl-, diacetate (ester), (endo,endo)-
Formula: C13H21NO4
CAS: 49656-41-9
Molecular weight: 255
m/z	intensity
42	509
43	959
55	190
67	200
70	180
82	689
94	999
108	200
110	200
124	40
136	90
152	250
170	40
196	919
212	450
255	220
