Mass Spectrum: 2,5-Methanofuro[3,2-b]pyridine, octahydro-
Formula: C8H13NO
CAS: 49656-63-5
Molecular weight: 139
m/z	intensity
27	78
28	99
29	65
30	54
39	85
40	21
41	176
42	79
43	200
44	46
45	44
53	63
54	129
55	147
56	259
57	122
60	20
65	28
66	26
67	132
68	216
69	128
70	87
71	63
73	21
77	32
79	48
80	281
81	157
82	999
83	378
84	210
85	45
91	20
93	38
94	182
95	146
96	234
97	74
98	50
99	19
108	22
109	49
110	151
111	99
112	29
120	28
122	28
124	45
138	101
139	810
140	153
141	21
