Mass Spectrum: 9-Azabicyclo[3.3.1]nonane-2,6-diol, 9-methyl-, monoacetate (ester), (endo,endo)-
Formula: C11H19NO3
CAS: 49656-43-1
Molecular weight: 213
m/z	intensity
42	539
43	470
57	300
70	270
82	220
83	210
94	999
112	370
126	150
140	40
154	300
170	330
182	20
196	20
213	310
