Mass Spectrum: Acetic acid, ethoxyhydroxy-, ethyl ester
Formula: C6H12O4
CAS: 49653-17-0
Molecular weight: 148
m/z	intensity
12	2
13	6
14	17
15	47
16	3
17	1
18	3
24	1
25	7
26	50
27	410
28	143
29	999
30	149
31	780
32	9
33	2
39	1
40	2
41	10
42	22
43	77
44	26
45	369
46	100
47	73
48	1
55	4
56	7
57	152
58	13
59	21
60	2
61	3
67	1
69	2
70	2
71	1
73	18
74	5
75	62
76	7
77	1
81	1
83	1
86	1
87	2
88	4
91	1
97	2
99	1
102	1
103	24
104	3
105	1
116	1
129	3
131	5
133	1
