Mass Spectrum: 5(2H)-Oxazolone, 4-(phenylmethyl)-
Formula: C10H9NO2
CAS: 49656-77-1
Molecular weight: 175
m/z	intensity
77	90
89	90
90	100
91	999
92	90
102	30
103	50
104	40
116	70
117	380
118	60
130	230
131	130
147	10
156	60
175	380
