Mass Spectrum: 9-Azabicyclo[3.3.1]nonane-2,6-diol, 9-methyl-, diacetate (ester), (endo,endo)-
Formula: C13H21NO4
CAS: 49656-42-0
Molecular weight: 255
m/z	intensity
26	2
27	26
28	19
29	25
30	19
31	4
39	35
40	6
41	99
42	256
43	388
44	62
45	12
51	4
52	4
53	23
54	21
55	58
56	33
57	76
58	31
59	2
60	7
61	2
63	1
65	11
66	7
67	50
68	52
69	27
70	112
71	25
72	5
73	12
74	2
77	14
78	6
79	23
80	18
81	42
82	103
83	69
84	32
85	4
86	5
91	8
92	5
93	20
94	999
95	128
96	130
97	22
98	15
99	4
100	3
103	2
105	10
106	5
107	20
108	98
109	57
110	73
111	10
112	36
113	7
114	15
115	2
118	2
119	3
120	7
121	8
122	12
123	5
124	21
125	5
126	18
127	2
132	2
133	1
134	29
135	12
136	40
137	7
138	2
139	1
140	9
141	1
142	4
150	4
152	122
153	15
154	37
155	5
156	27
157	2
168	17
169	11
170	16
180	1
182	8
183	2
184	5
185	2
194	52
195	21
196	175
197	24
198	3
212	203
213	37
214	3
254	2
255	99
256	16
257	1
