Mass Spectrum: 9-Azabicyclo[3.3.1]nonane-2,6-diol, 9-methyl-, (endo,endo)-
Formula: C9H17NO2
CAS: 49656-40-8
Molecular weight: 171
m/z	intensity
42	899
57	519
70	549
82	559
83	509
94	270
96	340
112	999
114	330
126	230
127	250
140	180
154	80
171	480
