Mass Spectrum: 9-Azabicyclo[3.3.1]nonan-2-ol, 9-methyl-, acetate (ester), endo-
Formula: C11H19NO2
CAS: 49656-53-3
Molecular weight: 197
m/z	intensity
26	3
27	39
28	6
29	29
30	18
31	4
37	1
38	3
39	46
40	8
41	109
42	220
43	138
44	52
45	4
50	2
51	8
52	5
53	23
54	22
55	55
56	29
57	99
58	24
59	2
60	3
61	2
63	2
64	2
65	8
66	6
67	42
68	46
69	36
70	117
71	13
72	3
73	9
74	2
75	1
76	1
77	12
78	5
79	51
80	19
81	42
82	99
83	39
84	18
85	2
86	3
87	1
91	7
92	4
93	11
94	166
95	54
96	999
97	254
98	89
99	9
100	3
103	1
104	1
105	8
106	4
107	9
108	42
109	27
110	275
111	79
112	28
113	3
114	2
118	1
119	1
120	3
121	2
122	9
123	10
124	29
125	5
126	37
127	8
128	1
134	1
135	1
136	19
137	12
138	220
139	22
140	4
141	1
152	2
153	2
154	370
155	66
156	7
157	1
168	16
169	3
170	0
182	5
183	0
196	6
197	208
198	32
199	3
