Mass Spectrum: 1-Naphthalenecarboxylic acid, 5-[2-(3-furanyl)ethyl]decahydro-1,4a-dimethyl-6-methylene-, methyl ester, [1S-(1.alpha.,4a.alpha.,5.alpha.,8a.beta.)]-
Formula: C21H30O3
CAS: 4966-14-7
Molecular weight: 330
m/z	intensity
26	9
27	257
28	35
29	179
30	4
31	7
32	16
33	4
38	7
39	170
40	39
41	519
42	41
43	137
44	7
45	29
50	7
51	42
52	37
53	429
54	41
55	346
56	21
57	30
58	3
59	123
60	4
61	4
63	10
64	7
65	82
66	33
67	214
68	32
69	105
70	8
71	16
72	4
73	34
74	3
75	8
77	157
78	45
79	233
80	46
81	999
82	328
83	56
84	5
85	21
87	8
88	9
89	8
91	181
92	38
93	167
94	118
95	160
96	21
97	43
98	5
99	6
100	4
101	42
102	7
103	23
104	16
105	129
106	34
107	214
108	40
109	142
110	14
111	8
112	2
113	7
114	7
115	28
116	13
117	35
118	14
119	104
120	54
121	856
122	100
123	57
124	6
125	7
126	2
127	10
128	19
129	18
130	9
131	29
132	11
133	100
134	45
135	72
136	21
137	9
139	10
140	2
141	9
142	5
143	9
144	6
145	23
146	10
147	87
148	57
149	66
150	18
151	5
152	3
153	30
154	4
155	5
156	2
157	7
158	3
159	18
160	14
161	58
162	54
163	31
164	5
165	6
166	2
167	7
168	3
169	8
171	5
172	3
173	22
174	9
175	35
176	27
177	30
178	5
179	31
180	27
181	82
182	11
183	6
185	4
186	3
187	11
188	79
189	250
190	38
191	4
193	3
195	2
197	2
199	5
201	13
202	4
203	3
204	6
207	4
208	2
215	7
216	12
217	14
218	2
221	18
222	4
227	3
233	3
234	12
235	19
236	24
237	5
241	3
247	6
248	19
249	61
250	10
253	5
255	17
256	3
270	46
271	83
272	16
298	6
301	4
302	4
312	3
315	14
316	3
330	309
331	68
332	8
