Mass Spectrum: 3-Ethenyl-3-methylcyclopentanone
Formula: C8H12O
CAS: 49664-66-6
Molecular weight: 124
m/z	intensity
26	17
27	152
28	132
29	57
31	4
37	5
38	20
39	202
40	71
41	251
42	64
43	78
44	7
45	12
47	3
49	4
50	25
51	50
52	31
53	246
54	79
55	177
56	145
57	23
58	4
59	6
60	8
61	4
62	5
63	15
65	50
66	40
67	860
68	999
69	123
70	16
71	13
73	8
74	3
77	35
78	11
79	88
80	42
81	297
82	271
83	45
84	7
85	6
86	4
88	6
91	43
92	5
93	26
94	9
95	95
96	449
97	60
98	10
99	3
106	15
107	9
108	6
109	94
110	15
122	9
123	13
124	271
125	28
