Mass Spectrum: Benzamide, N-[2-hydrazino-2-oxo-1-(3,4-dihydro-4-oxo-1-phthalazinyl)ethyl]-
Formula: C17H15N5O3
CAS: 49660-30-2
Molecular weight: 337
m/z	intensity
33	19
34	2
38	2
39	11
40	15
41	6
42	18
43	48
44	31
45	7
48	0
50	24
51	77
52	7
53	2
54	0
55	3
56	2
57	3
58	3
59	1
60	1
61	7
62	24
63	11
64	5
65	7
66	1
67	0
68	0
69	2
70	1
71	1
73	1
74	7
75	15
76	35
77	388
78	29
79	3
81	2
82	0
83	0
84	0
85	0
86	0
87	1
88	6
89	21
90	14
91	16
92	4
93	0
94	0
95	5
96	0
97	0
98	0
101	11
102	18
103	19
105	999
106	74
107	5
108	0
109	0
110	0
111	0
112	0
113	0
114	1
115	2
116	5
117	5
118	4
119	1
120	0
121	2
122	3
123	0
124	1
125	1
127	0
128	3
129	8
130	13
131	2
132	2
133	1
134	20
135	2
136	1
137	3
138	19
139	2
140	0
144	3
145	2
146	2
147	3
148	0
149	0
155	0
156	0
157	0
158	0
159	1
160	1
162	76
163	7
164	0
165	0
171	2
172	10
173	6
174	69
175	8
176	1
186	1
187	4
188	0
201	0
202	0
203	6
204	0
217	1
232	3
244	0
261	3
262	7
263	0
275	0
276	2
278	49
279	10
280	0
288	0
301	0
302	3
304	5
305	34
306	82
307	15
308	1
