Mass Spectrum: Heptafluorobutyric acid, 2-methylpropyl ester
Formula: C8H9F7O2
CAS: 49669-71-8
Molecular weight: 270
m/z	intensity
26	2
27	66
28	53
29	134
30	7
31	12
38	3
39	106
40	25
41	634
42	92
43	961
44	31
45	5
47	5
50	9
51	4
53	10
54	6
55	128
56	544
57	999
58	47
59	14
61	28
62	2
69	267
70	3
78	15
80	2
81	14
85	2
93	4
100	156
101	3
109	27
113	2
119	92
131	10
147	3
150	31
166	2
167	5
169	531
170	16
197	10
199	6
227	2
228	15
229	10
255	10
