Mass Spectrum: O-Methyl N-tert-butylformimidate
Formula: C6H13NO
CAS: 49680-36-6
Molecular weight: 115
m/z	intensity
15	107
27	95
28	142
29	214
30	47
39	119
41	476
42	178
43	47
56	130
57	357
60	142
68	178
72	119
84	35
86	47
100	119
101	59
115	999
