Mass Spectrum: 2-Methoxy-3,3,4,4-tetramethylazetine
Formula: C8H15NO
CAS: 49680-46-8
Molecular weight: 141
m/z	intensity
15	270
18	310
27	250
28	300
29	180
39	360
41	999
42	700
43	300
55	260
56	330
57	180
58	200
68	180
69	700
70	450
73	130
83	130
84	440
85	180
99	150
126	340
140	140
141	490
