Mass Spectrum: Butanoic acid, 3-methyl-3-nitroso-, methyl ester
Formula: C6H11NO3
CAS: 49680-44-6
Molecular weight: 145
m/z	intensity
15	50
18	120
29	90
30	60
42	230
43	140
55	270
56	190
59	270
73	999
83	390
98	90
114	170
115	230
129	23
