Mass Spectrum: 2-Methoxy-4,4,5,5-tetramethyl-2-oxazoline
Formula: C8H15NO2
CAS: 49680-47-9
Molecular weight: 157
m/z	intensity
15	240
18	50
26	70
27	100
28	90
39	100
41	220
42	140
43	90
56	160
69	60
73	30
84	999
85	80
98	120
99	120
110	40
126	12
142	44
157	22
