Mass Spectrum: 1,2-Benzenedicarboxylic acid, 3,4,5,6-tetrabromo-, di-2-propenyl ester
Formula: C14H10Br4O4
CAS: 49693-09-6
Molecular weight: 558
m/z	intensity
41	999
42	50
43	38
44	15
45	1
47	1
49	5
51	3
53	2
54	8
55	16
56	11
57	93
58	4
60	2
61	1
63	2
67	3
68	10
69	19
70	12
71	0
72	16
73	8
74	3
75	1
77	0
79	20
80	69
81	19
82	31
83	17
84	5
85	0
86	4
87	2
88	1
91	2
93	1
97	2
98	120
99	8
100	3
101	3
112	0
113	6
114	0
115	3
116	2
117	3
119	0
127	1
129	2
131	2
133	2
139	3
141	3
143	1
151	23
152	10
153	23
154	8
155	2
156	0
157	2
160	0
167	1
168	2
169	1
170	3
179	7
180	3
181	6
182	3
191	1
192	1
193	2
194	1
195	2
196	2
197	2
207	1
208	1
209	1
210	1
218	1
219	1
220	1
221	2
222	1
223	2
224	2
225	1
230	25
232	54
233	18
234	15
235	4
246	2
247	2
248	3
249	3
250	2
251	1
258	1
259	1
260	2
261	4
262	1
263	2
270	1
271	2
272	3
273	3
274	3
275	2
276	1
277	1
288	1
289	0
296	0
298	4
300	4
302	4
304	2
305	0
306	1
307	0
308	8
310	26
312	30
314	8
315	7
316	2
324	0
325	1
326	5
328	3
329	3
330	3
331	0
336	1
337	3
338	14
340	17
342	5
343	4
344	1
350	1
352	2
353	1
354	3
355	1
356	4
367	2
369	1
376	1
378	5
380	7
382	7
384	7
386	5
387	3
388	1
389	13
391	19
393	15
394	2
395	4
405	1
407	2
409	1
415	5
417	21
419	34
421	27
422	6
423	2
424	3
425	0
431	0
432	2
434	2
435	0
436	3
437	1
438	1
439	0
443	7
445	28
447	40
449	28
451	9
452	1
457	1
458	2
459	3
460	30
462	108
464	152
466	103
468	29
469	0
470	0
473	1
474	3
475	3
476	4
477	3
478	3
479	0
480	2
483	3
485	12
487	17
489	12
491	3
493	0
498	0
499	1
500	3
501	4
502	9
503	8
504	14
505	5
506	13
508	4
559	2
560	2
561	3
562	3
563	2
564	2
