Mass Spectrum: 2-Amino-3-cyano-5-aldoximinopyrazine-1-oxide
Formula: C6H5N5O2
CAS: 49699-53-8
Molecular weight: 179
m/z	intensity
41	58
42	160
43	344
44	999
45	214
46	24
48	29
50	39
51	184
52	297
53	557
54	213
55	232
56	137
57	37
58	16
59	8
60	10
61	9
62	23
63	47
64	151
65	352
66	178
67	117
68	24
69	43
70	88
71	106
72	11
73	20
74	13
75	4
76	27
77	136
78	37
79	82
80	48
81	40
82	43
83	26
88	7
89	34
90	51
91	261
92	104
93	29
94	118
95	33
96	26
97	3
99	4
100	9
104	14
105	104
106	17
107	155
108	85
109	22
116	10
117	11
118	69
119	52
120	23
121	5
122	165
123	24
124	22
131	2
132	7
133	9
134	160
135	91
136	18
145	104
146	23
147	9
149	16
150	20
151	5
152	44
153	9
155	13
159	2
161	265
162	95
163	45
164	9
178	8
179	625
180	75
181	16
