Mass Spectrum: Cyclopropanecarboxylic acid, 3-[2-(methoxycarbonyl)-1-propenyl)-2,2-dimethyl-
Formula: C11H16O4
CAS: 497-96-1
Molecular weight: 212
m/z	intensity
39	444
41	471
51	106
53	231
55	148
59	128
63	57
65	200
67	191
69	48
77	222
79	253
81	51
91	497
93	297
97	102
107	999
108	120
109	148
111	460
125	431
134	200
135	177
136	77
137	77
139	44
151	86
152	71
153	300
162	86
166	84
167	320
169	100
180	53
181	106
194	44
195	17
197	26
212	20
