Mass Spectrum: 8,8-Dimethyl-2-oxo-2,8,9,10-tetrahydropyrano(2,3-f)chromene-9,10-diyl bis((Z)-2-methyl-2-butenoate)
Formula: C24H26O7
CAS: 4970-26-7
Molecular weight: 426
m/z	intensity
17	1
18	3
26	3
27	21
28	13
29	37
37	1
38	3
39	40
40	3
41	18
42	3
43	16
44	4
45	3
49	1
50	7
51	11
52	5
53	31
54	34
55	371
56	18
57	9
58	1
59	1
60	1
62	2
63	8
64	4
65	4
66	1
67	2
69	9
70	2
71	9
72	3
73	1
74	2
75	4
76	4
77	7
78	2
79	3
81	6
82	71
83	999
84	61
85	15
86	3
87	1
88	1
89	5
90	2
91	6
92	6
93	3
95	1
97	2
98	1
99	3
100	40
101	6
102	6
103	2
105	3
106	1
107	2
108	1
113	2
114	1
115	7
116	2
117	2
118	2
119	2
121	1
126	1
127	4
128	9
129	4
130	3
131	4
132	1
133	2
134	4
135	1
139	1
141	4
142	1
143	1
144	1
145	3
146	3
147	3
148	1
149	1
152	1
153	1
155	3
156	1
157	3
158	5
159	5
160	2
161	2
162	3
163	1
169	2
171	5
172	2
173	6
174	3
175	9
176	2
181	2
182	2
183	5
184	3
185	13
186	5
187	6
188	4
189	9
190	2
191	4
197	5
198	19
199	9
200	2
201	23
202	4
203	4
210	2
211	1
212	1
213	86
214	13
215	9
216	9
217	1
226	41
227	58
228	21
229	174
230	25
231	3
241	1
242	1
243	35
244	50
245	17
246	2
255	1
256	1
261	8
262	1
267	1
273	1
281	1
283	2
287	1
298	2
299	3
311	108
312	21
313	4
314	2
326	90
327	148
328	31
329	5
343	2
426	5
427	1
