Mass Spectrum: Furoxan, 3-methyl-4-phenoxy-
Formula: C9H8N2O3
CAS: 49739-29-9
Molecular weight: 192
m/z	intensity
33	30
39	562
40	143
41	31
42	15
44	51
50	116
51	606
52	79
53	47
54	3
55	93
57	67
62	24
63	69
65	222
66	97
67	29
74	15
75	34
77	999
78	391
81	231
82	9
93	229
94	34
103	288
104	412
105	22
108	6
109	18
118	5
121	104
122	2
132	686
133	32
134	13
135	5
162	23
192	218
193	10
