Mass Spectrum: Acetic acid, cyano-, (1-methylethylidene)hydrazide
Formula: C6H9N3O
CAS: 4974-42-9
Molecular weight: 139
m/z	intensity
67	100
68	385
69	63
70	285
71	781
72	457
73	113
74	2
75	2
79	4
80	115
81	200
82	304
83	21
84	6
86	2
93	2
94	26
95	44
96	691
97	261
98	124
99	308
100	27
107	6
109	2
110	4
111	3
122	13
123	27
124	999
125	268
126	25
136	9
138	42
139	378
140	173
141	12
