Mass Spectrum: 8-Oxabicyclo[3.2.1]oct-6-en-3-one, 2,4-dimethyl-
Formula: C9H12O2
CAS: 49747-05-9
Molecular weight: 152
m/z	intensity
25	1
26	26
27	145
28	120
29	35
30	1
31	6
33	0
34	0
37	5
38	17
39	177
40	45
41	169
42	15
43	57
44	1
45	1
46	0
47	3
48	4
49	1
50	13
51	29
52	12
53	82
54	15
55	84
56	88
57	37
58	2
59	0
60	0
61	1
62	5
63	10
64	1
65	39
66	21
67	127
68	62
69	21
70	1
71	2
73	0
74	1
75	0
76	0
77	20
78	4
79	30
80	4
81	999
82	55
83	24
84	33
85	7
86	0
89	0
90	0
91	28
92	2
93	5
94	7
95	309
96	645
97	56
98	3
99	0
103	0
105	5
106	1
107	7
108	8
109	63
110	5
111	0
112	0
115	0
117	0
119	6
120	0
121	1
122	0
123	28
124	4
125	0
133	1
134	2
135	1
136	0
137	128
138	11
139	1
151	1
152	289
153	31
154	2
