Mass Spectrum: Silane, 2-butenyltrichloro-, (Z)-
Formula: C4H7Cl3Si
CAS: 49749-84-0
Molecular weight: 188
m/z	intensity
27	92
29	110
39	85
53	55
54	90
55	999
56	47
63	55
65	21
116	24
133	71
135	71
137	28
188	56
190	55
