Mass Spectrum: Acetic acid, cyano-, salicylidenehydrazide
Formula: C10H9N3O2
CAS: 4974-49-6
Molecular weight: 203
m/z	intensity
33	1
37	7
38	33
39	148
40	102
41	47
42	50
43	34
44	26
45	3
50	44
51	125
52	77
53	69
54	11
55	12
56	3
57	3
59	1
60	3
61	3
62	15
63	78
64	62
65	103
66	19
67	10
68	65
69	9
70	2
71	2
72	0
74	5
75	16
76	17
77	213
78	101
79	31
80	69
81	17
82	4
83	1
84	4
85	39
86	1
87	1
88	1
89	9
90	53
91	182
92	53
93	30
94	12
95	4
97	0
100	0
102	47
103	4
105	70
106	32
107	58
108	37
109	10
110	6
112	0
113	0
114	0
115	0
117	31
119	999
120	768
121	122
122	8
123	1
125	0
128	0
129	0
132	0
133	3
134	13
135	58
136	12
137	0
143	0
145	0
146	3
147	1
148	0
149	1
160	2
161	2
163	120
164	10
165	0
171	2
172	0
173	6
174	0
185	2
186	13
187	1
189	1
190	0
200	0
201	3
202	33
203	479
204	59
205	4
