Mass Spectrum: 1-Benzyl-6-hydroxy-4-methyl-2(1H)-oxo-3-pyridinecarbonitrile
Formula: C14H12N2O2
CAS: 49764-23-0
Molecular weight: 240
m/z	intensity
34	23
36	66
37	58
38	108
39	293
40	170
41	137
42	230
43	93
44	128
45	15
46	4
47	3
48	9
50	185
51	301
52	180
53	104
54	26
55	42
56	67
57	41
58	97
59	7
60	8
61	22
62	37
63	108
64	94
65	208
67	75
68	17
69	18
70	31
71	17
72	10
74	30
75	37
76	68
77	224
78	149
79	74
80	29
81	14
82	8
83	8
84	20
86	317
89	135
91	999
92	49
93	9
94	4
95	3
96	3
97	4
99	7
100	21
101	44
103	47
104	126
105	72
106	72
107	124
108	106
109	8
114	3
115	7
116	7
117	11
118	25
119	9
120	4
127	5
128	8
129	7
130	5
132	58
133	23
134	27
135	26
136	4
140	3
143	4
145	4
146	10
154	7
156	4
166	5
167	7
168	11
169	20
171	6
181	4
182	16
183	45
184	9
193	6
195	7
197	31
209	8
210	23
211	160
212	141
213	19
237	9
238	20
240	300
241	29
