Mass Spectrum: Cetadiol, 2TMS derivative
Formula: C25H46O2Si2
CAS: 49774-92-7
Molecular weight: 434
m/z	intensity
73	100
75	80
79	20
81	70
91	40
93	60
95	60
105	60
106	20
107	190
108	20
109	60
119	280
120	70
121	100
129	999
130	140
131	110
132	30
133	120
134	20
135	30
143	140
144	40
145	400
146	70
147	70
148	30
149	30
155	50
157	50
158	40
159	120
160	60
161	160
162	30
169	40
171	30
173	70
183	30
185	30
187	50
195	20
197	40
198	20
199	40
211	30
213	160
214	60
215	860
216	150
239	390
240	80
253	70
254	300
255	80
304	120
305	180
306	50
329	140
330	40
344	300
345	90
346	20
419	30
434	160
435	60
436	20
