Mass Spectrum: Heptanoic acid, 4-oxo-, methyl ester
Formula: C8H14O3
CAS: 49770-81-2
Molecular weight: 158
m/z	intensity
43	999
55	440
59	230
71	780
98	50
115	520
127	210
130	260
