Mass Spectrum: Pseudotigogenin diacetate
Formula: C31H48O5
CAS: 49774-65-4
Molecular weight: 500
m/z	intensity
41	138
42	35
43	999
44	41
47	10
48	4
49	5
51	1
53	31
54	16
55	176
56	26
57	35
58	7
59	9
60	2
61	53
65	16
66	7
67	142
68	24
69	91
70	9
71	21
72	3
73	20
74	2
77	43
78	8
79	130
80	20
81	159
82	20
83	46
84	91
85	45
86	28
87	6
88	4
91	119
92	21
93	151
94	40
95	258
96	30
97	48
98	8
99	19
100	10
101	26
103	6
104	3
105	99
106	37
107	160
108	185
109	192
110	22
111	27
112	5
113	10
114	8
115	55
116	7
117	24
118	9
119	62
120	24
121	174
122	107
123	63
124	25
125	13
126	7
127	6
128	7
129	12
130	7
131	35
132	8
133	53
134	19
135	70
136	11
137	15
138	5
139	16
140	3
141	10
142	6
143	14
144	20
145	61
146	13
147	59
148	21
149	46
150	16
151	16
152	4
153	4
154	1
155	8
157	13
158	4
159	30
160	10
161	53
162	62
163	226
164	33
165	27
166	6
167	4
169	6
171	8
173	17
174	5
175	15
176	5
177	9
178	18
179	6
180	1
181	8
183	4
185	6
187	10
188	2
189	8
190	3
191	3
197	3
199	8
201	19
202	3
203	5
205	1
207	1
210	6
211	1
213	10
214	7
215	32
216	14
217	30
218	6
222	3
223	31
224	37
225	7
229	6
231	4
239	1
240	8
241	5
253	3
255	13
257	9
259	2
273	14
274	8
275	5
276	4
315	13
316	5
327	1
331	4
345	16
346	2
358	4
359	6
360	5
375	6
385	14
386	5
398	4
399	6
438	6
439	2
440	5
441	1
454	1
498	1
500	118
501	41
502	7
