Mass Spectrum: Androst-5-en-16-one, 3-[(trimethylsilyl)oxy]-, (3.beta.)-
Formula: C22H36O2Si
CAS: 49774-91-6
Molecular weight: 360
m/z	intensity
73	80
75	40
81	20
93	40
95	20
107	30
109	20
119	20
121	40
129	999
130	120
131	50
143	20
145	20
173	20
213	20
230	30
231	120
232	20
255	70
270	120
271	20
304	170
305	40
345	30
360	70
361	20
