Mass Spectrum: Quinolin-4-ol, decahydro-
Formula: C9H17NO
CAS: 49788-04-7
Molecular weight: 155
m/z	intensity
35	11
36	58
38	23
39	42
40	12
41	75
42	39
43	43
44	40
45	5
50	2
51	7
52	5
53	28
54	30
55	40
56	53
57	35
58	4
59	1
63	1
64	0
65	7
66	6
67	41
68	72
69	33
70	26
71	5
72	3
73	0
74	0
77	15
78	5
79	22
80	21
81	25
82	69
83	14
84	11
85	1
86	1
91	9
92	1
93	7
94	17
95	6
96	31
97	6
98	116
99	27
100	1
104	0
105	1
106	4
107	1
108	13
109	8
110	42
112	999
113	66
114	4
119	0
120	0
121	0
122	3
124	3
125	2
126	8
127	1
128	0
132	0
133	0
134	3
136	37
137	5
138	29
139	3
140	0
152	1
153	2
154	48
155	201
156	19
157	0
