Mass Spectrum: 2-Heptanone, 6-methyl-5-methylene-
Formula: C9H16O
CAS: 498-51-1
Molecular weight: 140
m/z	intensity
39	270
41	390
43	999
53	110
55	490
67	150
69	120
83	90
97	90
122	90
140	10
