Mass Spectrum: 3-Cyclohexene-1-methanol, 5-hydroxy-.alpha.,.alpha.,4-trimethyl-
Formula: C10H18O2
CAS: 498-71-5
Molecular weight: 170
m/z	intensity
26	1
27	24
28	4
29	25
30	1
31	38
38	3
39	60
40	10
41	135
42	8
43	306
44	12
45	25
46	1
47	1
48	1
50	6
51	25
52	8
53	49
54	18
55	136
56	27
57	27
58	11
59	661
60	23
61	6
62	3
63	10
64	3
65	46
66	20
67	97
68	11
69	131
70	36
71	90
72	9
74	1
75	1
76	1
77	107
78	23
79	450
80	53
81	142
82	49
83	77
84	71
85	13
86	1
87	5
89	3
90	2
91	106
92	13
93	145
94	132
95	208
96	60
97	65
100	2
101	2
102	2
103	7
107	30
108	183
109	999
110	128
111	31
112	36
113	4
115	5
116	2
117	8
118	1
119	88
120	11
121	16
122	4
123	53
124	27
125	1
132	2
134	9
135	20
137	296
138	26
139	5
151	17
152	179
153	29
154	3
155	14
156	1
170	1
