Mass Spectrum: Homoserine
Formula: C4H9NO3
CAS: 498-19-1
Molecular weight: 119
m/z	intensity
26	12
27	59
28	222
29	79
30	101
31	91
38	3
39	15
40	9
41	34
42	128
43	143
44	533
45	37
46	36
52	5
53	4
54	19
55	45
56	286
57	110
58	5
65	3
69	3
70	13
71	12
72	15
73	47
74	999
75	63
76	6
77	3
83	11
86	8
88	7
89	34
94	3
101	34
102	4
104	4
119	2
120	12
