Mass Spectrum: .alpha.-Hydroxyisocaproic acid
Formula: C6H12O3
CAS: 498-36-2
Molecular weight: 132
m/z	intensity
12	1
14	4
15	28
16	2
17	9
18	40
25	1
26	13
27	223
28	54
29	229
30	11
31	44
32	1
36	1
37	7
38	14
39	152
40	24
41	555
42	82
43	966
44	123
45	479
46	11
47	9
49	2
50	9
51	10
52	3
53	41
54	7
55	72
56	12
57	259
58	51
59	27
60	11
61	5
62	2
63	2
65	3
66	2
67	17
68	10
69	999
70	61
71	108
72	62
73	34
74	4
75	42
76	273
77	10
78	3
79	1
81	15
82	3
83	4
84	3
85	24
86	8
87	549
88	35
89	13
90	5
91	1
94	1
95	6
96	9
97	3
98	6
99	62
100	4
101	11
102	3
103	4
111	1
113	14
114	6
115	2
117	1
130	5
131	4
132	5
133	2
