Mass Spectrum: 4-(Acetoxymethyl)-1-azabicyclo[2.2.2]octane
Formula: C10H17NO2
CAS: 49805-69-8
Molecular weight: 183
m/z	intensity
27	120
28	133
29	73
39	98
41	266
42	946
43	573
44	62
53	97
55	128
56	89
67	73
69	128
81	63
96	346
108	58
110	999
111	93
124	746
140	77
183	253
