Mass Spectrum: 4-(Chloromethyl)-1-azabicyclo[2.2.2]octane
Formula: C8H14ClN
CAS: 49805-71-2
Molecular weight: 159
m/z	intensity
27	221
28	195
29	65
30	91
39	182
41	325
42	999
44	65
53	117
54	65
55	104
56	143
67	104
69	91
81	56
96	325
110	571
124	921
125	91
159	156
161	45
