Mass Spectrum: Benzyloxyethyl-p-toluenesulfonate
Formula: C16H18O4S
CAS: 4981-83-3
Molecular weight: 306
m/z	intensity
41	50
43	22
45	69
47	2
49	11
50	28
51	86
52	26
53	15
54	0
55	2
57	0
61	0
62	16
63	88
65	515
66	22
67	2
69	1
71	1
73	13
74	4
75	6
77	105
78	26
79	58
80	5
81	1
84	3
85	0
86	3
87	2
89	55
91	999
92	114
93	9
94	1
95	0
102	0
103	2
104	18
105	330
106	357
107	218
108	28
109	2
111	1
115	2
116	1
118	22
119	4
120	1
121	2
122	0
123	1
128	0
129	0
131	0
133	23
134	66
135	7
136	2
139	4
140	0
141	1
149	8
151	45
152	7
153	3
155	79
156	7
157	3
165	10
166	5
167	9
168	1
172	73
173	77
174	11
175	4
178	1
179	1
181	20
182	4
195	1
196	0
197	1
199	12
200	2
201	0
215	2
217	4
229	0
305	5
306	72
307	29
308	7
309	1
