Mass Spectrum: N,N'-Dicarbethoxy-N-[2,4-diamino-6-hydroxy-5-pyrimidinyl]hydrazine
Formula: C10H16N6O5
CAS: 49810-02-8
Molecular weight: 300
m/z	intensity
41	22
42	96
43	360
44	999
45	812
46	186
47	27
55	11
56	15
61	80
62	821
63	10
67	6
68	36
69	27
70	24
71	20
74	163
84	9
85	12
86	25
89	53
90	120
97	6
98	51
99	5
110	4
111	17
112	33
113	4
123	5
126	233
127	28
138	30
139	29
140	44
153	38
155	26
167	39
168	4
181	75
182	8
212	15
213	5
227	62
228	7
300	21
301	2
