Mass Spectrum: N-Benzyl-1H-benzimidazole
Formula: C14H12N2
CAS: 4981-92-4
Molecular weight: 208
m/z	intensity
50	22
51	40
52	18
53	5
54	4
55	12
56	5
57	15
62	13
63	43
64	27
65	111
66	9
69	19
75	12
76	24
77	42
78	14
79	5
89	28
90	31
91	999
92	87
93	6
103	24
104	23
105	18
106	12
107	7
118	60
119	16
131	12
132	3
135	15
165	11
166	4
167	9
207	15
208	372
209	58
210	4
