Mass Spectrum: N,N'-Dicarbethoxy-N-[2,4-diamino-6-chloro-5-pyrimidinyl]hydrazine
Formula: C10H15ClN6O4
CAS: 49810-01-7
Molecular weight: 318
m/z	intensity
41	19
42	58
43	999
44	57
45	48
46	3
47	4
49	9
53	70
54	64
55	37
56	12
57	9
59	21
60	15
62	96
63	6
64	19
65	11
66	90
67	372
68	155
69	63
70	39
71	31
73	13
74	11
75	12
76	3
77	10
78	4
79	9
80	23
81	16
82	55
83	8
84	15
85	3
86	34
87	22
88	28
89	81
90	50
91	30
92	28
93	9
94	5
95	112
96	76
97	11
98	5
101	66
102	75
103	223
104	39
105	65
106	9
107	3
108	42
109	176
110	17
111	10
112	12
114	17
115	58
116	59
117	40
118	149
119	14
121	1
122	96
123	39
124	10
125	6
128	18
129	7
130	14
131	110
132	13
133	36
134	8
137	79
138	37
139	15
140	5
141	1
143	116
144	184
145	114
146	64
147	25
148	13
150	11
153	25
156	14
157	192
158	942
159	148
160	301
161	27
165	6
166	15
167	92
168	7
170	23
171	213
172	39
173	299
174	25
175	73
176	3
181	42
184	47
185	30
186	68
187	13
188	17
195	14
199	597
200	53
201	201
202	55
203	8
204	12
209	6
216	3
230	119
231	11
232	36
245	534
246	107
247	176
248	34
272	13
274	5
318	311
319	81
320	104
321	27
