Mass Spectrum: Bicyclo[3.2.1]oct-2-ene, 3-methyl-4-methylene-
Formula: C10H14
CAS: 49826-53-1
Molecular weight: 134
m/z	intensity
25	0
26	25
27	176
28	6
29	25
30	0
31	0
32	1
34	0
36	0
37	11
38	30
39	264
40	35
41	137
42	6
43	1
45	0
46	0
48	0
49	4
50	57
51	131
52	50
53	78
54	6
55	15
56	4
57	2
58	7
59	3
60	1
61	7
62	21
63	60
64	18
65	130
66	38
67	18
68	3
69	1
70	0
73	2
74	13
75	10
76	8
77	172
78	85
79	123
80	21
81	3
82	0
83	0
84	0
85	1
86	3
87	4
88	1
89	18
90	7
91	999
92	168
93	120
94	9
95	0
97	0
98	1
99	0
100	0
101	1
102	8
103	46
104	24
105	333
106	329
107	29
108	1
109	0
113	0
114	0
115	25
116	7
117	28
118	5
119	299
120	26
121	1
127	0
128	2
129	1
130	0
131	2
132	0
133	18
134	228
135	20
136	0
