Mass Spectrum: Bicyclo[3.2.1]oct-2-ene, 2-chloro-
Formula: C8H11Cl
CAS: 49826-39-3
Molecular weight: 142
m/z	intensity
13	3
14	10
15	81
16	1
25	4
26	69
27	339
28	60
29	66
30	1
35	3
36	5
37	29
38	71
39	472
40	53
41	149
42	7
43	5
44	2
45	7
47	5
48	2
49	33
50	104
51	271
52	94
53	111
54	291
55	25
56	2
60	5
61	21
62	27
63	65
64	15
65	290
66	149
67	134
68	10
69	3
70	3
72	3
73	32
74	19
75	55
76	14
77	420
78	178
79	999
80	122
81	11
84	2
85	4
86	4
87	6
88	77
89	14
90	29
91	178
92	25
93	40
94	3
95	2
99	10
100	134
101	147
102	53
103	58
104	7
105	36
106	32
107	514
108	45
109	2
111	3
112	48
113	319
114	130
115	107
116	36
117	2
125	5
127	27
128	3
129	8
141	3
142	286
143	26
144	91
145	8
