Mass Spectrum: Bicyclo[3.2.1]oct-2-ene, 4-(1,1-dimethylethoxy)-
Formula: C12H20O
CAS: 49826-51-9
Molecular weight: 180
m/z	intensity
14	8
15	82
16	1
18	1
26	16
27	194
28	32
29	242
30	5
31	18
37	3
38	12
39	210
40	34
41	299
42	20
43	105
44	3
45	4
50	13
51	89
52	47
53	105
54	28
55	88
56	38
57	670
58	48
59	41
60	1
61	2
62	6
63	23
64	6
65	60
66	45
67	86
68	25
69	11
70	46
71	2
73	1
74	3
75	7
76	5
77	152
78	101
79	711
80	86
81	63
82	20
83	999
84	56
85	3
89	3
90	2
91	80
92	13
93	20
94	11
95	124
96	93
97	9
98	1
102	1
103	7
104	3
105	22
106	26
107	259
108	24
109	23
110	2
120	1
121	2
122	4
123	41
124	646
125	67
126	19
138	2
139	1
154	2
165	1
180	4
