Mass Spectrum: 5-Hepten-3-one, 5-ethyl-2-methyl-
Formula: C10H18O
CAS: 49833-97-8
Molecular weight: 154
m/z	intensity
39	220
41	430
42	70
43	120
53	90
55	430
67	100
69	90
70	60
71	999
83	190
111	250
154	100
