Mass Spectrum: 1,2-Pentadiene, 4-methoxy-4-methyl-
Formula: C7H12O
CAS: 49833-91-2
Molecular weight: 112
m/z	intensity
39	300
41	320
43	370
45	60
53	120
55	280
65	50
67	60
73	999
79	50
81	50
83	60
97	30
112	1
