Mass Spectrum: Acetamide, N,N'-carbonothioylbis-
Formula: C5H8N2O2S
CAS: 4984-27-4
Molecular weight: 160
m/z	intensity
41	13
42	65
43	999
44	39
45	131
58	78
59	894
60	36
75	15
76	250
77	26
117	13
118	236
119	26
120	13
132	26
160	184
161	15
162	26
