Mass Spectrum: 1-Nonadecanamine, N,N-dimethyl-
Formula: C21H45N
CAS: 49859-87-2
Molecular weight: 311
m/z	intensity
26	0
27	4
28	1
29	11
30	2
31	0
38	0
39	2
40	0
41	26
42	12
43	42
44	11
45	11
46	12
50	0
51	0
53	0
54	1
55	22
56	8
57	22
58	999
59	33
60	0
61	0
63	0
65	0
66	0
67	2
68	1
69	11
70	4
71	9
72	3
73	0
74	0
75	0
76	0
77	0
78	0
79	0
80	0
81	0
82	1
83	4
84	17
85	3
86	0
87	0
88	0
89	0
90	0
93	0
94	0
95	0
96	0
97	1
98	1
99	0
100	1
101	0
102	0
103	0
105	0
107	0
109	0
110	0
111	0
112	0
114	1
117	0
119	0
123	0
124	0
125	0
126	0
127	0
128	1
129	0
133	0
135	0
140	0
142	0
145	0
154	0
156	0
168	0
170	0
176	0
177	0
178	1
179	0
182	0
184	0
196	0
198	0
212	0
224	0
226	0
240	0
268	0
282	0
296	0
308	0
309	0
310	8
311	8
312	1
