Mass Spectrum: 2,5-Dimethylpyridine N-oxide
Formula: C7H9NO
CAS: 4986-05-4
Molecular weight: 123
m/z	intensity
25	1
26	27
27	180
28	66
29	23
30	17
31	3
36	1
37	18
38	49
39	275
40	41
41	68
42	38
43	52
44	18
45	4
46	1
47	1
48	0
49	7
50	78
51	164
52	95
53	142
54	28
55	15
56	3
57	3
58	1
59	4
60	3
61	13
62	20
63	55
64	22
65	131
66	72
67	24
68	5
69	3
70	2
71	1
72	0
73	4
74	13
75	23
76	11
77	458
78	122
79	633
80	62
81	9
82	3
83	2
84	1
85	1
86	2
87	2
88	1
89	15
90	4
91	34
92	48
93	14
94	9
95	5
96	2
97	1
98	0
99	0
102	1
103	0
104	14
105	26
106	999
107	262
108	16
109	3
110	1
111	0
120	1
121	2
122	7
123	913
124	81
125	6
126	0
