Mass Spectrum: D-Streptamine, O-3-deoxy-4-C-methyl-3-(methylamino)-.beta.-L-arabinopyranosyl-(1-6)-O-(2,6-diamino-2,3,4,6,7-pentadeoxy-.beta.-L-threo-hept-4-enopyranosyl-(1-4))-2-deoxy-
Formula: C20H39N5O7
CAS: 49863-48-1
Molecular weight: 461
m/z	intensity
41	164
42	378
43	461
44	999
45	173
46	84
47	9
50	9
51	14
52	16
53	37
54	42
55	149
56	258
57	171
58	412
59	282
60	153
61	24
63	6
64	4
65	29
66	22
67	82
68	396
69	107
70	145
71	247
72	461
73	528
74	209
75	22
76	2
77	22
78	27
79	24
80	80
81	50
82	169
83	120
84	367
85	164
86	315
87	178
88	87
89	10
90	6
91	15
92	50
93	41
94	110
95	104
96	124
97	62
98	104
99	65
100	362
101	123
102	169
103	15
104	19
105	8
106	33
107	29
108	53
109	135
110	256
111	113
112	254
113	142
114	103
115	19
116	19
117	10
118	929
119	74
120	22
121	21
122	36
123	112
124	192
125	73
126	142
127	108
128	82
129	57
130	220
131	24
132	13
133	9
134	10
135	15
136	11
137	13
138	20
139	31
140	48
141	207
142	137
143	37
144	71
145	637
146	145
147	25
148	34
149	40
150	12
151	14
152	14
153	9
154	10
155	18
156	12
157	23
158	41
159	43
160	502
161	61
162	11
163	204
164	23
165	8
166	10
167	11
168	10
169	16
170	18
171	9
172	25
173	103
174	20
175	13
176	24
177	8
178	39
179	8
180	2
181	4
182	2
183	10
184	5
185	12
186	17
187	83
188	16
189	6
190	1
191	289
192	33
193	5
197	1
199	6
200	14
201	13
202	16
203	147
204	57
205	38
206	8
213	6
214	6
215	19
216	7
217	6
219	8
220	4
227	3
228	5
229	4
230	6
231	11
232	6
233	10
234	3
241	6
242	6
245	20
246	67
247	14
248	25
249	8
250	19
251	6
252	18
253	7
264	8
266	1
267	8
268	17
269	14
270	50
271	10
284	5
285	32
286	21
287	7
289	6
290	6
296	13
297	8
298	1
300	1
303	17
304	135
305	26
306	3
313	10
314	7
316	8
318	3
322	22
323	3
326	3
331	32
332	95
333	18
344	19
345	5
348	3
350	50
351	11
359	8
361	6
362	103
363	22
373	3
374	1
386	3
444	24
445	6
461	7
462	6
