Mass Spectrum: 4-Fluorohistamine
Formula: C5H8FN3
CAS: 49872-60-8
Molecular weight: 129
m/z	intensity
41	68
42	69
43	171
44	999
45	100
46	80
50	7
51	28
52	22
53	10
54	11
55	39
56	17
57	38
58	24
59	18
60	141
67	6
69	19
70	15
71	7
72	8
73	41
74	18
77	51
78	74
81	17
97	6
99	97
100	113
101	7
129	27
130	6
