Mass Spectrum: 5.alpha.-Spirostan, 23-bromo-, (22S,23R,25R)-
Formula: C27H43BrO2
CAS: 4988-84-5
Molecular weight: 478
m/z	intensity
41	999
42	670
43	280
44	10
45	20
50	10
51	10
52	10
53	190
54	70
55	980
56	60
57	120
58	10
59	10
65	50
66	30
67	670
68	150
69	700
70	50
71	30
73	10
74	10
77	120
78	30
79	310
80	70
81	590
82	80
83	120
84	10
85	70
91	210
92	50
93	330
94	70
95	460
96	60
97	50
98	10
99	30
103	10
104	10
105	170
106	40
107	250
108	110
109	370
110	70
111	20
112	10
113	30
114	10
115	10
117	30
118	10
119	110
120	30
121	170
122	150
123	90
124	30
125	190
126	40
127	10
128	10
129	10
131	40
132	10
133	110
134	40
135	110
136	20
137	40
138	180
139	120
140	10
141	10
143	10
145	40
146	10
147	160
148	30
149	100
150	20
151	20
153	10
159	30
160	10
161	140
162	30
163	40
164	10
165	20
166	10
167	20
171	10
173	20
175	30
176	30
177	30
178	10
179	10
181	10
187	10
189	20
190	10
199	10
201	10
203	20
215	10
216	30
217	90
218	30
219	40
221	10
229	30
230	10
231	10
232	20
233	10
243	20
255	10
256	10
257	550
258	120
259	20
271	100
272	20
273	20
274	10
286	100
287	20
313	10
315	10
330	20
331	110
332	30
399	160
400	50
401	10
478	140
479	40
480	140
481	40
