Mass Spectrum: 2H-Thiopyran, tetrahydro-, 1-oxide
Formula: C5H10OS
CAS: 4988-34-5
Molecular weight: 118
m/z	intensity
26	50
27	280
28	220
29	140
31	10
32	20
33	10
34	20
35	10
37	10
38	30
39	330
40	70
41	999
42	170
43	50
44	50
45	100
46	70
47	80
48	50
49	10
50	30
51	20
52	10
53	70
54	20
55	300
56	180
57	30
58	30
59	60
60	40
61	50
62	20
63	590
64	70
65	50
66	10
67	120
68	200
69	680
70	50
71	20
72	20
73	40
74	20
75	10
76	50
77	40
78	10
85	20
87	60
89	20
90	160
91	10
92	10
99	10
100	10
101	100
102	70
103	20
104	10
117	20
118	510
119	40
120	30
