Mass Spectrum: Carvenone
Formula: C10H16O
CAS: 499-74-1
Molecular weight: 152
m/z	intensity
26	13
27	110
29	30
33	2
37	4
38	10
39	213
40	42
41	209
42	21
43	52
44	2
45	1
50	30
51	52
52	26
53	100
54	27
55	85
56	8
61	1
62	6
63	18
65	62
66	36
67	396
68	88
69	35
70	4
71	5
76	1
77	60
78	23
79	78
80	23
81	102
82	91
83	20
84	2
85	1
89	1
90	1
91	48
92	9
93	22
94	11
95	947
96	61
97	12
98	0
103	2
105	2
106	1
107	19
108	11
109	136
110	999
111	95
112	4
115	6
116	0
117	4
119	3
121	14
122	2
123	7
124	11
125	1
127	1
134	1
135	3
136	7
137	18
138	4
143	1
149	0
150	2
151	5
152	381
153	44
155	0
