Mass Spectrum: 1,1-Bis(ethylthio)ethene
Formula: C6H12S2
CAS: 4992-59-0
Molecular weight: 148
m/z	intensity
35	55
36	5
37	3
38	2
39	9
40	3
41	30
42	3
43	14
44	6
45	184
46	48
47	116
48	4
49	5
50	2
51	2
52	1
53	20
54	5
55	43
56	7
57	49
58	348
59	999
60	67
61	92
62	21
63	4
64	14
65	4
66	5
67	0
68	0
69	4
70	0
71	77
72	4
73	14
74	1
75	253
76	16
77	22
78	2
79	2
80	0
81	2
82	0
83	1
84	1
85	58
86	30
87	131
88	42
89	31
90	11
91	29
92	277
93	16
94	33
95	2
96	2
97	3
99	1
100	0
101	0
103	3
104	3
105	4
106	0
107	1
108	0
109	0
110	1
114	1
115	4
116	0
117	1
118	1
119	140
120	373
121	36
122	35
123	2
124	1
127	0
128	1
129	0
130	0
133	0
146	0
148	178
149	15
150	15
151	1
152	0
