Mass Spectrum: 1,5,6,7-Tetrahydroindazol-4-one
Formula: C7H8N2O
CAS: 499206-33-6
Molecular weight: 136
m/z	intensity
37	100
38	183
39	410
40	132
41	146
42	92
43	18
49	31
50	228
51	392
52	258
53	288
54	44
55	25
56	5
61	13
62	22
63	51
64	23
65	42
66	29
67	51
68	47
74	11
75	10
76	7
77	38
78	23
80	514
81	48
82	9
91	3
92	8
93	10
94	6
95	5
104	4
105	8
107	51
108	999
109	78
118	5
119	10
121	42
135	11
136	477
137	35
