Mass Spectrum: Pyrimidine, 4-chloro-2-methyl-
Formula: C5H5ClN2
CAS: 4994-86-9
Molecular weight: 128
m/z	intensity
26	35
27	24
28	23
35	3
36	6
37	22
38	30
39	35
40	47
41	31
42	223
43	4
44	5
45	2
46	2
47	5
48	1
49	5
50	4
51	71
52	125
53	14
54	2
60	85
61	7
62	33
63	10
64	20
65	22
66	200
67	19
72	1
73	5
74	5
75	2
76	2
77	4
78	1
85	2
86	25
87	5
88	7
89	1
92	3
93	999
94	58
95	1
100	3
101	2
113	4
115	1
127	3
128	485
129	32
130	160
131	11
