Mass Spectrum: DL-Histidine
Formula: C6H9N3O2
CAS: 4998-57-6
Molecular weight: 155
m/z	intensity
12	1
13	1
14	2
15	9
16	4
17	9
18	29
25	2
26	17
27	34
28	266
29	32
30	37
31	2
32	2
36	4
37	4
38	9
39	28
40	21
41	37
42	39
43	20
44	28
45	9
46	19
50	2
51	7
52	30
53	20
54	160
55	86
56	64
57	10
58	1
60	2
61	1
63	1
64	2
65	4
66	17
67	9
68	16
69	21
70	2
71	2
73	2
74	27
75	4
76	1
77	3
78	2
79	3
80	9
81	447
82	999
83	134
84	9
85	2
86	1
91	2
92	4
93	45
94	18
95	7
96	2
97	2
98	2
99	1
104	1
105	1
106	1
107	7
108	6
109	60
110	193
111	27
112	2
117	1
118	1
119	1
120	2
121	1
122	1
125	1
129	1
131	1
133	1
134	1
135	1
137	6
138	2
139	1
153	1
155	9
156	1
