Mass Spectrum: Formamide, N-hydroxymethyl-N-[2-(hydroxymethyl)formylaminoethyl]-
Formula: C6H12N2O4
CAS: 4998-41-8
Molecular weight: 176
m/z	intensity
69	37
70	72
71	999
72	562
73	170
74	24
76	89
82	26
84	345
85	26
86	31
88	280
89	444
90	18
91	3
98	13
99	55
100	163
101	498
102	27
106	4
111	58
112	21
113	3
116	50
117	276
118	13
119	6
128	75
129	47
130	17
131	4
145	3
146	63
147	5
148	4
158	109
159	21
176	6
