Mass Spectrum: Formaldehyde
Formula: CH2O
CAS: 50-00-0
Molecular weight: 30
m/z	intensity
12	10
13	10
14	10
15	20
28	240
29	999
30	580
31	5
