Mass Spectrum: Lactic acid
Formula: C3H6O3
CAS: 50-21-5
Molecular weight: 90
m/z	intensity
13	1
14	7
15	28
16	2
17	10
18	39
19	2
25	2
26	16
27	103
28	43
29	108
30	9
31	7
39	5
40	13
41	7
42	15
43	120
44	24
45	999
46	29
47	7
53	2
55	16
56	24
57	4
58	6
59	5
60	1
61	4
63	3
65	1
68	7
69	3
71	2
72	4
73	14
74	66
75	9
83	1
85	1
87	8
89	21
90	2
91	1
