Mass Spectrum: Chlorpromazine
Formula: C17H19ClN2S
CAS: 50-53-3
Molecular weight: 318
m/z	intensity
15	3
26	1
27	3
29	7
30	26
38	1
39	9
40	1
41	13
42	71
43	22
44	41
45	13
46	1
47	1
50	5
51	8
52	2
53	1
54	1
55	2
56	18
57	23
58	999
59	46
60	1
61	1
62	3
63	13
64	2
65	5
66	1
67	1
68	2
69	19
70	34
71	18
72	25
73	3
74	4
75	9
76	5
77	9
78	2
79	2
81	2
82	7
83	2
84	34
85	91
86	230
87	15
88	2
89	4
90	2
91	3
92	1
93	4
94	3
95	8
96	2
97	1
99	4
100	1
101	3
102	3
103	2
104	1
105	3
106	2
107	5
108	10
109	6
110	2
111	3
112	2
113	4
114	3
115	3
116	3
117	2
118	1
119	2
120	3
121	2
122	2
123	2
124	2
125	5
126	8
127	5
128	3
129	1
130	2
131	1
132	1
133	2
134	3
135	2
136	2
137	3
138	5
139	16
140	7
141	1
142	3
143	2
144	2
145	3
146	3
147	2
148	1
149	2
150	4
151	10
152	23
153	21
154	7
155	1
156	1
157	1
158	2
159	3
160	2
161	2
162	4
163	2
164	15
165	7
166	8
167	7
168	2
169	7
170	8
171	7
172	3
173	3
174	4
175	2
176	2
177	6
178	9
179	10
180	5
181	2
182	4
183	5
184	7
185	2
186	2
187	3
188	16
189	3
190	6
191	5
192	2
193	1
194	1
195	3
196	40
197	36
198	16
199	5
200	12
201	6
202	5
203	2
204	6
205	6
206	3
207	2
208	2
209	5
210	9
211	10
212	9
213	8
214	41
215	8
216	13
217	3
218	2
219	1
220	1
221	1
222	2
223	12
224	8
225	16
226	3
227	3
228	2
229	1
230	2
231	5
232	75
233	54
234	34
235	19
236	6
237	5
238	7
239	3
240	3
241	2
242	1
243	1
244	5
245	3
246	22
247	19
248	10
249	7
250	1
257	3
258	6
259	10
260	8
261	4
262	2
270	1
272	92
273	32
274	38
275	12
276	3
277	1
318	153
319	31
320	58
321	11
322	3
323	1
