Mass Spectrum: Cephaloridine
Formula: C19H17N3O4S2
CAS: 50-59-9
Molecular weight: 415
m/z	intensity
12	2
15	1
16	11
25	3
26	39
27	19
28	62
29	2
30	3
32	21
33	9
34	34
35	1
36	6
37	10
38	23
39	78
40	7
41	9
42	4
43	9
44	675
45	47
46	7
47	4
48	5
49	20
50	129
51	235
52	730
53	99
54	6
55	8
56	4
57	10
58	6
59	2
60	57
61	3
62	5
63	6
64	4
65	4
66	3
67	5
68	4
69	9
70	11
71	9
72	3
73	1
74	7
75	18
76	14
77	6
78	127
79	999
80	79
81	7
82	5
83	6
84	4
85	7
86	2
87	2
89	1
90	1
91	3
92	2
93	2
94	2
95	7
96	47
97	232
98	41
99	15
100	4
101	4
102	2
103	1
104	2
105	2
106	2
107	2
108	3
109	4
110	4
111	9
112	11
113	4
114	5
115	1
116	1
117	3
118	3
119	2
120	1
121	2
122	12
123	10
124	90
125	12
126	8
127	4
128	4
129	2
130	4
131	2
132	2
133	2
134	1
135	4
136	4
137	2
138	1
139	9
140	6
141	14
142	8
143	3
144	2
145	3
146	9
147	9
148	2
149	5
150	1
151	2
152	3
153	4
154	1
155	9
156	16
157	3
158	2
159	1
160	2
161	6
162	3
163	4
164	3
165	4
166	5
167	3
168	6
169	9
170	3
171	2
172	1
173	1
174	1
175	1
178	1
179	9
180	3
181	17
182	14
183	3
184	2
185	2
186	1
187	1
188	3
189	4
190	2
191	3
192	1
193	20
194	3
195	6
196	3
197	2
198	2
199	1
200	1
201	1
202	1
207	5
208	16
209	3
210	1
211	2
212	1
213	1
214	1
215	1
223	1
224	4
225	15
226	2
227	2
232	1
233	1
246	1
247	1
248	1
257	4
258	1
259	1
260	1
264	1
265	1
266	1
271	2
292	9
293	3
294	2
304	1
336	1
369	1
