Mass Spectrum: Vitamin C
Formula: C6H8O6
CAS: 50-81-7
Molecular weight: 176
m/z	intensity
14	4
15	31
16	1
17	6
18	32
19	24
25	1
26	12
27	38
28	29
29	149
30	42
31	119
32	7
33	1
37	3
38	6
39	20
40	8
41	25
42	78
43	282
44	99
45	71
46	6
47	9
49	1
50	1
51	1
52	1
53	20
54	39
55	67
56	27
57	35
58	83
59	65
60	30
61	178
62	4
63	2
66	1
67	2
68	9
69	63
70	113
71	116
72	36
73	62
74	15
75	3
76	41
77	2
81	1
82	1
83	9
84	21
85	180
86	10
87	57
88	35
89	19
90	1
91	54
92	2
95	2
96	2
97	1
98	12
99	9
100	53
101	80
102	44
103	7
104	1
105	1
110	1
111	1
112	5
113	7
114	4
115	15
116	999
117	47
118	11
119	137
120	7
121	1
127	7
128	8
129	6
130	9
131	1
132	1
133	1
140	2
141	1
144	1
145	14
146	4
148	2
149	1
158	3
176	67
177	6
178	1
