Mass Spectrum: Benzoic acid, 2,4,5-trichloro-
Formula: C7H3Cl3O2
CAS: 50-82-8
Molecular weight: 224
m/z	intensity
12	27
13	6
14	4
16	42
17	111
18	158
19	3
24	12
25	38
26	23
28	125
29	124
30	3
31	5
32	1
35	231
36	241
37	170
38	176
39	18
40	3
41	10
42	4
47	220
48	78
49	268
50	261
51	38
53	125
54	100
55	54
57	2
60	162
61	266
62	239
63	123
64	8
65	10
66	16
67	7
68	14
69	7
72	514
73	771
74	999
75	199
76	12
77	22
78	2
80	18
81	12
82	25
84	412
85	92
86	112
87	58
89	39
90	47
91	36
94	32
95	25
96	68
97	191
98	73
99	97
100	20
101	15
102	2
103	42
104	36
105	20
107	99
108	348
109	514
110	139
111	157
112	17
113	7
114	2
118	31
119	25
120	21
121	15
122	4
123	3
124	3
125	8
126	10
127	3
128	2
131	10
132	26
133	106
134	20
135	61
136	6
137	15
138	1
139	2
143	176
144	162
145	154
146	104
147	51
148	17
149	5
153	1
155	1
160	7
161	4
162	3
163	2
167	2
169	2
171	2
172	1
173	2
179	179
181	193
182	18
183	51
184	4
185	5
189	14
191	10
192	1
193	1
196	21
198	21
200	6
207	430
209	428
210	31
211	118
212	7
213	12
224	304
226	308
227	24
228	87
229	6
230	8
