Mass Spectrum: Floxuridine
Formula: C9H11FN2O5
CAS: 50-91-9
Molecular weight: 246
m/z	intensity
12	1
14	3
15	13
16	2
17	15
18	84
19	29
20	2
25	3
26	10
27	70
28	246
29	78
30	11
31	111
32	10
33	4
36	1
37	5
38	16
39	73
40	25
41	85
42	76
43	174
44	169
45	249
46	9
47	31
48	2
49	2
50	6
51	16
52	10
53	45
54	20
55	63
56	17
57	121
58	70
59	82
60	304
61	17
62	1
64	1
65	2
66	8
67	5
68	47
69	105
70	72
71	126
72	21
73	291
74	21
75	9
78	1
79	1
80	3
81	135
82	25
83	5
84	12
85	67
86	28
87	518
88	69
89	3
91	1
94	2
95	7
96	4
97	107
98	120
99	166
100	19
101	3
102	3
103	2
107	1
110	1
111	1
112	15
113	10
114	83
115	13
116	19
117	800
118	46
119	6
123	2
126	11
127	3
128	1
129	1
130	999
131	130
132	10
133	2
141	1
142	1
143	3
144	2
154	19
155	2
156	3
157	33
158	12
159	2
169	5
172	1
173	2
178	1
185	4
186	5
197	9
215	5
216	1
246	9
247	1
