Mass Spectrum: Glucose
Formula: C6H12O6
CAS: 50-99-7
Molecular weight: 180
m/z	intensity
13	1
14	9
15	67
16	1
17	9
18	57
19	78
26	8
27	42
28	67
29	131
30	25
31	239
32	39
33	9
36	7
38	2
39	16
40	6
41	44
42	92
43	258
44	125
45	102
46	5
47	31
49	9
51	1
52	1
53	5
54	11
55	67
56	106
57	212
58	27
59	17
60	621
61	262
62	15
63	1
67	1
68	9
69	49
70	28
71	184
72	77
73	999
74	105
75	10
76	2
77	11
79	1
81	2
82	1
83	7
84	5
85	61
86	46
87	20
88	3
89	23
90	17
91	31
92	1
96	1
97	31
98	31
99	7
100	1
101	41
102	33
103	67
104	5
105	1
107	1
113	8
114	2
115	6
116	10
117	1
119	20
120	3
121	2
126	1
127	3
131	44
132	4
133	12
134	1
144	7
145	6
149	21
150	1
163	5
