Mass Spectrum: 2H-Pyran-2-one, 5,6-dihydro-4-methoxy-6-(2-phenylethenyl)-, [R-(E)]-
Formula: C14H14O3
CAS: 500-64-1
Molecular weight: 230
m/z	intensity
26	5
27	38
28	6
29	16
31	4
37	4
38	19
39	157
40	200
41	51
42	18
43	32
44	5
45	9
49	1
50	58
51	160
52	43
53	28
54	9
55	79
56	11
57	9
59	35
61	6
62	29
63	93
64	23
65	59
66	16
67	78
68	876
69	506
70	25
71	19
72	2
73	3
74	40
75	49
76	63
77	328
78	141
79	15
80	2
81	3
82	2
83	7
84	3
85	5
86	9
87	15
88	6
89	46
90	8
91	382
92	30
93	5
94	6
95	91
96	11
97	6
98	999
99	80
100	8
101	17
102	97
103	243
104	424
105	47
106	3
107	2
108	8
109	30
110	6
111	147
112	11
113	9
114	8
115	261
116	38
117	14
118	5
121	2
122	2
124	6
125	106
126	24
127	109
128	248
129	220
130	44
131	221
132	32
133	10
134	1
139	16
140	5
141	61
142	22
143	31
144	8
145	7
147	1
150	4
151	11
152	48
153	61
154	29
155	51
156	11
157	8
158	6
159	6
160	3
168	1
169	10
170	26
171	65
172	10
173	11
174	7
175	2
184	6
185	43
186	62
187	18
197	3
198	3
199	4
200	2
201	40
202	470
203	65
204	6
213	8
214	3
215	2
229	7
230	444
231	67
232	9
