Mass Spectrum: 3-Pyridinecarboxaldehyde
Formula: C6H5NO
CAS: 500-22-1
Molecular weight: 107
m/z	intensity
12	2
13	1
18	1
24	2
25	8
26	51
27	30
28	34
29	51
31	2
32	1
36	7
37	26
38	33
39	43
40	5
41	1
44	1
48	7
49	37
50	194
51	449
52	284
53	49
54	4
55	1
57	1
60	2
61	8
62	9
63	11
64	4
65	2
66	3
67	1
74	2
75	15
76	18
77	17
78	743
79	77
80	4
104	3
105	7
106	501
107	999
108	71
109	4
