Mass Spectrum: Methanesulfonylacetone
Formula: C4H8O3S
CAS: 5000-46-4
Molecular weight: 136
m/z	intensity
13	1
14	8
15	83
16	1
25	1
26	22
27	88
29	98
30	3
31	17
32	3
33	4
34	3
35	1
37	3
38	6
39	22
40	4
41	16
42	113
43	999
44	24
45	29
46	10
47	6
48	22
49	6
50	2
53	2
55	2
57	21
58	20
59	2
61	5
62	4
63	35
64	12
65	13
66	2
73	1
77	13
78	3
79	278
80	7
81	13
94	61
95	2
96	2
97	1
105	2
121	55
122	2
123	2
136	92
137	5
138	4
