Mass Spectrum: Metanephrine
Formula: C10H15NO3
CAS: 5001-33-2
Molecular weight: 197
m/z	intensity
15	10
17	3
18	9
26	1
27	11
28	18
29	7
30	18
31	2
32	1
39	25
40	4
41	9
42	46
43	16
44	999
45	71
46	129
47	3
50	8
51	17
52	13
53	17
54	9
55	12
56	2
57	4
58	2
61	1
62	3
63	9
64	6
65	67
66	10
67	6
68	2
69	2
71	1
74	2
75	2
76	2
77	16
78	6
79	7
80	5
81	23
82	20
83	3
89	2
90	2
91	4
92	4
93	121
94	18
95	7
96	1
97	1
104	2
105	4
106	5
107	8
108	5
109	11
110	19
111	4
117	1
118	4
119	3
120	2
121	4
122	10
123	21
124	5
125	34
126	3
132	1
133	2
134	5
135	7
136	6
137	16
138	42
139	8
140	1
146	7
147	2
148	2
149	2
150	8
151	28
152	43
153	91
154	48
155	5
162	6
163	2
164	4
165	3
166	3
167	1
177	6
178	6
179	25
180	7
181	1
195	1
197	38
198	5
