Mass Spectrum: Propane, 2-methyl-1-(methylthio)-
Formula: C5H12S
CAS: 5008-69-5
Molecular weight: 104
m/z	intensity
25	3
26	13
27	234
28	172
29	213
30	4
31	1
33	1
34	3
35	81
37	15
38	14
39	221
40	11
41	632
42	42
43	136
45	121
46	81
47	174
48	48
49	48
50	15
51	11
52	6
53	28
54	9
55	136
56	537
57	255
58	13
59	13
60	8
61	999
62	210
63	46
64	10
68	2
69	3
70	3
71	8
72	4
73	10
74	4
75	48
76	4
77	3
78	0
79	0
81	0
82	0
85	0
87	2
88	1
89	33
90	2
95	1
101	1
103	11
104	357
105	24
106	17
