Mass Spectrum: Monobenzone, TMS derivative
Formula: C16H20O2Si
CAS: 500901-56-4
Molecular weight: 272
m/z	intensity
26	1
27	1
28	1
29	3
31	1
38	2
39	18
40	1
41	6
42	2
43	28
44	12
45	62
46	4
47	4
50	5
51	13
52	5
53	5
54	3
55	6
56	1
57	4
58	15
59	8
60	2
61	3
62	4
63	24
64	14
65	94
66	6
67	2
68	1
69	7
70	3
71	4
73	892
74	77
75	50
76	6
77	15
78	17
79	5
80	2
81	3
82	3
83	16
84	7
85	5
86	1
87	1
89	22
91	999
92	88
93	7
94	1
95	35
96	9
97	5
98	2
99	1
103	1
105	5
106	1
107	5
108	3
109	10
110	26
111	5
112	2
113	1
115	2
119	2
120	1
121	7
122	5
123	50
124	7
125	3
127	1
128	2
129	1
131	1
133	1
135	12
136	4
137	10
138	19
139	3
140	1
141	1
145	1
147	1
148	1
149	3
150	1
151	10
152	5
153	4
154	2
155	1
165	5
166	15
167	10
168	2
169	1
179	3
181	530
182	81
183	26
184	3
185	1
211	1
227	1
229	1
239	1
243	1
255	1
257	48
258	10
259	3
269	1
272	280
273	64
274	17
275	2
