Mass Spectrum: 11-Dodecen-2-one
Formula: C12H22O
CAS: 5009-33-6
Molecular weight: 182
m/z	intensity
41	320
42	40
43	999
44	20
45	10
53	40
54	90
55	320
56	30
57	30
58	900
59	230
60	10
65	10
66	10
67	100
68	90
69	120
70	20
71	370
72	30
74	30
79	30
80	30
81	100
82	170
83	100
84	40
85	50
86	30
87	20
93	20
94	20
95	60
96	70
97	60
98	20
99	20
100	30
107	20
108	20
109	20
110	10
111	40
112	10
113	10
114	20
121	20
122	40
123	10
124	90
125	60
126	10
127	10
135	20
139	10
149	10
164	20
167	20
182	30
