Mass Spectrum: Benzenepropanol, 4-hydroxy-.alpha.-methyl-, (R)-
Formula: C10H14O2
CAS: 501-96-2
Molecular weight: 166
m/z	intensity
18	99
27	62
28	31
29	45
31	89
39	78
41	41
43	89
45	170
51	48
53	45
55	63
57	30
59	41
63	26
65	52
74	26
77	191
78	49
79	40
91	77
94	122
103	53
105	90
107	999
108	189
110	52
119	35
120	42
121	57
123	34
124	29
133	831
134	84
147	66
148	337
149	48
166	253
167	32
