Mass Spectrum: Cinnamamide, N-(4-aminobutyl)-4-hydroxy-3-methoxy-
Formula: C14H20N2O3
CAS: 501-13-3
Molecular weight: 264
m/z	intensity
43	290
44	460
56	100
70	999
89	120
117	80
127	100
137	130
145	200
149	70
177	450
178	140
192	80
206	10
235	20
247	30
264	50
