Mass Spectrum: 4,5-Diphenyloxazolin-2(3H)-one
Formula: C15H11NO2
CAS: 5014-83-5
Molecular weight: 237
m/z	intensity
41	3
42	3
43	13
44	66
45	26
46	4
47	9
48	0
49	18
50	193
51	448
52	58
53	18
54	2
55	3
59	0
60	1
61	10
62	14
63	31
64	8
65	21
66	8
69	2
70	2
73	11
74	41
75	27
76	62
77	738
78	73
79	6
81	2
82	3
83	3
86	2
87	3
88	1
89	21
90	5
91	3
92	4
93	6
94	7
95	3
99	0
102	3
103	4
104	102
105	999
106	75
107	4
113	2
115	4
119	5
120	4
121	138
122	157
123	21
124	1
126	1
130	5
132	3
136	2
139	4
146	0
147	1
148	8
149	6
150	1
151	3
152	7
153	3
162	2
163	5
164	9
165	45
166	19
167	3
174	0
178	0
179	5
180	9
181	8
182	2
190	1
191	7
192	1
193	0
194	2
195	3
196	2
197	4
198	2
205	0
208	7
209	8
210	28
211	5
213	5
236	4
237	34
238	7
239	0
