Mass Spectrum: 5-[(Acetyloxy)methyl]-2-hydroxybenzaldehyde
Formula: C10H10O4
CAS: 501662-05-1
Molecular weight: 194
m/z	intensity
29	254
30	7
31	17
32	46
33	0
34	3
35	1
36	6
37	17
38	53
39	345
40	28
41	57
42	48
43	999
44	34
45	31
46	0
48	2
49	2
50	74
51	193
52	68
53	114
54	6
55	52
56	2
57	0
59	0
60	6
61	3
62	17
63	62
64	28
65	90
66	22
67	15
68	3
69	1
73	2
74	6
75	11
76	2
77	174
78	148
79	20
80	1
81	3
89	6
92	1
93	7
94	1
95	29
96	0
104	1
105	88
106	71
107	4
121	5
123	28
133	95
134	68
135	166
136	12
147	1
149	1
150	6
151	11
152	83
153	6
194	62
