Mass Spectrum: Lycopene
Formula: C40H56
CAS: 502-65-8
Molecular weight: 536
m/z	intensity
40	27
41	357
42	50
43	357
44	95
45	114
46	20
50	40
51	110
52	53
53	74
54	30
55	243
56	57
57	185
58	30
59	20
60	40
61	20
62	24
63	57
64	16
65	106
66	20
67	113
68	34
69	999
70	90
71	73
72	12
73	37
74	20
75	13
76	12
77	196
78	70
79	180
80	38
81	314
82	60
83	130
84	36
85	37
86	10
87	20
89	45
90	24
91	750
92	370
93	343
94	45
95	257
96	47
97	70
98	34
99	25
101	13
102	20
103	103
104	50
105	730
106	870
107	375
108	47
109	190
110	30
111	64
112	15
113	10
115	70
116	37
117	105
118	26
119	375
120	60
121	212
122	30
123	80
124	17
125	20
127	30
128	72
129	114
130	50
131	137
132	57
133	70
134	34
135	80
136	16
137	37
138	13
139	12
141	60
142	75
143	180
144	60
145	220
146	46
147	114
148	20
149	32
151	12
152	20
153	30
154	22
155	83
156	75
157	210
158	60
159	150
160	26
161	53
162	10
163	20
165	35
166	23
167	40
168	27
169	117
170	46
171	145
172	36
173	80
174	20
175	42
176	10
177	34
178	20
179	36
180	23
181	50
182	30
183	125
184	33
185	105
186	24
187	45
188	15
189	20
190	14
191	17
192	20
193	33
194	26
195	60
196	30
197	80
198	34
199	54
200	16
201	20
203	30
205	12
206	143
207	35
208	30
209	85
210	24
211	76
212	22
213	25
215	24
217	10
219	14
220	10
221	32
223	40
224	17
225	24
227	12
229	12
235	25
237	30
241	17
243	56
249	20
251	20
255	24
267	26
269	42
277	20
361	100
362	34
378	55
379	5
430	300
431	90
444	130
445	40
467	66
468	26
534	10
536	530
537	160
538	40
