Mass Spectrum: Butanedioic acid, cyclic hydrazide
Formula: C4H6N2O2
CAS: 502-95-4
Molecular weight: 114
m/z	intensity
26	71
27	145
28	999
29	107
30	49
32	126
40	34
42	91
43	143
44	71
54	29
55	601
56	105
57	27
58	30
59	33
68	8
69	10
70	8
82	34
85	36
86	626
87	30
98	33
114	525
115	39
