Mass Spectrum: Gorlic acid
Formula: C18H30O2
CAS: 502-31-8
Molecular weight: 278
m/z	intensity
27	9
28	5
29	16
30	1
31	1
38	1
39	38
40	8
41	155
42	25
43	47
44	3
45	17
46	1
47	1
50	1
51	6
52	3
53	40
54	51
55	149
56	21
57	27
58	2
59	4
60	25
61	4
63	1
64	1
65	51
66	119
67	999
68	112
69	76
70	21
71	29
73	37
74	4
77	38
78	12
79	137
80	433
81	194
82	115
83	60
84	19
85	12
86	2
87	7
91	28
92	11
93	206
94	107
95	124
96	65
97	38
98	14
100	4
101	7
102	1
104	2
105	8
106	8
107	52
108	57
109	49
110	19
111	16
112	7
113	5
114	7
115	7
118	2
119	11
120	9
121	144
122	56
123	26
124	12
125	6
126	11
127	6
128	2
129	12
131	5
133	8
134	6
135	65
136	56
137	16
138	6
139	4
140	13
141	4
143	2
146	1
147	5
148	4
149	67
150	35
151	8
152	4
153	4
154	6
155	2
160	1
161	4
162	3
163	19
164	9
165	4
166	2
167	4
169	3
173	5
175	3
177	5
178	6
179	3
180	2
181	3
182	4
183	1
187	1
189	1
191	3
192	1
193	2
195	3
196	9
197	2
209	5
210	4
211	1
220	4
221	3
235	2
243	1
260	1
278	12
279	2
280	2
