Mass Spectrum: N-[1-Anilino-2,2,2-trifluoro-1-(trifluoromethyl)ethyl]benzamide
Formula: C16H12F6N2O
CAS: 5022-46-8
Molecular weight: 362
m/z	intensity
34	1
36	1
37	3
38	10
39	39
40	14
41	7
42	2
43	4
44	9
45	1
47	2
50	50
51	170
52	21
54	6
55	4
56	2
57	5
60	1
61	2
62	4
63	12
64	11
65	53
66	21
67	3
68	1
69	16
70	3
71	3
73	2
74	12
75	16
77	832
78	58
79	5
80	1
81	1
82	1
83	3
84	2
85	1
87	1
88	1
89	1
90	2
91	7
92	30
93	81
94	7
95	4
96	5
97	1
98	1
99	1
100	1
101	1
102	3
103	10
105	999
106	70
107	5
108	1
111	1
112	2
113	1
114	1
115	1
118	2
119	6
120	2
121	15
122	6
123	1
125	1
126	1
127	3
128	1
129	2
130	1
133	1
137	1
139	1
140	1
141	1
142	2
145	1
146	1
147	1
149	1
150	1
152	2
153	2
154	1
166	1
167	4
168	2
169	1
170	4
172	328
173	27
174	1
178	1
180	1
181	10
183	1
185	1
187	16
188	2
190	2
192	1
195	1
196	1
197	2
199	1
201	1
202	1
215	2
218	1
220	1
222	2
223	1
227	1
230	1
238	3
241	475
242	47
243	3
250	1
255	1
258	2
270	2
271	1
274	1
283	1
291	1
292	2
293	48
294	7
295	1
359	1
360	3
362	123
363	21
364	2
