Mass Spectrum: Decanedioic acid, 4,7-dimethyl-, dimethyl ester
Formula: C14H26O4
CAS: 5024-27-1
Molecular weight: 258
m/z	intensity
41	577
42	155
43	400
45	102
53	62
54	22
55	999
56	133
57	133
59	404
65	13
67	66
68	22
69	504
70	95
73	257
74	311
81	111
82	22
83	311
87	377
88	44
93	26
95	73
96	17
97	253
98	104
99	17
101	44
109	66
110	53
111	193
112	177
115	193
125	57
128	133
129	102
133	17
135	55
139	126
140	26
149	55
152	22
153	311
171	22
172	82
185	400
186	84
194	17
195	37
199	37
209	13
210	17
226	4
227	28
