Mass Spectrum: 8-Nitroanthraquinone-1-carboxylic acid
Formula: C15H7NO6
CAS: 5025-19-4
Molecular weight: 297
m/z	intensity
37	92
38	124
39	113
40	15
41	13
43	60
45	937
46	619
50	260
51	74
53	139
54	9
55	11
57	8
61	99
62	137
63	181
64	46
65	26
66	12
67	5
69	19
74	999
75	707
76	143
77	67
78	9
79	5
83	4
85	44
86	89
87	87
88	41
89	35
90	18
91	32
92	21
93	3
98	121
99	65
100	30
101	26
103	69
104	24
109	21
110	38
111	39
112	18
113	34
114	7
115	3
116	3
119	23
120	5
122	44
123	35
124	21
125	19
126	30
127	16
128	4
134	4
135	5
137	88
138	112
139	159
140	29
141	5
145	4
146	7
149	109
150	181
151	117
152	20
153	10
154	7
155	4
164	5
166	32
167	38
168	7
169	4
175	5
177	17
178	13
179	26
180	7
181	5
182	5
193	8
195	58
196	9
197	3
206	25
207	37
208	8
222	9
223	8
224	5
225	3
233	6
234	5
236	7
240	5
250	3
251	3
253	73
254	9
280	3
298	10
