Mass Spectrum: 2,4(1H,3H)-Pteridinedione, 1-methyl-
Formula: C7H6N4O2
CAS: 50256-18-3
Molecular weight: 178
m/z	intensity
12	5
13	6
14	25
15	253
16	11
17	3
18	7
24	6
25	13
26	112
27	61
28	291
29	67
30	10
31	17
32	10
33	1
36	1
37	4
38	89
39	109
40	131
41	38
42	59
43	113
44	65
45	1
48	1
50	22
51	151
52	334
53	350
54	80
55	146
56	21
57	3
58	2
59	0
62	0
63	1
64	23
65	88
66	49
67	108
68	25
69	34
70	106
71	3
72	0
76	14
77	65
78	44
79	371
80	999
81	142
82	10
83	7
84	0
88	0
90	0
91	7
92	8
93	43
94	24
95	8
96	1
102	0
104	3
105	4
106	60
107	481
108	38
109	3
120	17
121	5
122	2
123	6
124	0
132	1
133	1
134	9
135	258
136	20
137	2
149	5
150	1
151	0
152	0
163	0
164	0
165	1
166	3
167	1
176	0
178	904
179	100
180	9
181	0
