Mass Spectrum: 3,8,11-Trioxatetracyclo[4.4.1.0(2,4).0(7,9)]undecane, (1.alpha.,2.beta.,4.beta.,6.alpha.,7.beta.,9.beta.)-
Formula: C8H10O3
CAS: 50267-13-5
Molecular weight: 154
m/z	intensity
39	639
41	589
53	549
55	709
57	390
69	799
71	400
81	999
83	400
97	240
107	100
111	140
123	50
125	70
154	350
