Mass Spectrum: 3,8,11-Trioxatetracyclo[4.4.1.0(2,4).0(7,9)]undecane, (1.alpha.,2.alpha.,4.alpha.,6.alpha.,7.beta.,9.beta.)-
Formula: C8H10O3
CAS: 50267-11-3
Molecular weight: 154
m/z	intensity
26	98
27	606
28	197
29	656
30	34
31	133
37	24
38	78
39	633
40	109
41	640
42	242
43	322
44	129
45	92
46	5
47	10
49	8
50	73
51	142
52	78
53	565
54	239
55	733
56	87
57	446
58	42
59	17
60	28
61	8
62	10
63	22
64	8
65	120
66	79
67	276
68	283
69	829
70	304
71	446
72	26
73	28
74	6
75	7
77	79
78	293
79	29
80	148
81	999
82	216
83	409
84	88
85	37
86	85
87	10
90	6
91	23
92	8
93	13
94	33
95	177
96	183
97	252
98	58
99	28
100	9
106	7
107	141
108	89
109	42
110	97
111	189
113	18
114	9
119	7
121	6
122	5
123	62
124	21
125	90
126	15
135	8
137	13
138	5
139	5
153	8
154	360
155	50
156	7
