Mass Spectrum: 2-Oxa-6-azatricyclo[3.3.1.1(3,7)]decane, 4,8-diiodo-6-(phenylsulfonyl)-, (1.alpha.,3.beta.,4.beta.,5.alpha.,7.beta.,8.beta.)-
Formula: C14H15I2NO3S
CAS: 50267-20-4
Molecular weight: 531
m/z	intensity
41	260
51	200
67	200
77	999
79	440
80	330
81	220
91	170
106	130
120	70
136	170
141	350
220	220
404	969
531	30
