Mass Spectrum: 3,8-Dioxa-11-azatetracyclo[4.4.1.0(2,4).0(7,9)]undecane, 11-(phenylsulfonyl)-, (1.alpha.,2.alpha.,4.alpha.,6.alpha.,7.beta.,9.beta.)-
Formula: C14H15NO4S
CAS: 50267-12-4
Molecular weight: 293
m/z	intensity
41	320
51	180
68	360
77	619
80	220
96	999
108	60
117	210
119	190
124	70
141	140
152	90
220	70
237	150
293	260
