Mass Spectrum: 3,10-Dioxatricyclo[4.3.1.0(2,4)]dec-7-ene, (1.alpha.,2.alpha.,4.alpha.,6.alpha.)-
Formula: C8H10O2
CAS: 50267-08-8
Molecular weight: 138
m/z	intensity
39	250
41	220
53	210
54	160
55	230
66	170
67	210
68	350
77	210
79	509
81	649
82	999
91	110
95	220
109	130
138	120
