Mass Spectrum: Methyl 2-octylcyclopropene-1-heptanoate
Formula: C19H34O2
CAS: 5026-66-4
Molecular weight: 294
m/z	intensity
51	20
52	20
53	139
54	80
55	499
56	50
57	90
58	10
59	129
60	10
65	80
66	60
67	669
68	599
69	319
70	30
71	30
73	20
74	60
75	10
76	10
77	149
78	40
79	459
80	149
81	999
82	389
83	139
84	30
85	70
86	10
87	50
91	149
92	30
93	299
94	149
95	849
96	219
97	109
98	30
99	20
101	20
105	60
106	20
107	219
108	179
109	309
110	309
111	60
112	10
113	10
115	20
117	10
118	10
119	40
120	30
121	199
122	189
123	169
124	60
125	10
126	10
127	20
128	10
129	10
131	30
132	10
133	30
134	10
135	119
136	100
137	90
138	20
139	20
140	60
141	30
143	10
145	40
146	20
147	30
148	10
149	239
150	50
151	119
152	40
153	30
154	10
155	10
159	10
161	10
163	90
164	189
165	80
166	70
167	30
168	10
169	10
173	20
177	30
178	20
179	30
180	10
181	60
182	20
183	10
185	10
187	10
191	30
192	10
193	50
194	10
195	40
196	60
197	10
205	20
206	10
207	10
208	10
209	30
210	10
219	10
220	20
223	40
224	10
234	10
237	10
245	20
247	10
251	10
262	10
263	119
264	30
279	10
293	10
294	199
295	40
296	10
