Mass Spectrum: Urea, triethylnitroso-
Formula: C7H15N3O2
CAS: 50285-70-6
Molecular weight: 173
m/z	intensity
30	142
40	30
41	57
42	285
43	35
44	404
54	16
55	23
56	452
57	64
58	83
70	47
71	28
72	833
74	35
100	999
101	64
102	16
115	26
116	11
130	16
145	7
173	2
