Mass Spectrum: E-9-Tetradecenoic acid
Formula: C14H26O2
CAS: 50286-30-1
Molecular weight: 226
m/z	intensity
41	818
42	162
43	354
44	89
45	106
46	5
47	3
48	1
49	2
50	3
51	15
52	12
53	106
54	223
55	999
56	235
57	147
58	16
59	28
60	117
61	16
62	2
63	4
64	2
65	32
66	24
67	278
68	185
69	470
70	173
71	73
72	9
73	115
74	11
75	3
76	2
77	30
78	9
79	75
80	38
81	211
82	162
83	258
84	209
85	54
86	12
87	42
88	5
89	1
91	22
92	6
93	38
94	37
95	129
96	191
97	208
98	178
99	36
100	38
101	46
102	7
103	2
104	7
105	10
106	8
107	24
108	25
109	67
110	113
111	105
112	50
113	31
114	59
115	28
116	6
117	4
118	2
119	17
120	8
121	32
122	17
123	67
124	79
125	53
126	20
127	33
128	12
129	14
130	7
131	5
132	0
133	18
134	14
135	21
136	9
137	43
138	36
139	22
140	7
141	10
142	4
143	7
144	5
145	3
146	0
147	14
148	10
149	9
150	5
151	33
152	17
153	9
154	5
155	6
156	2
157	4
158	3
159	2
161	12
162	3
163	3
164	43
165	31
166	51
167	10
168	2
169	5
170	1
171	3
173	1
174	2
175	3
177	2
179	15
180	8
181	2
182	2
183	5
184	2
185	3
189	1
190	10
191	3
192	14
193	5
194	2
195	2
197	1
199	3
200	0
203	1
205	2
207	2
208	53
209	16
210	5
211	1
213	1
223	1
224	1
225	3
226	52
227	9
228	1
229	1
