Mass Spectrum: N-Acetyl-2-amino-4-pentenoic acid
Formula: C7H11NO3
CAS: 50299-14-4
Molecular weight: 157
m/z	intensity
26	4
27	35
28	140
29	17
30	44
37	2
38	8
39	65
40	12
41	72
42	55
43	631
44	36
45	16
46	27
50	6
51	12
52	11
53	34
54	79
55	25
56	37
57	18
58	3
59	5
60	182
61	5
66	2
67	7
68	57
69	74
70	532
71	66
72	89
73	10
74	999
75	28
76	2
81	9
82	3
83	2
84	10
85	5
86	3
87	2
88	97
89	2
97	50
98	177
99	28
102	19
110	7
111	35
112	146
113	44
114	49
115	29
116	282
117	21
123	1
126	1
139	228
140	17
157	28
158	14
159	3
