Mass Spectrum: o-Formamidobenzaldehyde oxime
Formula: C8H8N2O2
CAS: 50290-14-7
Molecular weight: 164
m/z	intensity
16	1
17	31
18	168
26	8
27	22
28	101
29	29
30	5
31	1
36	2
37	30
38	58
39	127
40	20
41	45
42	7
43	7
44	10
45	14
46	5
48	1
49	9
50	105
51	94
52	90
53	18
54	9
55	2
57	1
58	5
59	25
60	3
61	20
62	59
63	187
64	214
65	287
66	42
67	12
68	10
69	1
70	3
71	1
72	1
73	20
74	32
75	73
76	146
77	108
78	68
79	18
80	18
81	6
82	11
85	3
86	8
87	11
88	22
89	101
90	116
91	553
92	320
93	65
94	4
95	1
98	1
99	7
100	8
101	53
102	98
103	171
104	77
105	33
106	51
107	9
108	5
109	4
110	1
113	1
114	3
115	3
116	217
117	106
118	999
119	592
120	72
121	5
127	1
128	199
129	175
130	327
131	34
132	120
133	394
134	124
135	15
136	333
137	32
138	2
143	4
144	16
145	48
146	698
147	386
148	36
149	4
159	2
160	8
161	2
163	10
164	905
165	97
166	8
