Mass Spectrum: 2-Butyne
Formula: C4H6
CAS: 503-17-3
Molecular weight: 54
m/z	intensity
25	8
26	23
27	199
28	73
29	2
36	3
37	12
38	14
39	181
40	6
48	6
49	39
50	133
51	155
52	76
53	371
54	999
55	45
