Mass Spectrum: Isocrotonic acid
Formula: C4H6O2
CAS: 503-64-0
Molecular weight: 86
m/z	intensity
25	7
26	48
27	128
28	27
29	87
31	17
36	19
37	106
38	170
39	872
40	262
41	771
42	158
43	75
44	26
45	202
53	24
55	32
57	38
58	9
60	23
68	390
69	298
70	6
71	87
85	40
86	999
87	40
