Mass Spectrum: 4H-Imidazol-4-one, 2-amino-1,5-dihydro-
Formula: C3H5N3O
CAS: 503-86-6
Molecular weight: 99
m/z	intensity
41	44
42	232
43	904
44	44
53	12
54	24
55	112
56	204
57	24
59	12
69	64
70	24
71	312
72	12
98	12
99	999
100	52
