Mass Spectrum: Pyrollidine, 2,5-bis(imino)-
Formula: C4H7N3
CAS: 503-84-4
Molecular weight: 97
m/z	intensity
27	76
29	11
30	13
41	53
42	126
43	256
44	54
52	45
54	278
55	125
56	50
68	43
69	237
70	20
79	11
80	10
81	23
96	228
97	999
98	312
99	39
100	2
