Mass Spectrum: 2H-Furo[3,2-b]pyran-2-one, hexahydro-3,4(or 3,8)-dihydroxy-8(or 4)-methoxy-6,7,8-trimethyl-
Formula: C11H18O6
CAS: 50326-91-5
Molecular weight: 246
m/z	intensity
39	50
40	10
41	160
42	15
43	999
44	40
45	70
53	30
54	10
55	120
56	200
57	150
58	90
59	60
61	20
63	10
67	25
68	10
69	40
70	10
71	120
72	170
73	100
74	60
75	15
76	10
77	10
79	10
81	15
83	60
84	20
85	85
86	10
87	75
88	10
89	30
90	20
91	25
93	50
94	10
95	80
96	10
97	50
98	10
99	70
100	20
101	80
102	75
103	10
105	20
111	280
112	30
113	20
115	10
116	40
117	45
121	15
123	15
125	15
126	15
127	10
129	105
130	35
133	100
139	190
140	20
141	10
143	15
144	15
153	40
154	160
155	60
157	20
158	10
159	10
171	150
172	45
173	10
189	10
190	7
196	5
197	5
213	5
214	5
215	4
228	17
229	5
