Mass Spectrum: 2-Hydroxy-4-methyl-5-phenyl-6-benzoylmethylpyrimidine
Formula: C19H16N2O2
CAS: 50324-14-6
Molecular weight: 304
m/z	intensity
42	489
43	40
44	17
45	6
51	300
52	40
53	16
54	10
55	9
57	4
60	2
62	15
63	74
64	16
65	24
66	2
68	44
69	14
70	6
71	12
74	12
75	21
77	861
78	96
79	13
81	4
82	4
83	1
84	6
85	9
86	7
87	14
88	18
89	85
90	18
91	24
94	7
95	10
98	9
99	16
101	24
102	36
103	44
105	999
106	68
107	2
108	8
109	6
113	23
115	204
116	41
117	18
120	3
121	7
122	5
123	5
126	5
127	60
128	50
129	60
130	60
131	17
132	6
137	12
139	21
140	24
141	18
142	13
143	19
144	21
151	16
152	8
153	11
154	63
155	20
156	68
157	30
158	20
163	10
165	12
166	11
167	12
168	15
169	26
171	53
172	2
173	2
176	7
178	11
179	10
181	23
182	37
184	82
185	15
186	6
189	21
190	5
191	13
194	4
197	15
198	100
199	257
200	23
201	6
202	11
203	4
204	14
205	2
207	4
209	24
210	34
211	8
213	5
215	11
216	10
217	10
218	2
219	2
225	14
227	302
228	40
229	2
230	10
231	1
232	10
233	7
241	3
242	4
243	8
244	12
245	5
246	7
247	6
248	8
258	3
259	9
260	30
261	50
262	31
271	2
275	48
276	15
286	172
287	500
288	113
289	48
290	10
301	6
302	2
303	344
304	872
305	179
306	8
