Mass Spectrum: 2-Amino-4-[2-[3,4-dioxymethylenephenyl]-2-hydroxyethyl]pyrimidine
Formula: C13H13N3O3
CAS: 50324-61-3
Molecular weight: 259
m/z	intensity
41	37
42	40
43	112
44	4
50	11
51	24
52	21
53	34
54	20
55	17
56	5
62	6
63	75
65	272
66	9
67	59
68	36
69	45
70	3
74	3
75	6
77	23
78	8
79	9
81	68
82	99
83	5
86	9
88	1
89	12
91	23
93	275
94	25
96	315
97	13
101	5
103	3
106	8
109	999
110	65
111	1
113	1
114	3
115	6
117	2
119	7
121	57
123	61
124	3
128	3
129	2
130	3
136	21
138	6
140	2
142	2
145	1
146	1
147	6
149	101
151	161
152	8
155	3
156	1
157	1
158	1
160	1
164	125
165	8
167	1
170	2
171	1
172	3
182	1
184	3
198	1
200	3
212	1
214	4
216	3
228	1
229	2
230	2
240	19
241	2
242	67
243	9
258	19
259	229
260	60
261	8
