Mass Spectrum: 1,4-Methano-3-benzoxepin-5(4H)-one, 1,2,7,8,9,9a-hexahydro-7,10-dihydroxy-2,2,9,9a-tetramethyl-
Formula: C15H22O4
CAS: 50340-22-2
Molecular weight: 266
m/z	intensity
41	200
43	240
55	90
67	90
80	90
91	90
95	180
107	90
109	90
113	999
123	80
136	80
151	20
165	20
173	10
175	10
177	10
179	10
191	10
207	10
219	20
233	10
248	30
251	10
266	30
