Mass Spectrum: Cyclohexanone, 4-acetyl-
Formula: C8H12O2
CAS: 5034-21-9
Molecular weight: 140
m/z	intensity
34	1
39	184
40	75
41	299
42	134
43	999
44	29
45	9
50	5
51	14
52	4
53	44
54	36
55	263
56	29
57	11
58	11
63	2
65	9
66	6
67	28
68	18
69	164
70	64
71	52
72	1
77	1
79	20
80	8
81	9
83	119
84	244
85	13
94	3
95	8
96	6
97	85
98	48
107	10
112	145
113	4
121	3
122	2
125	28
140	187
141	16
