Mass Spectrum: 1,4-Methano-3-benzoxepin-5(4H)-one, 1,2,7,8,9,9a-hexahydro-10-hydroxy-7-methoxy-2,2,9,9a-tetramethyl-
Formula: C16H24O4
CAS: 50340-23-3
Molecular weight: 280
m/z	intensity
41	120
43	160
55	60
67	80
79	100
91	120
95	120
107	100
113	999
121	60
123	60
136	120
151	30
161	30
165	30
167	30
175	30
177	20
179	20
189	20
205	20
229	20
233	20
248	40
262	10
265	20
280	40
