Mass Spectrum: 2-Benzylaminonicotinonitrile
Formula: C13H11N3
CAS: 50351-72-9
Molecular weight: 209
m/z	intensity
26	9
27	28
28	95
29	4
30	4
31	1
37	13
38	24
39	118
40	19
41	38
42	4
43	5
44	2
45	2
49	4
50	51
51	119
52	56
53	20
54	5
55	5
56	2
57	5
58	2
60	2
61	4
62	18
63	72
64	48
65	261
66	20
67	4
68	2
69	2
70	1
71	2
73	2
74	8
75	17
76	79
77	152
78	74
79	102
80	9
85	2
86	3
87	4
88	4
89	53
90	31
91	999
92	91
93	5
94	1
95	1
96	1
97	2
98	1
99	2
100	3
101	4
102	5
103	195
104	155
105	77
106	529
107	44
108	2
111	1
112	1
113	2
114	1
115	2
116	3
117	4
118	2
119	3
120	1
125	2
126	3
127	10
128	5
129	3
130	45
131	13
132	93
133	8
138	1
139	1
140	1
141	1
142	1
152	3
153	3
154	5
155	4
156	1
157	1
166	1
167	1
168	1
169	1
179	6
180	5
181	19
182	5
183	5
191	1
192	5
193	16
194	7
195	1
206	6
207	13
208	245
209	499
210	78
211	5
