Mass Spectrum: 1,3-Propanediamine, N-methyl-N,N',N'-tris(3-trichloromehtyl-5-[1,2,4]thiadiazolyl)-
Formula: C13H9Cl9N8S3
CAS: 50350-59-9
Molecular weight: 688
m/z	intensity
41	729
42	999
43	240
44	191
45	71
46	261
47	54
49	98
51	56
53	45
54	46
55	121
56	255
57	28
58	427
59	18
60	67
61	12
64	47
66	9
67	108
69	863
70	327
72	171
73	168
74	57
75	10
76	107
78	30
79	241
81	195
82	85
84	153
85	120
86	82
87	80
88	38
90	35
93	13
94	6
95	71
96	5
97	20
98	18
99	50
100	44
101	46
102	42
105	125
106	7
107	14
108	361
110	231
111	18
112	42
113	111
114	58
115	16
116	80
117	99
119	97
121	61
122	17
123	13
125	6
126	102
127	18
128	89
130	7
131	21
133	13
137	29
139	24
140	925
142	685
144	132
149	5
151	5
154	65
158	15
160	6
162	6
164	6
166	53
167	25
168	39
169	12
170	26
171	12
172	35
173	6
174	27
175	27
176	31
177	16
178	8
179	40
180	32
181	13
182	26
185	8
189	14
194	96
195	19
196	91
197	30
198	33
199	14
200	15
201	22
203	40
204	8
205	16
206	21
207	21
208	30
209	173
210	51
211	134
212	36
213	34
216	79
218	88
220	67
221	19
222	125
223	59
224	83
225	34
226	26
228	6
230	28
231	33
232	40
233	30
234	26
235	71
236	43
237	89
238	56
239	44
240	31
242	45
244	250
245	95
246	227
247	95
248	72
249	32
250	6
251	7
256	48
258	319
259	21
260	321
261	8
262	127
264	13
270	195
271	94
272	282
273	82
274	148
275	32
276	58
278	6
279	7
280	5
281	24
282	8
283	12
286	9
287	18
289	12
298	12
299	6
310	31
311	34
312	20
315	32
317	32
346	13
348	20
350	6
382	5
384	21
413	6
423	12
424	22
425	23
426	23
431	21
433	39
435	36
437	33
438	7
439	13
445	127
446	38
447	238
448	47
449	192
450	29
451	67
452	11
453	17
458	19
459	21
460	29
461	22
462	28
652	15
654	40
656	45
658	29
660	12
662	3
