Mass Spectrum: 1,3-Propanediamine, N-methyl-N,N'-bis(3-trichloromethyl-1,2,4-thiadiazol-5-yl)-N'-[3-(3,4-dichlorophenyl)-1,2,4-thiadiazol-5-yl]-
Formula: C18H12Cl8N8S3
CAS: 50350-61-3
Molecular weight: 716
m/z	intensity
41	614
42	999
43	221
44	166
45	135
46	192
47	40
49	25
50	18
51	11
53	39
54	54
55	161
56	178
57	47
58	66
59	21
60	85
61	19
62	15
64	95
66	12
67	53
68	76
69	334
70	225
72	169
73	227
74	88
75	61
76	48
78	16
79	104
80	13
81	139
82	92
83	44
84	83
85	136
86	79
87	72
88	27
90	33
93	5
94	13
95	82
96	16
97	14
99	35
100	61
101	46
102	45
104	35
105	102
106	21
107	31
108	142
109	22
110	108
111	30
112	55
113	77
114	111
115	18
116	27
117	97
119	51
121	36
122	12
123	18
124	16
125	26
126	85
127	28
128	43
130	5
131	24
132	5
133	48
134	12
135	16
136	66
137	20
138	15
139	14
140	408
141	20
142	489
143	13
144	156
145	70
146	6
147	44
154	53
155	11
156	5
158	24
161	6
166	39
167	34
168	39
169	12
170	15
171	201
172	78
173	190
174	63
175	41
176	24
177	21
179	5
180	5
181	12
182	13
183	6
185	13
194	91
195	31
196	70
197	25
198	15
201	12
202	8
203	229
204	52
205	184
206	41
207	50
208	17
209	98
210	18
211	74
212	17
213	19
216	60
217	5
218	44
220	18
222	63
223	39
224	51
225	24
226	19
231	12
232	15
233	18
234	17
235	48
236	34
237	47
238	35
239	6
240	11
242	12
243	12
244	121
245	51
246	134
247	39
248	41
254	5
256	43
257	27
258	118
259	30
260	54
261	13
262	23
265	6
270	41
271	17
272	187
273	46
274	184
275	35
276	65
277	5
278	12
286	9
287	5
302	5
303	11
304	11
315	5
445	18
446	5
447	51
448	14
449	36
451	11
459	16
461	15
462	6
463	5
473	30
474	21
475	74
476	34
477	63
478	17
479	18
488	14
