Mass Spectrum: 1-Phosphetanamine, 2,2,3,4,4-pentamethyl-N-phenyl-, 1-oxide
Formula: C14H22NOP
CAS: 50378-02-4
Molecular weight: 251
m/z	intensity
29	60
30	30
39	60
40	80
41	210
42	70
43	90
47	50
55	400
57	150
69	190
70	110
77	70
78	110
84	110
93	130
97	999
112	450
115	110
118	110
119	80
122	190
123	840
124	110
126	130
130	80
132	110
134	710
138	70
139	130
140	270
141	80
147	60
148	70
160	40
161	50
166	110
173	90
180	50
181	380
183	110
236	130
251	470
