Mass Spectrum: 1-Phosphetanamine, N-butyl-2,2,3,4,4-pentamethyl-, 1-oxide
Formula: C12H26NOP
CAS: 50377-92-9
Molecular weight: 231
m/z	intensity
29	30
30	40
39	40
40	40
41	90
42	40
43	50
44	20
46	20
47	30
55	240
56	40
57	110
58	70
61	340
64	120
67	40
69	120
70	120
71	50
72	90
75	80
76	90
77	50
79	20
81	30
83	30
86	50
87	30
88	40
89	60
90	60
91	30
92	20
95	40
97	999
100	40
101	40
102	80
103	360
106	50
112	470
114	360
118	840
119	270
120	240
132	70
133	90
141	40
143	20
145	20
146	30
147	80
157	20
159	50
160	60
161	999
163	40
185	90
202	20
216	120
231	180
