Mass Spectrum: 1,3-Propanediamine, N,N-dimethyl-N'-(2,2,3,4,4-pentamethyl-1-phosphetanyl)-, P-oxide
Formula: C13H29N2OP
CAS: 50377-97-4
Molecular weight: 260
m/z	intensity
30	40
41	40
42	40
44	50
47	20
55	60
56	40
57	50
58	999
69	50
70	130
72	270
84	250
85	110
90	170
97	100
101	630
111	30
112	30
141	40
146	40
147	380
149	90
159	40
160	90
176	140
188	60
189	40
190	100
202	120
216	90
217	40
245	90
260	130
