Mass Spectrum: dl-Isopulegol
Formula: C10H18O
CAS: 50373-36-9
Molecular weight: 154
m/z	intensity
39	409
41	999
42	104
43	313
53	254
55	477
56	341
57	154
67	366
68	461
69	467
70	136
71	474
79	194
80	106
81	452
82	130
83	197
84	307
93	261
94	113
95	253
97	164
98	101
107	100
108	52
109	127
110	156
111	176
112	85
121	264
122	28
123	42
131	8
134	6
136	144
137	13
139	83
140	7
154	50
155	6
