Mass Spectrum: 2,5-Piperazinedione, 3-(phenylmethyl)-
Formula: C11H12N2O2
CAS: 5037-75-2
Molecular weight: 204
m/z	intensity
36	3
37	2
38	11
39	74
40	9
41	26
42	31
43	9
44	14
45	2
46	0
49	1
50	18
51	51
52	14
53	3
54	1
55	10
56	16
57	19
58	15
61	0
62	6
63	32
64	7
65	127
66	8
68	0
70	3
71	0
74	3
75	2
76	5
77	47
78	17
79	1
83	2
84	4
85	147
86	4
89	26
90	12
91	999
92	121
93	7
102	4
103	23
104	17
105	2
113	36
114	1
115	1
117	15
118	13
119	8
120	10
125	0
127	0
128	6
130	3
131	9
132	5
133	4
146	3
147	8
149	1
157	1
160	3
161	11
162	0
204	205
205	25
206	1
