Mass Spectrum: 1-Phosphetanamine, N,N-diethyl-2,2,3,4,4-pentamethyl-, 1-oxide
Formula: C12H26NOP
CAS: 50377-94-1
Molecular weight: 231
m/z	intensity
39	30
40	40
41	70
42	50
43	40
44	40
47	30
55	240
57	80
58	50
67	30
69	100
70	80
71	30
72	220
74	190
75	110
86	90
89	40
90	60
91	30
92	60
95	40
97	999
103	250
106	30
112	630
113	70
114	250
118	500
119	130
120	470
133	110
141	30
146	250
159	40
160	30
161	400
188	30
202	10
203	20
216	40
231	120
