Mass Spectrum: 1,3-Propanediamine, N,N-diethyl-N'-(2,2,3,4,4-pentamethyl-1-phosphetanyl)-, P-oxide
Formula: C15H33N2OP
CAS: 50377-98-5
Molecular weight: 288
m/z	intensity
30	20
41	40
42	30
44	20
47	60
55	70
56	60
57	50
58	80
64	20
69	40
70	40
71	30
72	360
73	40
84	210
86	999
90	80
97	110
98	80
100	180
101	50
104	60
105	30
106	30
110	10
111	60
112	200
127	30
129	130
132	20
133	20
141	40
146	30
147	270
159	50
160	60
161	30
175	130
176	200
177	60
188	40
202	180
216	180
217	50
218	40
223	20
245	20
260	420
273	30
287	20
288	20
