Mass Spectrum: 1-Propanone, 2-methyl-1-(4-methylphenyl)-
Formula: C11H14O
CAS: 50390-51-7
Molecular weight: 162
m/z	intensity
26	1
27	24
28	8
29	2
30	0
31	0
36	0
37	1
38	4
39	59
40	6
41	41
42	5
43	17
44	3
45	1
46	0
49	0
50	10
51	22
52	5
53	3
54	0
55	11
56	1
57	1
58	0
59	0
60	0
61	0
62	8
63	33
64	10
65	144
66	8
67	1
68	0
69	1
70	1
71	1
72	0
73	1
74	3
75	3
76	2
77	7
78	1
79	1
80	0
81	0
82	0
83	1
84	0
85	0
86	1
87	1
88	1
89	35
90	21
91	417
92	35
93	3
94	0
95	0
97	0
98	0
99	0
100	0
101	2
102	1
103	2
104	1
105	4
106	0
111	1
112	0
113	0
115	5
116	1
117	4
118	5
119	999
120	116
121	8
122	0
125	0
126	0
127	0
128	1
129	2
130	1
131	1
132	0
133	2
134	0
135	0
146	0
147	4
148	0
160	0
161	0
162	57
163	7
164	0
