Mass Spectrum: Acetic acid, [(3-methylphenyl)sulfonyl]-, ethyl ester
Formula: C11H14O4S
CAS: 50397-63-2
Molecular weight: 242
m/z	intensity
77	73
78	30
79	37
89	105
90	72
91	999
92	150
105	370
106	64
108	100
139	41
149	41
155	160
156	33
178	148
197	33
242	54
