Mass Spectrum: Acetic acid, [(4-methylphenyl)sulfonyl]-, methyl ester
Formula: C10H12O4S
CAS: 50397-64-3
Molecular weight: 228
m/z	intensity
39	31
41	13
42	17
45	12
51	18
63	36
64	13
65	206
66	13
67	10
77	49
78	17
79	26
89	78
90	38
91	999
92	102
105	199
106	20
107	35
108	20
111	12
121	12
122	11
139	47
155	583
156	58
157	32
164	273
165	31
169	15
186	97
187	10
197	32
228	56
