Mass Spectrum: 2,4-Diamino-1,3,5-triazine
Formula: C3H5N5
CAS: 504-08-5
Molecular weight: 111
m/z	intensity
14	8
17	7
18	9
27	39
28	117
29	13
40	3
41	61
42	324
43	472
44	30
53	29
56	37
68	92
69	55
70	196
83	19
84	31
111	999
112	53
