Mass Spectrum: Neophytadiene
Formula: C20H38
CAS: 504-96-1
Molecular weight: 278
m/z	intensity
27	33
29	70
39	60
40	25
41	481
42	71
43	563
53	118
54	33
55	566
56	166
57	660
58	26
65	55
66	23
67	514
68	999
69	630
70	173
71	413
72	28
77	38
79	157
80	36
81	450
82	793
83	441
84	38
85	133
93	55
94	74
95	738
96	257
97	317
98	30
109	286
110	142
111	186
112	30
122	40
123	580
124	243
125	69
126	30
137	99
138	52
151	26
152	24
179	17
193	20
263	15
278	30
279	5
