Mass Spectrum: 2H-Pyran-2-one
Formula: C5H4O2
CAS: 504-31-4
Molecular weight: 96
m/z	intensity
25	3
26	64
27	15
28	5
29	265
30	4
37	148
38	271
39	999
40	323
41	30
42	184
43	5
49	45
50	80
51	21
52	4
53	15
67	8
68	840
69	49
95	169
96	674
97	41
