Mass Spectrum: 2,4(1H,3H)-Pyrimidinedione, dihydro-
Formula: C4H6N2O2
CAS: 504-07-4
Molecular weight: 114
m/z	intensity
26	45
27	74
28	501
29	147
30	286
31	4
32	7
38	0
39	2
40	21
41	45
42	373
43	208
44	101
45	4
46	0
51	0
52	1
53	1
54	3
55	32
56	25
57	1
58	1
59	33
60	1
67	0
68	6
69	6
70	79
71	252
72	9
73	2
84	0
85	9
86	17
87	1
96	2
97	0
98	3
99	1
112	1
113	34
114	999
115	73
116	6
117	0
