Mass Spectrum: Methanone, [2-(1-methylethenyl)phenyl]phenyl-
Formula: C16H14O
CAS: 50431-89-5
Molecular weight: 222
m/z	intensity
50	81
51	333
52	37
53	19
55	15
57	22
62	22
63	96
64	15
65	96
69	15
71	19
74	41
75	78
76	152
77	999
78	89
81	15
82	85
83	59
87	22
88	78
89	200
90	22
91	307
92	33
95	26
96	26
97	150
98	15
100	26
101	137
102	74
103	115
104	19
105	393
106	30
115	519
116	156
117	237
118	48
126	19
127	38
128	22
131	137
132	15
139	19
143	19
144	74
145	248
146	26
150	22
151	37
152	70
153	15
163	22
164	15
165	93
166	19
176	52
177	44
178	333
179	222
180	33
189	37
190	22
192	19
193	89
194	30
200	33
201	37
202	204
203	237
204	333
205	89
206	22
207	852
208	148
209	26
221	278
222	433
