Mass Spectrum: 4,7-Methano-2H-inden-2-one, octahydro-
Formula: C10H14O
CAS: 50447-20-6
Molecular weight: 150
m/z	intensity
26	19
27	322
28	84
29	106
30	9
31	34
36	5
38	28
39	440
40	100
41	419
42	48
43	39
44	81
45	13
46	7
50	18
51	80
52	60
53	342
54	397
55	187
56	14
57	15
58	22
59	15
60	6
62	5
63	22
64	5
65	121
66	457
67	999
68	450
69	63
70	7
71	8
72	6
73	6
74	6
75	5
76	5
77	232
78	114
79	756
80	887
81	500
82	234
83	138
84	107
85	14
89	2
91	169
92	104
93	780
94	441
95	167
96	107
97	19
98	4
99	5
100	2
103	14
104	10
105	26
106	270
107	331
108	163
109	70
110	29
111	4
113	3
114	1
115	4
117	47
118	5
119	7
120	7
121	99
122	238
123	34
124	3
126	2
131	5
132	16
133	6
134	2
135	66
136	8
137	4
138	5
148	5
149	9
150	808
151	90
152	8
