Mass Spectrum: Pyrrolo[1,2-b][1,2,4]oxadiazole-2(1H)-thione, tetrahydro-5,5,7,7-tetramethyl-1-phenyl-
Formula: C15H20N2OS
CAS: 50455-65-7
Molecular weight: 276
m/z	intensity
58	170
60	140
63	130
64	220
68	130
69	999
70	140
77	709
83	559
91	340
93	180
110	659
119	579
125	230
126	240
135	779
141	200
201	220
216	200
246	30
276	10
