Mass Spectrum: Pyrrolo[1,2-b][1,2,4]oxadiazole-2(1H)-thione, 1-(4-fluorophenyl)tetrahydro-5,5-dimethyl-
Formula: C13H15FN2OS
CAS: 50455-86-2
Molecular weight: 266
m/z	intensity
57	180
62	120
63	130
69	579
81	180
82	999
89	190
95	120
96	170
97	220
109	819
129	100
137	659
191	70
206	30
266	10
