Mass Spectrum: Dispiro[9H-fluorene-9,3'-[1,4,2]oxathiazolidine-5',2''-tricyclo[3.3.1.1(3,7)]decane], 2'-phenyl-
Formula: C29H27NOS
CAS: 50455-54-4
Molecular weight: 437
m/z	intensity
51	230
64	160
65	150
71	160
77	250
79	270
91	999
92	150
93	120
124	200
125	140
133	180
151	150
152	130
163	120
166	649
180	160
254	220
255	250
270	220
271	230
