Mass Spectrum: 5-Oxa-8-thia-6-azaspiro[3.4]octan-2-one, 1,1,3,3-tetramethyl-6,7-diphenyl-
Formula: C21H23NO2S
CAS: 50455-60-2
Molecular weight: 353
m/z	intensity
41	260
64	220
70	200
71	529
77	739
81	190
85	200
86	629
91	999
96	290
105	200
156	180
180	509
181	899
182	170
196	200
197	250
212	60
353	20
