Mass Spectrum: Pyrrolo[1,2-b][1,2,4]oxadiazole-2(1H)-thione, tetrahydro-1,5,5-trimethyl-6-phenyl-
Formula: C14H18N2OS
CAS: 50455-88-4
Molecular weight: 262
m/z	intensity
44	519
57	559
60	599
69	190
77	190
78	180
83	999
91	150
97	200
98	360
103	180
104	300
115	130
117	110
144	110
146	110
187	519
201	110
202	499
203	110
262	5
