Mass Spectrum: 1-Azetidinecarboxaldehyde, 2,2,4,4-tetramethyl-
Formula: C8H15NO
CAS: 50455-46-4
Molecular weight: 141
m/z	intensity
55	280
56	350
57	370
58	340
81	140
83	200
84	999
86	729
98	330
108	160
126	719
141	420
