Mass Spectrum: 6-Oxa-1-azabicyclo[3.1.0]hexane, 2,2,4,4-tetramethyl-
Formula: C8H15NO
CAS: 50454-94-9
Molecular weight: 141
m/z	intensity
41	999
42	999
55	280
56	310
57	290
58	300
69	100
83	230
84	190
85	120
86	250
98	220
110	70
126	699
141	160
