Mass Spectrum: 3-Buten-2-one, 4-(1,2-dihydroxy-2,6,6-trimethylcyclohexyl)-, [1.alpha.,1(E),2.beta.]-
Formula: C13H22O3
CAS: 50464-94-3
Molecular weight: 226
m/z	intensity
43	999
55	120
69	370
81	50
99	519
109	330
123	220
127	100
135	30
142	30
165	20
180	10
190	10
208	30
