Mass Spectrum: 2-Butenoic acid, 4-bromo-3-methyl-, methyl ester
Formula: C6H9BrO2
CAS: 50465-52-6
Molecular weight: 192
m/z	intensity
25	8
26	90
27	527
28	139
29	261
30	41
31	34
33	8
36	7
37	60
38	163
39	732
40	92
41	340
42	82
43	120
44	16
45	111
46	3
48	4
49	30
50	159
51	226
52	129
53	999
54	307
55	641
56	47
57	39
58	11
59	389
60	12
61	6
62	3
63	5
65	11
66	32
67	98
68	29
69	159
70	28
71	70
72	7
73	48
74	6
75	2
76	3
77	18
78	8
79	25
80	23
81	392
82	719
83	771
84	58
85	164
86	12
87	4
89	7
91	7
92	4
93	25
94	24
95	23
96	20
97	82
98	87
99	106
100	9
104	2
105	30
106	5
107	12
108	2
109	8
110	3
111	28
112	222
113	882
114	404
115	41
116	6
117	7
119	9
120	3
121	8
122	3
123	6
131	7
132	3
133	123
134	11
135	118
136	8
137	4
139	3
141	3
147	2
148	2
149	24
150	2
151	22
152	5
153	2
154	3
155	2
156	2
157	2
158	2
159	3
160	127
161	516
162	151
163	499
164	31
165	8
167	5
177	6
179	6
190	4
191	11
192	856
193	117
194	846
195	106
196	10
