Mass Spectrum: 2,5,10-Undecanetrione, 6,6-dimethyl-
Formula: C13H22O3
CAS: 50464-96-5
Molecular weight: 226
m/z	intensity
43	899
55	70
69	529
71	250
81	10
99	999
109	599
123	40
127	200
142	120
165	10
193	10
208	20
226	10
