Mass Spectrum: Benzenepropionic acid, 4-benzyloxy-
Formula: C16H16O3
CAS: 50463-48-4
Molecular weight: 256
m/z	intensity
35	0
39	58
40	8
41	17
42	7
43	5
44	1
45	7
50	13
51	32
52	16
53	6
54	1
55	5
56	0
57	0
59	0
60	0
61	1
62	8
63	31
65	134
66	11
67	2
68	0
69	0
70	0
71	0
72	0
73	0
74	1
75	2
77	27
78	29
79	5
80	0
81	1
82	0
83	0
84	0
85	0
86	0
87	1
89	29
91	999
92	105
93	5
94	1
95	3
96	0
97	0
98	0
99	0
101	0
102	1
103	4
104	1
105	3
106	6
107	8
108	0
109	0
110	0
112	0
113	0
115	1
116	0
117	0
119	21
120	10
121	2
122	2
123	11
124	0
125	0
126	0
127	0
128	0
129	0
130	0
131	0
132	0
133	0
134	0
135	0
138	0
139	0
140	0
141	0
142	0
143	0
144	0
145	0
147	1
148	1
149	0
150	0
151	2
152	1
153	1
154	0
155	0
156	0
157	0
161	0
162	0
163	0
165	2
166	1
167	2
168	0
169	0
176	0
177	0
178	0
179	0
181	1
182	0
183	0
184	0
185	0
189	0
190	0
191	0
193	0
194	0
195	2
197	20
198	3
199	0
206	0
207	0
210	4
211	1
212	0
213	0
221	0
225	0
239	3
240	0
241	0
253	0
256	9
257	1
