Mass Spectrum: Benzamide, 4-(aminosulfonyl)-N-[(1-ethyl-2-pyrrolidinyl)methyl]-2-methoxy-
Formula: C15H23N3O4S
CAS: 50481-53-3
Molecular weight: 341
m/z	intensity
26	0
28	2
30	17
38	0
44	16
47	0
48	1
50	2
51	2
52	1
58	4
59	0
63	4
64	5
65	3
68	10
70	76
72	6
75	7
76	11
77	5
78	7
79	0
80	2
82	1
84	4
90	1
91	3
92	6
96	14
98	999
99	93
100	2
103	0
105	1
106	2
107	0
108	3
110	5
111	4
119	0
120	4
121	0
126	3
132	1
133	0
134	8
135	2
146	0
147	1
148	0
156	2
161	1
164	0
173	0
175	0
181	0
184	1
191	0
200	1
201	0
211	1
214	14
215	2
216	1
229	0
230	0
236	0
237	0
247	0
263	0
296	0
298	0
313	0
326	0
340	1
341	0
