Mass Spectrum: 8-Nonene-1-nitrile
Formula: C9H15N
CAS: 5048-34-0
Molecular weight: 137
m/z	intensity
26	24
27	191
28	77
29	146
30	10
37	8
38	29
39	428
40	82
41	804
42	195
43	55
44	7
50	20
51	48
52	42
53	149
54	315
55	999
56	142
57	16
58	6
62	4
63	10
64	9
65	35
66	32
67	178
68	162
69	394
70	36
73	6
77	26
78	5
79	196
80	347
81	274
82	207
83	113
84	10
91	22
92	5
93	29
94	622
95	100
96	273
97	78
98	6
99	6
105	27
106	6
108	719
109	171
110	22
120	13
122	474
123	41
134	6
136	226
137	25
