Mass Spectrum: 6-Heptenyl acetate
Formula: C9H16O2
CAS: 5048-30-6
Molecular weight: 156
m/z	intensity
12	1
13	2
14	21
15	41
16	1
17	1
18	1
25	1
26	9
27	109
28	37
29	137
30	3
31	16
37	2
38	8
39	195
40	36
41	290
42	108
43	999
44	46
45	14
46	1
50	7
51	16
52	9
53	99
54	857
55	743
56	46
57	25
58	23
59	6
60	5
61	89
62	3
63	4
64	1
65	19
66	88
67	918
68	688
69	66
70	9
71	38
72	12
73	81
74	4
75	1
77	16
78	5
79	55
80	21
81	513
82	39
83	11
84	8
85	13
86	6
87	4
89	1
90	3
91	13
92	3
93	10
94	12
95	89
96	243
97	39
98	19
99	5
100	2
101	2
105	2
107	4
108	12
109	4
110	4
111	5
112	2
113	7
114	19
115	6
117	1
121	2
123	3
126	9
127	1
128	1
135	1
138	3
141	1
156	3
