Mass Spectrum: Cyclopentanecarboxamide, N,N-dimethyl-
Formula: C8H15NO
CAS: 50484-00-9
Molecular weight: 141
m/z	intensity
27	18
28	1
29	4
30	3
38	2
39	37
40	12
41	155
42	44
43	11
44	111
45	83
46	108
47	2
53	9
54	3
55	52
56	12
57	2
58	30
63	2
65	9
66	5
67	41
68	54
69	592
70	40
71	4
72	384
73	37
74	25
84	6
87	12
95	18
96	102
97	67
98	89
99	7
100	999
101	61
102	3
112	45
113	114
114	7
126	4
140	52
141	739
142	78
143	4
