Mass Spectrum: Cyclopentane-trans-1,2-dicarboxamide, N,N,N',N'-tetramethyl-
Formula: C11H20N2O2
CAS: 50483-98-2
Molecular weight: 212
m/z	intensity
25	0
26	11
27	113
28	121
29	39
30	39
31	19
35	0
36	3
37	3
38	16
39	186
40	74
41	221
42	293
43	111
44	369
45	118
46	159
47	5
50	4
51	17
52	9
53	80
54	20
55	128
56	131
57	21
58	124
59	4
60	1
61	0
62	2
63	11
64	5
65	92
66	63
67	278
68	181
69	87
70	34
71	34
72	999
73	126
74	30
75	1
76	0
77	7
78	2
79	9
80	6
81	17
82	24
83	9
84	30
85	5
86	3
87	7
88	1
90	0
91	1
92	3
93	9
94	29
95	411
96	82
97	40
98	123
99	10
100	271
101	20
102	1
104	0
105	0
106	4
107	2
108	8
109	2
110	64
111	151
112	76
113	204
114	17
115	2
116	0
117	0
119	0
120	1
121	0
122	6
123	5
124	28
125	5
126	71
127	8
128	1
133	0
135	0
136	0
137	1
138	64
139	392
140	906
141	330
142	35
143	2
149	0
150	0
151	0
152	10
153	2
154	3
155	1
156	0
157	0
165	1
166	17
167	326
168	316
169	47
170	4
171	5
172	0
179	1
180	0
181	0
183	0
184	83
185	10
186	0
194	0
195	105
196	14
197	2
198	0
199	0
202	2
204	0
211	2
212	187
213	350
214	60
215	5
