Mass Spectrum: Benzoic acid, 2-[benzoyl(4-chlorophenyl)amino]-, methyl ester
Formula: C21H16ClNO3
CAS: 50495-79-9
Molecular weight: 365
m/z	intensity
50	20
51	50
59	20
63	20
75	50
76	20
77	330
78	50
105	999
106	100
111	20
139	20
140	20
166	70
167	20
180	20
194	20
201	50
214	50
229	50
238	100
239	20
306	50
334	50
365	160
366	50
367	70
