Mass Spectrum: Benzoic acid, 2-[benzoyl(4-chlorophenyl)amino]-
Formula: C20H14ClNO3
CAS: 50495-85-7
Molecular weight: 351
m/z	intensity
50	50
51	120
52	20
63	30
64	20
65	20
74	20
75	60
76	40
77	580
78	50
83	20
92	20
99	20
105	999
106	100
111	30
122	80
139	30
140	20
164	20
165	20
166	100
167	70
194	120
195	40
201	20
214	20
229	520
230	80
231	180
232	20
247	40
249	20
306	50
307	60
308	30
309	20
351	30
353	20
