Mass Spectrum: 2-Naphthalenecarboxylic acid, 1-(benzoyl-1-naphthalenylamino)-, methyl ester
Formula: C29H21NO3
CAS: 50495-78-8
Molecular weight: 431
m/z	intensity
51	30
77	300
78	30
83	20
91	20
105	999
106	120
115	20
126	20
127	30
151	20
188	20
230	530
231	110
239	20
264	50
265	50
266	110
267	120
268	30
288	370
289	90
290	20
295	80
296	30
302	30
372	50
373	20
431	120
432	40
