Mass Spectrum: 2-Hexenal
Formula: C6H10O
CAS: 505-57-7
Molecular weight: 98
m/z	intensity
27	604
28	14
29	446
30	8
31	19
33	0
36	2
37	38
38	80
39	631
40	114
41	999
42	557
43	187
44	17
45	1
47	1
48	1
49	8
50	45
51	54
52	23
53	100
54	86
55	586
56	128
57	360
58	14
59	1
61	8
62	12
63	13
64	2
65	24
66	9
67	35
68	50
69	500
70	148
71	11
74	0
77	8
78	2
79	49
80	73
81	19
82	2
83	389
84	19
95	2
96	1
97	70
98	148
99	8
