Mass Spectrum: Acetic acid, dithiodi-
Formula: C4H6O4S2
CAS: 505-73-7
Molecular weight: 182
m/z	intensity
12	17
13	27
14	99
15	34
16	15
26	8
27	2
28	79
29	102
30	11
31	162
32	53
33	41
34	43
38	2
41	27
42	216
43	144
44	258
45	999
46	756
47	620
48	74
49	30
55	2
58	11
59	30
60	135
61	10
63	58
64	131
65	14
66	15
72	2
73	7
74	141
75	89
76	76
77	45
78	145
79	548
80	30
81	162
82	2
83	12
87	2
90	76
91	54
92	312
93	128
94	29
95	110
97	11
103	10
105	58
106	46
107	40
108	2
109	196
110	11
111	20
119	105
120	21
121	11
122	13
123	42
124	7
136	2
137	78
138	23
139	6
164	160
165	11
166	16
182	361
183	25
184	37
