Mass Spectrum: 7-Oxabicyclo[4.1.0]hept-4-en-3-one, 1,2,2,4,5,6-hexamethyl-
Formula: C12H18O2
CAS: 50506-42-8
Molecular weight: 194
m/z	intensity
43	999
81	300
91	160
109	310
123	270
124	290
126	290
135	250
137	290
147	210
151	699
152	460
163	180
178	190
179	140
194	140
