Mass Spectrum: .alpha.-2-Piperidyl-2-[p-methylphenoxy]-4-quinolinemethanol
Formula: C22H24N2O2
CAS: 50503-60-1
Molecular weight: 348
m/z	intensity
41	50
42	47
43	17
44	12
49	9
50	1
51	18
52	7
53	12
54	14
55	72
56	200
57	16
63	12
65	46
67	27
68	14
69	10
70	5
75	7
76	7
77	38
78	10
79	11
80	8
82	25
84	999
85	46
86	3
89	16
90	10
91	54
92	2
96	5
97	16
100	3
101	20
102	16
103	9
105	7
107	23
108	12
111	1
113	1
114	2
115	10
116	10
117	10
118	1
127	9
128	47
129	17
130	4
132	5
140	7
142	1
143	2
145	1
146	4
147	2
152	3
156	4
157	2
158	13
160	3
162	1
165	3
166	2
167	5
168	2
169	1
170	1
174	1
178	7
179	1
180	1
191	3
192	7
193	11
194	7
204	10
206	10
207	9
208	12
210	1
217	1
218	4
219	3
220	7
234	11
235	3
236	49
237	7
239	1
240	8
243	1
248	1
249	2
254	5
262	16
263	4
264	110
265	866
266	157
268	26
269	203
270	38
272	1
330	3
348	8
349	2
