Mass Spectrum: 2-Propanol, 1-[(1-methylethyl)amino]-3-(1-naphthalenyloxy)-, (R)-
Formula: C16H21NO2
CAS: 5051-22-9
Molecular weight: 259
m/z	intensity
18	4
19	1
20	1
27	23
28	29
30	294
31	10
39	18
41	46
42	30
43	64
44	27
45	3
50	4
51	7
52	2
53	1
54	3
56	69
57	47
58	22
59	4
60	20
61	2
62	5
63	16
64	4
65	9
66	1
67	1
68	3
70	21
72	999
73	52
74	15
75	9
76	4
77	15
78	2
79	0
80	2
81	1
82	4
83	1
84	5
85	2
86	10
87	4
88	6
89	20
90	3
91	1
96	1
98	7
100	28
101	12
102	27
103	3
113	8
115	134
116	67
117	6
118	1
122	13
126	15
127	48
128	23
129	12
130	2
131	1
133	0
135	0
139	1
141	4
143	17
144	68
145	11
146	1
151	1
152	1
153	2
154	1
155	5
156	2
157	10
158	3
159	1
165	2
168	2
169	3
170	2
171	1
181	1
183	9
184	1
186	5
187	1
193	1
198	1
207	1
208	1
209	1
215	24
216	4
244	10
245	2
257	1
259	24
260	5
261	1
