Mass Spectrum: 3,5-Dibenzyloxybenzoic acid, benzyl(ester)
Formula: C28H24O4
CAS: 50513-72-9
Molecular weight: 424
m/z	intensity
41	10
42	0
43	5
44	1
45	1
49	0
50	4
51	14
52	4
53	1
54	0
55	3
56	1
57	2
60	0
61	0
62	3
63	20
64	1
65	122
66	6
67	1
68	0
69	6
70	0
71	1
73	0
74	0
75	1
76	1
77	12
78	3
79	5
80	0
81	1
82	0
83	1
84	0
85	1
86	0
87	0
89	26
90	3
91	999
92	97
93	4
95	0
96	0
97	1
98	0
102	0
103	1
104	0
105	4
106	0
107	1
108	0
109	0
110	0
111	0
113	0
115	3
116	0
117	0
123	0
125	0
126	0
127	1
128	2
129	2
130	0
131	4
132	0
133	0
136	0
137	8
138	2
139	2
140	0
141	4
142	1
143	0
145	0
149	0
150	0
151	0
152	1
153	1
154	0
155	1
156	0
157	1
159	0
161	0
165	3
166	2
167	7
168	2
169	2
170	0
171	0
173	0
178	1
179	20
180	56
181	175
182	27
183	2
184	0
185	0
192	0
193	1
194	0
195	0
196	0
197	9
198	2
199	1
200	0
201	6
202	0
203	0
209	0
211	0
213	1
215	0
217	0
219	1
221	0
223	1
224	0
225	5
226	2
227	164
228	25
229	4
230	0
231	0
239	0
240	0
241	3
242	0
243	1
244	0
245	1
247	0
255	1
256	0
257	0
259	1
263	0
264	0
267	0
269	0
270	1
271	6
272	1
273	0
287	1
288	1
289	5
290	3
291	1
297	0
299	0
305	2
306	0
315	5
316	1
317	17
318	6
319	1
331	1
332	1
333	27
334	9
335	1
369	1
399	2
414	1
423	0
424	256
425	79
426	14
427	2
