Mass Spectrum: 3-(2,2,6-Trimethyl-3-piperiden-4-yl)-2(2-methyl-2-aminopropyl)-1-methylindole
Formula: C21H31N3
CAS: 50527-50-9
Molecular weight: 325
m/z	intensity
58	999
115	11
128	10
130	24
195	78
196	105
210	215
211	356
212	70
225	237
226	57
237	150
252	31
253	251
254	58
267	73
268	333
269	69
325	43
