Mass Spectrum: Phosphoric acid, diethyl 1-methylenepropyl ester
Formula: C8H17O4P
CAS: 50522-98-0
Molecular weight: 208
m/z	intensity
31	89
45	402
57	115
65	141
81	319
82	134
83	106
99	999
109	159
111	170
125	85
127	521
138	160
151	63
155	638
179	106
181	75
207	202
208	149
