Mass Spectrum: 4-(7-Chloro-4-quinolylamino)-N-(2-diethylaminoethyl)benzamide
Formula: C22H25ClN4O
CAS: 50534-36-6
Molecular weight: 396
m/z	intensity
42	5
56	5
58	34
71	7
84	6
86	999
87	62
99	176
100	7
141	17
162	6
163	4
190	29
191	17
216	24
217	39
218	91
219	11
252	25
253	13
254	11
281	140
282	26
283	47
298	28
300	4
324	34
325	11
326	13
396	4
