Mass Spectrum: Pyrimidine, 2-methyl-
Formula: C5H6N2
CAS: 5053-43-0
Molecular weight: 94
m/z	intensity
26	359
27	135
28	177
29	37
37	39
38	84
39	140
40	299
41	224
42	313
51	70
52	172
53	60
64	23
65	16
66	74
67	717
68	44
79	18
93	93
94	999
95	63
