Mass Spectrum: 4(3H)-Quinazolinone, 3-amino-2-ethyl-
Formula: C10H11N3O
CAS: 50547-51-8
Molecular weight: 189
m/z	intensity
33	2
34	0
37	52
38	108
39	258
40	62
41	56
42	42
43	182
44	80
45	3
48	0
50	532
51	304
52	132
53	50
54	68
55	53
56	42
57	19
58	6
59	11
60	4
61	30
62	92
63	257
64	193
65	94
66	22
67	9
68	4
69	18
70	7
71	47
72	8
73	23
74	138
75	237
76	557
77	467
78	85
79	51
80	23
81	3
82	3
83	1
85	4
86	12
88	36
89	121
90	316
91	97
92	124
93	19
94	3
95	2
98	1
99	5
100	6
102	213
103	205
104	191
105	130
106	31
107	13
108	1
113	1
115	56
116	87
117	224
118	143
119	999
120	161
121	12
127	0
128	23
130	518
131	135
132	310
133	39
134	13
135	5
140	4
142	57
143	57
144	228
145	122
146	79
147	21
148	6
149	3
155	13
156	4
157	9
158	87
159	105
160	313
161	72
162	6
170	1
171	50
172	123
173	507
174	99
175	11
186	3
188	236
189	841
190	99
191	6
