Mass Spectrum: Metamizol
Formula: C13H17N3O4S
CAS: 50567-35-6
Molecular weight: 311
m/z	intensity
26	3
27	12
29	20
30	8
39	13
41	13
42	147
43	6
50	7
51	28
52	9
53	7
54	27
55	21
56	999
57	101
58	3
62	0
63	7
65	13
66	7
67	8
68	10
69	2
70	8
71	2
74	1
75	1
76	9
77	59
78	4
79	0
80	0
82	3
83	264
84	33
85	0
90	2
91	17
92	8
93	8
94	2
95	2
96	34
97	64
98	71
99	4
103	2
104	8
105	3
106	6
111	10
112	8
115	0
118	4
119	8
120	7
121	9
122	0
123	70
124	38
125	15
126	2
130	2
131	1
132	3
133	4
134	1
137	1
147	3
148	5
161	2
164	0
173	1
175	2
183	7
184	4
185	3
187	2
188	3
191	1
198	1
202	6
203	16
204	2
212	1
213	1
215	2
216	91
217	242
218	38
219	5
230	5
231	41
232	7
