Mass Spectrum: p-Hydroxyphenyl-2-propanone-oxime
Formula: C9H11NO2
CAS: 50563-19-4
Molecular weight: 165
m/z	intensity
41	71
50	93
51	154
52	103
63	46
77	419
78	167
79	54
94	40
105	138
106	243
107	999
108	113
121	38
130	25
132	365
133	200
146	124
147	201
148	147
165	395
166	35
