Mass Spectrum: Histamine, N-trifluoroacetyl
Formula: C7H8F3N3O
CAS: 50580-77-3
Molecular weight: 207
m/z	intensity
15	1
26	7
27	15
28	100
29	9
30	5
31	2
33	2
37	2
38	8
39	35
40	20
41	37
42	10
43	5
44	5
45	1
46	3
47	2
50	8
51	8
52	32
53	21
54	155
55	39
56	19
57	2
58	5
59	1
63	1
64	3
65	3
66	16
67	16
68	62
69	140
70	3
76	1
77	2
78	37
79	5
81	811
82	258
83	24
84	2
85	1
90	1
93	125
94	999
95	343
96	22
97	14
98	2
104	1
106	4
107	1
108	3
109	20
110	24
111	3
114	1
118	2
120	2
121	1
122	12
123	1
126	47
127	2
131	4
132	1
136	8
137	2
138	98
139	8
140	2
141	1
152	1
158	1
160	4
161	2
168	8
169	1
179	2
188	2
206	3
207	231
208	23
209	1
