Mass Spectrum: Carbamic acid, [1-(3-methyl-1H-inden-1-ylidene)ethyl]-, 1,1-dimethylethyl ester
Formula: C17H21NO2
CAS: 50585-35-8
Molecular weight: 271
m/z	intensity
51	50
55	50
56	90
57	999
59	320
77	50
115	60
127	130
128	390
129	140
130	130
153	70
154	80
155	60
156	60
170	170
171	619
172	80
182	60
197	649
198	130
215	480
216	60
271	180
272	40
