Mass Spectrum: 4-Hexen-1-ol, 2-ethenyl-2,5-dimethyl-
Formula: C10H18O
CAS: 50598-21-5
Molecular weight: 154
m/z	intensity
27	42
28	14
29	105
30	3
31	23
32	0
37	0
38	0
39	55
40	16
41	610
42	43
43	379
44	11
45	7
50	1
51	5
52	4
53	87
54	15
55	146
56	32
57	71
58	6
59	6
60	0
63	0
64	0
65	19
66	12
67	131
68	225
69	999
70	151
71	58
72	10
73	1
75	1
77	36
78	7
79	61
80	33
81	164
82	32
83	26
84	112
85	54
86	19
87	1
90	0
91	44
92	25
93	117
94	24
95	47
96	16
97	11
98	8
99	1
103	2
104	0
105	14
106	3
107	39
108	17
109	24
110	6
111	21
112	5
113	5
114	0
115	0
117	0
119	2
120	1
121	43
122	11
123	213
124	31
125	3
126	0
127	0
129	0
133	0
134	0
135	2
136	21
137	13
138	1
139	6
140	0
147	0
148	0
149	1
150	0
151	0
152	2
153	1
154	2
155	0
