Mass Spectrum: N-Phenyl-2,2-dibenzoylacetamide
Formula: C22H17NO3
CAS: 50597-10-9
Molecular weight: 343
m/z	intensity
26	6
27	22
28	55
29	3
31	2
32	11
37	13
38	35
39	75
40	9
41	28
42	5
43	5
44	7
50	52
51	202
52	32
53	5
54	8
57	5
61	5
62	15
63	57
64	89
69	224
70	9
74	10
75	10
76	35
77	699
78	72
79	8
89	28
90	16
91	144
92	35
93	436
94	36
98	8
101	3
102	10
103	10
104	7
105	999
106	87
107	3
118	6
119	314
120	29
129	29
146	8
147	168
148	19
152	3
165	9
173	5
178	12
196	2
197	8
206	8
221	2
222	67
223	242
224	260
225	41
249	30
250	29
251	36
252	6
343	9
