Mass Spectrum: 2(5H)-Furanone, 3,5,5-trimethyl-
Formula: C7H10O2
CAS: 50598-50-0
Molecular weight: 126
m/z	intensity
27	64
29	34
30	0
31	5
34	0
36	1
37	18
38	48
39	285
40	183
41	76
42	21
43	999
44	22
45	3
49	3
50	16
51	20
52	7
53	20
54	7
55	85
56	4
57	2
58	4
59	27
60	1
61	3
62	5
63	7
64	1
65	11
66	6
67	54
68	234
69	18
70	1
73	0
74	1
75	0
77	2
78	0
79	3
80	0
81	3
82	2
83	587
84	30
85	4
95	0
96	1
97	0
98	1
109	0
110	2
111	539
112	35
113	3
125	2
126	29
127	4
128	0
