Mass Spectrum: 1,5-Heptadiene, 3-methyl-, (E)-
Formula: C8H14
CAS: 50592-72-8
Molecular weight: 110
m/z	intensity
15	5
26	14
27	101
28	42
29	100
39	198
40	25
41	97
42	9
43	5
44	6
50	26
51	44
52	22
53	116
54	115
55	999
56	90
63	11
65	25
66	11
67	113
68	75
69	15
77	34
78	8
79	36
80	8
81	137
82	38
91	14
93	8
95	269
96	20
110	7
