Mass Spectrum: 1-Hexacosanol
Formula: C26H54O
CAS: 506-52-5
Molecular weight: 382
m/z	intensity
24	0
26	0
27	37
29	177
30	2
31	60
35	0
36	2
37	0
38	0
39	22
40	15
41	410
42	104
43	950
44	25
45	8
46	0
50	0
51	0
52	0
53	14
54	75
55	713
56	328
57	999
58	39
59	2
60	0
62	0
65	2
66	16
67	118
68	306
69	642
70	295
71	483
72	31
73	8
74	0
75	0
77	1
78	0
79	6
80	5
81	90
82	438
83	787
84	205
85	285
86	16
87	1
89	0
91	0
93	2
94	3
95	56
96	206
97	794
98	133
99	99
100	7
101	0
105	0
106	0
107	0
108	1
109	23
110	78
111	405
112	96
113	55
114	6
121	1
122	4
123	21
124	63
125	238
126	75
127	41
128	3
129	0
135	0
136	2
137	16
138	51
139	126
140	58
141	27
142	3
143	0
151	4
152	35
153	91
154	41
155	21
156	2
163	0
165	2
166	29
167	66
168	34
169	13
170	1
179	1
180	24
181	54
182	27
183	12
184	1
185	0
187	0
193	1
194	21
195	38
196	21
197	8
198	1
199	0
207	0
208	20
209	37
210	17
211	8
212	1
213	0
221	0
222	15
223	23
224	19
225	6
226	0
227	0
236	17
237	25
238	15
239	5
240	1
250	16
251	22
252	12
253	4
254	0
264	12
265	15
266	12
267	4
268	0
277	0
278	11
279	16
280	19
281	6
282	1
292	8
293	13
294	14
295	8
296	0
297	0
306	6
307	11
308	9
309	3
310	0
320	5
321	7
322	6
323	1
334	4
335	7
336	50
337	14
338	2
339	0
349	0
350	0
362	1
363	0
364	264
365	78
366	10
367	0
378	0
381	2
382	4
383	1
