Mass Spectrum: Carbon diselenide
Formula: CSe2
CAS: 506-80-9
Molecular weight: 172
m/z	intensity
76	158
77	149
78	459
80	999
82	207
88	64
89	55
90	160
92	368
94	44
168	159
169	141
170	298
172	619
174	149
