Mass Spectrum: 16-Hydroxyhexadecanoic acid
Formula: C16H32O3
CAS: 506-13-8
Molecular weight: 272
m/z	intensity
17	2
18	7
27	11
28	6
29	29
30	1
31	17
39	10
40	3
41	107
42	27
43	94
44	6
45	12
53	9
54	27
55	293
56	87
57	121
58	9
59	10
60	93
61	21
65	2
66	9
67	85
68	102
69	315
70	108
71	93
72	9
73	150
74	21
75	1
77	2
78	4
79	18
80	36
81	126
82	207
83	345
84	440
85	88
86	10
87	66
88	11
89	3
91	8
92	4
93	21
94	48
95	120
96	214
97	340
98	999
99	106
100	30
101	62
102	21
103	3
105	6
106	4
107	21
108	39
109	78
110	127
111	221
112	338
113	74
114	49
115	65
116	260
117	21
118	4
119	18
120	9
121	47
122	44
123	80
124	95
125	120
126	123
127	51
128	13
129	187
130	51
131	5
132	1
133	22
134	28
135	44
136	42
137	74
138	81
139	66
140	97
141	30
142	9
143	84
144	19
145	2
146	1
147	19
148	27
149	30
150	19
151	53
152	78
153	46
154	99
155	42
156	9
157	44
158	30
159	4
161	19
162	10
163	20
164	21
165	42
166	44
167	27
168	71
169	27
170	7
171	55
172	34
173	9
174	1
175	13
176	6
177	8
178	5
179	28
180	26
181	38
182	45
183	31
184	6
185	163
186	45
187	18
188	2
189	9
190	11
191	6
192	34
193	33
194	49
195	21
196	15
197	14
198	16
199	67
200	9
201	1
203	1
205	2
206	5
207	23
208	46
209	16
210	16
211	48
212	10
213	22
214	4
217	3
218	23
219	7
220	1
221	5
222	2
223	5
224	7
225	10
226	15
227	4
234	1
235	5
236	162
237	34
238	4
239	2
242	316
243	53
244	5
252	4
253	6
254	288
255	80
256	10
257	1
272	1
273	13
274	2
