Mass Spectrum: Methyl 3,4,6-tri-O-acetyl-2-acetamido-2-deoxy-.beta.-D-galactopyranoside
Formula: C15H23NO9
CAS: 50605-02-2
Molecular weight: 361
m/z	intensity
53	9
55	59
56	19
57	29
58	39
59	229
60	79
61	19
68	19
69	44
70	89
71	33
72	56
73	62
74	39
80	85
81	73
82	33
83	96
84	109
85	39
86	33
87	22
88	44
96	109
97	119
98	219
101	999
102	139
103	89
108	29
109	33
110	16
111	16
112	99
114	159
115	96
116	62
122	79
125	33
126	44
127	62
128	22
130	22
138	109
139	189
140	279
141	89
142	16
143	289
144	50
145	73
150	22
156	99
157	73
158	96
167	22
168	27
169	67
170	19
181	36
182	50
183	36
184	8
186	5
187	6
198	22
199	62
200	79
209	16
210	10
227	8
228	5
241	8
242	96
243	73
258	5
259	5
270	8
288	5
301	16
302	169
330	2
