Mass Spectrum: 2H-Pyran-2-one, 3-ethyl-4-hydroxy-6-methyl-
Formula: C8H10O3
CAS: 50607-35-7
Molecular weight: 154
m/z	intensity
39	340
40	100
41	250
42	130
43	880
44	120
45	10
51	70
53	150
54	60
55	720
56	40
68	90
69	420
70	310
71	20
83	90
84	10
85	860
86	70
87	10
97	140
98	20
111	999
112	100
113	50
126	300
127	30
139	550
140	50
154	670
155	60
156	10
