Mass Spectrum: 3,4,6-Tri-O-acetyl-1-azido-2-bromo-1,2-dideoxy-.beta.-D-glucopyranose
Formula: C12H16BrN3O7
CAS: 50603-58-2
Molecular weight: 393
m/z	intensity
26	44
27	10
28	359
29	89
31	33
39	109
40	44
41	89
42	229
43	999
44	359
45	179
51	37
52	67
53	64
54	71
55	189
56	79
57	59
60	169
61	179
64	10
65	19
66	33
67	17
68	51
70	159
71	59
72	44
73	229
78	30
79	21
80	49
81	609
82	94
83	249
84	76
85	129
86	69
87	21
93	21
94	35
95	39
97	229
98	89
99	299
100	59
101	35
102	35
103	819
104	44
108	17
109	109
110	44
111	21
112	79
113	21
114	35
115	999
116	359
117	30
123	67
124	129
125	119
126	39
127	19
132	29
133	69
134	39
135	69
139	39
140	24
141	429
142	79
143	29
144	12
145	979
146	69
150	12
152	17
154	26
156	12
157	58
158	62
159	12
160	59
161	159
162	59
163	159
166	53
167	35
169	169
170	26
174	30
175	17
176	26
177	69
178	17
179	62
180	19
183	479
184	99
185	26
187	49
188	14
189	62
190	21
191	53
192	26
193	21
194	129
200	10
201	21
202	26
203	67
204	30
205	76
206	14
207	10
212	30
219	14
220	78
221	52
222	74
223	44
231	37
232	21
233	33
234	17
243	30
244	5
245	21
246	5
247	21
248	8
250	3
251	3
252	1
254	8
259	5
262	10
263	85
264	17
265	78
266	8
272	24
273	1
275	3
291	9
292	2
293	6
314	2
322	1
324	0
350	0
351	11
352	2
353	12
354	1
