Mass Spectrum: Boranamine, N-(1,1-dimethylethyl)-1,1-diethyl-
Formula: C8H20BN
CAS: 50612-53-8
Molecular weight: 141
m/z	intensity
27	140
28	164
29	167
30	19
31	1
32	12
36	3
37	16
38	14
39	86
40	50
41	299
42	93
43	29
49	2
50	6
51	10
52	18
53	25
54	42
55	280
56	999
57	501
58	106
59	6
60	1
61	1
63	3
64	2
65	3
66	8
67	12
68	50
69	94
70	262
71	13
72	2
75	1
77	1
78	3
79	2
80	5
81	10
82	23
83	2
84	13
85	13
86	1
91	3
92	4
93	2
94	2
95	5
96	15
97	39
98	144
99	9
100	1
105	0
107	1
108	1
109	1
110	3
111	36
112	151
113	11
121	1
124	4
125	72
126	253
127	21
128	2
137	1
139	2
140	0
141	3
142	1
