Mass Spectrum: .alpha.-[2-Piperidyl]-2,6-di-[p-trifluoromethylphenyl]-4-pyridinemethanol
Formula: C25H22F6N2O
CAS: 50614-36-3
Molecular weight: 480
m/z	intensity
41	48
42	42
43	23
44	9
45	12
46	2
50	1
51	6
52	2
53	5
54	11
55	44
56	62
57	12
58	1
60	8
61	1
63	2
65	1
67	15
68	13
69	9
70	3
71	1
73	1
75	2
76	1
77	2
78	2
80	4
82	10
84	999
85	64
87	3
95	2
96	1
97	2
102	1
106	1
115	1
120	1
125	1
126	1
127	1
128	2
151	1
175	5
177	11
195	4
202	4
256	2
257	2
258	8
259	3
260	1
261	1
262	1
269	1
270	2
271	1
274	1
275	1
276	3
277	2
278	2
296	1
298	4
299	1
328	1
348	1
366	3
367	5
368	7
378	2
395	2
396	7
397	46
398	18
399	2
461	11
462	3
479	1
480	2
