Mass Spectrum: .beta.-L-Idopyranoside, phenylmethyl 2,4-bis(acetylamino)-2,4,6-trideoxy-, 3-acetate
Formula: C19H26N2O6
CAS: 50611-15-9
Molecular weight: 378
m/z	intensity
39	107
40	3
41	346
42	138
43	785
44	101
45	42
51	36
52	9
53	36
54	49
55	325
56	334
57	625
58	282
59	368
60	515
61	21
77	61
78	6
79	61
80	49
81	208
82	355
83	122
84	282
85	55
86	128
87	73
88	39
89	49
90	49
91	736
92	365
93	24
94	3
95	447
96	368
97	352
98	766
99	763
100	674
101	582
102	693
103	67
104	36
105	36
106	9
107	61
108	36
109	104
110	337
111	101
112	107
113	999
114	76
115	55
116	24
120	85
121	18
122	30
123	337
124	392
125	199
126	110
127	92
128	165
129	101
130	39
131	15
132	27
133	6
135	6
137	6
138	613
139	447
140	441
141	582
142	165
143	141
144	389
145	6
146	6
147	6
149	24
150	88
151	70
152	42
153	36
154	116
155	331
156	147
157	368
158	36
159	12
162	135
163	79
164	6
166	368
167	131
168	177
169	150
170	49
171	21
172	33
173	30
174	79
175	6
176	9
179	3
180	3
181	435
182	552
183	383
184	39
185	236
186	423
187	30
188	6
189	24
190	21
191	104
192	36
193	3
195	24
196	6
198	18
199	711
200	177
201	24
203	349
204	30
210	398
211	552
212	736
213	230
214	15
215	227
216	55
218	27
220	6
227	484
228	472
229	46
245	999
246	3
260	245
261	27
270	674
271	131
272	116
273	6
274	6
275	21
277	46
287	840
288	104
318	24
319	24
378	12
