Mass Spectrum: 2-[5-(2-Isobutoxyphenyl)-4H-1,2,4-triazol-3-ylthio]acetic acid
Formula: C14H17N3O3S
CAS: 50616-46-1
Molecular weight: 307
m/z	intensity
33	2
36	29
39	464
41	999
43	396
45	336
46	67
47	27
48	5
50	90
51	156
52	51
53	39
55	144
57	602
58	160
59	51
60	53
61	22
63	149
64	108
65	68
66	9
67	8
68	14
69	17
70	15
71	13
72	18
73	39
74	50
75	68
76	121
77	168
78	38
79	16
80	10
81	9
82	9
83	9
84	8
85	13
87	86
88	90
89	73
91	379
92	70
93	12
94	6
95	7
96	3
97	6
98	3
99	4
100	8
102	137
103	70
104	95
105	64
107	38
108	26
109	7
110	4
111	3
112	4
113	5
115	20
116	23
117	41
119	558
120	319
121	40
122	6
123	3
124	2
125	2
126	1
127	4
128	5
129	10
130	9
131	15
132	33
133	22
134	24
135	30
136	9
137	6
138	2
139	2
141	14
142	9
145	333
146	77
147	114
148	33
149	9
150	5
151	2
152	3
153	1
154	1
155	2
156	4
158	40
159	28
160	18
162	188
163	50
164	27
165	7
166	4
167	1
169	7
170	7
172	53
174	119
175	28
176	27
177	19
178	10
179	5
180	2
181	1
182	1
183	3
184	4
186	30
187	6
188	9
189	15
190	42
191	56
192	17
193	39
194	9
196	5
198	7
200	46
201	8
202	10
204	91
205	129
206	280
207	600
208	74
209	32
210	3
211	1
212	1
213	2
214	6
216	15
218	96
220	154
221	20
222	16
223	3
224	1
225	1
226	1
227	1
228	2
230	19
232	89
233	68
234	18
235	10
236	2
242	2
243	1
244	2
246	46
247	13
248	50
249	65
250	11
251	7
252	3
253	1
254	1
255	1
256	1
258	2
260	11
263	431
264	100
265	23
266	6
267	1
274	2
276	1
277	2
278	1
283	1
288	1
289	1
290	2
292	9
293	7
294	1
304	1
305	2
307	62
308	9
309	3
