Mass Spectrum: 2-Furanacetamide, N-methyl-
Formula: C7H9NO2
CAS: 50618-94-5
Molecular weight: 139
m/z	intensity
53	360
54	220
58	809
81	809
82	999
83	70
139	340
