Mass Spectrum: 4(equatorial)-Ethyl-1,2(axial)-dimethyl-trans-decahydroquinol-4-ol,N-oxide
Formula: C13H25NO2
CAS: 50610-00-9
Molecular weight: 227
m/z	intensity
53	23
54	8
55	47
56	64
57	181
58	170
59	12
67	52
68	14
69	67
70	34
71	43
72	45
73	23
74	999
75	29
79	39
81	68
82	15
83	20
84	6
85	5
86	24
91	12
93	41
94	11
95	48
96	19
97	21
98	7
99	38
105	5
107	65
108	7
109	20
110	11
111	25
112	11
113	16
121	21
122	5
124	10
126	12
135	13
136	19
137	4
138	9
139	28
151	4
152	5
162	6
163	175
164	24
168	8
180	15
181	21
182	34
192	8
194	13
196	41
197	5
198	18
209	118
210	22
211	8
212	5
227	37
228	5
