Mass Spectrum: 1H-Pyrrole-3-propanoic acid, 5-benzyloxycarbonyl-4-(2-methoxy-2-oxoethyl-2-methyl-, methyl ester
Formula: C20H23NO6
CAS: 50622-78-1
Molecular weight: 373
m/z	intensity
26	1
27	5
28	3
29	6
30	1
31	1
37	0
38	1
39	22
40	2
41	21
42	21
43	17
44	3
45	20
50	2
51	12
52	8
53	13
54	4
55	15
56	5
57	13
58	1
59	17
60	2
61	0
62	1
63	8
64	4
65	76
66	8
67	7
68	2
69	9
70	2
71	7
72	0
73	2
74	2
75	1
76	2
77	32
78	9
79	15
80	4
81	5
82	1
83	5
84	2
85	4
87	0
88	0
89	13
90	10
91	999
92	93
93	12
94	10
95	5
96	2
97	5
98	2
99	1
100	0
101	0
102	1
103	3
104	17
105	15
106	17
107	28
108	14
109	4
110	1
111	2
112	1
113	3
114	0
115	1
116	5
117	7
118	20
119	13
120	22
121	16
122	29
123	5
124	1
125	1
126	0
127	1
128	2
129	2
130	1
131	1
132	6
133	14
134	17
135	7
136	18
137	5
138	7
139	1
140	1
141	3
142	1
143	1
144	5
145	10
146	51
147	13
148	13
149	18
150	17
151	4
152	10
153	5
154	3
155	3
156	1
157	1
158	1
159	2
160	20
161	3
162	16
163	11
164	46
165	18
166	32
167	10
168	7
169	2
170	1
171	1
172	4
173	12
174	12
175	6
176	19
177	14
178	66
179	30
180	36
181	11
182	16
183	6
184	3
185	1
186	1
189	2
190	9
191	11
192	30
193	8
194	26
195	10
196	37
197	13
198	10
199	3
200	2
201	1
202	2
203	3
204	57
205	27
206	61
207	46
208	20
209	6
210	31
211	7
212	16
213	11
217	2
218	6
219	2
220	3
221	5
222	310
223	49
224	16
225	11
226	5
227	4
228	8
229	3
230	2
231	2
232	5
233	2
234	4
235	5
236	99
237	45
238	78
239	35
240	38
241	8
242	35
243	9
244	2
247	3
248	2
249	3
250	367
251	55
252	11
253	3
254	21
255	7
256	32
257	6
258	2
259	0
262	3
263	2
264	18
265	10
266	6
267	6
268	26
269	12
270	152
271	28
272	16
282	673
283	102
284	16
295	7
296	9
297	9
298	4
300	236
301	48
302	6
303	0
309	0
310	0
311	1
312	10
313	37
314	36
315	7
316	1
321	0
322	5
323	2
324	0
325	1
326	5
327	17
328	13
329	11
330	3
331	0
339	0
340	1
341	25
342	30
343	6
344	1
354	1
355	1
358	2
372	5
373	683
374	162
375	28
376	3
