Mass Spectrum: 2,4-Diamino-6-heptadecylpteridine-8-oxide
Formula: C23H40N6O
CAS: 50627-29-7
Molecular weight: 416
m/z	intensity
41	451
43	999
44	56
45	16
47	15
49	8
51	4
53	60
54	31
55	159
57	175
58	10
60	14
65	17
66	30
67	60
68	48
69	61
70	19
71	24
73	4
77	20
79	32
80	33
81	18
82	13
83	15
84	4
86	4
91	22
93	15
94	11
95	14
96	8
97	8
98	4
102	7
104	4
105	9
106	49
107	27
108	16
109	5
110	4
111	3
118	10
119	4
120	10
121	26
122	14
123	5
124	4
131	4
133	88
134	50
135	15
136	3
139	3
145	3
146	10
147	12
148	26
149	11
150	11
151	4
158	12
159	21
160	12
161	5
162	11
163	34
164	17
172	20
173	4
175	252
176	518
177	90
178	20
184	3
186	9
187	11
188	6
189	540
190	97
191	19
192	53
193	5
200	5
201	20
202	12
203	75
204	18
205	42
206	3
213	3
215	19
216	7
217	53
218	16
219	11
221	19
229	8
230	8
231	52
232	13
233	3
245	59
246	22
249	4
257	4
259	44
260	10
271	8
273	46
274	12
275	4
284	26
285	8
286	10
287	63
288	20
289	25
298	43
299	14
300	16
301	61
302	22
303	49
304	7
315	55
316	12
317	68
318	13
329	53
330	15
331	63
332	12
343	47
344	13
345	63
346	11
357	33
358	9
359	54
360	12
369	3
371	169
372	108
373	52
374	8
385	14
386	3
387	27
388	17
389	10
397	4
399	187
400	147
401	40
415	14
416	18
417	8
