Mass Spectrum: Phenacylidene diacetate
Formula: C12H12O5
CAS: 5062-30-6
Molecular weight: 236
m/z	intensity
26	2
27	9
28	6
29	11
37	7
38	10
39	9
47	6
49	6
50	63
51	176
52	10
53	2
61	4
62	5
63	5
73	6
74	24
75	13
76	19
77	663
78	48
79	5
85	1
86	1
89	2
102	1
104	3
105	999
106	103
107	8
134	2
135	3
155	1
