Mass Spectrum: Androst-5-en-3-one, 4,4-dimethyl-
Formula: C21H32O
CAS: 5062-43-1
Molecular weight: 300
m/z	intensity
41	750
42	80
43	340
44	50
51	40
52	30
53	200
54	40
55	510
56	40
57	50
58	10
59	10
63	10
64	10
65	100
66	40
67	360
68	50
69	140
70	20
71	30
77	220
78	50
79	310
80	70
81	310
82	40
83	70
84	10
85	30
91	340
92	60
93	300
94	70
95	400
96	40
97	30
98	10
99	10
100	20
102	10
103	30
104	30
105	350
106	50
107	270
108	70
109	200
110	30
111	20
115	60
116	30
117	80
118	40
119	190
120	60
121	220
122	70
123	130
124	999
125	140
127	20
128	50
129	60
130	30
131	90
132	40
133	150
134	50
135	300
136	140
137	130
138	100
139	20
141	20
142	20
143	50
144	20
145	90
146	30
147	140
148	60
149	230
150	110
151	100
152	200
153	30
154	10
155	10
156	10
157	30
158	10
159	50
160	20
161	100
162	40
163	200
164	100
165	40
166	20
169	10
171	30
172	10
173	50
174	20
175	170
176	40
177	90
178	20
185	30
186	10
187	40
188	30
189	90
190	40
191	30
198	10
199	40
200	20
201	70
202	20
203	20
204	20
207	10
213	20
214	40
215	50
216	20
229	20
230	10
239	30
241	10
243	30
244	40
245	30
257	170
258	30
267	20
268	10
271	20
272	30
282	10
285	110
286	20
299	10
300	290
301	60
302	10
