Mass Spectrum: (+)-2,3-O-Isopropylidene-L-threitol
Formula: C7H14O4
CAS: 50622-09-8
Molecular weight: 162
m/z	intensity
14	3
15	49
17	1
18	3
19	9
26	5
27	54
28	20
29	42
30	4
31	209
32	6
38	1
39	37
40	8
41	180
42	38
43	658
44	31
45	91
46	2
47	2
53	1
55	14
56	7
57	37
58	20
59	999
60	38
61	108
62	2
69	204
70	9
71	7
72	1
73	38
74	5
75	2
83	9
85	17
86	4
87	105
88	5
89	1
95	1
99	1
100	1
101	5
102	3
103	3
104	1
105	38
106	1
113	17
114	2
115	5
116	1
129	2
131	239
132	15
133	2
144	3
145	1
147	399
148	28
149	4
163	10
164	1
