Mass Spectrum: 22,23-Dibromostigmasterol acetate
Formula: C31H50Br2O2
CAS: 50633-49-3
Molecular weight: 612
m/z	intensity
41	307
43	999
45	3
47	1
49	6
51	3
53	62
55	621
57	215
58	4
59	2
61	7
65	23
67	333
69	443
71	106
72	1
73	0
77	74
79	281
81	622
83	383
85	163
86	8
87	0
89	0
91	287
93	391
95	389
97	200
98	12
99	8
100	0
103	15
105	356
107	414
108	48
109	228
111	69
112	4
113	5
115	20
116	2
117	117
119	249
120	143
121	271
122	57
123	77
125	27
127	18
128	18
129	57
131	181
133	330
135	166
137	92
138	4
139	49
141	31
143	138
145	313
147	479
148	69
149	56
151	16
152	0
153	5
155	21
157	99
158	51
159	173
160	68
161	128
162	24
163	26
164	3
165	11
167	5
169	19
171	39
173	79
175	70
177	16
178	1
179	4
181	4
183	19
185	35
186	6
187	42
189	25
191	8
192	0
193	2
195	4
197	20
199	38
201	48
202	6
203	7
204	0
205	3
207	0
209	3
211	22
213	84
214	17
215	21
217	8
219	6
221	2
223	3
225	18
227	27
228	28
229	15
230	1
231	3
233	2
235	0
237	4
239	15
240	3
241	12
242	0
243	7
244	0
245	2
247	0
251	4
253	34
255	93
256	12
257	3
259	1
265	2
267	13
268	0
269	10
271	23
272	4
273	2
279	2
281	9
282	13
283	14
285	17
286	3
287	1
291	0
293	3
295	7
296	2
297	2
299	2
301	0
307	1
309	7
310	0
311	3
313	3
314	0
319	0
321	2
323	1
325	0
333	0
335	1
337	0
349	2
351	11
352	0
353	7
354	0
363	0
365	3
367	2
373	0
375	1
377	5
378	1
379	2
388	1
389	1
390	2
391	2
392	7
393	18
394	24
395	7
396	0
429	0
430	1
431	2
432	3
433	3
434	1
435	1
444	8
446	17
447	3
448	7
449	1
452	0
453	0
457	1
458	0
459	1
460	0
462	0
472	0
473	4
474	2
475	4
476	1
510	1
512	2
513	0
514	1
537	3
539	8
540	2
541	3
542	1
552	66
554	145
555	44
556	66
557	21
558	3
570	0
