Mass Spectrum: 2,4(3H,5H)-Furandione, 5,5-dimethyl-
Formula: C6H8O3
CAS: 50630-62-1
Molecular weight: 128
m/z	intensity
39	70
41	80
42	700
43	999
44	70
56	60
58	90
59	120
60	10
69	30
72	140
73	10
100	490
101	40
113	50
128	90
