Mass Spectrum: 6-(4-Bromophenyl)-2H-pyridazin-3-one
Formula: C10H7BrN2O
CAS: 50636-57-2
Molecular weight: 250
m/z	intensity
37	213
38	319
39	255
40	139
41	163
42	40
43	97
44	50
49	78
50	541
51	310
52	117
53	26
55	52
57	189
61	161
62	417
63	586
64	99
65	42
71	61
73	60
74	306
75	322
76	112
77	5
79	20
81	19
86	202
87	387
88	366
89	136
90	21
101	59
102	52
113	362
114	664
115	999
116	144
117	9
142	7
143	60
144	6
171	138
172	14
173	1
180	69
181	8
182	65
183	7
193	385
194	39
195	384
196	36
197	2
222	30
224	30
250	530
251	58
252	527
253	54
254	3
