Mass Spectrum: L-Threonine, N-[(2,4-dichlorophenoxy)acetyl]-
Formula: C12H13Cl2NO5
CAS: 50648-99-2
Molecular weight: 321
m/z	intensity
41	220
42	440
43	999
44	570
58	710
63	260
69	190
70	240
73	100
74	160
75	110
88	60
97	100
98	260
99	70
100	70
109	100
111	110
116	90
133	70
134	10
135	50
145	120
146	20
147	100
161	70
162	420
163	70
164	290
175	140
176	30
177	90
220	40
221	10
222	40
224	70
226	20
242	150
243	30
244	50
259	40
261	30
268	160
269	30
270	60
277	40
279	30
286	20
321	10
