Mass Spectrum: L-Histidine, N-[(2,4-dichlorophenoxy)acetyl]-
Formula: C14H13Cl2N3O4
CAS: 50649-03-1
Molecular weight: 357
m/z	intensity
41	60
42	70
43	999
44	60
45	140
58	400
59	170
63	110
64	70
73	60
74	80
98	70
99	30
100	30
109	50
111	60
133	70
134	10
135	50
145	70
146	10
147	50
161	100
162	360
163	90
164	250
175	100
176	10
177	70
184	170
185	40
186	60
220	170
221	20
222	110
282	20
284	10
357	10
