Mass Spectrum: 3-Hexenoic acid, 3-methyl-, methyl ester
Formula: C8H14O2
CAS: 50652-84-1
Molecular weight: 142
m/z	intensity
30	10
31	30
32	20
33	10
37	10
38	20
39	350
40	90
41	780
42	90
43	250
44	40
45	40
50	20
51	40
52	30
53	150
54	60
55	920
56	70
57	20
58	10
59	380
60	10
61	10
62	10
63	10
65	40
66	20
67	400
68	180
69	720
70	40
71	40
72	20
73	20
74	500
75	30
77	20
79	30
81	100
82	999
83	610
84	40
85	340
86	30
87	20
88	10
95	100
96	10
97	10
99	30
100	10
101	30
109	20
110	150
111	180
112	20
113	30
114	20
125	10
127	90
128	10
141	20
142	440
143	40
