Mass Spectrum: 3-(2-Methylciclohexylideneaminopropyl)dibutylborane
Formula: C18H36BN
CAS: 50655-61-3
Molecular weight: 277
m/z	intensity
29	149
39	129
41	379
42	339
43	79
53	119
54	189
55	209
56	99
66	119
67	149
68	139
69	249
70	999
80	89
81	89
82	99
95	99
96	109
108	69
122	139
125	69
126	279
134	69
162	209
163	249
164	959
165	119
219	159
220	799
221	129
