Mass Spectrum: Piroctone
Formula: C14H23NO2
CAS: 50650-76-5
Molecular weight: 237
m/z	intensity
26	17
27	87
28	49
29	82
30	999
31	77
39	50
40	42
41	149
42	114
43	106
44	23
45	14
51	12
52	19
53	62
55	56
56	11
57	104
60	16
61	103
65	17
67	24
69	13
77	15
79	13
83	24
93	14
94	35
95	22
107	11
122	134
123	199
124	21
139	590
140	56
148	15
150	22
162	18
164	41
166	29
180	251
181	32
206	15
220	14
221	14
222	100
223	13
237	79
238	12
