Mass Spectrum: .alpha.-Toluenephosphonic acid, .alpha.-hydroxy-m-nitro-, diethyl ester
Formula: C11H16NO6P
CAS: 50652-91-0
Molecular weight: 289
m/z	intensity
29	321
39	81
43	117
45	289
47	149
50	297
51	572
63	76
65	836
66	276
74	160
75	162
76	270
77	727
82	164
83	999
92	147
93	322
94	150
95	122
104	151
105	488
106	49
109	141
110	129
111	978
121	42
123	72
137	26
149	34
150	756
151	926
152	111
153	14
