Mass Spectrum: 3-Pentenoic acid, 3-ethyl-, methyl ester
Formula: C8H14O2
CAS: 50652-85-2
Molecular weight: 142
m/z	intensity
30	20
31	20
38	20
39	190
40	40
41	460
42	40
43	130
44	20
45	20
50	20
51	50
52	20
53	150
54	70
55	800
56	50
57	20
59	210
60	10
61	10
63	10
65	20
66	10
67	360
68	60
69	170
70	20
71	40
72	10
74	190
75	20
77	20
79	20
80	10
81	110
82	999
83	390
84	30
85	140
86	10
87	10
95	30
99	40
100	30
109	20
110	320
111	210
112	20
113	50
114	10
127	30
141	10
142	500
143	40
