Mass Spectrum: 5,6-Azulenedicarboxaldehyde, 1,2,3,3a,8,8a-hexahydro-2,2,8-trimethyl-, (3a.alpha.,8.alpha.,8a.alpha.)-(-)-
Formula: C15H20O2
CAS: 50656-61-6
Molecular weight: 232
m/z	intensity
39	602
40	95
41	999
42	75
43	280
44	88
50	60
51	273
52	112
53	370
54	48
55	525
56	107
57	89
63	124
64	44
65	273
66	75
67	177
69	189
77	558
78	179
79	379
80	86
81	217
83	69
89	60
90	60
91	688
92	112
93	179
94	72
95	227
96	48
97	48
102	42
103	136
104	66
105	509
106	83
107	174
108	83
109	118
115	215
116	75
117	166
118	50
119	344
120	133
121	144
122	100
123	100
127	34
128	124
129	124
130	59
131	148
132	45
133	300
134	91
135	103
136	72
145	118
146	44
147	221
148	166
149	83
157	44
158	41
159	91
160	45
161	150
162	45
163	72
171	103
173	72
175	226
176	109
186	30
187	48
189	200
199	56
203	112
204	270
205	42
217	136
232	528
233	98
