Mass Spectrum: (+)-Prostaglandin F2.alpha., 4TMS derivative
Formula: C32H66O5Si4
CAS: 50669-95-9
Molecular weight: 642
m/z	intensity
41	50
42	13
43	65
44	27
45	39
46	3
47	17
48	2
49	4
50	8
51	6
52	6
53	10
54	9
55	63
56	12
57	21
58	7
59	31
60	6
61	15
62	2
63	3
64	1
65	6
66	7
67	69
68	12
69	38
70	7
71	21
72	13
73	999
74	92
75	250
76	19
77	24
78	13
79	38
80	16
81	63
82	10
83	17
84	4
85	8
86	4
87	5
88	1
89	7
90	2
91	44
92	11
93	30
94	8
95	19
96	8
97	8
98	5
99	14
100	3
101	20
102	4
103	62
104	12
105	34
106	13
107	13
108	5
109	17
110	5
111	7
112	3
113	6
114	2
115	13
116	16
117	54
118	13
119	19
120	6
121	10
122	3
123	7
124	3
125	4
126	2
127	7
128	7
129	122
130	33
131	41
132	17
133	42
134	8
135	40
136	8
137	8
138	2
139	5
140	2
141	8
142	13
143	32
144	12
145	25
146	7
147	192
148	32
149	35
150	6
151	12
152	3
153	6
154	8
155	28
156	10
157	17
158	8
159	13
160	5
161	11
162	4
163	4
164	2
165	7
166	4
167	27
168	16
169	20
170	6
171	13
172	4
173	79
174	13
175	13
176	4
177	5
178	2
179	12
180	7
181	19
182	8
183	16
184	6
185	16
186	9
187	17
188	6
189	5
190	4
191	170
192	34
193	28
194	9
195	9
196	4
197	23
198	8
199	38
200	9
201	8
202	4
203	9
204	11
205	12
206	7
209	13
210	4
211	14
212	7
213	9
214	5
215	7
216	3
217	74
218	27
219	20
220	9
221	33
222	10
223	10
224	4
225	17
226	6
227	6
228	4
229	5
230	3
231	4
232	2
233	8
234	4
235	6
236	3
237	37
238	17
239	11
240	7
241	7
242	5
243	19
244	6
245	4
246	2
247	4
248	2
249	7
250	5
251	6
252	3
253	6
254	4
255	13
256	19
257	21
258	6
259	8
260	2
261	7
262	4
263	19
264	10
265	8
266	3
267	8
268	3
269	6
270	3
271	4
272	3
273	4
274	4
275	14
276	10
277	10
278	5
279	4
280	2
283	12
284	4
285	3
286	5
287	7
288	4
289	5
290	3
291	3
292	2
293	2
294	1
295	10
296	5
297	4
298	1
299	2
300	2
301	16
302	6
303	6
304	3
305	2
306	1
307	2
308	1
309	2
310	2
311	2
312	2
313	19
314	7
315	4
316	2
317	4
318	2
319	2
320	1
321	1
323	2
324	1
325	3
326	4
327	13
328	4
329	3
330	5
331	3
332	2
333	2
334	1
335	1
336	2
337	4
338	3
339	6
340	5
341	9
342	3
343	3
344	3
345	3
346	10
347	5
348	2
349	2
350	1
351	7
352	7
353	33
354	12
355	21
356	8
357	6
358	2
359	2
361	1
362	2
363	2
364	5
365	37
366	29
367	13
368	6
369	6
370	3
371	4
372	21
373	12
374	5
375	2
377	1
378	1
379	5
380	3
381	2
382	1
383	1
387	1
389	2
390	2
391	35
392	12
393	7
394	2
395	1
397	1
399	1
400	1
401	3
402	1
403	2
404	1
405	2
406	3
407	2
408	2
409	1
410	1
411	1
415	3
416	2
417	2
419	1
421	5
422	2
423	2
424	1
425	2
426	3
427	2
428	2
429	12
430	5
431	4
432	2
433	1
435	2
436	10
437	6
438	4
439	3
440	2
441	4
442	2
443	10
444	4
445	2
447	7
448	3
449	3
450	1
451	4
452	3
453	3
454	3
455	6
456	3
457	2
458	1
461	3
462	25
463	13
464	6
465	4
466	2
467	2
468	1
469	3
470	2
471	1
475	1
479	1
480	1
481	22
482	13
483	9
484	3
485	1
489	1
503	5
504	3
505	3
509	1
511	6
512	3
513	2
515	3
516	2
517	1
525	1
526	1
527	2
528	1
529	4
530	2
531	1
535	1
537	9
538	4
539	3
540	1
541	1
542	1
543	1
544	2
551	1
552	21
553	11
554	6
555	3
556	1
571	7
572	4
573	3
574	1
577	1
603	2
604	1
605	1
627	6
628	4
629	2
630	1
642	3
643	2
644	1
