Mass Spectrum: Pregn-5-en-20-one, 3-(acetyloxy)-16-chloro-, (3.beta.,16.alpha.)-
Formula: C23H33ClO3
CAS: 50678-52-9
Molecular weight: 392
m/z	intensity
41	76
43	999
44	28
45	11
47	15
48	9
49	73
50	5
51	27
52	3
53	31
54	6
55	81
56	5
57	13
60	0
61	6
63	1
65	26
66	9
67	84
68	9
69	30
70	3
71	13
75	3
77	86
78	25
79	143
80	25
81	104
82	10
83	16
84	68
85	13
86	34
87	0
88	6
89	6
91	225
92	52
93	201
94	38
95	50
96	6
97	8
98	1
99	2
102	2
103	21
104	22
105	193
106	83
107	239
108	84
109	33
110	3
111	5
112	1
113	3
114	1
115	32
116	16
117	70
118	32
119	95
120	62
121	253
122	32
123	13
124	3
125	3
127	12
128	28
129	49
130	22
131	91
132	26
133	90
134	17
135	22
136	6
137	11
139	3
141	28
142	19
143	70
144	27
145	155
146	46
147	73
148	35
149	17
150	3
151	3
152	3
153	8
154	6
155	21
156	12
157	50
158	33
159	84
160	43
161	59
162	12
163	10
164	2
165	7
166	4
167	11
168	6
169	22
170	9
171	33
172	12
173	29
174	9
175	16
176	4
177	4
178	3
179	6
180	4
181	22
182	7
183	50
184	12
185	19
186	7
187	12
188	5
189	17
190	5
191	9
192	1
193	6
194	3
195	12
196	6
197	40
198	14
199	20
200	5
201	10
202	4
203	8
204	1
205	5
207	11
208	3
209	8
210	4
211	26
212	21
213	106
214	28
215	9
216	0
219	6
221	6
223	15
224	6
225	63
226	15
227	8
228	4
229	3
231	0
233	4
235	4
236	0
237	10
238	12
239	45
240	9
241	4
243	4
247	2
248	6
249	5
250	3
251	5
252	8
253	76
254	29
255	9
256	0
261	3
263	11
264	4
267	6
268	1
273	4
275	10
276	3
277	6
278	7
279	8
280	4
281	31
282	6
287	1
289	21
290	9
291	10
292	4
295	2
296	27
297	41
298	12
299	6
303	4
304	3
305	0
314	3
315	0
317	132
318	30
319	43
320	9
330	1
332	876
333	210
334	312
335	72
336	9
349	1
392	0
