Mass Spectrum: Orotohydroxamic acid
Formula: C5H5N3O4
CAS: 5067-46-9
Molecular weight: 171
m/z	intensity
41	107
43	165
44	268
45	29
46	0
47	0
49	1
50	1
51	13
53	90
54	26
55	18
56	9
57	7
58	1
60	8
62	0
63	1
65	3
68	999
69	110
70	75
71	8
72	2
77	1
78	1
79	0
81	7
82	4
83	1
84	13
85	1
86	5
91	0
94	3
96	5
97	1
98	11
100	29
110	4
111	22
112	6
113	11
114	0
120	1
125	1
127	13
128	114
129	4
136	1
137	1
139	64
140	1
143	18
153	3
155	23
156	50
157	7
166	1
167	0
169	3
171	169
172	21
173	2
