Mass Spectrum: Cholesta-9(11),20(22)-diene-3,23-dione, 6-hydroxy-, (5.alpha.,6.alpha.)-
Formula: C27H40O3
CAS: 50676-99-8
Molecular weight: 412
m/z	intensity
41	420
42	40
43	560
44	40
53	70
54	30
55	400
56	90
57	790
58	60
59	20
60	70
67	180
68	50
69	310
70	70
71	999
72	60
73	90
77	90
78	20
79	120
80	40
81	230
82	60
83	180
84	40
85	760
86	50
91	200
92	30
93	190
94	40
95	300
96	40
97	140
98	60
99	350
100	30
103	20
104	20
105	200
106	50
107	120
108	30
109	120
110	40
111	170
112	30
113	20
115	60
116	30
117	70
118	30
119	120
120	40
121	150
122	40
123	70
124	30
125	50
126	20
127	260
128	50
129	100
130	50
131	150
132	40
133	70
134	30
135	80
136	20
137	50
138	20
139	30
140	60
141	150
142	40
143	170
144	50
145	130
146	30
147	60
148	20
149	60
151	50
152	20
153	50
154	30
155	60
156	30
157	100
158	30
159	70
160	20
161	40
163	10
164	20
165	30
166	20
167	50
168	20
169	90
170	30
171	100
172	20
173	60
174	20
181	30
182	20
183	60
184	20
185	80
186	20
187	40
195	40
196	10
197	40
198	20
199	40
200	10
201	30
209	50
210	20
211	40
212	20
213	40
214	10
215	20
225	140
226	40
227	80
228	30
229	40
239	50
240	30
241	70
242	30
243	50
244	20
245	30
251	30
252	20
253	40
254	20
255	30
256	20
257	30
265	20
266	30
267	410
268	160
269	70
283	570
284	150
285	810
286	280
287	50
309	60
310	50
311	30
312	60
313	50
327	90
328	70
329	30
337	70
338	30
355	300
356	100
379	20
394	40
395	20
411	10
412	100
413	30
