Mass Spectrum: Acetic acid, 11a-acetoxymethyl-1-acetyl-3a-hydroxy-2-hydroxymethyl-9a-methyl-hexadecahydro-phenanthro[1,2-b]furan-7-yl ester
Formula: C25H38O8
CAS: 50676-62-5
Molecular weight: 466
m/z	intensity
27	5
28	6
29	18
30	2
36	3
39	8
41	132
43	999
44	29
45	18
51	3
52	4
53	28
54	14
55	155
56	20
57	34
58	5
59	8
60	13
61	4
65	17
66	6
67	247
68	24
69	45
70	15
71	22
72	2
73	19
75	2
77	74
78	20
79	235
80	26
81	243
82	24
83	168
84	12
85	34
86	4
91	170
92	35
93	257
94	41
95	245
96	37
97	39
98	10
99	50
100	49
101	34
103	10
104	7
105	155
106	33
107	163
108	38
109	199
110	23
111	31
112	6
113	4
114	3
115	17
116	15
117	50
118	14
119	78
120	43
121	563
122	184
123	71
124	31
125	19
126	3
127	8
128	11
129	24
130	15
131	75
132	16
133	81
134	23
135	83
136	17
137	37
138	21
139	119
140	12
141	108
142	22
143	53
144	12
145	101
146	24
147	208
148	48
149	90
150	11
151	21
152	8
153	14
154	6
155	17
156	9
157	41
158	12
159	89
160	21
161	111
162	24
163	37
164	8
165	14
168	10
169	17
170	8
171	31
172	8
173	54
174	8
175	55
176	12
177	27
178	7
179	12
180	18
181	487
182	60
183	28
184	14
185	34
186	14
187	37
188	9
189	26
190	10
191	41
192	9
193	14
194	4
195	8
196	3
197	20
198	10
199	25
200	8
201	34
202	11
203	18
204	5
205	17
206	5
207	14
208	6
209	11
210	8
211	18
212	6
213	17
214	5
215	15
216	5
217	12
218	9
219	54
220	9
221	17
222	5
223	13
224	3
225	12
226	6
227	14
228	21
229	27
230	20
231	9
239	76
240	19
241	8
243	16
244	4
246	5
248	5
250	6
251	14
252	5
253	5
255	23
256	5
257	75
258	21
259	6
261	3
262	6
263	32
264	10
265	9
267	31
268	6
269	13
270	5
271	11
272	4
273	5
274	4
275	7
279	64
280	13
281	97
282	16
283	9
284	5
285	63
286	15
288	7
289	9
290	19
291	9
292	7
293	7
294	10
295	6
299	5
300	4
301	3
302	4
303	23
304	7
305	12
306	11
307	5
315	55
316	18
317	43
318	8
326	9
328	19
331	20
333	10
334	10
341	5
343	10
344	13
345	400
346	104
347	21
348	14
349	26
357	8
358	9
360	5
361	6
370	30
371	9
373	20
374	6
375	60
376	10
377	6
387	14
388	209
389	554
390	104
391	31
392	27
405	186
406	43
407	9
430	10
431	4
432	5
433	11
434	4
448	147
449	41
450	5
