Mass Spectrum: Ethane, 1-(3,4-dihydro-1H-benzo[c]pyran-1-yl)methylamino-2-(1-pyrrolidinyl)-
Formula: C16H24N2O
CAS: 50683-81-3
Molecular weight: 260
m/z	intensity
33	3
39	24
40	13
41	54
42	167
43	48
44	27
45	2
46	0
50	7
51	17
52	5
53	9
54	18
55	88
56	53
57	23
58	116
59	4
60	0
61	0
62	2
63	8
65	13
67	6
68	10
69	20
70	89
71	10
72	3
73	1
74	4
75	3
77	64
78	15
79	38
80	6
82	25
84	999
85	112
86	8
88	2
89	7
90	5
91	27
92	2
93	1
94	2
96	17
97	11
98	31
99	4
100	2
101	1
102	8
103	31
104	13
105	40
106	4
107	0
108	0
109	0
110	0
111	2
112	3
113	4
114	18
115	34
116	11
117	17
118	4
119	13
120	1
121	1
122	1
123	1
125	25
127	320
128	31
129	16
130	8
131	14
133	106
134	9
136	2
137	0
138	0
139	0
141	4
142	1
143	6
144	2
145	3
146	7
147	5
148	1
149	0
150	0
151	0
152	0
153	0
154	0
155	0
156	2
157	2
158	11
159	1
160	1
161	0
162	0
163	0
164	0
165	0
166	0
169	0
170	0
171	2
172	0
173	0
174	1
176	38
177	3
178	0
179	0
182	0
186	0
188	0
190	2
191	0
205	1
206	0
219	0
221	0
222	0
242	0
257	0
260	7
261	1
268	0
