Mass Spectrum: Silacyclopent-3-ene, 1-methyl-1-phenyl-
Formula: C11H14Si
CAS: 50694-31-0
Molecular weight: 174
m/z	intensity
26	7
27	35
28	5
29	18
30	1
31	2
37	1
38	3
39	40
40	15
41	15
42	15
43	181
44	15
45	29
46	1
47	0
49	0
50	13
51	33
52	7
53	209
54	30
55	57
56	6
57	4
58	1
59	17
60	1
61	1
62	2
63	7
64	1
65	14
66	23
67	46
68	19
69	35
70	23
71	15
72	8
73	39
74	10
75	2
76	2
77	26
78	17
79	104
80	20
81	72
82	9
83	29
84	3
85	0
86	2
87	3
88	0
89	4
90	3
91	33
92	10
93	53
94	8
95	56
96	654
97	85
98	23
99	2
101	4
102	3
103	35
104	16
105	999
106	115
107	61
108	8
109	1
110	0
111	0
112	0
113	0
114	0
115	11
116	5
117	18
118	6
119	52
120	434
121	146
122	26
123	4
124	0
126	0
127	3
128	24
129	43
130	15
131	111
132	22
133	47
134	11
135	4
136	0
141	1
142	1
143	10
144	3
145	65
146	123
147	35
148	17
149	2
153	0
154	0
155	3
156	1
157	29
158	12
159	847
160	126
161	33
162	3
167	0
169	0
170	0
171	2
172	3
173	13
174	768
175	119
176	32
177	3
