Mass Spectrum: 1,1,1,3,5,7,9,11,11,11-Decamethyl-5-(trimethylsiloxy)hexasiloxane
Formula: C13H42O6Si7
CAS: 50694-26-3
Molecular weight: 490
m/z	intensity
45	60
59	80
73	999
74	90
75	60
133	80
147	230
148	60
207	120
221	80
267	80
281	80
325	90
327	90
341	230
342	90
343	60
355	60
475	110
476	60
