Mass Spectrum: D-Gluco-Octitol, 3,7-anhydro-1,4-dideoxy-2-C-methyl-, 5,6,8-triacetate 2-(3,5-dinitrobenzoate)
Formula: C22H26N2O13
CAS: 50692-73-4
Molecular weight: 526
m/z	intensity
43	999
67	24
68	32
69	86
70	45
71	115
72	15
73	24
74	18
75	203
76	15
77	11
79	15
80	13
81	66
82	11
83	66
84	15
85	49
86	11
87	18
93	18
94	15
95	294
96	45
97	60
98	13
99	28
100	11
101	26
102	88
107	11
108	13
109	283
110	232
111	830
113	7
114	11
115	117
116	34
119	13
120	15
121	98
122	13
123	30
124	30
125	9
126	37
127	13
134	103
135	275
136	75
139	103
140	26
141	3
142	3
150	192
151	164
152	764
153	520
154	39
155	15
179	62
180	11
181	34
182	9
194	424
195	405
196	35
211	11
212	90
213	237
214	22
254	233
255	43
364	358
365	67
366	15
406	101
407	26
453	22
466	13
467	28
496	54
497	13
