Mass Spectrum: Tazettine
Formula: C18H21NO5
CAS: 507-79-9
Molecular weight: 331
m/z	intensity
27	151
28	167
29	235
30	88
31	104
32	17
33	16
37	3
39	157
40	28
41	187
42	999
43	247
44	704
45	465
46	13
47	2
50	48
51	109
52	33
53	67
54	30
55	108
56	59
57	56
58	49
59	13
60	9
61	11
62	24
63	84
64	31
65	61
66	17
67	18
68	18
70	411
71	270
72	30
73	6
74	26
75	47
76	63
77	115
78	36
79	24
80	8
81	14
82	31
83	17
84	25
85	15
86	13
87	20
88	24
89	59
90	31
91	47
92	18
93	11
94	32
95	30
96	38
97	19
98	15
99	10
100	14
101	30
102	61
103	57
104	18
105	21
106	12
107	7
108	13
109	5
110	7
111	6
112	21
113	28
114	40
115	253
116	47
117	31
118	12
119	10
120	15
121	17
122	5
123	3
124	4
125	6
126	35
127	86
128	102
129	52
130	29
131	27
132	12
133	8
134	6
135	32
136	9
137	4
139	65
140	36
141	114
142	30
143	50
144	21
145	13
146	9
147	12
148	12
149	13
150	10
151	28
152	101
153	108
154	33
155	32
156	18
157	23
158	11
159	51
160	18
161	9
162	5
163	6
164	3
165	7
166	6
167	15
168	26
169	53
170	18
171	41
172	31
173	95
174	17
175	15
176	17
177	4
178	2
179	7
180	13
181	88
182	22
183	32
184	14
185	56
186	20
187	31
188	15
189	8
190	3
191	2
192	1
193	2
194	2
195	2
197	69
198	17
199	71
200	23
201	88
202	32
203	14
204	17
205	3
206	1
207	0
209	12
210	13
211	52
212	23
213	14
214	9
215	22
216	15
217	10
218	4
219	1
222	1
223	2
224	4
225	9
226	10
227	51
228	20
229	33
230	47
231	12
232	3
233	3
234	0
237	1
238	7
239	9
240	19
241	15
242	12
243	7
244	2
245	1
247	339
248	51
249	6
250	1
251	0
252	2
253	1
254	7
255	20
256	9
257	3
258	2
259	2
260	18
261	3
262	0
267	0
268	1
269	2
270	10
271	3
272	2
273	1
274	0
280	1
281	0
282	1
283	0
284	0
285	0
286	0
287	0
288	0
298	56
299	11
300	5
301	1
312	0
313	1
314	2
316	30
317	6
318	1
331	66
332	16
333	2
