Mass Spectrum: Azafrin
Formula: C27H38O4
CAS: 507-61-9
Molecular weight: 426
m/z	intensity
12	4
13	2
14	4
15	16
16	8
17	31
18	161
19	1
20	1
22	2
24	2
25	4
26	16
27	41
28	68
29	59
30	4
31	9
32	2
36	3
37	5
38	8
39	62
40	15
41	250
42	22
43	645
44	166
45	27
46	3
47	2
48	1
49	4
50	18
51	25
52	13
53	63
54	11
55	219
56	24
57	45
58	30
59	20
60	7
61	7
62	6
63	18
64	9
65	54
66	16
67	102
68	17
69	424
70	35
71	161
72	14
73	11
74	18
75	6
76	7
77	132
78	37
79	151
80	55
81	190
82	30
83	60
84	17
85	54
86	18
87	10
88	5
89	17
90	13
91	347
92	122
93	229
94	48
95	163
96	29
97	51
98	30
99	25
100	14
101	8
102	11
103	37
104	24
105	327
106	78
107	191
108	53
109	999
110	97
111	88
112	16
113	25
114	9
115	88
116	44
117	97
118	37
119	244
120	102
121	166
122	41
123	137
124	23
125	51
126	21
127	552
128	142
129	127
130	63
131	151
132	70
133	181
134	42
135	112
136	36
137	58
138	17
139	33
140	17
141	74
142	83
143	185
144	103
145	351
146	117
147	137
148	34
149	107
150	23
151	28
152	34
153	46
154	31
155	268
156	103
157	248
158	88
159	200
160	45
161	107
162	28
163	55
164	34
165	107
166	35
167	42
168	28
169	98
170	48
171	141
172	53
173	93
174	61
175	59
176	27
177	67
178	38
179	48
180	27
181	48
182	32
183	88
184	36
185	69
186	30
187	51
188	20
189	48
190	23
191	90
192	66
193	44
194	25
195	67
196	33
197	112
198	38
199	85
200	37
201	40
202	31
203	51
204	31
205	112
206	28
207	28
208	43
209	62
210	44
211	93
212	37
213	36
214	19
215	37
216	24
217	43
218	36
219	22
220	13
221	98
222	25
223	57
224	21
225	56
226	20
227	30
228	13
229	25
230	12
231	26
232	13
233	13
234	12
235	48
236	20
237	30
238	25
239	29
240	14
241	26
242	13
243	33
244	34
245	19
246	9
247	17
248	11
249	14
250	9
251	18
252	11
253	59
254	25
255	33
256	44
257	34
258	15
259	14
260	8
261	11
262	9
263	15
264	9
265	11
266	9
267	13
268	12
269	15
270	21
271	75
272	26
273	23
274	9
275	12
276	6
277	10
278	6
279	11
280	6
281	28
282	10
283	31
284	25
285	15
286	9
287	9
288	11
289	31
290	15
291	7
292	4
293	8
294	5
295	9
296	10
297	11
298	7
299	36
300	14
301	20
302	11
303	8
304	4
305	5
306	3
307	5
308	4
309	13
310	6
311	5
312	5
313	16
314	11
315	13
316	16
317	7
318	3
319	5
320	4
321	6
322	4
323	6
324	5
325	4
326	3
327	12
328	59
329	22
330	9
331	5
332	4
333	5
334	10
335	6
336	6
337	5
338	4
339	6
340	5
341	5
342	5
343	3
344	4
345	4
346	8
347	8
348	7
349	11
350	5
351	4
352	3
353	4
354	3
355	3
356	2
357	3
358	2
359	3
360	4
361	4
362	13
363	17
364	28
365	20
366	8
367	4
368	3
369	2
370	2
371	2
372	2
373	3
374	3
375	7
376	3
377	4
378	4
379	4
380	18
381	11
382	58
383	19
384	7
385	3
386	2
387	2
388	3
389	3
390	18
391	11
392	15
393	26
394	9
395	4
396	2
397	2
398	2
399	2
400	1
401	1
402	1
403	1
404	2
405	2
406	14
407	9
408	137
409	41
410	15
411	6
412	2
413	2
414	1
415	1
416	1
418	1
419	1
420	2
421	2
422	2
423	2
424	8
425	5
426	239
