Mass Spectrum: Scilliroside
Formula: C32H44O12
CAS: 507-60-8
Molecular weight: 620
m/z	intensity
41	113
42	219
43	999
44	514
45	409
46	19
47	5
50	8
51	16
52	11
53	47
54	15
55	89
56	30
57	53
58	19
59	3
60	371
61	66
62	11
63	6
65	26
66	25
67	32
68	13
69	49
70	13
71	20
72	30
73	47
74	32
76	2
77	51
78	15
79	60
80	9
81	40
82	12
83	16
84	13
85	28
86	13
87	7
89	6
90	6
91	80
92	12
93	29
94	24
95	31
96	13
97	23
98	20
99	7
101	10
102	21
103	19
104	8
105	58
106	16
107	34
108	15
109	20
110	13
111	10
112	16
114	10
115	52
116	17
117	31
118	13
119	31
120	28
121	28
122	19
123	29
124	10
126	14
127	27
128	53
129	44
130	14
131	39
132	13
133	25
134	11
135	19
136	16
137	14
138	3
139	6
140	5
141	74
142	33
143	39
144	24
145	76
146	15
147	27
148	7
149	16
151	6
152	23
153	27
154	15
155	48
156	24
157	178
158	40
159	38
160	15
161	23
162	10
163	15
164	7
165	42
166	17
167	25
168	25
169	25
170	40
171	27
172	11
173	24
174	13
175	19
176	16
177	19
178	30
179	30
180	14
181	29
182	13
183	28
184	9
185	14
186	2
187	9
188	3
189	18
190	14
191	64
192	24
193	32
194	17
195	29
196	15
197	45
198	14
199	17
200	9
201	9
202	15
203	18
204	8
205	14
206	13
207	50
208	20
209	26
210	17
211	32
212	16
213	14
215	18
216	9
217	10
219	30
220	8
221	15
222	19
223	16
224	10
225	23
226	19
227	18
228	18
229	16
230	6
231	8
232	8
233	16
234	7
235	11
237	5
239	7
240	7
243	6
245	14
247	7
249	6
250	5
251	9
252	2
253	5
263	9
264	7
302	4
303	5
311	4
318	20
319	10
320	13
321	3
329	20
330	14
331	6
334	3
336	29
337	11
338	13
344	35
345	11
346	28
347	59
348	27
349	10
352	5
354	16
362	216
363	59
364	44
365	32
366	14
367	10
380	70
381	22
382	7
383	9
398	8
414	3
620	6
