Mass Spectrum: 3-Ethyl-1-p-tolyltriazene
Formula: C9H13N3
CAS: 50707-40-9
Molecular weight: 163
m/z	intensity
14	15
15	9
16	1
25	3
26	34
27	126
28	443
29	112
30	21
31	7
32	1
37	8
38	18
39	104
40	17
41	97
42	42
43	241
44	17
45	5
46	2
49	6
50	38
51	79
52	63
53	64
54	23
55	5
56	8
57	8
58	22
59	11
60	11
61	6
62	14
63	42
64	15
65	103
66	19
67	8
68	2
70	1
71	2
72	3
73	2
74	8
75	9
76	10
77	183
78	60
79	107
80	38
81	6
85	2
86	3
87	3
88	1
89	35
90	26
91	363
92	68
93	35
94	5
95	1
102	4
103	10
104	39
105	32
106	999
107	765
108	63
109	3
115	8
116	5
117	15
118	88
119	66
120	672
121	63
122	3
128	2
129	1
130	9
131	9
132	35
133	85
134	71
135	291
136	32
137	2
144	3
145	2
146	17
147	4
148	84
149	9
159	1
160	2
161	8
162	9
163	39
164	5
165	1
