Mass Spectrum: Methanone, (2,4-dinitrophenyl)phenyl-
Formula: C13H8N2O5
CAS: 50709-84-7
Molecular weight: 272
m/z	intensity
33	0
34	0
37	3
38	10
39	22
40	11
41	1
43	0
44	3
46	23
49	2
50	59
51	179
52	11
53	11
54	0
55	1
57	0
61	4
62	19
63	47
64	7
65	52
66	3
67	0
68	2
69	1
70	0
71	0
73	6
74	89
75	157
76	57
77	701
78	47
79	7
80	2
81	1
82	0
83	0
84	0
85	1
86	7
87	11
88	5
89	5
90	2
91	10
93	339
94	20
95	1
97	1
98	8
99	8
100	4
101	6
102	21
103	75
105	999
106	69
107	6
108	0
109	0
110	2
111	3
112	0
113	5
114	5
115	6
116	2
117	0
119	6
120	3
121	2
122	2
123	1
124	0
125	8
126	31
127	12
128	6
129	2
130	0
131	0
133	2
134	0
135	0
137	1
138	2
139	34
140	13
141	3
142	4
143	0
144	0
145	0
149	116
150	57
151	93
152	60
153	39
154	51
155	9
156	1
162	0
163	1
164	2
165	4
166	4
167	2
168	8
169	4
170	8
171	1
174	0
175	0
178	0
179	208
180	22
181	15
182	11
183	16
184	2
185	0
188	2
193	1
195	32
196	5
197	2
198	1
199	2
200	1
202	0
208	0
209	0
211	1
212	0
213	1
215	5
216	1
225	1
226	1
227	8
228	0
230	2
239	1
240	0
241	1
242	2
243	5
244	0
255	2
256	0
272	106
273	16
274	1
