Mass Spectrum: 1,3-Cyclohexanedione, 2-methyl-2-(3-oxobutyl)-
Formula: C11H16O3
CAS: 5073-65-4
Molecular weight: 196
m/z	intensity
26	17
27	189
28	47
29	81
31	8
38	9
39	170
40	34
41	329
42	182
43	999
44	26
45	13
51	22
52	14
53	65
54	33
55	418
56	29
57	16
58	66
59	16
65	15
66	9
67	45
68	21
69	310
70	60
71	80
77	26
78	7
79	42
80	15
81	57
82	133
83	103
84	37
85	12
91	17
92	7
93	97
94	37
95	79
96	45
97	405
98	347
99	48
100	6
107	39
108	18
109	81
110	145
111	683
112	66
121	24
122	26
123	60
124	22
125	262
126	200
127	32
135	49
136	23
137	17
138	162
139	228
140	78
141	8
149	8
150	18
153	76
154	33
163	13
168	55
169	7
178	127
179	20
181	31
194	13
196	531
197	64
198	6
