Mass Spectrum: Bicyclo[3.1.1]heptane, 2,6,6-trimethyl-3-(2-propenyl)-, (1.alpha.,2.beta.,3.alpha.,5.alpha.)-
Formula: C13H22
CAS: 50746-55-9
Molecular weight: 178
m/z	intensity
13	2
14	0
15	69
16	2
17	2
18	5
26	20
27	408
28	54
29	283
30	6
31	3
37	6
38	17
39	439
40	66
41	999
42	62
43	270
44	10
45	3
50	15
51	129
52	61
53	325
54	82
55	723
56	59
57	58
58	5
59	4
60	2
61	3
62	11
63	39
64	12
65	107
66	94
67	529
68	100
69	658
70	47
71	15
72	2
73	2
74	6
75	9
76	5
77	206
78	77
79	386
80	228
81	628
82	230
83	756
84	57
85	7
86	2
87	2
89	8
90	5
91	159
92	74
93	539
94	178
95	331
96	92
97	20
98	3
99	1
102	3
103	11
104	5
105	44
106	13
107	169
108	65
109	117
110	43
111	13
112	2
115	7
116	3
117	5
118	1
119	13
120	14
121	156
122	117
123	92
124	13
125	2
128	2
133	3
134	89
135	210
136	122
137	175
138	20
139	1
149	15
150	9
151	1
163	67
164	9
178	6
