Mass Spectrum: 1,6:3,4-Dianhydro-2-deoxy-.beta.-d-lyxo-hexopyranose
Formula: C6H8O3
CAS: 50767-53-8
Molecular weight: 128
m/z	intensity
41	519
42	239
43	749
44	839
45	479
54	239
55	679
57	999
69	239
71	239
72	279
81	189
82	249
83	839
85	359
