Mass Spectrum: Oxirane, tetramethyl-
Formula: C6H12O
CAS: 5076-20-0
Molecular weight: 100
m/z	intensity
26	8
27	65
28	3
29	92
30	3
31	178
33	0
37	6
38	16
39	160
40	60
41	437
42	213
43	631
44	14
45	4
48	0
49	0
50	3
51	5
52	1
53	8
54	4
55	12
56	7
57	118
58	660
59	999
60	32
61	2
62	0
63	1
65	3
66	0
67	17
68	1
69	15
70	1
71	3
72	1
73	0
77	0
79	0
81	1
82	7
83	1
84	4
85	33
86	1
99	0
100	13
101	1
