Mass Spectrum: 1,6:3,4-Dianhydro-2-deoxy-.beta.-d-ribo-hexopyranose
Formula: C6H8O3
CAS: 50767-52-7
Molecular weight: 128
m/z	intensity
41	169
42	189
43	669
44	959
45	469
55	729
57	999
69	159
71	229
72	449
81	159
82	289
83	839
85	369
