Mass Spectrum: 1,6:2,3-Dianhydro-4-deoxy-.beta.-d-lyxo-hexopyranose
Formula: C6H8O3
CAS: 50767-54-9
Molecular weight: 128
m/z	intensity
40	109
41	809
42	329
43	689
44	559
53	279
54	569
55	219
57	249
69	999
70	189
71	169
81	779
82	729
83	99
