Mass Spectrum: Benzene, (3-methylcyclopentyl)-
Formula: C12H16
CAS: 5078-75-1
Molecular weight: 160
m/z	intensity
22	0
24	0
25	0
26	1
27	53
29	34
30	0
31	0
33	0
34	0
35	1
36	0
38	3
39	76
40	6
41	94
42	2
43	7
44	0
47	0
48	0
49	0
50	15
51	52
52	17
53	24
54	5
55	49
56	8
58	5
59	1
60	1
61	0
62	4
63	26
64	18
65	62
66	9
67	75
68	12
69	50
71	8
72	1
73	0
74	5
75	8
76	10
77	71
78	77
79	29
80	11
81	27
82	37
83	6
86	4
87	3
88	1
89	18
90	7
91	302
92	112
93	9
94	1
96	0
98	0
99	1
100	2
101	4
102	17
103	62
104	999
105	240
106	18
107	1
108	1
112	7
113	5
115	91
116	33
117	410
118	132
119	12
120	1
122	0
126	1
127	8
128	20
129	18
130	7
131	246
132	39
133	3
136	0
137	0
139	0
140	0
141	5
142	2
143	8
144	0
145	41
146	5
147	1
152	0
153	0
154	0
155	0
158	3
159	12
160	334
161	46
162	3
163	0
