Mass Spectrum: Cyclohexanehexanoic acid, .epsilon.-oxo-, methyl ester
Formula: C13H22O3
CAS: 50803-79-7
Molecular weight: 226
m/z	intensity
41	529
55	999
59	390
67	450
73	499
81	480
83	999
87	509
97	310
101	120
111	899
115	549
139	130
143	499
149	360
153	60
158	90
166	70
170	130
177	170
185	40
195	60
226	180
