Mass Spectrum: Pyrimidine, 2,4-diamino-5-(m-(trifluoromethyl)benzyl)-
Formula: C12H11F3N4
CAS: 50823-94-4
Molecular weight: 268
m/z	intensity
41	4
42	10
43	225
44	7
47	1
49	14
50	8
51	18
52	32
53	31
54	26
55	10
56	3
57	6
60	16
62	11
63	28
64	5
65	7
66	6
67	11
68	3
69	112
70	21
71	20
74	14
75	38
76	18
77	20
78	7
79	15
80	1
81	242
82	19
83	14
84	42
86	34
87	9
88	16
89	31
90	7
91	5
92	2
93	2
95	65
96	41
97	5
98	12
99	49
100	16
101	23
102	33
103	20
106	29
107	18
109	55
110	5
111	4
113	18
114	15
115	74
116	9
117	3
119	17
120	8
122	1
123	999
124	62
125	20
126	16
127	18
128	12
130	99
131	11
132	7
133	28
134	3
135	1
137	2
138	2
139	3
140	26
141	3
143	5
145	22
146	2
147	1
149	1
151	32
152	3
153	1
155	15
156	2
157	7
158	13
159	9
163	3
164	6
165	4
167	2
169	10
170	10
171	8
172	10
173	2
174	5
176	13
178	61
179	16
180	7
182	58
183	21
184	3
185	11
186	3
187	4
189	6
190	2
193	1
195	2
196	10
197	6
198	34
199	16
203	3
204	5
205	18
206	4
207	1
208	9
209	4
211	1
212	1
213	13
214	1
223	5
225	22
226	15
227	1
230	1
240	18
241	10
247	0
248	2
249	36
250	10
251	1
252	1
265	2
267	134
268	391
269	47
270	2
