Mass Spectrum: .beta.-d-Galactopyranose, 1-acetate 2,3,4,6-tetrabenzoate
Formula: C36H30O11
CAS: 50820-75-2
Molecular weight: 638
m/z	intensity
25	1
26	3
27	8
28	2
29	4
31	1
37	3
38	4
39	10
40	1
42	3
43	132
44	3
45	10
49	3
50	25
51	65
52	9
53	4
55	1
60	2
61	1
62	1
63	2
65	2
66	1
68	1
69	1
73	2
74	9
75	7
76	16
77	440
78	23
79	3
80	1
81	3
91	1
92	1
94	2
97	2
98	1
104	6
105	999
106	81
107	5
109	1
121	22
122	3
126	1
128	1
149	1
152	1
153	1
157	1
176	2
177	1
180	2
181	1
198	1
201	7
202	7
203	1
205	2
207	1
214	1
217	4
218	1
219	1
227	1
229	1
230	10
231	3
259	3
261	1
269	1
272	2
273	0
277	1
281	11
283	3
284	1
306	5
307	1
320	4
322	1
323	22
324	5
325	1
331	36
332	8
333	1
334	10
335	8
336	2
339	2
352	6
353	2
366	1
369	1
393	2
395	1
428	25
429	8
430	2
474	1
503	1
515	2
516	0
579	2
580	0
595	1
596	0
