Mass Spectrum: Pyrimidine, 5-(m-(chlorodifluoromethoxy)benzyl)-2,4-diamino-
Formula: C12H11ClF2N4O
CAS: 50824-01-6
Molecular weight: 300
m/z	intensity
41	22
42	55
43	419
44	38
45	11
47	3
49	1
50	52
51	74
52	90
53	89
54	126
55	33
56	9
57	4
59	4
60	4
61	3
62	27
63	99
64	45
65	43
66	18
67	14
68	27
69	28
70	21
71	30
72	4
74	26
75	42
76	51
77	79
78	11
79	29
81	338
82	22
83	10
85	162
87	50
88	4
89	52
90	22
91	24
92	12
93	8
94	9
95	43
96	35
97	5
98	3
99	32
100	16
101	53
102	52
103	44
104	14
105	10
106	24
107	6
108	3
109	3
110	2
113	14
114	22
115	32
116	31
117	30
118	18
119	1
120	2
121	10
122	10
123	999
124	53
125	4
126	11
127	21
128	68
129	24
130	56
131	13
132	8
133	7
134	3
135	6
137	1
139	5
140	21
141	6
142	10
143	19
144	13
145	19
146	28
147	6
149	7
150	4
151	2
153	17
154	20
155	81
156	51
157	89
158	13
159	3
160	1
161	1
164	1
167	1
168	3
170	21
171	12
172	6
173	16
174	9
175	3
176	4
180	8
181	9
182	55
183	8
184	4
185	15
186	8
187	17
188	8
190	1
191	1
193	2
195	1
196	2
197	65
198	78
199	140
200	16
201	2
202	1
203	3
204	2
206	2
212	2
213	10
214	15
215	77
216	11
217	3
224	4
225	5
226	2
228	5
229	4
230	9
231	1
232	3
233	2
234	3
240	3
241	5
242	6
243	9
245	16
246	1
247	3
255	1
256	9
257	18
258	17
259	7
260	4
265	7
266	4
267	1
272	16
273	7
274	7
275	3
279	2
281	1
282	4
283	42
284	110
285	23
286	3
297	8
298	2
299	235
300	589
301	145
302	176
303	41
304	4
