Mass Spectrum: 2-Propenoic acid, 3-[(1,1-dimethylethyl)thio]-, methyl ester
Formula: C8H14O2S
CAS: 50838-20-5
Molecular weight: 174
m/z	intensity
26	8
27	68
28	297
29	331
30	12
31	29
32	21
39	80
40	12
41	400
42	34
43	42
44	68
45	76
53	29
54	12
55	68
56	76
57	999
58	85
59	119
60	21
61	8
74	17
85	21
86	280
87	229
88	29
89	17
99	8
118	263
119	34
120	17
127	17
143	34
144	12
159	12
174	153
175	25
