Mass Spectrum: 3-Buten-2-one, 4-(2,2-dimethyl-1-aziridinyl)-
Formula: C8H13NO
CAS: 50838-17-0
Molecular weight: 139
m/z	intensity
39	34
41	121
42	52
43	286
53	34
54	34
55	278
56	117
58	121
68	26
69	17
70	121
71	13
80	52
81	247
82	156
83	30
96	999
97	52
124	104
139	269
140	13
