Mass Spectrum: 2-Propenoic acid, 3-[bis(1,1-dimethylethyl)amino]-, methyl ester
Formula: C12H23NO2
CAS: 50838-21-6
Molecular weight: 213
m/z	intensity
41	269
42	95
43	139
55	52
56	65
57	539
58	34
68	130
69	69
70	999
71	78
82	78
83	17
84	8
85	34
101	200
102	56
110	843
111	26
126	200
127	21
142	882
143	65
157	434
158	43
198	43
213	21
