Mass Spectrum: 4-Carbomethoxy-2,2,5,5-tetramethyl-3-imidazoline-3-oxide-1-oxyl
Formula: C9H15N2O4
CAS: 50839-39-9
Molecular weight: 215
m/z	intensity
50	16
51	21
52	43
53	100
54	100
55	126
56	999
57	86
58	487
59	730
60	24
61	4
63	6
64	9
65	9
66	57
67	102
68	389
69	86
70	42
71	15
72	57
73	275
74	373
75	14
85	22
86	7
87	5
88	37
89	3
90	5
91	14
92	5
93	9
94	27
95	22
96	22
97	31
98	149
99	41
100	10
101	4
102	2
104	2
105	3
106	3
107	13
122	42
123	10
124	9
125	23
126	55
128	71
129	5
130	4
135	5
136	30
137	21
138	34
139	6
140	4
141	20
142	832
143	483
144	52
145	7
149	38
150	4
151	6
152	8
153	68
154	165
155	18
156	89
157	10
158	2
165	3
166	3
167	11
168	412
169	267
170	295
171	27
172	4
182	3
183	62
184	119
185	247
186	24
187	6
198	3
199	17
200	238
201	27
212	8
213	7
214	8
215	529
216	122
217	16
218	2
