Mass Spectrum: 2-Propenoic acid, 3-(di-2-propynylamino)-, methyl ester
Formula: C10H11NO2
CAS: 50838-16-9
Molecular weight: 177
m/z	intensity
26	65
27	78
28	113
29	34
30	8
38	113
39	630
40	52
41	108
42	69
50	43
51	156
52	239
53	121
54	60
55	43
59	130
65	173
66	156
69	43
77	43
78	86
79	60
80	86
89	43
90	52
91	139
92	52
96	43
106	404
116	65
117	339
118	999
119	156
120	30
132	43
133	26
138	156
146	417
147	73
162	43
163	26
176	130
177	208
178	26
