Mass Spectrum: 2,4-Diamino-6-heptadecylpteridine
Formula: C23H40N6
CAS: 50832-39-8
Molecular weight: 400
m/z	intensity
41	432
43	999
44	22
51	7
52	6
53	43
54	29
55	127
56	6
57	89
64	1
65	18
66	24
67	14
68	9
69	15
70	2
71	21
78	3
79	8
80	18
81	12
82	7
83	5
85	6
91	9
92	11
93	9
94	7
95	6
104	6
105	5
106	46
107	7
108	7
117	1
120	1
121	17
122	4
131	3
132	3
133	87
134	48
135	17
144	6
145	5
146	7
147	7
148	10
150	1
158	4
159	7
160	3
161	2
162	7
163	22
164	4
172	18
173	7
174	3
175	223
176	591
177	66
178	4
184	3
186	10
187	9
188	8
189	131
190	27
191	6
201	11
202	6
203	63
204	15
215	8
216	6
217	25
218	5
231	15
232	8
243	1
245	45
246	13
259	9
273	25
274	12
287	31
288	7
301	13
302	9
315	47
316	16
329	18
330	3
343	28
344	13
357	28
358	6
371	7
372	32
373	15
374	1
385	7
386	6
399	13
400	33
401	7
