Mass Spectrum: 1-Methoxy-5-hexene
Formula: C7H14O
CAS: 5084-33-3
Molecular weight: 114
m/z	intensity
39	190
40	50
41	290
42	60
43	170
45	999
46	20
53	50
54	530
55	110
56	20
57	20
58	150
59	40
67	370
68	30
69	10
71	470
72	40
73	5
81	50
82	300
83	20
84	5
85	60
86	10
114	5
