Mass Spectrum: Bemegride methyl derivative
Formula: C9H15NO2
CAS: 50849-40-6
Molecular weight: 169
m/z	intensity
41	360
42	220
43	84
44	17
45	24
50	21
51	35
52	25
53	115
54	84
55	999
56	127
57	31
58	82
59	6
65	15
66	12
67	50
68	25
69	192
70	312
71	61
72	33
73	186
74	41
78	9
79	15
82	94
83	304
84	130
85	14
94	110
95	16
96	43
97	170
98	20
99	10
100	15
109	9
110	20
111	36
112	112
113	31
114	15
124	6
126	89
127	214
128	24
140	206
141	129
142	13
145	7
154	30
169	510
170	48
