Mass Spectrum: Glycine, N-[N-[(phenylmethoxy)carbonyl]-L-leucyl]-, methyl ester
Formula: C17H24N2O5
CAS: 5084-98-0
Molecular weight: 336
m/z	intensity
39	20
40	10
41	30
42	10
50	30
54	30
55	30
56	50
57	10
58	10
59	30
63	20
64	30
67	10
68	10
70	10
71	10
73	20
76	30
77	20
78	50
82	10
83	10
84	30
85	30
86	20
88	80
89	20
90	50
91	999
92	130
97	40
98	20
99	20
107	80
108	50
109	10
112	20
113	10
116	20
120	20
130	50
131	10
136	10
140	30
141	20
142	10
143	20
144	10
145	30
146	10
158	30
166	20
167	20
168	10
169	10
170	70
171	20
176	550
177	90
178	20
183	10
184	50
185	10
219	20
220	350
221	80
222	10
224	20
230	20
236	10
248	20
280	80
281	20
305	40
306	10
321	10
336	40
337	20
