Mass Spectrum: 5,8-Monoepoxyretinoic acid, TMS derivative
Formula: C23H36O3Si
CAS: 50876-24-9
Molecular weight: 388
m/z	intensity
37	80
40	600
42	880
43	270
44	100
47	80
51	80
53	340
55	200
58	80
65	50
67	150
69	330
71	190
73	999
74	120
75	370
76	70
77	210
78	100
79	230
81	140
83	120
85	110
91	220
92	80
93	150
95	280
96	70
97	70
101	70
104	130
105	290
107	330
108	200
109	240
110	70
111	130
115	70
116	90
117	90
119	120
121	270
122	170
123	220
128	80
129	80
130	70
132	160
133	100
134	270
135	90
136	130
143	90
144	100
145	140
147	70
149	560
150	80
156	70
157	100
159	150
161	90
162	60
163	100
164	380
165	270
166	60
169	70
170	70
171	170
173	70
175	130
177	210
178	70
179	70
185	250
187	100
189	80
191	60
192	80
193	200
194	190
195	80
198	70
199	80
200	70
201	90
204	140
206	80
208	200
212	60
216	160
217	50
218	70
220	180
221	190
226	60
230	60
231	80
232	110
233	60
234	80
242	70
244	360
255	120
256	50
257	160
258	50
269	60
270	100
271	470
272	170
273	70
283	70
300	80
317	70
373	200
374	110
388	370
389	130
390	70
