Mass Spectrum: Zinc, bis(3-methyl-4-pentenyl)-
Formula: C12H22Zn
CAS: 50871-02-8
Molecular weight: 230
m/z	intensity
25	0
26	19
27	118
28	40
29	143
30	3
32	3
37	1
38	4
39	92
40	14
41	103
42	10
43	6
49	1
50	5
51	11
52	6
53	49
54	32
55	999
56	56
57	1
62	0
63	1
64	25
65	8
66	13
67	66
68	9
69	7
77	2
78	2
79	5
80	1
81	18
82	11
83	19
84	4
91	6
92	2
93	4
94	1
95	7
96	1
97	0
98	0
100	0
105	0
107	0
109	0
110	0
117	0
118	1
119	190
120	12
121	108
122	21
123	70
124	4
125	2
145	0
146	2
147	249
148	18
149	138
150	30
151	93
152	6
153	3
174	8
175	13
176	6
177	8
178	4
179	5
180	0
188	2
189	0
190	1
191	0
192	1
202	19
203	2
204	11
205	2
206	7
207	0
230	4
231	0
232	2
233	0
234	1
