Mass Spectrum: 1-(3-Indolyl)-3-phenyl-1,3-propanedione
Formula: C17H13NO2
CAS: 50876-34-1
Molecular weight: 263
m/z	intensity
34	1
36	3
37	10
38	27
39	120
40	38
41	33
42	32
43	25
44	14
45	7
46	0
49	1
50	113
51	325
52	52
53	22
54	5
55	24
56	9
57	21
58	4
60	2
61	7
62	49
63	121
64	30
65	47
67	10
68	3
69	188
70	16
71	9
72	5
73	6
74	40
75	68
76	76
77	660
78	129
79	16
80	2
81	4
82	5
83	7
84	6
85	3
86	10
87	23
88	43
89	267
90	91
91	53
92	11
93	3
94	15
95	17
96	9
97	4
98	6
99	2
100	3
101	27
102	72
103	90
104	26
105	261
106	21
107	1
108	8
109	20
110	3
111	2
113	21
114	42
115	50
116	207
117	999
118	242
119	19
120	4
121	5
123	28
124	0
125	1
126	1
127	2
128	32
129	40
130	114
131	38
132	31
133	6
134	4
135	3
136	1
137	0
138	2
139	4
140	21
141	29
142	8
143	22
144	730
145	77
146	8
147	2
149	1
150	2
151	1
152	6
153	1
154	2
156	7
157	17
158	4
159	2
160	7
161	1
163	3
164	2
165	6
166	1
167	1
168	7
169	0
170	0
171	8
173	0
174	0
176	4
177	5
178	11
179	6
180	3
184	1
185	1
186	56
187	10
188	2
189	5
190	2
191	3
192	8
193	6
194	6
195	1
204	10
205	3
206	11
207	2
215	1
216	13
217	10
218	5
219	2
220	8
233	1
234	13
235	3
244	1
245	1
246	9
247	2
258	1
262	25
263	346
264	60
265	8
266	0
