Mass Spectrum: 5,6-Epoxyretinoic acid, (All E)-, TMS derivative
Formula: C23H36O3Si
CAS: 50876-23-8
Molecular weight: 388
m/z	intensity
29	50
35	10
36	10
38	10
39	40
40	20
41	190
42	20
43	790
44	20
45	70
47	30
50	10
51	20
52	10
53	50
54	10
55	210
56	40
57	50
58	30
59	40
60	10
61	10
62	10
63	20
64	10
65	50
66	20
67	150
68	10
69	230
70	20
71	20
72	30
73	999
74	90
75	320
76	30
77	90
78	20
79	150
80	40
81	70
82	40
83	60
84	10
85	50
86	10
87	20
88	10
89	10
90	10
91	260
92	40
93	120
94	40
95	160
96	40
97	30
98	20
99	20
101	10
102	10
103	10
104	10
105	150
106	40
107	210
108	50
109	110
110	20
111	40
112	10
113	10
114	10
115	30
116	20
117	70
118	20
119	100
120	30
121	180
122	60
123	110
124	30
125	10
126	10
127	30
128	60
129	40
130	30
131	80
132	40
133	90
134	40
135	190
136	70
137	40
138	20
139	30
140	10
141	40
142	20
143	90
144	80
145	100
146	40
147	70
148	30
149	250
150	60
151	40
152	30
153	40
154	10
155	40
156	40
157	110
158	30
159	120
160	30
161	70
162	20
163	60
164	120
165	120
166	30
167	20
168	20
169	30
170	50
171	60
172	70
173	70
174	20
175	70
176	20
177	90
178	30
179	50
180	20
181	30
182	20
183	230
184	30
185	110
186	20
187	90
188	30
189	30
190	50
191	120
192	90
193	40
194	10
195	10
196	20
197	50
198	30
199	50
200	30
201	50
202	10
203	40
204	30
205	50
206	10
207	20
209	40
210	20
211	40
212	10
213	60
214	30
215	40
216	20
217	90
218	60
219	10
220	10
221	20
222	10
223	30
224	30
225	20
226	20
227	30
228	20
229	60
230	20
231	30
232	10
233	10
235	30
236	40
237	20
238	20
239	20
240	10
241	20
242	10
243	20
245	10
247	20
248	20
249	10
250	20
251	10
252	10
253	10
254	10
255	70
256	40
257	90
258	20
259	20
260	10
265	20
270	40
271	230
272	80
273	10
281	20
283	40
296	10
299	20
300	20
304	30
315	10
317	10
318	10
319	10
320	10
329	10
331	10
345	10
371	10
372	20
373	100
374	40
375	10
388	250
389	80
390	80
391	30
