Mass Spectrum: Acetamide, N-methyl-N-(2-phenylethyl)-
Formula: C11H15NO
CAS: 50893-11-3
Molecular weight: 177
m/z	intensity
14	4
15	31
16	1
17	2
18	19
26	3
27	14
28	93
29	4
30	18
31	2
32	12
38	4
39	22
40	5
41	13
42	54
43	137
44	999
45	33
50	8
51	21
52	6
53	3
54	2
55	4
56	6
57	5
58	6
62	2
63	11
64	3
65	35
66	3
67	1
69	2
71	1
72	4
73	8
74	4
75	2
76	3
77	23
78	14
79	11
80	1
81	1
85	1
86	340
87	21
88	2
89	7
90	4
91	54
92	14
93	2
102	3
103	15
104	74
105	26
106	3
107	3
108	1
115	3
116	2
117	4
118	4
119	5
120	3
121	2
132	3
133	3
134	8
135	3
136	1
137	1
149	4
151	4
161	1
162	3
163	1
164	12
165	2
177	117
178	24
179	3
