Mass Spectrum: Indole-2,3-dione, 1-(hydroxymethyl)-
Formula: C9H7NO3
CAS: 50899-59-7
Molecular weight: 177
m/z	intensity
33	1
34	2
36	6
37	97
38	137
39	124
40	69
41	30
42	3
43	14
44	28
45	62
50	160
51	56
52	103
53	34
54	3
55	2
56	1
57	1
58	1
60	27
61	57
62	92
63	255
64	292
65	79
67	15
68	0
69	0
70	1
71	0
73	18
74	57
75	41
76	92
77	42
78	13
79	1
80	0
83	0
84	0
86	5
87	8
88	11
90	149
91	173
92	673
93	53
94	4
99	0
100	0
101	0
102	2
103	11
104	41
105	62
106	3
107	0
116	0
119	999
120	76
121	6
122	5
123	4
124	0
130	1
131	1
132	12
133	2
134	0
146	55
147	507
148	46
149	8
150	0
160	1
161	0
171	0
177	55
178	5
179	0
