Mass Spectrum: trans-3,5-Diphenyl-4-nitro-2-isoxazoline
Formula: C15H12N2O3
CAS: 50899-24-6
Molecular weight: 268
m/z	intensity
50	220
51	560
52	80
62	60
63	200
64	50
65	100
74	60
75	70
76	130
77	980
78	80
88	30
89	180
90	60
91	460
92	40
102	30
103	90
105	999
106	90
116	60
119	40
144	40
165	160
189	120
190	40
191	130
192	40
193	70
194	110
221	70
222	100
268	10
269	2
