Mass Spectrum: Di-epi-.alpha.-cedrene
Formula: C15H24
CAS: 50894-66-1
Molecular weight: 204
m/z	intensity
25	2
26	19
27	73
28	81
29	85
30	2
31	24
33	1
36	1
37	1
38	6
39	99
40	16
41	312
42	24
43	70
44	9
45	13
46	3
49	2
50	11
51	35
52	14
53	81
54	9
55	182
56	114
57	49
58	4
59	13
60	1
61	3
62	5
63	15
64	16
65	72
66	16
67	88
68	35
69	215
70	52
71	7
72	3
73	3
74	8
75	3
76	3
77	154
78	40
79	148
80	37
81	108
82	26
83	31
84	15
85	4
86	2
87	4
88	1
89	12
90	5
91	372
92	227
93	518
94	95
95	86
96	15
97	14
98	2
99	1
100	1
101	1
102	3
103	20
104	10
105	381
106	67
107	114
108	53
109	71
110	13
111	12
112	3
113	1
115	25
116	8
117	36
118	19
119	999
120	158
121	194
122	49
123	52
124	10
125	1
127	5
128	14
129	12
130	5
131	23
132	7
133	118
134	45
135	32
136	71
137	9
138	1
141	5
142	2
143	7
144	2
145	14
146	15
147	114
148	66
149	21
150	3
153	1
157	2
158	3
159	7
160	8
161	202
162	50
163	8
164	1
167	0
173	1
175	25
176	6
177	2
187	4
188	0
189	94
190	18
191	2
192	1
203	1
204	154
205	26
206	2
