Mass Spectrum: 2-Chloroethyl methyl sulfone
Formula: C3H7ClO2S
CAS: 50890-51-2
Molecular weight: 142
m/z	intensity
41	25
45	82
46	19
47	131
49	110
51	39
57	6
58	18
61	75
62	25
63	999
65	520
66	8
67	5
79	129
80	210
81	14
82	5
83	56
85	15
91	1
127	25
129	7
142	2
143	13
145	2
