Mass Spectrum: Dimenoxadol
Formula: C20H25NO3
CAS: 509-78-4
Molecular weight: 327
m/z	intensity
36	80
39	150
40	80
41	390
42	190
43	520
44	360
45	100
51	120
53	50
55	390
56	290
57	590
58	999
59	50
60	140
65	80
67	110
69	320
70	160
71	440
73	100
76	60
77	370
79	70
81	140
82	80
83	260
84	70
85	170
91	110
95	130
96	80
97	170
98	60
99	80
105	590
106	70
107	70
108	110
109	60
111	100
125	80
150	70
152	70
165	280
166	100
167	370
168	60
193	230
211	280
212	90
