Mass Spectrum: Ambrosin
Formula: C15H18O3
CAS: 509-93-3
Molecular weight: 246
m/z	intensity
103	240
104	160
105	999
106	280
107	680
108	360
109	260
110	240
115	440
116	160
117	480
118	220
119	680
120	280
121	480
122	600
123	880
124	400
125	120
128	240
129	280
130	120
131	400
132	200
133	460
134	240
135	600
136	360
137	240
142	120
143	200
144	120
145	380
146	240
147	560
148	400
149	360
150	120
157	240
158	120
159	260
160	160
161	520
162	260
163	240
171	160
172	160
173	200
174	160
175	560
176	240
185	200
187	140
189	480
190	280
191	140
199	80
200	240
201	200
202	120
203	280
204	160
213	160
217	300
218	320
219	120
228	160
231	360
246	840
