Mass Spectrum: 4-(2-Phenylethyl)pyridazine
Formula: C12H12N2
CAS: 50901-49-0
Molecular weight: 184
m/z	intensity
41	21
49	1
50	34
51	76
52	19
53	8
62	1
63	51
64	6
65	48
66	14
67	4
74	3
75	3
76	3
77	38
78	14
89	18
90	1
91	999
92	88
102	6
103	13
104	8
115	16
127	6
128	18
153	8
154	1
183	13
184	267
185	38
