Mass Spectrum: (2R,3R,4aR,5S)-2-Hydroxy-4a,5-dimethyl-3-(prop-1-en-2-yl)-3,4,4a,5,6,7-hexahydronaphthalen-1(2H)-one
Formula: C15H22O2
CAS: 5090-90-4
Molecular weight: 234
m/z	intensity
26	5
27	66
29	105
31	10
37	3
38	6
39	246
40	48
41	512
42	48
43	203
44	19
45	10
47	1
51	145
52	95
53	330
54	24
55	295
56	37
57	53
58	22
59	17
62	1
63	51
65	281
66	159
67	357
68	55
69	185
70	31
71	8
74	12
75	6
77	621
78	131
79	739
80	165
81	370
82	94
83	195
84	52
85	18
86	8
89	28
90	12
91	999
92	132
93	602
94	133
95	331
96	121
97	82
98	15
99	10
100	4
101	17
102	10
103	115
104	5
105	457
106	138
107	477
108	200
109	827
110	109
112	8
113	2
114	8
115	161
116	17
117	134
118	22
119	223
120	87
121	410
122	165
123	263
124	82
125	10
127	38
129	40
130	26
131	129
132	31
133	203
135	222
136	140
137	577
138	277
141	42
142	12
143	29
146	39
147	217
148	66
149	199
150	67
151	115
155	19
156	7
157	11
158	14
160	17
161	75
162	70
163	337
164	275
166	50
168	1
169	5
171	14
172	22
173	159
174	46
175	97
176	16
177	261
178	76
181	2
182	3
183	15
187	97
188	55
189	18
191	476
192	196
193	15
194	1
195	1
198	3
199	6
201	73
202	37
203	15
205	323
206	408
207	50
208	7
212	1
213	1
214	1
215	23
218	3
219	255
220	66
221	9
232	4
234	545
235	120
236	25
237	1
