Mass Spectrum: Cyclopropane, 1-chloro-1-methyl-
Formula: C4H7Cl
CAS: 50915-28-1
Molecular weight: 90
m/z	intensity
39	440
40	308
41	536
53	235
55	999
90	310
92	128
