Mass Spectrum: o-Fluorophenethyl alcohol
Formula: C8H9FO
CAS: 50919-06-7
Molecular weight: 140
m/z	intensity
15	1
26	2
27	6
28	1
29	12
30	2
31	55
32	1
33	2
37	3
38	7
39	31
40	2
41	2
42	1
43	6
44	3
45	2
46	1
49	3
50	22
51	28
52	4
53	2
55	1
56	4
57	47
58	3
59	15
60	3
61	7
62	17
63	45
64	7
65	14
66	1
68	6
69	8
70	10
71	1
73	2
74	12
75	23
76	5
77	9
78	3
79	1
80	2
81	19
82	7
83	164
84	11
85	3
86	4
87	4
88	2
89	40
90	10
91	27
92	3
93	2
94	5
95	10
96	24
97	5
98	1
99	1
100	1
101	21
102	4
103	7
104	2
105	2
107	46
109	999
110	617
111	46
112	2
118	1
119	1
120	5
121	14
122	17
123	3
138	3
140	279
141	25
142	1
