Mass Spectrum: Benzenamino, 3-bromo-4-methyl-N-(3-nitrobenzylidenamino)-
Formula: C14H11BrN2O2
CAS: 50931-23-2
Molecular weight: 318
m/z	intensity
34	7
36	11
37	17
39	554
40	179
41	35
42	3
43	15
44	42
45	8
46	18
50	319
51	426
52	80
53	14
54	2
55	6
56	1
57	8
62	252
63	630
64	138
65	163
66	13
69	44
70	62
71	11
74	79
75	137
76	228
77	640
78	95
79	35
80	60
82	469
84	235
86	50
87	63
89	999
90	907
91	169
92	21
93	11
96	740
98	7
99	6
100	5
101	11
102	33
103	40
104	32
105	21
106	11
107	1
112	1
113	18
114	35
115	80
116	55
117	35
118	9
119	14
120	5
121	1
122	1
123	5
125	4
126	15
127	22
128	15
129	5
134	0
135	18
136	52
138	9
139	54
140	34
141	12
142	4
143	14
145	13
149	6
150	26
151	48
152	49
153	26
154	26
155	3
159	37
160	34
163	56
164	79
165	302
166	220
167	58
169	334
171	334
172	15
177	47
178	64
179	19
180	69
181	43
182	7
184	2
185	8
186	1
187	6
190	91
191	171
192	244
193	183
194	39
196	317
197	34
198	303
199	19
205	5
206	2
207	5
208	16
209	11
210	2
221	6
222	8
238	2
239	42
240	16
246	2
259	4
261	3
271	159
272	83
273	159
274	77
275	9
287	9
288	25
289	11
290	24
291	1
301	64
302	14
303	65
304	14
305	1
317	205
318	999
319	334
320	949
321	144
322	14
