Mass Spectrum: Annotinol, phenyl-
Formula: C22H27NO3
CAS: 5096-62-8
Molecular weight: 353
m/z	intensity
41	759
42	200
43	999
44	88
45	32
50	12
51	60
52	28
53	168
54	128
55	499
56	120
57	100
58	108
59	4
60	12
61	4
63	4
64	2
65	72
66	52
67	208
68	200
69	248
70	132
71	32
72	4
73	12
74	4
75	4
76	8
77	519
78	88
79	288
80	140
81	168
82	112
83	80
84	32
85	20
86	2
87	2
89	4
90	4
91	240
92	48
93	112
94	128
95	120
96	100
97	48
98	12
99	4
102	2
103	48
104	40
105	831
106	160
107	92
108	88
109	200
110	92
111	12
112	4
115	64
116	40
117	148
118	80
119	64
120	140
121	88
122	212
123	140
124	32
125	4
126	4
127	12
128	40
129	72
130	160
131	128
132	220
133	120
134	232
135	120
136	140
137	48
138	12
139	8
140	2
141	12
142	28
143	48
144	180
145	100
146	128
147	92
148	200
149	120
150	152
151	40
152	20
153	4
154	12
155	8
156	28
157	32
158	112
159	60
160	208
161	80
162	559
163	240
164	72
165	8
166	4
167	4
168	20
169	4
170	192
171	72
172	320
173	160
174	100
175	40
176	88
177	40
178	32
179	8
180	2
181	2
182	4
183	4
184	88
185	60
186	72
187	20
188	192
189	320
190	220
191	32
192	8
193	2
194	2
196	2
197	4
198	60
199	8
200	12
201	4
202	40
203	60
204	48
205	20
206	44
207	20
208	4
209	2
210	8
211	4
212	100
213	132
214	607
215	88
216	120
217	20
218	2
220	4
226	2
228	12
229	20
230	511
231	440
232	80
233	4
244	4
246	2
248	24
249	2
258	4
266	8
276	4
290	4
292	2
293	8
306	4
318	8
319	4
320	12
321	4
322	4
323	2
324	2
325	4
334	40
335	72
336	839
337	208
338	32
352	60
353	328
354	80
355	8
