Mass Spectrum: Phosphonous difluoride, 1,2-ethanediylbis-
Formula: C2H4F4P2
CAS: 50966-32-0
Molecular weight: 166
m/z	intensity
26	61
27	28
28	72
29	2
31	15
44	7
45	5
50	572
51	42
55	7
56	11
57	43
58	5
59	126
60	2
69	999
70	11
75	11
76	4
77	64
78	12
83	11
96	7
97	164
98	4
138	63
147	9
166	153
167	4
