Mass Spectrum: Annotinol, dihydro-
Formula: C16H25NO3
CAS: 5096-60-6
Molecular weight: 279
m/z	intensity
41	999
42	516
43	649
44	266
45	73
46	3
47	133
48	3
50	10
51	76
52	66
53	326
54	216
55	543
56	183
57	116
58	53
59	6
60	3
61	3
62	3
63	20
64	10
65	150
66	73
67	240
68	140
69	173
70	136
71	50
72	10
73	6
74	6
75	6
76	3
77	233
78	70
79	216
80	106
81	133
82	140
83	126
84	66
85	26
86	16
87	5
88	3
89	6
90	5
91	216
92	50
93	100
94	103
95	133
96	136
97	66
98	33
99	3
100	3
102	5
103	33
104	33
105	100
106	66
107	66
108	116
109	83
110	93
111	50
112	23
113	6
114	3
115	33
116	26
117	73
118	66
119	60
120	103
121	50
122	106
123	116
124	140
125	40
126	16
127	3
128	20
129	20
130	43
131	43
132	83
133	56
134	133
135	93
136	190
137	73
138	40
139	26
140	3
141	3
142	6
143	16
144	50
145	26
146	200
147	66
148	133
149	100
150	216
151	283
152	273
153	66
154	6
155	3
156	6
157	6
158	26
159	16
160	83
161	33
162	183
163	100
164	306
165	126
166	26
167	16
168	3
169	3
170	23
171	3
172	83
173	60
174	583
175	233
176	173
177	50
178	60
179	66
180	36
181	33
182	6
184	6
185	3
186	26
187	6
188	36
189	33
190	233
191	200
192	566
193	83
194	10
196	3
198	3
200	10
201	3
202	6
203	3
204	26
205	20
206	33
207	40
208	60
209	6
210	3
212	3
214	16
215	10
216	66
217	6
218	26
219	3
220	3
222	6
230	3
231	3
232	73
233	60
234	40
235	3
236	10
238	3
239	6
242	10
243	10
244	33
245	6
246	26
247	6
248	6
249	6
250	10
251	33
252	3
258	3
259	3
260	106
261	106
262	766
263	140
264	33
265	3
276	3
277	36
278	116
279	499
280	93
281	3
