Mass Spectrum: Hexahydro-5-methyl-1-phenyl-1,3,5-triazine-2-thione
Formula: C10H13N3S
CAS: 50978-86-4
Molecular weight: 207
m/z	intensity
50	255
51	494
52	258
53	75
54	154
57	40
62	53
63	146
64	626
65	244
66	59
69	50
75	63
76	152
77	999
78	155
79	81
80	35
89	51
90	46
91	819
92	83
93	171
103	44
104	161
105	316
106	63
107	44
109	68
115	62
118	908
119	745
120	65
121	52
131	399
132	37
135	794
136	164
137	51
163	78
164	243
166	35
207	556
208	72
209	29
210	3
