Mass Spectrum: 5H-Tetrazol-5-one, 1,2-dihydro-1-phenyl-
Formula: C7H6N4O
CAS: 5097-82-5
Molecular weight: 162
m/z	intensity
33	28
37	77
38	84
39	95
40	140
41	25
43	78
44	35
46	2
50	111
51	137
52	39
53	3
61	2
62	59
64	386
65	41
74	6
77	128
90	25
91	421
92	25
117	2
119	999
120	25
162	195
163	9
