Mass Spectrum: Acetoacetic ester, N-ethoxycarbonylhydrazone
Formula: C9H16N2O4
CAS: 50981-14-1
Molecular weight: 216
m/z	intensity
37	4
38	22
39	221
40	102
41	606
42	274
43	240
44	163
45	147
46	13
47	20
51	2
52	6
53	11
54	77
55	81
56	129
57	108
58	59
59	57
60	30
61	15
62	4
66	4
67	28
68	46
69	182
70	400
71	252
72	63
73	26
74	4
75	9
76	4
77	2
81	4
82	34
83	118
84	30
85	34
86	13
87	9
88	50
89	4
95	2
96	22
97	207
98	999
99	272
100	44
101	110
102	6
103	11
104	2
109	2
110	11
111	87
112	8
113	13
114	6
115	26
116	4
124	75
125	36
126	18
127	24
128	30
129	149
130	24
131	4
141	9
142	40
143	108
144	44
145	6
149	2
155	2
156	6
157	13
158	2
159	2
169	6
170	145
171	124
172	11
173	4
201	6
216	225
217	26
218	4
