Mass Spectrum: Aminomalononitrile p-toluenesulfonate
Formula: C10H11N3O3S
CAS: 5098-14-6
Molecular weight: 253
m/z	intensity
12	2
14	1
15	1
16	5
24	3
25	5
26	14
27	64
28	12
29	2
30	1
32	7
36	2
37	5
38	65
39	150
40	14
41	33
42	2
43	9
44	7
45	7
48	4
49	2
50	43
51	64
52	36
53	192
54	339
55	308
56	11
57	4
58	1
60	2
61	9
62	34
63	102
64	38
65	376
66	28
67	4
68	1
69	6
70	1
71	3
73	2
74	11
75	9
76	5
77	149
78	20
79	170
80	398
81	242
82	12
83	2
84	1
85	4
86	9
87	7
88	2
89	118
90	111
91	999
92	86
93	4
94	1
95	2
96	1
97	2
99	1
104	1
105	4
106	2
107	459
108	340
109	26
110	2
111	2
118	1
121	3
122	1
123	2
124	4
125	1
137	1
139	3
140	1
149	1
154	1
155	59
156	6
157	3
170	1
171	5
172	895
173	89
174	50
175	4
