Mass Spectrum: 1H-Imidazole-4-carbonitrile, 5-amino-
Formula: C4H4N4
CAS: 5098-11-3
Molecular weight: 108
m/z	intensity
25	4
26	9
27	103
28	544
29	42
36	2
38	69
39	35
40	8
41	10
42	13
43	64
44	4
50	5
51	5
52	16
53	269
54	530
55	31
56	12
57	3
64	15
65	18
66	35
67	2
78	3
79	1
80	17
81	408
82	19
107	6
108	999
109	66
110	1
