Mass Spectrum: 1H-Imidazole, 4-(2-propenyl)-
Formula: C6H8N2
CAS: 50995-98-7
Molecular weight: 108
m/z	intensity
39	449
40	696
41	494
53	449
54	314
68	280
80	808
81	696
82	258
107	999
108	977
