Mass Spectrum: 2-(4-Methoxyphenylazo)naphthalen-1-ol
Formula: C17H14N2O2
CAS: 5099-03-6
Molecular weight: 278
m/z	intensity
26	10
27	28
28	17
29	15
37	3
38	19
39	66
40	6
41	70
42	10
43	42
44	5
45	14
50	43
51	94
52	82
53	49
54	10
55	40
56	14
57	56
58	3
59	3
60	14
61	7
62	29
63	108
64	142
65	75
66	17
67	23
68	10
69	39
70	12
71	30
72	3
73	17
74	26
75	75
76	66
77	440
78	87
79	56
80	65
81	22
82	9
83	24
84	9
85	20
86	6
87	18
88	34
89	73
90	13
91	27
92	209
93	28
94	5
95	72
96	10
97	18
98	7
99	7
100	11
101	126
102	83
103	22
104	6
105	10
106	44
107	999
108	116
109	17
110	4
111	10
112	4
113	28
114	111
115	434
117	8
118	2
119	3
120	7
121	106
122	266
123	47
124	18
125	9
126	7
127	21
128	176
129	31
130	30
131	8
132	62
133	9
135	166
136	15
137	4
138	2
139	105
140	4
141	4
142	52
143	627
144	73
145	7
151	6
152	12
153	5
154	2
155	3
156	226
157	30
158	5
159	15
160	2
161	10
162	2
163	3
165	7
167	2
169	2
170	3
171	56
172	7
176	8
177	10
178	42
179	21
180	4
181	2
189	13
190	4
191	7
192	2
205	8
206	6
207	22
208	4
217	2
218	9
220	2
221	6
222	3
233	2
234	5
235	15
236	2
249	6
250	51
251	9
252	2
260	7
263	30
264	6
277	7
278	891
279	183
280	21
281	2
