Mass Spectrum: 1H-Imidazole, 2-propyl-
Formula: C6H10N2
CAS: 50995-95-4
Molecular weight: 110
m/z	intensity
39	180
40	140
41	320
42	180
54	320
55	270
81	589
82	999
95	300
109	110
110	180
