Mass Spectrum: Pyrimidine-2,4(1H,3H)-dione, 6-amino-1-methyl-5-nitro-
Formula: C5H6N4O4
CAS: 50996-12-8
Molecular weight: 186
m/z	intensity
50	12
51	22
52	30
53	193
54	103
55	156
56	195
57	999
58	88
64	114
65	10
66	76
67	138
68	187
69	264
70	161
71	18
79	7
80	30
81	27
82	96
83	84
84	12
85	13
95	6
96	13
97	10
98	39
99	21
100	21
101	4
110	7
111	6
112	11
113	11
114	3
124	3
125	10
126	7
127	34
128	6
155	3
156	178
157	13
158	3
159	7
167	2
168	21
169	6
170	55
171	5
172	2
184	2
185	3
186	261
187	19
188	3
189	2
190	1
