Mass Spectrum: Nialamide
Formula: C16H18N4O2
CAS: 51-12-7
Molecular weight: 298
m/z	intensity
38	2
39	9
40	2
41	4
42	7
43	12
44	60
45	5
49	1
50	41
51	154
52	23
53	5
54	3
55	17
56	4
57	11
58	3
59	6
60	1
62	2
63	12
64	5
65	91
66	6
68	1
69	1
70	5
71	3
72	3
73	2
74	1
75	5
76	9
77	53
78	310
79	132
80	16
81	1
84	8
85	11
86	3
87	1
89	21
90	11
91	999
92	93
93	8
94	2
95	1
97	1
99	1
103	5
104	33
105	51
106	522
107	139
108	25
109	2
115	2
117	8
118	19
119	4
120	2
121	6
122	25
123	172
124	14
130	3
131	3
132	22
133	6
134	5
135	2
136	1
137	12
138	3
145	1
146	5
147	4
148	46
149	111
150	98
151	8
159	1
160	4
161	3
162	22
163	7
164	2
167	1
169	2
174	1
175	6
176	12
177	400
178	49
179	3
190	3
191	3
192	4
193	1
211	1
225	1
298	19
299	17
300	2
