Mass Spectrum: 1H-Benzimidazole
Formula: C7H6N2
CAS: 51-17-2
Molecular weight: 118
m/z	intensity
13	1
14	2
15	1
17	0
18	0
25	2
26	8
27	12
28	48
29	0
36	4
37	38
38	55
39	52
40	11
41	23
42	2
43	1
44	3
45	8
49	6
50	21
51	20
52	57
53	4
54	1
59	32
60	6
61	27
62	50
63	162
64	136
65	36
66	5
67	3
73	1
74	5
75	6
76	7
77	3
78	8
79	2
86	3
87	8
88	10
89	13
90	85
91	343
92	26
93	2
117	35
118	999
119	82
120	4
