Mass Spectrum: 5-Fluorouracil
Formula: C4H3FN2O2
CAS: 51-21-8
Molecular weight: 130
m/z	intensity
20	3
24	2
25	5
26	9
27	28
28	468
29	13
30	2
31	96
32	15
33	3
34	1
36	1
37	2
38	14
39	20
40	17
41	17
42	15
43	56
44	70
45	5
46	7
47	6
50	2
51	10
52	5
53	13
54	6
55	4
56	1
57	16
58	73
59	99
60	340
61	10
62	1
66	1
67	5
68	8
69	4
70	30
71	2
72	1
73	1
74	13
76	2
80	15
81	2
83	1
84	3
85	6
86	15
87	424
88	59
89	5
94	1
102	1
112	8
113	2
114	3
127	1
128	2
129	3
130	999
131	56
132	7
