Mass Spectrum: Phenol, 4-(2-aminoethyl)-
Formula: C8H11NO
CAS: 51-67-2
Molecular weight: 137
m/z	intensity
14	2
15	4
16	2
17	8
18	36
20	3
26	5
27	21
28	53
29	8
30	999
31	16
32	11
37	3
38	8
39	34
40	5
41	7
42	9
43	7
44	6
45	1
49	2
50	14
51	33
52	20
53	23
54	4
55	11
56	3
57	1
58	2
59	1
60	1
61	3
62	8
63	14
64	5
65	16
66	6
67	4
68	4
69	1
73	1
74	3
75	4
76	2
77	88
78	27
79	21
80	10
81	6
82	1
85	1
86	1
87	1
89	6
90	10
91	25
92	4
93	8
94	5
95	1
103	1
104	2
105	5
106	10
107	262
108	475
109	38
110	3
116	1
117	3
118	3
119	6
120	12
121	2
132	1
133	3
134	3
135	8
136	3
137	81
138	8
