Mass Spectrum: Methacetin
Formula: C9H11NO2
CAS: 51-66-1
Molecular weight: 165
m/z	intensity
14	1
15	11
26	4
27	5
28	7
29	4
30	1
31	1
37	3
38	12
39	26
40	4
41	36
42	17
43	191
44	5
45	1
49	1
50	16
51	37
52	105
53	85
54	15
55	5
61	5
62	14
63	40
64	31
65	49
66	9
67	9
68	3
69	1
74	4
75	4
76	5
77	15
78	20
79	30
80	117
81	17
82	1
87	1
88	1
89	1
90	6
91	8
92	17
93	7
94	5
95	74
96	6
102	1
104	2
105	1
106	16
108	999
109	76
110	4
119	1
120	4
121	6
122	94
123	522
124	53
125	3
133	1
134	16
135	2
136	5
147	1
148	1
149	9
150	3
165	401
166	40
167	4
