Mass Spectrum: Tremorine
Formula: C12H20N2
CAS: 51-73-0
Molecular weight: 192
m/z	intensity
15	11
26	4
27	51
28	72
29	26
30	29
39	55
40	12
41	138
42	186
43	94
44	13
46	1
50	6
51	31
52	53
53	129
54	51
55	97
56	22
57	6
58	7
59	3
60	4
61	3
63	1
64	3
65	21
66	24
67	43
68	74
69	46
70	787
71	999
72	55
73	1
74	10
75	2
77	19
78	10
79	36
80	65
81	24
82	23
83	14
84	293
85	17
91	12
92	24
93	70
94	57
95	72
96	9
97	2
103	3
104	2
105	5
106	31
107	14
108	59
109	6
110	6
117	3
118	9
119	5
120	334
121	889
122	163
123	551
124	53
125	3
133	2
134	4
135	4
136	3
147	1
148	2
149	3
150	1
157	1
161	1
162	1
163	2
189	1
190	7
191	7
192	12
193	2
