Mass Spectrum: Methanediamine, N,N,N',N'-tetramethyl-
Formula: C5H14N2
CAS: 51-80-9
Molecular weight: 102
m/z	intensity
14	4
15	55
26	1
27	8
28	42
29	14
30	62
31	1
32	3
38	2
39	3
40	9
41	15
42	127
43	39
44	118
45	64
46	4
56	8
57	34
58	999
59	49
60	1
71	2
73	1
85	4
101	5
102	53
103	3
