Mass Spectrum: Norethindrone Acetate
Formula: C22H28O3
CAS: 51-98-9
Molecular weight: 340
m/z	intensity
27	72
28	50
29	85
31	17
39	78
40	122
41	199
42	14
43	999
44	23
45	14
51	22
52	13
53	116
54	12
55	121
56	7
57	18
59	0
60	4
63	6
64	0
65	67
66	20
67	109
68	20
69	30
70	0
71	9
74	0
77	163
78	44
79	194
80	30
81	106
82	19
83	34
84	1
85	3
89	6
90	1
91	266
92	47
93	106
94	23
95	66
96	17
97	33
98	0
102	3
103	36
104	23
105	147
106	36
107	115
108	51
109	80
110	140
111	26
112	4
113	4
115	59
116	24
117	97
118	37
119	105
120	58
121	78
122	65
123	49
124	23
125	9
127	12
128	38
129	65
130	26
131	78
132	30
133	78
134	43
135	86
136	24
137	22
138	6
139	4
141	33
142	24
143	51
144	22
145	69
146	37
147	78
148	41
149	43
150	13
151	7
152	8
153	13
154	10
155	44
156	21
157	51
158	36
159	79
160	75
161	70
162	57
163	31
164	14
165	17
166	8
167	20
168	11
169	35
170	33
171	55
172	34
173	80
174	41
175	45
176	21
177	16
178	16
179	13
180	7
181	24
182	13
183	30
184	22
185	41
186	38
187	47
188	36
189	41
190	11
191	11
192	1
193	9
194	5
195	32
196	17
197	35
198	23
199	37
200	22
201	35
202	24
203	20
204	15
205	8
206	0
207	10
208	6
209	28
210	25
211	31
212	29
213	107
214	32
215	123
216	28
217	19
218	10
219	10
220	1
221	11
222	7
223	44
224	26
225	21
226	28
227	19
228	61
229	31
230	33
231	156
232	27
233	8
234	1
235	1
236	7
237	35
238	28
239	15
240	7
241	23
242	14
243	6
245	0
247	10
251	25
252	38
253	12
254	8
255	23
256	13
257	0
262	7
263	7
265	61
266	13
269	29
270	38
271	7
279	22
280	103
281	28
282	4
283	131
284	28
285	0
297	72
298	180
299	41
300	2
312	0
325	323
326	78
327	10
340	408
341	107
342	15
