Mass Spectrum: Spiramide
Formula: C22H26FN3O2
CAS: 510-74-7
Molecular weight: 383
m/z	intensity
27	20
28	69
29	26
30	35
36	2
38	5
39	36
40	11
41	206
42	626
43	101
44	57
50	16
51	55
52	15
53	56
54	58
55	65
56	199
57	135
58	30
62	10
63	18
64	18
65	33
66	16
67	33
68	68
69	60
70	651
71	999
72	57
75	36
76	16
77	321
78	45
79	16
80	41
81	31
82	73
83	177
84	86
85	44
86	4
89	13
90	5
91	81
92	19
93	67
94	98
95	225
96	198
97	400
98	279
99	18
100	7
101	23
102	4
103	31
104	94
105	77
106	86
107	19
108	22
109	65
110	90
111	65
112	121
113	83
114	12
115	15
116	9
117	215
118	190
119	27
120	24
121	22
122	74
124	15
125	89
126	12
128	6
129	13
130	200
131	93
132	48
133	14
136	13
137	15
138	55
139	23
143	38
144	75
145	43
146	27
147	12
149	7
150	14
151	15
152	7
153	6
156	10
157	13
158	66
159	47
160	13
161	12
168	3
169	2
171	10
172	10
173	52
174	62
175	218
176	21
178	14
179	5
185	16
186	23
187	172
188	40
189	8
194	522
195	60
196	18
201	13
202	36
208	51
209	62
210	33
213	8
215	3
216	4
230	24
231	35
232	29
233	30
234	147
235	26
236	5
242	13
243	9
244	955
245	163
246	11
258	8
259	9
261	162
262	29
272	9
278	11
290	17
325	10
381	10
382	11
383	255
384	64
