Mass Spectrum: Gibb-3-ene-1,10-dicarboxylic acid, 2,4a,7-trihydroxy-1-methyl-8-methylene-, 1,4a-lactone, 10-methyl ester, (1.alpha.,2.beta.,4a.alpha.,4b.beta.,10.beta.)-
Formula: C20H24O6
CAS: 510-50-9
Molecular weight: 360
m/z	intensity
28	280
29	880
30	460
31	60
32	260
33	240
34	60
38	40
39	560
40	160
41	640
42	100
43	999
44	580
45	140
50	40
51	140
52	60
53	260
54	40
55	820
56	120
57	360
58	60
59	680
60	80
61	40
63	80
64	40
65	220
66	80
67	180
68	80
69	400
70	60
71	140
72	40
73	280
74	80
75	100
76	60
77	460
78	360
79	340
80	60
81	340
82	100
83	220
84	100
85	190
86	20
87	60
88	40
89	80
90	40
91	540
92	100
93	160
94	80
95	240
96	100
97	120
98	60
99	60
100	30
101	40
102	40
103	100
104	80
105	320
106	100
107	220
108	120
109	300
110	60
111	100
112	60
113	60
114	30
115	260
116	120
117	240
118	60
119	140
120	70
121	460
122	140
123	50
124	40
125	60
126	40
127	150
128	280
129	220
130	50
131	160
132	70
133	200
134	240
135	440
136	400
137	999
138	110
139	110
140	50
141	240
142	120
143	200
144	100
145	160
146	60
147	240
148	100
149	400
150	80
151	100
152	100
153	100
154	60
155	340
156	120
157	140
158	120
159	280
160	80
161	100
162	50
163	80
164	80
165	180
166	300
167	220
168	80
169	140
170	80
171	140
172	120
173	160
174	60
175	80
176	40
177	60
178	100
179	120
180	140
181	140
182	100
183	120
184	80
185	160
186	80
187	80
188	40
189	70
190	20
191	60
192	60
193	120
194	60
195	220
196	140
197	140
198	60
199	120
200	60
201	60
202	80
203	100
204	40
205	80
206	80
207	140
208	70
209	320
210	140
211	160
212	50
213	80
214	100
215	300
216	80
217	80
218	40
219	140
220	50
221	250
222	100
223	180
224	60
225	120
226	80
227	120
228	50
229	50
230	60
231	40
232	40
233	40
234	40
235	40
236	60
237	700
238	340
239	260
240	80
241	80
242	50
243	50
244	50
245	50
251	40
252	40
253	100
254	120
255	240
256	120
257	100
258	60
259	40
265	120
266	140
267	160
268	60
269	100
270	40
271	60
281	120
282	120
283	100
284	60
285	120
286	100
287	80
288	40
293	80
294	20
295	60
296	60
297	940
298	320
299	140
300	240
301	140
302	40
310	140
311	60
312	40
313	40
314	100
315	70
316	50
328	320
329	120
330	60
331	40
341	40
342	100
343	60
360	100
361	20
