Mass Spectrum: 3-Phenyl-4-benzoylamino-4,5(1H)-dihydro-1,2,4-triazole-5-one
Formula: C15H12N4O2
CAS: 51003-52-2
Molecular weight: 280
m/z	intensity
44	30
50	149
51	297
52	29
62	20
63	29
64	19
73	19
74	40
75	148
76	620
77	91
78	40
91	39
103	129
104	59
105	999
106	128
118	39
119	29
121	20
132	10
145	19
161	50
223	9
280	268
