Mass Spectrum: 2-Butanone, 4-cyclopentylidene-
Formula: C9H14O
CAS: 51004-21-8
Molecular weight: 138
m/z	intensity
26	12
27	107
28	9
29	45
37	4
38	17
39	194
40	31
41	353
42	32
43	883
44	36
45	7
50	20
51	51
52	33
53	124
54	27
55	227
56	18
57	15
58	20
59	20
62	9
63	21
64	6
65	69
66	45
67	446
68	56
69	25
70	8
71	24
72	4
74	4
77	95
78	21
79	171
80	252
81	70
82	15
83	13
84	11
85	6
91	58
92	12
94	118
95	999
96	117
97	30
98	7
105	12
107	6
108	21
109	31
110	18
111	16
112	4
120	7
121	8
123	21
124	6
135	5
136	10
137	6
138	204
139	22
