Mass Spectrum: 1,2-Diazetidin-3-one, 2-(1-methylethyl)-1,4,4-triphenyl-
Formula: C23H22N2O
CAS: 51004-01-4
Molecular weight: 342
m/z	intensity
26	40
27	28
28	38
41	123
43	123
51	97
77	999
78	105
105	470
106	43
115	21
139	26
148	20
152	21
163	27
164	51
165	424
166	364
167	72
180	167
181	53
194	889
195	162
256	30
257	38
271	14
299	4
313	14
342	31
343	0
