Mass Spectrum: Tricyclo[3.3.1.1(3,7)]decanone, 4-hydroxy-, (1.alpha.,3.beta.,4.alpha.,5.alpha.,7.beta.)-
Formula: C10H14O2
CAS: 51020-65-6
Molecular weight: 166
m/z	intensity
40	579
41	268
43	68
44	284
51	61
53	129
54	63
55	221
57	116
58	58
65	61
66	161
67	205
68	71
70	129
71	55
73	61
77	158
78	632
79	999
80	263
81	239
83	76
91	189
92	237
93	142
94	92
95	147
96	368
97	79
105	63
109	89
120	113
121	53
138	353
148	247
164	121
166	321
