Mass Spectrum: Tricyclo[3.3.1.1(3,7)]decanone, 4-hydroxy-, (1.alpha.,3.beta.,4.beta.,5.alpha.,7.beta.)-
Formula: C10H14O2
CAS: 51020-64-5
Molecular weight: 166
m/z	intensity
40	252
41	323
43	83
44	98
51	68
53	142
54	65
55	249
57	175
65	74
66	142
67	249
68	89
70	203
71	95
77	178
78	585
79	999
80	323
81	314
82	55
83	135
91	222
92	231
93	132
94	135
95	237
96	708
97	123
105	74
107	58
109	160
120	123
138	601
139	64
148	252
164	74
166	523
167	58
