Mass Spectrum: Propan-2-ol, 1-tert-butylamino-3-(4-methoxyphenoxy)-
Formula: C14H23NO3
CAS: 51023-59-7
Molecular weight: 253
m/z	intensity
37	1
38	13
39	77
41	264
42	100
43	39
44	25
45	5
46	0
47	0
50	15
51	23
52	35
53	36
54	30
55	37
56	83
57	260
58	97
59	9
60	67
61	3
62	7
63	34
64	44
65	34
66	8
67	8
68	5
69	7
70	152
71	178
72	38
73	3
74	44
75	4
76	9
77	66
78	10
79	14
80	18
81	39
82	15
83	2
84	25
86	999
87	60
88	1
89	0
90	0
92	47
93	6
94	8
95	64
96	18
97	2
98	24
99	2
100	14
101	1
103	3
104	0
105	7
106	2
107	29
108	15
109	108
110	10
111	1
112	4
114	46
115	5
116	37
117	4
118	0
119	20
121	3
123	119
124	140
125	11
126	1
127	1
128	1
130	20
131	3
132	1
133	0
134	0
135	11
137	40
138	6
139	0
145	0
146	0
147	0
148	1
149	4
150	2
151	1
152	0
161	1
163	32
164	4
166	13
167	1
168	0
178	0
179	0
196	0
198	0
207	0
209	60
210	8
211	0
220	3
221	0
235	0
236	1
238	164
239	23
240	2
241	0
250	0
253	17
254	4
255	0
