Mass Spectrum: 2,5-Bis(acetoxymercuriomethyl)-p-dioxane
Formula: C10H16Hg2O6
CAS: 51023-77-9
Molecular weight: 636
m/z	intensity
12	4
13	10
14	37
15	206
16	15
17	9
18	31
25	3
26	17
27	88
28	52
29	160
30	13
31	61
32	3
36	1
37	3
38	9
39	154
40	74
41	814
42	97
43	999
44	43
45	237
46	3
47	1
50	1
51	1
52	1
53	8
54	13
55	183
56	121
57	391
58	38
59	46
60	179
61	20
62	1
65	1
66	5
67	19
68	3
69	89
70	25
71	37
72	9
73	33
74	2
75	3
79	1
81	7
82	30
83	183
84	301
85	64
86	17
87	50
88	2
89	1
91	1
94	1
95	7
96	2
97	5
98	1
99	65
100	35
101	32
102	8
103	5
109	1
110	1
111	3
112	83
113	153
114	71
115	21
116	4
117	12
118	1
123	1
127	1
129	4
130	2
131	3
141	1
142	1
143	27
144	3
145	2
149	1
156	1
157	2
158	1
159	1
172	1
173	9
174	1
185	1
187	1
196	1
198	67
199	110
200	159
201	87
202	191
203	2
204	45
213	1
214	2
215	2
216	2
217	2
227	1
228	1
229	1
230	1
231	1
239	3
240	3
241	12
242	18
243	26
244	15
245	31
246	2
247	8
255	3
256	5
257	7
258	6
259	10
260	4
261	6
262	2
263	3
276	1
277	1
279	1
281	1
282	1
283	2
284	4
285	5
286	3
287	5
288	1
289	3
291	1
299	2
300	4
301	8
302	8
303	11
304	4
305	9
307	2
312	1
313	1
314	1
315	1
316	1
317	2
318	2
319	3
320	1
321	3
323	1
341	5
342	8
343	12
344	9
345	16
346	4
347	9
348	1
349	2
371	1
372	1
373	2
374	2
375	3
376	1
377	1
399	1
400	1
401	1
402	1
459	1
460	1
461	1
462	1
463	1
569	1
570	2
571	5
572	6
573	9
574	9
575	9
576	6
577	7
578	1
579	2
