Mass Spectrum: 1,3,4-Oxadiazole, 2-(2-furyl)-5-(2-methylphenyl)-
Formula: C13H10N2O2
CAS: 51038-44-9
Molecular weight: 226
m/z	intensity
33	3
34	3
35	2
36	42
37	25
38	85
39	313
40	176
41	80
42	36
43	20
44	30
45	2
50	90
51	152
52	76
53	100
55	129
56	17
58	408
59	15
62	25
63	103
64	55
65	224
66	17
67	38
68	6
69	12
70	11
71	4
72	22
73	23
74	16
75	30
76	47
77	171
78	39
79	14
80	12
81	3
82	3
83	5
84	1
85	14
87	11
88	14
89	145
90	232
91	478
92	39
93	38
95	620
96	30
97	7
101	8
102	38
103	20
104	96
105	59
106	8
107	6
110	1
112	4
113	9
115	92
116	62
117	48
118	153
119	999
120	77
121	6
123	7
124	5
125	3
126	9
127	12
129	72
130	18
131	16
132	27
133	20
135	2
137	2
139	15
140	17
141	383
142	69
143	5
144	2
150	1
152	7
153	13
154	42
155	15
167	1
168	25
169	176
170	26
175	2
178	3
181	9
182	2
197	21
203	8
208	1
224	10
226	825
227	106
228	9
