Mass Spectrum: 2-Benzoyl-2-anil-thioacetic acid p-chloroanilide
Formula: C21H15ClN2OS
CAS: 51040-06-3
Molecular weight: 378
m/z	intensity
77	821
104	999
105	920
111	170
113	59
143	40
145	20
169	120
170	119
171	49
172	49
180	39
209	110
241	29
243	30
273	100
275	40
345	20
346	20
350	40
378	139
379	50
380	80
381	19
