Mass Spectrum: 2-Benzoyl-2-p-methylanil-thioacetic acid anilide
Formula: C22H18N2OS
CAS: 51040-03-0
Molecular weight: 358
m/z	intensity
77	970
91	459
105	999
109	90
118	932
135	191
136	250
194	49
221	29
223	109
241	29
253	110
325	29
326	30
330	30
358	319
359	39
360	39
