Mass Spectrum: 2-p-Methylbenzoyl-2-anilthioaceticacid anilide
Formula: C22H18N2OS
CAS: 51040-02-9
Molecular weight: 358
m/z	intensity
77	643
91	419
104	999
109	88
119	915
135	59
136	208
207	20
223	79
239	49
255	19
330	40
358	228
359	80
360	29
