Mass Spectrum: Benzoyl-diisopropylphosphine
Formula: C13H19OP
CAS: 51049-59-3
Molecular weight: 222
m/z	intensity
39	20
41	50
42	20
43	79
45	20
50	71
51	207
52	29
74	29
75	39
76	50
77	496
78	60
79	29
105	999
106	128
117	10
118	9
140	99
141	20
142	29
222	99
