Mass Spectrum: 2-p-Chlorobenzoyl-2-anilthioaceticacid anilide
Formula: C21H15ClN2OS
CAS: 51040-05-2
Molecular weight: 378
m/z	intensity
77	594
104	999
109	100
111	149
113	49
135	99
136	240
139	310
141	99
207	30
214	19
239	79
243	89
245	40
345	9
346	19
350	29
378	279
379	79
380	109
381	89
