Mass Spectrum: t-Butylformyl-diisopropylphosphine
Formula: C11H23OP
CAS: 51049-58-2
Molecular weight: 202
m/z	intensity
39	20
41	200
42	20
43	250
55	29
56	30
57	999
58	80
59	20
61	30
63	20
69	60
73	29
74	29
75	149
76	259
77	20
85	199
117	250
118	180
119	19
145	10
174	10
202	180
203	19
