Mass Spectrum: 2-Benzoyl-2-anil-thioacetic acide p-methylanilide
Formula: C22H18N2OS
CAS: 51040-04-1
Molecular weight: 358
m/z	intensity
77	657
91	261
104	999
105	578
123	69
149	100
150	208
182	20
209	129
221	20
253	89
255	19
325	20
326	29
330	19
358	290
359	100
360	40
