Mass Spectrum: 2-Benzoyl-2-p-chloroanilthioacetic acid anilide
Formula: C21H15ClN2OS
CAS: 51040-07-4
Molecular weight: 378
m/z	intensity
77	999
105	847
109	137
111	200
113	59
135	190
136	338
138	915
140	386
214	29
241	39
243	128
245	39
273	89
275	39
345	20
346	39
350	29
378	218
379	59
380	89
381	20
