Mass Spectrum: Methoxycarbonyl-diisopropylphosphine
Formula: C8H17O2P
CAS: 51049-60-6
Molecular weight: 176
m/z	intensity
40	99
41	532
42	90
43	874
44	90
45	121
46	167
47	158
49	40
50	128
57	30
58	29
59	549
60	28
61	139
62	29
63	109
64	40
69	127
70	30
71	229
73	239
74	445
75	592
76	127
77	70
78	20
79	299
80	30
92	999
93	58
102	246
103	69
117	537
118	494
119	108
134	692
135	98
145	49
161	9
176	874
177	98
