Mass Spectrum: 3,4-Dichloroisocoumarin
Formula: C9H4Cl2O2
CAS: 51050-59-0
Molecular weight: 214
m/z	intensity
41	6
43	81
44	64
45	3
47	31
49	96
50	118
51	44
53	29
55	5
56	2
57	11
58	19
60	42
61	259
62	309
63	178
64	4
65	29
66	4
67	1
69	5
71	15
72	10
73	206
74	78
75	133
77	64
78	4
79	23
80	12
81	3
82	4
84	70
85	77
86	123
87	150
88	106
89	19
90	42
91	2
93	36
94	22
96	60
97	131
98	37
99	54
100	5
101	2
104	1
105	13
107	11
108	14
109	12
110	5
111	5
117	3
118	4
119	3
120	5
121	12
123	999
124	82
125	305
126	21
131	7
133	28
134	13
135	5
136	1
145	9
151	247
152	33
153	80
154	10
157	5
158	315
159	34
160	222
161	26
162	40
163	3
179	93
180	16
181	29
182	5
183	3
186	602
187	35
188	422
189	20
190	69
191	5
214	375
215	38
216	250
217	24
218	41
219	4
