Mass Spectrum: Methane, sec-butoxyphenoxy-
Formula: C11H16O2
CAS: 5107-69-7
Molecular weight: 180
m/z	intensity
41	130
42	10
43	20
45	30
50	20
51	90
52	10
53	10
55	20
56	10
57	260
58	20
59	10
63	10
64	10
65	50
66	50
76	10
77	260
78	20
79	30
87	30
94	999
95	60
107	270
108	20
124	20
150	70
151	30
180	70
181	10
