Mass Spectrum: Propan-2-one, 1-(4-bromophenylsulphonyl)-
Formula: C9H9BrO3S
CAS: 51082-10-1
Molecular weight: 276
m/z	intensity
33	7
34	7
35	4
36	21
37	13
38	32
39	47
40	32
41	43
42	126
43	999
44	63
45	29
46	5
47	3
48	13
50	203
51	49
53	8
55	29
56	10
57	34
58	10
59	3
60	6
61	8
62	14
63	35
64	23
65	21
66	4
67	5
68	5
69	23
70	13
71	10
72	6
73	18
74	87
75	182
76	173
77	39
78	8
79	19
80	26
81	19
82	32
83	7
84	6
85	5
86	1
87	2
88	2
89	16
90	23
91	8
92	6
93	9
94	3
95	9
96	21
97	11
98	5
99	2
100	2
101	2
102	1
103	3
104	5
105	8
106	4
107	7
108	14
109	14
110	5
111	12
112	6
113	5
114	2
115	2
116	2
117	7
118	2
119	7
120	5
121	6
122	3
123	3
124	2
125	4
126	1
127	2
128	4
129	8
130	3
131	8
132	4
133	4
134	2
135	1
136	2
137	1
138	2
139	1
140	3
141	5
142	7
143	7
144	2
145	6
146	1
147	0
148	0
149	8
150	2
151	1
152	3
153	5
155	197
156	31
157	167
158	16
159	2
160	1
161	1
162	1
163	1
164	3
165	1
166	1
167	5
169	39
170	8
171	39
172	17
173	6
174	12
175	6
176	1
177	3
178	0
179	0
180	0
181	0
182	0
183	1
184	1
185	2
186	1
187	3
188	4
189	2
190	3
191	0
192	0
193	0
194	0
195	0
196	0
197	0
199	1
200	2
201	2
203	18
204	3
205	13
206	2
207	1
208	0
212	57
213	8
214	40
215	4
216	2
219	69
220	11
221	60
222	6
223	3
224	0
225	0
227	0
228	0
229	0
230	0
231	0
232	1
234	16
236	15
237	1
238	0
240	0
241	1
242	2
243	1
244	0
245	1
246	0
247	0
255	0
256	1
261	1
262	0
263	1
268	0
269	0
270	0
273	1
276	22
278	21
279	2
280	1
