Mass Spectrum: 1-Pyrrolidinecarbodithioic acid, ammonium salt
Formula: C5H9NS2
CAS: 5108-96-3
Molecular weight: 147
m/z	intensity
12	5
14	4
15	32
25	1
26	19
27	128
28	206
29	76
30	59
32	101
33	8
34	7
37	5
38	24
39	89
40	21
41	157
42	80
43	310
44	128
45	51
46	11
47	5
50	4
51	7
52	5
53	26
54	32
55	510
56	30
57	5
58	21
59	26
60	49
61	2
62	2
64	25
65	8
66	2
67	5
68	40
69	11
70	293
71	93
72	776
73	29
74	34
75	1
76	999
77	100
78	99
79	8
80	3
81	2
82	8
83	1
84	3
85	36
86	176
87	18
88	9
90	2
91	1
92	1
97	1
98	2
99	1
100	1
102	4
104	3
112	6
113	2
114	667
115	76
116	32
117	3
118	4
119	3
145	1
146	24
147	801
148	61
149	69
150	4
151	1
