Mass Spectrum: 1,3,6,9b-Tetraazaphenalene-4-carbonitrile, 7,9-dibromo-2-(dibromomethyl)-
Formula: C11H3Br4N5
CAS: 51080-05-8
Molecular weight: 521
m/z	intensity
26	140
27	370
28	100
29	310
30	70
36	190
37	110
38	110
39	440
40	150
41	990
42	260
43	490
44	750
49	50
50	160
51	200
52	100
53	110
54	70
55	540
56	470
57	999
58	60
62	110
63	330
64	60
65	50
67	140
68	100
69	300
70	310
71	190
74	60
75	160
76	210
77	250
78	100
79	150
80	360
81	150
82	350
83	230
84	100
85	60
88	90
89	220
90	50
91	60
95	100
97	50
98	90
101	140
102	50
104	170
105	220
109	70
110	50
111	90
118	60
120	50
122	50
123	60
128	70
139	150
142	350
144	330
148	90
149	260
166	190
183	60
222	110
223	110
245	140
247	140
259	80
261	80
284	60
285	90
286	100
287	90
288	90
362	90
364	330
365	170
366	420
367	230
368	210
369	110
442	200
443	200
444	610
445	590
446	650
447	590
448	270
449	210
521	120
523	450
525	640
526	100
527	420
528	70
529	110
