Mass Spectrum: 2-(N-Phenylcarbamyl)cyclohexanone
Formula: C13H15NO2
CAS: 51089-06-6
Molecular weight: 217
m/z	intensity
41	275
42	57
43	41
44	4
45	2
47	1
49	5
50	13
51	58
52	18
53	41
54	9
55	248
56	10
57	8
58	2
59	1
61	1
62	4
63	21
64	20
65	90
66	56
67	34
68	21
69	122
70	49
71	3
72	4
74	6
75	2
76	4
77	92
78	7
79	40
80	3
81	32
83	34
84	4
85	0
86	4
89	2
90	3
91	17
92	35
93	999
94	85
95	11
96	3
97	34
98	139
99	8
101	1
102	0
103	2
104	5
105	1
106	5
107	1
109	2
114	3
115	2
116	1
117	4
118	3
119	6
120	10
121	1
123	4
124	1
125	52
126	3
127	0
128	2
129	1
130	4
131	1
132	4
133	1
134	5
135	1
143	1
144	1
146	3
148	17
149	2
158	1
160	3
161	8
162	1
170	1
172	0
184	2
188	3
189	0
190	0
198	2
199	2
200	1
217	118
218	28
219	3
