Mass Spectrum: 4-Nonene, 2-methyl-, (Z)-
Formula: C10H20
CAS: 51090-05-2
Molecular weight: 140
m/z	intensity
27	150
29	130
39	140
41	510
43	490
55	950
56	999
57	390
67	110
69	540
70	230
83	120
84	160
97	90
98	70
112	40
125	20
140	220
