Mass Spectrum: Benzenepropanoic acid, .alpha.,4-dihydroxy-, methyl ester
Formula: C10H12O4
CAS: 51095-47-7
Molecular weight: 196
m/z	intensity
12	2
13	3
14	8
15	152
16	1
17	1
18	0
19	5
24	0
25	1
26	18
27	52
28	13
29	118
30	22
31	35
32	3
33	32
34	0
35	0
36	0
37	7
38	22
39	79
40	6
41	13
42	6
43	22
44	3
45	8
46	0
47	0
48	0
49	5
50	35
51	81
52	40
53	47
54	2
55	44
56	1
57	0
58	2
59	43
60	2
61	11
62	19
63	35
64	10
65	47
66	8
67	5
68	3
69	1
71	0
73	2
74	10
75	5
76	2
77	135
78	47
79	33
80	2
81	13
82	1
84	0
85	1
86	2
87	1
88	0
89	13
90	11
91	74
92	5
93	3
94	22
95	11
96	0
97	0
98	0
99	0
101	2
102	0
103	1
104	0
105	8
106	8
107	999
108	86
109	11
110	0
117	1
118	10
119	20
120	10
121	2
123	0
133	0
134	1
135	2
136	22
137	35
138	2
139	0
145	0
147	18
148	1
149	1
150	0
151	0
162	0
163	0
164	0
167	0
177	3
178	40
179	4
180	1
186	0
194	0
196	67
197	8
198	1
199	0
