Mass Spectrum: 5-Ethoxy-3,4-dihydro-2H-pyrrole-2-carboxylic acid, ethyl ester
Formula: C9H15NO3
CAS: 51099-55-9
Molecular weight: 185
m/z	intensity
25	2
26	37
27	187
28	268
29	251
30	24
31	8
38	4
39	33
40	10
41	261
42	23
43	16
44	8
45	11
52	5
53	3
54	28
55	76
56	147
57	15
58	2
66	10
67	6
68	11
69	6
70	2
73	23
82	11
83	19
84	999
85	54
86	6
102	17
110	3
112	745
113	54
114	3
157	8
158	10
185	25
186	6
