Mass Spectrum: Megacarpidin
Formula: C27H45NO2
CAS: 511-98-8
Molecular weight: 415
m/z	intensity
41	90
42	29
43	78
44	16
45	1
49	6
51	3
53	23
54	15
55	126
56	10
57	40
58	11
59	3
65	6
67	72
68	32
69	54
70	28
71	10
73	5
77	23
79	82
81	94
82	20
83	24
84	19
85	1
86	11
91	51
93	75
95	81
96	29
97	5
98	49
99	1
103	3
105	52
107	86
108	35
109	28
110	25
111	76
113	566
114	999
115	63
117	17
119	29
120	5
121	47
122	36
124	81
125	71
126	14
127	3
128	2
129	8
131	18
133	32
134	8
135	23
136	14
138	732
139	108
140	12
141	2
143	11
144	1
145	18
146	1
147	28
148	4
149	21
150	14
152	54
153	4
154	3
156	1
157	7
158	1
159	17
161	45
162	15
163	6
164	20
166	37
167	2
168	14
171	6
173	10
175	14
176	13
177	9
178	16
180	19
185	5
187	8
189	5
190	6
192	15
194	6
198	1
199	4
201	7
202	1
204	1
206	2
215	5
216	6
219	1
229	5
232	1
233	1
234	5
245	1
255	7
258	1
269	7
273	20
274	5
285	7
287	10
288	6
302	5
304	1
316	19
317	3
344	6
358	7
359	7
372	7
386	27
387	57
388	14
397	3
400	20
401	6
414	19
415	66
416	29
417	6
