Mass Spectrum: Ergocristine
Formula: C35H39N5O5
CAS: 511-08-0
Molecular weight: 609
m/z	intensity
12	1
14	2
15	38
16	6
17	10
18	26
26	13
27	197
28	157
29	27
30	17
31	3
37	2
38	8
39	126
40	33
41	423
42	207
43	999
44	192
45	15
46	3
50	15
51	50
52	14
53	18
54	19
55	67
56	26
57	12
58	6
59	3
61	2
62	8
63	38
64	10
65	107
66	16
67	14
68	102
69	111
70	969
71	754
72	61
73	4
74	11
75	24
76	32
77	135
78	37
79	5
80	9
81	7
82	11
83	29
85	5
86	4
87	7
89	50
90	40
91	298
92	41
93	7
94	6
96	23
97	29
98	26
99	10
100	6
101	14
102	28
103	96
104	53
105	16
106	2
107	1
108	2
110	41
111	47
112	16
113	9
114	7
115	21
116	11
117	22
118	15
119	9
120	19
121	4
122	2
123	5
124	10
125	134
126	37
127	67
128	209
129	26
130	12
131	109
132	22
133	3
136	1
137	8
138	10
139	31
140	22
141	18
142	6
143	3
144	6
145	7
146	56
147	8
148	1
149	4
150	21
151	60
152	83
153	248
154	121
155	23
156	4
157	1
158	1
159	1
160	2
161	1
162	6
163	9
164	15
165	19
166	21
167	67
168	23
169	5
170	3
171	2
172	6
173	9
174	4
175	3
176	5
177	14
178	61
179	65
180	116
181	78
182	24
183	7
184	2
185	1
186	1
187	3
188	1
189	1
190	5
191	21
192	54
193	25
194	19
195	32
196	72
197	13
198	2
200	33
201	47
202	48
203	9
204	3
205	49
206	35
207	135
208	37
209	45
210	6
211	1
215	10
216	3
217	2
218	1
219	7
220	27
221	138
222	40
223	110
224	67
225	10
226	2
227	3
228	2
229	5
230	1
233	2
234	1
235	3
236	1
237	2
238	1
243	136
244	118
245	30
246	4
247	1
248	2
249	6
250	6
251	3
252	5
253	1
254	2
255	1
264	1
265	1
266	17
267	182
268	36
269	4
271	24
272	36
273	26
274	4
299	1
314	18
315	4
322	1
324	2
325	1
342	79
343	18
344	2
365	1
