Mass Spectrum: Ergotaman-3',6',18-trione, 12'-hydroxy-2'-(1-methylethyl)-5'-(2-methylpropyl)-, (5'.alpha.)-
Formula: C32H41N5O5
CAS: 511-09-1
Molecular weight: 575
m/z	intensity
41	160
43	999
51	122
55	185
57	198
69	251
70	855
71	555
83	99
85	77
86	60
95	60
96	59
97	98
98	58
113	50
124	57
125	90
127	49
139	59
149	106
153	88
154	508
167	90
179	60
180	106
181	87
192	90
195	170
196	107
207	129
209	244
210	109
221	130
223	89
224	109
238	99
246	77
252	59
267	224
268	50
308	20
