Mass Spectrum: 1H-Imidazole-1-propanoic acid, .alpha.-hydroxy-, (S)-
Formula: C6H8N2O3
CAS: 51103-59-4
Molecular weight: 156
m/z	intensity
39	29
40	18
41	29
42	12
44	17
45	15
52	25
53	16
54	119
55	37
56	19
68	32
81	999
82	272
83	68
84	10
93	24
94	40
95	104
109	15
110	14
111	583
112	63
120	13
121	9
138	29
139	7
156	57
157	29
