Mass Spectrum: Butanoic acid, 2-methyl-, 3,7-dimethyl-2,6-octadienyl ester, (Z)-
Formula: C15H26O2
CAS: 51117-19-2
Molecular weight: 238
m/z	intensity
26	1
27	13
28	4
29	36
30	1
38	1
39	48
40	18
41	346
42	22
43	31
44	3
45	4
50	2
51	6
52	6
53	73
54	10
55	47
56	14
57	333
58	13
59	7
62	1
65	15
66	9
67	203
68	532
69	999
70	57
71	7
72	1
73	3
74	12
77	21
79	55
80	325
81	158
82	18
83	12
84	11
85	180
86	11
87	3
92	139
93	709
94	111
95	50
96	5
97	8
98	4
107	96
108	27
110	2
111	5
112	2
121	357
122	36
123	35
124	4
136	153
137	39
138	3
139	5
143	1
153	2
154	23
155	3
156	1
168	2
169	8
207	3
238	3
