Mass Spectrum: Cyclopentene, 3-methyl-1-(1-methylethyl)-
Formula: C9H16
CAS: 51115-02-7
Molecular weight: 124
m/z	intensity
27	11
28	15
32	10
38	8
39	72
41	85
51	11
53	60
54	18
55	39
57	23
61	5
65	66
66	8
67	430
68	50
69	132
78	7
79	98
80	69
81	999
82	144
83	63
84	45
88	5
95	29
109	354
110	44
124	326
125	37
