Mass Spectrum: (R)-5-Methyl-2-(prop-1-en-2-yl)hex-4-en-1-yl 3-methylbutanoate
Formula: C15H26O2
CAS: 51117-21-6
Molecular weight: 238
m/z	intensity
26	2
27	48
28	33
29	162
30	5
31	3
38	5
39	97
40	21
41	650
42	21
43	17
47	1
50	3
51	12
52	12
53	97
54	12
55	121
56	34
57	840
58	38
63	5
65	35
66	11
67	164
68	467
69	999
70	56
71	2
73	1
74	5
77	49
78	19
79	99
80	293
81	78
82	27
83	7
84	9
85	101
86	8
87	1
91	47
92	121
93	876
94	123
95	35
100	1
101	1
103	13
105	49
106	9
107	120
108	29
113	2
121	363
122	52
123	65
124	8
125	1
129	2
130	1
135	10
136	121
137	23
139	1
140	1
141	2
142	2
145	2
146	1
147	4
149	1
150	3
153	3
154	2
156	25
157	3
159	1
164	1
165	1
166	1
169	11
187	2
190	1
195	1
202	3
203	1
205	1
238	7
239	1
