Mass Spectrum: 2H-1,6-Benzoxazocin-5(6H)-one, 3,4-dihydro-
Formula: C10H11NO2
CAS: 51110-93-1
Molecular weight: 177
m/z	intensity
18	141
28	180
39	150
41	502
45	52
52	222
65	85
69	999
80	118
91	36
92	36
93	34
109	767
120	46
135	23
177	186
