Mass Spectrum: Fragranyl isobutyrate
Formula: C14H24O2
CAS: 51117-23-8
Molecular weight: 224
m/z	intensity
26	2
27	53
28	12
29	27
30	1
31	2
37	1
38	4
39	103
40	39
41	358
42	41
43	420
44	15
45	4
50	3
51	17
52	13
53	131
54	15
55	75
56	11
57	6
59	3
63	5
64	1
65	35
66	17
67	394
68	999
69	327
70	20
71	216
72	10
73	3
77	48
78	8
79	81
80	72
81	90
82	12
84	4
85	6
88	1
89	11
91	40
92	44
93	331
94	79
95	35
96	5
97	4
98	2
101	1
106	6
107	164
108	178
109	52
110	4
111	2
112	1
121	219
122	22
123	6
124	1
135	4
136	53
137	11
138	1
139	2
140	1
153	2
154	4
155	2
156	1
224	2
