Mass Spectrum: 4-Pentenoic acid, 2-methylene-, methyl ester
Formula: C7H10O2
CAS: 51122-89-5
Molecular weight: 126
m/z	intensity
13	12
14	46
15	604
16	9
17	8
18	36
25	9
26	103
27	291
28	74
29	155
30	43
31	43
32	6
33	7
37	47
38	140
39	965
40	270
41	950
42	86
43	135
44	70
45	66
49	6
50	38
51	70
52	38
53	118
54	44
55	124
56	13
57	19
58	40
59	19
60	7
61	15
62	29
63	64
64	23
65	309
66	465
67	999
68	94
69	29
70	4
71	22
72	21
73	60
74	6
77	7
78	4
79	17
80	4
82	7
83	107
84	39
85	8
93	59
94	218
95	342
96	104
97	26
98	13
99	13
109	7
111	418
112	28
113	3
117	3
119	3
124	5
125	46
126	150
127	13
