Mass Spectrum: 3-Buten-2-ol, 4-(2,2,6-trimethyl-7-oxabicyclo[4.1.0]hept-1-yl)-
Formula: C13H22O2
CAS: 51138-08-0
Molecular weight: 210
m/z	intensity
28	669
43	999
55	380
69	499
83	200
95	360
109	360
125	200
135	100
149	400
165	240
177	160
192	90
210	20
