Mass Spectrum: Pyridinium, 1-amino-2-methyl-, hydroxide, inner salt
Formula: C6H8N2
CAS: 51135-75-2
Molecular weight: 108
m/z	intensity
41	60
42	40
43	60
44	90
50	90
51	190
52	120
53	90
54	40
55	20
63	60
64	40
65	580
66	200
67	70
77	90
78	150
79	70
80	140
81	60
91	30
92	600
93	270
108	999
109	100
