Mass Spectrum: Cyclohexene, 1-(3-ethoxy-1-propenyl)-, (Z)-
Formula: C11H18O
CAS: 51149-78-1
Molecular weight: 166
m/z	intensity
12	2
13	6
14	33
15	164
16	7
17	2
18	5
19	5
25	3
26	68
27	723
28	99
29	738
30	34
31	179
32	2
37	8
38	33
39	558
40	85
41	761
42	53
43	185
44	23
45	24
49	2
50	49
51	301
52	172
53	407
54	93
55	587
56	33
57	352
58	23
59	55
60	3
61	9
62	32
63	109
64	30
65	247
66	143
67	835
68	98
69	113
70	187
71	30
72	8
73	6
74	1
75	24
76	15
77	473
78	239
79	999
80	161
81	473
82	73
83	144
84	22
85	79
86	9
87	5
88	4
89	20
90	27
91	760
92	799
93	451
94	217
95	246
96	81
97	62
98	73
99	8
101	3
102	8
103	37
104	22
105	286
106	40
107	112
108	25
109	194
110	43
111	49
112	10
113	3
115	22
116	8
117	30
118	10
119	163
120	465
121	180
122	63
123	57
124	21
125	31
126	3
135	7
136	7
137	153
138	53
139	13
151	11
164	5
165	23
166	632
167	77
168	5
