Mass Spectrum: 2-Heptene, 1-ethoxy-, (Z)-
Formula: C9H18O
CAS: 51149-74-7
Molecular weight: 142
m/z	intensity
12	3
13	7
14	30
15	159
16	7
17	11
18	35
19	30
25	3
26	51
27	540
28	92
29	489
30	22
31	205
32	2
33	2
37	9
38	24
39	279
40	41
41	420
42	91
43	370
44	208
45	999
46	27
47	5
49	1
50	11
51	21
52	11
53	64
54	233
55	364
56	65
57	720
58	46
59	42
60	2
61	1
62	1
63	3
65	10
66	7
67	95
68	45
69	45
70	31
71	85
72	43
73	83
74	4
77	5
78	1
79	7
80	2
81	97
82	7
83	8
84	1
85	449
86	28
87	7
88	2
91	1
93	1
95	11
96	107
97	26
98	4
99	83
100	6
113	14
114	2
127	1
141	1
142	20
143	2
