Mass Spectrum: 2-Propanone, 1-(1-cyclohexen-1-yl)-3-ethoxy-
Formula: C11H18O2
CAS: 51149-72-5
Molecular weight: 182
m/z	intensity
12	3
13	5
14	26
15	74
16	8
17	34
18	114
19	4
25	3
26	43
27	345
28	88
29	475
30	23
31	332
32	12
33	3
37	4
38	15
39	228
40	43
41	337
42	42
43	70
44	16
45	30
46	9
47	2
50	15
51	92
52	68
53	199
54	57
55	222
56	14
57	19
58	13
59	927
60	36
61	6
62	11
63	31
64	10
65	84
66	72
67	235
68	28
69	11
70	4
71	6
72	4
73	5
74	4
75	5
76	3
77	102
78	37
79	223
80	91
81	110
82	21
83	6
85	3
86	14
87	2
88	11
89	5
90	2
91	58
92	12
93	137
94	79
95	999
96	83
97	7
101	11
103	3
105	6
106	2
107	22
108	67
109	14
110	8
111	4
117	2
119	3
120	2
121	8
122	32
123	285
124	26
125	3
134	2
135	11
136	33
137	6
138	36
139	9
140	4
153	13
154	2
164	2
182	255
183	32
184	3
