Mass Spectrum: 2-Pentene, 1-ethoxy-4-methyl-, (Z)-
Formula: C8H16O
CAS: 51149-75-8
Molecular weight: 128
m/z	intensity
12	1
13	5
14	27
15	139
16	6
17	2
18	6
19	3
25	2
26	42
27	455
28	68
29	575
30	40
31	220
32	3
37	7
38	24
39	305
40	53
41	516
42	53
43	307
44	200
45	41
46	1
49	7
50	14
51	29
52	13
53	91
54	34
55	313
56	66
57	999
58	46
59	93
60	3
61	1
62	2
63	6
64	2
65	18
66	12
67	275
68	33
69	48
70	8
71	31
72	70
73	7
77	5
78	1
79	9
80	2
81	36
82	282
83	78
84	9
85	632
86	37
87	12
97	2
98	2
99	7
100	1
111	1
113	13
114	1
115	1
127	2
128	5
