Mass Spectrum: 2-Propanone, 1-cyclopentyl-3-ethoxy-
Formula: C10H18O2
CAS: 51149-71-4
Molecular weight: 170
m/z	intensity
13	2
14	15
15	53
16	2
17	1
18	3
19	2
25	0
26	25
27	250
28	66
29	366
30	14
31	459
32	5
33	2
37	2
38	7
39	154
40	29
41	370
42	75
43	91
44	6
45	8
46	0
47	1
48	0
50	14
51	29
52	16
53	77
54	64
55	447
56	24
57	14
58	77
59	453
60	17
61	2
62	2
63	5
64	1
65	13
66	28
67	96
68	40
69	95
70	7
71	5
72	1
73	5
74	2
75	6
77	9
78	2
79	11
80	3
81	30
82	11
83	999
84	66
85	4
87	1
88	1
91	2
92	1
93	2
95	6
96	2
97	3
98	1
99	1
101	2
102	33
103	12
104	0
107	1
108	11
109	3
110	15
111	460
112	35
113	3
123	1
124	1
126	68
127	12
128	1
170	2
171	1
