Mass Spectrum: N-Methyl-3-piperidinecarboxamide
Formula: C7H14N2O
CAS: 5115-98-0
Molecular weight: 142
m/z	intensity
38	3
39	87
40	26
41	91
42	159
43	94
44	149
45	9
50	8
51	20
52	19
53	75
54	107
55	454
56	482
57	690
58	235
59	16
60	35
65	10
66	4
67	52
68	229
69	57
70	108
71	14
72	2
73	7
74	2
77	4
78	13
79	4
80	49
81	32
82	276
83	335
84	999
85	78
86	567
87	48
94	4
95	9
96	7
97	7
98	18
99	35
100	9
101	9
106	4
109	3
110	58
111	13
112	40
113	14
114	15
125	5
135	4
140	4
141	9
142	47
143	5
