Mass Spectrum: (-)-cis-Myrtanol
Formula: C10H18O
CAS: 51152-12-6
Molecular weight: 154
m/z	intensity
26	14
27	354
28	28
29	229
30	5
31	252
37	2
38	10
39	360
40	56
41	999
42	65
43	215
44	8
45	6
50	14
51	57
52	29
53	195
54	127
55	449
56	62
57	103
58	6
59	26
62	1
63	12
64	1
65	81
66	41
67	762
68	107
69	669
70	71
71	20
72	8
73	0
74	0
75	0
76	0
77	153
78	38
79	293
80	192
81	523
82	374
83	91
84	15
85	12
86	3
87	0
89	0
91	127
92	60
93	516
94	111
95	161
96	34
97	23
98	17
99	7
100	4
103	4
104	0
105	25
106	5
107	83
108	72
109	13
110	8
111	36
112	9
115	0
117	0
119	2
121	209
122	25
123	358
124	34
125	1
126	3
135	0
136	69
137	7
139	9
154	3
