Mass Spectrum: Selenourea, N,N-diethyl-
Formula: C5H12N2Se
CAS: 5117-17-9
Molecular weight: 180
m/z	intensity
26	127
27	81
28	605
29	283
30	538
32	306
40	23
41	219
42	279
43	324
44	805
55	390
56	282
57	224
58	999
98	31
99	14
100	338
176	16
178	205
179	25
180	512
