Mass Spectrum: 3-Furonitrile, 2,5-dihydro-2-oxo-4,5-diphenyl-
Formula: C17H11NO2
CAS: 5117-96-4
Molecular weight: 261
m/z	intensity
33	4
34	6
36	3
37	10
38	50
39	203
40	90
41	41
42	13
43	32
44	35
45	15
46	2
47	0
48	4
50	239
51	456
52	94
53	20
54	6
55	25
56	9
57	21
58	2
59	1
61	25
62	64
63	124
64	30
65	37
66	6
67	13
68	10
69	13
70	10
71	10
73	8
74	97
75	93
76	94
77	506
78	95
79	16
80	7
81	14
82	11
83	9
84	7
85	9
86	23
87	45
88	47
89	45
90	12
91	28
92	14
93	11
95	50
97	9
98	19
99	37
100	92
101	53
102	28
103	8
105	999
106	73
107	11
108	13
109	6
110	7
111	11
112	15
113	30
114	17
115	11
116	3
117	1
118	1
119	0
120	1
121	2
122	5
123	7
124	7
127	473
128	130
129	15
130	2
131	1
133	1
134	1
135	12
136	11
137	6
138	6
139	13
140	25
141	3
142	1
144	2
145	0
147	0
148	0
149	3
150	10
151	10
152	8
153	2
154	2
155	5
156	10
157	1
159	0
161	2
163	11
164	16
165	24
166	5
167	4
168	0
170	0
171	7
172	0
173	0
174	1
175	6
176	16
177	17
178	21
179	2
181	0
182	0
183	3
184	1
185	0
186	1
187	11
188	13
189	38
190	23
191	4
192	0
193	0
194	3
195	0
198	0
199	4
200	3
201	4
202	4
203	16
204	32
205	12
206	5
207	0
212	2
214	26
215	9
216	24
217	16
218	2
219	0
228	0
230	0
231	1
232	85
233	14
234	1
235	0
246	0
258	0
259	3
260	4
261	137
262	23
263	2
264	0
