Mass Spectrum: 2-[2-[2-[2-[2-[2-[2-(2-Hydroxyethoxy)ethoxy]ethoxy]ethoxy]ethoxy]ethoxy]ethoxy]ethanol
Formula: C16H34O9
CAS: 5117-19-1
Molecular weight: 370
m/z	intensity
14	1
15	5
18	1
19	9
26	3
27	20
28	40
29	41
30	8
31	36
32	1
33	1
39	1
40	1
41	15
42	20
43	110
44	101
45	999
46	24
47	3
55	1
56	3
57	21
58	70
59	100
60	6
61	8
62	1
63	1
68	1
69	3
70	17
71	21
72	65
73	88
74	7
75	30
76	2
77	11
78	1
80	2
83	1
84	1
85	2
86	20
87	197
88	88
89	536
90	25
91	5
99	3
100	3
101	39
102	15
103	49
104	6
105	5
107	3
113	3
114	3
115	7
116	6
117	23
118	4
119	10
120	1
121	18
122	1
129	1
130	1
131	53
132	7
133	195
134	14
135	3
145	2
146	1
147	6
148	1
149	1
151	5
157	1
158	1
159	2
161	1
163	10
164	1
165	4
175	22
176	2
177	32
178	3
179	1
189	1
193	1
195	4
201	1
207	7
208	1
209	2
219	3
221	3
239	1
251	2
252	1
253	1
283	4
284	1
295	1
327	1
