Mass Spectrum: 2,2-Dichloroethanol, TMS derivative
Formula: C5H12Cl2OSi
CAS: 51209-79-1
Molecular weight: 186
m/z	intensity
14	1
15	6
26	4
27	11
28	4
29	11
30	2
31	3
35	1
37	1
38	1
39	3
41	3
42	15
43	64
44	17
45	86
46	6
47	20
48	6
49	7
50	3
51	2
52	1
53	7
54	2
55	11
56	3
57	9
58	35
59	38
60	8
61	16
62	8
63	38
64	6
65	41
66	3
67	11
68	4
69	3
70	3
71	5
72	15
73	393
74	37
75	41
76	4
77	4
78	6
79	37
80	5
81	14
82	2
83	32
84	1
85	21
86	1
87	5
88	12
89	1
90	1
91	1
93	999
94	92
95	417
96	31
97	18
98	2
99	2
100	1
101	3
103	283
104	28
105	13
106	1
107	1
113	7
114	1
115	6
116	1
117	2
119	1
121	7
122	1
123	3
135	91
136	9
137	33
138	3
139	1
151	1
155	1
157	1
171	152
172	15
173	102
174	10
175	19
176	2
177	1
