Mass Spectrum: 2-(1-Hydroxy-1-methyl-ethyl)-pyrrolidine-1-carboxylic acid, benzyl ester
Formula: C15H21NO3
CAS: 51207-68-2
Molecular weight: 263
m/z	intensity
26	4
27	23
28	29
29	16
30	6
31	31
37	4
38	10
39	62
40	10
41	81
42	34
43	58
44	7
45	4
49	3
50	28
51	65
52	19
53	18
54	7
55	13
56	8
57	5
58	3
59	98
60	4
61	4
62	9
63	31
64	11
65	118
66	9
67	7
68	38
69	72
70	217
71	15
73	2
74	10
75	8
76	8
77	116
78	29
79	199
80	22
81	7
82	10
83	12
84	6
85	4
86	2
87	4
88	2
89	38
90	36
91	999
92	112
93	6
94	2
95	3
96	14
97	13
98	7
99	2
102	2
104	3
105	13
106	4
107	151
108	174
109	14
110	6
111	2
112	13
113	5
114	554
115	41
116	5
121	2
122	3
127	3
131	3
135	3
138	2
139	7
140	4
141	3
142	3
155	15
156	6
159	3
160	278
161	37
162	3
165	7
166	3
167	13
168	12
169	3
172	5
178	2
179	5
180	4
181	2
203	2
204	137
205	43
206	6
248	5
263	1
