Mass Spectrum: 4,5-Dihydro-4,4-pentamethylene-2-phenyl-1,3-oxazin-6-one
Formula: C15H17NO2
CAS: 51219-66-0
Molecular weight: 243
m/z	intensity
41	31
43	30
77	362
78	25
81	41
96	23
105	999
106	101
122	59
123	9
187	21
200	21
215	50
216	9
243	49
244	11
