Mass Spectrum: 2-Phenyl-4,4,5,5-tetramethyl-4,5-dihydro-1,3-oxazin-6-one
Formula: C14H17NO2
CAS: 51219-68-2
Molecular weight: 231
m/z	intensity
39	43
40	12
41	124
42	93
43	12
44	32
45	6
51	76
52	11
69	102
70	514
71	21
76	34
77	292
78	19
84	92
85	11
103	99
104	32
105	999
106	88
107	11
128	54
129	8
162	576
163	82
164	6
173	234
174	32
175	6
231	198
232	34
233	9
