Mass Spectrum: DL-Norvaline, methyl ester
Formula: C6H13NO2
CAS: 51220-50-9
Molecular weight: 131
m/z	intensity
15	51
18	26
27	49
28	104
29	57
30	475
31	12
33	59
39	28
41	34
42	59
43	65
44	100
45	2
49	8
51	2
53	2
54	8
55	53
56	44
57	14
59	12
60	16
70	16
72	999
73	49
74	14
88	159
132	16
