Mass Spectrum: DL-Norleucine, methyl ester
Formula: C7H15NO2
CAS: 51220-79-2
Molecular weight: 145
m/z	intensity
15	57
18	28
26	2
27	79
28	142
29	81
30	651
31	16
33	83
39	44
41	114
42	77
43	142
44	161
45	8
53	4
54	12
55	16
56	102
57	34
59	16
60	24
67	4
69	69
70	12
72	2
74	16
84	14
86	999
87	69
88	159
89	8
146	16
