Mass Spectrum: Acetic acid, 2-(4-methyl-2-thiazolyl)-, ethyl ester
Formula: C8H11NO2S
CAS: 51221-43-3
Molecular weight: 185
m/z	intensity
33	4
36	0
37	10
38	22
39	59
40	36
41	31
42	62
43	38
45	185
47	13
50	0
51	10
52	10
53	9
54	4
56	4
57	17
58	18
59	12
60	7
61	2
63	2
64	7
66	30
67	22
68	87
69	58
71	319
72	256
73	36
74	10
75	2
76	1
77	3
78	3
79	2
80	2
82	1
84	10
85	49
86	6
87	6
88	8
89	0
94	1
95	0
96	8
97	10
98	1
99	0
100	1
103	0
105	1
107	0
108	9
112	999
113	283
114	52
115	39
116	3
125	6
126	14
127	3
128	3
131	1
133	19
139	29
140	62
141	4
142	2
143	0
151	0
153	4
160	3
176	0
180	1
183	4
185	485
186	38
187	22
188	1
