Mass Spectrum: Heptanedioic acid, dibutyl ester
Formula: C15H28O4
CAS: 51238-94-9
Molecular weight: 272
m/z	intensity
41	676
42	222
43	212
44	60
45	40
48	50
49	70
53	30
54	40
55	616
56	585
57	414
58	30
59	30
60	191
61	50
63	80
67	30
68	90
69	434
70	70
71	70
73	292
74	30
79	20
80	30
81	30
82	20
83	232
84	20
86	50
87	60
95	20
96	70
97	414
98	90
99	30
100	50
101	787
102	50
113	30
114	212
115	242
116	70
117	30
123	20
124	191
125	999
126	201
127	20
129	30
141	30
142	100
143	999
144	111
156	50
157	212
158	30
170	50
172	50
198	30
199	747
200	121
