Mass Spectrum: Benzene, (1-iodoethenyl)-
Formula: C8H7I
CAS: 51246-20-9
Molecular weight: 230
m/z	intensity
25	2
26	20
27	21
28	6
29	1
30	0
31	0
35	1
36	4
37	14
38	23
39	40
40	13
41	1
42	1
43	13
44	1
45	3
46	0
48	1
49	11
50	106
51	126
52	31
53	4
54	1
55	1
56	0
57	0
58	0
60	2
61	17
62	30
63	48
64	5
65	3
66	3
67	1
68	0
69	0
71	0
72	0
73	11
74	57
75	47
76	76
77	294
78	19
83	0
84	0
85	1
86	3
87	5
88	1
89	0
93	0
94	0
95	0
96	0
97	3
98	11
99	2
100	1
101	10
102	144
103	999
104	93
105	9
107	0
108	1
109	0
110	0
112	0
117	0
120	1
121	0
125	0
127	120
128	13
129	0
134	0
136	0
138	0
139	0
141	0
150	0
151	0
152	0
153	0
155	0
163	0
165	0
166	0
167	0
176	0
178	0
179	0
180	0
183	0
185	0
186	0
187	0
189	0
191	0
202	0
203	0
204	0
205	0
207	0
210	0
216	0
230	54
231	4
232	0
