Mass Spectrum: N-Acetyl-O-trimethylsilyl kanamycin
Formula: C47H100N4O15Si7
CAS: 51246-90-3
Molecular weight: 1156
m/z	intensity
73	999
75	300
103	255
116	272
129	110
144	120
147	391
169	100
172	60
173	323
174	90
182	55
183	50
186	105
191	50
195	55
198	80
199	75
200	55
204	340
205	65
210	65
211	70
217	365
218	70
223	55
224	100
226	80
240	125
242	75
243	75
260	119
271	357
272	75
300	50
301	80
329	50
330	383
331	105
332	170
347	50
348	55
361	400
362	95
391	50
419	50
420	699
421	290
422	100
436	115
467	50
630	44
631	22
632	20
648	20
719	21
720	100
721	65
722	40
723	20
738	38
739	27
766	73
767	40
768	25
792	20
808	15
809	7
810	85
811	55
812	35
813	20
838	340
839	204
840	90
841	35
842	15
843	5
851	16
852	15
853	10
854	5
924	9
925	7
926	5
952	7
953	6
954	13
955	10
956	6
976	17
977	14
978	8
1069	17
1070	14
1071	8
1141	85
1142	70
1155	9
1156	8
1157	6
