Mass Spectrum: Buminafos
Formula: C18H38NO3P
CAS: 51249-05-9
Molecular weight: 347
m/z	intensity
41	137
42	48
44	23
51	22
53	29
54	194
55	47
56	18
57	15
65	18
67	49
68	107
69	39
77	81
78	12
79	183
80	51
81	174
82	300
83	81
91	23
93	33
94	22
95	13
96	328
97	417
98	41
107	12
108	22
109	10
110	999
111	296
112	23
124	215
125	27
138	38
152	81
153	89
154	23
