Mass Spectrum: 2-(2-Diethylaminoethylamino)ethanol
Formula: C8H20N2O
CAS: 51254-17-2
Molecular weight: 160
m/z	intensity
14	0
15	6
18	4
19	1
26	2
27	27
28	46
29	53
30	104
31	17
32	0
38	0
39	2
40	1
41	11
42	47
43	19
44	32
45	10
49	0
52	0
54	6
56	65
57	21
58	160
59	5
60	0
65	0
67	0
68	2
69	2
70	13
71	6
72	48
73	3
74	27
75	1
80	0
82	1
84	7
86	999
87	71
88	14
89	0
96	0
97	0
98	1
99	5
100	7
101	1
102	0
113	3
114	0
127	1
129	1
130	0
142	4
143	1
