Mass Spectrum: 1,3,4,5-Tetra-O-acetyl-2-acetamido-2,6-dideoxy-D-galactitol
Formula: C16H25NO9
CAS: 51268-94-1
Molecular weight: 375
m/z	intensity
55	49
58	139
59	129
60	429
61	39
70	49
71	39
72	89
73	24
83	14
84	999
85	249
86	39
96	29
97	14
98	349
99	209
100	29
101	35
102	539
103	69
112	61
114	129
115	99
126	49
127	59
128	39
129	79
130	79
139	19
140	189
141	129
144	499
145	169
153	79
154	39
156	45
157	19
158	49
168	49
169	19
170	24
171	9
172	39
173	1
174	9
182	61
183	4
186	43
187	26
188	19
195	79
196	15
200	63
201	179
202	19
213	12
214	4
229	12
230	4
231	15
242	63
243	8
246	15
255	0
256	9
258	4
259	9
260	102
261	9
272	0
273	1
302	41
303	4
376	0
