Mass Spectrum: (E)-2,6-Dimethylocta-3,7-diene-2,6-diol
Formula: C10H18O2
CAS: 51276-34-7
Molecular weight: 170
m/z	intensity
27	22
29	16
31	13
39	40
40	9
41	95
42	22
43	399
44	11
45	12
50	4
52	5
53	36
54	22
55	99
56	21
57	13
58	4
67	422
69	47
70	14
71	687
72	32
82	999
83	78
84	12
85	95
109	12
119	6
125	6
134	4
