Mass Spectrum: 5,6-Azulenedimethanol, 1,2,3,3a,8,8a-hexahydro-2,2,8-trimethyl-, (3a.alpha.,8.beta.,8a.alpha.)-
Formula: C15H24O2
CAS: 51276-18-7
Molecular weight: 236
m/z	intensity
39	431
40	87
41	999
42	115
43	409
51	129
52	67
53	338
55	658
56	166
57	187
65	218
66	71
67	306
69	350
77	454
78	141
79	443
80	94
81	356
82	87
83	160
91	65
92	145
93	323
94	151
95	357
96	97
97	150
103	113
105	467
106	145
107	294
108	105
109	178
115	193
116	95
117	186
118	84
119	361
120	94
121	185
122	95
123	144
128	124
129	135
131	206
132	77
133	240
134	105
135	112
143	75
145	186
146	92
147	202
148	70
149	72
157	82
159	157
160	82
161	179
162	106
163	82
173	111
175	174
185	97
187	355
188	93
189	271
190	163
201	72
203	161
205	71
218	203
219	71
236	63
