Mass Spectrum: 4,4'-Bi-(1,2,3,6-tetrahydro-1-methylpyridyl)
Formula: C12H20N2
CAS: 51274-66-9
Molecular weight: 192
m/z	intensity
41	10
42	746
43	142
44	114
45	8
46	1
50	8
51	33
52	24
53	51
54	23
55	24
56	21
57	53
58	47
59	1
60	4
61	0
62	2
63	15
64	6
65	44
66	14
67	27
68	24
69	7
70	92
71	9
72	2
73	3
74	3
75	2
76	5
77	77
78	56
79	58
80	36
81	60
82	42
83	25
84	5
85	2
86	2
87	0
88	5
89	9
90	5
91	132
92	29
93	40
94	223
95	37
96	999
97	76
98	6
99	1
101	1
102	5
103	20
104	16
105	46
106	42
107	44
108	44
109	67
110	12
111	3
115	13
116	8
117	30
118	45
119	19
120	90
121	45
122	197
123	21
124	7
125	0
127	0
128	3
129	4
130	13
131	19
132	60
133	29
134	182
135	66
136	27
137	5
138	0
143	3
144	16
145	8
146	68
147	17
148	306
149	85
150	17
151	13
152	0
156	0
157	2
158	6
159	3
160	40
161	17
162	15
163	10
164	3
171	2
173	3
174	2
175	6
176	32
177	19
178	2
189	3
190	9
191	75
192	420
193	59
194	5
