Mass Spectrum: N-Methoxymethyl-N-methylformamide
Formula: C4H9NO2
CAS: 5129-79-3
Molecular weight: 103
m/z	intensity
15	4
18	18
27	21
28	209
29	225
30	106
31	8
32	15
33	20
40	20
41	33
42	669
43	169
44	999
45	916
46	29
56	17
58	22
60	66
61	8
65	8
71	15
72	722
73	284
74	20
75	16
78	7
88	984
89	19
90	5
102	7
103	40
104	13
