Mass Spectrum: Propanoic acid, 2,2-dimethyl-, propyl ester
Formula: C8H16O2
CAS: 5129-35-1
Molecular weight: 144
m/z	intensity
26	9
27	130
28	28
29	182
30	13
31	15
37	3
38	8
39	143
40	27
41	417
42	54
43	172
44	5
45	11
47	3
50	3
51	3
52	2
53	9
54	2
55	28
56	93
57	999
58	48
59	96
60	6
61	0
68	1
69	11
70	9
71	4
72	1
73	2
83	3
85	181
86	12
87	42
88	0
89	13
90	0
100	1
101	16
103	196
104	12
105	1
115	6
116	0
