Mass Spectrum: Tetraisopropylpyrophosphoramide
Formula: C12H32N4O3P2
CAS: 513-00-8
Molecular weight: 342
m/z	intensity
14	1
15	15
16	1
17	2
18	1
26	3
27	31
28	22
29	7
30	10
31	2
32	1
37	1
38	2
39	12
40	6
41	56
42	81
43	90
44	233
45	6
46	14
47	10
48	1
49	1
51	1
52	1
54	2
55	2
56	26
57	24
58	999
59	39
60	65
61	3
62	1
63	3
64	38
65	3
68	1
70	2
71	1
72	2
73	2
74	1
76	1
77	6
78	34
79	228
80	23
81	2
82	1
84	1
86	2
87	3
88	9
89	1
90	16
91	3
92	1
93	1
94	1
96	1
97	11
98	4
101	1
102	4
103	1
104	16
105	106
106	26
107	3
108	5
113	1
114	1
115	5
117	1
118	1
119	32
120	7
121	109
122	9
123	16
124	9
125	1
126	1
128	1
131	6
132	1
133	1
135	1
136	1
137	14
138	2
139	18
140	2
141	2
142	1
143	7
144	2
145	3
146	1
147	38
148	3
149	9
150	1
151	1
152	2
156	5
158	49
159	16
160	2
161	19
162	27
163	160
164	14
165	44
166	5
167	9
168	9
169	5
170	2
172	1
173	2
177	2
178	2
179	63
180	12
181	197
182	15
183	3
184	45
185	16
186	4
187	3
190	1
193	2
196	3
198	8
199	2
200	54
201	14
202	2
204	1
206	9
207	2
208	1
209	2
210	3
211	8
212	2
213	3
214	5
215	3
216	1
222	1
223	1
224	2
225	14
226	42
227	156
228	60
229	46
230	4
236	5
237	3
238	60
239	7
240	6
241	1
242	70
243	18
244	4
245	1
247	2
252	2
254	1
255	3
256	1
257	3
258	1
266	1
267	1
268	76
269	11
270	22
271	39
272	13
273	6
274	1
282	9
283	9
284	611
285	338
286	78
287	9
288	1
300	1
301	1
309	2
314	9
315	1
327	41
328	7
340	1
341	2
342	190
343	29
344	4
