Mass Spectrum: Propane, 1-chloro-2-methyl-
Formula: C4H9Cl
CAS: 513-36-0
Molecular weight: 92
m/z	intensity
14	1
15	9
26	11
27	158
28	18
29	59
30	1
31	1
35	2
36	7
37	10
38	21
39	127
40	19
41	501
42	460
43	999
44	32
47	2
48	2
49	32
50	9
51	9
52	1
53	8
54	2
55	34
56	52
57	17
59	2
61	4
62	2
63	7
65	2
73	2
75	5
76	4
77	28
78	2
79	8
91	4
92	3
93	2
94	1
