Mass Spectrum: Methyl-2,3,4,6-tetra-O-methyl-5-thio.beta.d-glucopyranoside
Formula: C11H22O5S
CAS: 51306-28-6
Molecular weight: 266
m/z	intensity
45	999
47	57
55	26
57	16
58	51
59	70
60	74
71	164
73	132
75	668
83	259
85	184
87	27
88	926
90	89
101	403
102	47
115	24
117	10
118	15
119	11
127	20
128	15
131	41
132	39
133	145
145	9
146	10
147	9
157	7
158	8
160	19
171	8
176	3
189	22
202	3
203	2
234	20
235	0
266	36
