Mass Spectrum: Methyl-2,3,5-tri-O-methyl-4-thio.alpha.d-arabinofuranoside
Formula: C9H18O4S
CAS: 51306-30-0
Molecular weight: 222
m/z	intensity
45	999
47	68
55	43
58	46
59	96
61	39
69	30
71	116
73	147
75	364
85	48
88	453
89	72
101	429
102	66
114	11
115	42
117	11
119	11
127	12
131	8
133	6
134	8
145	12
157	23
159	67
160	7
177	3
190	64
191	8
222	1
