Mass Spectrum: 4-Cyclopentene-1,3-dione, 4-phenyl-
Formula: C11H8O2
CAS: 51306-96-8
Molecular weight: 172
m/z	intensity
26	15
27	30
28	26
29	13
31	20
37	14
38	26
39	90
40	4
41	20
42	58
43	4
45	9
46	5
49	11
50	156
51	138
52	88
53	13
54	3
55	12
56	4
58	22
61	20
62	54
63	112
64	13
65	16
66	3
67	5
69	9
70	4
71	4
72	5
73	12
74	100
75	100
76	188
77	41
78	4
79	1
80	2
81	4
82	1
83	9
86	19
87	21
88	7
89	25
90	4
91	13
92	2
93	7
94	3
95	6
96	1
97	7
98	9
99	2
100	2
101	23
102	999
103	102
104	9
105	5
106	1
107	0
109	1
110	1
111	3
112	0
113	0
114	13
115	242
116	433
117	47
118	2
119	3
120	0
121	2
122	1
124	0
126	0
127	0
128	2
129	14
130	4
131	9
132	1
133	0
134	0
137	1
140	0
141	0
143	3
144	105
145	12
146	1
147	0
149	0
151	2
152	1
159	0
161	1
164	1
165	1
171	90
172	550
173	68
174	8
175	4
