Mass Spectrum: Oxazole, 2,5-dihydro-2,2-dimethyl-5-(1-methylethyl)-4-phenyl-
Formula: C14H19NO
CAS: 51304-33-7
Molecular weight: 217
m/z	intensity
59	110
77	140
91	150
103	110
104	999
105	110
114	130
119	75
133	65
145	140
146	70
160	100
161	250
174	899
202	719
216	30
217	20
