Mass Spectrum: Decanedioic acid, 3,7-dimethyl-, dimethyl ester
Formula: C14H26O4
CAS: 5131-46-4
Molecular weight: 258
m/z	intensity
41	764
42	202
43	375
45	107
53	107
54	58
55	999
56	206
57	191
59	507
67	112
68	58
69	757
70	105
71	67
73	224
74	606
75	56
81	107
82	56
83	359
84	36
85	18
86	260
87	251
93	62
95	107
96	80
97	269
98	247
101	307
109	116
110	89
111	283
112	314
115	112
124	38
125	112
128	67
129	112
134	27
135	83
137	29
139	103
140	53
149	49
151	44
152	94
153	471
154	51
159	22
160	15
166	49
167	22
171	11
172	22
179	13
184	13
185	507
186	67
194	29
227	269
228	27
