Mass Spectrum: 1,5-Dithia-spiro[5.5]undecan-7-one
Formula: C9H14OS2
CAS: 51310-03-3
Molecular weight: 202
m/z	intensity
26	20
27	130
28	14
29	49
33	6
34	6
35	5
37	7
38	20
39	279
40	61
41	486
42	148
43	36
44	11
45	326
46	131
47	101
48	12
49	38
50	27
51	19
52	12
53	54
54	21
55	84
56	32
57	15
58	183
59	86
60	26
61	22
62	5
63	12
64	27
65	68
66	64
67	423
68	71
69	23
70	12
71	422
72	101
73	140
74	127
75	53
76	18
77	23
78	13
79	50
80	19
81	32
82	5
83	6
84	39
85	145
86	50
87	107
88	17
89	10
90	16
91	13
92	6
93	27
94	6
95	20
96	11
97	50
98	22
99	160
100	999
101	114
102	55
103	19
104	47
105	23
106	67
107	37
108	11
109	25
110	8
111	26
112	38
113	161
114	126
115	21
116	10
117	25
118	69
119	34
120	12
121	7
124	5
125	7
126	5
127	127
128	17
129	17
130	20
131	23
132	203
133	33
134	23
135	4
136	3
137	3
138	3
139	5
140	31
141	316
142	34
143	17
144	4
145	824
146	157
147	92
148	17
149	7
150	7
151	4
158	11
159	19
160	4
161	6
162	4
168	6
169	4
170	5
171	4
172	5
173	18
174	623
175	73
176	65
177	10
178	4
179	3
180	4
202	988
203	121
204	102
205	16
206	7
207	4
