Mass Spectrum: 2-Pyridinecarbonitrile, 3-nitro-
Formula: C6H3N3O2
CAS: 51315-07-2
Molecular weight: 149
m/z	intensity
50	230
51	370
52	100
63	40
64	50
75	270
76	750
77	90
78	50
91	130
103	999
104	80
119	50
149	450
150	35
