Mass Spectrum: 1H-Pyrrole-2,5-dione, 1,1'-(1,2-ethanediyl)bis-
Formula: C10H8N2O4
CAS: 5132-30-9
Molecular weight: 220
m/z	intensity
26	110
27	60
28	140
40	10
41	20
44	10
53	70
54	130
55	60
56	100
57	30
82	140
95	10
110	999
111	90
123	790
124	90
138	10
139	20
220	110
221	10
