Mass Spectrum: Methanesulfonamide, N-n.-hexyl-
Formula: C7H17NO2S
CAS: 51323-68-3
Molecular weight: 179
m/z	intensity
33	1
34	1
35	0
36	0
37	0
38	3
39	53
40	13
41	126
42	62
43	126
44	47
45	6
46	2
47	3
48	5
49	1
50	2
51	3
52	2
53	8
54	9
55	89
56	93
57	11
58	5
59	0
60	1
61	0
62	1
63	11
64	5
65	11
66	1
67	5
68	3
69	24
70	11
71	3
72	1
73	0
74	0
75	0
76	1
77	3
79	94
80	9
81	10
82	2
83	30
84	124
85	12
86	1
87	0
88	0
89	0
90	0
91	0
92	0
93	0
94	4
95	7
96	123
98	11
100	67
101	4
102	0
103	0
104	1
106	4
108	999
109	40
110	61
111	1
112	0
113	0
115	0
116	0
117	0
118	0
119	0
120	0
121	1
122	2
123	1
124	0
125	0
126	0
129	0
130	0
131	0
132	0
133	0
134	1
135	0
136	0
137	0
138	0
140	0
145	0
146	0
147	0
148	0
149	0
150	1
151	0
152	0
153	0
157	0
159	0
160	0
161	0
162	0
164	0
165	0
166	0
171	0
177	0
178	1
179	3
180	2
181	0
