Mass Spectrum: 9H-Fluorene-9-methanamine, .alpha.,.alpha.-dimethyl-
Formula: C16H17N
CAS: 51328-62-2
Molecular weight: 223
m/z	intensity
30	140
39	60
41	290
42	230
43	80
57	50
58	999
59	400
63	60
89	50
115	90
139	120
162	50
163	270
164	220
165	810
166	190
193	60
208	50
223	10
