Mass Spectrum: Heptanoic acid, octyl ester
Formula: C15H30O2
CAS: 5132-75-2
Molecular weight: 242
m/z	intensity
26	13
27	168
28	16
29	278
30	6
31	10
32	6
38	2
39	100
40	11
41	613
42	224
43	999
44	23
45	20
51	4
53	27
54	32
55	526
56	489
57	529
58	22
59	11
60	120
61	223
62	8
63	4
65	2
67	42
68	106
69	262
70	580
71	232
72	13
73	106
74	11
75	10
77	4
79	3
81	13
82	92
83	307
84	431
85	119
86	10
87	93
88	6
89	41
94	3
95	17
96	5
97	32
101	29
103	3
110	10
111	16
112	462
113	507
114	24
115	9
116	14
129	9
130	64
131	757
132	48
133	4
157	12
