Mass Spectrum: 2-Bromo-4'-methylazobenzene
Formula: C13H11BrN2
CAS: 51343-15-8
Molecular weight: 274
m/z	intensity
27	3
28	2
37	1
38	5
39	34
40	2
41	12
50	23
51	20
52	9
53	2
61	1
62	5
63	24
64	10
65	127
66	7
74	5
75	38
76	41
77	12
78	6
79	1
80	1
87	1
88	1
89	25
90	20
91	999
92	78
93	3
102	1
104	5
105	2
106	3
107	1
111	1
115	3
119	398
120	33
121	1
126	1
127	1
128	2
129	1
131	1
137	2
138	2
139	2
141	1
151	4
152	30
153	4
155	115
156	8
157	113
158	8
163	1
164	3
165	48
166	16
167	6
168	1
169	1
170	7
171	2
172	6
173	1
183	29
184	2
185	28
186	2
194	1
195	1
230	2
245	3
246	1
247	3
248	1
273	1
274	270
275	41
276	264
277	40
278	3
