Mass Spectrum: 4-Tetradecanol acetate
Formula: C16H32O2
CAS: 51354-24-6
Molecular weight: 256
m/z	intensity
39	55
40	10
41	170
42	58
43	999
44	60
45	9
53	11
54	18
55	142
56	80
57	130
58	52
59	18
61	18
67	27
68	15
69	102
70	59
71	62
72	25
81	18
82	22
83	78
84	45
85	25
86	6
87	8
95	8
96	12
97	80
98	22
99	7
111	42
112	18
115	120
116	6
125	15
126	12
130	8
139	4
140	4
153	23
154	5
168	4
196	48
197	7
213	6
214	1
