Mass Spectrum: Benzene, (4-ethoxybenzylidenamino-N-oxide)-
Formula: C15H15NO2
CAS: 51361-39-8
Molecular weight: 241
m/z	intensity
38	13
39	82
40	27
41	31
43	10
44	5
50	37
51	155
52	31
53	17
55	11
57	4
62	8
63	57
64	162
65	149
66	29
67	4
69	5
74	8
75	11
76	26
77	365
78	54
79	11
81	15
82	7
89	12
91	999
92	88
93	62
94	65
95	6
102	5
103	5
104	49
105	32
106	9
107	9
109	9
110	14
115	21
116	5
117	6
119	31
121	326
122	81
123	7
127	9
128	15
129	11
130	5
134	4
135	4
138	6
139	21
140	11
141	13
142	6
148	14
149	130
150	83
151	16
152	12
153	6
154	13
155	7
156	48
157	12
158	4
165	5
166	37
167	70
168	58
169	17
170	18
179	5
180	8
181	5
182	6
183	19
184	215
185	44
186	5
194	14
195	10
196	168
197	52
198	15
208	8
212	147
213	55
214	6
224	78
225	190
226	30
240	181
241	387
242	62
243	4
