Mass Spectrum: 1-(2-Pyrazinyl)propanone
Formula: C7H8N2O
CAS: 51369-99-4
Molecular weight: 136
m/z	intensity
38	15
39	34
40	19
41	13
42	23
43	73
44	13
45	12
50	8
51	72
52	484
53	219
54	23
55	34
56	177
57	999
58	34
59	3
61	13
62	2
63	3
64	5
65	4
66	6
67	4
68	3
69	2
70	13
71	3
73	9
75	4
76	2
77	6
78	12
79	833
80	514
81	141
82	12
83	2
88	2
91	6
92	2
93	3
94	13
95	4
106	4
107	332
108	774
109	55
110	2
117	6
118	2
119	9
121	4
133	2
134	2
135	167
136	243
137	22
