Mass Spectrum: Chroman-4-one, 2,3-dehydro-2-(2-furyl)-7-methyl-
Formula: C14H10O3
CAS: 51379-29-4
Molecular weight: 226
m/z	intensity
33	1
35	0
37	72
38	188
39	368
41	21
42	22
43	6
44	1
46	1
48	0
50	228
51	350
52	224
53	94
54	8
55	13
57	10
58	13
59	1
60	4
63	999
64	239
65	51
66	28
67	19
69	82
70	24
71	18
72	24
74	114
75	84
77	542
78	726
79	42
80	1
81	1
82	0
84	39
85	32
86	40
87	48
89	166
90	48
92	247
93	12
95	81
97	9
98	34
99	76
101	29
102	52
103	46
105	534
106	439
107	22
110	5
111	4
113	30
115	319
116	44
118	17
119	17
120	0
124	0
126	14
127	22
128	7
129	10
130	7
131	19
134	472
135	25
136	4
137	8
139	88
141	197
142	71
143	11
144	4
150	1
151	2
152	3
153	4
155	29
156	2
166	4
168	46
169	135
170	81
171	9
172	9
181	11
182	2
184	0
185	2
193	0
195	32
198	796
199	65
200	7
209	2
225	26
226	481
227	45
228	5
