Mass Spectrum: 1-[p-Butylphenyl]-3-[4-hydroxy-6-methyl-2-pyrimidinyl]guanidine
Formula: C16H21N5O
CAS: 51388-19-3
Molecular weight: 299
m/z	intensity
41	36
42	46
43	46
44	5
50	1
51	13
52	6
53	8
54	19
55	14
56	2
63	6
64	3
65	18
66	6
67	16
68	52
69	19
71	0
76	1
77	60
78	28
79	14
80	2
81	2
82	3
83	1
84	105
85	5
86	0
89	9
90	16
91	29
92	11
93	9
94	3
95	1
96	7
97	3
101	1
102	2
103	10
105	85
106	999
107	40
109	54
110	2
115	6
116	2
117	5
118	6
119	10
120	10
121	1
122	5
123	1
125	2
126	71
127	1
128	6
129	0
130	1
131	87
132	14
133	4
134	6
143	1
144	4
145	5
146	6
147	5
149	259
151	244
152	10
154	0
156	1
157	2
158	1
159	3
171	1
172	3
173	5
174	13
175	9
187	0
190	6
198	0
200	3
214	16
215	7
217	4
239	14
241	14
242	3
256	32
257	12
270	6
282	4
283	0
298	23
299	333
300	71
301	8
