Mass Spectrum: 1-[4-Bromo-.alpha.,.alpha.,.alpha.-trifluoro-m-tolyl]-3-[4-methyl-6-[2-piperidinoethyl]amino]-2-pyrimidinyl]guanidine
Formula: C20H25BrF3N7
CAS: 51387-59-8
Molecular weight: 499
m/z	intensity
41	68
42	66
43	29
44	32
45	0
47	0
49	6
51	2
52	0
53	5
54	3
55	67
56	13
57	5
58	1
62	0
63	0
66	15
67	28
68	13
69	30
70	24
71	1
75	2
79	5
80	3
81	3
82	11
83	11
84	7
86	3
88	1
89	0
91	0
92	2
93	3
94	3
95	3
96	38
98	999
99	62
100	1
108	29
109	13
111	126
112	18
113	1
120	8
121	3
122	1
124	11
125	7
130	0
132	1
134	11
135	5
137	42
138	4
139	0
140	0
144	8
145	1
147	0
149	8
150	12
151	9
152	0
158	3
159	0
160	1
162	18
163	2
164	2
165	1
174	2
176	8
177	0
184	0
185	0
186	2
192	0
194	0
199	1
203	0
204	0
222	0
223	2
225	3
227	0
237	0
239	4
241	3
245	0
247	0
259	0
261	0
264	2
265	3
266	2
267	4
277	0
279	1
281	0
290	0
292	0
294	0
310	3
311	4
312	0
320	0
321	1
322	1
335	1
357	0
372	2
373	0
374	2
384	5
386	5
387	2
388	10
389	138
390	32
391	137
392	21
393	2
398	4
399	2
400	5
401	12
402	2
403	11
404	1
413	0
415	2
416	1
417	1
418	0
460	2
462	2
498	1
499	11
500	5
501	11
502	5
503	1
