Mass Spectrum: 1-[3,4-Dichlorophenyl]-3-[4-methyl-6-[[1-methyl-3-piperidyl]amino]-2-pyrimidinyl]guanidine
Formula: C18H23Cl2N7
CAS: 51387-21-4
Molecular weight: 407
m/z	intensity
41	37
42	204
43	267
44	83
45	2
46	0
49	1
50	0
51	1
52	3
53	14
54	15
55	25
56	20
57	20
58	111
59	4
61	0
62	2
63	4
64	1
65	4
66	18
67	39
68	32
69	17
70	50
71	30
72	1
73	2
74	2
75	3
77	1
78	3
79	3
80	8
81	4
82	145
83	20
84	15
85	1
88	2
89	4
90	3
91	2
92	6
93	6
94	13
96	212
97	999
98	104
99	6
100	0
101	0
102	1
104	0
105	1
106	3
107	9
108	30
109	24
111	19
112	0
115	0
116	0
117	2
118	2
119	3
120	2
121	2
122	3
123	5
124	38
125	85
126	8
127	2
131	0
132	1
133	6
134	14
135	8
136	2
137	4
138	0
143	0
145	15
146	2
147	8
148	4
149	42
150	55
151	13
152	3
153	0
154	0
158	0
159	3
160	3
161	16
162	5
163	18
164	2
165	2
167	1
168	0
172	1
174	7
175	3
176	26
177	11
178	1
182	1
185	0
186	7
187	10
188	8
189	10
190	2
191	1
192	0
193	0
195	2
196	0
197	1
200	0
202	3
203	1
204	1
205	3
206	1
212	1
214	1
216	1
220	1
222	1
224	0
229	0
231	0
233	0
245	1
247	1
267	0
268	0
269	2
270	0
271	1
273	0
276	1
277	3
278	1
279	1
292	0
293	1
294	26
295	4
296	17
297	2
298	2
306	2
307	2
308	2
309	5
310	10
311	257
312	44
313	175
314	17
315	25
316	3
318	1
320	2
321	0
322	1
323	0
332	2
333	0
334	1
335	2
336	1
337	2
338	1
339	1
346	2
348	1
349	1
350	0
351	1
375	1
377	1
389	0
391	1
392	0
393	0
403	0
404	0
405	1
406	19
407	36
408	22
409	24
410	7
411	3
412	0
