Mass Spectrum: 1-[4-[[1-Benzyl-4-piperidyl]amino]-6-methyl-2-pyrimidinyl]-3-[3,4-dichlorophenyl]guanidine
Formula: C24H27Cl2N7
CAS: 51387-28-1
Molecular weight: 483
m/z	intensity
41	56
42	155
43	95
44	59
45	5
49	4
50	2
51	11
52	7
53	19
54	27
55	113
56	64
57	14
58	1
61	1
63	13
65	77
66	24
67	64
68	26
69	17
70	11
71	3
73	6
75	2
77	8
78	9
79	4
80	30
81	6
82	354
83	50
84	14
86	7
89	14
91	999
92	74
93	6
94	8
95	6
96	49
97	29
98	8
99	4
103	1
104	14
105	9
106	6
107	12
108	66
109	37
110	9
111	15
115	2
117	11
118	20
119	5
120	9
121	1
122	8
123	12
124	67
125	394
126	27
127	2
128	1
129	3
130	2
132	10
133	6
134	27
135	11
136	7
137	9
138	1
144	8
145	19
146	13
147	13
149	65
150	154
151	86
152	9
157	1
158	6
159	5
161	51
162	3
163	39
164	2
165	12
167	2
168	15
170	10
172	127
173	46
174	22
176	47
177	21
178	1
185	4
186	12
187	17
188	15
189	12
190	8
192	1
196	1
202	15
203	11
204	10
206	11
231	4
233	1
240	2
241	2
260	7
268	2
269	9
271	5
277	25
279	11
294	108
296	73
297	15
298	15
309	11
310	4
311	516
313	350
314	32
315	87
316	2
320	18
322	15
323	6
324	6
332	3
334	3
335	5
337	30
339	24
340	1
341	4
345	2
346	3
347	6
348	3
349	5
350	18
351	21
353	5
354	3
358	6
360	5
364	1
366	2
377	6
378	14
379	6
380	7
392	115
394	77
395	17
396	15
483	42
484	17
485	27
486	11
487	4
