Mass Spectrum: (1-Ethylpyrrolidin-3-yl)methanamine
Formula: C7H16N2
CAS: 51388-01-3
Molecular weight: 128
m/z	intensity
29	124
30	689
31	5
37	9
39	222
40	80
41	456
42	567
43	568
44	805
45	49
46	28
50	11
51	23
52	27
53	79
54	149
55	271
56	447
57	144
58	999
59	49
60	19
67	35
68	555
69	285
70	894
71	286
72	60
73	15
77	3
80	67
82	630
83	504
84	359
85	41
86	23
87	1
96	953
97	140
98	350
99	59
100	5
101	1
110	209
111	631
112	77
113	54
114	9
126	5
127	34
128	495
129	40
130	3
