Mass Spectrum: 1-[3,4-Dichlorophenyl]-3-[4-[[2-[diisopropylamino]ethyl]amino]-6-methyl-2-pyrimidinyl]guanidine
Formula: C20H29Cl2N7
CAS: 51386-82-4
Molecular weight: 437
m/z	intensity
41	26
42	22
43	89
44	19
49	2
51	1
53	3
54	6
55	5
56	16
57	3
58	3
65	0
66	8
67	15
68	6
69	4
70	20
72	174
73	5
75	1
79	2
80	1
81	1
82	5
83	5
84	11
85	6
86	4
92	2
93	1
95	5
96	2
97	2
98	5
100	3
107	1
108	17
109	11
110	1
111	1
112	7
114	999
115	59
116	2
120	3
121	1
122	0
124	6
125	3
127	33
128	4
133	0
134	7
135	4
137	22
138	1
144	0
145	3
147	3
149	5
150	3
151	9
152	1
160	0
161	5
162	9
163	5
164	1
165	0
174	1
176	9
177	0
186	2
187	2
188	1
189	1
296	0
306	2
308	1
310	3
311	11
312	3
313	7
314	1
315	1
320	3
322	3
323	2
324	1
394	6
395	1
396	4
437	3
438	2
439	2
440	1
