Mass Spectrum: 1-[p-Chlorophenyl]-3-[4-methyl-6-[2-[1-methyl-2-pyrrolidinyl]ethylamino]-2-pyrimidinyl]guanidine
Formula: C19H26ClN7
CAS: 51386-69-7
Molecular weight: 387
m/z	intensity
41	93
42	467
43	133
44	120
45	10
49	4
50	5
51	7
52	6
53	21
54	35
55	72
56	35
57	28
58	17
63	9
64	5
65	13
66	46
67	98
68	58
69	33
70	51
71	5
73	3
75	25
76	6
77	4
78	2
79	16
80	12
81	23
82	153
83	60
84	999
85	58
86	12
89	1
90	12
91	7
92	12
93	12
94	10
95	14
96	59
97	35
98	164
99	18
100	3
101	2
105	1
106	6
107	11
108	64
109	89
110	139
111	72
112	18
113	13
117	6
118	4
120	11
121	8
122	6
123	5
124	44
125	61
126	8
127	43
128	4
129	13
130	1
133	6
134	16
135	13
136	6
137	67
138	94
139	10
149	17
150	39
151	93
152	28
153	18
154	8
155	6
162	18
163	30
164	88
165	9
167	1
168	4
176	19
177	5
178	4
179	18
180	3
193	3
204	9
209	2
220	4
226	4
233	1
234	2
245	4
248	1
260	12
261	10
262	5
272	6
273	19
274	5
275	9
276	10
277	27
278	6
279	8
286	11
288	4
289	22
290	268
291	49
292	90
293	13
303	39
304	10
305	13
306	3
314	9
316	2
331	22
332	4
333	7
355	0
357	0
372	23
373	4
374	7
385	1
386	2
387	40
388	11
389	13
390	4
