Mass Spectrum: 1-[3,5-Dichlorophenyl]-3-[4-methyl-6-[[3-[1-pyrrolidinyl]propyl]amino]-2-pyrimidinyl]guanidine
Formula: C19H25Cl2N7
CAS: 51387-51-0
Molecular weight: 421
m/z	intensity
41	170
42	610
43	229
44	68
53	26
54	67
55	262
56	124
57	51
63	2
66	71
67	138
68	84
69	42
70	70
71	2
75	3
79	9
80	23
81	25
82	100
83	57
84	999
85	44
92	2
93	9
95	13
96	108
97	59
98	58
107	23
108	102
109	163
110	144
111	27
112	5
120	20
121	20
122	5
123	20
124	98
125	49
134	38
135	25
136	2
137	128
138	152
139	2
145	31
147	27
149	52
150	73
151	155
152	11
161	31
162	41
163	79
164	146
165	46
167	2
176	50
178	18
186	14
187	18
188	2
189	2
190	43
193	3
256	3
260	15
289	65
290	2
291	22
294	27
295	24
296	19
297	2
306	12
307	94
308	11
309	98
310	49
311	49
312	30
313	23
320	45
321	4
322	30
323	75
324	618
325	113
326	426
327	68
328	66
334	23
336	8
337	130
338	33
339	83
340	16
341	11
349	2
350	22
351	70
352	67
353	53
354	43
355	6
420	60
421	82
423	56
424	6
425	8
