Mass Spectrum: 2-Pyrrolidineethanamine, 1-methyl-
Formula: C7H16N2
CAS: 51387-90-7
Molecular weight: 128
m/z	intensity
15	15
26	2
27	20
28	42
29	14
30	112
31	5
32	1
38	1
39	20
40	5
41	46
42	226
43	20
44	48
45	2
51	2
52	2
53	8
54	14
55	31
56	38
57	42
58	7
59	1
65	3
66	1
67	13
68	12
69	13
70	71
71	9
72	1
77	1
79	2
80	5
81	6
82	75
83	21
84	999
85	62
86	2
93	1
94	5
95	2
96	16
97	6
98	47
99	4
108	2
109	1
110	22
111	43
112	5
113	3
127	1
128	12
129	2
