Mass Spectrum: 1-[p-Chlorophenyl]-3-[4-[[2-(diisopropylamino)ethyl]amino]-6-methyl-2-pyrimidinyl]-guanidine
Formula: C20H30ClN7
CAS: 51386-72-2
Molecular weight: 403
m/z	intensity
41	30
42	26
43	95
44	21
49	4
50	1
51	2
52	0
53	3
54	6
55	5
56	19
57	3
58	3
63	2
64	0
65	3
66	9
67	18
68	7
69	4
70	20
71	4
72	173
73	8
75	5
76	1
79	2
80	2
81	1
82	6
83	6
84	14
85	9
86	4
90	2
91	2
92	2
93	2
94	0
95	4
96	1
97	2
98	4
99	2
100	2
106	1
107	3
108	14
109	10
110	2
111	9
112	7
114	999
115	74
116	2
118	1
120	3
121	1
124	5
125	5
126	0
127	35
128	13
129	4
133	1
134	5
135	3
136	0
137	24
138	3
149	3
150	4
151	9
152	5
153	4
154	1
155	1
162	7
163	3
176	8
178	0
272	1
276	5
277	8
278	2
279	2
286	1
289	0
360	4
362	1
403	1
404	0
