Mass Spectrum: 1-[3,4-Dichlorophenyl]-3-[4-[[2-diethylamino]ethyl]amino]-6-methyl-2-pyrrolidinyl]guanidine
Formula: C18H25Cl2N7
CAS: 51386-78-8
Molecular weight: 409
m/z	intensity
41	10
42	28
43	29
44	19
45	3
46	2
47	2
48	1
49	18
51	7
52	0
53	3
54	7
55	7
56	18
57	8
58	63
59	3
61	0
63	1
65	2
66	10
67	21
68	7
69	5
70	9
71	13
72	4
73	2
74	2
75	1
79	3
80	2
81	2
82	6
83	7
84	26
86	999
87	56
88	3
90	1
91	5
92	2
93	3
94	0
95	4
96	2
97	5
98	4
99	50
100	9
106	0
107	3
108	14
109	11
110	3
111	2
113	0
117	3
120	3
121	1
124	11
125	6
126	1
133	1
134	5
135	4
136	0
137	19
138	3
145	4
147	3
149	4
150	13
151	8
152	1
161	5
162	7
163	5
164	1
165	0
176	5
178	0
186	1
187	1
188	0
189	0
277	1
290	2
306	1
310	10
311	43
312	12
313	27
314	5
315	4
322	0
323	3
324	1
325	1
337	0
409	3
410	1
411	2
413	0
