Mass Spectrum: 1-[3,4-Dichlorophenyl]-3-[4-[2-[ethyl-(2-hydroxyethyl)amino]ethylamino]-6-methylpyrimidin-2-yl]guanidine
Formula: C18H25Cl2N7O
CAS: 51386-91-5
Molecular weight: 425
m/z	intensity
41	24
42	87
43	87
44	64
45	89
47	7
49	16
50	12
51	6
52	13
53	9
54	17
55	11
56	100
58	167
59	2
61	20
62	27
63	37
64	13
65	8
66	29
67	49
68	14
69	9
70	10
71	31
72	48
73	24
74	35
75	17
80	13
82	17
83	16
84	84
85	22
86	14
87	2
88	20
90	32
91	6
93	7
95	7
96	5
97	53
99	41
100	19
101	6
102	999
103	44
104	2
107	12
108	31
109	27
110	2
111	5
115	59
116	7
117	3
120	8
122	5
124	61
125	42
126	28
127	8
128	5
133	11
134	15
135	12
136	2
137	49
138	14
145	13
147	10
149	16
150	23
151	50
152	5
159	27
161	115
163	86
165	22
167	2
176	16
186	41
187	50
188	28
189	28
190	2
208	7
221	7
270	3
310	25
311	54
312	18
313	38
314	5
315	2
323	2
324	20
325	2
326	13
330	6
332	7
334	2
425	4
427	3
