Mass Spectrum: 1-[2-Methoxy-5-nitrobenzyl]-4-methylpiperazine
Formula: C13H19N3O3
CAS: 51388-30-8
Molecular weight: 265
m/z	intensity
42	762
43	745
44	999
45	10
47	2
49	27
51	138
52	20
53	19
54	54
56	765
57	107
58	237
59	106
60	2
62	3
63	56
64	15
65	43
66	8
67	6
68	12
70	375
71	285
72	184
73	3
74	6
75	6
77	130
78	87
79	21
80	8
81	5
82	11
83	3
84	35
85	58
86	8
87	2
88	2
89	112
90	148
91	65
92	14
93	10
95	9
97	48
99	757
100	10
101	2
102	2
103	2
104	9
105	55
106	14
108	16
113	23
117	7
118	12
120	67
121	9
130	1
132	9
133	5
136	52
137	5
145	8
147	9
148	7
150	26
151	1
161	6
163	4
164	17
166	246
167	21
175	8
177	64
178	14
179	9
180	1
181	9
189	7
190	2
191	76
193	37
194	245
195	45
196	3
204	5
205	24
207	61
208	22
209	12
218	6
220	108
221	35
222	8
223	7
235	3
236	13
237	7
248	19
249	9
250	9
262	2
263	3
264	39
265	478
266	67
267	15
