Mass Spectrum: 1-[3,4-Dichlorophenyl]-3-[4-[[3-[3-hydroxypiperidino]propyl]amino]-6-methyl-2-pyrimidinyl]guanidine
Formula: C20H27Cl2N7O
CAS: 51386-93-7
Molecular weight: 451
m/z	intensity
41	528
42	747
43	999
44	908
49	48
50	22
52	50
53	50
54	151
55	277
56	271
57	179
58	217
61	91
62	151
63	206
64	52
66	192
67	395
68	193
69	115
70	163
71	173
72	85
73	146
74	100
75	100
80	60
81	84
82	266
83	119
84	506
85	23
86	124
88	58
90	143
93	26
94	66
95	21
96	409
97	267
98	152
99	151
101	21
107	82
108	292
109	444
110	235
112	70
114	821
115	22
120	24
121	22
122	57
123	510
124	530
125	232
126	247
128	119
133	24
134	124
135	81
136	46
137	463
138	776
140	115
145	91
147	71
149	132
150	155
151	444
152	49
159	143
161	584
162	48
163	526
164	273
165	340
166	21
176	100
186	192
187	279
188	154
189	177
190	136
247	304
248	22
289	136
290	52
294	22
307	65
309	113
311	95
313	22
320	49
322	23
323	30
324	596
325	136
326	402
327	54
328	87
330	22
332	23
334	78
337	131
339	110
350	92
351	102
352	58
353	26
433	179
434	23
435	122
437	21
