Mass Spectrum: Cyclohexanebutanoic acid, .beta.-oxo-, methyl ester
Formula: C11H18O3
CAS: 51414-42-7
Molecular weight: 198
m/z	intensity
41	569
42	120
43	999
59	470
69	230
74	210
82	190
83	50
97	380
101	450
105	70
116	649
124	120
125	599
198	190
