Mass Spectrum: 1-Tetrazol-2-ylethanone
Formula: C3H4N4O
CAS: 51410-11-8
Molecular weight: 112
m/z	intensity
25	3
26	14
27	57
28	173
29	17
30	1
38	6
39	9
40	12
41	86
42	214
43	999
44	35
45	3
51	2
52	1
53	2
54	1
55	30
56	4
57	1
69	13
70	1
71	7
84	4
85	1
113	14
