Mass Spectrum: Pyrimidine, 4-chloro-2-methoxy-
Formula: C5H5ClN2O
CAS: 51421-99-9
Molecular weight: 144
m/z	intensity
24	2
25	6
26	25
27	21
28	67
29	29
30	5
31	23
35	4
36	13
37	5
38	38
39	106
40	87
41	6
42	46
43	7
44	3
45	9
46	4
47	19
48	2
49	9
50	6
51	72
52	128
53	76
54	62
55	4
56	11
57	3
58	4
59	1
60	27
61	28
62	23
63	30
64	6
65	32
66	60
67	95
68	31
69	3
71	1
72	2
73	16
74	64
75	7
76	28
77	17
78	4
79	231
80	24
81	37
82	44
83	4
85	2
86	18
87	224
88	17
89	78
90	5
91	2
93	7
94	42
95	3
101	10
102	16
103	4
104	5
105	1
108	2
109	45
110	3
113	67
114	999
115	221
116	371
117	62
118	7
128	3
129	2
130	1
131	1
142	2
143	217
144	590
145	126
146	190
147	18
148	5
150	3
