Mass Spectrum: Hydrazine, [(2-chlorophenyl)methyl]-
Formula: C7H9ClN2
CAS: 51421-13-7
Molecular weight: 156
m/z	intensity
16	8
26	8
27	26
28	79
29	19
30	22
31	103
32	7
35	40
36	319
37	29
38	186
39	2
40	10
41	0
42	42
43	17
44	51
49	7
50	52
51	62
52	16
61	12
62	23
63	72
64	19
65	41
73	28
74	20
75	55
76	26
77	57
78	12
85	7
86	0
87	0
89	142
90	50
91	131
92	21
93	0
94	0
99	59
101	20
102	32
103	18
104	7
106	22
111	14
112	13
113	2
119	8
121	66
122	3
125	999
126	159
127	360
128	55
129	6
137	13
138	26
139	19
140	23
141	3
155	11
156	293
157	30
158	97
159	9
