Mass Spectrum: .alpha.-D-Glucopyranosiduronamide, methyl 2,4-di-O-methyl-
Formula: C9H17NO6
CAS: 51432-87-2
Molecular weight: 235
m/z	intensity
45	15
59	6
60	9
61	6
72	30
73	83
74	132
75	69
85	61
87	23
88	125
89	39
96	16
98	15
99	16
101	999
102	616
112	12
114	14
117	13
126	10
127	45
129	13
143	13
144	9
157	40
158	12
159	14
160	16
186	41
191	8
203	35
204	12
217	12
235	4
