Mass Spectrum: Cholan-24-oic acid, 3-(acetyloxy)-12-oxo-, methyl ester, (3.alpha.,5.beta.)-
Formula: C27H42O5
CAS: 5143-55-5
Molecular weight: 446
m/z	intensity
41	151
43	999
44	25
45	10
51	1
53	48
54	36
55	255
56	8
57	26
59	74
61	61
65	13
67	116
68	13
69	54
70	3
71	11
73	47
74	39
77	43
79	150
80	9
81	208
83	67
84	1
85	8
87	16
88	4
91	84
93	105
94	19
95	88
96	14
97	13
98	1
99	10
103	5
105	70
106	6
107	95
108	30
109	85
110	10
111	6
115	19
116	6
117	14
119	35
121	107
122	25
123	40
124	11
125	5
128	4
129	5
130	1
131	19
132	3
133	30
135	54
136	10
137	11
138	3
141	10
142	2
143	10
144	2
145	24
147	38
148	11
149	38
150	5
151	8
154	48
155	7
156	1
157	11
159	18
161	25
163	31
164	4
167	1
169	2
171	8
173	12
174	1
175	11
176	2
177	5
179	2
183	2
185	7
187	10
189	13
190	3
191	9
193	1
195	4
197	4
199	6
201	5
203	7
211	1
213	9
214	1
215	7
217	3
223	3
225	2
227	5
229	20
231	97
232	18
233	1
243	6
244	4
245	2
253	14
254	2
255	1
257	6
258	1
259	1
263	1
271	17
272	3
277	1
281	1
290	2
291	11
293	2
295	4
304	1
309	3
313	12
314	2
331	2
339	2
343	1
355	6
368	4
371	6
373	5
386	27
387	9
415	4
428	3
446	68
447	24
448	4
