Mass Spectrum: .alpha.-D-Glucopyranosiduronamide, methyl 2,3-di-O-methyl-
Formula: C9H17NO6
CAS: 51432-85-0
Molecular weight: 235
m/z	intensity
45	51
60	19
69	17
71	29
73	64
74	31
75	999
85	67
87	129
88	459
89	179
99	359
100	259
101	580
102	75
103	34
112	63
114	29
117	899
126	19
127	25
129	57
130	35
131	19
133	619
143	45
144	35
149	199
161	379
171	57
172	139
203	75
204	39
205	18
235	21
