Mass Spectrum: (1aS,4aS,8aR)-4a,8,8-Trimethyl-2-methylene-1,1a,2,4a,5,6,7,8-octahydrocyclopropa[d]naphthalene
Formula: C15H22
CAS: 51446-91-4
Molecular weight: 202
m/z	intensity
26	1
27	24
29	33
38	4
39	100
40	15
41	190
42	19
43	64
44	1
45	1
50	15
51	68
52	24
53	90
54	11
55	261
56	58
57	99
58	10
60	1
61	1
62	7
63	48
64	32
65	120
66	20
67	81
68	24
69	702
70	54
71	79
72	11
74	5
75	13
76	19
77	214
78	71
79	122
80	13
81	39
82	13
83	40
84	11
85	46
86	11
87	4
88	2
89	26
90	6
91	443
92	109
95	108
96	17
97	13
98	5
99	14
100	2
101	6
102	29
103	100
104	200
105	301
106	92
108	24
110	47
111	607
112	57
113	14
114	3
115	336
116	128
117	999
118	488
119	384
120	119
122	16
123	9
125	3
126	7
127	66
128	222
129	208
130	99
131	721
132	389
133	171
134	60
139	8
140	2
141	71
142	46
143	88
144	43
145	291
146	114
148	13
149	7
150	1
151	2
152	9
153	13
154	9
155	15
156	9
157	30
158	24
159	226
160	44
165	2
166	1
168	1
169	2
170	2
171	8
172	10
173	37
174	15
184	2
186	2
187	183
188	31
201	2
202	285
203	47
