Mass Spectrum: 2-Propenoic acid, 1-methylundecyl ester
Formula: C15H28O2
CAS: 51443-73-3
Molecular weight: 240
m/z	intensity
35	8
36	100
37	39
38	75
39	302
40	270
41	528
42	245
43	515
44	278
45	60
49	18
50	71
51	90
52	40
53	68
54	80
55	999
56	237
57	258
58	122
59	30
60	5
61	6
62	8
63	19
64	8
65	6
66	11
67	80
68	57
69	210
70	222
71	138
72	70
73	85
74	25
75	35
76	35
77	25
78	30
79	22
81	53
82	60
83	157
84	108
85	69
86	7
87	10
95	22
96	40
97	130
98	85
99	165
100	10
109	10
110	19
111	60
112	35
113	10
114	25
115	8
124	8
125	30
126	27
127	20
138	5
139	10
140	22
141	6
167	5
168	65
169	10
