Mass Spectrum: Perfluoro-(1,4,7-trimethyl-2,5,8-trioxa-undecyl cyanide)
Formula: C12F23NO3
CAS: 51445-03-5
Molecular weight: 643
m/z	intensity
31	91
47	60
51	38
69	999
76	118
97	98
100	190
119	170
126	617
131	40
142	29
147	118
150	149
169	846
170	29
176	30
192	88
285	40
292	29
335	119
358	49
458	29
624	9
