Mass Spectrum: N-(3-Acetamido-1-pyridinio)acetamidate
Formula: C9H11N3O2
CAS: 51454-26-3
Molecular weight: 193
m/z	intensity
13	1
14	7
15	20
16	1
25	1
26	9
27	30
28	69
29	7
30	3
31	1
32	1
37	9
38	34
39	93
40	57
41	108
42	54
43	312
44	36
45	2
49	2
50	19
51	82
52	31
53	21
54	20
55	14
56	20
57	57
58	1
59	50
60	5
61	1
62	3
63	9
64	14
65	17
66	48
67	118
68	12
69	3
70	1
71	2
75	3
76	5
77	7
78	107
79	16
80	10
81	25
82	22
83	3
85	1
90	2
91	9
92	14
93	69
94	999
95	77
96	3
97	2
103	1
104	5
105	4
106	4
107	7
108	7
109	14
110	133
111	9
117	2
118	147
119	14
120	25
121	5
122	3
123	4
125	1
131	1
132	1
133	5
134	53
135	598
136	436
137	77
138	5
148	2
149	3
150	52
151	12
152	10
153	1
162	17
163	1
164	2
167	1
169	1
176	5
177	1
178	548
179	52
180	5
191	1
192	150
193	440
194	96
195	9
