Mass Spectrum: Megastigma-4,6(Z),8(E)-triene
Formula: C13H20
CAS: 51468-85-0
Molecular weight: 176
m/z	intensity
26	10
27	240
29	230
38	10
39	330
41	720
42	40
43	100
50	20
51	130
52	50
53	280
54	30
55	520
56	30
57	20
58	20
59	10
63	50
64	40
65	210
66	40
67	130
68	10
69	230
70	40
71	60
72	40
73	20
75	20
77	370
78	100
79	260
80	50
81	140
82	20
83	30
89	30
91	520
92	90
93	260
94	70
95	90
96	20
101	10
102	20
103	80
104	60
105	999
106	220
107	260
108	60
109	10
115	140
116	60
117	110
118	40
119	680
120	520
121	350
122	30
127	30
128	80
129	70
130	50
131	120
132	40
133	380
134	80
135	50
141	10
142	10
143	10
144	10
145	50
146	50
147	170
148	130
149	20
159	30
161	830
162	110
176	530
177	90
178	10
