Mass Spectrum: Imidazole, 2-methylamino-
Formula: C4H7N3
CAS: 5146-52-1
Molecular weight: 97
m/z	intensity
41	151
42	999
43	186
44	23
47	16
48	18
51	7
52	50
53	66
54	108
55	253
56	106
57	60
63	37
64	17
66	18
67	37
68	162
69	306
70	46
79	18
81	69
82	135
83	14
95	12
96	580
97	706
98	55
