Mass Spectrum: Xylometazoline metabolite
Formula: C16H22N2
CAS: 5146-50-9
Molecular weight: 242
m/z	intensity
57	79
65	30
73	39
81	999
82	117
91	129
92	101
100	200
105	79
115	130
128	120
129	100
145	81
161	121
171	199
185	251
186	200
197	49
211	79
227	600
228	50
242	799
243	99
