Mass Spectrum: Ethanediimine, N,N'-(2-methylphenyl)-
Formula: C16H16N2
CAS: 51479-97-1
Molecular weight: 236
m/z	intensity
14	2
15	2
16	12
17	83
18	286
19	1
26	6
27	30
28	40
29	10
30	3
31	4
32	5
37	3
38	16
39	177
40	17
41	64
42	6
43	16
44	8
45	3
47	1
49	1
50	28
51	85
52	32
53	13
54	3
55	12
56	4
57	14
58	2
59	1
60	2
61	4
62	17
63	84
64	32
65	442
66	28
67	4
68	2
69	6
70	5
71	7
73	2
74	7
75	10
76	13
77	39
78	16
79	5
80	2
81	3
82	2
83	5
84	3
85	4
86	3
87	4
89	101
90	55
91	689
92	63
93	5
94	1
95	3
96	2
97	4
98	2
99	1
101	3
102	7
103	10
104	11
105	4
106	13
107	9
108	1
109	2
110	2
111	2
112	4
113	2
114	2
115	4
116	15
117	86
118	999
119	126
120	14
121	2
123	1
125	1
127	2
128	5
129	11
130	26
131	8
132	5
133	1
135	2
139	1
141	1
142	2
143	6
144	3
145	6
149	4
151	1
152	2
153	1
155	2
156	2
157	2
164	1
165	3
166	1
167	1
168	1
169	1
171	1
176	1
177	1
178	1
179	1
180	1
181	1
183	1
190	0
191	1
192	1
193	2
194	3
195	1
204	2
205	2
206	9
207	2
208	4
209	1
211	0
217	1
218	2
219	8
221	976
222	160
223	14
224	1
228	0
229	0
231	0
232	0
233	2
235	130
236	83
237	13
238	4
239	0
