Mass Spectrum: 3H-1,2-Dithiole-4-carboxylic acid, 5-acetylamino-3-thioxo-, ethyl ester
Formula: C8H9NO3S3
CAS: 5147-76-2
Molecular weight: 263
m/z	intensity
33	4
34	6
35	1
36	5
37	1
38	6
39	6
40	15
41	12
43	999
44	68
45	51
46	6
47	6
48	1
49	0
50	1
51	3
52	5
53	2
54	1
55	3
56	17
57	57
58	12
59	10
60	28
61	5
62	2
64	47
65	5
66	6
67	6
68	55
69	13
70	13
71	10
72	47
73	6
74	3
76	20
77	7
78	3
79	1
80	1
82	25
83	73
84	327
85	64
86	20
87	4
88	33
89	11
90	6
91	10
92	6
93	3
94	3
95	1
96	4
97	1
98	1
99	3
100	19
101	9
102	8
103	2
104	1
105	1
106	0
107	0
108	3
109	3
110	24
111	3
112	7
113	2
114	2
115	2
116	6
117	12
118	3
119	1
120	0
121	0
122	0
123	1
124	1
125	2
126	11
128	87
129	6
130	5
131	1
132	2
133	2
134	1
135	2
136	0
137	0
138	0
139	0
140	4
141	1
142	1
143	1
144	2
145	1
146	1
147	4
149	282
150	20
151	37
152	2
153	1
154	1
156	33
158	125
159	13
160	21
161	4
162	5
163	1
164	0
165	0
167	0
168	0
170	0
171	1
172	0
174	3
175	15
176	24
177	65
178	8
179	8
180	1
181	0
182	0
183	0
184	0
186	1
187	2
188	13
189	6
191	253
192	41
193	58
194	7
195	5
196	0
197	0
198	0
199	0
200	0
201	0
202	2
203	0
205	5
206	0
207	0
214	0
215	2
216	1
217	3
218	5
219	57
220	9
221	11
222	1
223	1
226	0
228	0
230	4
231	1
232	0
233	0
234	2
235	8
236	1
237	1
244	0
247	3
248	0
249	0
254	0
255	0
256	0
258	0
259	1
261	8
263	302
264	34
265	43
266	4
267	2
268	0
