Mass Spectrum: 9-Borabicyclo[3.3.1]nonane, 9-(1-methylethyl)-
Formula: C11H21B
CAS: 51475-51-5
Molecular weight: 164
m/z	intensity
25	4
26	101
27	374
28	17
29	94
30	3
36	20
37	81
38	52
39	241
40	257
41	999
42	32
43	40
44	3
49	8
50	64
51	155
52	176
53	683
54	536
55	349
56	17
57	6
61	5
62	9
63	37
64	85
65	221
66	125
67	325
68	90
69	37
70	5
71	3
73	2
74	2
75	7
76	36
77	126
78	106
79	446
80	168
81	177
82	45
83	10
87	5
88	4
89	23
90	66
91	271
92	286
93	673
94	189
95	65
96	17
97	3
102	2
103	4
104	4
105	24
106	17
107	86
108	141
109	82
110	9
113	2
115	1
117	3
118	12
119	41
120	135
121	320
122	91
123	46
124	3
133	2
134	6
135	28
136	21
137	1
148	2
149	11
150	2
163	84
164	379
165	45
