Mass Spectrum: 2-Chloroethyl oleate
Formula: C20H37ClO2
CAS: 51479-39-1
Molecular weight: 344
m/z	intensity
42	150
52	20
53	85
54	385
55	999
60	25
61	30
62	235
63	455
64	90
65	165
66	40
67	470
68	365
69	874
70	310
71	150
72	20
73	55
77	40
78	30
79	95
80	60
81	415
82	295
83	809
84	534
85	110
86	85
87	75
91	35
93	60
94	60
95	300
96	639
97	659
98	350
101	35
105	25
107	55
108	50
109	155
110	245
111	295
112	70
113	30
119	40
120	25
121	75
122	135
123	190
124	165
125	150
126	30
133	45
134	35
135	230
136	30
137	170
138	100
139	80
147	40
148	40
149	70
151	75
152	90
153	60
161	30
162	35
163	70
164	30
165	60
166	60
167	40
175	30
176	25
177	35
178	25
179	35
180	95
181	25
189	55
191	30
193	25
194	20
220	40
221	25
222	170
223	35
264	140
265	195
266	45
