Mass Spectrum: o-Acetyl-L-serine
Formula: C5H9NO4
CAS: 5147-00-2
Molecular weight: 147
m/z	intensity
25	2
26	16
27	54
28	212
29	146
30	68
31	29
39	23
40	19
41	126
42	276
43	999
44	123
45	142
46	66
47	4
48	4
50	4
51	7
52	6
53	12
54	20
55	67
56	124
57	356
58	26
59	24
60	573
61	32
62	3
63	4
64	11
65	13
66	8
67	23
68	23
69	95
70	44
71	52
72	8
73	62
74	401
75	277
76	17
77	12
78	11
79	11
80	14
81	25
82	28
83	49
84	172
85	65
86	11
87	259
88	22
89	6
90	2
91	14
92	9
93	31
94	12
95	24
96	20
97	32
98	19
99	39
100	7
101	10
102	452
103	26
104	16
105	9
106	5
107	8
108	6
109	13
110	11
111	21
112	8
128	5
129	24
130	6
131	3
