Mass Spectrum: 4-Isopropyl-2,6,7-trioxa-1-phosphabicyclo[2.2.2]octane 1-sulphide
Formula: C7H13O3PS
CAS: 51486-56-7
Molecular weight: 208
m/z	intensity
27	260
28	40
29	150
39	400
40	60
41	880
42	50
43	440
45	20
47	130
51	20
53	210
54	20
55	999
56	70
57	140
63	30
65	50
67	290
68	20
69	100
70	30
77	30
79	360
80	30
81	110
82	390
83	610
84	30
85	70
94	20
95	30
97	40
99	60
112	20
113	130
114	140
145	70
153	40
163	30
208	970
209	70
210	30
