Mass Spectrum: 2,5-Thiophenedicarboxylic acid, tetrahydro-, dimethyl ester
Formula: C8H12O4S
CAS: 51483-80-8
Molecular weight: 204
m/z	intensity
26	8
27	68
28	151
29	24
30	4
31	7
32	3
33	6
36	2
37	2
39	35
40	3
41	32
42	6
43	6
44	10
45	98
46	3
47	9
50	2
51	4
53	15
55	71
57	6
58	44
59	120
60	8
61	4
64	1
68	9
69	14
71	8
72	4
74	1
80	2
81	1
83	2
84	10
85	999
86	68
87	55
88	2
92	0
96	3
99	2
100	17
105	2
111	30
112	13
113	28
114	1
116	17
117	13
118	4
124	1
129	8
139	14
140	19
144	27
145	453
146	19
147	11
148	3
167	1
170	2
172	669
173	23
174	15
186	2
193	1
197	2
204	120
205	9
206	4
