Mass Spectrum: Semioxamazide
Formula: C2H5N3O2
CAS: 515-96-8
Molecular weight: 103
m/z	intensity
14	6
16	33
17	25
26	8
27	19
29	84
30	75
31	300
32	646
41	7
42	24
43	89
44	999
45	42
46	21
50	8
51	9
56	9
58	36
59	58
60	31
103	477
104	17
