Mass Spectrum: Pyrrolidinium, 2-carboxy-4-hydroxy-1,1-dimethyl-, hydroxide, inner salt, (2S-trans)-
Formula: C7H13NO3
CAS: 515-25-3
Molecular weight: 159
m/z	intensity
41	109
42	463
43	123
44	488
45	115
46	10
47	4
48	1
52	14
53	36
54	37
55	135
56	69
57	119
58	999
59	50
60	3
61	1
62	0
63	1
64	2
65	8
66	6
67	41
68	35
69	17
70	54
71	60
72	132
73	18
74	5
76	0
77	5
78	5
79	7
80	44
81	64
82	398
83	63
84	98
85	10
86	28
87	17
88	10
89	0
91	5
92	4
93	4
94	30
95	8
96	34
97	61
98	28
100	499
101	40
102	14
103	2
104	0
105	2
106	3
107	8
108	8
109	4
110	3
111	1
112	2
113	4
114	16
115	9
116	4
117	2
118	0
119	0
123	1
124	4
125	5
126	6
127	8
128	2
129	2
130	2
131	1
132	5
133	2
140	2
141	34
142	8
143	3
144	2
145	0
157	0
158	2
159	25
160	5
161	1
