Mass Spectrum: Bicyclo[2.2.1]heptan-2-ol, 3,3-dimethyl-, exo-
Formula: C9H16O
CAS: 515-28-6
Molecular weight: 140
m/z	intensity
26	385
28	330
38	530
41	999
43	580
53	215
55	500
57	950
67	465
69	790
70	370
71	165
72	160
78	350
81	210
83	310
84	460
93	160
96	310
97	410
107	430
109	410
122	355
140	235
