Mass Spectrum: 2-((2R,4aR,8aS)-4a-Methyl-8-methylenedecahydronaphthalen-2-yl)prop-2-en-1-ol
Formula: C15H24O
CAS: 515-20-8
Molecular weight: 220
m/z	intensity
26	1
27	31
28	4
29	61
30	2
31	32
37	1
38	3
39	144
40	35
41	386
42	27
43	91
44	7
45	4
50	9
51	54
52	35
53	264
54	45
55	421
56	43
57	85
58	9
59	4
60	1
62	3
63	23
64	12
65	203
66	87
67	634
68	134
69	163
70	22
71	25
72	5
73	3
74	3
75	4
76	6
77	494
78	127
79	898
80	224
81	646
82	224
83	86
84	114
85	12
86	2
87	2
89	12
90	5
91	862
92	236
93	833
94	210
95	467
96	115
97	123
98	18
99	4
101	2
102	10
103	77
104	75
105	999
106	475
107	623
108	252
109	253
110	76
111	56
112	6
113	2
115	104
116	46
117	270
118	206
119	513
120	459
121	893
122	225
123	284
124	194
125	29
126	5
127	13
128	52
129	65
130	36
131	415
132	181
133	494
134	159
135	140
136	82
137	76
138	28
139	50
140	5
141	13
142	10
143	27
144	19
145	374
146	147
147	350
148	126
149	97
150	34
151	51
152	12
153	5
154	2
155	3
156	2
157	10
158	7
159	216
160	115
161	271
162	194
163	103
164	58
165	20
166	8
167	1
169	1
171	4
172	4
173	95
174	64
175	23
176	20
177	56
178	48
179	30
180	3
185	4
187	357
188	60
189	433
190	67
191	43
192	24
193	3
201	4
202	438
203	73
204	6
205	96
206	15
219	1
220	223
221	36
