Mass Spectrum: 1-Chloromethyl-3-(1,1-dimethylethoxy)benzene
Formula: C11H15ClO
CAS: 51503-06-1
Molecular weight: 198
m/z	intensity
39	120
41	250
43	36
50	30
51	62
55	31
56	61
57	250
74	39
77	140
78	54
89	42
107	999
108	82
142	719
143	58
144	200
163	56
183	60
185	23
198	12
200	4
