Mass Spectrum: Imidazol-1-ylmethanol
Formula: C4H6N2O
CAS: 51505-76-1
Molecular weight: 98
m/z	intensity
30	32
31	117
38	177
39	249
40	747
41	999
42	80
43	8
44	14
51	10
52	17
53	14
54	17
55	1
66	5
67	101
68	957
69	72
70	3
81	38
82	1
97	117
98	137
99	4
