Mass Spectrum: 1-Chloromethyl-4-(1,1-dimethylethoxy)benzene
Formula: C11H15ClO
CAS: 51503-07-2
Molecular weight: 198
m/z	intensity
39	87
41	999
42	39
50	63
51	71
52	30
53	54
55	200
56	440
57	180
77	67
78	31
107	669
108	92
142	250
144	79
183	32
185	11
198	14
200	5
