Mass Spectrum: 2,5-Heptanedione, 3,3,6-trimethyl-
Formula: C10H18O2
CAS: 51513-40-7
Molecular weight: 170
m/z	intensity
26	4
27	94
28	24
29	44
30	2
31	3
38	4
39	76
40	16
41	186
42	35
43	999
44	33
45	6
50	3
51	6
52	3
53	16
54	5
55	52
56	56
57	63
58	5
59	5
65	4
67	18
68	3
69	27
70	12
71	449
72	29
73	3
77	5
79	5
81	40
82	6
83	75
84	10
85	327
86	34
87	3
91	3
94	5
95	20
97	4
99	43
100	5
109	75
110	12
111	7
112	2
113	112
114	8
115	2
116	11
117	3
126	10
127	921
128	102
129	11
136	0
137	6
138	1
151	0
152	3
153	1
170	21
171	4
172	0
