Mass Spectrum: 1,5-Dithiaspiro[5.7]tridecane
Formula: C11H20S2
CAS: 51520-95-7
Molecular weight: 216
m/z	intensity
27	69
28	16
29	63
39	113
40	20
41	291
42	25
43	33
45	114
46	42
47	61
51	14
53	65
54	30
55	103
58	47
59	53
60	19
61	25
64	19
65	44
66	17
67	304
68	44
69	26
71	104
72	22
73	98
74	102
75	35
77	34
78	19
79	103
80	45
81	112
82	58
83	21
85	46
86	30
87	85
88	25
91	25
93	55
95	32
97	20
99	74
100	63
101	33
105	14
106	999
107	92
108	157
109	350
110	39
111	12
113	46
114	185
115	26
116	10
119	23
127	24
132	101
133	27
134	18
141	309
142	146
143	36
145	228
146	27
147	27
155	21
159	12
169	24
173	12
183	25
187	15
188	159
189	21
190	16
216	525
217	77
218	53
