Mass Spectrum: Methyl 1-benzyl-5-oxo-3-pyrrolidinecarboxylate
Formula: C13H15NO3
CAS: 51535-00-3
Molecular weight: 233
m/z	intensity
14	3
15	85
16	2
26	9
27	63
28	45
29	15
30	15
31	4
32	1
33	2
37	2
38	12
39	131
40	23
41	137
42	60
43	13
44	4
45	9
46	1
47	1
50	25
51	66
52	21
53	11
54	15
55	111
56	21
57	3
58	4
59	61
60	15
61	3
62	10
63	47
64	16
65	208
66	17
67	9
68	53
69	27
70	5
71	10
72	6
73	5
74	7
75	6
76	9
77	58
78	32
79	14
80	4
81	2
82	19
83	5
84	3
85	8
86	7
87	36
88	5
89	56
90	34
91	999
92	165
93	13
94	2
95	5
96	19
97	3
98	24
99	14
100	12
101	64
102	10
103	10
104	191
105	54
106	84
107	9
108	2
110	3
111	1
112	3
113	4
114	64
115	17
116	8
117	24
118	170
119	372
120	73
121	9
122	1
124	2
126	1
127	26
128	14
129	32
130	12
131	9
132	72
133	12
134	3
140	1
141	2
142	223
143	21
144	22
145	24
146	264
147	48
148	6
149	1
154	2
155	3
156	20
157	4
158	9
159	5
160	4
161	1
162	1
171	1
172	23
173	38
174	88
175	15
176	8
177	2
181	1
183	1
188	4
189	1
190	50
191	9
192	1
200	5
201	2
202	48
203	9
204	27
205	11
206	2
214	1
215	1
216	4
217	1
218	14
219	4
231	1
232	45
233	718
234	114
235	14
236	2
