Mass Spectrum: Geranyl caprylate
Formula: C18H32O2
CAS: 51532-26-4
Molecular weight: 280
m/z	intensity
27	29
29	54
39	52
40	20
41	447
42	44
43	136
53	66
55	103
56	18
57	375
58	17
60	11
65	21
66	9
67	190
68	598
69	999
70	63
77	25
79	37
80	254
81	95
83	19
84	19
85	13
91	28
92	112
93	503
94	98
95	31
97	10
107	97
108	30
109	21
119	11
121	339
122	37
123	45
127	202
128	19
136	143
137	23
139	7
154	19
212	2
280	1
