Mass Spectrum: 1H-Naphtho[2,1-b]pyran, 4a,5,6,6a,7,8,9,10,10a,10b-decahydro-3,4a,7,7,10a-pentamethyl-, [4aR-(4a.alpha.,6a.beta.,10a.alpha.,10b.beta.)]-
Formula: C18H30O
CAS: 5153-92-4
Molecular weight: 262
m/z	intensity
27	29
29	49
39	77
41	341
42	25
43	597
44	12
45	20
52	12
53	129
54	23
55	321
56	38
57	45
58	12
65	59
66	21
67	251
68	86
69	418
70	30
71	279
72	16
77	135
78	24
79	203
80	120
81	682
82	166
83	143
84	26
85	44
89	8
91	168
92	38
93	211
94	72
95	533
96	71
97	64
98	22
99	15
103	20
105	128
106	39
107	306
108	102
109	999
110	115
111	134
115	25
116	11
117	28
119	125
120	69
121	386
122	197
123	519
124	216
125	136
126	22
128	12
129	13
131	23
133	97
134	35
135	225
136	193
137	250
138	85
139	33
143	19
145	21
147	45
148	40
149	136
150	135
151	56
159	44
161	41
162	13
163	68
164	12
165	31
166	31
173	45
174	11
177	275
178	47
179	14
187	19
188	15
189	106
190	27
191	521
192	114
201	54
202	13
204	74
215	7
216	5
217	34
219	38
229	228
230	38
231	6
233	3
244	80
245	45
246	9
247	119
248	25
249	3
260	2
262	564
263	112
264	15
