Mass Spectrum: Acetamide, N-(3-oxo-4-isoxazolidinyl)-, (R)-
Formula: C5H8N2O3
CAS: 51541-30-1
Molecular weight: 144
m/z	intensity
41	90
42	256
43	999
44	300
45	52
46	10
49	5
51	4
52	3
53	6
54	17
55	16
56	20
57	55
58	62
59	138
60	192
61	6
67	3
68	9
69	11
70	15
71	16
72	15
73	33
74	51
75	27
76	6
80	1
81	3
82	4
83	13
84	41
85	41
86	29
87	41
88	20
89	6
91	0
95	0
96	5
97	4
98	7
99	83
100	8
101	13
102	31
103	2
104	16
106	6
109	1
110	4
111	11
112	30
113	6
114	1
115	3
116	6
117	21
118	0
120	2
124	3
125	2
126	10
127	8
128	6
129	45
130	1
131	4
132	0
142	7
143	14
144	52
145	8
146	2
