Mass Spectrum: 13-Oxabicyclo[9.3.1]pentadecane
Formula: C14H26O
CAS: 51547-45-6
Molecular weight: 210
m/z	intensity
27	282
28	76
29	363
30	13
31	34
36	2
37	12
38	14
39	325
40	69
41	999
42	143
43	471
44	21
45	29
50	6
51	21
52	14
53	142
54	278
55	759
56	140
57	102
58	110
59	8
63	3
64	2
65	32
66	41
67	433
68	276
69	296
70	64
71	50
72	12
77	34
78	16
79	113
80	284
81	371
82	261
83	323
84	43
85	20
86	8
91	22
92	8
93	97
94	116
95	284
96	157
97	230
98	37
99	4
100	2
105	7
106	2
107	82
108	65
109	150
110	70
111	43
112	14
113	3
119	3
120	4
121	97
122	41
123	55
124	23
125	13
126	9
127	3
128	2
131	2
134	2
135	85
136	35
137	19
138	9
139	5
140	2
142	2
148	2
149	44
150	21
151	10
152	3
153	4
154	2
155	3
163	21
164	16
165	22
166	21
167	6
169	3
176	2
177	7
178	5
179	32
180	5
192	41
193	7
208	4
209	3
210	96
211	16
212	2
