Mass Spectrum: Vomitoxin, triacetoxy deriv.
Formula: C21H26O9
CAS: 51550-28-8
Molecular weight: 422
m/z	intensity
41	93
43	999
55	45
57	57
67	32
69	43
77	43
79	77
97	50
98	184
107	76
108	78
123	33
125	45
135	69
136	84
137	110
145	48
151	62
163	232
164	31
175	32
181	120
203	22
205	15
217	10
223	58
231	19
248	13
249	9
260	12
265	4
278	2
290	93
291	34
302	74
303	18
320	6
325	3
380	20
381	2
422	11
423	1
