Mass Spectrum: 2(1H)-Naphthalenone, octahydro-4a,5-dimethyl-, (4a.alpha.,5.alpha.,8a.beta.)-
Formula: C12H20O
CAS: 51557-64-3
Molecular weight: 180
m/z	intensity
38	10
39	540
40	110
41	999
42	310
43	340
50	20
51	80
52	40
53	320
54	100
55	670
56	150
57	240
58	10
59	10
63	20
65	80
66	40
67	460
68	330
69	470
70	90
71	100
77	120
78	30
79	170
80	50
81	440
82	360
83	250
84	100
85	50
91	120
92	50
93	140
94	50
95	390
96	150
97	90
98	40
99	10
103	10
104	10
105	70
106	40
107	120
108	450
109	990
110	220
111	160
112	30
113	10
115	10
117	10
118	10
119	40
120	20
121	50
122	160
123	310
124	130
125	210
126	30
127	10
128	10
129	10
131	10
133	40
134	10
135	20
136	30
137	100
138	40
139	10
141	20
142	10
145	10
147	80
148	10
149	10
151	150
152	30
153	10
155	10
156	10
160	10
161	10
162	60
163	30
164	10
165	130
166	20
178	40
179	20
180	580
181	80
182	10
