Mass Spectrum: 1,2-Cyclohexanedicarboxaldehyde
Formula: C8H12O2
CAS: 51555-65-8
Molecular weight: 140
m/z	intensity
26	37
27	353
28	72
29	317
30	9
31	72
36	2
37	2
38	5
39	399
40	60
41	921
42	121
43	193
44	54
45	33
46	1
47	2
49	2
50	16
51	50
52	54
53	277
54	180
55	858
56	136
57	466
58	52
59	3
60	3
61	2
63	5
64	2
65	72
66	130
67	555
68	437
69	186
70	430
71	107
72	7
73	15
75	5
76	2
77	233
78	57
79	703
80	145
81	999
82	136
83	613
84	208
85	19
86	21
87	2
88	2
89	3
90	2
91	125
92	23
93	221
94	472
95	106
96	337
97	239
98	34
99	11
103	2
104	6
105	3
106	7
107	25
108	4
109	15
110	13
111	234
112	789
113	63
114	4
120	3
121	18
122	94
123	27
124	9
125	47
126	5
127	6
128	8
129	1
138	3
139	9
140	50
141	15
