Mass Spectrum: Butanoic acid, 4-(2,4-dichlorophenoxy)-, 2-methylpropyl ester
Formula: C14H18Cl2O3
CAS: 51550-64-2
Molecular weight: 304
m/z	intensity
36	12
37	6
38	15
39	154
40	261
41	651
42	273
43	577
44	58
45	186
46	4
47	4
48	1
49	5
50	13
51	16
52	3
53	15
54	5
55	86
56	62
57	605
58	33
59	20
60	20
61	9
62	17
63	77
64	11
65	25
66	4
67	11
68	14
69	438
70	50
71	38
72	8
73	39
74	20
75	41
76	6
77	19
78	5
79	12
80	3
81	16
82	9
83	24
84	10
85	51
87	999
88	111
89	18
91	142
92	16
93	9
94	4
95	11
96	6
97	22
98	34
99	28
100	22
101	24
103	11
104	2
105	6
106	2
107	20
108	4
109	38
110	12
111	39
112	9
113	23
114	3
115	9
117	6
118	2
119	4
120	1
121	7
122	13
123	28
124	7
125	10
126	11
127	11
128	37
129	5
130	11
131	3
133	38
135	26
136	5
137	5
138	2
139	3
140	2
141	5
143	186
144	17
145	22
147	22
149	14
150	3
151	3
152	1
153	3
154	2
155	4
156	1
157	1
159	2
162	172
163	20
164	95
165	9
166	16
167	2
168	3
169	2
170	1
171	1
175	15
176	2
177	10
178	1
179	2
181	1
184	1
185	1
186	2
187	1
188	2
189	6
191	5
193	1
197	8
198	1
199	2
220	2
222	1
231	54
233	40
234	3
235	5
246	3
256	2
258	1
288	1
290	2
292	2
294	1
304	2
306	1
