Mass Spectrum: Acetic acid,(2,4,5-trichlorophenoxy)-,tert-butyl ester
Formula: C12H13Cl3O3
CAS: 51550-50-6
Molecular weight: 310
m/z	intensity
40	264
41	708
43	232
56	134
57	999
59	122
97	74
109	84
111	30
127	44
143	28
145	47
146	30
169	18
179	33
181	35
196	71
198	69
199	23
209	42
210	47
219	55
221	42
254	35
256	36
257	12
267	3
269	2
276	1
278	1
310	39
312	41
