Mass Spectrum: Pyridine-3-carconitrile, 1,2-dihydro-4-methyl-6-dimethylamino-2-oxo-
Formula: C9H11N3O
CAS: 51562-86-8
Molecular weight: 177
m/z	intensity
33	4
37	46
38	62
39	145
40	82
42	572
44	999
46	2
48	0
49	6
50	89
51	169
52	142
53	52
54	45
55	52
56	22
57	6
58	1
60	2
61	6
62	22
63	84
64	84
65	79
66	153
67	90
68	52
69	28
71	16
72	6
73	5
75	71
76	77
78	433
79	82
80	44
81	12
82	7
83	23
86	1
87	4
88	42
90	28
91	80
92	74
93	24
94	11
95	4
100	3
101	5
102	6
103	19
105	122
106	183
107	45
108	9
109	4
111	1
115	1
116	8
117	36
118	15
119	31
120	21
121	9
122	3
124	0
128	0
129	4
130	17
131	17
132	51
133	204
134	65
135	28
136	3
137	1
141	1
142	0
143	7
144	14
146	27
148	611
149	59
150	3
157	1
158	1
160	23
162	478
163	18
164	1
177	511
178	36
179	2
