Mass Spectrum: Cyclopropane, 1-(2-methylene-3-butenyl)-1-(1-methylenepropyl)-
Formula: C12H18
CAS: 51567-07-8
Molecular weight: 162
m/z	intensity
25	3
26	20
27	418
28	33
29	264
30	5
31	1
34	1
35	3
37	13
38	21
39	439
40	71
41	697
42	34
43	69
44	4
45	1
47	4
48	1
49	5
50	48
51	161
52	84
53	327
54	33
55	546
56	28
58	9
59	4
60	2
61	3
62	18
63	58
64	22
65	211
66	67
67	566
68	45
69	34
70	6
71	4
73	0
74	5
75	22
76	7
77	412
78	126
79	668
80	141
81	70
82	15
83	10
84	2
85	1
87	5
88	4
89	21
90	15
91	999
92	248
93	422
94	71
95	143
96	14
97	1
100	3
101	7
102	11
103	67
104	40
105	777
106	188
107	105
108	29
109	9
115	51
116	22
117	100
118	39
119	231
120	75
121	34
122	3
127	4
128	9
129	12
130	6
131	44
132	17
133	505
134	172
135	19
144	0
145	4
146	4
147	110
148	14
161	2
162	8
