Mass Spectrum: Phosphine, (1,1-dimethylethyl)bis(1-methylethyl)-
Formula: C10H23P
CAS: 51567-05-6
Molecular weight: 174
m/z	intensity
25	3
26	22
27	155
28	16
29	209
30	5
31	1
33	1
34	2
35	8
37	4
38	7
39	110
40	20
41	496
42	43
43	619
44	21
45	76
46	20
47	74
48	28
49	12
50	5
51	4
52	2
53	10
54	2
55	48
56	22
57	750
58	33
59	40
60	6
61	80
62	8
63	6
64	3
65	1
67	2
69	30
70	4
71	22
72	13
73	38
74	82
75	130
76	999
77	127
78	4
79	1
80	1
83	13
84	2
85	7
87	5
88	3
89	30
90	25
91	4
92	21
93	1
101	2
102	1
103	68
104	4
115	1
116	3
117	30
118	590
119	51
120	1
121	0
123	0
131	6
132	33
133	3
134	4
138	0
145	1
148	3
149	1
159	8
160	4
173	1
174	204
175	24
176	1
