Mass Spectrum: Dispiro[2.1.2.4]undecane, 8-methylene-
Formula: C12H18
CAS: 51567-08-9
Molecular weight: 162
m/z	intensity
24	0
25	3
26	22
27	280
28	42
29	123
30	4
31	0
34	2
37	8
38	20
39	397
40	84
41	517
42	27
43	33
44	1
45	1
46	3
49	3
50	39
51	143
52	87
53	220
54	43
55	179
56	12
58	12
59	6
60	1
61	3
62	16
63	50
64	28
65	186
66	79
67	279
68	30
69	26
70	6
71	6
72	2
73	2
74	6
75	27
76	10
77	393
78	171
79	800
80	250
81	157
82	27
83	5
84	4
85	1
87	6
88	3
89	21
90	18
91	999
92	278
93	361
94	136
95	92
96	8
97	0
101	4
102	8
103	48
104	31
105	506
106	245
107	96
108	52
109	5
110	1
111	1
113	2
114	2
115	40
116	15
117	69
118	23
119	494
120	114
121	65
122	5
123	0
127	3
128	7
129	6
130	1
131	18
132	6
133	227
134	381
135	38
136	1
141	0
145	3
146	1
147	95
148	9
161	5
162	14
163	0
