Mass Spectrum: Nitrous acid, cyclohexyl ester
Formula: C6H11NO2
CAS: 5156-40-1
Molecular weight: 129
m/z	intensity
26	10
27	202
28	60
29	161
30	828
31	40
38	10
39	212
40	30
41	434
42	353
43	141
44	222
45	30
51	20
53	40
54	141
55	626
56	161
57	999
58	70
67	232
68	10
69	191
70	131
71	131
72	60
79	10
80	20
81	111
82	545
83	80
97	10
98	292
99	20
100	30
