Mass Spectrum: Diazene, [1-(2,2-diethylhydrazino)ethyl]ethyl-
Formula: C8H20N4
CAS: 51576-32-0
Molecular weight: 172
m/z	intensity
27	224
28	280
29	360
30	184
31	44
41	44
42	312
43	68
44	999
45	36
46	44
56	116
57	40
58	288
59	60
70	44
71	114
72	520
73	96
85	18
86	40
87	124
99	184
114	52
115	760
116	64
