Mass Spectrum: Diazene, [1-(2,2-dimethylhydrazino)ethyl]ethyl-
Formula: C6H16N4
CAS: 51576-31-9
Molecular weight: 144
m/z	intensity
28	110
29	98
30	63
41	26
42	189
43	34
44	999
45	89
46	46
56	11
57	12
58	83
59	106
60	10
70	10
71	34
72	6
85	32
86	55
87	511
88	31
