Mass Spectrum: Diazene, [1-(2,2-dimethylhydrazino)butyl]ethyl-
Formula: C8H20N4
CAS: 51576-33-1
Molecular weight: 172
m/z	intensity
27	196
28	349
29	22
30	392
31	18
39	39
41	122
42	270
43	340
44	999
45	170
46	331
55	39
56	87
57	35
58	118
59	340
60	22
70	109
71	126
72	157
73	74
85	135
86	122
99	23
114	78
115	781
116	70
