Mass Spectrum: Succinic acid, .alpha.,.alpha.'-dibromo-, dimethyl ester
Formula: C6H8Br2O4
CAS: 51575-86-1
Molecular weight: 302
m/z	intensity
25	21
26	169
27	37
28	61
29	95
30	21
31	20
32	9
36	1
37	3
38	4
39	61
40	6
41	54
42	15
43	4
44	4
45	15
47	2
52	5
53	98
54	56
55	21
56	2
57	11
59	999
60	22
61	4
69	25
70	1
71	2
72	1
75	19
79	14
80	11
81	23
82	21
83	2
85	144
86	6
87	1
91	1
92	3
93	13
94	9
95	15
96	5
97	3
99	3
100	1
103	2
104	13
105	141
106	17
107	137
108	4
109	29
110	1
111	34
113	169
114	14
115	2
119	10
120	5
121	13
122	5
123	27
125	23
131	5
133	272
134	13
135	254
136	12
137	1
138	3
143	1
149	1
151	1
153	1
155	1
160	1
161	1
163	7
164	26
165	9
166	25
167	3
171	1
173	1
175	2
177	2
179	400
180	27
181	380
182	21
183	4
184	5
185	4
186	10
187	2
188	5
189	1
191	384
192	25
193	369
194	21
195	13
196	1
197	11
198	1
199	25
200	1
201	49
202	1
203	23
211	2
213	4
215	3
217	3
219	1
223	305
224	25
225	271
226	20
227	3
239	2
241	4
243	7
245	10
247	4
271	37
272	2
273	70
274	4
275	36
276	1
302	1
304	2
306	1
