Mass Spectrum: 2,2,2-Trifluoro-1-phenyl-ethylamine
Formula: C8H8F3N
CAS: 51586-24-4
Molecular weight: 175
m/z	intensity
26	10
27	20
28	310
29	10
31	10
32	10
38	10
39	30
45	10
50	40
51	100
52	40
53	120
54	10
59	10
62	10
63	20
68	10
69	20
74	10
75	10
76	10
77	190
78	60
79	310
80	20
82	10
89	10
96	10
98	20
104	80
105	20
106	999
107	100
108	10
109	50
127	10
136	50
137	10
173	10
