Mass Spectrum: Tetrafluoro(perfluoroisopropyl)iodine
Formula: C3F11I
CAS: 51585-87-6
Molecular weight: 372
m/z	intensity
31	170
50	60
69	999
81	40
93	40
100	400
119	60
127	260
131	140
146	10
150	220
158	10
165	10
169	120
181	80
184	10
189	10
196	10
203	10
208	10
227	40
254	240
277	80
296	410
315	10
334	10
