Mass Spectrum: Propenone, 1-chloro-3-phenyl-, phenylhydrazone
Formula: C15H13ClN2
CAS: 51589-22-1
Molecular weight: 256
m/z	intensity
33	3
34	0
35	0
36	5
37	5
38	27
39	122
40	17
41	25
42	1
43	0
44	0
46	0
47	0
50	26
51	64
52	29
53	2
54	1
57	0
59	0
61	3
62	13
63	59
64	141
65	352
66	22
67	0
72	0
73	2
74	9
75	14
77	196
78	29
79	2
80	1
82	0
84	0
85	0
86	1
87	3
88	4
89	20
91	999
92	364
93	37
94	2
96	1
97	2
99	3
100	4
101	17
102	45
103	35
104	16
105	8
106	0
107	0
109	5
110	8
112	0
113	4
115	106
116	20
117	10
118	2
119	0
123	0
124	0
125	3
128	73
129	67
130	23
131	2
137	0
138	0
139	0
140	1
141	2
142	1
143	7
144	1
149	2
150	0
151	1
152	2
153	1
154	1
155	0
162	0
164	12
165	9
166	5
167	5
168	19
169	2
176	0
177	0
178	2
179	8
180	19
181	5
182	0
183	0
189	3
191	31
192	23
193	14
194	8
195	1
199	0
201	0
202	0
203	1
204	2
205	2
206	1
214	0
219	513
220	224
221	59
222	7
223	0
253	1
254	2
256	763
257	148
258	241
259	40
260	3
261	0
