Mass Spectrum: Butanedioic acid, 2,3-bis(acetyloxy)-, [R-(R*,R*)]-
Formula: C8H10O8
CAS: 51591-38-9
Molecular weight: 234
m/z	intensity
12	7
13	11
14	42
15	114
16	10
17	10
18	44
24	2
25	6
26	13
27	7
28	109
29	82
30	17
31	42
32	7
36	1
39	3
40	4
41	26
42	123
43	999
44	232
45	173
46	4
47	1
53	4
54	4
55	4
56	2
57	2
58	11
59	7
60	214
61	17
62	1
67	2
68	2
69	18
70	21
71	21
72	3
73	9
74	5
75	1
76	13
77	2
79	3
80	2
81	2
82	1
83	1
84	2
85	1
86	4
87	7
88	6
89	2
90	4
96	1
97	1
98	1
99	1
100	17
101	2
102	35
103	9
104	1
105	3
112	1
115	1
117	2
118	5
119	1
124	1
129	16
130	4
144	1
147	5
160	1
189	1
