Mass Spectrum: (4S,5S)-(-)-2-Ethyl-5-phenyl-2-oxazoline-4-methanol
Formula: C12H15NO2
CAS: 51594-33-3
Molecular weight: 205
m/z	intensity
15	9
26	6
27	47
28	42
29	146
30	8
31	29
37	1
38	6
39	40
40	7
41	35
42	20
43	187
44	95
45	4
50	13
51	38
52	10
53	6
54	17
55	16
56	114
57	150
58	8
59	3
60	9
61	1
62	6
63	20
64	9
65	27
66	3
67	2
68	8
69	5
70	11
71	13
72	2
73	1
74	4
75	4
76	5
77	70
78	13
79	12
80	6
81	5
82	466
83	28
84	55
85	3
86	1
87	1
88	1
89	38
90	28
91	253
92	25
93	2
94	1
96	6
97	4
98	168
99	999
100	60
101	5
102	4
103	18
104	9
105	24
106	3
107	9
108	1
115	6
116	8
117	20
118	34
119	313
120	32
121	2
128	6
129	2
130	8
131	10
132	8
133	2
136	1
144	1
145	5
146	14
147	2
148	9
149	3
150	1
158	2
172	1
173	9
174	413
175	61
176	6
187	1
205	64
206	9
207	1
