Mass Spectrum: (1S,2S)-(+)-2-Amino-3-methoxy-1-phenyl-1-propanol
Formula: C10H15NO2
CAS: 51594-34-4
Molecular weight: 181
m/z	intensity
14	0
15	39
16	1
17	4
18	14
26	2
27	18
28	46
29	42
30	52
31	9
32	1
33	3
38	2
39	18
40	2
41	1
42	157
43	79
44	249
45	57
46	2
50	8
51	40
52	10
53	6
54	0
55	1
56	15
57	3
58	16
59	23
60	1
62	2
63	7
64	0
65	13
66	1
72	0
74	999
75	34
76	0
77	111
78	19
79	65
80	4
85	0
86	0
87	0
89	11
91	91
92	6
93	1
102	1
103	5
105	46
106	16
107	30
108	4
115	3
116	1
117	8
118	115
119	27
120	3
121	0
130	5
131	2
132	3
133	1
135	0
136	49
137	3
164	1
182	2
