Mass Spectrum: 1-Butene, 4-isothiocyanato-1-(methylthio)-
Formula: C6H9NS2
CAS: 51598-96-0
Molecular weight: 159
m/z	intensity
26	90
27	330
28	190
29	40
32	80
33	30
34	10
35	30
37	40
38	60
39	340
40	40
41	180
42	20
43	30
44	80
45	950
46	110
47	190
48	30
49	30
50	60
51	100
52	50
53	200
54	42
55	40
56	20
57	60
58	150
59	190
60	50
61	120
62	10
63	10
64	10
65	20
67	20
69	60
70	40
71	150
72	400
73	40
74	30
75	10
76	10
78	10
81	10
82	10
83	20
84	40
85	180
86	40
87	999
88	60
89	70
98	10
99	10
100	10
110	10
111	10
112	20
115	10
159	270
160	30
161	20
