Mass Spectrum: 2-Heptanone, 6-(2-furanyl)-6-methyl-
Formula: C12H18O2
CAS: 51595-87-0
Molecular weight: 194
m/z	intensity
37	30
39	55
43	200
53	25
79	20
81	70
85	40
109	999
110	90
121	90
194	60
