Mass Spectrum: Methylmalonic acid
Formula: C4H6O4
CAS: 516-05-2
Molecular weight: 118
m/z	intensity
12	5
13	9
14	19
15	28
16	9
17	2
18	7
24	7
25	42
26	285
27	679
28	817
29	563
30	152
31	46
32	1
36	7
37	9
38	8
39	8
40	6
41	34
42	42
43	103
44	415
45	918
46	138
47	67
48	1
51	2
52	9
53	69
54	41
55	862
56	934
57	97
58	6
59	2
60	1
63	6
68	2
69	21
70	2
71	16
72	186
73	986
74	999
75	43
76	5
77	1
78	1
80	1
82	2
83	9
86	2
87	2
99	8
100	205
101	216
102	9
103	2
118	54
119	8
120	1
