Mass Spectrum: DL-Valine
Formula: C5H11NO2
CAS: 516-06-3
Molecular weight: 117
m/z	intensity
2	1
14	2
15	7
17	6
18	25
19	5
26	7
27	66
28	195
29	107
30	80
31	2
32	1
33	1
37	2
38	8
39	66
40	7
41	83
42	27
43	71
44	11
45	14
46	53
49	1
50	1
51	4
52	6
53	10
54	20
55	286
56	97
57	190
58	31
60	2
67	4
68	5
69	9
70	24
71	6
72	999
73	56
74	344
75	139
76	6
78	1
79	1
81	4
82	5
83	5
84	9
85	4
99	2
100	2
