Mass Spectrum: Z,E-7,11-Hexadecadien-1-yl acetate
Formula: C18H32O2
CAS: 51607-94-4
Molecular weight: 280
m/z	intensity
14	1
15	6
26	2
27	43
28	8
29	58
30	2
31	4
38	2
39	89
40	16
41	396
42	42
43	683
44	17
45	4
50	3
51	9
52	7
53	92
54	350
55	999
56	57
57	54
58	5
59	1
60	1
61	52
62	2
63	2
64	1
65	43
66	46
67	737
68	202
69	223
70	21
71	23
72	3
73	21
74	1
77	59
78	26
79	249
80	185
81	944
82	299
83	79
84	7
85	12
86	2
87	2
91	52
92	14
93	198
94	139
95	300
96	282
97	94
98	9
99	3
100	1
101	1
103	2
104	1
105	12
106	6
107	124
108	63
109	85
110	88
111	17
112	2
113	1
115	2
116	1
117	2
119	4
120	4
121	150
122	104
123	123
124	76
125	11
126	2
127	1
128	1
129	1
133	2
134	2
135	97
136	64
137	55
138	42
139	6
140	1
141	5
142	1
143	1
147	2
148	2
149	89
150	42
151	15
152	9
153	2
162	1
163	48
164	21
165	4
166	1
167	1
177	15
178	6
179	2
181	1
191	7
192	7
193	1
196	1
205	1
209	1
219	1
220	22
221	4
223	3
224	1
237	4
238	1
280	12
281	2
