Mass Spectrum: 2-Methylenebicyclo[2.1.1]hexane
Formula: C7H10
CAS: 5164-65-8
Molecular weight: 94
m/z	intensity
25	1
26	23
27	207
28	33
29	21
30	0
31	2
32	3
37	8
38	30
39	277
40	59
41	91
42	11
43	3
44	1
45	12
46	3
47	0
49	3
50	39
51	84
52	49
53	192
54	76
55	18
56	0
57	2
59	7
60	1
61	3
62	10
63	24
64	8
65	65
66	101
67	30
68	4
69	2
73	1
74	3
75	21
76	3
77	312
78	51
79	999
80	67
81	2
84	0
86	1
87	0
89	12
90	2
91	128
92	12
93	157
94	181
95	14
96	1
