Mass Spectrum: Nonane, 3-methylene-
Formula: C10H20
CAS: 51655-64-2
Molecular weight: 140
m/z	intensity
21	0
22	0
26	6
27	165
29	212
30	4
36	1
37	4
38	4
39	134
40	25
41	449
42	300
43	275
44	7
45	0
46	0
47	0
49	0
50	3
51	11
52	6
53	46
54	37
55	785
56	121
57	47
58	1
63	1
64	0
65	8
66	3
67	42
68	15
69	226
70	999
71	158
72	6
77	4
78	0
79	4
80	0
81	8
82	7
83	81
84	27
85	3
88	1
91	1
95	1
97	6
98	3
109	0
110	13
111	67
112	10
125	0
140	27
141	2
