Mass Spectrum: 1-[5-Hydroxy-2-methyl-1-(p-tolyl)-3-indolyl]ethanone
Formula: C18H17NO2
CAS: 5165-56-0
Molecular weight: 279
m/z	intensity
33	1
36	0
37	7
38	42
39	342
40	38
41	109
43	999
45	7
46	0
50	82
51	183
52	77
53	68
54	12
55	35
56	15
57	5
58	2
59	0
61	7
62	61
63	247
64	88
65	461
66	39
67	11
68	2
69	2
70	1
71	1
72	4
74	30
75	61
76	53
77	116
78	33
79	18
80	20
81	5
82	5
83	2
84	1
85	1
86	10
87	21
88	23
89	217
90	112
91	326
92	53
93	9
94	2
95	11
96	2
97	0
98	3
99	4
100	4
101	21
102	32
103	28
104	15
105	8
106	3
107	2
108	6
110	8
111	5
112	0
113	6
114	10
115	39
116	63
117	62
118	26
119	11
120	3
121	0
122	0
123	3
125	5
126	6
127	11
128	13
129	7
130	14
131	14
132	20
134	0
135	0
136	2
137	1
138	2
139	19
140	20
141	7
142	8
143	11
144	37
145	30
146	5
147	4
148	0
149	0
150	3
151	9
152	18
153	8
154	6
155	2
156	2
157	0
158	4
159	8
160	3
161	0
162	0
163	5
164	8
165	26
166	13
167	13
168	4
169	0
170	1
171	0
172	15
173	65
174	8
175	15
176	7
177	6
178	13
179	5
180	8
181	5
182	5
183	1
186	0
187	0
188	0
189	4
190	21
191	41
192	39
193	19
194	7
195	2
196	7
197	1
201	0
202	3
203	5
204	25
205	9
206	15
207	11
208	9
209	2
210	1
215	0
216	2
217	5
218	9
219	6
220	72
221	33
222	5
231	0
232	2
233	7
234	18
235	7
236	11
237	2
248	4
249	6
250	3
262	0
264	227
265	44
266	4
279	92
280	16
281	1
