Mass Spectrum: 1-Propen-2-amine, N,N-dimethyl-1-(1,2,4-triazin-5-yl)-
Formula: C8H12N4
CAS: 51659-18-8
Molecular weight: 164
m/z	intensity
42	589
56	979
70	460
80	190
94	919
95	280
108	999
109	370
110	230
120	460
121	390
135	300
164	829
