Mass Spectrum: 3-Hexen-2-one, 5-methyl-
Formula: C7H12O
CAS: 5166-53-0
Molecular weight: 112
m/z	intensity
25	0
26	28
27	179
28	33
29	44
30	2
31	4
33	0
34	0
37	10
38	27
39	212
40	28
41	882
42	74
43	999
44	23
45	3
46	0
47	0
49	4
50	33
51	50
52	17
53	99
54	29
55	119
56	9
57	5
58	17
59	8
60	0
61	1
62	6
63	8
64	1
65	11
66	6
67	63
68	16
69	324
70	38
71	26
72	1
74	1
75	0
76	1
77	16
78	2
79	54
80	4
81	15
82	10
83	7
84	2
85	0
86	0
89	0
91	4
92	1
93	4
94	1
95	12
96	1
97	396
98	23
99	1
101	0
103	0
106	0
107	0
108	0
109	1
110	5
111	9
112	251
113	20
114	1
