Mass Spectrum: Silane, trifluoro(2-methyl-2-butenyl)-
Formula: C5H9F3Si
CAS: 51676-19-8
Molecular weight: 154
m/z	intensity
27	390
28	130
29	709
39	475
41	999
42	260
53	200
55	899
69	609
85	170
105	130
125	150
126	110
139	450
154	559
