Mass Spectrum: 1-(2-Nitrophenyl)-1,2-ethanediol
Formula: C8H9NO4
CAS: 51673-59-7
Molecular weight: 183
m/z	intensity
15	9
17	47
18	214
20	9
26	22
27	92
28	145
29	427
30	314
31	157
36	36
37	45
38	91
39	253
40	33
41	52
42	15
43	35
44	24
45	14
46	16
47	11
49	16
50	240
51	535
52	255
53	70
54	15
55	14
60	13
61	39
62	73
63	208
64	226
65	519
66	244
67	31
73	15
74	93
75	85
76	330
77	999
78	192
79	535
80	57
81	8
86	7
87	8
89	53
90	56
91	366
92	307
93	442
94	46
98	8
103	28
104	779
105	370
106	41
107	48
108	14
109	7
117	10
119	99
120	50
121	492
122	38
127	17
131	30
132	4
133	13
134	89
135	466
136	38
137	2
150	7
152	629
153	45
