Mass Spectrum: Bicyclo[2.2.1]heptane, 7-bicyclo[2.2.1]hept-7-ylidene-
Formula: C14H20
CAS: 51689-29-3
Molecular weight: 188
m/z	intensity
27	156
28	4
29	98
38	6
39	206
40	36
41	268
42	28
43	45
44	8
50	23
51	94
52	43
53	139
54	28
55	104
57	12
62	12
63	52
64	34
65	178
66	98
67	281
68	23
69	36
75	16
76	20
77	284
78	257
79	533
80	533
81	153
82	14
83	11
89	31
90	7
91	999
92	216
93	210
94	69
95	56
96	10
102	27
103	94
104	136
105	413
106	356
107	365
108	103
109	53
110	10
111	8
115	203
116	123
117	738
118	229
119	288
120	217
121	81
122	37
127	30
128	82
129	144
130	84
131	760
132	426
133	223
134	546
135	60
141	19
142	13
143	22
144	22
145	320
146	114
147	106
148	17
149	8
157	12
158	17
159	973
160	906
161	115
173	147
174	20
187	27
188	692
189	103
190	10
