Mass Spectrum: 7,7-Dibromobicyclo[2.2.1]heptane
Formula: C7H10Br2
CAS: 51689-30-6
Molecular weight: 252
m/z	intensity
25	2
26	59
27	285
28	69
29	53
30	1
36	1
37	35
38	99
39	640
40	73
41	143
42	9
43	7
44	3
45	23
46	14
49	9
50	74
51	149
52	43
53	95
54	27
55	85
56	4
57	1
59	1
60	18
61	17
62	43
63	99
64	28
65	473
66	212
67	85
68	223
69	10
71	4
73	1
74	7
75	6
76	4
77	219
78	50
79	104
80	16
81	49
82	15
83	14
84	10
85	4
86	4
87	1
89	14
90	5
91	155
92	26
93	999
94	90
95	9
104	3
105	5
106	4
107	6
108	1
109	2
117	17
118	3
119	24
120	1
121	7
131	12
132	2
133	12
134	2
135	1
143	7
144	27
145	42
146	28
147	34
148	2
157	3
158	1
159	4
160	1
173	244
175	17
176	232
177	17
197	3
199	7
201	3
210	21
211	2
212	41
213	4
214	20
215	2
252	2
254	5
256	2
