Mass Spectrum: Benzoic acid, 4-[3-[(1,1-dimethylethyl)amino]-2-hydroxypropoxy]-, methyl ester
Formula: C15H23NO4
CAS: 51698-62-5
Molecular weight: 281
m/z	intensity
41	115
57	292
70	108
71	77
86	999
87	77
121	62
130	48
135	24
152	16
165	24
237	24
250	8
266	354
267	38
280	1
281	1
