Mass Spectrum: 7,12-Diketolithocholic acid
Formula: C24H36O5
CAS: 517-33-9
Molecular weight: 404
m/z	intensity
41	556
42	101
43	732
44	157
45	148
51	26
52	16
53	186
54	68
55	999
56	74
57	265
58	20
59	147
60	217
61	17
65	101
66	56
67	468
68	157
69	280
70	62
71	73
73	73
74	37
77	267
78	73
79	534
80	124
81	543
82	130
83	228
84	90
85	99
86	28
91	432
92	73
93	519
94	252
95	435
96	88
97	86
98	16
99	42
101	45
103	38
104	17
105	272
106	71
107	318
108	105
109	433
110	79
111	51
112	16
114	14
115	53
116	21
117	86
118	22
119	167
120	60
121	385
122	103
123	166
124	88
125	37
127	37
128	31
129	57
130	23
131	107
132	26
133	123
134	65
135	253
136	100
137	163
138	36
139	14
140	34
141	41
142	76
143	69
144	22
145	125
146	40
147	148
148	78
149	130
150	66
151	92
152	21
153	16
154	17
155	25
156	15
157	60
158	23
159	157
160	137
161	120
162	51
163	151
164	60
165	34
169	36
171	74
172	27
173	142
174	49
175	76
176	24
177	46
178	55
179	22
180	16
181	72
182	25
183	39
185	138
186	37
187	56
188	26
189	42
190	15
191	42
193	15
194	15
195	31
196	15
197	36
198	19
199	75
200	20
201	59
202	16
203	43
205	20
206	16
207	20
208	26
209	35
210	19
211	38
212	16
213	61
214	17
215	35
217	29
221	27
223	21
225	46
226	15
227	154
228	54
229	46
230	17
231	40
233	54
235	21
237	18
239	40
240	20
241	154
242	144
243	73
244	17
245	175
246	47
247	27
248	21
249	49
250	18
251	35
253	46
254	60
255	23
256	17
257	33
258	18
259	86
260	46
261	169
262	37
263	761
264	138
265	30
267	120
268	42
269	44
270	14
271	29
272	29
273	14
274	45
275	31
276	53
277	107
278	20
285	90
286	25
287	15
289	98
290	32
291	31
292	51
293	31
295	59
296	29
303	149
304	36
305	14
309	53
313	16
314	44
327	26
335	31
342	15
345	64
346	19
353	51
358	15
360	65
361	15
368	145
369	46
386	198
387	63
389	25
404	120
405	36
