Mass Spectrum: 4-Methylquinolinic acid
Formula: C8H7NO4
CAS: 517-40-8
Molecular weight: 181
m/z	intensity
41	104
42	26
43	34
44	211
45	595
46	49
47	6
48	7
49	62
50	170
51	218
52	258
53	418
54	63
55	31
56	9
57	3
60	16
61	84
62	141
63	371
64	459
65	411
66	257
67	152
68	25
69	9
70	1
73	1
74	9
75	47
76	103
77	57
78	71
79	92
80	160
81	18
82	3
84	4
86	7
87	10
88	14
89	9
90	36
91	574
92	427
93	999
94	74
95	3
104	11
105	5
106	14
107	9
108	34
109	25
110	4
118	15
119	515
120	139
121	21
123	3
134	7
135	120
136	42
137	745
138	68
139	6
148	4
149	6
162	3
163	111
164	143
165	29
166	5
180	8
181	39
182	4
