Mass Spectrum: 1,6-Heptadiene, 2-methyl-6-phenyl-
Formula: C14H18
CAS: 51708-97-5
Molecular weight: 186
m/z	intensity
27	2
28	1
29	40
34	1
35	1
36	6
39	24
41	250
42	16
43	29
44	2
49	1
50	24
51	92
52	25
53	70
54	9
55	50
56	10
57	20
58	3
59	2
61	1
62	6
63	31
64	9
65	54
66	10
67	49
68	29
69	72
70	9
71	10
72	1
73	1
74	7
75	14
76	20
77	165
78	115
79	32
80	9
81	26
82	17
83	11
84	3
85	5
86	2
87	3
88	2
89	20
90	6
91	223
92	25
93	17
94	7
95	31
96	6
97	7
98	1
99	3
101	6
102	45
103	161
104	67
105	38
106	5
107	4
108	7
109	7
110	3
111	4
112	1
113	7
114	6
115	192
116	85
117	241
118	999
119	104
120	6
121	3
122	2
123	4
124	2
125	4
126	3
127	26
128	74
129	190
130	147
131	86
132	11
133	2
134	2
135	3
136	2
137	2
138	1
139	3
140	2
141	13
142	10
143	104
144	22
145	7
146	2
147	2
148	1
149	2
150	1
151	2
152	4
153	4
154	3
155	7
156	4
157	21
158	89
159	13
160	2
161	1
162	1
163	2
164	1
165	3
166	1
167	2
168	1
169	2
170	3
171	23
172	4
173	1
185	3
186	97
187	15
188	1
189	1
