Mass Spectrum: 2-Butyn-1-one, 1-(5-methyl-1H-1,2,3-triazol-4-yl)-
Formula: C7H7N3O
CAS: 51719-72-3
Molecular weight: 149
m/z	intensity
27	90
39	310
40	60
42	120
51	60
52	110
53	90
54	160
56	70
65	100
66	220
67	999
68	90
79	60
80	100
92	90
93	90
109	160
110	80
120	240
121	60
148	80
149	610
150	70
