Mass Spectrum: 2,2,4,4,5,5,7,7-Octamethyloctane
Formula: C16H34
CAS: 5171-85-7
Molecular weight: 226
m/z	intensity
14	1
27	14
28	7
29	47
30	1
32	1
39	22
41	167
42	9
43	69
44	2
51	1
53	11
55	87
57	999
58	45
65	1
66	1
67	7
68	1
69	30
70	4
71	21
77	1
79	2
81	2
83	49
84	13
85	57
86	3
97	24
99	84
100	6
112	42
113	85
114	7
155	6
