Mass Spectrum: Methanone, bis(5-methyl-1H-1,2,3-triazol-4-yl)-
Formula: C7H8N6O
CAS: 51719-73-4
Molecular weight: 192
m/z	intensity
27	230
29	60
30	50
39	80
41	70
42	620
43	190
52	150
53	120
54	560
55	160
56	210
66	160
67	250
69	200
80	120
81	140
82	130
83	150
84	50
93	100
107	80
108	170
109	80
110	999
111	80
114	60
121	60
122	80
135	120
136	100
163	60
164	230
177	90
192	670
193	90
