Mass Spectrum: Isopropyl methyl carbonate
Formula: C5H10O3
CAS: 51729-83-0
Molecular weight: 118
m/z	intensity
30	25
31	158
33	46
37	19
38	21
39	135
40	25
41	326
42	129
43	692
44	12
45	27
55	12
57	19
59	999
60	40
65	6
73	40
76	14
77	268
78	14
85	12
100	8
103	328
104	12
