Mass Spectrum: 1-Butanesulfinamide, 1,1,2,2,3,3,4,4,4-nonafluoro-N-methyl-
Formula: C5H4F9NOS
CAS: 51735-83-2
Molecular weight: 297
m/z	intensity
31	250
32	230
44	939
48	609
50	380
63	230
69	999
77	749
100	290
119	789
131	499
169	460
181	100
219	559
232	80
280	60
