Mass Spectrum: Phosphorimidic trichloride, [(nonafluorobutyl)sulfinyl]-
Formula: C4Cl3F9NOPS
CAS: 51735-88-7
Molecular weight: 417
m/z	intensity
31	440
32	130
35	190
36	270
47	420
48	80
50	150
63	829
67	689
69	999
82	460
100	499
101	150
113	130
117	989
131	599
152	230
163	80
167	60
169	120
219	270
232	40
251	60
