Mass Spectrum: Benzylthioacetic acid, benzyl ester
Formula: C16H16O2S
CAS: 51735-70-7
Molecular weight: 272
m/z	intensity
41	20
45	113
50	21
51	75
52	20
63	43
65	221
77	56
79	22
89	32
91	999
92	76
107	143
123	20
181	414
182	21
