Mass Spectrum: Nonafluoro-1-butanesulfinamide, TMS derivative
Formula: C7H10F9NOSSi
CAS: 51735-80-9
Molecular weight: 355
m/z	intensity
31	390
32	499
43	440
44	410
46	360
48	130
50	50
63	190
64	370
69	629
73	999
75	749
82	40
100	140
119	100
120	230
131	150
136	669
140	120
150	20
169	30
181	10
196	60
219	60
339	20
340	20
