Mass Spectrum: 2-Propanol, 1-butoxy-3-(1-piperidinyl)-
Formula: C12H25NO2
CAS: 51735-01-4
Molecular weight: 215
m/z	intensity
27	6
28	24
29	35
30	12
31	6
41	47
42	24
43	18
44	35
45	6
55	35
56	24
57	71
58	6
61	6
69	12
70	24
84	8
85	6
86	35
87	12
96	8
97	6
98	999
99	71
128	71
129	6
142	6
143	6
197	5
215	12
