Mass Spectrum: 1-Propanone, 1-[3-(acetyloxy)bicyclo[2.2.1]hept-5-en-2-yl]-2-methyl-, (2-endo,3-exo)-
Formula: C13H18O3
CAS: 51731-20-5
Molecular weight: 222
m/z	intensity
26	4
27	85
28	8
29	17
30	1
31	6
37	1
38	7
39	89
40	31
41	129
42	15
43	808
44	28
45	6
50	9
51	31
52	12
53	27
54	5
55	25
56	7
57	16
58	2
59	3
60	2
61	2
62	5
63	15
64	6
65	75
66	951
67	84
68	7
69	32
70	10
71	355
72	17
73	20
74	4
75	4
76	6
77	60
78	16
79	72
80	11
81	32
82	6
83	7
84	3
85	10
86	10
87	3
89	7
90	6
91	149
92	72
93	13
94	5
95	10
96	5
97	57
98	6
99	6
100	3
101	1
102	4
103	4
104	4
105	9
106	3
107	14
108	29
109	87
110	10
111	4
112	3
113	181
114	19
115	999
116	73
117	12
118	4
119	274
120	26
121	5
122	2
123	6
124	1
125	1
126	2
127	3
128	5
129	6
130	3
131	7
132	2
133	5
134	2
135	9
136	3
137	68
138	7
139	3
140	2
141	10
142	3
143	2
144	1
145	4
146	3
147	10
148	2
151	13
152	8
153	1
154	2
155	2
156	1
157	430
158	43
159	4
160	1
161	4
162	104
163	23
164	3
178	2
179	10
180	9
221	1
222	5
223	7
224	2
