Mass Spectrum: 1-Butanesulfinamide, 1,1,2,2,3,3,4,4,4-nonafluoro-
Formula: C4H2F9NOS
CAS: 51735-84-3
Molecular weight: 283
m/z	intensity
31	400
32	639
46	899
47	609
48	579
50	170
63	639
64	879
69	999
78	170
82	130
100	749
119	350
131	919
150	80
219	440
232	40
248	60
267	100
