Mass Spectrum: 2-Propanol, 1-methoxy-3-(1-piperidinyl)-
Formula: C9H19NO2
CAS: 51734-88-4
Molecular weight: 173
m/z	intensity
28	12
29	12
30	18
41	24
42	35
43	24
44	47
45	34
55	47
56	24
57	12
69	24
70	35
84	18
96	20
98	999
99	71
112	59
128	94
129	12
142	18
155	2
173	47
