Mass Spectrum: 1-Butanesulfinic acid, 1,1,2,2,3,3,4,4,4-nonafluoro-, anhydride
Formula: C8F18O3S2
CAS: 51735-74-1
Molecular weight: 550
m/z	intensity
31	170
32	50
48	80
50	70
63	579
64	230
69	999
82	80
94	50
100	190
101	80
113	120
119	310
131	290
150	20
163	40
169	190
201	10
213	30
219	330
233	140
251	15
264	20
283	70
301	30
315	50
333	30
383	5
483	80
502	110
518	6
534	20
550	2
