Mass Spectrum: Trifluoromethanesulfonamide, TMS derivative
Formula: C4H10F3NOSSi
CAS: 51735-79-6
Molecular weight: 205
m/z	intensity
31	80
32	270
43	190
44	110
48	30
50	20
58	30
63	30
64	220
69	170
73	999
75	949
82	20
90	10
120	30
121	30
136	170
140	60
189	10
