Mass Spectrum: 1-Tetradecene, 2-decyl-
Formula: C24H48
CAS: 51732-26-4
Molecular weight: 336
m/z	intensity
26	2
27	71
29	259
30	4
39	40
41	511
42	79
43	673
44	18
52	1
53	32
54	75
55	661
56	999
57	936
58	38
59	1
65	5
66	7
67	159
68	135
69	597
70	324
71	318
72	16
77	2
78	0
79	26
80	16
81	159
82	201
83	523
84	194
85	250
86	14
91	4
92	1
93	8
94	7
95	102
96	140
97	582
98	143
99	111
100	9
105	1
107	1
108	4
109	42
110	73
111	451
112	108
113	83
114	8
121	3
122	3
123	23
124	62
125	205
126	172
127	61
128	7
135	2
137	11
138	40
139	136
140	59
141	32
142	3
149	1
151	6
152	24
153	45
154	202
155	36
156	2
165	7
166	117
167	271
168	77
169	14
179	3
180	6
181	12
182	208
183	64
184	5
193	3
194	85
195	186
196	47
197	9
207	1
208	4
209	7
210	101
211	44
212	6
221	1
222	2
223	5
224	5
225	1
236	3
237	4
238	3
239	1
250	1
251	2
252	3
265	1
266	1
277	4
280	1
294	1
307	1
308	10
309	2
336	81
337	24
338	4
