Mass Spectrum: 1H,3H-Furo[3,4-c]furan, tetrahydro-
Formula: C6H10O2
CAS: 5175-36-0
Molecular weight: 114
m/z	intensity
26	20
27	194
28	126
29	414
30	25
31	58
39	300
40	40
41	472
42	97
43	136
44	117
45	145
51	15
53	115
54	300
55	796
56	184
57	252
58	92
65	15
66	68
67	214
68	160
69	218
70	482
71	97
73	30
81	328
82	34
83	999
84	83
85	15
86	44
95	248
96	385
97	24
113	15
114	35
