Mass Spectrum: 1-Nonen-3-one, 2-methyl-
Formula: C10H18O
CAS: 51756-19-5
Molecular weight: 154
m/z	intensity
15	39
16	2
17	12
18	41
26	21
27	256
28	69
29	199
30	4
31	4
37	6
38	17
39	309
40	58
41	999
42	100
43	432
44	15
45	3
50	4
51	15
52	7
53	30
54	12
55	88
56	42
57	40
58	3
59	2
62	2
63	4
65	6
66	7
67	14
68	18
69	788
70	53
71	12
72	5
77	5
78	1
79	6
80	1
81	6
82	11
83	22
84	740
85	77
86	9
91	2
93	7
94	2
95	9
96	5
97	89
98	13
99	3
107	4
108	2
109	2
110	5
111	66
112	11
113	26
114	2
121	2
125	16
126	4
136	2
139	9
153	2
154	56
155	6
