Mass Spectrum: Pentanoic acid, 2-acetyl-4-methyl-, methyl ester
Formula: C9H16O3
CAS: 51756-09-3
Molecular weight: 172
m/z	intensity
13	3
14	16
15	232
16	3
17	3
18	11
24	1
25	2
26	18
27	187
28	28
29	90
30	6
31	27
32	11
33	5
36	1
37	3
38	8
39	92
40	15
41	147
42	43
43	999
44	26
45	14
46	1
47	1
49	1
50	5
51	15
52	7
53	38
54	13
55	252
56	31
57	20
58	4
59	43
60	1
61	1
62	1
63	2
65	3
66	2
67	11
68	4
69	70
70	20
71	16
72	1
73	5
74	4
75	5
77	2
79	3
80	1
81	8
82	6
83	22
84	47
85	39
86	3
87	733
88	34
89	4
91	2
92	1
93	1
95	7
96	3
97	64
98	22
99	15
100	1
101	44
102	2
103	1
107	2
111	7
112	3
113	3
114	2
115	14
116	182
117	35
118	2
122	2
123	1
125	15
126	1
127	2
128	4
129	21
130	136
131	10
132	1
138	1
139	1
140	4
141	41
142	3
157	4
172	1
173	1
