Mass Spectrum: Butanoic acid, 2-acetyl-3-methyl-, methyl ester
Formula: C8H14O3
CAS: 51756-10-6
Molecular weight: 158
m/z	intensity
14	12
15	200
16	3
17	2
18	7
26	11
27	116
28	21
29	81
30	4
31	13
32	2
33	4
37	3
38	11
39	124
40	18
41	144
42	37
43	999
44	24
45	13
50	5
51	7
52	2
53	16
54	3
55	35
56	10
57	8
58	1
59	65
60	2
61	1
63	1
65	1
66	1
67	5
68	7
69	230
70	11
71	2
73	20
74	4
75	6
79	1
81	2
82	3
83	41
84	65
85	50
86	3
87	2
88	2
98	2
99	7
100	4
101	595
102	33
103	3
111	3
115	26
116	313
117	20
118	2
127	67
128	5
143	2
158	1
