Mass Spectrum: Butanoic acid, 2-ethyl-3-oxo-, methyl ester
Formula: C7H12O3
CAS: 51756-08-2
Molecular weight: 144
m/z	intensity
13	5
14	28
15	312
16	4
17	2
18	6
25	2
26	24
27	125
28	15
29	72
30	5
31	17
32	4
33	2
37	6
38	16
39	102
40	15
41	91
42	55
43	999
44	24
45	16
50	3
51	5
52	1
53	11
54	4
55	174
56	7
57	4
58	1
59	106
60	3
61	2
62	1
63	1
65	1
66	1
67	6
68	6
69	71
70	59
71	26
72	1
73	2
74	7
75	8
81	1
83	1
84	15
85	12
86	1
87	388
88	17
89	2
95	1
100	1
101	29
102	252
103	14
104	1
112	4
113	68
114	4
116	39
117	2
129	3
144	3
145	0
