Mass Spectrum: 4-[N-(4-Methylbenzamido)acetyl]morpholine
Formula: C14H18N2O3
CAS: 51769-88-1
Molecular weight: 262
m/z	intensity
57	52
65	68
70	91
86	110
87	560
88	54
89	22
90	20
91	200
100	23
114	60
119	999
120	87
127	18
131	25
143	21
148	60
149	20
176	62
262	36
