Mass Spectrum: Benzenemethanol, 2-nitro-.alpha.-phenyl-
Formula: C13H11NO3
CAS: 5176-12-5
Molecular weight: 229
m/z	intensity
26	4
27	45
28	11
29	20
30	21
31	3
37	3
38	15
39	92
40	8
41	12
42	2
43	58
44	3
45	11
49	2
50	109
51	305
52	66
53	29
54	2
55	11
56	3
57	10
59	3
60	2
61	4
62	22
63	71
64	45
65	90
66	11
67	3
68	2
69	5
70	5
71	6
73	5
74	39
75	52
76	156
77	999
78	145
79	238
80	19
81	10
82	27
83	6
84	6
85	3
86	10
87	16
88	8
89	23
90	19
91	32
92	27
93	35
94	10
95	3
97	2
98	8
99	6
100	3
101	11
102	17
103	11
104	80
105	286
106	29
107	106
108	10
110	2
111	3
113	10
114	8
115	48
116	9
117	6
118	2
119	7
120	6
121	66
122	26
123	8
125	4
126	20
127	51
128	35
129	14
130	3
134	23
135	5
136	1
137	11
138	7
139	52
140	36
141	17
142	4
143	2
146	2
149	10
150	22
151	98
152	359
153	191
154	73
155	33
156	6
162	3
163	24
164	19
165	126
166	271
167	980
168	149
169	14
170	4
179	6
180	13
181	206
182	61
183	26
184	8
194	318
195	139
196	42
197	11
198	2
210	2
211	113
212	44
213	6
228	0
