Mass Spectrum: N-Methyl-2-isopropoxycarbonylazetidine
Formula: C8H15NO2
CAS: 51764-30-8
Molecular weight: 157
m/z	intensity
28	33
42	128
43	20
70	999
71	49
72	1
157	20
158	8
