Mass Spectrum: N-Methyl-2-tert.-butoxycarbonylazetidine
Formula: C9H17NO2
CAS: 51764-31-9
Molecular weight: 171
m/z	intensity
28	23
41	30
42	138
43	28
56	13
57	68
58	8
70	999
71	53
171	70
172	7
173	1
