Mass Spectrum: 3-Nitrodibenzothiophene, S,S-dioxide
Formula: C12H7NO4S
CAS: 51762-59-5
Molecular weight: 261
m/z	intensity
34	114
35	47
36	129
37	94
38	219
39	432
40	248
41	187
42	104
43	278
44	170
45	157
46	184
48	86
50	402
51	353
52	98
53	94
54	42
55	107
56	47
57	89
61	153
62	248
63	348
64	74
65	83
69	263
70	69
71	52
73	132
74	409
75	472
76	172
77	276
78	75
79	184
81	35
82	60
83	39
84	44
85	81
86	153
87	182
88	68
89	167
93	69
95	38
97	54
98	174
99	151
100	65
101	85
102	46
103	47
105	118
108	99
109	56
110	80
111	128
112	65
113	116
114	182
115	999
117	71
121	61
122	62
123	36
124	46
125	101
126	96
127	84
133	39
135	40
136	42
137	98
138	110
139	309
140	47
145	48
146	63
147	165
149	249
150	498
151	180
155	58
157	35
158	135
159	127
161	36
167	35
169	36
170	42
171	95
181	74
182	37
183	97
186	111
187	364
189	139
192	53
205	69
215	54
231	101
232	132
233	53
260	154
261	778
262	102
263	43
