Mass Spectrum: 4-[N-(4-Nitrobenzamido)acetyl]morpholine
Formula: C13H15N3O5
CAS: 51769-93-8
Molecular weight: 293
m/z	intensity
50	54
55	37
56	98
57	200
58	26
64	20
65	28
70	640
71	26
75	56
76	170
77	24
85	47
86	280
87	999
88	170
92	69
99	60
103	28
104	250
105	27
114	630
115	38
120	290
121	48
127	46
134	77
143	24
150	560
151	55
177	28
179	68
207	22
263	24
293	29
