Mass Spectrum: 4-[(N-Benzamido)acetyl]morpholine
Formula: C13H16N2O3
CAS: 51769-87-0
Molecular weight: 248
m/z	intensity
51	74
56	36
57	92
70	190
77	320
78	23
85	23
86	160
87	800
88	82
99	33
105	999
106	79
114	150
117	31
127	25
134	120
135	23
143	23
162	52
248	25
