Mass Spectrum: Azetidine, 1,2-dimethyl-
Formula: C5H11N
CAS: 51764-32-0
Molecular weight: 85
m/z	intensity
12	3
13	6
14	24
15	201
16	3
18	6
25	3
26	46
27	131
28	116
29	31
30	30
32	0
36	1
37	7
38	13
39	66
40	23
41	86
42	999
43	181
44	93
45	2
50	5
52	7
53	6
54	20
55	24
56	140
57	116
58	8
66	1
67	1
68	8
69	2
70	163
71	7
82	2
83	0
84	25
85	193
86	14
