Mass Spectrum: Bicyclo[2.2.1]heptane-2-carboxylic acid, 3-methyl-, methyl ester
Formula: C10H16O2
CAS: 51774-01-7
Molecular weight: 168
m/z	intensity
26	24
27	348
28	6
29	204
30	12
31	21
33	8
37	10
38	29
39	553
40	122
41	799
42	66
43	86
44	3
45	38
50	27
51	93
52	50
53	270
54	89
55	340
56	29
57	16
58	4
59	168
60	7
61	10
62	8
63	30
64	7
65	122
66	150
67	822
68	258
69	362
70	23
71	39
72	9
73	6
74	60
75	36
76	5
77	146
78	47
79	414
80	129
81	298
82	124
83	42
84	7
85	27
86	8
87	153
88	14
91	106
92	61
93	182
94	850
95	307
96	25
97	22
98	20
99	28
100	427
101	999
102	88
103	18
105	11
106	5
107	164
108	266
109	612
110	54
111	114
112	15
113	68
114	35
115	4
118	14
121	55
122	4
125	58
126	25
127	22
135	11
136	679
137	191
138	21
139	362
140	47
153	102
154	10
167	6
168	73
169	7
