Mass Spectrum: Boranamine, 1-chloro-N,N-dimethyl-1-(1-methyl-2-propenyl)-
Formula: C6H13BClN
CAS: 51783-28-9
Molecular weight: 145
m/z	intensity
12	3
13	9
14	10
15	80
16	1
18	2
25	4
26	31
27	123
28	39
29	41
30	22
32	1
35	1
36	9
37	26
38	13
39	66
40	42
41	37
42	71
43	6
44	39
45	4
46	22
47	71
48	8
49	28
50	14
51	29
52	13
54	45
55	42
56	16
58	1
59	8
60	63
61	160
62	29
63	54
64	9
65	8
66	8
67	5
68	7
69	15
70	16
71	27
72	21
73	66
74	76
75	28
76	36
77	5
78	8
79	3
80	7
82	13
83	6
84	10
85	12
86	7
87	10
88	21
89	262
90	999
91	116
92	326
93	13
94	9
95	2
97	1
98	1
99	2
100	3
101	4
102	33
103	94
104	18
105	33
106	7
107	4
108	14
109	14
110	12
111	1
113	4
114	13
115	16
116	56
117	16
118	19
119	4
126	1
127	2
128	7
129	13
130	45
131	6
132	14
142	1
143	15
144	64
145	70
146	25
147	21
148	1
