Mass Spectrum: 2(1H)-Quinolinone, 5-(3-((1,1-dimethylethyl)amino)-2-hydroxypropoxy)-3,4-dihydro-
Formula: C16H24N2O3
CAS: 51781-06-7
Molecular weight: 292
m/z	intensity
26	1
27	10
29	47
30	905
31	11
38	1
39	20
41	63
42	27
43	5
44	3
45	1
50	1
51	7
52	4
53	3
54	1
55	11
56	36
57	127
58	38
59	2
60	30
61	0
62	1
63	3
64	2
65	10
66	5
67	1
68	1
69	3
70	71
71	54
72	19
73	1
74	11
75	1
76	3
77	21
78	9
79	12
80	2
81	0
82	2
83	0
84	11
85	6
86	999
87	56
88	1
89	8
90	6
91	10
92	4
93	8
94	3
96	12
97	2
98	10
99	2
100	7
101	2
102	2
103	3
104	17
105	9
106	19
107	5
108	2
109	1
110	0
111	2
112	1
113	1
114	98
115	8
116	32
117	11
118	17
119	3
120	3
121	6
122	6
124	21
125	3
127	0
128	5
129	1
130	3
131	3
132	4
133	20
134	21
135	15
136	2
137	0
139	0
143	0
144	4
145	1
146	14
147	3
148	6
149	2
151	0
158	6
159	1
160	9
161	13
162	25
163	28
164	12
165	1
167	0
172	0
174	11
175	1
176	15
177	4
178	2
187	0
188	5
189	1
190	4
191	0
200	3
201	1
202	47
203	5
204	0
205	2
206	3
217	1
218	1
219	0
235	2
248	20
249	3
259	1
275	1
277	142
278	25
279	2
291	0
292	66
293	16
294	2
