Mass Spectrum: 5,10-Undecadienoic acid, 2-methylene-, methyl ester
Formula: C13H20O2
CAS: 51788-60-4
Molecular weight: 208
m/z	intensity
27	33
29	135
30	7
31	5
33	3
36	0
37	1
38	2
39	124
40	60
41	463
42	38
43	77
45	24
46	0
47	0
49	1
50	4
51	8
52	7
53	108
54	161
55	489
56	77
57	15
58	5
59	102
60	3
61	4
62	0
63	2
64	1
65	48
66	36
67	999
68	126
69	139
70	16
71	17
72	4
73	5
74	4
75	2
76	1
77	100
78	52
79	259
80	74
81	341
82	67
83	25
84	4
85	21
86	28
87	22
88	7
89	2
90	1
91	130
92	51
93	257
94	76
95	97
96	64
97	25
98	6
99	27
100	122
101	36
102	3
103	4
104	4
105	46
106	59
107	201
108	111
109	242
110	31
111	21
112	12
113	29
114	11
115	3
116	1
117	8
118	3
119	35
120	48
121	55
122	23
123	9
124	16
125	69
126	68
127	24
128	3
129	2
130	2
131	3
132	2
133	35
134	37
135	34
136	5
137	32
138	40
139	16
140	33
141	21
142	2
143	2
144	0
145	1
146	1
147	22
148	119
149	93
150	11
151	22
152	28
153	13
154	8
155	18
156	1
157	0
158	2
159	5
160	0
161	10
162	2
163	1
164	0
165	12
166	20
167	7
168	0
175	3
176	29
177	8
178	1
179	7
180	5
181	0
189	1
190	0
193	8
194	1
195	0
207	1
208	12
209	1
