Mass Spectrum: Benzene, [(6-bromohexyl)oxy]-
Formula: C12H17BrO
CAS: 51795-97-2
Molecular weight: 256
m/z	intensity
41	366
42	24
43	142
44	4
47	2
49	6
51	135
53	70
55	477
56	22
57	15
63	54
65	177
66	63
67	26
68	6
69	12
74	5
75	3
77	149
78	13
79	33
81	22
83	205
84	10
86	1
88	2
89	1
91	17
94	999
95	74
96	4
103	2
105	6
107	71
108	9
109	13
115	1
117	1
119	5
120	7
121	13
123	11
131	1
133	5
134	0
135	10
136	0
145	2
147	0
148	4
149	2
151	1
153	1
159	1
163	37
165	25
166	1
177	4
179	4
256	113
258	107
259	12
260	1
