Mass Spectrum: Allopseudococaine
Formula: C17H21NO4
CAS: 518-97-8
Molecular weight: 303
m/z	intensity
41	59
42	243
51	61
55	59
68	38
77	213
81	90
82	999
83	437
94	220
96	227
97	92
105	190
108	29
119	17
122	64
140	6
150	18
152	42
155	21
166	9
181	37
182	600
183	62
198	92
199	7
200	1
244	2
272	33
273	3
303	109
304	16
