Mass Spectrum: 2,7-Dioxatricyclo[4.4.0.0(3,8)]dec-4-ene
Formula: C8H10O2
CAS: 51826-18-7
Molecular weight: 138
m/z	intensity
25	0
26	18
27	119
28	0
29	45
30	0
31	5
36	2
37	5
38	22
39	162
40	31
41	150
42	12
43	17
44	26
45	1
46	0
47	0
48	0
49	4
50	34
51	69
52	29
53	172
54	41
55	56
56	8
57	18
58	0
59	2
60	1
61	5
62	7
63	18
64	3
65	52
66	81
67	70
68	46
69	14
70	10
71	8
72	1
73	1
74	6
75	2
76	1
77	64
78	16
79	94
80	11
81	999
82	80
83	18
84	4
85	4
86	2
87	2
88	0
89	6
90	4
91	87
92	17
93	11
94	769
95	91
96	7
97	8
98	1
99	3
100	1
101	2
102	1
103	2
104	4
105	7
106	4
107	18
108	5
109	29
110	9
111	6
112	2
113	2
114	1
119	14
120	22
121	5
122	2
123	4
124	1
135	2
136	6
137	6
138	30
139	3
140	1
