Mass Spectrum: Ethanol, 1-methoxy-, benzoate
Formula: C10H12O3
CAS: 51835-44-0
Molecular weight: 180
m/z	intensity
43	100
45	36
50	31
51	120
58	68
59	999
60	37
75	300
77	190
105	330
106	100
121	43
149	5
165	4
180	13
