Mass Spectrum: 4-Acetylaminophthalic acid, dimethyl ester
Formula: C12H13NO5
CAS: 51832-56-5
Molecular weight: 251
m/z	intensity
12	4
13	5
14	40
15	495
16	8
17	6
18	24
25	0
26	4
27	15
28	46
29	78
30	19
31	15
32	2
33	1
37	14
38	28
39	45
40	15
41	48
42	59
43	999
44	27
45	8
46	0
49	2
50	20
51	44
52	48
53	25
54	5
55	4
56	1
57	1
59	65
60	1
61	17
62	83
63	206
64	81
65	127
66	23
67	8
68	5
69	4
70	1
71	0
73	3
74	18
75	27
76	16
77	43
78	39
79	73
80	23
81	3
82	1
83	1
84	0
85	0
86	1
87	3
88	11
89	45
90	54
91	96
92	140
93	27
94	18
95	5
96	0
99	0
101	1
102	2
103	7
104	14
105	15
106	34
107	65
108	6
109	1
110	1
115	0
116	2
117	24
118	14
119	110
120	74
121	12
122	6
123	2
125	1
130	0
131	0
132	5
133	16
134	31
135	26
136	4
137	1
144	3
145	1
146	4
147	9
148	31
149	6
150	71
151	23
152	2
153	2
159	0
160	5
161	10
162	9
163	10
164	7
165	1
166	0
174	2
175	1
176	6
177	119
178	769
179	96
180	32
181	3
188	1
189	0
190	1
191	1
192	3
193	1
204	8
205	0
206	1
207	0
209	321
210	38
211	4
212	0
218	1
220	114
221	15
222	3
223	0
234	0
236	2
251	147
252	19
253	3
254	0
