Mass Spectrum: N-Methylbenzenesulfonamide
Formula: C7H9NO2S
CAS: 5183-78-8
Molecular weight: 171
m/z	intensity
14	1
15	2
17	1
18	2
26	1
27	16
28	47
29	9
30	321
31	6
32	3
37	3
38	8
39	23
40	2
42	1
44	4
45	6
46	1
47	1
48	4
49	3
50	66
51	219
52	15
53	5
54	1
55	1
57	1
58	1
60	6
61	3
62	5
63	7
64	5
65	15
66	10
67	1
69	6
70	1
71	1
73	4
74	19
75	17
76	19
77	999
78	186
79	20
80	2
81	1
82	2
84	2
85	1
91	2
92	5
93	2
94	47
95	4
96	1
97	9
104	2
105	1
106	85
107	58
108	6
109	4
110	11
111	1
112	1
125	12
126	2
127	1
141	177
142	32
143	12
144	2
169	1
170	9
171	220
172	20
173	11
174	1
