Mass Spectrum: 2(3H)-Furanone, dihydro-3-pentyl-
Formula: C9H16O2
CAS: 51849-71-9
Molecular weight: 156
m/z	intensity
26	10
27	112
29	133
30	4
31	4
32	12
38	3
39	90
41	228
42	124
43	90
45	8
51	7
52	2
53	27
54	22
55	196
56	77
57	27
58	59
65	4
67	18
68	16
69	43
70	37
71	8
73	12
77	4
79	4
81	21
82	3
83	11
84	6
85	81
86	999
87	42
88	5
95	2
98	6
99	345
100	12
113	1
156	4
