Mass Spectrum: 2,2',6,6'-Tetranitro-4,4'-azoxytoluene
Formula: C14H10N6O9
CAS: 51857-25-1
Molecular weight: 406
m/z	intensity
86	66
87	127
88	199
89	999
90	127
91	124
92	63
93	54
102	57
104	66
106	66
119	60
120	60
134	456
135	130
136	124
149	57
164	63
165	54
166	60
179	60
182	453
209	127
389	795
390	205
406	456
