Mass Spectrum: Benzenepropanoic acid, 2-butyl ester
Formula: C13H18O2
CAS: 51869-23-9
Molecular weight: 206
m/z	intensity
26	7
27	40
28	7
29	80
30	2
31	2
35	2
36	14
37	1
38	5
39	48
40	5
41	105
42	7
43	19
44	3
45	6
49	1
50	20
51	69
52	20
53	12
54	2
55	19
56	24
57	125
58	6
59	1
62	4
63	20
64	5
65	68
66	5
67	2
73	10
74	7
75	8
76	11
77	143
78	117
79	96
80	6
82	1
87	1
89	18
90	10
91	999
92	83
93	5
101	2
102	14
103	101
104	932
105	632
106	55
107	173
108	14
115	2
117	3
120	1
122	2
131	27
132	22
133	458
134	46
135	4
139	4
141	1
146	14
147	7
148	4
149	14
150	768
151	75
152	5
155	1
156	3
157	2
162	4
163	1
177	14
178	2
206	62
207	10
208	1
