Mass Spectrum: 2-Cyclopenten-1-one, 3-bromo-
Formula: C5H5BrO
CAS: 51865-32-8
Molecular weight: 160
m/z	intensity
25	17
26	88
27	287
28	11
29	5
31	1
36	5
37	35
38	47
39	57
40	6
41	4
42	30
43	4
44	0
45	0
48	4
49	35
50	135
51	203
52	94
53	905
54	40
55	7
56	0
57	0
59	0
60	1
61	6
62	7
63	4
64	1
65	5
66	24
67	3
69	2
70	1
73	2
74	1
75	2
77	4
78	2
79	13
80	4
81	999
82	51
83	3
85	0
89	0
91	3
92	1
93	4
94	1
95	1
97	1
103	3
104	44
105	17
106	48
107	15
108	0
109	1
115	0
116	2
117	14
118	4
119	13
120	1
127	1
128	1
129	2
130	2
131	59
132	15
133	56
134	14
135	1
142	0
152	1
153	0
159	88
160	550
161	115
162	544
163	32
164	1
166	1
