Mass Spectrum: Benz[cd]indol-5(1H)-one, 2,2a,3,4-tetrahydro-1-benzoyl-
Formula: C18H15NO2
CAS: 51867-02-8
Molecular weight: 277
m/z	intensity
27	2
28	1
29	0
38	1
39	5
40	0
41	1
42	0
50	14
51	52
52	4
53	2
55	2
61	0
62	6
63	21
64	4
65	7
66	1
74	6
75	8
77	371
78	27
79	1
86	1
87	3
88	6
89	36
90	7
91	8
92	0
95	0
101	1
102	4
103	3
105	999
106	74
107	4
113	2
114	5
115	36
116	19
117	10
118	1
126	0
127	2
128	2
129	1
130	9
131	1
139	0
140	1
141	0
142	2
143	5
144	2
145	0
154	0
163	0
164	0
165	0
170	0
171	0
172	1
190	0
191	0
203	0
204	0
218	0
219	0
220	0
232	0
248	0
260	0
275	0
277	103
278	21
279	2
