Mass Spectrum: 1,3-Dioxane-5-methanol, 5-ethyl-
Formula: C7H14O3
CAS: 5187-23-5
Molecular weight: 146
m/z	intensity
14	1
15	4
19	2
26	8
27	91
28	26
29	221
30	18
31	160
32	2
33	1
37	2
38	8
39	126
40	34
41	264
42	44
43	203
44	152
45	53
46	2
47	11
49	1
50	8
51	15
52	8
53	69
54	23
55	160
56	51
57	999
58	88
59	9
60	2
61	7
62	1
63	1
65	14
66	5
67	109
68	140
69	108
70	70
71	226
72	24
73	6
74	1
77	6
79	11
80	8
81	27
82	25
83	74
84	13
85	171
86	491
87	39
88	3
95	3
97	93
98	123
99	81
100	7
101	2
102	1
109	2
110	7
111	1
113	4
114	1
115	7
116	27
117	3
118	1
128	6
129	1
145	27
146	2
147	1
