Mass Spectrum: 2-Methoxy-6-methyl-4-pyrimidinamine
Formula: C6H9N3O
CAS: 51870-75-8
Molecular weight: 139
m/z	intensity
26	33
27	76
29	36
30	42
38	48
39	106
40	258
41	455
42	470
43	91
52	36
53	48
54	91
55	91
56	91
58	42
66	121
67	52
68	999
69	106
70	39
82	61
103	55
109	167
110	121
116	58
138	817
139	620
140	60
