Mass Spectrum: 2,6-Di-O-methyl-d-galactopyranose
Formula: C8H16O6
CAS: 5188-19-2
Molecular weight: 208
m/z	intensity
45	571
55	44
57	144
59	133
60	25
61	62
69	45
71	177
73	99
74	631
75	107
85	165
87	999
88	177
89	63
99	56
101	52
102	1
113	3
115	57
117	36
127	3
129	21
130	33
131	2
141	6
144	18
145	30
147	37
149	2
159	8
173	5
177	6
191	3
