Mass Spectrum: Testoster-3,17-dione, 10-demethyl-10-hydroxy-
Formula: C18H24O3
CAS: 5189-96-8
Molecular weight: 288
m/z	intensity
41	765
42	52
43	404
44	26
45	23
47	29
49	140
51	144
52	21
53	467
55	999
57	184
58	12
59	12
60	2
61	7
63	31
65	231
67	648
68	183
69	119
70	15
71	24
72	8
73	22
74	8
75	3
77	370
79	595
80	32
81	328
82	85
83	74
84	76
86	69
87	18
88	18
89	15
91	452
92	25
93	299
94	32
95	283
96	224
97	323
99	968
100	26
101	6
102	19
103	51
105	246
107	345
108	172
109	265
110	96
111	33
112	25
113	5
115	87
117	125
119	144
120	80
121	116
122	100
124	290
125	106
126	22
127	22
128	50
129	78
131	149
133	153
134	64
135	73
136	102
137	12
138	66
139	12
141	33
143	76
144	43
145	94
146	131
147	222
149	375
150	113
151	42
152	15
153	9
154	1
155	23
157	66
158	34
159	48
160	44
161	48
163	110
164	57
165	34
167	11
169	20
170	9
171	53
172	44
173	37
175	58
176	35
177	11
178	4
179	3
181	11
182	3
183	19
185	91
186	38
187	12
188	41
189	21
190	114
191	11
192	1
193	2
195	10
196	3
197	9
198	8
199	57
200	15
201	12
203	50
204	12
205	1
206	6
209	10
211	17
213	53
214	50
215	12
216	10
217	11
218	13
219	2
223	2
224	7
226	15
227	20
228	10
229	5
231	82
232	14
233	3
237	5
241	1
242	17
243	4
245	31
246	90
247	12
248	1
251	1
252	5
253	11
255	9
256	1
257	0
259	1
260	398
261	58
262	4
269	0
270	52
271	19
273	17
274	1
286	1
288	297
289	58
290	8
