Mass Spectrum: 4a,7a-Epoxy-5H-cyclopenta[a]cyclopropa[f]cycloundecen-4(1H)-one, 2,7,10,11-tetrakis(acetyloxy)-1a,2,3,6,7,10,11,11a-octahydro-1,1,3,6,9-pentamethyl-, [1ar-(1ar*,2R*,3S*,4ar*,6S*,7S*,7as*,8E,10R*,11R*,11as*)]-
Formula: C28H38O10
CAS: 51906-02-6
Molecular weight: 534
m/z	intensity
12	1
13	1
14	8
15	54
16	3
17	2
18	10
24	1
25	3
26	11
27	36
28	108
29	105
30	3
31	9
32	2
36	1
37	2
38	5
39	62
40	17
41	283
42	44
43	999
44	109
45	44
46	1
47	0
48	0
49	2
50	9
51	18
52	10
53	102
54	20
55	290
56	28
57	168
58	20
59	77
60	25
61	14
62	2
63	8
64	4
65	60
66	31
67	222
68	25
69	493
70	41
71	86
72	12
73	12
74	3
75	2
76	2
77	155
78	33
79	202
80	44
81	202
82	55
83	195
84	28
85	222
86	16
87	7
88	1
89	5
90	3
91	243
92	43
93	256
94	64
95	337
96	105
97	263
98	270
99	78
100	13
101	77
102	9
103	33
104	12
105	162
106	38
107	216
108	102
109	527
110	86
111	371
112	58
113	45
114	8
115	45
116	22
117	61
118	18
119	155
120	97
121	391
122	560
123	317
124	101
125	116
126	28
127	129
128	55
129	56
130	24
131	78
132	39
133	144
134	61
135	364
136	256
137	385
138	452
139	479
140	189
141	64
142	33
143	61
144	33
145	109
146	63
147	216
148	125
149	229
150	113
151	162
152	75
153	125
154	40
155	50
156	31
157	82
158	41
159	135
160	72
161	182
162	104
163	310
164	202
165	391
166	86
167	58
168	23
169	48
170	32
171	72
172	50
173	148
174	91
175	189
176	128
177	162
178	66
179	90
180	128
181	344
182	168
183	78
184	31
185	89
186	55
187	133
188	67
189	162
190	121
191	155
192	243
193	175
194	81
195	51
196	28
197	75
198	35
199	85
200	50
201	117
202	84
203	229
204	75
205	132
206	72
207	182
208	48
209	67
210	50
211	67
212	36
213	97
214	56
215	130
216	55
217	83
218	62
219	110
220	63
221	154
222	37
223	109
224	83
225	89
226	60
227	128
228	51
229	87
230	41
231	79
232	85
233	114
234	50
235	95
236	48
237	51
238	36
239	61
240	25
241	89
242	56
243	89
244	60
245	168
246	47
247	55
248	25
249	44
250	83
251	81
252	56
253	56
254	41
255	89
256	57
257	54
258	20
259	59
260	31
261	41
262	47
263	95
264	25
265	32
266	67
267	87
268	27
269	106
270	33
271	58
272	28
273	40
274	32
275	35
276	17
277	43
278	16
279	45
280	16
281	13
282	6
283	92
284	140
285	90
286	29
287	54
288	17
289	15
290	9
291	11
292	18
293	20
294	93
295	105
296	32
297	69
298	20
299	20
300	7
301	62
302	62
303	24
304	9
305	31
306	9
307	5
308	3
309	4
310	8
311	62
312	147
313	156
314	39
315	36
316	20
317	9
318	6
319	17
320	15
321	8
322	9
323	4
324	1
325	5
326	20
327	19
328	6
329	85
330	155
331	57
332	13
333	6
334	5
335	5
336	5
337	6
338	4
339	20
340	5
341	2
342	0
343	24
344	31
345	18
346	6
347	20
348	13
349	4
350	1
351	0
352	20
353	8
354	36
355	60
356	16
357	40
358	10
359	4
360	2
361	7
362	24
363	8
364	3
365	1
366	1
367	0
368	0
369	0
370	0
371	37
372	162
373	82
374	20
375	6
376	8
377	2
378	1
379	1
380	0
381	0
384	0
385	2
386	10
387	7
388	3
389	20
390	60
391	16
392	3
393	0
394	1
395	0
396	1
397	1
398	0
399	17
400	5
401	2
402	0
403	5
404	17
405	5
406	1
407	3
408	1
409	0
413	1
414	43
415	39
416	10
417	14
418	14
419	4
420	1
421	1
422	0
430	0
431	20
432	216
433	62
434	12
435	2
445	0
446	2
447	1
448	0
449	8
450	7
451	1
456	2
457	1
459	21
460	6
461	1
462	0
464	0
467	1
474	94
475	216
476	64
477	13
478	2
489	0
490	0
491	2
492	56
493	17
494	3
495	0
506	0
519	0
520	1
534	783
535	243
536	55
537	9
538	1
