Mass Spectrum: 3-Pyridinecarboxylic acid, 2,7,10-tris(acetyloxy)-1,1a,2,3,4,6,7,10,11,11a-decahydro-1,1,3,6,9-pentamethyl-4-oxo-4a,7a-epoxy-5H-cyclopenta[a]cyclopropa[f]cycloundecen-11-yl ester, [1aR-(1aR*,2R*,3S*,4aR*,6S*,7S*,7aS*,8E,10R*,11R*,11aS*)]-
Formula: C32H39NO10
CAS: 51906-00-4
Molecular weight: 597
m/z	intensity
12	21
13	5
14	6
15	33
16	42
17	109
18	304
19	6
20	0
21	3
22	2
23	0
24	2
25	8
26	71
27	371
28	266
29	333
30	15
31	90
32	8
33	1
34	0
35	3
36	12
37	16
38	42
39	333
40	71
41	714
42	138
43	999
44	999
45	261
46	42
47	7
48	1
49	10
50	57
51	123
52	66
53	195
54	90
55	666
56	114
57	328
58	71
59	76
60	428
61	85
62	12
63	42
64	12
65	95
66	57
67	195
68	66
69	295
70	71
71	276
72	47
73	428
74	57
75	16
76	20
77	223
78	123
79	209
80	57
81	176
82	95
83	242
84	8
85	11
86	3
87	85
88	12
89	38
90	17
91	223
92	42
93	147
94	57
95	166
96	71
97	152
98	90
99	90
100	85
101	57
102	33
103	47
104	19
105	280
106	190
107	119
108	52
109	138
110	61
111	9
112	4
113	5
114	2
115	12
116	4
117	5
118	19
119	90
120	38
121	152
122	119
123	166
124	119
125	71
126	47
127	66
128	80
129	166
130	38
131	71
132	28
133	80
134	42
135	123
136	66
137	95
138	57
139	90
140	38
141	61
142	38
143	57
144	33
145	71
146	33
147	95
148	57
149	80
150	47
151	104
152	66
153	61
154	28
155	52
156	28
157	66
158	33
159	71
160	38
161	76
162	42
163	66
164	52
165	80
166	57
167	52
168	33
169	42
170	166
171	61
172	33
173	66
174	42
175	66
176	38
177	57
178	47
179	47
180	38
181	52
182	28
183	47
184	28
185	66
186	33
187	57
188	38
189	66
190	38
191	52
192	38
193	47
194	28
195	42
196	28
197	47
198	28
199	47
200	28
201	57
202	33
203	57
204	33
205	38
206	19
207	42
208	17
209	38
210	16
211	47
212	19
213	90
214	33
215	47
216	33
217	42
218	16
219	38
220	15
221	28
222	12
223	47
224	20
225	47
226	19
227	57
228	38
229	28
230	28
231	33
232	14
233	20
234	11
235	18
236	14
237	28
238	15
239	42
240	16
241	52
242	21
243	42
244	28
245	38
246	12
247	15
248	11
249	19
250	10
251	38
252	18
253	38
254	19
255	38
256	195
257	47
258	14
259	20
260	12
261	18
262	10
263	13
264	11
265	18
266	33
267	38
268	16
269	47
270	16
271	28
272	13
273	14
274	9
275	10
276	8
277	13
278	8
279	285
280	10
281	20
282	21
283	33
284	38
285	28
286	10
287	19
288	10
289	10
290	7
291	7
292	10
293	11
294	333
295	333
296	13
297	285
298	15
299	285
300	17
301	13
302	12
303	8
304	5
305	4
306	5
307	4
308	7
309	8
310	16
311	20
312	57
313	38
314	12
315	14
316	9
317	10
318	8
319	5
320	3
321	4
322	3
323	3
324	6
325	7
326	18
327	12
328	17
329	20
330	38
331	14
332	7
333	6
334	4
335	2
336	2
337	2
338	3
339	6
340	5
341	6
342	7
343	47
344	28
345	6
346	9
347	6
348	4
349	4
350	4
351	3
352	4
353	4
354	8
355	10
356	6
357	7
358	6
359	8
360	4
361	3
362	4
363	3
364	2
365	2
366	2
367	4
368	3
369	5
370	5
371	8
372	9
373	6
374	4
375	2
376	2
377	2
378	2
379	4
380	3
381	2
382	3
383	4
384	4
385	6
386	4
387	3
388	4
389	4
390	3
391	2
392	1
393	2
394	2
395	4
396	3
397	6
398	4
399	4
400	3
401	3
402	2
403	2
404	1
405	2
406	2
407	3
408	3
409	6
410	3
411	6
412	11
413	7
414	5
415	5
416	2
417	3
418	2
419	2
420	3
421	2
422	4
423	5
424	6
425	6
426	5
427	7
428	13
429	8
430	38
431	9
432	3
433	2
434	3
435	5
436	5
437	3
438	6
439	5
440	6
441	7
442	5
443	2
444	3
445	2
446	2
447	1
448	1
449	2
450	2
451	1
452	3
453	2
454	4
455	4
456	6
457	3
458	3
459	2
460	3
461	3
462	1
463	1
464	1
465	1
466	2
467	2
468	4
469	2
470	3
471	2
472	2
473	1
474	2
475	10
476	4
477	5
478	3
479	1
480	1
481	1
482	1
483	2
484	2
485	1
486	1
487	1
488	1
489	1
490	1
491	1
492	1
493	2
494	3
495	7
496	5
497	2
498	0
499	0
500	0
501	0
502	0
503	0
504	1
505	1
506	0
507	0
508	0
509	1
510	3
511	2
512	3
513	2
514	1
515	0
516	0
517	0
518	0
519	0
520	0
521	0
522	1
523	1
524	1
525	0
526	2
527	0
528	0
529	0
530	0
531	0
532	0
533	0
534	1
535	0
536	0
537	7
538	10
539	3
540	2
541	0
542	0
543	0
544	0
545	0
546	0
547	0
549	0
550	0
551	0
552	1
553	1
554	1
555	1
556	0
557	0
558	0
559	0
560	0
561	0
562	0
563	0
566	0
568	0
569	0
570	0
571	0
572	1
573	0
574	1
575	0
576	0
578	0
579	0
582	0
583	0
584	0
586	2
587	1
588	0
590	0
592	0
594	0
595	0
596	1
597	57
598	15
599	5
600	1
