Mass Spectrum: Ingol 12-acetate
Formula: C22H32O7
CAS: 51906-01-5
Molecular weight: 408
m/z	intensity
25	8
26	31
27	223
28	175
29	240
30	10
31	71
32	16
33	3
36	3
37	8
38	20
39	268
40	63
41	587
42	111
43	999
44	60
45	191
46	3
47	8
48	3
49	3
50	20
51	56
52	36
53	240
54	48
55	331
56	40
57	240
58	68
59	76
60	111
61	51
62	10
63	23
64	8
65	96
66	56
67	208
68	30
69	315
70	51
71	96
72	11
73	23
75	3
76	3
77	175
78	40
79	160
80	40
81	143
82	60
83	175
84	40
85	111
86	10
87	11
88	3
89	3
90	3
91	191
92	40
93	240
94	68
95	331
96	96
97	251
98	160
99	68
100	16
101	68
102	16
103	31
104	10
105	96
106	28
107	111
108	80
109	475
110	60
111	363
112	68
113	51
114	8
115	31
116	10
117	31
118	11
119	68
120	31
121	175
122	490
123	240
124	96
125	83
126	28
127	40
128	30
129	31
130	11
131	28
132	16
133	51
134	20
135	160
136	191
137	347
138	331
139	208
140	80
141	28
142	11
143	16
144	8
145	31
146	10
147	76
148	40
149	80
150	48
151	83
152	40
153	51
154	20
155	48
156	16
157	16
159	31
160	16
161	51
162	23
163	80
164	60
165	331
166	60
167	23
168	11
169	11
171	11
172	8
173	31
174	16
175	48
176	20
177	48
178	20
179	23
180	16
181	60
182	60
183	36
184	8
185	16
186	8
187	20
188	10
189	40
190	23
191	36
192	80
193	43
194	10
195	8
196	3
197	8
198	3
199	16
201	16
202	11
203	23
204	16
205	31
206	10
207	16
208	8
209	11
210	68
211	16
213	11
214	8
215	16
216	8
217	16
219	16
220	16
221	31
222	11
223	8
225	8
226	3
227	8
228	3
229	16
231	16
232	11
233	16
234	3
235	8
237	3
238	3
239	8
240	3
241	8
243	8
244	3
245	43
246	16
247	8
249	3
250	8
251	8
252	3
253	3
254	20
255	8
256	3
257	8
258	3
259	8
261	8
262	3
263	8
264	3
265	3
267	3
268	3
269	3
270	3
271	3
273	16
274	16
275	3
276	3
277	3
279	3
280	3
281	3
282	3
283	3
285	3
286	3
287	11
288	3
289	3
291	3
292	3
293	3
294	3
295	3
297	3
298	3
299	3
300	3
301	16
302	10
303	3
304	3
305	3
306	3
307	3
309	3
311	3
312	3
313	3
314	3
316	3
317	3
318	3
319	3
320	3
322	3
323	3
324	3
325	3
326	3
328	3
329	3
330	48
331	16
332	3
334	3
335	3
336	3
337	3
338	3
340	3
341	3
342	3
343	3
344	3
346	3
347	3
348	31
349	8
350	3
352	3
353	3
354	3
356	3
358	3
362	3
363	3
364	3
365	3
366	3
368	3
370	3
371	3
372	3
373	3
375	3
376	3
377	3
378	3
379	3
386	3
387	3
388	3
389	3
390	3
392	3
393	3
406	3
408	31
409	8
