Mass Spectrum: 2-Butenoic acid, 2-methyl-, 2-(acetyloxy)-1,1a,2,3,4,6,7,10,11,11a-decahydro-7,10-dihydroxy-1,1,3,6,9-pentamethyl-4a,7a-epoxy-5H-cyclopenta[a]cyclopropa[f]cycloundecen-11-yl ester, [1aR-[1aR*,2R*,3S*,4aR*,6S*,7S*,7aS*,8E,10R*,11R*(E),11aS*]]-
Formula: C27H38O8
CAS: 51906-13-9
Molecular weight: 490
m/z	intensity
12	5
13	3
14	10
15	35
16	6
17	2
18	9
19	1
20	0
22	0
23	0
24	1
25	2
26	17
27	121
28	75
29	152
30	5
31	15
32	4
35	10
36	3
37	5
38	11
39	142
40	27
41	213
42	29
43	538
44	38
45	35
46	1
47	10
48	0
49	5
50	14
51	33
52	17
53	126
54	44
55	609
56	41
57	81
58	22
59	17
60	15
61	6
62	2
63	10
64	3
65	34
66	19
67	64
68	9
69	106
70	15
71	33
72	3
73	4
74	3
75	4
76	1
77	80
78	16
79	58
80	14
81	49
82	32
83	999
84	63
85	35
86	3
87	3
88	1
89	5
90	1
91	72
92	12
93	53
94	13
95	62
96	18
97	37
98	21
99	18
100	17
101	20
102	3
103	7
104	3
105	45
106	8
107	34
108	17
109	103
110	13
111	64
112	9
113	9
114	1
115	12
116	3
117	31
118	3
119	41
120	11
121	40
122	68
123	42
124	19
125	17
126	5
127	9
128	8
129	7
130	3
131	11
132	4
133	14
134	6
135	45
136	30
137	54
138	57
139	32
140	7
141	8
142	4
143	7
144	3
145	12
146	5
147	19
148	14
149	28
150	14
151	22
152	9
153	10
154	4
155	6
156	1
157	7
158	3
159	13
160	5
161	19
162	10
163	21
164	16
165	56
166	11
167	9
168	4
169	4
170	1
171	5
172	3
173	12
174	6
175	18
176	7
177	15
178	6
179	22
180	11
181	18
182	6
183	5
184	2
185	6
186	4
187	9
188	6
189	13
190	7
191	11
192	19
193	13
194	5
195	3
196	2
197	4
198	2
199	6
200	3
201	9
202	6
203	12
204	7
205	9
206	4
207	6
208	2
209	4
210	7
211	5
212	2
213	7
214	3
215	8
216	4
217	7
218	4
219	6
220	5
221	9
222	6
223	3
224	1
225	3
226	2
227	5
228	2
229	4
230	4
231	6
232	4
233	6
234	3
235	2
236	1
237	2
238	1
239	2
240	1
241	5
242	4
243	8
244	5
245	10
246	5
247	5
248	2
249	3
250	5
251	2
252	1
253	1
254	1
255	4
256	3
257	3
258	1
259	5
260	2
261	3
262	2
263	2
264	1
265	1
266	2
267	1
268	1
269	5
270	1
271	2
272	1
273	4
274	2
275	1
276	1
277	1
278	0
279	1
280	0
281	1
282	0
283	6
284	5
285	2
286	2
287	3
288	1
289	2
290	1
291	1
292	1
293	0
294	0
295	0
296	1
297	3
298	1
299	1
300	0
301	7
302	5
303	3
304	1
305	1
306	0
307	0
309	0
310	0
311	1
312	5
313	4
314	1
315	4
316	1
317	1
318	0
319	1
320	0
321	0
322	0
324	0
325	0
327	0
328	1
329	4
330	15
331	7
332	2
333	1
334	0
341	0
342	0
343	0
344	1
345	1
346	1
347	1
348	4
349	1
350	0
355	0
356	0
357	0
358	0
359	0
360	0
361	1
362	0
363	0
364	0
365	0
368	0
369	0
372	1
373	1
374	1
375	2
376	0
377	0
378	0
379	0
380	0
382	0
383	0
384	0
385	0
386	0
387	0
388	0
389	1
390	4
391	24
392	7
393	1
394	0
395	0
396	0
397	1
398	0
400	0
401	0
402	1
403	1
404	0
406	0
407	1
408	0
409	0
412	2
413	0
414	1
415	0
416	0
417	0
419	0
424	0
428	0
429	0
430	11
431	10
432	2
433	0
434	0
442	0
443	0
444	0
446	0
447	0
448	1
449	0
450	0
451	0
452	0
454	0
455	0
456	0
457	0
458	0
459	0
460	0
462	0
463	0
464	0
470	0
472	11
473	2
474	1
475	0
476	0
478	0
488	0
489	0
490	53
491	13
492	4
493	0
494	0
