Mass Spectrum: 1,4-Butanedione, 1-(4-bromophenyl)-4-phenyl-
Formula: C16H13BrO2
CAS: 51908-41-9
Molecular weight: 316
m/z	intensity
14	1
15	2
16	1
17	15
18	60
25	1
26	8
27	41
28	17
29	4
31	1
35	3
36	11
37	4
38	11
39	26
40	3
41	7
42	5
43	6
44	1
49	6
50	230
51	323
52	20
53	9
54	3
55	77
56	8
57	4
60	1
61	3
62	11
63	22
64	6
65	11
66	2
67	1
69	2
70	1
71	2
73	8
74	72
75	323
76	462
77	954
78	95
79	11
86	5
87	8
88	7
89	22
90	15
91	23
92	3
101	7
102	26
103	41
104	208
105	999
106	523
107	28
113	5
114	9
115	50
116	23
117	8
118	9
129	11
130	5
131	32
132	123
133	646
134	48
135	5
139	3
149	5
150	5
151	6
152	12
153	5
154	9
155	692
156	50
157	677
158	43
161	22
165	8
169	8
171	7
183	985
184	184
185	970
186	184
187	9
189	9
191	11
192	5
193	6
195	6
196	5
198	5
207	2
208	3
209	4
211	151
212	11
213	140
214	11
218	3
219	4
220	3
221	1
235	1
236	1
237	5
238	17
239	12
240	2
241	15
242	1
259	1
261	2
262	3
263	1
287	1
288	5
289	2
290	4
298	18
299	11
300	18
301	11
302	2
316	900
317	170
318	880
319	154
320	14
321	2
