Mass Spectrum: 1b,4a-Epoxy-2H-cyclopenta[3,4]cyclopropa[8,9]cycloundec[1,2-b]oxiren-5(1aH)-one, 2,7,9,10-tetrakis(acetyloxy)decahydro-3,6,8,8,10a-pentamethyl-
Formula: C28H38O11
CAS: 51906-06-0
Molecular weight: 550
m/z	intensity
12	26
13	3
14	96
15	326
16	17
17	13
18	19
19	2
21	0
22	1
24	4
25	9
26	44
27	153
28	307
29	192
30	9
31	46
32	19
33	0
35	28
36	11
37	15
38	28
39	250
40	67
41	557
42	211
43	999
44	230
45	230
46	3
47	38
48	1
49	15
50	28
51	67
52	38
53	192
54	38
55	384
56	57
57	211
58	53
59	130
60	121
61	30
62	7
63	28
64	9
65	119
66	63
67	230
68	36
69	423
70	42
71	107
72	61
73	113
74	28
75	10
76	5
77	211
78	57
79	269
80	69
81	230
82	71
83	211
84	42
85	346
86	28
87	67
88	4
89	8
90	3
91	211
92	46
93	230
94	55
95	288
96	134
97	250
98	230
99	96
100	30
101	125
102	11
103	17
104	8
105	71
106	25
107	88
108	48
109	192
110	48
111	123
112	19
113	25
114	13
115	23
116	15
117	153
118	6
119	144
120	73
121	101
122	53
123	159
124	48
125	150
126	32
127	57
128	15
129	19
130	6
131	21
132	15
133	48
134	19
135	109
136	63
137	150
138	67
139	86
140	34
141	51
142	15
143	13
144	5
145	23
146	13
147	48
148	28
149	73
150	48
151	84
152	48
153	69
154	13
155	15
156	5
157	13
158	8
159	42
160	19
161	44
162	21
163	90
164	38
165	75
166	23
167	38
168	21
169	17
170	5
171	11
172	8
173	23
174	11
175	36
176	36
177	65
178	32
179	57
180	28
181	92
182	19
183	32
184	6
185	15
186	7
187	23
188	13
189	42
190	17
191	36
192	38
193	40
194	15
195	15
196	8
197	17
198	6
199	17
200	9
201	19
202	13
203	28
204	13
205	38
206	13
207	40
208	11
209	17
210	19
211	17
212	6
213	13
214	19
215	19
216	7
217	23
218	11
219	25
220	8
221	13
222	7
223	80
224	17
225	13
226	5
227	21
228	6
229	17
230	7
231	23
232	13
233	10
234	30
235	11
236	4
237	7
238	3
239	13
240	4
241	13
242	71
243	36
244	8
245	13
246	4
247	13
248	4
249	13
250	3
251	5
252	5
253	7
254	4
255	8
256	3
257	8
258	4
259	19
260	26
261	13
262	4
263	5
264	3
265	8
266	2
267	6
268	3
269	6
270	3
271	8
272	3
273	6
274	2
275	5
276	2
277	4
278	3
279	4
280	1
281	4
282	9
283	10
284	3
285	9
286	3
287	7
288	5
289	4
290	2
291	4
292	1
293	3
294	1
295	3
296	0
297	0
298	0
299	6
300	10
301	9
302	8
303	7
304	2
305	3
306	0
307	1
308	1
309	2
310	2
311	7
312	1
313	5
314	1
315	2
316	0
317	3
318	3
319	5
320	3
321	2
322	0
323	3
324	0
326	0
327	4
328	5
329	10
330	4
331	3
332	1
333	1
334	1
335	1
336	0
341	0
342	1
343	3
344	1
345	4
346	3
347	2
348	8
349	2
350	1
351	0
352	0
353	0
355	1
357	0
359	1
360	2
361	2
362	13
363	2
364	1
370	0
371	2
372	1
373	2
374	0
375	0
377	0
378	0
379	0
387	2
388	4
389	3
390	2
391	1
392	0
402	1
403	1
404	0
405	1
406	0
407	0
408	0
415	2
416	0
417	1
418	0
419	0
420	1
422	2
430	1
431	4
432	3
433	1
434	0
445	0
446	1
447	1
448	1
449	0
461	0
462	1
463	0
473	1
474	0
490	4
491	59
492	9
493	2
494	0
507	0
508	2
509	0
525	0
538	0
550	32
551	8
552	2
