Mass Spectrum: 4a,7a-Epoxy-5H-cyclopenta[a]cyclopropa[f]cycloundecen-4(1H)-one, 2,7,10,11-tetrakis(acetyloxy)decahydro-8,9-dihydroxy-1,1,3,6,9-pentamethyl-
Formula: C28H40O12
CAS: 51906-05-9
Molecular weight: 568
m/z	intensity
12	1
13	1
14	5
15	51
16	2
17	1
18	9
19	1
24	0
25	1
26	6
27	31
28	60
29	37
30	1
31	8
32	3
36	0
37	1
38	4
39	42
40	10
41	117
42	29
43	999
44	37
45	39
46	0
47	0
49	0
50	4
51	11
52	6
53	41
54	8
55	89
56	13
57	61
58	11
59	31
60	28
61	20
62	1
63	4
64	1
65	20
66	9
67	59
68	9
69	96
70	10
71	31
72	7
73	9
74	13
75	1
76	1
77	37
78	9
79	46
80	12
81	54
82	22
83	62
84	10
85	52
86	5
87	24
88	3
89	2
90	1
91	41
92	8
93	46
94	13
95	75
96	165
97	70
98	63
99	37
100	17
101	15
102	6
103	8
104	1
105	26
106	8
107	66
108	21
109	117
110	38
111	75
112	13
113	18
114	12
115	11
116	8
117	6
118	2
119	19
120	15
121	64
122	24
123	96
124	46
125	110
126	16
127	20
128	5
129	12
130	2
131	6
132	4
133	33
134	15
135	49
136	46
137	70
138	36
139	56
140	30
141	48
142	20
143	6
144	2
145	8
146	3
147	20
148	16
149	48
150	26
151	75
152	40
153	75
154	17
155	8
156	3
157	14
158	5
159	11
160	6
161	24
162	13
163	35
164	18
165	38
166	34
167	33
168	13
169	13
170	4
171	6
172	2
173	7
174	4
175	20
176	23
177	53
178	20
179	30
180	22
181	66
182	16
183	53
184	8
185	6
186	3
187	11
188	6
189	17
190	6
191	15
192	10
193	42
194	39
195	20
196	6
197	11
198	3
199	5
200	2
201	7
202	4
203	12
204	11
205	27
206	13
207	23
208	21
209	14
210	5
211	6
212	8
213	8
214	2
215	6
216	3
217	10
218	6
219	15
220	6
221	15
222	26
223	20
224	6
225	6
226	2
227	5
228	2
229	11
230	5
231	12
232	6
233	7
234	2
235	13
236	23
237	13
238	2
239	7
240	2
241	4
242	2
243	5
244	2
245	6
246	2
247	9
248	5
249	6
250	4
251	6
252	1
253	2
254	4
255	12
256	3
257	8
258	4
259	4
260	3
261	5
262	2
263	5
264	4
265	5
266	2
267	4
268	2
269	4
270	1
271	3
272	2
273	6
274	2
275	5
276	1
277	4
278	1
279	4
280	1
281	4
282	2
283	2
284	2
285	10
286	3
287	4
288	2
289	2
290	2
291	3
292	2
293	1
294	0
295	2
296	8
297	2
298	0
299	4
300	4
301	3
302	1
303	13
304	3
305	2
306	1
307	1
308	0
309	1
310	2
311	2
312	1
313	2
314	0
315	1
316	0
317	4
318	2
319	1
320	2
321	2
322	0
323	4
324	1
325	1
326	0
327	1
328	6
329	7
330	1
331	1
332	1
333	1
334	0
335	1
336	0
337	1
338	0
339	4
340	0
341	0
342	0
343	0
344	0
345	4
346	9
347	4
348	1
349	0
350	0
351	1
352	0
353	0
354	0
355	0
359	1
360	1
361	0
362	0
363	2
364	1
365	1
366	0
367	0
370	1
371	1
372	0
373	3
374	0
375	0
376	0
377	4
378	1
379	1
380	0
383	0
387	1
388	11
389	8
390	2
391	1
392	1
393	0
394	0
395	0
404	0
405	2
406	4
407	1
408	0
415	0
419	0
420	0
421	0
422	0
423	0
425	0
430	1
431	1
432	0
433	2
434	0
435	0
436	0
437	0
447	0
448	17
449	6
450	1
451	0
465	0
466	0
467	0
476	0
480	0
490	0
491	1
492	0
493	0
508	12
509	8
510	2
511	0
568	17
569	6
570	1
