Mass Spectrum: 7aH-Cyclopenta[a]cyclopropa[f]cycloundecene-2,4,7,7a,10,11-hexol, 1,1a,2,3,4,4a,5,6,7,10,11,11a-dodecahydro-1,1,3,6,9-pentamethyl-, 2,4,7,10,11-pentaacetate
Formula: C30H44O11
CAS: 51906-08-2
Molecular weight: 580
m/z	intensity
13	0
14	1
15	7
16	0
18	1
25	0
26	0
27	4
28	8
29	14
31	1
32	0
38	0
39	10
40	2
41	55
42	8
43	999
44	20
45	15
47	0
49	0
50	1
51	2
52	1
53	17
54	3
55	87
56	7
57	32
58	6
59	16
60	12
61	6
62	0
63	1
64	0
65	10
66	5
67	51
68	14
69	137
70	16
71	37
72	7
73	4
74	1
75	0
76	0
77	32
78	6
79	53
80	17
81	87
82	23
83	74
84	14
85	70
86	6
87	6
88	0
89	2
90	1
91	53
92	15
93	105
94	23
95	150
96	47
97	124
98	153
99	43
100	8
101	15
102	2
103	8
104	4
105	76
106	20
107	102
108	58
109	192
110	44
111	205
112	28
113	29
114	12
115	14
116	6
117	17
118	7
119	82
120	41
121	166
122	73
123	89
124	44
125	79
126	23
127	60
128	19
129	21
130	11
131	43
132	50
133	110
134	46
135	105
136	58
137	133
138	69
139	141
140	65
141	26
142	12
143	30
144	29
145	98
146	37
147	111
148	89
149	166
150	89
151	67
152	26
153	65
154	15
155	30
156	15
157	41
158	24
159	92
160	52
161	141
162	119
163	85
164	28
165	66
166	34
167	44
168	16
169	30
170	23
171	56
172	48
173	91
174	42
175	70
176	28
177	65
178	47
179	48
180	28
181	50
182	23
183	33
184	26
185	73
186	30
187	69
188	43
189	100
190	41
191	57
192	25
193	30
194	14
195	33
196	23
197	58
198	20
199	51
200	32
201	76
202	38
203	51
204	23
205	38
206	19
207	56
208	26
209	51
210	28
211	52
212	30
213	52
214	24
215	30
216	14
217	33
218	28
219	44
220	23
221	30
222	21
223	32
224	16
225	38
226	20
227	48
228	20
229	32
230	16
231	34
232	17
233	17
234	7
235	14
236	11
237	46
238	21
239	42
240	38
241	37
242	14
243	21
244	12
245	29
246	11
247	23
248	10
249	16
250	8
251	39
252	35
253	25
254	7
255	33
256	15
257	29
258	19
259	15
260	10
261	32
262	23
263	34
264	11
265	48
266	12
267	12
268	5
269	47
270	28
271	15
272	6
273	14
274	8
275	8
276	5
277	5
278	9
279	20
280	67
281	80
282	23
283	29
284	8
285	7
286	6
287	20
288	9
289	6
290	3
291	12
292	5
293	3
294	1
295	2
296	3
297	39
298	75
299	66
300	25
301	12
302	4
303	4
304	5
305	15
306	5
307	5
308	4
309	3
310	1
311	10
312	9
313	5
314	3
315	24
316	28
317	16
318	10
319	5
320	4
321	6
322	10
323	8
324	3
325	14
326	3
327	2
328	1
329	15
330	8
331	4
332	2
333	8
334	4
335	2
336	1
337	0
338	3
339	4
340	47
341	51
342	14
343	11
344	2
345	2
346	3
347	6
348	3
349	1
350	1
351	2
352	1
353	1
354	0
355	0
356	1
357	19
358	60
359	47
360	14
361	4
362	1
363	1
364	1
365	1
366	0
367	1
368	0
369	0
370	0
371	4
372	3
373	2
374	1
375	7
376	12
377	5
378	3
379	1
380	0
381	0
382	4
383	4
384	1
385	4
386	1
387	1
388	1
389	3
390	2
391	1
392	1
393	1
394	0
395	0
396	0
397	0
398	0
399	1
400	35
401	33
402	10
403	5
404	2
405	0
406	0
407	1
408	0
409	0
414	0
415	0
416	1
417	6
418	32
419	21
420	6
421	1
422	0
423	0
424	0
427	0
429	0
430	0
431	0
432	0
433	0
434	0
435	1
436	2
437	0
441	0
442	1
443	1
444	1
445	2
446	0
447	0
448	0
449	0
450	0
453	0
459	0
460	19
461	25
462	7
463	2
464	0
466	0
467	0
477	1
478	8
479	4
480	1
481	0
493	0
502	0
503	1
504	0
505	0
506	0
519	0
520	9
521	16
522	6
523	1
524	0
535	0
536	0
537	0
538	0
539	0
541	0
552	0
562	0
563	0
580	9
581	3
582	1
583	0
