Mass Spectrum: 3H-Pyrazol-3-one, 4-[(1,3-dihydro-1,3,3-trimethyl-2H-indol-2-ylidene)ethylidene]-2,4-dihydro-5-methyl-2-phenyl-
Formula: C23H23N3O
CAS: 5190-63-6
Molecular weight: 357
m/z	intensity
36	1
37	4
38	17
39	79
40	25
41	38
42	67
43	29
44	47
45	32
46	14
50	43
51	287
52	32
53	26
54	5
55	10
56	23
57	7
58	3
59	3
61	1
62	7
63	49
64	52
65	63
66	13
67	8
68	3
69	5
70	4
71	3
72	3
73	22
74	10
75	20
77	999
78	79
79	12
80	5
81	2
82	3
83	10
84	4
86	3
87	3
88	5
89	21
90	24
91	74
92	26
93	14
94	4
95	3
96	14
98	6
99	4
100	2
101	13
102	22
103	28
104	17
105	22
106	20
107	4
108	1
109	1
111	3
112	3
113	7
114	6
115	63
116	26
117	21
118	19
119	20
120	8
121	1
122	1
125	3
126	7
127	21
128	73
129	27
130	23
131	10
132	10
133	5
134	4
135	3
136	2
137	2
138	2
139	21
140	24
141	14
142	18
143	33
144	87
145	27
146	5
148	1
149	2
150	6
151	16
152	45
153	21
154	29
155	11
156	29
157	37
158	111
159	160
160	28
161	3
163	9
164	12
165	38
166	41
167	116
168	62
169	32
170	26
171	77
172	95
173	15
174	3
175	5
176	5
177	11
178	41
179	52
180	94
181	73
182	69
183	13
184	35
185	18
186	16
187	10
188	1
189	2
190	13
191	52
192	86
193	99
194	187
195	55
196	88
197	22
198	38
199	6
200	2
201	1
202	1
203	2
204	17
205	15
206	42
207	44
208	164
209	107
210	27
211	9
212	1
217	1
218	2
219	3
220	6
221	13
222	25
223	15
224	22
225	4
227	1
233	1
234	2
235	4
236	5
237	5
238	1
241	1
242	1
248	1
249	8
250	5
251	1
255	2
256	2
257	4
258	2
265	3
269	3
270	1
271	2
272	2
273	5
274	1
283	2
284	2
285	4
286	2
297	1
298	3
299	3
301	16
302	3
310	1
311	1
312	3
313	1
314	7
315	8
316	1
324	7
325	5
326	8
327	10
328	2
338	2
340	56
341	21
342	169
343	42
344	4
355	1
356	14
357	205
358	54
359	7
