Mass Spectrum: 3-Cyclopentene-1-acetaldehyde, 2-oxo-
Formula: C7H8O2
CAS: 51905-39-6
Molecular weight: 124
m/z	intensity
37	30
38	60
39	450
40	100
41	510
42	90
43	20
50	20
51	50
52	40
53	200
54	60
55	100
62	10
63	30
65	100
66	90
67	380
68	160
69	40
70	10
77	40
78	20
79	20
81	190
82	999
83	50
94	40
95	430
96	630
97	40
124	10
