Mass Spectrum: 3-Pyrrolidinecarboxylic acid, 2,4-dioxo-, methyl ester
Formula: C6H7NO4
CAS: 51925-57-6
Molecular weight: 157
m/z	intensity
25	8
26	32
27	71
29	546
30	477
31	999
33	34
34	1
35	2
36	17
37	6
38	14
39	14
40	35
41	92
42	308
43	187
44	917
45	93
46	37
47	2
48	2
50	3
51	7
52	9
53	13
54	10
55	25
56	25
57	17
58	24
59	25
60	7
61	1
62	1
64	1
65	2
66	3
67	4
68	57
69	287
70	84
71	274
72	14
73	6
74	5
75	1
76	1
77	2
78	3
79	7
80	5
81	7
82	4
83	8
84	3
85	7
86	4
87	3
88	2
89	2
90	1
91	5
92	1
93	2
94	2
95	3
96	9
97	107
98	22
99	318
100	46
101	24
102	1
103	3
104	1
105	2
107	1
108	3
109	2
110	2
111	3
112	2
113	9
114	2
115	3
116	2
117	1
120	1
121	2
122	1
123	1
124	5
125	205
126	203
127	199
128	15
129	12
130	2
131	1
139	2
140	1
141	1
142	2
143	2
153	1
154	1
155	4
156	2
157	266
158	28
159	4
160	1
