Mass Spectrum: 1H-Indene-4-carboxaldehyde, 2,3-dihydro-
Formula: C10H10O
CAS: 51932-70-8
Molecular weight: 146
m/z	intensity
27	62
29	87
38	39
39	165
40	9
41	35
50	61
51	101
62	73
63	141
65	94
74	34
75	49
77	43
89	114
91	213
103	49
115	697
116	304
117	999
118	171
128	158
131	114
145	237
146	727
147	80
