Mass Spectrum: 4a,7a-Epoxy-5H-cyclopenta[a]cyclopropa[f]cycloundecene-2,4,7,10,11-pentol, 1,1a,2,3,4,6,7,10,11,11a-decahydro-1,1,3,6,9-pentamethyl-, 2,7,10,11-tetraacetate
Formula: C28H40O10
CAS: 51950-35-7
Molecular weight: 536
m/z	intensity
11	0
13	1
14	3
15	1
16	0
17	1
25	0
26	1
27	6
28	17
29	9
30	0
31	1
32	1
36	0
37	1
38	4
39	49
40	16
41	185
42	61
43	999
44	86
45	61
46	0
47	1
48	0
49	1
50	10
51	33
52	19
53	111
54	23
55	234
56	21
57	98
58	26
59	74
60	32
61	37
62	4
63	17
64	6
65	74
66	30
67	160
68	21
69	395
70	35
71	67
72	12
73	11
74	3
75	4
76	2
77	135
78	36
79	148
80	34
81	141
82	40
83	135
84	27
85	135
86	10
87	14
88	1
89	7
90	3
91	191
92	38
93	154
94	30
95	216
96	154
97	148
98	172
99	49
100	14
101	21
102	6
103	25
104	10
105	111
106	24
107	123
108	49
109	302
110	61
111	172
112	28
113	43
114	11
115	43
116	16
117	34
118	10
119	86
120	43
121	191
122	271
123	154
124	49
125	74
126	20
127	55
128	38
129	38
130	14
131	43
132	27
133	74
134	32
135	172
136	80
137	160
138	98
139	111
140	74
141	38
142	21
143	35
144	19
145	55
146	25
147	92
148	80
149	148
150	92
151	86
152	29
153	61
154	23
155	30
156	17
157	33
158	16
159	61
160	31
161	86
162	40
163	86
164	49
165	160
166	43
167	74
168	35
169	29
170	14
171	30
172	23
173	55
174	24
175	80
176	61
177	86
178	47
179	39
180	32
181	55
182	46
183	29
184	12
185	32
186	19
187	92
188	43
189	74
190	38
191	40
192	24
193	61
194	166
195	49
196	15
197	33
198	16
199	32
200	16
201	40
202	25
203	51
204	22
205	80
206	43
207	86
208	19
209	28
210	19
211	32
212	15
213	30
214	14
215	37
216	20
217	41
218	18
219	40
220	16
221	27
222	9
223	22
224	15
225	26
226	11
227	40
228	22
229	39
230	16
231	22
232	11
233	21
234	16
235	141
236	43
237	25
238	17
239	25
240	11
241	21
242	12
243	26
244	14
245	21
246	9
247	61
248	40
249	17
250	6
251	11
252	6
253	24
254	74
255	33
256	26
257	25
258	8
259	11
260	8
261	13
262	6
263	12
264	6
265	16
266	7
267	22
268	17
269	61
270	15
271	20
272	8
273	19
274	6
275	7
276	5
277	52
278	17
279	17
280	6
281	23
282	5
283	5
284	2
285	24
286	14
287	9
288	3
289	12
290	7
291	4
292	1
293	1
294	3
295	11
296	135
297	80
298	20
299	24
300	6
301	4
302	1
303	6
304	2
305	1
306	1
307	10
308	4
309	1
310	1
311	0
312	0
313	35
314	54
315	55
316	15
317	6
318	1
319	1
320	1
321	3
322	1
323	1
324	0
325	0
327	3
328	3
329	3
330	1
331	17
332	20
333	5
334	1
335	0
336	1
337	0
338	1
339	3
340	1
341	13
342	3
343	1
344	0
345	0
346	1
347	1
348	0
349	3
350	1
355	2
356	37
357	74
358	21
359	15
360	3
361	1
362	0
363	0
364	0
365	0
372	0
373	25
374	46
375	21
376	6
377	1
378	0
383	0
387	1
388	0
389	0
390	0
391	2
392	4
393	0
398	1
399	4
400	1
401	19
402	4
403	1
405	0
406	0
414	0
415	1
416	148
417	67
418	16
419	4
420	0
421	0
432	0
433	10
434	16
435	4
436	0
443	0
452	0
458	2
459	1
460	0
461	98
462	29
463	5
464	0
465	0
475	0
476	67
477	37
478	9
479	1
494	2
495	0
534	0
536	8
537	2
538	0
