Mass Spectrum: Pyrimidine, 4-hydroxy-
Formula: C4H4N2O
CAS: 51953-18-5
Molecular weight: 96
m/z	intensity
34	3
35	0
36	2
38	57
39	69
40	31
41	227
42	352
43	73
44	2
47	4
48	2
50	12
51	41
52	66
53	53
54	10
55	9
56	2
57	4
60	1
64	0
65	2
66	5
67	28
68	474
69	201
70	9
71	3
77	1
78	0
79	12
80	1
81	1
90	0
93	2
94	0
95	31
96	999
97	43
98	4
