Mass Spectrum: 1-Hydroxy-4-hydrazonomethyl-2,2,5,5-tetramethyl-3-imidazoline
Formula: C8H16N4O
CAS: 51973-31-0
Molecular weight: 184
m/z	intensity
30	55
31	27
32	165
33	7
34	7
36	9
37	15
38	19
39	282
40	85
41	512
42	999
43	777
44	35
51	34
52	38
53	65
54	72
55	62
70	134
71	26
72	7
73	32
74	81
75	7
76	15
93	12
94	35
95	204
96	190
97	140
98	241
99	47
100	9
106	7
107	19
108	30
109	41
110	210
111	577
112	43
113	12
120	9
121	26
122	137
123	55
124	115
125	95
126	10
127	26
128	43
133	7
134	10
135	16
136	30
137	169
138	153
139	37
140	16
149	34
150	15
151	26
152	81
153	169
154	857
155	97
156	9
167	61
168	12
169	236
170	25
184	131
185	16
