Mass Spectrum: 3,6-Bis(4-methylphenyl)-tetrazine
Formula: C16H14N4
CAS: 51973-26-3
Molecular weight: 262
m/z	intensity
27	6
37	4
38	9
39	49
40	9
41	3
49	2
50	22
51	45
52	17
53	8
61	6
62	25
63	81
64	53
65	32
66	9
74	7
75	23
76	21
77	14
78	6
86	3
87	8
88	19
89	234
90	324
91	45
92	1
99	1
100	2
102	4
114	8
115	8
116	345
117	999
118	124
119	7
260	2
262	72
263	17
264	3
