Mass Spectrum: Dithieno[2,3-c:3',2'-e]pyridazine, 4,5-dioxide
Formula: C8H4N2O2S2
CAS: 51974-85-7
Molecular weight: 224
m/z	intensity
45	999
120	60
150	130
164	20
178	30
179	10
192	30
194	260
208	90
224	170
