Mass Spectrum: 2-Formyl-5-benzyloxy-4-pyridinol thiosemicarbazone
Formula: C14H14N4O2S
CAS: 51984-42-0
Molecular weight: 302
m/z	intensity
41	21
42	12
43	35
44	8
45	20
46	1
47	2
48	1
50	8
51	28
52	38
53	25
54	10
55	7
56	0
57	14
58	3
59	24
60	50
61	1
62	11
63	20
64	10
65	98
66	11
67	10
68	11
69	11
70	3
71	4
74	1
75	0
76	21
77	10
78	7
79	7
80	13
81	7
82	5
83	2
84	0
86	2
89	17
91	999
92	61
93	1
94	8
95	6
96	5
97	5
100	5
102	5
105	1
106	4
107	3
108	8
109	3
110	8
111	2
116	0
121	7
122	2
123	8
124	29
125	2
126	2
128	5
131	1
136	3
137	5
138	3
149	2
150	12
152	10
153	2
154	3
156	22
157	1
158	5
162	7
163	2
166	5
178	6
179	22
180	4
181	3
183	23
184	3
195	11
199	9
208	0
214	3
215	0
225	0
226	2
227	9
228	2
241	1
242	50
243	15
244	2
246	3
247	1
268	4
269	4
285	28
286	7
301	0
302	78
303	15
304	5
