Mass Spectrum: Hydrazinecarbothioamide, N-2-pyridinyl-2-(2-pyridinylmethylene)-
Formula: C12H11N5S
CAS: 51984-13-5
Molecular weight: 257
m/z	intensity
50	77
51	306
52	183
59	34
63	74
64	86
65	310
66	91
67	123
76	15
78	999
79	432
80	65
83	15
91	53
92	454
93	195
94	137
105	188
106	61
107	141
119	56
120	428
121	126
124	240
125	835
126	76
127	54
136	147
137	608
138	84
139	15
151	225
152	120
153	16
179	217
196	166
197	16
257	815
258	137
259	58
