Mass Spectrum: L-Lyxo-Hexopyranoside, methyl 2,3,6-trideoxy-3-[(trifluoroacetyl)amino]-
Formula: C9H14F3NO4
CAS: 51996-41-9
Molecular weight: 257
m/z	intensity
27	50
28	30
29	80
30	20
31	40
39	30
40	10
41	80
42	20
43	130
44	30
45	70
55	30
56	10
57	100
58	430
59	999
60	40
61	30
67	30
68	20
69	110
70	30
71	70
72	30
73	60
74	10
83	20
84	40
85	30
86	230
87	20
95	40
96	10
99	30
100	70
111	20
112	40
113	230
114	30
126	10
140	130
141	40
152	20
153	10
155	480
156	50
168	40
182	20
183	40
192	10
199	50
207	6
213	60
225	40
226	90
227	10
