Mass Spectrum: L-Lyxo-Hexose, 3-(benzoylamino)-2,3,6-trideoxy-
Formula: C13H17NO4
CAS: 51996-44-2
Molecular weight: 251
m/z	intensity
39	20
41	10
43	30
44	20
45	20
50	20
51	50
57	30
58	20
68	20
72	20
76	20
77	210
78	30
79	30
84	10
86	10
95	4
103	20
104	20
105	999
106	70
121	30
122	300
123	20
128	40
146	110
148	60
161	20
163	40
176	50
177	70
178	20
188	20
189	50
190	10
200	10
206	30
207	20
215	20
233	40
234	10
251	2
