Mass Spectrum: Penicillamine
Formula: C5H11NO2S
CAS: 52-67-5
Molecular weight: 149
m/z	intensity
15	11
16	10
17	19
18	60
25	1
26	9
27	54
28	29
29	77
30	83
31	2
32	27
33	28
34	74
35	3
36	7
37	8
38	14
39	94
40	12
41	291
42	58
43	118
44	118
45	42
46	24
47	61
48	2
49	4
50	5
51	7
52	9
53	39
54	35
55	37
56	159
57	148
58	10
59	75
60	10
61	10
62	3
64	5
66	2
67	4
68	18
69	14
70	170
71	115
72	25
73	9
74	63
75	999
76	36
77	23
80	1
81	2
82	12
83	9
84	1
85	9
86	7
87	50
88	18
89	6
90	2
97	2
98	13
99	13
100	15
101	1
102	1
103	27
104	43
105	4
106	2
112	1
113	2
114	4
115	3
116	5
117	1
132	11
