Mass Spectrum: dl-Penicillamine
Formula: C5H11NO2S
CAS: 52-66-4
Molecular weight: 149
m/z	intensity
15	7
16	4
17	7
18	17
26	5
27	44
28	176
29	64
30	74
31	2
32	28
33	29
34	72
35	3
36	9
37	6
38	11
39	76
40	9
41	268
42	41
43	117
44	126
45	31
46	23
47	58
48	2
49	3
50	5
51	6
52	8
53	33
54	27
55	27
56	158
57	131
58	9
59	50
60	6
61	8
62	1
64	5
66	1
67	2
68	9
69	11
70	153
71	117
72	23
73	8
74	51
75	999
76	35
77	23
78	1
81	1
82	5
83	4
84	1
85	5
86	4
87	44
88	11
89	5
90	2
97	1
98	15
99	9
100	7
101	1
102	1
103	4
104	42
105	3
106	2
112	1
114	2
115	2
116	5
132	7
