Mass Spectrum: Benzenesulfonic acid, 3-[2-pyridinyl(2-pyridinylhydrazono)methyl]-
Formula: C17H14N4O3S
CAS: 52018-85-6
Molecular weight: 354
m/z	intensity
12	1
13	1
14	10
15	8
16	105
24	9
25	9
26	69
27	41
28	345
29	5
30	3
32	73
33	3
34	5
36	9
37	54
38	84
39	188
40	94
41	174
42	20
43	16
44	12
45	1
46	3
47	11
48	578
49	33
50	150
51	214
52	364
53	48
54	20
55	5
56	2
57	3
60	1
61	2
62	9
63	15
64	999
65	30
66	94
67	583
68	37
69	3
70	1
71	3
73	1
74	6
75	18
76	17
77	10
78	87
79	498
80	34
81	2
82	1
83	3
84	1
85	1
86	1
87	3
88	3
89	3
90	3
91	3
92	9
93	39
94	755
95	54
96	3
97	2
98	1
99	1
100	2
101	2
102	3
103	3
104	3
105	5
106	1
107	4
108	2
109	2
110	2
111	1
112	1
113	2
114	3
115	3
116	2
117	2
118	2
119	1
120	1
121	7
122	6
123	3
124	1
125	1
126	2
127	1
128	5
129	5
130	3
131	1
135	1
136	1
137	2
138	3
139	6
140	6
141	2
142	2
143	3
144	4
145	2
149	1
150	1
151	2
152	1
153	2
154	2
155	9
156	18
157	2
158	1
160	1
162	1
163	3
164	5
165	9
166	10
167	22
168	13
169	4
170	7
171	9
172	1
173	1
175	1
176	1
179	1
180	1
181	5
182	3
183	1
185	1
186	1
187	1
188	2
189	2
190	4
191	6
192	3
193	2
194	13
195	7
196	6
197	2
200	1
201	1
202	1
203	1
204	2
205	1
213	1
214	3
215	3
216	3
217	2
218	2
226	1
228	1
233	1
240	1
241	2
242	13
243	41
244	84
245	19
246	3
247	2
248	6
249	2
250	1
251	1
252	1
253	1
254	3
255	1
257	1
258	1
259	3
260	1
262	1
269	1
270	1
271	15
272	43
273	9
274	2
275	1
276	1
277	1
278	1
279	1
288	1
302	1
303	1
304	2
305	1
320	1
321	4
322	1
325	1
326	1
327	2
328	1
352	2
354	1
