Mass Spectrum: Pyrazol-5-ol, 1-acetyl-3,4-dimethyl-, acetate (ester)
Formula: C9H12N2O3
CAS: 5203-75-8
Molecular weight: 196
m/z	intensity
39	159
40	10
41	91
42	242
43	568
44	30
53	71
54	70
55	102
68	92
97	342
98	20
111	999
112	816
113	72
154	346
155	30
