Mass Spectrum: 6-Nitro-3-phenylacetamidobenzoic acid
Formula: C15H12N2O5
CAS: 52033-70-2
Molecular weight: 300
m/z	intensity
41	18
42	3
43	14
44	14
45	16
46	2
47	12
48	5
49	0
50	14
51	0
52	24
53	13
54	3
55	8
56	2
57	4
59	1
60	2
61	3
62	15
63	55
64	17
65	123
66	4
67	3
68	3
69	4
70	2
71	3
72	0
73	3
74	6
75	11
76	10
77	20
78	12
79	11
80	13
81	4
82	1
83	3
87	0
88	8
89	43
90	61
91	999
92	121
93	7
94	1
95	1
96	1
97	2
98	1
99	1
100	1
101	1
102	1
103	2
104	2
105	23
106	15
107	13
108	11
109	1
110	0
111	1
112	0
113	1
114	0
115	2
118	375
119	43
120	5
121	2
122	4
123	0
124	2
125	1
126	1
127	1
128	1
129	2
130	0
131	0
132	0
133	3
134	7
135	3
136	14
137	3
138	1
139	1
140	1
141	1
143	0
147	1
148	2
149	1
150	1
151	1
152	14
153	3
154	1
155	0
157	0
160	1
161	0
162	1
163	0
164	10
165	7
166	16
167	3
168	0
169	0
170	0
171	0
178	3
179	0
180	3
181	2
182	13
183	0
185	0
192	0
193	0
196	1
198	0
202	0
208	2
209	3
210	0
211	3
212	2
214	0
224	1
226	4
227	0
228	3
238	0
239	0
253	0
254	1
256	1
270	6
271	3
272	2
283	1
284	1
286	1
288	0
300	118
301	19
302	2
