Mass Spectrum: 2-Pyrazolin-5-one, 1-acetyl-3-methyl-
Formula: C6H8N2O2
CAS: 5203-92-9
Molecular weight: 140
m/z	intensity
39	222
40	84
41	139
42	80
43	609
44	30
54	63
55	62
67	139
68	10
69	84
70	83
97	328
98	999
99	81
140	305
141	20
