Mass Spectrum: .beta.-L-Lyxo-Hexopyranose, 3-(acetylamino)-2,3,6-trideoxy-, 1,4-diacetate
Formula: C12H19NO6
CAS: 52049-77-1
Molecular weight: 273
m/z	intensity
27	40
28	100
29	50
30	30
31	20
39	20
40	10
41	50
42	60
43	999
44	300
45	70
55	20
56	40
57	60
58	100
59	110
60	240
61	20
67	10
68	30
69	10
70	20
71	10
72	330
73	40
74	10
82	10
83	40
84	70
85	40
86	200
87	20
95	20
96	20
97	10
98	50
99	10
100	50
101	150
102	120
110	20
112	20
113	10
114	150
115	60
116	10
125	10
126	30
127	20
128	70
129	20
132	10
138	60
143	30
144	50
153	80
154	10
155	6
157	5
170	4
187	20
213	3
