Mass Spectrum: 3-Dimethylaminopropyl methacrylamide
Formula: C9H18N2O
CAS: 5205-93-6
Molecular weight: 170
m/z	intensity
35	0
36	0
37	2
38	7
39	81
40	23
41	151
42	112
43	35
44	67
45	13
46	6
47	1
48	0
49	0
50	0
51	0
52	2
53	3
54	6
55	8
56	34
58	999
59	50
60	1
62	0
64	0
66	1
67	3
68	9
69	54
70	44
71	21
72	75
73	7
77	0
78	0
80	0
81	1
82	4
83	6
84	37
85	10
86	3
87	0
91	0
93	0
94	0
96	2
97	6
98	29
99	6
100	0
101	2
102	0
107	0
109	0
110	1
112	4
113	0
114	1
122	0
124	1
125	1
126	4
127	1
128	0
129	4
137	0
139	0
140	0
149	0
153	0
155	5
156	0
167	0
168	0
170	25
171	3
172	0
