Mass Spectrum: Benzeneethanol, 3-fluoro-
Formula: C8H9FO
CAS: 52059-53-7
Molecular weight: 140
m/z	intensity
50	50
51	60
57	100
63	90
83	190
96	70
107	60
109	999
110	759
122	50
140	320
