Mass Spectrum: Phenol, 3-(2-bromoethyl)-
Formula: C8H9BrO
CAS: 52059-50-4
Molecular weight: 200
m/z	intensity
50	100
51	160
53	90
63	150
65	200
77	300
78	70
91	270
104	130
107	999
108	100
120	160
121	460
200	450
202	430
