Mass Spectrum: 3-Buten-1-ol, 3-methyl-, benzoate
Formula: C12H14O2
CAS: 5205-12-9
Molecular weight: 190
m/z	intensity
26	4
27	46
28	1
29	26
31	2
37	3
38	7
39	70
40	33
41	83
42	15
43	8
44	2
45	2
49	3
50	41
51	148
52	12
53	56
54	7
55	11
56	3
57	4
62	2
63	4
65	7
66	17
67	159
68	999
69	81
70	4
71	2
73	2
74	11
75	11
76	26
77	409
78	37
79	14
80	2
83	2
84	3
85	2
91	5
92	3
93	2
104	6
105	812
106	81
107	6
121	2
122	8
123	47
124	4
135	3
141	2
149	1
175	2
190	2
