Mass Spectrum: 2-Propanesulfinic acid, 2-methyl-, methyl ester
Formula: C5H12O2S
CAS: 52056-71-0
Molecular weight: 136
m/z	intensity
54	130
55	999
56	195
65	112
73	90
79	183
80	91
105	22
136	14
137	28
