Mass Spectrum: Di-n-hexyl-diselenide
Formula: C12H26Se2
CAS: 52056-08-3
Molecular weight: 330
m/z	intensity
27	560
28	150
29	630
39	350
41	670
42	440
43	999
55	370
56	490
57	530
69	200
84	200
85	300
164	40
166	170
