Mass Spectrum: 5-Azidomethyl-3-(2-ethoxycarbonyl-ethyl)-4-ethoxycarbonylmethyl-1H-pyrrole-2-carboxylic acid, ethyl ester
Formula: C17H24N4O6
CAS: 52065-80-2
Molecular weight: 380
m/z	intensity
26	63
27	251
28	999
29	374
30	31
31	185
34	16
35	20
36	240
38	91
39	196
40	30
41	229
42	92
43	301
44	224
45	159
46	49
47	6
48	4
50	28
51	132
52	43
53	100
54	80
55	194
56	106
57	219
58	22
59	33
60	44
61	15
62	15
63	47
64	40
65	135
66	62
67	64
68	42
69	104
70	78
71	77
72	12
73	56
74	23
75	41
76	54
77	201
78	203
79	132
80	415
81	122
82	446
83	85
84	31
85	28
86	7
87	19
88	17
89	28
90	38
91	357
92	245
93	100
94	49
95	44
96	37
97	55
98	61
99	97
100	39
101	29
102	57
103	59
104	288
105	153
106	84
107	62
108	44
109	33
110	30
111	36
112	45
113	37
114	10
115	119
116	34
117	191
118	160
119	253
120	75
121	44
122	39
123	30
124	16
125	45
126	18
127	47
128	175
129	327
130	181
131	184
132	241
133	92
134	72
135	56
136	27
137	28
138	24
139	16
141	37
142	18
143	20
144	38
145	244
146	221
147	131
148	115
149	558
150	87
151	30
152	30
153	12
154	16
155	29
156	28
157	80
158	93
159	480
160	153
161	122
162	63
163	136
164	48
165	26
166	23
167	49
168	16
169	20
170	7
171	14
172	51
173	257
174	59
175	84
176	66
177	92
178	65
179	68
180	37
181	14
182	15
183	16
185	82
186	154
187	346
188	109
189	61
190	198
191	671
192	167
193	100
194	41
195	17
202	17
203	100
204	132
205	388
206	169
207	80
208	38
209	52
210	37
211	26
212	7
213	21
214	68
215	35
216	14
217	59
218	257
219	390
220	168
221	69
222	50
223	48
224	12
228	15
230	33
231	61
232	355
233	959
234	216
235	117
236	60
237	37
238	9
242	15
243	5
246	13
247	29
248	11
249	91
250	50
251	94
252	59
253	14
254	14
258	6
259	17
260	193
261	95
262	35
263	55
264	161
265	168
266	120
267	66
268	14
276	47
277	69
278	363
279	614
280	244
281	110
282	24
284	10
285	8
291	20
292	167
293	94
294	30
295	49
296	9
297	19
304	10
305	18
306	173
307	747
308	161
309	49
315	14
322	8
323	86
324	33
325	17
335	130
336	34
337	37
338	152
339	37
340	40
350	12
351	18
352	774
353	123
354	26
