Mass Spectrum: 2-Pyrrolidinecarboxamide, 1-[2-(ethylthio)-1-oxo-2-propenyl]-N-methyl-, (S)-
Formula: C11H18N2O2S
CAS: 52060-84-1
Molecular weight: 242
m/z	intensity
39	110
40	20
41	220
42	80
43	130
44	50
45	60
50	30
51	50
52	20
53	50
54	20
55	120
56	50
57	80
58	170
59	490
60	50
61	30
63	20
65	30
67	90
68	120
69	100
70	640
71	80
74	20
77	110
78	50
79	140
80	20
81	60
82	30
83	40
84	20
85	20
86	20
87	999
88	70
89	60
90	20
91	80
93	40
94	20
95	60
96	30
97	40
98	20
103	30
104	30
105	70
107	120
108	30
109	30
111	30
115	360
116	50
117	20
119	20
121	20
122	40
123	40
124	60
125	20
127	60
133	20
139	20
141	30
151	20
154	20
155	20
156	100
157	20
161	30
167	20
172	20
173	20
182	20
183	40
184	560
185	80
186	40
189	130
190	20
204	50
209	50
211	20
213	180
214	20
242	100
243	20
244	20
