Mass Spectrum: 1,3,5,2,4,6-Trithia(5-SIV)triazine, 1,1,3,3-tetraoxide
Formula: HN3O4S3
CAS: 52065-93-7
Molecular weight: 203
m/z	intensity
46	999
47	60
48	330
63	70
64	320
78	20
79	40
80	70
124	40
125	539
126	30
127	70
203	240
