Mass Spectrum: 4-Fluoromethamphetamine
Formula: C10H14FN
CAS: 52063-62-4
Molecular weight: 167
m/z	intensity
40	3
41	16
42	51
43	22
44	5
45	1
50	8
51	12
52	3
53	2
54	5
56	69
58	999
59	50
60	1
61	2
62	8
63	22
64	3
65	4
66	1
68	3
69	5
70	8
71	2
74	6
75	19
76	9
77	6
78	2
79	1
80	2
81	13
83	82
84	4
85	1
86	2
87	3
88	1
89	14
90	2
91	3
92	1
93	1
94	4
95	8
96	14
97	4
98	1
99	1
101	13
102	3
103	5
104	2
105	2
106	1
107	31
109	210
110	19
111	2
113	1
115	14
116	3
117	7
118	1
120	5
121	9
122	10
123	4
124	1
130	2
131	2
132	2
133	21
134	7
135	26
136	14
137	23
138	2
148	5
149	2
150	12
151	11
152	42
153	4
162	1
164	2
166	13
167	1
168	1
