Mass Spectrum: (4S,5S)-(-)-4-Methoxymethyl-2-methyl-5-phenyl-2-oxazoline
Formula: C12H15NO2
CAS: 52075-14-6
Molecular weight: 205
m/z	intensity
15	66
26	15
27	106
28	105
29	87
30	15
31	14
33	3
36	9
38	12
39	56
40	12
41	38
42	273
43	391
44	13
45	284
46	5
50	26
51	79
52	19
53	7
54	39
55	19
56	92
57	460
58	47
59	10
60	283
61	9
62	14
63	54
64	19
65	67
66	5
67	13
68	999
69	195
70	58
71	10
72	6
74	8
75	9
76	15
77	180
78	33
79	16
82	1
83	2
84	199
85	12
86	9
89	101
90	61
91	678
92	55
98	79
99	263
100	15
102	10
103	42
104	66
105	89
106	11
115	28
116	178
117	77
118	92
119	792
120	69
121	10
130	86
131	51
132	99
133	30
145	9
146	220
147	25
159	50
160	693
161	77
162	8
163	23
