Mass Spectrum: 8-Nonenoic acid, 9-(1,3,6-nonatrienyloxy)-, methyl ester, (E,E,Z,Z)-
Formula: C19H30O3
CAS: 52077-22-2
Molecular weight: 306
m/z	intensity
29	137
30	6
31	21
39	224
40	64
41	689
42	39
43	773
44	12
45	58
50	12
51	37
52	25
53	181
54	80
55	877
56	31
57	63
58	5
59	154
60	9
63	16
64	4
65	98
66	93
67	398
68	95
69	176
70	88
71	42
72	36
73	22
74	82
75	10
77	210
78	115
79	999
80	133
81	286
82	102
83	96
84	57
85	65
86	8
87	99
88	9
89	10
91	315
92	112
93	451
94	161
95	366
96	101
97	75
98	54
99	9
101	14
103	18
104	15
105	208
106	42
107	116
108	38
109	191
110	58
111	141
112	20
113	12
114	5
115	14
117	28
118	13
119	138
120	452
121	796
122	99
123	64
124	11
125	15
126	18
127	10
128	4
129	19
130	13
131	19
132	8
133	24
134	11
135	38
136	79
137	218
138	28
139	19
140	12
141	5
143	12
144	9
145	17
146	8
147	18
148	7
149	72
150	17
151	8
152	5
153	9
154	17
155	17
156	3
157	4
158	5
159	13
160	6
161	9
162	5
163	22
164	11
165	11
166	6
167	8
168	12
169	76
170	6
171	11
172	3
173	6
175	8
177	12
178	14
179	5
180	8
181	6
182	1
183	2
184	0
185	22
186	8
187	6
189	1
191	4
192	0
193	14
195	4
196	1
197	6
199	4
202	2
203	3
204	1
205	3
206	6
207	5
213	5
219	4
223	5
224	5
225	6
237	6
238	12
240	28
241	5
245	4
251	4
255	0
257	3
259	18
263	5
275	19
276	4
277	13
304	2
306	362
307	96
308	14
