Mass Spectrum: 1,3,5-Tris(o-tolylsulfonyl)-hexahydro-1,3,5-triazine
Formula: C24H27N3O6S3
CAS: 52082-68-5
Molecular weight: 549
m/z	intensity
30	20
42	197
65	141
91	999
118	89
119	69
139	39
155	397
183	110
184	230
211	219
238	19
394	129
548	10
549	20
