Mass Spectrum: 4-Carene, (1S,3R,6R)-(-)-
Formula: C10H16
CAS: 5208-49-1
Molecular weight: 136
m/z	intensity
15	19
27	126
28	17
29	77
38	17
39	187
40	36
41	219
42	17
43	493
44	17
50	29
51	58
52	38
53	87
54	17
55	58
58	19
63	24
65	68
66	26
67	56
68	24
69	14
75	29
77	245
78	56
79	355
80	56
81	26
89	34
90	17
91	262
92	265
93	999
94	94
95	24
103	24
105	85
106	26
107	65
117	17
119	94
120	17
121	182
122	24
134	17
136	153
137	24
