Mass Spectrum: Tri-N-(phenylsulfonyl)hexahydro-s-triazine
Formula: C21H21N3O6S3
CAS: 52082-67-4
Molecular weight: 507
m/z	intensity
30	20
39	20
42	218
50	50
51	179
52	10
77	999
78	109
125	89
141	447
142	39
143	29
170	160
171	20
197	149
198	20
224	20
310	30
366	100
367	10
506	19
507	29
508	9
