Mass Spectrum: (-)-.beta.-Bourbonene
Formula: C15H24
CAS: 5208-59-3
Molecular weight: 204
m/z	intensity
26	3
27	63
33	2
38	2
39	72
41	175
42	9
43	52
44	1
50	4
51	24
52	17
53	64
54	6
55	78
56	5
57	18
58	2
63	5
64	2
65	33
66	9
67	50
68	7
69	47
70	4
71	4
77	84
78	28
79	209
80	737
81	999
82	71
83	9
84	2
91	95
92	18
93	53
94	10
95	23
96	3
103	9
104	4
105	105
106	32
107	27
108	9
109	20
110	2
115	8
116	3
117	14
118	3
119	54
120	40
121	56
122	33
123	574
124	71
125	8
128	4
129	3
130	3
131	6
132	2
133	27
134	7
135	2
145	4
147	11
148	5
149	4
159	2
160	8
161	249
162	36
163	2
189	5
204	18
205	3
