Mass Spectrum: Benzeneethanol, .alpha.,.beta.-dimethyl-
Formula: C10H14O
CAS: 52089-32-4
Molecular weight: 150
m/z	intensity
24	0
25	0
26	2
27	61
28	4
29	29
30	0
31	4
32	0
37	2
38	7
39	56
40	4
41	12
42	4
43	83
44	5
45	170
46	5
47	1
48	0
49	0
50	27
51	85
52	24
53	17
54	2
55	5
56	1
57	19
59	1
60	0
61	1
62	7
63	31
64	7
65	44
66	6
68	1
69	0
71	3
73	0
74	10
75	9
76	10
77	188
78	116
79	153
80	8
81	1
82	0
85	0
86	2
87	2
88	1
89	16
91	999
92	75
93	6
98	0
99	0
101	2
102	13
103	85
104	46
105	354
106	736
107	68
108	2
114	0
115	25
116	7
117	31
118	4
119	2
120	1
121	0
126	0
127	0
128	3
129	1
130	1
131	4
132	3
133	4
134	2
135	11
136	0
147	0
148	3
149	3
150	7
151	0
