Mass Spectrum: 1-(2-Vinylphenyl)ethanone
Formula: C10H10O
CAS: 52095-40-6
Molecular weight: 146
m/z	intensity
25	0
26	10
27	65
28	99
29	9
30	0
31	0
32	15
34	0
35	0
37	6
38	23
39	106
40	10
41	14
42	9
43	373
44	9
45	3
46	0
47	1
49	6
50	132
51	382
52	53
53	31
54	1
55	6
56	2
57	11
58	16
59	3
60	2
61	9
62	40
63	106
64	25
65	29
66	6
67	2
69	2
70	2
71	4
72	18
73	13
74	70
75	86
76	88
77	558
78	63
79	3
80	2
81	20
82	8
83	2
84	5
85	3
86	9
87	12
88	4
89	20
90	4
91	34
92	3
93	1
94	0
95	2
96	1
97	2
98	9
99	4
100	1
101	35
102	132
103	999
104	103
105	9
106	0
109	0
110	0
111	1
112	1
113	4
114	2
115	78
116	19
117	27
118	8
119	4
120	0
121	0
122	0
125	0
126	4
127	20
128	15
129	7
130	2
131	936
132	89
133	6
134	0
143	0
144	22
145	537
146	852
147	97
148	6
149	1
