Mass Spectrum: Benzenemethanol, 3-amino-.alpha.-phenyl-
Formula: C13H13NO
CAS: 52093-45-5
Molecular weight: 199
m/z	intensity
35	13
36	13
37	17
38	25
39	91
40	19
41	30
42	18
43	13
46	11
50	26
51	95
52	32
53	20
54	18
62	14
63	39
64	25
65	144
66	77
67	22
68	15
72	13
73	11
74	17
75	24
76	49
77	358
78	63
79	110
80	17
84	17
89	19
90	80
91	131
92	132
93	253
94	999
95	71
102	12
104	12
105	394
106	39
107	38
109	11
115	29
116	12
120	235
121	79
122	73
126	10
127	16
128	19
139	14
141	15
151	17
152	52
153	39
154	14
163	10
164	13
165	58
166	20
167	28
168	13
169	11
170	32
180	113
181	46
182	71
183	39
198	81
199	854
200	131
201	13
