Mass Spectrum: dl-2-Acetamido-4-benzyloxy-2-methylbutyric acid
Formula: C14H19NO4
CAS: 5211-28-9
Molecular weight: 265
m/z	intensity
15	13
17	2
18	1
26	1
27	12
28	16
29	9
30	19
31	5
38	3
39	39
40	6
41	40
42	151
43	253
44	29
45	7
46	1
50	7
51	27
52	9
53	9
54	9
55	15
56	21
57	26
58	152
59	7
60	58
61	2
62	3
63	17
64	6
65	116
66	7
68	3
69	8
70	170
71	217
72	43
73	2
74	2
75	1
76	2
77	42
78	14
79	27
80	2
81	1
82	5
83	2
84	7
85	26
86	74
87	13
88	491
89	88
90	20
91	999
92	94
93	4
96	2
97	10
98	54
99	13
100	33
101	3
102	4
103	2
104	2
105	15
106	6
107	22
108	11
109	1
110	1
111	1
112	75
113	264
114	103
115	22
116	29
117	8
118	2
119	1
120	1
126	1
128	21
129	3
130	53
131	583
132	80
133	8
134	1
135	3
141	2
142	1
143	2
144	2
146	1
148	46
149	5
156	31
157	8
158	128
159	98
160	31
161	7
162	5
174	29
175	2
176	1
178	267
179	33
180	2
190	1
202	3
220	40
221	61
222	9
223	1
265	2
266	2
