Mass Spectrum: 2-Propenethioamide, 3-(acetyloxy)-N,N-dimethyl-, (E)-
Formula: C7H11NO2S
CAS: 52118-16-8
Molecular weight: 173
m/z	intensity
41	15
42	220
43	999
44	290
45	220
46	30
55	15
56	15
58	30
59	80
60	15
61	80
70	90
71	15
73	60
74	60
81	15
84	15
85	30
87	100
88	90
98	15
103	30
114	280
115	20
116	15
130	15
131	110
173	180
