Mass Spectrum: Benzofurazan, 5,7-dibromo-4-nitro-
Formula: C6HBr2N3O3
CAS: 52120-98-6
Molecular weight: 321
m/z	intensity
17	170
18	630
28	140
29	60
30	999
37	70
44	50
51	50
61	80
62	60
75	70
86	70
87	270
89	70
164	70
166	110
168	110
182	60
184	60
261	60
263	90
265	60
321	80
323	140
325	70
