Mass Spectrum: Acetone-1-phenyl 1,2-ethandiol ketal
Formula: C11H14O2
CAS: 52129-03-0
Molecular weight: 178
m/z	intensity
24	12
41	17
42	428
43	999
44	58
58	9
59	21
72	727
73	68
77	21
78	52
79	27
89	8
90	107
91	189
92	38
103	77
104	50
105	39
106	8
107	17
119	81
120	341
121	120
133	32
147	41
148	90
163	361
164	88
