Mass Spectrum: N-(2-Methyl-propenyl)-pyrrolidin-2-one
Formula: C8H13NO
CAS: 52132-71-5
Molecular weight: 139
m/z	intensity
42	519
43	130
55	150
68	160
69	99
84	999
96	129
124	269
139	470
