Mass Spectrum: Acetic acid, (methylsulfinyl)-, methyl ester
Formula: C4H8O3S
CAS: 52147-67-8
Molecular weight: 136
m/z	intensity
1	0
13	2
14	27
15	239
16	3
18	2
26	3
27	36
28	32
29	113
30	9
31	64
32	9
33	17
34	17
35	20
36	1
37	1
41	8
42	239
43	378
44	35
45	217
46	87
47	105
48	40
49	16
50	3
51	1
55	13
56	1
57	15
58	9
59	118
60	9
61	101
62	32
63	647
64	58
65	30
66	3
72	1
73	158
74	999
75	42
76	7
77	121
78	11
79	302
80	7
81	13
87	4
88	5
89	24
90	9
91	34
92	1
93	1
94	25
95	3
96	1
101	1
104	112
105	294
106	20
107	15
118	3
119	10
120	14
121	17
122	1
123	1
134	3
135	2
136	310
137	54
138	17
139	2
