Mass Spectrum: Pentanol, 4-methyl-4-nitro-
Formula: C6H13NO3
CAS: 5215-92-9
Molecular weight: 147
m/z	intensity
41	613
42	158
43	377
44	41
45	56
46	58
47	7
48	6
49	21
50	13
51	32
53	113
55	999
56	154
57	111
58	10
59	41
60	26
61	4
62	2
63	4
65	20
66	6
67	64
68	14
69	122
70	104
71	21
72	9
73	14
74	2
75	0
77	3
79	15
80	1
81	77
83	783
84	59
85	15
86	45
87	3
88	1
89	14
90	2
91	6
92	0
97	1
98	3
99	17
100	7
101	127
102	8
103	0
116	14
117	23
118	1
119	0
129	1
