Mass Spectrum: 1,1-Dimethyl-4-trimethylsilyl-1-silacyclo-2,5-hexadiene
Formula: C10H20Si2
CAS: 52168-04-4
Molecular weight: 196
m/z	intensity
43	90
45	60
59	140
60	10
73	999
74	80
75	40
108	370
109	40
110	10
122	190
123	70
124	10
165	10
181	160
182	30
183	10
196	140
197	30
198	10
