Mass Spectrum: 3,3-Diethyldiaziridine
Formula: C5H12N2
CAS: 52175-94-7
Molecular weight: 100
m/z	intensity
29	450
30	22
38	30
39	270
40	53
41	370
42	310
43	84
44	56
45	6
54	180
55	580
56	999
57	47
70	150
71	130
72	13
84	81
85	150
86	13
100	3
