Mass Spectrum: Cyclohexanaminium, N,N,N-trimethyl-2-phenyl-, iodide, trans-
Formula: C15H24IN
CAS: 52182-67-9
Molecular weight: 345
m/z	intensity
41	9
42	67
43	9
44	27
45	9
56	49
58	147
77	24
78	9
84	999
85	76
98	9
139	12
140	12
141	49
142	387
143	21
144	9
158	52
159	9
160	40
202	9
203	227
204	27
