Mass Spectrum: 1-Piperidinecarboxaldehyde, 2-(1-formyl-2-pyrrolidinyl)-
Formula: C11H18N2O2
CAS: 52195-96-7
Molecular weight: 210
m/z	intensity
41	90
42	40
43	60
55	60
56	110
70	230
71	60
82	30
83	20
84	350
85	20
98	250
99	590
100	50
112	999
113	120
210	100
211	10
