Mass Spectrum: 3-[2-Diethylaminoethyl]-2,4-pentanedione
Formula: C11H21NO2
CAS: 52191-92-1
Molecular weight: 199
m/z	intensity
41	218
42	354
43	732
44	240
45	154
46	197
49	9
50	20
51	46
52	20
53	43
54	35
55	64
56	178
57	53
58	602
59	52
60	83
63	18
65	30
67	27
68	13
69	61
70	40
71	35
72	74
73	33
74	324
75	17
76	12
77	51
78	15
79	22
81	13
82	30
83	17
84	44
85	73
86	999
87	69
88	54
89	97
90	17
91	48
93	21
95	4
98	9
99	28
100	61
101	18
102	32
103	3
104	13
105	24
107	15
108	9
109	30
110	9
111	17
112	9
115	14
116	21
117	22
118	16
119	17
120	3
121	15
122	3
123	8
124	8
125	20
131	3
134	18
135	3
140	13
147	17
148	4
168	10
170	20
171	8
199	12
