Mass Spectrum: 2,3-Pyrazinedicarbonitrile, 5-amino-6-[(2,3-dihydro-3-hydroxy-2-oxo-1H-indol-3-yl)amino]-
Formula: C14H9N7O2
CAS: 52197-20-3
Molecular weight: 307
m/z	intensity
75	110
76	30
89	90
90	220
91	609
92	60
105	30
118	999
119	100
132	100
146	559
147	70
159	150
160	20
307	10
