Mass Spectrum: 2-Piperidinecarboxylic acid, 1-acetyl-, ethyl ester
Formula: C10H17NO3
CAS: 52195-94-5
Molecular weight: 199
m/z	intensity
43	110
55	60
56	50
82	40
84	999
85	50
126	520
127	40
154	20
156	20
199	50
