Mass Spectrum: 3-tert-Butyl-5-chloro-2-hydroxybenzophenone
Formula: C17H17ClO2
CAS: 52196-47-1
Molecular weight: 288
m/z	intensity
34	50
36	46
37	13
38	31
39	160
40	691
41	434
42	275
44	330
45	29
46	8
48	7
50	44
51	180
52	28
53	62
54	30
55	240
56	118
57	225
58	14
59	6
60	15
61	8
62	7
63	40
65	39
66	13
67	41
69	116
70	95
71	50
72	30
73	16
74	14
75	18
77	238
79	25
80	8
81	28
82	17
83	57
84	41
85	21
87	9
88	1
89	17
90	4
91	30
92	3
93	11
94	5
95	19
96	8
97	21
98	9
99	10
100	8
101	6
102	4
103	24
105	999
106	42
107	9
108	9
109	6
110	8
111	10
112	35
113	9
114	3
115	19
116	3
117	10
118	8
119	9
120	2
121	6
122	1
123	4
124	5
125	17
126	3
127	9
128	9
129	6
130	5
131	5
132	2
133	6
134	1
135	8
136	1
137	2
139	4
141	15
142	1
143	9
145	5
147	3
149	9
151	4
152	5
153	6
154	2
155	5
157	3
158	1
159	1
161	1
163	2
164	1
165	1
167	4
169	9
170	3
171	19
175	1
184	3
189	2
191	3
217	3
219	6
231	4
283	3
288	22
289	3
290	6
