Mass Spectrum: 2(1H)-Isoquinolineacetic acid, 3,4-dihydro-1,3-dioxo-
Formula: C11H9NO4
CAS: 52208-61-4
Molecular weight: 219
m/z	intensity
27	17
28	44
31	16
38	36
39	130
40	26
42	19
45	121
50	56
51	87
56	15
59	84
61	22
62	92
63	255
64	92
65	71
74	19
75	24
76	19
77	48
86	18
87	24
88	32
89	633
90	707
91	293
92	22
104	15
116	18
117	142
118	999
119	162
128	88
145	930
146	507
147	103
173	45
174	164
175	927
176	116
201	36
219	31
