Mass Spectrum: 1-Methoxy-3-keto-4-methyl-1,4-pentadiene
Formula: C7H10O2
CAS: 52204-73-6
Molecular weight: 126
m/z	intensity
27	257
28	85
29	254
31	147
39	422
40	88
41	354
42	209
43	86
51	31
53	120
54	59
55	73
59	96
65	26
66	27
67	41
69	181
71	45
75	46
83	43
85	999
86	216
95	405
96	68
97	40
98	30
99	25
109	33
111	95
125	135
126	516
127	56
128	7
129	2
