Mass Spectrum: Thiazole, 5-methyl-2-phenyl-
Formula: C10H9NS
CAS: 5221-69-2
Molecular weight: 175
m/z	intensity
39	105
43	83
45	65
50	27
51	52
58	25
63	20
71	280
72	999
73	35
74	32
76	20
77	40
103	25
104	22
174	21
175	720
176	61
177	31
