Mass Spectrum: .alpha. Ionyl acetate
Formula: C15H24O2
CAS: 52210-18-1
Molecular weight: 236
m/z	intensity
36	1
38	1
39	51
40	8
41	156
42	11
43	999
44	25
45	31
49	0
50	2
51	16
52	6
53	56
54	5
55	130
56	9
57	15
58	3
59	3
60	4
62	1
63	4
64	2
65	33
66	8
67	55
68	16
69	48
70	5
71	29
72	2
73	1
74	0
75	0
77	91
78	23
79	118
80	214
81	69
82	9
83	14
84	7
85	1
86	0
87	6
88	5
89	0
90	0
91	131
92	69
93	263
94	82
95	541
96	82
97	28
98	2
99	2
103	11
104	3
105	429
106	80
107	93
108	21
109	92
110	9
111	5
112	2
113	6
115	7
116	1
117	12
118	3
119	179
120	356
121	165
122	58
123	122
124	12
125	4
128	1
129	2
130	0
131	5
132	2
133	48
134	15
135	13
136	24
137	128
138	326
139	30
140	1
145	4
147	15
148	4
149	3
151	4
152	1
159	1
161	97
162	17
163	2
165	6
176	249
177	55
178	4
179	3
180	167
181	16
182	0
193	1
208	0
