Mass Spectrum: 1,1-Cyclohexanedicarbonitrile
Formula: C8H10N2
CAS: 5222-53-7
Molecular weight: 134
m/z	intensity
12	7
13	3
14	11
15	66
16	1
17	4
18	13
24	1
25	4
26	93
27	368
28	219
29	109
30	4
36	1
37	29
38	59
39	299
40	75
41	526
42	64
43	97
44	3
49	5
50	33
51	65
52	86
53	67
54	83
55	67
56	999
57	44
61	2
62	6
63	16
64	26
65	23
66	29
67	51
68	20
69	6
74	2
75	8
76	13
77	26
78	19
79	256
80	54
81	63
82	7
83	1
88	1
89	1
90	2
91	7
92	39
93	14
94	292
95	20
102	1
103	1
104	4
105	26
106	65
107	42
108	8
116	1
117	1
118	2
119	60
120	5
133	77
134	9
135	2
