Mass Spectrum: 1,2,4-Triazine-3,5(2H,4H)-dione, 6-(1,1-dimethylethyl)-
Formula: C7H11N3O2
CAS: 52236-30-3
Molecular weight: 169
m/z	intensity
14	1
15	12
16	2
26	10
27	125
28	52
29	180
30	11
37	13
38	32
39	279
40	45
41	476
42	232
43	189
44	144
45	5
46	5
48	2
49	4
50	30
51	52
52	48
53	160
54	44
55	92
56	245
57	334
58	35
59	5
60	6
61	7
62	2
63	4
64	10
65	15
66	36
67	140
68	148
69	59
70	112
71	15
72	1
77	8
78	1
79	3
80	9
81	38
82	141
83	999
84	73
85	7
86	8
87	41
88	2
93	1
94	5
95	5
96	7
97	66
98	39
99	14
100	39
101	1
107	1
108	3
109	23
110	42
111	174
112	15
113	145
114	42
115	1
124	2
125	49
126	142
127	342
128	122
129	6
137	6
140	11
141	4
151	2
152	3
154	878
155	66
156	5
168	2
169	335
170	31
171	2
