Mass Spectrum: Imidazole-4-propionic acid, ethyl ester
Formula: C8H12N2O2
CAS: 52237-38-4
Molecular weight: 168
m/z	intensity
41	335
43	57
44	26
45	54
46	54
47	22
49	16
50	81
51	55
52	67
53	110
54	148
55	38
56	14
57	11
59	3
60	12
61	58
62	145
63	56
64	25
65	15
66	65
67	77
68	171
69	29
70	8
74	4
75	11
76	14
77	28
78	25
79	15
80	40
81	653
82	37
83	6
84	9
85	7
90	16
91	56
92	16
93	82
94	445
95	999
96	82
97	60
105	10
106	6
120	6
121	38
122	40
123	123
124	12
138	8
139	18
167	6
168	226
169	26
