Mass Spectrum: Pregn-5-ene-3,11-dione, 17,20:20,21-bis[methylenebis(oxy)]-, cyclic 3-(1,2-ethanediyl acetal)
Formula: C25H34O7
CAS: 52248-40-5
Molecular weight: 446
m/z	intensity
40	60
41	550
42	220
43	700
44	410
45	480
46	100
50	20
51	50
52	30
53	140
54	120
55	830
56	250
57	530
58	50
59	70
60	296
61	170
62	20
63	30
64	10
65	70
66	40
67	180
68	160
69	460
70	160
71	260
72	20
73	320
74	60
75	60
76	20
77	160
78	70
79	270
80	80
81	323
82	160
83	303
84	110
85	160
86	80
87	100
88	30
89	30
90	10
91	290
92	60
93	160
94	70
95	220
96	100
97	180
98	90
99	999
100	480
101	220
102	20
103	40
104	20
105	200
106	80
107	180
108	40
109	60
110	40
111	60
112	20
113	20
114	20
115	70
116	30
117	60
118	20
119	80
120	30
121	90
123	40
124	30
125	30
126	10
127	40
128	30
129	90
130	20
131	50
132	40
133	60
135	70
136	50
137	40
138	20
139	20
141	20
142	20
143	50
144	20
145	50
146	20
147	50
148	20
149	30
150	30
156	3
157	40
158	20
159	36
160	20
161	56
162	23
163	36
164	16
165	26
166	16
167	10
168	6
169	16
170	10
171	33
172	16
173	23
174	10
175	13
176	6
177	20
178	13
179	30
180	13
181	10
182	6
183	20
184	13
185	40
186	16
187	26
188	13
189	40
190	13
191	16
192	10
193	20
194	10
195	10
196	10
197	16
198	6
199	26
200	10
201	20
202	13
203	10
204	6
205	10
206	6
207	10
208	10
209	10
210	6
211	13
212	6
213	26
214	10
215	13
216	6
217	10
218	6
219	13
220	6
221	13
222	13
223	13
224	10
225	33
226	13
227	23
228	26
229	23
230	10
231	6
232	6
233	13
234	3
235	10
236	56
237	33
238	40
239	30
240	13
241	40
242	30
243	26
244	30
245	23
246	6
247	3
249	6
250	10
251	10
252	6
253	10
254	10
255	26
256	96
257	70
258	23
259	13
260	6
261	6
262	6
263	6
264	16
265	10
266	6
267	13
268	6
269	10
270	20
271	13
272	16
273	10
275	3
277	3
278	6
279	6
280	10
281	76
282	20
283	10
284	86
285	36
287	10
288	6
289	3
291	3
292	3
293	6
294	6
295	10
296	6
297	13
298	6
299	20
300	20
301	10
302	3
303	3
306	6
307	3
308	6
309	10
310	6
311	20
312	6
313	10
314	43
315	13
316	6
317	6
322	6
323	6
324	16
325	6
326	10
327	13
328	10
329	6
330	6
334	6
339	6
341	36
342	23
343	6
344	13
345	6
346	13
347	60
348	13
353	6
354	20
355	6
356	43
357	23
358	13
359	6
367	6
368	26
369	13
370	6
371	6
372	86
373	23
374	10
384	6
385	6
386	6
387	6
400	6
401	10
402	73
403	36
404	6
415	6
416	13
417	6
418	10
445	10
446	256
447	73
448	16
