Mass Spectrum: 2H-Pyran-2-one, 5,6-dihydro-5-hydroxy-4-methoxy-6-(2-phenylethenyl)-, [5R-[5.alpha.,6.alpha.(E)]]-
Formula: C14H14O4
CAS: 52247-79-7
Molecular weight: 246
m/z	intensity
56	849
69	110
77	130
86	529
98	15
103	80
104	70
105	80
114	999
115	180
131	80
133	529
134	50
228	15
246	42
