Mass Spectrum: 2H-Pyran-2-one, 5,6-dihydro-5-hydroxy-4-methoxy-6-(2-phenylethenyl)-, [5S-[5.alpha.,6.beta.(E)]]-
Formula: C14H14O4
CAS: 52247-80-0
Molecular weight: 246
m/z	intensity
56	55
69	62
77	74
86	400
91	66
103	60
104	50
105	60
114	999
115	105
131	54
133	160
157	10
228	13
246	50
