Mass Spectrum: Sydnone, 4-chloro-3-phenyl-
Formula: C8H5ClN2O2
CAS: 5226-93-7
Molecular weight: 196
m/z	intensity
39	130
50	200
51	340
63	60
74	70
75	70
76	160
77	999
78	80
103	110
138	770
139	70
140	300
196	130
198	40
