Mass Spectrum: Cyclooctanol, 2-mercapto-
Formula: C8H16OS
CAS: 52267-31-9
Molecular weight: 160
m/z	intensity
26	20
27	408
28	1
29	420
30	41
31	189
33	6
34	10
35	29
38	9
39	322
40	112
41	999
42	227
43	203
44	95
45	239
46	26
47	191
48	14
49	8
50	10
51	33
52	12
53	130
54	289
55	826
56	272
57	539
58	62
59	96
60	411
61	156
62	23
63	21
65	59
66	45
67	983
68	161
69	291
70	373
71	78
72	54
73	203
74	74
75	23
76	35
77	39
78	54
79	293
80	218
81	231
82	426
83	297
84	48
85	115
86	130
87	488
88	53
89	49
90	11
91	21
92	6
93	229
94	38
95	223
96	25
97	61
98	84
99	139
100	361
101	126
102	31
103	27
104	8
105	9
107	19
108	308
109	314
110	39
111	10
113	349
114	354
115	68
116	33
117	36
127	73
128	6
129	22
131	14
137	4
141	13
142	551
143	58
144	22
159	6
160	34
