Mass Spectrum: 2-Dodecanone, 12-(5-hydroxy-6-methyl-2-piperidinyl)-, [2S-(2.alpha.,5.alpha.,6.alpha.)]-
Formula: C18H35NO2
CAS: 5227-24-7
Molecular weight: 297
m/z	intensity
41	32
42	15
43	166
44	91
45	5
46	0
47	2
48	0
53	5
54	7
55	37
56	17
57	17
58	44
59	1
60	0
65	1
67	15
68	8
69	20
70	29
71	14
72	5
73	4
74	3
77	2
78	2
79	6
80	2
81	12
82	8
83	7
84	30
85	5
86	8
87	0
88	1
91	1
93	3
94	7
95	8
96	61
97	5
98	6
99	1
100	3
105	0
106	1
107	1
108	1
109	4
110	4
111	2
112	6
114	999
115	52
116	1
121	0
122	2
123	28
124	2
125	0
126	3
127	2
128	2
129	4
135	0
136	4
137	1
138	1
140	4
141	0
142	4
143	0
150	2
152	2
154	2
156	7
164	0
166	1
168	2
170	6
171	1
175	0
176	0
177	1
178	2
179	1
180	2
181	1
182	5
183	1
184	11
185	4
186	0
187	0
190	0
191	0
192	1
193	1
194	2
195	0
196	4
197	1
198	8
199	1
200	0
201	1
203	0
205	0
206	1
207	0
208	1
210	2
211	0
212	12
213	1
220	0
222	8
223	1
224	2
225	3
226	6
227	1
234	0
236	3
238	31
240	51
241	7
242	0
252	1
253	1
254	8
255	2
256	0
262	2
264	4
265	0
266	2
268	8
269	1
278	2
279	0
280	2
282	17
283	3
296	7
297	19
298	4
299	0
