Mass Spectrum: Thiazolidine, 3-methyl-
Formula: C4H9NS
CAS: 52288-89-8
Molecular weight: 103
m/z	intensity
42	300
43	92
44	165
57	675
60	80
61	25
70	30
102	220
103	999
