Mass Spectrum: N-Methylhexamethylenimine-2-carboxylic acid, ethyl ester
Formula: C10H19NO2
CAS: 5228-34-2
Molecular weight: 185
m/z	intensity
27	11
28	42
29	17
41	23
42	65
43	6
44	21
55	36
56	11
58	23
70	42
71	3
84	168
85	12
98	44
112	999
113	126
114	11
185	48
186	11
