Mass Spectrum: Streptovitacin A
Formula: C15H23NO5
CAS: 523-86-4
Molecular weight: 297
m/z	intensity
41	529
42	473
43	999
44	139
45	236
46	23
47	12
49	33
50	18
51	44
52	19
53	110
54	49
55	359
56	108
57	139
58	48
59	94
60	139
61	12
63	10
65	40
66	23
67	128
68	64
69	271
70	60
71	148
72	26
73	56
74	54
75	8
77	53
78	17
79	89
80	22
81	117
82	182
83	190
84	295
85	132
86	54
87	23
88	5
91	85
92	13
93	45
94	25
95	97
96	65
97	94
98	33
99	112
100	16
103	8
104	13
105	28
106	9
107	68
108	20
109	87
110	31
111	34
112	158
113	302
114	37
115	12
117	9
119	16
120	8
121	36
122	22
123	47
124	101
125	75
126	25
127	110
128	14
129	10
131	12
133	15
134	7
135	28
136	17
137	16
138	20
139	13
140	8
141	16
142	122
143	17
145	11
147	14
148	9
149	68
150	27
151	18
152	11
153	42
154	26
155	9
156	16
157	8
159	11
160	2
161	12
163	8
164	8
165	13
166	20
167	18
168	18
169	12
170	11
171	11
173	2
174	4
175	10
176	7
177	12
178	2
179	7
180	7
187	5
191	23
192	9
193	9
194	14
196	56
197	6
202	20
203	10
205	22
206	13
207	4
208	56
209	11
210	8
218	8
219	5
221	10
224	27
233	8
234	2
236	14
246	2
261	53
262	12
263	2
264	10
279	59
280	17
