Mass Spectrum: (4S,5S)-4-Hydroxymethyl-5-hydroxytricyclo[4.4.0.0(3,8)]decane
Formula: C11H18O2
CAS: 52305-51-8
Molecular weight: 182
m/z	intensity
27	220
29	190
31	100
39	300
40	40
41	450
42	80
43	80
44	10
50	20
51	90
52	40
53	170
54	110
55	240
56	50
57	140
58	30
63	30
65	120
66	140
67	430
68	110
69	90
70	70
71	40
77	290
78	210
79	999
80	930
81	320
82	70
83	130
84	30
85	20
91	620
92	240
93	310
94	150
95	120
96	100
97	30
103	20
104	150
105	260
106	300
107	380
108	180
109	80
110	30
115	20
117	180
118	140
119	60
120	160
121	90
122	40
123	30
131	280
132	40
133	310
134	50
135	100
136	50
146	160
147	30
149	30
164	260
165	40
