Mass Spectrum: .alpha.-[2-Pyridyl]-8-trifluoromethylnaphtho[2,1-b]thiophene-4-methanol
Formula: C19H12F3NOS
CAS: 52300-80-8
Molecular weight: 359
m/z	intensity
41	22
42	8
43	19
45	40
47	32
49	17
51	18
52	166
53	70
54	7
55	13
56	2
57	19
62	6
63	17
65	8
67	10
69	23
71	8
73	1
74	10
75	11
76	2
78	159
79	999
80	140
81	4
82	17
84	13
86	9
87	7
88	19
91	6
93	13
94	4
95	2
97	8
98	4
99	6
100	6
106	108
108	391
109	19
110	4
111	6
112	2
113	8
114	10
115	2
116	5
117	8
119	2
121	1
122	5
123	10
125	8
126	1
129	2
130	12
131	11
133	1
135	6
136	17
137	27
138	13
139	33
140	4
143	2
144	5
145	26
146	12
149	10
150	4
151	4
152	13
155	7
156	7
157	23
158	1
160	5
161	7
162	3
163	5
168	1
169	13
170	108
175	8
179	5
180	1
182	23
184	176
185	19
186	13
187	11
188	17
189	6
193	5
195	3
199	5
200	6
201	3
202	25
206	21
207	44
208	5
209	12
213	15
219	16
220	4
224	2
231	15
233	84
234	10
235	1
247	7
249	1
250	1
251	57
252	66
253	67
254	12
255	1
257	2
259	2
260	6
261	4
263	1
265	95
266	13
267	6
270	7
271	1
272	8
273	14
279	20
280	21
281	13
285	4
290	7
298	18
299	1
309	7
313	1
326	127
327	23
328	8
330	61
331	9
340	42
341	8
342	112
343	18
344	10
358	34
359	466
360	94
361	27
