Mass Spectrum: 3,4-Diethoxy-3-cyclobutene-1,2-dione
Formula: C8H10O4
CAS: 5231-87-8
Molecular weight: 170
m/z	intensity
25	5
26	46
27	270
28	61
29	999
30	56
31	172
33	0
36	0
37	0
38	1
39	5
40	8
41	13
42	9
43	39
44	7
45	93
46	23
47	2
49	0
50	1
51	0
52	2
53	3
54	2
55	5
56	17
57	120
58	111
59	16
60	1
63	0
64	1
65	0
67	1
68	21
69	21
70	3
71	3
72	0
73	2
74	6
75	1
77	1
78	0
79	1
80	1
81	0
83	1
84	1
85	47
86	30
87	3
88	1
91	1
92	0
93	0
94	0
97	1
98	3
99	1
100	0
101	1
102	0
103	1
107	0
108	0
110	0
111	0
112	1
113	153
114	48
115	10
116	1
119	0
126	1
127	2
141	2
142	80
143	8
144	1
155	0
170	168
171	20
172	2
