Mass Spectrum: 2-Acetamidopyridine
Formula: C7H8N2O
CAS: 5231-96-9
Molecular weight: 136
m/z	intensity
14	3
15	20
26	5
27	14
28	12
29	2
30	1
37	10
38	27
39	80
40	31
41	47
42	19
43	224
44	6
45	1
49	3
50	18
51	53
52	29
53	8
54	5
55	13
56	17
57	12
62	1
63	5
64	10
65	14
66	47
67	578
68	31
69	7
70	9
71	6
74	2
75	3
76	5
77	10
78	120
79	10
80	2
82	1
83	8
84	4
85	3
91	9
92	12
93	23
94	999
95	76
96	2
97	3
98	4
100	1
107	3
108	1
112	1
120	1
121	18
122	1
135	4
136	296
137	32
138	2
