Mass Spectrum: Tetradecanoic acid, 3-(acetylamino)-12-methyl-, methyl ester
Formula: C18H35NO3
CAS: 52315-84-1
Molecular weight: 313
m/z	intensity
87	370
102	999
113	220
137	210
144	720
145	220
198	220
215	120
240	110
256	60
270	510
271	100
282	60
298	40
313	70
