Mass Spectrum: 2-Pyridinecarboximidamide
Formula: C6H7N3
CAS: 52313-50-5
Molecular weight: 121
m/z	intensity
38	348
39	76
40	15
41	23
42	45
43	364
44	30
49	30
50	152
51	333
52	469
53	91
67	30
75	30
76	60
77	76
78	394
79	999
80	76
93	15
94	23
104	91
105	999
106	91
120	106
121	379
122	30
