Mass Spectrum: Tridecanoic acid, 3-(acetylamino)-12-methyl-, methyl ester
Formula: C17H33NO3
CAS: 52315-85-2
Molecular weight: 299
m/z	intensity
87	580
102	999
113	270
137	250
144	670
145	180
166	140
184	160
201	50
209	110
219	50
226	90
256	360
257	60
268	50
284	20
298	40
299	40
