Mass Spectrum: 1-Butanamine, N-methyl-N-nitro-
Formula: C5H12N2O2
CAS: 52330-07-1
Molecular weight: 132
m/z	intensity
30	109
38	10
39	68
40	28
41	207
42	547
43	999
44	691
45	22
46	10
54	10
55	35
56	46
57	94
58	25
59	44
70	21
71	11
73	22
74	11
77	11
84	44
86	176
87	23
89	987
90	27
132	16
