Mass Spectrum: Benzenamine, 4-([1,3]-oxazolo[4,5-b]pyridin-2-yl)-
Formula: C12H9N3O
CAS: 52333-90-1
Molecular weight: 211
m/z	intensity
33	1
34	1
35	1
36	2
37	32
38	171
39	112
40	20
41	40
42	8
43	8
44	6
45	8
46	5
47	1
48	2
49	2
50	16
51	21
52	33
53	12
54	9
55	6
56	2
57	5
58	1
59	1
60	2
61	7
62	16
63	69
64	125
65	204
66	34
67	15
68	2
69	3
70	1
71	2
72	0
73	2
74	6
75	11
76	13
77	10
78	31
79	4
80	2
81	1
82	3
83	3
84	1
85	1
86	1
87	2
88	4
89	6
90	44
91	157
92	52
93	83
94	20
95	3
96	1
97	1
98	1
99	1
100	1
101	4
102	6
103	4
104	5
106	40
108	0
109	1
110	0
111	2
112	0
113	1
114	1
115	1
116	7
118	999
119	86
120	7
121	1
127	1
128	3
129	6
130	2
131	1
133	1
134	0
135	1
136	0
138	0
139	4
140	0
141	2
142	1
143	1
144	1
145	0
147	0
148	0
149	2
150	0
151	0
153	1
155	10
156	3
157	1
158	0
159	0
161	0
163	0
165	1
166	0
167	0
171	0
175	0
176	0
177	0
178	0
179	0
180	0
181	2
182	4
183	10
184	2
185	0
186	0
189	0
190	0
191	0
192	0
193	0
194	2
202	0
204	0
205	0
207	0
208	1
209	8
210	37
211	742
212	116
213	10
214	1
