Mass Spectrum: 1-Butanamine, N-ethyl-N-nitro-
Formula: C6H14N2O2
CAS: 52330-08-2
Molecular weight: 146
m/z	intensity
31	15
34	11
39	67
40	214
41	237
42	618
43	250
44	123
45	11
46	11
54	24
55	48
56	247
57	999
58	635
59	26
70	28
71	53
72	15
73	27
84	203
85	15
87	14
91	11
98	10
100	180
101	28
103	881
104	36
131	17
146	14
