Mass Spectrum: Pregnan-20-one, 3,11-dihydroxy-, (3.beta.,5.beta.,11.alpha.)-
Formula: C21H34O3
CAS: 52340-98-4
Molecular weight: 334
m/z	intensity
31	412
41	251
43	999
44	35
45	12
53	62
55	241
57	62
67	175
68	35
69	85
70	20
71	155
77	67
78	20
79	196
80	35
81	291
82	30
83	50
84	70
85	98
91	150
92	25
93	221
94	75
95	206
96	57
97	50
98	22
105	148
106	193
107	238
108	216
109	165
110	32
111	30
117	30
118	20
119	100
120	150
121	120
122	67
123	60
124	648
125	87
131	70
132	87
133	108
134	40
135	70
136	17
137	37
138	17
143	75
144	20
145	75
146	35
147	163
148	30
149	85
150	20
151	10
157	20
158	10
159	65
160	27
161	85
162	20
163	30
171	20
172	57
173	47
174	10
175	40
177	20
185	7
187	20
188	7
189	17
190	203
191	60
192	25
193	37
199	17
201	10
202	10
203	17
204	17
213	65
214	7
215	15
227	20
228	27
229	17
231	15
240	7
241	5
243	5
244	5
245	10
246	50
247	7
253	12
255	57
256	10
257	7
258	20
259	7
264	10
265	20
272	10
273	25
280	2
281	20
283	105
284	17
298	291
299	65
301	143
302	20
317	75
334	17
335	2
