Mass Spectrum: 3.beta.-Hydroxy-5-bisnorcholenic acid
Formula: C22H34O3
CAS: 5234-01-5
Molecular weight: 346
m/z	intensity
41	999
43	729
44	96
45	240
47	6
49	31
51	41
52	24
53	291
55	937
57	411
58	27
59	70
61	7
65	106
66	42
67	436
68	72
69	263
70	9
71	79
73	58
74	141
75	7
77	325
78	88
79	709
80	32
81	529
82	18
83	115
84	24
85	34
87	28
91	674
92	118
93	428
94	117
95	254
96	42
97	63
99	35
103	50
105	656
106	158
107	598
108	113
109	133
110	7
111	68
115	93
116	44
117	189
118	72
119	296
120	188
121	308
122	54
123	55
124	42
125	72
127	33
128	50
129	86
130	30
131	226
132	67
133	283
134	80
135	109
136	8
137	41
141	43
142	34
143	150
144	38
145	345
146	76
147	171
148	48
149	70
151	20
152	6
153	33
155	25
157	77
158	47
159	190
160	144
161	471
162	87
163	51
165	42
166	26
167	50
169	26
171	77
172	14
173	88
174	37
175	37
177	10
178	50
179	35
180	14
181	7
183	27
185	57
186	26
187	67
189	61
191	16
197	36
199	51
201	29
203	8
205	23
207	65
211	21
213	121
214	28
215	40
217	48
219	9
220	23
221	26
228	14
229	14
231	43
233	7
234	91
235	190
236	31
239	83
240	22
249	9
254	14
255	45
257	28
259	7
260	7
261	184
262	40
267	14
271	15
273	39
274	13
275	14
285	7
286	43
287	26
289	27
295	13
300	6
313	154
314	31
328	186
329	61
331	85
332	21
346	261
347	60
