Mass Spectrum: 1,2-Ethanediol, 1,2-diphenyl-, [R-(R*,R*)]-
Formula: C14H14O2
CAS: 52340-78-0
Molecular weight: 214
m/z	intensity
17	1
18	3
27	8
28	4
29	9
38	1
39	11
40	1
50	9
51	38
52	10
53	8
55	1
62	2
63	7
64	2
65	5
74	2
75	3
76	5
77	186
78	34
79	430
80	32
81	1
82	1
83	1
88	1
89	11
90	13
91	10
92	1
102	1
105	65
106	30
107	814
108	999
109	77
110	5
115	2
119	1
128	1
139	1
151	1
152	7
153	1
163	1
164	1
165	13
166	4
167	19
168	3
176	1
177	1
178	4
179	6
180	9
181	2
196	2
197	10
198	2
214	9
215	1
