Mass Spectrum: 2-Ethyl-2-norbornyl acetate
Formula: C11H18O2
CAS: 52352-83-7
Molecular weight: 182
m/z	intensity
27	122
29	151
39	192
41	230
43	902
45	227
53	106
55	121
57	356
60	203
66	496
67	420
68	152
72	244
73	250
77	218
79	536
80	195
81	192
83	151
91	218
93	999
94	340
107	233
110	322
111	766
122	461
140	102
153	133
154	18
164	6
182	9
