Mass Spectrum: Hexanoic acid, decyl ester
Formula: C16H32O2
CAS: 52363-43-6
Molecular weight: 256
m/z	intensity
25	7
26	43
27	261
28	44
29	396
30	18
31	18
36	12
37	8
38	18
39	189
40	48
41	685
42	288
43	999
44	45
45	35
50	11
51	18
52	6
53	51
54	71
55	542
56	376
57	376
58	25
59	9
60	118
61	103
62	3
63	3
65	9
66	9
67	58
68	99
69	302
70	337
71	319
72	21
73	99
74	17
75	12
77	4
78	4
79	9
80	4
81	25
82	92
83	219
84	172
85	109
86	11
87	51
88	11
89	17
90	4
91	3
93	3
95	11
96	35
97	168
98	135
99	457
100	38
101	17
109	3
110	15
111	105
112	149
113	17
114	7
115	18
116	75
117	778
118	52
119	6
125	7
127	3
129	7
131	3
140	225
141	31
142	3
155	3
157	9
173	11
185	17
199	3
200	2
