Mass Spectrum: Dipyrrolo[1,2-a:-1',2'-d]pyrazine-5,10-dione, octahydro-2,7-dihydroxy-
Formula: C10H14N2O4
CAS: 52363-44-7
Molecular weight: 226
m/z	intensity
26	11
27	102
28	95
29	41
30	47
31	25
38	4
39	22
40	10
41	168
42	61
43	41
44	19
45	5
51	1
52	3
53	4
54	28
55	161
56	166
57	30
58	30
59	2
64	1
65	1
66	6
67	14
68	159
69	28
70	9
71	3
72	1
78	1
79	1
80	2
81	3
82	14
83	5
84	31
85	27
86	999
87	47
88	3
93	1
94	16
95	6
96	10
97	6
98	11
99	26
100	6
108	1
109	1
110	2
111	2
112	170
113	18
114	6
115	2
122	3
123	3
124	1
125	2
126	28
127	3
130	1
134	1
135	2
136	2
137	1
138	1
139	1
140	268
141	44
142	31
143	5
151	1
152	2
153	3
154	53
155	11
156	12
157	1
163	1
168	11
169	11
170	12
171	7
180	3
181	7
182	4
183	3
197	18
198	44
199	4
206	1
207	1
208	11
209	5
221	0
226	268
227	44
228	4
