Mass Spectrum: l-Cysteine, N-acetyl-S-[5-(acetylamino)-2-hydroxyphenyl]-
Formula: C13H16N2O5S
CAS: 52372-86-8
Molecular weight: 312
m/z	intensity
25	3
26	23
27	29
28	93
29	17
30	9
31	4
32	11
33	6
34	7
36	4
37	6
38	8
39	27
40	33
41	171
42	225
43	999
44	43
45	52
46	4
47	5
48	2
49	2
50	9
51	24
52	60
53	44
54	19
55	13
56	7
57	14
58	18
59	19
60	50
61	4
62	4
63	7
64	3
65	3
66	3
67	9
68	11
69	15
70	4
71	6
72	2
73	5
74	11
75	5
76	20
77	3
78	18
79	46
80	70
81	9
82	5
83	9
84	21
85	20
86	9
87	239
88	26
89	3
91	1
93	4
94	2
95	6
96	37
97	5
98	2
99	5
100	10
101	12
102	3
106	5
107	8
108	75
109	64
110	9
111	68
112	38
113	14
114	5
115	1
117	2
118	5
120	1
121	4
122	2
123	2
124	3
129	61
130	8
131	2
134	2
135	1
136	1
138	4
139	6
140	104
141	493
142	41
143	23
144	5
148	1
149	5
151	1
152	2
154	4
155	2
163	2
165	3
167	3
176	2
182	3
183	277
184	36
185	14
186	2
191	2
193	2
194	2
196	1
197	2
253	2
312	2
