Mass Spectrum: Pyrrolidine, 1-(1-oxo-9-octadecenyl)-
Formula: C22H41NO
CAS: 52380-36-6
Molecular weight: 335
m/z	intensity
39	35
40	11
41	245
42	60
43	276
44	47
45	6
53	28
54	58
55	414
56	106
57	87
58	9
59	6
65	7
66	6
67	89
68	46
69	154
70	294
71	139
72	162
73	9
74	7
75	8
77	10
79	20
80	8
81	58
82	17
83	49
84	24
85	105
86	8
87	7
91	7
93	9
95	27
96	15
97	24
98	176
99	27
100	7
107	5
109	11
110	13
111	14
112	31
113	999
114	84
115	10
116	8
123	6
124	7
125	5
126	611
127	132
128	11
137	5
138	5
140	87
141	24
149	9
152	9
154	27
155	12
166	7
168	67
169	18
180	9
182	114
183	20
194	10
196	24
197	5
208	22
209	5
210	7
222	35
223	9
236	93
237	20
250	85
251	16
264	32
265	10
278	17
292	18
306	13
320	6
334	17
335	247
336	64
337	8
