Mass Spectrum: (R)-1-(5,8-Dihydroxy-1,4-dioxo-1,4-dihydro-2-naphthyl)-4-methyl-3-pentenyl isovalerate
Formula: C21H24O6
CAS: 52387-14-1
Molecular weight: 372
m/z	intensity
15	3
17	2
18	7
26	3
27	47
28	14
29	79
30	1
31	4
32	1
37	1
38	5
39	57
40	9
41	273
42	30
43	143
44	5
45	38
46	1
50	8
51	26
52	19
53	31
54	6
55	38
56	12
57	598
58	27
59	11
60	250
61	18
62	6
63	16
64	5
65	19
66	4
67	10
68	3
69	162
70	10
71	4
72	1
73	1
74	5
75	6
76	9
77	32
78	12
79	20
80	11
81	9
82	6
83	8
84	5
85	999
86	63
87	54
88	6
89	14
90	6
91	48
92	28
93	11
94	2
95	3
96	1
97	1
98	2
99	2
100	5
101	5
102	9
103	9
104	4
105	13
106	8
107	16
108	41
109	8
110	1
111	1
112	2
113	5
114	5
115	21
116	6
117	6
118	5
119	11
120	7
121	18
122	2
125	2
126	4
127	11
128	12
129	6
130	2
131	8
132	3
133	8
134	11
135	20
136	26
137	37
138	3
139	6
140	2
141	9
142	4
143	5
144	4
145	8
146	4
147	7
148	1
149	3
150	2
151	4
152	12
153	10
154	6
155	6
156	2
157	5
158	2
159	3
160	3
161	6
162	4
163	10
164	4
165	16
166	3
167	4
168	4
169	5
170	3
171	10
172	5
173	6
174	3
175	11
176	4
177	3
178	10
179	7
180	2
181	11
182	5
183	4
184	5
185	5
186	2
187	12
188	6
189	19
190	27
191	34
192	7
193	2
194	2
195	6
196	4
197	9
198	5
199	12
200	7
201	5
202	2
203	9
204	44
205	9
206	3
207	3
208	4
209	9
210	5
211	8
212	5
213	10
214	4
215	27
216	29
217	9
218	18
219	55
220	180
221	23
222	4
223	8
224	9
225	11
226	7
227	53
228	53
229	76
230	13
231	2
232	3
233	2
234	3
235	4
236	8
237	39
238	9
239	12
240	8
241	31
242	15
243	9
244	2
245	3
246	1
249	1
250	1
251	14
252	50
253	41
254	51
255	362
256	64
257	11
258	2
259	7
260	1
267	3
268	21
269	28
270	979
271	228
272	96
273	14
274	3
286	1
287	1
288	29
289	5
303	5
304	6
305	1
354	4
355	1
372	13
373	3
