Mass Spectrum: Pyrrolidine, 1-(1-oxo-9-octadecenyl)-, (E)-
Formula: C22H41NO
CAS: 52380-42-4
Molecular weight: 335
m/z	intensity
39	31
40	8
41	228
42	55
43	254
44	19
47	8
48	5
49	45
51	14
53	26
54	58
55	408
56	104
57	81
58	6
65	6
66	5
67	88
68	42
69	130
70	284
71	133
72	169
73	8
77	8
79	17
80	7
81	49
82	13
83	42
84	39
85	101
86	22
91	6
93	7
95	22
96	12
97	19
98	176
99	27
100	7
109	8
110	8
111	8
112	30
113	999
114	88
115	6
116	5
124	6
126	637
127	133
128	10
140	91
141	24
152	9
154	29
155	12
166	7
168	71
169	17
180	8
182	117
183	21
194	9
196	24
208	22
209	5
210	6
222	35
223	9
224	4
236	98
237	22
238	6
250	84
251	19
252	5
264	32
265	9
278	16
279	4
292	19
293	6
306	16
320	6
333	5
334	17
335	251
336	65
337	9
