Mass Spectrum: Pyrrolidine, 1-(1-oxo-11-octadecenyl)-
Formula: C22H41NO
CAS: 52380-35-5
Molecular weight: 335
m/z	intensity
39	27
40	8
41	180
42	45
43	200
44	16
45	5
49	6
53	20
54	41
55	350
56	77
57	40
58	5
59	5
65	6
66	5
67	59
68	33
69	110
70	220
71	100
72	100
73	8
75	5
77	7
78	5
79	15
80	8
81	32
82	12
83	35
84	18
85	82
86	7
91	6
93	7
94	5
95	18
96	10
97	17
98	110
99	20
100	7
105	5
107	5
109	10
110	9
111	10
112	25
113	999
114	65
115	7
116	6
123	6
124	6
125	6
126	410
127	82
128	9
138	5
140	60
141	16
142	6
152	7
154	25
155	12
166	6
168	54
169	14
180	6
182	35
183	11
194	6
196	32
197	9
208	10
210	45
211	12
222	10
223	5
224	15
225	5
236	15
237	5
238	7
250	26
251	9
252	6
264	73
265	23
266	8
278	83
279	22
280	7
292	32
293	12
306	18
307	8
320	9
321	5
333	6
334	18
335	270
336	63
337	12
