Mass Spectrum: Cyclohexane, 1-ethynyl-1-methoxy-
Formula: C9H14O
CAS: 5240-36-8
Molecular weight: 138
m/z	intensity
25	5
26	45
27	308
29	191
30	17
31	24
33	6
36	2
37	7
38	31
39	541
40	77
41	290
42	44
43	171
44	22
45	115
46	2
47	1
49	2
50	60
51	161
52	304
53	269
54	68
55	147
56	9
57	10
58	2
59	10
61	1
62	12
63	36
64	13
65	349
66	82
67	186
68	27
69	36
70	5
71	6
72	7
73	1
74	5
75	3
76	7
77	140
78	63
79	289
80	69
81	61
82	302
83	32
84	39
85	2
89	2
90	1
91	157
92	17
93	130
94	21
95	999
96	104
97	31
98	5
102	8
103	11
104	3
105	36
106	18
107	34
108	10
109	285
110	233
111	22
112	2
113	0
122	1
123	331
124	26
125	2
137	40
138	25
