Mass Spectrum: Thiazole, 5-butyl-
Formula: C7H11NS
CAS: 52414-90-1
Molecular weight: 141
m/z	intensity
27	540
28	180
29	495
41	605
43	585
45	670
58	246
59	135
71	830
72	875
81	224
85	270
86	180
98	965
99	999
100	360
101	200
112	160
114	610
141	850
142	160
143	70
