Mass Spectrum: 2-Hydroxymethylcyclopentanol, (E)-, 2TMS derivative
Formula: C12H28O2Si2
CAS: 52429-84-2
Molecular weight: 260
m/z	intensity
43	75
44	41
45	196
46	13
47	69
51	11
52	8
53	39
54	46
55	58
56	12
57	33
58	29
59	119
60	15
61	52
65	10
66	29
67	48
68	19
69	31
70	19
71	11
72	35
73	999
74	99
75	599
76	48
77	66
78	19
79	52
80	66
81	471
82	39
83	13
85	15
87	7
88	11
89	18
91	7
93	7
94	25
95	10
98	18
99	29
101	43
102	10
103	81
104	7
105	15
111	7
113	20
114	11
115	41
116	25
117	20
118	12
119	14
122	7
125	13
127	49
129	345
130	53
131	59
132	12
133	96
134	20
135	10
137	8
139	6
141	46
142	248
143	49
144	13
145	10
146	49
147	921
148	178
149	139
150	21
151	21
155	175
156	31
157	22
163	6
167	67
169	159
170	838
171	144
172	45
173	12
175	5
177	13
191	7
203	10
204	3
217	32
218	7
219	2
245	29
246	5
247	3
