Mass Spectrum: Tris(2,3-dibromopropyl) isocyanurate
Formula: C12H15Br6N3O3
CAS: 52434-90-9
Molecular weight: 723
m/z	intensity
15	6
16	1
26	9
27	48
28	31
29	2
36	6
37	1
38	5
39	192
40	20
41	448
42	31
43	18
44	18
45	20
51	1
52	8
53	9
54	121
55	74
56	999
57	43
58	34
59	1
64	4
66	2
67	5
68	24
69	43
70	345
71	56
72	4
75	1
77	1
78	3
79	46
80	138
81	44
82	901
83	411
84	187
85	10
86	1
87	11
93	22
94	4
95	22
96	47
97	10
98	3
99	35
100	2
105	9
106	7
107	12
108	7
109	8
110	6
111	11
112	4
113	6
114	1
117	1
119	155
120	8
121	150
122	8
123	9
124	17
125	131
126	16
127	22
128	2
130	9
132	2
134	10
135	2
136	12
137	17
138	5
139	106
140	9
141	2
142	9
147	1
148	4
149	2
150	4
151	8
152	3
153	3
154	5
155	1
158	13
159	2
160	31
161	3
162	164
163	9
164	143
165	15
166	5
167	5
168	83
169	7
170	12
171	1
173	2
174	1
175	1
176	1
177	1
179	3
180	14
181	2
182	9
183	1
185	2
187	4
189	2
191	2
192	1
193	2
194	7
195	3
197	2
199	38
200	2
201	70
202	3
203	35
204	3
205	21
206	6
207	20
208	110
209	18
210	7
211	1
217	5
219	5
220	1
221	1
222	46
223	7
224	2
226	1
232	1
234	16
235	2
236	2
240	1
242	3
243	2
244	4
245	3
246	10
247	3
248	125
249	220
250	62
251	7
260	68
261	7
262	66
263	6
264	2
265	1
266	1
271	1
272	1
273	1
274	3
275	1
276	2
279	1
280	3
284	1
285	2
286	34
287	7
288	80
289	10
290	48
291	5
292	1
297	6
299	11
300	17
301	9
302	17
303	3
304	1
313	1
314	1
323	1
325	3
326	14
327	5
328	148
329	22
330	132
331	18
332	3
338	1
340	21
341	2
342	40
343	4
344	19
345	2
352	2
353	1
354	4
355	2
356	2
357	4
358	1
359	5
360	1
361	4
363	2
364	1
365	1
366	40
367	5
368	75
369	9
370	37
371	4
372	1
378	3
380	15
381	3
382	24
383	3
384	10
385	1
392	2
394	4
396	2
404	1
406	16
407	39
408	35
409	77
410	25
411	38
412	6
413	1
418	1
420	2
422	2
424	1
434	1
436	1
438	1
440	1
444	2
446	16
447	2
448	39
449	4
450	36
451	4
452	10
453	1
458	3
460	9
461	2
462	9
463	2
464	3
484	2
486	33
487	5
488	89
489	12
490	84
491	12
492	28
493	4
494	1
526	3
528	4
530	3
532	1
538	4
540	14
541	2
542	19
543	3
544	12
545	2
546	4
564	4
565	4
566	15
567	12
568	22
569	18
570	16
571	11
572	5
573	3
602	1
604	1
644	14
646	73
647	10
648	139
649	19
650	137
651	19
652	67
653	9
654	13
655	2
