Mass Spectrum: 1,2,3,4-Tetramethylmannose, TMS derivative
Formula: C13H28O6Si
CAS: 52430-37-2
Molecular weight: 308
m/z	intensity
41	78
43	34
44	48
45	220
59	93
69	20
71	68
73	300
74	42
75	725
76	27
85	27
88	999
89	205
101	383
102	26
103	44
111	20
117	170
129	33
131	36
133	33
145	26
146	22
159	47
173	14
175	6
176	9
185	12
201	6
207	39
208	6
229	12
245	16
261	5
