Mass Spectrum: 2,5-Dibromo-3,4-dinitrothiophene
Formula: C4Br2N2O4S
CAS: 52431-30-8
Molecular weight: 330
m/z	intensity
12	15
14	5
16	18
17	6
18	14
24	6
28	56
30	999
31	6
32	41
36	55
37	5
38	26
44	113
45	11
46	79
48	10
50	11
52	5
56	24
58	6
60	5
62	4
68	84
69	8
70	37
72	5
79	35
80	361
81	58
82	35
84	10
86	70
91	28
93	27
94	8
96	23
98	16
103	6
105	6
107	53
109	45
113	4
114	7
115	58
116	4
117	51
119	7
123	179
125	180
126	4
127	15
129	15
131	240
133	239
134	9
135	14
137	12
147	169
149	155
150	6
151	8
159	371
160	32
161	378
162	20
163	41
165	27
175	41
177	51
178	3
179	14
194	5
196	8
198	5
214	9
216	11
218	5
226	10
228	24
230	11
238	12
240	29
242	15
254	16
256	24
258	14
272	12
274	25
276	12
300	127
302	247
303	16
304	131
305	8
306	7
314	9
316	18
318	12
330	318
331	19
332	637
333	38
334	333
335	20
336	16
