Mass Spectrum: Furan-2-carbonyl chloride, tetrahydro-
Formula: C5H7ClO2
CAS: 52449-98-6
Molecular weight: 134
m/z	intensity
24	0
25	5
26	52
27	392
28	34
29	186
30	8
31	11
33	0
34	0
35	10
36	10
37	21
38	42
39	289
40	50
41	503
42	101
43	606
44	20
45	3
47	2
48	4
49	7
50	7
51	4
52	1
53	6
54	1
55	19
56	2
57	0
58	0
60	1
61	1
62	1
63	32
64	1
65	9
66	0
67	0
68	8
69	26
70	23
71	999
72	45
73	3
74	0
75	1
76	6
77	1
78	2
79	0
80	0
81	0
84	0
86	0
89	0
91	1
92	0
93	0
95	1
97	0
103	0
105	3
106	3
107	0
108	1
119	0
