Mass Spectrum: (2-Methyl-1,3-thiazol-5-yl)acetic acid
Formula: C6H7NO2S
CAS: 52454-65-6
Molecular weight: 157
m/z	intensity
33	35
35	9
36	13
37	118
38	142
39	186
40	238
41	134
42	405
43	70
44	301
45	999
47	71
48	4
50	13
51	27
52	31
53	19
54	14
55	48
56	28
57	54
58	44
59	102
60	36
61	10
62	8
63	11
64	16
65	12
66	16
67	22
69	233
71	665
72	216
73	37
74	20
76	2
77	2
78	1
79	4
80	1
81	13
82	14
83	11
85	3
86	1
87	27
88	11
96	2
97	2
98	18
99	5
103	12
104	5
112	190
113	583
114	45
115	25
116	1
139	22
140	2
157	426
158	37
159	23
