Mass Spectrum: 3-Cyclohexene-1-carboxylic acid, 4-methoxy-6-methyl-2-oxo-, methyl ester
Formula: C10H14O4
CAS: 52452-25-2
Molecular weight: 198
m/z	intensity
26	17
27	141
29	77
30	9
31	57
33	4
37	10
38	41
39	314
40	305
41	266
42	41
43	45
44	42
45	30
46	2
47	2
49	7
50	22
51	50
52	36
53	115
54	23
55	85
56	12
57	14
58	3
59	117
60	5
61	5
62	10
63	23
64	11
65	51
66	52
67	88
68	812
69	791
70	42
71	13
72	4
73	5
74	5
75	5
76	7
77	79
78	21
79	96
80	26
81	51
82	18
83	30
84	7
85	32
86	5
90	3
91	13
92	7
93	11
94	16
95	88
96	43
97	50
98	999
99	75
100	12
101	8
105	8
106	5
107	45
108	16
109	38
110	42
111	91
112	11
113	129
114	11
115	5
119	6
120	3
121	10
122	7
123	30
124	48
125	76
126	7
127	6
128	540
129	39
130	6
133	2
134	2
135	5
136	3
137	13
138	76
139	574
140	111
141	14
142	3
143	1
148	2
149	11
150	3
151	189
152	19
153	5
154	2
155	10
156	190
157	18
158	2
159	1
165	13
166	91
167	196
168	22
169	5
170	26
171	3
180	2
181	1
182	1
183	208
184	21
185	5
186	3
187	1
197	2
198	403
199	55
200	7
201	1
