Mass Spectrum: Oxacyclooctadecan-2-one, 5,6,7-trihydroxy-18-methyl-
Formula: C18H34O5
CAS: 52461-08-2
Molecular weight: 330
m/z	intensity
41	340
43	222
60	101
95	219
96	133
97	156
98	747
99	191
115	209
116	999
117	209
121	96
122	32
123	64
124	47
125	35
127	48
179	48
181	32
192	96
197	80
210	80
226	64
227	32
294	15
312	16
315	16
330	16
