Mass Spectrum: Oxacyclooctadec-3-en-2-one, 5,6,7-trihydroxy-18-methyl-
Formula: C18H32O5
CAS: 52461-05-9
Molecular weight: 328
m/z	intensity
41	967
42	155
43	499
44	130
45	120
53	95
54	100
55	999
56	142
57	310
58	60
60	60
61	60
79	110
80	47
81	365
82	115
83	195
84	749
85	145
86	110
87	50
91	50
93	85
95	350
96	260
97	207
98	70
102	397
114	47
115	22
116	110
117	45
119	45
121	99
122	19
123	89
124	30
125	28
128	10
129	9
130	9
131	20
132	50
133	30
134	10
135	80
136	30
137	49
138	30
139	9
140	9
141	8
142	4
143	10
144	2
145	6
146	3
147	7
148	6
150	14
151	11
152	15
153	10
154	5
155	6
156	3
157	5
158	3
159	6
161	7
162	3
163	13
164	5
165	9
166	8
167	8
168	8
169	10
173	3
175	7
176	4
177	19
178	18
179	33
180	9
181	6
182	3
183	1
191	45
192	10
193	6
194	6
195	34
196	10
197	34
198	4
199	3
201	2
202	2
204	3
205	2
206	2
207	2
208	2
209	57
210	11
211	11
212	3
213	19
214	3
215	3
219	9
224	4
225	4
226	9
227	41
228	7
238	1
239	0
282	0
283	0
284	3
285	2
310	5
328	2
329	0
