Mass Spectrum: Formamide, N-(2-formylphenyl)-N-methyl-
Formula: C9H9NO2
CAS: 52479-54-6
Molecular weight: 163
m/z	intensity
50	180
51	370
65	170
66	110
77	300
78	230
79	190
91	230
106	999
118	200
135	899
163	280
