Mass Spectrum: Cyclopentanecarboxylic acid, 1-(4-ethoxy-4-oxobutyl)-2-oxo-, ethyl ester
Formula: C14H22O5
CAS: 52478-10-1
Molecular weight: 270
m/z	intensity
34	0
37	0
39	249
40	205
41	530
42	123
43	272
45	163
46	11
47	21
48	27
49	1
51	7
52	28
53	235
54	106
55	699
56	73
57	78
58	10
59	31
60	79
61	44
62	21
65	56
66	75
67	612
68	208
69	113
70	60
71	135
72	15
74	9
77	74
78	3
79	301
80	146
81	392
82	81
83	83
84	39
85	64
86	67
87	19
88	45
90	10
93	84
94	143
95	689
96	138
97	240
98	56
99	76
100	16
101	36
102	5
105	289
106	38
107	141
108	93
109	236
110	513
111	124
112	92
113	355
114	44
115	13
116	6
121	117
122	393
123	999
124	121
125	150
126	49
127	126
128	146
129	18
130	2
131	4
132	8
133	131
134	22
135	24
136	25
137	68
138	6
139	146
140	85
141	355
142	58
143	7
144	0
148	0
150	816
151	669
152	93
153	19
154	133
155	87
156	908
157	90
158	11
159	1
160	2
161	1
163	6
167	735
168	431
169	419
170	45
171	7
176	0
177	7
178	117
179	961
180	119
181	19
182	10
183	21
184	2
185	2
186	2
193	0
195	33
196	108
197	32
198	5
207	218
208	30
209	3
212	0
213	75
214	16
215	17
216	2
223	0
224	327
225	78
226	10
227	0
242	282
243	41
244	5
270	6
271	2
