Mass Spectrum: 6-Hydrazinotetrazolo(b)pyridazine
Formula: C4H5N7
CAS: 52476-90-1
Molecular weight: 151
m/z	intensity
12	12
13	7
14	21
15	6
16	78
17	176
18	164
24	11
25	33
26	140
27	337
28	999
29	53
30	19
31	51
32	9
33	2
34	1
36	12
37	95
38	141
39	55
40	53
41	69
42	19
43	33
44	7
48	3
49	4
50	35
51	241
52	163
53	71
54	14
55	9
56	4
57	11
62	10
63	23
64	38
65	48
66	16
67	30
68	20
69	6
70	3
71	6
76	31
77	140
78	390
79	305
80	23
81	4
82	2
83	3
85	3
92	1
93	10
94	3
95	60
96	5
97	5
108	1
109	2
110	10
111	2
112	1
121	3
123	1
125	9
126	1
135	5
136	4
137	2
149	2
151	34
152	9
