Mass Spectrum: Bicyclo[4.1.0]heptan-3-ol, 4,7,7-trimethyl-, (1.alpha.,3.alpha.,4.alpha.,6.alpha.)-
Formula: C10H18O
CAS: 52486-23-4
Molecular weight: 154
m/z	intensity
26	22
27	402
29	331
30	13
31	75
38	28
39	451
40	95
41	999
42	109
43	629
44	34
45	44
46	6
50	36
51	52
52	43
53	261
54	119
55	782
56	162
57	280
58	214
59	49
62	9
63	26
65	99
66	71
67	520
68	97
69	345
70	134
71	112
72	13
73	12
75	5
77	160
78	35
79	488
80	116
81	767
82	120
83	175
84	63
85	116
86	20
89	8
91	196
92	175
93	933
94	119
95	210
96	198
97	181
98	39
99	10
103	4
104	6
105	98
106	18
107	342
108	77
109	16
110	29
111	70
112	26
119	9
121	931
122	76
123	12
125	4
135	13
136	339
137	27
139	19
