Mass Spectrum: 6H-Dibenzo[b,d]pyran-1,8-diol, 3-(1,1-dimethylpentyl)-6a,7,8,9,10,10a-hexahydro-6,6-dimethyl-9-methylene-, [6aR-(6a.alpha.,8.beta.,10a.beta.)]-
Formula: C23H34O3
CAS: 52493-15-9
Molecular weight: 358
m/z	intensity
26	5
27	8
28	19
30	4
36	4
38	2
39	10
40	3
41	90
42	9
43	108
44	8
45	6
50	3
51	5
52	2
53	17
54	5
55	94
56	18
57	999
58	10
59	9
60	2
63	3
64	3
65	23
66	5
67	28
68	5
69	73
70	28
71	39
72	3
73	5
74	5
75	4
76	10
77	33
78	10
79	48
80	8
81	33
82	10
83	28
84	10
85	8
87	6
88	2
89	9
90	5
91	120
92	14
93	35
94	12
95	26
96	4
97	19
98	5
99	12
100	5
101	9
102	5
103	13
104	27
105	58
106	14
107	46
108	15
109	26
110	9
111	12
112	12
113	17
114	4
115	21
116	11
117	22
118	7
119	33
120	26
121	28
122	14
123	55
124	14
125	9
126	5
127	14
128	18
129	36
130	8
131	22
132	34
133	37
134	14
135	26
136	10
137	48
138	14
139	6
140	3
141	12
142	7
143	11
144	13
145	21
146	6
147	33
148	8
149	9
151	38
152	27
153	12
154	5
155	11
156	5
157	14
158	10
159	15
160	10
161	23
162	5
163	46
164	50
165	22
166	7
169	10
170	4
171	11
172	4
173	21
174	14
175	33
176	7
177	22
178	17
179	8
180	5
181	9
182	6
183	7
184	4
185	13
186	7
187	37
188	14
189	26
190	8
191	16
192	6
193	11
194	3
195	7
196	3
197	8
198	5
199	16
200	12
201	36
202	23
203	30
204	12
205	15
206	22
207	7
208	6
209	9
210	4
211	10
212	7
213	19
214	12
215	28
216	17
217	35
218	11
219	7
220	3
221	57
222	14
223	8
224	3
225	12
226	7
227	22
228	21
229	14
230	13
231	12
232	5
233	8
234	5
235	7
236	2
237	8
238	6
239	8
240	8
241	51
242	24
243	14
244	6
245	11
246	4
247	4
249	12
250	6
251	6
252	3
253	12
254	5
255	10
256	5
257	10
258	3
259	71
260	16
261	14
262	3
263	2
265	3
266	3
267	12
268	15
269	19
270	16
271	8
272	6
273	23
274	17
275	4
279	7
280	2
281	4
282	5
283	58
284	40
285	18
286	10
287	62
288	47
289	13
290	3
295	3
297	26
298	8
299	21
300	8
301	59
302	192
303	66
304	13
309	4
311	3
312	5
313	5
314	2
315	11
316	7
317	2
322	16
324	5
325	117
326	24
327	17
328	3
329	2
337	2
338	2
339	8
340	18
341	7
342	3
343	9
344	3
356	8
357	4
358	80
359	21
360	5
