Mass Spectrum: Butane, 1-chloro-4-(1-ethoxyethoxy)-
Formula: C8H17ClO2
CAS: 52500-29-5
Molecular weight: 180
m/z	intensity
26	10
27	104
28	32
29	150
30	6
31	62
35	1
36	0
37	3
39	49
40	9
41	71
42	75
43	121
44	76
45	687
46	20
47	89
48	1
49	19
50	2
51	11
52	1
53	23
54	21
55	458
56	22
57	8
58	3
59	6
60	1
61	23
62	14
63	23
64	3
65	8
66	0
67	0
68	0
69	2
70	2
71	28
72	33
73	999
75	49
76	63
77	8
78	1
79	2
80	0
81	0
85	2
86	0
87	1
89	6
90	9
91	813
92	40
93	325
94	11
95	0
99	6
100	1
101	1
102	0
103	17
104	3
105	1
106	3
115	0
117	0
118	4
119	1
120	1
128	0
134	8
135	107
136	8
137	37
138	1
145	1
157	0
160	0
161	0
165	70
166	5
167	23
168	1
179	1
181	0
