Mass Spectrum: 2-Oxazolidinone, 4-hydroxy-3-phenyl-4-(2-phenylethyl)-
Formula: C17H17NO3
CAS: 52512-35-3
Molecular weight: 283
m/z	intensity
77	400
78	90
79	120
91	999
92	310
93	200
103	80
104	210
105	799
106	110
117	60
119	290
120	230
133	440
137	80
146	340
151	40
164	90
283	210
