Mass Spectrum: 1-Octyn-4-ol
Formula: C8H14O
CAS: 52517-92-7
Molecular weight: 126
m/z	intensity
22	0
23	1
25	4
26	16
27	205
28	66
29	254
30	10
31	116
32	0
33	0
36	2
37	24
38	36
39	259
40	108
41	889
42	59
43	268
44	168
45	156
46	4
49	1
50	10
51	20
52	12
53	26
54	6
55	48
56	18
57	119
58	42
59	4
61	0
62	2
63	5
64	1
65	18
66	11
67	21
68	21
69	999
70	60
71	4
74	0
75	1
76	0
77	24
78	7
79	27
80	4
81	6
82	3
83	5
84	2
85	8
86	2
87	416
88	22
89	1
91	13
92	1
93	12
94	0
95	0
97	2
102	0
103	1
104	1
105	1
106	0
107	0
108	4
126	0
