Mass Spectrum: 2-Methyl-5-(3-methylbutyl)pyridine
Formula: C11H17N
CAS: 52535-39-4
Molecular weight: 163
m/z	intensity
39	191
40	10
41	205
42	46
43	190
44	141
50	48
51	96
52	70
53	67
55	35
56	10
57	164
63	37
65	81
66	43
77	342
78	145
79	150
91	61
92	46
93	54
94	63
105	23
106	999
107	704
108	84
119	43
120	200
121	21
148	35
163	402
164	57
