Mass Spectrum: Ethyl 2-benzamido-4,5-dimethyl-3-thiophenecarboxylate
Formula: C16H17NO3S
CAS: 52535-68-9
Molecular weight: 303
m/z	intensity
38	3
39	17
40	5
41	5
43	9
44	18
45	9
46	2
50	34
51	77
52	10
53	12
55	2
57	0
59	55
60	5
61	2
62	2
63	6
65	14
66	32
67	4
68	2
69	4
70	2
71	3
72	0
73	1
74	14
75	24
77	497
78	28
79	8
80	3
81	1
82	3
83	4
84	1
85	4
87	1
89	3
90	4
91	8
92	12
93	6
94	0
95	1
97	21
98	6
99	4
100	1
101	4
103	5
105	999
106	56
107	6
109	1
113	0
115	2
117	1
118	2
119	3
120	1
121	1
124	14
125	9
126	12
127	1
129	4
132	0
135	7
136	13
138	5
140	1
142	1
144	0
145	2
146	0
151	3
152	34
153	19
154	14
155	1
162	0
163	1
168	1
169	1
170	6
175	5
176	0
180	4
186	0
192	1
197	4
198	23
199	5
200	3
206	1
213	1
214	1
215	1
228	3
229	3
235	2
240	0
242	1
243	1
256	35
257	278
258	67
259	15
260	2
303	483
304	81
305	2
