Mass Spectrum: 5-(3,4,4,-Trimethylpentyl)-2-pyridinecarboxylic acid
Formula: C14H21NO2
CAS: 52535-47-4
Molecular weight: 235
m/z	intensity
41	229
42	10
43	180
44	7
51	15
55	42
56	99
57	999
58	34
65	32
69	22
71	10
77	6
78	4
79	5
80	5
83	7
85	15
91	61
92	64
93	32
104	11
105	8
106	13
107	1
108	8
109	5
118	5
119	280
120	16
132	34
133	16
134	8
135	16
136	93
137	909
138	54
146	20
147	13
148	8
149	7
150	99
151	37
160	5
162	9
163	4
164	11
173	1
174	32
175	3
176	5
177	3
178	4
179	24
180	62
190	7
191	72
192	16
193	4
202	21
203	1
220	64
221	4
234	3
235	5
