Mass Spectrum: Methyl(methyl-4-deoxy-2-O-methyl.beta.l-threo-hex-4-enolpyranosid)uronate
Formula: C9H14O6
CAS: 52545-23-0
Molecular weight: 218
m/z	intensity
45	179
55	31
57	11
59	45
61	16
69	19
71	83
73	192
74	35
75	27
85	37
88	999
89	40
98	27
99	7
101	2
111	4
113	1
127	10
141	1
155	11
158	8
169	1
186	2
187	1
218	0
