Mass Spectrum: .alpha.-d-Ribopyranoside, phenyl, triacetate
Formula: C17H20O8
CAS: 52544-89-5
Molecular weight: 352
m/z	intensity
21	0
22	0
23	0
25	0
26	2
27	8
29	7
30	0
31	5
37	0
38	3
39	27
41	20
42	11
43	999
44	23
45	4
47	1
50	3
51	14
52	1
53	2
54	1
55	16
56	1
57	11
58	1
59	1
60	5
61	10
62	1
63	4
64	1
65	25
66	17
67	1
68	14
69	94
70	8
71	12
72	1
73	25
74	2
75	0
76	1
77	28
78	4
79	4
80	1
81	4
82	1
83	1
84	2
85	35
86	9
87	8
88	1
89	2
90	0
91	4
92	0
93	4
94	141
95	15
96	5
97	467
98	33
99	9
100	1
101	108
102	13
103	15
104	1
105	2
106	0
107	8
108	1
109	0
110	0
111	2
112	0
113	9
114	11
115	70
116	4
117	1
118	0
119	2
120	0
121	2
122	0
123	0
125	0
126	0
127	25
128	8
129	5
130	0
131	7
132	3
133	1
134	0
135	1
136	9
137	1
138	0
139	643
140	49
141	6
142	0
143	1
144	2
145	3
146	0
147	2
148	0
149	5
150	0
151	0
153	0
154	0
155	0
156	24
157	183
158	14
159	2
160	0
161	1
162	0
163	0
165	1
166	0
167	0
169	0
170	0
171	0
172	0
173	2
174	8
175	2
176	0
177	1
178	0
179	0
189	0
190	0
191	0
198	0
199	18
200	1
201	0
207	0
216	10
217	3
218	0
221	0
245	0
247	0
258	0
259	210
260	26
261	4
262	0
281	0
293	0
352	1
353	0
