Mass Spectrum: 5-Thiazoleacetic acid, 4-methyl-
Formula: C6H7NO2S
CAS: 5255-33-4
Molecular weight: 157
m/z	intensity
12	0
13	4
14	6
15	9
16	2
17	3
18	1
24	2
25	1
26	22
27	55
28	47
29	2
31	3
32	9
33	5
34	5
35	1
36	14
37	5
38	14
39	43
40	10
41	62
42	24
43	31
44	15
45	277
46	11
47	18
48	0
49	4
50	19
51	34
52	26
53	30
54	11
55	13
56	15
57	11
58	41
59	66
60	17
61	17
62	1
63	2
65	3
66	3
67	3
68	24
69	40
70	26
71	49
72	15
73	17
74	2
75	3
77	2
78	3
79	5
80	3
81	9
82	3
83	10
84	22
85	275
86	26
87	28
88	10
89	2
91	0
92	0
93	2
94	1
95	3
96	2
97	12
98	22
99	7
100	4
101	2
102	5
103	0
104	0
106	0
107	2
108	1
109	0
110	3
111	22
112	999
113	83
114	62
115	10
116	0
117	0
121	0
122	0
123	0
124	1
126	0
127	1
128	1
129	1
130	1
131	1
132	0
134	0
135	0
136	1
137	0
138	0
139	5
140	0
150	0
151	0
154	3
155	0
156	0
157	448
158	175
159	36
160	8
161	0
