Mass Spectrum: Carbamic acid, 2-pyridinyl-, ethyl ester
Formula: C8H10N2O2
CAS: 5255-67-4
Molecular weight: 166
m/z	intensity
14	1
15	7
17	4
18	24
19	3
26	11
27	84
28	49
29	336
30	9
31	55
32	1
37	11
38	37
39	100
40	33
41	32
42	6
43	11
44	105
45	43
46	19
47	1
49	1
50	16
51	91
52	36
53	11
54	4
55	1
60	7
62	1
63	4
64	17
65	41
66	70
67	518
68	27
69	2
75	2
76	4
77	5
78	343
79	86
80	50
81	4
82	1
91	3
92	67
93	31
94	999
95	66
96	3
104	3
105	3
106	1
107	243
108	17
119	3
120	290
121	223
122	28
123	2
137	23
138	4
139	5
149	1
165	2
166	898
167	145
168	12
169	1
