Mass Spectrum: Bicyclo[2.2.1]heptane-2-carboxylic acid, 3,3-dimethyl-, methyl ester
Formula: C11H18O2
CAS: 52557-97-8
Molecular weight: 182
m/z	intensity
26	32
27	303
28	171
29	271
30	19
31	126
33	10
37	5
38	20
39	413
40	89
41	822
42	79
43	473
44	62
45	121
46	15
47	11
50	21
51	78
52	46
53	259
54	73
55	532
56	73
57	96
58	26
59	154
60	28
61	31
62	6
63	24
64	11
65	136
66	237
67	919
68	211
69	331
70	112
71	60
72	29
73	203
74	42
75	30
76	7
77	209
78	68
79	458
80	106
81	458
82	143
83	961
84	83
85	85
86	20
87	133
88	26
89	12
90	5
91	172
92	34
93	305
94	68
95	153
96	67
97	63
98	23
99	48
100	266
101	381
102	61
103	19
104	8
105	64
106	52
107	476
108	872
109	285
110	35
111	72
112	17
113	119
114	92
115	999
116	206
117	63
118	8
119	21
120	16
121	85
122	167
123	420
124	49
125	100
126	32
127	37
128	28
129	31
130	10
131	11
132	8
133	16
134	8
135	77
136	19
137	42
138	29
139	411
140	65
141	50
142	23
143	13
144	6
145	8
146	5
147	6
148	14
149	6
150	113
151	237
152	35
153	45
154	14
166	10
167	131
168	33
180	5
181	26
182	84
183	22
184	6
