Mass Spectrum: N-(Trifluoroacetyl)-L-valine, TMS derivative
Formula: C10H18F3NO3Si
CAS: 52558-81-3
Molecular weight: 285
m/z	intensity
15	2
26	1
27	26
28	37
29	33
30	4
31	4
33	1
38	1
39	32
40	5
41	70
42	21
43	102
44	38
45	158
46	12
47	66
48	4
49	6
50	4
51	5
52	2
53	18
54	20
55	251
56	102
57	24
58	23
59	36
60	13
61	46
62	4
63	9
64	1
65	1
66	3
67	2
68	4
69	60
70	17
71	8
72	24
73	999
74	101
75	310
76	28
77	158
78	25
79	31
80	4
81	6
82	15
83	34
84	36
85	19
86	18
87	5
88	2
89	5
90	4
91	74
92	10
93	4
94	4
95	2
96	6
97	6
98	49
99	8
100	23
101	9
102	9
103	4
104	18
105	44
106	18
107	6
108	1
109	4
110	4
111	2
112	7
113	114
114	48
115	7
116	2
117	13
118	3
119	1
120	133
121	16
122	7
123	1
124	3
125	11
126	13
127	2
128	16
129	5
130	23
131	3
132	4
133	4
134	53
135	4
136	1
138	2
140	1
141	1
142	1
143	36
144	16
145	3
146	8
147	2
148	9
149	17
150	4
151	3
152	11
153	27
154	2
156	5
157	56
158	8
159	3
160	1
166	3
167	3
168	31
169	3
170	40
171	5
172	23
173	3
174	3
177	1
179	1
180	4
183	2
184	1
185	3
186	85
187	10
188	14
189	2
190	1
192	10
193	2
194	1
195	2
198	10
199	9
200	3
212	4
213	1
214	1
218	3
222	1
223	1
225	1
226	227
227	46
228	12
229	1
240	1
241	36
242	11
243	4
254	1
270	166
271	25
272	7
273	1
