Mass Spectrum: L-Proline, 1-(trifluoroacetyl)-4-[(trifluoroacetyl)oxy]-, trimethylsilyl ester, trans-
Formula: C12H15F6NO5Si
CAS: 52558-88-0
Molecular weight: 395
m/z	intensity
68	31
73	999
74	79
75	78
77	64
96	21
117	76
121	17
142	21
143	23
145	173
146	15
164	168
165	136
170	39
211	25
237	16
238	53
266	20
282	111
283	23
351	358
352	64
353	17
380	585
381	104
382	35
