Mass Spectrum: 1-Methyl-3,3-diethyldiaziridine
Formula: C6H14N2
CAS: 52551-69-6
Molecular weight: 114
m/z	intensity
29	850
30	630
31	89
32	40
39	110
41	270
42	300
43	170
44	210
45	280
46	41
54	130
55	170
56	650
57	999
58	69
59	6
68	140
69	59
70	240
71	24
82	99
83	69
84	360
85	290
86	190
87	19
98	40
99	40
100	3
114	370
115	28
116	6
