Mass Spectrum: 2,4,6-Decatrienoic acid, 1a,2,5,5a,6,9,10,10a-octahydro-5,5a-dihydroxy-4-(hydroxymethyl)-1,1,7,9-tetramethyl-11-oxo-1H-2,8a-methanocyclopenta[a]cyclopropa[e]cyclodecen-6-yl ester, [1aR-(1a.alpha.,2.alpha.,5.beta.,5a.beta.,6.beta.,8a.alpha.,9.alpha
Formula: C30H40O6
CAS: 52557-28-5
Molecular weight: 496
m/z	intensity
12	2
13	1
14	4
15	9
16	8
17	22
18	110
19	3
20	0
24	1
25	3
26	25
27	215
28	170
29	212
30	9
31	80
32	12
33	1
35	0
36	5
37	11
38	25
39	300
40	77
41	975
42	92
43	825
44	82
45	47
46	3
47	3
48	0
49	4
50	45
51	137
52	77
53	325
54	72
55	725
56	45
57	87
58	11
59	32
60	12
61	8
62	12
63	57
64	20
65	242
66	140
67	375
68	47
69	312
70	42
71	90
72	12
73	30
74	12
75	17
76	17
77	650
78	245
79	999
80	125
81	300
82	80
83	247
84	32
85	37
86	12
87	11
88	3
89	25
90	17
91	700
92	122
93	450
94	115
95	257
96	115
97	135
98	32
99	32
100	22
101	15
102	17
103	77
104	40
105	325
106	82
107	500
108	100
109	260
110	60
111	135
112	22
113	15
114	5
115	115
116	50
117	95
118	32
119	185
120	82
121	550
122	675
123	425
124	160
125	52
126	15
127	45
128	87
129	97
130	40
131	92
132	35
133	162
134	105
135	300
136	170
137	145
138	57
139	70
140	22
141	70
142	67
143	97
144	40
145	135
146	57
147	257
148	145
149	625
150	137
151	300
152	75
153	52
154	22
155	47
156	32
157	65
158	40
159	120
160	62
161	170
162	130
163	107
164	55
165	100
166	157
167	77
168	40
169	62
170	30
171	75
172	47
173	110
174	57
175	107
176	75
177	132
178	70
179	82
180	35
181	47
182	22
183	65
184	27
185	72
186	60
187	110
188	92
189	127
190	77
191	77
192	32
193	45
194	22
195	70
196	35
197	72
198	40
199	85
200	40
201	77
202	52
203	75
204	45
205	40
206	25
207	37
208	27
209	52
210	27
211	80
212	37
213	102
214	42
215	90
216	47
217	57
218	32
219	40
220	22
221	27
222	17
223	77
224	40
225	82
226	40
227	75
228	35
229	57
230	32
231	32
232	15
233	27
234	15
235	30
236	20
237	52
238	30
239	82
240	37
241	132
242	52
243	75
244	27
245	30
246	10
247	12
248	12
249	32
250	15
251	90
252	35
253	97
254	50
255	92
256	50
257	52
258	17
259	32
260	15
261	32
262	8
263	17
264	15
265	57
266	77
267	162
268	50
269	145
270	50
271	67
272	27
273	17
274	8
275	10
276	17
277	25
278	9
279	80
280	20
281	87
282	77
283	145
284	212
285	182
286	42
287	47
288	17
289	12
290	4
291	5
292	6
293	17
294	105
295	122
296	42
297	80
298	22
299	135
300	82
301	57
302	45
303	13
304	4
305	3
306	1
307	2
308	2
309	4
310	17
311	50
312	312
313	312
314	77
315	32
316	7
317	22
318	5
319	3
320	2
321	2
322	1
323	2
324	2
325	2
326	3
327	7
328	12
329	45
330	210
331	110
332	22
333	5
334	1
335	2
336	1
337	2
338	2
339	2
340	2
341	3
342	2
343	4
344	2
345	2
346	3
347	18
348	6
349	3
350	1
351	2
352	2
353	3
354	3
355	3
356	2
357	3
358	2
359	2
360	1
361	2
362	1
363	2
364	1
365	1
366	1
367	2
368	5
369	5
370	3
371	3
372	3
373	2
374	2
375	2
376	1
377	1
378	1
379	1
380	1
381	2
382	1
383	2
384	1
385	2
386	2
387	2
388	2
389	2
390	2
391	2
392	1
393	2
394	1
395	2
396	1
397	1
398	1
399	2
400	5
401	3
402	3
403	2
404	2
405	1
406	1
407	2
408	1
409	2
410	1
411	2
412	2
413	2
414	1
415	1
416	1
417	4
418	1
419	2
420	2
421	2
422	2
423	2
424	1
425	2
426	2
427	3
428	2
429	2
430	2
431	2
432	4
433	3
434	2
435	5
436	2
437	2
438	1
439	1
440	1
441	1
442	1
443	1
444	1
445	1
446	1
447	4
448	5
449	5
450	7
451	3
452	3
453	2
454	2
455	1
456	1
457	1
458	1
459	0
460	7
461	4
462	4
463	3
464	2
465	20
466	7
467	9
468	4
469	1
470	1
471	0
472	3
473	1
474	1
475	1
476	2
477	1
478	21
479	9
480	9
481	2
482	1
483	0
484	0
485	0
486	0
488	1
489	0
490	0
492	1
493	0
494	2
495	1
496	17
497	5
498	4
499	1
