Mass Spectrum: L-Threonine, N-(trifluoroacetyl)-O-(trimethylsilyl)-, trimethylsilyl ester
Formula: C12H24F3NO4Si2
CAS: 52558-13-1
Molecular weight: 359
m/z	intensity
73	348
74	28
75	19
83	21
117	999
118	108
119	40
147	131
148	23
225	110
226	93
227	29
254	40
344	85
345	20
