Mass Spectrum: Oxirane, [(4-nitrophenoxy)methyl]-
Formula: C9H9NO4
CAS: 5255-75-4
Molecular weight: 195
m/z	intensity
14	4
15	16
18	1
25	1
26	26
27	317
28	57
29	988
30	85
31	718
32	9
33	1
37	10
38	65
39	140
40	8
41	46
42	10
43	27
44	1
45	2
46	1
49	2
50	106
51	44
52	21
53	34
54	11
55	29
56	14
57	999
58	42
59	3
60	1
61	10
62	41
63	146
64	116
65	190
66	18
67	3
68	6
69	2
71	1
73	3
74	30
75	96
76	90
77	28
78	25
79	16
80	10
81	51
82	6
83	2
89	9
90	9
91	40
92	59
93	79
94	15
95	2
96	2
103	2
105	4
106	33
107	8
108	9
109	94
110	7
117	1
118	52
119	11
120	6
121	1
122	66
123	41
124	4
131	1
133	1
134	1
135	9
136	8
137	1
139	81
140	9
141	1
147	2
148	19
149	4
150	2
152	197
153	16
154	2
164	9
165	165
166	22
167	2
179	16
180	2
194	1
195	868
196	106
197	12
198	1
