Mass Spectrum: L-Methionine, N-(trifluoroacetyl)-, TMS derivative
Formula: C10H18F3NO3SSi
CAS: 52558-92-6
Molecular weight: 317
m/z	intensity
15	3
26	1
27	24
28	33
29	15
30	2
31	5
33	1
35	27
37	1
38	1
39	15
40	4
41	48
42	11
43	50
44	33
45	194
46	30
47	111
48	16
49	21
50	3
51	4
52	2
53	5
54	25
55	37
56	34
57	37
58	28
59	58
60	22
61	580
62	61
63	35
64	4
65	2
66	3
67	2
68	7
69	68
70	20
71	10
72	30
73	999
74	122
75	385
76	31
77	140
78	23
79	16
80	2
81	5
82	22
83	14
84	21
85	20
86	25
87	25
88	17
89	11
90	9
91	332
92	32
93	15
94	3
95	2
96	14
97	7
98	5
99	10
100	26
101	9
102	18
103	16
104	25
105	32
106	6
107	29
108	3
109	2
110	9
111	1
112	3
113	3
114	16
115	7
116	6
117	6
118	4
119	10
120	37
121	9
122	7
123	4
124	6
125	21
126	4
127	2
128	13
129	29
130	39
131	7
132	16
133	20
134	5
135	4
136	2
137	1
138	28
139	5
140	3
141	1
142	2
143	10
144	5
145	7
146	6
147	3
148	1
149	1
150	4
151	15
152	94
153	95
154	6
155	1
156	5
157	3
158	5
159	1
160	15
161	9
162	2
163	1
164	1
166	72
167	4
168	5
169	1
170	41
171	6
172	9
173	2
174	1
175	2
176	6
177	4
178	2
179	20
180	6
181	1
182	2
183	4
184	18
185	4
186	2
187	1
188	10
189	10
190	2
191	1
194	1
196	6
197	3
198	13
199	19
200	41
201	4
202	2
203	1
204	6
205	3
206	1
208	1
209	1
210	1
212	52
213	6
214	3
220	3
221	1
222	1
224	1
225	13
226	36
227	100
228	17
229	5
230	1
232	2
238	7
239	1
240	4
241	2
242	2
243	289
244	38
245	15
246	1
254	77
255	10
256	32
257	4
258	4
268	1
269	4
270	3
274	4
275	1
276	1
299	1
302	34
303	5
304	4
317	51
318	9
319	5
320	1
