Mass Spectrum: L-Threonine, N-(trifluoroacetyl)-, trimethylsilyl ester, trifluoroacetate (ester)
Formula: C11H15F6NO5Si
CAS: 52558-90-4
Molecular weight: 383
m/z	intensity
15	3
26	2
27	8
28	37
29	24
30	2
31	5
33	1
38	1
39	14
40	4
41	38
42	8
43	70
44	31
45	158
46	12
47	75
48	4
49	14
50	6
51	6
52	2
53	5
54	26
55	30
56	39
57	83
58	30
59	42
60	12
61	29
62	5
63	18
64	2
65	2
66	8
67	7
68	5
69	186
70	8
71	6
72	26
73	999
74	105
75	249
76	27
77	293
78	36
79	26
80	1
81	6
82	28
83	54
84	136
85	15
86	18
87	22
88	2
89	6
90	10
91	36
92	3
93	3
94	4
95	2
96	13
97	14
98	5
99	5
100	15
101	3
102	11
103	4
104	39
105	27
106	7
107	2
108	1
109	1
110	26
111	2
112	6
113	13
114	93
115	7
116	2
117	36
118	6
119	2
120	22
121	55
122	9
123	4
124	10
125	5
126	5
127	7
128	3
129	2
130	41
131	5
132	32
133	38
134	12
135	2
136	3
137	1
138	32
139	2
140	2
141	16
142	4
143	21
144	3
145	1
146	1
147	1
148	1
150	5
151	4
152	142
153	192
154	13
155	1
156	32
157	5
158	3
159	1
160	48
161	7
162	3
164	1
165	1
168	3
169	1
170	25
171	8
172	3
173	1
174	1
176	1
177	1
178	3
179	5
180	34
181	2
182	1
183	3
184	2
185	3
186	1
187	1
188	1
196	2
197	2
198	29
199	3
200	1
204	3
206	1
210	9
211	1
212	1
225	115
226	77
227	21
228	6
229	1
230	1
242	8
243	3
244	1
246	1
251	1
252	1
254	155
255	24
256	8
257	1
268	1
270	6
271	1
274	1
324	1
368	21
369	4
370	1
