Mass Spectrum: 1,2,4-Triazin-5(4H)-one, 3,4-diamino-6-methyl-
Formula: C4H7N5O
CAS: 52553-11-4
Molecular weight: 141
m/z	intensity
34	2
35	10
36	55
37	9
38	51
39	49
40	129
41	141
42	742
43	999
44	152
45	25
46	6
47	7
50	3
51	11
52	16
53	84
54	55
55	53
56	58
57	50
58	151
59	43
60	23
63	1
64	1
67	12
68	12
69	59
70	16
71	2
72	11
73	6
74	60
75	6
76	4
77	4
82	24
83	16
84	19
85	15
97	3
99	14
100	3
104	1
112	3
113	267
114	12
115	2
124	1
125	5
141	396
142	23
143	2
