Mass Spectrum: L-Tyrosine, N-(trifluoroacetyl)-, trimethylsilyl ester, trifluoroacetate (ester)
Formula: C16H17F6NO5Si
CAS: 52558-85-7
Molecular weight: 445
m/z	intensity
15	2
26	1
27	3
28	19
29	5
30	3
31	3
38	2
39	11
40	2
41	3
42	3
43	30
44	24
45	119
46	9
47	52
48	3
49	7
50	11
51	24
52	21
53	8
54	4
55	13
56	3
57	8
58	18
59	25
60	10
61	39
62	6
63	26
64	9
65	18
66	2
67	1
69	263
70	20
71	5
72	32
73	999
74	98
75	370
76	37
77	235
78	83
79	36
80	4
81	6
82	2
83	28
84	3
85	7
86	5
87	3
88	3
89	52
90	50
91	70
92	12
93	4
94	2
95	5
96	11
97	23
98	1
99	3
100	12
101	42
102	25
103	13
104	21
105	22
106	18
107	100
108	11
109	80
110	7
111	1
113	1
114	3
115	6
116	28
117	57
118	24
119	26
120	76
121	29
122	7
123	2
124	4
125	2
126	5
127	18
128	6
129	14
130	29
131	5
132	9
133	12
134	22
135	8
136	3
137	2
138	1
139	4
140	3
141	2
142	8
143	17
144	13
145	23
146	14
147	7
148	6
149	5
150	8
151	10
152	12
153	8
154	1
155	4
156	5
157	2
159	20
160	6
161	6
162	5
163	4
164	14
165	4
166	7
167	8
168	8
169	4
170	17
171	5
172	4
173	1
174	6
175	98
176	11
177	3
178	1
179	10
180	3
181	3
182	1
183	3
184	2
185	4
186	3
187	3
188	3
189	1
190	3
191	4
192	2
193	1
194	1
195	4
196	3
197	1
198	7
199	2
200	2
201	1
203	493
204	53
205	5
206	1
207	1
208	1
209	1
210	1
211	1
212	5
213	2
214	9
215	28
216	171
217	23
218	3
219	7
220	5
221	1
222	1
223	1
225	1
227	25
228	4
229	3
230	14
231	13
232	3
233	1
235	3
236	1
239	5
240	6
241	2
242	7
243	35
244	5
245	12
246	2
247	12
248	2
249	1
252	18
253	2
257	5
258	30
259	6
260	8
261	3
262	1
264	1
265	8
266	1
271	1
273	37
274	6
275	2
280	2
283	1
286	1
288	10
289	3
290	3
291	1
304	12
305	2
306	4
307	1
308	25
309	6
310	7
311	2
314	1
317	470
318	94
319	27
320	4
321	1
326	1
327	18
328	9
329	1
331	5
332	308
333	66
334	21
335	3
348	2
352	1
353	1
355	1
359	2
360	1
378	4
379	1
380	1
382	1
401	7
402	8
403	2
430	132
431	29
432	9
433	1
444	1
445	2
446	1
