Mass Spectrum: L-Alanine, N-(trifluoroacetyl)-, trimethylsilyl ester
Formula: C8H14F3NO3Si
CAS: 52558-80-2
Molecular weight: 257
m/z	intensity
42	15
55	15
70	128
72	37
73	999
74	80
75	102
77	67
78	50
93	30
102	30
117	40
120	60
121	530
122	22
129	55
140	40
143	20
144	35
164	86
170	28
213	310
214	50
215	15
242	665
243	83
244	31
