Mass Spectrum: 2-Oxazolidinone, 5-methyl-4-methylene-3-phenyl-
Formula: C11H11NO2
CAS: 52569-43-4
Molecular weight: 189
m/z	intensity
77	919
89	30
91	80
103	300
104	210
117	60
118	80
119	50
130	999
144	310
145	180
189	470
