Mass Spectrum: Isoxazole, 3-(1,1-dimethylethyl)-5-phenyl-
Formula: C13H15NO
CAS: 52560-40-4
Molecular weight: 201
m/z	intensity
27	110
29	300
39	180
41	410
42	70
50	70
51	230
57	999
58	60
77	410
78	80
104	60
105	260
116	60
144	390
145	100
186	170
201	360
202	80
