Mass Spectrum: Ethyl 2-benzamido-4,5,6,7-tetrahydrobenzo[b]thiophene-3-carboxylate
Formula: C18H19NO3S
CAS: 52580-57-1
Molecular weight: 329
m/z	intensity
33	3
34	1
35	2
36	3
37	8
39	44
41	45
42	16
44	13
45	42
47	9
49	6
50	26
51	171
52	19
53	11
55	9
56	9
58	24
59	8
60	4
61	2
63	10
64	9
65	33
67	23
69	17
71	26
73	3
74	6
75	11
77	693
79	19
80	5
81	4
82	4
83	5
84	10
86	18
87	2
89	10
91	35
93	7
94	4
95	10
97	13
98	2
99	2
100	1
101	2
105	999
106	67
107	8
109	5
110	4
111	9
112	3
113	2
114	2
116	14
117	9
118	8
119	5
121	9
122	9
123	13
124	5
125	4
126	1
127	1
128	1
129	1
132	2
134	6
135	4
136	5
137	1
138	1
139	1
140	2
141	1
144	5
145	2
146	2
148	3
149	6
150	9
151	13
152	5
153	2
154	1
160	1
161	3
162	2
163	1
164	1
165	1
166	1
167	1
168	1
171	2
176	3
178	37
179	14
180	12
181	2
182	1
195	1
196	2
197	1
206	1
210	1
221	1
224	89
225	9
226	5
227	2
228	1
229	1
239	1
240	1
252	1
255	24
256	6
257	2
266	1
268	1
279	1
283	141
284	26
285	9
286	2
301	3
315	1
324	1
325	3
326	4
329	247
330	43
331	12
332	2
