Mass Spectrum: 3,4-Undecadiene-2,10-dione, 6,6-dimethyl-
Formula: C13H20O2
CAS: 52588-78-0
Molecular weight: 208
m/z	intensity
43	999
55	110
58	70
69	330
81	350
85	190
93	170
109	539
123	799
135	190
151	230
165	519
175	60
193	250
208	100
