Mass Spectrum: 5.alpha.,8.alpha.-Cholestane-3.beta.,6.alpha.-diol, 8,9-epoxy-14-methyl-, diacetate
Formula: C32H52O5
CAS: 5259-15-4
Molecular weight: 516
m/z	intensity
40	19
41	326
42	79
43	999
44	128
45	128
51	9
53	29
54	19
55	326
56	79
57	267
58	29
60	89
61	19
67	118
68	29
69	237
70	49
71	118
73	29
77	39
78	19
79	89
80	19
81	148
82	69
83	79
84	19
85	49
91	79
92	9
93	69
94	19
95	267
96	49
97	79
98	29
99	19
105	148
106	39
107	128
108	29
109	118
110	49
111	49
117	19
118	39
119	59
120	79
121	118
122	19
123	89
124	49
125	19
131	59
132	19
133	69
134	19
135	79
136	29
137	49
138	29
139	9
140	59
141	19
142	19
143	39
144	19
145	39
146	9
147	49
148	19
149	39
151	29
152	19
153	9
154	9
155	89
156	29
157	108
158	49
159	89
160	39
161	59
162	29
163	49
164	19
165	59
166	29
167	29
168	19
169	69
170	19
171	59
172	29
173	69
174	29
175	49
176	19
177	39
178	19
179	39
180	19
181	29
182	19
183	89
184	29
185	89
186	19
187	39
188	9
189	39
191	29
192	9
193	29
194	29
195	79
196	19
197	79
198	29
199	99
200	29
201	19
205	19
206	9
207	227
208	59
209	108
210	49
211	69
213	9
221	9
223	59
224	9
225	19
227	9
241	148
242	19
249	19
251	19
253	19
256	19
259	9
261	9
265	39
266	9
267	19
268	9
269	9
273	9
274	9
277	19
281	39
282	9
283	9
287	49
288	19
291	29
302	207
303	49
315	29
316	9
320	39
354	49
355	128
356	59
357	9
363	49
364	158
365	39
366	19
370	9
371	29
378	287
379	89
380	59
381	356
382	99
383	9
388	39
395	9
396	594
397	217
398	39
399	9
440	49
441	9
442	9
443	9
456	89
457	19
