Mass Spectrum: 5.alpha.-Cholest-8-en-3-one, 6.alpha.-hydroxy-14-methyl-, acetate
Formula: C30H48O3
CAS: 5259-17-6
Molecular weight: 456
m/z	intensity
40	30
41	330
42	100
43	999
44	200
45	185
51	10
53	50
55	280
56	80
57	210
58	50
59	20
60	100
65	15
67	90
68	50
69	200
70	25
71	90
77	40
78	15
79	50
81	80
82	20
83	120
84	25
85	20
91	70
92	15
93	60
94	20
95	130
96	20
97	90
98	10
105	60
107	50
109	55
110	35
111	45
115	30
116	15
117	40
118	20
119	60
120	15
121	35
122	15
123	30
124	10
125	15
127	10
128	30
129	40
130	20
131	60
132	20
133	60
134	15
135	20
136	5
137	10
139	10
141	25
142	25
143	50
144	25
145	60
146	25
147	30
148	10
149	25
150	5
151	10
152	15
153	25
154	10
155	40
156	25
157	80
158	30
159	305
160	50
161	25
163	10
165	20
166	10
167	20
168	10
169	45
170	20
171	60
172	25
173	105
174	20
175	20
176	5
177	5
178	5
179	10
180	5
181	15
182	10
183	40
184	20
185	60
186	25
187	35
188	20
189	25
190	10
191	10
193	15
194	5
195	15
196	10
197	35
198	15
199	75
200	25
201	35
202	10
203	5
207	45
208	15
209	20
210	15
211	45
212	20
213	60
214	25
215	100
216	20
221	15
223	15
224	5
225	35
226	20
227	85
228	20
229	30
239	25
240	15
241	90
242	25
243	25
251	15
252	5
253	20
254	10
255	30
256	10
257	5
265	5
266	5
267	50
268	20
269	50
270	10
281	15
282	5
283	30
284	40
285	20
287	20
302	10
311	10
323	65
324	15
325	15
339	30
340	5
363	15
364	5
365	10
366	15
367	15
368	15
369	10
379	10
380	15
381	295
382	80
383	20
394	30
396	505
397	155
398	25
409	10
