Mass Spectrum: 6-Hydroxy-1-oxogermacr-4,10(15),11(13)-trien-12,8-olide
Formula: C15H18O4
CAS: 52591-19-2
Molecular weight: 262
m/z	intensity
40	229
41	572
42	36
43	269
44	42
45	12
47	22
48	36
49	27
50	9
51	42
52	22
53	123
54	34
55	239
56	36
57	44
59	5
63	54
64	6
65	80
66	25
67	152
68	147
69	275
70	27
71	35
77	156
78	30
79	172
80	999
81	197
82	220
83	283
84	196
85	91
87	11
89	6
90	13
91	363
92	85
93	148
94	45
95	172
96	85
97	659
98	50
99	5
103	24
104	18
105	131
106	28
107	79
108	56
109	66
110	21
111	26
115	23
116	12
117	50
118	76
119	271
120	84
121	73
122	41
123	50
124	15
125	20
126	8
127	6
128	8
129	21
130	12
131	44
132	54
133	185
134	45
135	72
136	87
137	94
138	48
139	5
141	11
142	7
143	20
144	12
145	53
146	99
147	300
148	86
149	47
150	19
151	23
152	7
154	5
155	24
156	10
157	16
158	8
159	34
160	34
161	98
162	40
163	32
164	195
165	160
166	52
167	9
169	20
170	12
171	23
172	17
173	40
174	13
175	10
177	16
178	210
179	250
180	36
181	9
183	21
184	13
185	8
187	22
188	19
189	12
190	6
191	12
192	19
194	10
197	14
198	26
199	22
200	10
201	17
202	7
205	9
211	9
215	61
216	84
217	16
218	25
219	9
226	21
229	17
233	24
234	16
244	48
245	9
262	39
263	9
