Mass Spectrum: Osalmid
Formula: C13H11NO3
CAS: 526-18-1
Molecular weight: 229
m/z	intensity
26	2
27	10
28	3
29	3
30	1
37	2
38	11
39	86
40	5
41	2
42	2
43	2
44	1
46	1
49	1
50	10
51	19
52	35
53	70
54	12
55	12
56	1
61	3
62	12
63	43
64	33
65	207
66	17
67	3
68	4
69	1
73	1
74	4
75	5
76	4
77	5
78	4
79	6
80	60
81	52
82	7
83	1
87	1
88	1
89	2
90	3
91	7
92	43
93	109
94	9
95	1
101	1
102	2
103	1
104	1
105	1
106	1
107	4
108	45
109	999
110	77
111	5
115	2
116	1
117	1
118	1
119	3
120	18
121	378
122	30
123	3
126	1
127	3
128	2
129	1
135	1
143	1
144	1
145	1
153	1
154	3
155	1
170	1
171	1
172	1
182	2
183	2
199	1
200	1
210	1
211	1
227	1
228	4
229	190
230	28
231	3
