Mass Spectrum: N-Carbobenzyloxy-S-benzylcysteinyl-tyrosyl-isoleucine
Formula: C33H39N3O7S
CAS: 52616-04-3
Molecular weight: 621
m/z	intensity
41	31
42	11
43	28
44	50
45	90
46	1
47	10
49	21
50	59
51	119
52	30
53	27
54	5
55	20
56	8
57	21
58	3
60	12
61	16
62	34
63	63
64	17
65	134
66	10
67	3
68	9
69	36
70	11
71	12
73	10
74	20
75	10
76	9
77	185
78	45
79	272
80	20
81	5
82	6
83	10
84	18
85	13
86	45
87	6
89	60
90	35
91	999
92	68
93	7
94	1
95	3
96	4
97	11
98	3
99	1
102	1
105	13
106	4
107	210
108	248
109	21
111	3
112	1
113	6
119	9
120	13
121	22
122	6
123	10
124	317
125	29
126	16
131	6
132	8
134	2
135	4
136	22
137	4
141	4
144	3
146	1
147	51
148	5
149	3
162	34
163	19
164	4
166	6
176	5
177	6
180	3
181	4
187	1
193	1
194	8
204	1
209	4
219	9
221	8
222	2
226	4
230	3
231	3
232	3
233	13
234	1
256	4
275	3
277	8
278	8
279	1
321	1
327	2
345	13
346	2
347	1
379	1
399	2
530	1
