Mass Spectrum: Cyclohexanecarboxamide, N,N-dimethyl-2-oxo-
Formula: C9H15NO2
CAS: 52631-32-0
Molecular weight: 169
m/z	intensity
26	30
27	211
28	122
29	83
30	37
31	18
38	23
39	193
40	72
41	371
42	280
43	159
44	999
45	681
46	223
47	11
50	12
51	21
52	13
53	78
54	33
55	476
56	92
57	45
58	83
59	17
60	6
63	7
65	18
66	15
67	67
68	116
69	369
70	93
71	34
72	972
73	111
74	44
77	14
79	63
80	13
81	93
82	25
83	53
84	29
85	16
86	21
87	128
88	9
91	6
94	8
95	29
96	67
97	174
98	243
99	58
100	875
101	72
102	8
107	10
108	11
109	7
110	7
111	12
112	64
113	372
114	148
115	14
123	10
124	32
125	158
126	49
127	17
128	8
140	62
141	276
142	34
152	14
153	1
154	21
155	2
168	19
169	999
170	140
171	13
