Mass Spectrum: (2E,4E)-1-(Piperidin-1-yl)tetradeca-2,4-dien-1-one
Formula: C19H33NO
CAS: 52657-12-2
Molecular weight: 291
m/z	intensity
27	50
28	37
29	116
38	9
39	63
40	34
41	351
42	95
43	303
44	38
51	18
52	18
53	194
54	49
55	341
56	93
57	128
65	58
66	243
67	325
68	80
69	345
70	28
77	114
78	20
79	219
80	70
81	607
82	112
83	100
84	999
85	72
86	30
91	40
92	20
93	57
94	102
95	176
96	64
105	27
107	111
108	36
109	58
110	30
112	164
121	26
122	31
123	30
124	31
125	27
126	19
127	81
131	26
134	53
136	79
137	70
138	502
139	163
150	162
151	64
152	95
153	24
162	16
164	762
165	144
166	25
178	328
179	139
180	30
186	10
190	14
192	903
193	129
194	19
206	146
207	52
220	69
234	70
235	22
248	71
249	20
250	15
262	79
263	18
274	97
275	22
276	29
277	6
290	71
291	348
292	61
293	7
