Mass Spectrum: 3,4,4a,9a-Tetrahydrofluorene
Formula: C13H14
CAS: 52652-40-1
Molecular weight: 170
m/z	intensity
63	30
64	10
65	40
76	20
77	30
78	10
91	20
115	280
116	999
117	90
127	30
128	70
129	80
141	30
142	20
152	30
153	20
166	10
170	200
171	30
