Mass Spectrum: 1,4,7-Tris-(toluene-4-sulfonyl)-[1,4,7]triazonane
Formula: C27H33N3O6S3
CAS: 52667-89-7
Molecular weight: 591
m/z	intensity
50	16
54	12
55	45
56	175
57	39
58	240
59	10
63	45
64	50
65	187
66	12
81	17
82	14
83	113
84	25
85	47
89	45
90	42
91	999
92	207
96	29
97	101
98	35
99	23
100	4
123	10
124	47
125	34
126	285
127	35
128	1
138	2
139	122
140	17
141	8
155	288
156	109
157	24
158	4
184	67
185	7
209	58
210	16
211	4
226	3
227	96
228	16
229	4
237	2
238	19
239	111
240	19
241	10
279	2
280	90
281	78
282	53
283	10
284	2
381	90
382	19
383	9
434	2
435	10
436	478
437	117
438	62
439	12
440	1
481	4
535	1
