Mass Spectrum: Cyclotridecanamine
Formula: C13H27N
CAS: 5266-81-9
Molecular weight: 197
m/z	intensity
30	190
39	40
41	150
42	50
43	210
44	40
55	100
56	999
57	90
67	50
68	30
69	40
70	90
81	40
82	90
84	40
96	80
98	70
110	20
112	150
124	10
126	40
140	40
154	80
168	30
180	30
196	30
197	40
