Mass Spectrum: 3(2H)-Thiophenone, 2-ethyldihydro-
Formula: C6H10OS
CAS: 52662-38-1
Molecular weight: 130
m/z	intensity
26	25
27	175
33	8
34	28
35	11
37	8
38	21
39	129
41	172
42	716
45	221
46	206
47	56
50	8
54	8
55	38
56	8
58	68
59	169
60	900
61	85
62	31
69	44
70	10
73	82
74	133
75	29
87	74
88	271
89	69
90	11
102	92
115	51
130	999
131	55
132	39
