Mass Spectrum: Benzenepropanol, .beta.-amino-, (R)-
Formula: C9H13NO
CAS: 5267-64-1
Molecular weight: 151
m/z	intensity
29	47
30	98
31	48
42	73
43	43
44	42
50	9
51	53
52	2
58	1
60	999
61	30
63	20
65	75
77	73
78	1
89	7
91	184
92	36
93	15
103	80
104	1
114	2
118	10
119	3
120	284
121	17
