Mass Spectrum: 1,3-Dioxolane, 2-(1-bromoethyl)-
Formula: C5H9BrO2
CAS: 5267-73-2
Molecular weight: 180
m/z	intensity
27	107
28	37
29	69
30	3
31	11
32	2
33	1
38	1
39	44
40	5
41	75
42	7
43	51
44	11
45	357
46	6
47	6
55	11
56	7
57	52
58	3
59	0
71	34
72	1
73	999
74	34
75	32
80	1
82	1
87	0
89	3
93	1
95	1
99	6
100	6
101	1
102	0
107	14
108	1
109	13
119	1
121	1
123	1
131	1
135	2
137	1
179	7
181	6
