Mass Spectrum: Tetrasulfide, dipropyl
Formula: C6H14S4
CAS: 52687-98-6
Molecular weight: 214
m/z	intensity
26	6
27	120
29	21
34	3
35	2
37	3
38	7
39	138
40	17
41	465
42	35
43	999
44	36
45	140
46	58
47	102
48	4
49	5
57	6
58	24
59	26
60	5
61	11
64	100
65	24
66	49
71	16
73	440
75	118
76	19
77	8
78	14
79	42
89	10
90	1
96	14
97	64
98	8
99	8
103	7
105	65
106	13
107	124
108	536
109	38
110	54
111	3
118	4
128	6
129	18
130	26
132	5
138	9
139	19
140	10
141	2
149	3
150	15
171	1
172	29
173	2
174	5
182	7
183	1
186	1
212	7
214	806
215	81
216	143
217	14
218	11
219	1
