Mass Spectrum: 2-Propen-1-ol, 3-(trimethylsilyl)-
Formula: C6H14OSi
CAS: 52685-39-9
Molecular weight: 130
m/z	intensity
26	12
27	48
28	33
29	60
30	7
31	76
37	6
38	11
39	93
40	14
41	61
42	52
43	212
44	44
45	178
46	13
47	71
51	13
53	42
54	10
55	66
56	16
57	43
58	60
59	331
60	34
61	394
62	28
63	19
65	8
66	14
67	21
69	22
70	11
71	39
72	19
73	701
74	65
75	999
76	79
77	59
78	7
79	8
83	36
84	10
85	141
86	17
87	172
88	19
89	13
90	8
91	26
95	8
97	65
98	17
99	35
100	6
113	16
115	742
116	87
117	40
