Mass Spectrum: 2-Propanesulfinic acid, methyl ester
Formula: C4H10O2S
CAS: 52693-47-7
Molecular weight: 122
m/z	intensity
41	610
42	570
43	999
44	27
50	73
58	26
65	210
79	73
80	560
122	75
123	6
124	6
