Mass Spectrum: Glycine, TMS derivative
Formula: C5H13NO2Si
CAS: 5269-37-4
Molecular weight: 147
m/z	intensity
15	5
26	1
27	7
28	50
29	28
30	523
31	13
39	1
41	3
42	17
43	99
44	37
45	300
46	23
47	91
48	6
49	2
53	10
54	4
55	17
56	7
57	20
58	53
59	65
60	32
61	71
62	5
63	3
66	1
67	1
69	1
70	4
71	5
72	25
73	999
74	147
75	833
76	67
77	30
78	1
85	1
86	11
87	8
88	106
89	12
90	4
91	2
100	1
101	2
102	6
103	144
104	37
105	10
106	1
114	153
115	17
116	7
117	52
118	6
119	3
130	5
132	237
133	25
134	10
147	48
148	6
149	2
