Mass Spectrum: Azomycin
Formula: C3H3N3O2
CAS: 527-73-1
Molecular weight: 113
m/z	intensity
28	87
39	47
40	319
56	126
66	35
67	117
83	367
97	98
113	999
114	34
