Mass Spectrum: Benzenamine, 4-(2H-tetrazol-2-yl)-
Formula: C7H7N5
CAS: 52708-35-7
Molecular weight: 161
m/z	intensity
29	32
32	14
37	22
38	40
39	78
40	69
41	38
42	14
50	27
51	88
52	409
53	273
54	62
55	15
56	27
61	11
62	19
63	28
64	19
65	64
66	12
77	16
78	67
79	529
80	84
92	12
105	353
106	999
107	78
108	16
133	124
134	10
161	34
