Mass Spectrum: 2H-Tetrazole, 2-(4-nitrophenyl)-
Formula: C7H5N5O2
CAS: 52708-38-0
Molecular weight: 191
m/z	intensity
30	999
32	98
35	36
37	151
38	185
39	460
40	26
41	151
42	37
43	98
44	174
50	249
51	128
52	151
53	24
55	83
56	23
57	65
60	36
61	79
62	256
63	838
64	290
65	30
69	68
70	15
71	30
73	68
74	83
75	60
76	60
77	19
78	30
79	26
80	102
81	30
82	15
83	23
87	19
88	41
89	181
90	487
91	41
105	11
106	23
136	725
137	53
149	19
163	350
164	30
191	0
