Mass Spectrum: Methyl(methyl 2,3,4-tri-O-methyl-.alpha.-D-glucopyranoside)uronate
Formula: C11H20O7
CAS: 52729-97-2
Molecular weight: 264
m/z	intensity
27	17
28	15
29	35
31	17
39	12
40	4
41	28
42	17
43	24
44	14
45	139
46	3
47	22
53	9
54	3
55	22
56	5
57	18
58	10
59	40
68	3
69	15
70	4
71	25
72	5
73	144
74	35
75	249
76	10
81	6
83	4
84	4
85	100
86	10
87	19
88	599
89	71
98	13
99	12
101	999
102	60
103	9
111	12
113	13
114	4
115	5
116	5
117	12
119	3
129	12
131	16
133	15
141	26
145	19
157	4
159	7
163	6
169	10
173	13
175	8
201	44
205	11
233	1
