Mass Spectrum: Acetic acid, 4-(3-diazo-2-oxopropyl),- phenyl ester
Formula: C11H10N2O3
CAS: 52727-20-5
Molecular weight: 218
m/z	intensity
26	45
27	77
28	22
29	17
30	8
37	6
38	21
39	98
40	10
41	57
42	25
43	575
44	19
45	14
47	4
49	5
50	43
51	94
52	69
53	35
54	8
55	47
56	11
57	23
58	40
59	8
60	41
61	10
62	21
63	54
64	18
65	78
66	14
67	7
68	6
69	84
70	8
71	10
73	6
74	16
75	15
76	14
77	128
78	87
79	25
80	5
81	12
82	4
83	12
84	4
85	8
86	3
87	8
88	3
89	29
90	19
91	149
92	38
93	12
94	47
95	8
96	4
97	7
98	5
99	4
101	6
102	9
103	15
104	7
105	18
106	20
107	999
108	104
109	10
110	3
111	4
112	4
113	3
115	4
117	6
118	11
119	120
120	365
121	50
122	8
123	4
131	24
132	6
133	3
134	5
135	4
146	4
147	112
148	615
149	143
150	27
151	4
159	4
160	8
170	4
176	87
177	12
178	3
180	4
185	3
190	22
191	4
192	4
218	8
219	4
