Mass Spectrum: 2-Azabutane, N-amidino-4,4-dimethoxy-
Formula: C6H15N3O2
CAS: 52737-41-4
Molecular weight: 161
m/z	intensity
42	42
43	84
44	82
45	115
47	52
48	0
49	1
51	0
54	0
55	2
56	5
57	7
58	11
59	1
60	15
61	1
62	7
63	16
64	0
65	1
66	0
67	2
69	13
70	15
71	37
72	170
73	118
75	999
77	3
78	1
81	1
83	4
84	3
85	2
86	19
87	50
88	29
89	11
90	5
96	2
98	76
99	5
100	3
101	0
102	0
104	4
113	14
114	4
115	1
116	1
128	4
129	10
130	16
131	5
146	120
147	6
148	0
149	1
161	3
162	0
