Mass Spectrum: Imidazole, 2-acetamido-
Formula: C5H7N3O
CAS: 52737-49-2
Molecular weight: 125
m/z	intensity
41	32
42	64
43	450
44	15
45	2
51	3
52	5
53	28
54	42
55	155
56	381
57	12
66	2
67	2
68	4
69	13
81	11
82	107
83	999
84	47
96	3
109	6
110	12
124	1
125	323
126	33
127	2
