Mass Spectrum: Tetraethylene glycol monododecyl ether
Formula: C20H42O5
CAS: 5274-68-0
Molecular weight: 362
m/z	intensity
14	1
15	18
16	1
17	2
18	7
26	5
27	66
28	64
29	130
30	11
31	52
32	3
33	2
39	24
40	7
41	237
42	73
43	390
44	164
45	999
46	22
47	3
51	1
52	1
53	10
54	19
55	214
56	85
57	393
58	124
59	147
60	9
61	12
62	3
63	9
64	1
65	2
66	9
67	33
68	56
69	134
70	62
71	211
72	102
73	71
74	7
75	69
76	9
77	38
78	2
79	4
80	5
81	27
82	119
83	110
84	40
85	132
86	13
87	159
88	197
89	548
90	38
91	28
92	2
93	1
94	3
95	22
96	71
97	85
98	28
99	40
100	8
101	45
102	37
103	90
104	10
105	9
106	2
107	25
108	3
109	19
110	33
111	45
112	14
113	25
114	5
115	4
116	11
117	23
118	3
119	39
120	4
121	7
122	2
123	13
124	20
125	17
126	9
127	11
128	4
129	6
130	1
131	9
132	13
133	92
134	9
135	66
136	5
137	9
138	17
139	7
140	10
141	6
142	2
143	1
144	1
145	3
146	1
147	12
148	3
149	9
150	1
151	12
152	2
153	1
155	3
156	1
157	1
158	1
159	1
160	1
161	2
163	23
164	5
165	5
166	110
167	39
168	16
169	24
170	4
171	1
173	2
175	2
177	8
178	21
179	4
180	1
181	1
182	3
183	16
184	4
185	3
187	1
192	1
193	1
194	12
195	24
196	3
197	13
198	4
199	4
200	1
201	1
207	1
210	4
211	6
212	18
213	27
214	4
227	4
228	4
229	10
230	2
231	2
241	2
242	3
243	9
244	2
256	4
257	9
258	2
272	1
273	12
274	3
275	6
276	1
287	3
288	1
300	2
301	1
319	5
320	1
331	1
332	1
361	1
362	2
