Mass Spectrum: 1-Benzoylpiperidine-4-carboxylic acid
Formula: C13H15NO3
CAS: 5274-99-7
Molecular weight: 233
m/z	intensity
35	1
36	8
37	1
38	6
39	23
40	4
41	23
42	39
43	8
44	7
45	28
46	0
47	0
50	31
51	96
52	10
53	12
54	13
55	35
56	25
57	7
58	2
59	0
60	0
61	0
62	1
63	3
64	0
65	3
66	1
67	6
68	6
69	5
70	2
71	1
72	1
73	4
74	8
75	9
76	29
77	424
78	32
79	3
80	6
82	68
83	14
84	4
85	1
86	1
87	1
88	0
89	1
90	1
91	4
92	3
93	0
94	0
95	0
96	0
97	0
98	0
99	0
100	3
101	1
102	1
103	5
105	999
106	81
107	5
108	0
109	0
110	7
111	4
112	1
113	0
114	2
115	1
116	1
117	3
118	3
119	2
120	4
121	1
122	24
123	5
124	1
125	1
126	1
128	183
129	13
130	4
131	1
132	4
133	7
134	6
135	1
136	0
137	0
138	0
139	0
141	0
142	0
143	3
144	1
145	3
146	15
147	5
148	1
149	0
150	0
151	1
152	0
153	0
154	0
155	0
156	2
157	0
158	3
159	4
160	37
161	8
162	1
165	0
167	0
168	0
169	1
170	3
171	2
172	1
173	0
174	1
175	0
178	0
179	3
180	0
181	1
182	0
184	0
186	67
187	18
188	68
189	13
190	1
196	3
197	0
198	1
199	0
204	0
205	0
214	13
215	5
216	7
217	0
218	2
219	0
232	897
233	506
234	80
235	9
236	0
