Mass Spectrum: 2,7:3,6-Dimethanonaphth[2,3-b]oxiren-8-one, 3,4,5,6,9,9-hexachloro-1a,2,2a,3,6,6a,7,7a-octahydro-, (1a.alpha.,2.beta.,2a.alpha.,3.beta.,6.beta.,6a.alpha.,7.beta.,7a.alpha.)-
Formula: C12H6Cl6O2
CAS: 52745-99-0
Molecular weight: 392
m/z	intensity
26	40
27	105
28	5
29	170
30	15
31	15
32	2
35	15
36	160
37	20
38	70
39	210
40	70
41	170
42	50
43	210
44	240
45	140
46	5
47	10
48	5
49	15
50	40
51	60
52	15
53	30
54	20
55	150
56	60
57	150
58	10
60	70
61	50
62	30
63	60
64	10
65	120
66	210
67	60
68	85
69	140
70	55
71	80
72	25
73	110
74	50
75	50
77	80
78	220
79	40
80	20
81	80
82	30
83	80
84	60
85	90
86	50
87	40
89	55
91	45
92	999
93	20
94	54
95	80
96	40
97	90
98	70
99	50
100	15
101	40
102	10
105	65
106	20
107	30
108	45
109	60
110	30
111	40
112	20
113	210
114	30
115	105
116	20
117	30
119	40
120	30
121	80
122	40
123	40
124	20
125	25
126	20
127	15
129	100
130	30
131	50
132	35
133	40
134	20
135	20
141	50
143	50
145	20
147	20
149	160
150	20
160	10
162	10
164	30
165	50
170	20
172	50
173	10
174	30
175	15
188	20
189	10
195	30
197	25
198	40
199	20
200	55
230	70
231	40
232	70
233	40
234	20
235	240
236	70
237	390
238	100
239	270
240	60
241	100
243	50
245	30
250	20
251	40
252	20
253	60
254	20
255	50
260	30
261	20
262	30
264	40
265	10
266	60
267	30
268	65
269	20
270	330
271	50
272	620
273	60
274	500
275	50
276	220
277	150
278	100
279	180
280	60
281	90
282	30
293	60
294	20
295	70
329	15
330	30
331	20
357	25
359	35
361	20
