Mass Spectrum: (R)-(-)-4-Methylhexanoic acid
Formula: C7H14O2
CAS: 52745-93-4
Molecular weight: 130
m/z	intensity
41	630
42	110
43	500
44	120
45	100
53	50
54	30
55	750
56	200
57	450
58	20
59	220
60	400
61	50
67	20
68	10
69	200
70	120
71	999
72	110
73	750
74	520
75	20
83	400
84	50
93	90
94	20
97	60
101	200
112	40
131	3
