Mass Spectrum: 1-(2-Hydroxy-4-methoxyphenyl)-3-phenylpropane-1,3-dione
Formula: C16H14O4
CAS: 52752-67-7
Molecular weight: 270
m/z	intensity
37	4
38	15
39	63
40	30
41	39
42	10
43	17
44	12
45	3
50	59
51	173
52	56
53	51
54	6
55	26
56	4
57	6
59	3
61	5
62	19
63	51
64	18
65	70
66	26
67	11
69	169
70	6
71	2
73	3
74	14
75	16
76	40
77	431
78	72
79	45
80	23
81	10
82	5
83	2
86	2
87	3
89	13
90	6
91	21
92	11
93	13
94	28
95	50
96	4
98	1
102	7
103	8
105	999
106	108
107	32
108	51
109	9
110	3
115	4
119	5
120	8
121	26
122	29
123	7
124	77
125	8
129	1
135	6
136	4
137	10
147	4
148	2
149	32
150	31
151	457
152	45
153	6
164	8
165	2
192	2
193	30
194	4
253	33
254	5
270	124
271	20
272	3
