Mass Spectrum: Tetracyclo[3.3.1.1(3,7).0(4,6)]decan-2-one
Formula: C10H12O
CAS: 52750-53-5
Molecular weight: 148
m/z	intensity
26	10
27	115
28	10
29	8
30	0
31	0
37	4
38	18
39	194
40	40
41	107
42	11
43	3
44	1
45	3
46	2
49	1
50	28
51	78
52	38
53	100
54	19
55	54
56	2
57	9
58	17
59	6
60	1
61	3
62	10
63	33
64	9
65	90
66	333
67	60
68	44
69	14
70	44
71	2
72	0
73	0
74	5
75	6
76	4
77	193
78	422
79	999
80	114
81	83
82	20
83	4
84	0
85	0
86	1
87	2
88	0
89	9
90	5
91	337
92	195
93	43
94	46
95	4
96	0
97	0
98	1
101	1
102	3
103	23
104	32
105	166
106	26
107	13
108	1
113	0
114	0
115	18
116	4
117	23
118	5
119	47
120	186
121	19
122	1
126	0
127	1
128	3
129	9
130	12
131	4
132	1
133	16
134	1
141	0
142	0
145	0
146	0
147	7
148	447
149	60
150	4
