Mass Spectrum: Butanoic acid, 2-cyano-3-methyl-, methyl ester
Formula: C7H11NO2
CAS: 52752-25-7
Molecular weight: 141
m/z	intensity
13	10
14	35
15	672
16	11
17	10
18	37
25	4
26	49
27	447
28	114
29	220
30	26
31	33
32	2
33	12
36	1
37	39
38	82
39	442
40	117
41	624
42	187
43	815
44	30
45	24
49	3
50	16
51	32
52	46
53	52
54	85
55	119
56	24
57	2
58	6
59	360
60	11
61	3
62	2
63	9
64	38
65	11
66	45
67	86
68	389
69	103
70	12
71	8
72	7
73	3
75	3
76	3
78	2
80	12
81	25
82	999
83	68
84	5
87	18
94	22
95	2
96	26
97	2
98	9
99	846
100	49
101	10
109	3
110	64
111	5
113	3
114	3
126	14
132	2
141	1
142	3
