Mass Spectrum: 4-Octene, 2,3,7-trimethyl-, [S-(E)]-
Formula: C11H22
CAS: 52763-13-0
Molecular weight: 154
m/z	intensity
27	120
29	80
39	70
41	310
43	310
55	830
56	100
57	110
69	999
70	260
83	120
84	70
95	60
97	50
111	280
154	110
