Mass Spectrum: Sulfur, tetrafluoro(imidodisulfurous difluoridato-N)[1,2,2,2-tetrafluoro-1-(trifluoromethyl)ethyl]-, (OC-6-11)-
Formula: C3F13NS2
CAS: 52760-36-8
Molecular weight: 361
m/z	intensity
31	18
46	45
50	10
51	22
63	9
64	4
65	17
69	390
70	140
76	2
77	2
81	19
84	22
89	999
93	5
94	4
96	2
100	67
101	15
108	2
113	6
119	63
127	3
131	9
132	3
134	11
135	4
146	1
150	12
151	15
154	460
169	120
184	5
192	160
208	5
234	1
239	36
273	2
277	120
342	10
