Mass Spectrum: Diethylene glycol tert-butyl ether methyl ether
Formula: C9H20O3
CAS: 52788-79-1
Molecular weight: 176
m/z	intensity
14	0
15	25
16	0
17	0
19	1
26	3
27	23
28	28
29	152
30	7
31	96
32	1
33	4
37	0
38	1
39	30
40	5
41	208
42	26
43	171
44	20
45	237
46	5
47	4
50	0
51	1
52	0
53	3
54	0
55	14
56	82
57	999
58	132
59	656
60	52
61	3
62	0
63	0
65	1
69	7
70	3
71	30
72	16
73	10
74	1
75	22
76	0
77	49
78	1
79	0
82	0
83	0
85	1
86	1
87	34
88	17
89	132
90	26
91	110
92	4
93	0
100	119
101	15
102	0
103	117
104	5
105	0
116	0
117	1
118	0
119	13
120	2
121	9
122	0
131	0
133	2
144	0
161	7
162	0
