Mass Spectrum: Chlorodibromoacetic acid
Formula: C2HBr2ClO2
CAS: 5278-95-5
Molecular weight: 250
m/z	intensity
12	462
13	253
14	7
24	32
25	4
28	354
29	421
30	20
35	302
36	96
37	91
38	29
40	98
41	21
42	3
44	835
45	659
47	999
48	409
49	339
50	133
51	8
55	6
56	16
57	6
59	6
63	219
64	36
65	71
66	11
69	3
71	3
75	4
76	6
77	3
79	874
80	150
81	911
82	144
83	5
84	3
85	8
86	3
87	3
91	550
92	135
93	483
94	123
95	7
96	4
97	4
98	3
99	3
103	4
105	5
107	72
108	10
109	72
110	9
114	8
116	10
118	3
119	3
120	3
121	3
126	437
127	770
128	574
129	960
130	150
131	236
132	5
143	146
145	188
147	49
154	10
156	13
158	24
160	35
162	19
170	83
171	618
172	165
173	822
174	97
175	228
176	4
187	6
189	10
191	6
200	2
205	36
206	19
207	77
208	41
209	55
210	29
211	13
212	7
215	28
217	58
218	2
219	27
249	2
250	7
251	6
252	15
253	6
254	15
255	2
256	4
