Mass Spectrum: Benzenemethanol, 3-bromo-.alpha.-methyl-
Formula: C8H9BrO
CAS: 52780-14-0
Molecular weight: 200
m/z	intensity
14	2
15	13
16	1
19	3
25	1
26	6
27	27
29	30
30	1
31	2
36	1
37	10
38	28
39	55
40	4
41	5
43	379
44	14
45	69
46	5
47	1
49	15
50	163
51	211
52	48
53	42
55	6
59	6
60	13
61	14
62	32
63	60
64	10
65	33
66	5
67	2
68	1
72	1
73	21
74	113
75	147
76	139
77	999
78	470
79	51
80	6
81	8
82	5
83	1
84	1
85	5
86	9
87	11
88	4
89	25
90	12
91	75
92	59
93	51
95	1
97	2
98	7
99	12
100	11
101	12
102	50
103	74
104	70
105	95
106	39
107	6
116	2
117	5
118	3
119	9
120	6
121	328
122	29
123	2
128	3
129	7
130	4
131	7
132	1
133	1
141	1
143	2
145	1
155	78
156	107
157	500
158	130
159	424
160	28
161	1
169	3
171	2
173	1
181	1
182	7
183	52
185	745
186	65
187	679
188	53
189	3
198	2
199	7
200	236
201	32
202	228
203	20
204	1
