Mass Spectrum: Benzene, (1-nitropropyl)-
Formula: C9H11NO2
CAS: 5279-14-1
Molecular weight: 165
m/z	intensity
18	20
27	30
28	20
30	20
39	70
41	170
50	30
51	70
52	20
58	20
63	30
65	50
76	10
77	90
78	40
79	30
89	30
91	999
92	80
103	50
104	60
105	30
115	50
117	60
118	20
119	380
120	40
