Mass Spectrum: D-Glucopyranuronic acid
Formula: C6H10O7
CAS: 528-16-5
Molecular weight: 194
m/z	intensity
12	4
13	2
14	15
15	57
16	12
17	145
18	622
19	37
24	1
25	6
26	41
27	75
28	529
29	239
30	86
31	172
32	28
33	2
34	1
36	1
37	7
38	12
39	66
40	25
41	24
42	131
43	237
44	506
45	108
46	9
47	38
49	3
50	5
51	6
52	6
53	12
54	28
55	106
56	47
57	165
58	139
59	24
60	321
61	215
62	7
63	2
64	1
65	2
66	3
67	8
68	34
69	17
70	11
71	192
72	118
73	999
74	38
75	7
76	174
77	12
78	2
79	2
80	7
81	6
82	6
83	108
84	72
85	77
86	51
87	10
88	9
89	27
90	8
91	48
92	3
93	2
94	2
95	33
96	50
97	12
98	8
99	11
100	20
101	401
102	39
103	9
104	8
105	4
107	2
108	4
109	2
110	3
111	3
112	14
113	13
114	46
115	4
116	2
117	3
118	6
119	194
120	9
121	3
122	1
123	2
124	2
125	2
126	2
127	1
128	1
129	7
130	7
131	13
132	3
133	1
135	2
137	1
138	1
139	2
140	5
141	3
142	1
145	1
146	1
147	53
148	4
149	2
158	5
159	22
160	2
161	2
163	1
176	42
177	5
178	1
192	5
193	1
