Mass Spectrum: Benzoic acid, 3,4-dinitro-
Formula: C7H4N2O6
CAS: 528-45-0
Molecular weight: 212
m/z	intensity
15	1
16	1
18	2
26	4
27	10
28	16
29	9
30	999
31	4
32	2
36	2
37	23
38	53
39	91
40	10
41	3
42	4
43	5
44	9
45	66
46	44
48	1
49	8
50	95
51	75
52	90
53	72
54	8
55	21
56	3
57	1
60	3
61	17
62	53
63	177
64	94
65	17
66	15
67	10
68	20
69	13
70	13
71	13
72	5
73	24
74	161
75	193
76	24
77	21
78	9
79	37
80	52
81	4
82	7
83	1
86	2
87	4
88	4
89	2
90	7
91	38
92	25
93	22
94	9
95	5
96	36
97	2
101	6
102	26
103	89
104	11
105	1
106	2
107	6
108	33
109	3
110	3
118	8
119	85
120	28
121	15
122	9
123	2
124	9
125	1
135	1
136	37
137	4
138	16
139	2
148	2
149	3
152	1
164	2
165	2
166	47
167	5
168	1
180	2
182	8
183	3
195	9
196	9
197	1
212	265
213	23
214	5
