Mass Spectrum: Benzenesulfenyl chloride, 2,4-dinitro-
Formula: C6H3ClN2O4S
CAS: 528-76-7
Molecular weight: 234
m/z	intensity
30	461
35	20
37	35
38	34
39	30
43	16
45	246
46	120
47	14
48	29
49	25
50	81
51	141
52	26
53	34
54	3
55	6
56	5
57	87
58	28
60	20
61	173
62	384
63	876
64	88
65	16
66	10
67	58
68	48
69	727
70	82
71	44
72	11
73	119
74	503
75	428
76	78
77	69
78	15
79	285
80	80
81	147
82	80
83	170
84	20
85	54
86	28
87	25
88	39
90	11
91	22
92	30
93	195
94	108
95	999
96	93
97	128
98	27
99	29
100	8
103	9
104	38
105	160
106	135
107	296
108	38
110	51
111	87
112	32
113	21
115	10
116	9
118	58
120	32
121	37
122	32
123	219
124	385
125	67
126	171
127	17
128	19
129	20
130	29
131	9
132	13
135	424
136	56
137	41
139	16
140	11
142	44
144	16
146	61
148	11
151	67
152	6
153	45
156	14
169	227
170	20
171	77
172	11
182	19
183	46
186	69
188	44
190	9
199	776
200	83
201	45
202	3
204	13
218	4
234	724
235	58
236	272
237	22
238	14
