Mass Spectrum: 4-Benzyloxybenzonitrile
Formula: C14H11NO
CAS: 52805-36-4
Molecular weight: 209
m/z	intensity
27	1
28	2
37	2
38	2
39	22
40	1
41	8
50	4
51	11
52	3
62	3
63	14
64	8
65	88
66	4
74	1
75	4
76	3
77	5
89	14
90	15
91	999
92	86
93	3
102	3
104	2
105	1
118	2
119	1
152	1
153	1
180	1
209	84
210	12
211	1
