Mass Spectrum: Ethane, 1-(2-chloroethoxy)-2-methoxy-
Formula: C5H11ClO2
CAS: 52808-36-3
Molecular weight: 138
m/z	intensity
41	13
42	35
43	114
44	53
45	960
46	20
47	9
48	8
49	84
50	18
51	28
52	4
58	999
59	581
60	27
61	14
62	23
63	612
64	18
65	207
66	1
71	6
72	22
73	30
74	3
75	21
76	5
77	10
79	16
81	6
86	5
87	130
88	12
89	273
90	11
93	560
94	23
95	190
96	7
102	35
103	13
106	8
107	31
108	5
109	11
123	4
125	2
137	26
138	27
140	7
141	1
