Mass Spectrum: N-Benzoyl derivative of m-iodoaniline
Formula: C13H10INO
CAS: 52807-28-0
Molecular weight: 323
m/z	intensity
37	12
38	40
39	43
40	12
41	12
50	81
51	201
52	30
53	12
61	12
62	23
63	81
64	84
65	30
74	23
75	23
76	40
77	550
78	40
90	12
91	81
105	999
106	81
127	23
128	12
167	12
191	12
195	12
196	12
218	12
323	221
324	30
