Mass Spectrum: 1,2,4-Triazine, 2,3,4,5-tetrahydro-2-(4-chlorophenyl0-6-nitro-4-phenyl-
Formula: C16H15ClN4O2
CAS: 52817-82-0
Molecular weight: 330
m/z	intensity
34	0
35	1
36	4
37	2
38	9
39	42
40	24
41	29
42	158
43	8
44	4
45	5
46	4
50	20
51	32
52	8
53	3
54	4
55	2
56	1
57	2
60	1
61	3
62	14
63	54
64	19
65	128
66	8
67	10
68	1
69	1
70	1
71	1
73	7
74	9
75	52
76	21
77	23
78	9
79	2
81	0
82	0
83	0
84	1
85	5
86	1
87	2
88	4
89	44
90	88
91	999
92	81
93	3
97	1
98	7
99	11
100	4
101	128
102	181
103	21
104	9
105	6
106	5
107	1
108	0
109	0
111	116
112	13
113	37
114	4
115	3
116	4
117	6
118	21
119	7
120	47
121	4
123	0
124	4
125	149
126	30
127	54
128	11
129	3
130	5
131	5
132	17
133	2
134	0
135	0
137	310
138	85
139	165
140	50
141	22
142	8
143	4
144	16
145	6
146	2
147	2
148	0
149	44
150	3
151	1
152	3
153	3
154	0
155	0
156	0
157	1
158	2
159	3
160	0
161	6
162	0
163	1
164	0
165	174
166	16
167	86
168	7
169	8
170	0
171	1
172	0
173	0
174	2
175	10
176	1
178	0
179	23
180	6
181	2
192	3
193	23
194	3
195	8
196	0
201	0
204	0
206	3
207	0
208	1
209	0
214	0
215	1
216	9
217	1
218	3
219	0
224	0
239	0
241	0
243	1
248	0
249	1
255	3
256	1
257	3
259	0
282	0
283	2
284	58
285	11
286	18
287	3
295	0
297	0
300	1
302	0
313	5
314	1
315	1
316	0
330	217
331	40
332	70
333	13
334	1
