Mass Spectrum: Sclaral (sclareolide lactol)
Formula: C16H28O2
CAS: 52811-62-8
Molecular weight: 252
m/z	intensity
36	4
38	2
39	129
40	58
41	734
42	52
43	999
44	46
45	33
47	5
50	6
51	18
52	9
53	152
54	24
55	536
56	87
57	281
58	66
59	34
60	14
61	5
62	4
63	6
64	3
65	48
66	24
67	287
68	162
69	970
70	99
71	907
72	95
73	17
74	7
75	3
76	11
77	84
78	15
79	161
80	55
81	569
82	385
83	328
84	37
85	178
86	13
87	10
88	6
89	5
91	95
92	27
93	222
94	83
95	509
96	126
97	211
98	36
99	47
100	11
101	15
102	8
103	6
104	11
105	104
106	25
107	211
108	76
109	402
110	182
111	88
112	16
113	156
114	17
115	11
116	4
117	11
118	3
119	77
120	29
121	185
122	68
123	394
124	282
125	466
126	48
127	145
128	44
129	10
130	2
131	22
132	8
133	42
134	17
135	95
136	90
137	357
138	83
139	34
140	23
141	27
142	4
143	3
145	30
146	6
147	32
148	9
149	253
150	74
151	34
152	14
153	40
154	6
155	43
156	4
157	2
159	17
160	7
161	32
162	8
163	132
164	46
165	13
166	3
167	32
168	5
169	5
173	11
174	2
175	108
176	32
177	210
178	42
179	22
181	26
182	8
189	15
190	74
191	63
192	51
193	34
194	12
195	120
196	71
197	9
201	118
202	19
203	5
205	9
206	50
207	8
209	5
216	25
217	6
219	91
220	18
221	7
223	11
234	85
235	20
237	693
238	120
239	17
252	62
253	12
