Mass Spectrum: 4-Hexenoic acid, 5-amino-3-oxo-, methyl ester
Formula: C7H11NO3
CAS: 52812-86-9
Molecular weight: 157
m/z	intensity
41	40
42	50
43	30
54	20
68	20
70	20
83	20
84	999
85	70
125	30
126	20
157	260
158	30
