Mass Spectrum: Hydrazine, 1-(2,3-dimethylphenyl)-2-nitromethylidene-
Formula: C9H11N3O2
CAS: 52817-63-7
Molecular weight: 193
m/z	intensity
33	1
34	5
36	2
37	13
38	51
39	277
40	132
41	108
42	89
43	16
44	35
45	17
46	23
48	2
50	73
51	194
52	122
53	102
54	32
55	8
56	2
57	4
58	60
59	16
61	8
62	27
63	85
64	48
65	181
66	53
67	20
68	4
69	2
70	1
71	1
72	10
73	18
74	19
75	21
76	40
77	444
78	120
79	93
80	33
81	6
82	1
83	2
84	1
85	1
86	2
87	3
88	4
89	42
90	36
91	451
92	127
93	103
94	24
95	2
96	1
97	1
98	1
99	1
100	0
101	3
102	34
103	136
104	203
105	97
106	28
107	6
108	4
109	1
110	1
111	3
112	1
113	1
114	1
115	6
116	35
118	999
119	693
120	700
121	68
122	5
123	1
124	3
125	2
126	1
127	1
128	1
129	0
130	2
131	18
132	19
133	22
134	5
135	3
136	1
137	0
138	2
139	4
140	7
141	1
142	2
143	0
144	2
146	411
147	44
148	3
149	0
150	0
159	2
160	5
161	3
163	0
164	0
166	1
167	0
168	0
175	0
176	1
177	1
178	0
184	0
186	1
188	0
191	4
193	638
194	67
195	5
