Mass Spectrum: 2-Propanone, hydrazone
Formula: C3H8N2
CAS: 5281-20-9
Molecular weight: 72
m/z	intensity
26	55
27	142
28	189
29	170
30	999
31	54
32	51
37	50
38	103
39	416
40	104
41	210
42	107
43	76
51	16
52	27
53	11
54	187
55	513
56	83
57	959
58	29
72	896
73	35
