Mass Spectrum: Heptamethylene diacetate
Formula: C11H20O4
CAS: 52819-34-8
Molecular weight: 216
m/z	intensity
12	1
13	3
14	37
15	44
16	2
25	1
26	5
27	50
28	34
29	75
30	2
31	15
37	1
38	3
39	76
40	18
41	203
42	155
43	999
44	52
45	32
46	1
50	4
51	8
52	5
53	48
54	397
55	467
56	141
57	44
58	29
59	7
60	21
61	230
62	6
63	4
65	13
66	77
67	641
68	906
69	202
70	23
71	69
72	14
73	88
74	4
75	1
76	1
77	13
78	4
79	45
80	17
81	469
82	40
83	23
84	59
85	31
86	18
87	18
88	5
89	2
90	1
91	14
92	4
93	12
94	17
95	159
96	481
97	85
98	53
99	9
100	19
101	20
102	3
103	11
104	2
105	3
106	2
107	3
108	7
109	4
110	5
111	12
112	6
113	74
114	25
115	9
116	2
117	1
118	1
119	2
120	2
121	2
122	1
123	3
124	1
125	1
126	16
127	3
128	14
129	32
130	3
131	3
133	1
134	1
135	1
138	7
139	1
141	9
142	1
143	1
144	2
145	1
147	1
149	1
152	1
156	3
157	2
165	2
166	1
167	5
168	1
173	14
174	3
175	1
183	1
217	6
218	1
