Mass Spectrum: 6-Methoxy-1-methyl-8-nitro-2-quinolone
Formula: C11H10N2O4
CAS: 52824-28-9
Molecular weight: 234
m/z	intensity
41	16
42	20
43	9
44	6
46	10
49	8
50	89
51	134
52	46
53	35
54	6
55	5
56	1
58	18
59	2
61	21
62	70
63	95
64	37
65	34
66	51
67	10
68	4
69	6
72	4
73	2
74	22
75	45
76	83
77	61
78	26
79	42
80	10
81	3
82	2
83	0
84	2
85	6
86	24
87	51
88	24
89	331
90	232
91	52
92	21
93	6
94	3
95	1
97	3
98	16
99	14
100	6
101	34
102	110
103	91
104	46
105	24
106	12
107	3
108	1
111	1
112	3
114	38
116	385
117	999
118	141
119	31
120	7
121	1
126	2
127	22
128	59
129	44
130	62
131	42
132	39
133	42
134	18
135	3
136	0
140	0
141	0
142	4
143	24
144	83
145	219
146	188
147	40
148	6
149	1
155	0
156	3
157	12
158	471
159	219
160	130
161	49
162	17
163	1
171	1
172	8
173	76
174	231
175	160
176	26
177	3
185	3
186	4
187	16
188	40
189	94
190	17
191	2
192	0
199	0
200	3
201	8
202	3
203	11
204	245
205	124
206	16
207	1
212	0
213	0
215	0
216	1
217	73
218	14
219	9
220	1
221	0
233	12
234	692
235	154
236	19
237	2
