Mass Spectrum: 2-Benzyloxy-6-methoxy-8-nitroquinoline
Formula: C17H14N2O4
CAS: 52824-30-3
Molecular weight: 310
m/z	intensity
41	23
42	3
43	2
44	1
45	1
47	1
48	0
49	7
50	22
51	72
52	17
53	14
54	2
55	3
56	1
57	2
59	1
61	1
62	20
63	55
65	249
66	11
67	1
69	7
71	0
73	1
75	43
76	26
77	27
78	4
79	14
80	2
81	1
82	2
83	3
84	8
85	1
86	7
87	10
88	14
89	35
91	999
92	64
93	3
95	6
96	13
97	0
98	1
99	3
100	5
102	54
103	24
105	165
106	11
107	2
109	0
110	3
111	1
112	1
114	26
115	11
116	22
117	13
118	17
119	3
120	0
123	2
124	5
125	2
126	3
127	6
128	14
130	22
131	8
132	4
133	10
134	1
137	1
138	3
139	2
140	0
141	0
142	5
143	6
144	24
145	5
146	102
147	9
148	0
149	2
151	1
152	1
155	4
157	13
158	10
159	18
160	2
161	5
162	5
163	1
164	3
165	5
166	1
167	1
174	312
175	46
176	5
177	2
178	1
180	4
181	2
182	0
185	0
187	15
188	12
189	6
190	3
191	7
192	6
193	2
200	2
201	1
202	0
204	491
205	85
206	10
208	12
209	1
210	2
217	4
219	10
220	5
221	2
222	1
232	0
233	8
234	6
235	3
238	27
239	3
240	6
246	0
247	1
248	0
249	0
262	22
263	6
264	2
265	0
275	4
276	26
277	9
278	2
280	1
281	0
282	0
293	11
294	2
309	1
310	24
311	4
