Mass Spectrum: L-Cystine, N,N'-bis(trifluoroacetyl)-, dibutyl ester
Formula: C18H26F6N2O6S2
CAS: 5283-00-1
Molecular weight: 544
m/z	intensity
39	83
40	43
41	817
42	89
43	106
44	64
45	62
46	44
47	68
50	8
53	26
54	5
55	179
56	149
57	999
58	72
59	104
60	4
61	4
64	45
66	7
68	29
69	224
70	83
71	14
73	16
74	53
75	74
78	6
79	25
86	129
87	41
88	31
89	10
90	39
91	19
96	36
97	21
101	17
102	36
103	108
104	172
105	66
106	22
109	16
110	15
113	25
114	70
115	3
120	3
125	5
126	22
127	19
135	11
137	23
138	165
139	87
140	52
141	22
142	23
145	7
146	23
149	4
153	55
154	11
156	23
158	3
159	77
160	138
161	20
165	190
166	74
167	12
170	78
171	26
172	107
182	7
183	169
184	378
185	21
188	19
198	54
200	17
202	35
203	29
204	10
210	4
214	5
216	62
218	10
228	11
230	35
231	7
239	28
240	359
241	38
244	7
249	6
262	4
271	4
272	48
273	9
431	22
443	9
544	40
545	10
