Mass Spectrum: Silane, trichlorononyl-
Formula: C9H19Cl3Si
CAS: 5283-67-0
Molecular weight: 260
m/z	intensity
26	5
27	111
28	24
29	166
30	2
38	3
39	200
40	39
41	594
42	165
43	545
44	18
49	3
50	3
51	17
52	9
53	80
54	47
55	348
56	182
57	999
58	46
59	1
63	127
64	10
65	68
66	9
67	47
68	13
69	119
70	129
71	445
72	23
77	13
78	5
79	15
80	1
81	9
82	1
83	28
84	43
85	408
86	26
90	3
91	8
92	2
93	3
95	5
97	28
98	114
99	197
100	74
101	65
102	14
103	20
104	1
105	7
112	37
113	36
114	27
115	30
116	10
117	41
118	5
119	14
123	4
125	55
126	30
127	44
128	19
129	39
130	6
131	37
132	3
133	737
134	43
135	730
136	38
137	250
138	24
139	124
140	22
141	62
142	9
143	12
144	2
147	2
149	1
151	5
152	1
153	69
154	9
155	46
156	4
157	14
159	3
161	110
162	8
163	111
164	7
165	38
166	2
167	39
168	5
169	24
170	3
171	6
173	1
174	69
175	459
176	106
177	450
178	59
179	156
180	15
181	29
182	2
183	6
187	8
188	15
189	146
190	29
191	144
192	18
193	49
194	4
195	8
202	12
203	45
204	16
205	43
206	7
207	14
216	6
217	34
218	11
219	35
220	6
221	12
224	4
