Mass Spectrum: .alpha.-D-Glucopyranuronic acid, 5TMS derivative
Formula: C21H50O7Si5
CAS: 52842-25-8
Molecular weight: 554
m/z	intensity
38	20
39	30
40	40
41	130
42	10
43	40
44	30
45	80
46	10
47	30
49	10
50	10
51	20
52	30
53	10
55	20
57	10
58	10
59	30
60	10
61	10
66	10
67	20
68	160
69	10
70	10
71	10
72	20
73	999
74	90
75	270
76	20
77	20
79	30
83	10
84	10
85	10
93	10
95	10
98	70
99	10
101	10
102	10
103	40
113	10
116	20
117	20
119	10
125	60
126	10
127	10
130	10
131	30
132	10
133	50
134	10
135	10
140	80
141	10
142	10
143	30
144	10
145	10
147	370
148	60
149	30
150	10
157	10
161	10
169	20
175	10
177	10
189	40
190	10
191	150
192	30
193	10
202	10
203	10
204	490
205	100
206	40
207	20
215	10
216	10
217	740
218	150
219	80
220	10
221	30
222	10
229	30
230	10
231	20
232	60
233	10
234	10
241	10
243	40
244	10
251	10
255	20
256	10
257	10
263	10
277	10
279	10
283	10
291	30
292	180
293	50
294	10
295	30
305	180
306	60
307	10
318	10
330	10
331	10
332	30
333	10
334	20
335	10
344	10
345	10
356	20
357	10
374	10
419	10
450	20
451	10
452	10
453	0
454	0
463	0
539	4
540	2
541	1
542	0
543	0
554	0
555	0
556	0
557	0
