Mass Spectrum: Cholic acid, triacetate
Formula: C30H46O8
CAS: 52840-09-2
Molecular weight: 534
m/z	intensity
41	151
43	999
44	42
45	44
49	13
51	9
53	37
54	9
55	253
56	13
57	41
59	35
60	45
61	68
65	10
67	137
68	25
69	102
70	15
71	34
73	14
77	45
79	178
80	32
81	238
82	14
83	69
84	34
85	29
86	11
91	115
92	12
93	149
94	61
95	160
96	24
97	37
98	8
99	22
101	15
103	8
105	179
106	52
107	173
108	47
109	87
110	7
111	19
113	8
115	16
116	7
117	48
118	32
119	82
120	31
121	94
122	27
123	37
124	12
125	11
127	16
128	9
129	23
130	14
131	87
132	28
133	86
134	26
135	51
136	7
137	15
139	6
140	13
141	17
142	15
143	73
144	32
145	101
146	22
147	69
148	17
149	33
150	7
151	9
153	7
155	16
156	10
157	65
158	38
159	78
160	25
161	44
162	14
163	23
165	9
166	6
167	12
169	33
170	14
171	47
172	25
173	31
174	12
175	20
176	7
177	12
178	6
179	7
180	10
181	18
182	5
183	20
184	10
185	37
186	12
187	27
188	9
189	15
190	6
191	6
193	14
194	15
195	16
196	5
197	37
198	13
199	47
200	12
201	33
202	10
203	14
205	5
207	7
209	12
211	58
212	28
213	44
214	20
215	38
216	14
217	12
223	9
225	20
226	78
227	50
228	23
229	35
230	11
231	21
232	8
233	15
234	10
235	8
237	7
239	12
240	6
241	8
243	9
244	9
245	12
246	18
247	61
248	18
249	13
251	9
252	7
253	322
254	62
255	50
256	12
257	8
258	13
259	15
260	10
261	8
269	10
271	37
272	10
273	23
274	11
275	5
281	23
282	7
283	8
285	5
286	25
287	12
288	9
289	5
295	10
297	6
298	8
299	19
300	44
301	15
311	8
312	7
313	193
314	44
315	9
318	10
321	7
327	10
328	9
329	21
330	6
331	10
339	89
340	23
341	21
342	31
343	49
344	13
353	9
354	213
355	92
356	33
357	20
358	7
360	7
370	7
371	5
372	51
373	21
374	8
389	5
390	9
399	17
414	176
415	50
416	10
432	6
