Mass Spectrum: 5-Silaspiro[4.4]nona-2,7-diene
Formula: C8H12Si
CAS: 52856-32-3
Molecular weight: 136
m/z	intensity
26	31
27	44
28	10
29	37
30	3
31	6
36	0
37	3
38	6
39	42
40	4
41	6
42	21
43	36
44	5
45	5
46	1
49	1
50	8
51	12
52	5
53	119
54	130
55	193
56	46
57	18
58	34
59	2
60	1
61	1
62	2
63	5
64	0
65	10
66	12
67	126
68	15
69	11
70	1
71	3
73	0
74	0
75	0
76	0
77	6
78	4
79	12
80	48
81	72
82	999
83	93
84	35
85	1
86	2
87	0
89	2
93	9
94	36
95	22
96	7
97	1
98	0
103	1
104	0
105	9
106	8
107	23
108	133
109	22
110	6
111	0
115	0
116	3
117	2
118	1
119	2
120	1
121	19
122	2
123	1
130	0
131	1
132	0
133	4
134	3
136	613
137	82
138	24
139	2
