Mass Spectrum: 2-Ethoxy-4,4,5,5-tetramethyloxazoline
Formula: C9H17NO2
CAS: 52856-01-6
Molecular weight: 171
m/z	intensity
43	20
49	30
58	70
59	30
84	999
98	480
113	220
128	40
142	20
156	80
171	110
