Mass Spectrum: 4,4,5,5-Tetramethyl-2-oxazolidinone
Formula: C7H13NO2
CAS: 52856-03-8
Molecular weight: 143
m/z	intensity
27	137
28	206
29	137
39	172
41	344
42	965
43	310
57	482
59	999
84	448
100	86
115	344
128	86
143	51
