Mass Spectrum: Ethyl 3-methyl-3-nitrobutanoate
Formula: C7H13NO4
CAS: 52856-07-2
Molecular weight: 175
m/z	intensity
27	350
28	380
29	999
30	520
39	240
41	300
42	140
43	400
44	150
55	460
56	350
57	140
59	460
82	90
83	380
87	290
128	140
129	200
130	80
