Mass Spectrum: 2-Methoxy-4,4,5-trimethyloxazoline
Formula: C7H13NO2
CAS: 52856-05-0
Molecular weight: 143
m/z	intensity
27	160
28	250
29	130
30	80
39	120
41	260
42	210
43	190
49	70
55	110
56	250
58	220
59	100
69	70
70	50
71	80
73	100
84	999
85	80
100	60
128	600
129	50
143	90
