Mass Spectrum: O-Methyl N-tert-butylacetimidate
Formula: C7H15NO
CAS: 52855-95-5
Molecular weight: 129
m/z	intensity
15	130
27	90
28	90
29	190
39	110
41	320
42	530
43	310
55	50
56	110
57	320
58	50
72	90
73	110
74	170
82	60
114	999
115	60
129	150
