Mass Spectrum: 2-Methoxy-3,4,4-trimethyl.delta.1-azetine
Formula: C7H13NO
CAS: 52856-04-9
Molecular weight: 127
m/z	intensity
15	280
18	60
27	340
28	400
29	200
39	280
41	540
42	340
43	120
54	180
55	440
56	999
57	80
58	380
70	160
71	260
82	60
84	380
98	200
112	320
126	60
127	200
