Mass Spectrum: Ethyl 1,1,2-trimethyl-2-nitrosopropyl carbonate
Formula: C9H17NO4
CAS: 52856-08-3
Molecular weight: 203
m/z	intensity
15	340
18	300
27	430
28	500
29	970
30	380
31	710
39	300
41	990
42	210
43	999
44	550
45	360
46	180
55	550
56	90
57	140
58	300
59	540
67	360
69	590
82	450
83	680
84	640
85	160
86	70
101	300
114	50
129	40
158	40
173	23
