Mass Spectrum: Anthraquinone, 2-benzamido-
Formula: C21H13NO3
CAS: 52869-18-8
Molecular weight: 327
m/z	intensity
38	3
39	14
40	5
41	3
42	1
43	3
44	2
50	31
51	92
52	8
53	1
62	10
63	22
64	5
65	7
66	0
76	33
77	438
78	31
79	1
80	0
89	13
90	7
91	18
92	9
93	1
94	0
105	999
106	79
107	5
108	0
112	5
113	15
114	6
115	7
116	3
117	2
118	2
125	3
126	5
127	1
128	0
135	1
136	0
138	15
139	79
140	36
141	4
142	0
144	4
145	0
150	16
151	16
152	4
153	0
164	25
165	6
166	35
167	14
168	3
169	0
171	4
172	0
176	2
177	3
178	2
179	1
180	0
193	1
194	4
195	3
196	1
197	0
221	0
222	16
223	14
224	4
225	0
226	0
250	2
251	0
252	0
297	0
298	2
299	0
310	0
311	0
326	3
327	306
328	69
329	9
330	1
