Mass Spectrum: O,O-Diethyl O-2-ethylsulfinylethyl phosphorothioate
Formula: C8H19O4PS2
CAS: 5286-73-7
Molecular weight: 274
m/z	intensity
12	3
13	2
14	15
15	69
16	15
17	74
18	289
19	21
24	1
25	5
26	75
27	519
28	211
29	999
30	33
31	47
32	18
33	8
34	15
35	46
36	1
37	2
38	1
39	10
40	2
41	26
42	13
43	87
44	47
45	580
46	44
47	131
48	31
49	13
50	16
51	6
52	2
53	8
54	6
55	29
56	3
57	10
58	33
59	180
60	321
61	223
62	28
63	54
64	63
65	142
66	9
67	2
68	2
69	3
70	1
71	3
72	6
73	20
75	90
76	123
77	112
78	26
79	21
80	15
81	185
82	39
83	14
84	1
85	6
86	6
87	46
88	482
89	244
90	38
91	308
92	22
93	97
94	6
95	7
96	29
97	353
98	15
99	184
100	1
101	2
103	3
104	40
105	50
106	7
107	12
109	108
110	15
111	25
112	9
113	23
114	61
115	166
116	4
117	10
118	2
119	5
120	3
121	32
122	3
123	15
125	158
126	41
127	148
128	10
129	3
130	1
131	1
133	1
135	1
137	22
138	5
139	19
141	501
142	38
143	91
144	5
145	7
146	3
147	2
149	3
151	1
153	63
154	10
155	81
156	4
157	3
160	2
161	4
162	9
163	3
164	1
167	2
169	64
170	30
171	67
172	6
173	30
174	5
175	3
177	3
182	1
185	1
189	2
190	1
192	1
193	2
195	1
197	105
198	25
199	12
200	1
201	4
202	5
209	1
210	2
211	5
213	2
217	2
225	3
229	4
238	2
245	94
246	7
247	8
256	1
257	10
258	4
259	1
266	1
274	4
275	3
