Mass Spectrum: 7-Oxabicyclo[4.1.0]heptan-2-one, 6-methyl-3-(1-methylethyl)-
Formula: C10H16O2
CAS: 5286-38-4
Molecular weight: 168
m/z	intensity
25	5
26	38
27	392
28	68
29	268
30	8
31	21
37	11
38	26
39	435
40	91
41	957
42	268
43	615
44	28
45	25
47	6
50	25
51	65
52	35
53	185
54	103
55	963
56	171
57	89
58	43
59	24
62	8
63	20
64	8
65	51
66	30
67	181
68	74
69	999
70	709
71	591
72	71
73	13
74	6
75	6
76	6
77	66
78	20
79	99
80	37
81	111
82	213
83	255
84	240
85	60
86	109
87	10
89	5
91	67
92	14
93	38
94	15
95	115
96	58
97	793
98	274
99	32
100	15
101	17
102	4
103	15
105	20
106	8
107	81
108	35
109	80
110	97
111	171
112	25
113	20
115	17
116	6
117	18
119	8
121	23
122	12
123	29
124	28
125	337
126	481
127	46
128	7
133	9
134	7
135	177
136	20
137	14
138	8
139	590
140	113
141	13
149	8
150	62
151	12
152	8
153	38
154	7
155	3
168	82
169	11
