Mass Spectrum: 2-Phenyl-3-(4-bromophenyl)-oxirane
Formula: C14H11BrO
CAS: 52881-68-2
Molecular weight: 274
m/z	intensity
63	381
65	59
77	220
89	999
90	468
91	80
105	99
152	70
155	39
157	39
165	219
166	228
167	279
178	100
179	39
183	49
185	50
195	459
245	160
246	29
247	159
248	29
274	159
276	159
