Mass Spectrum: 3-[(Z)-1-Butenyl]-4-vinylcyclopentene
Formula: C11H16
CAS: 52886-04-1
Molecular weight: 148
m/z	intensity
37	4
38	31
39	600
40	88
41	721
42	47
43	21
44	0
45	0
46	0
49	0
50	53
51	207
52	86
53	230
54	41
55	205
56	8
57	6
58	32
59	8
60	1
61	2
62	22
63	89
64	31
65	308
66	703
67	465
68	47
69	21
70	75
71	4
72	0
73	0
74	9
75	10
76	11
77	586
78	321
79	999
80	225
81	105
82	419
83	29
84	0
85	0
86	1
87	2
88	0
89	24
90	6
91	893
92	280
93	127
94	74
95	9
96	0
98	0
101	1
102	11
103	78
104	37
105	463
106	103
107	128
108	8
109	0
113	0
114	0
115	63
116	20
117	89
118	17
119	295
120	49
121	7
122	0
126	0
127	2
128	8
129	5
130	1
131	7
132	0
133	60
134	4
135	0
139	0
141	0
142	0
143	0
145	0
146	0
147	7
148	75
149	10
