Mass Spectrum: 4-Hexen-3-one, 4-methyl-
Formula: C7H12O
CAS: 52883-78-0
Molecular weight: 112
m/z	intensity
25	1
26	26
27	192
28	44
29	229
30	5
31	2
37	5
38	14
39	162
40	14
41	31
42	9
43	21
44	1
45	1
49	3
50	30
51	45
52	17
53	98
54	32
55	999
56	49
57	52
58	2
59	0
61	1
62	3
63	4
64	0
65	4
66	1
67	7
68	0
69	5
70	0
71	0
72	0
73	0
74	1
75	0
76	0
77	6
78	1
79	6
80	1
81	2
82	9
83	517
84	24
85	1
86	0
91	1
93	0
94	0
95	3
96	1
97	7
98	0
106	0
107	0
108	0
110	0
112	107
113	6
114	0
