Mass Spectrum: 8-Oxabicyclo[5.1.0]oct-2-en-4-one, 3,6,6-trimethyl-
Formula: C10H14O2
CAS: 52898-23-4
Molecular weight: 166
m/z	intensity
26	3
27	59
29	22
36	2
38	8
39	108
40	16
41	106
42	9
43	66
44	26
45	2
50	13
51	29
52	16
53	76
54	128
55	40
56	28
57	10
61	2
62	2
63	8
64	2
65	17
66	5
67	25
68	5
69	84
70	12
71	3
74	2
75	3
77	28
78	7
79	24
80	13
81	128
82	999
83	94
84	8
85	3
91	65
92	9
93	12
94	5
95	37
96	6
97	9
98	33
99	2
103	3
104	3
105	22
106	6
107	111
108	18
109	72
110	30
111	15
112	2
119	2
120	3
121	9
122	27
123	115
124	14
125	2
129	2
131	2
133	4
135	5
136	4
137	6
138	4
148	2
149	2
150	5
151	12
152	2
164	2
166	147
167	18
168	2
