Mass Spectrum: 1,2,7,8-Octanetetrol
Formula: C8H18O4
CAS: 52894-25-4
Molecular weight: 178
m/z	intensity
15	18
17	5
18	19
26	1
27	35
28	19
29	83
30	5
31	100
32	4
33	1
39	28
40	6
41	235
42	33
43	384
44	53
45	38
46	1
47	19
49	9
51	2
53	20
54	24
55	586
56	43
57	263
58	26
59	9
60	9
61	88
62	3
63	1
65	9
66	6
67	614
68	85
69	124
70	37
71	39
72	10
73	9
74	2
75	2
77	57
78	7
79	62
80	12
81	235
82	64
83	260
84	45
85	89
86	6
87	12
88	1
89	1
91	91
92	8
93	999
94	128
95	20
96	4
97	24
98	4
99	11
100	5
101	15
102	2
105	2
106	1
107	7
108	1
109	7
110	2
111	648
112	142
113	12
114	1
115	4
117	1
118	6
122	1
123	2
124	3
125	8
126	1
127	5
128	1
129	758
130	61
131	5
141	1
143	10
144	1
147	5
148	7
149	1
157	1
159	1
161	4
178	13
179	1
