Mass Spectrum: Benzonitrile, 2-methyl-
Formula: C8H7N
CAS: 529-19-1
Molecular weight: 117
m/z	intensity
15	1
26	7
27	17
28	2
36	1
37	22
38	32
39	87
40	9
41	5
43	9
44	2
45	6
48	1
49	8
50	45
51	51
52	16
53	4
55	1
56	2
57	9
58	19
59	1
60	3
61	21
62	45
63	100
64	47
65	21
66	5
69	1
73	3
74	10
75	23
76	20
77	10
78	4
84	2
85	5
86	9
87	13
88	23
89	222
90	362
91	47
92	2
99	3
100	2
102	2
114	10
115	12
116	474
117	999
118	91
119	4
