Mass Spectrum: 8-Azabicyclo[3.2.1]oct-2-ene, 8-methyl-
Formula: C8H13N
CAS: 529-18-0
Molecular weight: 123
m/z	intensity
42	521
53	137
55	132
57	166
67	128
68	67
79	77
81	69
82	149
91	69
94	999
95	134
108	145
122	56
123	278
