Mass Spectrum: 4,7-Ethanoisobenzofuran-1,3-dione, 5-(acetyloxy)-3a,4,7,7a-tetrahydro-8,8-dimethyl-
Formula: C14H16O5
CAS: 52918-82-8
Molecular weight: 264
m/z	intensity
27	26
28	42
29	19
39	39
40	13
41	56
42	14
43	999
44	28
53	22
55	42
56	22
57	52
91	25
93	16
94	30
95	32
96	24
124	8
148	4
149	30
166	254
167	31
180	16
194	126
195	17
207	13
208	252
209	26
221	26
222	50
223	8
236	32
237	4
264	81
265	11
