Mass Spectrum: Cyclopentadecanone, 2-methyl-
Formula: C16H30O
CAS: 52914-66-6
Molecular weight: 238
m/z	intensity
41	910
42	261
43	557
44	34
53	80
54	82
55	999
56	306
57	332
58	39
59	10
65	9
66	5
67	159
68	120
69	444
70	194
71	124
72	622
73	158
74	5
77	8
78	2
79	37
80	26
81	109
82	112
83	267
84	154
85	321
86	34
93	21
94	24
95	91
96	105
97	191
98	214
99	41
100	6
107	12
108	21
109	42
110	45
111	110
112	50
113	26
114	15
121	29
122	10
123	20
124	18
125	71
126	6
127	19
128	7
135	17
136	3
137	2
139	83
140	4
141	4
142	2
149	9
153	6
156	4
163	4
164	6
166	9
181	8
191	8
209	19
238	44
