Mass Spectrum: 4H-1,3,2-Benzodioxaborin, 2-(pentyloxy)-
Formula: C12H17BO3
CAS: 52910-25-5
Molecular weight: 220
m/z	intensity
41	697
42	999
43	504
44	76
45	54
50	32
51	74
52	38
53	40
54	22
55	745
56	171
57	205
58	42
59	24
60	24
63	30
65	22
67	24
68	22
69	286
70	721
71	624
72	44
75	28
76	34
77	121
78	112
79	40
81	36
83	14
86	16
87	16
89	64
90	36
91	22
101	14
103	34
104	44
105	60
106	32
107	72
108	32
121	24
122	14
130	14
131	46
132	121
133	453
134	80
135	18
144	12
146	24
148	112
149	499
150	447
151	70
152	20
162	68
163	225
164	32
165	12
218	68
219	377
220	467
221	68
222	14
