Mass Spectrum: 4,7-Ethanoisobenzofuran-1,3-dione, 6-(acetyloxy)-3a,4,7,7a-tetrahydro-5-methyl-8-(1-methylethenyl)-
Formula: C16H18O5
CAS: 52918-81-7
Molecular weight: 290
m/z	intensity
28	262
29	27
39	103
40	26
41	124
42	20
43	999
44	45
45	13
50	13
51	32
52	22
53	72
54	28
55	63
63	14
65	37
66	18
67	54
68	74
69	65
77	86
78	38
79	67
80	26
81	17
82	96
83	18
90	21
91	88
92	21
93	29
94	32
95	22
96	22
97	16
99	13
103	13
104	10
105	62
106	467
107	380
108	766
109	250
110	18
113	41
114	6
115	18
117	21
119	22
120	18
121	36
123	21
124	9
125	9
131	18
132	18
133	31
135	68
136	13
145	18
147	20
148	37
149	32
150	50
151	11
152	18
157	22
159	22
160	14
161	26
162	11
174	13
175	67
176	44
180	82
181	10
187	11
208	38
209	11
211	22
220	271
221	41
230	118
231	21
248	68
249	5
262	12
290	131
291	31
