Mass Spectrum: Secobarbital, 2TMS derivative
Formula: C18H34N2O3Si2
CAS: 52937-71-0
Molecular weight: 382
m/z	intensity
41	273
42	46
43	273
44	39
45	132
46	3
47	27
49	3
50	7
51	15
52	31
53	85
54	15
55	113
56	19
57	23
58	15
59	58
60	3
61	39
62	3
63	3
65	15
66	19
67	58
68	11
69	43
70	54
71	39
72	78
73	999
74	101
75	484
76	31
77	62
78	19
79	93
80	23
81	109
82	23
83	23
84	27
85	23
86	50
87	7
88	3
89	23
91	15
93	23
94	23
95	43
96	23
97	27
98	15
99	27
100	371
101	39
102	23
105	3
106	23
107	11
108	23
109	257
110	39
111	15
112	15
113	15
114	15
115	15
116	15
117	15
119	3
120	3
121	3
122	3
123	54
124	27
125	19
126	7
127	11
130	15
131	31
132	15
133	39
134	15
135	3
136	3
137	31
138	31
139	23
140	3
141	7
147	210
148	35
149	27
150	7
151	7
152	46
153	11
154	15
155	3
156	3
157	19
158	23
159	15
160	7
161	3
164	3
166	11
167	7
168	31
169	15
170	7
171	11
172	3
173	7
174	46
175	7
180	23
181	11
182	93
183	23
184	11
188	11
189	3
191	7
193	11
194	11
195	7
196	27
197	23
198	7
207	31
208	23
209	11
210	15
211	19
212	3
213	15
214	3
215	15
223	23
224	54
225	101
226	19
227	7
228	3
231	15
238	23
239	62
240	101
241	39
251	7
252	11
253	11
254	11
255	15
257	19
267	58
268	19
269	46
270	23
271	31
272	7
281	97
282	39
283	109
284	70
285	66
286	23
287	7
295	85
297	999
298	281
299	144
300	39
301	15
311	367
312	882
313	253
314	97
315	19
327	62
328	19
329	3
330	148
331	156
332	46
333	15
353	85
354	46
355	27
356	3
367	804
368	242
369	97
370	23
371	23
372	3
382	46
383	23
384	3
385	3
