Mass Spectrum: 9-Oxabicyclo[6.1.0]nonane, 1-methyl-, cis-
Formula: C9H16O
CAS: 52954-47-9
Molecular weight: 140
m/z	intensity
28	250
29	70
30	200
32	10
39	290
40	60
41	670
42	120
43	230
44	10
50	10
51	40
52	20
53	130
54	110
55	730
56	120
57	110
58	40
63	10
65	40
66	40
67	250
68	140
69	999
70	150
71	120
72	30
77	90
78	20
79	270
80	100
81	190
82	100
83	140
84	80
85	20
91	70
92	20
93	190
94	80
95	40
96	80
97	140
98	120
99	10
105	10
107	100
108	10
109	30
111	460
112	70
122	100
123	10
125	10
138	10
140	40
