Mass Spectrum: s-Triazole, 3-acetamido-
Formula: C4H6N4O
CAS: 5295-23-8
Molecular weight: 126
m/z	intensity
39	20
40	29
41	64
42	335
43	999
44	135
53	40
54	48
55	25
56	23
57	136
59	24
67	10
68	11
69	14
83	9
84	642
85	37
97	9
109	13
110	10
111	13
126	99
127	9
