Mass Spectrum: D-Glucitol, 2-(acetylmethylamino)-2-deoxy-3,6-di-O-methyl-, 1,4,5-triacetate
Formula: C17H29NO9
CAS: 52959-68-9
Molecular weight: 391
m/z	intensity
30	21
31	15
33	12
39	16
41	85
42	99
43	999
44	74
45	245
53	15
54	13
55	50
56	70
57	151
58	66
59	32
60	42
61	14
68	24
69	42
70	55
71	106
72	64
73	52
74	250
75	54
77	23
81	22
82	15
83	17
84	41
85	63
86	48
87	250
88	48
89	12
91	26
94	18
96	16
97	29
98	365
99	261
100	107
101	89
102	33
103	14
110	32
111	64
112	31
113	128
114	38
115	81
116	734
117	160
118	20
119	18
122	11
124	51
125	25
126	19
127	29
128	55
129	235
130	31
131	46
132	14
133	18
135	20
138	12
139	17
140	34
141	15
142	178
143	63
144	11
145	13
147	19
149	28
150	14
152	17
154	18
156	48
157	26
158	384
159	61
161	47
165	14
168	24
170	29
171	19
172	19
173	16
175	14
182	33
183	13
184	24
187	20
188	15
189	25
191	18
195	18
197	20
198	17
202	27
203	21
207	13
211	14
216	21
217	11
230	24
233	140
234	21
242	18
244	25
250	12
253	57
254	14
255	17
260	14
269	13
272	13
276	12
311	14
313	39
315	28
322	51
323	26
331	21
