Mass Spectrum: 2,3,4-Trimethoxy-6-nitrobenzaldehyde
Formula: C10H11NO6
CAS: 52978-83-3
Molecular weight: 241
m/z	intensity
36	37
37	389
38	613
39	437
40	101
41	142
42	26
43	185
44	134
45	122
46	33
49	305
50	605
51	403
52	337
53	825
54	69
55	75
57	22
59	189
60	43
61	257
62	273
63	256
64	121
65	602
66	851
67	124
68	96
69	357
73	55
74	113
75	290
76	303
77	999
78	322
79	196
80	186
81	261
82	137
83	65
85	71
90	33
91	44
92	150
93	895
94	317
95	342
96	59
97	106
98	33
99	43
104	52
105	66
106	169
107	161
108	125
109	370
110	194
111	76
119	20
120	49
121	120
122	258
123	295
124	75
125	360
126	27
133	33
134	41
135	117
136	265
137	428
138	153
139	80
148	59
149	50
150	137
151	191
152	125
153	853
154	27
163	52
164	21
165	96
166	59
167	359
168	266
169	29
178	37
179	28
181	383
182	114
183	13
193	53
195	57
196	349
197	75
198	7
209	21
210	13
211	564
212	61
213	5
224	44
225	7
241	872
242	108
243	6
