Mass Spectrum: 3-Methylene-1-oxa-spiro[4.5]decan-2-one
Formula: C10H14O2
CAS: 52978-85-5
Molecular weight: 166
m/z	intensity
26	10
27	102
28	42
29	65
31	4
37	4
38	18
39	213
40	261
41	296
42	79
43	64
44	9
45	7
50	14
51	36
52	20
53	79
54	66
55	307
56	28
57	41
58	3
59	3
60	3
61	3
62	4
63	16
64	5
65	39
66	26
67	159
68	552
69	86
70	14
71	27
72	3
73	5
74	5
75	4
76	5
77	58
78	18
79	94
80	28
81	116
82	38
83	25
84	5
85	4
89	4
91	37
92	9
93	23
94	22
95	97
96	37
97	24
98	9
99	34
103	5
104	4
105	15
106	2
107	15
108	5
109	24
110	416
111	88
112	10
113	2
115	8
116	3
117	4
118	2
119	7
120	4
121	24
122	13
123	999
124	187
125	18
126	3
127	3
128	3
129	5
130	3
131	10
132	3
135	3
136	3
137	66
138	29
139	7
143	2
144	2
145	3
148	3
151	4
165	7
166	726
167	74
168	9
