Mass Spectrum: 2,6-Nonadienoic acid, 9-(3,3-dimethyloxiranyl)-3,7-dimethyl-, methyl ester, (E,E)-
Formula: C16H26O3
CAS: 5299-11-6
Molecular weight: 266
m/z	intensity
41	530
42	40
43	960
44	60
45	30
51	20
52	10
53	200
54	50
55	370
56	30
57	100
59	200
65	30
66	10
67	210
68	90
69	520
70	30
71	510
72	100
73	10
77	70
78	20
79	180
80	60
81	999
82	410
83	240
84	10
85	180
86	20
91	90
93	290
94	50
95	160
96	40
97	50
99	20
105	60
106	20
107	200
108	50
109	130
110	30
111	40
112	20
114	430
115	30
119	50
120	40
121	210
122	50
123	70
124	20
125	60
126	60
127	20
128	90
133	30
134	50
135	330
136	50
137	30
139	60
148	40
149	40
153	100
163	70
164	20
165	20
194	40
195	10
205	10
206	20
207	20
233	10
234	30
235	20
248	20
266	20
