Mass Spectrum: Oxandrolone
Formula: C19H30O3
CAS: 53-39-4
Molecular weight: 306
m/z	intensity
15	2
26	2
27	36
29	99
30	3
31	12
37	1
38	2
39	100
40	31
41	450
42	57
43	961
44	28
45	38
46	1
49	1
50	3
51	23
52	16
53	217
54	55
55	497
56	34
57	181
58	409
59	83
60	8
61	12
62	1
63	6
64	4
65	98
66	40
67	430
68	186
69	172
70	24
71	999
72	192
73	15
74	12
75	6
77	235
78	52
79	507
80	104
81	501
82	81
83	110
84	17
85	52
86	6
87	4
88	8
89	11
91	452
92	94
93	542
94	158
95	407
96	54
97	88
98	18
99	11
100	2
101	5
102	18
103	33
104	21
105	373
106	126
107	437
108	211
109	258
110	42
111	51
112	12
113	24
114	4
115	39
116	18
117	89
118	53
119	275
120	151
121	387
122	295
123	377
124	48
125	63
126	36
127	20
128	24
129	33
130	15
131	89
132	39
133	187
134	89
135	177
136	36
137	107
138	18
139	81
140	15
141	12
142	8
143	31
144	13
145	103
146	34
147	189
148	65
149	71
150	27
151	24
152	15
153	96
154	16
155	9
156	4
157	34
158	14
159	105
160	46
161	163
162	156
163	142
164	56
165	35
166	13
167	29
168	4
169	7
170	3
171	61
172	21
173	104
174	74
175	178
176	280
177	79
178	21
179	41
180	11
181	52
182	7
183	4
184	2
185	15
186	10
187	43
188	45
189	121
190	25
191	23
192	16
193	27
194	10
195	3
196	1
197	6
198	1
199	16
200	5
201	26
202	15
203	19
204	13
205	20
206	37
207	25
208	4
209	1
210	1
211	6
212	2
213	25
214	12
215	25
216	19
217	27
218	24
219	43
220	36
221	31
222	5
223	1
225	1
226	1
227	7
228	15
229	18
230	13
231	63
232	61
233	162
234	39
235	45
236	53
237	16
238	2
239	1
241	2
242	1
243	2
244	2
245	10
246	186
247	38
248	307
249	242
250	40
251	4
255	5
256	1
257	2
258	1
259	32
260	9
261	2
262	2
263	2
264	1
269	1
270	2
271	1
273	182
274	38
275	5
277	1
278	2
286	1
287	2
288	124
289	28
291	398
292	77
293	10
294	1
306	41
307	8
308	1
