Mass Spectrum: Androstan-17-one, 3-hydroxy-, (3.alpha.,5.beta.)-
Formula: C19H30O2
CAS: 53-42-9
Molecular weight: 290
m/z	intensity
26	11
27	187
28	37
29	368
30	13
31	56
37	2
38	2
39	218
40	21
41	999
42	84
43	251
44	36
45	22
46	1
48	1
49	1
50	4
51	35
52	25
53	339
54	93
55	800
56	61
57	225
58	23
59	13
60	4
61	3
62	1
63	8
64	7
65	139
66	69
67	862
68	176
69	227
70	61
71	34
72	7
73	6
74	6
75	8
76	4
77	342
78	88
79	730
80	159
81	617
82	145
83	117
84	21
85	15
86	3
87	7
88	7
89	8
90	7
91	577
92	141
93	673
94	315
95	433
96	93
97	268
98	28
99	6
100	4
101	14
102	7
103	32
104	37
105	471
106	284
107	614
108	495
109	281
110	98
111	64
112	10
113	3
114	3
115	56
116	22
117	105
118	94
119	306
120	259
121	286
122	187
123	138
124	101
125	30
126	4
127	9
128	28
129	50
130	27
131	151
132	75
133	257
134	197
135	161
136	133
137	55
138	15
139	7
140	2
141	2
142	13
143	71
144	62
145	256
146	100
147	306
148	165
149	164
150	101
151	61
152	18
153	7
154	7
155	12
156	8
157	58
158	108
159	216
160	142
161	305
162	288
163	88
164	85
165	72
166	24
167	10
168	4
169	14
170	7
171	55
172	44
173	158
174	233
175	155
176	299
177	98
178	31
179	11
180	3
181	3
182	3
183	20
184	8
185	47
186	49
187	104
188	69
189	68
190	77
191	26
192	8
193	4
194	3
195	2
196	3
197	40
198	23
199	101
200	54
201	351
202	85
203	45
204	20
205	14
206	5
207	3
209	6
210	3
211	27
212	26
213	177
214	64
215	286
216	409
217	178
218	198
219	57
220	12
221	4
225	10
226	20
227	15
228	299
229	157
230	129
231	82
232	24
233	23
234	20
235	5
236	2
237	6
238	5
239	141
240	32
241	13
242	8
243	36
244	574
245	109
246	306
247	64
248	13
249	3
250	1
251	0
253	5
254	98
255	53
256	30
257	483
258	99
259	14
260	3
262	9
264	2
265	1
266	1
268	2
270	6
271	11
272	568
273	118
274	23
275	52
276	8
277	2
279	1
280	1
281	0
282	0
283	1
285	0
286	1
287	1
288	10
289	4
290	938
291	192
292	23
293	2
