Mass Spectrum: Methedrone
Formula: C11H15NO2
CAS: 530-54-1
Molecular weight: 193
m/z	intensity
15	7
18	1
26	1
27	6
28	25
29	14
30	54
31	1
32	2
37	1
38	6
39	7
40	2
41	8
42	34
43	19
44	2
50	12
51	10
52	2
53	5
54	2
55	5
56	46
57	17
58	999
59	38
60	1
61	1
62	5
63	27
64	35
65	9
66	3
74	4
75	4
76	10
77	61
78	9
79	4
80	1
89	2
90	1
91	5
92	56
93	5
94	1
102	1
103	2
104	2
105	2
106	1
107	17
108	5
109	1
117	1
118	1
119	1
120	2
121	6
122	1
131	1
132	1
133	2
134	2
135	60
136	6
137	1
146	1
147	1
148	1
150	1
160	1
162	2
163	2
164	1
178	2
193	1
