Mass Spectrum: 1,1'-Carbonyldiimidazole
Formula: C7H6N4O
CAS: 530-62-1
Molecular weight: 162
m/z	intensity
41	540
42	31
43	4
44	2
45	2
50	1
51	6
52	5
53	8
54	1
55	2
56	0
57	2
59	0
60	1
64	1
65	1
66	4
67	96
68	999
69	67
70	2
71	0
73	0
77	0
78	1
81	1
82	0
136	0
162	0
