Mass Spectrum: Isoetharine
Formula: C13H21NO3
CAS: 530-08-5
Molecular weight: 239
m/z	intensity
41	169
42	39
43	81
44	10
50	4
51	10
52	7
53	14
54	8
55	13
56	31
57	3
58	415
59	13
62	1
63	6
64	5
65	47
66	5
67	2
68	2
70	14
71	1
72	1
75	1
76	1
77	8
78	2
79	2
80	2
81	10
82	4
84	15
85	1
89	3
90	1
91	2
92	2
93	36
94	5
95	1
98	11
99	2
100	999
101	67
102	3
103	4
104	3
105	3
106	1
107	4
108	1
109	8
110	5
111	9
112	1
115	3
116	1
117	4
118	1
119	1
120	1
121	2
122	7
123	30
124	4
125	1
127	1
130	2
131	3
132	18
133	6
134	2
135	2
136	3
137	27
138	14
139	15
140	1
143	1
145	4
146	2
147	1
148	2
149	4
150	16
151	5
152	3
160	4
161	2
162	5
163	3
164	5
165	1
166	1
174	2
175	1
176	2
177	1
178	6
179	1
180	1
188	1
189	1
190	1
191	1
192	34
193	5
194	1
202	1
204	4
205	1
206	10
207	1
210	1
217	1
218	1
219	3
220	3
221	7
222	1
238	1
239	1
