Mass Spectrum: D-Mannopyranose
Formula: C6H12O6
CAS: 530-26-7
Molecular weight: 180
m/z	intensity
12	4
13	9
14	63
15	213
16	6
17	78
18	290
19	39
24	2
25	10
26	56
27	99
28	242
29	600
30	238
31	897
32	695
33	63
34	2
36	2
37	5
38	7
39	33
40	16
41	63
42	404
43	791
44	281
45	132
46	9
47	56
48	1
49	9
50	4
51	4
52	6
53	13
54	29
55	160
56	279
57	217
58	43
59	31
60	994
61	707
62	39
63	5
64	1
65	2
66	2
67	3
68	19
69	50
70	26
71	310
72	333
73	999
74	171
75	14
76	4
77	10
78	2
79	1
80	5
81	9
82	5
83	10
84	21
85	85
86	45
87	27
88	6
89	28
90	29
91	73
92	5
93	1
94	4
95	7
96	12
97	37
98	30
99	7
100	2
101	66
102	88
103	99
104	7
105	2
106	1
107	1
108	1
109	3
110	5
111	2
112	1
113	12
114	7
115	13
116	9
117	1
118	1
119	28
120	8
121	4
122	1
125	1
126	9
127	7
128	2
131	68
132	8
133	27
134	2
135	1
138	2
143	1
144	8
145	9
146	1
149	18
150	1
163	9
