Mass Spectrum: 4,4,6-Trimethyl-2-(N-methyl-p-methoxyphenylamino)-5,6-dihydro-4H-1,3-thiazine
Formula: C15H22N2OS
CAS: 53004-51-6
Molecular weight: 278
m/z	intensity
39	409
41	694
42	234
43	225
50	63
51	85
52	66
53	109
54	69
55	199
56	97
57	60
58	42
59	125
60	137
61	73
62	26
63	66
64	225
65	112
66	63
67	342
68	45
69	54
70	13
71	10
72	39
73	18
74	26
75	13
76	22
77	88
78	51
79	42
80	19
81	49
82	109
83	60
84	32
85	8
86	31
89	5
90	26
91	11
92	66
93	34
94	26
95	20
96	15
97	999
98	57
99	22
100	155
101	46
102	11
103	7
104	9
105	14
106	11
107	13
108	39
109	10
111	7
112	7
113	5
114	9
115	13
116	12
117	5
118	18
119	42
120	79
121	109
122	155
123	22
124	8
127	5
128	19
130	5
131	8
132	7
133	39
134	19
135	66
136	239
137	186
138	21
139	11
140	6
142	5
143	16
144	9
147	165
148	63
149	17
150	23
151	6
161	14
162	183
163	88
164	12
165	38
166	8
178	24
179	12
180	33
181	6
195	36
196	7
203	21
204	9
221	10
222	6
235	13
236	13
263	199
264	37
277	199
278	209
279	39
