Mass Spectrum: 4,4'-Diisothiocyanatostilbene-2,2'-disulfonic acid
Formula: C16H10N2O6S4
CAS: 53005-05-3
Molecular weight: 454
m/z	intensity
41	12
42	6
43	14
44	257
45	10
46	10
47	5
48	67
49	12
50	12
51	6
52	3
55	12
56	5
57	11
58	9
59	66
60	233
61	7
62	12
64	295
65	8
66	22
67	4
68	3
69	10
70	5
71	7
73	6
74	3
76	999
77	25
78	88
79	3
80	10
81	5
82	4
83	6
84	10
85	3
86	6
89	1
91	2
96	15
97	7
98	3
102	1
103	3
104	3
111	3
114	1
115	8
116	3
143	13
148	5
163	2
177	1
191	1
260	1
292	1
322	1
354	4
