Mass Spectrum: 4,4,6-Trimethyl-2-[m-chlorophenylamino]-5,6-dihydro-4H-1,3-thiazine
Formula: C13H17ClN2S
CAS: 53004-50-5
Molecular weight: 268
m/z	intensity
39	312
41	909
42	479
43	172
50	80
51	129
52	44
53	101
54	49
55	367
56	203
57	158
58	117
59	258
60	449
61	404
62	62
63	108
64	65
65	103
66	39
67	135
68	37
69	103
70	28
71	35
72	91
73	67
74	91
75	207
76	99
77	158
78	31
79	31
80	11
81	64
82	61
83	335
84	171
85	49
86	39
90	93
91	75
92	55
93	263
94	46
98	23
99	85
100	984
101	199
102	79
103	19
110	24
111	226
112	44
113	89
115	52
116	999
117	158
118	25
119	9
134	101
135	101
136	34
137	27
138	20
143	39
144	15
145	13
149	26
150	55
151	78
152	402
153	179
154	145
155	57
159	39
168	239
169	289
170	149
171	109
183	26
185	50
187	20
191	39
192	121
193	125
194	34
195	35
211	18
213	5
235	75
236	389
237	59
238	149
239	19
253	239
254	34
255	89
256	9
268	584
269	99
270	219
271	29
