Mass Spectrum: 4,4,6-Trimethyl-2-[p-bromophenylamino]-5,6-dihydro-4H-1,3-thiazine
Formula: C13H17BrN2S
CAS: 53004-49-2
Molecular weight: 312
m/z	intensity
39	399
41	834
42	489
43	225
50	147
51	88
52	49
53	101
54	49
55	399
56	225
57	128
58	126
59	291
60	559
61	509
62	80
63	211
64	218
65	130
66	34
67	174
68	34
69	103
70	26
71	30
72	82
73	43
74	93
75	159
76	159
77	57
78	14
79	32
80	14
81	59
82	71
83	327
84	181
85	28
86	41
87	11
88	43
89	28
90	284
91	111
92	61
93	22
94	9
95	12
96	12
97	18
98	16
99	43
100	979
101	167
102	82
103	16
105	12
107	12
108	22
109	22
111	14
112	14
113	20
114	22
115	54
116	999
117	181
118	109
119	32
120	7
122	16
123	9
124	7
127	18
128	9
129	11
130	11
131	22
133	11
134	45
135	43
136	12
142	5
143	24
144	7
145	22
149	22
150	64
151	28
152	9
153	7
155	86
157	84
169	36
170	45
171	419
172	69
173	369
181	5
182	9
183	7
184	9
187	9
188	20
189	9
190	20
196	289
197	219
198	313
199	189
200	19
212	145
213	189
214	145
215	181
216	24
228	9
229	9
230	11
231	9
232	9
237	37
239	37
255	7
257	7
269	32
270	128
271	32
272	128
273	14
297	108
298	19
299	116
300	14
312	395
313	69
314	399
315	59
