Mass Spectrum: 2,4-Pentanedione, 1,1-dichloro-
Formula: C5H6Cl2O2
CAS: 53009-77-1
Molecular weight: 168
m/z	intensity
41	120
43	820
83	200
84	20
85	999
86	70
153	90
155	60
157	30
