Mass Spectrum: 4,4,6-Trimethyl-2-[p-methoxyphenylamino]-5,6-dihydro-4H-1,3-thiazine
Formula: C14H20N2OS
CAS: 53004-45-8
Molecular weight: 264
m/z	intensity
39	437
41	999
42	519
43	239
50	79
51	117
52	169
53	219
54	79
55	439
56	155
57	109
58	94
59	214
60	247
61	213
62	49
63	129
64	154
65	114
66	39
67	180
68	41
69	89
70	29
71	30
72	69
73	25
74	39
75	28
76	35
77	129
78	119
79	85
80	94
81	80
82	59
83	209
84	149
85	27
86	51
87	8
88	14
89	19
90	62
91	33
92	89
93	27
94	24
95	109
96	35
97	36
98	17
99	33
100	299
101	47
102	27
103	21
104	21
105	139
106	53
107	39
108	271
109	49
110	15
111	20
112	12
113	13
114	18
115	41
116	719
117	87
118	59
119	35
120	31
121	37
122	246
123	531
124	86
125	22
126	7
127	6
130	6
131	16
132	22
133	282
134	94
135	18
136	8
137	10
138	4
139	22
140	114
141	18
142	8
145	5
146	10
147	75
148	459
149	179
150	114
151	34
152	14
153	5
161	5
162	6
163	20
164	214
165	389
166	99
167	36
168	11
169	4
174	5
175	5
180	24
181	59
182	15
183	4
189	69
190	19
191	6
205	6
206	6
207	11
217	15
221	9
222	17
232	9
249	129
250	19
263	74
264	494
265	79
