Mass Spectrum: 4,4,6-Trimethyl-2-[m-tolylamino]-5,6-dihydro-4H-1,3-thiazine
Formula: C14H20N2S
CAS: 53004-47-0
Molecular weight: 248
m/z	intensity
39	484
41	999
42	450
43	515
50	71
51	132
52	79
53	142
54	72
55	504
56	235
57	449
58	112
59	196
60	286
61	182
62	42
63	102
64	82
65	289
66	49
67	235
68	59
69	214
70	76
71	202
72	69
73	24
74	60
75	29
76	36
77	202
78	109
79	142
80	36
81	152
82	99
83	289
84	156
85	112
86	39
88	20
89	79
90	59
91	429
92	62
93	36
94	25
95	99
96	36
98	26
99	66
100	319
101	79
102	26
103	22
104	109
105	82
106	182
107	749
108	99
109	66
110	22
111	59
112	19
113	22
114	19
115	52
116	679
117	109
118	82
119	29
121	32
122	18
123	62
124	66
125	39
126	15
127	20
131	129
132	504
133	235
134	39
135	22
137	24
139	13
141	13
148	26
149	235
150	92
151	36
153	9
155	8
159	12
163	26
164	42
165	96
166	9
173	102
174	12
177	6
189	10
191	24
205	74
206	159
207	24
233	129
234	19
247	106
248	354
249	49
