Mass Spectrum: 3-Pentanone, 1,5-dimethoxy-
Formula: C7H14O3
CAS: 53005-18-8
Molecular weight: 146
m/z	intensity
41	30
42	40
43	90
44	20
45	999
46	30
53	20
54	20
55	140
56	30
57	10
58	50
59	50
69	20
71	20
82	30
83	100
84	20
85	40
87	200
88	20
99	20
113	20
114	160
115	20
