Mass Spectrum: 4,4,6-Trimethyl-2-(N-methylphenylamino)-5,6-dihydro-4H-1,3-thiazine
Formula: C14H20N2S
CAS: 53004-54-9
Molecular weight: 248
m/z	intensity
39	449
40	94
41	919
42	328
43	79
45	79
46	22
47	26
50	85
51	375
52	74
53	28
54	34
55	344
56	179
57	66
58	86
59	341
60	371
61	231
62	37
63	79
64	59
65	236
66	54
67	92
68	84
69	113
70	22
71	20
72	142
73	51
74	79
75	48
76	51
77	849
78	162
79	127
80	16
81	43
82	21
83	157
84	49
85	17
86	59
87	8
88	12
89	17
90	32
91	214
92	138
93	24
94	12
95	19
96	28
97	979
98	85
99	71
100	714
101	244
102	59
103	88
104	133
105	108
106	859
107	999
108	90
109	129
110	22
111	11
115	48
116	36
117	72
118	169
119	29
126	9
128	81
129	18
130	19
131	78
132	419
133	429
134	62
135	116
136	27
143	34
144	40
145	8
148	99
149	37
150	263
151	34
152	15
159	27
164	25
165	172
166	23
173	156
174	31
191	126
192	24
205	205
206	252
207	48
233	254
234	44
247	909
248	419
249	69
