Mass Spectrum: Naphthalen-2-ol, 1-(1H-1,2,4-triazol-3-ylazo)-
Formula: C12H9N5O
CAS: 53003-96-6
Molecular weight: 239
m/z	intensity
34	4
36	3
37	1
38	11
39	42
40	32
41	22
42	27
43	31
44	20
45	14
46	1
50	25
51	58
52	20
53	13
54	15
55	18
57	42
58	2
59	1
60	5
62	13
63	57
65	45
66	4
67	5
68	17
69	21
70	24
71	6
73	6
75	91
76	40
77	78
78	18
79	23
81	1
82	9
83	17
84	30
85	9
86	16
88	54
89	63
90	4
91	10
92	2
95	2
96	7
97	8
98	7
99	6
101	159
102	83
103	37
104	4
105	11
106	10
108	0
109	1
111	45
112	11
114	999
115	330
116	29
117	1
118	2
119	5
120	5
125	5
127	34
128	265
129	124
130	28
131	2
135	2
136	3
137	2
138	4
139	13
140	34
142	418
143	166
144	56
145	6
146	1
152	1
154	52
155	52
156	61
157	15
158	5
159	8
161	1
164	1
165	3
166	8
167	8
168	8
169	94
170	73
171	26
182	17
183	117
184	54
185	4
194	2
195	17
196	5
210	382
211	126
212	15
213	2
221	34
222	22
223	12
224	3
239	515
240	60
241	4
