Mass Spectrum: 4,4,6-Trimethyl-2-(N-methyl-m-chlorophenylamino)-5,6-dihydro-4H-1,3-oxazine
Formula: C14H19ClN2O
CAS: 53004-38-9
Molecular weight: 266
m/z	intensity
39	189
40	138
41	459
42	321
43	184
44	70
50	489
51	64
52	24
53	39
54	26
55	129
56	340
57	50
58	61
60	6
61	7
62	14
63	70
64	24
65	34
66	15
67	52
68	23
69	91
70	34
73	24
74	18
75	144
76	70
77	153
78	39
79	27
81	13
82	25
83	63
84	999
85	69
87	11
89	12
90	49
91	16
96	10
97	12
99	39
100	11
101	12
102	9
104	46
105	57
106	27
107	16
110	22
111	210
112	123
113	110
114	39
115	16
125	43
126	20
127	59
128	25
129	11
131	14
132	20
133	21
138	52
139	88
140	432
141	803
142	197
143	234
144	29
148	14
149	11
152	23
153	68
154	21
155	37
168	789
169	85
170	239
183	41
185	14
209	12
223	30
224	44
225	26
226	16
251	505
252	79
253	179
254	24
265	319
266	202
267	140
268	67
269	9
