Mass Spectrum: 4,4,6-Trimethyl-2-phenylamino-5,6-dihydro-4H-1,3-thiazine
Formula: C13H18N2S
CAS: 53004-48-1
Molecular weight: 234
m/z	intensity
39	208
41	419
42	312
43	133
50	70
51	264
52	57
53	82
54	34
55	292
56	195
57	169
58	112
59	247
60	379
61	326
62	47
63	66
64	66
65	185
66	70
67	110
68	25
69	70
70	26
71	24
72	74
73	27
74	60
75	28
76	44
77	549
78	97
79	27
81	45
82	41
83	230
84	146
85	28
86	32
88	13
90	20
91	161
92	133
93	999
94	93
96	21
97	15
100	529
101	111
102	29
103	21
104	26
106	11
108	11
109	62
110	46
115	33
116	829
117	119
118	629
119	289
120	29
130	13
134	342
135	312
136	103
137	24
150	29
151	90
152	12
159	119
177	25
191	84
192	296
193	50
194	17
219	205
220	43
234	509
235	79
