Mass Spectrum: 3,4,4,6-Tetramethyl-2-phenyliminotetrahydro-1,3-oxazine
Formula: C14H20N2O
CAS: 53004-29-8
Molecular weight: 232
m/z	intensity
37	15
38	32
39	155
40	30
41	367
42	162
43	117
44	41
45	8
50	27
51	89
52	29
53	42
54	38
55	261
56	999
57	79
58	39
63	47
64	89
65	98
66	36
67	51
68	33
69	504
70	95
71	152
72	64
73	8
74	7
75	16
76	30
77	194
78	27
79	25
80	11
81	14
82	34
83	70
84	239
85	22
90	24
91	149
92	76
93	204
94	28
95	18
96	23
97	23
98	100
99	13
101	14
103	16
104	28
105	39
106	434
107	55
112	16
117	16
118	27
119	291
120	237
121	27
131	58
132	107
133	54
134	23
146	22
147	17
148	66
149	294
150	24
189	101
190	11
217	12
231	199
232	365
233	49
