Mass Spectrum: 4,4,6-Trimethyl-2-(N-methyl-m-chlorophenylamino)-5,6-dihydro-4H-1,3-thiazine
Formula: C14H19ClN2S
CAS: 53004-56-1
Molecular weight: 282
m/z	intensity
39	376
41	824
42	289
43	114
50	114
51	135
52	58
53	104
54	42
55	319
56	189
57	85
58	91
59	262
60	389
61	244
62	52
63	126
64	56
65	92
66	44
67	159
68	95
69	135
70	24
71	23
72	126
73	69
74	89
75	235
76	159
77	85
78	55
79	47
80	17
81	49
82	46
83	159
84	67
85	36
86	55
90	76
91	37
92	31
93	23
94	46
95	48
97	769
98	59
99	124
100	999
101	319
102	109
103	28
104	61
105	48
106	28
107	23
108	39
111	269
112	86
113	108
114	34
115	44
116	52
117	22
120	43
125	103
126	62
127	73
128	116
129	26
131	71
132	69
133	22
137	26
138	76
139	73
140	419
141	534
142	194
143	275
144	48
145	23
148	16
149	25
150	22
151	86
152	83
153	25
154	28
163	17
164	41
165	47
166	253
167	275
168	113
169	167
170	28
171	43
182	50
184	199
186	65
193	17
199	53
207	110
208	84
209	50
225	85
227	34
239	217
240	344
241	144
242	126
267	579
268	89
269	209
281	399
282	329
283	159
284	119
