Mass Spectrum: 3,4,4,6-Tetramethyl-2-(m-chlorophenylimino)-tetrahydro-1,3-oxazine
Formula: C14H19ClN2O
CAS: 53004-31-2
Molecular weight: 266
m/z	intensity
39	209
41	504
42	224
43	209
50	27
51	27
52	16
53	42
54	39
55	279
56	999
57	85
58	41
62	16
63	60
64	34
65	28
66	11
67	60
68	30
69	594
70	91
71	114
72	50
73	14
74	9
75	44
76	14
77	22
79	8
81	11
82	37
83	81
84	319
85	29
89	13
90	73
91	23
92	12
93	16
97	16
98	92
99	31
100	9
105	8
106	25
107	12
111	57
112	24
113	23
118	8
119	23
120	14
124	10
125	61
126	39
127	106
128	22
129	31
130	7
131	8
132	10
138	12
139	17
140	167
141	31
142	59
148	14
149	15
153	136
154	85
155	55
156	26
165	25
166	47
167	31
168	18
180	8
181	9
182	26
183	122
184	31
185	45
223	54
225	18
265	136
266	190
267	74
268	73
