Mass Spectrum: 3,4,4,6-Tetramethyl-2-(p-bromophenylimino)-tetrahydro-1,3-oxazine
Formula: C14H19BrN2O
CAS: 53004-30-1
Molecular weight: 310
m/z	intensity
38	36
39	174
40	99
41	433
42	187
43	139
44	56
50	36
51	25
52	14
53	37
54	32
55	283
56	999
57	79
58	41
62	21
63	90
64	46
65	37
66	13
67	55
68	31
69	665
70	89
71	145
72	56
75	30
76	34
77	20
79	10
81	13
82	36
83	92
84	509
85	39
90	155
91	40
92	25
93	14
97	16
98	86
99	10
102	12
104	7
105	15
106	26
112	13
116	9
117	8
118	11
119	28
120	11
126	13
131	10
134	7
140	8
141	6
143	10
145	10
147	19
148	46
149	23
155	24
156	8
157	24
169	41
170	27
171	83
172	28
173	52
184	124
185	24
186	119
187	11
197	125
198	29
199	120
200	13
210	33
211	26
212	31
227	106
228	16
229	102
230	13
267	26
269	26
309	41
310	169
311	49
312	169
313	29
