Mass Spectrum: 2,2,4a,6a,8a,9,12b,14a-Octamethyl-1,2,3,4,4a,5,6,6a,6b,7,8,8a,9,12,12a,12b,13,14,14a,14b-eicosahydropicene
Formula: C30H50
CAS: 53013-35-7
Molecular weight: 410
m/z	intensity
27	15
28	19
29	81
39	16
40	21
41	245
42	15
43	157
44	7
51	6
52	7
53	69
54	19
55	487
56	187
57	40
58	12
65	33
66	16
67	299
68	100
69	716
70	67
71	60
72	7
73	5
74	7
75	7
76	100
77	292
78	22
79	141
81	654
82	207
83	294
84	28
85	32
86	7
87	12
88	11
89	9
90	250
91	6
92	57
93	510
94	174
95	999
96	430
97	215
98	24
99	12
100	11
101	16
102	14
103	16
104	298
105	11
106	122
107	627
108	315
109	785
110	121
111	238
112	27
113	14
114	14
115	39
116	12
117	34
118	19
119	266
120	160
121	579
122	283
123	522
124	133
125	322
126	39
127	14
128	16
129	20
130	14
131	70
132	41
133	198
134	192
135	296
136	338
137	311
138	73
139	27
140	8
141	15
142	16
143	26
144	15
145	77
146	35
147	266
148	123
149	287
150	121
151	131
152	31
153	12
154	7
155	19
156	12
157	30
158	15
159	68
160	27
161	172
162	73
163	272
164	70
165	39
166	8
167	6
168	5
169	10
170	10
171	33
172	24
173	96
174	35
175	229
176	80
177	208
178	47
179	109
180	20
181	7
182	7
183	11
184	7
185	21
186	12
187	104
188	76
189	216
190	157
191	289
192	103
193	25
194	10
195	6
196	5
197	8
198	7
199	14
200	14
201	66
202	78
203	160
204	238
205	503
206	361
207	122
208	18
209	6
210	4
211	7
212	4
213	15
214	12
215	98
216	55
217	66
218	608
219	219
220	57
221	18
222	8
223	5
224	4
225	7
226	4
227	9
228	10
229	48
230	38
231	139
232	56
233	19
234	24
235	8
236	4
237	4
238	4
239	7
240	4
241	15
242	6
243	61
244	22
245	84
246	33
247	14
248	10
249	4
250	4
251	5
252	4
253	6
254	4
255	14
256	8
257	141
258	60
259	117
260	34
261	23
262	10
263	6
264	4
265	4
267	5
268	4
269	7
270	6
271	56
272	31
273	57
274	136
276	40
277	8
278	4
280	3
281	5
282	4
283	5
284	7
285	19
286	53
287	62
288	34
289	11
290	4
295	4
296	3
297	5
298	5
299	26
300	18
301	29
302	10
303	4
304	3
305	4
309	4
310	4
311	7
312	6
313	19
314	8
315	4
317	3
323	4
324	4
325	8
326	9
327	47
328	28
329	8
330	4
337	4
339	7
340	7
341	61
342	261
343	71
344	12
345	4
346	4
347	5
349	4
353	8
354	7
355	7
367	25
368	12
369	8
377	14
378	7
379	6
380	6
381	8
382	5
391	5
392	9
393	18
394	8
395	204
396	70
397	14
398	4
406	5
407	5
408	22
409	11
410	376
411	135
412	22
413	5
