Mass Spectrum: (1-Amino-2-methyl-propyl)-phosphonic acid, 2TMS derivative
Formula: C10H28NO3PSi2
CAS: 53044-33-0
Molecular weight: 297
m/z	intensity
41	25
42	15
43	30
44	20
45	75
46	10
47	25
55	120
56	50
57	25
58	15
59	25
61	20
63	20
70	15
71	90
72	999
73	260
74	30
75	100
76	10
77	25
78	15
84	20
102	10
115	10
121	30
131	10
133	55
134	10
135	65
136	10
137	10
144	10
147	70
148	10
149	20
151	10
195	70
196	10
197	10
209	15
210	15
211	250
212	35
213	20
225	20
226	60
227	20
241	15
254	55
255	15
267	6
282	18
297	12
