Mass Spectrum: Prosta-5,8(12),13-trien-1-oic acid, 9-oxo-15-[(trimethylsilyl)oxy]-, trimethylsilyl ester, (5Z,13E,15S)-
Formula: C26H46O4Si2
CAS: 53044-54-5
Molecular weight: 478
m/z	intensity
72	22
73	999
74	109
75	649
76	45
77	64
78	16
79	38
80	4
81	22
83	16
85	4
86	29
89	11
91	66
92	4
93	18
95	13
96	27
97	9
99	11
101	22
103	68
104	22
105	123
106	13
107	27
108	4
109	27
110	11
111	9
113	6
115	59
116	45
117	379
118	43
119	52
120	16
121	27
122	6
123	9
125	2
127	16
128	38
129	215
130	77
131	105
132	52
133	148
134	32
135	36
136	6
137	4
141	32
142	27
143	132
144	29
145	121
146	38
147	151
148	27
149	34
150	4
151	16
153	11
154	6
155	75
156	18
157	100
158	25
159	86
160	45
161	68
162	6
163	9
165	13
166	11
167	29
168	11
169	41
170	16
171	77
172	27
173	274
174	59
175	52
176	13
177	6
178	2
179	123
180	27
181	36
182	13
183	45
184	18
185	114
186	20
187	50
188	36
189	32
190	18
191	22
192	45
193	54
194	27
195	18
196	4
197	18
199	86
200	22
201	41
202	27
203	178
204	80
205	57
206	11
207	64
208	11
209	36
210	2
211	2
213	16
214	2
215	155
216	36
217	45
218	13
219	29
220	13
221	64
222	16
223	13
225	6
227	75
228	16
229	34
230	6
231	13
233	57
234	18
235	27
236	4
237	4
239	16
241	18
242	18
243	27
244	4
245	11
246	4
247	27
248	11
249	27
250	2
251	4
252	2
253	2
255	11
256	4
257	32
258	6
259	6
260	2
261	25
262	6
263	9
264	2
265	2
269	2
270	4
271	11
273	57
274	4
275	27
276	6
277	13
278	4
279	109
280	27
281	22
282	4
283	2
285	6
286	45
287	4
289	45
290	13
291	64
292	25
293	16
294	4
295	2
297	2
298	16
299	20
300	2
301	9
303	11
304	32
305	558
306	132
307	41
308	2
313	2
314	4
315	2
317	82
318	18
319	25
320	2
321	4
331	11
333	4
334	2
335	2
341	2
347	6
351	4
360	4
361	13
362	11
363	6
365	4
373	64
374	13
375	27
376	6
377	13
378	57
379	823
380	286
381	210
382	57
383	18
388	228
389	80
390	36
391	11
392	11
393	11
407	192
408	66
409	48
410	13
421	2
436	13
449	36
450	13
451	6
462	48
463	299
464	105
465	61
466	18
467	4
478	297
479	109
480	68
481	18
