Mass Spectrum: Prostaglandin B2 methyl ester, TBDMS derivative
Formula: C27H46O4Si
CAS: 53044-55-6
Molecular weight: 462
m/z	intensity
71	62
72	14
73	999
74	129
75	791
76	59
77	91
78	24
79	107
80	14
81	81
82	14
83	40
84	4
85	57
86	7
87	14
89	139
90	16
91	191
92	33
93	81
94	14
95	71
96	16
97	40
98	12
99	64
100	14
101	36
102	12
103	36
104	28
105	172
106	26
107	48
108	9
109	40
110	9
111	19
112	4
113	19
114	9
115	115
116	50
117	139
118	33
119	86
120	19
121	57
122	12
123	21
124	7
125	12
127	31
128	43
129	112
130	33
131	115
132	36
133	172
134	40
135	57
136	12
137	16
139	9
140	7
141	48
142	28
143	81
144	24
145	155
146	38
147	139
148	26
149	55
150	14
151	24
152	7
153	19
154	14
155	59
156	16
157	88
158	28
159	146
160	48
161	103
162	16
163	19
164	2
165	19
166	14
167	38
168	16
169	67
170	19
171	119
172	33
173	119
174	36
175	43
176	7
177	14
178	7
179	14
180	4
181	38
182	12
183	62
184	16
185	112
186	31
187	71
188	16
189	48
190	12
191	36
192	12
193	33
194	12
195	21
196	7
197	38
198	12
199	67
200	16
201	110
202	38
203	129
204	31
205	31
207	107
208	28
209	31
210	14
211	31
212	7
213	24
215	302
216	62
217	91
218	16
219	31
221	71
222	28
223	19
224	9
225	24
226	7
227	67
228	14
229	40
230	9
231	16
232	4
233	64
234	38
235	19
236	7
237	14
238	4
239	40
240	9
241	19
242	7
243	24
245	26
246	14
247	230
248	48
249	19
250	2
251	7
253	14
255	9
257	33
259	43
260	9
261	14
263	36
264	43
265	24
267	7
269	12
271	24
272	4
273	26
274	7
275	28
276	7
277	48
278	14
279	16
281	67
282	14
283	2
285	7
289	16
290	2
291	14
293	4
299	275
300	55
301	14
303	4
305	14
307	7
309	2
317	28
318	2
319	4
321	88
322	16
323	2
330	24
331	38
332	9
333	9
334	9
335	9
341	4
344	19
346	14
347	28
349	9
355	14
359	19
361	14
363	323
364	88
365	19
373	148
374	40
375	16
387	2
391	256
392	71
393	16
405	997
406	378
407	110
431	141
432	43
433	19
447	31
448	7
462	575
463	196
464	55
