Mass Spectrum: 3-Methoxy-2-nitrobenzaldehyde
Formula: C8H7NO4
CAS: 53055-05-3
Molecular weight: 181
m/z	intensity
14	10
15	82
17	4
18	16
25	5
26	52
27	68
28	64
29	151
30	166
31	28
32	4
36	10
37	129
38	212
39	293
40	22
41	84
42	15
43	16
44	19
45	16
46	14
49	35
50	376
51	416
52	265
53	159
54	32
55	39
59	127
60	14
61	81
62	228
63	617
64	259
65	851
66	107
67	152
68	27
69	12
70	5
73	32
74	157
75	246
76	864
77	694
78	168
79	290
80	109
81	16
83	6
86	7
89	8
90	34
91	182
92	240
93	158
94	44
95	178
96	23
103	43
104	182
105	620
106	173
107	80
108	126
109	12
118	37
119	999
120	149
121	122
122	29
123	30
133	126
134	100
135	21
136	361
137	33
138	5
146	25
147	5
149	14
150	11
151	34
163	8
164	9
181	60
182	7
