Mass Spectrum: (3aR,4R,8R,8aS)-3a,4,7,8a-Tetramethyl-1,2,3,3a,4,5,8,8a-octahydro-4,8-methanoazulene
Formula: C15H24
CAS: 53060-59-6
Molecular weight: 204
m/z	intensity
26	1
27	16
29	22
38	3
39	74
40	14
41	132
42	11
43	19
50	6
51	28
52	18
53	99
54	8
55	165
58	2
59	1
62	1
63	13
64	7
65	89
66	22
67	152
68	22
69	39
72	2
74	1
75	2
76	3
77	203
78	37
79	166
80	32
81	327
82	18
83	8
89	4
90	3
91	354
92	59
93	999
94	431
95	633
96	429
97	99
98	5
101	2
102	4
103	22
104	8
105	104
106	221
107	567
108	969
109	339
110	30
111	74
112	6
115	32
116	11
117	30
121	94
122	21
123	250
124	22
125	3
126	1
127	3
128	20
129	19
130	7
131	17
132	3
133	54
134	11
135	13
136	54
137	5
141	1
142	3
143	2
144	1
145	11
148	7
149	6
159	2
175	27
176	7
177	1
189	53
190	9
204	100
205	16
206	3
