Mass Spectrum: N-Benzyloxy-2-carbomethoxyazetidine
Formula: C12H15NO3
CAS: 53084-25-6
Molecular weight: 221
m/z	intensity
51	94
52	25
55	65
56	29
65	133
66	5
76	14
77	141
78	32
90	21
91	999
92	78
93	5
162	94
163	5
221	141
222	21
223	2
