Mass Spectrum: D-Glycero-.alpha.-D-galacto-2-Nonulopyranosidonic acid, methyl 5-(acetylamino)-3,5-dideoxy-4,7,8,9-tetrakis-O-(trimethylsilyl)-, methyl ester
Formula: C25H55NO9Si4
CAS: 53081-21-3
Molecular weight: 625
m/z	intensity
30	15
31	18
41	16
42	11
43	78
44	43
45	72
47	39
55	19
56	13
57	16
59	37
61	15
70	13
71	11
72	23
73	999
74	110
75	372
76	27
77	32
81	13
82	13
84	35
85	17
89	57
93	11
96	17
98	13
100	19
101	25
102	12
103	152
104	15
105	29
109	13
110	12
113	21
114	13
115	28
116	115
117	147
118	18
119	19
126	44
127	12
128	27
129	62
130	25
131	59
132	40
133	162
134	24
135	15
139	11
142	17
143	91
144	78
145	32
146	12
147	293
148	50
149	41
152	11
154	25
155	19
156	25
157	68
158	25
159	34
160	29
161	15
163	15
166	11
167	45
168	28
169	34
170	32
171	13
172	58
173	49
174	19
175	38
180	14
181	15
182	15
183	11
184	16
185	14
186	184
187	58
188	19
189	35
190	11
191	52
192	23
193	11
196	32
197	19
198	39
199	60
200	20
201	16
202	17
203	45
204	154
205	190
206	59
207	47
208	50
209	15
210	18
211	18
212	26
213	29
214	28
215	15
216	16
217	157
218	51
219	26
221	21
222	14
224	13
226	31
227	55
228	46
229	18
230	39
231	38
232	22
234	13
239	11
240	44
241	22
242	17
243	31
244	43
245	24
246	37
247	21
249	14
252	15
254	13
255	14
256	34
257	17
258	47
259	207
260	49
261	18
265	19
266	29
267	14
268	16
269	16
270	36
271	28
272	36
273	16
281	20
282	17
283	11
284	13
286	14
287	17
288	22
291	12
296	13
298	391
299	86
300	238
301	78
302	33
303	28
304	11
307	19
308	11
310	12
314	11
315	11
318	21
319	18
324	19
327	17
328	15
329	34
330	44
331	20
332	14
341	15
342	156
343	50
344	19
346	20
355	18
356	13
358	24
359	15
360	54
361	27
362	15
371	18
372	15
373	72
374	24
375	13
376	18
388	40
389	13
390	14
391	28
392	11
400	30
418	17
420	202
421	68
422	35
432	17
434	24
494	14
566	101
567	57
568	36
569	11
609	28
610	15
