Mass Spectrum: 2-Butenoic acid, 2-methyl-, 3-methylpentyl ester, (Z)-
Formula: C11H20O2
CAS: 53082-58-9
Molecular weight: 184
m/z	intensity
26	4
27	81
28	24
29	167
30	4
31	5
37	1
38	6
39	163
40	21
41	246
42	41
43	646
44	24
45	13
50	9
51	20
52	12
53	106
54	94
55	813
56	195
57	249
58	13
59	3
60	1
65	3
66	1
67	13
68	5
69	400
70	25
72	3
73	6
74	1
81	4
82	156
83	669
84	318
85	560
86	35
87	2
95	1
97	1
98	2
99	21
100	999
101	266
102	17
103	1
109	1
110	2
111	2
112	1
113	5
114	1
123	1
125	1
127	11
128	1
129	1
155	5
156	1
169	1
184	72
185	9
186	1
