Mass Spectrum: N-Ethylpiperazine
Formula: C6H14N2
CAS: 5308-25-8
Molecular weight: 114
m/z	intensity
14	1
15	11
18	3
26	9
27	56
28	137
29	77
30	75
31	1
38	1
39	6
40	10
41	52
42	342
43	61
44	140
45	5
48	2
49	12
51	1
52	5
53	3
54	36
55	33
56	307
57	298
58	197
59	13
60	1
66	1
67	1
68	10
69	10
70	72
71	30
72	999
73	55
74	1
80	1
81	5
82	5
83	13
84	47
85	22
86	1
87	1
95	1
97	15
98	5
99	107
100	8
111	3
113	12
114	225
115	18
116	1
