Mass Spectrum: N-Benzyloxy-2-isopropoxycarbonylazetidine
Formula: C14H19NO3
CAS: 53084-27-8
Molecular weight: 249
m/z	intensity
51	26
52	9
55	148
56	51
65	120
66	4
76	15
77	151
78	35
90	25
91	999
92	78
93	6
162	73
163	5
207	15
249	26
250	5
251	1
