Mass Spectrum: N-Isopropoxy-2-carbomethoxyaziridine
Formula: C7H13NO3
CAS: 53084-32-5
Molecular weight: 159
m/z	intensity
27	208
28	312
29	39
41	453
42	117
43	999
44	65
45	429
46	13
55	416
56	39
59	143
60	13
84	26
85	286
86	13
87	533
88	26
100	52
101	13
117	208
118	13
127	26
128	13
159	33
160	3
