Mass Spectrum: Benzene, 1,1'-[1,3-propanediylbis(oxymethylene)]bis-
Formula: C17H20O2
CAS: 53088-81-6
Molecular weight: 256
m/z	intensity
39	33
41	39
51	31
59	59
63	15
65	116
77	77
78	26
79	153
89	26
90	15
91	999
92	145
104	18
105	46
106	13
107	636
108	51
147	20
165	576
166	62
167	5
