Mass Spectrum: N-Benzyloxy-2-carbethoxyazetidine
Formula: C13H17NO3
CAS: 53084-26-7
Molecular weight: 235
m/z	intensity
51	68
52	21
55	143
56	53
65	125
66	5
76	14
77	132
78	32
90	21
91	999
92	78
93	7
162	68
163	7
235	58
236	10
237	1
