Mass Spectrum: Cholest-4-en-3-ol, (3.beta.)-, TMS derivative
Formula: C30H54OSi
CAS: 53084-65-4
Molecular weight: 458
m/z	intensity
40	3
41	11
42	5
43	51
44	13
46	7
55	2
56	11
57	11
58	166
59	27
60	2
67	27
68	7
69	74
70	9
71	145
72	5
73	33
74	3
75	127
76	7
77	13
78	2
79	9
80	5
81	215
82	31
83	145
84	15
85	49
91	15
92	11
93	45
94	23
95	284
96	29
97	117
98	11
99	15
103	2
104	2
105	54
106	41
107	211
108	51
109	182
110	25
111	109
112	9
113	19
114	2
115	2
116	2
117	21
118	13
119	127
120	109
121	311
122	51
123	94
124	13
125	51
126	3
127	25
128	2
129	999
130	145
131	111
132	31
133	109
134	43
135	160
136	29
137	52
138	5
139	21
141	5
142	11
143	111
144	23
145	182
146	72
147	145
148	64
149	129
150	15
151	41
152	7
153	15
154	2
155	54
156	13
157	19
158	25
159	109
160	152
161	174
162	51
163	145
164	19
165	39
166	5
167	5
168	5
169	15
170	2
171	23
172	9
173	54
174	29
175	62
176	9
177	51
178	9
179	23
180	2
181	11
182	9
183	7
185	25
186	5
187	21
188	9
189	52
190	11
191	33
192	5
193	31
194	5
195	9
196	15
197	13
198	3
199	29
200	19
201	43
202	17
203	74
204	11
205	31
206	25
207	29
208	5
209	5
210	2
211	2
212	2
213	94
214	27
215	43
216	13
217	66
218	11
219	47
220	13
221	9
223	2
227	19
228	25
229	25
230	5
231	13
232	2
233	43
234	7
235	7
241	15
242	3
243	5
245	25
246	23
247	152
248	31
249	5
250	5
251	3
253	5
255	143
256	35
257	11
258	3
259	31
260	23
261	11
262	2
269	2
271	2
272	17
273	23
274	56
275	11
280	5
282	5
283	2
285	2
286	5
287	2
290	2
297	3
299	3
300	3
301	31
302	7
303	3
310	5
311	2
312	5
313	5
314	2
325	3
326	15
327	35
328	121
329	601
330	147
331	19
338	9
339	15
340	5
341	3
342	2
344	5
353	231
354	76
355	13
368	405
369	145
370	29
443	45
444	27
445	11
457	19
458	109
459	52
460	27
461	13
