Mass Spectrum: N-Benzyloxy-2-carbomethoxyaziridine
Formula: C11H13NO3
CAS: 53084-33-6
Molecular weight: 207
m/z	intensity
27	42
28	42
29	21
30	10
39	32
40	10
41	53
42	21
51	64
52	16
65	74
66	9
77	106
78	21
91	999
92	128
93	11
105	32
106	21
107	21
108	10
207	10
208	1
