Mass Spectrum: N-Isopropoxy-2-carbomethoxyazetidine
Formula: C8H15NO3
CAS: 53084-24-5
Molecular weight: 173
m/z	intensity
26	31
27	224
28	544
29	155
30	11
41	389
42	155
43	583
44	233
45	136
46	9
54	175
55	447
56	87
57	6
59	583
60	31
69	301
70	68
71	97
72	999
73	97
74	7
87	544
88	58
89	5
101	485
102	54
103	4
114	272
115	21
131	369
132	34
158	19
173	78
174	7
175	1
