Mass Spectrum: Methyl 2,3,6-tri-O-acetyl-4-O-methyl-.alpha.-D-mannopyranoside
Formula: C14H22O9
CAS: 53098-96-7
Molecular weight: 334
m/z	intensity
41	159
42	69
43	999
44	46
45	78
53	15
54	10
55	25
56	10
57	69
58	21
59	65
60	20
61	24
69	78
70	97
71	559
72	29
73	37
74	649
75	99
81	46
82	29
83	20
84	11
85	69
86	10
87	999
88	88
89	11
95	14
97	46
98	33
99	189
100	44
101	46
102	83
103	58
109	46
110	11
111	74
112	239
113	149
114	15
115	46
116	219
117	92
127	36
129	789
130	359
131	51
139	20
140	19
141	119
142	18
143	10
144	31
145	46
154	41
155	88
156	8
157	10
159	18
169	46
171	9
172	109
173	31
182	16
183	13
189	31
200	7
201	28
214	36
215	51
216	6
242	20
243	38
244	5
261	11
275	7
303	24
304	5
