Mass Spectrum: N-Thiobutyro-morpholine
Formula: C8H15NOS
CAS: 5309-97-7
Molecular weight: 173
m/z	intensity
30	448
31	79
32	60
34	10
40	29
41	69
42	180
43	39
44	331
45	39
48	70
55	49
56	78
57	999
58	89
64	30
72	10
85	9
86	250
87	509
88	30
115	9
129	40
173	30
