Mass Spectrum: Benzene, [(3-methyl-1,3-butadienyl)thio]-
Formula: C11H12S
CAS: 53097-26-0
Molecular weight: 176
m/z	intensity
39	86
41	86
51	57
65	114
97	71
98	100
99	999
100	57
110	57
129	86
143	229
161	86
176	286
177	29
