Mass Spectrum: 2,3,4,5-Tetrahydroxypentanal
Formula: C5H10O5
CAS: 53106-52-8
Molecular weight: 150
m/z	intensity
26	15
27	75
28	55
29	177
31	232
33	4
38	3
39	27
40	17
41	32
42	138
43	312
44	133
45	120
46	5
47	40
49	9
53	4
54	13
55	65
56	61
57	160
58	36
59	10
60	515
61	206
62	9
68	21
69	20
71	156
72	62
73	999
74	74
75	9
77	11
83	8
84	3
85	18
86	71
87	9
88	3
89	21
90	14
91	38
101	44
102	14
103	12
104	4
114	10
115	3
119	48
133	3
