Mass Spectrum: 1-Hexene, 3-chloro-
Formula: C6H11Cl
CAS: 53101-38-5
Molecular weight: 118
m/z	intensity
37	20
38	50
39	480
40	70
41	999
42	200
43	960
44	30
49	40
50	40
51	80
52	30
53	260
54	200
55	630
56	230
57	10
61	10
62	20
63	30
64	10
65	30
66	10
67	260
68	20
69	70
70	10
71	30
73	10
74	10
75	150
76	180
77	70
78	90
79	20
81	30
82	50
83	270
84	20
88	10
89	120
90	590
91	60
92	190
93	10
103	10
118	110
119	10
120	40
