Mass Spectrum: Tricyclo[5.3.0.0(3,9)]decane
Formula: C10H16
CAS: 53130-27-1
Molecular weight: 136
m/z	intensity
26	7
27	148
28	6
29	73
30	3
36	2
37	4
38	14
39	294
40	49
41	383
42	25
43	22
44	4
45	2
46	2
47	3
50	20
51	73
52	41
53	160
54	146
55	134
56	11
57	12
58	6
62	5
63	25
64	10
65	126
66	215
67	893
68	148
69	44
70	5
71	7
74	3
75	6
76	4
77	261
78	106
79	774
80	999
81	289
82	140
83	12
84	4
85	5
89	7
90	3
91	196
92	70
93	807
94	661
95	603
96	48
97	4
98	2
103	9
104	4
105	31
106	15
107	357
108	230
109	23
110	3
115	7
116	3
117	5
118	3
119	13
120	3
121	478
122	49
123	4
127	3
128	4
129	3
133	4
134	18
135	23
136	314
137	38
138	4
