Mass Spectrum: Pyridin-2-one, 1,2-dihydro-1,6-dimethyl-3-nitro-
Formula: C7H8N2O3
CAS: 53133-38-3
Molecular weight: 168
m/z	intensity
33	8
34	1
38	77
39	167
40	82
41	82
42	125
44	28
46	133
48	9
50	61
51	177
53	999
55	261
56	345
57	22
58	7
60	8
61	28
62	54
63	109
64	69
65	96
66	132
67	96
69	71
70	10
71	3
74	5
75	9
76	16
77	37
78	53
79	79
80	49
81	65
82	55
83	10
84	1
88	1
89	2
91	47
92	49
93	128
94	90
95	15
96	1
97	1
99	1
101	1
102	0
104	6
105	12
107	75
108	30
110	451
111	16
119	7
120	12
122	48
123	17
126	1
132	1
135	0
136	2
138	48
139	2
140	1
148	1
151	42
152	29
153	0
165	2
166	10
168	405
169	25
171	7
