Mass Spectrum: 3-(4-Nitrophthalimidomethylamino)benzoic acid
Formula: C16H11N3O6
CAS: 53138-37-7
Molecular weight: 341
m/z	intensity
34	1
37	110
38	127
39	144
40	36
41	34
42	11
43	41
44	68
45	101
46	39
47	1
49	37
50	235
51	301
52	99
53	63
54	8
55	17
56	7
57	11
59	4
61	78
62	108
63	150
65	422
66	64
67	9
68	5
69	8
70	19
71	7
73	99
74	542
75	999
76	170
77	201
78	74
79	9
80	4
81	5
82	1
83	3
84	4
85	3
86	4
87	10
88	18
89	17
90	17
91	36
92	31
93	43
94	6
95	1
96	1
97	3
99	3
100	12
101	15
103	999
104	131
105	37
106	28
107	3
109	1
111	1
117	9
119	51
121	260
122	18
123	1
129	4
130	3
131	1
132	48
133	5
134	3
135	1
137	18
138	1
145	6
146	80
148	713
149	859
150	78
151	8
159	24
160	1
162	61
163	5
171	1
176	14
177	2
192	434
193	31
194	7
205	25
206	1
341	12
342	2
