Mass Spectrum: Methyl-2,3-di-O-methyl-4-O-(2,3,4-tri-O-methyl.alpha.l-rhamnopyranosyl).alpha.l-rhamnopyranoside
Formula: C18H34O9
CAS: 53130-99-7
Molecular weight: 394
m/z	intensity
59	34
72	117
75	94
85	16
88	999
97	12
99	30
101	129
113	16
117	15
125	16
129	32
131	12
145	129
157	55
189	164
203	8
249	152
259	5
262	26
275	14
