Mass Spectrum: 18,3-Epoxypregn-9(11)-en-20-one, 3.beta.-methoxy- (5.beta)-
Formula: C22H32O3
CAS: 53139-20-1
Molecular weight: 344
m/z	intensity
26	11
27	61
29	108
30	9
31	16
33	12
39	75
40	19
41	348
42	43
43	999
44	48
45	90
46	10
50	11
51	29
52	16
53	141
54	25
55	220
56	33
57	80
58	51
59	71
60	19
61	9
62	6
63	15
64	8
65	72
66	25
67	138
68	25
69	88
70	37
71	230
72	23
73	41
74	35
75	17
76	14
77	190
78	70
79	248
80	39
81	333
82	38
83	53
84	72
85	577
86	45
87	35
88	11
89	21
90	11
91	476
92	69
93	153
94	50
95	85
96	22
97	57
98	20
99	25
100	11
101	19
102	14
103	66
104	50
105	418
106	69
107	86
108	39
109	62
110	26
111	31
112	17
113	20
114	16
115	153
116	80
117	225
118	170
119	192
120	65
121	68
122	39
123	57
124	35
125	22
126	11
127	43
128	137
129	210
130	84
131	301
132	145
133	113
134	40
135	32
136	20
137	26
138	14
139	17
140	14
141	152
142	188
143	314
144	153
145	222
146	58
147	67
148	24
152	28
153	47
154	37
155	249
156	142
157	530
158	225
159	160
160	51
161	32
162	46
163	24
164	12
165	41
166	23
167	60
168	85
169	177
170	81
171	205
172	116
173	129
174	38
175	33
176	19
177	16
178	20
179	33
180	18
181	66
182	54
183	211
184	107
185	363
186	91
187	59
188	33
189	40
190	17
191	20
192	10
193	26
194	16
195	129
196	67
197	671
198	168
199	221
200	93
201	49
202	33
203	37
204	17
205	24
206	11
207	25
208	21
209	138
210	43
211	80
212	68
213	60
214	29
215	41
216	15
217	27
218	43
219	17
220	10
221	20
222	13
223	57
224	55
225	89
226	47
227	119
228	37
229	72
230	36
231	31
232	17
233	9
234	10
235	18
236	14
237	47
238	20
239	57
240	31
241	71
242	159
243	59
244	57
245	30
246	14
247	9
248	8
249	38
250	14
251	29
252	30
253	51
254	53
255	74
256	32
257	46
258	65
259	69
260	34
261	33
262	12
263	10
264	19
265	40
266	20
267	111
268	33
269	39
270	105
271	89
272	20
273	27
274	94
275	29
276	9
279	24
280	15
281	40
282	511
283	269
284	83
285	26
286	47
287	23
288	7
294	16
296	277
297	126
298	48
299	84
300	23
301	17
302	7
308	8
309	11
311	58
312	36
313	39
314	441
315	161
316	46
317	10
326	109
327	32
328	11
329	31
330	11
344	142
345	40
346	11
