Mass Spectrum: 1,1-Dichloro-2,3-dimethylcyclopropane
Formula: C5H8Cl2
CAS: 53143-77-4
Molecular weight: 138
m/z	intensity
14	17
15	55
25	13
26	138
27	496
28	127
29	81
30	13
31	31
32	28
35	22
36	33
37	126
38	192
39	892
40	141
41	734
42	170
47	46
48	23
49	148
50	138
51	463
52	56
53	158
54	23
55	46
56	20
60	27
61	88
62	68
63	177
64	20
65	413
66	88
67	965
68	52
72	30
73	86
75	642
76	37
77	209
82	27
83	42
84	25
85	61
86	25
87	870
88	49
89	295
96	26
97	12
98	16
103	999
104	83
105	333
106	21
107	9
108	9
109	73
110	66
111	40
112	47
113	11
123	732
125	490
126	25
127	82
138	188
140	128
142	20
