Mass Spectrum: N,N-Di(2-propynyl)-N-(2-propenyl)amine
Formula: C9H11N
CAS: 53146-05-7
Molecular weight: 133
m/z	intensity
38	22
39	365
40	29
41	254
42	79
43	21
51	12
52	17
53	22
54	26
65	84
66	115
67	70
68	22
77	98
78	50
79	43
80	41
91	60
92	53
93	46
94	437
95	12
105	36
106	999
107	74
108	50
109	9
117	43
118	26
130	19
131	19
132	156
133	290
134	29
