Mass Spectrum: Ethanone, 1-(2,3,4,4a,9,9a-hexahydro-4a-methyl-1H-carbazol-8-yl)-
Formula: C15H19NO
CAS: 53155-57-0
Molecular weight: 229
m/z	intensity
43	999
55	380
77	80
115	100
130	200
143	80
144	90
154	100
158	200
172	210
173	120
186	330
187	140
214	120
229	430
