Mass Spectrum: Benzene, 1,1'-[1,5-pentanediylbis(oxymethylene)]bis-
Formula: C19H24O2
CAS: 53150-24-6
Molecular weight: 284
m/z	intensity
39	18
41	39
51	7
55	7
65	64
69	124
77	23
79	41
85	64
87	202
88	7
89	7
91	999
92	129
106	15
108	205
109	23
193	98
194	10
