Mass Spectrum: Tetralin-1-methylamine, N-cyclohexyl-N-oxide-
Formula: C17H23NO
CAS: 53155-92-3
Molecular weight: 257
m/z	intensity
26	6
27	165
28	71
29	201
30	221
31	5
37	14
38	9
39	223
40	37
41	796
42	58
43	91
44	36
45	3
46	152
47	2
50	16
51	67
52	25
53	140
54	84
55	999
56	89
57	22
58	3
59	20
60	33
61	2
62	8
63	45
64	13
65	68
66	14
67	74
68	15
69	11
70	8
71	3
72	3
74	7
75	17
76	16
77	105
78	37
79	48
80	11
81	101
82	28
83	523
84	39
85	2
86	4
87	5
88	5
89	39
90	12
91	296
92	25
93	6
94	3
95	4
96	4
97	3
98	49
99	6
100	2
101	11
102	36
103	55
104	59
105	19
106	5
107	12
108	4
109	3
110	41
111	6
112	32
113	8
114	12
115	303
116	156
117	72
118	15
119	9
120	8
124	4
125	10
126	116
127	122
128	330
129	462
130	570
131	479
132	85
133	8
134	2
138	5
139	11
140	9
141	208
142	56
143	201
144	118
145	50
146	73
147	54
148	24
149	31
150	10
151	2
152	4
153	7
154	17
155	23
156	223
157	110
158	778
159	125
160	10
161	2
165	2
166	3
167	6
168	8
169	4
170	11
171	3
172	5
173	8
174	213
175	119
176	23
177	2
179	3
180	3
181	3
182	15
183	7
184	5
185	3
186	3
194	4
195	1
196	17
197	4
198	7
199	1
208	2
210	5
211	3
212	40
213	7
214	4
223	2
224	12
225	4
236	4
237	9
238	14
239	29
240	553
241	135
242	15
255	4
256	4
257	743
258	154
259	14
