Mass Spectrum: (Z)-1-Methylsulfinyl-2-phenylethene
Formula: C9H10OS
CAS: 53165-40-5
Molecular weight: 166
m/z	intensity
91	999
103	400
104	40
107	180
118	270
119	430
120	30
134	250
135	160
136	20
149	120
150	110
151	120
152	10
166	270
