Mass Spectrum: Crotonaldehyde, semicarbazone
Formula: C5H9N3O
CAS: 5316-14-3
Molecular weight: 127
m/z	intensity
39	509
40	140
41	370
42	400
43	400
44	490
50	60
51	70
52	50
53	240
54	110
55	110
56	460
57	50
60	539
61	380
67	140
68	689
69	999
83	270
84	170
127	569
