Mass Spectrum: Methyl santolinate
Formula: C11H18O2
CAS: 53163-37-4
Molecular weight: 182
m/z	intensity
41	412
42	21
43	127
44	25
50	11
51	63
52	34
53	201
54	21
55	429
56	55
57	116
58	4
59	80
60	8
61	4
63	15
65	61
66	17
67	619
68	38
69	27
71	11
73	13
77	161
78	32
79	209
80	89
81	125
82	11
83	8
85	93
87	17
88	63
91	137
92	21
93	228
94	63
95	999
96	23
97	8
99	11
105	36
107	156
108	38
109	63
111	8
119	11
121	55
122	38
123	51
135	8
150	85
151	19
153	6
167	135
168	15
182	63
183	10
