Mass Spectrum: Benzene, 1,3,5-tris(2,2-dimethylpropyl)-2,4-diiodo-
Formula: C21H34I2
CAS: 53173-11-8
Molecular weight: 540
m/z	intensity
29	170
41	260
43	220
55	60
57	999
58	50
71	90
115	90
128	60
129	50
141	60
142	50
143	70
149	130
157	50
159	50
167	60
173	90
174	70
229	140
372	779
373	80
427	50
428	460
429	70
483	70
484	350
485	70
540	210
541	50
