Mass Spectrum: 6-Hydroxy-7-nonadecylmercapto-5,8-quinolindione
Formula: C28H43NO3S
CAS: 53193-63-8
Molecular weight: 473
m/z	intensity
41	402
43	999
45	37
47	25
49	5
51	5
53	43
55	490
57	278
58	7
60	21
61	3
63	25
65	17
67	50
69	177
71	100
72	3
73	14
75	10
77	29
78	24
79	67
81	35
83	117
85	66
87	30
90	16
91	14
93	6
94	5
95	26
97	36
99	10
100	6
101	8
102	5
103	13
104	3
105	32
106	11
107	6
109	2
111	20
113	5
119	25
121	6
122	6
123	48
124	4
125	2
131	21
133	6
134	9
135	32
145	2
146	4
147	6
148	20
151	43
152	5
160	22
162	15
164	11
166	3
174	38
176	56
177	34
178	39
179	10
180	61
187	5
188	11
189	27
190	45
191	38
193	29
202	84
203	3
204	18
205	3
206	44
207	20
208	242
209	266
210	41
211	17
214	16
215	25
216	19
217	8
219	16
220	7
222	7
223	2
228	12
230	15
234	26
236	13
244	2
248	2
262	9
264	6
299	6
426	2
439	24
440	47
441	17
473	64
474	15
475	42
476	9
