Mass Spectrum: 2-Penten-1-one, 2-methyl-1,3-diphenyl-
Formula: C18H18O
CAS: 53190-02-6
Molecular weight: 250
m/z	intensity
26	112
27	96
28	861
29	90
30	2
31	13
32	54
33	0
34	0
35	0
36	7
37	3
38	7
39	114
40	186
41	187
42	15
43	277
44	29
45	51
46	2
47	1
48	1
49	6
50	46
51	201
52	28
53	21
54	5
55	34
56	30
57	151
58	6
59	7
60	20
61	3
62	10
63	36
64	8
65	63
66	7
67	32
68	5
69	15
70	3
71	7
72	1
73	13
74	14
75	17
76	36
77	804
78	78
79	40
80	3
81	1
82	2
83	9
84	7
85	25
86	3
87	13
88	10
89	37
90	7
91	245
92	19
93	2
95	7
96	3
97	3
98	6
99	6
100	5
101	18
102	24
103	58
104	18
105	999
106	70
107	13
108	6
109	5
110	12
111	10
112	3
113	7
114	8
115	217
116	54
117	120
118	13
119	4
120	4
121	4
122	7
123	1
124	2
125	8
126	16
127	54
128	110
129	209
130	84
131	24
132	12
133	20
134	16
135	2
136	1
137	2
138	6
139	15
140	3
141	15
142	5
143	65
144	26
145	231
146	27
147	4
148	3
149	2
150	5
151	5
152	10
153	6
154	6
155	17
156	7
157	97
158	29
159	40
160	6
161	1
162	0
163	3
164	2
165	20
166	4
167	6
168	6
169	3
170	0
171	19
172	18
173	127
174	15
175	2
176	3
177	4
178	27
179	16
180	3
181	1
182	1
183	1
184	0
185	0
186	0
187	3
188	4
189	11
190	9
191	32
192	18
193	23
194	3
195	2
196	0
197	0
198	0
199	0
200	3
201	6
202	58
203	23
204	8
205	24
206	21
207	71
208	15
209	2
210	0
211	0
213	1
214	2
215	22
216	28
217	78
218	37
219	21
220	80
221	120
222	26
223	4
224	0
225	1
226	1
227	1
228	3
229	3
230	2
231	10
232	22
233	50
234	52
235	752
236	124
237	13
238	1
245	0
246	0
247	2
248	7
249	270
250	782
251	149
252	16
253	1
