Mass Spectrum: 6-Hydroxy-7-[6-cyclohexylhexyl]mercapto-5,8-quinolindinone
Formula: C21H27NO3S
CAS: 53193-65-0
Molecular weight: 373
m/z	intensity
41	720
43	233
45	62
47	16
49	16
50	32
51	102
52	50
53	107
55	999
56	8
57	52
59	10
60	10
61	10
62	4
63	55
64	5
65	33
67	180
69	234
71	32
73	19
76	32
77	109
78	300
79	291
81	149
83	174
84	12
85	12
86	17
87	22
88	4
89	4
90	59
91	33
93	26
95	107
96	7
97	47
102	22
103	16
105	72
106	121
107	35
109	32
116	6
117	12
118	15
119	47
120	6
121	6
122	121
123	97
124	29
130	16
132	9
133	14
134	61
135	83
136	11
146	4
147	5
148	74
149	25
151	166
152	26
153	4
159	10
160	85
162	67
164	20
166	22
172	4
174	99
176	128
177	64
178	208
179	265
180	113
181	18
186	15
188	94
189	128
190	148
191	128
192	19
193	84
194	6
200	5
202	174
204	79
205	18
207	246
208	619
209	694
210	113
211	43
212	9
214	44
215	87
216	61
218	42
220	55
221	15
222	45
228	31
230	73
231	10
232	7
234	97
236	26
242	11
244	13
248	27
249	13
256	35
257	8
258	5
262	29
276	14
278	5
290	32
300	13
312	11
322	15
326	13
338	14
340	378
341	77
342	11
356	12
373	208
374	42
375	11
376	5
