Mass Spectrum: Isonitrosoacetophenone
Formula: C8H7NO2
CAS: 532-54-7
Molecular weight: 149
m/z	intensity
12	1
14	1
16	7
25	1
26	9
27	51
28	6
29	3
30	3
36	2
37	18
38	27
39	28
40	2
41	1
43	5
44	20
45	4
47	1
48	1
49	10
50	103
51	239
52	22
53	5
54	3
55	1
56	1
60	2
61	8
62	9
63	12
64	4
65	9
66	5
72	1
73	9
74	34
75	23
76	43
77	650
78	56
79	3
85	1
86	2
87	2
88	1
89	8
90	3
91	4
92	1
93	1
94	8
101	1
102	4
103	19
104	25
105	999
106	81
107	6
116	4
117	1
118	1
119	1
120	1
121	9
122	118
123	9
124	1
130	2
131	82
132	17
133	4
146	1
148	1
149	103
150	10
151	1
