Mass Spectrum: Benzoic acid, silver(1+) salt
Formula: C7H5AgO2
CAS: 532-31-0
Molecular weight: 228
m/z	intensity
27	15
28	50
32	22
37	23
38	36
39	48
44	41
45	31
49	19
50	175
51	316
52	48
53	14
63	14
65	19
66	15
73	18
74	72
75	35
76	65
77	654
78	65
94	25
104	16
105	999
106	80
107	32
109	23
122	695
123	58
152	13
198	10
214	7
216	13
218	6
291	7
293	12
295	6
335	11
337	20
339	9
412	3
414	7
416	4
