Mass Spectrum: Bicyclo[3.2.0]heptan-3-one, 2-hydroxy-1,4,4-trimethyl-, O-acetyloxime
Formula: C12H19NO3
CAS: 53209-28-2
Molecular weight: 225
m/z	intensity
41	589
43	539
45	320
53	230
55	460
60	360
67	270
68	499
69	999
81	859
82	300
95	340
97	599
107	280
109	390
122	410
136	240
182	20
