Mass Spectrum: N-Cyclohexyl-4-methylbenzamide
Formula: C14H19NO
CAS: 53205-68-8
Molecular weight: 217
m/z	intensity
14	1
15	12
16	9
17	84
18	312
26	5
27	51
28	87
29	55
30	13
31	1
32	1
37	1
38	6
39	94
40	13
41	102
42	20
43	36
44	21
45	2
50	11
51	22
52	7
53	16
54	21
55	29
56	28
57	17
58	1
61	1
62	8
63	35
64	13
65	170
66	12
67	26
68	4
69	7
70	5
71	4
74	2
75	3
76	4
77	14
78	3
79	8
80	3
81	7
82	16
83	5
84	1
85	1
86	2
87	2
89	53
90	42
91	412
92	34
93	126
94	10
95	1
96	3
97	10
98	19
99	2
100	2
103	1
104	2
105	6
106	6
107	2
112	1
115	2
116	3
117	4
119	999
120	93
121	7
122	2
128	1
130	1
132	2
133	2
134	3
136	529
137	53
138	3
146	1
147	1
148	5
149	4
160	10
161	2
162	3
163	1
174	13
175	4
176	2
188	4
189	1
200	2
202	2
203	0
215	1
216	18
217	158
218	24
219	2
