Mass Spectrum: .alpha.-[4-Chlorophenyl]-.alpha.-methyl-4-piperidinemethanol
Formula: C13H18ClNO
CAS: 53220-36-3
Molecular weight: 239
m/z	intensity
41	43
42	187
43	788
44	142
45	17
46	3
47	2
49	8
50	15
51	33
52	5
53	31
54	27
55	280
56	268
57	55
58	2
60	5
61	2
62	0
63	12
64	2
65	12
66	1
67	21
68	19
69	28
70	13
71	4
73	8
74	6
75	31
76	5
77	31
78	11
79	15
80	19
82	68
84	999
85	593
86	27
87	3
89	6
91	12
93	4
94	5
95	4
96	9
97	36
98	4
99	4
100	1
101	9
102	6
103	10
104	1
105	11
106	20
107	0
110	1
111	25
112	7
113	12
114	5
115	14
116	4
120	4
121	3
123	1
125	15
126	1
127	95
128	8
129	5
131	13
137	1
139	19
140	2
141	17
142	6
143	6
144	3
151	3
152	1
153	3
155	235
157	79
158	4
163	2
165	2
166	3
167	1
177	2
180	1
193	3
194	2
204	2
205	2
206	4
221	2
222	12
224	16
225	1
226	6
238	4
239	15
240	9
241	5
242	2
