Mass Spectrum: 3-[1-[p-Chlorophenyl]-1-ethoxyethyl]piperidine
Formula: C15H22ClNO
CAS: 53220-76-1
Molecular weight: 267
m/z	intensity
41	46
42	129
43	999
44	264
45	17
50	6
51	16
52	7
53	45
54	61
55	134
56	219
57	53
58	3
59	0
62	2
63	18
64	6
65	27
66	4
67	12
68	31
69	18
70	20
71	7
72	0
73	6
74	11
75	54
76	16
77	37
78	5
79	3
80	11
81	3
82	69
83	157
84	479
85	128
86	8
87	2
89	6
90	1
91	16
92	1
93	4
94	6
95	5
96	54
97	10
98	2
99	3
101	13
102	17
103	51
104	15
105	26
106	5
108	1
109	0
110	8
111	42
112	14
113	18
114	11
115	94
116	28
117	7
120	4
121	11
122	2
123	2
124	3
125	65
126	21
127	38
128	27
129	26
130	20
131	7
132	2
133	0
134	0
135	2
136	7
137	8
138	5
139	38
140	7
141	25
142	13
143	18
144	8
145	3
146	2
148	2
149	20
150	7
151	7
152	9
153	5
154	11
155	256
156	28
157	83
158	5
162	2
163	6
164	5
165	34
166	7
167	14
168	2
169	3
170	0
171	2
172	5
173	0
175	1
176	1
177	25
178	18
179	6
180	6
181	2
183	170
184	61
185	84
186	29
187	5
188	0
189	2
192	7
193	2
194	5
195	1
196	0
204	2
206	83
207	10
208	20
209	2
218	1
220	6
221	16
222	9
223	47
224	10
225	17
226	3
236	1
238	8
240	1
250	1
264	0
265	0
266	3
267	7
268	2
269	2
270	1
