Mass Spectrum: Benzimidazole, 1-[2-(1-piperidyl)ethyl]-
Formula: C14H19N3
CAS: 5322-91-8
Molecular weight: 229
m/z	intensity
33	11
34	7
36	2
37	4
38	17
39	53
40	14
41	117
42	93
43	36
44	87
45	2
49	0
50	13
51	24
52	8
53	8
54	21
55	73
56	27
57	10
58	0
60	0
61	0
62	4
63	15
64	15
65	12
66	5
67	7
68	10
69	29
70	38
71	4
72	0
73	0
74	0
75	3
76	14
77	42
78	7
79	2
80	2
81	2
82	6
83	5
84	2
85	0
89	3
90	12
91	20
92	4
93	7
94	2
95	3
96	31
98	999
99	60
100	0
102	1
103	2
104	7
105	2
108	1
109	0
110	7
111	1
112	0
116	0
117	5
118	21
119	9
120	0
128	0
129	0
130	2
131	11
132	1
143	0
144	1
145	2
171	0
185	0
229	6
