Mass Spectrum: Oxirane, (2-methylbutyl)-
Formula: C7H14O
CAS: 53229-42-8
Molecular weight: 114
m/z	intensity
41	999
42	151
43	418
44	34
45	34
50	18
51	23
52	4
53	69
54	41
55	506
56	302
57	506
58	344
59	46
65	11
67	65
68	23
69	151
70	62
71	41
80	2
81	34
82	18
83	18
84	7
85	506
86	34
99	41
114	9
