Mass Spectrum: 2,2,3-Triethyloxirane
Formula: C8H16O
CAS: 53229-40-6
Molecular weight: 128
m/z	intensity
26	8
27	103
28	27
29	258
30	5
38	2
39	50
40	7
41	101
42	37
43	667
44	21
45	4
51	6
53	12
54	4
55	95
56	53
57	646
58	18
59	8
65	2
67	5
68	2
69	8
70	55
71	999
72	39
77	3
79	3
81	7
83	4
85	21
86	4
91	3
99	163
100	103
101	5
113	4
128	166
129	14
