Mass Spectrum: 1,4-Dioxane-2,3-diol, (E)-, 2TMS derivative
Formula: C10H24O4Si2
CAS: 53226-11-2
Molecular weight: 264
m/z	intensity
25	0
26	3
27	16
28	5
29	33
30	6
31	11
35	0
36	0
37	0
38	0
39	1
40	0
41	3
42	8
43	79
44	36
45	231
46	14
47	67
48	3
49	2
50	0
51	2
52	4
53	3
54	1
55	11
56	3
57	15
58	33
59	72
60	15
61	30
62	2
63	1
64	0
65	0
66	58
67	6
68	1
69	1
70	3
71	7
72	35
73	999
74	90
75	309
76	21
77	19
78	0
79	0
80	0
81	1
83	0
84	0
85	2
86	10
87	6
88	39
89	17
90	1
91	5
92	0
93	0
94	1
96	0
97	3
98	1
99	2
100	1
101	34
102	12
103	861
104	71
105	37
106	2
107	0
108	0
110	0
111	0
112	0
113	1
114	0
115	6
116	7
117	34
118	4
119	423
120	40
121	17
122	0
129	1
130	0
131	60
132	7
133	37
134	5
135	3
136	0
143	0
145	2
146	249
147	209
148	37
149	18
150	2
151	0
161	0
163	0
174	0
175	2
176	0
177	4
178	0
189	1
190	0
191	81
192	14
193	6
194	0
204	10
205	6
206	1
207	0
221	0
249	5
250	1
251	0
264	0
