Mass Spectrum: Mefloquine
Formula: C17H16F6N2O
CAS: 53230-10-7
Molecular weight: 378
m/z	intensity
41	29
42	29
43	6
51	3
52	1
53	5
54	18
55	58
56	131
57	15
58	1
63	2
64	1
65	3
66	1
67	15
68	13
69	14
70	3
71	1
75	6
76	1
77	2
78	1
79	1
80	4
81	4
82	26
84	999
85	62
86	4
87	1
88	2
89	1
95	2
96	1
99	6
100	3
101	4
102	1
119	2
120	1
126	2
127	2
128	8
129	1
139	1
140	2
141	1
142	1
143	2
144	2
145	3
146	3
147	1
148	1
149	5
150	6
151	7
152	4
153	1
164	1
165	2
166	1
167	1
168	2
169	13
170	4
171	1
176	36
177	7
178	4
179	1
180	1
181	1
182	2
183	2
184	1
189	2
190	1
194	5
195	3
196	45
197	9
198	1
200	2
201	1
202	4
203	1
206	8
207	4
208	4
209	1
210	2
211	1
212	1
213	1
214	14
215	6
216	2
217	1
218	1
219	1
220	3
221	1
222	2
223	1
224	18
225	3
226	5
227	5
228	1
234	3
235	3
236	3
237	1
238	4
239	1
244	3
245	3
246	43
247	8
248	1
249	2
252	3
253	1
258	2
259	2
260	1
264	15
265	8
266	1
270	3
271	2
272	1
274	11
275	8
276	8
277	2
278	6
279	2
280	1
283	1
284	3
285	4
286	1
289	1
290	2
291	3
292	4
293	20
294	7
295	6
296	3
297	1
298	3
299	1
302	1
303	2
304	4
305	2
306	1
310	1
311	2
312	1
317	4
318	4
319	2
320	1
331	3
332	1
339	7
340	1
344	1
345	2
346	1
358	1
359	18
360	12
361	2
362	1
376	1
377	2
378	1
379	1
