Mass Spectrum: Acetic acid, chloroiodo-, methyl ester
Formula: C3H4ClIO2
CAS: 53235-05-5
Molecular weight: 234
m/z	intensity
59	999
107	900
109	400
127	500
175	400
177	200
234	300
236	150
