Mass Spectrum: 2-Benzoylmethylaminoferrocene
Formula: C18H17FeNO
CAS: 53248-65-0
Molecular weight: 319
m/z	intensity
16	22
17	97
20	6
26	4
27	10
28	46
29	3
31	1
32	9
38	2
39	38
40	3
41	9
42	13
43	3
44	2
45	6
50	10
51	50
52	6
53	5
54	17
55	5
56	268
57	34
58	1
62	1
63	9
64	4
65	26
66	12
67	4
68	6
70	9
75	5
76	9
77	276
78	22
79	9
80	3
81	41
82	17
83	11
84	2
85	2
89	10
90	5
91	21
92	93
93	26
94	61
95	90
96	15
97	57
98	95
99	7
101	5
102	5
103	6
104	3
105	185
106	20
107	11
108	9
109	1
114	1
115	36
116	9
117	7
118	999
119	152
120	20
121	242
122	41
123	3
127	5
128	18
129	52
130	7
131	5
132	11
133	77
134	23
135	13
136	9
139	4
140	3
141	32
142	17
143	5
144	1
145	2
146	11
147	9
148	76
149	7
152	1
153	2
154	1
155	1
157	2
158	2
159	3
160	1
162	5
166	2
168	7
169	5
170	11
171	9
172	16
173	2
178	1
182	2
183	8
184	33
185	89
186	129
187	17
188	2
194	1
195	3
196	18
197	37
198	44
199	9
200	3
202	4
209	2
210	2
211	13
212	7
213	33
214	58
215	13
216	8
222	6
223	3
224	6
225	13
226	19
227	3
237	1
238	1
239	1
249	2
250	3
252	41
253	8
254	452
255	86
256	7
262	3
275	1
276	1
290	2
291	4
304	1
316	1
317	85
318	30
319	874
320	295
321	40
322	3
