Mass Spectrum: 1-(3,4-Dimethoxyphenyl)decane-3,5-diyl diacetate
Formula: C22H34O6
CAS: 53254-52-7
Molecular weight: 394
m/z	intensity
27	16
29	36
39	17
41	72
42	19
43	999
44	21
47	3
50	5
51	11
52	7
53	28
55	95
56	21
57	41
58	13
61	25
63	9
64	6
65	39
67	51
71	19
77	69
78	43
79	59
89	9
90	25
91	73
92	12
95	20
99	15
103	33
104	10
105	48
106	59
107	113
108	40
109	29
114	4
115	31
116	9
117	33
118	23
119	34
120	17
121	56
122	17
123	26
124	12
127	31
128	15
129	18
131	21
132	11
133	15
134	17
135	55
137	75
138	131
139	23
144	14
145	21
146	49
147	29
148	9
149	55
150	31
151	932
152	125
153	17
157	6
158	8
159	63
160	26
161	38
162	12
163	13
164	283
165	75
166	16
167	15
171	6
172	18
173	23
174	19
175	52
176	58
177	235
178	26
181	6
187	10
188	19
189	251
190	67
192	20
193	35
194	22
200	3
201	8
202	13
203	321
204	157
205	26
217	33
218	15
220	11
223	3
231	12
236	8
243	99
244	15
245	8
256	2
259	19
260	4
263	4
273	17
274	68
275	20
276	5
278	5
279	4
280	9
291	11
292	14
293	4
303	5
334	46
335	15
394	195
395	50
396	10
