Mass Spectrum: 4,4-Dimethylheptanedioic acid
Formula: C9H16O4
CAS: 5325-75-7
Molecular weight: 188
m/z	intensity
15	1
17	1
18	1
26	1
27	23
28	13
29	26
30	1
31	4
39	20
40	4
41	119
42	10
43	55
44	5
45	24
50	1
51	2
52	1
53	14
54	2
55	111
56	19
57	13
58	1
59	7
60	7
63	1
64	1
65	3
66	1
67	25
68	9
69	401
70	35
71	23
72	2
73	198
74	18
75	2
77	2
79	9
80	1
81	47
82	13
83	14
84	2
85	42
86	3
87	2
91	2
93	3
95	10
96	8
97	751
98	53
99	6
100	3
101	3
107	1
108	1
109	100
110	9
111	4
113	3
114	15
115	999
116	70
117	6
119	3
123	2
124	8
125	8
126	4
127	102
128	9
129	1
132	3
136	2
137	128
138	11
139	1
141	2
142	9
143	2
151	1
152	6
153	9
154	2
155	147
156	12
157	1
170	3
171	19
172	2
173	2
189	2
