Mass Spectrum: 2-Dimethylamino-4'-methoxyacetophenone
Formula: C11H15NO2
CAS: 53250-07-0
Molecular weight: 193
m/z	intensity
42	104
43	24
44	12
50	12
51	12
57	24
58	999
59	72
63	24
64	32
77	64
78	12
92	44
107	24
121	44
135	72
150	72
193	32
