Mass Spectrum: 2-Hydroxy-5-ethyl-5-methylcyclopent-2-en-1-one
Formula: C8H12O2
CAS: 53263-57-3
Molecular weight: 140
m/z	intensity
39	410
41	540
43	480
55	820
69	320
83	220
94	420
97	230
111	330
112	999
125	240
140	180
