Mass Spectrum: 2-Hydroxy-3,5-diethyl-5-methylcyclopent-2-en-1-one
Formula: C10H16O2
CAS: 53263-59-5
Molecular weight: 168
m/z	intensity
39	470
41	730
43	999
55	700
69	330
83	340
94	530
97	250
111	720
112	500
125	250
140	690
153	60
168	90
