Mass Spectrum: 5-Hydroxynorvaline, 3TMS derivative
Formula: C14H35NO3Si3
CAS: 53261-79-3
Molecular weight: 349
m/z	intensity
40	10
41	35
42	30
43	70
44	100
45	100
47	38
50	10
55	20
56	10
57	10
58	30
59	100
60	15
61	15
64	20
66	10
68	35
69	15
70	220
71	35
72	40
73	999
74	115
75	245
76	15
77	70
78	30
84	10
87	50
88	10
89	200
90	15
91	10
93	23
98	15
100	70
101	20
103	25
114	10
115	40
116	13
117	20
128	100
129	25
130	20
131	25
132	20
133	50
135	10
142	600
143	100
144	50
145	20
146	10
147	235
148	40
149	45
160	40
169	30
170	20
172	10
188	20
191	10
192	15
207	35
208	10
216	50
217	20
218	50
219	10
221	30
232	999
233	220
234	70
235	15
244	55
245	15
306	20
334	45
335	15
349	55
350	10
