Mass Spectrum: Benzamide, N,N'-1,6-hexanediylbis-
Formula: C20H24N2O2
CAS: 5326-21-6
Molecular weight: 324
m/z	intensity
26	1
27	4
28	15
29	2
30	7
31	0
38	0
39	4
40	1
41	14
42	2
43	6
44	10
45	0
49	0
50	6
51	27
52	3
53	1
54	1
55	8
56	6
57	2
58	0
59	0
62	0
63	0
64	0
65	1
66	0
67	2
68	1
69	6
70	2
71	1
73	0
74	2
75	2
76	11
77	276
78	27
79	9
80	1
81	2
82	2
83	2
84	1
85	0
86	0
89	0
90	0
91	4
92	0
93	0
94	0
95	0
96	3
97	2
98	31
99	1
100	2
102	0
103	12
104	11
105	999
106	77
107	4
109	0
111	0
114	0
115	0
116	0
117	1
118	1
119	1
120	1
121	7
122	42
123	3
125	0
128	0
129	0
130	3
131	0
132	2
133	1
134	107
135	91
136	6
137	0
143	0
144	0
145	0
146	4
147	2
148	119
149	39
150	3
152	0
153	0
154	0
155	0
156	0
157	0
158	1
159	1
160	4
161	1
162	75
163	31
164	2
168	0
169	1
170	0
172	3
173	1
174	5
175	1
176	41
177	44
178	5
180	0
181	1
182	0
183	0
184	0
185	3
186	0
187	0
188	1
189	1
190	288
191	71
192	6
193	0
194	0
197	0
199	0
200	0
201	5
202	159
203	34
204	14
205	1
207	1
208	0
209	0
215	0
217	1
218	0
219	64
220	8
221	0
247	0
267	0
281	0
306	0
307	0
322	0
323	26
324	91
325	18
326	1
