Mass Spectrum: Cyclooctene, 5,6-diethenyl-, trans-
Formula: C12H18
CAS: 53264-71-4
Molecular weight: 162
m/z	intensity
25	2
26	10
27	206
28	41
29	89
30	1
32	0
33	0
34	0
35	0
37	6
38	10
39	379
40	49
41	486
42	26
43	24
44	0
45	0
46	0
47	0
48	0
49	1
50	18
51	66
52	43
53	181
54	824
55	151
56	10
57	3
58	3
59	0
61	0
62	5
63	23
64	10
65	131
66	143
67	675
68	58
69	19
70	3
71	3
72	0
74	3
75	15
76	5
77	306
78	148
79	999
80	423
81	127
82	17
83	7
84	1
86	0
87	1
88	1
89	12
90	8
91	488
92	228
93	600
94	209
95	120
96	13
97	0
101	0
102	1
103	13
104	9
105	194
106	125
107	103
108	93
109	7
111	0
114	0
115	9
116	2
117	13
118	7
119	289
120	141
121	90
122	8
127	0
128	1
129	2
131	4
132	2
133	211
134	111
135	11
145	1
147	84
148	9
160	0
161	7
162	10
163	0
