Mass Spectrum: Cyclooctene, 5,6-diethenyl-, cis-
Formula: C12H18
CAS: 53264-72-5
Molecular weight: 162
m/z	intensity
26	21
27	307
28	77
29	134
30	2
32	1
37	3
38	11
39	470
40	61
41	587
42	34
43	30
44	2
50	23
51	86
52	54
53	224
54	749
55	173
56	14
57	3
58	4
62	5
63	29
64	11
65	143
66	148
67	656
68	58
69	20
70	0
71	3
72	0
75	9
76	4
77	325
78	162
79	999
80	479
81	153
82	24
83	9
84	4
87	1
88	1
89	10
90	6
91	555
92	290
93	638
94	208
95	146
96	19
97	2
102	4
103	21
104	17
105	252
106	159
107	139
108	107
109	13
110	2
115	20
116	8
117	30
118	18
119	316
120	184
121	125
122	11
127	3
128	8
129	10
130	2
131	19
132	7
133	260
134	174
135	19
136	1
141	0
143	2
145	15
146	4
147	105
148	13
156	3
157	1
159	1
160	13
161	11
162	108
163	14
