Mass Spectrum: Propanenitrile, 3-(hexyloxy)-
Formula: C9H17NO
CAS: 5327-02-6
Molecular weight: 155
m/z	intensity
26	60
27	280
28	100
29	200
31	320
39	120
40	40
41	440
42	400
43	999
44	80
45	60
53	60
54	520
55	480
56	920
57	200
58	60
69	220
70	60
71	40
72	120
73	40
83	40
84	280
85	160
97	10
98	20
112	12
113	8
126	12
127	8
138	4
140	4
154	2
155	2
156	1
