Mass Spectrum: 2,3-Butanediol, 2TMS derivative
Formula: C10H26O2Si2
CAS: 53274-85-4
Molecular weight: 234
m/z	intensity
27	6
28	5
29	10
30	1
31	4
39	5
41	12
42	2
43	30
44	18
45	67
46	4
47	24
50	1
51	3
52	4
53	2
55	18
56	5
57	7
58	14
59	39
60	5
61	15
62	2
63	2
65	2
66	61
67	6
69	2
70	2
71	5
72	16
73	750
74	73
75	127
76	11
77	11
78	1
79	1
81	16
82	2
83	2
84	1
85	3
86	1
87	8
88	11
89	2
91	3
92	1
93	2
94	3
95	1
97	1
99	1
101	19
102	19
103	7
104	2
105	4
107	1
109	1
111	1
113	2
115	10
116	21
117	999
118	123
119	46
120	3
122	1
123	1
129	20
130	6
131	33
132	5
133	42
134	6
135	5
141	3
143	4
144	3
145	4
146	10
147	389
148	66
149	30
150	3
218	1
219	29
220	6
221	3
233	1
