Mass Spectrum: Hexane, 2,5-dimethoxy-2,5-dimethyl-
Formula: C10H22O2
CAS: 53273-13-5
Molecular weight: 174
m/z	intensity
23	0
24	0
25	1
26	1
27	31
28	114
29	66
30	9
31	41
32	9
33	5
35	0
36	1
37	0
38	1
39	39
40	6
41	103
42	36
43	122
44	2
45	26
46	1
47	0
48	0
49	0
50	1
51	4
52	1
53	17
54	3
55	98
56	16
57	11
58	1
59	7
63	2
64	0
65	3
66	1
67	27
68	8
69	52
70	7
71	6
72	29
73	999
74	35
75	3
77	5
78	0
79	4
80	2
81	5
82	1
83	2
84	0
85	8
86	1
87	2
89	0
91	3
92	0
93	5
94	0
95	100
96	8
97	4
99	1
105	0
109	0
110	7
111	34
112	5
125	0
127	67
128	5
129	1
159	3
160	0
