Mass Spectrum: D-Glucose, 6-O-(2,3,4,6-tetra-O-acetyl-.beta.-D-glucopyranosyl)-, 2,3,4,5-tetraacetate
Formula: C28H38O19
CAS: 53270-74-9
Molecular weight: 678
m/z	intensity
43	999
44	27
69	32
70	20
73	31
81	117
85	31
97	42
98	75
99	20
102	28
103	48
109	162
110	20
112	107
115	85
127	48
139	42
140	64
141	48
145	79
155	85
157	93
169	194
200	33
211	28
215	39
242	31
243	46
317	43
331	114
332	21
