Mass Spectrum: Benzeneethanol, .beta.-(1-methylpropoxy)-.alpha.-phenyl-
Formula: C18H22O2
CAS: 53288-15-6
Molecular weight: 270
m/z	intensity
27	15
28	34
29	66
30	2
31	5
37	0
38	0
39	15
40	1
41	42
42	2
43	9
44	2
45	7
46	0
49	0
50	4
51	20
52	5
53	4
54	0
55	4
56	4
57	51
58	4
59	3
62	1
63	4
64	2
65	8
66	0
67	0
69	0
70	1
71	0
72	0
73	3
74	1
75	3
76	4
77	95
78	15
79	157
80	10
81	0
82	1
83	1
84	0
86	0
87	0
88	1
89	11
90	15
91	38
92	4
93	0
94	0
98	0
99	0
101	0
102	1
103	1
104	1
105	76
106	16
107	999
108	100
109	6
110	0
113	0
115	1
116	0
117	0
118	2
119	3
120	1
121	0
126	0
127	0
128	1
129	0
133	2
134	3
135	3
136	0
139	1
141	0
146	0
147	0
149	0
150	0
151	1
152	5
153	2
154	0
160	0
161	1
162	2
163	253
164	48
165	14
166	4
167	18
168	10
169	1
174	0
175	0
176	0
177	1
178	4
179	4
180	3
181	0
195	1
196	1
197	21
198	4
199	0
213	0
251	0
252	1
253	0
