Mass Spectrum: Bicyclo[4.1.0]heptane, 7-(1-methylethylidene)-
Formula: C10H16
CAS: 53282-47-6
Molecular weight: 136
m/z	intensity
38	50
39	550
40	127
41	666
42	133
43	233
50	66
51	200
52	105
53	316
54	127
55	383
56	50
57	44
59	44
62	38
63	77
65	166
66	133
67	833
68	266
69	116
70	100
77	400
78	100
79	666
80	216
81	233
82	216
83	33
91	383
92	100
93	999
94	283
95	283
96	33
105	150
106	66
107	400
108	300
109	44
121	666
122	100
136	283
137	44
