Mass Spectrum: L-Arabinose
Formula: C5H10O5
CAS: 5328-37-0
Molecular weight: 150
m/z	intensity
12	4
13	10
14	59
15	214
16	6
17	6
18	34
19	1
24	4
25	14
26	78
27	97
28	219
29	567
30	228
31	824
32	551
33	59
34	5
36	2
37	6
38	8
39	42
40	31
41	60
42	380
43	743
44	242
45	132
46	7
47	40
48	1
49	8
50	5
51	5
52	6
53	12
54	24
55	106
56	88
57	203
58	65
59	23
60	855
61	671
62	35
63	4
64	1
65	2
66	2
67	3
68	45
69	36
70	9
71	211
72	360
73	999
74	98
75	12
76	2
77	9
78	1
79	2
80	5
81	4
82	5
83	17
84	11
85	61
86	77
87	12
88	4
89	22
90	33
91	65
92	3
93	2
94	1
95	8
96	13
97	8
98	9
99	2
100	1
101	93
102	33
103	60
104	6
105	2
106	1
107	1
108	1
109	1
110	1
111	2
112	1
113	2
114	16
115	8
116	1
119	57
120	4
121	3
123	1
124	1
125	2
126	1
127	1
131	1
132	1
133	17
134	1
135	1
149	2
