Mass Spectrum: Pregn-2-en-17-ol, 4,4-dimethyl-, (5.alpha.,17.xi.)-
Formula: C23H38O
CAS: 53286-40-1
Molecular weight: 330
m/z	intensity
30	232
77	149
78	36
79	338
80	47
81	389
82	123
83	98
85	278
86	78
87	14
91	296
92	47
93	390
94	87
95	999
96	58
97	87
98	58
99	36
117	49
119	320
120	147
121	758
122	169
123	287
124	29
144	40
146	80
147	27
148	400
149	163
150	196
151	49
159	118
160	40
161	276
162	69
163	118
165	29
173	138
174	103
175	276
176	116
177	94
241	40
243	229
244	67
245	67
247	29
248	47
256	40
257	125
258	376
259	118
260	18
275	127
276	29
283	120
284	27
285	30
287	338
288	98
298	138
299	29
301	276
302	80
330	567
331	189
332	30
