Mass Spectrum: Methyl-.beta.-D-arabinopyranoside
Formula: C6H12O5
CAS: 5328-63-2
Molecular weight: 164
m/z	intensity
14	4
15	52
16	1
17	9
18	39
19	3
26	4
27	31
28	36
29	69
30	11
31	90
32	6
33	63
38	1
39	12
40	8
41	40
42	54
43	169
44	62
45	112
46	3
47	8
53	2
54	4
55	28
56	18
57	166
58	43
59	63
60	999
61	358
62	12
63	1
68	9
69	38
70	3
71	162
72	12
73	703
74	462
75	32
76	3
77	1
83	1
85	40
86	79
87	46
88	4
89	7
90	1
91	19
92	1
97	5
99	1
100	34
101	3
102	3
103	11
104	5
105	8
114	23
115	35
116	15
117	3
120	3
132	6
133	85
134	9
135	1
146	3
164	3
165	1
