Mass Spectrum: Androst-2-en-17-amine, 4,4-dimethyl-N-propyl-, (5.alpha.)-
Formula: C24H41N
CAS: 53286-43-4
Molecular weight: 343
m/z	intensity
67	60
68	24
69	28
70	124
71	7
72	46
91	56
92	10
93	53
94	17
95	37
96	17
98	999
99	115
138	97
312	28
313	10
314	293
315	74
342	30
343	119
344	28
