Mass Spectrum: Cholesta-5,7,9(11)-trien-3-ol, 4,4-dimethyl-, (3.beta.)-
Formula: C29H46O
CAS: 53296-72-3
Molecular weight: 410
m/z	intensity
14	20
15	20
18	40
26	30
27	80
28	50
29	190
31	20
39	50
40	20
41	520
42	50
43	999
44	40
45	20
50	10
51	20
53	50
55	600
56	50
57	550
58	30
59	30
65	20
67	120
68	10
69	470
70	50
71	300
72	20
73	20
77	60
78	30
79	70
81	160
82	20
83	340
84	30
85	50
91	100
92	20
93	60
94	20
95	140
96	30
97	200
98	20
99	40
105	90
107	50
108	20
109	70
110	10
111	70
115	50
116	20
117	40
118	30
119	80
120	10
121	40
123	40
125	20
127	40
128	110
129	150
130	50
131	110
132	20
133	40
135	100
136	20
137	30
141	170
142	140
143	250
144	70
145	160
146	40
147	30
149	20
150	30
151	20
152	50
153	100
154	100
155	590
156	240
157	370
158	130
159	110
160	30
161	20
163	10
165	140
166	90
167	160
168	140
169	520
170	270
171	330
172	150
173	110
174	20
175	10
176	10
177	10
178	50
179	140
180	90
181	220
182	130
183	370
184	250
185	250
186	80
187	80
188	20
189	30
190	20
191	50
192	50
193	120
194	70
195	260
196	120
197	340
198	160
199	130
200	40
201	40
202	20
203	50
204	20
205	40
206	40
207	110
208	70
209	220
210	100
211	490
212	160
213	90
214	30
215	50
216	20
217	20
218	50
219	40
220	20
221	80
222	50
223	280
224	110
225	260
226	80
227	120
228	60
229	140
230	40
233	30
234	20
235	50
236	50
237	220
238	130
239	190
240	80
241	270
242	90
243	150
244	40
245	20
247	20
248	20
249	40
250	30
251	100
252	80
253	100
254	210
255	300
256	70
257	40
258	20
259	20
263	50
264	30
265	260
266	70
267	50
268	30
269	100
270	40
271	20
277	30
279	130
280	50
281	100
282	30
283	30
291	20
292	10
293	40
295	40
296	20
297	40
307	40
308	20
309	50
310	30
311	50
312	20
313	20
315	190
316	40
317	30
321	30
323	50
324	300
325	200
326	60
327	80
328	20
336	190
337	90
338	30
339	20
340	40
341	20
349	80
350	30
351	30
352	20
353	40
354	20
361	40
362	20
363	50
364	30
365	10
367	40
368	20
373	20
375	30
376	40
377	310
378	260
379	100
380	30
381	80
382	20
389	20
390	20
391	20
392	190
393	140
394	80
395	100
396	80
397	30
405	20
408	30
409	20
410	110
411	40
