Mass Spectrum: Pseudo uridine penta-tms
Formula: C24H52N2O6Si5
CAS: 53294-25-0
Molecular weight: 604
m/z	intensity
55	4
59	9
69	5
72	42
73	999
74	82
75	67
76	1
77	3
84	1
89	1
91	2
99	1
100	12
101	4
102	1
103	39
104	1
105	1
113	2
115	1
116	2
117	6
118	1
119	1
127	5
129	16
131	9
132	1
133	22
134	1
135	1
140	1
141	1
142	2
143	10
144	1
145	1
146	10
147	128
148	16
149	11
150	0
154	0
155	0
156	2
157	2
158	1
166	0
173	0
174	2
175	0
177	0
184	0
185	0
188	1
189	9
190	1
191	6
192	0
193	1
201	0
203	1
204	2
205	1
207	0
215	28
216	151
217	910
218	180
219	75
220	7
221	2
229	2
230	25
231	4
232	3
239	0
240	0
241	1
245	0
253	2
254	1
255	1
256	0
257	0
265	0
267	3
269	33
270	4
271	1
281	2
282	1
283	8
284	0
285	2
288	0
289	0
291	0
297	0
300	0
327	0
335	0
355	10
356	26
357	82
358	24
359	9
360	0
369	1
370	3
371	9
372	2
373	0
383	7
384	1
385	0
386	1
387	0
409	0
411	5
412	1
424	27
425	6
443	0
496	0
589	1
