Mass Spectrum: Clomethiazole
Formula: C6H8ClNS
CAS: 533-45-9
Molecular weight: 161
m/z	intensity
41	82
42	23
45	399
46	20
47	23
49	44
50	20
51	64
52	23
53	64
54	16
55	16
57	19
58	82
59	107
61	19
62	20
63	24
64	16
65	166
66	20
68	33
69	126
70	44
71	107
72	23
73	20
83	8
84	33
85	455
86	23
87	24
97	51
98	23
99	23
112	999
113	164
114	104
161	521
162	46
163	194
164	15
