Mass Spectrum: 1,2-Propanediol, 3-(2-methylphenoxy)-, 1-carbamate
Formula: C11H15NO4
CAS: 533-06-2
Molecular weight: 225
m/z	intensity
15	27
17	32
18	145
19	53
26	14
27	83
28	80
29	113
30	10
31	147
32	12
38	9
39	122
40	12
41	32
42	41
43	231
44	223
45	99
46	16
47	5
50	21
51	69
52	40
53	36
55	12
56	8
57	278
58	12
61	159
62	165
63	38
64	12
65	148
66	13
74	45
75	226
76	10
77	173
78	76
79	115
80	67
81	8
89	38
90	86
91	350
92	39
93	20
94	6
104	32
105	27
106	12
107	314
108	999
109	114
110	8
118	948
119	49
120	9
121	87
122	34
131	13
133	60
134	5
135	5
145	19
146	19
147	5
150	9
151	20
182	124
183	14
225	108
226	12
