Mass Spectrum: Benzaldehyde 4-pyridinecarbonylhydrazone
Formula: C13H11N3O
CAS: 533-02-8
Molecular weight: 225
m/z	intensity
17	8
18	40
26	5
27	7
28	23
29	1
32	1
37	3
38	9
39	39
40	7
41	7
42	2
43	4
44	8
49	3
50	58
51	247
52	46
53	6
54	1
55	2
57	3
61	2
62	10
63	37
64	23
65	118
66	11
67	2
69	2
71	2
74	5
75	10
76	24
77	68
78	502
79	189
80	10
81	1
83	1
85	1
86	1
87	2
88	1
89	74
90	60
91	23
92	127
93	13
94	8
95	3
97	1
99	1
102	9
103	46
104	106
105	40
106	999
107	77
108	5
111	1
115	3
117	1
118	12
119	78
120	8
121	4
122	924
123	80
124	5
127	1
139	2
140	1
141	1
142	1
147	10
148	27
149	3
166	2
167	10
168	8
169	2
181	2
195	1
196	2
197	1
223	3
224	19
225	124
226	18
227	1
