Mass Spectrum: 1,5,5-Trimethyl-2-thia-4-azabicyclo(4.2.2)dec-3-en-3-amine
Formula: C11H20N2S
CAS: 5330-92-7
Molecular weight: 212
m/z	intensity
15	4
17	5
26	1
27	25
28	15
29	31
30	5
31	1
32	1
38	1
39	31
40	7
41	91
42	45
43	392
44	16
45	31
46	18
47	6
50	1
51	5
52	3
53	24
54	6
55	55
56	15
57	25
58	49
59	15
60	84
61	12
62	1
63	1
64	1
65	9
66	3
67	34
68	9
69	23
70	9
71	14
72	3
73	35
74	14
75	11
76	1
77	23
78	3
79	25
80	5
81	33
82	7
83	176
84	999
85	71
86	11
87	20
88	25
89	3
91	13
92	2
93	23
94	9
95	104
96	20
97	5
98	2
99	7
100	8
101	4
102	1
103	1
105	4
106	1
107	9
108	3
109	5
110	4
111	3
112	1
113	7
114	6
115	207
116	22
117	19
118	2
119	3
120	1
121	27
122	4
123	5
124	2
126	1
127	16
128	14
129	26
130	4
131	1
132	1
135	3
136	10
137	8
138	38
139	5
140	1
141	3
142	3
143	33
144	3
145	2
149	1
152	38
153	5
155	21
156	22
157	4
158	1
165	7
166	1
169	10
170	8
171	1
179	44
180	6
183	2
184	1
197	388
198	47
199	19
200	2
210	1
211	3
212	209
213	34
214	11
215	1
