Mass Spectrum: Benzene, 1-(2-chlorocyclohexylthio)-2,4-dinitro-
Formula: C12H13ClN2O4S
CAS: 5330-96-1
Molecular weight: 316
m/z	intensity
33	14
34	1
36	4
39	74
41	143
43	10
45	33
46	2
47	3
49	3
50	6
51	21
53	93
55	86
57	5
58	9
59	2
60	1
61	2
62	7
63	43
65	11
66	15
67	33
69	32
71	8
73	3
75	50
77	41
79	125
81	999
83	6
84	2
85	3
86	0
87	1
88	3
89	7
90	5
91	6
92	1
93	5
95	16
96	15
97	5
98	1
99	2
100	0
102	2
103	1
105	5
106	8
107	10
108	4
109	2
110	1
111	1
112	2
113	0
115	10
117	24
119	6
120	5
121	4
122	6
123	3
124	1
125	1
126	1
127	0
128	0
129	0
133	2
134	3
135	1
136	6
137	11
138	1
139	0
141	0
142	0
143	0
145	0
146	1
147	2
148	1
149	1
150	1
151	2
152	0
153	1
154	1
155	0
157	0
158	0
161	0
163	0
164	0
167	2
168	1
170	4
171	1
173	0
175	0
177	0
181	1
183	25
184	8
185	2
186	1
187	0
188	0
189	0
190	0
194	0
197	2
200	118
201	9
202	5
203	1
207	0
217	5
246	0
263	0
281	0
286	0
288	0
316	13
317	1
318	4
319	0
