Mass Spectrum: Benzeneacetamide, N-(phenylacetyl)-
Formula: C16H15NO2
CAS: 5330-40-5
Molecular weight: 253
m/z	intensity
26	1
27	3
28	1
37	1
38	4
39	29
40	3
41	9
42	3
43	11
44	6
45	5
46	1
50	8
51	19
52	4
53	1
55	1
58	1
59	2
61	4
62	7
63	26
64	9
65	93
66	5
69	2
70	1
73	1
74	2
75	2
76	2
77	8
78	3
79	3
86	1
87	1
88	2
89	63
90	147
91	539
92	83
93	5
104	1
105	1
106	2
107	2
115	1
116	24
117	69
118	999
119	94
120	6
121	1
134	2
135	48
136	79
137	7
149	1
161	1
165	1
178	1
179	1
181	1
253	373
254	67
255	7
