Mass Spectrum: (-)-(E)-Pinane-1,10-diol
Formula: C10H18O2
CAS: 53312-42-8
Molecular weight: 170
m/z	intensity
25	0
26	5
27	99
29	115
30	8
31	75
33	0
37	0
38	3
39	118
40	34
41	470
42	111
43	362
44	20
45	17
46	1
47	2
48	0
49	0
50	5
51	18
52	11
53	89
54	51
55	445
56	50
57	56
58	11
59	31
60	3
61	8
62	2
63	4
64	2
65	35
66	23
67	471
68	81
69	269
70	399
71	137
72	15
73	145
74	7
75	2
76	0
77	60
78	13
79	102
80	81
81	343
82	999
83	202
84	25
85	46
86	12
87	39
88	181
89	18
90	3
91	43
92	11
93	65
94	20
95	86
96	84
97	69
98	68
99	16
100	5
101	10
102	3
103	4
104	3
105	24
106	9
107	27
108	23
109	144
110	26
111	15
112	4
113	3
114	252
115	24
116	187
117	17
118	4
119	13
120	2
121	44
122	8
123	19
124	45
125	9
126	0
127	33
128	6
129	0
131	0
133	2
134	5
135	6
136	1
137	19
138	3
139	30
140	5
141	3
142	4
148	0
150	1
151	1
152	54
153	13
154	2
155	5
156	1
167	0
168	0
169	0
170	13
171	2
