Mass Spectrum: 2-Hydroxyethyl butyl sulfide
Formula: C6H14OS
CAS: 5331-37-3
Molecular weight: 134
m/z	intensity
14	2
15	12
17	2
18	7
26	11
27	113
28	27
29	191
30	5
31	53
32	5
33	1
34	3
35	10
37	1
38	3
39	50
40	7
41	230
42	12
43	23
44	28
45	102
46	53
47	121
48	37
49	12
50	4
51	4
52	1
53	12
54	11
55	157
56	242
57	171
58	12
59	43
60	122
61	999
62	38
63	45
64	1
67	2
69	6
70	1
71	3
72	1
73	12
74	3
75	11
76	3
77	12
78	25
79	11
80	2
81	1
82	2
83	1
85	2
87	13
88	38
89	66
90	37
91	110
92	8
93	5
101	4
103	173
104	12
105	28
106	2
107	1
114	1
115	1
116	3
117	6
118	1
119	1
132	8
133	2
134	375
135	28
136	18
137	1
