Mass Spectrum: 2-Chloroethyl methyl sulfoxide
Formula: C3H7ClOS
CAS: 5331-57-7
Molecular weight: 126
m/z	intensity
41	51
45	536
47	652
48	239
49	135
51	37
58	79
59	99
61	251
63	999
64	463
65	176
66	24
74	9
75	20
83	63
85	24
110	29
112	10
126	143
127	55
128	51
129	19
