Mass Spectrum: Propane-1,1-diol dipropanoate
Formula: C9H16O4
CAS: 5331-24-8
Molecular weight: 188
m/z	intensity
39	9
41	10
43	9
44	9
55	9
56	9
57	999
58	39
93	10
115	118
131	10
