Mass Spectrum: 9-Borabicyclo[3.3.1]nonane, 9-(1-methylpropyl)-
Formula: C12H23B
CAS: 53317-06-9
Molecular weight: 178
m/z	intensity
27	293
29	98
31	1
36	15
37	77
38	61
39	329
40	390
41	999
42	23
43	15
44	3
49	9
50	68
51	187
52	265
53	929
54	258
55	403
56	85
57	58
59	3
60	3
61	9
62	9
63	43
64	107
65	386
66	252
67	622
68	533
69	156
70	18
73	10
74	4
75	12
76	48
77	153
78	194
79	643
80	319
81	284
82	84
83	22
84	5
85	6
86	2
87	5
88	15
89	53
90	68
91	246
92	407
93	975
94	635
95	278
96	37
103	5
104	13
105	42
106	38
107	155
108	242
109	125
110	19
111	2
117	6
118	18
119	46
120	168
121	533
122	470
123	44
133	3
134	12
135	65
136	98
137	31
138	2
148	17
149	88
150	14
163	3
176	4
177	212
178	920
179	133
180	7
