Mass Spectrum: Cyclohexanone, 2-(hydroxymethyl)-
Formula: C7H12O2
CAS: 5331-08-8
Molecular weight: 128
m/z	intensity
14	7
15	34
16	4
17	71
18	299
19	5
26	33
27	325
28	104
29	246
30	28
31	255
32	7
36	1
37	11
38	29
39	346
40	88
41	667
42	440
43	312
44	199
45	143
46	6
47	5
48	3
49	5
50	24
51	43
52	21
53	124
54	285
55	827
56	163
57	652
58	78
59	19
60	142
61	20
62	6
63	10
65	25
66	172
67	685
68	672
69	510
70	270
71	223
72	45
73	89
74	96
75	20
77	33
78	19
79	101
80	32
81	355
82	427
83	233
84	114
85	242
86	55
87	60
88	5
91	21
92	52
93	17
94	7
95	126
96	14
97	101
98	143
99	226
100	37
104	5
105	10
107	5
109	48
110	999
111	170
112	18
113	29
127	18
128	213
129	17
