Mass Spectrum: Dimethyl tartarate (R*,S*)-, 2TMS derivative
Formula: C12H26O6Si2
CAS: 53319-85-0
Molecular weight: 322
m/z	intensity
40	9
43	34
44	27
45	186
46	11
47	18
52	6
55	9
57	11
58	20
59	204
60	15
61	20
69	6
71	9
72	22
73	999
74	100
75	134
76	9
77	6
79	6
85	9
87	6
88	6
89	350
90	29
91	18
99	6
101	25
102	104
103	177
104	20
105	56
106	6
107	11
115	9
116	15
117	20
119	61
120	6
121	11
130	81
131	68
132	11
133	81
134	11
135	9
143	36
146	20
147	454
148	52
149	27
159	25
161	252
162	31
163	47
164	6
175	79
176	11
177	9
189	13
203	6
204	11
207	13
217	59
218	9
219	15
234	338
235	104
236	34
237	6
247	109
248	22
249	11
263	61
264	13
265	6
307	172
308	40
309	18
