Mass Spectrum: Phosphinothioic fluoride, (1,1-dimethylethyl)(pentafluorophenyl)-
Formula: C10H9F6PS
CAS: 53327-25-6
Molecular weight: 306
m/z	intensity
55	23
56	113
57	999
58	32
69	66
76	23
119	17
129	6
131	12
168	8
169	8
180	10
181	7
217	27
218	3
219	4
246	2
247	9
248	16
249	9
262	3
263	2
264	5
267	2
269	2
271	2
273	11
274	4
291	4
306	32
307	4
