Mass Spectrum: Phosphonothioic dichloride, (pentafluorophenyl)-
Formula: C6Cl2F5PS
CAS: 53327-26-7
Molecular weight: 300
m/z	intensity
63	558
64	287
65	47
66	132
67	54
68	47
69	620
74	62
75	16
76	775
77	39
78	85
79	155
80	23
81	8
82	47
85	450
86	54
87	132
88	47
93	140
94	16
98	140
99	47
100	31
101	999
103	698
104	39
105	217
110	147
111	85
112	16
117	318
118	8
145	163
146	23
147	62
148	78
149	39
155	70
167	54
179	47
180	217
181	23
182	23
196	240
197	31
198	109
199	217
200	62
201	16
202	31
230	163
231	31
232	23
233	326
234	62
235	93
236	23
265	457
266	67
267	225
268	233
269	31
270	194
300	775
301	155
302	543
303	155
304	202
