Mass Spectrum: 3-Methyl-4-cyclohexene-1,2-dicarboxylic anhydride
Formula: C9H10O3
CAS: 5333-84-6
Molecular weight: 166
m/z	intensity
26	30
27	151
29	15
30	0
31	0
37	5
38	24
39	254
41	83
42	11
43	4
44	5
45	16
46	14
47	0
49	0
50	42
51	107
52	40
53	81
54	12
55	10
56	2
60	26
61	2
62	9
63	26
64	6
65	53
66	43
67	45
68	56
69	3
71	1
74	2
75	2
76	2
77	266
78	65
79	999
80	65
81	5
82	2
84	0
86	0
87	1
89	3
90	1
91	108
92	36
93	569
94	400
95	44
96	2
97	3
99	17
100	1
103	2
105	2
107	2
109	0
110	6
111	2
118	1
119	1
120	5
121	7
123	17
124	5
137	4
138	263
139	29
140	2
148	2
166	15
167	6
168	1
