Mass Spectrum: 1,5-Di-(p-tolyl)pentane-1,5-dione
Formula: C19H20O2
CAS: 5333-22-2
Molecular weight: 280
m/z	intensity
20	0
26	0
27	13
28	8
29	1
30	1
32	2
36	0
38	1
39	36
40	3
41	24
42	3
43	5
44	1
45	0
46	0
50	4
51	14
52	3
53	3
54	0
55	43
56	2
57	4
59	1
61	0
62	2
63	19
64	7
65	128
66	7
67	1
68	1
69	3
70	1
71	2
72	0
73	1
74	1
75	3
76	9
77	11
78	4
79	5
80	1
81	1
82	1
83	1
84	0
85	1
86	0
87	1
88	6
89	39
90	24
91	371
92	39
93	4
94	1
95	2
96	1
97	1
98	0
99	0
100	1
101	6
102	9
103	14
104	2
105	11
106	2
107	2
108	0
109	0
110	0
111	0
113	0
114	0
115	7
116	2
117	8
118	8
119	999
120	90
121	7
122	0
123	0
125	0
126	1
127	1
128	3
129	3
130	0
131	3
132	1
133	2
134	268
135	27
136	1
137	0
139	1
140	0
141	1
142	1
143	2
144	29
145	8
146	11
147	82
148	8
149	1
150	1
151	1
152	2
153	0
157	0
158	0
159	2
160	11
161	45
162	5
163	2
164	0
165	3
166	0
167	1
170	0
171	0
174	0
175	0
176	3
177	2
178	5
179	3
180	0
187	1
188	2
189	17
190	7
191	15
192	3
193	0
200	1
201	1
202	6
203	4
204	4
205	20
206	95
207	17
208	1
209	1
219	1
220	1
221	0
224	2
225	0
233	0
237	0
247	1
248	0
251	1
252	1
261	1
262	6
263	1
265	1
266	1
279	0
280	66
281	14
282	1
