Mass Spectrum: 3-Pentadecanol
Formula: C15H32O
CAS: 53346-71-7
Molecular weight: 228
m/z	intensity
31	88
40	222
41	488
42	111
43	399
44	88
45	66
53	111
54	66
55	444
56	99
57	333
58	133
59	999
60	88
69	266
70	77
71	222
72	44
73	22
81	22
82	22
83	111
84	33
85	44
86	22
87	22
97	66
98	22
99	33
111	44
112	22
126	33
171	22
199	244
200	44
210	28
211	5
