Mass Spectrum: Propanoic acid, 2-(phenylmethoxy)-, methyl ester
Formula: C11H14O3
CAS: 53346-03-5
Molecular weight: 194
m/z	intensity
26	3
27	15
28	4
29	9
30	2
31	7
38	5
39	44
40	4
41	15
42	2
43	17
44	2
45	6
50	12
51	38
52	11
53	4
55	13
56	26
57	80
58	5
59	36
60	3
61	1
62	5
63	25
64	8
65	134
66	8
67	3
73	2
74	3
75	3
77	46
78	9
79	39
80	3
83	2
85	2
86	1
87	18
88	449
89	58
90	26
91	999
92	115
93	5
104	1
105	21
106	5
107	106
108	10
109	1
117	1
118	3
119	2
121	5
122	2
133	2
134	2
135	32
136	5
141	1
149	2
150	6
151	1
193	1
194	1
195	1
