Mass Spectrum: 2-(2-Piperidin-1-yl-ethyl)-pyridine
Formula: C11H17N3
CAS: 53345-15-6
Molecular weight: 191
m/z	intensity
41	99
42	120
43	657
44	60
55	79
58	239
69	58
78	50
84	50
86	151
98	999
99	78
106	90
