Mass Spectrum: Ethyl 2-hydroxybenzyl sulfone
Formula: C9H12O3S
CAS: 53380-27-1
Molecular weight: 200
m/z	intensity
50	16
51	52
52	34
53	29
57	5
63	16
64	9
65	11
66	5
77	268
78	141
79	95
81	9
92	16
105	9
107	999
108	79
120	20
136	14
200	34
