Mass Spectrum: 1-(3,4-Dichlorophenyl)-3-(2-pyridyl)-2-thiourea
Formula: C12H9Cl2N3S
CAS: 53385-91-4
Molecular weight: 297
m/z	intensity
35	10
36	28
37	39
38	74
39	113
40	59
41	74
42	9
43	9
44	16
45	6
47	12
48	4
49	19
50	38
51	83
52	45
53	12
54	10
55	4
56	1
57	4
60	9
61	28
62	48
63	68
64	36
65	45
66	56
67	415
68	21
69	4
71	9
72	13
73	39
74	23
75	25
76	9
78	179
79	14
81	10
82	5
83	4
84	12
85	8
86	7
87	9
88	20
89	10
90	38
91	12
92	31
94	999
95	54
97	31
98	14
99	39
100	7
101	11
105	1
107	6
109	18
110	4
111	6
112	2
119	1
120	107
121	142
122	9
123	9
124	97
125	23
126	47
127	10
128	5
133	21
134	9
135	13
136	6
137	2
141	4
142	2
145	4
147	3
153	1
159	28
161	242
163	152
164	8
165	20
166	1
168	1
171	1
187	76
189	54
190	4
191	7
280	1
281	42
282	6
283	25
284	3
285	4
