Mass Spectrum: 6-Uracilsulfonamide
Formula: C4H5N3O4S
CAS: 5338-86-3
Molecular weight: 191
m/z	intensity
41	49
42	25
43	82
44	62
45	31
46	6
48	132
50	5
53	12
55	30
57	27
64	159
65	26
67	125
68	999
69	33
70	38
77	6
80	36
84	52
111	23
115	5
120	5
127	11
150	5
175	7
191	232
193	15
