Mass Spectrum: 3-Oxo-.alpha.-damascone
Formula: C13H18O2
CAS: 53398-09-7
Molecular weight: 206
m/z	intensity
37	9
38	54
39	478
40	171
41	678
42	145
43	235
44	16
50	46
51	150
52	90
53	326
54	49
55	236
56	23
57	22
62	15
63	40
64	15
65	121
66	43
67	261
68	79
69	999
70	360
71	38
75	6
77	296
78	58
79	334
80	43
81	87
82	35
83	87
89	5
91	142
92	20
93	99
94	62
95	65
96	75
97	8
103	9
105	39
107	76
108	62
109	150
110	15
111	9
115	6
119	9
120	4
121	63
122	219
123	544
124	169
125	16
135	37
136	7
137	49
138	561
139	194
140	12
149	23
150	42
151	17
163	21
164	11
178	8
191	88
192	12
206	210
207	35
