Mass Spectrum: 4-Oxo-.beta.-damascone
Formula: C13H18O2
CAS: 53398-08-6
Molecular weight: 206
m/z	intensity
38	0
39	80
40	26
41	241
42	9
43	57
44	21
45	3
50	2
51	11
52	4
53	37
54	2
55	53
56	2
57	7
63	3
65	18
66	7
67	63
68	10
69	999
70	44
71	4
74	1
77	30
78	5
79	37
80	3
81	32
82	1
83	4
84	0
91	26
92	4
93	15
94	4
95	19
96	2
97	2
98	0
103	0
105	17
106	4
107	30
108	7
109	38
110	10
111	16
117	1
119	9
121	56
122	14
123	60
124	5
128	0
131	4
133	6
134	0
135	32
136	7
137	58
138	152
139	12
145	9
146	0
147	4
148	1
149	25
150	45
151	9
158	2
160	0
161	1
163	38
164	8
165	1
173	14
176	0
177	4
178	10
188	4
189	8
191	121
192	17
205	1
206	150
