Mass Spectrum: Pimeclone
Formula: C12H21NO
CAS: 534-84-9
Molecular weight: 195
m/z	intensity
15	3
26	7
27	40
28	42
29	34
30	22
31	1
37	2
38	7
39	81
40	27
41	135
42	98
43	32
44	43
45	1
49	1
50	8
51	13
52	9
53	34
54	76
55	116
56	66
57	36
58	3
61	1
62	1
63	3
64	1
65	9
66	5
67	155
68	29
69	27
70	37
71	2
74	1
75	1
77	6
78	2
79	14
80	8
81	23
82	50
83	14
84	113
85	53
86	3
91	2
92	1
93	1
94	4
95	3
96	43
97	11
98	999
99	69
100	3
108	1
109	2
110	48
111	5
112	1
122	3
123	1
124	9
125	1
126	1
136	1
137	1
138	6
139	1
148	1
150	1
152	2
153	1
166	2
167	1
178	1
193	1
194	2
195	6
196	1
