Mass Spectrum: Neopentyl ethyl ketone
Formula: C8H16O
CAS: 5340-30-7
Molecular weight: 128
m/z	intensity
12	0
13	0
14	7
15	39
16	2
17	3
18	9
19	0
25	0
26	20
27	272
28	89
29	563
30	12
31	5
32	5
37	1
38	7
39	147
40	21
41	302
42	38
43	271
44	9
45	2
49	0
50	5
51	9
52	3
53	24
54	6
55	56
56	52
57	999
58	56
59	2
62	0
63	0
65	1
66	0
67	2
68	0
69	2
70	3
71	111
72	146
73	24
74	1
77	0
79	0
81	1
82	0
83	6
84	0
85	0
91	0
95	0
97	0
98	0
99	160
100	11
101	0
112	0
113	8
114	0
128	97
129	11
