Mass Spectrum: 2-Pyridinecarboxylic acid, butyl ester
Formula: C10H13NO2
CAS: 5340-88-5
Molecular weight: 179
m/z	intensity
14	1
15	7
16	1
17	1
18	3
25	1
26	26
27	146
28	46
29	239
30	6
31	20
32	3
33	1
37	4
38	12
39	73
40	10
41	225
42	17
43	22
44	17
45	3
49	6
50	55
51	231
52	120
53	22
54	4
55	32
56	89
57	50
58	3
63	1
64	1
65	2
66	3
67	3
71	1
72	3
74	1
75	8
76	16
77	21
78	966
79	999
80	113
81	5
90	1
91	1
92	4
93	70
94	7
95	3
96	3
101	2
104	2
105	4
106	694
107	248
108	20
109	1
118	2
119	1
120	7
121	14
122	4
123	2
124	226
125	16
126	2
130	1
132	1
134	18
135	28
136	9
137	9
138	2
146	1
148	1
149	1
150	15
151	55
152	5
153	1
155	1
156	3
164	4
178	6
179	1
180	1
