Mass Spectrum: Methoxyacetic acid, 2-propenyl ester
Formula: C6H10O3
CAS: 53421-44-6
Molecular weight: 130
m/z	intensity
26	12
27	16
28	6
29	118
30	12
31	34
33	2
35	5
36	35
37	4
38	12
39	83
40	14
41	158
42	51
43	22
44	10
45	999
46	28
47	2
49	2
50	20
51	28
52	65
53	7
54	6
55	9
56	4
57	14
58	14
59	5
60	60
61	8
70	18
71	2
72	2
74	5
75	3
78	13
79	120
80	7
82	1
85	6
94	1
96	1
98	4
99	2
100	71
101	4
130	4
