Mass Spectrum: 3-Methyl-3-benzyldiaziridine
Formula: C9H12N2
CAS: 53451-94-8
Molecular weight: 148
m/z	intensity
30	40
38	60
39	330
40	80
41	220
42	770
43	90
44	70
50	100
51	240
52	60
57	280
58	190
59	76
62	76
63	140
64	30
65	270
66	60
76	31
77	130
78	110
79	9
89	80
90	80
91	920
92	540
93	50
94	9
106	80
107	46
115	280
116	130
117	999
118	710
119	56
120	7
130	80
131	34
132	100
133	160
134	17
147	44
148	150
149	19
