Mass Spectrum: Chloroacetic acid, 2-ethylhexyl ester
Formula: C10H19ClO2
CAS: 5345-58-4
Molecular weight: 206
m/z	intensity
25	1
26	9
27	64
28	9
29	106
30	2
31	7
35	2
36	12
37	2
38	4
39	57
40	12
41	286
42	76
43	272
44	9
45	3
47	1
48	3
49	71
50	10
51	24
52	9
53	22
54	20
55	367
56	239
57	999
58	38
59	5
65	3
66	2
67	21
68	18
69	119
70	896
71	161
72	14
73	5
76	8
77	158
78	6
79	53
80	6
81	7
82	34
83	277
84	116
85	9
86	1
87	1
91	1
93	2
95	11
97	20
98	23
99	15
100	2
101	2
107	6
108	40
109	5
110	14
111	4
112	87
113	8
129	1
149	2
157	4
163	1
