Mass Spectrum: 2-(4-Chloro-3-methylphenoxy)-2,3-dihydro-1H-1,3,2-benzodiazaphosphole2-oxide
Formula: C13H12ClN2O2P
CAS: 53454-20-9
Molecular weight: 294
m/z	intensity
50	43
51	111
52	116
53	134
54	96
63	64
64	44
65	40
67	24
77	126
78	80
79	55
80	456
81	158
90	23
91	48
105	171
106	37
107	540
108	999
109	75
135	27
141	24
142	262
143	27
144	84
152	87
153	300
154	20
181	20
294	168
295	33
296	69
