Mass Spectrum: 2,3,4,5-Tetrahydro-1,5-benzothiazepin-4-one
Formula: C9H9NOS
CAS: 53454-43-6
Molecular weight: 179
m/z	intensity
37	8
38	17
39	31
40	8
42	17
43	8
44	8
45	49
46	8
50	17
51	31
52	28
53	17
54	8
55	999
56	23
58	14
62	14
63	34
64	14
65	23
66	5
69	66
70	55
71	14
76	14
77	14
78	34
79	14
80	83
81	5
83	5
90	14
91	11
93	11
95	23
96	156
97	11
103	55
109	52
117	11
118	11
120	11
122	11
123	20
124	104
125	257
126	11
135	5
136	205
137	31
146	104
150	31
151	83
152	23
153	11
178	31
179	544
180	40
181	20
