Mass Spectrum: o-Anisaldehyde, semicarbazone
Formula: C9H11N3O2
CAS: 5346-30-5
Molecular weight: 193
m/z	intensity
36	5
37	18
38	62
39	176
40	34
41	30
42	34
43	143
44	999
46	2
47	0
48	0
49	5
50	92
51	204
52	55
53	44
54	8
55	7
56	2
57	2
58	1
59	1
60	48
61	40
62	50
63	143
64	85
65	144
66	24
67	6
68	4
69	2
70	0
71	0
73	4
74	24
75	34
76	37
77	180
78	114
79	48
80	37
81	8
82	1
83	0
84	0
85	2
86	7
87	7
89	129
90	94
91	690
92	159
93	33
94	15
95	8
96	1
99	0
100	0
101	0
102	9
103	25
104	158
105	84
106	32
107	89
108	28
109	2
110	0
112	1
115	0
116	18
117	15
118	99
119	433
120	49
121	13
122	11
123	2
124	1
125	0
127	0
129	0
131	9
132	53
133	983
134	291
135	48
136	8
137	1
145	0
146	0
147	1
148	3
149	115
150	27
151	2
152	1
160	0
161	5
162	5
163	0
166	0
167	1
168	0
175	0
176	1
177	0
191	0
193	238
194	30
195	2
