Mass Spectrum: Glucitol, 1,6-dibenzoate, D-
Formula: C20H22O8
CAS: 5346-88-3
Molecular weight: 390
m/z	intensity
27	10
28	1
29	6
30	0
31	0
35	0
36	5
37	0
38	1
39	4
40	1
41	3
42	2
43	17
44	3
45	11
47	1
49	0
50	9
51	36
52	4
53	1
54	0
55	5
56	5
57	11
58	1
59	1
60	11
61	7
62	0
63	0
64	0
65	1
66	1
67	0
68	4
69	4
70	0
71	6
72	1
73	64
74	11
75	4
76	9
77	179
78	16
79	22
80	1
81	0
82	0
83	0
84	0
85	18
86	63
87	3
88	0
89	0
90	0
91	2
92	4
93	0
94	0
97	5
98	1
99	0
100	0
101	0
102	0
103	66
104	7
105	999
106	67
107	4
108	0
110	2
111	0
115	4
116	0
117	0
118	0
119	0
121	0
122	27
123	85
124	6
125	0
127	0
128	4
129	2
130	1
131	0
132	0
133	2
134	0
135	2
136	6
137	0
139	0
145	0
146	1
147	0
148	0
152	2
153	0
154	0
155	3
156	8
157	1
159	0
160	0
165	56
166	6
167	0
177	16
178	17
179	2
181	4
189	1
190	4
191	0
195	48
196	5
201	0
207	43
208	6
209	0
219	1
220	0
225	24
226	3
227	1
232	0
237	21
238	3
239	0
250	2
251	0
255	0
269	0
282	1
299	0
311	1
312	0
329	0
330	0
341	1
