Mass Spectrum: .beta.-D-Glucopyranoside, 2-methylphenyl, tetraacetate
Formula: C21H26O10
CAS: 5346-66-7
Molecular weight: 438
m/z	intensity
43	999
81	60
97	60
108	103
109	380
127	170
139	47
145	47
169	380
187	16
203	6
211	16
229	14
271	16
287	0
288	1
331	107
345	0
365	0
379	0
438	0
