Mass Spectrum: 1-[.beta.-Hydroxyethyl]-4-cyano-5-aminopyrazole
Formula: C6H8N4O
CAS: 5346-53-2
Molecular weight: 152
m/z	intensity
41	13
42	47
43	84
44	11
45	25
51	29
52	80
53	58
54	25
55	24
56	3
57	3
64	9
65	22
66	51
67	115
68	24
69	4
77	34
78	17
79	31
80	7
81	8
91	3
92	20
94	148
95	14
104	9
106	11
108	999
109	113
110	4
119	1
121	318
122	29
123	0
134	0
135	5
136	1
151	2
152	633
153	64
154	7
