Mass Spectrum: Hydrazinecarboxamide, 2-[(3-nitrophenyl)methylene]-
Formula: C8H8N4O3
CAS: 5346-31-6
Molecular weight: 208
m/z	intensity
26	2
27	10
28	28
29	8
30	10
31	5
37	5
38	16
39	99
40	6
41	15
42	11
43	71
44	165
45	6
46	3
47	0
49	2
50	62
51	52
52	23
53	7
54	5
55	7
56	3
57	10
58	0
59	4
60	999
61	20
62	39
63	136
64	44
65	336
66	21
67	5
68	3
69	7
70	3
71	8
72	1
73	3
74	16
75	43
76	76
77	36
78	9
79	5
80	7
81	3
82	1
83	5
84	1
85	4
86	8
87	10
88	8
89	429
90	83
91	72
92	95
93	10
94	1
95	2
96	1
97	4
98	1
99	1
100	0
101	0
102	18
103	25
104	6
105	8
106	2
107	3
108	1
109	1
110	0
111	2
112	1
113	1
114	0
115	0
116	1
117	60
118	506
119	49
120	3
121	0
122	1
123	0
124	0
125	1
126	0
127	0
128	0
129	0
130	1
131	2
132	6
133	1
134	1
135	12
136	1
137	0
138	0
139	0
140	1
141	1
142	0
143	0
145	0
146	0
147	55
148	54
149	19
150	2
151	0
152	0
153	0
155	0
161	0
162	6
163	4
164	83
165	45
166	4
167	3
168	0
169	0
170	0
176	0
178	0
180	0
190	0
191	2
192	0
208	53
209	6
