Mass Spectrum: 3,6-Bis(4-methylphenyl)-1,2-dihydrotetrazine
Formula: C16H16N4
CAS: 53460-56-3
Molecular weight: 264
m/z	intensity
27	2
29	13
30	2
37	2
38	6
39	32
40	5
41	7
49	2
50	18
51	34
52	18
53	6
58	5
61	5
62	22
63	73
64	39
65	241
66	16
74	8
75	17
76	26
77	34
78	16
79	8
80	2
83	2
85	2
86	3
87	7
88	14
89	163
90	162
91	428
92	39
93	5
102	21
103	13
104	19
105	19
106	12
107	3
114	4
116	157
117	200
118	999
119	100
120	6
130	3
131	22
132	30
133	6
143	3
146	49
147	15
148	2
235	6
236	5
249	5
250	5
262	6
263	45
264	727
265	149
266	17
