Mass Spectrum: N-Pyridin-3-yl-benzenesulfonamide
Formula: C11H10N2O2S
CAS: 53472-19-8
Molecular weight: 234
m/z	intensity
37	5
38	24
39	151
40	31
41	3
48	0
50	31
51	129
52	12
53	3
55	0
57	0
63	8
64	19
65	43
66	112
67	17
69	3
70	0
73	1
74	11
75	10
77	999
78	99
79	6
81	5
82	0
83	0
89	5
90	3
91	4
92	21
93	256
94	51
95	4
96	1
97	16
98	1
99	0
101	0
102	0
103	1
104	4
105	1
106	0
109	5
110	1
112	4
114	0
115	38
116	12
117	6
123	0
125	28
126	8
127	5
128	1
129	1
130	1
141	854
142	69
143	55
144	5
152	0
154	0
155	0
159	0
160	0
165	1
166	0
167	5
168	15
169	157
170	23
171	1
181	5
184	0
185	0
188	0
191	2
192	1
193	0
234	839
235	121
236	51
237	3
