Mass Spectrum: Diethyl acetamido[4-[2-oxo-3-oxazolidinyl]butyl]malonate
Formula: C16H26N2O7
CAS: 53478-26-5
Molecular weight: 358
m/z	intensity
41	187
43	999
44	364
47	30
49	6
51	3
54	146
56	889
57	26
58	42
60	19
62	2
63	17
65	85
68	142
70	292
71	50
72	11
73	3
74	16
77	19
78	2
79	3
80	53
82	359
84	133
86	28
87	8
88	75
89	8
90	3
91	137
92	54
94	10
96	8
98	767
100	282
101	20
107	7
108	38
110	51
112	68
114	41
115	42
116	42
120	7
121	5
123	9
124	75
125	86
126	44
128	85
129	41
130	7
134	1
135	4
136	4
137	5
139	52
140	20
142	108
143	15
144	10
145	14
151	7
152	3
153	66
154	16
156	463
157	32
158	38
164	6
166	9
167	14
169	485
171	297
172	21
174	23
175	46
179	13
180	10
181	3
182	34
183	14
184	15
186	57
187	1
195	14
197	49
198	6
199	6
202	2
208	9
211	15
212	1
213	6
214	4
215	3
216	3
217	107
218	7
225	52
226	10
228	29
230	19
237	2
239	391
241	184
243	467
254	26
258	1
267	11
269	4
272	10
285	221
286	29
287	1
300	3
313	28
314	35
315	9
358	12
359	1
