Mass Spectrum: 5-Phenyl-1,3-diazaadamantane
Formula: C14H18N2
CAS: 53475-09-5
Molecular weight: 214
m/z	intensity
27	37
28	46
29	13
30	34
39	65
40	14
41	170
42	340
43	160
44	83
45	9
50	21
51	50
52	14
53	14
54	13
55	24
56	22
57	33
58	999
59	41
63	22
64	9
65	37
66	10
67	23
68	160
69	68
70	45
71	39
75	9
76	14
77	84
78	31
79	12
80	21
81	28
82	41
83	20
84	17
85	12
89	14
91	140
92	37
93	8
94	23
95	27
96	46
97	22
102	26
103	75
104	23
105	42
106	11
107	57
108	8
115	110
116	32
117	57
118	50
119	12
120	9
127	26
128	110
129	69
130	33
131	14
132	9
133	45
134	8
141	41
142	41
143	93
144	68
145	17
146	20
147	10
154	14
155	31
156	63
157	31
158	31
159	8
160	10
168	10
170	420
171	190
172	100
173	16
183	20
184	120
185	30
186	55
187	9
199	12
213	84
214	780
215	125
216	9
