Mass Spectrum: Phosphonotriamide, N,N',N''-tri(isopropyl)-
Formula: C9H24N3OP
CAS: 53484-45-0
Molecular weight: 221
m/z	intensity
45	31
46	24
47	21
56	44
58	999
59	50
60	87
61	14
64	95
78	44
79	502
80	20
86	23
88	14
90	13
95	67
104	22
105	58
106	27
107	17
119	16
121	359
122	23
147	28
149	34
161	10
163	336
164	48
165	49
206	154
207	16
221	42
222	4
