Mass Spectrum: Acetic acid, chloro-, octadecyl ester
Formula: C20H39ClO2
CAS: 5348-82-3
Molecular weight: 346
m/z	intensity
27	9
28	19
29	35
30	3
32	11
36	17
39	49
40	16
41	423
42	149
43	716
44	39
45	8
49	25
50	19
51	21
52	8
53	43
54	109
55	864
56	554
57	999
58	53
59	6
60	3
61	17
65	12
66	15
67	159
68	265
69	835
70	519
71	538
72	44
73	6
76	9
77	155
78	9
79	49
80	9
81	105
82	389
83	936
84	389
85	295
86	19
87	6
91	15
93	9
94	25
95	79
96	275
97	789
98	269
99	79
100	11
103	8
105	6
107	9
109	29
110	75
111	385
112	139
113	53
117	6
123	25
124	72
125	157
126	92
127	29
128	8
133	8
136	6
137	15
138	36
139	58
140	61
141	29
142	6
151	6
152	17
153	17
154	55
155	29
165	7
166	19
167	18
168	15
169	25
170	3
173	6
180	15
183	17
193	5
194	18
195	8
196	12
207	51
208	9
209	12
210	8
211	3
216	2
218	2
222	9
223	3
224	25
225	3
250	43
251	13
252	37
253	5
297	12
