Mass Spectrum: Aposcopolamine
Formula: C17H19NO3
CAS: 535-26-2
Molecular weight: 285
m/z	intensity
26	1
27	7
28	12
29	8
30	5
31	1
38	2
39	35
40	8
41	88
42	265
43	24
44	34
45	2
50	17
51	59
52	16
53	30
54	24
55	66
56	40
57	95
58	30
62	5
63	20
64	4
65	37
66	28
67	100
68	124
69	67
70	63
71	7
72	16
74	13
75	17
76	32
77	325
78	51
79	41
80	36
81	180
82	136
83	42
84	44
85	4
86	4
89	2
91	17
92	10
93	83
94	999
95	107
96	90
97	258
98	48
99	3
101	9
102	96
103	734
104	77
105	10
106	29
107	53
108	659
109	118
110	211
111	37
112	13
115	4
117	4
118	9
119	5
120	186
121	20
122	40
123	8
124	8
126	29
127	4
129	4
131	17
132	8
133	2
134	2
136	490
137	182
138	703
139	62
140	5
145	2
146	1
147	3
148	16
150	3
152	2
153	4
154	409
155	39
156	4
157	2
158	3
159	1
160	1
161	1
170	4
171	2
172	2
183	9
184	3
186	4
187	2
194	2
196	3
198	2
200	1
212	2
213	1
216	3
228	3
230	1
238	2
240	9
241	2
242	5
256	5
268	2
269	3
284	3
285	602
286	110
287	13
288	1
