Mass Spectrum: 2-Piperidinecarboxylic acid
Formula: C6H11NO2
CAS: 535-75-1
Molecular weight: 129
m/z	intensity
14	6
15	10
16	3
17	9
18	35
26	14
27	72
28	115
29	49
30	72
31	6
32	4
33	1
34	4
36	1
37	2
38	5
39	45
40	9
41	87
42	65
43	21
44	29
45	17
46	2
49	1
50	6
51	9
52	10
53	18
54	54
55	165
56	239
57	34
58	2
59	3
60	5
61	1
65	4
66	3
67	27
68	18
69	13
70	6
71	7
72	2
73	17
74	5
77	1
78	3
79	7
80	10
81	9
82	70
83	32
84	999
85	62
86	2
87	1
88	2
93	4
94	2
95	4
96	3
97	6
98	5
99	3
100	2
101	2
107	2
108	1
109	3
110	3
111	11
112	2
113	1
123	1
124	1
125	2
126	1
127	3
128	3
129	12
130	1
