Mass Spectrum: Lauric acid n-amyl ester
Formula: C17H34O2
CAS: 5350-03-8
Molecular weight: 270
m/z	intensity
15	3
18	1
26	4
27	96
28	21
29	213
30	5
31	7
32	1
38	1
39	55
40	12
41	343
42	187
43	710
44	24
45	13
50	1
51	2
52	2
53	17
54	23
55	314
56	63
57	287
58	16
59	10
60	186
61	168
62	5
63	2
65	3
66	2
67	32
68	22
69	140
70	999
71	325
72	16
73	214
74	25
75	4
77	2
78	1
79	7
80	4
81	29
82	14
83	82
84	50
85	90
86	10
87	54
88	9
89	16
90	1
91	1
92	1
93	6
94	3
95	38
96	13
97	59
98	51
99	19
100	6
101	42
102	34
103	16
104	1
105	1
107	5
108	1
109	22
110	8
111	24
112	13
113	6
114	3
115	75
116	8
117	7
121	5
122	1
123	8
124	2
125	11
126	3
127	2
129	72
130	56
131	22
132	2
135	3
136	2
137	2
138	12
139	9
140	7
141	4
142	1
143	56
144	6
145	2
149	1
151	1
153	3
154	1
155	1
157	58
158	7
159	2
163	9
164	3
165	3
167	2
169	1
171	22
172	4
173	2
180	2
181	9
182	3
183	270
184	37
185	9
186	1
187	1
198	1
199	14
200	90
201	483
202	65
203	6
211	1
213	1
227	10
228	2
229	2
241	5
242	1
255	1
270	21
271	5
