Mass Spectrum: 2,4-Dibromo-6-t-butylaminomethyl phenol
Formula: C11H15Br2NO
CAS: 53500-38-2
Molecular weight: 335
m/z	intensity
41	188
42	95
43	9
44	5
45	3
47	9
49	65
51	104
53	44
55	26
57	161
58	999
59	11
62	34
63	35
64	9
65	31
66	5
67	8
69	4
70	9
72	24
73	10
74	6
75	65
76	37
77	69
78	10
79	4
80	11
81	16
84	33
86	54
88	10
89	4
90	3
91	25
92	7
93	4
94	2
97	1
99	1
102	0
103	1
104	1
105	19
106	1
107	4
114	1
116	4
117	1
118	3
119	4
120	6
129	3
131	5
133	1
141	4
143	11
144	3
145	5
155	18
156	30
157	40
158	9
160	14
161	63
162	4
170	3
171	10
172	3
173	2
174	6
183	34
185	50
186	5
196	0
197	1
198	7
199	8
200	9
201	16
202	4
224	1
234	5
235	8
237	2
238	3
240	1
241	3
242	1
243	2
262	62
263	45
264	121
265	106
266	69
267	61
268	2
276	1
277	3
278	8
279	13
280	22
281	5
282	9
283	7
302	2
304	5
305	2
320	159
322	343
324	174
325	12
335	30
337	76
338	35
339	14
340	5
