Mass Spectrum: 5-Ethyl-2-methyl-pyridin-4-amine
Formula: C8H12N2
CAS: 5350-64-1
Molecular weight: 136
m/z	intensity
25	15
26	184
27	442
28	999
29	156
30	122
31	11
33	5
36	10
37	152
38	403
39	858
40	287
41	478
42	458
43	91
44	25
45	11
47	8
48	10
49	34
50	226
51	387
52	458
53	365
54	392
55	82
56	31
57	18
58	6
59	9
60	9
61	35
62	81
63	200
64	135
65	372
66	491
67	271
68	140
69	40
70	7
71	8
73	22
74	46
75	56
76	74
77	221
78	151
79	116
80	348
81	115
82	42
83	10
84	7
85	9
86	12
87	17
88	11
89	38
90	27
91	124
92	135
93	309
94	459
95	64
96	8
97	6
98	4
99	6
100	4
101	7
102	8
103	8
104	39
105	33
106	93
107	52
108	407
109	52
110	6
115	5
116	7
117	14
118	23
119	44
120	24
121	863
122	109
123	8
134	14
135	71
136	459
137	80
138	7
