Mass Spectrum: Methanone, (4-methylphenyl)(4-nitrophenyl)-
Formula: C14H11NO3
CAS: 5350-47-0
Molecular weight: 241
m/z	intensity
26	2
27	13
28	23
29	2
30	15
37	3
38	9
39	62
40	5
41	27
42	2
43	4
44	2
50	52
51	30
52	4
53	5
54	1
55	3
56	1
57	3
60	2
61	3
62	12
63	45
64	21
65	162
66	11
67	1
68	2
69	3
70	4
71	2
73	2
74	15
75	31
76	80
77	13
78	1
79	1
80	1
81	2
82	11
83	8
84	1
85	1
86	3
87	5
88	4
89	35
90	26
91	373
92	58
93	3
97	8
98	2
99	2
100	0
101	0
102	2
103	3
104	62
105	6
109	0
110	2
111	1
112	0
113	2
114	1
115	7
116	1
117	1
118	3
119	999
120	125
121	11
122	2
123	1
126	2
127	3
128	4
129	2
134	0
135	0
136	2
137	1
138	1
139	8
140	2
141	2
142	1
143	0
144	0
149	12
150	53
151	7
152	19
153	4
154	2
155	5
156	1
161	0
162	0
163	4
164	4
165	26
166	8
167	5
168	2
169	0
180	10
181	2
182	2
183	4
184	1
193	1
194	9
195	14
196	3
197	0
210	1
211	10
212	2
213	1
224	5
225	3
226	8
227	1
240	2
241	210
242	37
243	5
