Mass Spectrum: 2,3'-Bipiperidine, 1,1'-diacetyl-
Formula: C14H24N2O2
CAS: 53508-18-2
Molecular weight: 252
m/z	intensity
41	70
42	50
43	270
44	120
55	70
56	100
70	70
84	999
85	200
86	120
96	50
112	60
126	600
127	800
128	210
129	100
209	100
210	30
237	20
252	40
253	10
