Mass Spectrum: Propiophenone, 3-phenyl-3-piperidino-
Formula: C20H23NO
CAS: 5350-97-0
Molecular weight: 293
m/z	intensity
25	2
26	32
27	160
28	304
29	308
30	264
31	5
33	1
34	1
35	6
37	6
38	18
39	127
40	22
41	145
42	263
43	236
44	318
45	9
49	4
50	84
51	276
52	47
53	40
54	42
55	129
56	419
57	436
58	18
60	1
61	2
62	12
63	38
64	8
65	11
66	2
67	25
68	22
69	15
70	119
71	13
72	0
73	4
74	29
75	38
76	78
77	737
78	67
79	6
80	12
81	8
82	26
83	18
84	999
85	514
86	32
87	7
88	10
89	69
90	40
91	8
92	1
93	1
94	1
95	3
96	1
97	5
98	4
99	3
100	1
101	13
102	95
103	342
104	42
105	360
106	30
107	2
108	0
109	1
110	1
111	3
112	1
113	2
114	1
115	9
116	1
117	0
118	0
119	0
120	2
121	0
122	0
123	1
124	0
125	1
126	3
127	3
128	3
129	4
130	85
131	437
132	45
133	3
135	0
137	0
138	1
139	6
140	0
141	8
142	1
143	1
144	0
145	0
150	3
151	8
152	14
153	5
154	2
155	3
163	2
164	2
165	60
166	9
167	2
168	0
169	1
170	0
171	0
173	1
174	10
175	2
176	9
177	12
178	65
179	137
180	60
181	10
182	1
187	0
188	1
189	7
190	2
191	13
192	3
193	3
194	0
205	2
206	22
207	681
208	711
209	113
210	12
211	1
293	0
