Mass Spectrum: 2-Pyrrolidinone, 3-[(1,4,5,6-tetrahydro-3-pyridinyl)carbonyl]-
Formula: C10H14N2O2
CAS: 53508-14-8
Molecular weight: 194
m/z	intensity
41	50
44	40
53	40
55	60
67	40
80	70
81	60
82	480
83	40
84	50
110	999
111	90
152	40
166	40
194	290
195	50
