Mass Spectrum: 1,1,1,3,3,3-Hexafluoropropan-2-one, o-1,1,2,3,3,3-hexafluoropropyloxime
Formula: C6HF12NO
CAS: 53517-77-4
Molecular weight: 331
m/z	intensity
32	22
45	23
47	32
50	21
51	102
57	23
66	24
69	999
70	11
76	25
82	39
95	24
100	23
101	45
112	25
113	28
129	24
131	33
151	634
152	23
161	24
162	29
181	26
281	22
282	5
