Mass Spectrum: Hydrazinecarbothioamide, 2-(2-thienylmethylene)-
Formula: C6H7N3S2
CAS: 5351-91-7
Molecular weight: 185
m/z	intensity
33	52
34	8
35	2
37	51
38	60
39	64
40	4
41	20
42	78
43	244
45	166
46	29
47	41
48	23
49	21
50	59
51	30
52	23
53	10
54	4
56	7
57	86
58	65
59	230
60	999
61	59
62	74
63	38
64	8
65	4
66	2
68	9
69	81
70	62
71	18
72	7
73	1
74	6
75	11
76	19
81	45
82	32
83	16
84	7
85	1
92	7
93	17
95	65
96	68
97	31
98	43
99	22
100	2
109	13
110	29
111	3
112	3
123	0
124	1
125	50
126	10
127	1
152	1
154	0
168	17
169	1
170	2
185	86
186	10
187	4
