Mass Spectrum: 4,5-Secocholestan-4-oic acid, 5-oxo-
Formula: C27H46O3
CAS: 53512-58-6
Molecular weight: 418
m/z	intensity
41	840
43	999
79	440
81	716
83	440
119	242
121	325
122	198
159	104
160	66
161	212
201	115
202	38
203	68
247	126
317	68
332	798
333	209
400	52
403	35
418	33
