Mass Spectrum: Imidazole-5-carboxylic amide, N-methyl-
Formula: C5H7N3O
CAS: 53525-55-6
Molecular weight: 125
m/z	intensity
41	42
42	41
43	31
44	14
45	10
51	9
52	20
53	31
54	12
55	15
56	10
57	7
66	6
67	212
68	301
69	26
70	9
77	4
78	6
84	3
95	999
96	70
97	3
110	9
111	3
125	414
126	35
