Mass Spectrum: 4-(Benzylcarbamoyl)imidazole
Formula: C11H11N3O
CAS: 53525-57-8
Molecular weight: 201
m/z	intensity
26	1
27	8
28	37
29	1
30	4
38	4
39	18
40	26
41	23
42	4
43	3
44	2
50	8
51	22
52	8
53	4
54	1
55	1
56	1
57	1
62	2
63	9
64	3
65	40
66	35
67	23
68	152
69	30
70	2
71	1
74	2
75	2
76	6
77	40
78	16
79	95
80	7
81	2
83	1
89	13
90	8
91	190
92	19
93	50
94	8
95	185
96	27
97	3
100	2
101	1
102	2
103	11
104	23
105	15
106	999
107	149
108	12
109	1
116	2
117	3
118	1
124	1
127	1
128	3
129	10
130	6
131	2
132	2
133	5
143	1
144	2
145	2
154	1
155	7
156	5
157	5
158	14
159	2
171	1
172	3
173	1
181	2
182	11
183	50
184	9
199	1
200	3
201	434
202	63
203	5
