Mass Spectrum: Ethanol, 2-(9-octadecenyloxy)-, (Z)-
Formula: C20H40O2
CAS: 5353-25-3
Molecular weight: 312
m/z	intensity
25	4
26	19
27	105
28	60
29	217
30	15
31	47
32	4
35	4
36	14
37	7
38	11
39	99
40	26
41	621
42	136
43	577
44	111
45	409
46	13
47	10
48	7
49	6
50	9
51	14
52	10
53	70
54	385
55	999
56	229
57	465
58	33
59	14
60	44
61	13
62	4
63	83
64	34
65	22
66	68
67	664
68	472
69	770
70	173
71	204
72	17
73	51
74	12
75	66
76	8
77	32
78	20
79	78
80	74
81	627
82	968
83	670
84	105
85	111
86	13
87	14
88	13
89	8
90	3
91	32
92	12
93	41
94	43
95	546
96	708
97	416
98	75
99	27
100	7
101	85
102	9
103	8
104	7
105	16
106	7
107	22
108	24
109	310
110	285
111	155
112	33
113	18
114	8
115	22
116	8
117	11
118	7
119	12
120	6
121	24
122	19
123	173
124	173
125	58
126	16
127	13
128	9
129	14
130	6
131	12
132	4
133	9
134	6
135	23
136	15
137	86
138	86
139	24
140	10
141	17
142	11
143	10
144	11
145	8
146	4
147	7
148	4
149	18
150	8
151	36
152	44
153	15
154	8
155	9
156	5
157	21
158	5
159	6
160	4
161	4
162	4
163	6
164	4
165	21
166	27
167	12
168	10
169	9
170	4
171	13
172	4
173	4
174	3
175	4
176	4
177	9
178	5
179	13
180	17
181	8
182	6
183	5
184	3
185	11
186	3
187	3
188	2
189	3
190	3
191	4
192	4
193	13
194	17
195	7
196	4
197	4
198	3
199	9
200	3
201	3
202	3
203	3
204	2
205	4
206	2
207	14
208	13
209	6
210	4
211	3
212	2
213	4
214	2
215	2
216	2
217	4
218	6
219	14
220	4
221	6
222	14
223	4
224	3
225	2
226	2
227	3
228	3
229	3
230	2
231	3
232	3
233	3
234	2
235	3
236	3
237	2
238	2
239	3
240	3
241	3
242	3
243	3
244	3
245	2
246	2
248	4
249	4
250	82
251	24
252	6
253	3
254	2
255	3
256	3
257	3
258	2
259	2
263	5
264	3
265	3
266	3
267	5
268	3
269	4
270	2
271	2
272	1
273	1
279	3
280	2
281	9
282	4
283	3
284	2
285	1
292	3
293	2
294	2
295	2
296	1
297	1
310	2
311	2
312	14
313	5
314	1
