Mass Spectrum: Methyl-4,6-O-furfurylidene.alpha.D-glucopyranoside
Formula: C12H16O7
CAS: 53547-54-9
Molecular weight: 272
m/z	intensity
52	12
55	19
56	3
57	51
58	3
59	15
60	76
61	38
68	24
69	51
70	9
71	19
72	3
73	89
74	211
75	55
76	5
81	89
82	7
85	32
86	8
87	48
88	2
95	86
96	144
97	999
98	38
99	6
101	287
103	19
109	9
110	12
123	19
127	19
133	51
134	5
139	25
140	3
152	22
153	19
169	51
170	6
180	11
218	7
241	6
272	60
273	6
