Mass Spectrum: Cyclohexaneethanol, 2-methylene-
Formula: C9H16O
CAS: 53544-46-0
Molecular weight: 140
m/z	intensity
26	20
27	226
28	9
29	183
30	8
31	146
37	8
38	9
39	368
40	95
41	465
42	39
43	102
44	31
45	16
50	24
51	74
52	25
53	223
54	129
55	358
56	64
57	57
58	5
59	4
62	2
63	19
64	5
65	135
66	93
67	507
68	151
69	51
70	20
71	24
72	6
74	5
77	231
78	51
79	999
80	181
81	285
82	39
83	32
84	10
85	11
91	243
92	85
93	961
94	544
95	486
96	66
97	38
98	6
102	4
103	10
104	4
105	31
106	8
107	362
108	31
109	14
110	8
112	7
115	11
116	5
117	6
118	2
120	16
121	20
122	505
123	62
124	5
125	9
140	14
141	2
