Mass Spectrum: 2,4,6-Trinitrophenol, methylsulfonate
Formula: C7H5N3O9S
CAS: 53541-31-4
Molecular weight: 307
m/z	intensity
46	10
62	70
79	999
80	40
81	50
166	30
184	30
199	50
213	50
229	260
243	80
307	390
308	82
309	26
310	4
