Mass Spectrum: 6-Methyl-2-pyridinecarbaldehyde
Formula: C7H7NO
CAS: 53547-60-7
Molecular weight: 121
m/z	intensity
15	6
26	10
27	20
28	9
29	19
31	1
36	1
37	20
38	39
39	180
40	39
41	26
42	13
43	2
44	1
45	1
46	1
49	7
50	41
51	62
52	47
53	26
54	13
60	1
61	10
62	18
63	53
64	51
65	374
66	444
67	55
68	2
74	1
75	5
76	8
77	4
78	74
79	9
87	2
88	2
90	6
91	28
92	389
93	999
94	72
95	2
106	1
120	6
121	272
122	35
123	2
