Mass Spectrum: Indole, 3-(piperidinomethyl)-
Formula: C14H18N2
CAS: 5355-42-0
Molecular weight: 214
m/z	intensity
33	15
34	19
36	4
37	22
39	225
40	72
41	231
42	180
43	82
44	111
45	4
46	0
49	9
50	78
51	119
52	59
53	35
54	43
55	135
56	99
57	60
58	5
60	4
61	9
62	24
63	54
64	19
65	51
66	6
67	13
68	16
69	34
70	24
71	8
73	6
74	38
75	48
76	73
77	229
78	67
79	16
80	7
81	6
82	18
84	858
85	110
87	15
88	5
89	28
90	15
91	12
92	2
93	2
94	1
95	1
96	10
97	50
98	32
99	5
100	4
101	30
102	125
103	130
104	18
105	3
106	2
107	8
108	0
109	0
110	0
111	1
112	2
113	1
114	3
115	10
116	11
117	33
118	21
119	2
120	0
121	0
122	0
123	0
125	1
126	1
128	79
129	144
130	999
131	260
132	18
133	1
134	0
135	0
137	0
139	0
140	0
141	1
142	5
143	12
144	7
145	4
146	1
147	0
148	0
149	1
151	0
152	0
153	0
154	1
155	4
156	4
157	6
158	1
159	0
168	1
169	1
170	1
171	4
172	2
173	2
182	0
183	0
184	0
185	0
189	0
190	0
211	1
212	4
213	40
214	120
215	19
216	0
217	0
