Mass Spectrum: (+-)-1,3-Diphenyl-1,3-propanediol
Formula: C15H16O2
CAS: 5355-61-3
Molecular weight: 228
m/z	intensity
15	1
27	9
28	2
29	5
37	1
38	2
39	16
40	1
41	3
42	1
43	25
44	1
49	1
50	19
51	65
52	17
53	9
55	3
62	2
63	9
64	2
65	10
66	1
71	2
73	1
74	7
75	6
76	9
77	261
78	105
79	235
80	15
81	1
82	1
89	7
90	3
91	42
92	7
93	2
94	2
95	2
101	1
102	10
103	103
104	999
105	531
106	106
107	259
108	115
109	9
110	1
115	7
116	2
117	1
118	2
119	2
120	17
121	19
122	3
131	9
132	9
133	5
149	3
150	19
151	2
152	2
155	1
165	6
166	2
167	2
178	4
179	4
181	6
182	1
189	3
190	1
191	9
192	20
193	8
194	9
195	3
207	2
208	2
209	13
210	567
211	91
212	8
