Mass Spectrum: Phenol, 4-(2-aminopropoxy)-3,5-dimethyl-
Formula: C11H17NO2
CAS: 53566-99-7
Molecular weight: 195
m/z	intensity
12	1
14	4
15	32
16	4
17	12
18	100
19	1
25	1
26	6
27	50
28	110
29	23
30	160
31	19
32	14
35	40
36	130
37	14
38	65
39	128
40	31
41	295
42	90
43	80
44	700
45	20
50	7
51	22
52	18
53	52
54	7
55	29
56	18
57	27
58	999
59	50
60	2
61	1
62	4
63	12
64	6
65	35
66	14
67	29
68	16
69	34
70	4
71	2
72	1
73	3
74	4
75	3
76	2
77	64
78	12
79	31
80	8
81	24
82	5
83	3
84	2
85	1
86	1
89	6
90	6
91	48
92	15
93	7
94	12
95	14
96	5
97	1
102	2
103	8
104	2
105	3
106	2
107	23
108	14
109	25
110	4
111	2
115	1
119	4
120	7
121	44
122	7
123	45
124	6
134	4
135	2
136	11
137	70
138	234
139	32
140	3
147	2
148	2
149	3
150	3
151	8
152	3
153	2
154	2
163	5
164	1
177	1
178	1
179	3
180	1
195	26
196	4
