Mass Spectrum: 2-Butyl-1,2-azaborolidine
Formula: C7H16BN
CAS: 5357-10-8
Molecular weight: 125
m/z	intensity
39	18
40	2
41	119
42	219
43	20
54	89
55	138
56	12
66	48
67	91
68	387
69	61
70	3
82	267
83	999
84	54
85	77
86	6
124	31
125	39
126	4
