Mass Spectrum: 3-Phenylthiopropionic acid, S-phenyl ester
Formula: C15H14OS
CAS: 53573-33-4
Molecular weight: 242
m/z	intensity
26	2
27	37
28	2
29	1
37	2
38	8
39	83
40	5
41	10
42	1
43	2
44	3
45	20
50	29
51	100
52	18
53	11
54	1
55	10
56	1
57	4
58	7
59	4
61	2
62	7
63	32
64	8
65	176
66	28
67	2
69	33
70	3
71	4
73	2
74	9
75	8
76	13
77	182
78	62
79	101
80	9
81	4
82	11
83	8
84	9
86	1
87	1
89	18
90	10
91	984
92	87
93	4
101	3
102	12
103	95
104	66
105	999
106	99
107	6
108	16
109	173
110	152
111	19
112	8
113	1
114	1
115	4
121	2
123	10
131	21
132	13
133	798
134	91
135	8
136	1
137	2
140	2
141	2
149	5
150	1
152	2
154	7
155	1
165	4
167	1
184	4
185	7
186	3
197	2
199	1
242	99
243	19
244	7
