Mass Spectrum: 2-Butyl-1,2-oxaborolane
Formula: C7H15BO
CAS: 5357-13-1
Molecular weight: 126
m/z	intensity
39	109
40	3
42	813
43	839
44	76
55	121
56	175
57	147
58	12
69	125
70	11
83	70
84	274
85	999
86	55
87	4
97	31
98	42
99	4
125	24
126	79
127	8
