Mass Spectrum: (3-Aminopropyl)dibutylborane
Formula: C11H26BN
CAS: 5357-23-3
Molecular weight: 183
m/z	intensity
41	229
42	389
54	79
55	69
68	69
69	259
70	999
125	119
126	419
