Mass Spectrum: d-Thermopsine
Formula: C15H20N2O
CAS: 53584-33-1
Molecular weight: 244
m/z	intensity
53	14
54	18
55	58
56	18
65	18
66	11
67	36
68	43
69	36
70	43
77	36
78	18
79	25
80	29
81	14
82	21
83	14
84	36
91	14
92	11
93	32
94	25
95	14
96	123
97	145
98	999
99	72
104	14
105	11
106	14
107	7
108	14
109	18
110	18
117	32
118	29
119	7
120	11
121	11
122	58
123	25
124	7
130	14
131	7
132	18
133	32
134	39
135	14
136	90
137	7
144	7
145	14
146	116
147	40
148	25
149	18
150	14
159	14
160	72
161	61
162	25
163	7
172	7
173	7
174	7
175	7
188	11
200	3
201	7
203	11
215	11
216	7
229	22
230	7
243	69
244	326
245	55
246	4
