Mass Spectrum: 6-Bromo-9-phenanthroic acid
Formula: C15H9BrO2
CAS: 53581-38-7
Molecular weight: 300
m/z	intensity
45	69
47	8
49	59
50	78
51	101
52	10
55	3
61	30
62	97
63	99
64	5
68	10
69	26
70	56
73	8
74	210
75	328
76	70
77	32
82	999
84	32
85	23
86	95
87	369
88	705
96	188
98	118
99	95
100	34
101	23
102	23
109	8
111	688
113	22
115	23
122	44
123	36
124	17
125	20
126	49
127	16
134	4
135	13
137	18
138	9
139	32
146	4
148	3
149	72
150	178
151	79
152	5
162	17
163	110
164	91
165	202
166	27
173	10
174	165
175	196
176	827
177	151
178	44
179	9
193	3
203	12
221	4
254	12
255	50
256	21
257	54
258	3
282	3
283	84
284	24
285	83
286	17
300	385
301	70
302	382
303	69
