Mass Spectrum: 3-Carbethoxy-4,5-diphenyloxazolin-2-one
Formula: C18H15NO4
CAS: 53581-33-2
Molecular weight: 309
m/z	intensity
41	1
42	1
43	16
44	7
45	5
49	1
50	55
51	218
52	18
53	3
55	0
57	1
59	1
62	10
63	21
64	3
65	3
70	9
74	6
75	11
77	651
78	42
79	2
82	8
83	0
86	1
87	2
88	5
89	15
90	4
91	1
95	2
98	0
99	0
100	0
101	0
103	56
104	229
105	999
106	73
107	4
111	0
113	1
114	1
115	5
116	0
117	0
118	0
121	3
122	3
126	2
127	1
130	1
131	3
132	37
133	3
139	4
140	1
146	1
150	1
151	5
152	8
153	3
159	0
160	1
163	4
164	3
165	53
166	12
176	2
177	3
178	5
179	3
180	26
181	4
190	4
191	1
192	8
193	5
194	4
195	0
206	3
207	0
208	24
209	9
210	3
218	0
220	0
222	0
224	2
235	4
236	11
237	211
238	36
239	3
251	0
263	1
265	21
266	5
291	2
292	3
293	1
294	6
295	1
309	55
310	17
311	2
