Mass Spectrum: (E)-1-Methyl-4-(6-methylhept-5-en-2-ylidene)cyclohex-1-ene
Formula: C15H24
CAS: 53585-13-0
Molecular weight: 204
m/z	intensity
27	27
29	28
38	5
39	89
40	20
41	342
42	15
43	145
50	5
51	25
52	17
53	100
54	11
55	204
56	17
57	10
63	16
64	5
65	68
66	16
67	88
69	172
70	10
77	253
78	54
79	323
80	30
89	7
91	357
92	83
93	999
94	87
102	6
103	25
104	14
105	223
106	46
107	984
108	100
115	36
116	13
117	40
119	444
120	90
121	122
122	23
131	14
133	62
134	200
135	463
136	45
145	11
147	24
148	26
161	44
162	9
184	2
189	18
204	241
205	42
