Mass Spectrum: 4-(Fluoromethyl)-1-azabicyclo[2.2.2]octane
Formula: C8H14FN
CAS: 53583-86-1
Molecular weight: 143
m/z	intensity
41	185
42	999
43	60
53	55
55	85
57	100
69	140
110	400
114	110
128	50
143	175
