Mass Spectrum: 4-Hexenoic acid, 6-hydroxy-4-methyl-, methyl ester, (E)-
Formula: C8H14O3
CAS: 53585-95-8
Molecular weight: 158
m/z	intensity
39	700
40	150
41	999
42	140
43	560
44	850
50	150
51	240
52	150
53	400
54	130
55	530
56	270
57	240
59	190
63	100
64	90
65	180
66	120
67	400
68	130
69	230
71	350
74	280
77	230
78	100
79	320
80	180
81	900
82	140
83	320
84	260
85	130
91	240
96	120
97	260
98	480
111	160
140	210
141	70
