Mass Spectrum: 20-Methylpregn-5-en-3beta,16alpha,20-triol
Formula: C22H36O3
CAS: 5359-76-2
Molecular weight: 348
m/z	intensity
50	21
51	64
52	22
53	120
54	26
55	282
56	36
57	130
58	49
59	999
60	53
65	83
66	27
67	196
68	28
69	90
70	18
71	34
77	160
78	63
79	240
80	83
81	205
82	44
83	141
84	61
85	77
87	34
88	6
89	14
90	23
91	273
92	77
93	256
94	80
95	136
96	66
97	39
98	36
99	19
102	24
103	29
104	41
105	229
106	80
107	192
108	55
109	104
110	29
111	23
112	13
115	63
116	48
117	89
118	38
119	130
120	89
121	83
122	23
123	32
124	15
125	32
127	32
128	49
129	79
130	38
131	118
132	43
133	144
134	48
135	46
136	22
139	12
141	32
142	31
143	93
144	53
145	164
146	53
147	87
148	26
157	41
158	70
159	118
160	69
161	194
162	35
163	22
169	21
170	11
171	45
172	27
173	45
175	22
186	10
187	62
197	23
198	19
199	36
200	21
211	25
212	24
213	45
214	23
215	26
223	23
224	13
225	12
239	88
240	22
241	7
254	62
255	24
256	16
257	99
258	39
271	20
272	154
273	62
296	8
297	23
298	9
312	26
313	7
315	17
316	5
330	22
348	5
349	1
