Mass Spectrum: 11-Dodecyn-1-ol acetate
Formula: C14H24O2
CAS: 53596-78-4
Molecular weight: 224
m/z	intensity
41	393
42	84
43	999
44	28
45	7
49	1
50	4
51	16
52	14
53	93
54	175
55	380
56	50
57	39
58	15
59	5
60	0
61	109
62	2
63	3
65	33
66	49
67	439
68	235
69	184
70	22
71	26
72	8
73	33
74	2
75	1
77	40
78	24
79	339
80	204
81	480
82	280
83	139
84	19
85	12
86	3
87	7
88	1
89	2
91	44
92	14
93	250
94	188
95	267
96	115
97	62
98	25
99	6
100	4
101	14
102	2
103	1
104	1
105	12
106	6
107	165
108	94
109	92
110	26
111	35
112	6
113	2
114	1
115	2
116	25
117	3
118	1
119	5
120	2
121	155
122	51
123	31
124	13
125	7
126	2
127	1
128	1
129	1
130	1
131	1
133	3
134	3
135	101
136	39
137	8
138	5
139	3
141	1
145	1
147	2
148	1
149	29
150	4
151	1
153	1
154	0
160	0
161	0
163	10
164	6
165	10
166	7
167	4
181	3
182	2
183	25
184	3
207	2
209	2
222	0
223	1
224	19
225	3
