Mass Spectrum: Iodosobenzene
Formula: C6H5IO
CAS: 536-80-1
Molecular weight: 220
m/z	intensity
12	5
16	10
25	2
26	11
27	28
28	7
29	1
36	4
37	22
38	25
39	44
40	6
41	5
42	2
43	6
44	235
45	4
46	1
47	1
48	2
49	20
50	196
51	353
52	20
53	4
54	5
55	6
56	2
57	4
60	2
61	6
62	6
63	5
64	3
65	61
66	12
67	2
68	2
69	3
70	1
71	2
72	1
73	15
74	64
75	39
76	54
77	999
78	72
79	4
80	3
81	2
82	2
83	2
84	1
85	2
91	2
93	7
94	35
95	3
97	1
98	1
102	24
105	2
108	3
110	4
111	4
112	1
113	2
127	53
128	16
135	1
152	2
163	4
176	2
203	3
204	977
205	63
206	2
220	1
