Mass Spectrum: Ethylnoradrenaline
Formula: C10H15NO3
CAS: 536-24-3
Molecular weight: 197
m/z	intensity
41	78
43	18
51	20
55	18
56	57
58	999
59	37
65	40
77	18
78	10
93	31
123	21
124	39
137	10
139	10
150	9
179	20
