Mass Spectrum: Diisopropanolnitrosamine
Formula: C6H14N2O3
CAS: 53609-64-6
Molecular weight: 162
m/z	intensity
13	1
14	11
15	117
16	3
17	3
18	9
26	9
27	112
28	105
29	73
30	194
31	285
32	3
36	22
37	2
38	7
39	56
40	13
41	488
42	808
43	631
44	85
45	999
46	23
47	3
49	1
51	1
52	2
53	3
54	11
55	20
56	61
57	36
58	190
59	326
60	23
61	3
66	1
67	3
68	21
69	13
70	770
71	49
72	30
73	13
74	12
75	3
76	1
79	1
80	1
81	4
82	5
83	9
84	23
85	7
86	250
87	52
88	640
89	32
90	3
94	2
95	5
96	7
97	10
98	12
99	7
100	17
101	7
102	25
103	3
104	1
105	39
106	2
107	1
108	2
109	4
110	3
111	4
112	5
113	4
114	34
115	7
116	14
117	26
118	9
119	1
121	1
122	2
123	2
124	2
125	2
126	16
127	10
128	9
129	4
130	7
131	5
132	24
133	8
134	2
135	1
136	1
137	1
138	2
139	3
140	3
141	6
142	7
143	2
144	40
145	8
146	28
147	4
155	8
156	3
157	2
158	4
159	1
160	13
161	2
162	1
163	2
