Mass Spectrum: 2H-Pyrido[1,2-f][1,6]diazacyclooctadecin-11(6H)-one, 10-(3-aminopropyl)octadecahydro-, (R)-
Formula: C23H45N3O
CAS: 53602-28-1
Molecular weight: 379
m/z	intensity
51	59
52	48
53	167
54	289
55	999
56	526
57	215
58	145
59	27
60	11
63	13
64	22
65	48
66	40
67	219
68	230
69	327
70	533
71	85
72	275
73	42
74	16
75	5
76	16
77	48
78	27
79	48
80	70
81	135
82	329
83	278
84	698
85	44
86	11
87	3
91	7
92	16
93	52
94	59
95	74
96	581
97	420
98	646
99	63
100	31
101	74
102	26
103	87
104	26
105	13
106	22
107	13
108	48
109	52
110	473
111	185
112	167
113	42
114	29
115	33
116	11
120	9
121	24
122	89
123	659
124	330
125	107
126	96
127	40
128	11
129	37
130	11
134	9
135	22
136	52
137	189
138	139
139	68
140	57
141	74
142	24
143	3
150	9
151	16
152	48
153	27
154	37
155	14
156	5
164	9
165	14
166	33
167	66
168	33
169	14
170	5
179	7
180	18
181	33
182	29
184	13
185	5
193	11
194	27
195	14
196	7
207	9
208	22
209	14
210	46
211	11
212	7
218	11
219	26
220	9
221	14
222	9
223	33
224	11
234	7
235	20
236	26
237	20
238	9
249	9
250	18
251	29
252	11
253	22
254	9
255	26
256	11
264	7
265	14
266	48
267	9
278	5
279	18
280	5
295	9
296	14
297	18
298	5
306	5
307	26
308	29
309	26
310	7
321	7
322	24
323	13
324	7
335	9
336	53
337	14
338	5
347	7
348	18
349	81
350	24
351	7
352	5
360	7
361	22
362	5
377	11
378	26
379	275
380	55
381	16
382	1
