Mass Spectrum: Androstane-12,17-dione, 3-hydroxy-, (3.beta.,5.alpha.)-
Formula: C19H28O3
CAS: 53604-38-9
Molecular weight: 304
m/z	intensity
41	266
42	18
43	115
44	9
53	90
54	21
55	230
56	15
57	72
65	27
66	21
67	218
68	60
69	81
70	18
71	15
77	72
78	21
79	181
80	39
81	160
82	30
83	54
91	121
92	24
93	160
94	60
95	106
96	48
97	251
98	21
105	78
106	33
107	181
108	84
109	69
110	999
111	90
112	12
117	18
118	6
119	39
120	39
121	100
122	42
123	212
124	48
125	27
131	21
132	9
133	48
134	24
135	51
136	54
137	48
138	36
139	3
145	27
146	12
147	54
148	39
149	54
150	18
151	27
159	15
160	30
161	48
162	42
163	30
164	9
165	12
173	12
174	12
175	15
176	3
177	9
178	3
179	24
184	3
185	12
186	12
187	12
188	12
199	9
201	15
227	24
228	3
229	9
242	30
243	18
245	9
247	9
248	6
249	18
260	21
261	12
262	12
276	151
277	24
289	21
304	442
305	81
306	9
