Mass Spectrum: 4-[(4-Methyl phenyl)sulfanyl]-7-nitro-2,1,3-benzoxadiazole
Formula: C13H9N3O3S
CAS: 53619-61-7
Molecular weight: 287
m/z	intensity
30	241
34	3
35	4
36	2
37	33
38	44
39	182
40	46
41	91
42	9
43	25
44	78
45	424
46	46
47	19
48	6
49	6
50	83
51	197
52	60
53	69
54	6
55	13
56	6
57	23
58	17
59	10
60	8
61	36
62	74
63	203
64	80
65	282
66	30
67	15
68	5
69	198
70	52
71	37
72	8
73	12
74	22
75	38
76	54
77	478
78	134
79	260
80	40
81	20
82	57
83	27
84	19
85	9
86	26
87	59
88	40
89	186
90	72
91	999
92	59
93	43
94	45
95	29
96	222
97	41
98	29
99	7
100	4
101	8
102	14
103	14
104	56
105	10
106	5
107	11
108	40
109	5
110	2
111	2
112	57
113	8
114	13
115	66
116	22
117	6
118	18
119	4
120	44
121	51
122	12
123	265
124	29
125	11
126	7
127	18
128	11
129	5
134	9
135	14
136	2
137	2
138	8
139	34
140	29
142	3
143	3
147	9
149	4
150	7
151	12
152	30
153	17
154	12
155	1
158	1
159	6
164	3
165	7
166	11
167	2
169	1
170	2
171	9
172	5
173	8
177	5
178	3
179	1
183	6
184	11
186	9
195	7
196	60
197	11
198	23
199	50
200	4
209	11
210	22
211	63
212	22
213	1
214	1
215	7
216	1
221	1
222	5
223	12
224	10
225	3
240	24
241	1
242	23
243	3
271	1
272	12
273	2
287	372
288	56
289	23
