Mass Spectrum: 2-Penten-1-ol, 4-methyl-
Formula: C6H12O
CAS: 5362-55-0
Molecular weight: 100
m/z	intensity
22	1
23	2
25	8
26	38
27	337
28	224
29	264
31	78
32	7
33	3
36	24
37	33
38	71
39	537
40	159
41	999
42	117
43	133
44	134
45	11
47	2
48	2
49	8
50	47
51	72
52	35
53	163
54	112
55	133
56	175
57	386
58	30
59	123
61	7
62	11
63	25
64	2
65	98
66	60
67	793
68	56
69	245
70	31
71	9
72	4
73	1
74	6
75	3
77	36
78	35
79	67
80	23
81	94
82	315
83	38
84	4
85	1
