Mass Spectrum: 5-Methylcyclopent-1-ene-1-carboxylic acid
Formula: C7H10O2
CAS: 53623-50-0
Molecular weight: 126
m/z	intensity
37	4
38	14
39	97
40	14
41	115
42	9
43	40
44	5
45	25
46	5
47	4
50	14
51	31
52	16
53	76
54	14
55	41
56	8
57	6
58	2
59	5
60	2
61	3
62	6
63	9
64	3
65	69
66	21
67	143
68	19
69	14
70	5
71	4
73	6
74	3
75	2
77	38
78	8
79	75
80	49
81	999
82	73
83	69
84	9
85	2
87	7
88	2
93	37
94	4
95	4
97	30
98	6
101	2
107	4
108	18
109	13
110	2
111	181
112	18
113	2
125	16
126	244
127	23
128	3
