Mass Spectrum: 3-Pentenal, 4-methyl-
Formula: C6H10O
CAS: 5362-50-5
Molecular weight: 98
m/z	intensity
37	15
38	25
39	200
40	45
41	999
42	130
43	180
44	75
50	30
51	45
52	17
53	137
54	32
55	360
56	80
57	60
59	15
65	20
67	50
69	540
70	100
71	20
77	20
79	50
80	25
81	25
83	420
84	35
97	60
98	450
