Mass Spectrum: cis-1-Cyano-2-phenylcyclopropanol
Formula: C10H9NO
CAS: 5362-45-8
Molecular weight: 159
m/z	intensity
27	190
43	460
51	470
77	480
78	470
91	999
103	420
104	490
105	500
130	740
131	480
159	430
