Mass Spectrum: 3-Amino-4-methylpicolinic acid
Formula: C7H8N2O2
CAS: 53636-30-9
Molecular weight: 152
m/z	intensity
41	96
42	52
43	30
44	15
45	126
46	6
47	18
48	9
49	84
50	116
51	264
52	394
53	480
54	136
55	43
56	15
57	10
58	1
60	3
61	6
62	11
63	35
64	59
65	54
66	53
67	71
68	36
69	15
70	3
71	4
72	1
73	2
74	2
75	14
76	27
77	16
78	95
79	257
80	688
81	136
82	12
83	3
84	49
85	1
86	31
87	1
88	6
89	1
90	5
91	20
92	18
93	19
94	2
95	5
96	4
97	3
98	1
99	0
103	3
104	1
105	200
106	150
107	277
108	999
109	79
110	3
111	2
112	0
119	0
124	1
125	0
133	2
134	19
135	14
136	1
151	0
152	400
153	34
154	1
