Mass Spectrum: 1,2-Diphenyl-3-pyrrolidin-1-yl-propan-1-ol
Formula: C19H23NO
CAS: 5363-48-4
Molecular weight: 281
m/z	intensity
34	0
35	0
36	6
37	0
38	3
39	15
40	12
41	23
42	81
43	32
44	10
45	1
50	6
51	22
52	6
53	6
54	6
55	45
56	12
57	7
58	1
59	0
60	0
61	0
62	1
63	5
64	1
65	10
66	1
67	3
68	4
69	4
70	56
71	74
72	4
74	1
75	2
76	6
77	73
78	30
79	54
80	36
81	15
82	41
84	999
85	46
86	3
88	0
89	6
90	4
91	31
92	4
93	1
94	2
95	1
96	7
97	1
98	3
99	1
100	1
102	6
103	21
104	49
105	43
106	7
107	10
108	1
109	0
110	2
111	0
112	1
113	0
115	6
116	2
117	5
118	2
119	1
120	2
121	4
122	0
123	0
124	0
126	0
127	0
128	2
129	2
130	5
131	1
132	2
133	0
134	0
136	0
137	0
138	0
139	0
140	0
141	0
142	0
143	0
144	1
145	0
146	0
149	0
150	0
151	1
152	2
153	0
154	0
155	0
156	0
157	0
158	0
160	0
162	0
163	0
165	8
166	1
167	1
168	0
170	1
171	1
172	3
173	6
174	14
175	14
176	4
177	2
178	8
179	10
180	12
181	2
183	0
186	0
188	0
189	0
191	2
192	0
193	0
194	0
195	0
196	0
197	0
202	0
203	0
204	0
207	1
208	0
211	0
235	0
236	0
237	0
262	0
263	1
264	0
279	0
281	8
282	1
283	0
