Mass Spectrum: Pentane, 1-(ethenyloxy)-
Formula: C7H14O
CAS: 5363-63-3
Molecular weight: 114
m/z	intensity
41	247
42	207
43	999
44	108
45	59
53	9
54	9
55	306
56	19
57	29
59	19
68	9
69	19
70	316
71	118
72	9
78	19
85	9
99	237
100	19
114	29
