Mass Spectrum: 3-Amino-6-methylpicolinic acid
Formula: C7H8N2O2
CAS: 53636-71-8
Molecular weight: 152
m/z	intensity
41	105
42	63
43	23
45	532
46	12
47	16
49	72
50	97
51	233
52	384
53	402
54	143
55	36
61	5
63	37
64	59
65	54
66	69
67	39
68	21
75	18
76	41
77	13
78	125
79	186
80	705
81	575
82	41
84	41
86	21
88	4
91	20
92	55
93	19
95	11
105	95
106	77
107	318
108	999
109	73
135	5
152	354
153	35
