Mass Spectrum: Cyclopentanol, 1-[3-(methylthio)-2-propenyl]-
Formula: C9H16OS
CAS: 53634-86-9
Molecular weight: 172
m/z	intensity
26	3
27	47
28	16
29	81
30	1
31	16
35	3
37	0
38	4
39	83
40	11
41	214
42	19
43	98
44	4
45	110
46	18
47	36
48	6
49	3
50	3
51	11
52	4
53	48
54	12
55	116
56	13
57	133
58	11
59	20
60	8
61	35
62	3
63	5
64	2
65	18
66	7
67	365
68	27
69	14
70	6
71	34
72	49
73	261
74	35
75	16
76	2
77	21
78	6
79	48
80	7
81	50
82	12
83	37
84	11
85	642
86	36
87	142
88	999
89	67
90	53
91	14
92	2
93	3
94	2
95	22
96	4
97	18
98	4
99	3
100	2
101	5
102	1
103	3
104	2
105	9
106	4
107	38
108	4
109	1
110	1
111	4
112	0
113	4
114	2
115	6
116	2
117	0
119	0
121	10
122	1
123	2
124	1
125	22
126	2
127	0
128	0
129	4
130	1
131	2
139	5
141	2
142	1
143	1
147	1
154	5
155	3
156	0
157	1
170	1
172	45
173	5
174	2
