Mass Spectrum: 6-Methylpyridine-2,3-dicarboxylic acid
Formula: C8H7NO4
CAS: 53636-70-7
Molecular weight: 181
m/z	intensity
42	122
43	11
44	39
45	999
46	8
47	17
49	67
50	93
51	106
52	203
53	112
54	31
55	9
61	31
62	57
63	133
64	132
65	169
66	133
67	26
75	22
76	40
77	38
78	52
80	79
81	10
84	37
90	8
91	236
92	216
93	596
94	32
104	9
108	28
119	244
120	69
137	928
138	26
181	8
