Mass Spectrum: N-(O-Tolyl)furfurylamine
Formula: C12H13NO
CAS: 53656-10-3
Molecular weight: 187
m/z	intensity
26	1
27	25
28	4
29	1
30	5
37	1
38	4
39	25
40	3
41	9
42	2
43	4
50	8
51	24
52	14
53	118
54	7
55	5
58	1
62	3
63	10
64	4
65	36
66	4
67	1
68	2
69	1
71	4
74	1
75	2
76	2
77	39
78	16
79	14
80	4
81	999
82	62
83	4
86	1
89	9
90	6
91	57
92	8
93	7
94	3
95	20
96	4
102	1
103	2
104	9
105	9
106	46
107	21
108	1
115	6
116	6
117	10
118	39
119	5
120	151
121	14
127	2
128	4
129	3
130	11
131	6
132	3
133	1
141	2
142	5
143	10
144	19
145	2
146	1
154	2
155	1
156	8
157	5
158	13
159	20
160	3
167	1
168	3
170	12
171	2
172	4
173	1
184	3
186	254
187	493
188	64
189	5
