Mass Spectrum: 4-Piperidinol, 4-ethynyl-2,2,6,6-tetramethyl-
Formula: C11H19NO
CAS: 53654-26-5
Molecular weight: 181
m/z	intensity
34	0
37	8
38	31
39	444
40	144
41	556
42	999
43	144
44	27
45	3
49	1
50	30
51	98
52	31
53	319
54	44
55	138
56	180
57	140
58	730
59	41
60	10
61	1
62	6
63	27
64	10
65	73
66	28
67	59
68	108
69	57
70	49
71	40
72	14
73	0
74	5
75	4
76	6
77	69
79	70
80	30
81	51
82	46
83	21
84	80
85	8
86	1
89	4
91	69
92	13
93	11
94	17
95	14
96	24
98	280
99	72
100	4
103	1
104	6
105	9
106	13
107	14
108	27
109	113
110	98
111	8
112	14
113	2
115	2
116	5
117	7
118	13
119	3
120	5
121	2
122	7
123	2
124	6
125	2
129	3
130	3
131	16
132	24
133	9
134	4
138	0
140	8
142	0
146	4
148	213
149	24
150	6
151	0
162	1
163	1
164	11
166	859
167	107
168	8
181	4
