Mass Spectrum: (1-Amino-2,2,2-trichloroethyl)formamide
Formula: C3H5Cl3N2O
CAS: 53654-73-2
Molecular weight: 190
m/z	intensity
43	640
44	170
45	320
46	490
55	180
57	290
63	140
69	140
71	260
73	999
82	150
83	310
85	240
97	140
110	230
111	240
112	170
113	150
115	190
146	260
148	260
150	100
174	200
176	190
178	60
