Mass Spectrum: 2H-1-Benzopyran-2-one, 3-acetyl-6-nitro-
Formula: C11H7NO5
CAS: 53653-67-1
Molecular weight: 233
m/z	intensity
37	23
38	55
39	44
40	10
42	57
43	999
44	28
45	7
46	31
48	1
49	16
50	104
51	76
52	19
53	53
54	12
55	4
58	1
61	55
62	224
63	125
64	11
65	8
66	7
67	2
68	3
69	1
73	9
74	66
75	39
76	67
77	57
78	7
79	16
80	3
82	1
83	0
84	3
85	29
86	83
87	109
88	194
89	99
90	12
91	5
92	0
93	1
97	2
98	15
99	10
100	15
101	7
102	17
103	15
104	7
105	17
109	1
110	1
111	0
113	1
114	3
115	3
116	28
117	43
118	6
119	3
121	0
128	0
129	2
130	4
131	13
132	17
133	25
134	14
135	2
143	2
144	60
145	11
146	0
147	2
159	6
160	5
161	12
162	1
163	6
164	0
172	110
173	12
174	3
175	3
176	3
177	2
186	2
187	2
188	0
190	21
191	7
192	0
202	1
203	3
204	0
205	1
215	0
218	260
219	25
220	4
233	113
234	13
235	1
