Mass Spectrum: (2,2-Dichlorocyclopropyl)methanol
Formula: C4H6Cl2O
CAS: 5365-23-1
Molecular weight: 140
m/z	intensity
33	6
34	27
35	24
36	150
37	38
38	95
39	257
40	441
41	168
42	68
43	400
44	999
45	75
47	25
48	2
49	53
50	37
51	209
52	30
53	95
55	79
57	116
58	10
59	8
61	100
62	12
63	43
64	3
65	18
66	3
67	12
68	9
69	55
70	20
71	66
73	172
75	153
76	37
77	65
78	46
79	15
80	10
81	12
83	87
84	18
85	47
87	419
89	216
91	39
92	10
93	6
94	5
96	49
97	22
98	31
99	30
100	14
101	108
102	10
103	23
104	20
105	17
106	5
107	6
109	68
110	60
111	40
112	48
113	20
114	6
115	5
116	8
117	19
118	6
119	57
120	4
122	96
123	610
124	79
125	390
127	99
128	5
129	9
130	1
131	1
135	3
137	4
138	1
139	18
140	6
141	11
143	5
145	5
