Mass Spectrum: Benzeneoctanoic acid, .epsilon.-oxo-
Formula: C14H18O3
CAS: 53668-48-7
Molecular weight: 234
m/z	intensity
26	1
27	80
28	17
29	80
30	0
31	23
38	0
39	56
40	2
41	81
42	15
43	92
44	1
45	28
47	1
50	6
51	48
52	13
53	19
54	3
55	288
56	18
57	15
58	0
59	108
60	9
62	2
63	14
64	4
65	90
66	6
67	5
68	13
69	8
70	4
71	1
73	18
74	1
75	1
76	5
77	138
78	44
79	86
80	9
81	20
82	4
83	167
84	54
85	8
86	3
87	3
88	0
89	13
90	7
91	999
92	89
93	10
94	1
95	1
96	3
97	327
98	21
99	2
100	3
101	153
102	16
103	64
104	225
105	759
106	65
107	14
108	2
110	4
111	207
112	36
113	3
115	16
116	4
117	12
118	3
119	1
120	0
121	1
124	19
125	16
126	1
127	2
128	9
129	131
130	151
131	35
132	27
133	309
134	29
135	5
136	7
137	1
138	8
141	5
142	5
143	21
144	19
145	9
146	16
147	6
148	65
149	9
154	1
155	1
156	10
157	3
159	6
160	1
161	8
162	0
168	3
169	3
170	55
171	25
172	4
173	1
174	3
187	3
188	19
189	2
197	1
198	23
199	3
216	70
217	10
218	1
219	3
220	0
234	360
235	48
236	5
