Mass Spectrum: 2,3-Dimethoxy-N-methylbenzylamine
Formula: C10H15NO2
CAS: 53663-28-8
Molecular weight: 181
m/z	intensity
39	147
42	305
44	999
51	129
65	182
77	148
91	342
106	86
107	101
121	109
122	97
135	152
136	290
137	103
148	157
149	110
150	919
151	278
152	127
166	352
180	311
181	199
182	21
