Mass Spectrum: 3-Methyl-4-oxo-2-pentenoic acid
Formula: C6H8O3
CAS: 53663-10-8
Molecular weight: 128
m/z	intensity
38	19
39	245
40	24
41	139
42	34
43	999
44	19
45	38
57	29
67	53
68	43
82	183
85	202
110	423
111	38
113	115
128	24
