Mass Spectrum: Hexane, 1-propoxy-
Formula: C9H20O
CAS: 53685-78-2
Molecular weight: 144
m/z	intensity
39	90
40	10
41	240
42	90
43	999
44	40
45	20
55	90
56	180
57	70
59	10
69	30
73	130
83	50
84	80
85	220
86	10
