Mass Spectrum: Butanoic acid, 2-cyano-, methyl ester
Formula: C6H9NO2
CAS: 53692-87-8
Molecular weight: 127
m/z	intensity
13	10
14	33
15	515
16	8
17	3
18	11
24	1
25	6
26	69
27	222
28	60
29	155
30	18
31	30
32	1
33	7
36	2
37	28
38	47
39	182
40	73
41	345
42	156
43	12
44	3
45	20
49	1
50	3
51	18
52	53
53	20
54	22
55	27
56	3
57	1
58	2
59	326
60	9
61	2
62	2
63	6
64	19
65	4
66	26
67	51
68	999
69	71
70	9
71	2
72	2
80	16
81	2
82	51
83	3
84	1
85	1
87	2
94	1
95	4
96	58
97	3
98	1
99	122
100	7
101	2
112	7
