Mass Spectrum: 2-Cyclohexen-1-one, 4-butyl-3-methoxy-
Formula: C11H18O2
CAS: 53690-84-9
Molecular weight: 182
m/z	intensity
38	14
39	201
40	72
41	270
42	31
43	51
44	20
45	28
50	17
51	37
52	40
53	126
54	34
55	106
56	11
57	11
59	86
62	8
63	14
64	8
65	72
66	46
67	57
68	106
69	138
70	5
71	5
77	49
78	14
79	51
80	28
81	51
82	37
83	69
84	106
85	11
91	23
93	17
94	34
95	40
96	34
97	72
98	98
99	11
100	2
107	8
108	5
109	17
110	8
111	999
112	123
113	14
122	23
123	17
124	14
125	115
126	466
127	34
137	5
139	8
140	20
153	8
154	28
166	5
182	92
183	11
