Mass Spectrum: 2-Cyclopenten-1-one, 5-butyl-3-methoxy-
Formula: C10H16O2
CAS: 53690-89-4
Molecular weight: 168
m/z	intensity
39	246
40	74
41	346
42	45
43	60
44	11
45	22
50	34
51	71
52	80
53	146
54	51
55	100
56	17
57	17
59	154
63	14
65	57
66	40
67	57
68	177
69	338
70	14
71	8
77	40
78	14
79	43
80	20
81	37
82	74
83	120
84	249
85	34
86	14
91	22
93	22
94	20
95	22
96	17
97	194
98	37
99	8
109	14
110	34
111	343
112	999
113	71
125	338
126	45
139	5
140	8
153	11
168	137
169	22
