Mass Spectrum: 4,7-Ethano-1H-inden-1-one, 3a,4,7,7a-tetrahydro-3-hydroxy-
Formula: C11H12O2
CAS: 53729-14-9
Molecular weight: 176
m/z	intensity
26	42
27	135
28	27
29	21
30	2
31	20
36	1
37	11
38	27
39	180
40	6
41	50
42	88
43	21
44	11
45	3
46	2
49	6
50	62
51	128
52	109
53	51
54	10
55	30
56	3
57	2
58	1
59	4
60	3
61	8
62	13
63	34
64	8
65	60
66	22
67	23
68	14
69	74
70	34
71	13
73	3
74	14
75	7
76	14
77	194
78	999
79	603
80	929
81	79
82	7
83	1
84	6
85	2
86	1
87	1
89	8
90	5
91	183
92	52
93	7
94	12
95	3
96	3
97	39
98	652
99	35
100	4
101	1
102	7
103	21
104	9
105	69
106	61
107	21
108	1
110	6
111	1
115	12
116	5
117	4
118	1
119	10
120	32
121	6
122	4
123	1
127	1
128	5
129	12
130	5
131	7
132	3
133	19
134	13
135	3
145	1
147	35
148	34
149	4
157	1
158	1
159	4
160	1
161	20
162	1
163	1
175	17
176	203
177	30
