Mass Spectrum: 3-[p-Tolyl]-5-trichloromethyl-1,2,4-oxadiazole
Formula: C10H7Cl3N2O
CAS: 5373-86-4
Molecular weight: 276
m/z	intensity
41	135
42	13
43	9
47	151
49	69
50	230
51	451
52	173
53	102
54	21
55	2
56	17
57	10
59	13
61	77
62	174
63	481
64	161
65	679
66	36
69	16
70	9
71	11
73	27
74	54
75	94
76	113
77	378
78	238
79	94
80	6
82	149
84	79
85	19
86	42
87	64
88	50
89	547
90	343
91	999
92	46
94	64
96	56
97	2
98	22
99	15
100	9
101	16
102	65
103	69
104	205
105	52
107	21
108	23
110	37
112	21
113	11
114	30
115	7
116	418
117	427
119	128
120	39
121	60
122	6
123	14
124	42
125	6
126	28
127	4
128	8
129	44
131	429
132	388
133	678
134	59
140	27
141	17
142	2
149	10
150	11
151	13
152	48
153	2
154	15
157	7
159	427
160	36
166	76
167	2
168	31
174	5
175	13
176	472
177	61
178	165
179	18
198	2
211	25
212	20
213	223
214	33
215	135
216	14
217	20
240	11
241	664
242	82
243	406
244	42
245	57
246	65
247	8
248	64
249	9
250	27
273	2
276	798
277	110
278	763
279	86
280	219
281	23
282	26
