Mass Spectrum: 24-Norcholane, 23-[2-methyl-1-(1-methylethyl)cyclopropyl]-, (5.alpha.)-
Formula: C30H52
CAS: 53755-13-8
Molecular weight: 412
m/z	intensity
41	410
42	30
43	360
44	20
50	10
51	10
52	10
53	70
54	40
55	970
56	110
57	400
58	20
65	20
66	20
67	470
68	200
69	999
70	130
71	180
72	10
77	60
78	20
79	230
80	90
81	770
82	320
83	490
84	100
85	160
86	10
87	10
91	110
92	40
93	290
94	150
95	890
96	180
97	510
98	200
99	80
100	10
101	20
102	10
105	110
106	50
107	290
108	230
109	870
110	240
111	270
112	60
113	30
114	10
115	10
117	20
118	10
119	50
120	30
121	280
122	170
123	350
124	130
125	100
126	20
127	20
128	10
129	10
131	20
132	10
133	60
134	70
135	300
136	110
137	350
138	90
139	20
140	10
141	20
145	20
146	10
147	110
148	120
149	540
150	150
151	170
152	80
153	60
154	10
155	10
160	110
161	60
162	200
163	40
164	60
165	10
166	10
168	10
173	10
174	10
175	110
176	30
177	90
178	10
179	20
180	50
181	10
183	10
186	10
187	10
189	80
190	50
191	60
192	20
193	10
194	30
197	10
201	10
202	10
203	160
204	40
205	60
206	20
207	10
215	50
216	60
217	690
218	410
219	130
220	10
229	10
230	30
231	90
232	60
233	20
243	40
244	100
245	50
246	10
248	10
257	800
258	280
259	120
260	30
271	20
273	10
285	320
286	120
287	50
299	10
300	370
301	100
302	30
355	60
356	10
368	140
369	150
370	70
371	10
397	200
398	50
400	10
412	590
413	200
414	30
