Mass Spectrum: Pentadecane-2,4-dione
Formula: C15H28O2
CAS: 53759-23-2
Molecular weight: 240
m/z	intensity
26	10
27	81
28	13
29	157
30	5
31	13
38	3
39	60
40	16
41	294
42	60
43	844
44	25
45	8
51	4
52	4
53	25
54	22
55	184
56	40
57	161
58	120
59	22
65	6
66	5
67	37
68	18
69	73
70	26
71	91
72	150
73	7
77	5
79	12
80	17
81	36
82	19
83	46
84	58
85	816
86	43
87	14
91	3
93	7
94	13
95	44
96	18
97	46
98	56
99	16
100	999
101	126
102	11
107	5
108	5
109	26
110	11
111	19
112	17
113	212
114	22
121	6
122	3
123	13
124	24
125	8
126	17
127	13
128	5
135	4
137	18
138	27
139	6
140	8
141	4
142	23
151	5
152	5
155	4
156	10
164	27
169	5
179	4
182	12
183	29
184	7
197	3
222	20
223	4
225	16
240	22
241	12
