Mass Spectrum: Valeraldehyde, 4,4-dimethyl-2-methylene-
Formula: C8H14O
CAS: 5375-28-0
Molecular weight: 126
m/z	intensity
27	134
28	23
29	307
30	7
38	15
39	191
40	34
41	421
42	40
43	105
53	31
54	7
55	130
56	30
57	999
67	23
68	4
69	29
70	40
71	14
77	16
78	3
79	6
80	1
81	9
82	2
83	11
84	4
85	2
86	1
87	1
91	9
92	1
93	60
94	5
95	6
96	2
97	5
98	3
108	3
109	2
110	1
111	41
112	4
126	5
