Mass Spectrum: Phosphine, diisopropylhydroxy-
Formula: C6H15OP
CAS: 53753-58-5
Molecular weight: 134
m/z	intensity
26	3
27	167
28	3
29	13
30	0
31	2
33	0
35	21
36	142
37	6
38	55
39	92
40	11
41	224
42	25
43	999
44	28
45	16
46	1
47	65
48	43
49	36
50	80
51	62
52	0
53	0
55	1
56	0
57	7
58	2
59	3
60	0
61	1
62	4
63	84
64	319
65	5
66	1
67	0
69	0
70	0
71	4
72	5
73	21
74	6
75	15
76	4
77	28
78	5
79	0
83	0
89	1
90	25
91	27
92	792
93	48
94	1
95	0
105	1
106	6
107	0
108	1
109	12
110	0
119	9
120	1
133	8
134	227
135	18
136	0
