Mass Spectrum: Cyclopropa[5,6]stigmast-22-en-3-one, 3',6-dihydro-, (5.beta.,6.alpha.,22E)-
Formula: C30H48O
CAS: 53755-40-1
Molecular weight: 424
m/z	intensity
41	340
42	30
43	370
44	10
53	90
54	20
55	999
56	50
57	210
67	290
68	60
69	650
70	60
71	160
77	100
78	20
79	250
80	90
81	540
82	140
83	840
84	110
85	90
91	180
92	50
93	320
94	130
95	530
96	150
97	510
98	70
99	20
105	170
106	50
107	260
108	70
109	250
110	90
111	100
117	40
118	20
119	150
120	70
121	190
122	90
123	310
124	80
131	90
132	30
133	150
134	50
135	230
136	90
137	220
138	80
139	140
145	90
146	20
147	140
148	40
149	330
150	70
151	80
159	60
160	30
161	100
162	40
163	110
164	20
165	30
166	120
167	20
171	40
172	20
173	80
174	30
175	130
176	30
177	70
185	30
186	10
187	60
188	40
189	110
190	20
191	40
201	50
202	20
203	50
213	20
214	20
215	50
216	20
217	40
225	50
226	20
227	60
228	20
229	90
230	20
241	40
242	30
243	130
244	40
245	90
246	20
255	30
256	20
257	70
258	40
259	40
267	80
268	20
269	30
270	100
271	70
282	50
283	280
284	170
285	280
286	90
297	80
298	30
299	30
311	90
312	200
313	90
325	20
326	90
327	40
339	40
340	20
341	20
363	20
381	200
382	70
383	20
395	20
409	20
424	290
425	100
426	50
