Mass Spectrum: Ergosta-5,22-dien-3-ol, 24-methyl-, (3.beta.,22E)-
Formula: C29H48O
CAS: 53755-22-9
Molecular weight: 412
m/z	intensity
41	290
42	40
43	270
44	50
53	50
55	540
56	40
57	200
67	270
68	20
69	999
70	60
77	80
79	250
80	40
81	490
82	70
83	440
84	50
91	250
92	40
93	250
94	50
95	310
96	120
97	950
98	70
105	270
106	40
107	280
108	40
109	230
110	40
111	70
119	70
120	30
121	170
122	30
123	260
124	30
125	70
129	50
130	20
131	130
132	20
133	290
134	50
135	140
136	20
137	90
143	90
144	30
145	250
146	40
147	210
148	30
149	100
151	130
157	100
158	40
159	270
160	50
161	130
162	20
163	100
171	40
172	20
173	120
174	20
175	70
176	20
177	60
185	70
187	60
189	40
191	40
199	80
201	50
203	30
211	40
213	120
214	20
215	50
216	10
217	40
227	40
228	20
229	40
230	10
231	50
232	10
239	40
241	50
243	30
245	30
253	90
254	20
255	330
256	70
257	40
267	30
269	60
270	20
271	250
272	90
273	70
281	20
282	20
283	70
284	10
285	50
286	10
299	40
300	70
301	40
309	70
310	30
337	40
351	610
352	190
367	40
368	30
369	860
370	260
371	50
394	40
395	10
412	70
413	20
