Mass Spectrum: Cycloprop[7,8]ergost-22-en-3-one, 3',7-dihydro-, (5.alpha.,7.beta.,8.alpha.,22E)-
Formula: C29H46O
CAS: 53755-18-3
Molecular weight: 410
m/z	intensity
41	257
42	19
43	217
44	49
53	39
55	574
56	29
57	267
67	277
68	39
69	999
70	79
71	69
77	59
78	9
79	178
80	29
81	435
82	148
83	366
84	39
91	188
92	29
93	267
94	128
95	435
96	69
97	128
105	178
106	29
107	267
108	19
109	267
110	29
111	39
117	49
118	9
119	198
120	29
121	128
122	108
123	237
124	49
125	366
126	29
131	79
132	19
133	168
134	39
135	138
136	19
137	49
143	19
145	89
146	9
147	99
148	29
149	118
150	19
151	29
157	29
158	19
159	89
160	29
161	69
162	19
163	39
171	29
172	9
173	79
174	19
175	178
176	19
177	29
185	39
186	19
187	39
188	19
189	148
190	79
191	29
199	19
201	39
202	9
203	79
212	19
213	19
214	9
215	59
216	9
217	49
218	9
225	19
227	39
228	9
229	29
230	9
231	19
241	19
242	19
243	59
244	29
245	29
255	39
256	19
257	39
258	49
259	69
260	19
267	69
268	19
269	49
270	69
271	69
272	9
282	39
283	237
284	79
285	178
286	39
297	49
298	19
311	89
312	79
313	39
326	29
367	39
368	9
381	39
382	9
395	59
396	19
410	99
411	29
