Mass Spectrum: 1H-Imidazole-2-methanol, 1-(phenylmethyl)-
Formula: C11H12N2O
CAS: 5376-10-3
Molecular weight: 188
m/z	intensity
38	47
39	124
40	82
41	64
42	43
43	15
44	3
45	5
47	0
49	2
50	44
51	98
52	67
53	32
54	23
55	6
56	5
57	3
58	1
59	0
60	0
61	5
62	23
63	75
64	22
65	261
66	19
67	9
68	11
69	19
70	7
71	2
72	1
73	3
74	12
75	13
76	16
77	68
78	24
79	15
81	15
82	95
83	5
85	4
86	3
87	4
88	2
89	62
90	28
91	999
92	99
93	5
94	1
95	2
96	1
97	86
98	4
99	1
100	0
101	4
102	12
103	26
104	15
105	4
106	1
107	1
109	1
110	2
111	1
112	0
113	0
114	1
115	6
116	6
117	4
118	1
119	1
127	1
128	8
129	6
130	15
131	2
132	0
133	0
140	0
141	0
142	2
143	2
144	1
155	5
156	9
157	19
158	5
159	3
168	1
169	36
170	21
171	6
172	1
173	1
185	1
186	1
187	4
188	65
189	8
190	0
