Mass Spectrum: Oxetane, 2,3,4-trimethyl-
Formula: C6H12O
CAS: 53778-61-3
Molecular weight: 100
m/z	intensity
27	164
28	123
29	134
39	144
40	51
41	412
42	41
43	278
44	41
45	742
46	30
51	51
53	51
54	41
55	144
56	999
57	113
59	72
