Mass Spectrum: Oxetane, 2-ethyl-3-methyl-
Formula: C6H12O
CAS: 53778-62-4
Molecular weight: 100
m/z	intensity
27	116
28	70
29	170
31	23
39	133
40	36
41	766
42	300
43	400
51	13
53	36
54	20
55	633
56	700
57	433
58	30
59	26
67	70
68	13
69	30
70	233
71	60
85	999
86	43
99	23
100	73
