Mass Spectrum: 1-Pentyn-1-ol, 4-methyl-
Formula: C6H10O
CAS: 53778-57-7
Molecular weight: 98
m/z	intensity
14	2
15	16
16	1
18	1
19	1
25	2
26	11
27	56
28	9
29	55
30	1
31	6
32	1
36	1
37	5
38	11
39	69
40	11
41	35
42	12
43	314
44	9
45	12
46	1
48	1
49	4
50	21
51	31
52	11
53	67
54	8
55	81
56	9
57	6
58	2
59	2
60	1
61	3
62	5
63	7
64	2
65	11
66	4
67	5
68	24
69	999
70	48
71	6
72	1
73	3
74	2
75	1
77	10
78	2
79	30
80	4
81	18
82	3
83	271
84	15
85	1
87	1
91	1
95	1
97	16
98	1
99	1
