Mass Spectrum: 1,3,4-Hexatriene, 3-methoxy-
Formula: C7H10O
CAS: 53783-88-3
Molecular weight: 110
m/z	intensity
12	17
13	6
14	18
15	168
16	42
17	31
18	133
19	1
24	1
25	7
26	53
27	231
28	999
29	322
30	121
31	59
32	32
33	4
34	5
36	4
37	30
38	84
39	516
40	66
41	450
42	39
43	34
44	38
45	824
46	20
47	6
48	5
49	17
50	189
51	351
52	212
53	189
54	37
55	39
56	5
57	4
58	6
59	5
60	2
61	18
62	49
63	124
64	26
65	163
66	74
67	351
68	70
69	56
70	3
71	2
72	1
73	16
74	40
75	47
76	26
77	525
78	302
79	448
80	163
81	119
82	44
83	5
84	1
85	1
90	1
91	6
92	4
93	11
94	24
95	399
96	29
97	2
107	1
108	5
109	95
110	156
111	12
112	1
