Mass Spectrum: Cyclobutanecarbonitrile, 3,3-dimethyl-
Formula: C7H11N
CAS: 53783-86-1
Molecular weight: 109
m/z	intensity
12	3
13	3
15	32
25	2
26	36
27	118
28	97
29	53
30	2
31	11
37	11
38	21
39	144
40	43
41	438
42	24
43	7
50	9
51	19
52	18
53	25
54	54
55	75
56	999
57	40
65	8
66	8
67	44
68	5
78	3
80	2
81	2
83	2
