Mass Spectrum: Cyclopropane, 1,1-dichloro-2-ethyl-2-methyl-
Formula: C6H10Cl2
CAS: 53799-96-5
Molecular weight: 152
m/z	intensity
24	1
25	4
26	41
27	188
28	61
29	74
30	2
31	1
32	0
35	7
36	39
37	9
38	20
39	161
40	30
41	390
42	24
43	21
44	0
47	5
48	2
49	12
50	30
51	87
52	20
53	87
54	19
55	74
56	999
57	46
58	1
60	4
61	28
62	6
63	26
64	2
65	50
66	10
67	25
68	3
69	5
70	4
71	0
72	0
73	9
74	2
75	43
76	3
77	22
78	4
79	23
80	3
81	44
82	4
83	3
84	1
85	5
86	3
87	112
88	8
89	62
90	6
91	9
92	0
95	0
96	10
97	1
98	6
99	2
100	1
101	9
102	0
103	6
104	1
105	1
106	0
107	1
109	14
110	35
111	9
112	24
113	1
114	3
115	1
116	5
117	16
118	2
119	5
120	0
121	0
122	4
123	162
124	12
125	107
126	7
127	19
128	1
137	7
138	0
139	4
141	1
146	0
151	0
152	7
153	0
154	4
155	0
