Mass Spectrum: N(1)-(3-Phenyl-1,2,4-oxadiazol-5-yl)-1-piperidinecarboxamidine
Formula: C14H17N5O
CAS: 5379-57-7
Molecular weight: 271
m/z	intensity
12	2
14	1
15	14
16	1
17	2
25	1
26	15
27	83
28	121
29	71
30	203
31	3
36	1
37	12
38	17
39	115
40	16
41	372
42	188
43	253
44	89
45	15
46	1
48	1
49	6
50	73
51	122
52	34
53	50
54	55
55	264
56	281
57	103
58	9
59	3
60	4
61	4
62	13
63	36
64	40
65	24
66	7
67	28
68	57
69	164
70	85
71	28
72	54
73	9
74	11
75	23
76	105
77	237
78	18
79	10
80	10
81	30
82	136
83	990
84	999
85	113
86	61
87	20
88	8
89	11
90	8
91	51
92	24
93	14
94	6
95	9
96	24
97	49
98	116
99	66
100	18
101	3
102	9
103	321
104	111
105	10
106	8
107	2
108	14
109	58
110	39
111	76
112	94
113	41
114	4
115	3
116	2
117	7
118	81
119	191
120	37
121	17
122	4
123	23
124	60
125	39
126	70
127	9
128	2
129	9
130	15
131	11
132	4
133	3
134	3
135	20
136	12
137	16
138	47
139	54
140	102
141	18
142	1
143	7
144	7
145	88
146	25
147	19
148	3
149	1
150	7
151	280
152	134
153	18
154	78
155	6
156	1
157	1
158	1
159	2
160	7
161	142
162	68
163	7
164	1
165	1
166	4
167	136
168	74
169	9
170	2
171	4
172	9
173	18
174	6
175	5
179	1
183	1
184	3
185	4
186	15
187	26
188	9
189	161
190	25
191	2
194	1
197	1
198	1
199	7
200	20
201	6
202	2
203	3
211	2
212	2
213	1
214	5
215	2
216	3
217	2
218	1
224	6
225	8
226	5
227	4
228	11
229	3
230	2
234	1
235	1
237	1
238	1
239	8
240	3
241	2
242	16
243	6
252	18
253	12
254	36
255	9
256	3
262	1
267	1
269	1
270	11
271	521
272	102
273	9
