Mass Spectrum: Benzene-1,3-diamine, 4,6-dibenzoyl-
Formula: C20H16N2O2
CAS: 53793-65-0
Molecular weight: 316
m/z	intensity
33	11
34	6
36	2
37	3
38	21
39	80
40	136
41	56
42	63
43	94
44	59
45	40
48	0
50	118
51	318
52	121
53	64
54	40
55	35
56	11
57	21
58	0
59	0
60	2
61	1
62	14
63	36
64	17
65	40
66	17
67	55
68	9
69	12
70	8
71	9
72	0
73	6
74	23
75	45
76	138
77	999
78	131
79	51
80	18
81	4
82	2
83	6
84	3
85	2
86	1
87	6
88	7
89	24
90	15
91	84
92	17
93	4
94	3
95	2
97	2
98	2
99	2
100	1
101	8
102	12
103	28
104	81
105	672
106	120
107	11
108	1
109	1
110	5
111	1
112	5
113	8
114	14
115	47
116	13
117	12
118	3
119	9
120	5
122	6
123	0
124	4
125	3
126	12
127	51
128	43
129	33
130	75
131	1
132	0
133	12
134	9
135	11
136	0
137	3
138	12
139	85
140	37
141	15
143	48
144	87
149	12
151	1
152	6
153	9
154	43
156	30
157	43
158	0
161	9
162	0
163	0
164	11
165	23
166	127
167	60
168	8
169	1
170	11
171	4
176	2
177	2
179	1
181	44
182	56
183	30
184	3
186	0
192	10
193	23
194	26
195	11
196	1
209	41
210	45
211	63
212	5
236	11
237	58
238	125
239	437
240	67
241	6
253	2
269	0
270	1
271	0
285	9
286	2
287	2
298	3
299	30
300	3
314	171
315	890
316	578
317	108
318	9
