Mass Spectrum: 1H-Imidazole, 5-carboxymethylamino-1-methyl-4-nitro-
Formula: C6H8N4O4
CAS: 53790-84-4
Molecular weight: 200
m/z	intensity
41	99
42	999
43	50
44	409
45	22
46	4
51	6
52	28
53	113
54	52
55	66
56	61
57	172
58	22
59	9
60	7
66	23
67	115
68	65
69	117
70	28
79	7
80	9
81	48
82	38
83	107
84	27
85	9
86	5
94	24
95	10
96	27
97	27
98	82
108	9
109	47
110	23
111	18
112	7
121	5
122	57
123	18
124	9
125	19
126	19
127	71
137	109
138	50
139	59
142	10
154	12
155	143
156	7
166	9
183	15
200	98
201	10
