Mass Spectrum: Urea, (phenylmethyl)-
Formula: C8H10N2O
CAS: 538-32-9
Molecular weight: 150
m/z	intensity
15	2
16	5
17	7
18	19
19	1
26	7
27	26
28	246
29	38
30	237
31	4
32	1
37	8
38	16
39	77
40	7
41	13
42	7
43	40
44	107
45	23
46	3
49	6
50	59
51	138
52	42
53	15
54	5
55	5
56	2
59	1
60	1
61	4
62	11
63	36
64	10
65	98
66	9
67	2
72	4
73	8
74	15
75	10
76	15
77	198
78	110
79	320
80	28
81	2
85	1
86	2
87	2
89	34
90	19
91	296
92	25
93	14
94	2
95	2
102	1
103	5
104	113
105	110
106	999
107	164
108	11
120	1
132	12
133	26
134	3
147	2
148	2
149	35
150	760
151	73
152	5
