Mass Spectrum: Trifluoroacetic acid,n-tridecyl ester
Formula: C15H27F3O2
CAS: 53800-02-5
Molecular weight: 296
m/z	intensity
15	1
26	4
27	65
28	21
29	171
30	5
31	2
33	3
37	1
39	98
40	26
41	658
42	175
43	833
44	31
47	5
50	6
51	7
52	4
53	60
54	109
55	997
56	474
57	892
58	40
59	4
61	2
63	1
65	12
66	14
67	150
68	193
69	999
70	496
71	382
72	21
73	1
77	8
78	7
79	17
80	6
81	83
82	365
83	819
84	385
85	220
86	14
87	2
91	3
93	3
94	2
95	36
96	157
97	751
98	272
99	102
100	4
101	1
108	1
109	9
110	74
111	407
112	172
113	29
114	2
115	5
121	1
123	4
124	35
125	177
126	95
127	25
128	2
137	2
138	19
139	43
140	40
141	8
142	1
151	1
152	15
153	16
154	99
155	15
156	1
165	1
166	1
167	1
170	1
179	3
180	5
182	61
183	9
184	1
193	1
194	1
207	1
209	3
221	1
227	39
228	6
229	1
278	4
279	1
