Mass Spectrum: Meso-1,3-diphenyl-1,3-propanediol
Formula: C15H16O2
CAS: 5381-86-2
Molecular weight: 228
m/z	intensity
15	1
27	8
28	2
29	2
37	1
38	2
39	13
40	1
41	2
43	19
44	2
49	1
50	15
51	56
52	14
53	7
55	3
62	2
63	9
64	1
65	9
66	1
73	1
74	6
75	5
76	9
77	222
78	90
79	210
80	14
81	1
89	6
90	3
91	33
92	5
93	2
94	2
95	1
101	1
102	9
103	95
104	999
105	399
106	88
107	237
108	167
109	11
110	1
115	5
116	2
117	1
118	1
119	1
120	13
121	47
122	13
123	1
131	6
132	7
133	3
149	2
150	12
151	1
152	1
165	5
166	1
167	1
178	2
179	3
181	3
189	2
190	1
191	5
192	11
193	5
194	7
195	2
207	1
208	1
209	8
210	308
211	49
212	5
228	2
