Mass Spectrum: sec-Butyl fluoroformate
Formula: C5H9FO2
CAS: 53813-78-8
Molecular weight: 120
m/z	intensity
14	15
15	56
16	11
17	20
18	95
19	4
20	5
26	66
27	402
28	171
29	418
30	12
33	7
37	12
38	23
39	206
40	38
41	999
42	47
43	84
44	42
45	19
46	9
47	128
48	3
49	10
50	25
51	38
52	10
53	29
54	14
55	132
56	462
57	562
58	26
62	26
63	87
64	11
65	618
66	10
67	11
69	14
77	42
78	14
79	11
81	14
90	122
91	685
92	35
93	6
105	37
