Mass Spectrum: 1-Hydroxyimino-1-(4-methylphenyl)propan-2-one
Formula: C10H11NO2
CAS: 53815-22-8
Molecular weight: 177
m/z	intensity
43	999
50	52
51	64
63	108
65	145
77	88
89	137
90	128
91	172
92	140
103	38
106	25
107	24
116	197
117	182
118	59
119	39
135	523
136	30
147	1
164	1
177	93
178	6
