Mass Spectrum: 1,3-Diphenyl-1,2-butanediol
Formula: C16H18O2
CAS: 5381-88-4
Molecular weight: 242
m/z	intensity
17	3
18	2
27	11
28	2
29	12
31	2
38	1
39	14
40	1
41	5
43	72
44	2
50	6
51	30
52	8
53	7
55	2
57	60
58	9
62	1
63	8
64	2
65	21
66	2
74	2
75	3
76	5
77	124
78	40
79	216
80	18
81	1
82	1
83	1
88	1
89	13
90	15
91	192
92	17
93	17
94	1
95	1
101	1
102	5
103	37
104	24
105	400
106	96
107	255
108	999
109	86
110	5
115	19
116	4
117	83
118	43
119	26
120	94
121	12
128	1
129	1
131	1
132	3
133	14
134	11
135	156
136	20
137	2
152	2
165	4
166	1
167	2
176	1
177	1
178	5
179	4
180	1
181	1
189	1
191	3
192	1
193	2
195	2
205	1
206	5
207	1
208	3
209	3
222	1
224	25
225	6
226	1
242	24
243	4
