Mass Spectrum: 6-Bromo-2-hydroxynaphthalene-1-carbaldehyde
Formula: C11H7BrO2
CAS: 53815-56-8
Molecular weight: 250
m/z	intensity
34	0
35	2
36	6
37	143
38	367
39	559
40	121
41	144
42	80
43	137
44	119
45	15
46	1
48	1
49	80
50	572
51	453
52	76
53	171
54	28
55	135
56	74
57	265
60	15
61	239
62	665
63	999
64	159
65	171
66	48
67	19
68	9
69	37
70	36
71	189
72	0
73	71
74	427
75	317
76	102
77	118
78	46
79	94
80	28
81	76
82	30
83	22
84	34
86	371
87	454
88	363
89	285
90	48
91	16
92	7
93	4
95	3
96	7
97	28
98	101
99	77
100	14
101	17
102	14
103	22
104	8
105	18
106	24
107	1
108	0
109	26
110	61
111	49
112	37
113	500
114	797
115	924
116	92
117	17
118	2
119	13
121	5
122	17
123	3
124	2
125	88
126	59
127	7
128	1
130	0
133	2
134	1
136	1
140	1
141	12
142	71
143	369
144	40
146	3
155	1
159	1
167	2
169	2
170	16
171	208
172	24
174	0
176	0
180	2
183	0
189	1
192	11
193	112
194	21
195	109
196	8
204	56
205	6
206	56
207	2
221	14
222	77
223	23
224	76
225	4
232	7
233	2
234	7
235	1
249	180
250	427
251	216
252	426
253	43
254	1
