Mass Spectrum: 4-Hydroxy-4-phenyl-2-butanone semicarbazone
Formula: C11H15N3O2
CAS: 5381-94-2
Molecular weight: 221
m/z	intensity
15	14
16	7
17	12
18	2
25	1
26	8
27	38
28	48
29	30
30	105
31	57
32	9
36	1
37	9
38	17
39	79
40	18
41	94
42	104
43	72
44	117
45	5
46	2
49	7
50	76
51	193
52	50
53	20
54	79
55	127
56	44
57	198
58	14
59	4
60	4
61	50
62	8
63	17
64	4
65	12
66	2
67	1
68	1
69	6
70	15
71	75
72	791
73	78
74	135
75	22
76	28
77	755
78	124
79	385
80	25
81	2
82	2
83	42
84	8
85	79
86	7
87	2
89	9
90	4
91	44
92	9
93	3
94	1
96	1
97	4
98	108
99	78
100	339
101	18
102	11
103	42
104	29
105	849
106	640
107	403
108	30
109	2
114	1
115	999
116	148
117	15
118	9
119	4
120	47
121	9
122	1
127	6
128	15
129	16
130	9
131	4
132	11
133	25
134	3
142	7
143	15
144	23
145	7
146	3
147	4
155	2
157	3
158	7
159	43
160	22
161	15
162	383
163	43
164	3
176	1
185	7
186	3
187	3
188	1
192	1
202	2
203	5
204	11
205	2
220	1
221	2
222	9
223	1
