Mass Spectrum: Carbamic acid, (4-nitrophenyl)-, phenylmethyl ester
Formula: C14H12N2O4
CAS: 53821-12-8
Molecular weight: 272
m/z	intensity
33	2
34	3
36	4
37	10
38	29
39	74
40	53
41	26
42	4
43	9
44	27
45	2
46	4
47	0
48	0
49	1
50	31
51	51
52	31
53	12
54	3
55	7
56	2
57	5
58	0
60	0
61	5
62	18
63	65
64	48
65	121
66	7
67	2
68	1
69	2
70	2
71	2
72	0
73	1
74	6
75	7
76	11
77	42
78	13
79	30
80	7
81	3
82	1
83	1
84	1
85	1
87	2
88	2
89	29
91	999
92	76
93	4
94	0
95	0
96	0
97	0
98	0
101	0
103	0
105	8
106	6
107	18
108	15
109	1
111	0
112	0
113	0
115	0
117	0
118	1
119	1
120	0
121	0
122	1
123	0
124	0
125	0
126	0
127	0
129	0
134	6
135	1
136	1
137	1
138	4
139	0
148	0
149	0
151	0
152	0
153	0
155	0
161	0
163	0
164	7
165	3
166	3
167	0
169	0
171	1
173	0
180	0
181	0
187	0
189	0
212	0
226	0
228	5
229	0
242	1
256	0
269	0
270	0
271	0
272	26
273	3
274	0
