Mass Spectrum: 1,2-O-Isopropylidene-.alpha.-D-xylofuranose 3,5-benzeneboronate
Formula: C14H17BO5
CAS: 53829-60-0
Molecular weight: 276
m/z	intensity
39	128
40	31
41	140
42	60
43	999
44	57
45	22
50	40
51	104
52	73
53	95
54	20
55	133
56	41
57	90
58	23
59	192
60	20
67	20
68	92
69	83
70	13
71	33
72	5
76	30
77	154
78	61
79	35
81	43
83	48
85	104
87	17
89	40
90	18
91	233
92	23
93	9
96	12
97	37
98	14
102	29
103	138
104	385
105	476
106	36
107	10
114	7
115	37
116	23
117	53
118	18
119	18
127	17
128	15
129	26
130	14
131	27
132	6
139	33
140	20
141	57
142	10
145	19
146	80
147	104
148	11
158	152
159	542
160	447
161	73
171	11
172	20
173	22
174	7
175	14
176	4
187	7
188	11
189	22
200	25
201	119
202	19
203	7
218	19
219	57
220	12
230	4
231	16
260	109
261	319
262	56
263	18
275	4
276	12
277	3
