Mass Spectrum: 1-O-Benzoyl-.beta.-D-fructopyranose 2,3:4,5-bis(benzeneboronate)
Formula: C25H22B2O7
CAS: 53829-59-7
Molecular weight: 456
m/z	intensity
39	68
41	59
43	131
44	100
50	46
51	137
55	65
57	60
69	100
77	375
78	137
103	100
104	237
105	999
106	100
117	33
122	60
131	61
145	37
146	93
147	87
158	112
159	375
160	168
172	125
173	281
174	68
175	75
199	45
217	100
249	44
256	41
319	46
320	306
321	593
322	112
333	50
334	118
335	22
366	7
367	16
455	7
456	13
