Mass Spectrum: 6-O-Benzoyl-.alpha.-D-glucofuranose 1,2:3,5-bis(benzeneboronate)
Formula: C25H22B2O7
CAS: 53829-57-5
Molecular weight: 456
m/z	intensity
39	17
41	11
42	9
43	33
44	11
50	12
51	33
52	8
53	14
55	32
57	12
68	14
69	12
76	12
77	150
78	34
89	19
90	17
91	33
103	25
104	66
105	999
106	96
115	14
117	15
145	77
146	270
147	120
148	13
158	62
159	270
160	110
161	15
172	13
173	13
174	15
175	37
176	7
186	13
187	36
188	125
189	20
200	9
201	42
202	10
203	8
211	4
213	5
230	8
233	6
256	6
257	12
261	6
262	12
263	17
291	10
292	25
293	54
294	10
305	10
332	6
333	54
334	160
335	33
378	2
379	5
454	2
455	10
456	18
457	5
458	1
