Mass Spectrum: 6-Oxabicyclo[3.1.0]hexane-3-carbonitrile
Formula: C6H7NO
CAS: 53834-54-1
Molecular weight: 109
m/z	intensity
12	0
13	0
14	4
15	2
16	1
17	5
18	32
26	2
27	69
28	317
29	251
30	114
31	5
32	5
36	3
37	22
38	35
39	218
40	29
41	11
42	198
43	40
44	29
45	4
49	2
50	19
51	48
52	80
53	344
54	999
55	337
56	64
57	7
61	1
62	3
63	10
64	28
65	20
66	410
67	48
68	20
69	31
70	1
71	1
72	3
73	3
74	0
75	3
76	2
77	1
78	5
79	10
80	702
81	192
82	35
83	10
84	0
87	0
88	0
89	0
90	0
91	6
92	5
93	6
94	3
95	0
100	0
101	1
102	0
103	0
105	1
106	1
107	1
108	17
109	60
110	15
111	1
