Mass Spectrum: 4-Butyl-1,3-thiazole
Formula: C7H11NS
CAS: 53833-33-3
Molecular weight: 141
m/z	intensity
39	207
45	81
55	139
57	311
58	10
71	488
72	219
73	30
74	9
99	999
100	49
101	50
112	80
114	198
115	9
126	20
140	20
141	19
