Mass Spectrum: Phenol, 2-phenylmethyliminomethyl-4-nitro-
Formula: C14H12N2O3
CAS: 53848-16-1
Molecular weight: 256
m/z	intensity
33	0
34	0
36	0
37	8
38	30
39	97
40	12
41	31
42	4
43	5
44	8
46	4
48	0
50	54
51	87
52	37
53	34
54	6
55	7
56	1
57	3
58	0
59	0
61	7
62	27
63	87
64	47
65	203
66	14
67	2
68	3
69	2
70	1
71	2
72	0
73	2
74	13
75	15
76	24
77	39
78	30
79	12
80	4
81	1
82	2
83	1
84	1
85	1
86	2
87	3
89	46
91	999
92	110
93	7
94	1
95	1
96	1
97	0
98	0
99	0
100	0
101	2
102	3
103	4
104	15
105	9
106	5
107	3
108	2
109	0
110	0
111	0
112	0
113	0
114	1
115	3
116	2
117	4
118	10
119	16
120	2
121	2
122	0
123	0
124	0
125	0
126	1
127	2
128	2
129	1
130	1
131	1
132	4
133	2
134	2
135	3
136	0
137	0
138	0
139	1
140	0
141	1
142	0
143	0
144	0
148	1
149	1
150	3
151	2
152	6
153	3
154	2
155	0
156	0
157	0
158	0
159	0
160	0
161	0
162	0
163	0
164	1
165	5
166	1
167	2
168	1
169	0
170	0
171	1
172	0
176	0
177	0
178	3
179	1
180	4
181	3
182	1
183	0
184	0
185	0
189	0
190	0
191	0
192	0
193	0
194	0
195	0
196	0
197	0
198	0
206	0
207	0
208	1
209	6
210	3
211	0
212	0
213	0
214	0
221	0
222	0
223	0
224	0
225	0
226	3
227	0
238	0
239	3
240	2
241	0
242	0
243	0
244	0
250	0
252	0
253	3
255	26
256	154
257	23
258	2
259	0
