Mass Spectrum: 2-Bromodibenzothiophene, S,S-dioxide
Formula: C12H7BrO2S
CAS: 53846-85-8
Molecular weight: 294
m/z	intensity
34	69
36	43
37	127
38	463
39	630
40	564
41	124
42	105
43	202
44	240
45	156
48	287
50	672
51	550
52	108
53	95
54	87
55	134
56	105
57	91
58	44
61	356
62	494
63	463
64	112
65	86
66	64
67	63
69	602
71	57
72	90
74	566
75	999
76	267
77	381
79	734
81	226
82	209
83	71
84	85
85	195
86	312
87	242
89	240
91	227
93	238
94	164
95	59
96	87
98	359
99	199
100	92
101	85
104	278
105	289
106	58
107	72
108	152
109	94
110	134
111	155
112	75
113	134
115	778
117	108
119	48
121	62
122	80
123	100
124	105
125	185
126	104
127	82
132	49
133	57
134	52
136	488
137	137
138	203
139	519
140	68
150	624
151	140
157	43
158	152
159	156
167	63
169	60
170	78
171	203
182	86
183	48
185	56
187	869
188	115
189	46
214	148
215	294
216	84
238	48
240	108
246	139
248	137
265	108
266	51
267	106
294	656
295	152
296	691
297	64
