Mass Spectrum: .alpha.-Ethyl-o-methoxy-.alpha.-methylbenzyl alcohol
Formula: C11H16O2
CAS: 53847-37-3
Molecular weight: 180
m/z	intensity
39	375
43	508
51	300
65	300
77	489
91	811
103	200
105	999
107	100
109	40
115	200
119	279
121	248
131	248
133	466
135	80
147	349
151	557
162	248
163	40
165	20
