Mass Spectrum: .alpha.-Isopropyl-O-methoxy-.alpha.-methylbenzyl alcohol
Formula: C12H18O2
CAS: 53847-38-4
Molecular weight: 194
m/z	intensity
39	300
43	650
51	250
65	263
77	443
91	495
103	220
105	999
107	100
109	40
115	220
119	120
121	310
131	170
133	489
135	140
145	160
147	70
151	827
161	542
165	40
176	262
