Mass Spectrum: Cyclohexane, 1,3-butadienylidene-
Formula: C10H14
CAS: 53864-08-7
Molecular weight: 134
m/z	intensity
26	5
27	50
28	18
29	25
30	2
36	5
38	6
39	103
40	17
41	133
42	28
43	18
44	12
50	23
51	67
52	49
53	43
54	41
55	61
56	13
57	39
58	3
62	7
63	26
64	8
65	85
66	51
67	140
68	14
69	20
70	12
71	6
73	4
74	6
75	11
76	8
77	285
78	202
79	280
80	159
81	52
82	19
83	12
84	11
85	4
87	2
89	11
90	8
91	999
92	392
93	160
94	16
95	8
96	2
97	5
98	28
99	29
100	2
102	4
103	39
104	19
105	454
106	158
107	25
108	4
109	5
115	17
116	5
117	33
118	8
119	209
120	23
121	8
127	2
128	3
129	4
131	8
133	43
134	650
135	76
136	7
