Mass Spectrum: Benzeneacetaldehyde, .alpha.-(hydroxymethylene)-2-nitro-
Formula: C9H7NO4
CAS: 53868-44-3
Molecular weight: 193
m/z	intensity
33	6
34	6
36	6
37	47
38	124
39	696
40	134
41	118
42	30
43	38
44	71
45	45
46	20
47	14
48	5
49	31
50	245
51	469
52	180
53	148
54	19
55	36
56	8
57	12
58	15
59	30
60	12
61	66
62	201
63	603
64	351
65	974
66	114
67	22
68	14
69	14
70	8
71	8
73	33
74	104
75	162
76	259
77	521
78	164
79	160
80	67
81	30
82	5
83	5
84	12
85	20
86	39
87	37
88	53
89	538
90	528
91	486
92	999
93	129
94	12
95	3
96	2
97	6
98	16
99	8
101	54
102	63
103	60
104	403
105	133
106	16
107	30
108	17
109	7
110	3
111	2
112	2
114	4
115	7
116	16
117	23
118	57
119	242
120	112
121	19
123	1
125	2
127	1
128	2
129	10
130	29
131	9
132	22
133	28
134	217
135	45
136	62
137	9
138	0
141	1
143	6
144	43
145	57
146	199
147	354
148	204
149	25
150	4
151	2
158	4
159	8
160	14
161	58
162	8
163	3
164	16
165	1
171	3
173	1
175	1
176	3
177	3
183	0
187	2
192	2
193	81
194	9
195	2
