Mass Spectrum: 8,10-Dodecadien-1-ol, acetate, (E,E)-
Formula: C14H24O2
CAS: 53880-51-6
Molecular weight: 224
m/z	intensity
14	3
15	26
16	1
26	4
27	62
28	50
29	96
30	2
31	9
32	9
38	2
39	92
40	22
41	347
42	54
43	878
44	37
45	11
50	3
51	14
52	12
53	148
54	123
55	443
56	64
57	59
58	10
59	6
60	5
61	89
62	2
63	4
64	1
65	40
66	96
67	672
68	799
69	152
70	48
71	54
72	7
73	22
74	2
75	2
76	1
77	68
78	37
79	658
80	317
81	999
82	420
83	151
84	37
85	58
86	8
87	4
89	1
91	57
92	23
93	285
94	289
95	450
96	316
97	93
98	54
99	16
100	4
101	9
102	1
103	3
104	2
105	17
106	8
107	170
108	132
109	95
110	48
111	22
112	10
113	5
114	6
115	5
116	1
117	3
118	2
119	9
120	15
121	211
122	91
123	38
124	9
125	40
126	6
127	3
128	1
129	3
131	2
132	1
133	9
134	6
135	158
136	44
137	16
138	10
139	4
140	2
141	3
142	1
143	45
144	4
145	3
153	3
154	1
155	1
159	1
160	2
161	2
162	4
163	21
164	204
165	31
166	2
167	1
169	1
170	2
180	2
181	4
182	2
195	1
222	2
223	1
224	133
225	21
226	2
