Mass Spectrum: Butanenitrile, 3-chloro-3-methyl-
Formula: C5H8ClN
CAS: 53897-47-5
Molecular weight: 117
m/z	intensity
12	1
13	2
14	5
15	19
25	2
26	21
27	97
28	56
29	58
30	2
32	3
35	4
36	28
37	33
38	54
39	205
40	38
41	393
42	24
43	45
44	4
47	5
48	3
49	134
50	20
51	64
52	31
53	50
54	91
55	216
56	21
57	1
60	3
61	20
62	12
63	58
64	28
65	25
66	122
67	11
68	2
69	2
72	1
73	5
74	9
75	46
76	11
77	999
78	42
79	321
80	34
81	30
82	436
83	28
84	1
85	4
86	3
87	8
88	10
89	11
90	4
91	4
96	1
97	1
98	2
100	6
101	29
102	154
103	19
104	49
116	11
118	4
