Mass Spectrum: Butanamide, 4-cyano-
Formula: C5H8N2O
CAS: 53897-27-1
Molecular weight: 112
m/z	intensity
12	7
13	7
14	27
15	135
16	73
17	94
18	202
25	4
26	82
27	314
28	379
29	29
30	100
31	61
32	27
37	23
38	43
39	14
40	82
41	999
42	202
43	67
44	314
45	27
50	5
51	25
52	58
53	14
54	320
55	120
56	18
57	8
58	167
59	255
60	8
64	17
65	7
66	31
67	14
68	126
69	44
70	25
71	7
72	17
73	100
84	6
85	8
86	21
95	24
96	58
97	11
98	13
111	20
112	4
