Mass Spectrum: 2H-Pyran-2-carboxaldehyde, 5,6-dihydro-
Formula: C6H8O2
CAS: 53897-26-0
Molecular weight: 112
m/z	intensity
12	1
13	0
14	5
15	13
16	0
17	16
18	7
19	0
24	0
25	2
26	56
27	356
28	118
29	466
30	10
31	31
32	0
33	0
35	0
36	1
37	8
38	21
39	247
40	24
41	48
42	16
43	92
44	6
45	1
46	0
47	3
48	0
49	3
50	32
51	44
52	23
53	162
54	20
55	724
56	41
57	88
58	5
59	0
60	0
61	1
62	2
63	4
64	0
65	32
66	127
67	18
68	41
69	8
70	1
71	4
72	0
73	0
74	1
75	0
76	1
77	8
78	39
79	9
80	11
81	29
82	6
83	999
84	60
85	5
86	0
87	0
91	0
92	0
93	0
94	18
95	3
96	3
97	13
98	1
99	0
109	0
110	0
111	0
112	301
113	19
114	1
