Mass Spectrum: Oxirane, 2-ethyl-3-propyl-
Formula: C7H14O
CAS: 53897-32-8
Molecular weight: 114
m/z	intensity
41	999
42	162
43	499
44	97
45	58
46	14
51	30
52	18
53	46
54	46
55	367
56	69
57	762
58	237
59	297
60	16
67	76
68	4
69	27
70	16
71	65
72	441
73	65
74	7
81	11
83	4
85	297
86	27
97	46
98	7
99	69
100	7
113	16
114	23
