Mass Spectrum: Oxirane, 2-(1,1-dimethylethyl)-3-methyl-
Formula: C7H14O
CAS: 53897-30-6
Molecular weight: 114
m/z	intensity
41	252
42	299
43	91
44	15
45	110
50	18
51	28
52	12
53	69
54	20
55	999
56	63
57	129
58	11
69	31
70	548
71	69
82	15
86	18
99	25
114	4
