Mass Spectrum: 2-Methyl-6-methyleneocta-2,7-dien-4-one
Formula: C10H14O
CAS: 539-70-8
Molecular weight: 150
m/z	intensity
26	1
27	20
28	3
29	32
30	1
37	1
38	6
39	86
40	10
41	34
42	4
43	3
49	1
50	9
51	19
52	10
53	53
54	12
55	330
56	15
60	1
61	2
62	3
63	7
64	2
65	19
66	10
67	21
74	1
75	1
77	11
78	7
79	18
80	5
81	1
82	15
83	999
84	58
89	1
91	9
92	1
93	3
94	1
95	3
103	1
105	3
106	2
107	7
108	7
115	2
116	1
117	1
121	1
122	23
123	2
135	3
150	32
151	4
