Mass Spectrum: Hydrazine, 1-(5-hexenyl)-1-methyl-
Formula: C7H16N2
CAS: 53907-78-1
Molecular weight: 128
m/z	intensity
41	800
42	900
43	430
44	580
45	440
46	340
51	60
53	120
54	90
55	210
56	120
57	130
59	999
60	300
67	60
70	60
71	90
72	60
85	160
128	150
129	20
