Mass Spectrum: 4-Penten-1-ol, 2,2,4-trimethyl-
Formula: C8H16O
CAS: 53907-70-3
Molecular weight: 128
m/z	intensity
15	44
26	19
27	261
28	53
29	275
31	188
38	21
39	312
40	48
41	460
42	34
43	375
44	17
45	133
50	17
51	32
53	88
54	25
55	999
56	409
57	244
58	17
67	61
69	115
70	17
71	40
72	548
73	357
74	19
77	16
79	19
81	44
83	19
95	70
97	148
113	10
128	1
