Mass Spectrum: Oxirane, 2-methyl-2-pentyl-
Formula: C8H16O
CAS: 53907-75-8
Molecular weight: 128
m/z	intensity
41	560
42	170
43	310
44	10
45	20
51	10
53	50
54	30
55	460
56	260
57	340
58	690
59	40
67	40
68	30
69	100
70	40
71	140
72	450
73	30
81	30
85	999
86	130
95	30
97	20
99	90
110	10
112	10
113	30
128	10
