Mass Spectrum: Butanamide, 4-cyano-N-methyl-
Formula: C6H10N2O
CAS: 53907-65-6
Molecular weight: 126
m/z	intensity
12	8
14	21
15	443
16	23
17	91
26	59
27	256
29	56
30	427
31	240
37	9
38	22
39	143
40	64
41	999
42	259
43	64
44	64
45	67
51	9
52	31
53	10
54	54
55	25
56	35
57	14
58	594
59	46
64	11
66	28
67	15
68	286
69	54
70	47
71	11
72	13
73	532
74	20
82	8
85	22
86	94
96	118
97	27
98	24
109	25
126	56
127	32
