Mass Spectrum: 2-Heptanamine, 5-methyl-
Formula: C8H19N
CAS: 53907-81-6
Molecular weight: 129
m/z	intensity
15	18
16	1
17	3
26	3
27	56
28	35
29	77
30	45
31	0
39	28
40	4
41	74
42	56
43	71
44	999
45	33
50	18
53	7
54	3
55	68
56	21
57	17
58	14
59	4
67	2
68	1
69	11
70	17
71	4
72	1
77	1
78	7
79	1
83	6
84	1
97	8
98	1
114	21
115	1
128	4
129	3
