Mass Spectrum: 4-Chloro-1,3-[3H]-oxazine-2,6-dione
Formula: C4H2ClNO3
CAS: 53907-41-8
Molecular weight: 147
m/z	intensity
41	34
42	14
43	17
44	110
45	33
47	36
48	32
49	14
50	13
51	7
52	4
53	3
54	5
55	1
56	1
57	0
59	6
60	49
62	85
64	20
65	1
67	8
68	999
70	3
73	4
74	30
75	9
76	12
77	1
78	1
82	1
84	4
85	0
86	1
87	5
89	2
91	0
94	1
96	1
97	0
102	14
103	122
105	44
106	1
108	0
111	2
113	2
114	1
130	2
132	1
145	6
146	2
147	156
148	8
149	51
150	2
