Mass Spectrum: 1-Butyne, 3-methyl-3-propoxy-
Formula: C8H14O
CAS: 53907-64-5
Molecular weight: 126
m/z	intensity
39	312
41	404
43	387
51	120
52	70
53	75
55	20
57	47
59	37
63	21
65	80
67	832
69	999
77	3
79	5
81	27
83	17
95	5
97	18
111	525
112	42
125	1
