Mass Spectrum: 2-Pentenal, 2,4,4-trimethyl-
Formula: C8H14O
CAS: 53907-61-2
Molecular weight: 126
m/z	intensity
26	31
27	454
28	57
29	635
30	14
38	47
39	572
40	88
41	979
42	85
43	736
44	24
45	21
50	32
51	66
52	24
53	167
54	31
55	924
56	101
57	999
58	54
59	32
63	18
64	3
65	37
66	20
67	158
68	35
69	130
70	60
71	33
72	167
77	70
78	11
79	30
80	6
81	46
82	10
83	198
84	35
85	48
91	36
92	4
93	117
94	11
95	27
96	19
97	241
98	22
109	16
110	5
111	635
112	50
125	19
126	128
