Mass Spectrum: 1-Cyclohepten-1-amine, 5-methyl-
Formula: C8H15N
CAS: 53907-56-5
Molecular weight: 125
m/z	intensity
27	60
28	110
29	40
30	50
31	40
39	70
40	20
41	80
42	150
43	30
44	20
51	10
53	30
54	20
55	20
56	40
57	999
58	50
59	20
67	50
68	20
69	10
70	50
74	20
77	40
78	10
79	50
80	30
81	20
82	30
91	30
93	70
94	20
95	10
96	190
108	60
109	10
110	120
124	10
125	30
