Mass Spectrum: D-Glucitol, 1,4-anhydro-, tetraacetate
Formula: C14H20O9
CAS: 53905-78-5
Molecular weight: 332
m/z	intensity
41	20
42	20
43	999
44	13
45	12
47	5
48	2
52	1
53	3
54	2
55	17
56	6
57	15
58	3
59	1
60	5
61	11
62	0
63	1
64	0
65	3
66	0
67	2
68	55
69	76
70	7
71	11
72	2
73	30
74	4
75	0
77	4
78	2
79	0
80	0
81	9
82	10
83	6
84	18
85	130
86	34
87	4
88	2
89	0
91	13
92	2
93	4
94	0
95	1
96	0
97	30
98	10
99	19
100	2
101	2
102	4
103	30
104	1
105	9
106	2
107	0
109	7
110	106
111	71
112	6
113	5
114	3
115	166
116	17
117	2
119	19
120	1
122	1
124	1
127	74
128	31
129	5
130	0
135	0
136	1
139	7
140	1
141	2
144	0
145	32
146	2
152	13
153	57
154	5
155	0
157	51
158	7
159	1
169	5
170	67
171	10
172	0
175	3
187	115
188	10
189	1
199	2
212	31
213	3
217	5
229	0
230	0
259	4
272	3
273	2
332	0
