Mass Spectrum: 1,4-Dioxane, 2-ethyl-5-methyl-
Formula: C7H14O2
CAS: 53907-91-8
Molecular weight: 130
m/z	intensity
12	1
13	2
14	14
15	89
16	3
17	1
18	2
19	2
26	32
27	228
28	135
29	273
30	32
31	89
32	2
33	1
37	4
38	10
39	129
40	22
41	170
42	100
43	999
44	34
45	17
46	1
47	1
49	1
50	11
51	11
52	5
53	28
54	10
55	191
56	18
57	274
58	30
59	100
60	4
61	2
62	1
63	1
64	1
65	3
66	2
67	19
68	3
69	14
70	33
71	350
72	119
73	74
74	3
75	1
77	1
78	1
79	1
80	1
81	4
82	6
83	73
84	7
85	59
86	5
87	2
88	1
89	2
90	1
91	1
95	1
96	1
97	1
98	1
99	4
100	67
101	455
102	26
103	3
104	1
105	1
113	1
114	1
115	40
116	3
129	3
130	1
131	1
