Mass Spectrum: Cyclobutanone, 2,3,3,4-tetramethyl-
Formula: C8H14O
CAS: 53907-62-3
Molecular weight: 126
m/z	intensity
42	190
55	580
56	110
57	50
70	999
71	60
83	50
98	30
111	20
126	110
127	10
