Mass Spectrum: 1-Butyne, 3-methyl-3-(1-methylethoxy)-
Formula: C8H14O
CAS: 53907-63-4
Molecular weight: 126
m/z	intensity
39	296
41	355
43	406
51	113
52	43
53	77
55	15
57	3
59	60
63	22
65	78
67	895
69	999
81	3
83	13
95	2
97	3
111	363
112	29
125	0
