Mass Spectrum: Formamide, N-(3-methyl-5-isoxazolyl)-
Formula: C5H6N2O2
CAS: 53907-67-8
Molecular weight: 126
m/z	intensity
42	240
43	999
44	40
52	180
53	120
54	160
55	640
56	100
57	10
66	270
67	220
68	110
69	110
70	10
83	90
97	70
98	500
99	40
126	220
127	20
