Mass Spectrum: 8-Thiabicyclo[5.1.0]octane
Formula: C7H12S
CAS: 53907-79-2
Molecular weight: 128
m/z	intensity
39	360
40	130
41	350
45	180
53	190
54	450
55	320
56	20
66	230
67	660
68	320
69	20
73	130
77	110
79	360
80	100
81	340
82	20
95	999
96	300
128	520
129	40
130	20
