Mass Spectrum: 4-Bromo-1,3-[3H]-oxazine-2,6-dione
Formula: C4H2BrNO3
CAS: 53907-40-7
Molecular weight: 191
m/z	intensity
41	37
42	9
43	18
44	87
45	21
47	2
49	9
50	3
51	10
52	5
53	7
54	4
55	1
56	0
57	0
58	1
59	5
60	4
63	0
68	999
70	3
71	0
73	1
75	0
77	0
79	101
81	113
82	13
84	6
86	4
87	0
88	1
89	0
91	19
92	13
93	14
94	14
95	0
97	1
103	2
104	29
106	51
108	18
109	1
111	0
113	1
115	0
117	2
118	12
120	14
121	2
122	2
124	0
131	1
133	2
134	0
135	0
139	1
141	0
147	18
149	22
150	1
151	0
162	0
163	0
174	1
176	2
188	0
189	0
190	1
191	97
192	5
193	95
194	4
