Mass Spectrum: Oxirane, (1,1-dimethylbutyl)-
Formula: C8H16O
CAS: 53907-76-9
Molecular weight: 128
m/z	intensity
41	562
42	65
43	353
44	23
45	11
50	18
51	27
52	23
53	116
54	41
55	674
56	313
57	116
58	18
59	9
63	9
65	11
66	9
67	46
68	51
69	999
70	255
71	69
72	11
77	11
79	11
81	27
82	7
83	127
84	27
85	197
86	27
95	41
96	7
97	41
98	227
99	46
110	7
113	18
128	4
