Mass Spectrum: 2-Imidazolidinone, 1,3-diacetyl-
Formula: C7H10N2O3
CAS: 5391-40-2
Molecular weight: 170
m/z	intensity
15	252
26	11
27	38
29	28
30	112
31	3
38	3
39	5
40	21
41	31
42	174
43	999
44	36
45	3
53	3
54	7
56	77
57	18
58	23
59	31
68	4
69	3
70	25
72	90
73	8
85	442
86	623
87	76
99	24
100	33
128	225
129	88
142	488
143	38
170	196
171	15
