Mass Spectrum: 1,3-Dibenzoylimidazolidin-2-one
Formula: C17H14N2O3
CAS: 5391-42-4
Molecular weight: 294
m/z	intensity
50	16
51	107
52	2
56	4
70	8
75	4
76	17
77	526
78	34
85	15
86	7
103	1
104	5
105	999
106	74
107	2
147	9
162	1
189	91
190	28
266	16
267	8
294	135
295	25
