Mass Spectrum: Furan, 2-(1,2-dimethoxyethyl)-
Formula: C8H12O3
CAS: 53914-27-5
Molecular weight: 156
m/z	intensity
29	120
30	20
31	70
39	145
40	30
41	35
43	65
45	210
51	35
52	30
53	90
55	90
59	20
65	70
66	30
68	35
81	115
94	90
95	140
96	120
109	20
111	999
112	300
113	20
124	70
125	55
156	275
157	25
