Mass Spectrum: 1H-Inden-1-one, 2,3,3a,4,7,7a-hexahydro-, cis-
Formula: C9H12O
CAS: 53921-54-3
Molecular weight: 136
m/z	intensity
41	260
42	70
43	30
44	50
45	10
49	10
50	100
51	240
52	140
53	180
54	200
55	120
56	30
57	50
58	70
61	10
62	20
63	60
64	10
65	140
66	180
67	180
68	20
74	20
75	10
76	10
77	360
78	200
79	999
80	400
81	100
82	30
83	10
91	320
92	580
93	180
94	70
95	60
103	20
104	10
105	50
106	50
107	130
108	90
109	10
117	170
118	230
119	30
121	130
134	10
135	90
136	660
137	70
