Mass Spectrum: N,N-Diethylaminoethyl bromide hydrobromide
Formula: C6H14BrN
CAS: 5392-81-4
Molecular weight: 179
m/z	intensity
14	3
15	34
26	23
27	204
28	147
29	173
30	160
31	2
36	3
37	1
38	2
39	9
40	9
41	42
42	182
43	30
44	411
45	9
49	1
51	1
52	4
53	2
54	22
55	18
56	125
57	46
58	140
59	7
63	1
68	6
69	5
70	44
71	35
72	189
73	9
79	32
80	98
81	32
82	95
83	1
84	23
85	11
86	999
87	61
88	2
92	1
93	6
95	6
98	9
99	11
100	649
101	49
102	3
105	1
107	78
108	16
109	66
110	15
116	1
117	1
120	1
122	9
124	7
134	2
135	1
136	49
137	2
138	49
139	1
148	1
149	2
150	8
152	6
164	117
165	7
166	109
167	7
178	10
179	108
180	18
181	104
182	9
