Mass Spectrum: Cadion
Formula: C18H14N6O2
CAS: 5392-67-6
Molecular weight: 346
m/z	intensity
26	9
27	24
28	198
29	9
30	51
37	12
38	32
39	111
40	13
41	39
42	11
43	33
44	18
50	96
51	195
52	66
53	27
54	15
55	14
56	8
57	12
61	9
62	24
63	89
64	99
65	339
66	56
67	10
69	9
71	8
74	21
75	90
76	187
77	999
78	96
79	23
80	33
81	9
83	8
85	12
89	12
90	23
91	122
92	638
93	122
94	9
102	10
103	9
104	46
105	344
106	50
107	12
108	76
109	9
115	26
116	7
117	9
118	8
119	7
120	151
121	16
122	341
123	38
127	14
128	13
129	7
138	205
139	49
140	23
141	33
150	291
151	39
152	49
153	24
154	17
155	9
165	9
166	64
167	193
168	87
169	26
179	9
180	10
181	339
182	125
183	54
184	16
194	9
195	12
196	166
197	303
198	47
202	8
207	26
209	118
210	19
213	105
214	33
241	21
242	8
272	10
273	31
274	7
286	13
288	34
289	9
302	8
318	103
319	23
346	67
347	14
