Mass Spectrum: Mycotox
Formula: C8H5Cl3O2
CAS: 5393-75-9
Molecular weight: 238
m/z	intensity
36	3
37	14
38	14
41	0
42	11
43	999
44	66
45	1
46	4
48	5
49	5
50	11
51	5
52	4
53	9
54	1
56	9
58	2
59	2
60	8
61	35
62	43
63	13
64	1
66	4
69	0
70	2
72	24
73	14
74	31
75	6
77	3
79	0
81	3
83	10
84	6
85	11
86	3
87	1
89	4
93	1
94	1
95	1
96	23
97	91
98	17
99	34
100	1
106	2
107	36
108	9
109	37
110	3
111	7
113	0
119	4
121	1
127	2
131	5
132	30
133	20
134	15
135	12
136	2
137	0
143	4
145	2
148	2
150	1
155	0
160	7
161	1
162	6
163	3
164	5
167	33
168	7
169	21
170	0
171	14
179	4
181	4
191	1
194	0
195	7
196	536
197	30
198	499
199	37
200	172
201	8
202	32
219	0
238	53
239	5
240	41
241	3
242	11
