Mass Spectrum: N-.alpha.,N-.omega.-Di-cbz-L-arginine
Formula: C22H26N4O6
CAS: 53934-75-1
Molecular weight: 442
m/z	intensity
12	6
14	2
15	4
16	21
17	5
18	18
25	2
26	25
27	80
28	213
29	46
30	18
31	31
32	8
37	20
38	34
39	133
40	16
41	32
42	27
43	43
44	487
45	5
46	3
49	11
50	104
51	222
52	70
53	53
54	17
55	15
56	14
57	6
58	8
60	3
61	17
62	24
63	60
64	16
65	94
66	10
67	7
68	9
69	33
70	18
71	3
72	2
73	9
74	29
75	17
76	16
77	524
78	134
79	999
80	107
81	9
82	8
83	6
84	6
85	9
86	8
87	3
88	2
89	68
90	92
91	289
92	46
93	4
94	3
95	7
96	4
97	13
98	4
99	14
103	3
104	2
105	76
106	51
107	647
108	907
109	71
110	9
111	4
112	7
113	9
124	2
129	2
133	2
135	2
136	2
137	3
138	2
139	3
140	7
141	15
142	2
151	2
152	5
165	2
180	2
182	3
248	4
