Mass Spectrum: Decanoic acid, 2-hydroxy-
Formula: C10H20O3
CAS: 5393-81-7
Molecular weight: 188
m/z	intensity
26	14
27	338
28	69
29	432
30	15
31	60
32	4
38	6
39	228
40	46
41	648
42	262
43	618
44	111
45	98
46	4
47	55
48	2
49	1
50	5
51	14
52	7
53	67
54	50
55	381
56	148
57	211
58	38
59	14
60	106
61	20
62	3
63	3
64	2
65	13
66	9
67	84
68	44
69	275
70	49
71	525
72	27
73	26
74	3
75	1
77	10
78	4
79	18
80	5
81	66
82	33
83	40
84	76
85	27
86	14
87	45
88	40
89	999
90	42
91	12
92	2
93	5
94	4
95	23
96	35
97	16
98	17
99	17
100	21
101	12
102	10
103	2
104	5
105	2
107	3
108	12
109	17
110	66
111	55
112	6
113	10
114	19
115	6
116	2
117	1
119	2
121	1
123	16
124	6
125	1
126	5
127	23
128	12
129	23
130	5
131	1
133	3
134	9
135	4
137	5
141	5
142	5
143	1
151	1
152	39
153	6
154	1
155	1
169	2
170	27
171	4
