Mass Spectrum: Benzenamine, N,N'-(1,2-dimethyl-1,2-ethanediylidene)bis-
Formula: C16H16N2
CAS: 5393-49-7
Molecular weight: 236
m/z	intensity
26	14
28	10
29	1
36	4
37	2
38	5
39	22
40	3
41	8
42	9
43	1
44	2
50	33
51	206
52	15
53	2
55	1
57	1
58	1
59	1
62	2
63	8
64	5
65	7
66	3
74	5
75	8
76	22
77	578
78	41
79	2
89	2
90	2
91	8
92	2
93	4
102	1
103	6
104	5
115	1
116	1
117	14
118	999
119	91
120	5
130	1
132	1
142	1
143	2
144	2
152	1
180	4
193	1
194	2
195	1
233	1
234	7
235	66
236	188
237	32
238	3
