Mass Spectrum: 2,4-Imidazolidinedione, 5-ethyl-5-methyl-
Formula: C6H10N2O2
CAS: 5394-36-5
Molecular weight: 142
m/z	intensity
14	2
15	65
16	8
17	0
18	3
25	3
26	27
27	116
28	125
29	19
30	5
37	4
38	13
39	74
40	48
41	120
42	999
43	80
44	30
50	9
51	14
52	13
53	20
54	32
55	40
56	167
57	5
68	4
69	6
70	62
71	36
84	7
85	4
98	2
113	735
114	186
115	10
127	20
142	5
