Mass Spectrum: 1-Pentyne, 3-ethyl-3-methoxy-
Formula: C8H14O
CAS: 53941-20-1
Molecular weight: 126
m/z	intensity
39	183
41	139
43	107
51	54
52	29
53	141
55	65
57	44
59	15
63	30
65	79
67	71
69	21
77	34
79	30
81	18
83	47
91	8
95	43
97	999
111	7
125	1
126	0
