Mass Spectrum: 1,3-Cyclobutanedione, 2,4-bis(1-methylethylidene)-
Formula: C10H12O2
CAS: 53942-65-7
Molecular weight: 164
m/z	intensity
23	0
26	29
27	271
28	42
29	59
30	1
31	1
36	1
37	20
38	60
39	428
40	18
41	125
42	9
43	30
44	1
45	3
46	1
47	0
48	0
49	11
50	79
51	135
52	59
53	186
54	61
55	153
56	7
57	1
58	2
59	6
60	2
61	7
62	16
63	31
64	10
65	66
66	65
67	999
68	51
69	15
70	2
72	0
73	2
74	12
75	8
76	5
77	197
78	35
79	79
80	24
81	33
82	242
83	692
84	38
85	3
86	4
87	3
88	0
89	6
90	3
91	222
92	28
93	819
94	72
95	14
96	11
97	1
98	2
99	0
100	0
101	0
102	1
103	16
104	2
105	21
106	5
107	115
108	263
109	28
110	2
111	0
115	3
116	1
117	18
118	5
119	11
120	2
121	134
122	14
123	2
124	1
127	0
128	0
129	0
131	0
133	0
134	0
135	35
136	293
137	32
138	1
139	0
141	0
145	0
146	0
147	2
148	1
149	25
150	3
157	0
159	0
161	0
162	0
163	2
164	663
165	73
166	7
