Mass Spectrum: 2H-Cyclopenta[b]thiophene, hexahydro-, trans-
Formula: C7H12S
CAS: 53956-12-0
Molecular weight: 128
m/z	intensity
24	1
25	5
26	94
27	604
28	127
29	142
30	3
31	1
32	12
33	11
34	12
35	13
36	1
37	21
38	67
39	685
40	97
41	561
42	41
43	13
44	10
45	567
46	107
47	164
48	10
49	12
50	44
51	92
52	41
53	251
54	159
55	104
56	7
57	18
58	120
59	127
60	85
61	84
62	24
63	32
64	6
65	149
66	153
67	999
68	125
69	36
70	10
71	136
72	75
73	57
74	30
75	6
76	4
77	107
78	24
79	664
80	163
81	663
82	126
83	12
84	19
85	300
86	110
87	71
88	8
89	4
90	1
91	45
92	6
93	102
94	637
95	192
96	13
97	42
98	7
99	530
100	293
101	40
102	13
103	1
104	1
105	1
106	1
107	1
108	1
109	1
110	2
111	4
112	1
113	31
114	2
115	2
125	3
126	2
127	48
128	695
129	65
130	33
131	3
