Mass Spectrum: 3-Ethyl-1-heptyne-3-ol
Formula: C9H16O
CAS: 5396-61-2
Molecular weight: 140
m/z	intensity
13	4
15	25
18	2
25	7
26	46
27	301
28	59
29	334
30	8
31	22
37	3
38	21
39	240
40	43
41	221
42	41
43	354
44	12
45	14
49	1
50	23
51	67
52	22
53	166
54	40
55	369
56	28
57	135
58	6
59	16
60	1
61	2
62	9
63	20
64	10
65	40
66	10
67	41
68	38
69	144
70	10
71	7
72	10
73	1
74	1
75	1
77	129
78	17
79	47
80	18
81	54
83	999
84	65
85	22
86	1
89	1
91	104
92	9
93	26
94	4
95	8
96	3
97	7
98	44
99	2
105	2
107	11
108	1
109	3
111	553
112	45
113	2
114	5
115	1
122	2
125	1
139	1
