Mass Spectrum: 2H-Pyran, 2-[(6-bromohexyl)oxy]tetrahydro-
Formula: C11H21BrO2
CAS: 53963-10-3
Molecular weight: 264
m/z	intensity
26	13
27	149
28	74
29	193
30	4
31	55
34	0
37	1
38	2
39	89
40	21
41	435
42	46
43	111
44	20
45	8
47	5
50	2
51	4
52	3
53	27
54	24
55	390
56	263
57	112
58	5
59	8
60	0
63	0
65	4
66	2
67	102
68	6
69	12
70	4
71	5
72	0
73	1
74	6
77	1
79	3
80	1
81	14
82	15
83	288
84	83
85	999
86	60
87	4
91	0
93	3
95	2
97	0
98	0
99	1
100	1
101	47
102	4
103	3
106	0
107	9
109	8
110	0
115	24
116	2
119	1
120	0
121	12
123	9
127	1
129	0
134	2
135	2
136	2
137	2
155	2
162	10
163	22
164	11
165	19
166	1
185	1
191	5
193	5
194	0
201	1
206	1
208	2
209	1
211	2
236	0
238	1
263	17
264	2
265	18
266	2
