Mass Spectrum: 1-Pentyne, 3-methyl-3-(1-methylethoxy)-
Formula: C9H16O
CAS: 53966-55-5
Molecular weight: 140
m/z	intensity
39	174
41	194
43	319
51	73
52	64
53	142
55	53
57	21
59	4
63	15
65	33
67	26
69	999
77	27
79	74
81	205
83	190
97	5
111	367
112	29
125	36
126	4
139	0
