Mass Spectrum: 1H-Imidazole-4-ethanamine, 1,5-dimethyl-
Formula: C7H13N3
CAS: 53966-45-3
Molecular weight: 139
m/z	intensity
28	220
29	30
30	280
39	70
41	130
42	300
44	30
52	50
53	70
54	100
55	130
56	340
57	30
66	40
67	50
68	250
69	70
80	40
81	40
82	80
94	40
95	649
96	70
97	30
108	50
109	759
110	999
111	150
121	40
122	30
123	30
138	40
139	120
140	20
