Mass Spectrum: 1-Pentyne, 3-ethoxy-3-ethyl-
Formula: C9H16O
CAS: 53966-56-6
Molecular weight: 140
m/z	intensity
39	258
41	108
43	208
51	72
52	27
53	195
55	262
57	86
59	2
63	39
65	74
67	84
69	26
77	43
79	46
81	33
83	999
91	12
95	75
97	27
111	923
112	73
125	3
