Mass Spectrum: 2-Methyl-6-propylpyridine
Formula: C9H13N
CAS: 5397-28-4
Molecular weight: 135
m/z	intensity
41	67
42	34
43	23
44	54
45	17
46	3
47	0
49	2
50	19
51	45
52	29
53	33
54	13
55	12
56	5
57	10
59	11
60	13
61	4
62	9
63	32
64	24
65	107
66	86
67	19
68	6
69	7
70	3
71	4
73	6
74	2
75	3
76	4
77	81
78	26
79	47
80	11
81	5
82	3
83	4
84	3
85	3
86	1
87	2
88	1
89	5
90	4
91	20
92	57
93	71
94	14
95	3
96	4
97	3
98	2
99	1
101	0
102	2
103	2
104	7
105	5
106	75
107	999
108	79
109	4
110	1
111	1
112	0
113	0
115	2
116	1
117	14
118	12
119	6
120	226
121	21
122	3
123	1
124	1
125	1
129	2
130	5
131	4
132	15
133	5
134	116
135	49
136	5
137	1
138	0
