Mass Spectrum: Propanedioic acid, hexyl-, diethyl ester
Formula: C13H24O4
CAS: 5398-10-7
Molecular weight: 244
m/z	intensity
17	24
18	14
21	11
25	17
26	133
27	508
28	566
29	999
30	59
31	353
36	14
37	8
38	28
39	139
40	56
41	348
42	140
43	212
44	318
45	234
46	60
47	12
50	11
51	28
52	10
53	66
54	53
55	412
56	86
57	58
58	40
59	22
60	39
61	17
62	20
63	31
64	13
65	21
66	9
67	116
68	51
69	72
70	43
71	20
72	8
73	219
74	23
77	29
79	21
80	19
81	60
82	79
83	98
84	55
85	22
86	89
87	70
88	150
89	17
90	8
91	19
93	9
95	31
96	76
97	98
98	58
99	108
100	11
101	155
102	16
104	49
105	37
106	8
107	25
108	9
109	27
110	57
111	15
112	7
113	15
114	86
115	66
116	9
123	24
124	36
125	81
126	14
127	83
128	26
129	43
132	119
133	176
134	9
137	17
141	15
142	12
143	31
145	14
151	11
152	37
153	30
156	24
157	7
160	738
161	53
169	9
170	15
171	29
173	154
174	14
199	165
