Mass Spectrum: Methyl 2,3-di-O-methyl-.beta.-L-arabinopyranoside
Formula: C8H16O5
CAS: 53989-92-7
Molecular weight: 192
m/z	intensity
45	518
57	61
59	79
61	65
69	132
71	79
72	32
73	441
74	452
75	897
85	231
87	353
88	999
99	43
100	43
101	275
105	4
114	65
129	121
130	41
161	198
162	10
