Mass Spectrum: 1,3-Propanedione, 1,3-diphenyl-2-(phenylmethylene)-
Formula: C22H16O2
CAS: 5398-64-1
Molecular weight: 312
m/z	intensity
51	224
77	830
78	74
102	54
105	999
106	97
167	32
178	94
179	52
191	142
206	42
207	174
208	44
283	52
284	132
285	44
311	74
312	244
313	67
