Mass Spectrum: Cyclopropane, 1,1-dibromo-2-butyl-
Formula: C7H12Br2
CAS: 5398-70-9
Molecular weight: 254
m/z	intensity
37	7
38	37
39	302
40	69
41	514
42	683
43	96
44	7
45	2
49	0
50	25
51	77
52	35
53	201
54	59
55	642
56	42
57	82
58	3
61	1
62	5
63	9
65	56
66	35
67	105
68	61
69	209
70	378
71	20
73	0
77	15
79	24
80	10
81	10
82	6
83	21
91	7
92	1
93	23
95	999
96	75
97	3
104	0
105	19
106	0
107	21
109	2
117	10
118	2
119	30
120	3
121	21
122	0
131	15
132	17
133	33
134	14
135	14
147	2
148	8
149	1
150	8
173	2
174	3
175	0
176	1
184	16
185	0
186	36
187	1
188	15
189	0
197	4
198	1
199	8
200	4
201	4
213	1
