Mass Spectrum: 6-Azauridine
Formula: C8H11N3O6
CAS: 54-25-1
Molecular weight: 245
m/z	intensity
13	1
14	5
15	30
16	2
17	7
18	28
26	6
27	47
28	174
29	94
30	33
31	141
32	6
38	2
39	15
40	29
41	56
42	86
43	132
44	84
45	80
46	9
47	10
49	2
51	1
52	2
53	4
54	13
55	113
56	51
57	337
58	92
59	22
60	102
61	66
62	3
67	2
68	84
69	92
70	61
71	136
72	14
73	999
74	87
75	32
76	2
77	1
81	2
82	3
83	68
84	133
85	109
86	149
87	21
88	8
89	6
91	1
95	4
96	21
97	52
98	8
99	34
100	13
101	33
102	8
103	9
104	83
105	4
108	1
109	2
110	1
111	27
112	30
113	50
114	439
115	75
116	8
117	4
118	1
120	1
124	2
125	14
126	61
127	6
128	3
129	3
130	1
131	53
132	89
133	84
134	5
135	1
138	18
139	18
140	18
141	2
142	207
143	36
144	5
145	2
149	1
152	2
153	2
154	45
155	33
156	89
157	9
158	1
159	1
166	3
167	3
168	83
169	8
170	2
171	1
172	104
173	7
174	1
180	9
181	1
182	1
184	18
185	2
186	2
196	109
197	13
198	6
200	1
202	1
209	1
210	7
214	60
215	13
216	1
227	20
228	2
245	1
246	1
