Mass Spectrum: Moxisylyte
Formula: C16H25NO3
CAS: 54-32-0
Molecular weight: 279
m/z	intensity
15	3
18	1
27	3
28	5
29	5
30	8
39	5
40	2
41	8
42	49
43	94
44	29
45	5
46	1
50	1
51	3
52	2
53	6
54	2
55	5
56	27
57	19
58	999
59	39
60	1
63	1
64	1
65	5
66	2
67	5
68	2
69	3
70	24
71	26
72	256
73	13
74	1
76	1
77	14
78	3
79	8
80	1
81	2
89	1
91	14
92	2
93	3
94	1
95	2
96	1
102	1
103	4
104	1
105	5
106	1
107	6
108	2
109	2
110	1
115	4
116	1
117	2
118	1
119	2
120	1
121	12
122	3
123	3
124	1
125	1
128	1
129	1
131	2
132	2
133	3
134	2
135	3
136	1
137	5
138	1
145	1
147	3
148	1
149	7
150	5
151	7
152	1
161	2
162	1
163	3
164	5
165	5
166	2
177	4
178	1
179	1
192	8
193	1
205	1
234	28
235	4
236	1
279	24
280	4
