Mass Spectrum: Metaraminol
Formula: C9H13NO2
CAS: 54-49-9
Molecular weight: 167
m/z	intensity
42	47
43	15
44	999
45	19
50	18
51	56
52	12
53	15
54	7
55	123
56	8
63	37
64	12
65	97
66	41
68	13
69	23
74	6
75	9
77	173
78	29
80	1
89	3
93	40
94	21
95	71
96	7
105	9
107	13
116	4
119	2
121	35
123	11
134	10
148	3
167	7
