Mass Spectrum: Isoniazid
Formula: C6H7N3O
CAS: 54-85-3
Molecular weight: 137
m/z	intensity
16	3
17	3
18	20
25	4
26	18
27	12
28	43
29	19
30	12
31	85
32	14
36	2
37	11
38	14
39	14
40	4
41	3
42	1
43	2
44	3
48	2
49	17
50	143
51	520
52	77
53	12
54	2
57	1
61	1
62	3
63	2
64	5
65	3
66	3
67	1
74	1
75	9
76	13
77	13
78	987
79	159
80	9
81	1
82	1
93	1
104	7
105	2
106	999
107	110
108	7
120	1
122	5
123	1
136	1
137	581
138	45
139	2
