Mass Spectrum: Pipobroman
Formula: C10H16Br2N2O2
CAS: 54-91-1
Molecular weight: 354
m/z	intensity
39	7
40	9
41	52
42	210
43	144
44	190
45	17
53	10
54	65
55	388
56	835
57	153
58	102
60	1
62	2
63	12
65	4
67	5
68	53
69	752
70	112
71	21
72	5
73	5
79	13
80	18
81	23
82	29
83	43
84	55
85	999
86	71
87	15
91	5
92	1
93	12
94	2
95	12
96	8
97	8
98	85
99	14
105	7
106	9
107	561
108	20
109	525
110	21
111	10
112	142
113	190
114	32
115	1
117	1
119	1
121	7
123	61
124	14
127	8
133	8
135	153
136	7
137	126
138	5
139	12
141	38
142	4
149	17
150	13
152	7
154	7
162	4
164	16
165	9
166	18
167	15
168	8
176	4
177	62
178	90
179	66
180	83
181	4
190	13
191	9
192	17
193	9
194	8
195	16
202	5
203	186
204	25
205	181
206	26
207	17
218	2
219	89
220	23
221	95
222	23
223	16
232	2
233	1
247	163
248	16
249	151
250	16
263	4
275	220
276	22
277	215
278	26
279	2
286	1
288	3
339	36
340	2
341	74
342	7
343	35
354	18
355	2
356	35
357	5
358	17
359	1
