Mass Spectrum: 3,4-Pyridinediamine
Formula: C5H7N3
CAS: 54-96-6
Molecular weight: 109
m/z	intensity
41	48
42	22
43	16
44	87
45	10
46	3
48	1
49	3
50	3
51	22
52	100
53	52
54	134
55	87
56	32
57	8
58	3
59	4
60	1
61	1
62	2
63	6
64	20
65	38
66	21
67	17
68	12
69	28
70	3
71	3
73	1
74	0
75	1
76	3
77	9
78	11
79	6
80	9
81	125
82	126
83	11
84	7
85	2
89	4
90	1
91	6
92	13
93	14
94	6
103	0
105	2
106	6
107	4
108	47
109	999
110	132
111	7
112	1
