Mass Spectrum: 1,1,1-Trifluoro-3-iodobutane
Formula: C4H6F3I
CAS: 540-87-4
Molecular weight: 238
m/z	intensity
33	35
37	41
39	514
41	425
42	40
44	11
45	26
47	997
48	29
51	208
52	5
57	35
59	91
60	9
61	22
64	145
65	109
66	2
69	166
71	276
72	11
73	1
75	29
77	88
78	2
82	6
83	9
85	1
89	86
91	915
92	51
93	1
95	26
96	2
109	15
111	999
112	65
113	1
127	341
128	65
129	2
139	2
140	2
141	8
142	1
146	1
152	2
153	5
155	147
156	2
159	6
167	1
169	1
173	6
177	4
191	1
203	3
219	2
223	2
238	510
239	19
