Mass Spectrum: .psi.,.psi.-Carotene, 7,7',8,8',11,11',12,12'-octahydro-
Formula: C40H64
CAS: 540-04-5
Molecular weight: 544
m/z	intensity
40	120
41	580
42	320
44	300
45	40
49	20
50	20
51	30
52	30
53	70
54	60
55	470
56	170
57	420
58	50
59	60
60	70
61	30
64	20
65	30
66	30
67	180
68	110
69	999
70	200
71	240
72	70
73	50
74	70
76	30
77	80
78	40
79	110
80	70
81	600
82	170
83	260
84	120
85	170
86	40
87	70
88	20
90	30
91	110
92	60
93	60
94	60
95	280
96	90
97	230
98	90
99	80
100	30
101	30
102	20
104	30
105	150
106	40
107	150
108	80
109	220
110	90
111	130
112	100
113	80
114	20
115	60
116	30
117	30
118	20
119	160
120	230
121	180
122	60
123	140
124	60
125	90
126	60
127	80
128	70
129	60
130	20
131	40
132	20
133	70
134	110
135	130
136	70
137	170
138	50
139	40
140	30
141	400
142	110
143	60
144	30
145	50
146	30
147	140
148	60
149	320
150	60
151	70
152	60
153	60
154	60
155	160
156	70
157	40
159	40
160	40
161	80
162	20
163	40
164	20
165	70
166	30
167	100
168	60
169	90
170	50
171	70
172	30
173	30
175	60
176	20
177	60
178	30
179	30
181	40
182	30
183	50
184	20
185	70
186	20
187	40
188	30
189	70
190	20
191	50
192	20
193	20
194	30
195	20
196	20
197	30
198	30
199	30
201	30
202	20
203	50
204	30
205	70
206	30
207	30
208	20
209	20
210	60
211	60
212	20
213	50
214	20
215	40
216	20
217	60
218	50
219	110
220	50
221	20
223	30
224	20
225	30
226	30
228	20
229	30
231	20
235	20
236	30
237	30
238	40
239	30
240	20
243	30
244	20
247	40
248	20
249	20
250	30
251	30
252	40
253	30
254	20
255	20
256	50
257	40
258	40
259	20
260	20
261	20
262	20
263	30
264	60
265	50
266	30
267	20
268	20
269	20
270	40
271	50
272	30
279	60
280	30
281	50
282	20
283	30
284	50
285	30
295	30
296	20
297	30
298	20
309	20
315	30
324	120
325	40
337	30
338	40
339	250
340	120
341	40
350	20
352	20
353	100
354	50
355	20
356	30
358	140
359	50
360	20
364	20
365	20
366	20
367	30
373	90
374	30
375	30
393	20
394	20
407	40
408	30
419	20
421	20
433	20
434	20
435	20
475	30
476	30
477	20
542	50
543	50
544	690
545	360
546	110
547	30
