Mass Spectrum: Pentane, 2,2,4-trimethyl-
Formula: C8H18
CAS: 540-84-1
Molecular weight: 114
m/z	intensity
15	5
26	2
27	52
28	4
29	84
30	2
38	3
39	55
40	10
41	212
42	12
43	184
44	6
50	2
51	5
52	1
53	9
54	2
55	33
56	333
57	999
58	44
63	1
65	2
67	4
68	1
69	5
70	3
71	9
77	1
79	1
83	8
84	1
98	2
99	60
100	5
