Mass Spectrum: n-Propyl chloride
Formula: C3H7Cl
CAS: 540-54-5
Molecular weight: 78
m/z	intensity
14	2
15	12
25	3
26	38
27	318
28	78
29	405
30	9
35	4
36	11
37	22
38	30
39	113
40	30
41	231
42	999
43	136
44	4
47	4
48	5
49	41
50	5
51	12
60	2
61	8
62	7
63	46
64	3
65	13
73	3
75	4
77	3
78	26
79	1
80	8
