Mass Spectrum: Cyclopenta[c]thiopyran, octahydro-, trans-
Formula: C8H14S
CAS: 54004-37-4
Molecular weight: 142
m/z	intensity
24	1
25	1
26	14
27	157
28	46
29	76
30	2
32	6
33	3
34	6
35	7
36	1
37	4
38	13
39	218
40	36
41	243
42	19
43	10
44	9
45	162
46	56
47	86
48	6
49	5
50	14
51	38
52	20
53	124
54	77
55	146
56	9
57	11
58	27
59	54
60	54
61	111
62	11
63	17
64	3
65	59
66	39
67	431
68	70
69	15
70	4
71	25
72	11
73	37
74	12
75	11
76	7
77	77
78	31
79	261
80	126
81	301
82	238
83	23
84	8
85	73
86	45
87	23
88	6
89	2
90	5
91	49
92	7
93	251
94	105
95	999
96	91
97	17
98	3
99	112
100	152
101	23
102	8
103	2
104	1
105	7
106	1
107	30
108	216
109	49
110	4
111	4
112	3
113	290
114	74
115	19
116	4
117	1
121	1
122	1
123	1
125	2
126	1
127	70
128	6
129	4
130	1
134	1
135	1
139	1
140	1
141	10
142	577
143	58
144	30
145	3
146	1
