Mass Spectrum: Pentane, 1-(1-butenyloxy)-, (E)-
Formula: C9H18O
CAS: 54004-25-0
Molecular weight: 142
m/z	intensity
39	120
40	20
41	250
42	130
43	880
44	40
45	10
53	40
54	50
55	250
56	20
57	800
58	30
69	40
70	100
71	110
72	999
73	40
85	20
99	40
142	280
143	40
