Mass Spectrum: 1-Pentene, 5-butoxy-
Formula: C9H18O
CAS: 54004-24-9
Molecular weight: 142
m/z	intensity
39	120
40	50
41	999
42	100
43	80
44	60
45	80
51	10
53	90
54	30
55	160
56	420
57	890
58	50
65	10
66	10
67	250
68	760
69	520
70	40
71	30
72	10
73	20
81	60
85	160
86	40
87	60
99	150
100	190
101	10
113	50
114	10
141	1
142	2
143	0
