Mass Spectrum: 2-Pentene, 5-butoxy-, (E)-
Formula: C9H18O
CAS: 54004-23-8
Molecular weight: 142
m/z	intensity
39	70
40	20
41	380
42	30
43	10
45	10
53	30
54	20
55	80
56	60
57	999
58	50
67	10
68	10
69	50
87	60
88	10
99	240
100	10
141	0
142	0
