Mass Spectrum: Ethanone, 1-[4-methyl-2-(4-methylphenyl)-5-thiazolyl]-
Formula: C13H13NOS
CAS: 54001-03-5
Molecular weight: 231
m/z	intensity
43	999
44	190
45	280
65	50
71	410
72	180
90	50
91	50
94	40
114	90
116	50
117	30
118	200
147	50
188	180
216	540
217	90
231	440
232	70
