Mass Spectrum: 2H-Pyranmethanol, tetrahydro-2,5-dimethyl-
Formula: C8H16O2
CAS: 54004-46-5
Molecular weight: 144
m/z	intensity
14	1
15	8
17	1
18	5
19	2
26	2
27	36
28	18
29	46
30	3
31	36
32	3
38	2
39	46
40	8
41	83
42	54
43	999
44	25
45	14
50	1
51	3
53	15
54	5
55	173
56	12
57	64
58	9
59	8
63	1
65	2
66	1
67	13
68	2
69	27
70	18
71	35
72	5
73	3
74	18
75	52
76	2
77	3
79	3
80	1
81	10
82	1
83	9
84	2
85	3
87	1
91	2
93	12
94	1
95	80
96	6
97	5
98	1
99	10
100	1
107	1
109	2
111	10
113	761
114	59
115	4
125	1
127	1
129	29
130	2
142	2
143	1
145	1
