Mass Spectrum: 1,2,4-Cyclohexanetriol, (1.alpha.,2.alpha.,4.beta.)-
Formula: C6H12O3
CAS: 54002-73-2
Molecular weight: 132
m/z	intensity
31	114
39	84
40	18
41	198
42	90
43	287
44	742
45	385
46	11
47	51
50	8
51	10
52	10
53	14
54	11
55	115
56	37
57	414
58	498
59	40
60	68
61	12
62	10
65	1
66	1
67	71
68	118
69	61
70	999
71	402
72	27
73	318
74	20
75	332
76	14
79	11
81	24
83	71
84	15
85	22
86	142
87	14
88	141
89	12
95	14
96	77
97	15
101	15
104	12
113	15
114	357
115	21
131	12
132	31
133	15
