Mass Spectrum: 4-Heptenoic acid, methyl ester, (E)-
Formula: C8H14O2
CAS: 54004-29-4
Molecular weight: 142
m/z	intensity
39	450
40	86
41	999
42	150
43	630
44	50
45	50
50	25
51	53
52	33
53	180
54	86
55	450
56	47
57	37
58	9
59	300
65	33
66	28
67	320
68	470
69	430
70	29
71	67
72	5
74	980
75	49
79	24
80	3
81	90
82	260
83	150
84	9
85	82
86	8
87	51
88	10
95	9
99	9
100	5
101	8
109	3
110	170
111	100
112	6
113	33
114	2
127	8
142	80
143	6
