Mass Spectrum: 2-Ethoxy-1-methyl-1,2-azaphospholidine 2-oxide
Formula: C6H14NO2P
CAS: 54008-32-1
Molecular weight: 163
m/z	intensity
41	130
42	422
43	999
44	121
56	80
68	60
70	250
71	171
90	68
91	79
106	50
107	81
118	109
119	108
144	168
145	169
163	109
