Mass Spectrum: 1-(Phenylcarbamoyl)-3-phenylimidazolidine-2,4-dione
Formula: C16H13N3O3
CAS: 54001-42-2
Molecular weight: 295
m/z	intensity
35	6
36	43
41	83
45	54
46	173
47	25
48	0
59	170
61	116
74	18
75	25
79	4
85	82
89	7
96	9
105	6
106	46
117	15
119	999
120	187
132	4
133	3
145	2
147	17
148	168
156	0
161	1
163	1
165	6
170	0
173	0
188	0
203	0
204	0
209	3
219	0
222	0
233	0
237	0
257	0
283	2
293	0
294	0
295	111
296	20
