Mass Spectrum: 2-Pentene, 1-butoxy-, (E)-
Formula: C9H18O
CAS: 54004-22-7
Molecular weight: 142
m/z	intensity
39	150
40	30
41	640
42	70
43	40
44	70
45	20
52	10
53	60
54	20
55	80
56	90
57	999
58	60
66	10
67	50
68	90
69	390
70	50
71	90
72	10
85	30
86	150
87	10
99	10
113	130
114	10
142	110
143	10
