Mass Spectrum: 1-Propanol, 2-methyl-2-[(2-methyl-2-propenyl)oxy]-
Formula: C8H16O2
CAS: 54004-45-4
Molecular weight: 144
m/z	intensity
39	110
40	60
41	100
42	40
43	140
44	40
45	50
53	65
54	50
55	999
56	120
57	160
58	130
59	100
70	40
71	40
72	70
73	130
74	120
113	320
114	65
126	20
144	1
