Mass Spectrum: Pentane, 1-(2-butenyloxy)-, (E)-
Formula: C9H18O
CAS: 54004-26-1
Molecular weight: 142
m/z	intensity
26	19
27	158
28	59
29	297
30	9
31	19
38	9
39	148
40	19
41	257
42	99
43	871
44	39
45	9
51	9
53	59
54	99
55	999
56	128
57	465
58	19
68	9
69	79
70	89
71	108
72	772
73	39
85	9
99	59
127	9
142	29
