Mass Spectrum: 1,3-Propanedione, 1-(p-nitrophenyl)-3-phenyl-
Formula: C15H11NO4
CAS: 5400-95-3
Molecular weight: 269
m/z	intensity
33	3
34	3
36	2
37	7
38	30
39	113
40	60
41	26
42	14
43	16
44	62
45	10
46	6
50	235
51	356
52	47
53	31
54	4
55	14
56	1
57	5
58	0
59	2
60	3
61	7
62	36
63	102
64	54
65	120
66	17
67	6
69	999
70	38
71	8
72	0
73	8
74	66
75	132
76	271
77	862
78	225
79	28
80	2
82	27
83	22
84	5
85	3
86	5
87	10
88	31
89	104
90	50
91	61
92	72
93	48
94	12
95	2
96	1
97	11
98	9
99	3
100	3
101	14
102	37
103	57
104	182
105	942
106	79
107	5
108	1
109	1
110	1
111	10
112	4
113	2
114	1
115	9
116	2
117	7
118	14
119	6
120	53
121	13
122	6
124	3
126	3
127	5
128	6
129	9
130	1
131	4
133	21
134	12
135	2
137	1
138	0
139	7
141	3
145	9
146	88
147	260
148	26
149	9
150	117
151	15
152	23
153	7
154	2
155	3
162	7
163	8
164	7
165	39
166	12
167	7
168	2
174	0
175	4
176	10
177	7
178	4
180	1
181	2
183	1
190	0
192	182
193	22
194	11
195	5
196	1
204	1
205	3
206	2
207	0
210	6
211	4
212	0
221	7
222	95
223	23
224	3
238	6
239	15
240	4
241	8
250	1
252	34
253	17
254	3
265	0
266	4
268	723
269	521
270	83
271	9
