Mass Spectrum: 1,2-Cyclopropanediacetic acid
Formula: C7H10O4
CAS: 54010-19-4
Molecular weight: 158
m/z	intensity
26	31
27	230
28	78
29	160
31	35
36	29
37	10
38	39
39	474
40	92
41	763
42	199
43	461
44	53
45	273
46	10
47	10
50	28
51	51
52	27
53	262
54	83
55	321
56	71
57	375
58	39
60	311
61	17
62	9
63	19
64	13
65	86
66	88
67	999
68	277
69	126
70	677
71	499
72	26
73	82
74	10
75	13
77	16
79	14
80	16
81	216
82	42
83	57
84	110
85	121
86	75
87	18
89	161
91	22
92	28
93	12
94	111
95	129
96	67
97	156
98	142
99	541
100	53
102	32
103	9
107	9
109	9
110	9
111	42
112	506
113	85
114	16
115	8
120	34
121	9
122	277
123	24
125	8
129	9
130	9
139	18
140	161
141	29
158	11
159	10
