Mass Spectrum: 2-Isoxazolidinecarboxylic acid, ethyl ester
Formula: C6H11NO3
CAS: 54020-55-2
Molecular weight: 145
m/z	intensity
28	395
29	999
30	46
31	3
41	315
42	322
43	15
45	733
46	34
56	12
58	235
59	11
72	453
73	682
74	31
86	483
87	29
100	95
101	4
145	138
146	6
