Mass Spectrum: Chloromethyl propanoate
Formula: C4H7ClO2
CAS: 5402-53-9
Molecular weight: 122
m/z	intensity
41	6
42	40
43	7
44	33
45	32
49	386
50	7
51	126
55	26
56	66
57	999
58	267
59	7
86	33
87	6
