Mass Spectrum: 1,3-Dioxolane-2-propanoic acid, 2,4,5-trimethyl-, ethyl ester
Formula: C11H20O4
CAS: 5404-43-3
Molecular weight: 216
m/z	intensity
27	69
29	127
39	35
41	48
43	814
45	60
55	252
56	52
71	96
72	38
73	222
97	66
98	35
99	755
100	51
101	329
102	35
115	999
116	73
117	56
128	57
129	129
143	92
171	193
172	118
201	202
