Mass Spectrum: N-[5-(Trifluoromethyl)-1,3,4-thiadiazol-2-yl]benzamide
Formula: C10H6F3N3OS
CAS: 54047-24-4
Molecular weight: 273
m/z	intensity
34	46
35	30
36	76
37	29
38	70
39	91
40	222
41	60
42	47
43	88
44	143
45	34
46	20
47	19
49	50
50	178
51	297
52	26
53	19
54	15
55	31
56	16
57	28
58	29
59	36
60	48
61	9
62	15
63	54
64	15
65	9
66	6
67	12
69	155
70	20
71	18
72	15
74	112
77	721
78	43
79	4
81	7
82	6
83	8
84	5
85	4
86	4
88	4
89	3
90	6
91	10
92	3
93	7
94	21
95	5
96	4
97	4
98	2
99	2
100	3
101	7
103	56
105	999
106	53
107	5
108	2
109	3
110	3
111	5
113	61
114	5
115	9
119	5
121	4
122	4
123	3
129	1
148	1
149	3
150	2
168	4
169	34
171	4
245	3
271	3
273	29
274	3
