Mass Spectrum: Benzo[c]thiophene, octahydro-, cis-
Formula: C8H14S
CAS: 54053-76-8
Molecular weight: 142
m/z	intensity
39	516
40	68
41	494
42	42
43	26
44	3
45	347
46	96
47	121
48	7
49	7
50	31
51	72
52	33
53	182
54	177
55	244
56	14
57	9
58	44
59	91
60	194
61	87
62	22
63	23
64	3
65	67
66	52
67	510
68	147
69	17
70	4
71	35
72	10
73	49
74	19
75	7
76	2
77	69
78	23
79	228
80	94
81	328
82	52
83	5
84	13
85	132
86	38
87	45
88	13
89	3
90	1
91	43
92	7
93	147
94	122
95	999
96	143
97	30
98	7
99	77
100	19
101	17
102	2
103	2
104	1
105	5
106	1
107	23
108	328
109	97
110	8
111	6
112	2
113	23
114	13
115	2
116	1
121	1
122	1
123	1
125	1
126	1
127	35
128	3
129	2
130	1
134	1
135	1
137	1
138	1
139	1
140	4
141	19
142	558
143	55
144	27
145	2
146	1
