Mass Spectrum: l-Pantoyl lactone
Formula: C6H10O3
CAS: 5405-40-3
Molecular weight: 130
m/z	intensity
14	4
15	27
17	1
18	3
25	1
26	16
27	189
28	19
29	132
30	41
31	66
32	1
37	9
38	23
39	182
40	31
41	299
42	34
43	365
44	26
45	51
46	1
49	2
50	10
51	13
52	4
53	80
54	14
55	85
56	59
57	234
58	33
59	5
65	2
66	2
67	32
68	78
69	17
70	7
71	999
72	102
73	30
74	1
76	1
83	5
85	14
86	15
87	1
130	1
131	2
