Mass Spectrum: 1,3-Dioxan-5-ol, 4,4,5-trimethyl-
Formula: C7H14O3
CAS: 54063-14-8
Molecular weight: 146
m/z	intensity
16	3
17	18
18	54
19	6
20	1
22	1
24	1
25	2
26	21
27	137
28	33
29	165
30	62
31	209
32	7
33	1
36	1
37	5
38	13
39	122
40	43
41	241
42	39
43	520
44	27
45	24
46	1
47	2
49	1
50	6
51	11
52	5
53	43
54	7
55	61
56	17
57	356
58	287
59	999
60	47
61	7
62	1
63	2
64	1
65	6
66	4
67	29
68	30
69	83
70	18
71	153
72	11
73	7
74	1
75	13
76	1
77	2
78	1
79	6
80	1
81	35
82	8
83	13
84	5
85	18
86	10
87	3
88	2
89	12
90	1
91	4
92	2
93	1
94	1
95	1
96	2
97	2
98	4
99	12
101	32
102	2
115	3
116	10
117	1
131	26
132	2
133	1
145	3
146	1
