Mass Spectrum: N-(2-Methylacryloyl)imidazola
Formula: C7H8N2O
CAS: 54060-80-9
Molecular weight: 136
m/z	intensity
27	97
37	90
38	151
39	999
40	736
41	964
43	64
51	35
52	42
53	49
54	15
66	15
67	30
68	57
69	148
70	9
108	37
136	15
