Mass Spectrum: Acetic acid, ethoxy-, 1-methylethyl ester
Formula: C7H14O3
CAS: 54063-13-7
Molecular weight: 146
m/z	intensity
12	1
13	1
14	12
15	64
16	4
17	17
18	96
19	11
20	1
25	0
26	26
27	287
28	78
29	372
30	16
31	921
32	12
33	3
36	1
37	1
38	5
39	64
40	13
41	265
42	126
43	933
44	64
45	192
46	4
47	3
49	4
51	1
55	7
56	1
57	15
58	13
59	999
60	460
61	67
62	2
65	1
69	0
70	2
71	1
72	0
73	55
74	3
75	14
76	0
77	1
78	0
85	1
86	4
87	2
88	28
89	2
90	0
102	125
103	49
104	3
105	0
117	1
131	2
141	0
