Mass Spectrum: 5-Allyl-4-hydroxy-6-methyl-2-(methylthio)pyrimidine
Formula: C9H12N2OS
CAS: 54069-14-6
Molecular weight: 196
m/z	intensity
33	17
37	62
38	118
39	195
40	142
42	999
43	309
44	283
45	872
46	782
47	651
48	89
50	310
51	497
52	425
53	803
54	216
55	198
56	52
57	62
58	142
59	173
61	45
62	26
63	80
64	53
65	168
66	163
67	309
68	110
69	133
70	44
71	22
72	63
73	84
74	687
75	78
76	71
77	521
78	172
79	477
80	333
81	229
82	70
83	47
84	46
85	28
86	61
87	13
90	12
91	22
92	57
93	109
94	353
95	136
96	111
97	22
99	28
104	52
105	64
106	60
107	136
108	95
109	43
110	37
111	31
112	20
115	14
119	37
120	47
121	170
122	286
123	78
124	28
125	15
126	16
127	24
133	52
134	15
135	70
136	27
137	19
138	36
139	19
140	23
141	14
147	39
148	19
149	64
150	56
151	16
153	32
155	14
156	45
161	13
162	51
163	255
164	41
167	25
168	15
169	61
179	83
181	768
182	93
183	40
195	136
196	899
197	115
198	45
