Mass Spectrum: 1H-Pyrrole, 1,1'-methylenebis-
Formula: C9H10N2
CAS: 54063-11-5
Molecular weight: 146
m/z	intensity
28	125
29	4
30	4
31	1
32	1
36	2
37	29
38	60
39	147
40	44
41	40
42	5
43	1
44	1
45	1
46	1
48	1
49	5
50	38
51	75
52	73
53	206
54	15
55	1
56	1
57	1
58	1
59	1
60	2
61	1
62	3
63	9
64	8
65	12
66	14
67	89
68	6
69	1
70	1
71	1
72	3
73	20
74	1
75	2
76	3
77	3
78	31
79	26
80	999
81	59
82	2
83	1
84	1
85	1
86	1
87	1
88	1
89	6
90	5
91	12
92	5
93	3
94	2
95	1
96	1
97	1
101	1
102	1
103	1
104	5
105	5
106	1
107	1
111	1
114	1
115	1
116	4
117	24
118	15
119	3
120	1
128	1
129	1
130	1
131	1
141	1
142	1
143	5
144	8
145	20
146	367
147	38
148	2
