Mass Spectrum: 4-Heptanol, 3,4-dimethyl-
Formula: C9H20O
CAS: 5406-10-0
Molecular weight: 144
m/z	intensity
12	2
13	3
14	10
15	95
16	6
17	28
18	95
19	8
25	5
26	71
27	703
28	113
29	575
30	14
31	62
32	4
36	1
37	8
38	24
39	341
40	56
41	673
42	76
43	550
44	23
45	888
46	21
47	4
49	2
50	17
51	41
52	19
53	116
54	30
55	855
56	85
57	230
58	54
59	177
60	6
61	2
62	4
63	10
64	3
65	23
66	11
67	79
68	28
69	499
70	130
71	106
72	24
73	36
74	3
75	2
76	1
77	20
78	5
79	20
80	4
81	31
82	16
83	164
84	65
85	30
86	23
87	999
88	57
89	4
91	7
92	1
93	4
94	1
95	11
96	8
97	354
98	72
99	7
100	2
101	468
102	32
103	2
105	1
107	1
109	3
110	1
111	73
112	7
113	2
115	6
121	1
123	1
124	1
125	1
126	120
127	14
128	1
129	84
130	8
