Mass Spectrum: Ethene, (2-ethoxy-1-methoxyethoxy)-
Formula: C7H14O3
CAS: 54063-18-2
Molecular weight: 146
m/z	intensity
15	123
16	3
17	1
18	6
19	13
26	14
27	131
28	105
29	351
30	16
31	318
32	12
33	14
39	6
40	2
41	74
42	52
43	211
44	58
45	808
46	20
47	2
55	3
56	5
57	87
58	541
59	999
60	39
61	4
69	7
70	36
71	34
72	15
73	51
74	4
75	6
85	2
86	10
87	138
88	11
89	53
90	3
91	3
92	1
99	1
100	5
101	45
102	10
103	35
104	2
105	1
115	7
131	3
