Mass Spectrum: Pentanoic acid, 3-hydroxy-, ethyl ester
Formula: C7H14O3
CAS: 54074-85-0
Molecular weight: 146
m/z	intensity
25	0
26	30
27	255
28	60
29	564
30	26
31	304
37	1
38	3
39	42
40	10
41	151
42	210
43	820
44	101
45	208
46	14
47	107
48	1
49	0
50	2
51	4
52	0
53	16
54	19
55	176
56	83
57	265
58	54
59	476
60	364
61	183
62	5
63	2
65	0
67	1
68	0
69	25
70	158
71	999
72	63
73	25
74	1
75	208
76	7
77	0
79	0
80	0
81	0
82	14
83	272
84	19
85	26
86	3
87	6
88	354
89	453
90	18
91	4
92	1
93	0
95	1
97	1
98	1
99	89
100	27
101	300
102	17
103	6
105	0
107	0
108	0
110	0
112	0
113	13
114	0
115	7
116	6
117	910
118	54
119	8
120	0
124	0
127	0
128	28
129	3
131	4
132	0
145	6
146	0
147	1
