Mass Spectrum: Cyclopropanecarboxamidine
Formula: C4H8N2
CAS: 54070-74-5
Molecular weight: 84
m/z	intensity
12	1
13	3
14	7
15	20
16	7
17	2
18	7
25	4
26	29
27	78
28	242
29	51
30	96
31	11
32	9
33	1
34	1
39	426
40	96
41	696
42	181
43	942
44	129
45	5
49	1
50	5
51	15
52	56
53	14
54	129
55	44
56	214
57	25
58	43
59	1
62	2
63	5
64	9
65	9
66	123
67	964
68	379
69	59
70	3
81	3
82	22
83	745
84	999
85	63
86	1
