Mass Spectrum: 2-Hydroxy-3-hexanone
Formula: C6H12O2
CAS: 54073-43-7
Molecular weight: 116
m/z	intensity
15	1
19	3
26	4
27	76
28	19
29	64
30	5
31	91
33	4
37	3
38	7
39	69
40	8
41	149
42	52
43	999
44	78
45	701
46	18
53	14
55	757
56	49
57	29
70	17
71	477
72	175
73	408
74	128
75	7
87	4
116	6
