Mass Spectrum: 1,1-Difluoro-3-methyl-1-silacyclo-3-pentene
Formula: C5H8F2Si
CAS: 54077-66-6
Molecular weight: 134
m/z	intensity
39	120
40	160
41	180
42	80
43	80
47	30
52	30
53	190
54	10
66	90
67	420
68	999
69	80
80	30
81	40
91	40
93	100
105	40
106	80
115	40
119	90
134	699
135	70
136	20
