Mass Spectrum: Trifluoroacetyl-diisopropylarsine
Formula: C8H14AsF3O
CAS: 54096-55-8
Molecular weight: 258
m/z	intensity
39	29
40	10
41	161
42	30
43	999
44	40
45	9
59	30
69	30
89	20
90	40
91	39
105	40
109	19
117	39
118	79
119	140
130	20
140	19
141	19
161	40
196	19
198	10
216	69
258	80
