Mass Spectrum: Acetyl-benzyl-isopropylphosphine
Formula: C12H17OP
CAS: 54096-51-4
Molecular weight: 208
m/z	intensity
39	20
41	69
42	40
43	549
44	38
45	119
60	98
65	60
77	30
78	80
79	40
91	999
92	190
93	19
95	20
96	9
97	19
121	99
122	20
123	298
124	199
125	19
133	10
134	20
165	40
166	430
167	80
207	19
208	198
209	20
