Mass Spectrum: 4-Cyclohepta-2,4,6-trienylphenylamine
Formula: C13H13N
CAS: 54099-03-5
Molecular weight: 183
m/z	intensity
14	4
15	22
16	5
17	38
18	126
26	33
27	185
28	206
29	44
30	149
31	3
37	20
38	84
39	421
40	54
41	126
42	54
43	41
44	4
45	2
50	134
51	321
52	200
53	92
54	97
55	19
56	24
57	38
59	7
60	3
61	19
62	87
63	250
64	81
65	298
66	70
67	17
68	3
69	7
70	11
73	5
74	59
75	71
76	118
77	376
78	232
79	88
80	34
81	8
82	16
83	36
85	7
86	31
87	36
88	21
89	186
90	213
91	217
92	43
93	29
94	3
97	3
98	15
99	11
100	12
101	29
102	63
103	48
104	449
105	127
106	999
107	80
108	3
109	2
110	4
111	5
112	3
113	22
114	16
115	168
116	52
117	86
118	15
119	3
122	2
123	2
124	2
125	7
126	37
127	83
128	106
129	47
130	48
131	6
137	3
138	3
139	52
140	32
141	66
142	14
143	17
144	5
150	10
151	32
152	116
153	83
154	50
155	36
156	26
157	4
162	2
163	20
164	36
165	400
166	109
167	159
168	54
169	7
177	2
178	6
180	159
181	84
182	779
183	881
184	123
185	8
