Mass Spectrum: (2,2-Dimethyl)propanoyl benzylphosphine
Formula: C12H17OP
CAS: 54096-52-5
Molecular weight: 208
m/z	intensity
39	80
40	30
41	566
42	100
43	138
44	50
45	40
51	49
52	9
53	19
55	40
56	80
57	999
58	118
59	29
63	20
64	10
65	139
77	79
78	100
79	59
85	150
86	210
87	30
91	896
92	168
121	59
122	19
123	298
124	299
125	49
171	19
180	20
208	20
