Mass Spectrum: 6-Methyl-2,3-dihydropyran-2,4-dione
Formula: C6H6O3
CAS: 541-98-0
Molecular weight: 126
m/z	intensity
25	23
26	84
27	143
28	92
29	84
38	51
39	113
40	41
41	172
42	354
43	999
53	46
54	12
55	156
56	33
68	28
69	748
70	64
84	64
85	295
86	33
98	416
99	48
111	167
112	28
126	357
127	56
