Mass Spectrum: 4-Hydroxy-2(5H)-furanone
Formula: C4H4O3
CAS: 541-57-1
Molecular weight: 100
m/z	intensity
34	1
35	7
36	7
37	20
38	22
39	19
40	36
41	131
42	999
43	427
44	50
45	7
52	4
53	9
55	3
56	6
57	1
58	2
68	4
69	60
70	9
71	23
72	123
73	4
79	1
99	4
100	602
101	30
102	3
