Mass Spectrum: 4-(2-Methyl-3-indolyl)-6-phenyl-4,5-dihydro-3(2H)-pyridazinone
Formula: C19H17N3O
CAS: 54104-29-9
Molecular weight: 303
m/z	intensity
37	0
38	31
39	252
40	51
41	69
42	135
43	48
44	43
50	124
51	458
52	111
53	18
54	4
55	8
57	8
62	36
63	152
64	57
65	94
66	7
74	42
75	112
76	203
77	999
78	170
79	10
86	1
87	16
88	17
89	105
90	41
91	158
92	21
101	55
102	110
103	356
104	79
105	2
113	14
114	34
115	206
116	50
117	49
118	96
119	13
121	0
126	6
127	50
128	99
129	74
130	325
131	133
132	10
139	7
140	18
141	15
142	56
143	368
144	97
145	8
154	53
155	26
156	136
157	102
158	9
166	1
167	5
168	11
169	2
170	1
171	458
172	42
173	3
183	24
244	3
260	1
303	39
