Mass Spectrum: 7-Oxabicyclo[4.1.0]heptane, 2-methyl-
Formula: C7H12O
CAS: 5410-22-0
Molecular weight: 112
m/z	intensity
29	260
30	10
31	20
37	10
38	20
39	420
40	100
41	870
42	260
43	290
44	120
45	10
50	20
51	40
52	10
53	170
54	80
55	670
56	500
57	240
58	110
65	10
66	60
67	450
68	999
69	310
70	80
71	230
72	10
77	10
78	10
79	160
80	10
81	90
82	20
83	290
84	80
91	5
94	30
95	10
96	10
97	690
98	40
111	20
112	180
113	10
