Mass Spectrum: (Acetyl-methoxycarbonylmethyl-amino)-acetic acid methyl ester
Formula: C8H13NO5
CAS: 5410-10-6
Molecular weight: 203
m/z	intensity
50	3
51	3
55	4
56	7
57	6
58	5
59	15
60	4
63	3
64	11
65	3
66	6
67	3
68	5
69	6
70	6
71	3
72	13
73	6
74	158
75	9
76	3
77	2
83	3
84	3
85	8
86	12
87	2
88	13
89	2
98	2
99	2
100	16
101	20
102	999
103	53
104	8
105	2
127	2
128	3
129	25
130	3
131	2
132	3
142	1
143	3
144	74
145	7
146	3
147	2
159	1
160	77
161	133
162	11
163	3
164	1
170	1
171	58
172	28
173	7
174	1
203	40
204	4
205	1
