Mass Spectrum: Heptadecane, 2,6-dimethyl-
Formula: C19H40
CAS: 54105-67-8
Molecular weight: 268
m/z	intensity
39	73
40	18
41	435
42	117
43	831
44	26
53	22
54	18
55	240
56	188
57	999
58	42
67	24
68	17
69	111
70	79
71	623
72	33
81	9
82	10
83	46
84	49
85	188
86	12
96	8
97	37
98	12
99	54
100	4
110	4
111	15
112	55
113	80
114	8
124	2
125	7
126	5
127	20
128	2
139	3
140	3
141	9
142	1
153	2
154	6
155	4
156	1
169	2
182	21
183	17
184	3
196	1
197	2
198	1
210	1
211	1
224	1
225	2
226	1
238	1
239	2
252	1
253	3
254	1
268	1
