Mass Spectrum: 1,3,5-Heptanetrione, 6-methyl-1-phenyl-
Formula: C14H16O3
CAS: 54103-38-7
Molecular weight: 232
m/z	intensity
25	2
26	9
27	87
28	22
29	10
30	0
31	1
34	0
35	0
36	2
37	0
38	2
39	39
40	7
41	91
42	15
43	457
44	15
45	3
50	11
51	64
52	7
53	8
54	0
55	56
56	3
57	6
58	2
59	5
60	0
62	1
63	6
64	3
65	15
66	3
67	3
68	1
69	187
70	11
71	210
72	10
73	0
74	1
75	4
76	16
77	315
78	25
79	9
80	1
81	1
82	0
83	3
84	12
86	6
87	2
88	1
89	6
90	3
91	16
92	2
93	2
94	0
95	3
96	0
97	8
98	2
99	0
101	3
102	32
103	41
104	8
105	999
106	78
107	5
108	0
109	1
110	1
111	29
112	31
113	22
114	3
115	22
116	4
117	2
118	1
119	1
120	19
121	6
122	0
123	0
125	0
126	0
127	3
128	4
129	2
130	0
131	5
132	2
133	11
134	1
136	0
137	0
138	0
139	0
140	0
141	1
142	1
143	2
144	7
145	5
146	3
147	80
148	7
149	0
151	0
152	0
153	1
154	1
155	2
156	1
157	3
158	1
159	0
160	12
161	95
162	0
163	0
165	0
167	0
170	0
171	68
172	9
173	1
174	0
175	0
177	0
180	0
181	0
183	0
184	0
185	1
186	10
187	3
188	5
189	645
190	78
191	8
192	1
193	0
196	0
197	1
198	1
199	1
200	0
201	0
202	0
203	0
204	2
205	1
206	0
212	0
213	1
214	64
215	14
216	2
217	1
218	0
225	0
227	0
228	0
229	0
230	1
231	1
232	122
233	23
234	2
