Mass Spectrum: Benzenepropanoic acid, .beta.-bromo-3-nitro-
Formula: C9H8BrNO4
CAS: 5411-60-9
Molecular weight: 273
m/z	intensity
27	49
28	16
30	16
38	13
39	64
41	11
42	147
43	166
44	220
45	33
50	177
51	449
52	76
53	50
55	33
57	33
61	11
62	61
63	169
64	33
65	169
66	16
69	13
71	13
73	33
74	135
75	169
76	186
77	999
78	84
79	118
80	355
81	101
82	313
89	50
90	33
91	245
92	33
101	84
102	271
103	915
104	152
105	76
106	50
107	11
117	13
118	37
119	49
129	49
135	28
136	23
146	93
147	50
148	11
149	779
150	118
151	13
152	347
153	28
160	8
163	11
175	13
176	147
177	23
192	28
193	162
194	177
195	22
273	23
275	22
