Mass Spectrum: Catechol-O,O'-diacetic acid
Formula: C10H10O6
CAS: 5411-14-3
Molecular weight: 226
m/z	intensity
26	23
27	34
28	9
29	44
30	5
31	127
36	4
37	8
38	43
39	91
40	11
41	20
42	45
43	19
44	6
45	43
49	3
50	77
51	122
52	159
53	57
54	10
55	22
56	3
57	10
59	20
60	8
61	8
62	21
63	116
64	99
65	144
66	27
67	23
68	6
69	6
71	6
73	6
74	15
75	16
76	33
77	183
78	33
79	25
80	94
81	278
82	22
83	7
91	13
92	92
93	136
94	44
95	177
96	14
97	5
105	13
106	4
107	28
108	28
109	999
110	113
111	12
120	10
121	269
122	198
123	362
124	76
125	9
127	4
134	6
135	41
136	9
137	32
138	20
149	8
150	23
151	171
152	19
162	68
163	8
167	40
168	70
169	7
172	7
179	16
180	11
181	7
182	40
183	4
208	5
226	682
227	84
228	14
