Mass Spectrum: 2-Butenamide, N,N-diethyl-3-methyl-
Formula: C9H17NO
CAS: 5411-63-2
Molecular weight: 155
m/z	intensity
26	4
27	72
28	29
29	114
30	15
31	0
37	0
38	3
39	48
40	5
41	19
42	29
43	5
44	46
45	1
46	0
49	0
50	3
51	5
52	3
53	29
54	14
55	242
56	37
57	3
58	157
59	6
63	0
64	0
65	1
66	2
67	8
68	4
69	9
70	14
71	5
72	61
73	11
74	7
75	0
76	0
77	1
78	2
79	1
80	1
81	2
82	24
83	999
84	55
85	5
86	1
87	2
88	0
91	1
92	1
93	0
94	1
95	3
96	3
97	1
98	6
99	1
100	9
101	0
104	0
105	0
108	0
109	0
110	2
111	2
112	20
113	5
114	0
117	0
119	0
122	1
123	0
124	1
125	2
126	20
127	3
128	0
131	0
133	0
136	0
138	1
139	0
140	371
141	32
142	2
143	0
147	0
153	0
154	6
155	129
156	17
157	1
