Mass Spectrum: Ditetradecyl ether
Formula: C28H58O
CAS: 5412-98-6
Molecular weight: 410
m/z	intensity
15	4
16	1
17	16
18	87
20	1
26	5
27	48
28	19
29	133
30	4
31	9
32	6
33	1
34	2
36	7
37	1
38	2
39	38
40	8
41	304
42	94
43	638
44	22
45	14
49	1
50	2
51	3
52	1
53	16
54	51
55	431
56	257
57	999
58	44
59	2
63	1
65	3
66	9
67	77
68	235
69	454
70	266
71	688
72	38
73	6
77	3
78	1
79	9
80	6
81	53
82	356
83	564
84	223
85	483
86	32
87	4
91	3
92	1
93	4
94	3
95	32
96	115
97	431
98	160
99	219
100	16
101	2
105	2
106	1
107	2
108	1
109	13
110	51
111	251
112	125
113	182
114	16
115	1
117	1
119	1
121	1
122	1
123	8
124	30
125	150
126	88
127	154
128	14
129	1
136	1
137	6
138	19
139	66
140	54
141	108
142	10
143	1
149	1
151	2
152	9
153	27
154	25
155	50
156	6
165	1
166	7
167	14
168	123
169	17
170	1
171	2
181	1
182	1
192	1
194	21
195	13
196	314
197	518
198	77
199	6
212	1
213	9
214	2
215	14
216	2
225	2
227	13
228	2
269	4
270	1
368	1
