Mass Spectrum: 1(3H)-Isobenzofuranone, 5-methyl-
Formula: C9H8O2
CAS: 54120-64-8
Molecular weight: 148
m/z	intensity
37	48
38	75
39	194
40	19
41	26
42	2
43	15
44	11
45	19
46	1
47	1
48	2
49	17
50	105
51	147
52	30
53	20
54	2
55	2
56	1
57	1
58	1
59	6
60	5
61	39
62	91
63	181
64	46
65	142
66	11
67	1
68	1
69	1
70	3
72	1
73	26
74	39
75	29
76	16
77	43
78	23
79	3
80	1
81	1
83	1
84	3
85	11
86	21
87	20
88	11
89	126
90	92
91	412
92	34
93	2
96	3
97	3
98	4
99	1
100	1
101	2
102	8
103	23
104	9
105	10
106	1
115	1
116	1
117	3
118	42
119	999
120	89
121	6
122	1
132	2
133	26
134	3
135	1
136	1
145	1
146	4
147	148
148	390
149	40
150	5
