Mass Spectrum: 1,4-Dioxane-2,6-dimethanol
Formula: C6H12O4
CAS: 54120-69-3
Molecular weight: 148
m/z	intensity
16	3
17	2
18	8
19	46
26	17
27	119
28	152
29	318
30	120
31	406
32	27
33	10
36	2
37	2
38	5
39	44
40	48
41	106
42	45
43	306
44	80
45	204
46	6
47	4
53	4
54	1
55	26
56	10
57	999
58	177
59	47
60	21
61	166
62	5
69	22
70	11
71	79
72	5
73	129
74	56
75	41
76	2
84	2
85	2
86	5
87	37
88	3
89	3
91	1
94	1
99	19
100	4
101	1
102	1
103	3
105	1
112	1
116	25
117	323
118	88
119	7
130	16
131	1
148	4
149	1
