Mass Spectrum: 2,5-Pyrrolidinedione, 3-(1-chloroethyl)-4-methyl-
Formula: C7H10ClNO2
CAS: 54124-15-1
Molecular weight: 175
m/z	intensity
39	150
41	297
53	59
67	100
68	99
69	999
70	40
89	44
96	30
97	60
104	13
112	19
113	30
137	25
138	11
139	20
140	589
141	45
175	9
