Mass Spectrum: 1,3-Dioxolane-2-propanoic acid, 2,4-dimethyl-, ethyl ester
Formula: C10H18O4
CAS: 5413-49-0
Molecular weight: 202
m/z	intensity
27	32
29	66
31	18
39	20
41	117
42	19
43	729
44	19
45	20
53	11
55	51
56	21
57	22
58	17
59	22
61	12
71	64
73	25
85	72
88	11
97	20
98	19
99	476
100	33
101	999
102	65
113	26
128	14
129	104
141	15
143	18
157	139
158	47
187	131
188	14
