Mass Spectrum: Glycine, N-[[3-chloro-4-(2-propenyloxy)phenyl]acetyl]-
Formula: C13H14ClNO4
CAS: 54139-62-7
Molecular weight: 283
m/z	intensity
41	999
50	41
51	197
52	41
140	69
141	673
142	113
143	231
181	311
182	73
183	105
208	72
209	7
210	25
283	164
284	29
285	59
