Mass Spectrum: Benzamide, N-(2-piperidinylmethyl)-2,5-bis(2,2,2-trifluoroethoxy)-
Formula: C17H20F6N2O3
CAS: 54143-55-4
Molecular weight: 414
m/z	intensity
41	9
42	8
44	1
51	2
52	1
53	4
54	5
55	15
56	41
57	4
62	1
63	4
64	4
65	1
67	6
68	5
69	7
70	1
71	1
74	1
75	1
76	2
77	3
78	1
79	10
80	3
81	1
82	12
83	15
84	999
85	50
86	1
92	9
93	1
95	2
96	20
97	88
98	9
99	1
106	1
107	16
108	2
109	1
110	1
111	10
112	2
113	1
127	2
128	1
134	1
135	15
136	1
174	1
175	2
176	1
189	1
190	3
191	1
209	10
210	1
217	1
218	11
219	6
220	1
221	1
225	1
229	1
230	1
231	2
232	1
233	1
237	2
243	1
247	1
248	1
253	1
254	1
280	1
281	1
301	29
302	3
303	1
310	1
312	1
313	1
318	1
325	1
327	1
330	1
331	1
338	1
355	2
356	1
358	1
378	1
395	1
396	1
412	1
413	1
414	1
