Mass Spectrum: Prosta-5,13-dien-1-oic acid, 15-methyl-9,11,15-tris[(trimethylsilyl)oxy]-, methyl ester, (5Z,8.beta.,9.alpha.,11.alpha.,12.alpha.,13E,15S)-
Formula: C31H62O5Si3
CAS: 54142-23-3
Molecular weight: 598
m/z	intensity
12	2
14	4
15	9
16	2
18	14
25	3
26	17
27	12
28	48
29	15
30	2
31	3
32	1
34	1
37	3
38	6
39	17
40	18
41	62
42	9
43	82
44	9
45	33
46	2
47	13
49	3
50	10
51	9
52	13
53	8
54	5
55	56
56	6
57	19
58	3
59	38
60	3
61	11
62	2
63	3
64	1
65	5
66	4
67	57
68	61
69	30
70	3
71	19
72	9
73	999
74	96
75	202
76	15
77	20
78	11
79	50
80	12
81	75
82	8
83	12
84	2
85	12
87	4
88	2
89	20
90	3
91	54
92	11
93	38
94	9
95	19
96	3
97	9
98	3
99	23
100	2
101	20
102	3
103	43
104	9
105	50
106	18
107	19
108	4
109	24
110	3
111	6
113	6
114	1
115	13
116	8
117	118
118	17
119	27
120	5
121	11
122	2
123	8
124	2
125	4
126	1
127	8
128	5
129	41
130	15
131	35
132	7
133	39
134	6
135	13
136	2
137	5
138	1
139	3
140	3
141	20
142	8
143	321
144	49
145	33
146	7
147	152
148	26
149	24
150	3
151	10
152	2
153	5
154	5
155	18
156	7
157	21
158	5
159	15
160	3
161	16
162	3
163	13
164	3
165	11
166	4
167	18
168	8
169	21
170	5
171	13
172	7
173	15
174	4
175	8
176	2
177	5
178	2
179	12
180	6
181	21
182	8
183	13
184	3
185	13
186	4
187	57
188	10
189	9
190	3
191	163
192	30
193	25
194	6
195	17
196	4
197	11
198	3
199	26
200	10
201	10
202	2
203	6
204	2
205	50
206	14
207	19
208	6
209	5
210	2
211	5
212	2
213	34
214	7
215	6
216	3
217	62
218	20
219	16
220	4
221	9
222	3
223	4
224	2
225	12
226	3
227	5
228	2
229	5
230	6
231	23
232	6
233	11
234	3
235	3
237	3
238	1
239	6
240	2
241	3
242	3
243	35
244	9
245	5
246	2
247	3
248	2
249	4
250	2
251	56
252	16
253	9
254	3
255	24
256	8
257	37
258	9
259	5
260	1
261	3
262	1
263	3
264	1
265	2
267	3
268	3
269	9
270	44
271	17
272	6
273	3
275	4
276	3
277	9
278	4
279	4
280	2
281	16
282	6
283	5
284	2
285	1
287	2
288	1
289	6
290	2
291	2
292	1
293	4
294	2
295	9
296	5
297	7
298	2
299	1
301	1
302	3
303	6
304	2
305	2
306	2
307	15
308	7
309	5
310	1
313	3
315	3
317	1
319	2
321	60
322	16
323	7
324	2
325	1
326	3
327	3
328	6
329	9
330	3
331	4
332	1
333	2
335	1
339	1
341	6
342	2
343	1
347	63
348	18
349	6
350	1
351	1
355	2
363	4
366	3
367	11
368	4
369	3
370	1
371	1
377	3
378	1
379	2
381	1
382	1
383	5
384	2
385	3
386	2
387	6
388	2
391	2
392	4
393	7
394	2
395	3
396	2
397	3
398	1
403	3
411	21
412	8
413	3
417	2
418	7
419	6
420	2
437	87
438	32
439	13
440	3
457	4
458	1
477	3
478	1
493	7
494	3
495	1
508	4
509	2
527	159
528	73
529	34
530	10
531	3
583	6
584	3
585	1
598	1
