Mass Spectrum: 1-Hexene, 2-iodo-
Formula: C6H11I
CAS: 54145-19-6
Molecular weight: 210
m/z	intensity
24	0
25	3
26	39
27	260
28	39
29	155
30	3
31	0
36	1
37	17
38	45
39	393
40	101
41	894
42	45
43	85
44	3
45	6
48	0
49	5
50	40
51	51
52	26
53	161
54	67
55	999
56	46
57	4
58	0
60	3
61	2
62	6
63	9
64	1
65	24
66	7
67	45
68	9
69	2
70	1
71	2
73	1
74	4
75	1
76	0
77	12
78	2
79	17
80	2
81	18
82	3
83	256
84	19
85	1
91	1
92	0
93	0
94	0
95	0
97	0
98	0
99	0
104	0
105	0
107	0
108	0
111	0
112	0
113	0
122	0
127	90
128	29
129	1
139	0
140	0
141	7
142	0
150	0
152	1
153	12
154	2
155	3
165	0
167	14
168	397
169	15
170	0
180	0
181	0
207	0
210	87
211	6
212	0
