Mass Spectrum: Imidazole-4-carboxylic acid, 5-amino-1-methyl-, ethyl ester
Formula: C7H11N3O2
CAS: 54147-04-5
Molecular weight: 169
m/z	intensity
33	33
38	13
40	93
42	999
44	44
45	11
51	1
53	22
54	47
55	106
56	161
57	71
65	0
67	18
68	115
69	18
70	5
72	3
80	5
81	6
82	3
95	160
97	288
110	2
111	1
123	545
124	245
125	72
126	7
139	0
141	24
167	1
169	448
170	34
171	2
