Mass Spectrum: Androstan-7-one, oxime, (5.alpha.)-
Formula: C19H31NO
CAS: 54156-20-6
Molecular weight: 289
m/z	intensity
25	20
26	80
27	290
28	190
29	330
30	30
31	20
37	20
38	40
39	320
40	90
41	999
42	130
43	260
44	50
45	120
46	20
50	50
51	100
52	80
53	290
54	130
55	810
56	120
57	110
58	20
59	20
60	50
61	20
63	30
64	20
65	160
66	100
67	770
68	180
69	250
70	60
71	30
73	50
74	10
75	20
76	20
77	320
78	110
79	570
80	180
81	650
82	140
83	130
84	30
85	30
86	20
89	20
91	430
92	100
93	470
94	200
95	780
96	160
97	70
98	30
99	20
102	20
103	50
104	30
105	220
106	110
107	290
108	170
109	320
110	80
111	50
112	70
113	20
115	60
116	30
117	70
118	50
119	120
120	100
121	190
122	90
123	80
124	150
125	20
128	30
129	40
130	40
131	70
132	60
133	120
134	100
135	320
136	110
137	80
138	90
139	20
141	20
142	20
143	30
144	20
145	70
146	60
147	120
148	90
149	140
150	90
151	60
152	60
153	20
154	100
155	20
156	20
157	20
158	30
159	70
160	50
161	100
162	80
163	80
164	80
165	60
166	20
171	20
172	20
173	30
174	30
175	90
176	260
177	70
178	70
179	20
180	150
181	30
185	20
186	20
187	20
188	30
189	70
190	120
191	10
192	20
193	130
194	50
196	30
201	20
202	30
203	170
204	70
205	20
206	380
207	70
215	20
216	30
217	90
218	50
219	20
220	130
221	30
228	20
230	30
231	20
232	40
233	20
241	20
242	20
243	40
244	70
245	290
246	110
247	50
248	20
255	20
256	70
257	310
258	80
259	20
260	310
261	110
262	20
270	20
271	20
272	500
273	110
274	250
275	50
288	50
289	730
290	160
291	20
