Mass Spectrum: 4-Methylbenzylamine, N-heptafluorobutyryl-
Formula: C12H10F7NO
CAS: 541535-78-8
Molecular weight: 317
m/z	intensity
15	1
26	1
27	13
28	22
30	1
31	5
37	1
38	5
39	41
40	5
43	21
44	26
46	1
50	23
51	66
52	29
53	18
54	2
56	4
61	3
62	14
63	47
64	12
65	83
66	8
67	2
69	156
70	2
71	1
72	5
74	28
75	8
76	12
77	175
78	86
79	223
80	16
81	4
83	1
85	1
86	3
87	4
88	2
89	44
90	20
91	173
92	31
93	78
94	5
98	1
100	37
101	3
102	17
103	132
104	223
105	999
106	86
107	122
108	10
109	21
110	1
112	1
114	1
115	12
116	9
117	8
118	102
119	57
121	26
122	3
123	6
124	1
127	2
128	4
129	1
130	10
131	8
132	31
133	32
134	4
135	38
136	5
139	1
140	6
141	3
146	11
147	13
148	58
149	8
150	7
151	5
152	1
153	4
154	4
155	37
156	4
157	4
159	2
160	3
163	3
164	2
165	2
166	1
169	95
170	3
171	2
178	15
179	2
180	13
181	2
182	1
185	1
191	1
196	10
197	5
198	57
199	6
207	1
214	1
225	1
226	4
227	1
228	1
241	1
248	1
275	1
282	3
298	1
300	1
302	512
303	62
304	4
315	2
316	41
317	732
318	94
319	7
