Mass Spectrum: 2-Bromoethyl methyl sulfide
Formula: C3H7BrS
CAS: 54187-93-8
Molecular weight: 154
m/z	intensity
45	857
46	331
47	717
48	101
49	177
57	58
58	340
59	290
61	364
62	7
63	13
75	999
76	40
77	46
79	38
81	41
82	5
93	29
95	25
107	26
109	19
110	8
139	6
141	6
154	109
156	88
