Mass Spectrum: 2-Butanol, 3-chloro-, acetate, (R*,R*)-
Formula: C6H11ClO2
CAS: 54192-20-0
Molecular weight: 150
m/z	intensity
12	3
13	8
14	31
15	126
16	3
17	1
18	1
19	1
22	1
24	1
25	2
26	24
27	129
28	33
29	56
30	1
31	1
32	1
35	1
36	2
37	3
38	5
39	39
40	4
41	25
42	24
43	999
44	27
45	2
47	1
48	1
49	6
50	5
51	8
52	2
53	12
54	7
55	80
56	9
57	5
58	1
59	1
60	1
61	19
62	5
63	23
64	2
65	7
66	1
69	1
71	2
72	41
73	14
74	1
75	4
76	1
77	1
78	1
79	1
83	1
84	1
85	1
86	1
87	243
88	11
89	3
90	24
91	9
92	8
93	2
97	1
101	1
102	1
106	1
107	1
108	1
109	1
114	3
115	1
116	1
134	3
136	1
