Mass Spectrum: 5,16,20-Pregnatriene-3beta,20-diol diacetate
Formula: C25H34O4
CAS: 5419-52-3
Molecular weight: 398
m/z	intensity
12	1
13	2
14	39
15	35
16	7
24	1
25	3
26	7
27	28
28	178
29	58
30	4
31	10
32	3
37	1
38	2
39	48
40	13
41	196
42	211
43	999
44	119
45	157
46	9
47	1
50	5
51	24
52	9
53	78
54	8
55	190
56	11
57	32
58	5
59	6
60	133
61	10
62	3
63	12
64	6
65	76
66	20
67	199
68	19
69	64
70	8
71	27
72	3
73	10
74	4
75	14
76	15
77	212
78	58
79	324
80	48
81	333
82	35
83	40
84	10
85	33
86	5
87	6
88	6
89	20
90	11
91	589
92	112
93	357
94	76
95	159
96	33
97	41
98	12
99	16
100	7
101	27
102	21
103	91
104	64
105	539
106	128
107	402
108	90
109	138
110	36
111	42
112	19
113	17
114	13
115	167
116	81
117	342
118	122
119	324
120	181
121	409
122	132
123	128
124	53
125	28
126	18
127	45
128	131
129	200
130	103
131	324
132	108
133	284
134	84
135	238
136	139
137	215
138	47
139	29
140	20
141	147
142	94
143	305
144	124
145	571
146	155
147	219
148	71
149	88
150	46
151	44
152	37
153	52
154	32
155	130
156	79
157	319
158	222
159	308
160	161
161	194
162	46
163	40
164	13
165	54
166	30
167	51
168	35
169	100
170	113
171	183
172	70
173	179
174	88
175	185
176	57
177	53
178	54
179	46
180	23
181	63
182	29
183	90
184	38
185	94
186	89
187	93
188	156
189	76
190	38
191	48
192	25
193	49
194	22
195	67
196	30
197	79
198	44
199	73
200	27
201	42
202	33
203	49
204	21
205	27
206	16
207	56
208	22
209	47
210	21
211	61
212	46
213	47
214	26
215	47
216	32
217	52
218	18
219	24
220	13
221	45
222	20
223	37
224	21
225	47
226	24
227	26
228	22
229	27
230	85
231	29
232	16
233	24
234	16
235	46
236	20
237	48
238	20
239	42
240	18
241	22
242	21
243	15
244	13
245	15
246	16
247	21
248	17
249	37
250	27
251	65
252	42
253	119
254	40
255	26
256	15
257	13
258	12
259	17
260	14
261	33
262	16
263	211
264	53
265	29
266	16
267	32
268	27
269	31
270	29
271	12
272	12
273	4
274	15
275	9
276	27
277	30
278	129
279	67
280	24
281	401
282	98
283	40
284	17
285	9
286	12
287	6
288	3
289	1
290	5
291	2
292	13
293	10
294	39
295	66
296	616
297	181
298	77
299	23
300	10
301	4
302	5
303	1
304	2
305	3
306	4
307	2
308	8
309	8
310	24
311	14
312	73
313	23
314	15
315	5
316	3
317	1
319	2
320	5
321	6
322	2
323	80
324	23
325	8
326	10
327	5
328	15
329	6
330	4
331	1
332	1
334	2
336	10
337	6
338	604
339	161
340	26
341	16
342	6
343	2
344	3
346	1
350	1
351	1
352	10
353	4
354	83
355	26
356	7
357	5
358	2
370	12
371	5
