Mass Spectrum: Hexanedioic acid, 2-amino-
Formula: C6H11NO4
CAS: 542-32-5
Molecular weight: 161
m/z	intensity
14	3
15	21
16	4
17	9
18	44
25	1
26	12
27	76
28	155
29	24
30	55
31	4
32	3
33	1
34	3
35	3
36	1
37	4
38	9
39	52
40	13
41	67
42	70
43	71
44	41
45	39
46	17
47	2
49	3
50	4
51	5
52	6
53	12
54	20
55	618
56	188
57	18
58	1
59	3
60	14
61	1
64	1
65	1
66	2
67	4
68	16
69	17
70	69
71	9
72	6
73	13
74	83
75	9
76	1
77	1
78	2
79	1
80	2
81	3
82	2
83	3
84	1
85	2
86	1
87	16
88	4
89	2
91	2
93	1
94	1
95	2
96	6
97	14
98	999
99	69
100	7
101	1
108	2
109	1
110	1
111	1
113	1
114	1
115	16
116	191
117	12
118	2
123	1
124	1
125	1
127	1
137	1
141	1
142	1
143	58
144	8
145	1
