Mass Spectrum: Bicyclo[5.1.0]octane, 8-methylene-
Formula: C9H14
CAS: 54211-15-3
Molecular weight: 122
m/z	intensity
65	220
66	300
67	630
68	490
77	450
78	450
79	999
80	720
81	650
91	580
92	230
93	960
94	740
105	230
107	750
122	130
