Mass Spectrum: 1,2,4-Metheno-1H-cyclobuta[cd]pentalene-3,5-diol, octahydro-
Formula: C10H12O2
CAS: 54211-08-4
Molecular weight: 164
m/z	intensity
26	21
27	175
28	56
29	150
31	105
38	29
39	314
40	51
41	165
42	62
43	76
44	34
45	12
50	49
51	148
52	61
53	159
54	58
55	198
56	23
57	158
58	25
60	14
62	19
63	70
64	28
65	166
66	200
67	137
68	51
69	49
70	72
71	52
72	13
73	25
74	19
75	23
76	20
77	298
78	166
79	335
80	75
81	370
82	843
84	41
85	45
86	71
87	10
89	36
90	22
91	368
92	103
93	49
94	98
95	121
96	191
97	32
98	178
99	39
102	27
103	97
104	98
105	197
106	25
107	108
108	94
109	17
115	254
116	322
117	999
118	398
119	97
120	81
121	41
122	17
127	35
128	133
129	78
130	36
131	153
132	22
133	193
134	23
135	46
136	18
144	14
145	287
146	344
147	49
148	18
149	62
150	6
164	40
