Mass Spectrum: Bicyclo[4.1.0]heptane, 7-methylene-
Formula: C8H12
CAS: 54211-14-2
Molecular weight: 108
m/z	intensity
24	0
25	3
26	29
27	279
28	43
29	59
30	1
31	0
32	1
33	1
34	2
35	2
36	1
37	16
38	38
39	463
40	84
41	433
42	23
43	5
44	1
45	6
46	2
47	1
48	1
49	8
50	70
51	150
52	97
53	178
54	167
55	47
56	6
57	0
58	0
59	1
60	0
61	6
62	15
63	44
64	15
65	183
66	147
67	284
68	50
69	5
71	0
72	0
73	2
74	11
75	25
76	8
77	481
78	170
79	999
80	317
81	39
82	9
83	0
85	0
86	0
87	2
88	1
89	20
90	4
91	336
92	41
93	993
94	71
95	2
98	0
101	0
102	2
103	10
104	7
105	24
106	11
107	56
108	40
109	2
