Mass Spectrum: 4-Cyanobenzoic acid, 3-methylbutyl ester
Formula: C13H15NO2
CAS: 54210-47-8
Molecular weight: 217
m/z	intensity
26	11
27	90
28	13
29	95
30	6
39	68
40	15
41	141
42	126
43	131
44	10
50	62
51	77
52	21
53	21
54	12
55	328
56	31
57	44
58	4
59	3
61	5
62	6
63	11
64	7
65	7
66	2
67	2
68	6
69	64
70	999
71	55
72	4
73	5
74	14
75	84
76	61
77	20
78	5
79	11
80	4
81	5
85	3
87	3
91	9
92	6
93	2
95	3
96	3
97	3
98	2
99	4
100	3
101	10
102	311
103	61
104	10
105	12
106	3
107	3
108	2
111	2
118	2
119	6
121	2
126	2
129	13
130	584
131	70
132	4
145	4
146	3
147	40
148	67
149	7
160	3
161	3
174	8
175	4
189	3
217	3
