Mass Spectrum: N-(4-Pyridyl)-pyridinium chloride hydrochloride
Formula: C10H9ClN2
CAS: 5421-92-1
Molecular weight: 192
m/z	intensity
12	7
13	4
24	5
25	18
26	124
27	34
28	8
29	1
39	96
40	15
41	6
43	9
44	5
47	8
48	14
49	88
50	371
51	727
52	693
53	79
54	4
56	5
57	5
60	23
61	6
62	14
63	4
64	7
65	3
67	3
68	2
72	5
73	34
74	9
75	43
76	56
77	22
78	858
79	928
80	53
81	2
84	6
85	24
86	54
87	15
88	21
89	5
90	8
91	5
92	2
95	2
98	2
104	4
105	5
106	2
112	18
113	999
114	60
115	322
116	22
117	10
118	7
155	2
156	2
157	2
