Mass Spectrum: Bicyclo[4.2.0]octan-7-one
Formula: C8H12O
CAS: 54211-18-6
Molecular weight: 124
m/z	intensity
26	10
27	101
28	23
29	37
30	1
31	1
37	2
38	9
39	154
40	19
41	134
42	18
43	42
44	4
45	2
46	1
49	0
50	12
51	23
52	11
53	84
54	437
55	140
56	10
57	10
62	3
63	6
64	2
65	23
66	19
67	999
68	90
69	10
70	4
71	3
74	3
75	1
76	2
77	25
78	6
79	78
80	135
81	197
82	650
83	32
84	1
85	2
86	0
87	1
91	9
92	1
93	6
94	1
95	21
96	12
97	3
99	0
104	2
105	3
106	4
107	2
108	1
109	4
110	1
111	2
113	1
115	2
116	0
117	1
119	2
121	2
122	1
123	2
124	121
125	12
