Mass Spectrum: Phenylacetic acid, 2-ethylhexyl ester
Formula: C16H24O2
CAS: 5421-30-7
Molecular weight: 248
m/z	intensity
26	6
27	21
28	8
29	49
30	1
31	1
36	2
37	1
38	3
39	33
40	6
41	132
42	25
43	276
44	9
45	2
50	5
51	11
52	4
53	9
54	6
55	106
56	64
57	570
58	22
59	1
62	3
63	15
64	6
65	77
66	6
67	7
68	7
69	50
70	622
71	431
72	21
74	1
75	1
76	1
77	6
78	4
79	5
81	4
82	18
83	117
84	73
85	8
89	32
90	32
91	999
92	158
93	10
95	2
97	12
98	2
99	3
104	4
105	7
106	2
107	2
110	2
111	6
112	719
113	55
114	2
118	22
119	43
120	5
121	1
127	2
129	2
135	1
136	175
137	74
138	6
139	2
149	4
150	1
157	63
158	7
