Mass Spectrum: 1H-1,2,3,4-Tetrazol-5-amine, 1-methyl-
Formula: C2H5N5
CAS: 5422-44-6
Molecular weight: 99
m/z	intensity
34	1
38	7
39	9
40	34
41	64
42	968
43	999
44	37
45	1
52	1
53	42
54	11
55	23
56	26
57	249
58	7
67	0
69	1
70	15
71	7
82	0
83	0
84	0
99	614
100	30
