Mass Spectrum: 1,2-Cyclopropanedicarboxylic acid, 3-(2-methyl-1-propenyl)-, diethyl ester
Formula: C13H20O4
CAS: 54221-12-4
Molecular weight: 240
m/z	intensity
26	61
27	315
28	315
29	999
30	24
31	29
32	30
33	0
34	0
35	0
36	0
37	1
38	6
39	124
40	25
41	179
42	35
43	192
44	26
45	39
46	9
47	8
48	0
49	4
50	14
51	54
52	33
53	96
54	15
55	121
56	10
57	22
58	58
59	12
60	6
61	5
62	3
63	14
64	5
65	65
66	18
67	104
68	12
69	36
70	7
71	12
73	8
74	3
75	4
76	5
77	292
78	60
79	275
80	31
81	71
82	9
83	24
84	4
85	34
86	5
87	4
88	3
89	8
90	4
91	183
92	87
93	875
94	158
95	204
96	25
97	24
98	6
99	9
100	4
101	15
102	2
103	3
104	3
105	19
106	9
107	65
108	17
109	29
110	34
111	106
112	15
113	27
114	13
115	5
116	3
117	3
118	2
119	16
120	89
121	318
122	131
123	216
124	25
125	39
126	6
127	6
128	5
129	8
131	3
132	2
133	4
134	14
135	31
136	7
137	91
138	66
139	108
140	27
141	33
142	7
143	4
144	2
145	4
146	2
147	5
148	780
149	81
150	11
151	186
152	33
153	21
154	5
155	2
156	1
157	4
158	1
159	8
160	2
161	2
162	1
163	2
164	4
165	80
166	86
167	146
168	26
169	4
170	1
171	1
172	0
173	3
174	2
175	0
176	2
177	1
178	0
179	4
180	6
181	19
182	3
183	4
184	1
185	6
186	2
187	14
188	3
189	2
190	0
191	2
192	1
193	4
194	106
195	276
196	35
197	7
198	1
222	5
223	2
224	0
225	55
226	14
227	8
228	1
229	1
230	0
231	1
232	0
233	1
234	1
235	1
236	1
237	1
238	0
239	4
240	246
241	42
242	5
