Mass Spectrum: Pyridine, 3-chloro-2-nitro-
Formula: C5H3ClN2O2
CAS: 54231-32-2
Molecular weight: 158
m/z	intensity
50	650
51	350
52	140
60	50
61	140
62	70
63	90
64	70
73	70
74	50
75	350
76	999
77	170
84	40
85	210
86	100
87	80
100	100
110	40
112	500
113	30
114	120
158	20
