Mass Spectrum: 1,3-Diazocin-2-one, perhydro-1-benzoyl-
Formula: C13H16N2O2
CAS: 54236-70-3
Molecular weight: 232
m/z	intensity
37	0
38	2
39	24
40	6
41	37
42	16
43	9
44	10
49	0
50	32
51	118
52	11
53	6
54	6
55	16
56	86
57	3
58	1
59	0
60	0
61	0
62	1
63	2
64	1
65	2
66	1
67	4
68	4
69	5
70	63
71	3
72	0
73	0
74	7
75	6
76	24
77	414
78	34
79	10
80	1
81	0
82	3
83	17
84	5
85	45
86	2
87	0
89	0
90	0
91	2
92	1
93	1
98	25
99	25
100	5
101	0
102	0
103	3
105	999
106	80
107	5
108	0
109	0
110	2
111	24
112	3
113	0
115	0
116	0
117	0
118	1
119	1
120	1
121	4
122	20
127	91
128	7
129	0
130	0
131	0
132	1
134	108
135	68
136	6
137	0
145	0
146	4
147	1
148	41
149	9
150	0
159	0
160	1
162	41
163	5
164	0
171	0
174	0
175	2
176	23
177	31
178	3
179	0
186	0
187	0
188	0
189	1
190	9
191	1
203	0
204	3
205	0
207	0
214	1
215	0
231	4
232	2
233	0
