Mass Spectrum: Bis[4-acetamidophenyl]sulfoxide
Formula: C16H16N2O3S
CAS: 5423-16-5
Molecular weight: 316
m/z	intensity
41	24
42	45
43	999
44	37
45	23
47	2
49	22
50	17
51	31
52	29
53	25
54	11
55	6
56	10
57	6
58	11
62	11
63	79
64	58
65	217
66	38
67	4
68	2
69	16
70	20
71	8
72	1
73	1
74	4
75	4
76	14
77	28
78	26
79	13
80	106
81	15
82	6
83	6
84	29
85	10
86	19
89	4
90	20
91	41
92	94
93	146
94	13
95	9
96	26
97	26
98	8
99	7
104	8
105	10
106	9
108	668
109	172
110	13
112	14
113	9
115	9
117	8
118	7
119	7
120	21
121	13
122	9
123	27
124	409
125	176
126	33
127	19
128	13
130	11
133	11
134	28
135	25
136	1
139	2
140	653
141	62
142	34
143	6
148	34
149	7
150	35
151	97
152	10
154	11
155	7
156	49
157	7
160	3
164	2
166	26
167	155
168	18
169	9
171	7
181	11
182	53
183	133
184	482
185	99
186	13
188	8
198	7
199	4
210	12
214	5
215	15
216	20
225	21
226	242
227	37
257	8
258	8
268	302
269	49
300	7
316	12
317	2
