Mass Spectrum: Cyclohexane, 1-(ethoxymethyl)-4-methylene-
Formula: C10H18O
CAS: 54244-88-1
Molecular weight: 154
m/z	intensity
12	2
13	1
14	1
15	37
16	21
19	3
20	0
24	0
25	2
26	23
28	92
29	280
30	15
31	371
33	3
34	0
35	0
36	2
37	2
38	10
39	200
40	32
41	258
42	20
43	41
44	11
45	13
46	1
49	0
50	10
51	33
52	22
53	100
54	58
55	133
56	12
57	55
58	7
59	161
60	6
61	2
62	2
63	8
64	4
65	42
66	49
67	222
68	42
69	21
70	14
71	14
72	8
73	6
74	1
75	3
76	2
77	119
78	61
79	537
80	223
81	82
82	22
83	14
84	6
85	18
86	3
87	2
88	0
89	7
90	5
91	120
92	30
93	999
94	100
95	95
96	8
97	9
98	10
99	9
100	1
101	2
102	0
103	4
104	1
105	11
106	5
107	77
108	580
109	81
110	7
111	13
112	3
113	0
116	0
117	0
118	0
119	1
121	0
123	0
124	0
125	6
126	3
127	0
131	1
135	1
137	0
139	6
140	0
144	0
147	1
149	0
154	71
155	8
156	0
