Mass Spectrum: 1-Heptyne, 3-methoxy-3,4-dimethyl-
Formula: C10H18O
CAS: 54244-92-7
Molecular weight: 154
m/z	intensity
39	142
41	134
43	195
51	52
52	30
53	74
55	39
57	29
59	7
63	13
65	30
67	27
69	45
77	34
79	58
81	29
83	999
91	42
95	14
97	5
111	7
112	1
125	24
139	41
140	4
153	0
154	0
