Mass Spectrum: 2-Butenoic acid, 2-(cyanomethyl)-, ethyl ester
Formula: C8H11NO2
CAS: 54244-77-8
Molecular weight: 153
m/z	intensity
27	320
28	36
29	240
31	9
44	250
45	450
46	210
51	60
52	100
53	300
79	100
80	670
81	340
106	60
107	100
108	999
109	60
124	530
125	60
153	550
