Mass Spectrum: 1,3-Cyclohexanedione, 2-propyl-
Formula: C9H14O2
CAS: 54244-73-4
Molecular weight: 154
m/z	intensity
38	11
39	179
40	46
41	227
42	379
43	200
44	17
45	11
50	11
51	21
52	11
53	63
54	21
55	999
56	63
57	21
58	4
63	11
65	21
66	11
67	42
68	17
69	84
70	126
71	38
77	38
78	11
79	63
80	11
81	21
82	11
83	389
84	600
85	38
91	11
93	17
95	11
96	11
97	463
98	253
99	11
111	116
112	354
113	147
114	17
125	347
126	147
127	17
137	25
139	164
140	21
153	21
154	442
155	42
