Mass Spectrum: Hydrazinecarbothioamide, 2-[1-(4-nitrophenyl)ethylidene]-
Formula: C9H10N4O2S
CAS: 5424-45-3
Molecular weight: 238
m/z	intensity
33	47
34	3
37	8
38	25
39	49
40	10
41	23
42	98
43	267
44	14
45	18
46	102
47	28
48	24
49	8
50	116
51	77
52	21
53	10
54	5
55	4
56	2
57	7
58	15
59	173
60	999
61	52
62	71
63	49
64	17
65	28
66	3
69	3
70	0
72	0
73	8
74	53
75	65
76	87
77	51
78	16
79	4
80	3
81	0
82	1
85	0
86	5
87	5
88	3
89	15
90	12
91	17
92	5
95	0
98	3
99	2
101	5
102	28
103	14
104	11
105	8
106	3
107	1
108	1
109	1
115	1
116	14
117	10
118	12
119	6
120	3
131	23
132	20
133	3
147	0
149	1
150	0
161	1
162	1
163	2
164	1
166	0
177	2
178	3
179	1
180	0
181	0
223	8
224	0
238	5
