Mass Spectrum: Acetamide, N-cyclopentyl-N-ethyl-
Formula: C9H17NO
CAS: 54244-76-7
Molecular weight: 155
m/z	intensity
41	350
42	170
43	620
44	180
45	10
46	20
52	10
53	30
54	70
55	40
56	220
57	40
58	60
60	20
65	10
66	10
67	80
68	60
69	70
70	280
71	70
72	300
73	10
82	30
83	10
84	999
85	120
86	70
87	80
88	510
89	30
96	10
98	180
99	10
110	10
112	230
113	20
126	180
127	20
140	10
155	370
156	60
