Mass Spectrum: 3-Aminopyrazine-2-carboxylic acid
Formula: C5H5N3O2
CAS: 5424-01-1
Molecular weight: 139
m/z	intensity
14	13
17	12
26	56
27	48
28	295
29	25
38	73
39	132
40	341
41	223
42	176
43	129
44	69
45	69
51	46
52	108
53	97
54	22
65	30
66	182
67	355
68	487
69	28
79	20
85	24
92	29
93	135
94	207
95	999
96	60
119	35
121	47
128	15
137	21
139	592
140	39
