Mass Spectrum: Propanamide, N-(aminocarbonyl)-
Formula: C4H8N2O2
CAS: 5426-52-8
Molecular weight: 116
m/z	intensity
29	470
43	230
44	999
57	350
61	80
73	310
74	30
88	30
116	90
