Mass Spectrum: Antipyrine, 4-bromo-
Formula: C11H11BrN2O
CAS: 5426-65-3
Molecular weight: 266
m/z	intensity
14	4
15	142
16	4
17	1
18	3
25	2
26	25
27	82
28	44
29	27
30	12
36	4
37	45
38	105
39	258
40	38
41	48
42	111
43	99
44	3
49	5
50	66
51	220
52	81
53	36
54	28
55	28
56	999
57	41
58	2
61	8
62	15
63	61
64	91
65	53
66	36
67	292
68	99
69	8
70	2
71	2
72	2
73	3
74	16
75	17
76	36
77	680
78	56
79	11
80	13
81	17
82	6
83	6
84	12
86	3
87	4
88	6
89	11
90	11
91	69
92	29
93	108
94	21
95	9
96	7
97	2
101	2
102	8
103	28
104	28
105	322
106	158
107	17
108	10
114	5
115	89
116	45
117	22
118	132
119	29
120	10
121	41
122	5
128	12
129	11
130	31
131	11
132	25
133	37
134	30
135	27
136	8
140	2
141	2
142	5
143	10
144	14
145	12
146	42
147	13
148	34
149	9
150	4
155	2
156	2
157	12
158	53
159	67
160	48
161	9
162	19
163	11
164	10
169	2
170	5
171	4
172	28
173	6
174	219
175	17
176	207
177	12
182	13
183	2
184	13
185	14
186	6
187	39
188	9
189	4
191	5
195	2
197	2
208	3
210	3
212	2
222	2
223	3
224	2
225	3
226	2
237	15
238	3
239	12
240	3
251	28
252	4
253	26
254	4
264	3
265	51
266	465
267	110
268	478
269	59
270	5
