Mass Spectrum: Pentyl glycolate
Formula: C7H14O3
CAS: 5426-43-7
Molecular weight: 146
m/z	intensity
29	201
31	301
41	220
42	190
43	999
55	199
70	381
71	318
77	109
