Mass Spectrum: 3-Cyclohexen-1-ol, 5-methylene-6-(1-methylethenyl)-
Formula: C10H14O
CAS: 54274-41-8
Molecular weight: 150
m/z	intensity
41	437
42	79
43	83
44	33
50	57
51	161
52	59
53	211
54	37
55	259
56	14
57	119
59	18
63	49
64	35
65	205
66	59
67	195
68	67
69	181
70	355
71	22
77	425
78	117
79	999
80	163
81	235
82	97
83	23
91	800
92	185
93	277
94	600
95	263
96	23
103	39
104	29
105	205
106	287
107	447
108	157
109	51
115	117
116	57
117	439
118	41
119	121
120	57
121	113
122	20
131	77
132	181
133	45
135	786
136	79
149	22
150	57
