Mass Spectrum: 5-Hydantoinacetic acid
Formula: C5H6N2O4
CAS: 5427-26-9
Molecular weight: 158
m/z	intensity
12	13
13	9
14	34
15	76
16	22
17	3
18	8
24	3
25	11
26	76
27	227
28	468
29	42
30	6
31	9
32	2
34	1
36	4
37	2
38	26
39	41
40	108
41	303
42	295
43	205
44	460
45	85
46	5
47	1
48	1
50	6
51	17
52	23
53	25
54	17
55	28
56	25
57	2
59	2
60	601
61	15
62	4
63	2
64	3
65	4
66	7
67	15
68	48
69	104
70	63
71	16
72	8
73	2
74	1
77	2
78	4
79	2
80	6
81	6
82	2
83	2
84	6
85	14
86	14
87	81
88	7
91	1
92	2
94	16
95	7
96	24
97	14
98	4
99	124
100	8
107	1
108	1
109	2
110	2
111	1
112	999
113	91
114	10
115	5
121	1
122	2
124	1
130	3
136	1
137	1
138	2
139	5
140	112
141	17
142	1
156	13
157	1
158	27
159	2
