Mass Spectrum: S-(2-Formylisopropyl)thioacetate
Formula: C6H10O2S
CAS: 54278-24-9
Molecular weight: 146
m/z	intensity
29	146
38	102
39	527
40	110
41	710
42	397
43	999
53	12
55	14
59	36
60	50
61	48
69	213
70	468
71	73
75	34
76	32
77	16
84	13
86	31
102	12
103	98
104	11
105	5
118	5
146	5
