Mass Spectrum: syn-9-Hydroxybicyclo[4.2.1]nonane
Formula: C9H16O
CAS: 54288-14-1
Molecular weight: 140
m/z	intensity
39	192
41	384
43	210
55	306
67	447
68	139
70	146
79	439
80	999
81	471
83	181
93	373
94	290
110	139
122	231
140	403
141	40
142	5
