Mass Spectrum: 2-linoleoylglycerol, 2TMS derivative
Formula: C27H54O4Si2
CAS: 54284-46-7
Molecular weight: 498
m/z	intensity
29	13
39	11
41	78
42	12
43	48
45	21
53	18
54	55
55	149
56	18
58	8
59	30
61	12
65	12
66	16
67	228
68	51
69	78
70	11
72	15
73	685
74	58
75	169
76	12
77	39
79	117
80	65
81	143
82	38
83	39
84	10
87	9
89	22
91	32
93	48
94	21
95	85
96	25
97	25
101	45
103	999
104	93
105	72
107	28
109	43
110	20
113	20
115	26
116	20
117	58
119	18
120	13
121	26
123	29
124	9
129	955
130	113
131	142
132	30
133	82
134	13
135	48
136	12
143	16
145	21
146	11
147	398
148	73
149	64
150	20
159	15
161	12
163	25
164	10
175	16
177	30
178	10
189	31
191	96
192	16
201	32
203	117
204	26
205	19
217	127
218	353
219	180
220	57
221	27
237	17
262	41
263	40
264	8
311	7
337	82
338	26
408	172
409	51
410	30
411	21
412	9
425	8
426	6
427	26
428	7
483	38
484	11
498	6
