Mass Spectrum: 5(4H)-Oxazolone, 4-[(4-methoxyphenyl)methylene]-2-phenyl-
Formula: C17H13NO3
CAS: 5429-22-1
Molecular weight: 279
m/z	intensity
33	6
34	0
38	3
39	10
40	7
41	1
42	0
43	3
44	1
50	21
51	62
52	4
53	2
55	0
61	0
62	4
63	11
64	2
65	4
66	0
74	4
75	9
77	346
78	19
79	0
86	0
87	1
88	4
89	12
90	2
91	9
92	1
101	1
102	4
103	26
105	999
106	73
107	2
114	1
115	2
116	3
117	5
118	0
119	0
121	0
131	1
132	4
133	0
135	1
140	4
146	30
147	9
148	0
151	0
152	0
178	0
190	0
191	0
217	2
218	0
220	0
222	0
234	0
251	0
276	1
277	2
279	333
280	60
281	7
282	0
