Mass Spectrum: Cyclooctene, 1,2-dimethyl-
Formula: C10H18
CAS: 54299-96-6
Molecular weight: 138
m/z	intensity
24	5
27	529
28	107
29	356
30	6
31	1
37	7
38	28
39	641
40	14
41	999
42	162
43	164
44	6
45	4
46	2
49	5
50	31
51	99
52	56
53	265
54	161
55	639
56	159
57	88
58	8
59	6
61	4
62	6
63	32
64	7
65	99
66	45
67	957
68	270
69	428
70	267
71	60
72	7
73	1
74	7
75	5
76	6
77	129
78	30
79	174
80	62
81	910
82	420
83	163
84	113
85	16
86	4
87	2
89	6
90	4
91	98
92	13
93	102
94	33
95	629
96	412
97	80
98	19
99	3
100	1
102	3
103	7
104	4
105	16
106	5
107	25
108	16
109	436
110	361
111	63
112	16
113	3
115	7
116	1
117	5
119	5
121	8
122	6
123	155
124	17
135	3
136	2
137	5
138	613
139	60
