Mass Spectrum: 9-Octadecenamide, N-phenyl-, (Z)-
Formula: C24H39NO
CAS: 5429-85-6
Molecular weight: 357
m/z	intensity
41	81
42	8
43	56
44	4
45	0
46	1
51	3
52	1
53	8
54	17
55	110
56	12
57	27
58	1
59	1
63	1
64	1
65	14
66	17
67	44
68	9
69	51
70	8
71	9
72	0
73	1
74	0
75	1
76	1
77	21
78	2
79	10
80	5
81	26
82	7
83	26
84	4
85	4
87	0
91	8
92	43
93	999
94	176
95	26
96	6
97	24
98	8
99	3
100	0
101	1
103	0
104	2
105	3
106	5
107	4
108	2
109	10
110	4
111	11
112	3
113	1
114	1
115	1
116	0
117	1
118	1
119	5
120	34
121	9
122	2
123	8
124	2
125	4
126	1
127	0
129	0
130	1
131	1
132	2
133	3
134	16
135	173
136	19
137	5
138	3
139	2
140	0
141	0
143	0
144	0
145	0
146	2
147	2
148	70
149	12
150	3
151	3
152	3
153	2
154	0
157	0
158	0
159	0
160	0
161	1
162	6
163	4
164	1
165	2
166	2
167	1
168	0
169	0
172	0
174	2
175	1
176	4
177	2
178	1
179	1
180	1
181	0
183	0
186	0
188	4
189	2
190	5
191	1
194	0
197	2
198	0
201	0
202	13
203	4
204	7
205	2
207	1
208	0
209	0
215	0
216	3
217	1
218	3
219	0
220	0
221	0
222	0
225	0
226	0
228	0
229	0
230	3
231	0
232	1
235	0
236	0
237	1
242	0
244	2
245	1
246	1
247	3
248	0
256	1
258	2
259	0
260	0
262	1
263	0
264	9
265	9
266	2
270	0
272	2
273	0
274	0
280	0
281	0
282	0
284	0
286	1
287	0
300	1
302	0
303	0
314	1
315	0
316	0
327	0
328	1
329	0
342	0
355	11
356	7
357	77
358	20
359	2
