Mass Spectrum: Butanedioyl dichloride
Formula: C4H4Cl2O2
CAS: 543-20-4
Molecular weight: 154
m/z	intensity
26	219
27	493
28	193
29	23
30	0
31	1
33	0
35	18
36	21
37	14
38	14
39	12
41	22
42	163
43	6
44	9
45	3
46	0
47	6
48	15
49	17
50	1
51	5
52	4
53	17
54	34
55	560
56	49
57	2
58	0
59	0
60	4
61	17
62	10
63	333
64	13
65	104
66	2
67	1
69	0
71	0
72	1
73	1
74	0
75	2
76	0
77	1
78	1
80	0
82	5
83	51
84	1
85	18
87	1
88	0
89	26
90	5
91	19
92	2
93	4
96	1
97	8
98	14
99	7
100	0
101	1
105	1
112	0
114	0
116	0
117	28
118	13
119	999
120	42
121	298
122	13
123	1
124	0
125	8
126	1
127	5
128	0
129	1
153	12
154	1
155	7
156	0
157	1
