Mass Spectrum: 7-Octen-2-ol, 2-methyl-6-methylene-
Formula: C10H18O
CAS: 543-39-5
Molecular weight: 154
m/z	intensity
26	9
27	107
28	8
29	38
31	92
38	7
39	103
40	5
41	313
42	20
43	442
44	4
45	8
50	10
51	30
52	21
53	65
54	16
55	50
56	12
57	8
58	17
59	999
60	18
63	6
65	23
66	19
67	84
68	278
69	72
70	13
71	28
77	26
78	13
79	363
80	227
81	272
82	12
83	4
91	15
92	20
93	307
94	27
95	22
96	1
97	1
107	23
108	11
121	64
122	13
135	9
136	37
137	6
