Mass Spectrum: 2H-Quinolizin-2-ol, octahydro-
Formula: C9H17NO
CAS: 54308-62-2
Molecular weight: 155
m/z	intensity
53	60
54	120
55	500
56	150
57	60
67	40
68	60
69	140
70	60
71	30
80	30
81	70
82	180
83	570
84	160
96	150
97	999
98	190
99	190
108	40
110	440
111	250
112	50
113	360
114	60
126	140
127	80
136	130
137	20
138	620
139	60
140	60
154	870
155	630
156	60
