Mass Spectrum: Butanoic acid, 4-oxo-4-(phenylamino)-, methyl ester
Formula: C11H13NO3
CAS: 5430-83-1
Molecular weight: 207
m/z	intensity
26	6
27	43
29	8
30	1
31	5
33	0
37	1
38	6
39	36
40	1
41	8
42	5
43	1
44	0
45	9
46	1
50	6
51	26
52	5
53	1
54	3
55	137
56	10
57	5
58	0
59	64
60	3
61	1
62	2
63	14
64	17
65	61
66	42
67	3
73	0
74	5
75	2
76	4
77	64
78	6
79	3
80	0
82	0
83	3
85	0
86	0
87	64
88	9
89	0
90	2
91	22
92	57
93	999
94	66
95	3
103	2
104	4
105	1
106	8
107	2
108	0
114	1
115	243
116	13
117	4
118	4
119	16
120	44
121	3
128	1
130	3
131	0
132	4
133	1
146	4
147	3
148	17
149	1
161	1
174	3
175	4
176	96
177	11
178	1
207	151
208	25
209	2
