Mass Spectrum: Cyclohexane, 1-acetoxy-1-(3-diethylaminopropyn-1-yl)-
Formula: C15H25NO2
CAS: 54315-44-5
Molecular weight: 251
m/z	intensity
39	143
40	97
41	305
42	145
43	999
44	79
45	12
55	113
56	81
57	13
58	130
65	15
66	12
67	44
69	16
72	55
77	38
79	55
80	25
81	30
86	63
91	172
92	15
117	18
119	116
142	13
179	65
191	19
194	13
236	200
237	22
251	22
