Mass Spectrum: Methyl 1,2,3,4-tetra-O-acetyl-alpha-d-glucopyranuronate
Formula: C15H20O11
CAS: 5432-32-6
Molecular weight: 376
m/z	intensity
13	1
14	11
15	37
16	1
17	1
18	2
25	1
26	1
27	3
28	19
29	11
30	2
31	7
32	2
33	5
39	7
40	2
41	10
42	51
43	999
44	43
45	30
51	1
53	2
54	1
55	9
56	2
57	6
58	2
59	20
60	34
61	12
67	1
68	9
69	5
70	1
71	31
72	2
73	92
74	6
75	5
81	1
82	1
83	11
84	23
85	72
86	10
87	7
89	3
90	66
91	3
95	7
96	8
97	17
98	40
99	11
100	7
101	17
102	27
103	134
104	6
105	1
108	1
109	1
111	9
112	67
113	54
114	16
115	534
116	53
117	5
118	43
119	4
123	7
124	1
125	2
126	34
127	162
128	15
129	4
130	2
131	14
132	22
133	1
137	1
138	1
139	5
140	3
141	4
142	1
143	101
144	416
145	76
146	7
147	1
153	4
154	9
155	266
156	25
157	481
158	44
159	7
160	8
161	5
168	1
169	165
170	15
171	11
172	15
173	40
174	4
175	1
183	1
185	9
186	277
187	27
188	5
189	13
190	2
197	64
198	6
199	1
200	1
203	26
204	2
213	1
214	16
215	108
216	10
217	2
224	1
228	266
229	54
230	7
231	14
232	7
233	1
245	28
246	3
257	64
258	7
259	1
274	30
275	5
316	1
317	56
318	7
319	1
333	2
334	6
335	1
376	1
