Mass Spectrum: Propanedioic acid, (acetylamino)[(3-nitrophenyl)methyl]-, diethyl ester
Formula: C16H20N2O7
CAS: 5432-19-9
Molecular weight: 352
m/z	intensity
33	8
34	2
36	1
37	1
38	5
39	27
40	29
41	27
42	67
43	999
44	76
45	21
46	11
47	66
48	1
49	0
50	11
51	18
52	8
53	6
54	3
55	8
56	24
57	9
58	4
59	9
60	10
61	3
62	7
63	35
64	15
65	21
66	4
67	3
68	2
69	4
70	3
71	5
72	12
73	5
74	21
75	11
76	14
77	25
78	20
79	9
80	3
81	2
82	1
83	2
84	7
85	2
86	6
87	3
88	9
89	115
90	168
91	58
92	7
93	3
94	1
95	2
96	1
97	2
98	1
99	3
100	18
101	11
102	22
103	8
104	14
105	11
106	10
107	9
108	3
109	1
110	1
111	1
112	2
113	1
114	3
115	21
116	58
117	93
118	55
119	21
120	27
121	6
122	1
123	1
124	1
125	6
126	2
127	3
128	6
129	11
130	11
131	10
132	16
133	12
134	6
135	4
136	149
137	14
138	3
139	0
140	1
141	1
142	3
143	12
144	8
145	16
146	86
147	57
148	13
149	10
150	4
151	2
152	5
153	0
154	1
155	1
156	2
157	10
158	13
159	8
160	75
161	10
162	33
163	268
164	32
165	9
166	3
167	0
171	3
172	7
173	17
174	553
175	100
176	22
177	6
178	1
179	0
180	5
181	0
184	0
185	1
186	27
187	6
188	6
189	5
190	4
191	30
192	4
193	6
194	1
195	0
201	6
202	14
203	80
204	12
205	8
206	8
207	6
208	5
209	32
210	4
216	16
217	8
218	9
219	9
220	11
221	16
222	4
223	36
224	5
225	1
229	3
231	13
232	41
233	99
234	21
235	3
236	17
237	555
238	68
239	9
247	3
248	40
249	12
250	2
251	1
252	0
253	0
261	5
262	1
263	6
264	10
265	15
266	3
267	0
276	2
277	3
278	4
279	141
280	22
281	4
292	1
293	113
294	22
295	6
296	0
307	21
308	4
309	8
310	4
312	9
313	2
314	2
321	0
323	1
335	6
336	1
338	3
339	0
352	24
353	6
354	0
