Mass Spectrum: Methyl N-{4-[(methoxycarbonyl)amino]phenyl}carbamate
Formula: C10H12N2O4
CAS: 5433-04-5
Molecular weight: 224
m/z	intensity
33	10
34	2
36	4
37	24
38	68
39	122
40	99
41	86
42	63
43	95
44	111
45	35
50	76
51	234
52	587
53	357
54	78
55	28
56	8
57	9
59	999
60	12
61	23
62	45
63	112
64	81
65	168
66	51
67	74
68	26
69	5
73	8
74	4
75	6
76	25
77	113
78	151
79	203
80	138
81	20
89	1
90	27
91	24
92	26
93	44
94	219
95	16
97	5
103	5
104	36
105	95
106	138
107	33
108	22
109	6
119	96
120	152
121	267
122	74
123	5
132	14
133	223
134	48
135	65
136	2
147	66
148	34
149	30
160	482
161	43
162	4
163	41
164	3
165	169
166	20
167	2
176	3
191	23
192	611
193	80
194	6
224	668
225	81
226	6
