Mass Spectrum: 2,5-Dimethyl-sulfolane
Formula: C6H12OS
CAS: 54344-30-8
Molecular weight: 132
m/z	intensity
26	29
27	287
28	105
29	168
30	4
31	55
32	5
33	2
34	2
35	5
37	7
38	16
39	318
40	53
41	688
42	176
43	94
44	44
45	62
46	12
47	26
48	34
49	10
50	20
51	23
52	9
53	62
54	20
55	990
56	97
57	11
58	20
59	157
60	28
61	34
64	0
65	22
66	6
67	106
68	8
69	38
70	3
71	9
72	7
73	33
74	26
75	10
76	14
77	999
78	30
79	46
80	2
81	29
82	31
83	346
84	27
85	6
87	7
88	1
89	8
90	26
91	7
92	1
93	0
96	0
97	2
98	6
99	8
101	53
102	1
103	10
104	0
111	4
113	2
114	2
115	46
116	19
117	3
130	0
132	458
133	32
134	19
