Mass Spectrum: 1-Oxaspiro[4.5]dec-3-en-6-ol, 6,10,10-trimethyl-, acetate
Formula: C14H22O3
CAS: 54345-70-9
Molecular weight: 238
m/z	intensity
41	350
43	999
55	200
67	130
69	150
77	150
79	140
81	110
91	180
93	180
95	200
107	110
109	270
117	140
119	140
121	150
135	220
163	999
178	300
196	100
223	70
238	50
