Mass Spectrum: 6-Oxabicyclo[3.2.1]oct-2-ene-8-carboxylic acid, 1,8-dimethyl-7-oxo-, methyl ester, anti-(.+/-.)-
Formula: C11H14O4
CAS: 54345-93-6
Molecular weight: 210
m/z	intensity
41	120
53	60
55	50
59	120
65	90
67	50
77	100
79	120
91	529
92	90
95	100
105	140
106	150
107	999
108	110
151	110
166	100
