Mass Spectrum: 1(3H)-Isobenzofuranone, 3a,4,5,7a-tetrahydro-4-hydroxy-3a,7a-dimethyl-, (3a.alpha.,4.beta.,7a.alpha.)-(.+/-.)-
Formula: C10H14O3
CAS: 54346-06-4
Molecular weight: 182
m/z	intensity
41	250
43	120
44	50
51	80
53	130
55	110
65	70
67	110
77	140
79	140
81	120
82	50
91	210
92	50
93	110
94	70
95	170
96	50
105	120
107	180
109	999
110	230
123	120
