Mass Spectrum: 2-Butanone, 4-butoxy-3-methyl-
Formula: C9H18O2
CAS: 54340-94-2
Molecular weight: 158
m/z	intensity
15	60
25	2
26	13
27	43
28	65
29	20
31	5
32	15
36	2
37	20
38	40
39	246
40	32
41	681
42	96
43	999
44	25
45	14
49	5
50	14
51	12
52	4
53	17
54	4
55	66
56	8
57	16
58	5
59	9
60	2
61	4
62	4
63	3
65	5
66	2
67	9
68	3
69	374
70	17
71	67
72	14
73	19
77	3
79	5
81	12
82	2
83	17
84	345
85	75
86	5
87	2
88	2
91	4
93	2
95	3
96	2
97	8
99	2
107	15
108	3
109	4
111	6
123	3
124	4
125	163
126	19
127	2
128	2
130	2
143	30
144	3
