Mass Spectrum: 1-Cyclohexene-1-methanol, .alpha.,2,6,6-tetramethyl-
Formula: C11H20O
CAS: 54345-61-8
Molecular weight: 168
m/z	intensity
26	15
27	225
28	56
29	237
30	7
31	48
37	4
38	11
39	237
40	48
41	637
42	332
43	999
44	51
45	138
46	4
50	12
51	51
52	25
53	152
54	37
55	359
56	112
57	210
58	21
59	106
60	29
61	8
62	3
63	15
64	10
65	91
66	28
67	214
68	40
69	258
70	48
71	70
72	93
73	22
74	16
75	6
76	5
77	175
78	39
79	289
80	40
81	383
82	77
83	210
84	410
85	145
86	21
87	5
88	2
89	8
90	3
91	228
92	42
93	445
94	88
95	285
96	42
97	165
98	199
99	65
100	30
101	7
102	18
103	19
104	11
105	97
106	29
107	462
108	72
109	267
110	180
111	175
112	31
113	13
114	2
115	14
116	5
117	12
118	4
119	56
120	25
121	92
122	40
123	588
124	86
125	150
126	21
127	6
128	3
129	8
133	10
134	13
135	946
136	109
137	25
138	7
139	11
140	82
141	11
142	3
149	28
150	217
151	37
152	7
153	434
154	52
155	7
156	5
166	2
167	6
168	350
169	43
170	3
