Mass Spectrum: 2-Cyclohexen-1-ol, 2,6,6-trimethyl-
Formula: C9H16O
CAS: 54345-59-4
Molecular weight: 140
m/z	intensity
26	18
27	414
28	107
29	378
30	21
31	60
38	27
39	498
40	21
41	792
42	52
43	999
45	42
51	63
52	27
53	121
54	55
55	747
56	669
57	243
58	14
59	24
60	3
61	2
62	5
63	18
64	4
65	60
66	25
67	90
68	19
69	199
70	30
71	40
72	54
73	3
74	2
75	2
76	2
77	80
78	16
79	88
80	13
81	155
82	43
83	628
84	649
85	284
86	12
91	95
92	14
93	35
94	10
95	39
96	11
97	47
102	23
105	27
106	23
107	162
108	23
109	33
110	13
111	18
112	19
119	1
121	6
122	7
123	32
124	4
125	679
126	45
127	3
139	2
140	560
141	50
142	2
