Mass Spectrum: 2-Cyclohexen-1-ol, 2,6,6-trimethyl-, acetate
Formula: C11H18O2
CAS: 54345-58-3
Molecular weight: 182
m/z	intensity
41	300
43	999
55	220
57	100
67	100
69	180
81	130
84	450
91	120
93	120
95	120
98	599
107	450
109	200
112	100
122	599
123	190
154	200
