Mass Spectrum: Octahydrobenzo[b]pyran, 4a-acetoxy-5,5,8a-trimethyl-
Formula: C14H24O3
CAS: 54344-83-1
Molecular weight: 240
m/z	intensity
26	11
27	85
28	29
29	132
30	7
31	26
37	4
38	10
39	163
40	88
41	455
42	140
43	695
44	46
45	192
46	8
50	9
51	26
52	23
53	137
54	77
55	285
56	67
57	38
58	16
59	17
60	153
61	11
63	11
64	7
65	57
66	27
67	141
68	77
69	496
70	61
71	228
72	22
73	8
74	9
75	9
76	6
77	95
78	27
79	122
80	31
81	145
82	146
83	174
84	122
85	142
86	26
87	17
88	6
89	7
91	105
92	23
93	99
94	42
95	177
96	228
97	236
98	226
99	40
100	9
101	5
102	5
103	14
104	10
105	62
106	19
107	70
108	40
109	191
110	136
111	999
112	31
113	70
114	86
115	18
116	7
117	11
118	6
119	51
120	14
121	120
122	37
123	210
124	857
125	145
126	34
127	45
128	20
129	9
130	5
131	7
132	4
133	17
134	9
135	41
136	30
137	142
138	57
139	75
140	16
141	8
142	6
145	7
146	5
147	21
148	7
149	30
150	12
151	35
152	26
153	11
154	5
155	8
156	7
159	5
160	4
161	22
162	7
163	20
164	7
165	123
166	22
167	9
168	6
169	22
170	8
171	4
177	7
178	13
179	33
180	449
181	91
182	12
183	8
184	5
192	8
193	5
194	18
195	6
196	5
197	39
198	10
199	4
224	2
225	4
240	21
241	4
