Mass Spectrum: 2-Hexene, 1-butoxy-, (E)-
Formula: C10H20O
CAS: 54340-67-9
Molecular weight: 156
m/z	intensity
39	120
40	20
41	490
42	80
43	120
44	60
45	30
50	10
51	20
52	120
53	50
54	80
55	420
56	220
57	999
58	60
59	10
65	10
66	10
67	120
68	10
69	30
70	10
71	200
72	50
73	10
81	20
82	220
83	200
84	10
85	20
88	10
99	10
100	60
101	10
113	180
114	10
127	20
156	90
157	10
