Mass Spectrum: 3-Benzoyl-1-methylpyrrolidin-2-one
Formula: C12H13NO2
CAS: 54343-55-4
Molecular weight: 203
m/z	intensity
12	1
13	1
14	6
15	130
16	3
17	2
18	17
20	0
26	19
27	122
28	80
29	23
30	23
31	4
32	0
35	0
36	3
37	4
38	19
39	123
40	24
41	173
42	312
43	59
44	92
45	3
49	4
50	93
51	310
52	27
53	21
54	14
55	91
56	25
57	175
58	33
59	1
60	0
61	2
62	8
63	19
64	4
65	10
66	6
67	4
68	41
69	66
70	111
71	6
72	1
73	3
74	24
75	23
76	38
77	825
78	70
79	7
80	4
81	3
82	2
83	3
84	1
85	1
86	6
87	4
89	9
90	2
91	16
92	2
93	0
95	0
96	5
97	29
98	513
99	36
100	3
102	7
103	13
105	999
106	78
107	6
108	2
113	1
114	1
115	26
116	6
117	13
118	5
119	1
120	0
123	1
124	2
125	3
126	12
127	6
128	7
129	3
130	1
131	9
132	8
133	6
134	2
143	1
144	6
145	6
146	3
147	28
148	2
156	1
158	1
160	1
172	1
173	1
174	3
175	15
176	2
184	2
185	2
186	3
203	159
204	38
205	3
