Mass Spectrum: 1H-2-Benzothiopyran, octahydro-, cis-
Formula: C9H16S
CAS: 54340-74-8
Molecular weight: 156
m/z	intensity
39	794
40	115
41	999
42	75
43	74
44	7
45	476
46	189
47	231
48	15
49	12
50	39
51	114
52	59
53	335
54	210
55	398
56	34
57	11
58	54
59	124
60	131
61	251
62	26
63	40
64	28
65	132
66	69
67	818
68	199
69	85
70	10
71	46
72	22
73	82
74	57
75	32
76	6
77	144
78	44
79	392
80	166
81	588
82	68
83	8
84	12
85	141
86	61
87	109
88	14
89	9
90	1
91	76
92	17
93	356
94	179
95	398
96	310
97	45
98	6
99	379
100	90
101	52
102	12
103	5
104	1
105	11
106	3
107	152
108	91
109	900
110	87
111	9
112	4
113	284
114	38
115	34
116	4
117	2
118	1
119	2
120	2
121	17
122	265
123	41
124	3
125	3
126	3
127	39
128	34
129	5
130	2
139	2
141	612
142	59
143	29
144	2
145	1
152	1
153	1
154	3
155	28
156	935
157	102
158	46
159	4
160	1
