Mass Spectrum: 6-Oxabicyclo[3.2.1]oct-2-ene-8-carboxylic acid, 1,8-dimethyl-7-oxo-, anti-(.+/-.)-
Formula: C10H12O4
CAS: 54345-92-5
Molecular weight: 196
m/z	intensity
43	70
44	410
45	100
51	110
52	50
53	100
55	60
65	100
67	50
77	230
78	60
79	130
91	599
92	80
93	340
95	50
105	110
106	110
107	999
108	110
109	90
137	50
152	160
