Mass Spectrum: 4-Hexenoic acid, 2-amino-6-hydroxy-4-methyl-
Formula: C7H13NO3
CAS: 54340-82-8
Molecular weight: 159
m/z	intensity
41	510
42	280
43	450
44	470
45	350
46	100
50	50
51	60
52	50
53	250
54	80
55	150
56	230
57	160
58	220
60	200
65	50
67	400
68	999
69	150
70	220
71	90
72	50
73	50
74	420
75	100
79	60
80	80
81	70
82	200
83	90
84	60
93	50
94	80
95	50
96	380
97	70
98	60
114	70
128	50
141	40
