Mass Spectrum: 3-Hexene, 1-(1-methoxyethoxy)-, (E)-
Formula: C9H18O2
CAS: 54340-97-5
Molecular weight: 158
m/z	intensity
14	7
15	34
16	3
17	1
18	12
26	11
27	81
28	78
29	151
30	8
31	107
32	37
39	96
40	10
41	230
42	35
43	89
44	37
45	19
51	11
53	32
54	67
55	336
56	45
57	77
58	58
59	999
60	29
65	13
67	133
68	12
69	18
71	88
72	10
73	6
75	17
77	6
79	13
81	20
82	97
83	272
84	26
85	16
97	9
98	7
99	5
100	5
111	6
114	60
115	15
126	18
127	10
143	3
