Mass Spectrum: 1-Oxaspiro[4.5]dec-3-ene, 6,6-dimethyl-10-methylene-
Formula: C12H18O
CAS: 54345-69-6
Molecular weight: 178
m/z	intensity
41	599
43	150
53	170
55	250
69	499
79	370
81	170
91	150
93	220
95	170
107	200
109	250
111	999
122	999
