Mass Spectrum: 1H-Isoindole-1,3(2H)-dione, 4-(acetyloxy)hexahydro-3a-methyl-2-phenyl-, [3aR-(3a.alpha.,4.beta.,7a.alpha.)]-
Formula: C17H19NO4
CAS: 54346-15-5
Molecular weight: 301
m/z	intensity
43	999
47	50
49	100
51	100
53	150
64	50
65	50
67	100
77	210
79	210
91	150
93	170
94	280
95	150
111	80
119	140
188	400
189	240
202	170
231	280
259	190
301	559
