Mass Spectrum: 2H-1-Benzothiopyran, octahydro-, trans-
Formula: C9H16S
CAS: 54340-73-7
Molecular weight: 156
m/z	intensity
24	1
25	1
26	7
27	82
28	28
29	47
30	1
32	4
33	2
34	4
35	5
36	1
37	2
38	6
39	116
40	21
41	159
42	12
43	14
44	5
45	76
46	15
47	49
48	2
49	3
50	7
51	22
52	13
53	71
54	34
55	87
56	7
57	4
58	41
59	36
60	25
61	25
62	5
63	8
64	9
65	34
66	18
67	196
68	38
69	14
70	2
71	37
72	10
73	18
74	10
75	6
76	5
77	48
78	13
79	143
80	34
81	163
82	16
83	3
84	4
85	50
86	16
87	154
88	10
89	9
90	1
91	22
92	4
93	40
94	35
95	33
96	23
97	28
98	5
99	25
100	338
101	34
102	17
103	2
104	1
106	1
107	19
108	4
109	48
110	5
111	5
112	3
113	999
114	118
115	55
116	6
117	1
118	1
119	1
120	1
121	4
122	12
123	3
124	1
125	1
126	1
127	55
128	111
129	13
130	6
131	1
132	1
135	1
141	6
142	1
143	1
153	1
154	1
155	3
156	390
157	42
158	21
159	2
160	1
161	1
