Mass Spectrum: 2-Pentene, 1-(pentyloxy)-, (E)-
Formula: C10H20O
CAS: 54340-68-0
Molecular weight: 156
m/z	intensity
39	110
40	30
41	510
42	130
43	720
44	90
45	30
51	10
52	10
53	60
54	20
55	150
56	30
57	999
58	60
59	10
65	10
66	10
67	60
68	110
69	500
70	130
71	200
72	10
83	10
84	10
85	20
86	290
87	30
99	50
127	130
128	10
156	90
157	10
