Mass Spectrum: Cyclohexanol, 1-ethyl-2,2-dimethyl-6-methylene-
Formula: C11H20O
CAS: 54345-64-1
Molecular weight: 168
m/z	intensity
41	310
43	619
55	270
57	400
69	320
70	230
71	100
81	170
83	120
95	280
96	130
99	999
111	150
139	220
168	180
