Mass Spectrum: 2-Butenoic acid, 2-methyl-,8-methyl-6-(1-oxopropoxy)-8-azabicyclo[3.2.1]oct-3-yl ester, [1R-[1.alpha.,3.beta.(E),5.alpha.,6.alpha.]]-
Formula: C16H25NO4
CAS: 54354-59-5
Molecular weight: 295
m/z	intensity
42	230
55	260
57	160
81	130
82	100
83	200
94	999
95	950
96	140
122	390
138	190
195	80
196	110
295	60
