Mass Spectrum: 3-Phenoxypropylamine, 2-allyl-.beta.-hydroxy-N-[3.3-dimethylpropargyl]-
Formula: C17H23NO2
CAS: 54356-63-7
Molecular weight: 273
m/z	intensity
41	124
42	40
43	53
44	23
45	26
47	29
48	17
49	20
50	29
51	110
52	29
53	27
54	10
55	30
56	17
57	27
58	10
59	7
60	21
61	2
62	8
63	32
64	11
65	73
66	18
67	145
68	28
69	9
70	9
71	11
72	12
73	2
74	16
75	10
76	10
77	115
78	56
79	63
80	72
81	25
82	14
83	10
84	5
85	2
86	85
87	3
88	16
89	37
90	9
91	233
92	24
93	10
94	23
96	999
97	76
98	4
99	1
100	2
101	2
102	11
103	37
104	15
105	72
106	17
107	96
108	22
109	4
110	6
111	3
112	1
113	4
114	3
115	131
116	34
117	49
118	20
119	168
120	17
121	10
122	6
123	3
124	18
125	4
126	32
127	8
128	8
129	19
130	0
131	109
132	38
133	192
134	292
135	37
136	4
137	1
138	10
139	2
140	5
141	3
142	2
143	1
144	4
145	13
146	6
147	51
148	8
149	4
150	2
151	1
152	2
153	3
154	1
155	3
156	0
157	5
158	3
159	22
160	6
161	2
162	0
163	0
164	0
165	1
166	6
167	1
168	0
169	3
170	1
171	4
172	1
173	8
174	1
176	1
177	6
178	2
179	0
180	1
181	1
182	4
183	6
184	3
185	4
186	16
187	2
188	0
190	4
191	1
192	0
195	0
197	2
198	1
199	3
200	4
201	1
202	0
203	1
206	1
207	0
208	0
211	1
212	1
213	0
214	0
215	0
216	0
218	0
219	0
240	3
241	0
242	1
243	0
248	4
249	0
256	1
258	37
259	6
272	3
273	23
274	9
275	1
