Mass Spectrum: 1H-Isoindole-1,3(2H)-dione, hexahydro-4-hydroxy-7a-methyl-2-phenyl-, [3aS-(3a.alpha.,4.beta.,7a.alpha.)]-
Formula: C15H17NO3
CAS: 54355-48-5
Molecular weight: 259
m/z	intensity
43	290
44	80
51	150
53	160
55	310
56	80
57	90
63	50
64	120
65	150
66	70
67	210
68	100
69	200
70	699
77	410
78	50
79	140
81	110
82	70
83	190
84	220
91	200
92	50
93	999
94	270
95	310
96	100
97	569
98	80
104	50
110	60
188	759
189	799
190	150
259	699
