Mass Spectrum: 2(5H)-Furanone, 4-hydroxy-3,5-diphenyl-
Formula: C16H12O3
CAS: 5435-01-8
Molecular weight: 252
m/z	intensity
26	30
27	40
29	50
38	10
39	110
40	20
41	30
43	50
44	120
45	20
50	70
51	180
52	50
53	10
55	20
57	20
62	50
63	160
64	50
65	60
69	40
72	10
74	20
75	30
76	60
77	420
78	80
79	60
87	10
88	20
89	470
90	400
91	160
92	20
102	40
103	30
105	560
106	80
107	90
117	80
118	999
119	480
120	50
122	70
126	20
131	20
139	20
145	330
146	60
147	900
148	90
149	20
151	20
152	40
161	20
163	20
165	50
166	10
167	30
174	80
189	20
190	20
195	30
205	20
207	20
208	20
223	100
224	50
252	700
253	120
254	10
