Mass Spectrum: Piperazine, 2,5-dimethyl-3-propyl-
Formula: C9H20N2
CAS: 54365-81-0
Molecular weight: 156
m/z	intensity
14	5
15	125
16	6
17	28
18	135
25	1
26	22
27	293
28	590
29	240
30	378
31	7
32	3
37	3
38	8
39	161
40	33
41	391
42	435
43	507
44	742
45	33
46	2
47	1
48	17
49	18
50	4
51	9
52	11
53	42
54	68
55	186
56	460
57	182
58	780
59	31
60	2
61	1
62	1
63	4
64	1
65	6
66	5
67	29
68	103
69	57
70	827
71	83
72	290
73	21
74	1
75	2
76	1
77	3
78	2
79	4
80	13
81	13
82	57
83	79
84	291
85	132
86	42
87	9
88	1
91	1
92	1
93	2
94	7
95	11
96	25
97	38
98	365
99	294
100	999
101	70
102	2
107	2
108	3
109	8
110	9
111	24
112	59
113	393
114	31
115	2
120	2
121	24
122	7
123	4
124	8
125	4
126	8
127	1
135	5
136	1
137	4
138	1
139	4
140	5
141	91
142	9
143	1
149	3
150	2
151	1
152	2
153	1
154	6
155	15
156	91
157	12
158	1
