Mass Spectrum: (7E,9E)-Dodecadienyl acetate
Formula: C14H24O2
CAS: 54364-63-5
Molecular weight: 224
m/z	intensity
41	130
43	420
53	30
54	70
55	250
66	40
67	970
68	330
69	150
79	750
80	300
81	510
82	999
83	150
93	440
94	300
95	940
96	400
107	300
108	360
109	150
110	60
121	460
122	150
123	40
135	380
136	120
163	80
164	420
165	60
224	610
225	90
