Mass Spectrum: 1,3,5,7-Cyclooctatetraene-1-propanol
Formula: C11H14O
CAS: 54365-73-0
Molecular weight: 162
m/z	intensity
39	152
40	21
41	54
50	54
51	155
52	49
53	70
74	21
75	32
76	49
77	223
78	288
79	27
89	46
90	10
91	501
92	70
115	506
116	299
117	999
118	790
119	87
127	59
128	98
129	136
130	24
131	218
132	19
162	280
163	27
