Mass Spectrum: (7E,9E)-Dodecadien-1-ol
Formula: C12H22O
CAS: 54364-61-3
Molecular weight: 182
m/z	intensity
54	80
55	150
67	780
68	310
69	120
70	600
71	500
79	360
80	170
81	410
82	999
83	170
93	200
94	100
95	840
96	270
97	70
98	100
107	130
108	150
109	200
110	60
111	70
121	200
122	70
123	50
135	140
164	80
165	20
182	690
183	90
