Mass Spectrum: 2,4(3H,5H)-Furandione, 3-ethyl-
Formula: C6H8O3
CAS: 5436-14-6
Molecular weight: 128
m/z	intensity
29	80
38	50
39	210
40	70
41	200
42	220
43	70
55	999
56	60
68	40
69	100
70	730
71	50
100	580
101	70
110	50
113	90
128	400
129	40
