Mass Spectrum: Dimethyl nitromalonate
Formula: C5H7NO6
CAS: 5437-67-2
Molecular weight: 177
m/z	intensity
12	1
13	6
14	10
15	394
16	8
25	1
26	9
27	26
28	83
29	154
30	238
31	141
32	18
33	6
39	1
40	5
41	97
42	65
43	47
44	85
45	69
46	114
47	155
48	4
53	1
54	18
55	7
56	4
57	20
58	9
59	648
60	17
61	4
62	2
65	1
68	9
69	587
70	55
71	34
72	6
73	14
74	4
75	345
76	12
77	2
84	2
86	7
87	2
88	6
89	2
91	10
92	7
100	125
101	33
102	9
103	999
104	45
105	8
115	1
117	1
118	2
119	1
129	11
130	2
131	411
132	25
133	4
146	102
147	5
148	1
161	1
