Mass Spectrum: 6-Hydroxy-3-(methoxymethyl)-4,6-dimethyl-1,8-dioxaspiro[4.4]nonane-2,7-dione
Formula: C11H16O6
CAS: 54370-16-0
Molecular weight: 244
m/z	intensity
53	98
54	196
55	261
57	98
67	76
69	174
70	326
71	152
72	87
73	65
81	76
82	467
83	185
85	152
95	54
96	152
97	120
111	999
122	76
123	54
124	359
125	120
141	87
155	130
156	207
173	54
244	76
