Mass Spectrum: Dimethyl 3-hydroxy-6-oxo-2,4,5-trimethyltetrahydropyran-2,3-dicarboxylate
Formula: C12H18O7
CAS: 54370-19-3
Molecular weight: 274
m/z	intensity
41	265
43	999
55	288
56	235
57	212
59	492
83	288
115	242
116	295
127	167
143	333
155	848
171	258
172	947
197	167
215	840
274	30
