Mass Spectrum: Benzoic acid, 3-methyl-2-nitro-
Formula: C8H7NO4
CAS: 5437-38-7
Molecular weight: 181
m/z	intensity
12	1
14	1
15	6
16	3
17	1
18	3
25	2
26	18
27	86
28	25
29	28
30	139
31	6
32	1
36	2
37	43
38	88
39	405
40	35
41	51
42	4
43	229
44	21
45	76
46	25
47	1
48	2
49	20
50	121
51	269
52	151
53	176
54	11
55	34
56	2
57	2
58	1
60	6
61	55
62	163
63	432
64	231
65	356
66	41
67	20
68	14
69	5
70	2
71	1
72	1
73	10
74	54
75	63
76	42
77	999
78	187
79	388
80	49
81	21
82	2
83	3
84	4
85	18
86	36
87	37
88	31
89	437
90	172
91	598
92	305
93	37
94	6
95	6
96	1
97	2
98	1
99	3
100	1
101	1
102	4
103	21
104	39
105	210
106	44
107	78
108	25
109	6
115	1
116	31
117	53
118	61
119	526
120	62
121	9
122	2
123	3
131	1
132	4
133	112
134	19
135	176
136	24
137	6
146	19
147	11
148	2
149	4
151	10
152	2
161	5
162	6
163	287
164	47
165	8
166	1
180	1
181	255
182	24
183	4
