Mass Spectrum: Pyrrolidine, 1-acetyl-2-(chloromethyl)-
Formula: C7H12ClNO
CAS: 54385-06-7
Molecular weight: 161
m/z	intensity
26	7
27	50
28	83
29	20
30	28
31	5
35	4
36	23
37	3
38	9
39	54
40	15
41	97
42	64
43	240
44	24
45	8
49	13
50	4
51	11
52	7
53	19
54	26
55	38
56	44
57	14
58	2
59	2
60	5
61	3
62	3
63	4
64	3
65	6
66	3
67	21
68	48
69	17
70	999
71	64
72	8
73	9
74	1
75	8
76	5
77	6
78	5
79	3
80	10
81	4
82	37
83	31
84	74
85	11
86	2
87	2
88	2
89	3
90	6
91	10
92	4
93	2
94	2
95	2
96	2
97	4
98	2
99	2
101	2
103	2
104	3
105	3
106	2
107	3
108	2
109	2
110	2
111	3
112	408
113	33
114	3
115	2
116	2
117	2
118	33
119	4
120	10
121	2
125	10
126	58
127	8
128	2
160	1
161	99
162	10
163	35
164	4
165	2
