Mass Spectrum: 4-Isobenzofuranol, octahydro-3a,7a-dimethyl-, (3a.alpha.,4.beta.,7a.alpha.)-(.+-.)-
Formula: C10H18O2
CAS: 54382-58-0
Molecular weight: 170
m/z	intensity
41	839
42	110
43	579
44	160
45	50
51	80
53	250
54	70
55	499
56	80
57	230
65	70
67	350
68	110
69	310
70	270
71	130
77	100
79	150
80	50
81	420
82	250
83	190
84	200
85	50
91	90
93	180
94	130
95	310
96	300
97	320
98	90
107	210
108	150
109	999
110	200
111	120
121	100
122	210
123	230
125	50
137	150
140	120
152	240
170	200
