Mass Spectrum: 2-Allylpent-4-enoic acid, methyl ester
Formula: C9H14O2
CAS: 54385-33-0
Molecular weight: 154
m/z	intensity
26	44
27	371
28	15
29	103
30	11
31	25
37	16
38	48
39	644
40	86
41	895
42	73
43	105
45	61
50	45
51	102
52	61
53	494
54	205
55	354
56	23
57	27
58	43
59	342
60	11
61	11
62	12
63	27
65	78
66	114
67	423
68	129
69	51
70	16
71	172
72	21
73	14
74	49
75	45
77	117
78	42
79	393
80	371
81	760
82	186
83	35
84	33
85	105
86	11
87	179
88	13
91	53
92	16
93	106
94	483
95	851
96	93
97	122
98	41
99	34
100	60
107	20
111	173
112	234
113	999
114	81
115	11
122	141
123	178
124	19
125	46
126	30
127	10
139	32
154	54
