Mass Spectrum: 7-Propyl-cis-bicyclo[3.2.0]hept-6-en-2-one
Formula: C10H14O
CAS: 54396-45-1
Molecular weight: 150
m/z	intensity
77	340
79	670
83	999
91	280
93	400
94	120
107	390
108	45
121	70
122	60
150	350
