Mass Spectrum: 1,4:5,8-Dimethanoanthracene-9,10-dione, 1,4,4a,5,8,8a,9a,10a-octahydro-
Formula: C16H16O2
CAS: 5439-22-5
Molecular weight: 240
m/z	intensity
26	17
27	33
28	5
29	1
31	1
33	0
36	0
37	3
38	10
39	106
40	67
41	22
42	1
43	1
45	1
46	2
50	7
51	35
52	12
53	17
54	29
55	22
56	0
57	0
58	0
59	0
60	2
61	1
62	4
63	17
64	8
65	118
66	999
67	128
68	6
69	1
72	0
74	0
75	1
76	2
77	22
78	22
79	19
80	5
81	7
82	20
83	3
84	0
86	1
87	0
89	9
90	4
91	110
92	30
93	5
94	1
95	3
96	19
97	2
101	0
102	1
103	6
104	4
105	6
106	3
107	3
108	2
109	45
110	8
115	16
116	8
117	27
118	12
119	16
120	4
121	2
127	5
128	12
129	12
130	4
131	16
132	12
133	10
134	10
135	0
141	1
142	1
143	2
144	2
145	23
146	69
147	23
148	3
149	0
152	1
153	1
155	2
156	5
157	4
158	11
159	3
160	1
161	5
162	3
163	0
165	1
167	0
168	0
169	1
170	0
171	2
172	2
173	13
174	423
175	82
176	8
177	0
178	0
179	0
180	0
181	0
183	1
184	2
185	1
194	1
195	0
196	0
197	0
198	1
199	2
211	1
212	60
213	8
214	1
221	0
223	1
240	206
241	33
242	4
