Mass Spectrum: 2-Ethoxyethyl isobutyrate
Formula: C8H16O3
CAS: 54396-97-3
Molecular weight: 160
m/z	intensity
14	3
15	32
16	2
17	4
18	13
26	14
27	168
28	52
29	147
30	5
31	298
32	5
33	1
37	1
38	3
39	42
40	9
41	145
42	42
43	999
44	293
45	270
46	7
47	2
50	1
53	1
55	14
56	4
57	9
58	5
59	421
60	15
61	6
65	1
69	7
70	24
71	713
72	666
73	51
74	5
75	1
77	1
78	3
86	45
87	24
88	19
89	66
90	4
91	1
99	4
101	9
102	4
113	1
114	1
115	47
116	65
117	6
