Mass Spectrum: 1-Benzenesulfonyl-5-fluorouracil
Formula: C10H7FN2O4S
CAS: 54390-99-7
Molecular weight: 270
m/z	intensity
31	60
39	58
44	82
50	117
51	284
58	112
76	65
77	999
78	192
94	63
104	55
114	58
115	58
116	55
125	69
130	58
134	10
135	45
141	810
142	148
143	125
163	46
206	330
207	78
270	127
271	58
