Mass Spectrum: Palmidrol
Formula: C18H37NO2
CAS: 544-31-0
Molecular weight: 299
m/z	intensity
39	19
41	168
42	41
43	153
44	77
53	12
54	27
55	147
56	28
57	68
67	26
68	20
69	47
70	12
71	16
81	13
82	10
83	26
84	8
85	999
86	103
95	6
96	17
97	12
98	533
99	131
100	9
110	9
111	11
112	93
113	10
124	12
125	8
126	30
127	12
138	7
139	1
140	135
141	17
142	1
147	1
152	4
154	76
155	10
156	1
163	1
165	1
166	3
168	36
169	5
177	1
180	3
182	29
183	4
191	3
193	1
194	2
195	1
196	33
197	5
207	29
208	9
209	4
210	22
211	4
222	5
224	18
225	3
236	1
238	47
239	8
250	2
252	44
253	4
266	9
267	2
269	1
280	37
281	20
282	4
