Mass Spectrum: n-Butyl nitrite
Formula: C4H9NO2
CAS: 544-16-1
Molecular weight: 103
m/z	intensity
15	36
16	16
17	2
18	10
19	10
20	3
25	5
26	92
27	761
28	292
29	564
30	692
31	97
32	26
37	18
38	43
39	333
40	48
41	999
42	110
43	727
44	55
45	9
46	9
49	2
50	12
51	9
52	2
53	8
54	2
55	19
56	4
57	103
58	4
60	226
61	2
71	11
72	1
73	5
74	1
86	1
88	3
102	45
103	3
104	3
