Mass Spectrum: s-(p-Chlorobenzyl)-thiuronium chloride
Formula: C8H9ClN2S
CAS: 544-47-8
Molecular weight: 200
m/z	intensity
41	8
42	37
43	891
44	371
45	360
46	5
47	21
48	11
49	8
50	31
51	45
52	6
53	2
55	0
56	3
57	2
58	5
59	9
60	17
61	13
62	31
63	94
64	16
65	13
69	14
70	3
71	4
72	3
73	28
74	11
75	39
76	18
77	43
78	10
79	5
81	2
82	5
83	0
84	3
85	7
86	8
87	8
88	15
89	169
90	45
91	10
93	4
94	1
95	2
96	2
97	5
99	53
100	4
101	14
102	0
106	3
108	0
111	10
112	12
113	7
114	4
115	1
117	1
119	1
120	5
121	21
122	9
123	32
125	999
126	70
127	308
128	18
129	2
131	1
132	10
137	0
138	7
140	11
141	1
142	4
148	3
150	2
152	0
153	40
154	7
155	33
156	10
157	35
158	50
159	15
160	24
161	2
162	5
165	6
166	0
167	74
168	8
169	25
170	3
182	2
183	16
184	8
185	26
186	4
187	8
197	2
199	16
200	417
201	65
202	139
203	24
204	8
205	0
