Mass Spectrum: .alpha.-D-Galactopyranose, 6-O-(trimethylsilyl)-, cyclic 1,2:3,4-bis(methylboronate)
Formula: C11H22B2O6Si
CAS: 54400-98-5
Molecular weight: 300
m/z	intensity
30	17
31	34
35	20
36	37
37	19
38	31
39	80
40	40
41	106
42	176
43	284
44	392
45	248
46	30
47	159
48	25
50	14
51	25
52	21
53	47
54	41
55	166
56	56
57	81
58	44
59	175
60	33
61	67
63	12
64	18
65	18
66	24
67	24
68	32
69	111
70	30
71	36
72	43
73	821
74	96
75	832
76	62
77	93
78	38
79	20
80	18
81	61
82	26
83	137
84	425
85	237
86	29
87	38
88	16
89	146
90	18
91	19
92	19
93	38
94	18
95	34
96	68
97	407
98	45
99	77
100	28
101	165
102	30
103	386
104	54
105	81
106	10
107	12
108	17
109	62
110	35
111	74
112	32
113	103
114	32
115	76
116	69
117	999
118	173
119	98
120	10
121	25
122	20
123	35
124	24
125	46
126	26
127	84
128	22
129	317
130	48
131	123
132	24
133	23
134	7
135	14
138	39
139	129
140	31
141	35
142	47
143	139
144	47
145	144
146	29
147	48
148	22
149	20
150	37
151	114
152	25
153	21
154	18
155	64
156	25
157	27
158	39
159	218
160	36
161	22
163	17
167	23
168	27
169	40
170	47
171	178
172	36
173	20
175	10
180	6
181	16
182	35
183	115
184	23
185	36
186	18
187	30
189	10
190	7
191	9
192	15
193	30
194	12
195	9
197	24
198	29
199	25
200	24
201	54
202	16
205	6
206	7
207	13
211	10
212	22
213	57
214	23
215	19
219	6
223	6
224	24
225	57
226	22
228	8
229	6
242	17
243	37
244	20
249	6
254	23
255	24
256	9
257	8
261	6
266	7
267	15
283	21
284	64
285	102
286	25
