Mass Spectrum: .alpha.-L-Galactopyranoside, methyl 6-deoxy-2-O-(trimethylsilyl)-, cyclic methylboronate
Formula: C11H23BO5Si
CAS: 54400-92-9
Molecular weight: 274
m/z	intensity
30	20
31	42
33	16
35	10
36	42
37	10
38	30
39	94
40	38
41	164
42	69
43	264
44	363
45	322
46	25
47	100
48	20
50	13
51	28
52	16
53	43
54	27
55	72
56	28
57	123
58	41
59	245
60	33
61	53
63	14
64	15
65	27
66	24
67	16
68	29
69	51
70	26
71	46
72	41
73	999
74	203
75	657
76	46
77	54
78	19
79	21
80	17
81	26
82	31
83	55
84	55
85	52
86	28
87	32
88	23
89	324
90	37
91	41
92	14
93	34
94	19
95	21
96	43
97	129
98	32
99	48
100	18
101	106
102	27
103	106
104	21
105	12
109	9
110	42
111	137
112	23
113	32
114	24
115	400
116	146
117	107
118	22
119	30
123	19
124	11
125	25
126	15
127	36
128	18
129	85
130	960
131	336
132	69
133	79
134	22
136	9
140	10
141	32
142	21
143	152
144	33
145	40
146	292
147	58
148	30
151	8
153	16
154	8
155	23
156	100
157	430
158	52
159	34
160	6
161	12
162	6
167	11
170	9
171	36
172	9
173	28
174	8
183	37
184	18
185	117
186	26
187	20
190	6
192	6
193	8
198	13
199	22
200	9
202	7
207	6
208	6
209	15
213	22
214	34
215	13
226	25
227	55
228	11
229	6
230	10
243	35
244	9
274	9
