Mass Spectrum: .alpha.-D-Galactopyranoside, methyl 2,6-bis-O-(trimethylsilyl)-, cyclic methylboronate
Formula: C14H31BO6Si2
CAS: 54400-89-4
Molecular weight: 362
m/z	intensity
30	25
31	39
36	32
37	16
38	22
39	53
40	42
41	77
42	45
43	130
44	113
45	275
46	35
47	70
48	11
49	19
50	49
51	51
52	85
53	49
54	30
55	90
56	52
57	61
58	59
59	265
60	45
61	65
63	13
65	14
66	6
67	22
68	33
69	98
70	30
71	57
72	54
73	999
74	172
75	503
76	50
77	67
78	30
79	106
80	8
81	77
82	13
83	59
84	51
85	54
86	25
87	37
88	11
89	274
90	36
91	27
93	19
94	9
95	23
96	55
97	207
98	47
99	57
100	33
101	153
102	31
103	195
104	36
105	38
107	7
109	48
110	51
111	86
112	20
113	65
114	171
115	651
116	198
117	334
118	43
119	45
120	9
122	15
123	33
124	14
125	33
126	29
127	52
128	34
129	356
130	67
131	221
132	38
133	123
134	29
135	21
137	15
138	25
139	39
140	24
141	43
142	48
143	106
144	37
145	65
146	148
147	458
148	85
149	83
150	30
151	36
153	23
154	8
155	104
156	53
157	198
158	43
159	87
160	29
161	35
162	11
163	51
164	9
165	8
167	13
168	12
169	95
170	44
171	119
172	32
173	42
174	33
175	45
176	12
177	39
178	9
181	11
182	15
183	63
184	38
185	75
186	23
187	24
188	20
189	84
190	31
191	442
192	93
193	51
194	6
197	39
198	32
199	57
200	25
201	36
202	14
203	86
204	427
205	89
206	49
207	38
208	8
210	16
211	42
212	44
213	47
214	24
215	43
216	15
217	233
218	451
219	113
220	52
221	10
223	9
224	13
225	37
226	18
227	29
229	12
230	91
231	164
232	48
233	33
234	8
239	10
240	17
241	31
242	19
243	48
244	15
245	107
246	369
247	90
248	47
255	11
256	15
257	36
258	27
259	54
260	7
261	9
271	11
273	61
274	22
275	10
285	9
287	49
288	17
289	17
301	7
314	13
315	43
316	12
