Mass Spectrum: .alpha.-D-Xylofuranose, cyclic 1,2:3,5-bis(methylboronate)
Formula: C7H12B2O5
CAS: 54400-96-3
Molecular weight: 198
m/z	intensity
30	29
31	35
35	18
36	33
37	19
38	36
39	191
40	55
41	179
42	439
43	832
44	386
45	86
46	12
47	65
49	13
50	17
51	39
53	64
54	124
55	211
56	194
57	307
58	40
59	33
61	21
64	18
66	20
67	23
68	135
69	129
70	29
71	37
72	30
73	48
74	16
75	363
76	37
77	34
78	19
79	16
80	16
81	42
82	59
83	499
84	979
85	802
86	68
87	28
93	24
95	25
96	432
97	999
98	295
99	87
100	41
101	23
109	178
110	782
111	144
112	183
113	325
114	44
115	34
124	31
125	72
126	129
127	63
128	78
129	23
135	11
137	27
138	92
139	246
140	32
141	37
142	18
147	32
149	16
151	30
152	36
153	28
155	23
156	23
166	14
167	37
168	97
169	91
170	20
183	17
