Mass Spectrum: 9,19-Cyclolanost-23-en-3-ol, 25-methoxy-, acetate, (3.beta.,23E)-
Formula: C33H54O3
CAS: 54411-94-8
Molecular weight: 498
m/z	intensity
41	530
42	40
43	999
44	30
45	40
49	10
50	20
51	10
52	10
53	130
54	30
55	920
56	60
57	100
58	10
59	250
60	30
61	10
63	10
65	40
66	30
67	40
68	60
69	900
70	60
71	80
72	30
73	430
74	20
77	130
78	30
79	380
80	70
81	910
82	190
83	200
84	20
85	390
86	40
87	30
89	10
91	350
92	100
93	640
94	140
95	999
96	120
97	110
98	160
99	370
100	30
101	10
103	20
104	30
105	520
106	130
107	810
108	270
109	999
110	180
111	120
112	20
113	110
114	20
115	30
116	20
117	120
118	110
119	570
120	240
121	720
122	350
123	370
124	50
125	150
126	20
127	20
128	20
129	140
130	30
131	210
132	180
133	490
134	300
135	580
136	130
137	180
138	30
139	30
140	30
141	20
142	20
143	80
144	50
145	310
146	130
147	590
148	200
149	300
150	60
151	40
152	20
153	20
155	30
156	70
157	90
158	40
159	300
160	120
161	440
162	250
163	280
164	50
165	40
166	20
167	10
168	10
169	90
170	30
171	120
172	60
173	360
174	130
175	480
176	130
177	220
178	40
179	10
181	10
182	10
183	30
184	10
185	80
186	50
187	390
188	160
189	240
190	270
191	100
192	20
193	10
195	20
197	20
198	20
199	80
200	60
201	310
202	310
203	720
204	220
205	50
206	10
207	10
211	20
212	20
213	80
214	40
215	200
216	110
217	100
218	20
219	30
220	10
221	20
223	10
225	20
226	10
227	110
228	50
229	160
230	50
231	30
232	10
233	10
234	10
235	10
239	20
240	10
241	80
242	40
243	60
244	30
245	20
246	10
247	10
251	10
253	30
254	20
255	300
256	90
257	100
258	30
259	20
260	10
261	10
262	10
267	20
268	10
269	180
270	90
271	40
272	40
273	20
274	10
275	10
279	20
280	20
281	40
282	30
283	40
284	210
285	80
286	20
287	30
288	20
289	30
293	10
294	20
295	110
296	50
297	320
298	90
299	20
301	210
302	60
303	20
307	20
309	60
310	30
311	10
313	20
314	20
315	40
316	250
317	60
318	20
321	20
322	20
323	40
324	100
325	280
326	80
327	20
330	10
335	20
336	20
337	120
338	50
339	30
340	20
341	20
342	20
343	30
344	20
349	20
350	20
351	20
353	20
354	20
355	60
356	20
357	110
358	40
359	20
363	70
364	30
365	10
369	40
370	20
381	20
382	20
383	20
384	50
385	70
386	30
390	240
391	240
392	90
393	30
394	20
395	100
396	40
397	20
405	20
406	380
407	170
408	50
409	30
410	20
411	10
423	150
424	60
425	20
438	690
439	240
440	50
441	20
451	130
452	50
453	10
466	180
467	80
468	20
469	10
483	40
484	20
498	40
499	10
