Mass Spectrum: Thiophene, 2-butyl-5-ethyl-
Formula: C10H16S
CAS: 54411-06-2
Molecular weight: 168
m/z	intensity
26	4
27	38
28	2
30	5
31	2
33	4
34	4
36	3
37	5
38	8
39	43
40	2
41	34
45	47
46	11
47	7
48	3
49	4
50	3
51	15
52	7
53	13
54	3
55	9
56	6
57	3
58	8
59	11
61	2
63	9
65	23
66	13
67	10
69	7
70	7
71	11
73	3
74	3
77	21
78	5
79	13
80	7
81	10
82	7
83	3
85	4
87	8
89	7
91	51
92	10
93	1
94	1
95	1
96	5
97	51
98	10
99	3
100	5
101	1
102	7
105	1
109	6
110	36
111	29
112	5
113	2
115	2
116	1
117	3
119	1
120	2
121	1
123	30
124	3
125	999
126	62
127	26
128	6
134	1
135	2
137	1
139	5
140	1
142	2
143	3
148	2
151	3
152	2
153	39
154	2
155	2
168	246
169	30
170	12
171	1
