Mass Spectrum: 2-Propenamide, N,N-diethyl-2-methyl-
Formula: C8H15NO
CAS: 5441-99-6
Molecular weight: 141
m/z	intensity
15	22
17	2
18	16
26	12
27	91
28	69
29	119
30	30
31	2
37	3
38	12
39	161
40	40
41	497
42	117
43	18
44	104
45	3
53	7
54	8
55	56
56	53
57	6
58	25
67	4
69	999
70	75
71	8
72	102
73	4
81	4
82	9
83	8
84	9
85	2
86	46
87	2
95	2
96	6
97	6
98	57
99	4
100	27
101	2
108	3
110	3
111	2
112	35
124	2
126	298
127	24
140	123
141	307
142	27
