Mass Spectrum: Stigmastane, 23,24-epoxy-, (5.alpha.)-
Formula: C29H50O
CAS: 54411-91-5
Molecular weight: 414
m/z	intensity
41	690
42	60
43	610
44	30
45	20
50	10
51	10
52	10
53	130
54	50
55	999
56	130
57	290
58	10
59	60
65	50
66	30
67	700
68	170
69	490
70	60
71	160
72	60
73	20
77	120
78	40
79	410
80	120
81	820
82	160
83	350
84	70
85	130
86	10
91	250
92	60
93	480
94	220
95	760
96	120
97	220
98	110
99	70
105	220
106	80
107	420
108	270
109	760
110	110
111	60
112	10
113	40
114	20
115	20
117	40
118	10
119	150
120	70
121	450
122	210
123	250
124	50
125	40
127	120
128	20
129	20
131	60
132	40
133	200
134	110
135	460
136	120
137	150
138	40
139	20
143	20
145	60
146	30
147	270
148	240
149	610
150	160
151	90
152	20
155	50
156	20
157	10
159	50
160	30
161	210
162	130
163	210
164	50
165	30
167	40
173	50
174	20
175	200
176	80
177	90
178	40
179	30
187	40
188	30
189	180
190	80
191	70
192	10
193	10
196	10
199	20
201	70
202	40
203	190
204	50
205	50
206	10
213	10
215	130
216	70
217	460
218	180
219	70
220	10
229	60
230	60
231	70
232	70
233	40
241	20
242	20
243	370
244	110
245	20
255	40
256	40
257	250
258	150
259	90
260	30
269	20
270	20
271	180
272	90
273	40
283	70
284	40
285	350
286	120
287	50
288	20
297	20
298	30
299	60
300	110
301	80
302	30
311	90
312	40
313	10
315	10
316	40
317	10
329	510
330	150
331	30
352	30
371	30
381	30
385	20
396	30
399	30
400	30
414	40
415	20
