Mass Spectrum: 4-Pyrimidinamine, 2-(propylthio)-
Formula: C7H11N3S
CAS: 54410-88-7
Molecular weight: 169
m/z	intensity
26	60
27	450
28	300
29	60
30	70
31	10
37	10
38	40
39	260
40	390
41	710
42	370
43	450
44	100
45	170
46	70
47	80
48	10
51	20
52	60
53	100
54	50
55	90
56	20
57	60
58	50
59	60
60	70
61	10
65	20
66	70
67	380
68	340
69	790
70	50
71	20
72	100
73	20
74	20
76	20
77	10
78	40
79	40
81	320
82	40
83	40
84	40
85	30
86	30
95	999
96	110
97	10
99	100
100	20
109	30
111	70
112	10
122	80
123	10
126	10
127	770
128	90
129	40
136	320
137	130
140	280
141	400
142	40
143	20
154	440
155	40
156	20
168	20
169	420
170	40
171	10
