Mass Spectrum: Pregnane, 20,21-epoxy-20-methyl-, (5.alpha.)-
Formula: C22H36O
CAS: 54411-89-1
Molecular weight: 316
m/z	intensity
41	505
42	30
43	313
44	20
45	10
50	10
51	10
52	20
53	131
54	50
55	646
56	40
57	40
58	10
59	40
65	50
66	30
67	595
68	151
69	212
70	10
71	30
72	10
77	131
78	30
79	363
80	212
81	636
82	131
83	181
84	60
85	232
86	10
87	10
88	10
89	20
91	262
92	60
93	393
94	191
95	636
96	80
97	90
98	999
99	161
100	10
101	10
104	10
105	232
106	90
107	353
108	363
109	626
110	80
111	30
115	10
116	10
117	30
118	30
119	161
120	90
121	404
122	242
123	202
124	20
125	10
129	10
130	10
131	50
132	20
133	151
134	111
135	333
136	80
137	70
138	10
139	50
140	10
143	10
144	10
145	70
146	20
147	222
148	232
149	545
150	161
151	90
152	10
157	10
159	60
160	20
161	181
162	121
163	101
164	20
165	10
171	10
173	90
174	20
175	191
176	70
177	50
178	20
187	40
188	30
189	111
190	40
191	20
199	20
201	40
202	30
203	202
204	70
205	20
206	40
207	10
213	10
215	101
216	60
217	656
218	292
219	60
220	10
229	30
230	20
231	50
232	111
233	40
241	10
242	10
243	80
244	20
245	10
255	20
256	10
257	151
258	111
259	40
260	20
269	20
271	30
273	30
283	80
284	30
285	40
286	20
287	10
288	10
298	80
299	30
300	10
301	424
302	90
303	10
314	10
316	252
317	70
318	10
