Mass Spectrum: 1-Nonene, 4,6,8-trimethyl-
Formula: C12H24
CAS: 54410-98-9
Molecular weight: 168
m/z	intensity
13	1
14	4
15	40
16	2
24	1
25	1
26	12
27	242
28	37
29	216
30	5
36	1
37	4
38	9
39	228
40	45
41	697
42	136
43	999
44	34
45	1
49	1
50	4
51	12
52	7
53	60
54	18
55	272
56	79
57	646
58	29
59	1
62	1
63	3
64	1
65	12
66	7
67	50
68	31
69	331
70	87
71	640
72	35
73	1
75	1
76	1
77	8
78	2
79	7
80	2
81	10
82	15
83	133
84	65
85	289
86	19
87	1
88	1
89	1
91	3
92	1
93	1
94	1
95	6
96	1
97	27
98	9
99	13
100	1
103	1
104	1
105	1
107	1
109	2
110	8
111	101
112	18
113	1
123	1
124	1
125	52
126	21
127	31
128	3
139	1
140	1
153	3
154	1
