Mass Spectrum: Piperazine, 3-butyl-2,5-dimethyl-
Formula: C10H22N2
CAS: 54410-93-4
Molecular weight: 170
m/z	intensity
14	9
15	120
16	14
17	51
18	193
25	2
26	14
27	262
28	509
29	262
30	310
31	10
32	8
37	3
38	6
39	135
40	30
41	423
42	360
43	502
44	643
45	67
46	3
47	1
48	2
49	7
50	2
51	7
52	9
53	37
54	62
55	143
56	450
57	181
58	723
59	31
60	27
61	1
62	1
63	4
64	1
65	7
66	5
67	33
68	99
69	86
70	620
71	121
72	71
73	4
75	4
76	2
77	6
78	2
79	5
80	17
81	16
82	68
83	70
84	300
85	150
86	174
87	23
88	2
91	3
92	2
93	3
94	9
95	13
96	24
97	39
98	323
99	29
100	30
101	2
105	1
106	1
107	2
108	8
109	13
110	11
111	25
112	227
113	533
114	999
115	77
116	3
120	1
121	2
123	8
124	11
125	8
126	26
127	18
128	11
129	2
133	1
135	1
136	3
137	7
138	3
139	4
140	3
141	3
142	1
143	2
149	2
150	1
151	4
152	1
153	4
154	4
155	82
156	9
163	1
164	1
165	3
166	1
167	1
168	5
169	15
170	79
171	10
