Mass Spectrum: 3-Azabicyclo[3.3.1]nonan-9-ol, 3,9-dimethyl-, syn-
Formula: C10H19NO
CAS: 54411-15-3
Molecular weight: 169
m/z	intensity
39	121
41	218
42	303
43	484
44	999
45	75
56	97
58	151
59	636
67	106
68	121
70	66
71	309
74	106
83	75
84	127
98	75
109	115
152	90
168	545
169	296
