Mass Spectrum: 2-Bromopropionic acid, 2,2-dimethylpropyl ester
Formula: C8H15BrO2
CAS: 5441-01-0
Molecular weight: 222
m/z	intensity
25	5
26	70
27	318
28	31
29	208
30	9
39	119
40	45
41	315
42	75
43	619
44	17
50	22
51	33
52	56
53	22
54	13
55	315
56	293
57	999
58	52
59	10
61	4
62	3
63	134
64	17
65	48
66	5
67	4
68	2
69	30
70	295
71	387
72	28
73	32
74	4
75	4
76	4
77	4
78	13
79	101
80	4
81	4
82	5
83	4
85	4
86	8
87	21
88	3
90	4
91	76
92	5
93	29
95	4
97	3
99	2
105	4
106	3
107	108
108	15
109	126
110	4
111	7
115	2
119	2
121	4
122	9
123	3
124	2
133	2
134	4
135	117
136	7
137	100
138	4
149	2
166	3
167	74
168	7
169	65
170	2
207	9
209	10
