Mass Spectrum: 3-Decen-2-one, 3-methyl-
Formula: C11H20O
CAS: 54411-03-9
Molecular weight: 168
m/z	intensity
14	2
15	33
17	2
18	8
26	5
27	136
28	41
29	163
30	4
31	2
38	5
39	132
40	24
41	416
42	64
43	999
44	29
45	9
50	5
51	17
52	11
53	73
54	49
55	682
56	85
57	133
58	22
59	9
60	2
63	4
65	18
67	18
68	10
69	95
70	55
71	56
72	254
73	17
74	1
77	25
78	5
79	39
80	9
81	68
82	48
83	375
84	112
85	407
86	56
87	6
91	17
92	4
93	56
94	35
95	68
96	55
97	143
98	99
99	20
100	9
105	10
106	1
107	19
108	7
109	52
110	15
111	642
112	60
113	9
121	24
122	4
123	9
124	50
125	234
126	26
127	4
135	9
136	2
137	2
139	12
140	2
150	9
151	2
153	398
154	45
155	4
166	8
167	6
168	175
169	30
170	3
