Mass Spectrum: Piperazine, 2,3-dimethyl-5-(2-methylpropyl)-
Formula: C10H22N2
CAS: 54410-91-2
Molecular weight: 170
m/z	intensity
14	7
15	97
16	7
17	16
18	92
25	1
26	13
27	229
28	407
29	179
30	304
31	6
32	6
37	2
38	6
39	117
40	278
41	360
42	221
43	277
44	584
45	21
46	5
47	1
48	5
49	6
50	9
51	6
52	7
53	38
54	52
55	139
56	283
57	112
58	999
59	39
60	1
62	1
63	2
64	1
65	6
66	5
67	26
68	75
69	56
70	563
71	106
72	62
73	4
75	2
76	1
77	4
78	1
79	4
80	11
81	13
82	50
83	32
84	539
85	59
86	137
87	10
88	1
91	1
92	1
93	2
94	7
95	11
96	26
97	36
98	76
99	8
100	5
101	1
106	1
107	2
108	5
109	8
110	19
111	11
112	164
113	419
114	818
115	65
116	2
120	1
121	1
123	14
124	7
125	10
126	38
127	10
128	2
129	1
136	1
137	3
138	2
139	1
140	2
141	18
142	5
143	1
146	1
147	1
148	1
149	13
150	7
151	11
152	5
153	11
154	9
155	79
156	9
157	1
163	6
164	3
165	6
166	8
167	5
168	4
169	13
170	55
171	8
172	1
