Mass Spectrum: Propanedinitrile, ethyl(1-oxopropoxy)-
Formula: C8H10N2O2
CAS: 54411-13-1
Molecular weight: 166
m/z	intensity
12	4
13	3
14	13
15	49
16	2
17	2
18	10
19	1
20	3
24	3
25	12
26	88
27	311
28	164
29	787
30	22
31	3
32	7
36	7
37	17
38	28
39	49
40	32
41	35
42	22
43	206
44	22
45	14
47	1
50	3
51	20
52	37
53	8
54	18
55	20
56	29
57	999
58	32
59	2
60	1
61	4
62	2
63	6
64	14
65	8
66	59
67	7
68	1
69	1
70	1
71	3
73	9
74	6
75	29
76	2
77	5
78	3
79	43
80	5
81	1
82	14
83	2
85	2
91	1
92	6
93	49
94	6
109	1
110	10
111	4
112	1
117	3
119	3
121	1
124	2
126	2
139	13
140	1
153	1
