Mass Spectrum: 2-Cyclohexen-1-one, 3,6-dimethyl-6-(1-methylethyl)-
Formula: C11H18O
CAS: 54410-58-1
Molecular weight: 166
m/z	intensity
13	2
14	7
15	43
16	2
17	2
18	7
19	1
25	1
26	12
27	189
28	48
29	74
30	2
31	2
36	2
37	5
38	15
39	238
40	36
41	260
42	33
43	72
44	5
45	3
46	2
49	1
50	11
51	31
52	19
53	90
54	104
55	102
56	8
57	7
58	2
59	2
60	1
61	1
62	2
63	8
64	3
65	22
66	10
67	59
68	10
69	40
70	26
71	4
73	1
74	1
75	2
76	2
77	32
78	9
79	28
80	8
81	26
82	999
83	102
84	9
85	2
86	1
87	1
89	2
90	2
91	26
92	4
93	10
94	7
95	56
96	16
97	7
98	16
99	2
102	1
103	3
104	1
105	7
106	3
107	17
108	9
109	117
110	12
111	2
112	1
115	2
116	1
117	1
118	1
119	2
120	1
121	6
122	13
123	79
124	329
125	29
126	3
127	1
128	1
129	1
131	1
133	4
134	1
135	2
136	1
137	4
138	39
139	4
140	1
145	1
147	1
148	1
149	4
150	1
151	25
152	4
153	1
164	1
165	1
166	29
167	4
168	1
