Mass Spectrum: 1H-Pyrazole-1-carboxaldehyde, 4-ethyl-4,5-dihydro-5-propyl-
Formula: C9H16N2O
CAS: 54411-09-5
Molecular weight: 168
m/z	intensity
41	160
42	70
43	110
44	40
53	40
54	100
55	50
56	100
67	40
68	50
69	440
70	120
71	120
72	20
73	50
74	20
79	20
81	80
82	70
83	60
84	30
85	30
91	30
93	30
95	50
96	50
97	999
98	80
99	30
105	20
107	20
108	20
109	50
110	20
111	90
112	30
113	10
121	20
122	20
123	40
124	30
125	250
126	40
129	20
135	20
136	20
137	20
138	20
139	80
140	20
145	30
147	20
151	40
153	120
154	10
167	20
168	320
169	50
