Mass Spectrum: Iron, tricarbonyl[N,N'-1,2-ethanediylidenebis[4-methoxybenzenamine]-N,N']-, (TB-5-12)-
Formula: C19H16FeN2O5
CAS: 54446-64-9
Molecular weight: 408
m/z	intensity
27	8
28	999
29	13
30	2
31	1
32	6
37	0
38	0
39	6
40	0
41	3
42	1
43	1
44	5
50	1
51	4
52	3
53	2
54	6
55	0
56	99
57	5
58	0
62	0
63	3
64	12
65	18
66	1
67	0
69	0
70	0
71	3
74	0
75	0
76	4
77	70
78	17
79	9
80	5
81	0
82	0
83	1
84	0
85	0
86	0
87	0
89	0
90	4
91	3
92	48
93	8
94	1
95	2
97	0
102	1
103	4
104	3
105	1
106	2
107	49
108	19
109	1
110	0
111	0
112	0
115	0
116	1
117	1
118	2
119	3
120	102
121	14
122	4
123	9
124	0
127	0
128	1
129	0
130	0
131	1
132	4
133	10
134	114
135	64
136	7
137	0
138	0
139	0
140	0
141	1
142	0
145	1
146	2
147	2
148	7
149	21
150	2
151	0
153	0
154	1
155	1
156	0
157	0
158	1
159	4
160	2
161	6
162	47
163	20
164	30
165	3
166	0
167	1
168	0
169	0
170	0
171	3
172	1
173	1
174	4
175	3
176	13
177	1
178	1
179	0
180	0
181	1
182	1
183	0
184	1
185	1
186	1
187	6
188	2
189	71
190	19
191	11
192	2
193	1
194	2
195	1
196	0
197	1
198	1
199	5
200	0
201	1
202	3
203	1
204	1
205	0
206	0
209	1
210	5
211	1
212	1
213	0
214	6
215	1
216	1
217	0
219	0
220	1
221	0
222	3
223	1
224	2
225	7
226	8
227	2
228	1
229	1
230	0
235	1
236	0
237	45
238	10
239	3
240	12
241	9
242	2
243	0
248	0
249	0
250	1
251	0
252	4
253	107
254	18
255	6
256	1
259	0
261	0
263	0
264	1
265	3
266	3
267	108
268	108
269	18
270	5
271	1
272	2
279	1
280	3
282	27
283	4
284	0
288	0
290	0
291	0
292	1
293	1
294	6
295	6
296	5
297	45
298	9
299	2
305	0
307	1
308	0
309	11
310	2
311	0
318	0
321	0
322	33
323	7
324	487
325	99
326	14
327	1
350	11
351	2
352	194
353	42
354	6
378	1
380	28
381	6
382	1
406	1
408	16
409	4
410	0
