Mass Spectrum: Benzoic acid, 2-ethylhexyl ester
Formula: C15H22O2
CAS: 5444-75-7
Molecular weight: 234
m/z	intensity
18	1
26	1
27	33
28	6
29	57
30	1
31	1
38	1
39	26
40	4
41	114
42	36
43	64
44	2
45	1
50	15
51	72
52	5
53	9
54	10
55	138
56	111
57	108
58	4
59	3
63	1
65	3
66	1
67	8
68	10
69	62
70	700
71	81
72	4
73	1
74	3
75	5
76	16
77	349
78	27
79	18
80	1
81	3
82	25
83	170
84	94
85	6
91	11
92	14
93	2
95	1
97	12
98	3
104	5
105	999
106	85
107	8
111	3
112	457
113	41
114	1
118	2
119	1
121	2
122	22
123	186
124	13
125	1
129	1
133	1
134	1
135	15
136	5
137	2
147	1
148	7
149	1
168	1
177	1
234	1
