Mass Spectrum: 4H-Pyran-4-one, tetrahydro-2,3,5,6-tetramethyl-
Formula: C9H16O2
CAS: 54458-60-5
Molecular weight: 156
m/z	intensity
26	12
27	114
28	133
29	108
30	1
31	6
37	1
38	6
39	113
40	17
41	190
42	15
43	123
44	10
45	45
46	1
47	0
50	6
51	11
52	3
53	33
54	10
55	157
56	999
57	187
58	7
59	3
60	0
63	1
65	3
66	1
67	8
68	8
69	51
70	7
71	5
72	3
73	14
74	1
75	0
77	3
78	1
79	10
80	0
81	1
83	50
84	34
85	19
86	1
93	0
95	3
96	1
97	38
98	2
99	8
100	10
101	9
106	0
111	2
112	120
113	10
114	1
155	1
156	73
157	8
