Mass Spectrum: 1,2-Dipentylcyclopropene-3-carboxylic acid
Formula: C14H24O2
CAS: 54467-86-6
Molecular weight: 224
m/z	intensity
27	560
29	830
39	420
41	999
43	920
45	60
51	90
52	50
53	200
54	60
55	870
56	80
57	150
65	110
66	70
67	390
68	120
69	150
70	50
71	210
77	170
78	40
79	280
80	50
81	240
82	50
83	150
84	70
91	120
92	20
93	180
94	40
95	130
96	50
97	190
98	160
99	200
107	160
109	80
110	50
111	390
112	80
121	70
123	50
124	20
125	250
126	40
135	30
139	70
149	20
153	50
154	20
167	410
168	60
179	120
180	20
181	20
195	10
196	10
205	10
207	10
224	10
