Mass Spectrum: Cyclopropanecarboxylic acid,tetradecyl ester
Formula: C18H34O2
CAS: 54460-44-5
Molecular weight: 282
m/z	intensity
36	20
38	9
39	138
40	35
41	520
42	127
43	395
44	17
45	30
50	6
51	10
53	20
54	48
55	295
56	165
57	230
58	17
67	50
68	78
69	815
70	170
71	115
81	20
82	79
83	180
84	100
85	68
86	30
87	999
88	45
95	9
96	39
97	140
98	60
99	15
110	11
111	70
112	40
113	7
125	30
126	23
139	10
140	11
142	17
154	10
168	20
169	4
196	58
197	10
