Mass Spectrum: 1,2,3-Oxadiazolium, 3-(2,2-dimethylbutyl)-5-hydroxy-, hydroxide, inner salt
Formula: C8H14N2O2
CAS: 54460-94-5
Molecular weight: 170
m/z	intensity
39	150
40	10
41	500
42	190
43	999
44	180
45	10
55	200
56	10
67	250
68	10
69	350
70	130
71	100
84	290
85	820
86	90
170	180
171	20
