Mass Spectrum: Cyclopropanecarboxylic acid,dodecyl ester
Formula: C16H30O2
CAS: 54460-43-4
Molecular weight: 254
m/z	intensity
36	25
38	9
39	170
40	45
41	630
42	120
43	395
44	40
45	33
50	10
51	12
53	21
54	45
55	295
56	210
57	220
58	18
67	50
68	80
69	940
70	200
71	88
81	21
82	65
83	190
84	130
85	50
86	35
87	999
88	45
89	7
96	30
97	125
98	70
99	12
110	8
111	68
112	40
113	5
124	7
125	28
126	17
139	8
140	45
141	6
168	85
169	10
