Mass Spectrum: 4(1H)-Pyrimidinone, 2-(propylthio)-
Formula: C7H10N2OS
CAS: 54460-95-6
Molecular weight: 170
m/z	intensity
31	50
38	60
39	430
40	999
41	740
42	250
43	330
44	60
45	280
46	120
47	100
48	10
52	60
53	200
54	20
55	40
57	50
58	80
59	110
60	100
61	10
67	280
68	240
69	430
70	900
71	90
72	10
82	150
95	570
96	220
97	50
98	10
100	80
101	10
123	60
128	420
129	130
137	100
138	10
141	80
142	220
143	20
155	150
156	20
170	80
171	10
