Mass Spectrum: 6-Benzoyl-2,4-diamino-6,7-dihydro-5H-pyrrolo[3,4-d]pyrimidine
Formula: C13H13N5O
CAS: 54476-33-4
Molecular weight: 255
m/z	intensity
41	22
43	194
44	7
51	217
52	61
53	69
54	43
55	6
56	2
63	5
64	2
66	17
67	26
68	11
69	7
70	1
74	6
75	5
77	683
78	35
79	34
80	26
81	33
82	1
89	8
92	13
93	2
94	7
95	6
96	1
97	1
105	999
106	86
108	155
109	9
117	1
121	9
122	10
123	7
124	12
128	4
133	59
134	6
135	2
136	8
150	798
151	51
152	4
169	2
178	58
179	3
184	1
185	2
196	4
199	17
200	2
210	5
211	9
212	10
213	4
226	47
227	15
228	1
237	1
238	16
239	1
240	11
255	616
256	90
257	10
