Mass Spectrum: 3,4-Dibenzyloxybenzaldehyde
Formula: C21H18O3
CAS: 5447-02-9
Molecular weight: 318
m/z	intensity
16	1
17	1
18	30
26	2
27	5
28	13
29	4
37	1
38	4
39	37
40	3
41	12
42	1
43	1
44	3
45	1
50	9
51	29
52	17
53	4
55	2
57	1
61	1
62	7
63	23
64	9
65	99
66	7
69	2
74	2
75	3
76	2
77	12
78	3
79	16
80	9
81	3
86	1
89	18
90	13
91	999
92	83
93	4
94	1
95	1
103	1
104	2
105	6
106	3
107	2
108	7
109	2
115	5
119	2
120	1
121	2
122	1
127	1
128	2
136	1
137	2
138	2
139	4
141	3
142	1
149	6
150	2
151	1
152	3
153	4
165	3
166	1
167	3
168	1
169	1
171	1
178	1
179	2
180	5
181	55
182	9
183	2
197	1
198	2
199	2
209	1
211	1
212	1
225	6
226	9
227	98
228	23
229	3
290	1
318	134
319	32
320	3
