Mass Spectrum: 2,4-Diamino-6-[3,4-dichlorophenyl]-6,7-dihydro-5H-pyrrolo[3,4-d]pyrimidine
Formula: C12H11Cl2N5
CAS: 54476-40-3
Molecular weight: 295
m/z	intensity
41	69
43	999
44	30
45	5
47	4
50	57
52	330
53	298
54	147
55	33
56	4
57	1
60	2
61	13
62	61
63	23
64	20
65	20
66	14
67	55
68	50
69	26
70	4
71	9
73	41
74	46
75	60
76	14
77	21
79	99
80	115
81	77
82	20
83	12
84	12
85	13
86	8
87	14
88	15
89	8
90	6
91	8
92	8
93	8
95	61
96	20
97	34
98	11
99	11
100	8
101	1
102	9
104	15
106	29
107	22
109	116
110	25
111	29
112	11
113	9
114	5
115	1
116	4
117	1
119	3
121	39
122	32
124	213
125	15
126	13
127	9
128	2
129	5
130	1
131	1
132	1
133	23
134	5
135	28
136	70
137	8
138	5
139	3
140	12
141	6
144	1
145	87
147	66
148	24
149	27
150	25
151	3
152	3
153	4
155	11
157	1
159	3
160	38
161	11
162	23
163	8
164	6
165	4
166	3
172	58
174	46
175	15
176	14
177	7
178	4
180	7
181	8
182	10
183	5
184	3
185	6
186	3
187	5
189	16
190	6
191	3
192	1
196	1
197	5
198	4
199	3
200	4
201	4
202	1
206	1
207	2
208	3
211	23
213	20
214	5
215	6
217	41
218	7
219	9
224	27
225	11
226	4
227	4
235	1
236	12
237	4
238	6
239	3
242	14
243	1
244	5
250	17
252	192
254	107
256	21
257	1
259	14
260	11
261	5
267	2
277	33
279	27
280	5
281	1
292	1
294	433
295	810
296	519
297	583
298	76
299	82
300	6
