Mass Spectrum: 2-Hexene, 1-(1-ethoxyethoxy)-, (E)-
Formula: C10H20O2
CAS: 54484-66-1
Molecular weight: 172
m/z	intensity
14	6
15	40
16	12
17	14
18	22
19	11
26	24
27	203
28	41
29	267
30	14
31	37
32	92
39	171
40	27
41	404
42	84
43	239
44	173
45	896
46	40
47	36
53	66
54	136
55	527
56	98
57	301
58	27
59	12
61	27
65	26
66	12
67	267
68	23
69	39
70	20
71	44
72	78
73	999
74	42
75	33
80	26
81	33
82	186
83	691
84	63
85	141
89	25
98	17
99	12
100	19
101	17
111	12
113	10
126	68
127	26
128	64
129	25
141	2
157	4
