Mass Spectrum: Cycloheptene, 5-bromo-
Formula: C7H11Br
CAS: 54484-64-9
Molecular weight: 174
m/z	intensity
32	190
39	280
40	50
41	220
50	50
51	90
52	70
53	150
54	160
55	910
65	120
66	180
67	220
77	350
78	70
79	999
80	100
81	150
91	190
93	170
94	640
95	680
174	80
176	80
