Mass Spectrum: 9,19-Cyclolanost-23-ene-3,25-diol, 3-acetate, (3.beta.,23E)-
Formula: C32H52O3
CAS: 54482-56-3
Molecular weight: 484
m/z	intensity
41	720
42	40
43	999
44	40
45	20
49	10
50	20
51	10
52	10
53	160
54	30
55	999
56	70
57	130
58	10
59	160
60	30
61	10
63	10
65	30
66	20
67	460
68	70
69	850
70	50
71	180
72	30
73	10
74	10
77	130
78	30
79	390
80	70
81	900
82	140
83	170
84	30
85	80
86	10
89	10
91	330
92	80
93	570
94	140
95	830
96	110
97	80
98	20
99	20
100	10
103	10
104	20
105	430
106	110
107	630
108	260
109	840
110	120
111	70
112	10
113	10
114	10
115	10
116	10
117	100
118	80
119	410
120	160
121	500
122	230
123	240
124	20
125	10
127	10
128	10
129	30
130	10
131	150
132	100
133	310
134	200
135	370
136	70
137	110
138	20
139	10
141	10
142	10
143	50
144	30
145	190
146	70
147	350
148	130
149	190
150	30
151	120
152	10
153	10
155	10
156	10
157	60
158	10
159	180
160	50
161	270
162	90
163	150
164	10
167	10
169	10
170	10
171	60
172	20
173	210
174	60
175	280
176	50
177	110
178	10
183	40
184	10
185	30
186	20
187	210
188	70
189	100
190	30
191	50
192	10
199	40
200	10
201	130
202	110
203	330
204	70
205	20
213	30
214	10
215	80
216	30
217	30
218	10
227	40
228	10
229	50
230	10
241	30
242	20
243	10
254	10
255	60
256	10
257	30
268	10
269	60
270	20
271	10
273	10
275	10
281	20
282	10
283	10
284	60
285	10
287	10
295	30
296	10
297	110
298	30
299	10
302	110
303	20
304	10
309	10
310	10
311	10
313	10
315	10
316	10
323	10
324	30
325	140
326	40
327	10
337	30
338	10
339	10
341	10
342	10
343	10
355	30
356	10
357	40
358	10
363	40
364	20
365	10
369	10
370	10
381	30
382	10
383	10
384	20
385	40
386	10
391	130
392	40
393	20
394	10
407	230
408	90
409	30
410	90
411	30
412	20
423	10
424	260
425	100
426	20
450	30
451	10
466	110
467	40
484	30
485	10
