Mass Spectrum: N1-Isopropyl-2-methyl-1,2-propanediamine
Formula: C7H18N2
CAS: 5448-29-3
Molecular weight: 130
m/z	intensity
15	10
17	1
26	1
27	24
28	25
29	15
30	203
31	5
32	1
38	1
39	19
40	4
41	60
42	63
43	47
44	37
45	1
50	22
52	1
53	3
54	4
55	36
56	40
57	23
58	999
59	38
60	1
67	1
68	2
69	2
70	13
71	11
72	188
73	18
74	7
81	3
82	3
83	3
84	5
85	5
86	3
91	1
96	9
97	2
98	35
99	8
100	1
110	1
111	6
112	6
113	4
114	2
115	8
125	1
127	2
130	1
131	2
