Mass Spectrum: Acetamide, 2-chloro-N-(2-thiazolyl)-
Formula: C5H5ClN2OS
CAS: 5448-49-7
Molecular weight: 176
m/z	intensity
12	3
13	10
14	33
15	5
16	3
17	8
18	10
24	1
25	4
26	14
27	20
28	87
29	12
30	1
32	13
33	3
34	1
35	6
36	3
37	3
38	12
39	17
40	26
41	23
42	71
43	16
44	23
45	211
46	23
47	21
48	18
49	149
50	9
51	55
52	5
53	20
54	11
55	195
56	14
57	58
58	146
59	37
60	12
61	3
62	1
63	1
64	1
65	1
66	4
67	2
68	1
69	6
70	18
71	25
72	12
73	99
74	5
75	4
76	10
77	86
78	5
79	28
80	0
81	1
82	3
83	6
84	3
85	3
86	17
87	2
88	1
89	2
90	0
91	1
92	0
93	1
94	0
95	1
96	1
97	2
99	55
100	999
101	52
102	45
103	2
104	0
105	1
106	0
107	0
109	0
110	0
111	5
112	3
113	17
114	1
115	1
116	0
117	0
119	0
120	1
121	0
122	0
123	0
125	0
126	2
127	9
128	0
129	1
133	0
134	0
135	0
136	0
138	0
139	0
141	15
142	1
143	1
149	2
154	3
155	0
157	0
167	0
171	0
173	0
174	0
176	122
177	10
178	48
179	3
180	2
181	0
183	0
