Mass Spectrum: 1-Butene-1,4-diol, diacetate
Formula: C8H12O4
CAS: 54484-67-2
Molecular weight: 172
m/z	intensity
14	26
15	130
16	2
24	1
25	9
26	36
27	23
28	20
30	2
31	8
36	0
37	2
38	6
39	57
40	10
41	37
42	50
43	999
44	25
45	6
49	0
50	3
51	6
52	6
53	18
54	19
55	7
56	1
57	6
58	2
59	0
60	1
61	29
67	4
68	0
69	27
70	270
71	22
72	2
73	6
74	1
81	0
82	11
83	1
84	3
85	2
86	6
87	2
99	10
100	3
101	2
102	1
103	6
104	1
110	1
111	1
112	44
113	31
114	3
115	1
116	1
128	1
129	0
130	0
131	0
