Mass Spectrum: 9,19-Cyclolanost-23-ene-3,25-diol, (3.beta.,23E)-
Formula: C30H50O2
CAS: 54482-57-4
Molecular weight: 442
m/z	intensity
41	469
42	10
43	775
44	10
45	30
50	10
51	10
53	102
54	10
55	775
56	40
57	91
58	10
59	163
65	30
66	20
67	397
68	40
69	704
70	40
71	204
72	20
77	112
78	30
79	346
80	61
81	765
82	142
83	193
84	40
85	91
86	10
91	316
92	81
93	581
94	142
95	918
96	112
97	102
98	20
99	20
103	20
104	10
105	428
106	122
107	704
108	234
109	999
110	122
111	91
113	30
115	10
117	91
118	91
119	448
120	173
121	632
122	193
123	295
124	30
125	20
126	10
127	10
128	10
129	30
130	20
131	153
132	132
133	428
134	244
135	510
136	91
137	132
138	20
139	10
141	10
142	10
143	40
144	20
145	234
146	102
147	510
148	183
149	316
150	40
151	30
152	10
153	10
155	10
156	10
157	61
158	20
159	234
160	81
161	387
162	142
163	214
164	30
165	40
169	10
170	20
171	71
173	275
174	81
175	408
176	91
177	153
178	20
179	10
183	91
184	10
185	51
186	20
187	306
188	102
189	163
190	51
191	81
192	20
193	20
197	20
199	51
200	20
201	183
202	153
203	530
204	132
205	51
213	51
214	20
215	122
216	40
217	51
218	20
219	30
220	10
221	10
225	10
227	81
228	20
229	102
230	20
231	20
232	10
239	10
241	51
242	10
243	61
244	10
245	40
253	10
255	204
256	51
257	51
259	10
269	122
270	40
271	30
272	20
273	10
281	20
283	10
284	91
285	40
286	10
295	20
296	10
297	112
298	20
299	10
302	306
303	61
309	30
313	51
314	10
315	91
316	10
324	10
325	102
326	20
327	51
328	10
337	61
338	10
339	10
341	10
342	51
343	91
344	10
355	10
363	40
381	102
382	30
391	142
392	51
393	30
406	102
407	40
408	20
409	377
410	102
411	30
424	408
425	132
426	30
427	40
428	10
442	61
443	20
