Mass Spectrum: 1,2,4-Oxadiazole, 5-(3-chlorophenyl)-3-phenyl-
Formula: C14H9ClN2O
CAS: 54494-09-6
Molecular weight: 256
m/z	intensity
18	20
27	10
28	20
37	10
38	10
39	50
40	5
41	20
50	50
51	60
52	20
61	10
62	20
63	80
64	120
65	20
73	10
74	20
75	90
76	50
77	30
85	10
86	5
87	10
88	15
89	80
90	20
91	180
92	10
102	20
103	50
104	10
111	90
112	10
113	35
114	5
119	999
120	90
121	10
123	30
125	10
128	40
129	10
137	35
138	10
139	50
140	10
141	15
256	470
257	80
258	160
259	30
