Mass Spectrum: B-Norcholestan-3-one, cyclic 1,2-ethanediyl acetal, (5.beta.)-
Formula: C28H48O2
CAS: 54498-58-7
Molecular weight: 416
m/z	intensity
41	120
42	30
43	160
44	20
45	20
53	20
54	10
55	140
56	20
57	90
58	10
63	10
65	40
66	10
67	60
68	20
69	70
70	20
71	50
72	30
77	40
78	10
79	50
80	10
81	70
82	10
83	30
84	10
85	20
86	120
87	30
89	10
91	260
92	30
93	60
94	20
95	70
96	10
97	20
98	10
99	999
100	210
101	50
102	10
103	10
104	10
105	50
106	10
107	50
108	20
109	40
111	10
112	90
113	20
115	20
117	10
119	30
121	20
122	10
123	20
125	30
126	10
127	10
129	10
131	20
133	20
136	10
137	10
139	10
141	10
143	10
145	20
146	10
147	30
148	10
149	20
151	20
152	10
153	20
154	10
157	10
159	20
161	20
162	10
163	20
165	20
166	10
167	30
168	20
169	10
173	10
175	20
176	10
177	10
178	10
179	10
181	10
182	70
183	20
187	10
188	10
191	10
193	10
194	10
199	20
201	20
203	20
204	20
206	10
207	20
208	10
213	10
215	10
217	30
218	20
219	20
221	10
231	10
232	10
233	10
241	10
245	10
247	10
249	20
261	10
275	10
288	30
301	50
302	30
303	20
313	10
314	10
315	20
316	20
317	310
318	70
319	10
328	10
331	10
339	10
354	10
355	10
371	10
372	10
387	10
401	30
402	10
415	10
416	290
417	100
418	20
