Mass Spectrum: Androst-8-en-11-one, (5.alpha.)-
Formula: C19H28O
CAS: 54498-82-7
Molecular weight: 272
m/z	intensity
41	999
42	100
43	330
44	300
45	20
51	100
52	60
53	250
54	40
55	510
56	60
57	50
63	20
64	10
65	130
66	40
67	400
68	40
69	130
70	10
71	10
77	300
78	100
79	360
80	60
81	360
82	30
83	50
91	490
92	50
93	260
94	60
95	290
96	40
97	20
103	50
104	30
105	270
106	50
107	170
108	40
109	200
110	20
115	100
116	30
117	120
118	20
119	130
120	40
121	130
122	40
123	30
127	20
128	60
129	70
130	20
131	100
132	30
133	160
134	50
135	70
141	30
142	20
143	40
144	20
145	100
146	20
147	200
148	30
149	80
157	10
159	50
160	20
161	440
162	90
163	40
164	100
165	20
167	10
169	20
170	10
171	40
172	20
173	80
174	20
175	140
176	60
177	420
178	90
179	30
183	20
185	30
186	10
187	50
188	30
189	100
190	40
191	30
197	10
199	20
200	10
201	80
202	40
203	120
204	20
207	10
211	10
213	20
214	10
215	90
216	50
217	30
218	10
225	10
226	10
227	10
228	10
229	90
230	50
231	10
239	50
240	10
241	10
242	10
243	400
244	180
245	30
254	30
255	20
256	10
257	630
258	130
259	10
270	10
271	10
272	590
273	130
274	10
