Mass Spectrum: Cholestane, 3-(ethylthio)-, (3.beta.,5.alpha.)-
Formula: C29H52S
CAS: 54498-89-4
Molecular weight: 432
m/z	intensity
41	529
42	64
43	999
44	58
45	35
46	5
47	35
50	11
51	10
53	70
54	26
55	650
56	100
57	476
58	35
59	29
60	17
61	23
62	35
63	23
64	5
65	23
66	17
67	347
68	88
69	329
70	58
71	182
72	11
73	17
75	29
77	88
78	29
79	305
80	82
81	547
82	70
83	200
84	23
85	29
88	5
91	229
92	52
93	370
94	176
95	476
96	58
97	94
98	11
99	5
101	17
103	11
104	11
105	188
106	123
107	376
108	400
109	276
110	29
111	47
115	47
117	35
118	17
119	123
120	70
121	182
122	76
123	94
124	11
125	17
127	5
128	5
129	5
131	47
132	17
133	117
134	111
135	182
136	47
137	29
145	88
146	35
147	188
148	58
149	111
150	17
151	11
159	47
160	41
161	117
162	70
163	58
164	11
169	11
171	5
172	11
173	47
174	29
175	58
176	35
177	23
187	35
188	23
189	35
190	11
191	11
193	17
201	82
202	23
203	41
204	5
205	5
206	5
207	11
215	258
216	152
217	82
218	11
229	17
230	94
231	35
241	5
243	5
244	5
245	5
246	5
247	17
248	5
256	5
257	135
258	23
259	5
260	11
261	11
262	11
274	17
275	11
277	11
285	5
287	5
288	5
289	5
300	5
301	11
302	5
313	5
314	5
315	5
316	23
328	11
329	23
330	5
355	194
356	52
357	5
369	5
370	588
371	188
372	23
384	5
417	5
432	64
433	17
434	5
