Mass Spectrum: Androstane-3,7,17-trione, cyclic 7-(1,2-ethanediyl acetal), (5.alpha.)-
Formula: C21H30O4
CAS: 54498-68-9
Molecular weight: 346
m/z	intensity
40	120
41	840
42	440
43	293
44	20
45	270
51	30
52	30
53	250
54	130
55	840
56	110
57	50
65	100
66	90
67	460
68	190
70	10
71	10
73	240
74	20
75	20
76	10
77	336
78	110
79	580
80	160
81	580
82	480
83	170
84	50
85	40
86	790
87	340
88	30
89	40
90	20
91	450
92	100
93	370
94	180
95	450
96	120
97	170
98	50
99	999
100	290
101	50
102	10
103	120
104	80
105	560
106	180
107	390
108	90
109	180
110	90
111	70
112	940
113	520
114	110
115	110
116	50
117	140
118	30
119	160
120	60
121	170
122	40
123	140
124	30
125	120
126	130
127	10
128	50
129	40
130	10
131	120
132	50
133	90
134	80
135	100
136	40
137	60
138	20
139	570
140	80
141	100
142	26
143	70
144	30
145	90
146	30
147	90
148	40
149	90
150	30
151	60
152	20
153	20
154	890
155	220
156	160
157	40
158	10
159	100
160	60
161	40
163	40
165	30
166	20
167	430
168	50
169	120
170	30
171	20
172	10
173	30
175	30
177	30
179	10
181	10
183	3
185	3
187	10
188	6
189	13
190	26
191	43
192	10
193	30
194	13
195	200
196	26
197	23
198	6
199	13
201	10
203	6
206	16
207	13
209	10
211	10
213	10
215	6
219	6
221	83
222	66
223	13
225	6
227	10
229	6
239	6
240	6
241	13
242	26
243	10
246	13
249	6
255	36
256	20
257	6
283	3
284	6
285	6
289	10
290	6
331	26
332	6
346	90
347	23
348	6
