Mass Spectrum: 1,2,4-Oxadiazole, 5-(2-methylphenyl)-3-phenyl-
Formula: C15H12N2O
CAS: 54494-15-4
Molecular weight: 236
m/z	intensity
28	40
29	10
38	20
39	120
40	20
41	40
50	60
51	150
52	50
53	20
62	40
63	120
64	180
65	170
75	30
76	70
77	180
78	40
89	170
90	220
91	370
92	30
102	50
103	140
104	999
105	140
116	40
117	60
118	190
119	200
120	40
132	50
133	250
134	40
236	460
237	80
