Mass Spectrum: Cholestan-3-amine, N,N,4,4-tetramethyl-, (3.beta.,5.alpha.)-
Formula: C31H57N
CAS: 54498-47-4
Molecular weight: 443
m/z	intensity
41	14
42	5
43	27
44	13
45	4
46	2
53	1
55	17
56	8
57	21
58	9
60	2
67	6
68	2
69	20
70	11
71	40
72	4
73	2
77	1
79	4
80	1
81	11
82	4
83	10
84	999
85	59
86	3
90	2
92	5
93	2
94	11
95	2
96	4
97	13
98	2
103	2
105	5
106	2
107	5
108	2
109	2
110	3
117	2
119	3
121	3
122	2
428	5
429	3
442	6
443	34
444	12
445	2
