Mass Spectrum: 2(3H)-Furanone, 3-butyl-4,5-dihydro-5-phenyl-
Formula: C14H18O2
CAS: 54491-12-2
Molecular weight: 218
m/z	intensity
26	9
27	220
28	13
29	179
30	2
31	3
37	0
38	4
39	142
40	27
41	281
42	175
43	128
44	4
45	7
50	23
51	109
52	34
53	46
54	34
55	217
56	286
57	26
58	4
59	8
60	7
62	5
63	29
64	12
65	67
66	8
67	34
68	41
69	127
70	17
71	9
72	3
73	114
74	9
75	11
76	19
77	263
78	166
79	111
80	12
81	28
82	12
83	23
84	163
85	11
86	6
87	6
88	4
89	24
90	7
91	405
92	70
93	8
94	7
95	38
96	26
97	10
98	26
99	26
100	1
101	9
102	19
103	78
104	999
105	409
106	77
107	407
108	32
109	9
111	13
112	34
113	9
114	674
115	216
116	83
117	880
118	129
119	16
120	21
121	9
122	3
123	2
124	4
125	1
126	5
127	30
128	41
129	58
130	25
131	89
132	28
133	31
134	5
135	3
136	1
139	3
140	26
141	12
142	7
143	44
144	49
145	20
146	153
147	17
148	4
149	4
152	2
155	2
156	2
157	15
158	7
159	5
160	2
161	10
162	360
163	46
164	5
169	2
170	4
171	10
172	142
173	143
174	32
175	29
176	5
177	1
179	3
183	3
185	4
188	2
189	43
190	6
196	2
197	2
198	1
199	2
200	53
201	8
207	1
213	3
214	1
216	2
217	50
218	744
219	118
220	11
