Mass Spectrum: Cholestan-3-one, 4-methyl-, cyclic 1,2-ethanediyl acetal, (4.alpha.,5.alpha.)-
Formula: C30H52O2
CAS: 54498-66-7
Molecular weight: 444
m/z	intensity
41	69
42	9
43	100
44	9
53	9
55	59
56	9
57	39
66	19
67	20
68	15
69	24
70	10
71	19
73	15
77	9
78	19
79	20
81	29
82	9
83	14
85	9
86	14
88	9
91	9
93	19
94	14
95	39
96	9
97	9
99	999
100	160
101	29
105	9
107	19
108	4
109	9
113	4
119	4
121	16
122	4
123	13
124	2
125	9
126	8
127	3
128	2
129	1
130	1
131	4
132	1
133	8
134	2
135	9
136	4
137	7
138	2
139	35
140	4
141	2
142	1
143	2
144	1
145	4
146	1
147	8
148	1
149	7
150	2
151	2
152	3
153	1
154	1
155	1
156	1
157	1
158	1
159	3
160	1
161	7
162	2
163	5
164	1
165	2
166	3
167	2
168	1
169	1
171	1
173	3
174	1
175	4
176	2
177	5
178	1
179	2
180	1
181	2
182	1
183	1
185	1
187	2
189	4
190	3
191	5
192	1
193	2
195	1
199	1
201	1
203	2
204	1
205	2
206	1
207	1
213	1
215	1
217	1
219	1
221	1
227	2
228	1
229	1
231	5
232	1
233	1
235	1
241	1
243	1
245	4
246	2
247	2
259	1
260	1
261	1
269	1
273	1
275	1
277	1
287	1
289	1
297	1
301	1
304	1
315	2
316	2
317	2
329	2
330	1
331	1
343	1
344	7
345	9
346	3
359	1
367	4
368	2
373	2
381	2
382	2
383	2
385	2
399	3
400	1
413	2
414	1
426	1
429	5
430	2
442	1
443	2
444	51
445	17
446	2
