Mass Spectrum: Dimepheptanol
Formula: C21H29NO
CAS: 545-90-4
Molecular weight: 311
m/z	intensity
41	37
42	49
43	41
44	25
45	6
46	1
50	1
51	5
52	0
53	4
54	4
55	31
56	48
57	125
58	11
59	1
60	31
61	7
63	0
65	2
67	4
68	4
69	16
70	41
71	48
72	999
73	69
74	3
76	0
77	10
78	6
79	0
81	0
82	1
83	7
84	5
85	17
86	7
87	5
89	0
91	18
92	0
95	0
97	6
98	3
99	0
101	1
102	6
103	3
105	6
106	0
111	0
115	13
116	2
117	5
124	0
127	0
128	1
129	9
130	3
139	1
152	4
164	0
165	17
166	3
167	1
176	1
178	12
179	7
180	1
185	1
191	0
193	2
194	0
195	0
208	1
223	4
256	1
284	1
294	5
309	0
