Mass Spectrum: 5-Methyl-6,8-dioxa-3-thia-bicyclo(3,2,1)octane
Formula: C6H10O2S
CAS: 54505-42-9
Molecular weight: 146
m/z	intensity
41	572
43	999
45	116
46	117
47	58
57	94
58	117
59	34
60	28
61	75
71	28
72	29
73	81
74	58
75	5
76	12
85	74
86	292
87	58
88	17
89	58
99	58
100	157
101	240
102	11
103	11
104	11
116	12
131	18
146	374
147	58
148	34
