Mass Spectrum: Benzoic acid 2-ethoxyethyl ester
Formula: C11H14O3
CAS: 5451-72-9
Molecular weight: 194
m/z	intensity
14	1
15	11
17	1
18	4
26	6
27	47
28	14
29	72
30	3
31	166
32	3
37	1
38	3
39	9
41	9
42	3
43	109
44	215
45	51
46	1
49	1
50	38
51	135
52	8
53	2
57	4
58	2
59	171
60	6
61	1
62	1
63	2
65	3
72	804
73	40
74	9
75	9
76	20
77	417
78	31
79	11
80	1
89	15
90	1
91	11
92	4
103	2
104	4
105	999
106	79
107	5
118	1
119	1
120	13
121	2
122	94
123	12
124	1
135	8
136	2
149	28
150	36
151	3
