Mass Spectrum: 2-Methyl-1,6-dioxaspiro[4.4]nonane
Formula: C8H14O2
CAS: 5451-15-0
Molecular weight: 142
m/z	intensity
26	21
27	183
28	152
29	244
31	42
39	157
40	43
41	384
42	251
43	454
44	40
45	214
50	30
51	75
53	63
54	33
55	364
56	612
57	258
58	26
59	76
65	18
67	37
68	36
69	142
70	139
71	106
72	16
73	26
77	27
79	36
81	100
82	24
83	287
84	63
85	297
86	67
87	999
88	45
91	49
95	34
97	213
98	697
99	89
100	245
101	420
102	32
105	16
109	22
111	36
112	240
113	21
114	16
127	328
128	30
141	66
142	295
143	34
