Mass Spectrum: 1,3,2-Dioxaborolan-4-one, 2-methyl-5-phenyl-
Formula: C9H9BO3
CAS: 54518-06-8
Molecular weight: 176
m/z	intensity
37	5
38	10
39	40
40	7
41	3
42	8
43	11
44	8
45	3
50	28
51	63
52	15
53	10
61	5
62	25
63	60
64	26
65	5
66	20
73	9
74	6
75	6
76	6
77	75
78	20
79	6
86	4
87	5
88	11
89	190
90	999
91	75
102	3
103	12
104	12
105	100
106	17
116	6
117	25
118	5
129	4
130	6
131	100
132	395
133	65
134	5
146	11
147	50
148	5
175	27
176	105
177	11
