Mass Spectrum: Ethanol, 2-butoxy-, benzoate
Formula: C13H18O3
CAS: 5451-76-3
Molecular weight: 222
m/z	intensity
15	5
26	4
27	44
28	20
29	106
30	4
31	15
37	2
38	4
39	26
40	3
41	129
42	11
43	45
44	57
45	74
46	2
47	1
49	1
50	32
51	110
52	9
53	4
54	1
55	27
56	441
57	499
58	24
59	3
60	7
61	2
62	1
63	3
65	4
66	1
67	1
69	2
70	2
71	63
72	12
73	25
74	10
75	16
76	23
77	410
78	32
79	14
80	1
82	1
85	250
86	16
87	35
88	5
89	9
90	1
91	17
92	13
93	2
94	2
99	2
100	223
101	18
102	2
103	3
104	6
105	999
106	82
107	5
115	8
116	4
117	22
118	4
119	1
120	14
121	3
122	187
123	83
124	6
135	17
136	4
137	1
148	1
149	65
150	67
151	7
167	1
