Mass Spectrum: Cholest-22-ene, (5.alpha.,20.xi.)-
Formula: C27H46
CAS: 54514-99-7
Molecular weight: 370
m/z	intensity
41	380
42	30
43	260
44	10
50	10
51	10
53	90
54	40
55	999
56	60
57	70
65	30
66	20
67	530
68	170
69	460
70	40
71	20
77	80
78	20
79	270
80	80
81	710
82	140
83	230
84	20
87	10
91	140
92	40
93	300
94	130
95	710
96	100
97	130
98	10
105	110
106	40
107	260
108	130
109	760
110	100
111	90
112	10
115	10
117	20
118	10
119	60
120	30
121	230
122	190
123	310
124	60
125	10
131	20
132	10
133	70
134	50
135	340
136	70
137	150
138	60
145	20
146	10
147	90
148	90
149	820
150	140
151	60
152	30
159	10
161	80
162	50
163	600
164	90
165	20
173	10
175	70
176	70
177	140
178	30
187	10
189	60
190	20
191	20
201	20
202	20
203	120
204	30
215	20
216	50
217	170
218	60
219	20
229	10
231	30
232	10
243	50
244	40
245	20
255	10
256	30
257	450
258	240
259	680
260	150
261	20
271	230
272	60
273	10
284	20
285	20
286	540
287	130
288	20
341	20
342	10
355	80
356	70
357	20
370	220
371	70
372	10
