Mass Spectrum: Iron, tricarbonyl[N,N'-(1,2-dimethyl-1,2-ethanediylidene)bis[benzenamine]-N,N']-, (TB-5-12)-
Formula: C19H16FeN2O3
CAS: 54515-24-1
Molecular weight: 376
m/z	intensity
26	17
27	13
28	895
29	5
30	3
38	2
39	7
41	10
42	10
43	4
44	4
49	1
50	6
51	54
52	8
53	2
54	11
55	0
56	198
57	5
58	0
62	0
63	2
64	1
65	8
66	7
67	0
68	1
69	1
70	1
71	13
72	1
74	1
75	2
76	11
77	557
78	47
79	3
80	0
81	2
89	4
90	1
91	19
92	7
93	27
94	3
95	1
96	1
97	25
98	2
99	0
102	2
103	13
104	13
105	6
106	1
107	1
108	1
112	5
113	0
115	3
116	4
117	21
118	999
119	108
120	30
121	3
122	1
123	1
127	0
128	4
129	2
130	12
131	10
132	16
133	148
134	17
135	1
137	0
140	1
141	0
142	2
143	11
144	16
145	7
146	37
147	6
148	42
149	14
152	4
153	6
154	18
155	2
156	2
157	6
158	5
159	60
160	15
161	2
162	1
165	1
166	0
168	0
169	1
171	2
172	7
173	6
174	74
175	10
176	3
177	1
178	1
180	18
181	3
183	0
184	1
185	2
186	2
187	10
188	2
189	32
190	4
191	0
192	1
193	3
194	5
195	2
196	1
198	3
199	11
200	2
201	1
202	0
207	1
208	3
209	3
210	28
211	4
213	1
215	5
217	3
218	2
219	2
220	2
221	2
222	2
223	2
224	4
225	2
233	1
234	11
235	57
236	178
237	32
238	7
239	1
240	0
246	0
247	3
249	17
250	4
251	153
252	30
253	2
261	0
262	5
263	29
264	198
265	41
266	8
267	3
272	0
275	2
281	1
287	1
288	0
290	43
291	19
292	608
293	120
294	12
295	1
316	0
317	0
318	18
319	4
320	276
321	61
322	8
323	1
346	3
347	1
348	45
349	9
350	1
374	1
376	23
377	4
378	1
