Mass Spectrum: Pentanoic acid, 2-ethylhexyl ester
Formula: C13H26O2
CAS: 5451-87-6
Molecular weight: 214
m/z	intensity
25	2
26	10
27	40
28	12
29	79
30	2
31	3
35	1
36	10
37	2
38	3
39	40
40	9
41	182
42	46
43	91
44	3
45	3
50	5
51	7
52	8
53	18
54	15
55	198
56	121
57	478
58	21
59	6
60	43
61	12
63	1
65	4
66	2
67	19
68	16
69	83
70	709
71	161
72	12
73	28
74	27
75	6
77	6
78	4
79	18
80	3
81	11
82	27
83	185
84	98
85	999
86	64
87	45
88	4
91	6
92	3
93	6
94	2
95	5
96	2
97	17
98	12
99	10
100	4
101	10
102	37
103	154
104	34
105	8
106	1
107	2
109	1
110	7
111	18
112	284
113	40
114	6
115	18
116	12
117	9
118	1
119	1
126	1
127	9
128	50
129	8
130	1
134	1
135	18
136	2
139	3
141	4
142	4
143	1
147	2
148	2
154	1
156	1
157	14
158	1
167	3
171	1
172	3
185	2
