Mass Spectrum: Methyl 8-oxohexadecanoate
Formula: C17H32O3
CAS: 54527-10-5
Molecular weight: 284
m/z	intensity
38	55
40	46
41	649
42	100
43	716
44	45
45	40
53	38
54	42
55	638
56	88
57	999
58	460
59	242
60	9
61	12
65	6
66	6
67	185
68	110
69	598
70	55
71	700
72	63
73	35
74	90
75	8
77	10
78	5
79	50
80	20
81	203
82	125
83	562
84	123
85	122
86	20
87	126
88	10
91	12
92	6
93	43
94	59
95	152
96	246
97	470
98	125
99	35
100	98
101	49
103	5
105	8
107	19
108	25
109	73
110	40
111	623
112	209
113	325
114	69
115	25
116	45
117	9
121	55
122	10
123	75
124	19
125	69
126	340
127	138
128	205
129	775
130	95
131	12
132	6
133	5
134	3
135	16
136	30
137	19
138	39
139	303
140	53
141	520
142	98
143	105
144	338
145	25
146	6
149	12
150	8
151	15
152	6
153	18
154	373
155	48
156	516
157	86
158	19
163	8
164	5
165	5
167	49
168	168
169	78
170	16
171	430
172	50
173	9
177	5
179	3
181	10
182	6
183	8
185	23
186	360
187	35
192	4
193	6
195	9
196	4
197	4
199	40
200	28
201	4
207	18
208	5
209	8
210	4
211	50
212	7
213	7
214	6
217	11
223	7
224	16
225	5
235	23
236	4
251	10
252	9
253	120
254	24
255	5
284	17
285	15
286	5
