Mass Spectrum: Heptane, 1-(1-methoxyethoxy)-
Formula: C10H22O2
CAS: 54532-15-9
Molecular weight: 174
m/z	intensity
15	8
27	37
29	100
31	30
32	25
39	17
41	106
42	35
43	132
45	26
55	43
57	373
58	32
59	999
60	30
61	106
70	10
75	10
89	26
99	37
143	52
159	59
160	5
