Mass Spectrum: 4-Methoxyphenol, pentafluoropropionate
Formula: C10H7F5O3
CAS: 545338-93-0
Molecular weight: 270
m/z	intensity
15	3
26	10
27	2
28	1
29	2
31	7
37	3
38	12
39	18
40	1
41	48
42	2
43	1
49	1
50	21
51	22
52	43
53	25
54	34
55	5
61	5
62	15
63	48
64	42
65	35
66	6
67	9
68	2
69	75
70	1
73	1
74	5
75	9
76	4
77	34
78	4
79	19
80	34
81	4
82	15
83	2
85	1
86	1
91	1
92	39
93	3
94	3
95	222
96	15
97	1
100	11
101	1
107	48
108	15
109	3
111	1
114	1
119	123
120	3
121	1
123	999
124	78
125	7
126	1
128	1
130	1
135	1
139	1
145	1
147	6
151	3
157	1
163	1
170	1
173	1
195	11
196	1
199	2
200	1
203	5
204	1
207	1
208	3
223	19
224	2
227	1
239	3
251	1
254	1
267	1
270	408
271	48
272	5
