Mass Spectrum: Benzene, 1-fluoro-2-(2-methoxyethenyl)-, (Z)-
Formula: C9H9FO
CAS: 54533-36-7
Molecular weight: 152
m/z	intensity
39	60
50	60
51	60
57	80
60	50
63	70
75	100
76	50
83	160
95	100
101	60
107	90
108	70
109	999
110	90
123	160
124	110
137	110
152	700
153	70
