Mass Spectrum: Cyclopentanecarboxylic acid, 1-methyl-2-oxo-, ethyl ester
Formula: C9H14O3
CAS: 5453-88-3
Molecular weight: 170
m/z	intensity
26	24
27	182
28	127
29	568
30	14
31	25
32	4
37	1
38	0
39	130
40	56
41	726
42	73
43	167
44	36
45	95
46	4
47	2
49	2
50	1
51	2
52	4
53	53
54	34
55	436
56	74
57	30
58	19
59	82
60	49
61	25
63	1
64	1
65	10
66	15
67	88
68	242
69	999
70	102
71	74
72	12
73	46
74	35
75	6
76	1
77	3
78	2
79	13
80	5
81	22
82	203
83	87
84	15
85	188
86	91
87	877
88	157
89	9
90	5
91	2
93	2
94	3
95	56
96	241
97	548
98	64
99	40
100	11
101	19
102	24
103	1
105	1
109	8
110	2
111	9
112	5
113	789
114	110
115	259
116	16
117	1
118	4
119	6
120	2
123	11
124	39
125	385
126	37
127	7
128	3
129	2
139	1
140	1
141	11
142	894
143	86
144	8
155	3
156	0
157	2
170	65
171	7
172	0
