Mass Spectrum: 2-Bromo-1-pyrrolidin-1-yl-propan-1-one
Formula: C7H12BrNO
CAS: 54537-48-3
Molecular weight: 205
m/z	intensity
12	0
13	1
14	7
15	87
16	2
17	12
18	53
19	0
24	0
25	3
26	66
27	316
28	287
29	79
30	130
31	4
32	0
34	0
35	0
36	0
37	4
38	11
39	96
40	34
41	194
42	140
43	153
44	21
45	1
47	0
48	0
49	1
50	2
51	4
52	5
53	16
55	750
56	276
57	19
58	2
59	0
60	0
61	0
62	0
63	6
64	1
65	2
66	1
67	4
68	32
69	38
70	233
71	19
72	38
73	2
76	0
77	1
78	1
79	5
80	6
81	7
82	7
83	3
84	4
85	0
86	0
89	0
90	0
91	1
92	1
93	1
94	1
95	1
96	5
98	999
99	59
100	4
104	0
105	3
106	3
107	54
108	4
109	49
110	2
111	0
112	1
113	0
114	0
115	0
117	0
119	0
120	1
121	1
122	1
123	0
124	3
126	391
127	33
128	3
129	0
131	0
132	0
133	1
134	3
135	6
136	3
137	5
141	0
143	0
145	0
147	0
148	1
149	0
150	1
151	0
152	0
153	0
161	9
162	1
163	3
164	0
165	0
167	0
171	0
176	0
178	0
181	0
185	0
187	0
198	0
205	51
206	6
207	51
208	5
209	0
