Mass Spectrum: Butanoic acid, 2-(aminooxy)-4-(methylthio)-
Formula: C5H11NO3S
CAS: 54533-39-0
Molecular weight: 165
m/z	intensity
33	70
41	190
44	280
61	999
75	290
76	130
101	45
103	120
104	93
120	52
132	17
133	48
148	110
150	130
165	41
