Mass Spectrum: Benzene, 1-fluoro-4-(2-methoxyethenyl)-, (Z)-
Formula: C9H9FO
CAS: 54533-37-8
Molecular weight: 152
m/z	intensity
39	60
51	50
57	80
63	70
75	70
83	180
101	60
107	100
108	80
109	999
110	90
137	220
152	660
153	70
