Mass Spectrum: Cyclopentanone, 2-(1-methylheptyl)-
Formula: C13H24O
CAS: 54549-91-6
Molecular weight: 196
m/z	intensity
41	110
42	20
43	60
53	20
54	10
55	140
56	40
57	30
67	20
68	10
69	50
70	20
81	10
82	10
83	90
84	999
85	90
97	10
111	170
112	20
196	30
