Mass Spectrum: Benzaldehyde, 4-[(acetyloxy)methyl]-
Formula: C10H10O3
CAS: 54549-74-5
Molecular weight: 178
m/z	intensity
12	6
13	17
14	55
15	234
16	8
25	1
26	11
28	19
29	90
30	3
31	6
36	0
37	13
38	38
39	133
40	13
41	23
42	26
43	999
44	38
45	17
46	0
49	7
50	100
51	176
52	34
53	20
54	1
55	3
59	6
60	2
61	11
62	42
63	109
64	38
65	82
66	6
67	1
68	1
69	2
73	5
74	28
75	27
76	38
77	176
78	32
79	176
80	14
81	0
83	1
84	2
85	5
86	7
87	14
88	20
89	311
90	367
91	519
92	46
93	1
98	0
101	0
102	4
103	5
104	32
106	31
107	543
108	73
109	5
114	0
115	6
116	12
117	14
118	116
119	197
120	23
121	1
122	0
130	0
131	0
132	3
133	58
134	14
135	79
136	766
137	71
138	7
148	1
149	3
150	0
163	0
175	5
176	1
177	41
178	306
179	40
180	4
