Mass Spectrum: 3-(Ehtylthio)propanal
Formula: C5H10OS
CAS: 5454-45-5
Molecular weight: 118
m/z	intensity
34	85
35	101
44	36
45	150
46	126
47	481
55	210
56	311
57	52
58	63
59	58
61	248
62	999
64	30
75	38
81	9
83	8
90	78
106	9
108	9
118	179
