Mass Spectrum: Cyclohexanone, 2-(1-methylheptyl)-
Formula: C14H26O
CAS: 54549-90-5
Molecular weight: 210
m/z	intensity
41	120
42	19
43	49
53	9
55	150
56	30
57	30
67	30
68	9
69	49
70	79
71	9
79	9
81	19
83	69
97	49
98	999
99	79
125	139
126	9
153	9
210	7
211	1
