Mass Spectrum: Androst-5-en-7-one, 3-(acetyloxy)-4,4-dimethyl-, (3.beta.)-
Formula: C23H34O3
CAS: 54549-89-2
Molecular weight: 358
m/z	intensity
40	94
41	650
42	72
43	999
44	116
45	72
46	16
50	11
51	27
52	16
53	161
54	16
55	450
56	22
57	61
59	5
60	5
61	5
63	5
64	5
65	66
66	22
67	350
68	44
69	183
70	11
71	27
72	5
77	155
78	33
79	255
80	44
81	294
82	38
83	72
84	11
85	11
91	244
92	38
93	250
94	38
95	277
96	27
97	22
98	5
99	5
103	16
104	11
105	166
106	33
107	183
108	44
109	138
110	22
111	11
115	27
116	11
117	44
118	11
119	183
120	61
121	216
122	44
123	50
124	16
125	5
127	5
128	22
129	27
130	11
131	44
132	11
133	100
134	72
135	261
136	55
137	33
138	11
139	5
141	16
142	11
143	27
144	16
145	61
146	16
147	172
148	44
149	61
150	22
151	33
152	16
153	11
155	11
156	5
157	16
158	11
159	72
160	16
161	72
162	66
163	188
164	38
165	11
169	11
170	5
171	16
172	11
173	50
174	16
175	61
176	27
177	16
178	5
179	5
181	5
183	5
185	16
186	5
187	111
188	22
189	83
190	11
191	5
197	5
199	16
200	5
201	38
202	27
203	50
204	16
205	5
207	11
208	5
209	5
211	5
213	11
214	5
215	83
216	33
217	38
218	11
227	11
228	5
229	66
230	38
231	50
232	5
241	11
242	16
243	16
244	33
245	27
247	11
255	50
256	44
257	22
258	5
259	5
260	122
261	27
262	11
265	11
269	22
270	33
271	33
272	11
273	38
274	11
275	11
281	5
283	555
284	133
286	22
287	5
288	16
289	5
297	5
298	127
299	38
301	16
316	16
343	11
344	22
358	150
359	38
