Mass Spectrum: Androst-2-en-11-one, (5.alpha.)-
Formula: C19H28O
CAS: 54548-20-8
Molecular weight: 272
m/z	intensity
41	999
42	120
43	230
44	20
50	20
51	80
52	50
53	420
54	140
55	700
56	60
57	30
63	30
64	20
65	210
66	100
67	700
68	130
69	150
70	20
71	30
77	500
78	120
79	750
80	180
81	720
82	150
83	60
84	10
91	710
92	170
93	550
94	270
95	430
96	80
97	40
103	30
104	30
105	420
106	240
107	260
108	190
109	160
110	40
115	60
116	20
117	100
118	170
119	160
120	70
121	150
122	60
123	70
124	110
125	20
128	30
129	40
130	10
131	110
132	30
133	130
134	60
135	140
136	90
137	30
143	40
144	30
145	90
146	40
147	210
148	100
149	430
150	60
151	460
152	50
157	40
158	20
159	50
160	30
161	40
162	30
163	20
164	390
165	60
171	10
172	20
173	30
174	550
175	130
176	30
177	999
178	140
179	20
185	70
186	20
187	30
188	10
189	20
190	10
191	20
198	20
199	20
200	70
201	20
202	10
203	80
204	40
205	10
213	30
214	10
215	10
217	20
218	450
219	70
227	10
228	30
229	20
230	20
231	50
239	70
240	20
243	20
244	20
254	30
257	90
258	20
259	10
260	10
272	550
273	120
274	50
275	10
