Mass Spectrum: 2-[5-(2-Oxopropyl)furan-2-yl]propanoic acid, methyl ester
Formula: C11H14O4
CAS: 54541-03-6
Molecular weight: 210
m/z	intensity
26	6
27	36
29	17
30	1
31	2
38	6
39	59
40	9
41	38
42	9
43	504
44	21
45	10
50	14
51	73
52	40
53	45
54	9
55	82
56	6
57	12
58	3
59	84
60	3
61	2
62	4
63	16
64	5
65	48
66	13
67	22
68	5
69	9
70	4
71	9
72	2
73	5
74	2
75	2
76	2
77	100
78	18
79	80
80	16
81	115
82	12
83	17
84	1
85	3
86	1
87	3
88	3
89	3
90	3
91	47
92	5
93	28
94	23
95	20
96	3
97	8
98	2
99	2
103	3
104	1
105	8
106	7
107	191
108	301
109	517
110	45
111	999
112	93
113	6
114	7
115	2
116	1
117	2
118	1
119	3
120	3
121	28
122	5
123	15
124	13
125	92
126	7
129	2
131	2
133	3
134	7
135	82
136	8
137	41
138	5
139	4
141	5
142	2
143	2
148	2
149	14
150	7
151	360
152	45
153	15
154	6
155	2
163	5
164	3
165	6
166	6
167	944
168	142
169	17
170	3
178	5
179	2
180	29
181	29
182	6
185	2
193	3
194	1
195	12
196	2
210	300
211	43
212	6
213	1
