Mass Spectrum: 4-Undecanone, 9-ethyl-
Formula: C13H26O
CAS: 54549-96-1
Molecular weight: 198
m/z	intensity
41	515
42	70
43	999
44	30
45	70
53	40
55	282
56	80
57	282
58	777
59	60
67	80
68	20
69	121
70	50
71	878
72	60
81	151
82	20
83	90
84	20
85	50
86	585
87	131
95	30
96	101
97	121
98	202
99	262
100	20
123	515
124	50
137	40
141	252
142	262
155	20
176	50
185	10
