Mass Spectrum: 1,3,4-Oxadiazole-2(3H)-thione, 5-(2-hydroxyphenyl)-3-phenylaminomethyl-
Formula: C15H13N3O2S
CAS: 54543-73-6
Molecular weight: 299
m/z	intensity
33	11
34	5
36	8
37	94
38	176
39	320
40	43
41	29
42	13
43	44
44	35
45	24
46	13
47	18
48	7
49	37
50	291
51	602
52	338
53	112
54	11
55	8
56	0
57	1
58	7
59	49
60	29
61	53
62	74
63	210
64	170
65	191
66	27
67	12
68	3
69	3
70	3
71	0
72	2
73	24
74	72
75	53
76	89
77	999
78	407
79	84
80	12
81	2
82	0
84	0
85	0
86	2
87	4
88	5
89	4
90	31
91	99
92	57
93	84
94	7
95	1
96	1
97	18
99	1
100	1
101	0
102	6
104	620
105	939
106	136
107	9
108	1
109	1
117	2
118	3
119	37
121	698
122	51
123	5
133	3
134	4
135	3
137	6
138	0
161	10
162	3
194	370
195	41
196	19
197	1
