Mass Spectrum: Isopropylethanediol, TMS derivative
Formula: C8H20O2Si
CAS: 54550-18-4
Molecular weight: 176
m/z	intensity
41	110
42	20
43	480
44	30
45	90
47	50
51	10
55	10
57	10
58	50
59	80
60	10
61	60
72	30
73	999
75	80
76	990
77	70
78	50
88	10
89	20
90	60
101	30
103	320
104	30
105	10
117	90
118	90
119	440
120	40
121	20
131	70
161	30
