Mass Spectrum: 1,3-Propanediamine, N-phenyl-N,N'-bis(trimethylsilyl)-
Formula: C15H30N2Si2
CAS: 54550-15-1
Molecular weight: 294
m/z	intensity
43	40
44	20
45	110
51	10
58	20
59	170
60	20
66	10
72	30
73	999
74	120
75	70
77	50
78	10
84	20
86	40
88	110
89	10
100	550
101	60
102	190
103	30
104	40
105	10
106	70
107	10
114	200
115	30
116	30
127	30
128	40
129	580
130	80
131	30
132	90
133	60
135	10
147	100
148	20
149	20
150	40
160	30
162	10
164	80
165	100
166	20
174	20
176	30
178	280
179	60
180	10
190	40
191	20
192	60
204	80
205	280
206	50
207	20
279	40
294	50
295	10
