Mass Spectrum: Androstan-3-ol, 9-methyl-, (3.beta.,5.alpha.)-
Formula: C20H34O
CAS: 54550-11-7
Molecular weight: 290
m/z	intensity
40	30
41	660
42	50
43	350
44	70
45	20
53	150
54	40
55	730
56	60
57	180
58	10
59	10
65	40
66	20
67	570
68	200
69	290
70	60
71	30
77	110
78	20
79	390
80	110
81	610
82	130
83	130
84	20
91	190
92	110
93	540
94	580
95	980
96	150
97	50
105	130
106	50
107	480
108	999
109	340
110	50
111	260
112	60
117	10
119	70
120	50
121	250
122	270
123	90
124	30
125	30
131	20
133	80
134	30
135	350
136	60
137	20
145	20
147	120
148	50
149	610
150	370
151	130
159	10
161	90
162	110
163	140
164	150
165	30
173	10
175	30
176	60
177	60
178	20
179	10
187	10
189	10
190	30
201	10
203	10
217	30
257	100
258	10
272	110
273	20
275	50
290	110
291	10
