Mass Spectrum: 1,3-Propanediamine, N'-phenyl-N,N-bis(trimethylsilyl)-
Formula: C15H30N2Si2
CAS: 54550-16-2
Molecular weight: 294
m/z	intensity
43	39
44	26
45	131
51	26
52	13
56	39
58	26
59	30
60	2
65	26
66	39
72	26
73	999
74	105
75	52
77	131
78	26
79	26
84	13
86	250
87	26
88	52
91	26
93	26
100	171
101	26
102	157
103	13
104	118
105	26
106	434
107	52
114	65
115	26
116	263
117	52
118	52
119	26
120	13
128	39
129	65
130	92
131	52
132	375
133	657
134	67
135	13
146	65
147	328
148	52
149	39
150	39
160	302
161	52
162	65
164	197
165	39
172	144
173	26
174	828
175	157
176	105
177	13
178	26
186	131
187	26
188	65
189	13
201	92
202	13
205	13
221	26
222	39
279	184
280	52
281	13
294	381
295	105
296	39
