Mass Spectrum: Androstan-3-ol, 9-methyl-, acetate, (3.beta.,5.alpha.)-
Formula: C22H36O2
CAS: 54550-12-8
Molecular weight: 332
m/z	intensity
40	20
41	260
42	30
43	840
44	30
45	10
53	60
54	20
55	320
56	20
57	40
61	40
65	20
66	10
67	290
68	80
69	130
70	10
71	10
77	60
78	20
79	250
80	70
81	350
82	60
83	60
91	120
92	40
93	370
94	270
95	560
96	80
97	30
105	90
106	40
107	280
108	999
109	250
110	30
111	20
117	10
119	50
120	30
121	140
122	160
123	70
131	10
133	60
134	20
135	170
136	30
137	20
145	10
147	110
148	50
149	270
150	110
151	60
159	10
161	50
162	90
163	110
164	70
165	20
173	10
175	30
176	20
177	20
189	10
190	10
201	10
203	20
204	10
215	10
216	10
217	10
218	50
219	10
229	10
231	10
257	100
258	20
272	220
273	50
