Mass Spectrum: Androst-1-en-3-one, 4,4-dimethyl-, (5.alpha.)-
Formula: C21H32O
CAS: 54550-04-8
Molecular weight: 300
m/z	intensity
40	107
41	999
42	84
43	376
44	130
51	30
52	30
53	215
54	61
55	700
56	53
57	69
59	7
65	92
66	38
67	615
68	84
69	507
70	84
71	38
73	7
77	246
78	61
79	538
80	546
81	584
82	300
83	246
84	23
85	15
87	15
91	346
92	76
93	492
94	330
95	769
96	561
97	123
98	38
99	7
100	7
101	7
103	23
104	15
105	269
106	69
107	346
108	515
109	338
110	53
111	23
112	7
115	30
116	7
117	53
118	23
119	115
120	61
121	438
122	223
123	230
124	53
125	30
128	7
129	15
130	7
131	53
132	23
133	115
134	61
135	276
136	107
137	192
138	76
139	7
143	7
145	53
146	23
147	115
148	53
149	115
150	246
151	92
152	7
157	7
159	38
160	15
161	76
162	92
163	138
164	46
165	15
171	7
173	38
174	30
175	292
176	100
177	53
178	15
179	30
185	7
187	53
188	38
189	84
190	123
191	30
199	7
200	15
201	138
202	100
203	92
204	30
205	7
207	23
208	7
213	7
214	7
215	38
216	53
217	38
218	15
219	7
229	38
230	69
231	61
232	15
241	7
242	7
243	30
244	15
245	7
256	7
257	138
258	61
259	7
267	23
269	7
271	23
272	76
273	15
281	15
282	15
285	169
286	46
287	15
298	15
300	253
301	61
