Mass Spectrum: Androstan-3-one, 17-hydroxy-2,4-dimethyl-, (2.alpha.,4.alpha.,5.alpha.,17.beta.)-
Formula: C21H34O2
CAS: 54550-08-2
Molecular weight: 318
m/z	intensity
41	999
42	110
43	580
44	120
45	30
51	20
52	10
53	210
54	60
55	700
56	80
57	240
58	40
65	60
66	30
67	430
68	130
69	340
70	20
71	70
77	150
78	30
79	270
80	60
81	400
82	110
83	80
84	20
85	20
91	200
92	30
93	270
94	80
95	300
96	50
97	60
98	20
105	140
106	20
107	200
108	60
109	160
110	40
111	50
115	10
117	20
118	10
119	90
120	30
121	160
122	60
123	150
124	20
125	50
131	30
132	10
133	70
134	20
135	100
136	30
137	60
138	30
139	40
145	30
147	50
148	20
149	50
150	20
151	20
152	70
153	10
159	10
161	30
163	30
165	10
173	20
175	20
177	20
179	10
189	10
191	80
192	20
193	10
199	30
231	30
232	20
243	10
245	10
259	220
260	40
261	40
274	60
275	10
285	10
303	10
318	170
319	40
