Mass Spectrum: 8-Hydroxy-8-phenyl-hexahydro-pyrrolo[2,1-c][1,4]oxazin-6-one
Formula: C13H15NO3
CAS: 54568-55-7
Molecular weight: 233
m/z	intensity
12	2
14	13
15	36
16	6
17	21
18	76
19	2
26	20
27	99
28	353
29	79
30	54
31	44
32	25
38	8
39	55
40	17
41	52
42	94
43	99
44	87
45	20
46	2
50	40
51	137
52	33
53	15
54	48
55	143
56	94
57	52
58	44
59	9
60	2
61	1
62	7
63	25
64	7
65	41
66	7
67	4
68	8
69	68
70	25
71	9
72	10
73	5
74	13
75	14
76	24
77	280
78	215
79	63
80	6
82	4
83	4
84	13
85	35
86	999
87	139
88	15
89	19
90	10
91	110
92	27
93	33
96	2
97	2
98	10
99	7
100	7
101	7
102	30
103	47
104	33
105	522
106	46
107	5
110	5
111	2
112	7
113	2
114	10
115	38
116	17
117	20
118	12
120	548
121	59
122	3
125	2
126	2
127	10
128	162
129	28
130	16
131	18
132	11
133	15
134	3
138	2
142	2
143	6
144	12
145	5
146	16
147	28
148	6
149	2
156	7
157	3
158	5
159	2
160	7
161	2
162	3
163	3
170	2
171	3
172	3
174	7
175	2
177	6
184	2
185	3
186	10
187	2
188	15
189	15
190	201
191	25
192	3
201	4
202	11
203	25
204	24
205	11
215	7
216	7
217	1
218	2
233	273
234	42
235	6
