Mass Spectrum: Selenium, tetrakis(diethylcarbamodithioato-S,S')-
Formula: C20H40N4S8Se
CAS: 5456-28-0
Molecular weight: 672
m/z	intensity
15	3
26	3
27	32
28	36
29	91
30	10
32	4
34	1
35	3
38	1
39	1
40	1
41	5
42	27
43	3
44	163
45	8
46	1
47	1
54	4
55	2
56	31
57	4
58	11
59	23
60	208
61	22
62	9
63	1
64	46
65	2
66	4
68	1
70	7
71	3
72	98
73	8
76	29
77	50
78	4
79	4
80	1
82	1
84	3
85	1
86	28
87	7
88	420
89	18
90	18
91	12
92	8
93	4
95	1
96	1
98	7
100	2
104	4
108	1
109	1
110	2
111	1
112	4
113	6
114	8
116	999
117	77
118	48
119	5
120	2
122	1
129	4
130	1
132	1
134	1
139	2
146	3
147	8
148	234
149	51
150	25
151	5
152	1
156	2
158	3
160	4
162	1
168	4
178	1
180	6
200	2
203	6
204	1
205	2
209	2
211	2
212	5
213	2
214	2
232	5
241	2
264	24
265	3
266	3
296	93
297	13
298	17
299	2
300	1
352	5
353	1
354	2
356	1
357	19
358	2
359	18
360	3
361	10
362	1
363	1
505	97
506	13
507	17
508	2
509	1
