Mass Spectrum: Pregnan-20-one, 3-(acetyloxy)-17-hydroxy-, (3.beta.,5.alpha.)-
Formula: C23H36O4
CAS: 5456-44-0
Molecular weight: 376
m/z	intensity
51	138
52	87
53	482
54	180
55	830
56	61
57	118
58	77
59	33
60	175
61	106
62	13
63	47
64	23
65	245
66	124
67	715
68	145
69	218
70	28
71	185
72	40
73	8
74	10
75	22
76	15
77	610
78	172
79	910
80	180
81	715
82	220
83	128
84	36
85	43
86	12
87	64
88	15
89	30
90	16
91	999
92	220
93	880
94	265
95	471
96	88
97	97
98	22
99	20
100	70
101	19
102	20
103	87
104	78
105	664
106	264
107	800
108	414
109	356
110	83
111	80
112	18
113	20
114	10
115	142
116	65
117	212
118	100
119	360
120	212
121	412
122	145
123	238
124	60
125	40
126	17
127	42
128	111
129	132
130	60
131	237
132	80
133	320
134	160
135	312
136	158
137	100
138	18
139	18
140	10
141	65
142	50
143	130
144	60
145	315
146	94
147	500
148	166
149	212
150	42
151	30
152	22
153	26
154	15
155	56
156	30
157	121
158	70
159	223
160	106
161	400
162	135
163	120
164	27
165	38
166	15
167	23
168	10
169	40
170	20
171	82
172	50
173	183
174	75
175	145
176	125
177	50
178	22
179	22
180	13
181	16
182	10
183	32
184	18
185	67
186	22
187	128
188	91
189	100
190	41
191	35
192	10
193	20
194	5
195	18
196	5
197	45
198	18
199	90
200	32
201	155
202	65
203	68
204	20
205	18
206	10
207	10
208	7
209	17
210	7
211	35
212	25
213	109
214	91
215	259
216	138
217	132
218	35
219	10
220	7
221	10
222	7
223	13
224	5
225	20
226	25
227	59
228	57
229	272
230	273
231	100
232	15
233	12
234	80
235	15
236	1
237	15
238	10
239	25
240	10
241	67
242	38
243	57
244	280
245	60
246	18
247	12
248	10
249	7
250	6
251	14
252	10
253	75
254	40
255	620
256	197
257	50
258	20
259	10
260	20
261	10
262	15
263	15
264	5
265	66
266	10
267	14
268	15
269	44
270	117
271	40
272	8
273	59
274	89
275	29
276	10
277	5
278	10
279	5
280	60
281	55
282	15
283	375
284	75
285	8
286	9
287	8
288	170
289	29
290	15
294	10
296	137
297	45
298	760
299	200
300	35
301	40
302	12
312	10
313	5
314	100
315	390
316	349
317	67
318	10
329	10
330	63
331	10
333	40
340	67
341	15
342	7
343	75
344	12
348	54
349	10
358	336
359	80
360	17
376	106
377	20
