Mass Spectrum: Octanoic acid-tert butyl ester
Formula: C12H24O2
CAS: 5457-66-9
Molecular weight: 200
m/z	intensity
26	1
27	55
28	12
29	136
30	2
31	7
38	1
39	30
40	8
41	204
42	37
43	67
44	2
45	3
46	0
50	0
51	1
52	0
53	5
54	4
55	53
56	214
57	999
58	38
59	18
60	41
61	12
62	0
63	0
65	0
66	0
67	7
68	2
69	8
70	5
71	2
72	0
73	14
74	1
75	0
77	0
78	0
79	1
80	1
81	2
82	4
83	12
84	58
85	19
86	0
87	10
88	1
89	7
90	0
96	1
97	5
98	4
99	1
100	0
101	12
102	1
103	3
106	0
107	0
108	0
109	8
110	0
111	0
112	0
113	0
115	4
116	1
117	0
124	4
125	7
126	1
127	198
128	15
129	2
142	4
143	5
144	82
145	303
146	25
147	1
170	0
185	36
186	5
187	0
200	3
201	0
