Mass Spectrum: Heptanedioic acid, 3-methyl-, dimethyl ester
Formula: C10H18O4
CAS: 54576-14-6
Molecular weight: 202
m/z	intensity
35	0
37	1
38	4
39	121
40	41
41	467
42	126
43	371
44	40
45	68
46	2
47	3
48	4
49	0
50	2
51	5
52	3
53	40
54	16
55	389
56	91
57	28
58	10
59	502
60	16
61	4
62	0
63	1
64	0
65	10
66	4
67	75
68	144
69	999
70	78
71	38
72	10
73	54
74	662
75	34
76	3
77	4
78	1
79	15
80	3
81	39
82	261
83	265
84	24
85	86
86	16
87	283
88	24
89	2
91	2
92	9
93	23
94	8
95	45
96	86
97	927
98	66
99	30
100	44
101	164
102	22
103	2
107	0
108	1
109	17
110	113
111	175
112	14
113	21
114	72
115	13
116	5
117	0
119	0
120	3
121	3
122	0
123	29
124	2
125	141
126	14
127	80
128	125
129	943
130	75
131	6
136	0
137	9
138	98
139	298
140	28
141	6
142	197
143	30
144	2
145	1
146	6
149	0
151	0
152	8
153	22
154	2
155	53
156	4
157	0
159	1
160	2
161	0
168	0
169	5
170	39
171	260
172	29
173	2
174	0
203	2
