Mass Spectrum: 1,3-Isobenzofurandione, 4,5,6,7-tetrahydro-4,7-dimethyl-
Formula: C10H12O3
CAS: 54576-43-1
Molecular weight: 180
m/z	intensity
27	310
28	30
29	250
39	500
40	380
41	310
42	20
43	250
44	250
45	20
50	190
51	310
52	190
53	250
54	20
55	190
56	20
57	130
58	10
63	190
64	20
65	250
66	190
67	130
68	10
77	500
78	190
79	500
80	190
81	20
90	10
91	560
92	130
93	999
94	130
95	20
105	310
106	30
107	310
108	190
109	20
115	130
119	130
121	250
122	30
135	130
136	880
137	190
138	20
152	310
153	40
154	10
165	250
166	30
180	250
181	30
