Mass Spectrum: 3-Phenyl-2-(2-phenylacetamido)propionic acid
Formula: C17H17NO3
CAS: 54582-05-7
Molecular weight: 283
m/z	intensity
17	10
18	4
26	1
27	8
28	23
29	2
30	20
37	1
38	4
39	43
40	4
41	15
42	4
43	7
44	17
45	4
46	2
50	9
51	33
52	10
53	4
55	2
57	2
61	1
62	6
63	26
64	9
65	129
66	8
67	1
69	1
70	1
71	1
73	3
74	88
75	6
76	4
77	48
78	36
79	28
80	2
81	1
83	1
85	1
87	1
88	2
89	37
90	39
91	999
92	312
93	25
94	1
95	1
97	1
101	2
102	7
103	46
104	70
105	26
106	5
107	22
108	2
115	2
116	4
117	14
118	50
119	91
120	182
121	17
128	14
129	3
130	8
131	23
132	4
133	1
134	6
135	194
136	70
137	6
145	1
146	47
147	124
148	594
149	78
150	7
156	1
163	1
164	11
165	4
166	2
167	1
178	1
179	2
180	14
181	4
189	1
191	1
192	29
193	4
194	1
208	1
217	1
218	4
219	3
220	1
221	1
237	12
238	14
239	33
240	6
263	1
265	14
266	3
283	110
284	20
285	2
