Mass Spectrum: Chloroacetic acid, undecyl ester
Formula: C13H25ClO2
CAS: 5458-29-7
Molecular weight: 248
m/z	intensity
22	1
25	2
26	14
27	61
28	3
29	130
30	5
31	5
35	5
36	33
37	4
38	14
39	80
40	24
41	456
42	241
43	617
44	45
45	7
47	1
48	3
49	89
50	15
51	36
52	10
53	43
54	99
55	893
56	751
57	659
58	32
59	3
60	3
61	9
63	1
65	9
66	14
67	142
68	312
69	996
70	888
71	337
72	19
73	7
76	15
77	335
78	16
79	132
80	8
81	70
82	413
83	999
84	670
85	237
86	16
87	2
91	6
92	1
93	3
94	25
95	200
96	161
97	852
98	375
99	76
100	5
101	3
105	2
107	22
108	2
109	19
110	55
111	343
112	177
113	36
114	2
115	1
116	1
117	1
118	1
119	2
121	6
122	1
123	10
124	27
125	146
126	399
127	42
128	2
129	1
132	1
133	1
134	1
135	17
136	1
137	7
138	1
139	3
149	1
150	1
151	1
152	14
153	5
154	157
155	37
156	3
160	5
162	1
163	1
165	1
169	3
171	3
197	2
199	81
200	11
201	1
212	1
248	1
