Mass Spectrum: Tricyclo[4.3.1.1(2,5)]undec-3-en-10-one
Formula: C11H14O
CAS: 54585-23-8
Molecular weight: 162
m/z	intensity
26	9
27	141
28	12
29	23
30	0
31	2
37	4
38	16
39	218
40	46
41	155
42	10
43	30
44	0
45	1
49	1
50	24
51	73
52	38
53	66
54	11
55	167
56	8
57	9
58	3
61	1
62	8
63	30
64	11
65	94
66	257
67	123
68	27
69	36
70	3
71	1
74	5
75	7
76	4
77	212
78	122
79	257
80	53
81	17
82	10
83	14
84	9
85	1
86	1
87	1
89	9
90	5
91	354
92	118
93	138
94	38
95	68
96	999
97	414
98	26
99	1
101	1
102	5
103	25
104	13
105	119
106	94
107	42
108	12
109	1
114	1
115	17
116	27
117	26
118	17
119	57
120	27
121	16
122	2
127	3
128	9
129	39
130	4
131	7
132	3
133	70
134	72
135	9
136	1
141	1
142	1
143	20
144	28
145	7
146	1
147	30
148	3
149	1
160	1
161	21
162	248
163	29
164	2
