Mass Spectrum: 2,4-Imidazolidinedione, 5-(4-hydroxybutyl)-
Formula: C7H12N2O3
CAS: 5458-06-0
Molecular weight: 172
m/z	intensity
28	41
29	146
30	47
31	194
38	6
39	78
40	27
41	179
42	112
43	316
44	97
45	46
46	7
50	4
51	7
52	7
53	29
54	62
55	235
56	170
57	58
58	5
59	6
60	6
61	36
65	4
66	4
67	12
68	31
69	35
70	102
71	10
72	42
73	14
74	2
78	2
80	4
81	4
82	57
83	110
84	32
85	71
86	11
87	4
88	2
89	2
92	1
94	1
95	0
96	13
97	3
98	9
99	128
100	999
101	54
102	6
103	1
104	0
109	1
110	2
111	4
112	471
113	381
114	34
115	13
116	3
124	1
125	53
126	30
127	9
128	2
129	1
131	0
138	2
139	8
140	1
141	5
142	51
143	4
144	2
145	1
149	0
152	1
153	3
154	249
155	35
156	2
157	1
158	0
159	0
169	1
170	1
171	1
172	13
173	2
