Mass Spectrum: Propanamide, 3,3'-thiobis-
Formula: C6H12N2O2S
CAS: 5459-10-9
Molecular weight: 176
m/z	intensity
14	1
15	5
16	7
17	10
18	57
25	1
26	18
27	106
28	73
29	15
30	141
31	5
32	2
33	3
34	7
35	31
37	1
39	3
40	2
41	13
42	38
43	42
44	668
45	115
46	35
47	34
48	6
49	2
51	2
52	6
53	9
54	29
55	176
56	43
57	84
58	37
59	130
60	64
61	351
62	36
63	19
64	2
69	1
70	6
71	15
72	660
73	999
74	96
75	12
76	3
77	5
81	1
83	1
84	1
85	6
86	19
87	173
88	31
89	19
90	2
91	1
97	1
98	23
99	6
100	4
101	3
102	5
103	31
104	441
105	453
106	44
107	20
108	1
113	2
114	112
115	28
116	7
117	8
118	10
119	2
120	1
121	1
126	4
131	276
132	36
133	14
134	1
140	1
141	3
142	81
143	18
144	5
148	2
158	9
159	12
160	8
161	1
176	461
177	77
178	26
179	3
