Mass Spectrum: Acetic acid, lithium salt
Formula: C2H3LiO2
CAS: 546-89-4
Molecular weight: 66
m/z	intensity
28	26
29	11
30	12
41	6
42	29
43	169
44	74
45	64
51	59
58	41
60	51
71	7
72	197
73	999
74	28
75	5
88	6
89	60
105	1
106	5
117	2
138	4
139	18
204	2
205	6
