Mass Spectrum: Conessine
Formula: C24H40N2
CAS: 546-06-5
Molecular weight: 356
m/z	intensity
42	19
44	18
56	20
58	20
70	28
71	144
79	21
80	40
81	20
82	39
84	999
85	51
327	20
341	30
342	9
355	10
356	20
