Mass Spectrum: 5-Isopropyl-2-methylbicyclo[3.1.0]hexan-2-ol  #
Formula: C10H18O
CAS: 546-79-2
Molecular weight: 154
m/z	intensity
26	2
27	65
29	42
30	1
31	10
37	2
38	8
39	168
40	33
41	325
42	31
43	749
44	20
45	27
50	21
51	70
52	32
53	153
54	40
55	308
56	41
57	41
58	122
59	37
60	5
61	5
62	8
63	26
64	7
65	96
66	33
67	229
68	97
69	381
70	54
71	999
72	48
73	5
74	4
75	3
76	3
77	289
78	50
79	315
80	89
81	415
82	63
83	155
84	145
85	20
86	92
87	8
89	6
90	1
91	299
92	197
93	799
94	169
95	114
96	81
97	107
98	26
99	5
102	3
103	17
104	7
105	73
106	18
107	103
108	31
109	21
110	34
111	462
112	43
113	4
115	9
116	2
117	10
119	40
120	7
121	422
122	44
123	14
124	4
125	48
126	21
127	2
132	1
134	7
135	4
136	225
137	26
138	2
139	208
140	22
141	2
154	61
155	10
156	1
