Mass Spectrum: 3,5-Dinitrobenzoic acid, 3,7,11-trimethyldodeca-2,6,10-trienyl ester
Formula: C22H28N2O6
CAS: 54605-44-6
Molecular weight: 416
m/z	intensity
27	15
29	26
30	2
31	2
35	1
36	2
38	2
39	26
40	10
41	293
42	15
43	28
44	2
50	3
51	3
52	2
53	43
54	3
55	59
56	9
57	16
63	6
64	2
65	18
66	7
67	95
68	128
69	999
70	60
71	6
73	1
74	12
75	56
76	8
77	24
78	4
79	43
80	43
81	244
82	26
83	8
84	3
87	5
88	2
89	2
91	39
92	16
93	127
94	23
95	57
97	2
98	2
99	1
103	27
104	10
106	31
107	8
109	26
110	3
111	2
112	2
115	3
117	4
119	31
120	15
121	75
122	18
124	66
125	5
126	1
127	2
128	1
129	3
131	3
132	2
133	18
134	15
135	63
136	256
137	127
138	12
139	2
140	2
141	2
142	2
143	2
144	2
145	3
147	11
148	11
149	205
150	16
151	3
152	2
153	2
155	2
160	2
161	1
162	72
165	8
167	2
168	1
169	1
170	2
171	2
172	1
175	3
177	4
179	10
182	3
186	2
188	2
189	14
190	2
191	2
195	185
196	14
197	2
198	1
203	3
204	19
205	7
209	1
210	2
211	2
223	5
251	2
252	2
254	2
278	2
279	2
360	2
373	7
374	2
399	11
400	3
401	4
416	43
417	9
