Mass Spectrum: 2,4(3H,5H)-Furandione, 3,5-dimethyl-
Formula: C6H8O3
CAS: 5460-81-1
Molecular weight: 128
m/z	intensity
39	30
41	40
43	130
44	40
45	40
55	90
56	999
57	130
58	10
83	30
85	240
86	30
100	110
101	10
113	60
128	210
129	40
