Mass Spectrum: 1-(Trimethylsiloxy)-2-methoxy-4-(1-trimethylsiloxyethenyl)-benzene
Formula: C15H26O3Si2
CAS: 54619-52-2
Molecular weight: 310
m/z	intensity
73	999
175	19
177	30
179	29
190	50
191	49
193	30
205	40
206	49
221	218
222	40
223	29
236	19
237	19
253	40
265	99
266	20
267	49
279	616
280	159
281	60
295	407
296	89
297	29
309	289
310	387
311	99
312	29
