Mass Spectrum: N'-Phenylisobutyrohydrazide
Formula: C10H14N2O
CAS: 5461-50-7
Molecular weight: 178
m/z	intensity
26	1
27	13
28	7
29	7
31	1
38	3
39	19
40	3
41	25
42	7
43	260
44	9
50	5
51	24
52	8
53	6
54	2
55	2
59	1
62	1
63	6
64	7
65	38
66	10
67	1
68	2
69	2
70	2
71	78
72	5
73	1
74	1
75	1
76	2
77	89
78	22
79	16
80	15
81	4
90	2
91	26
92	59
93	42
94	3
105	5
106	4
107	258
108	999
109	75
110	2
118	2
120	1
134	2
135	2
145	1
176	1
178	483
179	61
180	4
