Mass Spectrum: 4-Methyl-N-phenylbenzimidoyl cyanide
Formula: C15H12N2
CAS: 54615-67-7
Molecular weight: 220
m/z	intensity
77	999
78	260
83	700
85	490
89	160
91	220
103	130
116	130
117	100
136	160
143	130
194	400
205	310
219	400
220	860
221	170
