Mass Spectrum: Benzeneacetic acid, 4-cyano-
Formula: C9H7NO2
CAS: 5462-71-5
Molecular weight: 161
m/z	intensity
18	1
26	2
27	5
28	7
29	2
37	10
38	18
39	48
40	4
41	3
42	1
43	6
44	8
45	20
49	4
50	25
51	29
52	9
53	3
55	1
56	3
57	17
58	20
60	2
61	15
62	44
63	80
64	36
65	18
66	4
71	13
72	6
73	2
74	7
75	14
76	14
77	13
78	3
79	1
80	1
84	1
85	4
86	8
87	18
88	69
89	236
90	151
91	16
92	1
98	1
99	3
100	2
101	1
102	4
103	2
104	4
105	1
111	1
112	1
113	1
114	63
115	252
116	999
117	499
118	40
119	16
120	1
128	4
130	2
132	2
133	2
135	1
143	203
144	23
145	1
161	425
162	43
163	4
