Mass Spectrum: Ritalinic acid
Formula: C13H17NO2
CAS: 54631-24-2
Molecular weight: 219
m/z	intensity
39	77
43	55
45	16
50	16
52	22
54	22
55	132
56	220
57	27
60	27
76	55
82	38
83	38
84	999
89	55
91	242
92	38
103	22
115	38
116	22
118	38
129	22
136	44
175	21
218	1
