Mass Spectrum: 7-Azabicyclo[4.1.0]heptane, 3-methyl-
Formula: C7H13N
CAS: 54644-35-8
Molecular weight: 111
m/z	intensity
40	30
41	250
42	170
43	180
44	30
45	40
46	10
51	20
53	40
54	80
55	80
56	180
57	90
67	100
68	999
69	880
70	80
77	20
79	30
80	30
81	40
82	130
83	260
84	20
94	30
96	540
97	30
110	50
111	20
