Mass Spectrum: Propanoic acid, 2,2-dimethyl-, 2,6-bis(1,1-dimethylethyl)-4-methylphenyl ester
Formula: C20H32O2
CAS: 54644-43-8
Molecular weight: 304
m/z	intensity
41	260
42	10
43	30
44	110
53	10
55	50
56	10
57	999
58	70
77	10
85	300
86	10
91	30
105	30
115	10
119	10
121	10
128	10
145	10
161	30
189	30
205	340
206	40
220	190
221	10
304	40
