Mass Spectrum: Propanoic acid, 2,2-dimethyl-, 2-(1,1-dimethylethyl)-4-methylphenyl ester
Formula: C16H24O2
CAS: 54644-42-7
Molecular weight: 248
m/z	intensity
41	222
42	20
53	10
55	20
57	999
58	20
77	30
79	10
85	60
91	40
105	60
115	10
121	60
149	424
150	20
164	171
248	30
