Mass Spectrum: Trichothec-9-en-8-one, 12,13-epoxy-3,7,15-trihydroxy-, monoacetate, (3.alpha.,7.alpha.)-
Formula: C17H22O7
CAS: 54648-10-1
Molecular weight: 338
m/z	intensity
34	229
36	108
37	180
39	594
40	189
41	644
43	639
44	999
45	162
47	603
48	310
49	234
50	99
51	117
52	54
53	261
54	63
55	581
56	247
57	427
61	108
65	211
66	72
67	243
69	265
70	486
71	76
72	99
73	58
77	432
78	157
79	581
80	229
81	238
82	121
83	747
84	153
85	675
87	310
88	67
91	563
92	153
93	301
94	81
95	400
96	184
97	274
98	594
99	80
103	81
105	423
106	94
107	545
108	292
109	319
110	76
111	112
115	103
117	193
118	85
119	135
120	67
121	319
122	126
123	193
124	166
125	243
126	54
128	58
129	76
131	103
133	153
134	85
135	459
136	310
137	198
138	81
139	67
143	58
145	202
146	139
147	103
149	99
151	220
153	76
157	72
159	130
161	130
163	509
164	378
165	63
171	58
173	954
174	49
175	193
177	81
181	409
182	58
185	94
187	85
188	67
189	103
191	63
201	76
203	256
204	112
205	67
223	261
231	108
241	121
248	67
249	54
290	135
291	135
338	121
339	22
