Mass Spectrum: O-Methyl-N,N'-diisopropylisourea
Formula: C8H18N2O
CAS: 54648-79-2
Molecular weight: 158
m/z	intensity
26	1
27	29
28	21
29	9
30	13
31	2
32	2
33	1
37	1
38	2
39	41
40	13
41	112
42	90
43	170
44	342
45	11
51	1
52	2
53	3
54	7
55	9
56	40
57	16
58	999
59	48
60	17
61	1
64	29
65	1
66	1
67	5
68	4
69	146
70	79
71	13
72	253
73	20
74	49
75	13
76	1
82	1
83	24
84	54
85	36
86	548
87	30
88	5
97	1
98	13
99	6
100	106
101	235
102	17
103	1
111	22
112	2
113	18
114	1
115	38
116	13
117	2
125	1
126	7
127	24
128	2
129	1
141	6
143	461
144	41
145	3
157	23
158	283
159	32
160	2
