Mass Spectrum: 2-Propanol, 1-[(1-ethynylcyclohexyl)oxy]-
Formula: C11H18O2
CAS: 54644-17-6
Molecular weight: 182
m/z	intensity
14	3
15	28
18	4
19	22
26	14
27	142
28	51
29	136
30	8
31	185
32	10
37	5
38	14
39	239
40	48
41	274
42	70
43	328
44	17
45	511
46	13
47	11
50	39
51	123
52	93
53	171
54	73
55	222
56	23
57	43
58	155
59	289
60	11
61	5
62	10
63	34
64	13
65	158
66	72
67	401
68	189
69	61
70	34
71	29
72	6
73	3
74	31
75	80
76	7
77	278
78	97
79	999
80	205
81	528
82	72
83	61
84	28
85	7
86	14
87	3
89	37
90	4
91	434
92	72
93	698
94	77
95	148
96	74
97	51
98	9
99	8
103	15
104	4
105	96
106	69
107	479
108	563
109	158
110	36
111	21
112	5
115	2
117	2
119	14
120	5
121	16
122	3
123	57
124	31
125	215
126	22
127	4
131	3
135	7
136	4
137	90
138	25
139	67
140	7
141	2
149	29
150	3
151	7
152	3
153	5
154	5
167	13
182	12
184	1
