Mass Spectrum: Propanoic acid, 2,2-dimethyl-, 2-(1,1-dimethylethyl)phenyl ester
Formula: C15H22O2
CAS: 54644-41-6
Molecular weight: 234
m/z	intensity
41	185
42	15
43	5
51	5
53	10
55	25
57	999
58	30
63	5
65	20
77	30
78	10
79	10
85	100
91	90
95	5
105	15
107	60
115	20
119	10
121	5
134	5
135	365
136	30
150	85
234	30
