Mass Spectrum: Oxirane, 2,3-bis(1-methylethyl)-, trans-
Formula: C8H16O
CAS: 54644-32-5
Molecular weight: 128
m/z	intensity
41	730
42	50
43	350
44	20
45	30
50	10
51	10
53	30
54	20
55	230
56	999
57	260
58	20
59	10
67	10
69	30
70	10
71	80
72	120
73	230
74	10
95	10
111	10
113	20
128	20
