Mass Spectrum: Carbamic acid, butylmethyl-, methyl ester
Formula: C7H15NO2
CAS: 54644-60-9
Molecular weight: 145
m/z	intensity
41	120
42	250
43	80
44	70
45	10
54	10
55	20
56	40
57	70
58	380
59	210
70	10
72	10
74	10
88	10
102	999
103	40
114	20
130	10
145	90
146	10
