Mass Spectrum: Carbamic acid, butylmethyl-, phenyl ester
Formula: C12H17NO2
CAS: 54644-61-0
Molecular weight: 207
m/z	intensity
43	30
44	40
50	50
51	140
53	10
55	20
62	20
63	70
64	30
65	280
66	220
67	10
74	10
76	10
77	240
78	20
79	20
93	20
94	999
95	100
107	10
121	10
122	30
164	40
