Mass Spectrum: .alpha.,.beta.-Dibromo-.beta.-phenylpropionic acid ethyl ester
Formula: C11H12Br2O2
CAS: 5464-70-0
Molecular weight: 334
m/z	intensity
14	2
15	10
18	1
25	1
26	17
27	98
28	7
29	578
30	12
31	2
36	1
37	5
38	13
39	40
40	3
41	3
42	2
43	9
44	2
45	9
49	5
50	87
51	244
52	40
53	13
54	1
55	2
56	1
57	2
61	7
62	21
63	51
64	7
65	16
66	3
69	17
71	2
73	8
74	43
75	51
76	69
77	450
78	53
79	12
80	25
81	10
82	24
85	1
86	2
87	6
88	1
89	10
90	9
91	180
92	16
93	1
94	2
97	1
98	6
99	4
100	1
101	23
102	212
103	999
104	368
105	43
106	3
107	30
108	2
109	1
115	12
116	11
117	31
118	7
119	8
120	11
121	4
127	8
128	2
129	14
130	31
131	978
132	184
133	21
134	2
135	81
136	8
146	2
147	120
148	112
149	10
150	1
157	3
158	16
159	3
160	2
161	9
162	1
169	72
170	6
171	70
172	5
175	36
176	192
177	24
178	2
181	6
182	42
183	227
184	59
185	214
186	19
208	1
209	13
210	2
211	73
212	9
213	62
214	7
227	7
228	1
229	7
254	9
255	277
256	35
257	273
258	32
259	3
261	9
263	19
264	2
265	9
289	6
291	11
292	1
293	5
334	1
336	2
338	1
