Mass Spectrum: Propanoic acid, 2,2-dimethyl-, 2,4,6-trimethylphenyl ester
Formula: C14H20O2
CAS: 54644-40-5
Molecular weight: 220
m/z	intensity
41	300
42	30
43	10
51	10
53	10
55	10
57	999
58	30
63	10
65	40
77	60
79	40
85	70
91	200
92	20
105	20
107	10
119	10
121	170
122	30
135	90
136	920
137	80
220	110
