Mass Spectrum: 1,3-Cyclohexanedione, 2-butyl-2-methyl-
Formula: C11H18O2
CAS: 54644-26-7
Molecular weight: 182
m/z	intensity
39	426
40	85
41	894
42	319
43	277
44	21
45	11
50	11
51	43
52	21
53	117
54	38
55	500
56	64
57	43
59	11
65	21
66	11
67	106
68	47
69	574
70	117
71	43
72	4
77	26
78	4
79	32
80	2
81	43
82	11
83	64
84	60
85	32
91	17
93	64
94	11
95	32
96	11
97	153
98	277
99	17
101	19
107	11
109	21
110	4
111	999
112	106
113	4
125	21
126	426
127	43
128	4
129	11
139	336
140	32
153	17
160	4
167	4
180	2
182	74
183	11
