Mass Spectrum: 1,3-Dioxane, 4,6-bis(2,2-dimethylpropyl)-
Formula: C14H28O2
CAS: 54646-74-1
Molecular weight: 228
m/z	intensity
41	420
42	30
43	120
44	40
55	110
56	60
57	999
58	50
68	50
71	50
83	20
84	41
86	30
87	50
88	80
102	50
109	550
110	60
127	270
128	30
157	620
158	70
