Mass Spectrum: Benzeneacetic acid, .alpha.-acetyl-2,4-dinitro-, ethyl ester
Formula: C12H12N2O7
CAS: 5465-68-9
Molecular weight: 296
m/z	intensity
14	4
15	30
16	5
17	13
18	79
19	2
26	15
27	89
28	263
29	103
30	28
31	117
37	3
38	12
39	10
40	2
41	14
42	20
43	999
44	266
45	100
46	31
47	1
49	29
50	10
51	23
52	6
53	11
55	4
57	1
60	14
61	6
62	23
63	24
64	6
65	2
66	3
69	1
70	4
74	8
75	18
76	12
77	14
78	7
79	3
84	8
86	5
87	3
88	9
89	18
90	26
91	18
102	4
103	5
104	3
105	2
106	4
107	4
116	2
117	7
118	12
119	4
124	3
131	4
133	5
134	15
135	6
136	2
137	28
145	20
146	2
149	6
154	1
158	2
160	2
161	1
162	30
163	1
164	56
165	12
176	3
180	18
181	170
182	14
190	2
191	54
192	8
194	4
204	3
206	151
207	17
208	60
209	9
221	2
226	4
236	28
237	4
238	1
249	5
251	1
254	7
296	6
