Mass Spectrum: 2-Heptanone, 3-ethyl-3-hydroxy-
Formula: C9H18O2
CAS: 54658-03-6
Molecular weight: 158
m/z	intensity
41	128
42	19
43	395
45	217
55	485
56	19
57	188
58	19
59	237
69	29
71	19
72	29
73	999
74	49
83	49
85	19
87	9
97	9
101	297
102	19
111	19
115	247
116	19
129	9
140	891
141	10
143	3
158	7
159	2
