Mass Spectrum: Octane, 3-methoxy-
Formula: C9H20O
CAS: 54658-02-5
Molecular weight: 144
m/z	intensity
39	100
40	20
41	320
42	40
43	110
45	390
53	10
55	220
56	20
57	60
58	70
59	30
69	10
70	10
71	40
72	20
73	999
74	50
83	220
84	20
115	290
116	20
