Mass Spectrum: 4,25-Secoobscurinervan-4-ol, 15,16-dimethoxy-22-methyl-, 21-acetate, (4.beta.,22.alpha.)-
Formula: C26H36N2O6
CAS: 54658-13-8
Molecular weight: 472
m/z	intensity
60	430
61	107
63	15
65	46
66	38
67	384
68	246
69	999
70	307
71	615
72	46
73	138
74	46
75	23
76	15
77	107
78	76
79	123
80	92
81	400
82	215
83	461
84	200
85	307
86	46
87	46
89	15
90	15
91	92
92	30
93	46
94	46
95	215
96	200
97	338
98	92
99	76
100	15
101	23
102	15
103	23
104	23
105	38
106	30
107	38
108	46
109	138
110	115
111	100
112	30
113	38
114	7
115	38
116	23
117	38
118	23
119	38
120	38
121	38
122	576
123	115
124	38
125	46
126	23
127	30
128	23
129	38
130	30
131	30
132	38
133	38
134	30
135	30
136	38
137	38
138	69
139	30
140	138
141	38
142	15
143	23
144	23
145	30
146	46
147	30
148	30
149	23
150	15
151	7
152	23
153	15
154	23
155	23
156	23
157	23
158	38
159	30
160	38
161	76
162	30
163	15
164	7
165	7
166	69
167	23
168	23
169	30
170	53
171	30
172	23
173	15
174	23
175	38
176	53
177	46
178	23
179	7
180	15
181	15
182	769
183	115
184	53
185	84
186	15
187	7
188	15
189	7
190	15
191	15
192	23
193	15
196	7
197	7
198	15
199	7
200	7
201	7
202	7
203	7
204	15
205	7
206	38
207	7
213	7
214	7
218	7
230	7
246	38
247	7
256	7
258	7
259	7
260	30
261	7
274	7
288	7
397	46
398	7
412	38
413	7
457	46
458	7
472	107
473	23
