Mass Spectrum: 4,25-Secoobscurinervan-4-one, O-acetyl-22-ethyl-15,16-dimethoxy-, (22.alpha.)-
Formula: C27H36N2O6
CAS: 54658-08-1
Molecular weight: 484
m/z	intensity
60	16
61	32
62	29
63	135
64	6
65	12
66	9
67	32
68	19
69	55
70	19
71	29
72	12
73	74
74	141
75	67
76	161
77	172
78	999
79	225
80	161
81	32
82	22
83	41
84	35
85	19
86	22
87	9
88	6
89	6
90	3
91	12
92	6
93	9
94	9
95	22
96	12
97	22
98	12
99	9
100	6
101	5
102	4
103	4
104	7
105	10
106	6
107	8
108	9
109	16
110	10
111	13
112	6
113	7
114	4
115	7
116	4
117	6
118	4
119	8
120	6
121	7
122	27
123	12
124	8
125	9
126	5
127	6
128	6
129	5
130	5
131	5
132	4
133	7
134	6
135	11
136	5
137	6
138	16
139	10
140	4
141	8
142	5
143	7
144	5
145	5
146	4
147	7
148	4
149	23
150	5
151	8
152	5
153	8
154	5
155	5
156	7
157	5
158	4
159	5
160	6
161	7
162	4
163	6
164	4
165	5
166	5
167	9
168	8
169	8
170	5
171	4
172	3
173	4
174	4
175	5
176	4
177	6
178	4
179	5
180	5
181	6
182	108
183	30
184	7
185	5
186	3
187	4
188	3
189	3
190	3
191	6
192	3
193	5
194	5
195	5
196	5
197	6
198	3
199	3
200	3
201	3
202	3
203	3
204	4
205	4
206	4
207	9
208	5
209	5
210	4
211	4
212	5
213	3
214	3
215	3
216	4
217	3
218	3
219	3
220	3
221	5
222	7
223	4
224	12
225	4
226	2
227	2
228	2
229	2
230	3
231	1
232	2
233	1
234	3
235	4
236	4
237	3
238	3
239	3
240	3
241	3
242	4
243	3
244	4
245	3
246	3
247	2
248	2
249	3
250	3
251	6
252	4
253	4
254	3
255	3
256	1
257	2
258	5
259	3
260	25
261	6
262	2
263	4
264	1
265	3
266	3
267	4
268	3
269	3
270	1
271	2
272	4
273	4
274	9
275	2
276	1
277	1
278	3
279	5
280	4
281	9
282	5
283	3
284	2
285	2
286	3
287	2
291	3
292	2
293	2
294	6
295	4
296	3
297	3
298	3
299	2
300	2
306	9
307	4
308	3
309	3
310	4
311	5
312	3
313	2
324	2
325	2
326	3
327	3
329	2
338	2
339	2
340	2
341	3
343	2
355	5
367	2
369	3
370	2
381	2
382	2
395	2
396	2
403	2
405	2
409	2
424	5
425	2
429	2
442	3
443	2
455	10
456	4
469	11
470	5
480	1
482	3
483	3
484	89
485	26
486	4
