Mass Spectrum: Butanoic acid, 2-ethyl-3-hydroxy-, ethyl ester
Formula: C8H16O3
CAS: 5465-11-2
Molecular weight: 160
m/z	intensity
26	10
27	152
28	11
29	206
30	7
31	33
38	3
39	55
40	11
41	168
42	65
43	256
44	31
45	533
46	13
47	16
51	3
53	13
54	3
55	281
56	16
57	51
58	9
59	24
60	30
61	7
67	10
68	10
69	149
70	428
71	250
72	26
73	999
74	32
75	19
81	4
82	3
83	9
84	5
85	14
86	18
87	59
88	278
89	49
90	3
91	5
95	3
96	4
97	69
98	10
99	243
100	12
101	677
102	37
103	14
113	16
114	18
115	302
116	677
117	52
118	4
127	3
128	23
129	5
131	13
132	4
141	4
142	2
143	6
144	3
145	57
146	4
161	8
