Mass Spectrum: 4,25-Secoobscurinervan-4-ol, 6,7-didehydro-16-methoxy-22-methyl-, 21-acetate, (4.beta.,22.alpha.)-
Formula: C25H32N2O5
CAS: 54658-05-8
Molecular weight: 440
m/z	intensity
60	220
61	70
62	20
63	70
64	40
65	170
66	80
67	270
68	160
69	430
70	240
71	320
72	50
73	100
74	40
75	50
76	60
77	360
78	150
79	350
80	180
81	300
82	120
83	180
84	120
85	150
86	80
87	50
89	70
90	70
91	340
92	140
93	390
94	170
95	110
96	80
97	120
98	50
99	40
100	20
101	40
102	60
103	130
104	90
105	999
106	290
107	170
108	130
109	130
110	60
111	70
112	100
113	40
114	50
115	120
116	110
117	170
118	140
119	200
120	450
121	130
122	130
123	80
124	70
125	50
126	30
127	50
128	80
129	100
130	140
131	100
132	120
133	100
134	230
135	90
136	120
137	160
138	130
139	50
140	90
141	50
142	50
143	60
144	80
145	120
146	150
147	70
148	40
149	40
150	270
151	160
152	60
153	50
154	100
155	50
156	70
157	70
158	130
159	80
160	170
161	120
162	90
163	20
164	90
165	30
166	360
167	90
168	240
169	110
170	60
171	50
172	80
173	60
174	140
175	80
176	150
177	50
178	20
179	760
180	390
181	80
182	230
183	60
184	50
185	30
186	60
187	40
188	110
189	50
190	180
191	30
192	100
193	500
194	80
195	10
196	20
197	20
198	40
199	70
200	80
201	60
202	80
203	230
204	80
205	30
206	20
210	20
212	20
213	20
214	80
215	70
216	520
217	130
218	70
219	10
220	10
222	10
223	10
224	80
225	20
226	20
228	20
229	60
230	570
231	300
232	100
233	20
242	30
243	20
244	70
245	20
246	50
247	20
256	20
258	30
260	80
261	10
262	60
272	20
274	10
275	10
295	10
353	40
365	10
380	70
381	20
396	20
397	10
398	10
420	10
439	10
440	280
441	70
442	20
