Mass Spectrum: 1-Phenyl-1H,4H,9H-naphtho[2,3-d][1,2,3]triazole-4,9-dione
Formula: C16H9N3O2
CAS: 5466-47-7
Molecular weight: 275
m/z	intensity
37	19
38	56
39	210
40	13
44	6
50	270
51	471
52	65
53	16
61	37
62	142
63	124
64	59
65	23
66	6
73	12
74	152
75	164
76	539
77	999
78	91
85	6
86	29
87	89
88	245
89	29
90	4
91	4
98	10
99	22
100	26
101	9
102	5
103	11
104	154
105	13
109	4
111	4
112	5
113	8
114	247
115	46
116	4
126	27
127	6
128	10
139	4
140	6
142	19
143	22
144	4
151	8
152	22
153	9
154	12
163	38
164	78
165	24
170	21
176	5
177	6
178	30
179	42
180	4
188	5
189	8
190	273
191	68
192	6
202	8
203	115
204	19
218	9
219	277
220	43
246	11
247	267
248	45
258	6
275	111
276	21
277	6
