Mass Spectrum: Cycloheptanone, 2-(2-oxo-2-phenylethyl)-
Formula: C15H18O2
CAS: 54669-79-3
Molecular weight: 230
m/z	intensity
26	4
27	46
29	35
38	4
39	54
40	7
41	88
42	19
43	23
44	3
45	1
50	19
51	93
52	9
53	24
54	16
55	138
56	10
57	4
58	1
59	1
62	1
63	5
64	0
65	8
66	2
67	16
68	5
69	15
70	4
71	1
73	2
74	3
75	5
76	20
77	422
78	47
79	19
80	4
81	21
82	6
83	10
84	2
87	1
89	1
90	0
91	14
92	3
93	8
94	0
95	4
96	0
97	14
98	81
99	5
102	2
103	5
104	5
105	999
106	90
107	18
108	7
109	1
110	24
111	113
112	15
113	1
115	9
116	2
117	4
118	2
120	373
121	36
122	1
123	0
124	3
125	117
126	16
127	4
128	2
129	2
130	1
131	7
132	9
133	123
134	46
135	7
137	0
139	1
141	6
142	0
143	4
144	2
145	10
146	5
147	2
148	0
149	2
151	1
153	3
155	1
156	0
157	2
158	3
159	44
160	25
161	2
165	1
169	0
170	1
171	2
173	25
174	3
183	21
184	8
185	2
187	2
194	0
196	0
197	0
201	4
202	6
207	1
211	6
212	25
213	4
229	0
230	153
231	27
232	4
