Mass Spectrum: p-Phenylenediurethane
Formula: C12H16N2O4
CAS: 5466-93-3
Molecular weight: 252
m/z	intensity
43	18
45	46
51	32
52	109
53	110
54	25
63	32
64	25
65	29
66	3
77	18
78	53
79	140
80	325
81	31
90	30
91	17
92	3
93	14
105	71
106	121
107	999
108	248
109	20
119	27
120	31
121	72
122	3
133	71
134	147
135	236
136	26
147	112
148	3
149	13
151	126
152	78
153	3
161	3
162	3
165	76
177	21
178	58
179	268
180	50
181	7
193	21
195	4
196	78
197	6
205	7
206	144
207	58
223	4
224	140
225	19
252	929
253	147
254	17
