Mass Spectrum: N,N'-(4-Methyl-O-phenylene)dibenzamide
Formula: C21H18N2O2
CAS: 5467-06-1
Molecular weight: 330
m/z	intensity
27	2
28	1
38	1
39	7
40	1
41	2
43	2
50	7
51	46
52	7
53	2
54	1
55	1
57	2
62	1
63	4
64	2
65	8
66	5
67	1
69	1
71	2
74	1
75	4
76	14
77	499
78	41
79	4
80	1
81	1
83	1
85	1
89	2
90	1
91	2
92	5
93	3
94	5
95	1
97	1
102	3
103	7
104	23
105	999
106	87
107	5
111	1
115	1
119	2
120	1
121	1
122	8
123	1
127	1
128	1
139	2
140	1
141	1
147	4
148	3
149	1
151	1
152	2
153	1
154	1
165	1
167	1
178	1
180	3
181	2
182	2
192	3
193	1
195	2
196	3
197	1
205	2
206	1
207	58
208	505
209	208
210	30
211	2
223	1
224	1
225	17
226	3
242	3
243	1
244	1
283	1
296	1
311	3
312	139
313	37
314	5
330	305
331	73
332	9
