Mass Spectrum: 4-Quinolinecarboxylic acid, 2-chloro-
Formula: C10H6ClNO2
CAS: 5467-57-2
Molecular weight: 207
m/z	intensity
35	112
36	85
37	207
38	226
39	186
40	73
41	45
42	7
43	28
44	99
45	999
47	51
48	6
49	99
50	305
51	270
52	102
53	39
55	9
57	13
60	31
61	127
62	236
63	178
64	67
65	17
66	4
70	5
72	11
73	64
74	282
75	327
76	106
77	64
78	11
79	14
85	10
86	38
87	39
88	33
89	126
90	5
96	5
97	12
98	49
99	73
100	103
101	292
102	36
113	5
114	14
115	28
116	120
117	10
118	2
125	4
126	62
127	125
128	158
129	3
130	5
144	25
145	4
151	103
152	15
153	26
154	5
161	25
162	118
163	27
164	36
171	11
172	20
189	28
190	52
191	12
192	17
193	4
207	499
208	50
209	164
210	16
