Mass Spectrum: Benzene, [(ethoxymethoxy)methyl]-
Formula: C10H14O2
CAS: 54673-14-2
Molecular weight: 166
m/z	intensity
24	1
26	8
27	16
28	19
29	63
30	7
31	72
33	5
36	1
37	3
38	2
39	66
40	1
41	26
42	8
43	26
44	12
45	806
46	20
47	4
49	1
50	18
51	50
52	12
53	4
55	1
56	0
57	2
58	17
59	56
60	35
61	4
62	6
63	31
64	9
65	128
66	8
67	1
69	7
70	2
73	1
74	1
75	18
76	6
77	38
78	15
79	24
80	3
86	1
87	3
88	4
89	31
90	17
91	999
92	114
93	6
94	1
102	1
103	4
104	31
105	78
106	55
107	282
108	29
109	1
115	1
116	0
120	1
121	3
128	0
133	9
134	17
135	1
165	2
166	86
167	10
