Mass Spectrum: 4-Bromobenzeneboronic acid
Formula: C6H6BBrO2
CAS: 5467-74-3
Molecular weight: 200
m/z	intensity
25	2
26	7
27	18
28	10
29	2
36	4
37	29
38	69
39	25
40	1
41	1
43	1
44	68
45	282
46	2
47	1
48	4
49	29
50	285
51	323
52	28
53	23
54	1
55	1
60	3
61	9
62	9
63	5
64	2
65	4
66	1
72	4
73	29
74	121
75	143
76	149
77	999
78	76
79	13
80	3
81	4
82	3
85	1
91	1
93	1
100	3
101	6
102	10
103	38
104	9
105	2
106	2
107	3
109	1
111	1
116	1
117	2
118	1
119	2
120	8
121	27
122	3
128	3
129	5
130	3
131	5
132	1
141	1
143	1
152	3
153	3
154	7
155	31
156	412
157	58
158	397
159	25
161	1
163	1
178	1
179	2
181	2
182	13
183	14
184	13
185	11
199	85
200	352
201	106
202	345
203	22
204	3
