Mass Spectrum: 5-Chloro-1H-1,2,4-triazole-3-carboxamide
Formula: C3H3ClN4O
CAS: 54671-66-8
Molecular weight: 146
m/z	intensity
35	38
36	46
37	11
38	125
39	80
40	100
41	123
42	236
43	153
44	995
45	35
47	250
48	137
49	85
50	42
51	4
52	11
53	72
54	73
55	50
56	11
57	23
60	3
61	23
62	138
63	132
64	54
65	44
66	14
67	54
68	47
69	131
70	12
71	50
73	84
74	52
75	999
76	370
77	324
78	113
79	4
81	2
83	9
84	7
85	6
87	5
89	4
91	8
101	10
102	15
103	599
104	26
105	192
106	5
112	12
118	114
119	2
120	33
129	2
130	34
132	11
146	684
147	50
148	229
149	16
