Mass Spectrum: Propanedinitrile, (benzoyloxy)phenyl-
Formula: C16H10N2O2
CAS: 5467-94-7
Molecular weight: 262
m/z	intensity
40	1
43	1
49	1
50	40
51	209
52	6
57	0
61	4
62	10
63	23
64	6
74	10
75	10
77	344
78	9
86	1
87	12
88	23
89	1
102	0
105	999
106	59
113	0
114	95
115	24
122	2
129	0
131	3
139	0
141	390
142	33
190	3
191	0
218	9
262	12
263	0
