Mass Spectrum: 3,5-Heptanedione, 2,2,4,6,6-pentamethyl-
Formula: C12H22O2
CAS: 5467-42-5
Molecular weight: 198
m/z	intensity
27	35
28	25
29	156
30	3
31	2
37	0
38	0
39	41
40	5
41	221
42	22
43	36
44	3
45	1
50	0
51	1
52	0
53	6
54	0
55	23
56	17
57	999
58	58
59	3
65	0
67	2
68	0
69	13
70	10
71	11
72	16
73	0
77	1
79	3
80	0
81	18
82	1
83	4
84	0
85	376
86	23
87	0
88	0
91	0
93	0
95	1
96	4
97	17
98	2
99	231
100	13
101	1
109	0
113	2
114	196
115	14
116	0
120	0
123	0
125	0
126	0
137	0
140	0
141	4
142	0
143	1
144	0
165	0
183	1
184	0
198	9
199	4
200	0
