Mass Spectrum: Methanamine, N-[2-methyl-1-(1-methylethyl)butylidene]-
Formula: C9H19N
CAS: 54699-50-2
Molecular weight: 141
m/z	intensity
41	220
42	999
43	130
44	10
51	10
52	10
53	20
54	20
55	40
56	40
57	120
58	10
66	10
67	10
68	70
69	30
70	20
71	20
82	20
84	390
85	40
98	460
99	70
113	60
126	30
141	50
142	10
