Mass Spectrum: 2-Nonanone, 9-[(tetrahydro-2H-pyran-2-yl)oxy]-
Formula: C14H26O3
CAS: 54699-41-1
Molecular weight: 242
m/z	intensity
41	260
42	60
43	999
44	80
45	10
55	310
56	70
57	80
58	380
59	170
67	60
69	20
71	120
81	20
82	90
83	110
84	40
85	520
97	10
101	160
123	60
141	10
