Mass Spectrum: 3-Nonyne, 9-methoxy-
Formula: C10H18O
CAS: 54699-39-7
Molecular weight: 154
m/z	intensity
41	370
42	30
43	40
45	999
46	20
51	40
52	20
53	120
54	10
55	300
56	10
57	10
58	40
59	10
63	10
65	60
66	60
67	330
68	160
69	20
71	270
72	30
77	140
78	30
79	830
80	180
81	180
82	130
84	80
85	20
86	90
87	10
91	120
92	20
93	610
94	90
95	30
96	20
97	60
105	10
107	130
109	20
111	30
122	30
125	130
