Mass Spectrum: Ethane, [(ethoxymethyl)thio]-
Formula: C5H12OS
CAS: 54699-20-6
Molecular weight: 120
m/z	intensity
41	100
43	50
44	20
45	180
46	180
47	380
48	20
49	20
57	20
58	120
59	999
60	50
61	90
62	100
63	40
74	40
75	300
76	20
77	20
120	270
121	20
