Mass Spectrum: Acetamide, 2-amino-N-ethyl-2-thioxo-
Formula: C4H8N2OS
CAS: 54699-19-3
Molecular weight: 132
m/z	intensity
43	20
44	30
45	50
46	10
47	10
54	40
56	10
58	10
59	70
60	999
61	130
62	70
63	10
72	10
84	20
89	80
90	10
105	20
106	10
132	300
133	50
134	10
