Mass Spectrum: Benzenesulfino-p-toluidide
Formula: C13H13NOS
CAS: 5469-22-7
Molecular weight: 231
m/z	intensity
77	338
78	70
91	30
106	777
107	999
109	209
125	299
126	30
154	29
183	9
214	19
215	129
231	40
