Mass Spectrum: 1,3-Oxathiolane-2-thione, 4-hydroxy-4,5-diphenyl-
Formula: C15H12O2S2
CAS: 54699-18-2
Molecular weight: 288
m/z	intensity
41	10
43	10
50	20
51	70
52	10
53	10
55	10
57	10
58	10
63	10
75	10
76	10
77	160
78	50
79	120
80	10
105	999
106	80
107	720
108	40
109	10
110	30
149	20
170	10
212	90
213	10
