Mass Spectrum: Carbonodithioic acid, O-(2-oxo-1,2-diphenylethyl)
Formula: C22H18O2S2
CAS: 54699-17-1
Molecular weight: 378
m/z	intensity
41	50
42	10
43	100
44	20
45	100
50	50
51	140
52	20
53	10
55	20
56	10
57	20
58	10
60	40
62	20
63	70
64	20
65	130
66	10
67	10
69	20
71	10
74	10
75	10
76	20
77	470
78	50
79	30
81	10
83	10
87	10
89	70
90	60
91	999
92	60
93	10
95	10
97	10
105	600
106	30
107	10
108	10
115	20
118	10
121	150
122	50
123	40
124	10
126	10
128	10
135	10
139	10
149	20
151	10
152	40
153	10
163	10
164	10
165	130
166	40
167	50
168	10
178	10
180	10
195	10
196	50
197	10
199	20
200	999
213	70
214	20
226	10
227	30
228	10
254	20
270	10
274	10
318	20
378	20
