Mass Spectrum: Pentane, 2-[(1-methylethyl)thio]-
Formula: C8H18S
CAS: 54699-12-6
Molecular weight: 146
m/z	intensity
41	240
42	60
43	700
44	20
45	30
47	30
53	20
55	190
56	20
58	10
59	60
60	60
61	999
62	30
64	40
69	20
70	250
71	260
75	20
76	10
89	30
103	710
104	40
105	30
131	10
146	200
147	20
148	10
