Mass Spectrum: Butane, 2,2'-[methylenebis(oxy)]bis[2-methyl-
Formula: C11H24O2
CAS: 54699-28-4
Molecular weight: 188
m/z	intensity
41	150
42	80
43	760
44	20
45	30
53	30
55	190
59	410
65	20
70	70
71	999
72	70
73	230
89	40
93	10
101	10
115	10
129	80
130	10
143	10
