Mass Spectrum: Octanoic acid, 8-[(tetrahydro-2H-pyran-2-yl)oxy]-
Formula: C13H24O4
CAS: 54699-43-3
Molecular weight: 244
m/z	intensity
41	257
42	39
43	207
44	49
45	59
47	19
53	9
54	9
55	247
56	237
57	168
58	9
59	49
60	39
67	118
68	19
69	29
70	9
71	19
73	49
74	19
81	9
82	19
83	108
84	108
85	999
86	69
87	19
96	9
97	59
98	19
101	168
102	9
125	99
143	29
171	39
