Mass Spectrum: 2-(5-Iodopentyl)-malonic acid, diethyl ester
Formula: C12H21IO4
CAS: 54696-24-1
Molecular weight: 356
m/z	intensity
26	27
27	348
28	90
29	999
30	13
31	25
38	3
39	133
40	23
41	269
42	28
43	60
44	3
46	42
47	1
50	1
51	11
52	7
53	57
54	35
55	329
56	29
57	23
58	4
59	4
60	5
65	6
66	2
67	61
68	22
69	109
70	11
73	93
74	2
77	7
79	21
80	6
81	254
82	21
83	43
84	2
85	35
86	23
87	28
88	21
91	2
93	8
95	4
97	5
98	2
99	28
100	1
101	20
104	9
105	3
108	4
109	205
110	15
111	16
113	3
114	16
115	47
127	58
128	11
132	15
133	22
137	332
138	25
141	9
155	45
156	4
160	130
161	10
165	3
173	20
183	83
184	7
229	208
230	23
237	3
311	73
312	5
356	5
