Mass Spectrum: Ethanamine, N-ethyl-N-[(1-methylethoxy)methyl]-
Formula: C8H19NO
CAS: 54699-21-7
Molecular weight: 145
m/z	intensity
40	50
41	520
42	999
43	660
44	200
45	30
52	20
53	20
54	70
55	80
56	180
57	190
58	220
59	30
68	20
70	170
71	10
72	220
73	40
74	30
84	20
85	130
86	600
87	60
102	30
