Mass Spectrum: 1H-Indole, 1-methoxy-
Formula: C9H9NO
CAS: 54698-11-2
Molecular weight: 147
m/z	intensity
29	43
30	18
31	14
32	10
37	29
38	54
39	170
40	14
41	13
43	11
44	14
49	10
50	87
51	121
52	29
53	5
58	8
59	8
60	4
61	30
62	122
63	290
64	60
65	29
66	7
67	4
73	7
74	29
75	29
76	37
77	183
78	30
84	3
85	11
86	22
87	29
88	40
89	546
90	481
91	47
92	6
98	3
101	10
102	23
103	10
104	26
105	21
114	14
115	27
116	693
117	999
118	161
119	17
128	8
129	40
130	20
131	8
132	410
133	29
145	5
146	10
147	569
148	44
149	4
