Mass Spectrum: Cyclohexane, (ethoxymethoxy)-
Formula: C9H18O2
CAS: 54699-29-5
Molecular weight: 158
m/z	intensity
41	240
42	50
43	50
44	50
45	20
47	30
53	30
54	50
55	210
56	30
57	130
58	20
59	999
60	40
67	70
68	40
69	90
70	20
71	20
75	30
77	20
79	20
81	20
82	40
83	220
84	60
85	80
94	30
111	10
112	20
113	10
115	20
129	10
158	20
