Mass Spectrum: 2(1H)-Naphthalenone, octahydro-4a,7,7-trimethyl-, trans-
Formula: C13H22O
CAS: 54699-31-9
Molecular weight: 194
m/z	intensity
50	40
51	70
52	50
53	280
54	70
55	999
56	190
57	370
58	60
59	40
63	20
64	100
65	80
66	40
67	430
68	290
69	860
70	160
71	100
73	30
76	20
77	130
78	80
79	170
80	50
81	500
82	280
83	740
84	330
85	60
91	120
92	20
93	120
94	50
95	470
96	160
97	210
98	40
99	20
103	10
104	20
105	80
106	50
107	190
108	80
109	890
110	190
111	170
112	40
115	10
116	10
117	20
118	10
119	90
120	30
121	310
122	360
123	700
124	240
125	130
126	30
133	40
135	70
136	100
137	460
138	210
139	290
140	30
147	40
148	10
149	40
150	30
151	120
152	50
153	10
161	260
162	40
164	30
165	290
166	40
167	10
176	20
177	10
179	300
180	40
194	650
195	90
