Mass Spectrum: Cyclohexanepropanamide, N,N-diethyl-
Formula: C13H25NO
CAS: 5469-03-4
Molecular weight: 211
m/z	intensity
41	178
42	63
43	62
44	179
45	9
46	5
47	1
48	0
52	3
53	31
54	29
55	271
56	57
57	36
58	497
59	17
60	1
63	0
65	8
66	4
67	65
68	12
69	63
70	18
71	15
72	239
73	164
74	57
75	2
77	9
78	2
79	22
80	4
81	23
82	27
83	35
84	12
85	4
86	117
87	73
88	6
89	0
91	11
92	1
93	18
94	5
95	124
96	13
97	4
98	7
100	386
101	30
102	6
103	0
105	1
107	1
109	4
110	2
111	4
112	10
113	50
114	33
115	999
116	78
117	11
118	19
119	3
120	1
121	31
122	2
123	0
124	0
126	10
128	345
129	58
130	4
137	2
138	10
139	4
140	4
141	1
142	2
149	0
152	1
154	8
155	2
156	2
160	0
162	0
164	0
165	0
166	0
167	0
168	27
169	4
170	1
171	0
180	0
182	39
183	6
184	0
194	1
196	6
197	0
208	0
209	2
210	20
211	108
212	55
213	15
214	1
