Mass Spectrum: 2-Propen-1-one, 3-(3-methoxyphenyl)-1-phenyl-
Formula: C16H14O2
CAS: 5470-91-7
Molecular weight: 238
m/z	intensity
50	168
51	377
63	217
75	91
76	98
77	999
89	328
101	10
102	58
105	228
130	9
133	99
161	239
178	99
179	78
195	59
207	565
208	99
209	149
210	50
237	699
238	886
