Mass Spectrum: Butanediamide, 2,3-dihydroxy-N,N'-diphenyl-, (R,R)-(+)-
Formula: C16H16N2O4
CAS: 5470-13-3
Molecular weight: 300
m/z	intensity
51	22
60	49
61	52
65	67
66	81
67	22
71	21
77	168
78	23
92	72
93	999
94	156
107	22
119	22
120	275
121	23
151	78
152	7
164	25
180	356
181	43
300	134
301	25
302	2
