Mass Spectrum: 3,5-Pyrazolidinedione, 4,4-dimethyl-1,2-diphenyl-
Formula: C17H16N2O2
CAS: 54719-43-6
Molecular weight: 280
m/z	intensity
27	41
28	35
38	15
39	79
40	25
41	163
42	117
43	13
50	23
51	157
52	22
57	13
63	29
64	71
65	43
69	23
70	63
76	22
77	999
78	82
83	21
91	100
92	16
93	37
94	14
103	10
105	556
106	48
112	18
115	11
117	11
118	144
119	37
131	10
132	87
133	41
152	40
153	33
154	37
168	10
181	12
182	144
183	37
209	12
210	16
280	869
281	137
282	20
