Mass Spectrum: Butanoic acid, 2-methylcyclohexyl ester, cis-
Formula: C11H20O2
CAS: 54714-35-1
Molecular weight: 184
m/z	intensity
41	210
42	50
43	480
44	10
53	20
54	40
55	300
56	20
57	10
66	10
67	150
68	110
69	40
70	10
71	999
72	20
81	340
82	10
89	20
95	40
96	530
97	200
113	20
127	20
141	20
