Mass Spectrum: Dimethylchlorsilyl tert-buthyl peroxide
Formula: C6H15ClO2Si
CAS: 54710-43-9
Molecular weight: 182
m/z	intensity
41	226
43	259
45	29
47	19
56	78
57	999
59	39
79	60
81	19
95	29
97	9
109	58
111	19
167	14
169	5
182	29
184	9
