Mass Spectrum: Cyclohexanol, 2-methyl-, acetate, cis-
Formula: C9H16O2
CAS: 54714-33-9
Molecular weight: 156
m/z	intensity
41	160
42	30
43	999
44	50
45	20
53	30
54	60
55	220
56	10
57	60
58	20
66	20
67	260
68	230
69	50
70	10
71	30
72	60
79	10
81	500
82	20
85	10
95	60
96	690
97	70
114	20
