Mass Spectrum: 1,8-Nonanediol, 8-methyl-
Formula: C10H22O2
CAS: 54725-73-4
Molecular weight: 174
m/z	intensity
41	128
42	39
43	237
53	9
54	9
55	118
56	79
57	49
58	59
59	999
60	29
67	19
68	19
69	69
70	39
71	49
81	29
82	19
83	49
95	9
96	9
97	9
98	19
123	29
141	9
159	9
