Mass Spectrum: 2'-Amino-4'-methoxyacetanilide
Formula: C9H12N2O2
CAS: 5472-37-7
Molecular weight: 180
m/z	intensity
41	291
43	999
44	33
45	4
47	36
48	5
49	16
50	46
51	150
52	225
53	144
54	62
55	20
56	6
57	2
58	1
61	6
62	13
63	26
64	12
65	31
66	46
67	176
68	74
69	25
70	8
71	0
72	1
73	0
74	1
75	5
76	21
77	20
78	77
79	50
80	64
81	12
82	15
84	6
86	4
88	8
89	1
90	6
91	5
92	10
93	24
94	93
95	231
96	30
97	3
98	9
100	1
103	3
105	21
106	13
107	12
108	8
110	336
111	18
112	1
115	0
117	0
118	0
119	3
120	0
121	24
122	2
123	333
124	24
125	1
132	1
133	0
134	2
135	5
137	335
138	176
139	18
140	1
147	9
148	1
149	11
150	2
151	1
162	7
163	65
164	12
179	1
180	308
181	33
182	2
