Mass Spectrum: 1,4-Cyclohexanediol, (Z)-, TMS derivative
Formula: C9H20O2Si
CAS: 54725-70-1
Molecular weight: 188
m/z	intensity
41	240
42	80
43	210
44	180
45	360
46	20
47	150
51	10
53	60
54	170
55	210
56	50
57	160
58	270
59	200
60	50
61	150
62	10
65	20
67	40
68	20
69	130
70	70
71	40
72	20
73	550
74	110
75	560
76	90
77	100
78	10
79	170
80	90
81	550
82	100
83	60
84	10
85	30
87	10
89	10
91	10
93	150
94	10
95	20
96	10
97	450
98	120
99	40
101	170
102	10
103	20
105	30
111	10
113	10
115	340
116	90
117	30
127	10
129	570
130	999
131	480
132	80
133	20
147	20
149	10
155	100
156	10
169	30
170	130
171	70
172	10
173	110
174	10
186	10
188	50
