Mass Spectrum: 8-Azabicyclo[3.2.1]octan-3-ol, 6-bromo-8-methyl-, acetate (ester)
Formula: C10H16BrNO2
CAS: 54725-45-0
Molecular weight: 261
m/z	intensity
40	60
41	250
42	820
43	500
44	100
51	50
52	40
53	110
54	70
55	110
56	60
57	60
58	30
65	40
66	30
67	130
68	70
69	20
70	30
77	30
78	20
79	40
80	90
81	240
82	999
83	80
84	20
91	60
93	40
94	870
95	560
96	280
97	30
107	50
108	20
120	40
121	20
122	860
123	100
140	30
155	60
160	60
162	70
182	70
201	30
202	380
203	50
204	370
205	40
218	40
220	40
261	100
263	100
