Mass Spectrum: 8-Azabicyclo[3.2.1]oct-6-en-3-ol, 8-methyl-
Formula: C8H13NO
CAS: 54725-49-4
Molecular weight: 139
m/z	intensity
40	40
41	90
42	180
43	40
44	50
51	30
52	30
53	70
54	40
55	40
66	20
67	40
68	20
77	30
78	30
79	30
80	60
81	130
82	70
83	30
93	30
94	999
95	180
96	50
97	20
120	20
121	20
122	50
139	50
