Mass Spectrum: Benzene, 2-heptenyl-, (Z)-
Formula: C13H18
CAS: 54725-18-7
Molecular weight: 174
m/z	intensity
41	120
42	10
43	20
50	20
51	50
52	20
53	40
54	80
55	110
56	10
63	30
64	10
65	80
66	10
67	50
68	10
69	10
75	10
76	10
77	70
78	50
79	20
81	70
82	30
83	40
89	20
90	10
91	660
92	110
93	10
96	40
102	20
103	50
104	990
105	120
106	10
115	160
116	80
117	999
118	160
119	20
127	30
128	60
129	70
130	30
131	120
132	30
141	10
143	10
145	20
174	570
175	90
176	10
