Mass Spectrum: 8-Azabicyclo[3.2.1]octan-3-one, 6,7-dihydroxy-8-methyl-
Formula: C8H13NO3
CAS: 54725-52-9
Molecular weight: 171
m/z	intensity
40	42
41	147
42	999
43	115
44	89
45	26
50	10
51	21
52	21
53	36
54	57
55	121
56	73
57	194
58	200
59	21
60	10
65	5
66	5
67	26
68	31
69	26
70	47
71	10
72	31
73	36
74	5
75	5
77	5
78	5
79	5
80	15
81	21
82	257
83	526
84	63
85	21
86	21
93	5
94	36
95	10
96	21
97	21
98	10
99	5
100	5
107	5
108	5
109	42
110	136
111	457
112	52
113	21
114	15
142	26
171	63
172	15
