Mass Spectrum: 1,4-Cyclohexanediol, (E)-, TMS derivative
Formula: C9H20O2Si
CAS: 54725-69-8
Molecular weight: 188
m/z	intensity
41	100
42	20
43	80
44	50
45	200
46	10
47	100
53	30
54	50
55	60
56	10
57	40
58	30
59	90
60	10
61	80
67	10
69	40
70	20
72	10
73	500
74	50
75	999
76	60
77	60
79	60
80	60
81	330
82	20
83	10
85	10
93	30
97	390
98	70
99	20
101	100
102	10
103	10
115	130
116	60
117	10
129	340
130	470
131	210
132	30
147	20
155	50
169	50
170	100
171	70
172	10
173	110
174	10
186	20
188	30
