Mass Spectrum: 6H-Cyclohepta-1,3-dioxol-4,8-imino-6-one, hexahydro-2,2,9-trimethyl-
Formula: C11H17NO3
CAS: 54725-44-9
Molecular weight: 211
m/z	intensity
30	38
31	30
32	123
39	169
40	46
41	238
42	999
43	361
44	38
52	15
53	46
54	61
55	115
56	76
57	115
58	46
59	30
67	38
68	53
69	38
70	69
78	53
79	23
80	46
81	261
82	769
83	115
84	23
92	7
93	92
94	23
95	69
96	30
97	92
107	15
108	92
109	407
110	607
111	46
123	46
152	23
153	30
196	223
197	23
211	200
212	30
