Mass Spectrum: 1H-Benzotriazole, 1-(4-morpholinylmethyl)-
Formula: C11H14N4O
CAS: 5472-71-9
Molecular weight: 218
m/z	intensity
33	1
36	1
37	16
38	25
39	36
40	26
41	52
42	96
43	25
44	21
45	11
47	1
49	2
50	18
51	44
52	24
53	4
54	12
55	11
56	139
57	18
58	4
59	1
60	1
61	7
62	11
63	41
64	59
65	17
66	4
67	1
68	2
69	4
70	39
71	12
72	16
73	2
74	3
75	5
76	11
77	106
78	18
79	2
82	1
84	1
85	2
86	10
87	5
88	1
89	1
90	5
91	49
92	4
93	3
94	2
98	12
99	236
100	999
101	54
102	5
103	2
104	19
105	6
106	1
118	1
119	38
120	4
131	2
132	6
133	2
149	4
218	2
