Mass Spectrum: 1-Isopropyl-3,3-bis(trifluoromethyl)diaziridine
Formula: C6H8F6N2
CAS: 54731-13-4
Molecular weight: 222
m/z	intensity
41	180
42	120
43	999
44	76
50	4
56	16
57	4
58	12
69	10
96	6
110	8
161	12
166	2
180	4
192	4
207	18
208	1
222	36
223	3
