Mass Spectrum: (1,2-Dichlorovinyl)trimethylsilane
Formula: C5H10Cl2Si
CAS: 54748-33-3
Molecular weight: 168
m/z	intensity
73	161
93	999
94	71
95	338
96	18
108	20
110	7
113	80
115	50
117	20
119	8
153	131
155	89
157	20
168	101
170	70
172	7
