Mass Spectrum: Chlorozotocin
Formula: C9H16ClN3O7
CAS: 54749-90-5
Molecular weight: 313
m/z	intensity
41	219
42	458
43	803
44	999
45	291
46	60
47	94
48	49
49	363
50	50
51	130
52	24
53	36
54	61
55	198
56	499
57	294
58	211
59	252
60	369
61	325
62	855
63	449
64	279
65	133
66	12
67	22
68	67
69	175
70	134
71	206
72	193
73	275
74	63
75	11
76	12
77	55
78	34
79	47
80	53
81	44
82	50
83	84
84	88
85	356
86	325
87	86
88	35
89	24
90	15
91	33
92	11
93	18
94	8
95	22
96	79
97	89
98	275
99	66
100	125
101	67
102	41
103	212
104	18
105	49
106	28
107	19
108	31
109	40
110	49
111	34
112	28
113	34
114	75
115	32
116	40
117	17
118	7
119	10
120	6
121	7
122	13
123	44
124	22
125	24
126	34
127	42
128	35
129	32
130	10
131	26
132	14
133	36
134	6
135	13
136	5
137	8
138	6
139	9
140	36
141	74
142	34
143	15
144	30
145	16
146	19
147	36
148	17
149	17
150	6
151	7
152	12
153	6
154	7
155	4
156	14
157	5
158	13
159	20
160	24
161	17
162	12
163	28
164	10
165	30
166	5
167	11
168	3
169	8
170	67
171	7
172	5
173	11
174	15
175	23
176	27
177	30
178	26
179	10
180	5
181	3
183	6
184	2
185	11
186	6
187	35
188	35
189	11
190	6
191	4
192	3
193	6
194	2
195	4
196	1
197	1
198	2
199	2
200	1
201	12
202	7
203	9
204	7
205	30
206	39
207	15
208	10
209	4
210	2
211	2
213	3
214	9
215	4
216	12
217	9
218	2
219	5
220	2
221	3
222	5
223	2
224	2
225	1
227	2
229	2
230	3
231	3
232	8
233	3
234	3
235	3
236	2
237	7
238	2
239	4
240	1
241	2
247	2
248	3
249	2
250	2
251	3
252	1
253	2
264	2
265	2
266	2
267	3
268	1
269	1
274	1
279	1
292	2
293	1
296	1
