Mass Spectrum: 1,3-Dioxolane, 2-(3-methoxypropyl)-2-methyl-
Formula: C8H16O3
CAS: 54751-80-3
Molecular weight: 160
m/z	intensity
40	10
41	60
42	10
43	510
44	10
45	150
55	10
58	60
59	130
67	10
69	70
71	20
72	20
85	60
86	10
87	999
88	40
102	10
113	80
145	80
