Mass Spectrum: 3-Piperidinol, 1-acetyl-6-methyl-
Formula: C8H15NO2
CAS: 54751-96-1
Molecular weight: 157
m/z	intensity
41	181
42	141
43	727
44	414
45	10
53	10
54	40
55	151
56	212
57	101
58	272
60	30
67	20
68	10
69	30
70	70
71	30
72	80
73	40
74	10
80	10
81	10
82	434
84	10
85	60
86	101
96	40
97	90
98	50
99	30
100	999
101	70
112	30
113	111
114	10
139	30
140	20
142	303
143	20
157	353
158	20
