Mass Spectrum: (2R,5R)-2-Methyl-5-(prop-1-en-2-yl)-2-vinyltetrahydrofuran
Formula: C10H16O
CAS: 54750-70-8
Molecular weight: 152
m/z	intensity
26	5
27	75
28	28
29	39
31	5
37	3
38	12
39	208
40	50
41	275
42	56
43	406
44	16
45	10
46	1
50	15
51	39
52	21
53	124
54	59
55	438
56	27
57	23
59	4
60	2
61	2
62	4
63	6
64	2
65	54
66	27
67	999
68	643
70	23
71	88
72	9
77	21
78	11
79	91
80	9
81	155
82	230
83	45
84	21
85	8
95	80
96	183
97	22
98	3
100	2
103	4
105	23
106	5
107	37
108	12
109	100
110	198
111	26
112	2
117	3
119	26
120	4
122	6
123	58
124	19
125	32
126	3
134	14
135	3
137	109
138	13
151	3
152	10
