Mass Spectrum: Pentanoic acid, 4-[(2-ethoxy-2-oxoethyl)thio]-, ethyl ester
Formula: C11H20O4S
CAS: 54751-71-2
Molecular weight: 248
m/z	intensity
41	202
42	180
43	225
45	247
48	90
55	675
56	157
57	67
59	585
60	157
61	112
73	225
74	45
75	90
83	697
84	45
85	22
87	337
88	202
89	22
101	742
102	45
115	999
116	90
117	50
124	180
125	22
126	22
161	855
162	67
163	22
175	135
202	112
203	427
204	22
248	225
249	28
250	11
