Mass Spectrum: 3-Piperidinol, 1-acetyl-6-propyl-, (3R-trans)-
Formula: C10H19NO2
CAS: 54751-92-7
Molecular weight: 185
m/z	intensity
43	999
45	280
46	300
47	50
48	180
49	70
55	60
56	20
57	40
61	120
69	30
70	60
73	40
82	100
83	340
84	460
85	190
86	310
88	80
100	160
142	90
185	10
