Mass Spectrum: 3-Piperidinol, 6-methyl-
Formula: C6H13NO
CAS: 54751-93-8
Molecular weight: 115
m/z	intensity
41	202
42	202
43	30
44	969
45	30
53	20
54	30
55	141
56	353
57	131
58	353
59	10
60	10
67	10
68	10
69	20
70	50
71	50
72	10
73	10
82	393
83	10
84	10
86	50
87	40
96	20
98	30
100	999
101	50
114	50
115	121
