Mass Spectrum: 3,9-Dodecadiene
Formula: C12H22
CAS: 54764-65-7
Molecular weight: 166
m/z	intensity
41	760
42	60
43	60
51	10
52	10
53	100
54	250
55	670
56	50
57	20
65	20
66	50
67	999
68	390
69	360
70	30
77	20
79	50
80	20
81	620
82	740
83	80
84	20
91	10
93	20
95	370
96	100
97	20
109	80
110	290
111	20
120	80
121	260
122	30
137	40
166	50
