Mass Spectrum: Bicyclo[10.1.0]tridec-1-ene
Formula: C13H22
CAS: 54766-91-5
Molecular weight: 178
m/z	intensity
26	12
27	326
28	1
29	316
30	7
37	4
38	9
39	367
40	80
41	988
42	75
43	127
44	1
47	1
50	10
51	52
52	45
53	240
54	272
55	639
56	52
57	38
58	4
59	1
61	1
62	3
63	14
64	6
65	86
66	89
67	999
68	869
69	263
70	24
71	7
72	2
74	2
75	6
76	3
77	154
78	47
79	582
80	328
81	906
82	374
83	79
84	6
85	3
87	1
89	3
90	2
91	75
92	22
93	434
94	224
95	473
96	227
97	67
98	4
103	2
104	1
105	6
106	0
107	231
108	122
109	122
110	56
111	16
115	1
119	0
120	1
121	248
122	69
123	39
124	16
125	2
133	0
135	189
136	45
137	11
149	68
150	23
151	3
163	29
164	5
176	0
177	2
178	33
179	5
