Mass Spectrum: 1,2,3-Benzotriazole-1-benzoate
Formula: C13H9N3O2
CAS: 54769-36-7
Molecular weight: 239
m/z	intensity
27	32
30	27
37	66
38	79
39	130
49	25
50	236
51	328
52	39
61	28
62	42
63	112
64	100
73	17
74	76
75	53
76	145
77	464
78	52
90	30
105	999
106	78
122	8
152	13
166	12
167	22
183	7
194	8
211	25
239	34
240	7
241	3
