Mass Spectrum: Benzene, [1-(1-cyclohexen-1-yl)ethyl]-
Formula: C14H18
CAS: 54774-82-2
Molecular weight: 186
m/z	intensity
18	1
27	25
28	12
29	9
32	2
38	1
39	30
40	4
41	46
42	2
43	4
50	5
51	23
52	8
53	33
54	8
55	32
56	3
57	3
62	2
63	8
64	3
65	20
66	7
67	29
68	6
69	29
70	3
71	2
74	2
75	3
76	4
77	78
78	25
79	124
80	258
81	212
82	23
83	11
89	4
90	1
91	110
92	10
93	8
94	3
95	10
96	5
97	3
102	6
103	40
104	63
105	999
106	299
107	29
108	15
109	33
110	42
111	17
112	1
115	31
116	9
117	40
118	19
119	4
120	1
121	3
122	2
123	3
124	2
125	2
126	1
127	5
128	16
129	20
130	7
131	14
132	5
135	5
136	2
137	1
139	2
141	5
142	3
143	12
144	5
145	3
149	2
150	3
151	1
152	3
153	2
154	1
155	1
157	5
158	2
163	3
164	2
165	3
167	3
171	19
172	3
177	1
178	1
182	1
186	45
187	7
