Mass Spectrum: Heptanoic acid, 2,5-diethyl-
Formula: C11H22O2
CAS: 54774-84-4
Molecular weight: 186
m/z	intensity
27	97
28	26
29	114
31	14
39	110
40	23
41	378
42	69
43	143
44	19
45	181
51	12
53	56
54	25
55	494
56	172
57	117
59	58
60	25
67	52
68	66
69	999
70	333
71	62
72	16
73	647
74	34
79	15
82	30
83	162
84	52
85	29
86	17
87	108
88	638
89	31
95	31
96	28
97	198
98	58
99	40
100	66
101	257
102	17
109	35
110	52
111	102
112	112
113	27
114	10
115	149
116	11
124	11
126	44
127	222
128	22
137	14
138	76
139	43
140	10
141	14
142	12
155	11
156	17
157	25
158	13
167	23
185	10
