Mass Spectrum: 4-Heptanol, 2,6-dimethyl-4-(1-methylethyl)-
Formula: C12H26O
CAS: 54775-01-8
Molecular weight: 186
m/z	intensity
15	12
17	5
18	20
19	3
26	3
27	96
28	28
29	103
30	4
31	17
38	3
39	64
40	13
41	310
42	38
43	657
44	49
45	245
46	7
51	5
53	22
54	4
55	169
56	47
57	552
58	180
59	113
60	12
65	6
67	28
68	10
69	999
70	70
71	85
72	10
73	91
74	6
77	5
79	5
81	8
82	6
83	114
84	69
85	315
86	49
87	448
88	26
95	5
97	19
98	6
99	9
100	8
101	16
109	12
111	188
112	20
113	9
115	26
125	24
126	12
127	24
128	7
129	514
130	45
131	4
141	5
142	25
143	329
144	34
