Mass Spectrum: N-Ethyl-2-carbethoxyazetidine
Formula: C8H15NO2
CAS: 54773-05-6
Molecular weight: 157
m/z	intensity
28	202
29	36
41	21
42	48
43	3
55	14
56	176
57	8
84	999
85	53
86	3
142	14
157	50
158	5
