Mass Spectrum: 1-Butanamine, 2-ethyl-N-(2-ethylbutyl)-
Formula: C12H27N
CAS: 54774-85-5
Molecular weight: 185
m/z	intensity
12	3
13	1
14	5
15	22
17	2
18	8
25	1
26	12
27	150
28	59
29	196
30	464
31	9
37	2
38	3
39	56
40	9
41	184
42	74
43	498
44	397
45	11
50	2
51	5
52	4
53	18
54	12
55	84
56	58
57	51
58	60
59	3
65	2
66	1
67	5
68	9
69	11
70	26
71	7
72	25
73	1
77	1
78	3
79	1
80	2
81	1
82	5
83	6
84	37
85	62
86	43
87	3
91	1
92	1
94	1
96	3
98	7
110	2
112	32
113	3
114	999
115	81
116	3
117	1
118	1
124	1
126	3
127	2
128	5
129	2
140	4
142	56
143	6
154	5
155	4
156	20
157	4
168	1
170	3
184	6
185	36
186	5
