Mass Spectrum: 5-trans-Methyl-1R,3-cis-cyclohexanediol
Formula: C7H14O2
CAS: 54773-79-4
Molecular weight: 130
m/z	intensity
39	160
41	700
42	700
43	760
44	560
45	300
46	10
47	80
51	20
52	10
53	100
54	40
55	330
56	320
57	180
58	60
59	20
65	20
66	20
67	20
68	999
69	520
70	400
71	360
72	20
73	570
74	20
75	30
77	30
78	10
79	180
80	20
81	40
82	10
83	100
84	80
85	40
86	10
87	10
88	40
91	20
92	10
93	20
94	480
95	70
96	10
97	200
98	10
111	20
112	560
113	40
114	3
115	8
129	1
130	70
131	6
