Mass Spectrum: 2-(Dimethyl phosphino)-ethyl phosphine
Formula: C4H12P2
CAS: 54772-64-4
Molecular weight: 122
m/z	intensity
45	464
46	201
57	434
59	419
61	999
62	472
63	999
75	150
76	488
77	99
79	139
89	560
93	149
94	559
121	58
122	329
