Mass Spectrum: N-Isopropyl-2-isopropoxycarbonylazetidine
Formula: C10H19NO2
CAS: 54773-09-0
Molecular weight: 185
m/z	intensity
28	162
29	7
39	14
41	59
42	42
43	182
44	14
56	602
57	36
70	42
71	7
98	999
99	46
100	5
101	70
102	5
128	92
129	11
142	14
170	11
185	17
186	2
