Mass Spectrum: 1-Pentanamine, 4-methyl-N-(4-methylpentyl)-
Formula: C12H27N
CAS: 54775-00-7
Molecular weight: 185
m/z	intensity
14	5
15	30
16	5
17	8
18	26
25	1
26	10
27	144
28	86
29	151
30	424
31	12
32	4
37	2
38	3
39	67
40	13
41	230
42	72
43	470
44	475
45	47
46	3
50	2
51	4
52	3
53	14
54	9
55	88
56	63
57	58
58	43
59	6
65	2
66	1
67	6
68	8
69	18
70	41
71	11
72	13
73	2
79	1
80	1
81	3
82	4
83	47
84	18
85	15
86	8
87	2
100	30
101	12
112	18
113	2
114	999
115	82
116	3
126	2
127	2
128	14
129	3
140	5
142	21
143	3
154	2
156	5
157	1
168	3
170	27
171	7
184	12
185	55
186	7
