Mass Spectrum: 4(1H)-Pyrimidinone, 2-(butylthio)-
Formula: C8H12N2OS
CAS: 54774-97-9
Molecular weight: 184
m/z	intensity
31	60
39	400
40	999
41	710
42	280
43	150
44	190
45	260
46	120
47	120
48	20
52	60
53	240
54	30
55	180
56	70
57	80
58	80
59	130
60	120
61	10
67	300
68	220
69	390
70	960
71	60
72	80
73	10
82	130
83	20
88	60
95	590
96	280
97	60
98	10
100	100
101	10
112	60
128	490
129	170
130	20
137	240
138	20
142	380
143	30
155	240
156	30
184	70
185	10
