Mass Spectrum: 2-Furanmethanol, tetrahydro-5-methyl-, trans-
Formula: C6H12O2
CAS: 54774-28-6
Molecular weight: 116
m/z	intensity
41	320
42	80
43	430
44	130
45	130
53	20
54	20
55	110
56	140
57	300
58	20
59	20
61	10
67	90
68	10
69	10
70	10
71	20
72	10
74	10
83	20
84	30
85	999
86	50
98	10
