Mass Spectrum: N-Ethyl-2-benzyloxycarbonylazetidine
Formula: C13H17NO2
CAS: 54773-07-8
Molecular weight: 219
m/z	intensity
28	148
29	59
39	31
41	36
42	59
43	6
55	34
56	143
57	11
65	81
66	7
84	999
85	59
86	5
91	277
92	134
93	9
219	11
220	2
