Mass Spectrum: N-Ethyl-2-carbomethoxyazetidine
Formula: C7H13NO2
CAS: 54773-04-5
Molecular weight: 143
m/z	intensity
27	34
28	333
29	78
30	14
41	50
42	120
43	36
54	21
55	42
56	249
57	48
58	4
59	53
60	5
84	999
85	46
86	3
128	25
143	59
144	5
