Mass Spectrum: N-Isopropyl-2-carbethoxyazetidine
Formula: C9H17NO2
CAS: 54773-08-9
Molecular weight: 171
m/z	intensity
27	53
28	596
29	109
30	11
39	22
41	98
42	92
43	501
44	53
45	106
46	7
55	34
56	876
57	53
58	31
59	34
70	59
71	4
98	999
99	46
100	5
128	34
142	34
156	106
157	17
171	106
172	11
173	1
