Mass Spectrum: N-Ethyl-2-isopropoxycarbonylazetidine
Formula: C9H17NO2
CAS: 54773-06-7
Molecular weight: 171
m/z	intensity
28	137
29	11
41	31
42	53
43	4
56	134
57	14
84	999
85	46
171	22
172	2
