Mass Spectrum: 1-Octanamine, N-methyl-N-nitro-
Formula: C9H20N2O2
CAS: 54789-28-5
Molecular weight: 188
m/z	intensity
30	185
31	20
38	17
39	135
40	51
41	486
42	708
43	955
44	999
45	44
51	12
53	30
54	38
55	302
56	261
57	877
58	76
59	35
61	13
67	23
68	23
69	246
70	245
71	41
73	32
74	14
77	11
81	11
82	26
83	32
84	130
85	36
89	619
90	21
96	15
97	10
98	48
99	10
112	29
140	20
142	433
143	53
