Mass Spectrum: Sarpagan-17-ol, 16-[(acetyloxy)methyl]-, acetate (ester)
Formula: C24H28N2O4
CAS: 54789-46-7
Molecular weight: 408
m/z	intensity
38	10
39	101
40	424
41	202
42	101
43	999
44	303
45	303
50	30
51	40
52	30
53	90
54	20
55	70
56	10
57	30
59	10
60	151
61	20
63	10
65	30
66	10
67	40
68	10
69	40
71	10
73	151
74	20
75	30
76	20
77	90
78	90
79	70
80	10
81	60
82	10
83	10
87	10
88	10
89	20
91	70
92	10
93	30
94	10
95	10
96	181
97	30
102	10
103	30
104	20
105	50
106	20
107	30
108	10
109	10
115	60
116	10
117	20
119	40
120	10
121	20
122	10
123	10
125	10
127	10
128	20
129	20
130	30
131	10
133	131
134	20
135	50
136	10
137	10
140	30
141	20
142	10
143	30
144	20
147	40
149	30
152	10
154	40
155	20
156	40
157	10
163	20
165	10
166	10
167	50
168	343
169	292
170	40
176	10
177	60
178	20
179	30
180	70
181	70
182	171
183	30
189	10
191	191
192	50
193	151
194	50
195	40
197	10
204	10
205	20
206	20
208	373
209	232
210	30
217	10
218	10
219	20
220	10
221	20
231	10
232	10
233	20
234	20
235	30
245	10
246	10
247	10
248	10
249	60
250	10
251	20
252	10
253	111
254	20
255	10
259	10
265	40
266	10
267	70
268	10
269	20
273	10
275	181
276	30
282	222
283	131
284	30
285	10
287	40
288	20
289	393
290	90
291	10
305	40
306	10
327	40
331	70
333	10
341	30
343	10
346	20
347	90
348	292
349	181
350	30
357	20
407	10
408	30
