Mass Spectrum: Thiophene, 2-(pentylthio)-
Formula: C9H14S2
CAS: 54798-87-7
Molecular weight: 186
m/z	intensity
12	1
13	0
14	2
15	26
16	0
24	0
25	1
26	16
27	282
28	28
29	289
30	6
32	9
33	1
34	2
35	1
36	0
37	14
38	43
39	291
40	31
41	313
42	11
43	777
44	31
45	246
46	16
47	18
48	1
49	2
50	9
51	15
52	5
53	31
54	3
55	81
56	6
57	37
58	43
59	16
60	6
61	3
62	1
63	2
64	4
65	6
66	2
67	4
68	5
69	80
70	29
71	497
72	36
73	22
74	3
75	0
76	7
77	5
78	1
79	1
80	0
81	1
82	37
83	12
84	19
85	38
86	3
87	6
88	4
89	4
90	3
91	1
92	0
93	0
94	0
95	2
96	2
97	21
98	2
99	1
100	0
101	1
102	1
103	1
104	0
105	0
108	0
109	1
110	2
111	4
112	0
113	0
114	6
115	91
116	999
117	70
118	85
119	5
120	2
121	0
122	0
123	1
124	0
125	2
126	0
127	1
128	0
129	36
130	3
131	3
132	0
133	0
134	0
135	0
137	0
138	0
139	0
140	0
141	1
142	0
143	2
144	0
145	0
151	0
152	0
153	0
154	0
155	0
156	0
157	1
158	0
159	0
171	0
172	0
184	0
185	1
186	270
187	33
188	26
189	2
190	0
191	0
