Mass Spectrum: Bicyclo[2.2.2]octane, 1-methyl-4-(methylsulfinyl)-
Formula: C10H18OS
CAS: 54798-86-6
Molecular weight: 186
m/z	intensity
26	12
27	68
28	90
29	61
30	3
31	5
32	7
33	4
34	5
35	3
36	3
37	4
38	9
39	115
40	25
41	147
42	15
43	48
44	67
45	36
46	11
47	24
48	12
49	4
50	15
51	36
52	16
53	86
54	19
55	199
56	17
57	41
58	10
59	11
60	6
61	16
62	7
63	48
64	25
65	51
66	21
67	313
68	37
69	86
70	12
71	15
72	7
73	7
74	6
75	6
76	7
77	96
78	29
79	169
80	32
81	999
82	77
83	12
84	4
85	61
86	9
87	8
88	3
89	6
91	80
92	17
93	86
94	31
95	120
96	15
97	12
98	4
99	29
100	327
101	35
102	24
103	6
104	4
105	24
106	6
107	27
108	14
109	15
110	6
111	9
112	4
113	11
114	2
115	6
116	4
117	7
118	4
119	7
120	7
121	26
122	25
123	995
124	108
125	11
126	3
127	12
128	5
129	4
135	5
136	3
137	4
138	3
139	5
140	8
141	44
142	10
143	4
149	12
151	4
153	5
154	4
155	82
156	15
157	8
168	5
169	6
170	241
171	30
172	13
178	4
179	2
186	88
187	12
188	6
