Mass Spectrum: Benzoic acid, 4-chloro-, 2-oxo-2-phenylethyl ester
Formula: C15H11ClO3
CAS: 54797-45-4
Molecular weight: 274
m/z	intensity
39	30
50	60
51	100
75	80
76	30
77	230
105	999
106	90
111	110
113	40
118	110
139	160
141	70
274	30
