Mass Spectrum: Benz[f]azulene, 1,2,3,3a,4,9,10,10a-octahydro-
Formula: C14H18
CAS: 54798-84-4
Molecular weight: 186
m/z	intensity
27	50
29	30
39	60
40	10
41	90
42	10
43	50
44	40
50	20
51	50
52	20
53	40
54	10
55	50
58	20
63	30
64	20
65	50
66	20
67	100
68	20
69	20
71	40
75	10
76	20
77	190
78	70
79	80
80	90
81	140
82	180
83	20
87	10
89	20
91	160
92	80
93	30
94	100
95	230
96	30
97	10
101	10
102	20
103	70
104	999
105	90
106	10
115	120
116	60
117	30
118	80
119	20
127	40
128	110
129	180
130	90
131	50
132	10
139	10
141	50
142	30
143	150
144	50
145	30
152	10
153	10
155	10
156	10
157	50
158	60
159	10
165	10
171	50
172	10
184	10
185	20
186	700
187	120
188	30
