Mass Spectrum: 8-Azabicyclo[3.2.1]octane-2-carboxylic acid, 3-hydroxy-8-methyl-, (2-endo,3-exo)-
Formula: C9H15NO3
CAS: 54808-88-7
Molecular weight: 185
m/z	intensity
40	271
42	999
44	100
45	92
51	28
52	21
53	78
54	250
56	107
57	135
58	35
60	7
65	14
66	14
67	57
68	78
69	50
70	57
71	21
73	7
77	14
78	7
79	7
80	14
81	714
83	335
84	50
85	7
86	14
91	7
93	7
94	100
95	21
96	471
97	335
98	28
108	14
110	21
112	121
113	14
119	7
122	14
124	7
126	14
128	7
138	14
140	28
141	50
142	14
156	7
157	21
166	7
168	50
185	92
186	21
