Mass Spectrum: 4,7-Ethano-1H-inden-1-one, 3a,4,5,6,7,7a-hexahydro-3-hydroxy-
Formula: C11H14O2
CAS: 54806-10-9
Molecular weight: 178
m/z	intensity
26	19
27	134
28	13
29	31
31	0
37	6
38	16
39	160
40	6
41	112
42	40
43	46
44	4
45	2
49	2
50	25
51	58
52	40
53	76
54	43
55	17
58	1
59	2
60	2
61	2
62	7
63	13
64	3
65	46
66	32
67	115
68	15
69	89
70	9
71	25
72	15
73	4
74	4
75	4
76	1
77	122
78	57
79	323
80	743
81	256
82	29
83	1
84	9
86	2
89	0
91	73
92	72
93	39
94	15
95	28
96	19
97	25
98	999
99	268
100	60
101	7
102	3
103	16
104	5
105	9
106	29
107	45
108	34
109	8
110	25
111	12
112	3
115	0
116	2
117	13
118	3
120	14
121	19
122	10
123	9
124	56
125	6
131	3
132	4
133	1
134	1
135	21
136	8
137	0
149	20
150	16
160	2
163	1
178	136
179	42
180	1
