Mass Spectrum: Pentane, 1,1,5-trichloro-1-fluoro-
Formula: C5H8Cl3F
CAS: 54815-25-7
Molecular weight: 192
m/z	intensity
15	9
26	30
27	257
28	61
29	128
30	4
31	26
32	8
33	21
35	5
36	6
37	14
38	25
39	217
40	37
41	465
42	89
43	96
44	11
45	47
46	7
47	34
48	7
49	138
50	20
51	90
52	7
53	42
54	12
55	550
56	55
57	66
58	9
59	194
60	73
61	71
62	40
63	312
64	18
65	140
66	12
67	109
68	30
69	68
70	59
71	72
72	10
73	35
74	7
75	171
76	485
77	98
78	157
79	24
80	209
81	67
82	73
83	56
84	26
85	999
86	67
87	33
89	25
90	10
91	148
92	11
93	631
94	40
95	208
96	44
97	17
98	22
99	14
100	7
101	138
102	10
103	61
104	15
105	20
106	14
107	118
108	10
109	69
110	22
111	26
112	13
113	14
114	9
115	8
117	7
119	12
120	588
121	680
122	229
123	223
124	14
127	8
128	55
129	12
130	36
131	7
132	7
136	27
137	35
138	18
139	22
141	6
143	13
144	6
145	8
146	5
156	37
157	163
158	33
159	103
160	10
161	16
172	5
174	5
176	2
