Mass Spectrum: 4-Piperidinecarboxylic acid, 4-phenyl-, methyl ester
Formula: C13H17NO2
CAS: 54824-07-6
Molecular weight: 219
m/z	intensity
42	320
43	230
45	20
50	30
51	70
53	40
54	20
56	380
57	999
58	50
63	20
64	10
65	30
66	10
67	20
68	20
69	25
70	20
71	20
73	35
74	20
75	30
76	20
77	90
78	40
80	50
81	20
82	70
83	20
84	10
85	10
87	10
88	15
89	15
91	120
92	20
93	10
94	10
95	10
96	15
97	15
98	10
101	10
102	30
103	135
104	30
105	20
106	15
109	10
110	15
111	10
113	10
115	75
116	35
118	20
119	10
120	15
121	10
126	40
127	30
128	50
129	50
130	40
131	70
132	35
133	15
135	10
141	45
142	10
143	25
144	25
145	20
147	15
158	115
159	55
160	90
161	20
162	15
163	10
176	20
186	5
187	70
188	20
191	10
204	50
205	10
218	50
219	325
220	55
221	10
