Mass Spectrum: Imidazole-5-carboxylic acid, 1-methyl-4-nitro-
Formula: C5H5N3O4
CAS: 54828-05-6
Molecular weight: 171
m/z	intensity
41	111
42	999
43	79
44	57
45	85
46	26
47	1
48	0
50	11
51	68
52	136
53	144
54	52
55	36
56	20
57	11
58	14
59	3
60	4
61	2
62	1
63	3
64	6
65	26
66	45
67	68
68	30
69	69
70	40
71	8
72	2
73	5
74	1
75	0
76	3
77	22
78	47
79	64
80	56
81	16
82	23
83	221
84	11
85	6
86	251
87	18
88	1
90	0
91	0
92	0
93	3
94	6
95	14
96	11
97	31
98	5
99	3
100	1
101	1
103	0
105	2
106	23
107	5
108	5
109	13
110	23
111	11
112	2
113	1
114	3
115	1
117	7
119	0
121	2
122	0
123	116
124	85
125	20
126	3
127	100
128	32
129	3
131	0
138	1
139	0
140	1
141	65
142	7
143	2
149	2
153	96
154	105
155	41
156	7
157	1
170	0
171	543
172	49
173	3
