Mass Spectrum: 1,3-Isobenzofurandione, 3a,4,7,7a-tetrahydro-4,4,7-trimethyl-
Formula: C11H14O3
CAS: 54824-11-2
Molecular weight: 194
m/z	intensity
26	40
27	210
28	50
29	70
30	20
38	20
39	210
40	30
41	250
42	30
43	480
44	30
50	40
51	100
52	60
53	80
54	20
55	50
63	20
64	10
65	40
66	30
67	60
68	10
76	10
77	230
78	220
79	999
80	120
81	40
91	70
92	10
93	50
94	20
95	420
96	60
97	10
105	50
106	10
107	70
108	10
121	60
122	40
123	70
124	590
125	50
126	10
152	160
153	20
166	90
167	20
194	20
