Mass Spectrum: Cyclopentanecarbonitrile, 3-methylene-
Formula: C7H9N
CAS: 54829-97-9
Molecular weight: 107
m/z	intensity
26	69
27	256
28	107
29	20
30	2
31	0
34	1
35	0
36	1
37	35
38	67
39	581
40	96
41	412
42	25
43	1
45	0
46	5
48	1
49	12
50	100
51	152
52	226
53	169
54	536
55	42
56	2
59	1
60	1
61	6
62	11
63	27
64	36
65	159
66	91
67	158
68	27
69	0
73	2
74	9
75	16
76	21
77	95
78	70
79	633
80	591
81	73
82	2
86	0
87	1
88	2
89	1
90	7
91	26
92	999
93	68
94	1
99	1
102	2
103	2
104	12
105	9
106	350
107	593
108	44
109	1
