Mass Spectrum: Cyclopropane, 1,1-dichloro-2-(1,2-dimethylbutyl)-
Formula: C9H16Cl2
CAS: 54824-03-2
Molecular weight: 194
m/z	intensity
39	410
40	60
41	680
42	70
43	170
44	10
51	90
53	100
54	30
55	260
56	200
57	280
58	20
65	130
67	110
69	999
70	280
71	30
75	60
77	60
81	20
83	200
84	20
87	20
89	50
98	200
99	20
102	40
109	40
111	30
123	30
137	10
165	20
179	10
194	5
