Mass Spectrum: Naphthalene, 2-(1,1-dimethylethyl)decahydro-
Formula: C14H26
CAS: 54824-00-9
Molecular weight: 194
m/z	intensity
14	4
15	37
16	2
17	2
18	6
26	7
27	217
28	68
29	412
30	9
31	8
32	8
37	2
38	4
39	224
40	42
41	970
42	55
43	160
44	6
45	5
50	4
51	23
52	16
53	201
54	126
55	490
56	919
57	999
58	45
59	4
60	1
61	2
62	1
63	9
64	3
65	56
66	44
67	53
68	166
69	389
70	28
71	10
72	1
73	1
74	2
75	3
76	1
77	87
78	25
79	145
80	55
81	848
82	182
83	127
84	9
85	1
86	1
89	2
90	1
91	55
92	8
93	66
94	79
95	872
96	192
97	61
98	3
101	1
102	1
103	3
104	2
105	10
106	3
107	45
108	30
109	90
110	20
111	8
112	1
113	1
114	1
115	3
116	1
117	2
118	1
119	2
120	1
121	48
122	5
123	67
124	7
125	1
126	1
127	1
128	1
129	1
130	1
131	1
132	1
133	1
134	1
135	13
136	651
137	729
138	445
139	48
140	2
149	2
150	1
151	1
152	1
179	49
180	8
181	1
194	38
