Mass Spectrum: Cyclodeca[b]furan-2(3H)-one, decahydro-6,10-dimethyl-3-methylene-
Formula: C15H24O2
CAS: 54833-41-9
Molecular weight: 236
m/z	intensity
40	70
41	980
42	110
43	150
44	20
50	20
51	70
52	40
53	270
54	80
55	999
56	120
57	80
58	10
59	10
63	30
64	10
65	80
66	40
67	200
68	420
69	430
70	50
71	80
72	10
74	20
75	40
77	180
78	50
79	220
80	70
81	370
82	190
83	170
84	520
85	40
91	180
92	40
93	330
94	130
95	550
96	130
97	250
98	140
99	30
103	20
105	80
106	30
107	500
108	130
109	290
110	60
111	70
112	80
113	20
119	30
120	20
121	120
122	70
123	130
124	170
125	80
126	30
133	20
134	20
135	100
136	60
137	130
138	80
139	100
140	130
141	20
147	30
148	10
149	70
150	30
151	120
152	40
153	30
161	30
162	70
163	170
164	30
165	250
166	40
167	40
168	20
169	20
175	30
177	70
178	20
179	250
180	70
181	80
182	20
192	50
193	170
194	30
207	20
208	50
209	20
221	80
222	20
236	550
237	80
