Mass Spectrum: Meperdinic acid, TMS derivative
Formula: C16H25NO2Si
CAS: 54833-74-8
Molecular weight: 291
m/z	intensity
41	13
42	162
43	42
44	104
45	33
46	2
47	10
49	1
50	4
51	10
53	13
54	4
55	3
56	16
57	112
58	18
59	9
60	2
61	6
62	1
63	3
64	1
65	7
66	1
67	3
68	4
69	4
70	170
71	999
72	47
73	135
74	13
75	24
76	6
77	27
78	7
80	3
81	4
82	7
83	3
84	4
85	1
89	4
90	1
91	69
92	6
94	7
95	4
96	47
97	5
101	2
102	9
103	140
104	14
105	7
106	1
107	1
110	4
111	1
114	1
115	31
116	25
117	14
118	4
119	1
120	3
121	1
123	5
124	1
127	6
128	14
129	19
130	12
131	64
132	10
133	2
134	2
135	5
136	1
138	1
141	3
142	2
143	5
144	18
145	10
146	6
148	1
149	1
154	1
155	2
156	3
157	4
158	18
159	8
160	2
161	2
170	4
171	3
172	69
173	27
174	54
175	11
176	1
184	14
185	3
197	2
199	3
200	3
202	34
203	6
205	20
206	4
208	1
213	5
214	1
217	1
218	2
219	3
220	1
221	7
222	1
232	2
233	2
234	8
235	13
236	3
237	1
246	1
247	1
248	2
249	1
262	1
263	3
276	72
277	16
278	5
281	2
290	28
291	118
292	26
293	7
294	1
