Mass Spectrum: D-Alloisoleucine, N-acetyl-
Formula: C8H15NO3
CAS: 54831-20-8
Molecular weight: 173
m/z	intensity
26	11
27	117
30	259
39	76
40	13
41	270
42	47
43	942
44	49
45	31
46	24
53	14
54	20
55	35
56	65
57	365
58	62
60	129
67	11
68	11
69	68
70	29
71	68
72	30
74	170
75	94
76	23
82	18
84	25
86	445
87	25
96	45
99	999
100	56
114	15
116	10
117	523
118	26
126	17
128	317
129	41
130	10
155	10
