Mass Spectrum: 1,2,4-Trithiolane, 3,5-bis(1,1-dimethylethyl)-
Formula: C10H20S3
CAS: 54833-18-0
Molecular weight: 236
m/z	intensity
41	969
42	140
43	330
44	100
45	430
46	40
47	140
48	10
49	10
50	20
51	30
52	10
53	190
54	30
55	350
56	100
57	659
58	40
59	450
60	60
61	50
62	10
64	20
65	20
67	90
68	40
69	999
99	10
100	10
101	390
102	430
103	170
104	40
105	10
109	350
110	20
111	50
115	50
116	10
117	10
119	20
122	10
123	10
133	10
134	60
135	10
136	10
140	30
151	10
157	20
159	10
166	50
167	10
168	10
171	40
173	10
179	410
180	50
181	60
206	20
236	350
238	50
