Mass Spectrum: Octanoic acid, 4-methyl-, ethyl ester, (.+/-.)-
Formula: C11H22O2
CAS: 54831-51-5
Molecular weight: 186
m/z	intensity
14	2
15	8
17	6
18	22
19	1
26	10
27	116
28	44
29	266
30	11
31	11
39	79
40	14
41	249
42	71
43	325
44	17
45	82
46	3
47	3
50	3
51	6
52	4
53	31
54	17
55	317
56	127
57	286
58	14
59	42
60	144
61	130
62	6
67	31
68	11
69	99
70	127
71	51
72	6
73	224
74	102
75	28
77	3
79	8
81	51
82	8
83	161
84	23
85	37
86	3
87	17
88	730
89	79
90	8
91	3
92	3
93	6
94	3
95	6
96	14
97	82
98	65
99	147
100	11
101	999
102	130
103	14
111	20
112	23
113	6
115	8
121	3
122	10
123	13
124	14
125	31
126	6
127	3
128	3
129	252
130	20
131	3
139	14
140	8
141	286
142	28
143	8
144	3
157	54
158	8
159	8
171	8
185	3
186	17
187	14
188	3
