Mass Spectrum: trans-8-Methyl-1.beta.-acetyl-hydrindane
Formula: C12H20O
CAS: 54832-11-0
Molecular weight: 180
m/z	intensity
41	557
42	59
43	999
44	29
45	31
50	19
51	59
52	39
53	219
54	69
55	418
56	39
57	23
58	19
59	10
63	19
65	95
66	49
67	438
68	219
69	229
70	29
71	527
72	35
77	139
78	39
79	235
80	99
81	697
82	99
83	29
84	358
85	59
86	10
89	10
91	119
92	35
93	215
94	89
95	617
96	69
97	29
98	10
103	10
105	49
106	29
107	129
108	39
109	149
110	398
111	49
115	13
117	10
119	39
120	49
121	59
122	900
123	115
124	10
125	10
132	15
133	149
134	49
135	55
136	69
137	109
138	6
147	69
148	13
149	6
162	378
163	79
164	10
165	49
166	10
179	6
180	99
181	23
182	6
