Mass Spectrum: Bicyclo[2.2.1]heptane-7-methanol, 2-hydroxy-1,7-dimethyl-
Formula: C10H18O2
CAS: 54831-21-9
Molecular weight: 170
m/z	intensity
26	84
29	86
31	70
39	96
41	172
43	134
53	66
55	120
67	124
69	64
71	36
77	56
79	85
81	66
91	48
93	102
94	60
95	999
96	96
108	68
109	48
111	36
121	71
126	85
139	208
140	41
152	36
