Mass Spectrum: Propane, 1,1,3,3-tetrachloro-2-methyl-
Formula: C4H6Cl4
CAS: 54833-05-5
Molecular weight: 194
m/z	intensity
14	2
15	4
18	2
25	2
26	16
27	83
28	19
29	12
32	2
35	5
36	7
37	15
38	20
39	99
40	7
41	28
42	2
43	9
44	4
45	1
47	12
48	10
49	127
50	26
51	99
52	9
53	54
54	3
55	3
56	1
57	12
60	7
61	53
62	57
63	110
64	20
65	30
69	1
71	2
72	5
73	26
74	4
75	293
76	57
77	103
78	18
79	4
82	2
83	153
84	5
85	105
86	3
87	93
88	29
89	100
90	13
91	31
92	2
93	27
94	2
95	14
96	94
97	160
98	63
99	100
100	12
101	16
105	1
107	4
109	93
110	127
111	999
112	112
113	612
114	33
115	97
116	3
117	4
119	4
121	4
122	13
123	170
124	34
125	111
126	18
127	33
128	3
129	9
130	3
131	9
132	3
133	7
135	4
143	7
144	6
145	69
146	8
147	62
148	4
149	19
151	2
157	3
158	11
159	21
160	11
161	19
162	6
164	1
179	5
181	3
183	1
193	1
194	1
