Mass Spectrum: 2(3H)-Furanone, 3-[(4-nitrophenyl)methylene]-5-phenyl-
Formula: C17H11NO4
CAS: 54833-77-1
Molecular weight: 293
m/z	intensity
51	160
52	10
75	30
76	30
77	450
78	40
105	999
106	80
113	20
114	20
130	40
247	30
263	30
293	470
294	90
