Mass Spectrum: Benzene, [2-(methylsulfonyl)-1-propenyl]-
Formula: C10H12O2S
CAS: 54845-43-1
Molecular weight: 196
m/z	intensity
63	100
65	70
77	90
79	60
89	80
91	180
105	220
115	430
116	999
117	240
196	250
