Mass Spectrum: 1,3-Butadiene, 1,4-dimethoxy-1,4-diphenyl-
Formula: C18H18O2
CAS: 54848-75-8
Molecular weight: 266
m/z	intensity
39	40
41	40
42	12
43	30
44	42
45	20
50	11
51	100
52	16
53	16
55	25
56	17
57	26
59	16
65	20
67	10
69	40
71	15
74	18
75	15
76	22
77	400
78	50
79	16
81	16
83	17
85	17
89	25
91	72
92	18
94	17
95	17
100	10
101	17
102	23
103	47
104	17
105	999
106	85
107	17
110	17
115	97
116	22
117	77
118	42
121	55
122	40
131	37
132	10
133	85
134	10
145	50
146	40
147	30
148	50
149	11
159	10
165	27
167	17
173	10
178	25
179	12
189	22
191	140
192	30
198	12
202	19
203	15
204	10
205	17
206	20
207	12
219	40
220	64
221	12
223	35
235	27
236	72
237	15
251	200
252	35
266	920
267	170
