Mass Spectrum: 2-Hexenoic acid, 2-hexenyl ester, (E,E)-
Formula: C12H20O2
CAS: 54845-28-2
Molecular weight: 196
m/z	intensity
14	2
15	5
16	2
17	3
18	19
27	75
28	108
29	75
32	19
39	89
40	26
41	282
42	36
43	42
44	16
53	50
54	53
55	659
56	38
57	70
65	13
67	211
68	54
69	60
70	9
71	10
73	31
79	17
81	51
82	121
83	54
95	36
97	999
98	64
99	28
107	18
109	13
111	15
114	16
115	27
125	11
126	9
139	34
151	12
153	30
167	26
196	60
