Mass Spectrum: 6-Heneicosen-11-one, (Z)-
Formula: C21H40O
CAS: 54844-65-4
Molecular weight: 308
m/z	intensity
15	1
26	3
27	79
28	20
29	230
30	5
31	2
37	1
38	2
39	105
40	23
41	761
42	128
43	763
44	25
45	9
46	1
47	1
48	1
50	2
51	8
52	7
53	95
54	656
55	999
56	119
57	547
58	403
59	121
60	5
61	1
62	1
63	2
65	39
66	48
67	570
68	521
69	533
70	103
71	531
72	45
73	6
76	1
77	36
78	13
79	158
80	82
81	594
82	915
83	521
84	261
85	235
86	42
87	8
88	1
91	29
92	8
93	77
94	35
95	579
96	608
97	349
98	109
99	53
100	42
101	9
102	1
103	1
104	1
105	7
106	2
107	52
108	29
109	152
110	50
111	127
112	26
113	37
114	26
115	4
117	1
119	3
120	2
121	40
122	67
123	40
124	816
125	149
126	36
127	44
128	13
129	2
133	2
134	1
135	43
136	11
137	14
138	21
139	124
140	18
141	28
142	10
143	1
147	1
148	4
149	80
150	13
151	17
152	17
153	12
154	7
155	8
156	3
163	5
164	20
165	7
166	10
167	180
168	26
169	467
170	57
171	4
177	7
178	5
179	2
180	2
181	6
182	94
183	18
184	19
185	72
186	10
187	1
191	4
192	1
193	1
194	2
195	85
196	14
197	194
198	28
199	2
205	9
206	2
207	1
208	3
209	9
210	5
211	10
212	6
213	1
219	4
220	1
221	1
222	1
223	58
224	24
225	8
226	3
233	2
234	1
237	143
238	28
239	7
240	2
247	1
251	91
252	19
253	7
254	1
261	2
262	1
265	17
266	6
267	8
268	1
279	7
280	2
289	1
290	5
291	1
293	1
307	1
308	35
309	10
310	1
