Mass Spectrum: 2H-Pyran, 2-[(2-furanylmethoxy)methyl]tetrahydro-
Formula: C11H16O3
CAS: 54845-37-3
Molecular weight: 196
m/z	intensity
15	17
17	35
26	21
27	131
29	272
30	14
31	105
37	5
38	11
39	100
40	20
41	331
42	42
43	363
44	32
45	19
50	13
51	24
52	20
53	97
54	34
55	179
56	42
57	260
58	18
59	6
60	7
61	7
65	8
67	199
68	20
69	24
70	8
71	8
75	22
77	6
79	8
80	13
81	217
82	67
83	41
84	60
85	999
86	56
91	10
95	21
96	28
97	116
98	45
99	42
100	5
110	5
112	17
115	6
131	6
148	6
160	12
196	62
197	7
