Mass Spectrum: 2-Hexenoic acid, 6-cyclohexyl-
Formula: C12H20O2
CAS: 54845-27-1
Molecular weight: 196
m/z	intensity
14	2
15	7
16	2
17	15
18	66
26	3
27	59
28	47
29	57
30	3
31	10
32	12
36	4
37	4
38	9
39	20
40	183
41	21
42	41
43	11
44	53
45	3
46	7
49	3
50	16
51	29
52	18
53	76
54	106
55	184
56	14
57	13
58	4
59	19
60	22
61	8
62	8
63	22
64	5
65	51
66	43
67	474
68	148
69	53
70	7
71	15
72	18
73	103
74	23
75	22
76	6
77	90
78	60
79	188
80	90
81	999
82	242
83	61
84	22
85	10
86	4
87	15
88	3
89	5
90	1
91	63
92	30
93	78
94	179
95	353
96	655
97	94
98	17
99	13
100	9
101	29
102	4
103	7
104	11
105	15
106	6
107	58
108	33
109	237
110	35
111	39
112	10
113	18
114	23
115	20
116	7
117	12
118	10
119	10
120	4
121	24
122	14
123	12
124	3
178	48
179	37
180	16
181	4
195	4
196	253
197	37
198	13
