Mass Spectrum: Cyclohexanol, 2-methylene-3-(1-methylethyl)-, acetate, cis-
Formula: C12H20O2
CAS: 54845-30-6
Molecular weight: 196
m/z	intensity
41	190
42	20
43	999
44	22
51	6
53	50
54	8
55	138
56	20
57	42
65	20
66	14
67	92
68	20
69	18
77	62
78	20
79	200
80	68
81	110
82	70
83	62
84	20
91	60
92	20
93	234
94	160
95	140
96	30
97	60
98	6
107	118
108	60
109	46
110	26
111	62
112	14
121	561
122	60
124	16
135	20
136	443
137	64
152	4
153	4
196	4
