Mass Spectrum: Cyclohexanol, 3-methyl-2-(1-methylethyl)-, acetate, (1.alpha.,2.alpha.,3.alpha.)-
Formula: C12H22O2
CAS: 54845-18-0
Molecular weight: 198
m/z	intensity
41	239
42	36
43	999
44	42
45	18
53	40
54	18
55	237
56	38
57	116
58	8
67	179
68	46
69	118
70	24
71	60
77	20
79	40
80	38
81	325
82	365
83	225
84	26
85	36
86	6
91	10
93	18
94	124
95	994
96	167
97	46
99	10
100	20
109	60
110	20
111	10
113	72
123	468
124	44
137	20
138	488
139	56
