Mass Spectrum: Benzene, [(octyloxy)methyl]-
Formula: C15H24O
CAS: 54852-64-1
Molecular weight: 220
m/z	intensity
15	2
17	1
18	7
27	14
28	4
29	20
31	1
38	2
39	17
40	2
41	37
42	9
43	60
44	5
45	43
50	5
51	15
52	4
53	3
54	1
55	24
56	10
57	19
58	7
59	2
63	5
64	2
65	39
66	3
67	2
68	2
69	16
70	10
71	9
74	1
76	2
77	35
78	10
79	22
80	2
81	2
82	1
83	6
84	5
85	5
89	9
90	7
91	999
92	222
93	15
97	4
105	5
106	2
107	24
108	16
109	2
111	4
112	9
113	2
115	2
119	3
120	2
122	4
123	10
129	23
130	2
133	7
134	3
135	116
136	12
147	4
220	2
