Mass Spectrum: 1(2H)-Naphthalenone, 6-(1,1-dimethylethyl)octahydro-2,8a-dimethyl-
Formula: C16H28O
CAS: 54869-06-6
Molecular weight: 236
m/z	intensity
39	210
41	999
43	350
53	200
55	480
57	629
67	410
68	230
69	220
79	200
81	400
95	370
109	350
125	440
138	240
236	90
