Mass Spectrum: 1,2-Ethanediol, 1,2-di-4-pyridinyl-, (R*,R*)-(.+/-.)-
Formula: C12H12N2O2
CAS: 5486-06-6
Molecular weight: 216
m/z	intensity
17	9
18	39
26	11
27	66
28	26
29	44
30	2
31	3
32	1
37	4
38	9
39	27
40	4
41	5
42	2
43	1
49	4
50	38
51	105
52	63
53	138
54	11
55	7
61	2
62	5
63	14
64	9
65	9
66	2
67	1
68	1
74	2
75	4
76	4
77	4
78	66
79	52
80	284
81	19
82	1
85	1
87	1
89	3
90	1
91	3
92	4
93	3
94	2
102	1
105	1
106	28
107	49
108	494
109	999
110	71
111	5
114	1
115	4
116	2
117	1
120	1
123	5
127	1
128	1
129	1
140	1
141	2
142	2
143	1
154	1
155	1
168	3
169	3
170	1
181	4
182	3
197	2
198	1
216	9
217	2
