Mass Spectrum: 2-Iodoacetamido-3-benzoyl-4,5,6,7-tetrahydro-benzo[b]thiophene
Formula: C17H16INO2S
CAS: 54862-11-2
Molecular weight: 425
m/z	intensity
50	5
51	61
52	11
53	8
54	2
55	4
57	3
58	10
59	2
60	5
63	6
64	6
65	29
66	7
67	12
69	14
70	6
71	11
73	1
75	2
76	15
77	673
78	59
79	22
80	5
81	1
82	3
84	6
85	2
89	11
90	4
91	74
92	9
93	1
95	4
96	5
97	6
101	1
102	3
103	5
104	9
105	999
106	79
107	5
109	3
110	2
111	8
113	1
114	2
115	21
116	13
117	8
118	10
119	11
120	3
121	12
122	10
123	12
124	4
125	4
127	37
128	19
129	3
130	2
131	7
134	1
135	3
136	3
137	1
139	7
140	7
141	24
142	4
144	1
146	1
148	1
149	2
150	7
151	20
152	32
153	15
154	8
155	2
156	4
162	2
164	2
165	14
166	12
167	18
168	6
169	28
170	1
171	2
173	2
176	3
177	3
178	22
179	17
180	23
181	8
182	6
183	2
184	6
185	2
186	8
187	1
190	2
192	11
193	7
194	14
195	48
196	11
197	6
198	3
199	12
200	35
201	9
202	3
203	2
204	6
206	3
207	1
208	3
209	3
210	3
211	19
212	10
213	3
214	9
215	2
219	2
220	25
221	7
222	19
223	28
224	12
225	2
226	10
227	12
228	258
229	52
230	17
231	3
238	9
239	10
240	12
241	7
242	12
243	1
252	14
253	4
254	124
255	69
256	745
257	516
258	112
259	29
260	1
270	41
271	6
280	2
281	2
298	377
299	200
300	48
301	9
333	2
377	9
378	2
379	7
424	2
425	541
426	102
427	34
428	3
