Mass Spectrum: 5H-Cyclopropa(3,4)benz(1,2-e)azulen-5-one, 1,1a-.alpha.,1b-.beta.,4,4a,7a-.alpha.,7b,8,9,9a-decahydro-7b-.alpha.,9-.beta.,9a-.alpha.-trihydroxy-3-hydroxymethyl-1,1,6,8-.alpha.-tetramethyl-4a-methoxy-, 9,9a-didecanoate
Formula: C41H66O8
CAS: 54870-24-5
Molecular weight: 686
m/z	intensity
25	3
26	3
27	3
28	120
29	51
30	70
31	11
32	31
33	3
36	3
37	3
39	163
40	16
41	755
42	155
43	659
44	40
45	48
46	3
47	3
48	3
49	3
50	10
51	31
52	11
53	88
54	60
55	503
56	140
57	999
58	40
59	48
60	215
61	40
63	20
64	3
65	40
66	20
67	115
68	40
69	415
70	80
71	607
72	40
73	23
74	30
75	11
76	3
77	103
78	31
79	120
80	20
81	140
82	31
83	467
84	71
85	320
86	20
87	48
88	8
89	11
90	3
91	155
92	20
93	80
94	20
95	148
96	51
97	63
98	50
99	28
100	3
101	31
102	11
103	28
104	10
105	108
106	28
107	111
108	43
109	131
110	30
111	43
112	43
113	16
114	23
115	96
116	20
117	56
118	16
119	68
120	28
121	123
122	50
123	71
124	108
125	183
126	63
127	60
128	60
129	148
130	36
131	63
132	28
133	76
134	30
135	68
136	43
137	51
138	68
139	43
140	10
141	51
142	36
143	71
144	28
145	83
146	40
147	71
148	40
149	71
150	28
151	88
152	100
153	91
154	28
155	519
156	68
157	60
158	50
159	100
160	40
161	96
162	40
163	48
164	40
165	88
166	31
167	48
168	20
169	51
170	40
171	71
172	71
173	151
174	56
175	103
176	50
177	88
178	43
179	60
180	40
181	60
182	50
183	56
184	28
185	68
186	51
187	91
188	50
189	96
190	56
191	71
192	40
193	63
194	30
195	56
196	28
197	71
198	60
199	80
200	50
201	88
202	56
203	111
204	51
205	51
206	20
207	56
208	40
209	68
210	135
211	100
212	40
213	91
214	76
215	103
216	43
217	68
218	40
219	51
220	36
221	88
222	63
223	88
224	40
225	71
226	36
227	111
228	91
229	60
230	20
231	43
232	23
233	23
234	16
235	51
236	80
237	60
238	40
239	63
240	40
241	88
242	60
243	43
244	28
245	40
246	23
247	48
248	20
249	43
250	28
251	68
252	48
253	68
254	120
255	68
256	23
257	40
258	23
259	43
260	20
261	31
262	23
263	56
264	51
265	71
266	30
267	60
268	36
269	48
270	28
271	31
272	20
273	60
274	28
275	28
276	36
277	68
278	30
279	96
280	56
281	83
282	80
283	68
284	50
285	40
286	20
287	16
288	8
289	11
290	10
291	40
292	251
293	163
294	88
295	76
296	40
297	40
298	23
299	56
300	28
301	23
302	10
303	8
304	3
305	3
306	8
307	11
308	40
309	131
310	320
311	148
312	63
313	43
314	60
315	23
316	11
317	16
318	8
319	3
321	3
322	8
323	31
324	228
325	108
326	40
327	96
328	80
329	31
330	20
331	11
332	20
333	8
334	3
335	8
336	3
337	8
339	3
340	36
341	56
342	400
343	111
344	30
345	16
346	8
347	3
348	3
349	3
351	3
352	3
353	3
354	3
355	8
357	8
358	16
359	36
360	48
361	11
363	3
364	3
365	8
366	3
367	3
369	3
370	3
371	8
372	3
373	3
375	3
376	3
377	3
378	3
379	3
381	3
382	3
383	3
384	3
385	3
387	3
388	3
389	3
390	3
391	11
392	20
393	8
394	3
395	3
396	3
397	3
399	3
400	3
401	8
402	16
403	8
405	3
406	3
407	3
408	3
409	3
411	3
412	3
413	3
414	3
415	3
417	3
418	3
419	3
420	3
421	8
423	3
424	3
425	3
426	3
427	3
429	3
430	3
431	3
432	3
433	11
435	3
436	8
437	3
438	3
439	8
441	3
442	3
443	3
444	3
445	3
447	3
448	3
449	16
450	8
451	11
453	8
454	20
455	8
456	3
457	8
459	3
460	3
461	3
462	3
463	8
464	60
465	23
466	11
467	8
468	11
469	11
471	8
472	3
473	3
474	3
475	3
477	3
478	3
479	8
480	8
481	20
482	70
483	31
484	20
485	11
486	20
487	20
489	11
490	3
491	3
492	3
493	3
495	3
496	56
497	23
498	11
499	11
500	10
501	3
502	3
503	3
504	3
505	3
507	3
508	3
509	3
510	3
511	3
513	31
514	91
515	200
516	71
517	16
519	3
520	3
521	3
522	3
523	3
525	3
526	3
527	3
528	3
529	3
531	3
532	3
533	3
534	3
535	3
538	3
539	3
540	3
541	3
542	3
544	3
545	3
546	3
547	3
548	3
554	3
556	3
557	3
558	3
559	3
561	3
562	3
568	3
569	3
570	3
572	3
573	3
574	3
575	3
578	3
581	3
582	3
584	3
585	3
586	3
594	3
596	3
599	3
603	3
604	3
606	3
607	3
608	3
609	3
610	3
613	3
614	3
618	3
619	3
621	3
623	3
624	3
625	3
626	3
627	3
629	3
632	3
634	3
635	3
636	8
638	3
639	3
640	8
641	3
642	3
644	3
646	3
649	3
650	3
651	3
653	3
654	8
655	3
656	3
657	3
659	3
660	3
666	3
667	3
668	31
669	10
670	3
671	3
685	3
686	16
687	8
688	3
