Mass Spectrum: Nonanedioic acid, 2,6-dimethyl-, dimethyl ester
Formula: C13H24O4
CAS: 5487-98-9
Molecular weight: 244
m/z	intensity
15	818
17	6
18	17
27	321
28	162
29	225
31	50
32	4
39	202
40	36
41	708
42	188
43	377
44	96
52	78
53	46
54	999
55	206
56	197
59	505
67	73
68	55
69	528
70	55
73	200
74	220
76	27
78	23
81	87
82	46
83	406
87	183
88	868
89	55
95	78
96	46
97	312
98	177
101	142
107	23
109	46
110	78
111	200
112	78
115	133
124	52
125	257
126	133
128	46
129	46
135	16
137	29
138	34
139	268
140	18
151	23
152	64
153	133
156	211
157	62
158	52
165	27
170	27
171	110
180	177
181	23
184	165
185	16
199	23
212	23
213	64
214	23
229	16
