Mass Spectrum: Pentadecanoic acid, 13-methyl-, methyl ester
Formula: C17H34O2
CAS: 5487-50-3
Molecular weight: 270
m/z	intensity
15	20
17	3
18	6
27	45
28	42
29	131
30	6
31	6
34	3
37	6
39	42
40	11
41	338
42	70
43	346
44	8
45	11
46	3
48	3
50	3
53	17
54	20
55	346
56	98
57	304
58	11
59	95
60	6
63	6
64	3
65	3
66	3
67	39
68	17
69	212
70	70
71	112
72	3
73	28
74	999
75	184
76	22
77	3
78	3
79	22
80	8
81	56
82	14
83	151
84	34
85	70
86	6
87	522
88	45
89	3
93	14
94	6
95	45
96	11
97	126
98	47
99	17
100	8
101	67
102	6
105	8
107	20
108	8
109	53
110	3
111	84
112	20
113	6
115	117
116	11
117	6
118	3
119	6
120	6
121	22
123	28
124	6
125	50
126	11
127	3
129	67
130	25
131	3
132	6
133	6
134	6
135	28
136	11
137	11
138	14
139	45
140	6
141	3
142	3
143	218
144	22
145	11
146	6
147	6
148	3
149	22
150	6
151	3
153	22
154	6
155	6
157	45
158	6
161	11
162	3
163	6
164	6
165	3
166	8
167	17
168	8
169	3
170	3
171	67
172	22
173	3
175	6
176	6
177	3
178	3
181	14
182	9
183	6
184	6
185	78
186	20
187	6
189	6
191	34
192	11
193	11
194	11
195	8
196	3
197	3
199	98
200	11
201	15
202	3
203	3
205	8
206	3
207	11
208	11
209	37
210	8
211	3
213	64
214	6
215	11
216	6
218	3
219	6
220	6
221	14
222	6
223	14
224	3
225	3
226	6
227	137
228	39
229	3
236	6
237	8
238	11
239	56
240	8
241	81
242	17
243	6
245	9
248	3
250	3
251	3
252	3
253	3
256	11
257	3
269	11
270	489
271	115
272	8
