Mass Spectrum: Benzene, 1,1'-[(1,2-dimethyl-1,2-ethanediyl)bis(oxymethylene)]bis-
Formula: C18H22O2
CAS: 54889-78-0
Molecular weight: 270
m/z	intensity
15	4
17	14
18	63
26	6
27	23
28	2
29	29
30	2
31	31
32	2
36	3
37	10
38	16
39	38
40	7
41	21
42	4
43	21
44	8
45	16
49	7
50	60
51	127
52	32
53	9
55	20
56	9
57	20
58	6
59	73
60	4
61	9
62	7
63	18
64	5
65	67
66	5
71	3
72	10
73	18
74	23
75	12
76	15
77	338
78	56
79	56
80	5
85	2
86	2
87	2
89	32
90	19
91	999
92	278
93	20
94	4
101	3
103	2
104	12
105	416
106	281
107	212
108	56
109	5
115	2
117	5
118	6
119	8
120	8
121	12
122	42
123	14
131	3
132	2
133	3
135	16
136	15
137	2
146	2
147	3
148	3
149	35
150	6
151	2
152	2
161	4
162	4
163	6
164	5
165	5
167	3
173	2
176	2
177	11
178	6
179	105
180	29
181	7
182	3
197	4
