Mass Spectrum: Pentane, 2,2'-[ethylidenebis(oxy)]bis-
Formula: C12H26O2
CAS: 54889-47-3
Molecular weight: 202
m/z	intensity
27	111
28	125
29	179
30	6
31	33
41	227
42	185
43	832
44	123
45	654
46	17
55	341
56	17
57	17
58	12
59	42
61	27
69	26
70	215
71	999
72	68
73	57
86	8
87	15
89	17
97	133
98	9
99	22
114	21
115	618
131	5
159	28
