Mass Spectrum: Octane, 1,1-diethoxy-
Formula: C12H26O2
CAS: 54889-48-4
Molecular weight: 202
m/z	intensity
25	4
26	11
27	150
29	335
30	10
31	130
34	4
38	3
39	77
40	12
41	197
42	60
43	181
44	65
45	71
46	17
47	532
53	23
54	17
55	201
56	38
57	397
58	26
59	30
60	4
65	3
66	3
67	40
68	27
69	358
70	32
71	17
72	47
73	12
75	378
76	8
77	3
79	4
81	22
82	28
83	25
84	13
85	251
86	17
95	9
96	3
99	19
100	3
101	3
102	3
103	999
104	59
105	5
109	5
110	6
111	40
112	4
113	14
114	3
127	6
145	4
155	3
156	19
157	194
158	23
159	6
201	3
