Mass Spectrum: 1,3-Dioxolane, 4-(1,4-dimethoxybutyl)-2,2-dimethyl-
Formula: C11H22O4
CAS: 54889-93-9
Molecular weight: 218
m/z	intensity
26	16
27	81
28	109
29	136
30	21
31	40
33	19
39	76
40	19
41	171
42	81
43	444
44	70
45	280
53	46
54	16
55	168
56	21
57	40
58	68
59	73
61	32
67	54
68	19
69	35
70	32
71	114
72	81
73	89
75	21
77	21
79	59
81	35
83	46
84	21
85	999
86	62
87	76
91	13
92	16
95	19
96	19
97	38
100	16
101	231
102	21
105	19
111	136
112	19
115	19
116	16
117	539
118	32
129	16
130	19
203	120
204	13
