Mass Spectrum: Pentadecanoic acid, 3-oxo-, methyl ester
Formula: C16H30O3
CAS: 54889-72-4
Molecular weight: 270
m/z	intensity
12	1
13	1
14	3
15	35
16	2
17	2
18	9
19	1
20	1
24	1
25	2
26	11
27	55
28	22
29	144
30	4
31	24
32	15
33	4
37	1
38	2
39	33
40	10
41	247
42	48
43	320
44	9
45	6
47	1
49	1
50	2
51	2
52	2
53	165
54	23
55	196
56	42
57	247
58	14
59	91
60	3
61	1
63	1
64	1
65	3
66	3
67	32
68	19
69	76
70	23
71	92
72	6
73	2
74	134
75	12
76	1
77	3
78	1
79	11
80	11
81	30
82	16
83	41
84	101
85	45
86	5
87	7
88	15
89	1
90	1
91	2
92	1
93	8
94	11
95	34
96	14
97	60
98	45
99	8
100	2
101	103
102	6
103	4
104	1
105	1
106	1
107	5
108	6
109	19
110	9
111	18
112	14
113	3
114	1
115	1
116	999
117	258
118	16
119	2
120	1
121	6
122	5
123	8
124	7
125	6
126	5
127	1
128	1
129	227
130	26
131	4
132	1
133	1
134	1
135	4
136	4
137	3
138	3
139	5
140	14
141	3
142	1
143	27
144	7
145	1
149	2
151	1
152	12
153	6
154	14
155	2
156	1
157	4
158	20
159	2
163	1
164	1
165	1
166	1
167	3
168	2
169	1
171	8
172	9
173	1
176	1
177	2
178	24
179	6
180	1
181	1
182	1
185	10
186	4
187	1
191	1
192	6
193	1
194	1
195	2
196	4
197	104
198	14
199	3
200	2
209	1
210	1
212	1
213	1
214	3
215	1
219	1
220	2
221	1
223	1
224	1
227	6
228	3
229	1
237	1
238	1
239	9
240	1
241	3
242	1
252	16
253	3
254	1
255	1
269	1
270	32
271	9
272	1
