Mass Spectrum: Pentadecanoic acid, 14-oxo-, methyl ester
Formula: C16H30O3
CAS: 54889-71-3
Molecular weight: 270
m/z	intensity
41	422
42	91
43	999
44	42
45	42
51	8
52	2
53	51
54	48
55	571
56	77
57	128
58	565
59	285
60	14
61	2
65	8
66	2
67	114
68	57
69	314
70	42
71	285
72	28
73	51
74	348
75	34
76	2
77	5
78	2
79	31
80	17
81	120
82	57
83	291
84	128
85	85
86	8
87	285
88	31
89	2
91	8
92	2
93	28
94	20
95	114
96	100
97	300
98	351
99	51
100	20
101	37
102	2
105	2
107	31
108	14
109	65
110	28
111	114
112	85
113	28
114	20
115	34
116	5
119	5
120	2
121	45
122	5
123	34
124	20
125	57
126	57
127	14
128	14
129	34
130	14
131	2
132	8
133	2
134	2
135	20
136	20
137	20
138	45
139	60
140	57
141	17
142	5
143	28
144	5
145	2
146	1
147	5
148	2
149	5
150	2
151	5
152	14
153	17
154	22
155	5
156	2
157	14
158	2
161	2
162	8
163	85
164	17
165	2
166	1
167	2
168	2
169	5
170	2
171	8
177	14
178	5
179	5
180	114
181	165
182	22
183	2
184	2
185	8
186	2
192	1
194	1
195	8
196	20
197	34
198	2
199	1
200	14
201	2
210	8
212	85
213	342
214	51
215	5
217	2
218	2
222	2
223	2
227	5
228	2
237	2
238	22
239	142
240	22
241	2
242	2
252	2
253	2
254	2
255	28
256	2
270	62
271	8
