Mass Spectrum: Cyclohexane, 1,4-bis(ethoxymethyl)-
Formula: C12H24O2
CAS: 54889-63-3
Molecular weight: 200
m/z	intensity
15	35
16	4
26	15
27	89
28	2
29	409
30	17
31	644
38	2
39	95
40	18
41	238
42	21
43	65
45	39
46	3
47	8
50	2
51	8
52	6
53	67
54	95
55	191
56	14
57	75
58	11
59	711
60	26
61	0
62	13
63	1
65	16
66	71
67	273
68	51
69	57
70	13
71	10
72	24
73	25
74	3
75	2
77	31
78	36
79	298
80	161
81	118
82	39
83	30
84	6
85	29
86	7
89	2
91	38
92	12
93	276
94	216
95	999
96	85
97	24
98	20
99	9
100	3
103	2
105	9
106	3
107	50
108	827
109	163
110	21
111	71
112	11
113	5
121	2
124	2
125	15
126	6
127	1
139	17
140	4
141	42
142	4
152	1
153	4
155	189
156	27
157	2
171	3
199	2
200	1
201	2
