Mass Spectrum: 2-Propenoic acid, 3-phenyl-, 2-methyl-2-propenyl ester
Formula: C13H14O2
CAS: 54889-46-2
Molecular weight: 202
m/z	intensity
13	2
14	8
15	47
16	2
17	3
18	12
26	7
27	56
28	26
29	71
30	3
31	10
32	1
36	2
37	4
38	11
39	161
40	16
41	54
42	29
43	999
44	34
45	36
49	1
50	7
51	9
52	5
53	51
54	81
55	89
56	14
57	125
58	10
59	7
60	27
61	34
62	1
67	2
68	2
69	17
70	7
71	63
72	530
73	30
74	4
75	11
77	2
81	2
82	2
83	4
85	2
86	5
87	2
91	3
93	3
95	2
97	3
99	3
100	1
101	2
103	2
111	2
112	1
114	7
115	2
116	1
117	18
