Mass Spectrum: Cyclohexane, 1,1'-(1,2-dimethyl-1,2-ethanediyl)bis-, (R*,R*)-(.+/-.)-
Formula: C16H30
CAS: 54889-87-1
Molecular weight: 222
m/z	intensity
36	1
37	2
38	5
39	193
40	38
41	932
42	80
43	146
44	5
45	1
46	1
47	1
48	1
49	1
50	3
51	13
52	10
53	109
54	120
55	999
56	192
57	157
58	7
59	1
60	1
61	1
62	1
63	2
64	1
65	19
66	18
67	261
68	82
69	822
70	55
71	38
72	2
73	1
74	1
75	1
76	1
77	23
78	6
79	38
80	21
81	237
82	444
83	761
84	53
85	4
86	1
87	1
88	1
89	1
90	1
91	11
92	2
93	8
94	5
95	66
96	87
97	214
98	17
99	1
100	1
101	1
102	1
103	1
104	1
105	2
106	1
107	3
108	3
109	75
110	489
111	678
112	61
113	3
114	1
115	1
116	1
117	1
118	1
119	1
120	1
121	5
122	1
123	12
124	13
125	16
126	2
127	1
128	1
129	1
130	1
131	1
132	1
133	1
134	1
135	2
136	6
137	10
138	149
139	136
140	15
141	1
142	1
143	1
144	1
145	1
146	1
147	1
148	1
149	1
150	1
151	1
152	1
153	1
154	1
155	1
163	1
164	1
165	1
166	1
167	1
177	1
178	2
179	2
180	1
181	1
190	1
191	1
192	1
193	3
194	1
195	1
205	1
206	1
207	2
208	3
209	1
219	1
220	2
221	1
222	21
223	4
224	1
