Mass Spectrum: 1-Butanamine, 3-methyl-N-(3-methylbutyl)-N-nitro-
Formula: C10H22N2O2
CAS: 54889-51-9
Molecular weight: 202
m/z	intensity
38	14
39	125
40	34
41	389
42	437
43	999
44	578
45	24
53	23
54	20
55	151
56	248
57	304
58	26
67	9
68	14
69	421
70	117
71	82
84	140
85	18
86	21
89	173
98	543
99	118
100	293
101	22
112	18
113	40
114	20
133	21
140	40
145	50
156	157
157	28
