Mass Spectrum: L-Norvaline, N-(trifluoroacetyl)-, butyl ester
Formula: C11H18F3NO3
CAS: 54889-85-9
Molecular weight: 269
m/z	intensity
15	22
16	4
17	5
18	37
20	4
26	14
27	272
29	634
30	32
31	28
33	2
38	3
39	118
40	38
41	488
42	54
43	151
44	47
45	40
46	6
47	12
50	10
51	22
53	36
54	27
55	999
56	136
57	345
58	16
59	6
66	2
68	6
69	177
70	58
71	9
72	5
73	9
74	16
77	5
78	47
79	2
82	8
83	14
84	11
90	2
92	6
93	2
94	7
96	15
97	13
98	29
99	6
100	46
101	17
104	1
106	11
114	146
115	4
116	22
125	8
126	413
127	13
128	3
138	8
139	19
140	71
141	11
152	14
153	54
154	31
166	16
167	22
168	945
169	208
170	22
171	16
172	5
194	23
196	13
200	3
214	13
227	39
228	4
