Mass Spectrum: Propanamide, 3-(decyloxy)-N-2-propenyl-
Formula: C16H31NO2
CAS: 54889-73-5
Molecular weight: 269
m/z	intensity
14	2
15	8
16	2
17	14
18	71
19	2
26	10
27	93
28	110
29	182
30	67
31	27
32	2
38	2
39	70
40	13
41	679
42	111
43	408
44	47
45	69
46	3
51	2
52	2
53	18
54	38
55	333
56	729
57	999
58	345
59	25
60	2
65	3
66	3
67	33
68	40
69	103
70	130
71	113
72	19
73	40
74	2
77	1
78	2
79	3
80	5
81	17
82	27
83	80
84	352
85	105
86	35
87	4
88	5
90	3
94	4
95	9
96	19
97	27
98	92
99	105
100	17
101	3
102	2
109	4
110	11
111	24
112	195
113	377
114	34
115	6
127	3
128	918
129	109
130	170
131	12
132	6
138	2
140	3
141	5
142	30
143	4
155	2
156	1
157	2
170	3
171	5
184	13
185	2
198	12
199	2
212	13
213	5
224	2
226	9
227	2
240	23
241	2
242	1
254	6
268	4
269	39
270	17
271	3
