Mass Spectrum: Morphinan, 3-methoxy-6-methyl-, (6.alpha.)-
Formula: C18H25NO
CAS: 54889-81-5
Molecular weight: 271
m/z	intensity
40	50
41	320
42	150
43	780
44	900
45	999
46	70
47	10
50	50
51	150
52	70
53	150
54	60
55	300
56	80
57	10
60	70
63	90
64	10
65	120
66	20
67	100
68	60
69	110
70	10
72	50
77	230
78	80
79	140
80	20
81	100
82	70
83	50
87	170
91	240
92	50
93	110
94	70
95	80
96	10
102	50
103	70
104	10
105	140
106	20
107	100
108	60
109	60
110	50
115	230
116	80
117	80
118	10
119	110
120	70
121	190
122	110
123	60
127	110
128	250
129	150
130	70
131	170
132	80
133	70
134	10
135	90
136	20
137	50
138	50
139	50
140	10
141	150
142	60
143	80
144	80
145	130
146	90
147	130
148	170
149	90
150	340
151	70
152	60
153	60
154	10
155	80
156	80
157	60
158	80
159	190
160	130
161	130
162	80
163	60
165	70
171	270
172	110
173	80
174	150
175	60
211	60
226	490
227	230
228	150
229	20
256	60
269	120
270	100
271	330
272	70
