Mass Spectrum: Butane, 2,2'-[(2,2,2-trichloroethylidene)bis(oxy)]bis-
Formula: C10H19Cl3O2
CAS: 54890-04-9
Molecular weight: 276
m/z	intensity
14	1
15	2
16	1
17	1
18	4
19	1
26	2
27	27
28	19
29	130
30	4
31	9
32	3
36	2
38	1
39	17
40	2
41	137
42	7
43	22
44	4
45	58
46	1
47	12
48	2
49	2
50	1
51	1
53	3
54	1
55	22
56	40
57	999
58	46
59	19
60	1
61	1
63	2
65	1
69	1
70	1
71	2
72	3
73	8
74	1
75	1
76	1
77	1
78	1
82	2
83	6
84	2
85	3
86	1
87	8
88	1
91	1
94	1
95	2
96	1
97	2
98	1
99	1
101	6
102	1
103	112
104	7
105	1
110	1
111	2
112	13
113	2
114	8
115	2
116	1
117	3
119	3
121	1
125	1
127	1
128	1
130	3
132	3
134	1
139	1
149	1
159	3
163	3
167	1
168	1
169	1
170	1
171	1
191	1
193	1
203	46
204	3
205	44
206	3
207	14
208	1
209	2
247	3
249	3
251	1
