Mass Spectrum: 3-Methyl-2-butenoic acid, phenyl ester
Formula: C11H12O2
CAS: 54897-52-8
Molecular weight: 176
m/z	intensity
25	4
26	23
27	112
28	3
29	145
30	4
39	209
40	64
41	94
42	20
43	20
50	32
51	57
52	38
53	58
54	30
55	338
56	24
57	8
58	2
59	2
60	5
61	3
62	6
63	20
64	9
65	50
66	22
67	22
68	4
69	6
70	4
71	4
73	3
74	3
75	7
76	3
77	22
78	12
79	42
80	6
81	4
82	57
83	999
84	48
85	11
89	2
90	2
91	17
92	8
93	13
94	57
95	5
161	4
176	19
177	3
