Mass Spectrum: 1-Dimethylcarbamidoyl-3,3-dimethyldiaziridine
Formula: C6H13N3O
CAS: 54897-21-1
Molecular weight: 143
m/z	intensity
27	70
30	60
41	90
42	430
43	270
44	300
45	270
46	50
56	130
57	50
58	110
59	19
72	999
73	60
74	6
99	90
100	13
113	40
114	2
128	60
129	4
143	50
144	4
