Mass Spectrum: 1-Carbmethoxy-3,3-dimethyldiaziridine
Formula: C5H10N2O2
CAS: 54897-23-3
Molecular weight: 130
m/z	intensity
29	310
30	660
31	220
32	150
33	30
39	170
40	120
41	430
42	999
43	260
44	160
45	80
46	30
54	120
55	170
56	450
57	120
58	60
59	600
60	43
69	30
70	150
71	420
72	90
73	60
83	380
84	40
85	40
89	70
98	600
99	430
100	101
101	12
114	40
115	250
116	90
117	8
130	70
131	5
