Mass Spectrum: 1-Dimethylcarbamidoyl-2-benzoyl-3,3-dimethyldiaziridine
Formula: C13H17N3O2
CAS: 54897-25-5
Molecular weight: 247
m/z	intensity
41	119
42	123
43	519
44	159
45	47
51	59
56	143
57	65
58	391
59	63
72	999
73	42
74	103
77	291
78	38
79	39
80	43
89	87
91	21
105	663
106	63
107	5
113	45
119	48
134	42
142	112
143	7
202	42
203	101
204	16
232	39
233	5
247	102
248	16
