Mass Spectrum: D-Mannofuranoside, methyl 2-(acetylamino)-2-deoxy-3,5,6-tri-O-methyl-
Formula: C12H23NO6
CAS: 54890-06-1
Molecular weight: 277
m/z	intensity
41	86
42	78
43	460
44	78
45	460
46	26
47	41
53	23
54	23
55	57
56	47
57	55
58	164
59	204
60	44
61	112
67	10
68	44
69	39
70	34
71	191
72	81
73	628
74	99
75	183
80	41
81	20
82	26
83	47
84	102
85	78
86	460
87	178
88	191
89	999
90	44
91	7
95	13
96	52
97	28
98	130
99	65
100	81
101	225
102	109
103	117
104	7
108	7
109	7
110	34
111	73
112	91
113	20
114	65
115	583
116	78
117	31
119	5
124	55
125	26
126	99
127	26
128	704
129	120
130	44
131	57
138	18
140	55
141	23
142	55
143	18
144	41
145	47
153	31
154	26
155	18
156	20
157	10
158	26
168	52
170	47
172	120
173	15
181	3
182	34
183	4
184	11
185	29
186	20
187	5
188	2
196	2
198	3
199	1
200	18
201	3
202	66
203	7
204	2
212	1
213	2
214	67
215	8
216	6
217	26
218	4
228	1
230	1
232	1
246	15
