Mass Spectrum: 2,2,5-Trimethyl-thiazolidine
Formula: C6H13NS
CAS: 54897-60-8
Molecular weight: 131
m/z	intensity
41	161
42	149
45	108
56	181
57	60
58	999
59	453
70	982
71	844
72	129
74	110
98	230
99	120
116	279
131	359
