Mass Spectrum: N-Ethyl-n-butan-4-ol-nitrosamine
Formula: C6H14N2O2
CAS: 54897-62-0
Molecular weight: 146
m/z	intensity
14	9
15	94
16	4
17	4
18	21
25	3
26	45
27	395
28	621
29	923
30	459
31	766
32	13
33	2
36	2
37	4
38	11
39	131
40	33
41	431
42	993
43	636
44	571
45	63
46	85
47	14
49	7
50	4
51	8
52	9
53	41
54	63
55	671
56	999
57	910
58	758
59	67
60	7
61	2
62	1
63	1
64	1
65	2
66	3
67	9
68	65
69	39
70	160
71	315
72	156
73	90
74	53
75	80
76	4
77	2
78	3
79	6
80	9
81	5
82	32
83	9
84	48
85	16
86	11
87	496
88	120
89	9
90	1
93	1
94	2
95	7
96	12
97	20
98	242
99	33
100	127
101	34
102	9
103	2
104	1
105	2
109	1
111	8
112	2
113	3
114	18
115	84
116	34
117	5
122	2
127	2
128	13
129	637
130	47
131	4
146	10
147	2
