Mass Spectrum: 1-Phenylcarbamidoyl-2-dimethylcarbamidoyl-3,3-dimethyldiaziridine
Formula: C13H18N4O2
CAS: 54897-26-6
Molecular weight: 262
m/z	intensity
44	165
45	173
46	8
51	45
52	39
53	9
58	72
59	7
72	999
73	47
77	45
91	143
92	39
93	46
98	35
99	83
113	22
119	375
120	51
128	7
143	219
144	45
164	119
165	9
191	22
247	19
262	21
263	3
