Mass Spectrum: Fluoxetine
Formula: C17H18F3NO
CAS: 54910-89-3
Molecular weight: 309
m/z	intensity
15	1
18	3
27	3
28	9
29	2
30	5
31	1
38	2
39	10
40	1
41	5
42	48
43	23
44	999
45	30
50	6
51	16
52	5
53	2
54	1
55	1
56	8
57	8
58	7
59	33
60	1
62	3
63	15
64	4
65	12
66	1
68	2
69	2
70	9
71	1
75	6
76	5
77	33
78	33
79	5
81	1
83	9
84	1
87	1
88	3
89	8
90	2
91	43
92	4
93	1
94	1
95	7
96	1
99	1
101	1
102	7
103	38
104	65
105	23
106	3
107	2
112	7
113	11
114	7
115	25
116	6
117	16
118	18
119	6
120	5
121	1
125	4
126	2
127	1
128	1
129	1
130	3
131	2
132	9
133	11
134	2
141	1
143	16
144	5
145	13
146	16
147	9
148	26
149	3
151	1
152	2
153	2
154	2
159	2
161	4
162	17
163	2
164	13
165	2
175	1
176	1
181	1
183	12
184	2
186	1
187	1
188	1
201	1
203	2
204	1
205	3
232	2
249	1
251	5
252	3
277	1
278	1
309	26
310	5
