Mass Spectrum: (2-Thioacetylvinyl)-phenylamine
Formula: C10H11NS
CAS: 54920-39-7
Molecular weight: 177
m/z	intensity
45	88
51	321
59	176
68	168
77	594
78	129
88	111
92	99
100	999
104	100
116	78
117	80
118	69
128	118
129	108
130	99
143	230
144	715
145	78
162	178
175	159
177	965
178	130
179	60
