Mass Spectrum: Ethanone, 2-ethoxy-2-[(2-nitrophenyl)amino]-1-phenyl-
Formula: C16H16N2O4
CAS: 54934-78-0
Molecular weight: 300
m/z	intensity
43	119
45	362
46	242
50	123
51	262
52	52
55	32
57	32
63	47
64	31
65	125
66	38
74	31
75	35
76	109
77	711
78	138
79	44
91	106
92	103
93	55
103	51
104	39
105	999
106	103
121	181
122	145
149	52
178	46
179	46
194	30
195	617
196	66
255	19
256	4
300	1
