Mass Spectrum: Naphthalene, 2-(1,1-dimethylethyl)decahydro-4a-methyl-
Formula: C15H28
CAS: 54934-96-2
Molecular weight: 208
m/z	intensity
41	679
55	549
56	280
57	649
67	380
69	320
81	529
83	330
95	999
96	300
109	430
137	569
150	240
151	350
152	280
208	50
