Mass Spectrum: Dodecane, 1-(heptylthio)-
Formula: C19H40S
CAS: 54934-53-1
Molecular weight: 300
m/z	intensity
29	614
30	14
31	14
32	6
33	2
34	5
35	9
36	2
37	2
38	4
39	118
40	23
41	882
42	195
43	999
44	31
45	48
46	25
47	89
48	10
49	8
50	3
51	4
52	2
53	38
54	68
55	965
56	405
57	720
58	30
59	16
60	83
61	354
62	17
63	16
64	1
65	6
66	5
67	82
68	112
69	465
70	336
71	129
72	7
73	17
74	9
75	28
76	5
77	5
78	1
79	8
80	2
81	38
82	57
83	238
84	88
85	62
86	5
87	103
88	18
89	57
90	4
91	5
92	1
93	1
94	0
95	13
96	36
97	242
98	331
99	33
100	2
101	24
102	4
103	14
104	1
105	1
109	2
110	8
111	60
112	24
113	6
114	0
115	8
116	1
117	8
118	0
119	0
123	1
124	3
125	20
126	12
127	2
128	0
129	12
130	44
131	442
132	75
133	36
134	4
135	0
140	17
141	2
143	5
144	0
145	40
146	5
147	2
157	7
158	0
159	13
160	1
161	0
166	0
168	37
169	4
170	0
171	2
172	0
173	4
174	0
187	15
188	1
189	0
199	2
200	10
201	385
202	55
203	22
204	1
215	24
216	3
217	0
229	6
230	0
243	2
257	6
258	1
259	0
271	4
272	0
285	1
299	11
300	67
301	18
302	5
303	0
