Mass Spectrum: 1H-Azepine, 1-(2,3-dichloro-1-propenyl)hexahydro-
Formula: C9H15Cl2N
CAS: 54935-01-2
Molecular weight: 207
m/z	intensity
41	595
42	999
43	166
44	134
55	221
69	145
84	273
98	164
102	116
109	197
111	129
112	547
113	63
116	135
118	47
130	169
132	51
136	31
138	81
140	46
142	20
144	42
152	81
154	50
168	38
169	27
172	381
174	145
178	135
180	88
192	17
206	97
207	184
208	78
209	111
210	21
211	20
