Mass Spectrum: Benzene, (1-methyl-1-propylpentyl)-
Formula: C15H24
CAS: 54932-91-1
Molecular weight: 204
m/z	intensity
14	3
15	3
16	7
26	4
27	53
29	55
32	14
39	35
40	6
41	111
42	28
43	54
44	49
50	4
51	18
52	16
53	15
54	3
55	59
56	22
57	30
63	65
65	20
67	20
69	35
70	8
71	9
74	4
75	4
76	4
77	49
78	23
79	36
81	4
83	15
84	6
85	5
89	6
90	3
91	723
92	58
93	5
97	9
98	3
101	2
102	7
103	36
104	15
105	999
106	102
107	6
115	33
116	14
117	41
118	34
119	203
120	27
128	10
129	9
131	17
132	8
133	83
134	11
145	5
146	6
147	198
148	24
149	2
161	185
162	24
163	2
175	51
176	8
189	3
204	31
205	6
206	1
