Mass Spectrum: 1,2-Cyclohexanedicarboxylic acid, bis(oxiranylmethyl) ester
Formula: C14H20O6
CAS: 5493-45-8
Molecular weight: 284
m/z	intensity
14	1
15	10
19	1
26	9
27	109
28	5
29	298
30	11
31	174
32	2
37	1
38	3
39	66
40	11
41	106
42	20
43	58
44	15
45	19
46	1
47	3
50	3
51	10
52	10
53	74
54	93
55	92
56	20
57	685
58	32
59	5
60	1
61	1
63	1
65	15
66	65
67	156
68	44
69	17
70	5
71	9
72	2
73	16
74	6
75	12
76	1
77	39
78	23
79	224
80	695
81	999
82	134
83	21
84	5
85	7
86	4
87	10
88	1
91	5
92	3
93	11
94	24
95	17
96	5
97	34
98	6
99	15
100	6
101	3
103	3
104	1
105	5
106	8
107	31
108	266
109	307
110	33
111	10
112	7
113	5
114	1
115	2
116	92
117	12
118	7
119	3
120	1
121	2
122	2
123	8
124	46
125	134
126	33
127	21
128	1
129	281
130	26
131	7
132	1
133	1
134	1
135	3
136	28
137	6
138	3
139	1
140	4
141	4
142	13
143	17
144	1
149	1
151	2
152	3
153	22
154	26
155	110
156	31
157	3
164	1
165	1
166	4
167	12
168	16
169	15
170	2
171	1
173	6
174	1
179	5
180	3
181	12
182	435
183	311
184	39
185	5
187	1
194	2
195	2
197	1
199	1
208	1
209	4
210	51
211	342
212	42
213	5
214	1
216	2
217	1
225	1
227	14
228	2
229	40
230	10
231	1
239	1
242	1
243	3
255	17
256	4
282	2
283	11
284	27
285	8
286	1
