Mass Spectrum: Decane, 1-(nonylthio)-
Formula: C19H40S
CAS: 54934-54-2
Molecular weight: 300
m/z	intensity
30	12
31	7
32	4
33	1
34	4
35	7
36	1
37	2
38	4
39	107
40	21
41	790
42	159
43	999
44	32
45	43
46	23
47	80
48	8
49	7
50	2
51	3
52	2
53	35
54	51
55	693
56	319
57	447
58	19
59	15
60	70
61	281
62	14
63	12
64	0
65	5
66	4
67	73
68	88
69	477
70	267
71	172
72	9
73	15
74	9
75	29
76	5
77	5
78	1
79	7
80	1
81	31
82	74
83	353
84	150
85	89
86	6
87	81
88	17
89	53
90	4
91	4
92	0
93	1
94	0
95	12
96	41
97	180
98	86
99	12
100	0
101	22
102	4
103	14
104	1
105	1
107	0
109	2
110	8
111	42
112	32
113	3
114	0
115	14
116	1
117	6
118	0
119	0
123	0
124	1
125	3
126	72
127	8
128	0
129	21
130	2
131	5
132	0
138	0
139	0
140	58
141	7
142	0
143	2
144	0
145	6
146	0
154	0
157	2
158	17
159	333
160	44
161	20
162	2
171	2
172	15
173	346
174	46
175	20
176	3
187	27
188	4
189	1
199	0
201	14
202	2
203	0
213	0
215	10
216	1
217	0
229	11
230	1
231	0
243	2
244	0
257	1
258	0
271	3
272	0
285	3
286	1
298	0
299	9
300	52
301	14
302	4
303	0
