Mass Spectrum: 3-(2-Benzoxyethyl)-1-methyluracil
Formula: C14H14N2O4
CAS: 54932-20-6
Molecular weight: 274
m/z	intensity
77	390
82	360
83	150
84	160
105	999
106	230
126	80
127	80
139	70
151	200
152	640
153	180
169	210
231	780
232	100
274	80
