Mass Spectrum: 2(1H)-Pyrimidinone, 5-(acetyloxy)tetrahydro-4-hydroxy-1,3-dimethyl-
Formula: C8H14N2O4
CAS: 54932-86-4
Molecular weight: 202
m/z	intensity
28	100
29	140
30	250
31	180
39	150
40	720
41	999
42	900
43	100
55	100
56	250
57	200
58	250
59	400
60	999
68	150
71	110
72	80
73	100
84	150
85	70
86	220
87	50
99	70
100	150
101	160
113	130
114	130
117	210
125	999
126	210
141	670
142	650
143	200
184	30
185	80
186	10
202	50
203	14
