Mass Spectrum: Nordavanone
Formula: C11H18O2
CAS: 54933-91-4
Molecular weight: 182
m/z	intensity
15	1
26	6
27	80
28	21
29	89
30	3
31	8
38	6
39	148
40	27
41	336
42	48
43	999
44	23
45	13
50	10
51	28
52	14
53	110
54	49
55	674
56	43
57	302
58	36
59	4
61	2
62	2
63	4
65	38
66	16
67	546
68	237
69	300
70	33
71	218
72	249
73	17
74	3
77	70
78	10
79	78
80	20
81	185
82	352
83	126
84	23
85	103
86	59
87	5
91	86
92	8
93	396
94	34
95	57
96	11
97	53
98	9
99	30
100	2
101	7
103	8
105	8
106	2
107	41
108	8
109	19
110	277
111	349
112	34
113	77
114	58
115	6
120	3
121	125
122	18
123	3
124	4
125	365
126	34
127	4
137	3
139	7
140	8
149	7
155	12
156	1
164	14
165	1
167	137
168	15
169	2
182	2
