Mass Spectrum: Cyclopropanecarboxylic acid,butyl ester
Formula: C8H14O2
CAS: 54947-39-6
Molecular weight: 142
m/z	intensity
36	25
37	40
38	65
39	460
40	105
41	680
42	167
43	118
44	70
45	108
50	6
51	7
53	6
55	100
56	288
57	78
58	83
60	5
68	60
69	999
70	60
71	22
73	33
85	112
86	60
87	539
88	27
99	30
100	3
