Mass Spectrum: 1,3-Dioxolane, 4-methyl-2-pentadecyl-
Formula: C19H38O2
CAS: 54950-56-0
Molecular weight: 298
m/z	intensity
26	2
27	10
28	51
29	26
30	2
31	31
32	5
39	6
40	3
41	91
42	15
43	72
44	6
45	4
46	1
47	1
50	1
51	1
52	1
53	3
54	5
55	40
56	12
57	39
58	10
59	122
60	4
61	1
65	1
66	2
67	10
68	8
69	20
70	6
71	17
72	2
73	2
74	1
75	1
77	2
79	2
80	1
81	8
82	10
83	13
84	3
85	7
86	1
87	999
88	44
89	6
90	1
91	1
92	1
93	2
94	1
95	8
96	5
97	8
98	2
99	2
100	2
101	1
102	3
103	1
107	1
108	1
109	4
110	2
111	3
112	1
113	5
114	1
115	3
116	1
117	1
118	1
119	1
121	1
122	1
123	2
124	1
125	2
126	1
127	1
128	1
129	1
135	1
137	1
138	1
139	1
140	1
141	2
142	1
149	1
151	1
152	1
153	1
154	1
155	1
156	1
165	1
166	1
167	1
168	1
169	1
170	1
191	1
193	1
194	1
195	1
196	1
197	1
200	1
201	1
202	1
203	1
217	1
219	4
220	1
221	1
222	3
223	2
224	1
225	1
226	1
239	1
240	1
241	1
253	1
254	1
255	1
283	1
284	1
285	1
297	10
298	3
299	1
300	1
