Mass Spectrum: Phenol, 2-[2-(2-imino-3(2H)-thiazolidinyl)ethyl]-
Formula: C11H14N2OS
CAS: 54965-63-8
Molecular weight: 222
m/z	intensity
42	33
43	33
44	33
51	67
56	213
57	33
60	150
61	84
77	140
78	43
79	104
88	760
89	43
90	43
91	65
103	220
104	87
105	51
107	57
115	456
116	999
117	90
118	87
131	56
132	60
162	11
222	23
