Mass Spectrum: 2-Piperidinecarboxylic acid, 1-formyl-
Formula: C7H11NO3
CAS: 54966-20-0
Molecular weight: 157
m/z	intensity
41	100
42	80
44	90
54	70
55	160
56	230
82	60
84	240
111	30
112	999
113	110
157	130
158	10
