Mass Spectrum: Ephedrine, 2TMS derivative
Formula: C16H31NOSi2
CAS: 54965-14-9
Molecular weight: 309
m/z	intensity
46	8
47	11
48	0
49	0
50	0
51	3
52	1
53	1
54	1
55	5
56	32
57	9
58	22
59	53
60	5
61	6
62	0
63	1
64	0
65	3
66	0
67	0
68	0
69	0
70	5
71	4
73	599
74	52
75	34
76	2
77	10
78	3
79	4
80	0
81	0
82	0
83	0
84	1
85	1
86	7
87	2
88	2
89	5
90	3
91	15
92	1
93	1
94	0
95	0
96	0
97	0
98	0
100	10
101	2
102	2
103	5
104	3
105	14
106	1
107	2
108	0
109	0
111	0
112	0
114	12
115	10
116	5
117	11
118	2
119	4
120	1
121	3
122	0
123	0
124	1
125	0
126	0
130	999
131	128
132	41
133	13
134	2
135	5
136	0
137	0
140	0
142	0
143	1
144	1
145	3
147	46
148	10
149	32
150	4
151	1
158	0
160	9
161	2
163	21
164	7
165	2
166	0
172	0
173	0
174	2
175	1
176	1
177	1
179	9
180	1
181	0
188	2
189	1
190	1
191	1
192	0
193	1
194	0
202	0
203	0
204	2
205	2
206	1
207	0
218	0
220	4
221	0
222	0
294	14
295	3
296	1
308	0
