Mass Spectrum: Ethanediamide, N,N'-dimethyl-N,N'-bis(1-methylethyl)-
Formula: C10H20N2O2
CAS: 54965-80-9
Molecular weight: 200
m/z	intensity
27	80
28	80
29	20
30	40
31	10
32	10
39	30
40	10
41	140
42	100
43	999
44	30
59	40
60	20
63	10
70	20
71	20
72	680
73	90
74	10
84	20
85	100
86	40
87	10
100	710
101	80
102	10
142	30
143	10
149	10
157	200
158	30
169	10
170	10
171	10
185	20
186	10
