Mass Spectrum: Formamide, N-butyl-N-(1-methylethyl)-
Formula: C8H17NO
CAS: 54965-79-6
Molecular weight: 143
m/z	intensity
39	130
40	20
41	320
42	130
43	260
44	360
45	10
46	40
53	20
54	30
55	60
56	110
57	80
58	999
59	70
70	30
71	20
72	280
73	30
84	20
86	100
87	20
88	20
100	460
101	80
114	30
128	380
129	40
142	60
143	100
