Mass Spectrum: 2H-Pyran-2-one, 5-bromotetrahydro-6-phenyl-
Formula: C11H11BrO2
CAS: 54966-45-9
Molecular weight: 254
m/z	intensity
41	550
42	800
43	70
44	120
45	40
49	20
50	270
51	650
52	130
53	70
55	200
56	20
57	20
58	10
59	10
61	20
62	70
63	200
64	110
65	130
68	40
69	500
70	60
73	30
74	90
75	80
76	90
77	680
78	190
79	90
80	30
81	20
82	20
85	230
86	20
87	20
89	110
90	90
91	380
92	50
100	20
101	110
102	170
103	330
104	999
105	200
106	190
107	30
114	320
115	120
116	270
117	80
118	20
119	140
120	20
121	90
126	80
127	190
128	300
129	270
130	130
131	20
132	40
144	40
145	60
146	10
147	580
148	20
149	510
150	30
168	10
170	10
173	210
174	230
175	120
176	10
181	50
183	50
254	90
256	100
