Mass Spectrum: 2-Butynoic acid, 4-cyclobutyl-4-oxo-, ethyl ester
Formula: C10H12O3
CAS: 54966-51-7
Molecular weight: 180
m/z	intensity
41	20
43	10
44	30
45	10
50	10
51	10
52	20
53	190
54	30
55	999
56	40
66	10
67	10
72	10
73	20
77	30
78	10
79	100
80	40
81	10
82	40
83	100
95	10
96	10
98	10
106	20
107	40
108	30
123	10
125	20
135	50
136	10
151	10
179	10
