Mass Spectrum: Pentanamide, N-methyl-N-(1-methylethyl)-
Formula: C9H19NO
CAS: 54965-74-1
Molecular weight: 157
m/z	intensity
27	60
28	30
29	80
30	30
39	20
41	90
42	40
43	130
44	20
55	20
56	40
57	120
58	999
59	30
71	10
72	40
73	80
85	20
86	50
100	140
115	140
116	10
128	110
129	10
142	20
157	90
158	10
