Mass Spectrum: Butanamide, N-methyl-N-(1-methylethyl)-
Formula: C8H17NO
CAS: 54966-01-7
Molecular weight: 143
m/z	intensity
29	20
30	40
39	30
40	20
41	100
42	70
43	290
44	50
55	10
56	40
57	20
58	999
59	40
71	70
72	40
73	60
86	30
100	40
115	10
128	70
143	160
144	10
