Mass Spectrum: 2-Butynoic acid, 4-cyclopropyl-4-oxo-, ethyl ester
Formula: C9H10O3
CAS: 54966-48-2
Molecular weight: 166
m/z	intensity
37	30
38	40
39	410
40	280
41	380
42	30
43	30
44	380
45	60
46	10
50	10
51	10
52	40
53	999
54	40
55	80
63	10
64	20
65	140
66	130
67	10
68	30
69	650
70	30
77	10
79	10
80	20
81	60
82	50
84	10
91	10
92	30
93	190
94	430
95	30
97	20
110	30
111	20
112	10
121	320
122	30
125	310
126	10
137	10
138	10
165	20
166	30
