Mass Spectrum: 1(2H)-Pyridinecarboxylic acid, 3,4-dihydro-5-(2-piperidinyl)-, phenylmethyl ester
Formula: C18H24N2O2
CAS: 54966-07-3
Molecular weight: 300
m/z	intensity
41	142
42	51
52	155
55	142
65	155
79	207
84	168
91	999
92	207
110	233
123	272
136	116
137	129
148	51
149	64
165	532
181	259
209	571
213	116
227	142
255	64
271	51
299	181
300	909
301	220
