Mass Spectrum: 2-Pentynoic acid, 4-oxo-, ethyl ester
Formula: C7H8O3
CAS: 54966-49-3
Molecular weight: 140
m/z	intensity
29	240
32	10
37	10
38	20
39	30
42	30
43	460
44	40
45	50
52	60
53	999
54	40
66	20
67	90
68	20
69	20
80	40
81	30
95	340
96	80
97	30
98	10
111	20
125	360
126	20
