Mass Spectrum: Azetidine, 1-methyl-2,3-diphenyl-
Formula: C16H17N
CAS: 54965-67-2
Molecular weight: 223
m/z	intensity
14	40
29	70
30	30
38	10
39	80
40	10
41	50
42	360
43	20
44	80
50	30
51	120
52	30
53	10
61	10
62	50
63	10
64	40
74	10
75	10
76	50
77	200
78	190
79	30
89	40
90	10
91	120
92	20
101	10
102	40
103	100
104	880
105	100
106	10
115	20
116	10
117	20
118	999
119	280
120	50
144	30
145	10
146	50
151	10
152	20
153	10
165	70
166	10
176	10
177	10
178	80
179	120
180	80
181	20
208	10
222	70
223	170
224	40
