Mass Spectrum: 1,2-Ethanediamine, N,N'-dimethyl-N,N'-bis(1-methylethyl)-
Formula: C10H24N2
CAS: 54966-00-6
Molecular weight: 172
m/z	intensity
27	90
28	50
29	10
30	40
39	30
40	10
41	110
42	190
43	160
44	650
45	160
54	10
55	10
56	110
57	30
58	110
68	10
69	10
70	30
71	110
72	20
82	10
84	40
85	10
86	999
87	999
88	240
89	10
98	10
99	10
100	80
101	10
113	20
172	40
173	10
