Mass Spectrum: 1H,5H-Pyrrolo[1',2':3,4]imidazo[1,5-a]pyridine, octahydro-
Formula: C10H18N2
CAS: 54966-11-9
Molecular weight: 166
m/z	intensity
41	210
42	190
44	120
54	90
55	360
68	80
69	170
70	80
82	90
83	999
84	120
96	130
97	830
98	70
165	270
166	270
167	30
