Mass Spectrum: Aspidofractinin-6-ol, 1-acetyl-17-methoxy-, acetate (ester), (6.beta.)-
Formula: C24H30N2O4
CAS: 54965-84-3
Molecular weight: 410
m/z	intensity
39	60
40	70
41	100
42	120
43	999
44	110
45	80
50	10
51	20
52	10
53	30
54	20
55	20
56	40
57	40
58	10
60	40
63	10
65	20
66	10
67	30
68	10
70	10
76	10
77	60
78	20
79	70
80	40
81	10
82	10
83	10
89	10
91	40
92	10
93	20
94	20
95	20
96	10
102	10
103	20
104	20
105	10
106	40
107	110
108	50
109	20
110	20
120	10
121	30
122	40
123	10
124	20
125	10
127	10
128	30
129	10
130	30
131	20
132	20
133	10
134	30
135	20
136	10
137	20
139	20
140	40
141	10
142	20
143	20
144	30
145	10
146	20
147	10
151	10
152	20
153	20
154	170
155	20
156	20
157	10
158	30
159	10
160	50
161	10
165	80
166	40
167	480
168	70
169	20
170	20
171	20
172	30
173	60
174	70
175	10
178	10
179	190
180	50
181	20
182	410
183	70
184	50
185	30
186	100
187	110
188	280
189	50
191	10
192	10
193	10
194	20
195	30
196	20
197	30
198	50
199	30
200	20
201	60
202	20
204	10
206	10
207	40
208	20
209	20
210	50
211	30
212	40
213	20
214	10
215	10
220	10
221	10
222	20
223	30
224	40
225	50
226	40
227	20
228	10
230	10
234	10
235	10
236	30
237	20
238	50
239	30
240	10
248	10
249	30
250	30
251	50
252	30
253	20
262	10
263	20
264	20
265	20
266	20
267	10
268	30
275	10
276	10
277	30
278	20
279	80
280	60
281	40
282	10
291	10
293	20
294	10
295	10
305	30
306	20
307	210
308	80
309	70
310	10
321	20
322	80
323	50
324	10
325	20
338	10
339	60
340	30
348	40
349	60
350	320
351	180
352	60
353	30
365	10
367	250
368	90
369	10
381	10
382	70
395	10
408	50
409	100
410	999
411	240
412	40
