Mass Spectrum: 3-Cyclohexeneethanol, .beta.,4-dimethyl-, 4-methylbenzenesulfonate
Formula: C17H24O3S
CAS: 54965-15-0
Molecular weight: 308
m/z	intensity
41	90
55	50
65	60
67	60
68	70
77	40
79	140
81	80
91	240
92	100
93	320
94	999
95	160
107	190
108	70
121	210
136	500
137	70
149	40
155	70
173	40
266	10
308	20
