Mass Spectrum: 2-Butynoic acid, 4-cyclohexyl-4-oxo-, ethyl ester
Formula: C12H16O3
CAS: 54966-50-6
Molecular weight: 208
m/z	intensity
41	580
42	30
43	60
44	130
45	30
50	10
51	20
52	30
53	280
54	70
55	999
56	50
65	20
66	30
67	120
68	20
69	10
70	30
77	50
78	20
79	110
80	30
81	110
82	50
83	530
84	40
91	40
92	20
93	20
94	10
95	10
97	20
98	270
99	30
105	40
106	30
107	60
108	50
109	10
111	60
112	60
113	10
119	10
120	10
123	10
125	20
126	560
127	20
133	20
134	60
135	40
136	40
151	10
152	10
162	30
163	50
164	30
179	10
