Mass Spectrum: 1-Octanone, 1-(2-octylcyclopropyl)-
Formula: C19H36O
CAS: 54965-36-5
Molecular weight: 280
m/z	intensity
27	50
28	200
29	450
31	55
39	225
41	724
42	110
43	512
53	62
54	100
55	999
56	87
57	774
58	200
59	67
65	40
66	40
67	312
68	87
69	330
70	300
71	320
72	42
78	25
79	37
80	27
81	150
82	225
83	325
84	150
85	100
86	25
91	242
92	47
93	50
94	27
95	117
96	135
97	375
98	60
99	35
100	27
105	45
106	47
107	42
108	12
109	112
110	85
111	95
112	22
121	25
125	75
127	375
128	50
135	45
136	62
137	27
138	125
139	50
150	30
153	27
155	57
163	25
167	32
178	45
181	135
192	15
195	20
196	50
197	25
209	100
210	25
237	20
251	10
280	15
281	15
