Mass Spectrum: Butanoic acid, 4-(2-methoxy-1-methyl-2-oxoethoxy)-, methyl ester
Formula: C9H16O5
CAS: 54966-46-0
Molecular weight: 204
m/z	intensity
41	180
42	90
43	230
44	20
45	110
54	20
55	140
56	20
57	60
58	10
59	990
60	30
67	40
68	30
69	100
71	30
74	20
81	70
83	10
85	60
87	230
88	120
89	10
96	50
101	999
102	70
117	30
145	30
173	30
