Mass Spectrum: 3,3-Bis(carbamino)diaziridine
Formula: C3H6N4O2
CAS: 54972-18-8
Molecular weight: 130
m/z	intensity
15	23
16	96
17	182
18	463
19	9
26	25
27	115
28	411
29	102
30	39
31	22
40	42
41	127
42	561
43	759
44	999
45	169
46	34
53	25
54	68
55	23
57	41
67	24
68	140
69	5
71	77
72	64
73	7
84	64
85	803
86	166
87	31
88	5
102	31
103	4
