Mass Spectrum: 3,3-Bis(carbmethoxy)diaziridine
Formula: C5H8N2O4
CAS: 54972-13-3
Molecular weight: 160
m/z	intensity
15	731
16	56
26	31
27	147
28	168
29	219
30	143
31	144
32	28
33	175
34	6
40	45
41	103
42	39
43	123
44	53
45	105
46	5
59	703
60	39
68	55
69	999
70	524
71	167
72	47
73	24
85	103
86	44
87	25
99	25
100	135
101	302
102	27
103	4
115	25
129	117
130	9
