Mass Spectrum: Benzophenone, 5-chloro-2-[N-[N-acetylamino]acetylamino]-
Formula: C17H15ClN2O3
CAS: 5497-11-0
Molecular weight: 330
m/z	intensity
41	43
42	77
43	999
44	57
45	120
46	5
47	34
48	15
49	170
50	46
51	228
52	33
53	21
54	14
55	38
56	24
57	39
58	29
59	4
60	8
61	16
62	27
63	81
64	20
65	12
66	3
67	7
68	5
69	21
70	11
71	25
72	264
73	390
74	24
75	29
76	27
77	485
78	45
79	6
80	1
81	8
82	6
83	11
84	63
85	9
86	52
87	11
88	23
89	22
90	36
91	17
92	2
93	1
95	5
96	2
97	15
98	21
99	51
100	52
101	10
102	6
103	7
104	6
105	314
106	27
107	3
109	2
110	4
111	8
112	4
113	11
114	7
115	13
116	3
117	8
118	1
119	1
123	3
124	117
125	25
126	94
127	13
128	9
129	3
135	1
136	1
137	2
138	6
139	30
140	18
141	6
145	2
149	9
150	12
151	20
152	22
153	13
154	58
155	6
156	15
159	7
163	1
164	7
165	5
166	52
167	47
168	12
169	1
177	6
178	6
179	5
180	173
181	14
182	39
183	6
185	2
186	1
194	5
195	39
196	17
197	4
200	1
201	21
202	12
203	11
204	5
205	2
206	1
211	1
213	4
214	27
215	5
216	9
221	3
222	1
223	1
224	1
225	2
227	1
228	2
229	17
230	547
231	739
232	383
233	281
234	59
235	6
241	2
242	6
243	1
244	2
257	5
258	77
259	17
260	29
261	5
269	8
270	13
271	5
272	3
299	1
312	1
313	1
330	48
331	11
332	18
333	2
