Mass Spectrum: 3,3-Diaziridinedicarboxylic acid, 1-methyl-, dimethyl ester
Formula: C6H10N2O4
CAS: 54972-15-5
Molecular weight: 174
m/z	intensity
41	123
42	451
43	483
44	151
45	203
46	11
53	43
54	77
55	999
56	186
57	103
58	186
59	769
60	103
61	33
69	397
70	59
71	39
72	6
86	51
87	503
88	37
89	6
99	137
100	59
101	85
102	9
114	23
115	47
116	9
127	423
128	33
129	9
142	24
143	39
144	8
158	109
159	509
160	39
161	7
174	9
175	1
