Mass Spectrum: 5H-Tetrazole-5-thione, 1,4-dihydro-1,4-dimethyl-
Formula: C3H6N4S
CAS: 54986-14-0
Molecular weight: 130
m/z	intensity
36	9
38	6
39	11
40	35
41	31
42	157
43	73
44	61
45	76
46	131
47	23
48	8
53	14
55	6
57	5
58	18
59	11
60	37
61	175
62	5
63	7
65	7
69	221
70	30
71	6
72	124
73	327
74	210
75	21
76	27
87	8
130	999
131	55
132	45
