Mass Spectrum: 2,2'-Dipyridinedisulfide,3,3',4,4',5,5',6,6'-octachloro-
Formula: C10Cl8N2S2
CAS: 54982-17-1
Molecular weight: 492
m/z	intensity
33	16
35	198
36	451
37	60
38	183
39	13
40	58
41	24
42	10
43	32
44	117
45	45
47	310
48	43
49	86
50	12
51	3
53	4
54	4
55	19
56	35
57	37
58	23
59	27
60	24
62	284
63	35
64	120
65	10
66	12
67	24
68	85
69	31
70	216
71	279
72	33
73	119
74	136
75	40
76	31
77	15
79	999
80	113
81	363
82	90
83	145
84	37
85	99
86	14
87	23
88	12
89	8
91	161
92	24
93	66
94	267
95	74
96	114
97	237
98	34
99	76
100	10
103	367
104	24
105	174
106	622
107	89
108	192
109	308
110	78
111	119
112	31
113	12
115	553
116	48
117	281
118	334
119	69
120	217
122	56
123	7
124	8
126	33
127	15
128	21
129	24
130	27
132	487
134	313
135	17
136	43
138	6
141	804
142	76
143	489
144	150
145	126
146	81
147	21
148	15
150	223
151	29
152	156
153	235
154	48
155	211
156	13
157	67
159	7
164	26
165	16
166	17
167	21
168	11
169	11
170	7
171	12
173	12
176	306
177	45
178	211
179	263
180	68
181	229
182	23
183	76
185	185
187	178
188	59
189	58
190	62
191	11
192	30
194	6
199	13
202	520
204	664
205	63
206	280
207	28
208	97
209	22
211	903
212	267
213	823
214	569
215	331
216	521
217	81
218	222
219	19
220	53
221	4
222	13
224	6
230	4
243	80
245	102
246	175
247	157
248	243
249	234
250	129
251	194
252	39
253	100
254	9
255	28
257	3
265	14
267	24
269	13
271	3
278	96
279	14
280	115
281	13
282	61
283	7
284	16
358	8
360	17
362	11
363	3
364	4
387	11
389	19
390	5
391	13
392	6
393	21
394	7
395	35
396	7
397	31
398	5
399	16
401	4
422	64
423	14
424	110
425	38
426	95
427	51
428	47
429	45
430	18
431	19
432	6
433	5
453	3
454	8
457	180
459	365
460	61
461	303
462	206
464	23
465	56
466	7
467	11
492	27
493	8
494	64
495	82
497	11
498	47
499	6
500	18
502	3
