Mass Spectrum: Benzene, (9,9-dimethyldecyl)-
Formula: C18H30
CAS: 54986-45-7
Molecular weight: 246
m/z	intensity
14	8
15	9
16	1
26	4
27	28
29	21
31	6
32	26
39	26
40	7
41	157
42	19
43	129
44	55
45	9
50	2
51	8
52	3
53	9
54	5
55	58
56	103
57	999
58	44
61	3
63	4
65	31
67	7
69	24
70	9
71	32
77	18
78	18
79	17
80	3
81	3
83	10
85	19
89	5
90	4
91	494
92	385
93	30
97	5
99	3
103	10
104	42
105	79
106	11
115	6
117	17
119	38
120	7
127	3
131	4
133	50
134	12
147	26
148	6
161	17
162	3
175	9
176	1
189	3
190	133
191	21
192	2
231	18
232	3
246	162
247	32
248	3
