Mass Spectrum: 1-Heptanamine, N-heptyl-N-nitroso-
Formula: C14H30N2O
CAS: 54986-34-4
Molecular weight: 242
m/z	intensity
30	170
31	22
39	49
41	295
42	181
43	700
44	310
45	41
53	14
54	18
55	260
56	160
57	999
58	80
59	13
67	13
68	16
69	70
70	120
71	52
73	10
74	50
81	9
82	10
83	16
84	120
85	75
86	10
87	10
97	16
98	60
99	14
112	36
114	13
126	110
127	38
128	100
129	13
140	11
141	280
142	52
143	21
145	46
154	19
155	14
157	47
158	35
168	38
178	7
197	4
212	50
213	12
225	230
226	40
242	11
