Mass Spectrum: 10-Undecenoic acid, 2-(acetyloxy)-, methyl ester
Formula: C14H24O4
CAS: 54986-41-3
Molecular weight: 256
m/z	intensity
15	319
26	29
27	238
29	367
30	5
31	24
33	29
38	10
39	290
40	29
41	921
42	192
43	999
44	183
45	79
48	5
50	10
51	24
52	14
53	168
54	375
55	413
56	77
57	168
58	38
59	233
60	14
61	34
65	38
66	58
67	531
68	446
69	304
70	67
71	174
72	77
73	24
74	72
75	44
77	29
78	38
79	200
80	212
81	648
82	268
83	149
84	106
85	135
86	58
87	380
88	72
89	14
90	258
91	43
92	19
93	212
94	375
95	690
96	163
97	231
98	120
99	61
100	100
101	72
102	48
103	35
104	10
105	56
106	29
107	163
108	168
109	165
110	231
111	155
112	62
113	173
114	95
115	38
117	14
118	14
119	24
120	144
121	418
122	305
123	154
124	38
125	67
126	45
127	98
128	38
129	38
130	10
131	19
132	46
133	43
134	24
135	339
136	957
137	370
138	72
139	67
140	115
141	67
142	24
143	7
145	13
146	34
147	6
148	5
149	48
151	9
152	13
153	179
154	79
155	192
156	34
157	13
159	8
160	8
161	284
162	39
163	30
164	475
165	80
166	16
167	38
168	26
169	8
171	10
172	5
173	10
178	6
179	34
180	10
181	38
182	19
184	12
185	5
187	2
192	6
193	3
194	5
195	43
196	199
197	409
198	63
199	12
205	10
206	5
208	5
210	2
213	22
214	98
215	19
216	9
221	19
223	7
224	3
225	68
226	14
227	8
250	8
256	10
