Mass Spectrum: 2(1H)-Naphthalenone, 1-[(3,5-dimethyl-4-isoxazolyl)methyl]-3,4-dihydro-
Formula: C16H17NO2
CAS: 54986-56-0
Molecular weight: 255
m/z	intensity
42	120
43	580
44	40
68	640
69	50
90	250
91	20
110	999
111	120
112	10
115	180
116	20
118	140
119	10
138	120
139	10
143	120
144	10
145	240
146	460
147	50
158	90
171	70
212	290
213	30
214	120
215	20
238	40
255	450
256	80
