Mass Spectrum: Cyclohexane, 1,2,3,4-tetramethoxy-, (1.alpha.,2.beta.,3.alpha.,4.beta.)-
Formula: C10H20O4
CAS: 54984-41-7
Molecular weight: 204
m/z	intensity
39	100
41	300
42	100
43	270
45	510
46	20
47	60
51	10
52	10
53	40
55	120
56	60
57	70
58	300
59	130
60	20
65	20
67	40
68	30
69	90
70	20
71	330
72	60
73	100
74	10
75	780
76	40
77	20
78	10
79	30
81	20
82	20
83	60
84	100
85	90
86	10
87	10
88	420
89	30
91	20
93	10
94	20
95	20
96	20
97	70
99	60
100	20
101	999
102	60
103	40
108	20
109	70
110	20
111	20
113	10
114	570
115	90
116	20
125	20
127	100
128	20
131	60
133	30
140	30
141	20
172	120
173	30
204	30
