Mass Spectrum: 2,5a-Methano-5aH-pyrido[1,2-b][1,2]oxazepine, octahydro-, (2.alpha.,5a.alpha.)-(.+-.)-
Formula: C10H17NO
CAS: 54980-46-0
Molecular weight: 167
m/z	intensity
26	12
27	157
28	127
29	120
30	37
31	42
37	4
38	14
39	279
40	75
41	501
42	208
43	200
44	48
45	28
46	19
50	11
51	27
52	27
53	176
54	300
55	535
56	160
57	64
58	15
59	520
60	21
61	6
62	5
63	11
64	4
65	55
66	50
67	388
68	390
69	255
70	76
71	134
72	42
73	11
74	14
75	4
76	5
77	67
78	29
79	196
80	246
81	465
82	999
83	674
84	103
85	69
86	15
87	5
91	71
92	16
93	54
94	95
95	516
96	744
97	247
98	197
99	216
100	71
101	6
103	6
104	4
105	27
106	22
107	36
108	127
109	91
110	76
111	32
112	39
113	17
114	4
115	5
116	4
117	5
118	6
119	6
120	25
121	18
122	191
123	52
124	178
125	32
126	42
127	7
128	5
129	4
130	5
131	3
132	4
133	8
134	14
135	10
136	29
137	19
138	152
139	200
140	25
141	6
144	4
148	15
149	11
150	281
151	40
152	35
153	12
154	3
155	3
165	4
166	48
167	374
168	58
169	7
