Mass Spectrum: Octanoic acid, 2,4,6-trimethyl-, methyl ester
Formula: C12H24O2
CAS: 54984-07-5
Molecular weight: 200
m/z	intensity
15	16
16	61
17	3
18	10
26	5
27	50
28	30
29	117
30	4
31	5
32	3
33	2
37	2
38	3
39	58
40	13
41	224
42	61
43	135
44	8
45	13
50	2
51	5
52	3
53	30
54	8
55	212
56	55
57	314
58	15
59	124
60	2
61	2
65	5
66	3
67	23
68	8
69	278
70	45
71	127
72	9
73	78
74	83
75	6
77	5
78	2
79	8
81	18
82	9
83	127
84	14
85	41
86	2
87	208
88	999
89	53
90	7
91	2
93	3
94	2
95	18
97	73
98	12
99	17
101	727
102	63
103	8
107	4
108	2
109	7
110	15
111	95
112	18
113	94
114	9
115	28
116	4
121	5
125	30
126	22
127	4
129	150
130	13
131	4
135	5
136	4
137	20
138	2
139	50
140	10
141	13
143	23
144	4
145	5
151	26
152	3
153	25
154	3
155	12
157	66
158	8
167	6
169	75
170	9
171	32
172	3
185	9
186	2
200	46
201	10
202	2
