Mass Spectrum: Benzene, (1-propyl-1-nonenyl)-
Formula: C18H28
CAS: 54986-39-9
Molecular weight: 244
m/z	intensity
25	2
26	10
27	157
28	80
29	222
30	5
38	4
39	85
40	14
41	231
42	26
43	167
44	20
45	2
50	9
51	41
52	12
53	45
54	8
55	115
56	14
57	73
58	7
62	3
63	17
64	6
65	41
66	8
67	41
68	8
69	35
70	8
71	31
72	3
74	3
75	6
76	10
77	105
78	35
79	25
80	4
81	25
82	6
83	13
84	4
85	5
87	3
89	14
90	6
91	900
92	79
93	7
94	3
95	11
96	7
97	26
98	4
99	5
100	7
101	15
102	55
103	156
104	78
105	217
106	21
107	4
109	16
110	3
111	4
113	9
114	12
115	265
116	108
117	791
118	999
119	152
120	50
121	7
123	10
125	4
126	8
127	68
128	163
129	258
130	92
131	807
132	108
133	71
134	18
135	3
139	7
140	4
141	63
142	32
143	84
144	35
145	90
146	314
147	46
148	22
149	3
151	3
152	7
153	8
154	5
155	13
156	6
157	41
158	17
159	145
160	25
161	4
162	5
165	5
166	4
167	5
168	4
169	7
170	4
171	15
172	5
173	8
174	3
181	3
183	3
185	5
189	3
197	13
198	24
199	31
201	144
202	53
203	19
204	11
213	2
214	2
215	3
218	5
227	2
229	2
230	2
238	2
240	4
241	2
242	17
243	9
244	235
245	47
246	13
247	2
