Mass Spectrum: Benzenamine, 4-butyl-3-(phenylmethoxy)-
Formula: C17H21NO
CAS: 54986-53-7
Molecular weight: 255
m/z	intensity
41	50
42	15
43	11
44	13
50	9
51	28
52	17
53	17
54	13
55	22
63	19
65	139
66	28
67	13
68	9
77	39
78	17
79	13
80	17
89	20
90	15
91	999
92	167
93	43
94	24
106	38
122	139
123	15
134	13
135	13
136	9
148	35
164	69
184	13
198	19
199	24
212	593
213	93
226	9
254	61
255	407
256	93
