Mass Spectrum: 2-Methyl -3H,4H-pyrrolo[1,2-a]pyrazin-1-one
Formula: C8H10N2O
CAS: 54993-52-1
Molecular weight: 150
m/z	intensity
34	2
37	130
38	289
39	587
40	134
41	261
42	693
43	168
44	51
45	12
49	23
50	147
51	258
52	646
53	267
54	117
55	105
56	113
57	92
58	39
59	9
61	99
62	14
63	54
64	139
65	197
66	182
67	93
68	32
69	43
70	19
71	22
72	8
73	7
74	2
75	10
76	18
77	38
78	126
79	999
80	179
81	68
82	12
83	15
84	4
85	8
86	3
89	2
91	19
92	33
93	116
94	274
95	46
96	6
97	4
103	5
104	7
105	17
106	156
107	850
108	125
109	8
117	3
118	2
119	12
120	15
121	29
122	54
123	9
124	3
133	5
135	14
136	5
149	17
150	356
151	33
152	5
