Mass Spectrum: Mandelic acid, 4-hydroxy-3-methoxy-
Formula: C9H10O5
CAS: 55-10-7
Molecular weight: 198
m/z	intensity
31	13
33	1
36	1
37	16
38	46
39	191
40	22
41	28
42	16
43	21
44	26
45	302
46	28
47	2
48	1
49	11
50	91
51	157
52	123
53	237
54	83
55	90
56	7
57	2
58	1
59	3
60	2
61	17
62	42
63	101
64	46
65	807
66	93
67	34
68	9
69	16
70	1
71	2
73	3
74	15
75	13
76	12
77	71
78	15
79	57
80	35
81	195
82	142
83	12
84	1
85	1
86	1
89	1
90	3
91	8
92	32
93	999
94	81
95	33
96	5
97	10
98	1
103	1
104	2
105	8
106	4
107	15
108	26
109	47
110	116
111	10
112	1
118	1
119	2
120	3
121	22
122	14
123	44
124	7
125	313
126	24
127	2
133	2
134	1
135	5
136	14
137	19
138	22
139	4
149	6
151	64
152	34
153	585
154	51
155	5
156	1
162	1
179	1
180	1
181	11
182	4
196	1
198	214
199	20
200	2
