Mass Spectrum: Tyrosine, 3-hydroxy-.alpha.-methyl-
Formula: C10H13NO4
CAS: 55-40-3
Molecular weight: 211
m/z	intensity
14	1
15	26
16	2
17	3
18	2
26	2
27	18
28	22
29	7
30	5
31	1
37	1
38	7
39	38
40	11
41	17
42	440
43	52
44	20
45	4
46	3
47	1
50	10
51	85
52	16
53	11
54	4
55	18
56	28
57	37
58	9
59	5
60	15
61	1
62	4
63	12
64	6
65	21
66	14
67	10
68	3
69	2
70	10
71	18
72	1
73	1
74	3
75	8
76	6
77	103
78	36
79	9
80	5
81	6
82	2
83	21
84	1
87	1
88	999
89	69
90	8
91	9
92	3
93	6
94	13
95	8
96	2
97	1
101	1
102	6
103	28
104	7
105	22
106	13
107	9
108	4
109	4
110	7
111	1
117	2
118	4
119	3
120	4
121	9
122	10
123	419
124	205
125	17
126	2
130	1
131	20
132	5
133	3
134	3
135	2
136	4
137	2
138	1
139	2
146	4
147	3
148	7
149	7
150	8
151	10
152	2
162	3
163	2
164	3
165	16
166	92
167	9
168	1
176	1
194	1
195	1
211	9
212	8
213	1
