Mass Spectrum: Nitroglycerin
Formula: C3H5N3O9
CAS: 55-63-0
Molecular weight: 227
m/z	intensity
30	165
31	35
32	5
40	1
41	4
42	15
43	37
44	43
46	999
47	9
48	13
55	5
56	17
57	5
58	59
59	10
60	17
61	18
62	3
64	27
65	1
66	3
67	2
69	3
70	2
71	6
72	5
73	16
76	550
77	16
78	6
79	2
81	4
82	3
83	2
85	2
86	3
87	10
88	4
89	20
90	2
91	3
95	1
96	6
97	2
100	1
101	10
102	3
103	16
104	4
105	5
106	14
107	2
109	2
111	1
115	2
116	3
117	31
118	4
119	9
120	3
126	2
130	2
131	4
132	4
133	11
134	2
135	5
147	5
149	2
151	15
163	3
165	2
191	2
193	4
