Mass Spectrum: Guanidine, 2-benzyl-1,3-dimethyl-
Formula: C10H15N3
CAS: 55-73-2
Molecular weight: 177
m/z	intensity
47	15
49	7
50	68
51	151
52	42
53	29
55	161
57	940
58	30
59	9
61	7
62	18
63	69
64	28
65	252
66	22
67	12
69	51
71	999
72	274
73	24
74	13
75	16
76	19
77	134
78	30
79	92
80	11
81	6
86	8
88	29
89	60
91	834
92	79
93	7
98	25
99	20
100	69
103	14
104	80
106	819
107	118
108	9
113	5
116	16
117	17
118	69
119	17
120	36
131	98
132	20
133	13
145	58
146	39
147	139
148	22
174	10
176	110
177	665
178	77
179	7
