Mass Spectrum: Benzeneethanamine, 4-methoxy-
Formula: C9H13NO
CAS: 55-81-2
Molecular weight: 151
m/z	intensity
12	19
13	20
14	110
15	315
16	58
26	40
27	81
29	127
30	999
31	45
37	16
38	41
39	189
40	20
41	59
42	53
43	21
44	10
49	5
50	139
51	211
52	181
53	78
54	21
55	9
56	5
61	16
62	56
63	142
64	50
65	79
66	18
67	12
73	7
74	30
75	20
76	21
77	155
78	420
79	71
80	30
81	5
85	5
86	5
87	10
89	79
90	30
91	79
92	25
104	10
105	10
106	38
107	26
108	5
119	3
120	7
121	201
122	127
123	10
134	3
135	20
151	9
152	5
