Mass Spectrum: Isoflurophate
Formula: C6H14FO3P
CAS: 55-91-4
Molecular weight: 184
m/z	intensity
39	30
41	60
42	30
43	50
69	20
101	999
127	830
141	2
169	5
