Mass Spectrum: S,S'-Ethylene bis(methanethiosulfonate)
Formula: C4H10O4S4
CAS: 55-95-8
Molecular weight: 250
m/z	intensity
14	1
15	55
26	7
27	22
28	25
29	5
31	6
32	6
33	4
34	6
35	5
41	6
43	3
44	16
45	101
46	61
47	43
48	20
49	5
50	1
55	1
57	6
58	54
59	89
60	56
61	41
62	8
63	104
64	158
65	69
66	13
67	3
71	1
73	1
75	7
76	9
77	22
78	6
79	186
80	33
81	88
82	3
83	4
85	1
89	3
90	9
91	82
92	999
93	49
94	92
95	11
96	9
97	2
98	1
105	2
106	3
107	24
108	19
109	12
110	2
111	2
112	1
118	1
122	1
123	2
124	53
125	72
126	9
127	7
128	4
135	1
136	1
138	2
139	37
140	2
141	4
143	2
145	1
149	3
150	1
151	1
156	9
158	2
160	3
170	2
171	768
172	44
173	105
174	5
175	6
183	1
184	9
185	1
186	1
192	3
203	2
216	6
218	1
250	1
