Mass Spectrum: 11-Hexadecynoic acid, methyl ester
Formula: C17H30O2
CAS: 55000-41-4
Molecular weight: 266
m/z	intensity
14	6
15	49
27	49
29	60
36	2
39	71
41	306
42	16
43	197
44	8
45	25
47	2
50	9
51	16
52	36
53	76
54	388
55	480
56	16
57	38
59	131
60	11
61	4
63	8
65	44
66	14
67	628
68	227
69	197
70	11
71	31
73	38
74	115
75	22
77	68
78	11
79	170
80	55
81	925
82	295
83	104
84	25
85	31
87	100
88	2
91	87
92	11
93	99
94	62
95	375
96	999
97	153
98	16
100	3
101	27
102	6
105	31
106	6
107	25
108	44
109	126
110	356
111	44
113	8
115	44
116	3
117	4
119	16
120	8
121	82
122	31
123	66
124	38
125	27
126	3
128	3
129	22
130	8
131	14
133	8
135	68
136	12
137	69
138	31
139	85
140	8
141	3
143	14
145	16
147	22
148	6
149	66
150	52
151	16
152	6
153	11
155	7
157	21
158	4
159	11
161	3
163	42
164	47
165	18
166	6
167	3
169	14
171	33
172	8
173	16
175	3
177	19
178	16
179	16
181	7
183	4
187	4
189	6
191	13
192	29
193	7
195	13
196	7
201	3
205	7
207	16
208	3
209	8
210	6
211	2
212	9
217	14
218	3
221	7
223	7
224	24
225	3
227	2
233	3
234	14
235	82
236	16
237	6
238	8
251	3
254	8
266	22
