Mass Spectrum: Benzoic acid, 2,4-dimethyl-, (2,4-dimethylphenyl)methyl ester
Formula: C18H20O2
CAS: 55000-43-6
Molecular weight: 268
m/z	intensity
69	1
70	1
71	1
72	1
73	1
74	5
75	8
76	8
77	130
78	49
79	67
80	5
81	1
82	1
83	1
84	1
85	1
86	1
87	2
88	1
89	12
90	6
91	102
92	12
93	9
94	1
95	1
96	1
97	1
98	1
99	1
100	1
101	3
102	12
103	66
104	51
105	89
106	12
107	6
108	1
109	1
110	1
111	1
112	1
113	1
114	1
115	21
116	10
117	50
118	599
119	999
120	99
121	6
122	1
125	1
127	1
128	1
129	1
130	1
131	1
132	13
133	250
134	30
135	15
136	2
137	1
139	1
140	1
141	1
142	1
147	1
148	1
149	7
150	4
151	1
152	2
153	2
154	7
155	1
156	2
157	1
161	1
162	2
163	1
164	1
165	1
166	1
167	2
168	1
169	1
170	1
177	1
178	3
179	1
180	1
181	1
191	1
192	1
193	1
194	2
195	1
267	1
268	6
269	1
270	1
