Mass Spectrum: Benzoic acid, 2,4-dimethyl-, (2,5-dimethylphenyl)methyl ester
Formula: C18H20O2
CAS: 55000-44-7
Molecular weight: 268
m/z	intensity
69	1
70	1
71	1
72	1
73	1
74	4
75	7
76	8
77	135
78	50
79	69
80	5
81	1
82	1
83	1
84	1
85	1
86	1
87	2
88	1
89	12
90	6
91	109
92	13
93	9
94	1
95	1
96	1
97	1
98	1
99	1
101	3
102	12
103	67
104	54
105	95
106	13
107	8
108	1
109	1
110	1
111	1
112	1
113	1
114	1
115	22
116	11
117	60
118	999
119	723
120	68
121	4
122	1
128	1
129	1
130	1
131	1
132	9
133	335
134	39
135	8
136	1
137	1
139	1
141	1
142	1
147	1
148	1
149	8
150	2
151	1
152	1
153	1
154	1
155	1
156	1
157	1
161	1
162	1
163	1
165	1
166	1
167	2
168	1
169	1
178	1
179	2
180	1
181	1
191	1
192	1
193	1
194	2
195	1
206	1
207	1
208	1
209	6
210	1
221	1
222	1
223	2
224	1
235	1
236	1
237	1
250	1
251	1
252	2
253	1
267	1
268	3
269	1
