Mass Spectrum: Benzoic acid, 2,5-dimethyl-, (2,5-dimethylphenyl)methyl ester
Formula: C18H20O2
CAS: 55000-49-2
Molecular weight: 268
m/z	intensity
69	1
70	1
71	1
73	1
74	5
75	8
76	8
77	153
78	57
79	74
80	5
81	1
83	1
84	1
85	1
86	1
87	1
88	2
89	13
90	7
91	123
92	14
93	11
94	1
95	1
96	1
97	1
98	1
99	1
100	1
101	3
102	3
103	74
104	64
105	112
106	14
107	8
108	1
109	1
110	1
111	1
112	1
113	1
114	1
115	24
116	12
117	65
118	999
119	890
120	86
121	5
122	1
127	1
128	1
129	1
130	1
131	1
132	11
133	285
134	34
135	7
136	1
137	1
139	1
141	1
142	1
143	1
144	1
148	2
149	1
150	9
151	5
152	1
153	1
154	1
155	1
156	1
157	1
161	1
162	2
163	1
164	1
165	1
166	1
167	1
168	1
169	1
178	2
179	2
180	1
181	1
189	1
190	1
191	1
192	1
193	1
194	2
195	1
205	1
206	1
207	1
208	1
209	5
210	1
221	1
222	1
223	3
224	1
225	1
235	2
236	1
237	1
249	1
250	2
251	1
253	2
254	1
268	7
269	1
270	1
