Mass Spectrum: Benzoic acid, 3,5-dimethyl-, (2,4-dimethylphenyl)methyl ester
Formula: C18H20O2
CAS: 55000-46-9
Molecular weight: 268
m/z	intensity
69	1
70	2
71	3
72	1
73	1
74	3
75	6
76	6
77	103
78	39
79	59
80	4
81	1
82	1
83	1
84	1
85	1
86	1
87	2
88	1
89	10
90	6
91	99
92	12
93	6
94	1
95	1
96	1
97	1
98	1
99	1
100	1
101	2
102	11
103	67
104	48
105	102
106	14
107	11
108	1
109	1
110	1
111	1
112	1
113	1
114	1
115	23
116	14
117	76
118	999
119	742
120	71
121	4
122	1
126	1
127	1
128	1
129	1
130	1
131	1
132	4
133	300
134	42
135	22
136	2
137	1
139	1
141	1
142	1
143	1
147	2
148	1
149	9
150	4
151	1
152	3
153	1
154	1
155	1
156	1
161	1
162	2
163	2
164	1
165	1
166	1
167	2
168	1
169	1
178	1
179	2
180	1
181	1
191	1
192	1
193	2
194	3
195	1
205	1
206	1
207	1
208	2
209	16
210	3
211	1
221	1
222	1
223	10
224	2
225	1
234	1
235	4
236	1
237	1
238	1
239	1
249	1
250	5
251	1
252	1
253	3
254	1
266	1
267	1
268	4
269	1
