Mass Spectrum: 1,1'-Bicyclohexyl, 2-(2-methylpropyl)-, trans-
Formula: C16H30
CAS: 55012-77-6
Molecular weight: 222
m/z	intensity
36	1
37	2
38	4
39	152
40	29
41	706
42	51
43	285
44	10
45	1
46	1
47	1
48	1
49	1
50	3
51	13
52	11
53	96
54	124
55	625
56	71
57	290
58	14
59	1
60	1
61	1
62	1
63	3
64	2
65	26
66	23
67	342
68	80
69	311
70	30
71	53
72	4
73	1
74	1
75	1
76	1
77	37
78	11
79	68
80	43
81	242
82	307
83	999
84	71
85	6
86	1
87	1
88	1
89	1
90	1
91	21
92	4
93	20
94	16
95	140
96	155
97	288
98	24
99	1
100	1
101	1
102	1
103	1
104	1
105	4
106	2
107	7
108	10
109	109
110	20
111	13
112	2
113	1
114	1
115	1
116	1
117	1
118	1
119	1
120	1
121	4
122	11
123	36
124	8
125	8
126	1
127	1
128	1
129	1
130	1
131	1
132	1
133	1
134	1
135	2
136	1
137	5
138	379
139	342
140	36
141	2
142	1
143	1
144	1
145	1
146	1
147	1
148	1
149	1
150	1
151	3
152	5
153	4
154	1
155	1
156	1
157	1
158	1
159	1
160	1
161	1
162	1
163	1
164	6
165	48
166	8
167	1
168	1
169	1
170	1
171	1
172	1
173	1
174	1
175	1
176	1
177	1
178	1
179	1
180	1
181	1
182	1
183	1
184	1
185	1
186	1
187	1
188	1
189	1
190	1
191	1
192	1
193	1
194	2
195	1
196	1
207	1
208	1
209	1
220	1
221	1
222	19
223	4
224	1
225	1
