Mass Spectrum: 1,1'-Bicyclohexyl, 2-(2-methylpropyl)-, cis-
Formula: C16H30
CAS: 55012-76-5
Molecular weight: 222
m/z	intensity
36	1
37	2
38	4
39	150
40	28
41	692
42	49
43	272
44	9
45	1
46	1
47	1
48	1
49	1
50	3
51	12
52	11
53	95
54	126
55	615
56	62
57	300
58	14
59	1
60	1
61	1
62	1
63	3
64	2
65	25
66	23
67	333
68	79
69	300
70	27
71	55
72	4
73	1
74	1
75	1
76	1
77	36
78	11
79	65
80	44
81	236
82	385
83	999
84	71
85	5
86	1
87	1
88	1
89	1
90	1
91	20
92	4
93	18
94	15
95	140
96	132
97	285
98	23
99	1
100	1
101	1
102	1
103	1
104	1
105	4
106	1
107	6
108	7
109	85
110	16
111	12
112	2
113	1
114	1
115	1
116	1
117	1
118	1
119	1
120	1
121	3
122	7
123	34
124	6
125	7
126	1
127	1
128	1
129	1
130	1
131	1
132	1
133	1
134	1
135	2
136	1
137	4
138	304
139	284
140	30
141	2
142	1
143	1
144	1
145	1
146	1
147	1
148	1
149	1
150	1
151	3
152	10
153	8
154	1
155	1
156	1
163	1
164	9
165	65
166	11
167	1
168	1
176	1
177	1
178	1
179	1
180	1
181	1
193	1
194	1
195	1
196	1
220	1
221	1
222	45
223	8
224	1
