Mass Spectrum: Cholest-8-en-3-ol, 14-methyl-, acetate, (3.beta.,5.alpha.)-
Formula: C30H50O2
CAS: 5502-23-8
Molecular weight: 442
m/z	intensity
41	400
42	50
43	999
44	80
45	70
53	40
55	400
56	40
57	320
60	20
67	160
68	10
69	300
70	10
71	140
77	60
78	10
79	160
80	20
81	280
82	60
83	200
84	10
85	30
91	170
92	30
93	180
94	50
95	280
96	30
97	110
105	200
106	40
107	220
108	40
109	120
110	10
111	60
117	40
118	10
119	140
120	30
121	100
122	10
123	40
128	10
129	20
131	70
132	20
133	100
134	20
135	60
136	10
137	20
143	40
144	10
145	110
146	10
147	80
148	20
149	40
157	30
158	10
159	80
160	20
161	100
162	10
163	10
165	10
171	20
172	10
173	30
174	10
175	30
179	10
183	10
185	40
186	10
187	60
188	10
189	10
199	50
200	10
201	100
202	20
207	10
213	50
215	40
220	20
227	100
228	10
229	40
241	20
242	40
243	10
244	10
253	10
255	30
259	40
260	10
261	60
262	10
269	30
273	70
274	20
275	30
287	40
289	20
301	20
302	20
304	10
367	290
368	90
369	20
382	30
383	10
428	110
429	20
440	10
442	60
443	10
