Mass Spectrum: Spirostan-3-one, cyclic 1,2-ethanediyl acetal, (5.alpha.,25R)-
Formula: C29H46O4
CAS: 55028-79-0
Molecular weight: 458
m/z	intensity
41	70
42	40
43	70
45	10
53	20
55	170
56	20
57	30
67	60
68	10
69	200
70	20
71	10
73	10
77	10
79	60
80	10
81	70
82	10
83	20
86	50
87	20
91	40
92	10
93	60
94	10
95	50
96	10
97	30
99	999
100	110
101	20
105	50
106	10
107	50
108	10
109	30
110	10
111	10
112	60
113	10
115	50
117	10
119	30
120	10
121	40
122	30
123	20
124	10
125	400
126	60
127	10
131	10
133	20
135	10
138	10
139	950
140	130
141	10
143	10
145	20
147	20
157	10
159	10
161	30
167	10
168	30
201	10
213	10
215	30
253	10
256	10
267	10
271	10
275	10
276	20
282	20
283	10
287	10
289	10
315	180
316	50
317	10
327	10
329	70
330	20
344	360
345	120
346	20
359	10
386	100
387	30
388	30
389	70
390	30
399	40
400	20
401	10
428	30
443	30
458	120
459	40
