Mass Spectrum: Spirostan-12-one, cyclic 1,2-ethanediyl acetal, (5.alpha.,25R)-
Formula: C29H46O4
CAS: 55028-80-3
Molecular weight: 458
m/z	intensity
41	150
42	40
43	110
45	40
53	20
54	10
55	240
56	20
57	40
65	10
67	160
68	20
69	130
70	10
71	20
73	220
74	10
77	20
79	80
80	20
81	140
82	10
83	30
85	20
86	150
87	120
91	60
92	10
93	110
94	20
95	90
96	10
97	60
99	999
100	80
101	10
105	70
106	50
107	80
108	30
109	100
111	10
112	10
113	90
115	20
117	10
119	50
120	20
121	40
122	40
123	30
124	10
125	40
126	240
127	40
128	10
129	10
131	10
132	30
133	40
134	50
135	40
136	10
137	10
138	10
139	210
140	30
141	20
143	20
144	10
145	30
146	10
147	50
148	40
149	50
150	20
151	20
152	10
153	20
157	30
158	20
159	40
160	20
161	30
162	10
163	10
164	10
165	20
166	10
167	30
168	30
169	10
171	30
172	40
173	60
174	30
175	20
177	10
179	30
180	10
181	30
182	10
185	10
186	10
187	10
189	10
191	10
193	30
194	10
195	10
199	10
205	10
207	10
213	10
215	10
219	10
221	300
222	50
223	20
227	10
228	10
229	10
233	20
234	20
235	50
236	20
241	20
243	10
252	10
253	20
254	10
255	20
256	20
257	10
261	10
262	10
263	10
267	40
268	10
269	10
270	20
271	30
274	10
275	20
276	10
277	50
278	10
281	40
282	240
283	100
284	30
285	10
293	170
294	30
308	80
309	30
314	40
315	110
316	30
317	10
326	10
327	20
329	20
331	20
332	90
333	30
335	10
343	50
344	250
345	70
346	10
347	30
349	60
350	20
355	20
370	60
371	30
386	100
387	40
388	50
389	80
390	30
395	20
396	190
397	70
398	20
399	40
400	20
413	20
415	20
428	10
430	10
443	20
458	720
459	230
460	40
