Mass Spectrum: Spirostan, 3,3-dimethoxy-, (5.alpha.,20.beta.,25R)-
Formula: C29H48O4
CAS: 55028-82-5
Molecular weight: 460
m/z	intensity
41	200
42	30
43	210
45	60
53	50
54	40
55	300
56	20
57	60
58	20
59	20
65	20
66	10
67	160
68	20
69	280
70	20
71	40
72	10
73	10
77	60
78	10
79	140
80	20
81	200
82	30
83	40
84	60
85	150
86	10
88	40
89	10
91	140
92	20
93	120
94	20
95	300
96	50
97	80
98	10
99	20
101	999
102	70
103	10
105	150
106	50
107	130
108	90
109	330
110	50
111	60
112	10
113	10
114	10
115	40
116	10
117	30
118	10
119	70
120	30
121	130
122	60
123	160
124	40
125	50
127	250
128	30
129	20
130	20
131	40
132	10
133	50
134	20
135	120
136	50
137	80
138	20
139	460
140	50
141	10
142	10
143	70
144	10
145	50
146	10
147	60
148	10
149	40
150	30
151	40
152	20
153	10
157	20
158	10
159	40
160	10
161	60
162	30
163	100
164	20
165	10
167	10
168	40
169	20
170	10
171	10
173	20
174	10
175	20
176	10
177	50
178	20
179	10
180	10
181	730
182	230
183	40
184	10
185	10
187	10
188	10
189	10
199	10
200	10
201	30
202	10
203	10
213	10
214	10
215	60
216	10
217	10
227	10
229	10
230	50
231	10
243	10
245	20
246	30
247	70
248	20
253	20
259	20
260	20
271	20
272	20
283	10
284	10
285	100
286	30
287	10
299	20
300	10
314	120
315	50
316	10
317	30
318	10
327	20
344	50
345	30
346	40
355	80
356	90
357	20
358	80
359	90
360	30
369	30
370	20
387	20
388	230
389	70
390	40
391	30
392	20
398	30
399	20
401	30
402	20
413	60
414	30
426	20
427	20
428	610
429	360
430	170
431	50
445	30
460	470
461	160
462	40
