Mass Spectrum: 1-Pentanamine, 5-(methylseleno)-
Formula: C6H15NSe
CAS: 55021-82-4
Molecular weight: 181
m/z	intensity
30	999
39	45
41	200
42	40
43	40
44	40
53	20
55	70
56	130
57	40
58	80
59	15
67	80
68	50
69	150
84	20
86	750
94	60
95	50
106	40
108	85
121	15
150	65
165	15
180	40
