Mass Spectrum: 2-(1-Benzyl-1,4-dihydropyridin-4-yliden)-1,3-dioxoindan
Formula: C21H15NO2
CAS: 55022-35-0
Molecular weight: 313
m/z	intensity
12	0
14	0
15	1
16	1
17	7
18	20
26	1
27	3
28	5
29	1
31	0
32	0
37	0
38	3
39	32
40	2
41	12
42	1
43	3
44	9
45	1
49	0
50	13
51	17
52	3
53	1
54	0
55	1
56	0
57	1
58	0
60	1
61	1
62	6
63	24
64	6
65	117
66	7
67	0
68	0
69	1
71	0
73	0
74	5
75	8
76	19
77	8
78	3
79	0
80	0
81	0
82	0
83	1
84	0
85	0
86	2
87	5
88	4
89	20
91	999
92	81
93	3
94	0
95	0
96	0
97	0
98	1
99	2
100	1
101	2
102	1
103	0
104	4
105	2
106	0
107	0
109	0
110	0
111	1
112	2
113	9
114	3
115	2
116	1
117	0
118	0
119	0
120	0
122	0
123	0
124	0
125	2
126	2
127	3
128	1
129	0
130	0
133	0
134	0
135	0
137	4
138	7
139	34
140	11
141	1
142	0
145	0
149	0
150	2
151	2
152	2
153	1
154	0
155	0
157	0
163	0
164	3
165	3
166	20
167	5
168	1
171	0
175	0
176	0
177	0
178	1
179	0
180	0
181	0
183	0
184	0
185	0
186	0
189	0
191	0
193	0
194	2
195	1
196	0
200	0
201	0
202	0
203	0
206	0
207	1
208	0
209	0
213	0
214	0
215	0
221	0
222	10
223	4
224	0
225	0
226	1
227	0
228	0
229	0
234	0
235	0
236	0
237	0
238	0
239	0
240	0
241	0
242	0
243	0
244	0
251	0
252	0
253	1
254	2
255	0
256	0
257	0
264	0
265	0
266	0
267	0
268	0
269	0
270	0
271	0
281	0
282	0
283	0
284	0
285	0
294	0
295	0
296	0
297	0
309	0
310	0
311	1
313	196
314	46
315	6
316	0
