Mass Spectrum: 1-Propanamine, N,N-dimethyl-3-(methylseleno)-
Formula: C6H15NSe
CAS: 55021-84-6
Molecular weight: 181
m/z	intensity
30	40
39	30
41	60
42	140
43	20
44	40
56	10
57	20
58	999
70	30
71	10
72	10
84	60
92	30
94	40
108	30
120	10
122	10
136	10
166	40
181	100
