Mass Spectrum: 1-Butanamine, 4-(methylseleno)-
Formula: C5H13NSe
CAS: 55021-81-3
Molecular weight: 167
m/z	intensity
30	999
39	40
40	40
41	70
42	60
43	80
44	60
45	150
53	10
54	10
55	60
56	100
57	50
58	30
59	20
70	20
71	30
72	340
73	20
74	50
79	10
94	20
95	30
108	20
134	30
151	20
166	100
