Mass Spectrum: Ethanamine, N,N-dimethyl-2-(methylseleno)-
Formula: C5H13NSe
CAS: 55021-83-5
Molecular weight: 167
m/z	intensity
30	30
41	30
42	100
43	20
44	50
58	999
70	20
71	30
72	50
92	10
94	30
108	10
123	20
167	240
