Mass Spectrum: 4,5,6-Trimethoxy-2-(methoxymethyl)oxan-3-ol, TMS derivative
Formula: C13H28O6Si
CAS: 55028-67-6
Molecular weight: 308
m/z	intensity
15	10
27	10
29	30
31	10
41	40
43	20
44	10
45	240
47	10
55	20
57	10
59	70
71	210
72	30
73	230
74	30
75	150
85	20
88	999
89	180
90	20
99	10
101	360
102	50
103	20
111	10
115	10
116	20
121	10
127	40
131	60
133	680
134	70
135	30
145	10
146	30
147	20
149	20
159	30
172	2
173	5
174	35
175	29
176	4
177	1
185	3
187	6
188	2
189	3
197	2
201	4
202	2
203	3
205	1
207	6
208	1
219	2
229	8
230	2
231	2
261	5
262	2
293	1
