Mass Spectrum: 1-Butanamine, 4-(methylthio)-
Formula: C5H13NS
CAS: 55021-77-7
Molecular weight: 119
m/z	intensity
30	999
39	50
40	10
41	100
42	60
43	210
44	50
45	130
46	20
47	50
48	60
49	40
55	60
56	50
57	30
58	10
59	20
61	210
70	50
71	20
72	250
73	40
74	60
75	40
87	190
102	80
104	130
119	450
