Mass Spectrum: 5-(1-Methylethyl)-8-hydroxynonan-2-one
Formula: C12H24O2
CAS: 55023-54-6
Molecular weight: 200
m/z	intensity
38	3
39	31
40	19
41	152
42	21
43	999
44	31
45	137
46	3
51	3
53	19
54	15
55	212
56	43
57	95
58	163
59	40
60	8
61	6
65	3
67	43
68	29
69	385
70	58
71	360
72	54
73	10
77	3
79	10
80	7
81	209
82	70
83	172
84	62
85	59
86	5
87	3
91	3
93	17
94	5
95	53
97	60
98	65
100	32
101	6
103	4
107	32
108	23
109	101
110	14
112	31
113	11
115	2
121	21
122	33
123	23
124	64
125	85
126	18
127	5
135	2
137	3
138	7
139	61
140	7
141	5
142	12
143	168
144	18
149	13
153	7
156	18
157	15
164	12
165	2
167	7
182	3
