Mass Spectrum: 1,2-Benzenediol, 3-fluoro-, diacetate
Formula: C10H9FO4
CAS: 55030-67-6
Molecular weight: 212
m/z	intensity
28	40
39	20
42	30
43	999
44	40
50	20
51	50
52	30
70	40
77	20
80	30
81	20
82	20
99	20
105	40
110	310
111	30
127	50
129	110
152	80
170	410
171	40
182	20
194	20
212	140
213	20
