Mass Spectrum: 1H-Pyrazole-1-carboxamide, 4-ethyl-4,5-dihydro-N-phenyl-5-propyl-
Formula: C15H21N3O
CAS: 55030-12-1
Molecular weight: 259
m/z	intensity
41	30
42	20
43	20
51	20
55	30
56	20
64	30
69	130
77	40
81	30
82	20
91	20
92	20
93	30
97	999
98	70
111	40
119	80
125	50
140	250
162	10
167	10
190	10
216	10
242	10
259	370
260	50
