Mass Spectrum: Cyclohexaneacetic acid, .alpha.-methyl-.alpha.-propyl-, methyl ester
Formula: C13H24O2
CAS: 55030-27-8
Molecular weight: 212
m/z	intensity
31	18
32	4
33	7
36	0
37	2
38	6
39	167
40	31
41	491
42	47
43	160
44	7
45	23
46	0
49	0
50	4
51	16
52	11
53	85
54	41
55	395
56	28
57	29
58	2
59	96
60	3
61	1
62	0
63	3
64	1
65	18
66	11
67	112
68	28
69	167
70	15
71	46
72	3
73	37
74	3
75	1
76	0
77	23
78	7
79	38
80	10
81	94
82	22
83	189
84	13
85	13
86	1
87	17
88	7
89	1
90	0
91	11
92	2
93	7
94	3
95	36
96	8
97	134
98	46
99	7
100	6
101	999
102	56
103	6
104	0
105	2
106	0
107	3
108	1
109	41
110	14
111	33
112	3
113	5
114	3
115	3
116	0
117	0
119	0
120	0
121	1
122	1
123	9
124	2
125	2
126	1
127	10
128	4
129	12
130	937
131	76
132	6
133	0
134	0
135	0
136	0
137	3
138	2
139	0
140	0
141	1
142	5
143	1
144	0
147	0
148	0
149	0
150	0
151	3
152	7
153	101
154	11
155	1
156	0
162	0
165	0
167	0
168	0
169	14
170	36
171	3
172	0
179	0
180	0
181	1
183	2
184	0
197	1
198	0
211	0
212	1
213	0
