Mass Spectrum: 9-Dodecenoic acid, methyl ester, (E)-
Formula: C13H24O2
CAS: 55030-26-7
Molecular weight: 212
m/z	intensity
41	999
42	184
43	476
44	107
45	86
53	122
54	142
55	862
56	150
57	163
59	261
67	258
68	194
69	500
70	101
71	129
74	589
75	96
81	189
82	143
83	285
84	229
85	101
87	108
95	136
96	262
97	237
98	168
110	108
111	94
138	123
163	61
180	103
212	73
