Mass Spectrum: 1H-Benzimidazol-4-ol, 5-chloro-1-(phenylmethyl)-
Formula: C14H11ClN2O
CAS: 55030-35-8
Molecular weight: 258
m/z	intensity
65	120
66	10
75	60
91	999
92	120
110	50
180	100
181	80
182	80
258	370
259	60
260	120
261	20
