Mass Spectrum: 2-Butenoic acid, 2-propenylidene ester
Formula: C11H14O4
CAS: 55030-70-1
Molecular weight: 210
m/z	intensity
15	8
25	5
26	32
27	69
28	50
29	29
37	14
38	23
39	164
40	40
41	232
42	23
43	10
44	8
45	37
53	8
55	49
56	45
57	8
68	65
69	999
70	47
71	16
75	4
85	6
86	104
87	8
125	5
126	36
138	6
141	19
210	1
211	1
