Mass Spectrum: Pyrimidine-1-acetic acid, 1,2,3,4-tetrahydro-2,4-dioxo-5-methyl-, ethyl ester
Formula: C9H12N2O4
CAS: 55036-34-5
Molecular weight: 212
m/z	intensity
34	8
35	4
36	9
37	7
38	27
39	212
40	89
41	388
42	132
43	45
44	42
45	22
46	4
47	10
49	3
50	0
51	1
52	22
53	16
54	27
55	149
56	30
57	17
58	8
59	17
60	4
61	2
62	3
63	69
64	6
65	8
66	30
67	42
68	62
69	46
70	29
71	4
72	15
73	0
75	3
76	2
78	34
79	0
81	10
82	8
83	9
84	14
85	17
86	18
88	10
94	5
96	999
97	79
98	14
104	3
110	9
111	9
112	11
113	34
126	26
127	9
139	384
140	89
141	17
156	36
166	54
167	55
212	330
213	42
