Mass Spectrum: 10-Undecenoic acid, 2-hydroxy-, methyl ester
Formula: C12H22O3
CAS: 55030-55-2
Molecular weight: 214
m/z	intensity
15	99
16	5
26	10
27	31
28	198
29	344
30	21
31	36
32	52
33	156
38	10
39	229
40	65
41	880
42	125
43	391
44	130
45	99
46	8
47	5
48	5
50	8
51	21
52	21
53	125
54	177
55	875
56	104
57	406
58	49
59	146
60	21
61	36
62	7
63	8
64	3
65	31
66	26
67	609
68	248
69	677
70	109
71	177
72	33
73	63
74	52
75	21
76	21
77	26
78	4
79	115
80	83
81	844
82	161
83	208
84	109
85	125
86	36
87	146
88	31
89	47
90	604
91	52
92	16
93	83
94	135
95	999
96	115
97	104
98	125
99	73
100	47
101	36
102	42
103	156
104	21
105	16
106	5
107	78
108	52
109	104
110	135
111	115
112	68
113	135
114	42
115	26
116	21
117	7
119	10
120	10
121	68
122	68
123	31
124	10
125	42
126	42
127	78
128	36
129	26
130	10
131	10
132	10
133	10
134	3
135	63
136	156
137	333
138	52
139	26
140	42
141	21
142	8
143	26
144	8
145	10
146	9
149	8
150	8
151	10
152	5
153	52
154	47
155	427
156	63
157	16
158	21
159	5
160	3
161	7
163	6
164	47
165	16
167	10
168	5
169	16
170	5
171	16
172	6
173	3
181	6
182	63
183	10
185	5
186	26
187	5
196	31
197	10
198	3
199	5
214	52
215	10
