Mass Spectrum: Iodoacetic Acid, TMS derivative
Formula: C5H11IO2Si
CAS: 55030-41-6
Molecular weight: 258
m/z	intensity
42	55
43	91
44	28
45	182
46	13
47	65
55	11
57	10
58	30
59	47
60	16
61	54
72	40
73	533
74	73
75	999
76	75
77	42
88	13
101	21
116	232
117	90
118	16
127	25
141	35
169	19
171	10
199	36
201	10
243	767
244	74
245	32
258	60
