Mass Spectrum: 4H-Pyran-4-one, 3,5-diacetyltetrahydro-2,6-dimethyl-
Formula: C11H16O4
CAS: 55030-66-5
Molecular weight: 212
m/z	intensity
27	50
28	60
29	145
39	125
41	180
42	60
43	999
44	140
69	315
84	75
85	230
111	85
125	50
135	30
153	30
169	35
212	30
213	0
