Mass Spectrum: 1H-Benzimidazol-4-ol, 1-(phenylmethyl)-
Formula: C14H12N2O
CAS: 55030-15-4
Molecular weight: 224
m/z	intensity
51	50
65	100
66	10
76	50
77	50
91	999
92	120
120	50
146	100
147	80
224	440
225	70
