Mass Spectrum: 1-Propanone, 3-[[(methylthio)methyl]sulfonyl]-1-phenyl-
Formula: C11H14O3S2
CAS: 55030-38-1
Molecular weight: 258
m/z	intensity
45	35
50	27
51	101
55	30
61	999
62	31
63	49
77	229
78	27
79	20
105	180
106	14
133	10
134	10
147	200
148	21
151	143
194	172
