Mass Spectrum: Carbonic acid, ethyl 3-(1-methylethoxy)phenyl ester
Formula: C12H16O4
CAS: 55030-17-6
Molecular weight: 224
m/z	intensity
109	95
110	999
137	25
138	60
152	35
182	35
183	10
224	75
225	18
