Mass Spectrum: Cyclohexanol, 2,4-bis(1,1-dimethylethyl)-
Formula: C14H28O
CAS: 55030-25-6
Molecular weight: 212
m/z	intensity
17	2
18	7
27	19
28	20
29	77
30	2
31	5
32	4
39	21
40	4
41	159
42	11
43	74
44	6
45	3
51	3
52	2
53	17
54	11
55	96
56	102
57	999
58	43
59	12
65	6
66	9
67	105
68	15
69	102
70	48
71	48
72	4
73	3
75	5
77	10
78	17
79	25
80	213
81	199
82	196
83	146
84	27
85	28
86	2
87	2
91	9
92	2
93	10
94	11
95	113
96	38
97	44
98	13
99	29
100	10
101	3
105	3
107	6
108	2
109	57
110	21
111	15
112	3
113	4
121	8
122	5
123	119
124	15
125	6
126	2
135	3
136	33
137	127
138	152
139	100
140	12
141	4
151	4
152	2
153	3
154	12
155	42
156	8
157	2
165	2
177	1
179	19
180	3
191	2
194	8
195	3
197	6
205	6
206	1
209	2
210	2
212	1
