Mass Spectrum: 8-Heptadecene, 8-methyl-, (E)-
Formula: C18H36
CAS: 55044-98-9
Molecular weight: 252
m/z	intensity
40	28
41	609
42	100
43	539
44	20
45	1
48	1
49	1
50	4
51	7
52	6
53	90
54	55
55	929
56	999
57	749
58	36
59	1
60	1
61	1
62	1
63	2
64	1
65	15
66	17
67	170
68	200
69	819
70	270
71	210
72	13
73	1
74	1
75	1
77	18
78	5
79	38
80	11
81	135
82	100
83	509
84	220
85	139
86	9
88	1
89	1
91	9
92	2
93	10
94	4
95	61
96	41
97	390
98	93
99	30
100	2
103	1
104	1
105	2
106	1
107	2
108	1
109	16
110	25
111	157
112	170
113	24
114	1
115	1
119	1
121	1
123	6
124	35
125	180
126	68
127	9
128	1
137	2
138	3
139	7
140	190
141	54
142	5
151	2
152	20
153	77
154	26
155	3
165	1
166	2
167	3
168	97
169	27
170	3
179	1
180	1
181	2
182	2
183	1
195	1
196	1
209	1
210	1
224	4
225	1
238	1
250	1
252	110
253	19
254	2
