Mass Spectrum: Phosphoric acid, 2-(methoxyimino)ethyl bis(trimethylsilyl)ester
Formula: C9H24NO5PSi2
CAS: 55044-12-7
Molecular weight: 313
m/z	intensity
41	62
42	65
43	80
44	87
45	473
46	36
47	65
48	4
49	7
50	25
51	25
52	80
53	11
54	7
55	29
56	29
57	65
58	44
59	87
60	15
61	47
62	7
63	11
65	7
67	7
69	7
70	11
71	44
72	647
73	999
74	102
75	175
76	25
77	65
78	44
79	91
80	15
81	7
83	4
84	22
85	7
86	11
87	7
88	7
89	95
90	36
91	36
92	7
93	25
94	7
95	7
96	7
97	4
98	7
100	11
101	7
102	7
103	65
104	15
105	44
106	15
107	33
108	7
109	18
112	11
113	7
114	36
115	116
116	22
117	29
118	7
119	80
120	15
121	76
122	11
123	40
128	11
129	11
130	7
131	33
132	11
133	509
134	65
135	240
136	44
137	124
138	36
139	22
143	36
144	4
145	11
146	116
147	196
148	44
149	36
150	15
151	29
152	7
153	18
155	11
158	25
159	4
160	4
163	29
164	29
165	25
166	7
167	36
168	7
169	25
170	4
177	11
178	7
179	22
180	7
181	73
182	11
183	22
184	4
185	4
191	7
192	4
193	11
194	18
195	196
196	29
197	44
198	11
209	22
210	44
211	705
212	102
213	69
214	7
225	553
226	109
227	320
228	51
229	29
236	727
237	131
238	102
239	15
240	95
241	662
242	109
243	73
244	15
252	29
253	7
254	4
255	18
256	58
257	15
258	7
266	633
267	138
268	65
269	15
282	720
283	189
284	87
285	22
286	4
298	189
299	73
300	29
301	7
313	80
314	29
315	11
316	4
