Mass Spectrum: 2H-Tetrazole-5-carboxylic acid, 2-(3-chlorophenyl)-, ethyl ester
Formula: C10H9ClN4O2
CAS: 55044-76-3
Molecular weight: 252
m/z	intensity
38	60
39	150
40	250
41	40
42	20
43	40
44	100
45	10
46	40
50	40
51	290
52	170
53	60
54	230
55	130
56	10
61	20
62	80
63	190
64	560
65	250
66	80
67	10
68	20
70	20
73	20
74	190
75	210
76	880
77	210
78	60
85	40
86	100
87	40
88	60
89	80
90	150
91	860
92	100
93	10
98	40
99	60
100	330
101	40
102	100
103	40
111	20
112	999
113	80
114	330
115	40
116	100
117	80
118	40
124	40
125	80
126	690
127	80
128	210
129	20
139	950
140	100
141	300
142	40
143	60
144	80
152	310
153	60
154	80
155	20
171	80
172	60
180	880
181	100
182	270
183	40
197	40
199	20
207	880
208	150
209	290
210	60
224	270
225	40
226	80
252	400
253	60
254	120
255	20
