Mass Spectrum: 1H-Indene, 2-decyloctahydro-
Formula: C19H36
CAS: 55044-34-3
Molecular weight: 264
m/z	intensity
37	2
38	4
39	169
40	37
41	799
42	105
43	518
44	17
45	1
49	1
50	3
51	12
52	11
53	117
54	179
55	588
56	92
57	188
58	8
59	1
60	1
61	1
62	1
63	3
64	1
65	30
66	47
67	719
68	197
69	228
70	41
71	55
72	3
73	1
74	1
75	1
76	1
77	50
78	13
79	126
80	103
81	999
82	291
83	134
84	21
85	28
86	2
87	1
88	1
89	1
90	1
91	34
92	9
93	77
94	46
95	301
96	819
97	355
98	31
99	5
100	1
101	1
102	1
103	2
104	1
105	7
106	2
107	17
108	12
109	85
110	60
111	27
112	6
113	3
115	2
116	1
117	2
118	1
119	4
120	5
121	91
122	214
123	804
124	93
125	12
126	4
127	2
128	1
129	1
130	1
131	1
132	1
133	2
134	2
135	13
136	16
137	52
138	16
139	4
140	3
141	2
142	1
143	1
144	1
145	1
146	1
147	1
148	1
149	5
150	6
151	9
152	6
153	2
154	2
155	1
156	1
157	1
158	1
159	1
160	1
161	1
162	1
163	1
164	1
165	3
166	5
167	2
168	17
169	3
170	1
171	1
172	1
173	1
175	1
176	1
177	1
178	1
179	2
180	3
181	1
182	10
183	5
184	1
185	1
186	1
187	1
188	1
189	2
190	1
191	1
192	1
193	2
194	2
195	1
207	43
208	10
209	1
218	1
219	1
221	2
222	3
223	1
235	7
236	21
237	4
238	1
246	8
247	1
249	1
262	1
263	1
264	133
265	28
266	4
267	1
