Mass Spectrum: Dodecane, 2-methyl-8-propyl-
Formula: C16H34
CAS: 55045-07-3
Molecular weight: 226
m/z	intensity
36	0
37	2
38	4
39	139
40	29
41	637
42	136
43	975
44	33
45	5
46	0
47	0
48	0
49	0
50	2
51	5
52	4
53	41
54	30
55	307
56	198
57	999
58	47
59	1
60	2
61	0
62	0
63	1
64	0
65	6
66	4
67	33
68	23
69	147
70	95
71	662
72	37
73	1
74	0
75	0
76	0
77	5
78	1
79	6
80	1
81	10
82	14
83	68
84	48
85	281
86	19
87	2
88	0
89	0
91	1
92	0
93	0
94	0
95	3
96	4
97	26
98	14
99	82
100	6
101	0
103	0
104	0
105	0
106	0
107	0
108	0
109	1
110	3
111	14
112	148
113	99
114	8
115	0
116	0
117	0
121	0
122	0
123	0
124	2
125	6
126	16
127	39
128	3
129	0
130	0
131	0
137	0
138	1
139	3
140	13
141	17
142	2
143	0
144	0
145	0
146	0
147	0
148	0
149	0
150	0
151	0
152	0
153	4
154	10
155	6
156	0
157	0
158	0
159	0
160	0
161	0
162	0
163	0
164	0
165	0
166	0
167	3
168	62
169	66
170	8
171	0
172	0
173	0
174	0
175	0
176	0
177	0
178	0
179	0
180	0
181	1
182	73
183	102
184	13
185	0
196	1
197	3
198	0
210	0
211	3
212	0
224	1
225	0
226	3
227	0
