Mass Spectrum: Tetradecane, 6,9-dimethyl-
Formula: C16H34
CAS: 55045-13-1
Molecular weight: 226
m/z	intensity
26	8
27	199
28	31
29	376
30	8
31	1
37	1
38	2
39	89
40	18
41	453
42	98
43	692
44	23
50	1
51	3
52	2
53	28
54	19
55	233
56	164
57	999
58	44
59	1
65	4
66	2
67	20
68	13
69	97
70	83
71	373
72	20
73	1
77	3
78	1
79	4
80	1
81	9
82	9
83	43
84	37
85	275
86	18
87	1
91	1
93	1
94	1
95	5
96	7
97	36
98	119
99	108
100	8
105	1
107	1
109	2
110	3
111	21
112	28
113	45
114	4
115	1
123	1
124	2
125	11
126	18
127	21
128	2
137	1
138	1
139	3
140	7
141	10
142	1
151	1
152	1
153	3
154	75
155	108
156	13
157	1
165	1
166	1
167	2
168	5
169	10
170	1
180	1
181	1
182	3
183	7
184	1
195	1
196	3
197	11
198	2
209	2
211	9
212	2
224	2
226	5
227	1
