Mass Spectrum: 7-Heptadecene, 7-methyl-, (E)-
Formula: C18H36
CAS: 55044-75-2
Molecular weight: 252
m/z	intensity
40	41
41	709
42	140
43	619
50	9
51	13
52	17
53	170
54	75
55	989
56	999
57	899
58	52
65	24
66	25
67	200
68	260
69	929
70	360
71	310
72	25
77	24
78	8
79	51
80	27
81	160
82	120
83	579
84	200
85	170
86	16
95	110
96	70
97	300
98	210
109	24
110	81
111	420
112	130
113	33
122	11
123	26
124	56
125	290
126	130
127	12
136	6
137	17
138	39
139	31
140	10
151	7
152	10
153	60
154	12
166	2
167	31
168	120
169	49
170	16
171	3
179	1
180	1
181	2
182	130
183	40
184	6
193	1
194	1
195	1
196	2
197	1
209	2
210	3
211	1
219	1
220	11
221	3
236	1
237	1
238	2
250	2
251	1
252	140
253	32
254	10
