Mass Spectrum: Pentanoic acid, 3-[(1-oxopentyl)amino]propyl ester
Formula: C13H25NO3
CAS: 55044-82-1
Molecular weight: 243
m/z	intensity
83	50
84	230
85	999
87	110
99	699
100	549
102	70
112	160
113	10
114	90
115	50
116	90
117	310
118	160
126	60
128	50
130	100
132	80
141	130
142	250
158	100
159	370
160	50
201	160
243	10
