Mass Spectrum: 1H-Indene, 2-butyl-5-hexyloctahydro-
Formula: C19H36
CAS: 55044-33-2
Molecular weight: 264
m/z	intensity
12	4
13	2
14	25
15	23
16	4
17	4
18	15
19	1
20	1
22	1
24	1
25	4
26	22
27	276
28	224
29	527
30	12
31	1
32	2
36	1
37	4
38	6
39	138
40	31
41	818
42	83
43	451
44	22
45	1
46	1
48	1
49	1
50	4
51	12
52	10
53	117
54	137
55	742
56	88
57	140
58	7
59	1
60	1
61	1
62	1
63	2
64	1
65	37
66	39
67	650
68	169
69	405
70	40
71	40
72	2
73	1
74	1
75	1
76	1
77	70
78	22
79	202
80	94
81	813
82	160
83	382
84	39
85	23
86	2
87	1
88	1
89	1
90	1
91	52
92	15
93	102
94	82
95	999
96	182
97	416
98	39
99	9
100	1
102	1
103	2
104	2
105	10
106	4
107	28
108	13
109	503
110	161
111	122
112	12
113	1
114	1
115	3
116	1
117	4
118	1
119	5
120	7
121	192
122	28
123	470
124	113
125	37
126	6
127	2
128	3
129	3
130	1
131	3
132	1
133	2
134	1
135	32
136	15
137	176
138	36
139	9
140	2
141	1
142	1
143	1
144	1
145	1
146	1
147	1
148	1
149	10
150	6
151	98
152	38
153	5
154	1
155	1
157	1
159	1
161	1
162	1
163	4
164	7
165	102
166	35
167	5
168	1
169	1
170	1
171	1
172	1
173	1
174	1
175	1
176	1
177	11
178	149
179	484
180	190
181	40
182	4
183	1
184	1
185	1
186	1
187	11
188	3
189	1
190	1
191	1
192	1
193	6
194	12
195	2
196	1
200	1
201	1
202	1
203	1
204	1
205	10
206	21
207	86
208	16
209	2
210	1
211	1
212	1
213	1
214	1
215	1
216	1
217	1
218	1
219	1
220	1
221	4
222	3
223	1
224	1
225	1
226	1
227	1
228	1
229	1
230	1
231	1
232	1
233	1
234	1
235	14
236	12
237	2
238	1
241	1
242	1
243	1
248	1
249	2
250	1
252	1
254	1
256	1
257	1
258	5
259	1
260	1
261	1
262	2
263	2
264	209
265	44
266	5
267	1
