Mass Spectrum: Propanenitrile, 3-[(2,2-dimethyl-4,4-diphenyl-3-oxetanylidene)amino]-2-methyl-
Formula: C21H22N2O
CAS: 55044-22-9
Molecular weight: 318
m/z	intensity
68	160
69	999
70	93
77	183
105	199
136	488
137	85
182	58
190	46
191	35
192	78
193	39
260	58
318	46
