Mass Spectrum: Benzoic acid, 3-[(2,2-dimethyl-1-oxobutyl)amino]-5-(3-methylbutyl)-, methyl ester
Formula: C19H29NO3
CAS: 55044-20-7
Molecular weight: 319
m/z	intensity
27	30
28	30
29	120
39	40
41	230
42	30
43	560
44	20
51	20
53	20
54	10
55	110
56	30
57	70
58	10
59	30
63	10
65	20
66	10
67	10
69	60
70	30
71	999
72	50
73	10
74	40
75	10
76	20
77	50
78	20
79	20
81	10
83	20
87	30
89	10
90	20
91	50
92	10
93	10
99	40
103	20
104	30
105	60
106	80
107	10
117	10
118	10
119	15
132	15
133	80
134	10
146	20
147	10
148	10
149	170
150	20
164	20
165	350
166	40
188	10
189	5
190	10
205	10
206	5
216	270
217	40
218	5
221	160
222	30
223	10
231	20
232	20
233	20
248	120
249	20
263	60
264	10
283	10
285	10
303	5
319	60
320	10
