Mass Spectrum: Propanenitrile, 3-[(3,3-dimethyl-4,4-diphenyl-2-oxetanylidene)amino]-2-methyl-
Formula: C21H22N2O
CAS: 55044-24-1
Molecular weight: 318
m/z	intensity
68	201
69	999
70	67
75	43
76	67
77	335
78	59
89	154
90	55
91	320
92	43
94	47
95	758
96	86
103	118
104	67
105	557
106	59
110	51
136	434
137	79
181	51
182	197
183	79
191	79
192	201
193	324
194	79
206	35
207	150
208	841
209	142
318	43
