Mass Spectrum: Dodecane, 2-methyl-6-propyl-
Formula: C16H34
CAS: 55045-08-4
Molecular weight: 226
m/z	intensity
36	0
37	0
38	1
39	54
40	10
41	381
42	83
43	835
44	26
45	0
50	0
51	0
52	1
53	19
54	15
55	207
56	175
57	999
58	43
59	1
65	2
66	1
67	16
68	12
69	92
70	66
71	624
72	32
73	2
77	2
78	0
79	2
80	0
81	4
82	11
83	36
84	49
85	483
86	30
87	0
91	1
95	1
96	6
97	29
98	19
99	116
100	8
101	0
105	0
109	0
110	3
111	21
112	22
113	45
114	4
115	0
124	1
125	10
126	12
127	30
128	3
138	0
139	2
140	112
141	78
142	7
143	0
153	1
154	10
155	5
156	0
166	4
167	4
168	4
169	0
181	40
182	60
183	8
194	0
195	1
203	0
205	1
226	1
227	0
