Mass Spectrum: 11-Hexadecenoic acid, 15-methyl-, methyl ester
Formula: C18H34O2
CAS: 55044-54-7
Molecular weight: 282
m/z	intensity
15	105
17	30
18	30
27	45
28	45
29	240
39	120
41	640
42	120
43	540
45	60
53	90
54	210
55	999
56	730
57	210
58	60
59	210
67	390
68	240
69	880
70	270
71	90
72	45
73	60
74	660
75	120
77	45
79	120
80	75
81	284
82	240
83	522
84	402
85	105
86	21
87	390
88	90
91	60
93	90
94	105
95	360
96	480
97	492
98	328
99	120
101	105
107	90
108	90
109	240
110	300
111	300
112	150
113	90
114	75
115	120
119	75
121	90
122	60
123	210
124	120
125	165
126	60
127	45
128	60
129	105
130	45
133	90
134	75
135	60
136	30
137	150
138	110
139	135
141	120
143	90
147	30
148	30
149	15
150	60
151	120
152	180
153	90
154	30
155	45
157	45
161	60
165	90
166	165
167	75
175	60
176	45
177	150
178	60
179	90
185	60
189	75
193	45
194	120
195	300
196	60
197	45
199	60
206	45
207	60
208	360
209	45
227	360
228	105
232	45
233	45
235	60
236	45
239	45
250	540
251	285
252	90
282	240
283	90
