Mass Spectrum: Propanenitrile, 2-[(2,2-dimethyl-4,4-diphenyl-3-oxetanylidene)amino]-2-methyl-
Formula: C21H22N2O
CAS: 55044-21-8
Molecular weight: 318
m/z	intensity
68	167
69	999
70	60
77	178
105	213
109	83
136	465
137	48
152	24
163	24
165	214
166	131
167	24
182	36
183	48
190	60
191	36
192	83
193	60
219	24
224	24
260	36
275	48
318	12
