Mass Spectrum: Pentanedioic acid, 2,2,3-trimethyl-, bis(trimethylsilyl) ester
Formula: C14H30O4Si2
CAS: 55044-26-3
Molecular weight: 318
m/z	intensity
38	1
39	27
40	16
41	134
42	39
43	91
44	34
45	178
46	11
47	59
48	2
49	1
53	14
54	3
55	88
56	6
57	11
58	29
59	42
60	12
61	46
62	3
63	1
67	19
68	4
69	214
70	78
71	18
72	85
73	999
74	101
75	577
76	41
77	27
81	5
82	3
83	214
84	16
85	10
87	2
88	13
89	6
93	1
95	6
96	3
97	11
99	21
100	5
101	30
102	2
103	4
105	1
106	15
110	4
111	39
112	1
113	5
115	11
116	100
117	51
118	8
119	4
127	2
129	71
130	14
131	26
132	4
133	40
134	5
135	4
141	1
142	2
143	83
144	63
145	19
146	7
147	408
148	56
149	52
150	5
151	1
156	10
157	14
158	2
159	14
160	57
161	9
162	12
169	7
170	1
171	5
175	24
176	1
185	40
186	10
187	26
188	3
189	22
190	3
191	1
200	16
201	33
202	5
203	4
204	321
205	58
206	26
207	2
213	5
217	5
229	3
231	8
232	8
233	3
250	1
259	4
275	2
276	1
303	165
304	41
305	14
306	1
