Mass Spectrum: 1,2-Cyclopentanedicarboxylic acid, 4-(1,1-dimethylethyl)-, dimethyl ester, (1.alpha.,2.alpha.,4.alpha.)-
Formula: C13H22O4
CAS: 55044-88-7
Molecular weight: 242
m/z	intensity
12	5
13	13
15	390
16	16
24	3
25	9
26	47
27	249
28	120
29	179
30	15
31	140
32	10
37	4
38	14
39	199
40	49
41	478
42	46
43	122
44	51
45	76
46	21
47	5
48	2
49	3
50	19
51	28
52	19
53	76
54	16
55	3
56	72
57	999
58	44
59	77
60	5
61	4
62	4
63	11
64	8
65	65
66	117
67	181
68	62
69	51
70	67
71	11
72	2
73	5
74	3
75	4
76	4
77	41
78	13
79	60
80	13
81	50
82	11
83	41
84	7
85	11
86	3
87	6
88	2
89	3
90	3
91	57
92	13
93	63
94	23
95	27
96	12
97	11
98	5
99	25
100	10
101	3
102	2
103	4
104	3
105	18
106	6
107	150
108	19
109	39
110	7
111	53
112	41
113	78
114	5
115	4
116	1
117	4
118	2
119	10
120	3
121	23
122	13
123	51
124	91
125	77
126	161
127	45
128	5
129	3
130	1
131	2
132	1
133	3
134	3
135	46
136	9
137	4
138	3
139	19
140	75
141	18
142	3
143	2
145	3
149	3
150	3
151	31
152	5
153	31
154	31
155	20
156	3
157	2
158	1
159	3
160	1
161	1
162	1
163	31
164	3
165	3
166	1
167	26
168	8
169	5
170	1
171	1
177	1
180	3
181	17
182	33
183	5
184	1
185	11
186	5
194	1
195	18
196	13
197	3
198	1
199	3
209	3
210	14
211	28
212	3
213	1
214	1
224	3
225	5
227	1
242	2
