Mass Spectrum: Benzenepentanoic acid, .beta.-methyl-, ethyl ester
Formula: C14H20O2
CAS: 55053-55-9
Molecular weight: 220
m/z	intensity
27	72
28	13
29	165
39	73
40	8
41	100
42	21
43	52
44	26
45	42
50	10
51	46
52	12
53	16
55	70
56	28
57	51
59	46
60	75
61	81
63	21
65	112
69	39
70	53
71	29
73	47
77	73
78	41
79	41
83	31
85	12
87	100
88	315
89	53
90	15
91	999
92	222
93	15
101	49
102	9
103	41
104	201
105	140
106	13
115	132
116	31
117	85
118	26
128	10
129	45
130	11
131	238
132	99
133	17
141	11
143	19
145	17
146	42
147	12
149	9
156	83
157	14
159	52
174	719
175	241
176	26
220	69
221	10
