Mass Spectrum: dl-Isoleucine, ethyl ester
Formula: C8H17NO2
CAS: 55056-62-7
Molecular weight: 159
m/z	intensity
18	19
27	29
29	63
30	102
39	17
41	54
42	14
43	15
44	61
46	18
55	13
56	54
57	61
58	17
69	107
70	30
74	190
75	13
84	17
86	999
87	68
102	204
103	24
