Mass Spectrum: 6-Octenal, 7-methyl-3-methylene-
Formula: C10H16O
CAS: 55050-40-3
Molecular weight: 152
m/z	intensity
26	2
27	60
28	9
29	64
30	1
31	2
37	2
38	7
39	162
40	30
41	729
42	30
43	41
44	4
50	10
51	30
52	12
53	92
54	13
55	52
56	14
57	4
59	5
61	1
62	3
63	8
64	2
65	24
66	21
67	102
68	42
69	999
70	53
74	1
75	1
76	1
77	26
78	6
79	32
80	5
81	74
82	17
83	7
84	7
89	1
91	26
92	5
93	18
94	9
96	5
103	2
104	1
105	6
106	2
107	9
108	151
109	201
110	16
117	1
119	8
121	7
122	1
123	6
124	1
134	3
137	5
152	1
