Mass Spectrum: Decanoic acid, 2,6,8-trimethyl-, methyl ester
Formula: C14H28O2
CAS: 55059-27-3
Molecular weight: 228
m/z	intensity
15	16
27	32
29	103
39	25
41	161
42	32
43	132
45	8
53	12
54	1
55	225
56	41
57	285
58	12
59	61
67	11
68	8
69	150
70	19
71	41
72	1
73	19
74	8
81	11
82	1
83	48
84	6
85	16
87	48
88	999
89	43
90	3
95	4
97	101
98	16
99	12
101	354
102	29
109	24
110	3
111	29
113	3
115	19
123	8
125	19
126	9
129	43
130	8
138	80
139	32
149	3
157	61
158	12
167	16
171	3
179	8
181	6
197	12
199	3
228	56
229	11
