Mass Spectrum: 9-Octadecenoic acid, 12-hydroxy-, ethyl ester, [R-(Z)]-
Formula: C20H38O3
CAS: 55066-53-0
Molecular weight: 326
m/z	intensity
26	4
27	52
28	18
29	172
30	6
31	21
39	74
40	14
41	355
42	69
43	317
44	41
45	51
52	4
53	62
54	150
55	999
56	84
57	125
58	8
59	21
60	63
61	43
65	22
66	14
67	265
68	145
69	374
70	112
71	64
72	5
73	90
74	11
77	26
78	9
79	103
80	37
81	229
82	186
83	231
84	264
85	51
86	7
87	19
88	282
89	30
90	2
91	30
92	10
93	44
94	40
95	129
96	299
97	358
98	256
99	36
101	210
102	18
105	18
106	10
107	38
108	31
109	93
110	108
111	84
112	19
113	25
114	10
115	84
116	13
119	56
120	13
121	43
122	75
123	182
124	409
125	95
126	11
127	22
128	31
129	39
130	18
133	20
135	25
136	12
137	109
138	64
139	17
140	3
141	22
142	31
144	16
147	22
148	78
149	26
150	19
151	27
152	7
153	5
155	54
156	9
157	14
164	11
165	18
166	373
167	51
168	6
169	22
170	3
175	4
179	8
181	3
183	12
193	4
195	34
210	3
212	107
213	18
220	8
221	6
235	2
245	9
246	2
262	11
263	17
264	5
308	12
309	3
