Mass Spectrum: 28,33-Dinorgorgost-5-en-24-one, 3-hydroxy-, (3.beta.)-
Formula: C28H44O2
CAS: 55064-61-4
Molecular weight: 412
m/z	intensity
41	250
42	30
43	999
44	30
45	10
52	10
53	60
54	20
55	530
56	30
57	70
58	10
59	10
60	10
65	30
66	20
67	210
68	50
69	180
70	20
71	580
72	50
73	20
77	80
78	20
79	210
80	50
81	330
82	60
83	80
84	10
85	20
86	10
87	10
91	210
92	60
93	250
94	110
95	330
96	60
97	90
98	40
99	260
100	40
103	30
104	30
105	240
106	70
107	290
110	50
111	80
112	110
113	100
114	30
115	30
116	30
117	90
118	60
119	200
120	110
121	180
122	70
123	90
124	40
125	60
126	90
127	50
128	40
129	60
130	40
131	130
132	60
133	260
134	90
135	120
136	50
137	60
138	40
139	210
140	80
141	70
142	40
143	110
144	70
145	240
146	90
147	210
148	70
149	90
150	40
151	90
152	40
153	30
155	60
156	70
157	120
158	120
159	230
160	100
161	170
162	60
163	90
164	60
165	60
166	70
167	50
168	50
169	50
170	40
171	90
172	60
173	110
174	60
175	100
176	70
177	70
178	50
179	50
180	50
181	50
183	60
184	40
185	90
186	60
187	100
188	50
189	80
190	40
191	40
197	70
198	40
199	100
200	50
201	70
202	40
203	70
204	40
205	40
207	40
209	40
211	90
212	60
213	170
214	80
215	100
216	60
217	60
219	50
225	60
226	50
227	80
228	80
229	90
230	80
231	80
232	60
233	50
237	50
239	110
240	60
241	60
242	50
243	60
244	50
245	50
246	50
253	140
254	100
255	120
256	80
257	90
258	70
267	70
268	60
269	70
270	80
271	760
272	730
273	200
274	70
281	110
282	70
283	80
284	60
285	80
286	60
287	60
288	60
293	60
295	80
296	80
297	70
298	60
299	130
300	80
301	90
302	60
308	70
309	70
311	80
312	70
313	80
314	100
315	70
323	90
324	70
326	120
327	110
328	70
333	70
341	70
351	100
352	80
353	70
369	100
370	80
379	120
380	90
394	150
395	100
396	80
397	120
398	100
399	80
412	290
413	150
414	100
