Mass Spectrum: 1,4,2-Dioxazole, 5-(4-methoxyphenyl)-3-phenyl-
Formula: C15H13NO3
CAS: 55076-25-0
Molecular weight: 255
m/z	intensity
37	20
38	60
39	150
40	10
41	30
51	90
52	160
53	40
62	30
63	120
64	200
65	100
75	30
76	60
77	420
78	50
79	20
90	30
91	160
92	110
93	20
103	50
105	999
106	100
107	90
119	250
120	40
135	810
136	840
137	80
255	100
256	20
