Mass Spectrum: N-(2-Hydroxyethyl)-4-nitrophthalimide
Formula: C10H8N2O5
CAS: 55080-96-1
Molecular weight: 236
m/z	intensity
34	36
36	31
37	96
38	101
40	589
41	61
42	54
43	131
44	328
46	52
48	7
49	23
50	154
51	102
52	104
53	75
54	12
55	30
56	65
57	24
58	6
59	6
60	9
61	32
62	102
63	164
64	47
65	48
66	16
67	10
68	9
69	16
70	27
71	9
74	609
75	999
76	421
77	149
78	27
79	11
80	8
81	6
82	6
83	7
84	7
85	7
86	10
87	16
88	30
89	32
90	24
91	36
92	28
93	9
99	4
100	8
101	48
103	586
104	212
105	40
106	5
112	4
115	5
116	17
117	18
119	167
120	51
121	6
128	8
129	47
130	19
131	73
132	183
133	20
134	6
143	6
145	10
146	9
147	63
148	29
149	68
150	29
151	6
157	11
159	984
160	109
161	36
162	52
163	19
171	9
173	9
175	151
176	26
177	20
178	28
189	33
190	12
191	20
193	594
194	57
195	6
202	6
203	29
205	866
206	900
207	100
208	12
218	9
235	7
236	33
