Mass Spectrum: 1,3,2-Dioxaborolane, 2-(cyclohexyloxy)-
Formula: C8H15BO3
CAS: 55089-04-8
Molecular weight: 170
m/z	intensity
41	270
42	50
43	50
44	100
45	100
50	10
51	20
52	10
53	80
54	200
55	220
56	70
57	400
58	80
59	50
65	10
66	10
67	370
68	30
69	20
70	20
71	90
72	30
77	20
78	10
79	40
80	10
81	110
82	999
83	150
84	30
85	10
86	20
87	60
88	20
89	50
97	10
98	10
99	70
100	20
101	60
113	50
114	150
115	20
117	10
126	240
127	910
128	70
129	10
140	20
141	120
142	40
169	20
170	70
