Mass Spectrum: trans-1-Cyano-2-phenylcyclopropanol
Formula: C10H9NO
CAS: 5508-33-8
Molecular weight: 159
m/z	intensity
27	250
43	70
51	520
77	520
78	530
91	999
103	480
104	520
105	480
130	820
131	480
159	500
