Mass Spectrum: Benzoic acid, 4-(2,3,3a,4,7,7a-hexahydro-4,7-methano-1,3-dioxo-2-isoindolyl)-
Formula: C16H13NO4
CAS: 55099-10-0
Molecular weight: 283
m/z	intensity
33	8
35	3
36	17
39	181
40	54
41	44
43	53
45	33
50	25
51	36
52	19
54	107
55	35
56	8
57	20
58	3
60	21
61	7
63	71
66	999
68	6
69	14
70	6
71	10
73	17
74	7
75	7
76	7
77	17
78	7
79	8
80	7
81	7
82	16
83	9
84	5
85	5
87	6
89	27
90	58
91	128
92	44
93	8
94	2
95	4
96	4
97	6
98	4
99	2
100	1
101	2
102	5
103	2
104	2
105	3
106	2
107	1
108	1
109	2
110	2
111	3
112	1
113	1
114	2
115	4
116	13
117	11
118	15
119	16
120	11
121	7
122	0
123	1
124	1
125	1
127	1
128	6
129	7
130	7
131	0
132	2
133	0
134	0
136	8
137	4
138	1
139	1
140	0
141	0
142	0
144	17
146	36
147	16
148	6
149	2
150	0
151	0
152	0
154	0
156	0
157	1
160	0
161	2
162	0
163	3
164	1
165	0
167	2
168	0
169	0
172	43
173	36
174	21
175	2
180	0
181	0
182	0
185	1
188	3
189	4
190	0
192	0
194	0
195	0
197	0
200	35
201	2
202	0
210	2
211	0
213	2
214	3
217	154
218	129
219	15
220	1
228	0
238	1
239	1
254	2
255	1
256	4
264	0
266	0
278	0
279	1
280	5
283	143
284	19
285	3
