Mass Spectrum: 2,7-Methanonaphthalen-3-ol, 1,2,3,4,4a,7,8,8a-octahydro-, (2.alpha.,3.beta.,4a.beta.,7.alpha.,8a.beta.)-
Formula: C11H16O
CAS: 55092-12-1
Molecular weight: 164
m/z	intensity
26	6
27	140
28	10
29	88
30	2
31	32
37	2
38	10
39	260
40	40
41	306
42	25
43	205
44	19
45	73
46	2
50	22
51	103
52	48
53	136
54	35
55	158
56	16
57	53
58	28
59	4
60	2
61	2
62	6
63	33
64	11
65	145
66	112
67	253
68	171
69	46
70	30
71	96
72	15
73	4
74	4
75	7
76	7
77	387
78	227
79	999
80	246
81	153
82	202
83	148
84	57
85	77
86	36
87	3
88	1
89	12
90	6
91	476
92	202
93	322
94	234
95	340
96	119
97	32
98	7
99	3
101	2
102	6
103	45
104	160
105	200
106	87
107	156
108	153
109	117
110	58
111	5
112	0
113	1
114	0
115	41
116	19
117	186
118	64
119	37
120	79
121	489
122	147
123	92
124	8
125	0
126	1
127	4
128	11
129	14
130	9
131	253
132	29
133	15
134	3
135	69
136	50
137	6
138	0
139	0
140	0
141	1
142	0
143	2
144	1
145	20
146	92
147	18
148	2
149	85
150	11
151	1
152	0
153	0
159	0
160	1
161	0
162	2
163	12
164	773
165	98
166	7
167	1
