Mass Spectrum: 2,7:3,6-Dimethano-2H-1-benzopyran, octahydro-
Formula: C11H16O
CAS: 55092-18-7
Molecular weight: 164
m/z	intensity
26	12
27	345
28	54
29	177
38	21
39	551
40	69
41	778
42	45
43	99
44	29
45	20
50	20
51	112
52	50
53	273
54	113
55	339
56	34
57	84
58	17
62	9
63	22
64	7
65	102
66	105
67	305
68	263
69	59
70	63
71	28
77	234
78	167
79	763
80	181
81	999
82	262
83	994
84	56
85	21
86	27
91	244
92	126
93	169
94	107
95	128
96	54
97	25
103	22
104	69
105	116
106	20
107	67
109	32
110	13
115	9
117	57
119	27
120	125
121	73
122	59
123	23
131	42
133	33
134	9
135	89
136	30
146	28
149	31
164	610
165	61
