Mass Spectrum: 6-Aminopenicillanic acid
Formula: C8H12N2O3S
CAS: 551-16-6
Molecular weight: 216
m/z	intensity
15	13
16	1
17	37
18	146
26	8
27	73
29	212
30	324
31	15
33	3
34	2
36	7
37	3
38	14
39	108
40	2
41	177
42	120
43	177
44	356
45	174
46	27
47	44
48	43
49	2
50	9
51	15
52	11
53	76
54	36
55	217
56	67
57	239
58	55
59	110
60	93
61	69
62	30
63	6
64	12
65	11
66	9
67	40
68	45
69	208
70	107
71	86
72	28
73	125
74	208
75	999
76	43
77	55
78	5
79	14
80	14
81	47
82	61
83	77
84	36
85	48
86	22
87	138
88	34
89	23
90	1
91	9
92	1
93	12
94	10
95	33
96	26
97	52
98	47
99	76
100	54
101	21
102	6
105	5
107	8
108	4
109	20
110	13
111	21
112	16
113	18
114	367
115	51
116	191
117	16
118	8
119	5
121	8
122	5
123	4
124	7
125	12
126	14
127	26
128	6
129	24
130	2
131	3
133	4
135	5
137	5
138	5
139	6
140	2
141	4
142	25
143	8
144	2
147	3
151	4
152	3
153	1
157	4
159	3
160	767
161	63
162	42
163	4
164	1
167	1
171	4
183	5
185	6
216	14
