Mass Spectrum: Pregn-5-en-3-ol, 21-bromo-20-methyl-, (3.beta.)-
Formula: C22H35BrO
CAS: 55103-80-5
Molecular weight: 394
m/z	intensity
41	841
42	59
43	188
44	19
45	9
49	9
50	29
51	29
52	19
53	207
54	39
55	693
56	49
57	108
58	9
59	9
63	9
65	99
66	39
67	564
68	89
69	287
70	19
71	29
72	9
73	9
74	19
76	9
77	316
78	89
79	673
80	108
81	712
82	79
83	118
84	19
85	29
86	9
87	19
88	19
89	9
90	9
91	722
92	207
93	792
94	198
95	613
96	69
97	69
98	9
99	19
100	29
101	9
102	9
103	59
104	59
105	782
106	237
107	999
108	207
109	257
110	29
111	49
112	9
113	9
114	39
115	79
116	39
117	237
118	148
119	544
120	485
121	495
122	99
123	118
124	118
125	198
126	29
127	19
128	69
129	128
130	69
131	346
132	118
133	445
134	138
135	356
136	69
137	39
138	49
139	19
141	39
142	39
143	217
144	108
145	732
146	138
147	366
148	118
149	148
150	29
151	29
152	19
153	9
154	9
155	29
156	9
157	148
158	118
159	396
160	237
161	455
162	99
163	79
164	29
165	39
166	9
167	9
169	19
170	19
171	108
172	39
173	207
174	59
175	99
176	19
177	39
178	108
179	39
183	19
184	9
185	108
186	49
187	108
188	19
189	69
190	9
191	39
197	19
199	89
200	29
201	79
202	19
203	59
204	9
205	9
211	19
212	9
213	356
214	79
215	148
216	29
217	99
218	9
219	9
225	9
227	39
228	89
229	59
230	29
231	188
232	39
233	29
234	19
239	9
240	9
241	29
243	29
245	9
246	39
248	19
253	29
254	9
255	207
256	49
257	168
258	29
267	29
268	29
269	89
270	59
271	79
272	19
273	118
274	19
281	39
282	178
283	782
284	306
285	653
286	118
287	9
295	29
296	19
297	89
298	29
299	19
307	19
308	29
309	495
310	118
311	465
312	89
314	59
315	99
316	29
319	29
321	69
322	29
323	59
324	39
325	19
333	9
334	79
335	59
336	99
337	128
338	39
339	79
340	19
345	9
346	9
347	9
348	29
349	19
350	19
361	485
362	99
363	465
364	99
365	19
376	504
377	128
378	514
379	396
380	79
381	297
382	59
383	19
392	9
393	9
394	881
395	217
396	881
397	227
398	49
399	9
