Mass Spectrum: Phosphonic acid, [2-[(1-methylethylidene)amino]ethyl]-, bis(trimethylsilyl) ester
Formula: C11H28NO3PSi2
CAS: 55108-71-9
Molecular weight: 309
m/z	intensity
41	45
42	75
43	35
44	25
45	75
46	15
47	25
55	20
56	10
57	20
58	15
59	25
61	20
63	55
67	10
68	60
69	15
70	100
71	10
72	15
73	240
74	25
75	110
76	10
77	25
78	45
79	10
81	10
82	25
83	80
84	999
85	65
86	10
98	15
103	10
105	10
107	10
108	10
112	40
114	10
115	10
117	10
119	10
121	25
123	10
124	10
126	40
131	15
133	50
134	10
135	75
136	15
137	40
147	95
148	15
149	15
151	10
152	10
165	25
181	10
195	40
196	10
209	20
210	10
211	50
212	10
225	85
226	25
227	20
237	90
238	20
239	15
253	35
254	10
266	15
294	150
295	35
296	15
309	60
310	15
