Mass Spectrum: 1,4-Dioxaspiro[4.5]decane, 8-ethoxy-
Formula: C10H18O3
CAS: 55103-52-1
Molecular weight: 186
m/z	intensity
41	50
42	40
43	30
44	10
45	10
53	10
55	70
56	10
57	40
58	10
59	60
67	20
69	10
71	30
85	20
86	360
87	70
88	20
99	999
100	90
110	10
142	80
187	10
