Mass Spectrum: Phosphonic acid, [1-[(1-methylethylidene)amino]ethyl]-, bis(trimethylsilyl) ester
Formula: C11H28NO3PSi2
CAS: 55108-64-0
Molecular weight: 309
m/z	intensity
41	25
42	60
43	10
44	15
45	20
63	10
68	15
69	10
73	45
75	20
78	10
82	10
83	25
84	999
85	65
121	7
126	7
133	10
135	16
137	6
147	13
195	9
211	9
225	13
294	20
309	10
