Mass Spectrum: 2H-Benzocyclohepten-2-one, decahydro-9a-methyl-, trans-
Formula: C12H20O
CAS: 55103-67-8
Molecular weight: 180
m/z	intensity
51	80
52	70
53	340
54	210
55	999
56	220
57	170
58	20
63	20
65	90
66	60
67	630
68	410
69	520
70	110
71	120
72	20
77	120
78	40
79	240
80	100
81	700
82	670
83	330
84	130
85	70
91	120
92	40
93	190
94	130
95	660
96	270
97	170
98	70
99	20
105	70
106	70
107	150
108	80
109	410
110	270
111	80
112	30
119	40
120	40
121	70
122	470
123	270
124	180
125	60
133	50
134	30
135	20
136	50
137	90
138	90
139	20
147	90
148	20
149	20
150	20
151	30
152	60
161	10
162	120
163	30
164	10
165	90
166	20
180	260
181	40
182	10
