Mass Spectrum: Aspidofractinine-3-methanol, 17-methoxy-, acetate (ester), (2.alpha.,3.alpha.,5.alpha.)-
Formula: C23H30N2O3
CAS: 55103-45-2
Molecular weight: 382
m/z	intensity
30	30
32	50
39	60
40	30
41	40
42	90
43	510
44	50
49	50
51	50
53	50
54	40
55	70
56	40
57	60
58	40
67	50
70	40
77	60
79	50
80	50
81	90
82	40
83	30
84	50
91	60
96	80
108	100
109	999
110	210
111	50
112	40
113	30
114	40
115	100
116	50
117	60
118	40
119	40
120	30
121	20
122	90
123	40
124	240
125	50
126	40
127	60
128	80
129	70
130	320
131	60
132	50
133	40
134	40
136	90
137	50
138	50
139	50
140	50
141	60
142	50
143	70
144	70
145	60
146	70
147	50
148	30
149	30
150	40
151	30
152	40
153	50
154	100
155	90
156	110
157	50
158	50
159	50
160	60
161	80
162	30
165	30
166	50
167	110
168	100
169	100
170	230
171	80
172	40
173	50
174	60
179	40
180	90
181	70
182	80
183	70
184	80
185	100
186	100
187	40
190	30
191	50
192	40
193	60
194	80
195	70
196	80
197	70
198	80
199	140
200	330
201	70
202	40
203	30
204	40
205	30
206	50
207	60
208	70
209	70
210	80
211	60
212	60
213	40
214	30
215	40
216	40
217	40
218	40
219	40
220	50
221	50
222	60
223	70
224	70
225	60
226	50
227	30
228	20
229	30
230	30
231	20
232	30
233	30
234	40
235	50
236	60
237	70
238	60
239	50
240	40
241	40
242	30
248	40
249	50
250	50
251	70
252	70
253	50
254	40
255	30
261	40
262	30
263	60
264	210
265	540
266	130
267	50
268	20
269	20
270	20
271	20
272	20
273	20
274	20
275	20
276	30
277	20
278	30
279	70
280	40
281	60
282	50
283	30
291	80
292	70
293	50
294	290
295	890
296	210
297	20
307	50
308	30
309	80
310	30
311	50
312	30
321	100
322	70
323	80
324	310
325	120
326	40
339	60
340	50
350	50
351	80
352	320
353	100
354	230
355	90
367	60
380	70
381	110
382	560
383	160
384	40
