Mass Spectrum: Phosphonic acid, [1-[(1-methylethylidene)amino]propyl]-, bis(trimethylsilyl) ester
Formula: C12H30NO3PSi2
CAS: 55108-65-1
Molecular weight: 323
m/z	intensity
41	46
42	31
43	13
45	20
56	41
58	16
59	7
68	26
70	14
73	52
74	7
75	15
77	9
82	8
96	8
97	30
98	999
99	120
121	10
133	16
135	27
147	26
195	13
209	6
211	15
225	13
226	7
251	10
267	10
268	13
294	10
308	34
309	9
323	10
