Mass Spectrum: Phosphonic acid, [3-[(2,2-dimethylpropylidene)amino]propyl]-, bis(trimethylsilyl) ester
Formula: C14H34NO3PSi2
CAS: 55108-79-7
Molecular weight: 351
m/z	intensity
41	521
42	130
43	95
44	69
45	217
46	26
47	52
48	13
50	13
51	13
52	13
53	26
54	43
55	130
56	165
57	182
58	26
59	78
60	13
61	26
62	17
65	8
66	8
67	43
68	147
69	191
70	60
71	34
72	60
73	999
74	86
75	243
76	26
77	60
78	43
79	17
80	17
81	26
82	78
83	26
84	286
85	34
86	43
87	8
89	8
90	8
91	17
93	17
94	21
95	30
96	47
97	34
98	78
99	17
101	8
102	8
103	26
104	13
105	17
107	17
108	21
109	17
110	226
111	34
112	321
113	30
115	17
117	34
118	8
119	34
120	8
121	86
122	13
123	17
124	52
125	17
126	147
127	17
129	8
130	8
131	78
132	21
133	191
134	26
135	286
136	34
137	52
138	17
139	8
140	43
141	8
145	17
147	339
148	52
149	60
150	8
151	34
152	8
153	8
154	200
155	26
156	8
159	26
161	17
163	13
165	26
167	8
176	8
177	17
178	34
179	60
180	8
181	65
182	8
193	8
194	8
195	226
196	43
197	34
209	182
210	78
211	173
212	43
213	17
224	121
225	721
226	800
227	182
228	65
229	13
235	17
236	17
237	139
238	26
239	30
240	834
241	147
242	69
243	8
246	43
247	8
248	17
249	8
250	26
251	104
252	60
253	330
254	191
255	52
256	17
262	8
265	17
266	13
267	347
268	400
269	104
270	34
278	17
280	17
281	17
282	43
283	8
294	234
295	43
296	52
297	13
299	8
300	8
308	26
309	8
320	26
322	56
323	17
336	868
337	208
338	86
339	17
350	8
351	65
352	17
353	8
