Mass Spectrum: [(1-Methylethylidene)amino]methylphosphonate, 2TMS derivative
Formula: C10H26NO3PSi2
CAS: 55108-63-9
Molecular weight: 295
m/z	intensity
41	70
42	70
43	35
45	63
47	10
54	21
55	43
56	7
57	7
58	7
59	21
61	10
68	10
70	999
71	53
72	18
73	250
74	27
75	50
76	8
77	32
89	8
91	10
93	12
103	18
105	9
107	15
115	10
117	8
119	12
121	70
122	7
123	7
131	18
132	6
133	55
134	13
135	87
136	16
137	10
147	40
148	8
149	13
151	25
192	12
195	40
209	20
210	13
211	58
212	10
213	6
225	21
226	31
227	8
239	28
240	7
280	92
281	19
282	9
295	87
296	21
297	10
