Mass Spectrum: 4-Tetradecene, 2,3,4-trimethyl-
Formula: C17H34
CAS: 55103-81-6
Molecular weight: 238
m/z	intensity
41	455
42	49
43	396
53	59
54	29
55	584
56	79
57	326
58	9
65	9
67	178
68	59
69	999
70	227
71	198
72	9
77	19
79	29
80	9
81	108
82	79
83	623
84	49
85	69
91	9
93	9
94	89
95	29
96	445
97	69
98	19
109	49
110	9
111	287
112	49
113	19
123	19
124	9
125	128
126	19
139	49
166	9
167	9
193	29
194	99
195	29
237	99
238	19
