Mass Spectrum: Phosphonic acid, [2-methyl-1-[(1-methylethylidene)amino]propyl]-, bis(trimethylsilyl) ester
Formula: C13H32NO3PSi2
CAS: 55108-68-4
Molecular weight: 337
m/z	intensity
41	60
42	80
43	30
44	10
45	35
46	10
47	15
53	10
54	10
55	90
56	20
57	10
58	35
59	10
61	15
63	50
68	25
69	20
70	45
73	95
74	10
75	45
77	10
78	35
81	10
82	20
83	10
84	50
95	15
96	20
97	15
98	75
110	10
111	15
112	999
113	80
121	13
124	8
126	20
133	18
135	21
147	32
149	6
162	8
195	14
209	9
211	21
219	8
225	10
281	7
294	19
295	7
322	10
