Mass Spectrum: 2(1H)-Benzocyclooctenone, decahydro-4a-methyl-, trans-(-)-
Formula: C13H22O
CAS: 55103-66-7
Molecular weight: 194
m/z	intensity
50	10
51	60
52	50
53	290
54	190
55	999
56	280
57	210
58	20
63	10
64	10
65	70
66	60
67	590
68	390
69	430
70	110
71	70
72	20
73	10
77	90
78	30
79	170
80	80
81	690
82	290
83	260
84	80
85	30
91	70
92	20
93	120
94	110
95	430
96	260
97	160
98	80
99	20
105	20
106	10
107	90
108	120
109	230
110	140
111	110
112	60
113	10
119	20
120	10
121	70
122	150
123	240
124	210
125	80
126	10
133	20
134	10
135	20
136	210
137	180
138	60
139	30
147	60
148	20
149	10
150	10
151	80
152	70
153	10
161	40
165	70
166	40
176	20
178	10
179	50
180	10
194	310
195	60
196	10
