Mass Spectrum: 1H-Benzocycloheptene, 4,4a,5,6,7,8,9,9a-octahydro-4a-methyl-, trans-
Formula: C12H20
CAS: 55103-61-2
Molecular weight: 164
m/z	intensity
39	242
40	2
41	404
42	50
43	80
51	40
52	20
53	121
54	80
55	272
56	40
57	30
65	50
66	50
67	323
68	181
69	80
77	111
78	20
79	161
80	60
81	444
82	282
83	30
91	101
92	10
93	90
94	20
95	303
96	30
97	60
105	20
107	30
108	10
109	40
110	999
111	80
121	20
122	10
123	10
135	20
149	10
164	121
165	10
