Mass Spectrum: 1,4-Dioxaspiro[4.5]decane, 8-(methylthio)-
Formula: C9H16O2S
CAS: 55103-51-0
Molecular weight: 188
m/z	intensity
41	40
42	60
43	40
44	10
45	20
53	20
54	10
55	100
57	10
58	10
59	10
60	20
61	10
67	20
68	10
69	20
71	20
73	10
74	30
77	10
79	30
80	10
81	10
86	170
87	30
95	10
96	10
97	20
99	999
100	60
101	10
110	10
125	10
140	10
141	30
142	30
188	160
189	20
190	10
