Mass Spectrum: 2,3,4-Trimethyl-d-xylose, TMS derivative
Formula: C11H24O5Si
CAS: 55101-95-6
Molecular weight: 264
m/z	intensity
15	20
27	20
29	50
31	20
33	10
39	20
41	60
42	10
43	60
44	10
45	210
47	20
53	20
55	40
56	10
57	20
58	110
59	100
61	20
68	20
69	30
71	70
72	10
73	340
74	40
75	130
83	30
85	60
87	20
88	999
89	200
90	20
99	20
101	580
102	40
103	20
111	10
114	10
115	250
116	40
121	10
131	60
133	740
134	70
135	30
142	1
143	9
144	2
145	7
146	14
147	4
148	1
149	21
150	2
157	9
158	2
159	27
160	3
161	3
172	2
173	2
174	57
175	34
176	5
177	2
185	17
186	3
187	3
189	1
217	10
218	2
249	4
