Mass Spectrum: Acetamide, N-(1-benzoylethyl)-N-ethyl-
Formula: C13H17NO2
CAS: 55116-37-5
Molecular weight: 219
m/z	intensity
51	153
56	53
69	135
70	91
72	999
73	51
76	40
77	258
78	58
79	48
86	43
87	60
89	44
105	81
106	25
114	408
130	20
133	21
134	19
155	14
156	14
160	14
