Mass Spectrum: 2,6,10,14,18-Nonadecanepentone
Formula: C19H30O5
CAS: 55110-17-3
Molecular weight: 338
m/z	intensity
43	999
55	720
58	300
69	230
71	480
81	100
83	230
85	440
95	300
97	500
113	800
123	240
125	330
128	160
141	300
149	60
165	400
177	100
183	400
193	160
211	30
235	270
253	70
320	300
