Mass Spectrum: 2,6,10,14,18,22-Tricosanehexone
Formula: C23H36O6
CAS: 55110-18-4
Molecular weight: 408
m/z	intensity
43	999
55	840
58	120
70	120
71	310
83	190
85	250
95	220
97	410
113	370
123	250
125	220
128	60
137	90
141	120
147	60
149	60
165	250
177	120
183	120
193	90
210	100
235	120
237	90
282	90
305	60
372	60
390	60
