Mass Spectrum: 4,8,12,16-Nonadecanetetrone
Formula: C19H32O4
CAS: 55110-15-1
Molecular weight: 324
m/z	intensity
43	999
55	870
71	760
83	160
95	100
97	380
99	200
113	400
123	240
125	160
141	400
149	60
151	80
165	120
169	120
177	120
193	320
211	100
221	50
245	30
263	100
306	140
