Mass Spectrum: 2,6,10,14-Heptadecanetetrone
Formula: C17H28O4
CAS: 55110-16-2
Molecular weight: 296
m/z	intensity
43	960
55	999
58	100
71	750
83	200
85	320
95	240
97	480
99	200
113	670
123	280
125	300
137	120
141	560
165	360
169	120
177	120
180	50
183	180
193	440
211	160
235	160
278	380
296	10
