Mass Spectrum: Pregn-5-ene-20-methanol, 3-[(tetrahydro-2H-pyran-2-yl)oxy]-, (3.beta.)-
Formula: C27H44O3
CAS: 55123-76-7
Molecular weight: 416
m/z	intensity
41	40
43	40
55	50
56	10
57	40
67	60
69	10
77	10
79	20
81	30
84	10
85	999
86	60
91	30
93	30
95	30
101	20
105	20
106	10
107	20
108	10
109	10
117	10
119	20
120	10
121	20
131	10
133	10
135	10
145	20
147	20
149	10
159	10
160	10
161	10
193	10
206	10
299	20
314	360
315	110
316	20
317	20
329	0
330	1
331	1
332	23
333	5
334	0
341	0
342	0
343	0
344	0
345	0
346	0
359	0
360	0
382	0
383	0
384	0
397	0
398	9
399	1
400	0
401	0
416	1
417	0
418	0
