Mass Spectrum: 1,2-Benzisothiazole, 3-[(4-nitrophenyl)methoxy]-, 1,1-dioxide
Formula: C14H10N2O5S
CAS: 55124-69-1
Molecular weight: 318
m/z	intensity
41	22
43	22
45	10
46	21
48	10
49	10
50	352
51	186
52	142
53	21
55	10
56	10
57	10
61	10
62	82
63	453
64	246
65	50
66	10
69	22
70	10
73	10
74	82
75	182
76	480
77	240
78	999
79	72
80	20
86	10
87	20
88	21
89	669
90	533
91	72
92	72
93	10
94	10
95	10
96	22
102	150
103	850
104	160
105	104
106	120
107	21
108	10
115	10
119	40
120	29
121	22
122	10
130	32
136	62
137	10
139	10
140	10
141	10
149	22
150	10
151	22
152	82
153	30
154	10
163	10
164	10
165	42
166	21
167	24
168	10
169	10
177	13
178	40
179	53
180	93
181	30
182	10
183	10
190	10
194	10
195	10
196	20
206	18
207	130
208	181
209	58
210	9
224	69
225	21
237	40
238	9
271	18
272	10
273	2
288	10
301	100
302	24
303	10
318	8
319	4
