Mass Spectrum: 7H-1,4-Oxathiepin-7-one, tetrahydro-
Formula: C5H8O2S
CAS: 5512-72-1
Molecular weight: 132
m/z	intensity
41	100
43	150
44	380
45	520
46	160
47	240
54	50
59	30
60	480
61	70
62	160
67	40
68	170
69	30
70	80
75	30
76	620
77	70
78	100
79	30
86	30
87	440
88	999
89	160
90	60
91	130
95	30
97	40
98	40
102	40
103	40
104	250
105	160
106	70
132	80
