Mass Spectrum: Bicyclo[2.2.1]heptan-2-ol, 1,7,7-trimethyl-3-(phenylmethylene)-, acetate, exo-
Formula: C19H24O2
CAS: 55122-51-5
Molecular weight: 284
m/z	intensity
41	350
43	999
45	30
51	60
53	90
55	240
57	210
63	30
65	80
67	80
69	90
77	150
78	60
79	70
81	50
83	490
84	30
89	50
91	600
92	60
93	50
95	100
97	60
102	40
103	50
105	170
107	60
108	40
109	80
112	80
115	220
116	50
117	90
119	60
121	30
123	60
127	60
128	190
129	290
130	480
131	160
132	50
133	90
141	150
142	70
143	70
145	30
151	40
152	60
153	60
154	50
155	110
156	40
157	90
158	40
159	60
160	20
165	110
166	80
167	520
168	210
169	70
171	50
173	60
174	30
178	30
179	40
181	390
182	90
183	150
184	40
185	70
186	50
194	40
196	50
199	70
209	350
210	60
213	120
214	380
215	60
224	30
225	440
227	200
228	30
241	70
242	820
243	130
255	50
284	420
285	90
