Mass Spectrum: [1,1'-Biphenyl]-2-carboxaldehyde, 2'-[2-(4-methyl-3-furanyl)ethenyl]-
Formula: C20H16O2
CAS: 55125-11-6
Molecular weight: 288
m/z	intensity
41	60
76	70
87	50
89	70
95	999
96	90
102	60
108	250
109	100
110	90
152	230
165	150
176	80
177	50
178	500
180	120
202	90
203	60
206	150
215	140
216	70
231	90
259	80
288	300
289	70
