Mass Spectrum: 1,4-Oxathian-2-one
Formula: C4H6O2S
CAS: 5512-70-9
Molecular weight: 118
m/z	intensity
35	100
36	180
37	420
38	120
39	40
40	40
43	120
44	280
45	70
46	80
51	50
52	60
53	60
54	80
55	50
56	120
57	80
59	110
60	450
61	160
62	20
73	60
74	999
75	170
76	80
80	30
81	40
82	30
89	30
90	140
91	60
92	30
99	30
118	170
119	8
120	8
