Mass Spectrum: 2,3-Diaminopropanoic acid, 3TMS derivative
Formula: C12H32N2O2Si3
CAS: 55124-76-0
Molecular weight: 320
m/z	intensity
45	50
57	70
59	40
73	450
75	80
77	50
101	90
102	999
103	100
147	90
203	50
204	120
219	150
275	30
291	520
305	30
320	20
