Mass Spectrum: Decanoic acid, 2-(acetyloxy)-1-[(acetyloxy)methyl]ethyl ester
Formula: C17H30O6
CAS: 55124-86-2
Molecular weight: 330
m/z	intensity
42	10
43	50
44	10
57	10
61	20
70	30
71	10
72	20
73	999
74	60
75	10
78	20
79	10
80	10
81	10
82	30
83	10
84	30
85	10
86	30
87	20
88	30
92	20
93	10
94	20
95	20
96	20
97	20
98	60
99	40
100	10
106	80
107	20
108	40
109	20
110	20
111	20
112	60
113	20
115	80
116	60
117	20
120	20
121	10
122	30
123	20
124	20
125	70
126	50
127	20
128	10
129	10
130	110
131	10
132	10
133	10
134	20
135	20
136	40
137	20
138	20
139	20
140	40
141	20
142	20
143	20
144	20
147	10
148	10
149	20
150	30
151	20
152	20
153	10
154	60
155	530
156	70
157	10
158	260
159	250
160	30
161	10
162	40
163	10
164	20
165	20
166	20
167	10
168	40
169	10
170	30
171	30
176	40
177	60
178	30
179	10
180	20
181	10
182	40
183	20
184	20
185	10
186	20
187	10
188	10
190	10
192	10
193	10
194	20
195	10
196	20
198	20
199	10
200	10
206	10
207	10
208	30
209	10
210	20
211	10
212	20
218	60
219	10
220	10
221	10
222	30
223	20
224	20
225	10
226	10
227	20
228	20
231	10
235	10
239	20
242	30
246	10
252	10
254	10
257	220
258	50
259	10
260	10
268	20
270	50
271	20
272	10
