Mass Spectrum: 2,5-Methano-2H-furo[3,2-b]pyrrole, hexahydro-4-methyl-6-[(trimethylsilyl)oxy]-, (2.alpha.,3a.beta.,5.alpha.,6.beta.,6a.beta.)-
Formula: C11H21NO2Si
CAS: 55124-73-7
Molecular weight: 227
m/z	intensity
40	10
41	115
42	440
43	60
44	80
45	175
46	15
47	40
50	5
51	10
52	10
53	50
54	35
55	65
56	40
57	415
58	85
59	110
60	15
61	25
63	5
65	25
66	20
67	60
68	70
69	65
70	70
71	20
72	25
73	951
74	90
75	185
76	15
77	35
78	20
79	30
80	35
81	210
82	120
83	40
84	25
85	20
86	10
87	5
88	10
89	5
91	5
92	15
93	30
94	450
95	85
96	999
97	85
98	20
99	30
100	10
101	35
102	5
103	30
104	5
106	10
107	20
108	100
109	40
110	35
111	30
112	10
113	15
114	25
115	15
116	20
117	15
118	10
120	15
122	5
123	5
124	80
125	15
126	10
127	80
128	20
129	55
130	30
131	10
132	20
136	20
137	35
138	75
139	10
140	5
141	15
142	390
143	105
144	125
145	25
146	10
151	5
152	10
154	10
155	35
156	30
157	10
158	45
159	10
160	5
166	5
167	10
168	25
169	45
170	40
171	200
172	35
173	15
181	10
182	180
183	45
184	60
185	15
186	60
187	10
188	5
196	15
197	55
198	110
199	50
200	15
210	5
212	260
213	45
214	15
226	20
227	415
228	90
229	30
