Mass Spectrum: Propanedioic acid, (1-pyrrolidinylmethylene)-, diethyl ester
Formula: C12H19NO4
CAS: 55133-78-3
Molecular weight: 241
m/z	intensity
26	100
27	300
29	440
30	100
31	200
39	150
40	210
41	350
42	240
43	240
44	260
45	120
46	60
52	50
53	110
54	150
55	240
56	80
67	90
68	120
69	150
70	530
71	90
72	50
79	60
80	50
81	40
82	70
83	60
94	150
95	600
96	100
97	90
98	250
99	70
103	60
106	40
111	80
112	100
113	60
115	70
122	160
123	999
124	330
125	70
126	50
127	50
128	60
133	50
139	100
140	350
141	60
150	90
151	90
152	100
166	200
167	70
168	200
169	90
180	60
181	60
182	60
185	100
195	660
196	950
197	100
209	32
210	30
211	30
212	30
241	420
242	90
