Mass Spectrum: 2-Hydroxybutyric acid, 2TMS derivative
Formula: C10H24O3Si2
CAS: 55133-93-2
Molecular weight: 248
m/z	intensity
26	3
27	11
28	13
29	5
30	1
31	10
39	5
40	1
41	19
42	3
43	47
44	30
45	155
46	8
47	37
48	1
49	1
51	3
52	9
54	0
55	17
56	1
57	13
58	19
59	54
60	6
61	19
65	0
66	90
67	8
68	1
69	12
70	4
71	5
72	22
73	999
74	92
75	127
76	9
77	6
79	11
80	1
81	50
82	4
85	7
87	3
89	0
93	0
94	1
95	15
96	0
97	0
99	6
101	7
102	3
103	3
105	4
109	3
115	16
116	3
117	10
118	2
119	3
127	1
128	1
129	4
130	19
131	667
132	74
133	57
134	7
135	3
142	1
143	12
144	2
145	3
147	484
148	71
149	43
150	5
169	1
175	4
189	2
190	36
191	7
192	4
204	1
205	56
206	10
207	2
217	1
219	6
233	24
234	3
235	2
