Mass Spectrum: Benzene, (2,3-dimethyldecyl)-
Formula: C18H30
CAS: 55134-08-2
Molecular weight: 246
m/z	intensity
14	9
16	6
26	5
27	49
29	124
32	43
39	44
40	11
41	249
42	35
43	564
44	31
51	13
52	4
53	14
54	6
55	137
56	67
57	999
58	43
63	7
65	52
66	20
67	11
68	6
69	69
70	108
71	564
72	31
77	20
78	13
79	13
81	4
82	5
83	34
84	19
85	405
86	27
89	8
90	6
91	524
92	470
93	36
97	13
98	13
99	138
100	11
103	16
104	12
105	49
106	7
111	7
112	5
113	55
115	15
116	6
117	27
118	18
119	32
124	9
125	53
126	15
128	4
129	4
131	8
133	2
139	4
141	3
145	13
146	4
147	5
154	120
155	119
156	14
244	2
246	72
247	15
248	1
