Mass Spectrum: Benzoic acid, 2-methyl-, (2-methylphenyl)methyl ester
Formula: C16H16O2
CAS: 55133-99-8
Molecular weight: 240
m/z	intensity
69	1
70	1
71	1
73	1
74	6
75	9
76	9
77	145
78	58
79	79
80	5
81	1
82	1
83	1
84	1
85	1
86	2
87	3
88	2
89	45
90	33
91	246
92	25
93	12
94	1
95	1
96	1
97	1
98	1
99	1
101	2
102	10
103	73
104	916
105	999
106	86
107	5
108	1
112	1
113	1
115	1
116	1
117	1
118	14
119	364
120	37
121	18
122	2
127	1
128	1
129	1
130	1
131	1
132	1
133	10
134	2
135	10
136	2
137	1
139	1
141	1
142	1
147	1
148	3
149	2
150	1
151	1
152	1
153	1
154	1
155	1
163	1
164	1
165	2
166	2
167	1
168	1
177	1
178	1
179	2
180	2
181	7
182	1
192	1
193	1
194	1
195	6
196	1
197	1
221	1
222	16
223	3
224	1
225	4
226	1
227	1
239	1
240	5
241	1
242	1
