Mass Spectrum: Benzenepropanol, .beta.-(4-chlorophenyl)-
Formula: C15H15ClO
CAS: 55133-86-3
Molecular weight: 246
m/z	intensity
26	6
27	20
28	15
29	10
35	3
36	6
37	2
38	10
39	98
40	15
41	42
42	7
43	49
44	1
45	2
49	3
50	24
51	76
52	20
53	15
54	2
55	7
56	2
57	4
62	12
63	73
64	22
65	196
66	15
67	3
68	1
69	2
72	1
73	12
74	5
75	32
76	10
77	176
78	39
79	59
80	4
87	4
88	4
89	115
90	54
91	999
92	824
93	83
94	5
99	29
100	2
101	32
102	24
103	373
104	37
105	4
106	1
107	4
108	1
109	2
110	1
111	15
112	12
113	17
114	6
115	24
116	6
117	3
118	3
119	15
120	44
121	706
122	63
123	4
124	2
125	314
126	686
127	140
128	226
129	20
130	1
131	3
132	2
133	1
134	1
135	1
136	1
137	78
138	12
139	29
140	3
141	3
149	4
150	2
151	3
152	4
153	2
154	66
155	120
156	32
157	40
158	3
163	2
164	1
165	7
166	2
167	1
168	1
175	1
176	2
177	2
178	7
179	2
180	1
189	4
190	2
191	4
192	4
193	6
194	2
227	2
228	6
229	1
230	2
244	2
245	2
246	47
247	8
248	16
249	3
