Mass Spectrum: Methyl 3,4,6-tri-O-acetyl-N-(N-benzyloxycarbonyl-alpha-l-aspartyl)-beta-d-glucosaminide
Formula: C25H32N2O13
CAS: 5513-59-7
Molecular weight: 568
m/z	intensity
12	3
13	3
14	28
15	18
16	3
17	28
18	150
19	1
20	1
21	1
22	1
24	2
25	7
26	40
27	54
28	350
29	46
30	22
31	30
32	15
33	3
36	2
37	6
38	13
39	57
40	22
41	65
42	175
43	824
44	132
45	52
46	8
49	5
50	36
51	71
52	31
53	30
54	16
55	47
56	30
57	16
58	22
59	296
60	47
61	24
62	11
63	32
64	9
65	92
66	14
67	11
68	24
69	42
70	82
71	24
72	67
73	41
74	20
75	11
76	11
77	155
78	48
79	263
80	86
81	104
82	35
83	14
84	33
85	37
86	49
87	36
88	43
89	43
90	59
91	999
92	182
93	12
94	9
95	12
96	56
97	78
98	80
99	46
100	20
101	137
102	22
103	63
104	17
105	47
106	38
107	332
108	312
109	45
110	16
111	14
112	59
113	20
114	64
115	84
116	49
117	9
118	4
119	2
120	7
121	5
122	11
123	10
124	17
125	12
126	20
127	80
128	18
129	9
130	5
131	4
132	17
133	7
134	4
135	4
136	6
137	6
138	14
139	32
140	59
141	62
142	12
143	7
144	10
145	55
146	6
147	3
148	2
149	5
150	7
151	13
152	13
153	8
154	14
155	10
156	14
157	29
158	40
159	59
160	9
161	4
162	4
163	3
164	4
165	9
166	7
167	12
168	9
169	143
170	22
171	11
172	3
173	1
174	2
175	2
176	3
177	10
178	10
179	9
180	3
181	12
182	50
183	59
184	14
185	7
186	4
187	28
188	4
189	2
190	1
191	2
192	7
193	12
194	9
195	25
196	7
197	23
198	17
199	9
200	160
201	44
202	6
203	1
204	4
205	3
206	5
207	11
208	4
209	7
210	19
211	31
212	6
213	79
214	15
215	5
216	2
217	2
218	1
219	9
220	10
221	30
222	13
223	4
224	5
225	15
226	6
227	6
228	8
229	9
230	4
231	2
232	36
233	6
234	1
235	2
236	3
237	24
238	48
239	52
240	7
241	15
242	117
243	37
244	6
245	1
246	1
247	2
248	2
249	31
250	6
251	3
252	3
253	5
254	2
255	41
256	13
257	3
259	3
260	1
261	2
262	9
263	3
264	9
265	4
266	5
267	7
268	1
269	1
270	1
271	1
272	1
273	3
277	2
278	1
279	9
280	12
281	6
282	1
283	1
284	1
285	3
287	3
288	1
289	1
290	10
291	5
292	5
293	1
294	1
295	1
296	1
297	44
298	22
299	4
300	3
301	1
302	14
303	12
304	3
307	1
308	1
309	2
310	1
311	1
315	1
316	1
319	2
320	1
322	1
323	2
325	1
327	1
328	3
329	3
332	2
333	1
339	3
340	3
341	4
345	4
346	1
349	1
357	1
387	2
388	3
389	1
398	1
430	1
431	1
