Mass Spectrum: Carbanilic acid, m-chloro-, 1-methylbutyl ester
Formula: C12H16ClNO2
CAS: 5513-20-2
Molecular weight: 241
m/z	intensity
41	181
42	50
43	999
44	37
45	116
46	0
47	21
48	10
52	8
53	10
54	3
55	94
56	5
57	6
58	3
59	6
60	0
61	3
62	10
63	41
64	26
65	27
66	3
67	4
68	0
69	16
70	14
71	434
72	25
73	33
74	6
75	37
76	11
77	3
78	1
80	1
82	2
83	6
87	16
88	11
89	5
90	33
91	29
92	15
93	6
97	2
98	3
99	71
100	12
101	23
102	4
108	2
110	1
111	49
112	4
113	16
114	2
118	3
119	4
120	0
124	2
125	18
126	50
127	627
128	53
129	206
130	14
133	1
135	2
136	11
137	2
138	0
140	6
142	2
153	33
154	157
155	22
156	50
157	4
166	0
168	64
169	7
170	33
171	392
172	60
173	130
174	19
175	1
182	9
183	0
184	3
198	6
200	2
207	1
214	0
227	0
239	0
241	448
242	64
243	151
244	21
245	2
