Mass Spectrum: 1,3-Triazetidinedicarboxylic acid, 2-ethyl-4-methyl-, dimethyl ester
Formula: C8H15N3O4
CAS: 55131-06-1
Molecular weight: 217
m/z	intensity
15	746
27	193
28	88
29	777
30	216
31	62
32	3
41	66
42	539
43	219
44	161
45	119
56	230
57	207
58	396
59	999
60	125
61	37
70	285
71	39
72	38
75	23
83	31
84	26
85	46
86	26
101	17
102	175
103	27
115	9
116	42
117	23
158	114
159	11
188	42
217	193
218	18
219	2
