Mass Spectrum: Iron, dicarbonyl(.eta.5-2,4-cyclopentadien-1-yl)[2-(2-piperidinyl)ethyl]-
Formula: C14H19FeNO2
CAS: 55134-12-8
Molecular weight: 289
m/z	intensity
39	450
40	171
41	504
42	504
43	396
44	396
54	270
55	666
56	999
57	504
65	234
66	414
67	117
68	153
69	279
70	234
84	945
85	504
96	504
98	396
110	459
111	513
112	522
121	900
122	198
149	108
150	135
177	85
178	88
211	32
213	12
231	36
233	87
261	18
289	5
