Mass Spectrum: Acetamide, N-[2-(acetyloxy)-2-[4-(acetyloxy)-3-methoxyphenyl]ethyl]-N-methyl-
Formula: C16H21NO6
CAS: 55145-64-7
Molecular weight: 323
m/z	intensity
12	10
13	20
14	70
15	360
16	15
17	38
18	60
19	1
24	3
25	4
26	8
27	28
28	94
29	55
30	8
31	17
32	9
37	3
38	8
39	54
40	7
41	33
42	206
43	999
44	300
45	90
49	2
50	25
51	70
52	30
53	23
54	6
55	22
56	158
57	9
58	3
59	1
60	12
61	2
62	7
63	32
64	19
65	64
66	25
67	10
68	5
69	3
70	1
71	1
72	2
73	2
74	5
75	6
76	11
77	68
78	30
79	30
80	11
81	25
82	5
83	1
84	1
85	1
86	47
87	51
88	3
89	17
90	6
91	30
92	9
93	30
94	30
95	8
96	1
97	1
98	2
100	1
101	1
102	3
103	7
104	12
105	18
106	31
107	30
108	8
109	7
110	3
111	1
115	1
116	4
117	8
118	48
119	16
120	14
121	7
122	10
123	8
124	3
125	3
126	1
127	1
128	1
129	4
130	5
131	4
132	12
133	10
134	40
135	16
136	41
137	20
138	5
139	1
141	1
142	1
143	1
144	1
145	1
146	70
147	20
148	19
149	8
150	18
151	19
152	18
153	44
154	3
157	1
158	1
159	1
160	3
161	3
162	11
163	6
164	32
165	4
166	7
167	1
174	1
175	1
176	1
177	4
178	29
179	156
180	23
181	2
185	1
186	1
190	1
191	1
192	1
193	1
196	5
197	1
204	1
206	2
207	1
208	14
209	2
218	1
220	5
221	82
222	10
223	1
237	1
249	1
251	4
252	1
263	27
264	4
