Mass Spectrum: Benzoic acid, 2-iodo-, 2-oxo-2-phenylethyl ester
Formula: C15H11IO3
CAS: 55153-31-6
Molecular weight: 366
m/z	intensity
39	30
50	70
51	80
76	120
77	200
91	50
105	999
106	110
118	40
203	70
231	170
366	210
367	40
