Mass Spectrum: Benzoic acid, 2-bromo-, 2-oxo-2-phenylethyl ester
Formula: C15H11BrO3
CAS: 55153-28-1
Molecular weight: 318
m/z	intensity
51	80
55	30
57	30
65	30
75	40
76	50
77	200
78	40
91	40
105	999
106	100
118	130
155	50
157	50
183	120
185	120
318	30
320	30
