Mass Spectrum: Benzoic acid, 2-fluoro-, 2-oxo-2-phenylethyl ester
Formula: C15H11FO3
CAS: 55153-24-7
Molecular weight: 258
m/z	intensity
41	30
51	90
69	30
75	50
77	220
95	110
105	999
106	90
118	160
123	200
258	10
