Mass Spectrum: Ethanone, 2-(benzoyloxy)-1-(4-nitrophenyl)-
Formula: C15H11NO5
CAS: 55153-34-9
Molecular weight: 285
m/z	intensity
50	50
51	80
75	40
76	100
77	400
78	40
92	30
104	90
105	999
106	150
120	110
134	30
135	100
150	30
151	30
225	50
239	50
255	140
285	50
