Mass Spectrum: Ethanone, 2-[(3-nitrobenzoyl)oxy]-1-phenyl-
Formula: C15H11NO5
CAS: 55153-32-7
Molecular weight: 285
m/z	intensity
39	120
41	70
44	70
50	70
51	170
55	40
57	50
64	50
65	110
75	70
76	340
77	90
91	60
92	100
104	40
105	999
106	80
118	30
120	210
150	50
255	110
