Mass Spectrum: Benzoic acid, 3-bromo-, 2-oxo-2-phenylethyl ester
Formula: C15H11BrO3
CAS: 55153-27-0
Molecular weight: 318
m/z	intensity
39	50
41	30
43	30
50	70
51	100
55	30
57	30
65	30
75	70
76	90
77	240
91	30
105	999
106	80
118	90
155	70
157	70
183	50
185	50
318	30
320	30
