Mass Spectrum: Benzoic acid, 3-methoxy-, 2-oxo-2-phenylethyl ester
Formula: C16H14O4
CAS: 55153-18-9
Molecular weight: 270
m/z	intensity
29	70
39	60
41	70
43	40
50	40
51	70
55	40
56	40
63	40
64	60
65	40
76	40
77	300
92	90
105	999
106	100
107	120
135	400
136	40
270	240
271	40
