Mass Spectrum: Benzoic acid, 4-bromo-, 2-oxo-2-phenylethyl ester
Formula: C15H11BrO3
CAS: 55153-26-9
Molecular weight: 318
m/z	intensity
51	60
75	50
76	60
77	170
105	999
106	80
118	50
155	50
157	50
183	70
185	70
318	10
320	10
