Mass Spectrum: Benzoic acid, 4-fluoro-, 2-oxo-2-phenylethyl ester
Formula: C15H11FO3
CAS: 55153-22-5
Molecular weight: 258
m/z	intensity
51	60
75	40
77	210
95	130
105	999
106	90
118	80
123	210
258	10
