Mass Spectrum: Benzoic acid, 2-chloro-, 2-oxo-2-phenylethyl ester
Formula: C15H11ClO3
CAS: 55153-25-8
Molecular weight: 274
m/z	intensity
33	0
34	0
35	1
36	6
37	2
38	7
39	17
40	11
41	3
42	3
43	2
44	8
45	0
48	0
50	70
51	114
52	7
53	1
55	0
56	0
57	0
60	0
61	4
62	3
63	7
64	2
65	20
66	1
69	0
70	0
71	0
72	0
73	4
74	24
75	99
76	44
77	269
78	19
79	0
81	0
84	3
85	9
86	1
87	3
89	3
90	2
91	24
92	2
99	0
101	0
102	1
105	999
106	77
107	4
108	0
109	1
111	109
112	9
113	32
114	2
118	116
119	9
120	1
121	0
122	0
125	0
126	0
127	0
137	1
139	176
140	14
141	53
142	4
143	0
150	0
151	0
152	1
153	0
156	0
158	0
244	0
246	0
274	2
275	0
276	0
