Mass Spectrum: Benzoic acid, 4-hydroxy-, 2-oxo-2-phenylethyl ester
Formula: C15H12O4
CAS: 55153-15-6
Molecular weight: 256
m/z	intensity
39	120
50	30
51	80
52	80
63	30
64	30
65	160
77	230
78	30
91	30
93	150
105	999
106	90
118	70
121	950
122	100
226	30
256	240
257	50
