Mass Spectrum: Ethanone, 2-(formyloxy)-1-phenyl-
Formula: C9H8O3
CAS: 55153-12-3
Molecular weight: 164
m/z	intensity
29	30
31	40
50	40
51	120
77	440
78	40
105	999
106	90
164	20
