Mass Spectrum: Benzoic acid, 3-fluoro-, 2-oxo-2-phenylethyl ester
Formula: C15H11FO3
CAS: 55153-23-6
Molecular weight: 258
m/z	intensity
51	60
75	40
77	200
95	110
105	999
106	100
118	60
123	150
258	10
