Mass Spectrum: Benzoic acid, 2-methyl-, 2-oxo-2-phenylethyl ester
Formula: C16H14O3
CAS: 55153-21-4
Molecular weight: 254
m/z	intensity
39	120
40	40
41	60
43	50
45	50
50	70
51	170
55	30
56	30
57	30
63	70
65	220
76	50
77	320
78	50
89	70
90	70
91	490
92	50
105	999
106	100
118	570
119	960
120	110
254	190
255	40
