Mass Spectrum: Benzoic acid, 3-methyl-, 2-oxo-2-phenylethyl ester
Formula: C16H14O3
CAS: 55153-20-3
Molecular weight: 254
m/z	intensity
39	50
41	30
51	70
65	90
77	60
91	230
105	999
106	80
118	160
119	460
120	50
254	40
