Mass Spectrum: Benzoic acid, 2-hydroxy-, 2-oxo-2-phenylethyl ester
Formula: C15H12O4
CAS: 55153-16-7
Molecular weight: 256
m/z	intensity
39	130
40	50
41	30
44	50
50	40
51	110
63	40
64	30
65	150
77	260
78	30
91	70
92	50
93	80
105	999
106	100
120	190
121	390
122	40
225	70
256	190
257	40
