Mass Spectrum: 1,3,2-Dioxaborinane, 2-(pentyloxy)-
Formula: C8H17BO3
CAS: 55162-68-0
Molecular weight: 172
m/z	intensity
41	400
42	290
43	110
44	30
45	100
53	20
54	20
55	200
56	40
57	40
58	20
59	40
67	10
69	60
70	520
71	90
72	30
74	20
75	80
84	50
85	160
86	20
87	40
89	20
99	10
100	10
101	40
102	180
103	700
104	30
113	10
114	160
115	999
116	60
117	30
129	10
130	2
140	1
141	4
142	1
143	2
144	3
147	2
155	1
156	1
157	1
158	1
159	2
170	2
171	5
172	1
