Mass Spectrum: 2-Thiophenecarboxylic acid, 5-(1,1-dimethylethoxy)-, ethyl ester
Formula: C11H16O3S
CAS: 55162-42-0
Molecular weight: 228
m/z	intensity
40	98
41	563
42	42
43	56
44	70
45	140
55	140
56	140
57	999
58	56
70	112
71	140
72	140
73	56
99	98
100	140
116	70
126	140
127	295
128	70
144	197
157	70
172	450
173	112
174	56
184	70
213	14
