Mass Spectrum: 4-Pentenoic acid, 5-ethoxy-, ethyl ester, (E)-
Formula: C9H16O3
CAS: 55162-84-0
Molecular weight: 172
m/z	intensity
41	120
42	100
43	90
44	50
45	60
53	50
55	60
57	800
58	30
60	60
61	30
69	90
70	220
71	80
72	50
73	80
83	20
85	999
86	60
88	20
97	460
98	380
99	130
101	10
115	20
127	130
128	10
143	50
172	290
173	30
