Mass Spectrum: Pregn-4-ene-3,20-dione, 14-methyl-
Formula: C22H32O2
CAS: 55162-96-4
Molecular weight: 328
m/z	intensity
40	19
41	313
42	13
43	999
45	15
50	13
51	42
52	19
53	134
54	13
55	281
56	7
57	18
63	9
65	75
66	20
67	216
68	35
69	81
71	47
77	214
78	46
79	264
80	50
81	198
82	16
83	38
84	36
85	68
91	259
92	36
93	195
94	48
95	281
96	38
97	43
99	6
103	18
104	8
105	155
106	47
107	225
108	15
109	143
110	12
111	69
115	39
116	21
117	34
118	16
119	144
120	50
121	196
122	158
123	180
124	780
125	94
127	7
128	21
129	28
130	12
131	63
132	14
133	121
134	85
135	99
136	79
137	161
138	44
141	9
142	12
143	16
144	12
145	69
146	32
147	140
148	154
149	327
150	17
151	47
152	7
157	17
158	13
159	70
160	28
161	156
162	48
163	117
164	12
165	7
170	9
171	19
173	37
174	34
175	45
176	26
177	45
178	9
183	7
184	6
185	33
186	13
187	60
188	9
189	49
190	28
191	63
192	20
199	9
201	30
202	19
203	15
204	36
205	118
211	7
213	9
215	30
226	9
227	7
229	11
239	6
243	76
244	6
245	9
267	34
268	12
270	36
271	41
285	19
286	130
310	13
313	100
328	450
