Mass Spectrum: 1,3,2-Dioxaborolane, 2-[(2-methylcyclohexyl)oxy]-
Formula: C9H17BO3
CAS: 55162-66-8
Molecular weight: 184
m/z	intensity
41	380
42	150
43	230
44	160
45	110
50	20
51	40
52	20
53	140
54	250
55	520
56	70
57	580
58	160
59	60
60	20
61	20
63	10
65	40
66	50
67	400
68	950
69	80
70	90
71	280
72	60
73	10
77	40
78	20
79	70
80	30
81	910
82	80
83	40
84	20
85	50
86	50
87	100
88	50
89	50
90	10
91	20
93	20
95	80
96	999
97	140
99	40
100	20
101	60
112	20
113	40
114	110
115	30
126	100
127	410
128	50
129	20
140	50
141	170
142	30
155	30
156	10
169	10
183	10
184	40
