Mass Spectrum: 2H-Pyran, 2-[[(3.beta.,5.alpha.)-androstan-3-yl]oxy]tetrahydro-
Formula: C24H40O2
CAS: 55162-80-6
Molecular weight: 360
m/z	intensity
41	200
42	10
43	120
44	10
53	40
54	20
55	170
56	70
57	90
58	20
65	10
67	200
68	30
69	40
77	40
78	10
79	90
80	20
81	160
82	20
83	100
84	50
85	999
86	70
91	70
92	20
93	80
94	30
95	240
96	20
97	10
101	30
102	10
103	40
105	40
106	20
107	80
108	30
109	130
110	10
119	30
120	10
121	60
122	10
123	70
133	20
135	100
136	10
137	30
145	10
147	20
148	20
149	190
150	30
151	10
161	20
162	10
163	130
164	10
175	20
177	80
178	10
189	30
203	30
204	20
217	10
241	10
243	40
256	110
257	30
258	50
259	430
260	90
261	10
276	10
