Mass Spectrum: Pentanal, 5-(benzoyloxy)-
Formula: C12H14O3
CAS: 55162-83-9
Molecular weight: 206
m/z	intensity
41	90
42	20
43	30
44	20
50	70
51	191
52	20
55	90
56	90
57	30
74	10
75	10
76	20
77	484
78	40
79	40
83	20
84	90
85	10
101	80
105	999
106	101
122	131
123	292
124	20
178	20
