Mass Spectrum: 1,3,2-Dioxaborinane, 2-(heptyloxy)-4,6-dimethyl-
Formula: C12H25BO3
CAS: 55162-70-4
Molecular weight: 228
m/z	intensity
41	505
42	272
43	414
44	50
45	181
53	40
54	50
55	505
56	404
57	525
58	50
59	20
67	70
68	101
69	686
70	525
71	121
72	20
73	20
81	60
82	20
83	60
84	30
85	50
86	20
87	30
88	262
89	999
90	30
91	20
95	20
96	60
97	80
98	262
99	50
100	80
101	313
102	30
103	40
112	20
113	40
114	30
115	101
116	20
117	30
127	20
128	30
129	80
130	272
131	999
132	60
142	181
143	696
144	50
157	20
185	20
212	30
213	101
214	20
226	20
227	30
228	10
