Mass Spectrum: Thiophene, 2,5-bis(1,1-dimethylethoxy)-
Formula: C12H20O2S
CAS: 55162-43-1
Molecular weight: 228
m/z	intensity
40	222
41	999
42	311
43	422
45	111
51	111
52	111
54	111
55	111
56	222
57	511
58	311
59	88
70	22
71	11
72	11
86	53
87	8
88	8
99	11
114	40
115	11
116	155
117	22
118	8
172	11
228	11
