Mass Spectrum: Androst-5-en-17-one, 16-(1,1-dimethylethyl)-3-hydroxy-, (3.beta.,16.alpha.)-
Formula: C23H36O2
CAS: 55162-58-8
Molecular weight: 344
m/z	intensity
40	58
41	999
42	66
43	358
44	58
45	95
46	33
50	8
51	33
52	20
53	200
54	29
55	625
56	41
57	691
58	33
59	8
63	8
65	87
66	33
67	270
68	95
69	241
70	37
71	29
72	4
73	4
75	4
76	4
77	216
78	58
79	345
80	50
81	320
82	41
83	108
84	12
85	16
89	4
90	4
91	416
92	87
93	270
94	104
95	187
96	54
97	95
98	16
99	8
100	4
102	4
103	41
104	29
105	358
106	91
107	287
108	79
109	91
110	20
111	29
112	8
113	8
114	8
115	62
116	33
117	125
118	58
119	225
120	150
121	191
122	50
123	54
124	25
125	33
126	4
127	25
128	58
129	87
130	45
131	154
132	54
133	166
134	58
135	137
136	33
137	66
138	16
139	16
141	37
142	29
143	137
144	54
145	237
146	62
147	125
148	37
149	54
150	16
151	16
152	16
153	120
154	25
155	33
156	12
157	112
158	91
159	187
160	54
161	75
162	25
163	33
164	12
165	16
166	4
167	8
168	4
169	33
170	16
171	83
172	50
173	112
174	54
175	62
176	25
177	33
178	8
179	16
180	4
181	8
182	4
183	29
184	16
185	91
186	41
187	50
188	20
189	29
190	12
191	16
192	8
193	8
194	4
195	20
196	4
197	41
198	20
199	129
200	33
201	33
202	12
203	20
204	16
205	33
206	20
207	16
208	4
209	25
210	4
211	79
212	25
213	145
214	87
215	50
216	16
217	33
218	12
219	20
220	8
221	4
223	12
224	4
225	16
226	37
227	45
228	20
229	37
230	12
231	66
232	58
233	116
234	29
235	8
236	4
237	29
238	4
239	8
241	33
242	16
243	8
244	100
245	33
246	16
247	4
251	62
252	16
253	8
254	4
255	29
256	8
257	8
258	4
259	83
260	20
261	4
265	4
267	8
268	8
269	108
270	37
271	16
272	12
273	16
274	4
277	4
281	4
283	41
284	20
285	16
286	4
287	50
288	33
289	8
293	58
294	16
295	12
296	4
297	8
298	20
299	8
300	8
301	20
302	4
308	8
309	12
310	12
311	387
312	100
313	16
314	4
316	16
317	4
324	8
325	8
326	204
327	58
328	33
329	50
330	12
342	12
343	4
344	312
345	79
346	8
