Mass Spectrum: Cholestan-3-one, 2-(1-methylethyl)-, (2.alpha.,5.alpha.)-
Formula: C30H52O
CAS: 55162-60-2
Molecular weight: 428
m/z	intensity
41	514
42	89
43	999
44	79
45	9
53	69
54	19
55	524
56	79
57	346
58	29
59	9
65	9
66	9
67	207
68	79
69	396
70	59
71	148
77	69
78	19
79	158
80	39
81	346
82	69
83	59
84	19
85	19
91	99
92	19
93	207
94	59
95	306
96	49
97	108
98	79
99	29
105	108
106	49
107	207
108	89
109	207
110	19
111	29
117	19
119	79
120	49
121	158
122	69
123	158
124	59
125	29
131	29
133	69
134	19
135	79
136	19
137	59
139	19
145	29
146	9
147	69
148	29
149	59
151	29
152	19
153	9
154	9
156	9
157	9
159	29
160	9
161	79
162	29
163	59
164	19
165	29
166	79
167	29
168	19
173	29
174	29
175	49
176	69
177	29
178	19
179	19
180	19
187	9
188	9
189	19
190	19
191	19
193	9
201	9
202	9
203	39
204	9
205	49
206	29
207	29
208	29
215	9
217	19
218	9
219	9
220	9
221	9
231	19
232	39
233	19
241	9
245	19
246	99
247	29
248	9
255	9
257	19
258	9
259	49
260	19
261	9
263	9
272	29
273	336
274	168
275	69
276	9
277	9
278	9
287	9
288	138
289	39
301	29
302	9
313	19
314	19
315	49
316	108
317	19
329	9
330	19
331	9
357	9
385	29
386	267
387	89
388	9
399	9
400	29
413	178
414	59
415	9
428	693
429	217
430	39
