Mass Spectrum: Aspidospermidin-17-ol, 16-methoxy-1-(1-oxopropyl)-
Formula: C23H32N2O3
CAS: 5516-66-5
Molecular weight: 384
m/z	intensity
41	138
42	90
43	107
44	54
45	4
50	7
51	17
52	14
53	27
54	22
55	118
56	77
57	235
58	38
59	5
60	1
62	1
63	7
64	4
65	20
66	7
67	54
68	28
69	85
70	45
71	18
72	2
73	7
74	1
75	1
76	5
77	32
78	35
79	25
80	22
81	32
82	21
83	11
84	11
85	5
86	5
87	1
88	1
89	7
90	5
91	21
92	7
93	12
94	27
95	32
96	31
97	7
98	2
101	1
102	4
103	10
104	10
105	10
106	5
107	5
108	20
109	28
110	28
111	7
112	2
113	1
115	11
116	7
117	12
118	10
119	5
120	7
121	2
122	44
123	17
124	999
125	145
126	10
127	4
128	7
129	5
130	15
131	5
132	14
133	10
134	7
135	4
136	7
137	2
138	22
139	4
140	2
141	4
142	7
143	5
144	7
145	7
146	17
147	5
148	8
149	2
150	7
151	1
152	74
153	10
154	4
155	2
156	5
157	2
158	10
159	7
160	12
161	15
162	10
163	1
164	7
165	1
166	1
167	1
168	1
169	2
170	5
171	2
172	5
173	2
174	12
175	10
176	22
177	7
181	1
182	2
183	4
184	7
185	2
186	4
187	7
189	14
190	45
191	8
192	1
196	2
197	2
198	5
199	2
200	8
201	5
202	12
203	5
204	2
207	12
208	1
209	1
210	1
211	2
212	4
213	5
214	5
215	7
216	5
217	1
224	1
225	1
226	4
227	7
228	5
229	7
230	2
239	1
240	2
241	2
242	2
243	4
244	1
253	2
254	1
255	4
256	4
257	1
267	1
268	1
269	2
270	1
281	4
282	1
283	4
284	1
295	1
297	2
298	2
299	2
300	17
301	2
311	2
312	1
313	1
325	1
327	20
328	22
329	4
341	1
355	24
356	24
357	4
367	1
369	1
370	1
382	1
383	75
384	142
385	35
386	4
