Mass Spectrum: 1,5-Pentanediol, monobenzoate
Formula: C12H16O3
CAS: 55162-82-8
Molecular weight: 208
m/z	intensity
41	110
42	20
43	60
44	150
45	40
50	60
51	160
52	20
53	30
55	50
56	50
57	60
66	20
67	70
68	330
69	40
74	20
75	20
76	30
77	500
78	40
79	50
85	70
86	100
94	20
105	999
106	70
122	130
123	360
124	40
