Mass Spectrum: 1,3,2-Dioxaborinane, 2-[[(3.beta.,5.alpha.)-cholestan-3-yl]oxy]-4,6-dimethyl-
Formula: C32H57BO3
CAS: 55162-72-6
Molecular weight: 500
m/z	intensity
40	29
41	504
42	316
43	435
44	99
45	465
46	9
50	9
53	59
54	19
55	465
56	59
57	306
58	19
59	9
65	19
66	19
67	336
68	128
69	871
70	79
71	198
72	9
73	9
77	39
78	19
79	227
80	59
81	504
82	99
83	207
84	29
85	79
86	39
87	29
88	99
89	336
90	9
91	148
92	49
93	326
94	178
95	554
96	69
97	138
98	9
99	19
100	19
101	59
102	9
104	19
105	178
106	198
107	514
108	425
109	267
110	59
111	79
112	19
113	39
114	287
115	999
116	59
117	49
118	19
119	158
120	148
121	316
122	188
123	227
124	69
125	29
126	19
127	39
128	39
129	118
130	49
131	188
132	29
133	148
134	108
135	207
136	148
137	79
138	29
139	19
140	29
141	59
142	29
143	49
144	19
145	108
146	39
147	247
148	148
149	257
150	69
151	49
152	39
153	19
154	19
155	39
156	188
157	465
158	89
159	79
160	69
161	148
162	89
163	89
164	29
165	19
166	59
167	29
169	29
170	29
171	49
172	29
173	69
174	49
175	89
176	49
177	29
178	29
179	19
182	59
183	148
184	39
185	49
186	19
187	49
188	39
189	49
190	49
191	39
192	19
193	29
195	19
197	39
198	138
199	39
200	59
201	168
202	39
203	59
204	29
205	19
206	29
207	19
208	29
213	29
215	673
216	514
217	544
218	178
219	69
220	20
221	10
222	10
223	10
225	20
226	178
227	376
228	40
229	30
230	287
231	148
232	99
233	158
234	237
235	50
236	40
237	20
240	29
241	25
242	50
243	100
244	10
245	10
246	10
247	25
248	50
249	10
255	10
257	70
258	10
259	10
260	15
261	15
262	150
263	50
264	15
273	10
274	10
275	20
276	20
277	50
278	20
285	20
287	10
288	15
289	10
301	10
302	10
303	10
313	10
314	30
315	30
316	10
328	20
329	10
331	15
332	10
342	10
344	20
345	70
346	140
347	30
355	287
356	99
357	89
358	49
359	49
360	59
368	9
369	19
370	386
371	118
372	128
373	99
374	19
386	59
387	19
388	386
389	108
390	9
442	19
443	99
444	29
484	9
485	29
486	9
498	9
499	118
500	485
501	168
502	29
