Mass Spectrum: Thiophene, 2-ethyl-5-[(2-ethylbutyl)thio]-
Formula: C12H20S2
CAS: 55162-44-2
Molecular weight: 228
m/z	intensity
13	1
14	8
15	16
16	0
25	0
26	13
27	263
28	26
29	300
30	9
31	0
32	144
33	1
34	2
35	0
37	2
38	60
39	197
40	24
41	366
42	29
43	999
44	35
45	170
46	9
47	20
48	19
49	1
50	12
51	37
52	16
53	68
54	7
55	109
56	14
57	100
58	28
59	121
60	8
61	11
62	3
63	12
64	5
65	63
66	26
67	46
68	4
69	22
70	37
71	81
72	7
73	16
74	2
75	2
76	4
77	38
78	25
79	11
80	1
81	7
82	15
83	16
84	52
85	150
86	11
87	4
88	5
89	33
90	2
91	8
92	2
93	4
94	1
95	20
96	11
97	78
98	9
99	124
100	8
101	8
102	1
103	3
104	0
105	0
106	0
107	0
108	6
109	24
110	49
111	47
112	28
113	18
114	16
115	11
116	13
117	3
118	2
119	1
120	0
121	1
122	1
123	5
124	6
125	5
126	0
127	9
128	11
129	398
130	29
131	37
132	2
133	1
134	0
135	1
136	0
137	0
138	0
139	2
140	1
141	5
142	9
143	74
144	766
145	68
146	64
147	5
148	2
149	0
150	0
151	0
152	0
153	0
154	0
155	1
156	0
157	21
158	3
159	2
160	0
165	0
166	0
167	0
168	0
169	0
170	0
171	0
172	0
173	0
176	0
181	0
183	0
184	0
185	0
186	0
198	0
199	0
200	0
201	0
202	0
207	0
213	2
214	0
215	0
226	0
227	1
228	181
229	28
230	18
231	2
232	0
