Mass Spectrum: 1,3-Propanediamine, 2-phenyl-
Formula: C9H14N2
CAS: 55165-09-8
Molecular weight: 150
m/z	intensity
26	2
27	13
28	47
29	8
30	325
31	10
37	1
38	5
39	35
40	4
41	16
42	25
43	10
44	8
45	11
50	15
51	43
52	14
53	9
54	6
55	5
56	16
57	8
58	2
59	2
61	2
62	7
63	22
64	7
65	34
66	6
67	4
68	1
69	2
70	2
71	3
73	2
74	6
75	8
76	10
77	97
78	97
79	21
80	4
81	1
83	2
87	2
88	2
89	21
90	13
91	77
92	17
93	15
94	3
101	4
102	23
103	174
104	999
105	152
106	14
107	5
115	10
116	10
117	32
118	40
119	34
120	68
121	183
122	21
123	1
129	1
130	8
131	4
132	46
133	121
134	15
135	3
149	1
150	1
151	1
