Mass Spectrum: Propanedioic acid, (acetylamino)methyl-, diethyl ester
Formula: C10H17NO5
CAS: 55166-91-1
Molecular weight: 231
m/z	intensity
25	12
26	74
28	23
29	127
41	20
42	437
43	346
44	29
45	8
47	12
55	6
58	5
70	12
84	6
85	9
86	8
88	149
89	6
112	27
113	24
116	999
117	65
118	6
127	2
141	5
158	375
159	31
186	38
231	15
