Mass Spectrum: 4-Hexylphenyl acetate
Formula: C14H20O2
CAS: 55168-28-0
Molecular weight: 220
m/z	intensity
15	2
26	1
27	9
28	1
29	13
38	1
39	15
40	2
41	24
42	6
43	83
44	2
50	3
51	11
52	9
53	9
54	1
55	14
56	1
57	1
62	1
63	6
64	2
65	17
66	3
67	2
68	1
69	1
75	1
76	1
77	59
78	35
79	13
80	1
81	2
89	5
90	3
91	25
92	4
93	6
94	11
95	3
96	1
102	1
103	8
104	2
105	6
107	999
108	92
109	7
115	3
116	1
117	2
118	1
119	4
120	15
121	11
122	2
128	1
131	2
132	1
133	6
134	2
135	2
136	1
149	3
161	1
163	1
176	1
178	431
179	60
180	4
220	23
221	3
