Mass Spectrum: 5-Hexenoic acid, 5-methyl-
Formula: C7H12O2
CAS: 55170-74-6
Molecular weight: 128
m/z	intensity
26	11
27	163
28	42
29	212
30	6
31	10
36	1
37	1
38	4
39	213
40	74
41	696
42	83
43	70
44	6
45	58
46	1
47	1
50	2
51	10
52	9
53	129
54	33
55	279
56	247
57	28
58	6
59	10
60	345
61	13
62	1
63	1
64	0
65	14
66	17
67	271
68	324
69	999
70	53
71	84
72	7
73	85
74	5
75	0
77	6
78	1
79	13
80	3
81	20
82	215
83	91
84	9
85	16
86	8
87	4
91	1
92	0
93	1
94	0
95	35
96	2
97	2
98	0
99	3
100	3
101	1
107	0
108	0
109	3
110	70
111	13
112	0
113	24
114	1
127	1
128	242
129	18
130	1
