Mass Spectrum: 5,12:6,11-Dimethanodibenzo[b,h]biphenylene, 5,5a,5b,6,11,11a,11b,12-octahydro-
Formula: C22H20
CAS: 55176-83-5
Molecular weight: 284
m/z	intensity
41	46
42	12
43	19
50	17
51	34
52	17
53	33
56	19
57	26
62	3
63	36
64	1
65	24
74	5
75	15
76	15
77	39
78	72
79	3
86	3
87	3
88	3
89	33
91	60
101	15
102	17
103	5
104	3
105	3
113	17
114	19
115	414
116	999
117	368
118	38
119	3
120	3
125	1
126	27
127	60
128	274
129	321
130	71
131	15
133	3
139	33
140	19
141	451
142	362
143	211
144	20
151	15
152	8
153	10
154	14
155	13
156	15
157	1
163	0
164	0
165	7
166	4
167	25
168	17
169	31
170	4
240	13
241	17
242	13
243	34
244	6
252	17
253	17
254	12
255	36
256	39
257	6
265	5
269	33
270	5
283	13
284	593
285	171
286	19
