Mass Spectrum: Benzoic acid, 3-chloro-, 2-oxo-2-phenylethyl ester
Formula: C15H11ClO3
CAS: 55184-84-4
Molecular weight: 274
m/z	intensity
50	50
51	90
57	40
75	70
76	30
77	230
91	30
105	999
106	90
111	100
113	40
118	90
139	100
141	50
274	20
