Mass Spectrum: Benzene, 1,1'-[3-(3-cyclopentylpropyl)-1,5-pentanediyl]bis-
Formula: C25H34
CAS: 55191-62-3
Molecular weight: 334
m/z	intensity
29	41
30	1
31	1
36	1
37	1
38	2
39	43
40	7
41	189
42	14
43	23
44	2
45	1
48	1
49	1
50	5
51	15
52	5
53	15
54	9
55	117
56	7
57	11
58	1
59	1
60	1
61	1
62	1
63	6
64	2
65	45
66	5
67	46
68	8
69	81
70	5
71	4
72	1
73	1
74	1
75	1
76	2
77	41
78	17
79	26
80	4
81	20
82	5
83	67
84	5
85	3
86	1
87	1
88	1
89	5
90	5
91	813
92	999
93	84
94	6
95	25
96	3
97	32
98	3
99	1
100	1
101	1
102	2
103	14
104	96
105	149
106	20
107	3
108	1
109	6
110	1
111	8
112	1
113	1
114	1
115	9
116	5
117	45
118	8
119	17
120	11
121	5
122	2
123	2
124	1
125	4
126	1
127	2
128	5
129	10
130	6
131	44
132	6
133	12
134	2
135	3
136	1
137	2
138	1
139	6
140	1
141	2
142	1
143	6
144	4
145	19
146	8
147	15
148	3
149	2
150	1
151	2
152	1
153	2
154	1
155	1
156	1
157	2
158	1
159	5
160	3
161	7
162	1
163	1
164	1
165	1
166	1
167	4
168	1
169	1
170	1
171	1
172	1
173	3
174	1
175	1
176	1
177	1
178	1
179	1
180	1
181	3
182	1
183	1
184	1
185	1
186	1
187	2
188	1
189	1
190	1
191	2
192	1
193	1
194	1
195	1
196	1
197	1
198	1
199	1
200	1
201	1
202	1
203	1
204	1
205	1
206	1
207	1
208	1
209	1
210	1
211	1
213	1
214	1
215	1
216	1
217	1
218	1
219	1
220	1
221	1
222	1
223	2
224	1
