Mass Spectrum: Valeric acid, 2-tetradecyl ester
Formula: C19H38O2
CAS: 55193-14-1
Molecular weight: 298
m/z	intensity
25	3
26	29
27	216
28	26
29	497
30	9
31	5
36	5
37	2
38	8
39	135
40	35
41	669
42	174
43	656
44	59
45	51
50	6
51	8
52	2
53	39
54	59
55	448
56	239
57	771
58	72
59	10
60	111
61	10
65	4
66	5
67	57
68	48
69	198
70	137
71	159
72	7
73	31
74	4
75	5
77	4
78	2
79	2
80	3
81	29
82	50
83	135
84	88
85	999
86	56
87	5
91	2
95	8
96	25
97	89
98	41
99	11
100	11
101	11
102	77
103	178
104	11
109	3
110	9
111	39
112	21
113	11
124	3
125	21
126	13
127	6
129	75
130	5
138	2
139	6
140	6
141	3
152	3
153	3
154	11
155	2
167	2
168	11
196	45
197	14
198	2
212	4
213	4
