Mass Spectrum: 1H-Indole-3-ethanamine, 1-(acetyloxy)-N,N-dimethyl-
Formula: C14H18N2O2
CAS: 55191-09-8
Molecular weight: 246
m/z	intensity
12	2
13	2
14	8
15	35
16	12
19	2
20	1
26	2
27	9
29	18
30	55
31	12
32	31
38	2
39	10
40	3
41	6
42	66
43	85
44	9
45	17
46	1
50	5
51	10
52	4
53	2
54	1
55	2
56	6
57	21
58	999
59	56
60	8
61	1
62	3
63	8
64	2
65	4
66	1
68	1
69	1
70	2
71	2
73	1
74	2
75	6
76	7
77	19
78	4
79	1
82	1
86	1
87	2
88	2
89	8
90	4
91	4
92	1
93	1
94	1
101	4
102	12
103	12
104	2
105	1
107	2
108	2
113	2
114	2
115	20
116	6
117	6
118	2
119	1
120	1
127	2
128	6
129	9
130	36
131	5
132	1
140	2
141	2
142	5
143	16
144	17
145	2
148	1
154	1
155	1
156	1
157	1
168	1
169	1
170	1
171	1
172	2
173	1
185	3
186	3
187	2
188	2
228	1
229	1
230	14
231	3
