Mass Spectrum: Hexanoic acid, 2-tridecyl ester
Formula: C19H38O2
CAS: 55193-20-9
Molecular weight: 298
m/z	intensity
25	7
26	23
27	199
28	35
29	299
30	9
31	7
35	3
36	3
37	6
38	17
39	188
40	45
41	618
42	213
43	811
44	79
45	45
50	12
51	19
52	11
53	62
54	59
55	555
56	264
57	308
58	25
59	12
60	149
61	29
63	7
65	7
66	8
67	67
68	67
69	261
70	125
71	335
72	9
73	67
74	8
75	6
77	8
79	8
80	7
81	42
82	52
83	192
84	109
85	83
86	8
87	38
88	3
89	6
91	8
92	5
93	5
94	5
95	16
96	36
97	157
98	85
99	999
100	75
101	14
109	6
110	19
111	79
112	45
113	15
114	18
115	11
116	118
117	278
118	18
123	4
124	6
125	31
126	30
127	8
128	2
130	7
131	2
135	2
137	8
138	2
139	18
140	30
141	7
142	4
143	85
144	12
145	3
148	4
152	5
153	6
154	20
155	5
182	154
183	53
184	6
283	2
