Mass Spectrum: Acetamide, N-[2-(acetyloxy)-2-[3,4-bis(acetyloxy)phenyl]ethyl]-
Formula: C16H19NO7
CAS: 55191-56-5
Molecular weight: 337
m/z	intensity
12	2
13	3
15	160
17	31
18	100
26	3
27	8
28	3
29	23
30	12
31	3
37	2
38	12
39	60
40	15
41	40
42	40
43	999
44	28
45	22
50	16
51	45
52	18
53	18
54	10
55	45
56	14
57	21
58	22
59	2
60	13
61	4
62	6
63	22
64	16
65	60
66	35
67	48
68	16
69	17
70	8
71	11
72	1
73	8
74	4
75	5
76	15
77	50
78	27
79	19
80	30
81	13
82	5
83	10
84	6
85	6
86	2
87	3
88	1
89	6
90	2
91	14
92	22
93	31
94	50
95	26
96	5
97	9
98	3
99	2
100	10
101	4
102	4
103	14
104	60
105	26
106	12
107	10
108	10
109	4
110	4
111	4
112	3
113	1
114	1
115	3
116	3
117	6
118	5
119	8
120	30
121	21
122	70
123	45
124	8
125	2
126	1
127	1
128	1
129	2
130	1
131	5
132	60
133	19
134	24
135	5
136	6
137	6
138	6
139	1
146	4
147	5
148	21
149	103
150	145
151	719
152	9
161	5
162	5
163	2
164	3
165	2
171	1
174	3
175	6
176	2
177	3
178	3
179	1
189	1
190	2
191	48
192	30
193	480
194	6
195	7
199	2
204	1
205	1
206	3
216	1
217	4
219	1
233	13
235	228
236	40
237	3
275	5
277	50
278	9
279	1
