Mass Spectrum: 3,6,12-Trimethyl-1,4,7,10,13,16-hexaaza-cyclooctadecane-2,5,8,11,14,17-hexaone
Formula: C15H24N6O6
CAS: 5519-72-2
Molecular weight: 384
m/z	intensity
25	123
27	430
28	785
29	385
30	566
31	204
33	12
35	14
36	102
37	24
38	59
39	208
40	175
41	739
42	999
43	582
44	637
45	120
46	16
50	26
51	38
52	77
53	88
54	497
55	565
56	969
57	362
58	110
59	72
60	30
61	28
62	9
63	17
64	21
65	24
66	44
67	99
68	230
69	250
70	300
71	150
72	76
73	74
74	26
75	18
76	11
77	24
78	14
79	32
80	33
81	61
82	70
83	130
84	104
85	326
86	82
87	26
91	30
92	15
93	25
94	43
95	124
96	65
97	113
98	127
99	252
100	159
101	81
102	20
103	12
104	18
105	19
106	26
107	36
108	45
109	54
110	190
111	156
112	161
113	162
114	142
115	34
116	10
117	10
118	8
119	18
120	16
121	24
122	48
123	127
124	220
125	145
126	79
127	90
128	443
129	55
130	19
132	10
133	14
134	16
135	23
136	58
137	66
138	79
139	106
140	52
141	198
142	174
143	17
147	14
148	12
149	18
150	40
151	42
152	74
153	84
154	17
155	48
156	46
157	10
158	4
161	6
162	6
163	11
164	76
165	27
166	44
167	56
168	48
169	208
170	88
171	12
173	4
174	8
177	4
178	16
179	14
180	4
181	40
182	15
183	23
184	34
185	21
186	2
191	1
192	2
193	9
194	14
195	16
196	28
197	16
198	38
199	42
200	6
209	10
210	8
212	27
213	11
221	0
223	12
224	58
225	4
226	31
227	16
240	15
241	62
242	6
255	2
256	6
283	2
284	12
297	0
298	28
299	4
313	12
327	19
341	19
342	4
354	14
368	19
376	6
383	6
384	76
385	14
