Mass Spectrum: L-Alanine, N-[N-[N-(trifluoroacetyl)-L-valyl]glycyl]-, methyl ester
Formula: C13H20F3N3O5
CAS: 55191-31-6
Molecular weight: 355
m/z	intensity
15	43
17	8
18	34
26	6
27	44
29	54
30	375
31	22
39	32
40	9
41	77
42	57
43	83
44	999
45	39
50	5
51	7
53	13
54	14
55	239
56	94
57	52
58	37
59	47
60	8
67	8
68	11
69	83
70	60
71	20
72	20
73	19
74	22
75	16
76	6
78	11
81	8
82	18
83	61
84	36
85	64
86	26
87	34
88	17
90	11
94	6
95	6
96	13
97	12
98	60
99	43
100	19
101	15
102	79
103	16
104	164
105	12
109	7
110	38
111	17
112	15
113	212
114	134
115	13
116	6
124	5
125	9
126	10
127	361
128	41
129	16
130	7
131	6
138	6
139	10
140	18
141	18
143	7
145	177
146	15
149	10
150	5
151	16
152	14
153	16
154	56
155	193
156	27
157	5
159	5
160	6
161	39
166	10
167	25
168	256
169	83
170	8
171	13
173	8
179	9
180	14
181	9
182	21
183	7
184	37
185	5
187	394
188	55
189	8
193	21
194	6
195	9
196	11
197	5
198	6
199	8
206	9
207	28
208	21
209	7
210	21
211	8
225	6
226	335
227	32
234	15
235	27
239	22
240	23
241	5
242	5
252	9
253	61
254	9
267	8
270	7
277	17
278	27
279	6
281	8
286	7
295	7
296	644
297	88
298	11
305	9
312	8
313	44
314	6
323	8
324	13
328	11
337	16
338	5
354	9
355	28
356	5
