Mass Spectrum: Hexanoic acid, 2-tetradecyl ester
Formula: C20H40O2
CAS: 55193-21-0
Molecular weight: 312
m/z	intensity
25	8
26	38
27	253
28	36
29	399
30	9
31	7
36	13
37	9
38	18
39	203
40	45
41	712
42	262
43	993
44	88
45	54
46	3
51	29
52	12
53	65
54	88
55	631
56	299
57	422
58	48
59	16
60	161
61	42
65	9
66	7
67	81
68	77
69	312
70	219
71	392
72	29
73	77
74	9
75	7
77	9
78	6
79	21
80	7
81	49
82	75
83	215
84	111
85	118
86	9
87	35
88	3
89	7
91	7
95	23
96	38
97	171
98	81
99	999
100	75
101	14
109	9
110	21
111	79
112	42
113	15
114	23
115	15
116	127
117	299
118	21
119	3
123	8
124	9
125	36
126	24
127	12
128	3
139	6
140	15
141	8
142	4
143	67
144	7
152	7
153	9
154	22
155	8
167	8
168	16
169	4
195	3
196	115
197	36
198	6
210	3
211	2
212	7
213	6
