Mass Spectrum: Androst-7-ene-6,17-dione, 2,3,14-trihydroxy-, (2.beta.,3.beta.,5.alpha.)-
Formula: C19H26O5
CAS: 55191-58-7
Molecular weight: 334
m/z	intensity
40	50
41	800
42	180
43	999
44	220
45	240
46	10
51	44
52	30
53	280
54	30
55	780
56	130
57	235
58	20
60	110
61	70
63	10
64	10
65	160
66	97
67	220
68	30
69	260
70	75
71	90
73	75
77	378
78	98
79	390
80	60
81	240
82	46
83	130
84	50
85	70
86	30
88	32
89	15
91	560
92	90
93	280
94	90
95	210
96	30
97	110
98	10
99	10
103	80
104	40
105	390
106	120
107	190
108	47
109	65
110	50
111	90
112	10
113	30
115	190
116	80
117	250
118	155
119	415
120	80
121	190
122	58
123	65
125	30
127	55
128	170
129	190
130	80
131	260
132	185
133	210
134	70
135	106
136	30
137	125
138	10
139	30
141	110
142	90
143	150
144	68
145	218
146	61
147	200
148	57
149	110
150	40
151	10
152	36
153	50
154	28
155	146
156	46
157	150
158	60
159	145
160	210
161	180
162	118
163	90
164	25
165	50
166	15
167	35
168	15
169	70
170	30
171	150
172	70
173	134
174	50
175	60
176	20
177	40
178	70
179	25
180	10
181	40
182	20
183	70
184	40
185	150
186	50
187	100
188	30
189	38
190	20
191	10
193	10
195	40
196	18
197	84
198	25
199	125
200	65
201	70
202	20
203	23
206	22
207	12
209	60
210	10
211	78
212	20
213	110
214	50
215	72
216	12
217	20
223	20
225	50
226	10
227	76
228	30
229	92
230	30
231	100
232	53
233	20
237	43
239	20
241	40
242	47
243	60
244	18
245	58
247	10
249	80
250	165
251	20
253	18
255	134
256	25
257	20
259	15
260	10
265	20
270	25
271	55
272	10
273	90
283	50
288	408
289	80
290	30
298	40
301	45
306	65
316	500
317	95
318	55
334	10
