Mass Spectrum: Benzaldehyde, 4-chloro-, O-phenyloxime
Formula: C13H10ClNO
CAS: 55191-14-5
Molecular weight: 231
m/z	intensity
39	180
50	140
51	100
65	230
66	250
67	20
75	250
76	100
94	999
95	100
102	230
103	20
111	290
112	30
113	90
137	550
138	270
139	220
140	90
231	250
232	30
233	80
234	10
