Mass Spectrum: 1H-Pyrazole-4,5-dione, 1-phenyl-3-(1,2,3-trihydroxypropyl)-, 4-(phenylhydrazone), [S-(R*,R*)]-
Formula: C18H18N4O4
CAS: 55191-37-2
Molecular weight: 354
m/z	intensity
65	212
77	468
78	87
91	156
92	406
93	999
94	125
104	56
105	109
106	50
107	62
108	31
118	31
119	143
120	93
145	62
146	46
172	50
200	31
201	21
202	62
203	18
264	50
265	62
266	37
270	50
289	46
291	203
292	812
293	156
304	96
305	46
306	37
353	400
354	137
