Mass Spectrum: Dodecanoic acid, 2,3-bis(acetyloxy)propyl ester
Formula: C19H34O6
CAS: 55191-44-1
Molecular weight: 358
m/z	intensity
26	10
27	70
28	40
29	150
30	10
31	20
39	60
40	10
41	200
42	50
43	400
44	60
45	620
46	20
47	10
50	10
51	10
52	10
53	40
54	30
55	180
56	40
57	150
58	20
59	30
60	30
61	10
65	20
66	10
67	80
68	30
69	100
70	30
71	70
72	10
73	999
74	180
75	80
76	10
77	30
78	10
79	40
80	10
81	60
82	40
83	70
84	50
85	50
86	10
87	100
88	10
89	10
91	20
92	10
93	30
94	10
95	40
96	30
97	60
98	60
99	30
100	10
101	20
102	10
103	40
104	10
105	20
106	10
107	20
108	10
109	20
110	10
111	30
112	20
113	10
115	20
116	20
117	40
118	10
119	10
120	10
121	10
122	10
123	20
124	10
125	20
126	10
127	10
128	10
129	60
130	20
131	10
132	10
133	10
134	10
135	10
136	10
137	10
138	10
139	10
140	10
141	10
143	20
145	20
147	40
148	10
149	60
150	10
151	10
152	10
153	10
154	10
155	20
157	10
158	30
159	70
160	10
163	10
165	10
167	10
169	10
171	20
175	10
176	10
177	10
182	10
183	70
184	10
185	10
191	10
199	10
203	20
205	10
207	10
213	10
217	10
218	40
219	10
220	10
221	10
222	10
223	10
227	10
239	10
241	10
255	10
264	10
267	10
270	10
285	10
298	10
313	10
341	10
