Mass Spectrum: Acetamide, N-[3-(acetyloxy)propyl]-N-pentyl-
Formula: C12H23NO3
CAS: 55191-04-3
Molecular weight: 229
m/z	intensity
83	50
85	110
86	170
87	60
88	90
91	60
99	70
100	490
101	170
113	70
114	50
126	50
128	50
130	999
131	90
142	120
154	80
170	70
192	50
214	80
229	10
