Mass Spectrum: Pseudopelletierine
Formula: C9H15NO
CAS: 552-70-5
Molecular weight: 153
m/z	intensity
31	66
32	40
38	16
39	126
40	33
41	133
42	699
43	126
44	400
45	26
51	33
52	40
53	40
54	66
55	116
56	93
57	243
58	40
65	16
66	16
67	50
68	66
69	33
70	26
71	26
77	16
78	16
79	40
80	26
81	40
82	150
83	116
84	66
93	16
94	200
95	233
96	833
97	116
98	66
108	16
109	66
110	999
111	116
112	26
125	33
126	16
152	26
153	499
154	50
155	3
