Mass Spectrum: p-Hydroxynorephedrine
Formula: C9H13NO2
CAS: 552-85-2
Molecular weight: 167
m/z	intensity
15	4
17	2
18	9
27	8
28	6
29	4
30	6
39	20
40	4
41	9
42	19
43	8
44	999
45	33
46	1
50	3
51	9
52	3
53	3
54	1
55	5
56	1
57	1
62	2
63	5
64	2
65	16
66	6
67	5
68	1
74	2
75	1
76	1
77	43
78	6
79	3
80	1
81	1
89	1
90	1
91	1
93	6
94	5
95	35
96	2
103	1
105	2
106	3
107	11
108	10
109	2
120	1
121	18
122	5
123	51
124	5
131	1
132	1
133	5
134	5
135	2
146	1
148	3
149	7
150	2
167	15
168	2
