Mass Spectrum: 7-Butyl-1-azaspiro[5.5]undecan-8-ol, TBDMS derivative
Formula: C20H41NOSi
CAS: 55228-78-9
Molecular weight: 339
m/z	intensity
41	275
42	29
43	121
44	134
45	24
46	2
47	5
49	10
51	128
52	8
53	59
54	87
55	196
56	151
57	115
58	16
59	16
60	3
61	1
63	2
64	1
65	26
66	13
67	110
68	51
69	67
70	91
71	22
72	10
73	7
74	0
75	3
77	43
78	10
79	63
80	37
81	69
82	127
83	51
84	453
85	30
86	7
87	0
88	0
89	0
91	42
92	8
93	33
94	43
95	51
96	160
97	724
98	126
99	17
100	4
101	2
102	0
103	3
104	2
105	14
106	12
107	16
108	48
109	47
110	999
111	394
112	58
113	15
114	5
115	3
117	3
118	2
119	8
120	12
121	13
122	44
123	29
124	204
125	63
126	308
127	43
128	4
129	0
131	1
132	2
133	10
134	17
135	10
136	41
137	28
138	37
139	8
140	26
141	7
142	1
146	0
147	4
148	10
149	9
150	32
151	10
152	91
153	6
154	240
155	51
156	5
161	1
162	5
163	2
164	84
165	14
166	16
167	6
168	138
169	42
170	5
176	1
177	1
178	13
179	3
180	17
181	1
182	352
183	64
184	7
190	1
192	3
193	0
194	5
195	1
196	71
197	10
198	0
199	0
204	0
206	13
207	3
208	157
209	25
210	9
211	0
212	1
218	0
220	0
222	24
223	5
224	30
225	276
226	58
227	6
238	4
239	24
240	6
241	1
242	0
248	0
250	1
252	2
265	1
281	1
282	3
283	4
284	1
295	1
339	0
