Mass Spectrum: Butanetetrone, diphenyl-, 2,3-dioxime
Formula: C16H12N2O4
CAS: 55232-36-5
Molecular weight: 296
m/z	intensity
51	180
77	550
105	999
106	90
122	15
129	18
131	10
278	60
