Mass Spectrum: Ethyl N-tert-butylformimidate
Formula: C7H15NO
CAS: 55236-60-7
Molecular weight: 129
m/z	intensity
39	170
40	40
41	530
42	290
43	70
44	50
45	190
46	460
55	70
56	220
57	950
58	950
59	30
69	30
71	30
72	40
73	70
84	20
85	90
86	560
87	20
101	170
114	999
129	280
