Mass Spectrum: p-Chloro-n-propylbenzylamine
Formula: C10H14ClN
CAS: 55245-43-7
Molecular weight: 183
m/z	intensity
41	180
43	334
44	29
45	1
46	7
47	21
48	1
49	84
50	86
51	171
52	7
53	11
54	11
55	9
56	29
57	1
58	35
60	4
61	12
62	36
63	183
65	36
67	2
68	8
69	2
70	35
72	24
73	44
74	4
75	159
77	122
78	13
79	2
80	2
81	4
82	0
84	35
85	5
86	81
87	8
89	336
90	49
91	21
92	1
93	1
94	1
95	0
96	5
97	10
98	2
99	85
101	31
102	10
104	28
105	6
106	4
107	1
108	1
109	0
111	151
113	94
115	41
116	4
117	20
118	2
119	7
120	0
121	1
123	2
125	999
127	335
128	2
129	1
130	8
132	9
134	3
136	1
138	1
139	369
141	185
142	17
143	2
144	2
146	1
148	2
149	4
150	2
151	9
152	21
154	157
156	50
157	6
158	1
159	0
167	2
168	6
169	2
170	2
181	12
182	10
183	19
184	5
185	7
186	0
