Mass Spectrum: Kaur-16-en-18-oic acid, methyl ester, (4.beta.)-
Formula: C21H32O2
CAS: 5524-25-4
Molecular weight: 316
m/z	intensity
26	8
27	247
28	82
29	326
30	10
31	12
32	5
33	11
38	7
39	276
40	72
41	999
42	64
43	231
44	77
45	49
48	3
50	7
51	49
52	37
53	309
54	52
55	639
56	62
57	48
58	7
59	209
60	9
61	8
63	17
64	19
65	148
66	68
67	449
68	76
69	211
70	20
71	35
72	9
73	57
74	8
75	18
77	382
78	132
79	606
80	143
81	528
82	83
83	59
84	10
85	32
86	13
87	19
88	38
89	19
90	0
91	626
92	227
93	424
94	222
95	209
96	34
97	68
98	8
99	13
100	19
101	156
102	22
103	54
104	61
105	371
106	254
107	364
108	110
109	325
110	33
111	18
112	5
113	14
114	36
115	70
116	39
117	126
118	78
119	279
120	128
121	377
122	87
123	319
124	33
125	12
126	6
127	26
128	57
129	63
130	33
131	158
132	49
133	178
134	129
135	132
136	33
137	22
138	4
139	14
140	5
141	27
142	19
143	51
144	23
145	100
146	49
147	131
148	132
149	107
150	21
151	12
152	7
153	17
154	6
155	16
156	8
157	33
158	17
159	106
160	36
161	80
162	21
163	23
164	13
165	11
166	10
167	25
168	13
169	23
170	6
171	22
172	19
173	58
174	31
175	49
176	11
177	10
178	4
179	4
180	11
181	27
182	7
183	18
185	51
186	18
187	123
188	39
189	24
190	6
193	12
194	10
195	8
197	16
198	12
199	40
200	16
201	61
202	16
203	12
207	31
208	15
209	13
213	111
214	29
215	19
216	13
217	4
220	6
221	4
222	4
223	11
227	15
228	15
229	11
233	13
234	14
241	296
242	66
243	15
245	7
247	31
248	10
256	191
257	509
258	101
259	19
260	7
269	16
273	320
274	67
275	13
284	10
287	9
288	12
301	223
302	48
303	6
316	377
317	86
318	11
