Mass Spectrum: 1-[N-Methyl-N-(p-toluenesulfonyl)aminocarbonyl]-4,4-dimethylazetidinone
Formula: C14H18N2O4S
CAS: 55254-60-9
Molecular weight: 310
m/z	intensity
39	290
41	600
42	600
43	860
44	200
51	110
55	310
56	690
57	230
58	260
65	260
70	110
83	710
84	830
91	999
92	140
97	230
117	140
119	140
121	110
139	340
155	460
191	90
246	340
