Mass Spectrum: 1-Hexadecanone, 1-cyclopentyl-
Formula: C21H40O
CAS: 55255-86-2
Molecular weight: 308
m/z	intensity
38	7
39	123
40	34
41	717
42	129
43	551
44	20
45	6
50	3
51	6
52	4
53	44
54	38
55	329
56	90
57	334
58	22
59	3
60	1
61	1
62	1
63	2
64	1
65	11
66	13
67	124
68	79
69	999
70	97
71	469
72	25
73	6
74	1
77	10
78	3
79	24
80	11
81	67
82	35
83	91
84	36
85	91
86	8
87	1
91	9
92	3
93	14
94	8
95	85
96	31
97	489
98	70
99	18
100	2
103	1
105	3
106	1
107	7
108	4
109	31
110	16
111	20
112	413
113	166
114	12
115	1
117	1
119	2
120	1
121	7
122	4
123	15
124	4
125	70
126	9
127	3
128	2
129	1
131	1
133	1
134	1
135	6
136	3
137	7
138	3
139	7
140	2
141	2
145	1
147	2
148	2
149	6
150	3
151	3
152	1
153	2
154	3
155	1
161	1
162	1
163	2
164	1
165	2
166	3
167	2
168	1
169	1
175	1
177	1
179	1
180	1
181	2
194	2
195	1
211	1
221	1
237	1
238	2
239	91
240	16
241	2
265	1
267	15
268	3
279	1
289	1
292	1
307	1
308	38
309	10
310	2
