Mass Spectrum: Glycine, N-[N-(N-acetylglycyl)glycyl]-, methyl ester
Formula: C9H15N3O5
CAS: 55255-89-5
Molecular weight: 245
m/z	intensity
41	20
42	30
43	470
44	40
45	80
46	40
47	20
50	30
51	30
52	20
55	20
56	140
57	20
59	20
60	30
68	20
69	100
70	30
71	100
72	590
73	820
74	40
83	20
84	40
85	20
86	40
87	140
88	40
89	140
90	20
98	30
99	50
100	999
101	70
102	30
103	20
110	30
112	30
113	200
114	120
115	30
116	10
129	20
130	630
131	160
132	40
133	20
140	10
141	40
142	10
155	20
157	280
158	30
159	20
173	310
174	30
213	30
214	20
226	30
227	20
245	120
246	20
