Mass Spectrum: 1H-Dibenzo[a,i]fluorene, eicosahydro-
Formula: C21H34
CAS: 55256-24-1
Molecular weight: 286
m/z	intensity
39	22
40	49
41	999
42	100
43	113
44	11
45	1
46	1
48	1
49	1
50	6
51	25
52	21
53	195
54	143
55	509
56	41
57	40
58	3
59	1
60	1
61	1
62	1
63	6
64	3
65	82
66	66
67	763
68	122
69	183
70	17
71	5
72	3
73	3
74	6
76	3
77	195
78	71
79	479
80	183
81	530
82	78
83	63
84	6
85	2
86	2
87	8
88	4
89	3
90	2
91	281
92	83
93	350
94	237
95	542
96	82
97	25
98	4
99	1
100	2
101	13
102	3
103	15
104	16
105	101
106	47
107	181
108	185
109	134
110	18
111	5
112	1
113	1
114	1
115	20
116	9
117	38
118	12
119	60
120	34
121	345
122	154
123	38
124	5
125	1
126	1
127	3
128	10
129	12
130	5
131	24
132	11
133	82
134	195
135	824
136	802
137	119
138	10
139	1
140	1
141	4
142	3
143	5
144	3
145	15
146	8
147	50
148	67
149	92
150	311
151	325
152	50
153	5
154	1
155	2
156	1
157	2
158	1
159	7
160	4
161	33
162	27
163	14
164	9
165	4
166	1
167	1
171	2
172	1
173	16
174	19
175	295
176	88
177	19
178	4
179	1
180	1
185	2
186	2
187	16
188	44
189	55
190	52
191	17
192	3
193	1
199	2
200	2
201	17
202	8
203	21
204	8
205	2
206	1
213	1
215	7
216	4
217	6
218	2
219	1
225	1
227	2
228	2
229	100
230	25
231	5
232	1
233	1
243	6
244	6
245	3
246	1
247	1
257	12
258	8
259	1
265	1
271	2
272	1
273	1
280	2
281	1
282	3
283	2
284	14
285	9
286	376
287	87
288	10
289	1
