Mass Spectrum: N-Ethoxycarbonyl-7-azabicyclo(2,2,1)hept-2-ene
Formula: C9H13NO2
CAS: 55258-01-0
Molecular weight: 167
m/z	intensity
38	132
39	999
40	255
41	782
42	82
43	72
44	22
45	43
46	7
50	42
51	82
52	55
53	174
54	64
55	32
56	54
57	7
66	798
67	605
68	204
69	34
77	64
78	44
79	102
80	809
81	66
82	34
83	6
93	34
94	142
95	22
139	498
140	43
141	8
167	12
168	5
