Mass Spectrum: N-(p-Toluenesulfonylaminocarbonyl)-4,4-dimethylazetidinone
Formula: C13H16N2O4S
CAS: 55254-59-6
Molecular weight: 296
m/z	intensity
39	150
41	120
42	100
56	200
65	250
83	60
84	80
89	80
90	50
91	999
92	80
106	40
107	130
108	550
109	50
155	350
171	300
232	150
296	1
