Mass Spectrum: .beta.-D-Mannopyranose, 2,4,6-tri-O-methyl-, diacetate
Formula: C13H22O8
CAS: 55255-81-7
Molecular weight: 306
m/z	intensity
41	240
42	90
43	999
44	110
45	999
46	20
47	20
53	50
54	20
55	80
56	30
57	70
58	50
59	160
61	10
68	30
69	50
70	30
71	999
72	150
73	100
74	330
75	140
76	10
81	30
82	20
83	30
84	20
85	160
86	30
87	860
88	450
89	160
90	10
96	10
97	30
98	20
99	130
100	30
101	400
102	480
103	20
109	20
111	50
112	30
113	40
114	10
115	110
116	40
117	50
118	30
119	10
127	50
128	10
129	430
130	40
131	20
141	40
143	30
144	10
145	120
146	10
147	20
155	20
159	140
160	10
161	30
169	20
172	20
173	100
174	10
175	10
187	30
189	10
201	10
204	20
205	10
214	10
215	30
229	50
246	2
247	14
248	2
261	10
262	2
263	2
