Mass Spectrum: Silane, trimethyl[1-methyl-2-oxo-2-(trimethylsilyl)ethoxy]-, (R)-
Formula: C9H22O2Si2
CAS: 55255-93-1
Molecular weight: 218
m/z	intensity
20	15
27	18
29	18
31	9
40	5
41	4
42	18
43	95
44	48
45	183
46	16
47	44
48	4
49	33
51	11
52	12
55	33
57	7
58	24
59	67
60	5
61	17
66	100
67	6
69	17
71	7
72	37
73	999
74	82
75	125
76	17
77	41
79	3
84	21
86	17
87	13
88	67
93	10
101	16
102	18
103	8
115	13
116	13
117	603
118	74
119	34
120	10
129	10
131	32
132	6
133	50
134	9
135	5
147	564
148	90
149	62
150	7
170	5
188	13
190	89
191	104
192	42
193	11
203	5
218	51
219	11
220	9
