Mass Spectrum: Indole-5-carboxylic acid, 2TMS derivative
Formula: C15H23NO2Si2
CAS: 55255-79-3
Molecular weight: 305
m/z	intensity
39	8
40	22
42	4
43	114
44	71
45	368
46	25
47	29
51	4
53	24
54	6
55	18
56	3
57	14
58	27
59	86
60	8
61	10
62	13
63	20
65	1
66	3
67	9
68	4
69	10
70	6
71	10
72	32
73	999
74	90
75	75
76	9
77	21
79	6
83	12
84	12
86	6
87	14
88	34
89	32
90	8
91	8
93	10
94	2
95	2
96	1
100	3
101	5
102	11
103	21
104	5
105	14
106	1
107	2
108	1
113	2
114	27
115	189
116	56
117	28
118	4
119	12
120	3
121	1
128	7
129	13
130	68
131	26
132	13
133	14
134	5
135	4
136	1
137	3
138	2
142	16
143	269
144	71
145	26
146	19
147	20
148	9
156	43
157	16
158	35
159	17
160	40
161	31
162	6
164	9
168	4
170	26
171	14
172	69
173	140
174	47
175	12
184	8
186	31
187	19
188	69
189	18
190	1
200	7
201	2
202	30
203	8
204	1
208	7
209	110
210	39
214	11
215	4
216	285
217	168
218	40
219	5
230	3
232	7
233	1
244	3
245	3
246	255
247	58
248	21
260	1
275	6
276	98
277	11
278	1
290	161
291	43
292	13
293	2
304	5
305	242
306	75
307	22
308	3
