Mass Spectrum: Normeperidine, TMS derivative
Formula: C17H27NO2Si
CAS: 55255-40-8
Molecular weight: 305
m/z	intensity
41	25
42	210
43	100
44	50
45	210
46	15
47	20
50	10
51	25
52	10
53	30
54	20
55	20
56	90
57	140
58	40
59	285
60	25
61	35
63	10
65	15
67	5
68	5
69	10
70	10
71	15
72	40
73	999
74	140
75	230
76	20
77	75
78	20
79	15
80	15
81	10
82	20
83	10
84	10
85	20
86	170
87	25
88	70
89	20
90	5
91	125
92	10
93	5
98	10
99	10
100	140
101	100
102	220
103	340
104	60
105	30
109	10
110	10
113	10
114	260
115	310
116	120
117	60
118	15
119	10
121	10
126	10
127	10
128	515
129	998
130	155
131	140
132	230
133	30
134	10
135	40
136	5
140	15
141	20
142	10
143	20
144	20
145	20
146	5
147	10
149	10
152	5
154	200
155	40
156	25
157	10
158	150
159	45
160	20
161	10
162	15
170	5
171	5
172	10
174	10
175	30
176	10
177	10
178	10
186	10
187	15
188	10
190	20
191	10
198	90
199	15
200	5
202	10
204	20
205	10
207	10
213	20
214	10
216	30
217	20
218	30
219	10
227	40
228	10
230	190
231	70
232	320
233	110
234	20
248	75
249	45
250	10
260	30
261	10
262	60
263	20
276	350
277	105
278	30
279	5
290	210
291	55
292	15
304	460
305	535
306	120
307	35
