Mass Spectrum: 6-Tridecene, 2,2,4,10,12,12-hexamethyl-7-(3,5,5-trimethylhexyl)-
Formula: C28H56
CAS: 55255-73-7
Molecular weight: 392
m/z	intensity
36	1
37	1
38	2
39	25
40	6
41	164
42	13
43	143
44	5
45	1
49	1
50	1
51	2
52	1
53	12
54	5
55	93
56	41
57	999
58	58
59	1
63	1
64	1
65	3
66	2
67	33
68	27
69	81
70	29
71	76
72	4
73	1
77	5
78	1
79	14
80	5
81	41
82	14
83	74
84	10
85	39
86	3
91	5
92	1
93	9
94	3
95	34
96	24
97	94
98	24
99	27
100	2
101	1
103	1
104	1
105	2
106	1
107	4
108	3
109	31
110	11
111	65
112	138
113	65
114	6
115	1
117	1
119	1
120	1
121	2
122	1
123	12
124	6
125	32
126	6
127	8
128	1
131	1
133	1
135	1
136	1
137	4
138	1
139	11
140	1
141	5
142	1
149	1
150	1
151	2
152	1
153	12
154	3
155	3
156	1
163	1
164	1
165	2
166	5
167	5
168	53
169	11
170	1
177	1
178	1
179	1
180	1
181	3
182	4
183	1
184	1
193	1
194	1
195	1
196	1
197	1
207	1
208	1
209	1
210	1
211	1
221	1
222	1
223	1
224	20
225	4
226	1
235	1
236	1
237	1
238	1
249	1
251	1
263	1
264	1
265	1
266	1
267	1
277	1
278	1
279	1
280	19
281	4
282	1
291	1
294	1
305	1
319	1
320	1
333	1
334	1
336	1
390	1
391	1
392	8
393	3
394	1
