Mass Spectrum: 4,7-Methano-1H-inden-1-ol, octahydro-
Formula: C10H16O
CAS: 55255-97-5
Molecular weight: 152
m/z	intensity
25	1
26	7
27	94
28	13
29	61
30	3
31	24
37	3
38	10
39	192
40	36
41	231
42	23
43	51
44	26
45	13
47	2
48	2
50	14
51	44
52	24
53	85
54	57
55	127
56	16
57	52
58	8
59	4
60	2
61	5
62	6
63	19
64	7
65	67
66	999
67	471
68	74
69	33
70	47
71	13
72	1
73	5
74	3
75	7
76	3
77	141
78	90
79	394
80	482
81	93
82	24
83	174
84	41
85	14
86	2
87	1
88	1
89	6
90	3
91	155
92	93
93	384
94	46
95	231
96	61
97	41
98	7
101	2
102	2
103	7
104	5
105	55
106	73
107	31
108	593
109	112
110	26
111	18
112	1
113	1
114	1
115	4
116	1
117	4
118	3
119	55
120	6
121	42
122	5
123	28
124	238
125	20
126	1
131	1
132	2
133	9
134	371
135	42
136	2
137	6
139	1
140	1
142	1
143	3
145	1
150	2
151	1
152	99
153	11
