Mass Spectrum: 2-Monocaprin, 2TMS derivative
Formula: C19H42O4Si2
CAS: 55268-48-9
Molecular weight: 390
m/z	intensity
26	10
27	50
28	40
29	120
30	10
31	10
39	30
40	10
41	210
42	50
43	330
44	40
45	90
46	10
47	30
53	10
54	20
55	190
56	50
57	190
58	30
59	100
60	20
61	30
66	10
67	30
68	10
69	60
70	20
71	190
72	40
73	999
74	90
75	380
76	30
77	20
79	10
81	40
82	10
83	30
84	20
85	120
86	10
87	20
88	10
89	50
90	10
91	10
93	10
95	40
96	10
97	20
98	20
99	20
101	80
102	10
103	380
104	40
105	30
111	10
112	10
113	30
114	10
115	20
116	30
117	70
118	10
119	10
128	10
129	740
130	100
131	140
132	30
133	90
134	10
135	10
137	10
143	10
145	30
146	10
147	520
148	80
149	70
150	10
151	10
155	250
156	30
157	10
159	20
163	20
173	10
174	10
175	30
176	10
177	20
187	10
189	10
191	150
192	30
193	10
201	10
203	170
204	30
205	30
206	20
207	20
208	10
217	150
218	530
219	130
220	50
221	50
222	10
223	10
228	10
229	260
230	50
231	20
243	30
244	10
245	10
258	10
278	10
280	10
281	10
286	20
287	40
288	10
293	10
294	10
295	10
302	10
303	10
316	10
317	30
318	20
319	30
320	10
345	10
355	10
374	20
375	50
376	20
377	10
