Mass Spectrum: Linolenic acid, 2-hydroxy-1-(hydroxymethyl)ethyl  ester (Z,Z,Z)-
Formula: C21H36O4
CAS: 55268-58-1
Molecular weight: 352
m/z	intensity
25	10
26	40
27	230
28	170
29	360
30	30
31	190
32	10
36	10
37	10
38	20
39	210
40	40
41	800
42	120
43	340
44	110
45	210
46	20
47	10
50	20
51	40
52	20
53	160
54	170
55	820
56	140
57	430
58	70
59	110
60	70
61	70
62	10
63	10
64	10
65	70
66	120
67	860
68	230
69	410
70	90
71	140
72	30
73	100
74	140
75	90
76	10
77	210
78	140
79	999
80	510
81	700
82	210
83	230
84	100
85	80
86	20
87	130
88	10
89	10
91	340
92	110
93	600
94	310
95	900
96	170
97	150
98	120
99	50
100	20
101	50
102	10
103	30
104	20
105	190
106	80
107	300
108	550
109	280
110	70
111	80
112	40
113	40
114	10
115	50
116	40
117	60
118	20
119	180
120	70
121	290
122	170
123	170
124	40
125	40
126	20
127	190
128	30
129	70
130	20
131	50
132	20
133	110
134	80
135	210
136	120
137	60
138	30
139	30
140	10
141	30
142	10
143	20
144	20
145	50
146	10
147	100
148	40
149	150
150	70
151	30
152	10
153	20
154	10
155	80
156	10
157	30
158	10
159	30
160	10
161	50
162	30
163	80
164	50
165	30
166	10
167	20
168	10
169	10
170	10
171	20
172	10
173	70
174	10
175	40
176	20
177	30
178	40
179	20
180	10
181	10
182	10
183	10
185	20
186	10
187	30
188	10
189	30
190	20
191	120
192	40
193	20
194	10
195	10
196	10
197	10
199	10
201	10
203	40
204	60
205	20
206	20
207	10
208	10
209	30
210	10
211	10
212	10
213	30
214	10
215	10
217	30
218	10
219	10
221	10
222	30
223	10
224	10
225	10
227	10
231	20
232	60
233	20
234	10
235	10
236	10
237	10
239	10
241	10
243	10
245	20
249	10
250	10
251	10
256	10
259	10
260	60
261	140
262	40
263	10
264	10
265	20
266	10
277	10
278	30
279	20
280	10
283	10
284	10
291	10
296	30
297	10
303	10
307	10
321	50
322	10
323	20
324	10
334	10
335	10
352	150
353	40
354	10
