Mass Spectrum: Manganese, tetracarbonyl(.eta.2-methylmethylenesulfonium)-
Formula: C6H5MnO4S
CAS: 55268-45-6
Molecular weight: 228
m/z	intensity
35	110
45	220
46	160
47	310
48	180
55	930
61	999
62	180
69	80
70	330
72	30
83	70
87	80
100	70
101	180
102	40
116	999
144	200
172	220
200	160
228	290
