Mass Spectrum: 5-Hydroxyindoleacetic acid, 3TMS derivative
Formula: C19H33NO3Si3
CAS: 55268-67-2
Molecular weight: 407
m/z	intensity
40	10
41	10
43	46
44	114
45	316
46	13
47	33
48	1
49	8
50	3
51	5
52	3
53	7
54	1
55	5
56	3
57	8
58	8
59	30
60	4
61	7
62	3
63	3
64	4
65	3
66	6
67	3
68	3
69	21
70	3
71	4
72	7
73	999
74	159
75	175
76	12
77	62
78	10
79	5
80	2
81	3
82	1
83	6
84	6
85	5
86	2
87	4
88	1
89	5
90	1
91	5
92	1
93	6
94	2
95	5
96	5
97	3
99	2
100	5
101	13
102	6
103	5
104	2
105	6
106	2
107	2
109	3
111	3
113	3
114	1
115	14
116	5
117	11
118	11
120	2
121	3
122	4
123	1
124	1
127	3
128	14
129	7
130	9
131	13
132	6
133	18
135	8
136	2
137	7
140	1
141	2
142	15
143	6
144	5
145	9
146	15
147	73
148	14
149	7
150	1
151	2
153	2
154	3
155	2
156	8
157	4
158	3
159	6
160	2
161	3
163	1
169	8
170	6
171	2
172	9
173	3
174	8
175	7
176	3
181	4
182	2
183	1
184	8
185	4
186	27
187	5
188	18
189	12
190	3
191	4
192	3
193	4
194	2
196	10
197	2
198	5
199	2
200	19
201	8
202	130
203	26
204	14
205	4
207	12
208	4
209	2
211	3
212	2
214	5
215	2
216	21
217	12
218	33
219	8
220	3
221	5
222	2
228	2
229	1
230	11
231	3
232	8
233	10
234	3
235	1
242	1
243	1
244	6
245	2
246	7
247	3
248	2
249	2
251	1
253	1
256	1
258	7
259	3
260	25
261	6
262	5
263	1
267	2
268	2
269	2
272	2
273	3
274	21
275	9
276	10
277	6
278	1
281	6
282	1
283	2
286	2
288	52
289	20
290	999
291	379
292	138
293	27
294	2
301	1
302	2
304	12
305	3
306	3
316	1
317	3
318	5
319	1
320	2
323	1
327	2
332	2
333	1
334	3
335	3
336	1
337	2
341	3
342	1
346	1
348	4
349	3
355	4
356	2
364	62
365	19
366	6
367	2
378	3
381	1
386	1
392	41
393	17
394	6
395	1
403	1
405	2
407	214
408	71
409	33
410	9
