Mass Spectrum: 2,6-Bis[thiocarbamoyl]-3-methylpyridine
Formula: C8H9N3S2
CAS: 55267-71-5
Molecular weight: 211
m/z	intensity
41	59
42	36
43	17
44	23
45	177
46	13
47	12
48	3
49	7
50	42
51	92
52	181
53	142
54	41
55	6
56	2
57	13
58	30
59	153
60	999
61	48
62	105
63	152
64	322
65	112
66	66
67	19
69	109
70	56
71	30
72	30
73	5
74	1
75	22
76	43
77	29
78	43
79	22
80	80
81	44
82	21
83	18
84	17
85	5
86	5
87	7
88	8
89	41
90	108
91	76
92	47
93	25
94	10
95	19
96	96
97	117
98	27
99	6
100	2
101	2
102	8
103	19
104	7
105	34
106	24
107	19
108	22
109	8
110	9
111	2
112	1
113	1
114	0
115	2
116	17
117	97
118	75
119	47
120	24
121	6
122	52
123	53
124	92
125	110
126	9
128	43
130	13
132	3
133	10
134	51
135	40
136	6
137	7
138	1
139	1
140	2
141	1
142	2
143	18
144	98
145	8
146	1
147	1
148	1
149	42
150	363
151	74
152	23
153	3
160	61
161	104
162	14
163	4
164	0
165	0
166	5
167	18
168	2
169	2
176	48
177	42
178	38
179	5
180	1
183	3
184	1
192	12
193	46
194	570
195	72
196	52
197	5
198	1
209	0
210	15
211	408
212	59
213	41
214	4
