Mass Spectrum: Cyclobutanone, 3-phenylmethyl-
Formula: C11H12O
CAS: 55262-02-7
Molecular weight: 160
m/z	intensity
34	0
35	0
36	0
37	2
38	9
39	53
42	13
49	1
50	27
51	61
52	13
59	0
62	14
63	44
64	16
65	109
66	2
72	2
74	6
75	7
76	8
77	36
78	33
89	33
90	17
91	313
92	26
102	9
103	51
104	29
105	6
106	0
107	0
115	160
116	47
117	999
118	583
119	51
120	2
124	4
125	5
129	4
131	18
132	22
133	2
142	45
143	12
145	204
146	22
147	1
152	0
159	14
160	45
161	5
162	0
