Mass Spectrum: Hexadecanoic acid, 2-(acetyloxy)-1-[(acetyloxy)methyl]ethyl ester
Formula: C23H42O6
CAS: 55268-69-4
Molecular weight: 414
m/z	intensity
27	50
28	20
29	120
31	10
39	30
40	10
41	200
42	60
43	999
44	30
45	10
53	10
54	20
55	190
56	50
57	240
58	20
59	10
60	10
61	20
67	30
68	20
69	100
70	30
71	110
72	10
73	20
74	10
79	10
80	100
81	30
82	20
83	70
84	130
85	70
86	10
93	10
94	10
95	40
96	10
97	50
98	180
99	50
100	10
103	10
107	10
109	20
110	10
111	30
112	60
113	10
115	40
116	40
117	50
121	10
123	10
125	10
126	20
127	10
135	10
137	10
139	10
140	10
154	10
158	100
159	240
160	20
171	40
172	10
177	20
213	10
218	10
227	10
238	10
239	140
240	20
310	10
340	10
353	10
354	10
