Mass Spectrum: 4-Hydrazino benzo-1,2,3-triazine
Formula: C7H7N5
CAS: 55270-92-3
Molecular weight: 161
m/z	intensity
41	27
43	42
49	50
50	650
51	470
52	290
53	32
62	64
63	166
64	146
65	91
74	143
75	202
76	578
77	496
78	183
79	150
89	61
90	318
91	87
102	220
103	411
104	999
105	236
106	64
116	160
117	65
118	70
133	645
134	23
161	208
162	23
