Mass Spectrum: 2-Hexenal, 6-phenyl-, (E)-
Formula: C12H14O
CAS: 55282-87-6
Molecular weight: 174
m/z	intensity
41	60
50	10
51	80
52	10
53	30
55	40
63	40
65	161
66	10
68	10
70	303
77	101
78	60
79	70
81	20
83	393
84	10
89	10
91	999
92	292
103	60
104	282
105	353
106	20
115	20
117	90
118	10
128	30
129	40
130	454
131	101
145	20
156	30
174	30
