Mass Spectrum: Ethalfluralin
Formula: C13H14F3N3O4
CAS: 55283-68-6
Molecular weight: 333
m/z	intensity
15	5
26	7
27	150
28	84
29	362
30	68
31	6
33	1
37	4
38	11
39	199
40	27
41	180
42	53
43	285
44	23
45	11
46	5
47	1
48	1
49	1
50	22
51	37
52	42
53	116
54	30
55	999
56	271
57	32
58	8
59	3
60	1
61	5
62	17
63	33
64	30
65	22
66	6
67	9
68	20
69	150
70	24
71	97
72	9
73	2
74	25
75	63
76	33
77	27
78	18
79	7
80	8
81	30
82	15
83	11
84	7
85	22
86	6
87	10
88	28
89	42
90	19
91	15
92	8
93	13
94	15
95	33
96	11
97	6
98	10
99	14
100	20
101	18
102	24
103	26
104	14
105	87
106	12
107	19
108	17
109	31
110	5
111	3
112	11
113	26
114	18
115	53
116	25
117	30
118	16
119	27
120	21
121	14
122	5
123	31
124	8
125	47
126	54
127	47
128	32
129	19
130	23
131	61
132	32
133	45
134	16
135	11
136	5
137	8
138	26
139	26
140	50
141	29
142	25
143	95
144	56
145	142
146	42
147	31
148	19
149	9
150	5
151	38
152	34
153	61
154	21
155	12
156	19
157	21
158	62
159	89
160	90
161	24
162	10
163	10
164	21
165	19
166	37
167	18
168	9
169	15
170	26
171	41
172	80
173	49
174	47
175	15
176	20
177	11
178	17
179	8
180	7
181	5
182	11
183	16
184	23
185	67
186	98
187	70
188	39
189	24
190	20
191	8
192	15
193	6
194	3
195	4
196	17
197	68
198	83
199	64
200	65
201	49
202	90
203	16
204	6
205	5
206	39
207	6
208	2
209	3
210	19
211	123
212	108
213	68
214	33
215	22
216	17
217	22
218	18
219	9
220	4
221	2
222	3
223	7
224	67
225	61
226	66
227	43
228	22
229	13
230	6
231	14
232	56
233	15
234	12
235	7
236	4
237	12
238	63
239	32
240	29
241	24
242	14
243	28
244	19
245	6
246	34
247	8
248	65
249	7
250	2
251	12
252	11
253	16
254	13
255	17
256	6
257	29
258	26
259	14
260	22
261	8
262	6
263	2
264	88
265	10
266	4
267	4
268	5
269	11
270	7
271	30
272	13
273	4
274	4
275	4
276	401
277	52
278	19
279	2
280	2
281	1
282	5
283	2
284	20
285	26
286	7
287	21
288	6
289	2
290	1
291	1
292	164
293	19
294	2
298	5
299	28
300	6
301	17
302	4
303	2
304	4
314	36
316	282
317	43
318	31
319	4
320	1
332	3
333	77
334	11
335	2
