Mass Spectrum: Phosphoric acid, 3,3-diethoxy-2-[(trimethylsilyl)oxy]propyl bis(trimethylsilyl) ester
Formula: C16H41O7PSi3
CAS: 55282-72-9
Molecular weight: 460
m/z	intensity
41	30
42	5
43	30
44	20
45	85
46	5
47	300
48	5
49	10
55	10
56	5
57	20
58	10
59	120
60	10
61	20
62	5
63	5
69	5
70	5
71	5
72	15
73	621
74	50
75	611
76	25
77	60
78	5
79	5
81	5
85	20
87	10
89	15
91	5
93	5
95	5
99	5
100	5
101	230
102	35
103	999
104	110
105	20
113	5
115	35
116	160
117	40
118	5
119	15
121	5
128	5
129	300
130	40
131	80
132	10
133	60
134	15
135	25
136	5
137	10
143	15
145	20
147	65
148	10
149	10
151	5
159	45
160	10
161	5
167	5
172	10
173	340
174	45
175	35
176	5
177	5
179	5
181	10
189	5
191	10
193	15
195	15
197	10
203	30
204	5
205	10
209	10
211	120
212	20
213	15
219	5
221	5
225	35
226	10
227	35
228	5
229	5
241	5
243	20
253	5
255	15
256	5
267	5
269	10
270	15
271	40
272	10
273	5
283	15
284	5
285	20
286	5
295	5
297	10
298	15
299	310
300	70
301	45
302	10
303	5
313	10
314	10
315	70
316	20
317	10
325	5
326	5
327	5
328	10
329	5
341	15
342	15
343	250
344	70
345	40
346	10
347	7
348	3
357	55
358	15
359	7
360	2
361	1
369	2
370	4
371	10
372	4
373	2
385	23
386	9
387	5
388	2
399	35
400	7
401	5
402	3
403	1
414	5
415	10
416	4
417	3
429	3
430	1
431	1
445	19
446	8
447	5
