Mass Spectrum: Heneicosanoic acid, 2,5-dimethyl-, methyl ester
Formula: C24H48O2
CAS: 55282-05-8
Molecular weight: 368
m/z	intensity
15	6
16	3
17	5
18	15
26	1
27	14
28	6
29	43
30	1
31	2
39	11
40	3
41	130
42	34
43	224
44	8
45	8
46	106
48	4
51	1
52	1
53	9
54	12
55	221
56	71
57	200
58	10
59	59
60	3
61	3
64	6
65	2
66	1
67	22
68	14
69	135
70	43
71	87
72	8
73	22
74	14
75	4
77	2
79	4
81	21
82	12
83	154
84	19
85	52
86	5
87	37
88	999
89	65
90	9
91	2
93	3
94	2
95	18
96	7
97	63
98	12
99	13
100	2
101	324
102	32
103	4
104	1
105	1
106	1
107	6
108	3
109	18
110	5
111	53
112	44
113	11
114	4
115	128
116	11
117	3
121	4
122	2
123	12
124	4
125	21
126	7
127	12
128	2
129	4
130	1
131	1
134	8
135	3
136	1
137	2
138	2
139	7
140	3
141	4
142	2
143	94
144	15
145	2
147	1
149	6
150	1
151	2
152	1
153	5
154	2
155	3
156	1
157	10
158	3
162	1
163	2
165	1
166	1
167	4
168	1
169	3
171	26
172	4
173	6
176	1
178	1
179	5
180	1
181	2
182	1
183	2
184	1
185	3
186	1
190	1
192	1
193	1
194	2
197	2
199	4
200	1
201	1
202	1
205	1
207	3
208	1
209	2
210	1
211	2
213	4
214	1
222	1
223	2
224	1
225	1
227	5
228	1
233	1
237	1
238	1
239	1
241	5
242	2
249	1
250	1
251	2
252	1
253	1
255	4
256	1
269	3
270	1
274	1
278	11
279	5
280	2
281	3
283	16
284	5
285	1
291	1
292	1
293	1
294	1
303	1
307	1
309	6
310	2
311	201
312	47
313	7
314	1
317	2
318	4
319	6
320	2
321	3
325	1
326	2
332	2
335	4
336	4
337	30
338	8
339	2
349	1
351	1
353	10
354	3
355	2
356	1
365	9
366	1
367	5
368	266
369	83
370	15
371	2
