Mass Spectrum: Androstane-17-carboxylic acid, 3,4-dihydroxy-11-oxo-, methyl ester, (3.beta.,4.beta.,5.alpha.,17.beta.)-
Formula: C21H32O5
CAS: 55282-39-8
Molecular weight: 364
m/z	intensity
26	29
27	119
28	101
29	132
30	13
31	59
32	5
36	16
38	16
39	141
40	52
41	453
42	54
43	356
44	86
45	41
50	16
51	36
52	32
53	183
54	64
55	434
56	45
57	146
58	22
59	98
60	22
61	13
63	18
65	82
66	52
67	382
68	137
69	235
70	45
71	64
72	16
73	38
74	22
75	9
77	189
78	59
79	343
80	73
81	416
82	144
83	251
84	73
85	68
86	6
87	73
88	32
89	11
91	354
92	98
93	411
94	160
95	320
96	132
97	999
98	114
99	77
100	29
101	29
102	192
103	45
104	22
105	274
106	137
107	389
108	164
109	244
110	114
111	137
112	32
113	32
114	160
115	64
116	29
117	75
118	82
119	183
120	132
121	160
122	86
123	187
124	171
125	54
126	22
127	29
128	45
129	86
130	41
131	205
132	132
133	379
134	215
135	137
136	91
137	199
138	84
139	91
140	32
141	84
142	41
143	91
144	45
145	155
146	64
147	324
148	114
149	235
150	121
151	103
152	82
153	105
154	68
155	91
156	517
157	107
158	45
159	91
160	45
161	98
162	52
163	91
164	123
165	128
166	52
167	41
168	22
169	164
170	82
171	82
172	52
173	130
174	32
175	114
176	52
177	123
178	86
179	91
180	45
181	29
182	64
183	41
184	16
185	36
186	18
187	34
188	27
189	52
190	77
191	224
192	132
193	221
194	77
195	103
196	22
197	86
198	22
199	41
200	22
201	32
202	29
203	52
204	22
205	45
206	105
207	91
208	64
209	173
210	45
211	27
212	16
213	22
214	13
215	27
216	22
217	61
218	27
219	68
220	109
221	68
222	160
223	54
224	18
225	41
226	16
227	41
228	18
229	22
230	18
231	22
232	29
233	64
234	167
235	183
236	68
237	22
238	91
239	45
240	16
241	22
242	18
243	34
244	22
245	164
246	45
247	22
248	16
249	36
250	22
251	107
252	27
253	41
254	13
255	18
256	13
257	18
258	34
259	34
260	34
261	45
262	38
263	823
264	212
265	29
266	13
267	16
268	27
269	68
270	22
271	45
272	22
273	22
274	11
275	38
276	57
277	22
278	18
279	9
280	22
281	16
284	9
285	34
286	109
287	114
288	36
289	27
290	29
291	13
292	13
293	22
295	18
296	22
297	22
299	29
300	45
301	18
302	36
303	36
304	407
305	123
306	27
307	16
308	320
309	68
310	32
311	13
312	6
313	59
314	59
315	77
316	27
317	36
318	338
319	77
320	16
321	16
322	16
326	6
327	6
328	224
329	59
330	22
331	82
332	251
333	215
334	45
335	13
336	144
337	29
338	9
344	38
345	22
346	999
347	228
348	498
349	45
350	13
360	22
361	9
362	36
363	27
364	846
365	201
366	32
