Mass Spectrum: 3,8-Nonadien-2-one, (E)-
Formula: C9H14O
CAS: 55282-90-1
Molecular weight: 138
m/z	intensity
41	290
42	20
43	999
44	30
50	10
51	30
52	20
53	160
54	70
55	700
56	20
65	30
66	20
67	220
68	70
69	120
70	60
77	40
78	20
79	100
80	350
81	290
82	40
83	20
84	150
93	30
94	50
95	400
96	80
97	150
109	40
110	30
123	160
124	20
137	30
138	40
