Mass Spectrum: 2,6-Octadienoic acid, 3-methyl-, methyl ester, (E,Z)-
Formula: C10H16O2
CAS: 55283-12-0
Molecular weight: 168
m/z	intensity
41	140
43	40
45	10
53	130
54	80
55	999
56	40
59	100
67	90
68	40
69	20
77	30
79	60
80	20
81	50
82	230
83	380
84	30
91	40
93	100
94	30
95	30
99	40
107	30
108	170
109	370
110	30
113	30
114	320
115	20
121	30
125	110
126	20
136	40
137	170
138	20
139	70
153	30
168	80
169	20
