Mass Spectrum: 2,6-Octadienoic acid, 3-methyl-, methyl ester, (E,E)-
Formula: C10H16O2
CAS: 55283-13-1
Molecular weight: 168
m/z	intensity
41	120
42	10
43	20
44	10
53	110
54	60
55	999
56	50
59	80
65	20
67	80
68	40
77	30
78	10
79	50
80	20
81	40
82	180
83	240
84	20
91	30
93	90
94	30
95	40
99	30
106	30
107	20
108	170
109	340
110	30
111	30
113	20
114	300
115	20
121	20
125	100
126	50
136	30
137	190
138	20
139	60
140	10
150	20
168	130
169	20
