Mass Spectrum: Morphinan, 3-methoxy-6-methyl-17-(2-phenylethyl)-, (6.alpha.)-
Formula: C26H33NO
CAS: 55282-43-4
Molecular weight: 375
m/z	intensity
40	30
41	999
42	430
43	50
44	480
45	60
46	10
50	120
51	20
54	170
55	130
56	20
57	520
58	40
65	320
66	30
77	320
78	110
79	210
80	30
90	30
91	970
92	140
93	20
103	140
104	30
105	340
106	40
115	280
116	30
121	220
122	20
128	300
129	170
130	20
141	200
142	30
153	120
154	20
158	120
159	120
160	10
163	140
164	20
171	570
172	140
173	20
184	120
185	120
186	10
217	130
218	20
284	920
285	200
286	30
