Mass Spectrum: Cyclohexane, 1,3,5-trimethyl-2-octadecyl-
Formula: C27H54
CAS: 55282-34-3
Molecular weight: 378
m/z	intensity
37	11
38	18
39	39
40	10
41	320
42	77
43	449
44	15
45	1
46	1
47	1
48	1
49	1
50	1
51	2
52	2
53	22
54	25
55	426
56	113
57	312
58	14
59	1
60	1
61	1
62	1
63	1
64	1
65	4
66	3
67	52
68	46
69	771
70	124
71	105
72	6
73	1
74	1
75	1
76	1
77	4
78	1
79	8
80	3
81	51
82	41
83	269
84	57
85	65
86	5
87	1
88	1
89	1
90	1
91	3
92	1
93	4
94	2
95	44
96	50
97	114
98	17
99	9
100	1
101	1
102	1
103	1
104	1
105	1
106	1
107	2
108	1
109	78
110	38
111	166
112	19
113	6
114	1
115	1
116	1
117	1
118	1
119	1
120	1
121	1
122	1
123	12
124	157
125	999
126	105
127	9
128	1
129	1
130	1
131	1
132	1
133	1
134	1
135	1
136	1
137	2
138	1
139	6
140	3
141	3
142	1
143	1
144	1
145	1
146	1
147	1
148	1
149	1
150	1
151	1
152	1
153	3
154	1
155	2
156	1
157	1
158	1
159	1
160	1
161	1
162	1
163	1
164	1
165	1
166	1
167	2
168	1
169	2
170	1
171	1
172	1
173	1
174	1
175	1
176	1
177	1
178	1
179	1
180	1
181	1
182	1
183	1
184	1
185	1
186	1
187	1
188	1
189	1
190	1
191	1
192	1
193	1
194	1
195	1
196	1
197	1
198	1
199	1
200	1
201	1
202	1
203	1
204	1
205	1
206	1
207	1
208	1
209	1
210	1
211	1
212	1
213	1
214	1
215	1
216	1
217	1
218	1
219	1
220	1
221	1
222	1
223	1
224	1
225	1
226	1
227	1
228	1
229	1
230	1
231	1
232	1
233	1
234	1
235	1
236	1
237	1
238	1
239	1
240	1
241	1
242	1
243	1
244	1
245	1
246	1
247	1
248	1
249	1
250	1
251	1
252	2
253	1
254	1
255	1
256	1
257	1
258	1
259	1
260	1
261	1
262	1
263	1
264	1
265	1
266	1
267	1
268	1
269	1
270	1
271	1
272	1
273	1
274	1
275	1
276	1
277	1
278	1
279	1
280	2
281	1
282	1
283	1
284	1
285	1
286	1
287	1
288	1
289	1
290	1
291	1
292	1
293	2
294	6
295	2
296	1
297	1
298	1
299	1
300	1
301	1
302	1
303	1
304	1
305	1
306	1
307	1
308	8
309	6
310	1
311	1
312	1
313	1
314	1
315	1
316	1
317	1
318	1
319	1
320	1
321	1
322	1
323	1
324	1
325	1
326	1
327	1
328	1
329	1
330	1
331	1
332	1
333	1
334	1
335	19
336	7
337	1
338	1
339	1
340	1
341	1
342	1
343	1
344	1
345	1
346	1
347	1
348	1
349	1
350	1
351	1
352	1
353	1
354	1
355	1
356	1
357	1
358	1
359	1
360	1
361	1
362	1
363	3
364	1
365	1
366	1
367	1
368	1
369	1
370	1
371	1
372	1
373	1
374	1
375	1
376	1
377	1
378	6
379	2
380	1
381	1
