Mass Spectrum: 1,1':3',1''-Tercyclopentane, 2'-dodecyl-
Formula: C27H50
CAS: 55282-68-3
Molecular weight: 374
m/z	intensity
37	2
38	5
39	101
40	28
41	999
42	115
43	729
44	6
45	0
46	0
49	0
50	3
51	6
52	5
53	81
54	123
55	685
56	96
57	362
58	16
59	0
60	0
61	1
62	1
63	2
64	1
65	27
66	99
67	952
68	251
69	665
70	66
71	134
72	8
73	0
74	0
75	1
76	1
77	46
78	14
79	153
80	85
81	598
82	307
83	523
84	46
85	74
86	5
87	0
88	0
89	1
90	0
91	48
92	13
93	111
94	72
95	872
96	288
97	347
98	30
99	18
100	1
101	0
102	0
103	0
104	1
105	14
106	5
107	39
108	55
109	505
110	209
111	180
112	18
113	12
114	1
115	2
116	1
117	4
118	1
119	6
120	3
121	69
122	33
123	471
124	76
125	72
126	9
127	9
128	1
129	1
130	0
131	2
132	1
133	6
134	19
135	219
136	57
137	242
138	42
139	39
140	5
141	5
142	1
143	1
144	0
145	1
146	0
147	2
148	3
149	40
150	19
151	61
152	12
153	24
154	4
155	3
156	0
157	0
158	0
159	0
160	0
161	2
162	1
163	13
164	8
165	22
166	5
167	16
168	3
169	2
170	0
171	0
172	0
173	0
174	0
175	1
176	1
177	8
178	4
179	12
180	4
181	11
182	4
183	2
184	0
185	0
186	0
187	0
188	0
189	1
190	0
191	9
192	103
193	24
194	5
195	12
196	3
197	1
198	0
199	0
200	0
201	1
202	0
203	5
204	23
205	99
206	35
207	12
208	11
209	31
210	11
211	4
212	0
213	0
214	0
215	0
216	0
217	0
218	0
219	1
220	3
221	8
222	5
223	25
224	5
225	0
226	0
227	0
228	0
229	0
230	0
231	0
232	0
233	1
234	9
235	37
236	34
237	7
238	1
239	0
240	0
241	0
243	0
245	0
246	0
247	0
248	1
249	8
250	13
251	3
252	0
253	0
254	0
258	0
259	0
260	0
261	1
262	3
263	29
264	92
265	19
266	2
267	0
274	0
275	0
276	0
277	3
278	45
279	10
280	1
281	0
287	0
288	0
289	0
290	0
291	1
292	10
293	2
294	0
296	0
297	0
298	0
299	0
300	0
301	0
302	1
303	0
304	9
305	50
306	94
307	29
308	5
309	0
315	0
317	1
318	0
319	0
329	0
330	0
331	0
332	0
345	0
346	1
347	0
364	0
366	0
368	0
370	0
371	0
372	0
373	0
374	39
375	11
376	1
377	0
