Mass Spectrum: Cholest-2-ene-2-methanethiol, acetate, (5.alpha.)-
Formula: C30H50OS
CAS: 55283-36-8
Molecular weight: 458
m/z	intensity
60	118
61	51
63	14
64	22
65	96
66	44
67	622
68	155
69	933
70	140
71	570
72	37
73	66
74	14
75	14
76	22
77	207
78	66
79	585
80	111
81	933
82	155
83	96
84	103
85	222
86	22
87	51
88	7
89	22
91	511
92	125
93	637
94	185
95	999
96	118
97	333
98	66
99	118
100	51
101	59
102	22
103	44
104	88
105	614
106	244
107	562
108	170
109	385
110	66
111	192
112	37
113	66
114	22
115	51
116	14
117	133
118	200
119	466
120	659
121	414
122	103
123	229
124	44
125	96
126	22
127	66
128	37
129	59
130	29
131	148
132	59
133	148
134	96
135	185
136	59
137	103
138	37
139	66
140	22
141	37
142	29
143	51
144	22
145	133
146	44
147	207
148	51
149	185
150	29
151	66
152	37
153	44
154	7
155	44
156	14
157	44
158	22
159	148
160	51
161	214
162	66
163	81
164	22
165	44
166	14
167	22
168	14
169	29
170	14
171	44
172	14
173	118
174	74
175	118
176	51
177	59
178	7
179	37
180	14
181	44
182	22
183	14
185	44
186	14
187	51
188	22
189	44
190	7
191	29
193	51
194	14
195	74
196	14
197	7
198	22
199	51
200	51
201	229
202	81
203	325
204	66
205	88
206	96
207	170
208	59
209	37
210	7
211	22
212	14
213	140
214	66
215	207
216	51
217	88
218	29
219	74
220	29
221	81
222	14
223	14
225	22
226	7
227	577
228	177
229	451
230	118
231	96
232	22
233	81
234	14
235	88
236	22
237	14
239	7
241	96
242	170
243	274
244	81
245	66
246	29
247	133
248	37
249	81
250	22
251	7
253	22
254	7
255	88
256	29
257	96
258	29
259	74
260	81
261	229
262	103
263	96
264	22
265	7
267	14
268	14
269	422
270	103
271	81
272	14
273	51
274	37
275	162
276	207
277	81
278	14
283	14
285	29
286	7
287	162
288	51
289	88
290	22
291	22
297	59
298	22
299	44
300	37
301	170
302	66
303	311
304	81
305	59
306	14
307	7
311	22
312	37
313	170
314	296
316	311
317	96
318	118
319	22
320	14
321	7
325	14
326	14
327	81
328	96
329	185
330	59
331	44
332	14
339	14
345	74
346	14
353	22
354	29
355	14
367	296
368	96
369	303
370	88
371	14
380	7
381	44
382	740
383	711
384	229
385	44
401	44
402	14
415	162
416	325
417	133
418	29
419	14
425	22
443	318
444	103
445	29
446	7
457	22
458	118
459	37
460	14
