Mass Spectrum: Heneicosanoic acid, 3,3-dimethyl-, methyl ester
Formula: C24H48O2
CAS: 55282-07-0
Molecular weight: 368
m/z	intensity
14	3
15	23
16	13
17	118
18	55
19	6
20	2
21	3
26	4
27	38
28	32
29	93
30	66
31	7
32	2
38	2
39	24
40	6
41	221
42	50
43	332
44	128
45	22
47	5
52	2
53	13
54	20
55	279
56	193
57	450
58	24
59	56
60	16
61	5
64	9
65	3
66	3
67	39
68	30
69	284
70	78
71	319
72	21
73	421
74	780
75	279
76	15
77	5
78	3
79	9
80	4
81	41
82	60
83	230
84	51
85	260
86	29
87	52
88	9
89	3
91	4
92	2
93	7
94	3
95	35
96	27
97	133
98	32
99	144
100	12
101	58
102	7
103	2
104	4
105	5
106	2
107	7
108	3
109	22
110	18
111	88
112	35
113	131
114	88
115	999
116	97
117	12
118	2
119	3
120	2
121	8
122	4
123	15
124	10
125	47
126	17
127	118
128	18
129	18
130	4
131	2
133	3
134	2
135	8
136	4
137	10
138	8
139	27
140	10
141	110
142	13
143	26
144	5
145	2
147	3
148	3
149	4
150	3
151	6
152	7
153	19
154	7
155	106
156	13
157	13
158	6
159	2
161	2
162	2
163	6
164	2
165	4
166	6
167	16
168	7
169	99
170	14
171	37
172	6
173	2
175	2
177	4
178	3
179	3
180	5
181	14
182	5
183	91
184	15
185	12
186	3
187	2
189	2
191	3
192	2
193	3
194	5
195	9
196	5
197	85
198	11
199	24
200	9
201	5
202	10
204	3
205	5
206	2
207	3
208	4
209	7
210	6
211	75
212	13
213	9
214	3
219	3
220	2
221	3
222	4
223	8
224	5
225	61
226	11
227	13
228	4
229	2
233	3
235	2
236	8
237	6
238	21
239	47
240	9
241	12
242	3
244	2
247	3
249	2
250	5
251	8
252	5
253	18
254	4
255	9
256	4
257	2
261	2
262	2
263	2
264	4
265	4
266	26
267	8
268	2
269	6
270	5
271	2
272	2
275	2
278	3
279	28
280	7
281	3
283	7
284	4
285	2
289	2
290	2
292	7
293	4
294	201
295	652
296	149
297	37
298	16
299	4
300	4
301	3
302	2
303	10
304	3
306	2
307	2
308	3
309	3
310	2
311	72
312	23
313	5
314	2
316	2
317	3
318	2
319	2
321	14
322	4
325	5
326	2
334	2
335	4
336	4
337	55
338	16
339	4
340	2
353	51
354	14
355	3
367	7
368	150
369	58
370	11
371	2
