Mass Spectrum: Cyclohexanone, 2-ethyl-2-propyl-
Formula: C11H20O
CAS: 55283-56-2
Molecular weight: 168
m/z	intensity
41	610
42	100
43	200
44	10
51	10
53	90
54	30
55	999
56	110
57	60
67	130
68	140
69	630
70	250
71	10
77	30
79	50
81	60
82	20
83	120
84	40
91	10
93	20
95	230
96	50
97	430
98	90
107	20
109	40
111	220
121	20
124	110
125	30
126	810
127	60
139	20
140	20
