Mass Spectrum: 2,6-Decadienoic acid, 3-methyl-, ethyl ester, (Z,E)-
Formula: C13H22O2
CAS: 55283-34-6
Molecular weight: 210
m/z	intensity
41	720
42	60
43	230
44	20
45	30
51	30
52	20
53	170
54	190
55	999
56	60
65	50
66	10
67	210
68	20
69	80
70	10
71	30
77	80
78	10
79	140
80	40
81	320
82	330
83	330
84	30
85	60
87	10
91	80
92	20
93	200
94	70
95	150
96	70
97	30
98	20
99	40
100	420
101	40
105	20
107	90
108	40
109	50
110	20
111	80
112	20
113	70
114	180
115	30
121	60
122	40
123	20
125	50
126	20
127	20
128	510
129	50
135	60
136	130
137	230
138	20
139	100
140	10
141	20
149	10
153	30
154	10
164	20
165	190
166	20
167	20
168	10
181	20
210	100
211	20
