Mass Spectrum: l-Threonine, N,N-bis(trifluoroacetyl)-, butyl ester
Formula: C12H15F6NO5
CAS: 55282-41-2
Molecular weight: 367
m/z	intensity
15	17
16	4
17	6
18	30
20	1
26	14
27	161
29	732
30	23
31	28
33	2
38	2
39	100
40	34
41	740
42	40
43	92
44	28
45	62
46	2
47	51
50	15
51	29
52	4
53	10
54	69
55	127
56	176
57	999
58	57
59	21
60	5
68	4
69	379
70	8
72	1
73	4
75	1
77	7
78	17
82	17
83	13
84	153
85	15
90	5
94	2
95	5
96	22
97	23
98	3
100	10
104	9
110	4
113	28
114	1
115	5
122	1
123	5
124	9
125	6
126	11
132	23
133	5
138	32
140	2
141	46
142	4
150	4
151	10
152	309
153	530
154	48
155	3
166	5
170	14
171	29
178	4
179	42
180	36
181	2
195	1
197	7
198	22
199	1
214	4
227	12
246	1
253	2
254	10
266	13
267	2
274	3
292	7
312	4
323	1
