Mass Spectrum: Cholestane-5-carbonitrile, 3,3-dimethoxy-, (5.beta.)-
Formula: C30H51NO2
CAS: 55282-49-0
Molecular weight: 457
m/z	intensity
41	60
43	80
55	50
57	50
67	20
69	40
71	20
81	40
83	20
84	80
85	30
88	60
95	30
101	999
102	60
139	40
153	40
312	10
425	10
426	80
427	30
442	10
457	20
458	10
