Mass Spectrum: 2,6-Nonadienoic acid, 7-ethyl-3-methyl-, methyl ester, (E)-
Formula: C13H22O2
CAS: 55283-21-1
Molecular weight: 210
m/z	intensity
41	120
43	40
53	40
54	20
55	999
56	50
59	10
67	40
69	50
77	20
79	20
81	20
82	40
83	70
91	20
93	20
96	30
97	300
98	30
114	280
115	20
127	20
136	30
139	20
150	30
151	50
178	30
179	50
210	10
