Mass Spectrum: Pentanethioic acid, O-methyl ester
Formula: C6H12OS
CAS: 55283-58-4
Molecular weight: 132
m/z	intensity
41	160
42	20
43	40
44	20
45	80
46	10
47	70
53	10
55	60
56	10
57	80
58	120
59	230
60	470
61	70
62	10
65	10
67	40
69	10
71	250
72	10
73	10
74	20
75	150
85	20
90	999
91	20
92	20
99	190
100	20
101	10
103	60
104	30
132	170
133	10
