Mass Spectrum: Dichotine, 2-deoxy-2,21-epoxy-11-methoxy-, (21.alpha.)-
Formula: C23H26N2O7
CAS: 55283-47-1
Molecular weight: 442
m/z	intensity
41	101
42	202
43	757
44	90
45	20
52	10
53	10
54	10
55	90
56	30
57	40
58	878
59	272
60	10
61	10
64	20
65	10
66	10
67	10
68	10
69	40
70	525
71	999
72	50
76	10
77	20
79	10
81	20
82	30
83	434
84	20
85	20
88	10
89	10
91	10
94	10
95	10
96	10
97	10
98	30
101	90
110	10
115	10
116	10
128	10
129	10
150	10
156	10
174	10
186	10
243	20
246	10
247	10
259	20
274	10
275	30
317	10
332	262
333	40
342	20
370	10
383	30
384	10
385	40
386	10
399	20
400	10
410	10
411	30
412	10
413	10
414	20
415	10
426	40
427	60
428	20
441	10
442	262
443	70
444	10
