Mass Spectrum: 2,7-Nonadienoic acid, 3,8-dimethyl-, methyl ester, (E)-
Formula: C12H20O2
CAS: 55283-31-3
Molecular weight: 196
m/z	intensity
41	580
42	30
43	90
53	120
54	40
55	300
56	30
59	50
65	30
67	320
68	40
69	260
77	30
79	50
81	120
82	999
83	330
85	20
93	50
95	100
114	400
115	30
125	60
126	10
127	100
128	20
136	20
137	70
153	20
164	10
165	30
196	10
