Mass Spectrum: Eicosanoic acid, 2-ethyl-2-methyl-, methyl ester
Formula: C24H48O2
CAS: 55282-04-7
Molecular weight: 368
m/z	intensity
14	3
15	27
16	6
17	12
18	13
25	3
26	21
27	100
28	60
29	210
30	8
31	6
32	2
33	2
37	6
38	10
39	100
40	23
41	460
42	110
43	640
44	65
45	16
49	2
50	8
51	9
52	6
53	36
54	34
55	450
56	120
57	570
58	27
59	85
60	5
61	4
65	7
66	5
67	50
68	24
69	240
70	150
71	280
72	17
73	28
74	15
75	5
76	3
77	8
78	8
79	11
80	3
81	31
82	22
83	160
84	42
85	170
86	13
87	32
88	19
89	2
91	8
92	3
93	5
94	2
95	20
96	15
97	100
98	22
99	67
100	11
101	180
102	21
103	3
106	2
107	3
108	2
109	10
110	4
111	41
112	12
113	45
114	7
115	44
116	999
117	68
118	7
119	2
121	2
123	4
124	3
125	16
126	8
127	32
128	5
129	84
130	9
137	2
139	8
140	4
141	23
142	3
143	15
144	2
153	3
155	15
156	2
157	6
167	2
169	11
171	16
172	2
183	9
185	10
197	7
199	3
211	6
213	3
225	5
227	5
239	4
241	4
253	3
255	2
267	2
283	8
284	2
297	11
298	3
308	4
309	46
310	12
311	4
339	8
340	20
341	8
368	25
369	9
