Mass Spectrum: Morphinan, 3-methoxy-6-methyl-17-(phenylacetyl)-, (6.alpha.)-
Formula: C26H31NO2
CAS: 55281-49-7
Molecular weight: 389
m/z	intensity
41	110
42	20
43	50
44	70
45	10
55	60
56	10
67	50
68	10
90	50
91	999
92	150
93	30
111	110
112	20
115	100
116	10
118	60
119	10
128	100
129	60
130	10
141	70
142	10
153	280
154	30
161	140
162	20
389	70
390	30
