Mass Spectrum: Copper, bis(4-chloro-3,5-cyclohexadiene-1,2-dione 2-oximato-N2,O1)(pyridine)-
Formula: C17H11Cl2CuN3O4
CAS: 55282-74-1
Molecular weight: 454
m/z	intensity
26	400
27	100
28	220
29	50
30	100
36	40
37	200
38	250
39	270
44	400
49	150
50	470
51	550
52	600
53	200
54	110
61	110
62	200
63	999
64	110
67	150
73	220
75	130
76	220
78	350
79	550
93	270
98	110
99	220
113	130
115	40
121	80
127	70
140	150
142	60
156	40
157	180
158	20
159	60
161	130
163	100
189	130
191	90
193	20
219	160
221	130
223	20
240	30
242	30
249	10
282	50
284	40
286	10
304	10
306	10
343	14
345	15
347	6
375	45
377	50
378	10
379	20
