Mass Spectrum: 1,3-Dioxolane, 2-methyl-2-(5-phenyl-3-pentenyl)-
Formula: C15H20O2
CAS: 55282-92-3
Molecular weight: 232
m/z	intensity
41	20
42	10
43	320
51	20
53	10
65	20
77	20
87	999
88	50
89	10
91	140
92	10
97	20
104	20
115	50
116	10
117	10
127	10
128	20
129	90
130	490
131	90
141	20
170	20
217	30
218	10
