Mass Spectrum: 2-Pentenoic acid, 5-phenyl-, ethyl ester, (E)-
Formula: C13H16O2
CAS: 55282-95-6
Molecular weight: 204
m/z	intensity
51	20
63	10
65	50
72	20
77	10
91	999
92	80
104	20
115	10
116	20
117	20
129	20
130	100
131	30
158	40
159	70
204	20
