Mass Spectrum: Pentacosanoic acid, 4-methyl-, methyl ester
Formula: C27H54O2
CAS: 55281-93-1
Molecular weight: 410
m/z	intensity
15	10
17	3
18	13
26	5
27	28
28	21
29	78
30	4
31	14
32	8
38	2
39	31
40	8
41	200
42	55
43	390
44	31
45	7
50	2
51	3
52	2
53	14
54	21
55	290
56	120
57	320
58	17
59	43
60	3
65	3
66	2
67	31
68	20
69	170
70	49
71	180
72	11
73	48
74	400
75	84
76	6
77	4
78	2
79	7
80	3
81	32
82	18
83	130
84	24
85	99
86	8
87	999
88	93
89	8
91	4
93	6
94	3
95	24
96	13
97	75
98	21
99	32
100	3
101	8
102	9
107	5
108	2
109	13
110	7
111	35
112	16
113	22
114	5
115	64
116	6
117	2
121	5
123	6
124	3
125	15
126	4
127	15
128	6
129	7
130	2
135	5
137	3
138	2
139	5
140	2
141	12
142	2
143	6
144	2
151	2
153	4
154	2
155	10
157	12
163	2
167	3
169	8
171	2
181	2
183	7
197	6
199	2
211	5
213	2
225	4
239	4
253	4
267	3
281	3
336	13
337	42
338	12
339	3
353	77
354	21
355	3
378	2
379	13
380	5
381	7
382	2
410	82
411	27
412	5
