Mass Spectrum: Nordazepam, TMS derivative
Formula: C18H19ClN2OSi
CAS: 55299-24-6
Molecular weight: 342
m/z	intensity
41	5
42	5
43	50
44	30
45	250
46	15
47	15
50	10
51	30
52	5
53	5
55	5
56	5
57	10
58	15
59	35
60	5
61	5
62	5
63	25
64	5
65	40
66	5
70	5
71	5
72	20
73	999
74	90
75	85
76	20
77	50
78	5
79	5
84	5
85	5
86	5
87	5
88	10
89	30
90	15
91	160
92	10
93	15
95	5
98	5
99	10
100	20
101	5
102	20
103	15
104	5
105	5
110	5
111	15
112	5
113	10
114	15
115	15
116	40
117	20
118	5
119	5
121	5
123	10
124	15
125	10
126	10
127	5
128	5
129	5
130	5
131	10
132	10
135	15
136	5
137	10
138	10
139	10
140	5
141	5
145	5
146	50
147	5
148	5
149	5
150	20
151	25
152	20
153	5
161	5
162	5
163	35
164	25
165	15
166	15
167	5
168	5
174	10
175	5
176	10
177	25
178	15
179	10
180	5
182	5
188	5
189	10
190	30
191	15
192	5
193	5
194	5
196	5
198	5
199	10
201	5
202	5
203	5
204	5
205	15
206	10
207	5
213	5
214	5
215	5
216	5
217	5
218	5
219	5
224	5
225	5
226	5
227	55
228	10
229	20
230	5
233	5
234	5
235	5
236	5
238	5
239	20
240	10
241	15
242	5
243	5
251	5
252	5
253	5
254	5
255	5
256	5
265	5
267	5
268	10
269	35
270	10
271	15
272	5
279	5
285	5
290	5
291	5
297	5
298	5
299	10
300	5
301	5
305	5
306	5
307	10
308	5
312	5
313	5
314	5
315	5
316	5
325	5
326	10
327	165
328	40
329	65
330	15
331	5
338	5
339	15
340	20
341	900
342	640
343	440
344	195
345	5
