Mass Spectrum: dl-Serine, N-acetyl-, methyl ester
Formula: C6H11NO4
CAS: 55299-56-4
Molecular weight: 161
m/z	intensity
26	4
27	15
28	133
29	44
30	61
31	71
33	124
34	1
39	3
40	6
41	27
42	156
43	789
44	31
45	14
46	4
51	1
52	1
53	1
54	4
55	12
56	16
57	110
58	30
59	45
60	999
61	30
62	2
68	1
69	5
70	10
71	66
72	9
73	3
74	49
75	3
77	1
81	1
82	1
83	3
84	46
85	9
86	15
87	2
88	531
89	121
90	7
91	1
98	1
99	301
100	16
101	45
102	346
103	20
104	2
110	0
111	3
112	1
113	3
115	2
117	0
118	8
119	0
120	1
128	1
129	1
130	26
131	269
132	16
133	2
143	36
144	4
145	0
162	5
