Mass Spectrum: 1H,4H-Benz[d]-1,3-thiazin-2-one
Formula: C8H7NOS
CAS: 553-04-8
Molecular weight: 165
m/z	intensity
41	8
43	6
44	5
45	101
46	4
47	10
49	30
50	74
51	159
52	137
53	11
54	19
57	2
58	10
60	30
61	17
62	23
63	61
64	18
65	31
66	8
68	176
70	10
71	7
74	17
75	16
76	34
77	184
78	571
79	34
81	7
82	8
83	1
84	21
86	18
89	15
90	12
91	7
92	6
93	8
95	9
102	14
104	898
105	999
106	66
107	2
108	13
109	30
110	7
120	9
121	28
132	196
133	11
134	5
135	2
136	63
137	2
138	2
148	22
149	13
164	11
165	923
166	91
167	54
168	1
