Mass Spectrum: 1-Methylcycloheptene
Formula: C8H14
CAS: 55308-20-8
Molecular weight: 110
m/z	intensity
24	1
25	2
26	12
27	205
28	24
29	116
30	1
31	0
33	1
34	1
35	2
37	9
38	19
39	323
40	75
41	554
42	54
43	33
45	7
46	6
47	3
48	1
49	3
50	25
51	59
52	34
53	201
54	365
55	295
56	178
57	8
60	1
61	2
62	6
63	18
64	4
65	62
66	97
67	999
68	666
69	236
70	12
71	0
73	1
74	3
75	4
76	1
77	76
78	18
79	104
80	38
81	642
82	330
83	17
84	0
87	1
88	0
89	2
90	1
91	40
92	4
93	33
94	6
95	635
96	47
97	1
103	1
105	2
106	0
107	2
108	2
109	18
110	407
111	39
112	0
