Mass Spectrum: 1H-Pyrrole-3-propanoic acid, 4-(2-methoxy-2-oxoethyl)-2-[[4-(3-methoxy-3-oxopropyl)-3-methyl-5-[(phenylmethoxy)carbonyl]-1H-pyrrol-2-yl]methyl]-5-[(phenylmethoxy)carbonlyl]-
Formula: C37H40N2O10
CAS: 55305-16-3
Molecular weight: 672
m/z	intensity
26	11
27	70
29	47
30	5
31	42
36	19
37	35
38	150
39	11
40	15
42	4
43	12
44	25
45	2
49	13
50	140
51	283
52	77
53	72
54	16
55	12
57	2
59	6
61	13
62	29
63	78
64	16
65	125
66	9
67	2
68	2
73	8
74	33
75	28
76	17
77	527
78	133
79	999
80	127
81	8
85	4
86	7
87	4
88	2
89	73
90	107
91	881
92	74
93	4
94	3
104	3
105	34
106	17
107	695
108	920
109	81
110	5
118	4
120	5
121	2
122	1
132	4
133	2
134	3
136	2
141	2
144	2
146	4
148	3
152	2
164	7
165	3
166	4
167	3
169	3
171	3
176	4
178	9
179	3
180	8
181	4
182	5
184	3
192	7
193	2
194	5
195	4
196	5
197	3
198	2
204	3
206	4
207	3
208	5
210	4
211	2
220	2
221	2
222	9
223	3
224	7
225	2
226	2
235	2
236	5
237	3
238	4
239	2
240	5
250	3
251	2
252	4
256	6
257	2
267	4
268	5
269	4
270	5
271	1
279	7
280	3
282	6
283	3
284	2
285	2
295	3
297	3
298	1
299	4
300	3
301	2
311	4
312	2
313	5
314	28
315	9
325	2
326	3
327	6
328	3
329	3
341	4
342	3
355	4
356	2
368	2
370	5
372	4
373	6
387	5
389	10
391	2
394	3
407	6
408	3
410	2
417	3
419	2
430	2
431	30
433	7
434	2
445	28
446	7
447	10
448	2
449	2
459	2
463	2
473	8
477	8
478	3
489	6
492	7
503	8
521	6
522	2
535	8
537	16
538	7
549	2
564	2
569	2
581	327
582	108
584	3
597	1
614	1
629	0
641	7
642	2
657	1
672	16
673	6
674	2
