Mass Spectrum: 2-Propenoic acid, 2-[(trimethylsilyl)oxy]-3-[1-(trimethylsilyl)-1H-indol-3-yl]-, trimethylsilyl ester
Formula: C20H33NO3Si3
CAS: 55319-90-9
Molecular weight: 419
m/z	intensity
40	6
42	1
43	27
44	25
45	208
46	15
47	13
53	1
55	3
57	7
58	9
59	23
61	1
69	1
71	1
72	21
73	999
74	82
75	58
76	1
77	4
83	1
84	2
101	6
102	1
103	2
115	5
117	7
119	3
127	2
128	6
129	9
130	4
131	15
132	4
133	22
134	3
140	7
141	2
143	4
144	2
145	4
147	340
148	51
149	24
150	1
154	5
156	9
157	4
159	4
160	4
169	2
170	7
171	1
172	6
174	4
182	3
184	10
185	3
186	46
187	9
188	2
189	2
194	6
195	2
196	1
198	3
199	6
200	15
201	23
202	9
212	4
214	4
215	2
216	13
217	1
226	2
227	4
228	6
229	36
230	9
231	2
232	8
233	1
242	6
243	2
244	9
245	2
246	11
247	3
255	1
256	3
258	4
259	5
260	19
261	5
270	1
272	12
273	3
274	14
275	4
276	1
286	1
288	2
289	3
290	2
298	3
300	88
302	14
303	2
314	21
315	5
316	4
318	6
319	2
330	2
331	41
332	12
333	5
346	7
347	6
348	126
349	47
350	21
351	4
376	2
377	1
388	30
390	54
392	2
404	51
405	17
406	9
407	1
418	3
419	102
420	39
421	16
422	3
