Mass Spectrum: D-Ribose, 2,3,4-tris-O-(trimethylsilyl)-, O-methyloxime, 5-[bis(trimethylsilyl) phosphate]
Formula: C21H54NO8PSi5
CAS: 55319-74-9
Molecular weight: 619
m/z	intensity
41	6
42	3
43	10
44	10
45	36
46	3
47	6
53	3
54	3
55	6
57	3
58	3
59	39
60	3
61	6
67	3
68	3
69	3
70	3
71	3
72	13
73	999
74	62
75	91
76	3
77	10
79	3
84	3
85	6
86	6
87	3
88	3
89	36
90	3
91	3
93	3
98	3
99	6
100	6
101	49
102	10
103	26
105	13
111	3
113	10
114	6
115	6
116	23
117	16
118	3
119	6
121	3
126	6
127	10
128	6
129	104
130	19
131	23
132	6
133	55
134	10
135	13
136	3
137	3
142	10
143	13
144	3
145	6
146	3
147	156
148	32
149	23
150	3
151	6
157	16
158	16
159	6
160	49
161	10
162	3
163	10
168	13
169	3
172	3
173	13
174	13
175	6
181	3
184	3
189	10
190	3
191	13
193	10
195	10
197	3
198	16
199	6
200	10
201	6
202	3
203	6
204	23
205	39
206	10
207	32
208	6
209	6
211	58
212	13
213	6
215	10
216	13
217	487
218	97
219	39
220	10
221	6
225	26
226	6
227	29
228	10
229	6
230	6
231	10
232	3
240	3
241	6
242	6
243	10
244	3
246	3
253	6
255	3
256	23
257	6
258	3
262	13
269	6
270	3
272	23
273	6
274	10
285	19
286	6
287	6
288	10
298	10
299	396
300	97
301	45
302	13
303	3
313	13
314	52
315	649
316	195
317	123
318	19
319	10
328	19
329	6
330	6
331	13
332	3
341	16
342	3
343	3
357	117
358	39
359	19
360	3
362	13
363	3
369	16
370	10
371	6
373	26
374	6
375	3
385	6
387	32
388	13
389	16
390	3
403	65
404	19
405	10
406	3
415	3
429	3
431	10
432	3
459	123
460	39
461	19
462	6
463	3
517	3
572	3
604	16
605	6
606	3
