Mass Spectrum: Phentermin-propionyl
Formula: C13H19NO
CAS: 5531-34-0
Molecular weight: 205
m/z	intensity
55	36
57	247
58	999
59	108
63	27
64	9
65	119
69	5
73	17
74	23
77	23
78	14
79	6
84	5
89	14
90	3
91	341
92	30
103	3
105	11
114	787
115	115
116	15
117	164
118	11
129	4
131	11
132	120
133	28
134	61
207	5
