Mass Spectrum: 3-(Dimethylamino)-1-(3-pyridyl)prop-2-en-1-one
Formula: C10H12N2O
CAS: 55314-16-4
Molecular weight: 176
m/z	intensity
33	2
34	3
35	1
36	2
37	8
38	24
39	57
40	32
41	97
42	569
43	120
44	135
45	11
46	16
47	1
49	19
50	121
51	278
52	69
53	61
54	76
55	354
56	30
57	8
58	9
59	6
60	10
62	14
63	20
64	11
65	21
66	11
67	10
68	36
69	23
70	200
71	14
72	9
73	5
74	51
75	13
76	23
77	50
78	262
79	71
80	15
81	8
82	34
83	6
84	45
85	4
86	1
87	3
88	3
89	4
90	6
91	15
92	109
93	65
94	10
95	3
96	5
98	999
99	55
100	4
101	1
102	4
103	8
104	59
105	99
106	159
107	13
108	2
109	1
110	0
111	0
112	1
113	0
114	1
116	10
117	14
118	22
119	9
120	8
121	2
122	0
123	1
128	0
129	2
130	5
131	15
132	61
133	108
134	40
135	5
136	0
142	1
143	2
144	14
145	11
146	8
147	7
148	2
149	1
151	0
157	5
159	581
160	67
161	40
162	5
165	0
171	1
173	2
175	47
176	303
177	35
178	2
179	0
