Mass Spectrum: Octadecanoic acid, phenylmethyl ester
Formula: C25H42O2
CAS: 5531-65-7
Molecular weight: 374
m/z	intensity
29	32
39	30
41	141
42	32
43	259
51	10
53	14
55	146
56	41
57	229
58	11
65	58
68	18
69	110
71	157
77	21
79	46
81	37
83	72
84	19
85	101
90	46
91	933
92	271
95	31
97	73
98	24
99	26
104	13
105	32
106	10
107	49
108	999
109	96
110	14
111	45
112	10
113	14
125	34
127	12
139	29
152	9
153	21
167	16
177	12
247	23
264	27
265	66
266	13
267	32
268	6
283	61
284	12
356	6
374	17
375	4
