Mass Spectrum: 1H-Dibenzo[a,i]fluorene, 13-(decahydro-1-naphthalenyl)eicosahydro-
Formula: C31H50
CAS: 55319-82-9
Molecular weight: 422
m/z	intensity
37	2
38	3
39	80
40	18
41	819
42	20
43	100
50	2
51	9
52	8
53	125
54	97
55	674
56	35
57	27
58	2
62	1
63	3
64	1
65	42
66	40
67	999
68	110
69	359
70	20
71	4
72	1
73	2
74	4
75	1
76	2
77	119
78	51
79	443
80	164
81	964
82	94
83	112
84	8
85	2
86	2
87	5
88	2
89	2
90	1
91	264
92	88
93	359
94	146
95	853
96	87
97	32
98	3
99	1
100	3
101	8
102	3
103	11
104	19
105	118
106	56
107	184
108	86
109	180
110	19
111	6
112	1
113	1
114	4
115	18
116	9
117	46
118	16
119	70
120	37
121	360
122	109
123	140
124	15
125	1
126	1
127	3
128	12
129	19
130	8
131	40
132	17
133	86
134	203
135	990
136	371
137	184
138	23
139	2
140	1
141	7
142	6
143	10
144	6
145	29
146	13
147	49
148	83
149	243
150	78
151	47
152	7
153	3
154	2
155	4
156	2
157	4
158	4
159	2
160	10
161	50
162	48
163	89
164	14
165	8
166	2
167	2
168	1
169	2
170	1
171	5
172	3
173	22
174	27
175	139
176	151
177	15
178	5
179	2
180	1
181	1
182	1
183	9
184	3
185	5
186	4
187	27
188	166
189	304
190	53
191	18
192	4
193	2
194	2
195	2
196	2
197	3
198	2
199	3
200	3
201	33
202	12
203	48
204	9
205	5
213	2
214	1
215	5
216	2
217	4
218	1
227	4
228	2
229	4
230	2
231	2
241	2
242	3
243	13
244	4
245	2
246	2
255	3
256	3
257	4
258	3
259	2
260	1
269	3
270	4
271	19
272	79
273	22
274	4
275	1
276	1
277	1
278	3
279	24
280	8
281	4
282	10
283	59
284	819
285	752
286	183
287	44
288	9
289	2
297	9
298	3
299	1
300	2
311	7
312	3
313	2
414	1
415	1
416	2
417	1
418	2
419	1
420	7
421	4
422	68
423	25
424	5
425	1
