Mass Spectrum: Oxazepam, 2TMS derivative
Formula: C21H27ClN2O2Si2
CAS: 55319-93-2
Molecular weight: 430
m/z	intensity
15	3
27	3
29	7
31	4
39	3
42	3
43	32
44	26
45	190
46	13
47	22
50	4
51	10
52	3
53	1
54	1
55	6
56	2
57	11
58	13
59	25
60	4
61	9
62	2
63	9
65	4
66	3
67	1
69	1
70	9
71	6
73	999
74	94
75	111
76	11
77	31
78	4
79	3
83	1
84	6
85	3
86	4
87	6
88	3
89	7
90	2
91	5
93	7
95	4
99	4
100	26
101	10
102	10
103	16
104	8
105	14
106	1
107	3
109	1
110	4
111	4
112	3
113	5
114	2
115	5
116	3
117	6
118	2
119	6
120	5
121	4
122	1
123	2
124	3
125	7
126	7
127	6
128	2
129	2
130	3
131	21
132	6
133	25
134	5
135	28
136	8
137	8
138	6
139	7
140	4
141	7
142	3
145	2
147	149
148	26
149	17
150	13
151	25
152	15
153	6
154	2
155	2
157	1
158	2
160	1
161	3
162	5
163	16
164	15
165	12
166	5
167	6
168	3
169	3
170	1
171	1
172	1
174	5
175	5
176	11
177	32
178	25
179	51
180	12
181	5
182	7
183	4
184	3
185	2
186	3
187	3
188	7
189	8
190	15
191	14
192	4
193	5
194	5
195	2
196	10
197	2
198	5
199	9
200	9
201	7
202	4
203	8
204	11
205	36
206	15
207	6
208	4
209	2
210	3
211	3
212	5
213	27
214	6
215	10
216	4
217	2
218	1
219	3
220	4
221	4
222	1
224	7
225	2
226	7
227	3
228	3
229	3
230	1
231	3
232	3
233	3
234	4
235	5
236	3
237	4
238	5
239	35
240	12
241	16
242	9
243	3
244	2
249	1
250	2
251	3
252	2
253	3
254	5
255	4
256	4
257	4
258	2
261	2
263	2
264	1
265	3
266	1
267	9
268	7
269	9
270	4
271	4
272	3
275	2
276	1
277	11
278	9
279	12
280	4
281	3
282	3
283	3
284	4
285	3
286	3
290	4
291	2
292	1
293	3
294	5
295	3
296	2
297	10
298	6
299	19
300	7
301	7
302	2
305	6
306	8
307	3
309	2
311	53
312	19
313	208
314	56
315	80
316	22
317	6
321	2
323	4
324	66
325	28
326	33
327	58
328	22
329	76
330	21
331	21
332	5
339	28
340	99
341	96
342	54
343	38
344	9
345	3
351	3
353	4
355	4
357	4
359	1
367	4
371	20
372	8
373	11
374	3
375	1
379	4
383	7
384	2
385	5
386	1
387	10
388	3
389	3
394	5
395	12
396	4
397	1
399	9
400	4
401	116
402	39
403	50
404	15
405	5
413	2
415	117
416	39
417	51
418	16
419	5
429	751
430	470
431	404
432	194
433	61
434	15
435	3
