Mass Spectrum: Acetic acid, trifluoro-, [2,3,3a,9a-tetrahydro-6-oxo-3-[(trifluoroacetyl)oxy]-6H-furo[2',3':4,5]oxazolo[3,2-c]pyrimidin-2-yl]methyl ester, [2R-(2.alpha.,3.beta.,3a.beta.,9a.beta.)]-
Formula: C13H8F6N2O7
CAS: 55319-77-2
Molecular weight: 418
m/z	intensity
53	126
54	68
55	105
56	38
57	59
59	39
65	13
66	15
67	44
68	92
69	999
70	164
71	46
73	24
75	19
77	48
80	98
81	118
82	43
83	53
84	28
85	38
86	19
87	13
93	19
94	32
95	261
96	373
97	144
98	24
99	29
105	11
106	11
107	13
108	34
109	21
110	24
111	14
112	82
113	40
114	15
115	13
120	32
121	32
122	43
123	19
125	17
135	13
136	30
137	85
138	15
139	21
148	19
149	82
150	13
151	19
152	13
153	26
157	105
158	28
162	15
163	19
164	13
165	31
166	13
167	14
169	22
177	131
178	18
179	18
191	37
192	13
193	57
208	7
209	11
211	21
291	15
305	24
321	11
322	46
323	9
380	11
399	5
418	150
419	23
420	5
