Mass Spectrum: Benzo[b]naphtho[1,2-e][1,4]dioxin-6a(6H)-ol, 5,12a-dihydro-
Formula: C16H14O3
CAS: 55320-08-6
Molecular weight: 254
m/z	intensity
91	999
92	150
102	100
103	619
104	220
105	140
106	30
107	430
108	50
117	100
118	300
119	899
120	559
121	80
147	160
148	420
149	50
165	140
166	50
167	70
177	60
178	170
179	390
180	50
191	170
192	40
193	50
194	170
195	480
196	70
207	330
208	390
209	90
218	180
219	100
235	200
236	460
237	90
254	879
255	150
