Mass Spectrum: Bicyclo[2.2.2]oct-5-en-2-ol
Formula: C8H12O
CAS: 55320-40-6
Molecular weight: 124
m/z	intensity
41	59
43	9
44	19
50	9
51	39
52	19
53	29
55	19
65	29
66	9
67	19
77	89
78	108
79	633
80	999
81	118
91	29
106	9
124	19
