Mass Spectrum: Heptanenitrile, 4-acetyl-
Formula: C9H15NO
CAS: 55320-41-7
Molecular weight: 153
m/z	intensity
41	9
43	98
50	9
51	29
52	39
53	117
54	127
55	323
56	29
57	19
58	29
65	19
66	9
67	58
68	88
69	431
70	29
71	999
72	39
77	9
79	9
80	9
81	9
82	49
83	274
84	9
93	19
94	19
96	9
97	9
109	107
110	627
111	39
124	9
153	9
