Mass Spectrum: Tetracosane, 12-decyl-12-nonyl-
Formula: C43H88
CAS: 55320-13-3
Molecular weight: 604
m/z	intensity
36	2
37	5
38	7
39	61
40	16
41	325
42	115
43	921
44	33
45	2
49	2
50	4
51	5
52	4
53	17
54	39
55	375
56	228
57	999
58	48
59	2
61	2
62	2
63	2
64	2
65	4
66	5
67	63
68	46
69	300
70	117
71	606
72	35
73	2
76	2
77	4
78	2
79	10
80	5
81	49
82	34
83	246
84	57
85	435
86	31
87	2
88	2
89	2
91	5
92	2
93	6
94	4
95	35
96	20
97	175
98	31
99	134
100	12
101	5
102	2
103	2
104	2
105	8
106	2
107	3
108	2
109	16
110	10
111	84
112	23
113	97
114	10
115	2
117	2
118	2
119	14
120	3
121	2
123	6
124	6
125	36
126	16
127	75
128	9
129	2
131	4
132	2
133	3
135	2
136	2
137	4
138	5
139	16
140	14
141	60
142	8
143	2
145	3
151	2
152	5
153	16
154	13
155	50
156	7
157	2
159	2
165	2
166	5
167	13
168	17
169	44
170	7
179	2
180	4
181	10
182	15
183	38
184	6
189	2
193	2
194	4
195	9
196	11
197	33
198	10
199	13
200	18
201	10
202	23
203	8
204	6
207	2
208	2
209	4
210	9
211	29
212	5
217	5
218	2
221	2
222	2
223	3
224	3
225	24
226	5
229	2
235	2
236	2
237	2
238	3
239	22
240	5
249	1
250	1
251	2
252	2
253	20
254	4
255	1
256	1
257	1
258	1
259	1
260	1
261	1
262	1
263	1
264	1
265	2
266	2
267	18
268	4
269	1
271	1
273	1
274	1
275	1
276	1
277	2
278	2
279	4
280	5
281	19
282	5
283	2
284	1
285	1
286	1
287	1
288	1
289	1
290	1
291	1
292	2
293	4
294	8
295	20
296	5
297	1
298	1
299	1
300	1
301	2
302	1
303	1
304	1
305	2
306	3
307	5
308	15
309	28
310	7
311	2
312	1
313	1
314	1
315	2
316	1
317	1
318	1
319	1
320	2
321	3
322	16
323	27
324	7
325	1
326	1
327	1
329	1
330	1
331	1
332	1
333	2
334	2
335	4
336	11
337	23
338	6
339	1
340	1
341	1
342	1
343	2
344	1
345	1
346	1
347	2
348	1
349	2
350	5
351	14
352	4
353	1
354	1
355	1
356	1
357	1
358	1
359	1
361	1
362	1
363	1
364	2
365	10
366	3
367	1
369	1
371	1
372	1
375	1
376	1
377	1
378	1
379	7
380	3
381	1
383	1
385	1
393	5
394	2
406	1
407	5
408	2
419	1
420	1
421	7
422	3
423	1
431	1
432	1
433	3
434	11
435	137
436	48
437	9
438	1
439	1
440	1
441	5
442	3
443	1
444	1
445	1
446	1
447	3
448	10
449	126
450	45
451	8
452	1
453	1
456	1
459	1
460	1
461	3
462	8
463	109
464	40
465	7
466	1
469	1
470	1
471	1
473	1
474	1
475	1
476	7
477	98
478	38
479	7
480	1
484	1
487	1
491	1
492	1
498	1
505	1
510	1
511	4
512	6
513	2
