Mass Spectrum: Pregn-5-en-20-one, 3-(acetyloxy)-16-methoxy-, (3.beta.,16.alpha.)-
Formula: C24H36O4
CAS: 55320-51-9
Molecular weight: 388
m/z	intensity
41	94
42	3
43	999
44	92
45	69
47	4
49	11
50	0
51	6
53	29
55	83
57	33
58	4
59	10
60	22
61	141
62	6
63	0
65	13
66	2
67	62
68	7
69	26
71	103
72	3
73	8
74	2
75	7
77	45
78	11
79	83
81	90
83	40
84	10
85	44
86	1
87	4
91	103
92	18
93	75
94	15
95	44
96	14
97	32
98	26
99	97
101	137
103	16
104	13
105	112
106	25
107	71
108	25
109	77
110	21
111	42
112	3
114	237
115	53
116	6
117	45
118	13
119	40
120	36
121	53
122	20
123	30
124	9
125	9
126	3
127	7
128	41
129	29
130	14
131	51
132	15
133	44
134	10
135	27
136	11
137	17
138	5
139	3
141	21
142	13
143	46
144	20
145	62
146	16
147	34
148	13
149	19
150	5
151	5
152	2
153	4
154	3
155	12
156	10
157	57
158	32
159	45
160	17
161	20
162	3
163	15
164	5
165	4
166	2
167	6
168	4
169	14
170	7
171	26
172	13
173	17
174	6
175	21
176	7
177	8
178	2
179	3
180	2
181	8
182	4
183	39
184	4
185	28
186	15
187	12
188	12
189	8
190	4
191	9
193	5
194	2
195	7
196	4
197	18
198	15
199	20
200	14
201	6
202	2
203	4
204	0
205	2
207	5
208	2
209	6
210	3
211	17
212	13
213	34
214	20
215	13
216	2
217	3
218	3
219	2
220	4
221	4
223	19
224	4
225	7
226	3
227	5
228	16
229	6
230	18
231	4
232	0
233	0
235	1
236	1
237	8
238	26
239	13
240	2
241	2
242	0
243	1
249	0
251	6
252	2
253	48
254	9
255	6
256	2
257	2
263	9
264	2
265	0
267	2
268	1
269	2
270	7
271	2
274	0
278	6
279	6
281	35
282	6
283	4
284	1
285	2
294	0
295	10
296	130
297	56
298	8
299	1
300	0
310	6
311	2
313	106
314	23
315	2
325	2
328	310
329	83
330	11
345	1
355	0
357	3
373	5
374	1
387	1
388	13
389	2
