Mass Spectrum: 9,12-Octadecadienoic acid (Z,Z)-, 2-(acetyloxy)-1-[(acetyloxy)methyl]ethyl ester
Formula: C25H42O6
CAS: 55320-03-1
Molecular weight: 438
m/z	intensity
26	20
27	90
28	80
29	160
30	10
31	30
32	10
38	10
39	70
40	20
41	230
42	70
43	999
44	60
45	40
46	20
51	10
52	10
53	40
54	30
55	300
56	40
57	190
58	30
59	30
60	20
61	30
65	20
66	20
67	200
68	50
69	100
70	30
71	50
72	10
73	30
74	10
75	10
77	30
78	10
79	110
80	50
81	130
82	50
83	130
84	60
85	30
86	10
87	10
91	40
92	10
93	60
94	30
95	90
96	30
97	60
98	70
99	50
100	10
101	10
103	20
105	20
106	10
107	40
108	30
109	120
110	20
111	30
112	10
113	10
115	30
116	30
117	50
118	10
119	20
120	10
121	30
122	10
123	20
124	10
125	30
126	10
127	20
129	10
131	10
133	10
134	10
135	20
136	10
137	10
139	10
141	10
145	10
147	10
149	10
151	10
152	10
153	10
155	70
156	10
158	20
159	80
160	10
161	10
163	10
171	40
185	10
227	10
261	40
