Mass Spectrum: 3-Heptene, 7-(ethylthio)-
Formula: C9H18S
CAS: 55320-20-2
Molecular weight: 158
m/z	intensity
41	400
42	30
43	150
44	10
45	40
46	20
47	140
53	60
54	450
55	300
56	10
58	60
59	30
60	50
61	180
62	30
63	10
65	20
66	20
67	410
68	160
69	50
75	550
76	20
77	50
79	40
81	999
82	60
83	20
87	130
88	40
89	120
95	60
96	200
97	30
101	30
129	260
130	110
131	20
158	200
159	20
160	20
