Mass Spectrum: Hexanal, 5,5-dimethyl-
Formula: C8H16O
CAS: 55320-58-6
Molecular weight: 128
m/z	intensity
41	420
42	20
43	230
44	40
55	70
56	170
57	999
58	50
67	70
69	400
70	20
71	140
72	30
84	30
85	20
95	340
96	20
