Mass Spectrum: Acetamide, N-[(3.beta.,5.alpha.)-androstan-3-yl]-N-ethyl-
Formula: C23H39NO
CAS: 55320-49-5
Molecular weight: 345
m/z	intensity
41	190
42	56
43	333
44	66
45	3
46	10
51	3
52	3
53	43
54	20
55	150
56	106
57	16
58	36
60	66
65	13
66	6
67	136
68	33
69	46
70	40
71	70
72	50
78	40
79	10
80	96
81	23
82	140
83	36
84	23
85	126
86	23
87	33
88	999
89	50
91	66
92	16
93	26
94	26
95	136
96	20
97	30
98	16
99	3
100	6
101	3
105	43
106	13
107	70
108	60
109	50
110	63
111	10
112	36
113	6
114	3
115	3
116	3
117	10
118	3
119	23
120	10
121	33
122	16
123	23
124	10
126	36
127	43
128	6
131	10
132	3
133	23
134	10
135	30
136	6
137	10
138	3
139	23
140	6
141	3
145	10
146	3
147	23
148	23
149	36
150	10
152	53
159	3
161	20
162	13
163	20
164	6
165	3
173	3
175	16
176	6
177	3
187	3
188	3
189	36
190	6
201	10
202	6
203	10
204	40
205	6
215	6
216	3
217	10
219	3
243	43
244	10
257	3
258	33
259	10
273	3
275	16
276	3
286	3
288	6
299	6
300	3
301	6
316	46
317	16
330	16
331	3
345	93
346	30
