Mass Spectrum: Androstan-3-amine, N-ethyl-, (3.beta.,5.alpha.)-
Formula: C21H37N
CAS: 55320-46-2
Molecular weight: 303
m/z	intensity
40	11
41	175
42	48
43	61
44	70
45	16
46	26
47	0
50	1
51	5
52	3
53	46
54	21
55	121
56	138
57	20
58	58
59	9
60	5
63	1
64	0
65	14
66	7
67	92
68	32
69	35
70	33
71	106
72	17
73	2
74	3
75	1
76	0
77	35
78	8
79	67
80	17
81	75
82	42
83	20
84	999
85	76
86	5
87	1
88	0
89	1
90	0
91	50
92	9
93	55
95	75
96	17
97	67
98	23
99	2
100	1
101	0
102	1
103	3
104	1
105	26
106	7
107	35
108	22
109	29
110	467
111	46
112	13
113	2
114	0
115	3
116	3
117	7
118	1
119	13
120	5
121	16
122	10
123	12
124	11
125	1
126	1
127	0
128	1
129	2
130	1
131	5
132	1
133	11
134	5
135	15
136	6
137	4
138	8
139	1
140	0
141	0
142	0
143	1
144	1
145	3
146	1
147	9
148	5
149	13
150	5
151	1
152	3
153	0
157	1
159	2
160	1
161	7
162	4
163	7
164	2
165	1
166	1
167	0
169	0
171	0
173	1
174	1
175	5
176	2
177	2
178	1
179	0
180	0
183	0
185	0
187	1
188	1
189	3
190	1
191	1
192	1
193	0
194	0
199	0
200	0
201	3
202	1
203	7
204	5
205	1
206	1
207	0
208	0
215	0
216	0
217	1
218	1
219	0
220	0
229	1
230	0
232	0
243	8
244	1
246	8
247	1
257	1
258	5
259	1
260	1
261	0
272	2
273	1
274	4
275	1
276	1
286	7
287	1
288	34
289	8
290	1
299	1
300	1
301	4
302	10
303	64
304	19
305	3
