Mass Spectrum: 2-Pentenoic acid, 5-phenyl-, (E)-
Formula: C11H12O2
CAS: 55320-96-2
Molecular weight: 176
m/z	intensity
44	20
51	20
65	80
77	10
78	10
81	999
82	60
114	20
115	20
116	60
128	30
129	40
130	60
158	30
176	50
