Mass Spectrum: Carbamic acid, phenyl-, propyl ester
Formula: C10H13NO2
CAS: 5532-90-1
Molecular weight: 179
m/z	intensity
26	11
27	232
28	7
29	40
30	7
31	57
33	0
37	7
38	30
39	170
40	23
41	325
42	29
43	572
44	25
45	9
46	2
47	0
49	0
50	23
51	73
52	24
53	5
54	6
55	1
56	0
57	3
58	0
59	17
60	3
61	3
62	9
63	40
64	64
65	213
66	92
67	10
68	0
73	0
74	5
75	5
76	8
77	142
78	14
79	8
80	4
81	0
88	1
89	0
90	5
91	68
92	124
93	999
94	72
95	2
103	2
104	2
105	1
106	141
107	12
108	1
115	0
117	1
118	4
119	79
120	242
121	20
122	0
132	2
133	0
134	3
135	1
136	12
137	116
138	10
139	0
145	0
150	4
160	0
178	1
179	400
180	44
181	4
