Mass Spectrum: Cyclohexane, 1,3-didecyl-
Formula: C26H52
CAS: 55334-19-5
Molecular weight: 364
m/z	intensity
36	1
37	2
38	3
39	59
40	16
41	551
42	108
43	999
44	33
49	1
50	2
51	3
52	2
53	32
54	96
55	681
56	127
57	629
58	29
59	1
60	1
61	1
62	1
63	1
64	1
65	6
66	11
67	239
68	87
69	538
70	73
71	323
72	19
73	1
74	1
75	1
76	1
77	6
78	2
79	25
80	18
81	257
82	151
83	871
84	79
85	217
86	14
87	1
88	1
90	1
91	6
92	2
93	11
94	13
95	140
96	254
97	834
98	73
99	41
100	4
101	1
102	1
103	1
104	1
105	3
106	1
107	5
108	7
109	78
110	22
111	391
112	42
113	20
114	2
115	1
116	1
117	1
118	1
119	1
120	1
121	3
122	2
123	21
124	12
125	196
126	27
127	23
128	3
129	1
130	1
131	1
132	1
133	1
134	1
135	2
136	1
137	11
138	9
139	103
140	27
141	27
142	4
143	1
144	1
145	1
146	1
149	1
150	1
151	8
152	8
153	68
154	11
155	5
156	1
164	1
165	6
166	4
167	46
168	8
169	2
170	1
178	1
179	5
180	5
181	15
182	5
183	2
184	1
192	1
193	3
194	14
195	4
196	3
197	1
207	2
208	2
209	2
210	2
211	1
220	1
221	11
222	196
223	362
224	67
225	6
226	1
235	1
236	1
237	2
238	2
239	1
240	1
249	1
250	1
251	1
252	1
253	1
264	1
265	1
266	1
275	1
276	1
277	1
278	1
279	1
280	1
281	1
292	1
293	1
294	1
320	1
321	1
322	1
323	2
324	1
335	1
336	1
337	1
358	1
359	1
362	1
363	1
364	39
365	12
366	2
367	1
