Mass Spectrum: 4,7-Methano-1H-indene, octahydro-5-(2-octyldecyl)-
Formula: C28H52
CAS: 55334-74-2
Molecular weight: 388
m/z	intensity
37	3
38	6
39	206
40	27
41	753
42	101
43	999
44	34
45	1
49	1
50	4
51	10
52	8
53	72
54	81
55	493
56	136
57	662
58	31
59	1
63	3
64	1
65	31
66	93
67	768
68	107
69	328
70	74
71	295
72	17
73	1
77	71
78	37
79	361
80	215
81	398
82	71
83	199
84	39
85	178
86	12
87	1
91	99
92	35
93	211
94	133
95	299
96	49
97	127
98	34
99	34
100	3
101	1
103	4
104	4
105	39
106	61
107	355
108	217
109	138
110	25
111	66
112	18
113	20
114	2
115	3
116	2
117	6
118	3
119	25
120	46
121	494
122	200
123	100
124	15
125	28
126	19
127	14
128	3
129	2
130	1
131	4
132	2
133	19
134	36
135	476
136	170
137	62
138	19
139	47
140	17
141	12
142	2
143	1
145	2
146	1
147	8
148	42
149	248
150	97
151	55
152	13
153	13
154	48
155	21
156	3
157	1
161	11
162	4
163	42
164	8
165	18
166	6
167	9
168	9
169	8
170	1
175	8
176	3
177	32
178	7
179	51
180	18
181	8
182	3
183	4
184	1
189	3
190	2
191	9
192	12
193	83
194	16
195	5
196	2
197	3
198	1
204	2
205	10
206	9
207	12
208	5
209	2
210	4
211	2
212	1
217	2
218	2
219	9
220	3
221	4
222	2
223	1
224	2
225	1
233	13
234	3
235	3
236	7
237	7
238	45
239	17
240	2
241	1
247	7
248	3
249	2
250	1
252	19
253	13
254	2
255	1
261	9
262	5
263	3
264	1
265	2
266	3
267	2
268	1
273	10
274	14
275	193
276	54
277	10
278	4
279	2
280	1
286	2
287	1
289	7
290	85
291	24
292	5
293	1
303	2
304	2
305	2
306	2
307	1
312	2
313	1
318	2
319	27
320	7
321	1
345	2
346	2
347	6
348	1
360	2
387	2
388	104
389	33
390	5
391	1
