Mass Spectrum: Cyclohexane, 1,1'-[4-(3-cyclohexylpropyl)-1,7-heptanediyl]bis-
Formula: C28H52
CAS: 55334-73-1
Molecular weight: 388
m/z	intensity
36	1
37	1
38	3
39	73
40	17
41	581
42	49
43	128
44	5
45	1
46	1
48	1
49	1
50	2
51	5
52	4
53	46
54	89
55	999
56	71
57	80
58	4
59	1
60	1
61	1
62	1
63	1
64	1
65	9
66	11
67	216
68	61
69	336
70	27
71	36
72	2
73	1
74	1
75	1
76	1
77	9
78	4
79	29
80	17
81	186
82	141
83	839
84	60
85	26
86	2
87	1
88	1
89	1
90	1
91	9
92	2
93	10
94	8
95	90
96	236
97	536
98	44
99	7
100	1
101	1
102	1
103	1
104	2
105	2
106	1
107	3
108	8
109	88
110	23
111	221
112	21
113	2
114	1
115	1
116	1
117	1
118	1
119	1
120	1
121	3
122	4
123	32
124	14
125	98
126	11
127	1
128	1
129	1
130	1
131	1
132	1
133	1
134	1
135	4
136	2
137	25
138	11
139	40
140	5
141	1
142	1
143	1
144	1
145	1
146	1
147	1
148	1
149	1
150	1
151	17
152	9
153	27
154	3
155	1
156	1
157	1
158	1
159	1
160	1
161	1
162	1
163	1
164	3
165	13
166	8
167	45
168	6
169	1
170	1
171	1
173	1
175	1
176	1
177	1
178	1
179	12
180	4
181	24
182	4
183	1
184	1
185	1
186	1
187	1
189	1
190	1
191	1
192	1
193	9
194	2
195	2
196	1
197	1
198	1
199	1
200	1
201	1
202	1
203	1
204	1
205	1
206	2
207	9
208	2
209	1
210	1
211	1
212	1
213	1
214	1
215	1
216	1
217	1
218	1
219	1
220	2
221	4
222	1
223	1
224	1
225	1
226	1
227	1
228	1
229	1
230	1
231	1
233	1
234	9
235	4
236	1
237	1
238	1
239	1
241	1
242	1
243	1
244	1
245	1
246	1
247	1
248	5
249	7
250	1
251	1
252	1
253	1
254	1
255	1
256	1
257	1
258	1
259	1
260	1
261	5
262	202
263	237
264	47
265	5
266	1
267	1
268	1
269	1
270	1
271	1
272	1
274	1
275	1
276	5
277	5
278	1
279	1
280	1
285	1
286	1
287	1
288	1
289	1
290	1
291	1
292	1
293	1
302	1
303	1
304	2
305	2
306	1
307	1
317	1
318	1
319	1
320	1
384	1
386	1
387	1
388	1
389	1
