Mass Spectrum: 2-Propenoic acid, 2-[(trimethylsilyl)oxy]-, anhydride with bis(trimethylsilyl) hydrogen phosphate
Formula: C12H29O6PSi3
CAS: 55334-82-2
Molecular weight: 384
m/z	intensity
41	35
42	18
43	62
44	58
45	248
46	18
47	31
53	22
54	9
55	22
56	4
57	18
58	40
59	49
60	9
61	22
63	4
65	4
66	9
67	4
68	35
69	13
70	9
71	13
72	62
73	999
74	106
75	155
76	9
77	31
78	4
79	4
81	4
83	31
84	18
85	9
86	4
87	4
89	9
91	9
93	9
95	4
97	4
98	4
99	9
100	9
101	9
102	4
103	22
104	4
105	18
106	4
107	13
109	9
113	4
115	31
116	9
117	22
118	4
119	35
120	9
121	31
122	4
123	9
129	13
131	44
132	13
133	292
134	44
135	142
136	18
137	53
138	9
139	4
141	4
142	9
143	9
144	4
145	9
146	4
147	513
148	88
149	53
150	9
151	18
152	4
153	9
155	4
157	9
159	9
161	13
162	4
163	4
165	13
167	18
169	4
171	4
177	9
179	13
180	4
181	44
182	9
183	18
189	18
190	4
191	31
192	9
193	40
194	9
195	66
196	27
197	27
198	9
199	4
201	4
203	4
205	9
207	75
208	18
209	31
210	66
211	496
212	84
213	62
214	27
215	13
216	9
217	327
218	66
219	35
220	4
221	9
223	13
224	4
225	168
226	35
227	142
228	22
229	13
230	4
237	9
238	44
239	9
240	4
241	4
242	4
243	75
244	13
245	9
251	4
253	4
255	9
266	18
267	13
268	4
269	13
270	4
271	4
281	27
282	9
283	18
284	13
285	40
286	13
287	9
294	9
295	9
297	4
298	13
299	327
300	88
301	49
302	9
303	4
313	4
314	31
315	49
316	13
317	9
325	4
328	22
329	4
330	4
369	884
370	257
371	133
372	27
373	9
383	9
384	159
385	44
386	22
387	4
