Mass Spectrum: Heneicosanoic acid, 3,20,20-trimethyl-, methyl ester
Formula: C25H50O2
CAS: 55334-79-7
Molecular weight: 382
m/z	intensity
15	5
17	9
18	40
26	3
27	16
28	27
29	61
30	3
31	5
32	4
38	2
39	21
40	6
41	160
42	35
43	210
44	13
45	5
50	2
51	3
53	12
54	14
55	210
56	200
57	800
58	34
59	61
60	3
61	2
65	3
66	2
67	31
68	22
69	200
70	42
71	110
72	8
73	40
74	760
75	310
76	17
77	5
79	7
80	3
81	37
82	22
83	130
84	25
85	69
86	6
87	56
88	7
89	7
91	3
93	7
94	4
95	31
96	15
97	94
98	30
99	20
100	4
101	999
102	74
103	8
107	6
108	3
109	19
110	9
111	57
112	23
113	18
114	5
115	23
116	3
121	7
122	3
123	12
124	6
125	29
126	7
127	10
128	2
129	14
130	4
135	9
137	7
138	4
139	15
140	4
141	6
143	17
144	7
151	4
152	3
153	11
154	3
155	5
157	50
158	9
163	5
165	2
166	2
167	15
168	3
169	3
171	7
177	4
181	6
183	2
185	4
191	3
195	4
197	2
199	9
200	3
205	2
209	4
213	16
214	4
219	2
223	3
227	7
233	2
237	3
239	2
241	4
250	6
251	5
252	6
253	2
255	7
256	3
261	2
265	3
269	21
270	7
275	3
279	7
280	2
283	22
284	5
292	5
293	9
294	6
295	3
297	4
298	2
308	10
309	3
311	19
312	5
317	10
318	3
325	31
326	390
327	340
328	72
329	10
334	3
335	51
336	15
337	7
338	2
339	23
340	7
347	3
348	3
349	68
350	19
351	10
352	3
367	170
368	98
369	22
370	3
381	5
382	270
383	82
384	13
385	2
