Mass Spectrum: L-Chiro-Inositol, 1,2,3,5,6-pentakis-O-(trimethylsilyl)-, dimethyl phosphate
Formula: C23H57O9PSi5
CAS: 55334-86-6
Molecular weight: 648
m/z	intensity
26	10
27	5
28	17
29	6
30	7
31	4
38	3
39	9
41	7
42	3
43	7
44	10
45	54
46	4
47	9
49	3
53	7
54	4
55	9
57	3
58	4
59	39
60	5
61	7
66	3
67	3
68	3
69	8
70	2
71	7
72	16
73	999
74	102
75	98
76	6
77	7
78	3
82	3
83	3
85	7
87	3
88	2
89	75
90	7
91	8
93	14
95	5
97	4
98	4
99	9
101	23
102	5
103	36
104	4
105	55
106	7
107	5
109	15
111	6
113	10
114	5
115	6
116	9
117	8
119	8
121	6
123	3
125	3
126	3
127	20
128	6
129	65
130	10
131	27
132	3
133	9
134	8
135	8
136	3
137	10
139	6
140	3
141	9
142	10
143	30
144	7
145	6
146	9
147	366
148	59
149	40
150	7
151	6
152	8
153	46
154	7
155	13
156	9
157	12
158	3
160	23
161	3
162	12
163	2
164	13
165	2
166	4
167	10
168	4
169	17
170	4
171	4
172	31
173	9
174	3
175	6
177	6
179	3
181	7
182	8
183	488
184	49
185	30
186	3
187	5
188	3
189	14
190	22
191	141
192	28
193	15
194	2
195	8
196	3
197	34
198	10
199	241
200	26
201	18
202	45
203	13
204	59
205	16
206	8
207	9
208	4
209	4
211	10
212	3
213	6
214	3
215	14
216	7
217	20
218	40
219	18
220	4
221	20
222	7
223	5
225	6
226	3
227	12
228	6
229	6
230	44
231	23
232	9
233	7
234	2
235	2
237	2
239	10
240	4
241	42
242	13
243	32
244	9
245	15
246	40
247	15
248	5
253	16
254	8
255	95
256	25
257	76
258	16
259	12
260	45
261	14
262	6
266	8
267	6
268	3
269	9
270	20
272	49
282	3
283	6
284	3
285	9
288	3
289	2
291	15
292	6
293	9
294	4
296	2
300	4
301	5
302	3
303	3
304	5
305	60
306	28
307	14
308	4
311	4
313	22
314	6
315	18
316	12
317	29
318	483
319	163
320	72
321	17
322	4
326	9
327	22
328	8
329	14
330	5
331	18
332	12
333	7
339	14
340	5
341	22
342	20
343	95
344	50
345	61
346	20
347	10
350	4
351	3
352	38
353	13
354	5
359	6
360	20
361	8
362	3
367	5
368	2
374	10
375	15
376	6
377	3
379	4
387	3
389	4
391	2
395	6
413	20
414	7
415	5
416	3
417	23
418	10
419	12
420	5
428	8
429	3
430	7
431	76
432	78
433	37
434	16
435	4
441	12
442	5
453	100
454	40
455	22
456	6
457	3
468	11
469	9
470	5
471	3
507	13
508	7
509	5
511	3
515	15
516	6
517	6
543	8
544	4
545	3
575	2
576	1
590	1
591	1
633	29
634	16
635	10
636	4
