Mass Spectrum: Benzeneethanamine, N-[(pentafluorophenyl)methylene]-.beta.-[(trimethylsilyl)oxy]-
Formula: C18H18F5NOSi
CAS: 55334-63-9
Molecular weight: 387
m/z	intensity
27	8
28	18
29	10
31	10
39	11
40	3
41	23
42	4
43	45
44	24
45	116
46	8
47	26
49	4
50	6
51	26
52	7
53	3
55	5
57	8
58	14
59	24
60	5
61	14
62	3
63	10
65	15
69	5
70	2
71	3
72	13
73	999
74	90
75	141
76	14
77	98
78	30
79	25
80	3
81	5
82	4
89	10
90	7
91	48
92	5
93	5
99	4
101	3
102	10
103	39
104	53
105	31
106	5
107	16
117	9
130	13
131	5
133	4
135	6
143	4
149	26
150	4
161	16
162	6
163	35
164	8
165	3
179	727
180	130
181	69
182	7
190	12
191	2
208	26
209	23
210	2
219	2
250	1
251	3
252	12
253	2
296	3
297	1
298	6
299	1
372	50
373	12
374	3
375	0
