Mass Spectrum: Dodecane, 1,2-dibromo-
Formula: C12H24Br2
CAS: 55334-42-4
Molecular weight: 326
m/z	intensity
30	15
31	17
32	35
33	0
34	0
35	5
36	30
37	9
38	19
39	330
40	57
41	999
42	219
43	953
44	36
45	11
46	2
47	1
48	1
49	4
50	29
51	44
52	37
53	143
54	130
55	835
56	259
57	835
58	42
59	5
60	12
61	3
62	2
63	7
64	1
65	23
66	15
67	235
68	92
69	573
70	176
71	438
72	25
73	8
74	8
75	3
76	10
77	41
78	128
79	44
80	20
81	180
82	95
83	364
84	92
85	322
86	22
87	2
88	2
89	1
90	0
91	11
92	2
93	11
94	5
95	112
96	72
97	310
98	51
99	91
100	7
101	0
102	0
103	4
104	5
105	5
106	2
107	23
108	6
109	59
110	23
111	155
112	28
113	22
114	2
115	1
116	1
117	1
118	0
119	16
120	3
121	28
122	4
123	24
124	9
125	36
126	13
127	8
128	1
129	1
130	0
131	2
132	0
133	15
134	5
135	60
136	6
137	46
138	5
139	6
140	7
141	4
142	0
143	0
144	0
145	1
146	0
147	18
148	31
149	59
150	32
151	42
152	2
153	2
154	1
155	2
156	0
157	0
158	0
159	1
160	0
161	5
162	15
163	48
164	18
165	41
166	24
167	13
168	25
169	5
170	4
171	1
172	0
173	0
174	0
175	2
176	3
177	53
178	6
179	49
180	4
181	0
182	1
183	0
184	0
185	1
186	0
187	1
188	0
189	2
190	2
191	52
192	6
193	50
194	4
195	0
196	0
197	0
198	0
199	5
200	1
201	0
202	0
203	1
204	1
205	26
206	4
207	25
208	2
209	0
210	0
211	0
212	0
213	0
215	1
216	0
217	1
218	1
219	3
220	2
221	2
222	0
223	0
224	0
225	0
227	2
228	0
229	4
230	0
231	2
232	0
233	0
234	0
235	0
236	0
238	0
239	0
240	0
241	0
242	0
243	0
244	0
245	0
246	9
247	52
248	16
249	50
250	7
251	0
