Mass Spectrum: Eicosanoic acid, 2-hydroxy-1-(hydroxymethyl)ethyl ester
Formula: C23H46O4
CAS: 55334-78-6
Molecular weight: 386
m/z	intensity
26	30
27	120
28	90
29	300
30	20
31	70
32	10
36	10
37	10
38	10
39	80
40	20
41	590
42	140
43	999
44	120
45	90
46	10
47	10
51	10
52	10
53	40
54	70
55	690
56	220
57	850
58	70
59	40
60	380
61	210
62	10
65	10
66	10
67	110
68	80
69	430
70	130
71	410
72	30
73	470
74	330
75	120
76	10
77	10
78	10
79	30
80	20
81	100
82	90
83	320
84	360
85	270
86	30
87	140
88	20
89	10
91	10
93	40
94	20
95	100
96	70
97	260
98	620
99	110
100	30
101	60
102	20
103	10
105	10
107	20
108	10
109	60
110	20
111	140
112	200
113	60
114	10
115	70
116	120
117	20
119	10
121	30
122	10
123	30
124	20
125	70
126	50
127	30
128	10
129	240
130	30
131	10
134	250
135	40
136	10
137	20
138	20
139	30
140	30
141	30
142	10
143	40
144	10
147	50
148	10
149	20
150	10
151	10
152	10
153	20
154	60
155	30
156	10
157	20
158	10
159	10
163	10
165	10
166	10
167	20
168	30
169	20
170	10
171	40
172	10
176	20
177	10
180	10
181	10
182	20
183	10
185	60
186	10
190	10
194	10
195	10
196	30
197	10
199	20
200	10
208	10
209	10
210	30
211	10
213	40
214	10
223	10
224	30
225	10
227	30
228	10
237	10
238	30
239	10
241	20
250	10
251	10
252	20
253	10
255	10
265	10
266	10
267	10
269	70
270	10
274	10
275	10
283	20
284	20
285	10
292	10
293	10
294	70
295	220
296	50
297	10
311	10
312	270
313	110
314	20
325	10
326	30
327	10
355	50
356	10
368	10
369	10
386	10
