Mass Spectrum: Phosphorylethanolamine, 4TMS derivative
Formula: C14H40NO4PSi4
CAS: 55334-92-4
Molecular weight: 429
m/z	intensity
41	7
42	7
43	28
44	24
45	90
46	7
47	7
53	3
54	3
55	7
56	7
57	10
58	10
59	132
60	14
61	7
70	3
71	7
72	17
73	999
74	59
75	49
77	7
84	3
85	3
86	59
87	10
88	3
89	3
93	3
98	3
99	3
100	146
101	21
102	10
103	10
105	7
107	3
113	7
114	201
115	49
116	28
117	10
118	3
119	10
120	3
121	7
123	3
129	7
130	63
131	28
132	14
133	66
134	17
135	24
136	7
137	10
146	7
147	42
148	10
149	7
151	7
153	3
156	3
163	3
165	3
167	3
170	3
172	306
173	90
174	424
175	111
176	49
177	10
178	3
179	7
181	10
183	3
186	10
187	97
188	465
189	104
190	31
191	28
192	7
193	31
194	7
195	14
196	3
197	3
205	10
206	3
207	59
208	10
209	10
210	7
211	52
212	10
213	7
221	3
225	21
226	7
227	7
240	3
241	7
243	3
253	3
255	3
256	3
267	3
268	7
269	10
270	7
271	7
272	3
283	38
284	14
285	31
286	10
287	3
297	3
298	24
299	694
300	215
301	87
302	21
303	7
310	7
311	3
313	10
314	125
315	215
316	49
317	31
318	7
326	38
327	14
328	153
329	63
330	24
331	3
341	14
342	3
373	3
386	3
387	14
388	7
389	3
398	3
414	104
415	38
416	28
417	7
418	3
429	3
