Mass Spectrum: Octadecanoic acid, 9-methyl-, ethyl ester
Formula: C21H42O2
CAS: 55334-34-4
Molecular weight: 326
m/z	intensity
15	3
17	4
18	8
26	3
27	52
28	23
29	180
30	5
31	4
32	2
36	2
37	13
38	2
39	29
40	8
41	260
42	67
43	480
44	15
45	33
46	15
53	17
54	18
55	310
56	87
57	330
58	18
59	14
60	55
61	53
65	3
66	3
67	44
68	25
69	240
70	100
71	160
72	10
73	100
74	14
75	5
77	3
79	14
80	5
81	54
82	23
83	170
84	50
85	96
86	8
87	29
88	999
89	200
90	13
91	4
93	17
94	27
95	55
96	20
97	160
98	48
99	32
100	4
101	790
102	78
103	9
107	20
108	8
109	49
110	20
111	110
112	8
113	16
114	5
115	42
116	16
117	3
119	2
121	14
122	3
123	25
124	10
125	72
126	14
127	10
128	7
129	76
130	35
131	5
133	3
135	86
136	10
137	16
138	3
139	22
140	5
141	5
143	130
144	70
145	16
146	3
151	14
152	11
153	120
154	26
155	8
157	330
158	52
159	6
163	9
165	7
166	4
167	26
168	9
169	5
171	110
172	50
173	16
176	22
177	6
179	5
180	4
181	14
182	3
183	3
184	2
185	9
186	2
191	5
193	3
194	6
195	8
197	2
199	130
200	31
201	7
205	4
207	7
208	2
209	5
210	2
213	17
214	6
224	5
227	210
228	42
229	7
233	2
237	3
238	2
241	6
242	3
246	4
250	3
255	6
261	4
262	4
263	23
264	6
265	7
269	13
270	6
279	11
280	8
281	54
282	15
283	160
284	41
285	7
294	8
295	14
297	40
298	12
299	3
311	12
312	4
325	10
326	550
327	170
328	28
329	5
