Mass Spectrum: Stigmastan-7-one
Formula: C29H50O
CAS: 55331-88-9
Molecular weight: 414
m/z	intensity
34	2
37	2
38	3
39	60
40	75
41	578
42	94
43	999
44	181
45	7
46	2
48	16
50	4
51	6
52	5
53	94
54	34
55	687
56	66
57	325
58	19
59	4
60	3
63	2
64	28
65	26
66	20
67	312
68	106
69	356
70	50
71	131
72	9
73	4
74	3
75	3
76	7
77	69
78	19
79	212
80	56
81	409
82	87
83	156
84	37
85	84
86	7
87	4
88	3
89	3
90	4
91	131
92	38
93	269
94	106
95	603
96	103
97	91
98	19
99	11
100	2
101	4
102	3
103	12
104	17
105	122
106	42
107	200
108	94
109	270
110	64
111	45
112	13
113	19
114	4
115	13
116	9
117	34
118	24
119	81
120	35
121	169
122	125
123	125
124	22
125	14
126	3
127	6
128	9
129	16
130	9
131	39
132	24
133	84
134	41
135	164
136	111
137	97
138	33
139	19
140	4
141	6
142	5
143	12
144	8
145	57
146	21
147	78
148	36
149	94
150	231
151	87
152	13
153	4
154	2
155	4
156	3
157	11
158	9
159	62
160	17
161	53
162	29
163	100
164	55
165	66
166	11
167	22
168	4
170	2
171	9
172	5
173	24
174	9
175	9
176	17
177	56
178	625
179	91
180	12
181	3
182	2
183	4
184	2
185	9
186	4
187	19
188	7
189	23
190	13
191	209
192	42
193	8
194	2
195	2
196	2
197	3
198	2
199	23
200	7
201	19
202	12
203	42
204	14
205	26
206	7
207	4
208	2
209	2
210	2
211	3
212	4
213	26
214	10
215	24
216	27
217	144
218	80
219	46
220	12
221	7
222	3
223	2
224	2
225	3
226	2
227	10
228	9
229	30
230	27
231	259
232	366
233	184
234	36
235	7
236	3
237	2
238	2
239	5
240	9
241	72
242	32
243	18
244	14
245	69
246	94
247	31
248	8
249	3
250	2
251	2
252	2
253	6
254	15
255	225
256	57
257	21
258	9
259	20
260	24
261	13
262	4
263	2
264	1
265	1
266	1
267	2
268	2
269	6
270	4
271	11
272	13
273	75
274	19
275	13
276	6
277	2
278	1
280	2
281	2
282	3
283	19
284	6
285	5
286	4
287	9
288	4
289	6
290	9
291	4
292	1
293	1
294	1
295	1
296	2
297	4
298	3
299	5
300	8
301	27
302	11
303	27
304	29
305	36
306	8
307	2
308	1
309	1
310	1
311	5
312	2
313	3
314	4
315	5
316	17
317	16
318	78
319	27
320	5
321	1
328	1
329	1
330	3
331	3
332	2
333	2
334	1
340	1
342	1
343	3
344	1
345	1
355	7
357	2
359	2
360	1
361	1
369	4
370	2
373	15
374	7
375	2
381	20
382	0
396	0
397	0
398	0
399	0
400	0
413	12
414	625
415	200
416	34
417	4
