Mass Spectrum: Phosphoric acid, 2-(ethoxyimino)-3-[(trimethylsilyl)oxy]propyl bis(trimethylsilyl) ester, (Z)-
Formula: C14H36NO6PSi3
CAS: 55334-94-6
Molecular weight: 429
m/z	intensity
41	110
42	19
43	36
44	32
45	127
46	6
47	26
49	3
50	3
51	3
52	6
53	3
54	13
55	10
56	6
57	13
58	39
59	71
60	13
61	23
62	3
63	6
67	6
68	3
69	6
70	13
71	10
72	32
73	999
74	149
75	169
76	16
77	32
78	6
79	13
80	3
81	3
83	6
84	39
85	13
86	19
87	13
88	26
89	45
90	6
91	19
92	6
93	6
94	3
98	13
99	13
100	16
101	13
102	16
103	325
104	45
105	19
107	6
109	3
111	3
112	3
113	26
114	68
115	36
116	13
117	23
118	6
119	26
120	3
121	16
122	3
123	6
126	3
127	3
128	26
129	13
130	6
131	23
132	6
133	182
134	23
135	62
136	10
137	26
138	3
139	3
141	3
142	188
143	32
144	19
145	6
147	130
148	19
149	16
150	3
151	10
152	3
153	6
154	3
158	39
159	13
160	6
161	3
163	6
164	3
165	6
167	10
172	19
173	3
174	10
175	3
179	6
180	3
181	19
182	6
183	10
187	403
188	62
189	19
190	6
191	13
192	6
193	16
194	6
195	52
196	13
197	16
198	3
205	6
207	26
208	10
209	13
210	6
211	214
212	32
213	19
214	6
215	3
216	10
217	3
218	3
222	6
223	3
225	325
226	45
227	58
228	13
229	6
236	71
237	13
238	10
239	3
240	13
241	45
242	13
243	19
244	6
245	3
250	10
251	3
252	3
253	6
255	65
256	39
257	13
258	6
259	3
262	16
263	3
264	3
265	3
266	32
267	13
268	3
269	6
280	6
282	45
283	19
284	19
285	32
286	6
287	6
294	13
295	10
296	6
297	6
298	26
299	448
300	81
301	62
302	13
303	3
310	6
313	13
314	52
315	649
316	221
317	97
318	19
319	6
326	13
327	3
328	6
338	3
339	52
340	29
341	39
342	13
343	6
354	23
355	6
356	3
357	3
368	39
369	52
370	19
371	10
384	26
385	10
386	6
414	403
415	143
416	58
417	19
418	6
429	6
