Mass Spectrum: Acetamide, N-[3-(10,11-dihydro-5H-dibenzo[a,d]cyclohepten-5-ylidene)propyl]-2,2,2-trifluoro-N-methyl-
Formula: C21H20F3NO
CAS: 55334-12-8
Molecular weight: 359
m/z	intensity
61	8
62	11
63	42
64	14
65	66
66	32
67	116
68	46
69	999
70	242
71	131
72	16
73	19
74	39
75	31
76	43
77	84
78	160
79	36
80	16
81	94
82	42
83	108
84	60
85	163
86	109
87	56
88	25
89	46
90	35
91	656
92	52
93	31
94	46
95	326
96	47
97	338
98	80
99	39
100	18
101	84
102	28
103	66
104	109
105	42
106	14
107	39
108	42
109	52
110	52
111	53
112	39
113	42
114	102
115	197
116	52
117	281
118	31
119	16
120	1
121	21
122	15
123	32
124	14
125	28
126	23
127	39
128	74
129	25
130	1
131	28
132	2
133	11
134	1
135	39
136	11
137	29
138	11
139	38
140	150
141	221
142	32
143	9
145	9
147	16
148	4
149	140
150	31
151	47
152	53
153	39
154	16
155	28
156	2
157	2
161	4
162	4
163	36
164	18
165	92
166	18
167	18
168	5
169	5
175	8
176	25
177	22
178	169
179	59
180	9
181	4
185	4
187	14
188	14
189	102
190	42
191	216
192	46
193	19
197	9
200	16
201	32
202	281
203	323
204	366
205	95
206	11
207	9
211	11
213	22
214	7
215	136
216	64
217	380
218	84
219	374
220	66
221	7
226	4
227	4
228	8
229	15
230	12
231	118
232	859
233	166
234	15
263	2
359	31
360	7
