Mass Spectrum: Benzene, [3-(2-cyclohexylethyl)-6-cyclopentylhexyl]-
Formula: C25H40
CAS: 55334-30-0
Molecular weight: 340
m/z	intensity
12	1
13	1
14	1
15	4
16	1
17	1
18	5
19	1
24	1
25	1
26	5
27	38
28	12
29	51
30	1
31	1
32	1
33	1
34	1
35	1
36	1
37	1
38	2
39	38
40	8
41	248
42	18
43	37
44	2
45	1
46	1
47	1
48	1
49	1
50	3
51	8
52	4
53	40
54	37
55	381
56	26
57	19
58	1
59	1
60	1
61	1
62	1
63	5
64	2
65	31
66	9
67	101
68	26
69	185
70	14
71	8
72	1
73	1
74	1
75	1
76	1
77	26
78	14
79	28
80	8
81	59
82	26
83	233
84	16
85	4
86	1
87	1
88	1
89	4
90	5
91	484
92	999
93	83
94	10
95	49
96	31
97	119
98	10
99	1
100	1
101	1
102	2
103	10
104	97
105	70
106	11
107	3
108	3
109	22
110	5
111	41
112	4
113	1
114	1
115	8
116	3
117	27
118	6
119	8
120	3
121	3
122	1
123	9
124	2
125	19
126	2
127	2
128	4
129	7
130	4
131	16
132	4
133	6
134	1
135	5
136	2
137	10
138	2
139	11
140	1
141	2
142	1
143	2
144	2
145	6
146	8
147	4
148	1
149	2
150	2
151	5
152	6
153	16
154	2
155	1
156	1
157	1
158	1
159	2
160	1
161	1
162	1
163	1
164	1
165	3
166	3
167	8
168	1
169	1
170	1
171	1
172	1
173	2
174	1
175	1
176	1
177	1
178	1
179	2
180	1
181	1
182	1
183	1
184	1
185	1
186	1
187	1
188	1
189	1
190	1
191	1
192	1
193	2
194	1
195	1
196	1
197	1
198	1
199	1
200	1
201	1
202	2
203	1
204	1
205	1
206	1
207	1
208	1
209	1
210	1
211	1
212	1
213	1
214	1
215	1
216	1
217	1
218	1
219	1
220	1
221	1
222	1
223	1
224	1
225	1
226	1
227	1
228	1
229	3
230	1
231	1
232	1
233	1
234	10
235	9
236	2
237	1
238	1
239	1
240	1
241	1
242	2
243	3
244	2
245	1
246	1
247	1
248	9
249	21
250	4
251	1
252	1
253	1
254	1
255	1
256	1
257	1
258	1
259	1
260	1
261	1
262	1
263	1
264	1
265	1
266	1
267	1
268	1
269	1
270	1
271	1
272	1
273	1
274	1
275	1
276	1
277	1
278	1
279	1
280	1
281	1
282	1
283	1
284	1
285	1
286	1
287	1
295	1
297	1
298	1
299	1
328	1
329	1
330	1
331	1
332	1
333	1
334	1
335	1
336	1
337	1
338	1
339	1
340	44
341	12
342	2
343	1
344	1
345	1
346	1
350	1
