Mass Spectrum: Hexacosanoic acid, 2-methyl-, methyl ester
Formula: C28H56O2
CAS: 55335-03-0
Molecular weight: 424
m/z	intensity
15	16
17	4
18	15
26	6
27	43
28	21
29	100
30	3
31	5
32	2
37	3
38	4
39	56
40	49
41	400
42	100
43	680
44	31
45	16
50	6
51	6
52	4
53	24
54	32
55	420
56	130
57	470
58	23
59	78
60	4
61	4
63	2
65	6
66	4
67	45
68	27
69	240
70	64
71	150
72	12
73	20
74	24
75	5
76	7
77	8
78	10
79	10
80	4
81	30
82	22
83	130
84	32
85	66
86	5
87	37
88	999
89	46
90	5
91	8
92	20
93	6
94	5
95	18
96	12
97	70
98	33
99	12
100	4
101	310
102	22
103	3
107	4
108	2
109	9
110	6
111	32
112	19
113	7
114	2
115	16
116	2
117	2
119	2
121	2
122	2
123	4
124	3
125	11
126	6
127	4
128	2
129	8
130	4
131	2
135	2
137	2
138	2
139	5
140	2
141	4
143	33
144	5
151	2
152	2
153	4
154	2
155	2
157	29
158	4
165	2
167	3
168	2
169	2
171	3
181	2
185	4
195	2
198	2
199	8
205	3
213	6
223	4
227	2
241	2
255	2
269	3
283	2
297	2
311	7
312	2
325	8
326	2
339	3
353	3
365	6
366	2
367	32
368	10
369	2
381	19
382	6
390	4
391	2
392	2
393	4
424	200
425	65
426	11
