Mass Spectrum: Undecane, 1,2-dibromo-2-methyl-
Formula: C12H24Br2
CAS: 55334-43-5
Molecular weight: 326
m/z	intensity
29	405
30	12
31	9
32	41
33	1
34	2
35	24
36	128
37	8
38	43
39	326
40	70
41	999
42	196
43	802
44	29
45	9
46	1
47	1
48	1
49	1
50	11
51	33
52	22
53	177
54	81
55	685
56	524
57	709
58	34
59	4
60	14
61	2
62	2
63	7
64	2
65	37
66	31
67	357
68	363
69	783
70	244
71	336
72	25
73	9
74	2
75	1
76	3
77	53
78	12
79	178
80	433
81	286
82	422
83	246
84	97
85	195
86	26
87	5
88	6
89	1
90	1
91	25
92	4
93	34
94	12
95	405
96	82
97	181
98	44
99	47
100	3
101	1
102	0
103	2
104	3
105	6
106	2
107	9
108	7
109	92
110	95
111	124
112	47
113	27
114	2
115	1
116	0
117	1
118	0
119	4
120	1
121	9
122	4
123	52
124	15
125	28
126	32
127	37
128	4
129	1
130	0
131	1
132	0
133	3
134	6
135	10
136	7
137	17
138	4
139	6
140	23
141	45
142	5
143	0
145	1
146	1
147	7
148	6
149	19
150	5
151	19
152	3
153	6
154	8
155	14
156	2
157	0
158	0
159	2
160	0
161	1
162	1
163	3
164	2
165	5
166	113
167	28
168	70
169	28
170	9
171	1
172	0
173	0
174	0
175	0
176	0
177	2
178	1
179	4
180	1
181	0
182	2
183	2
184	5
185	0
186	0
187	0
188	0
189	0
190	1
191	2
192	1
193	4
194	1
195	0
196	1
197	0
198	0
199	0
200	0
201	0
202	0
203	0
204	0
205	1
206	0
207	5
208	1
209	0
210	0
211	1
212	0
213	0
214	0
215	0
217	0
218	0
219	1
220	0
221	10
222	2
223	0
224	0
225	0
226	1
227	0
229	0
231	0
232	0
233	1
234	0
235	4
236	1
237	0
238	0
239	0
240	0
241	0
242	0
243	0
244	0
245	0
246	12
247	11
248	13
249	11
250	1
