Mass Spectrum: Phosphoric acid, 2-(ethoxyimino)-3-[(trimethylsilyl)oxy]propyl bis(trimethylsilyl) ester, (E)-
Formula: C14H36NO6PSi3
CAS: 55334-93-5
Molecular weight: 429
m/z	intensity
41	66
42	9
43	35
44	22
45	76
46	6
47	16
49	3
51	3
52	6
53	3
54	16
55	6
56	6
57	13
58	25
59	89
60	6
61	16
62	3
63	3
67	3
68	6
69	3
70	13
71	9
72	25
73	999
74	89
75	165
76	9
77	35
78	6
79	13
81	3
83	6
84	22
85	9
86	9
87	6
88	25
89	25
90	3
91	13
93	6
97	3
98	9
99	13
100	9
101	13
102	9
103	329
104	28
105	19
106	3
107	3
112	3
113	13
114	70
115	19
116	9
117	13
118	3
119	19
120	3
121	13
123	6
126	3
127	3
128	32
129	9
130	6
131	13
132	3
133	101
134	16
135	44
136	6
137	19
139	3
142	139
143	22
144	19
145	3
147	89
148	13
149	13
151	9
153	3
158	32
159	6
160	3
161	3
163	6
165	3
167	6
172	16
173	3
174	9
175	3
179	6
181	16
182	3
183	6
187	291
188	44
189	19
190	3
191	9
192	3
193	9
194	3
195	32
196	6
197	16
205	3
207	25
208	6
209	6
210	13
211	177
212	25
213	22
214	3
221	6
222	3
223	3
225	101
226	25
227	32
228	6
229	6
236	32
237	9
238	6
240	9
241	35
242	6
243	16
244	3
250	3
251	3
252	3
255	13
256	22
257	13
258	3
266	25
267	6
268	3
269	9
271	3
280	6
282	51
283	25
284	9
285	19
286	6
287	3
294	9
295	6
298	13
299	323
300	108
301	57
302	9
303	6
310	3
313	6
314	25
315	632
316	139
317	89
318	16
319	6
326	6
327	3
328	3
339	38
340	13
341	9
342	3
353	3
354	32
355	6
356	6
357	3
368	35
369	44
370	13
371	9
372	3
384	44
385	13
386	9
387	3
414	392
415	101
416	60
417	16
418	6
429	6
