Mass Spectrum: 2-Butenoic acid, 3-methyl-, 4a,5,8,9-tetrahydro-9,9-dimethyl-5-oxobenzo[1,2-b:4,3-b']dipyran-8-yl ester
Formula: C19H20O5
CAS: 55334-28-6
Molecular weight: 328
m/z	intensity
55	264
77	26
83	999
84	46
91	23
103	13
119	3
131	19
147	6
148	3
159	3
175	23
176	9
185	9
187	9
188	3
213	330
214	59
228	122
328	23
