Mass Spectrum: Undecanoic acid, 11-iodo-, trimethylsilyl ester
Formula: C14H29IO2Si
CAS: 55334-59-3
Molecular weight: 384
m/z	intensity
41	248
42	46
43	137
44	23
45	80
47	46
53	18
54	17
55	367
56	47
57	94
58	24
59	28
60	12
61	57
67	78
68	16
69	326
70	32
71	56
72	42
73	999
74	103
75	808
76	61
77	37
79	26
81	98
82	10
83	350
84	33
85	34
86	10
89	17
91	10
93	50
95	48
97	147
98	20
99	21
101	10
105	13
107	43
109	34
111	42
116	35
117	420
118	40
119	21
121	16
123	20
125	64
128	13
129	168
130	23
131	46
132	256
133	35
134	11
139	12
143	14
145	108
146	15
149	199
150	25
155	47
157	22
159	15
167	83
168	10
171	21
185	76
199	13
241	155
242	31
243	19
257	402
258	85
259	24
369	430
370	86
371	25
384	37
385	10
