Mass Spectrum: Hexadecanedioic acid, 3-methyl-, dimethyl ester
Formula: C19H36O4
CAS: 55334-52-6
Molecular weight: 328
m/z	intensity
15	18
16	6
17	24
18	77
27	15
28	18
29	32
30	4
31	12
32	4
33	2
39	25
40	7
41	240
42	60
43	270
44	91
45	26
48	13
51	2
52	2
53	16
54	34
55	550
56	100
57	210
58	19
59	250
60	11
61	5
64	30
65	5
66	4
67	120
68	76
69	560
70	70
71	120
72	14
73	99
74	940
75	120
76	9
77	6
78	4
79	33
80	25
81	190
82	100
83	450
84	280
85	120
86	13
87	300
88	34
89	3
91	14
92	6
93	55
94	61
95	190
96	130
97	420
98	999
99	120
100	24
101	590
102	53
103	6
104	3
105	12
106	6
107	66
108	60
109	140
110	89
111	290
112	870
113	120
114	36
115	89
116	19
117	6
118	2
119	16
120	8
121	95
122	58
123	110
124	62
125	190
126	260
127	57
128	26
129	77
130	38
131	8
132	3
133	22
134	15
135	110
136	35
137	69
138	65
139	130
140	110
141	50
142	14
143	75
144	63
145	10
146	2
147	21
148	23
149	35
150	20
151	44
152	56
153	77
154	96
155	25
156	11
157	52
158	59
159	9
160	2
161	15
162	11
163	57
164	18
165	34
166	49
167	71
168	120
169	23
170	10
171	51
172	46
173	8
174	2
175	10
176	5
177	18
178	32
179	28
180	75
181	120
182	100
183	22
184	15
185	49
186	22
187	4
188	2
189	6
190	2
191	6
192	12
193	20
194	55
195	40
196	23
197	11
198	30
199	48
200	15
201	6
202	10
203	13
204	33
205	210
206	38
207	15
208	18
209	12
210	8
211	12
212	14
213	70
214	17
215	4
217	4
218	8
219	33
220	12
221	29
222	270
223	430
224	70
225	16
226	34
227	20
228	54
229	14
230	3
231	2
234	2
235	9
236	120
237	67
238	12
239	10
240	29
241	17
242	14
243	3
245	3
246	10
247	4
248	2
249	22
250	6
251	2
252	12
253	26
254	100
255	290
256	160
257	18
258	2
261	2
262	4
263	25
264	170
265	53
266	10
267	5
268	62
269	39
270	10
271	5
273	2
277	2
278	16
279	9
280	3
281	15
282	3
285	2
294	3
295	11
296	120
297	580
298	120
299	17
300	2
311	2
313	8
314	2
328	9
329	20
330	5
