Mass Spectrum: Nonadecanoic acid, 3-oxo-, methyl ester
Formula: C20H38O3
CAS: 55334-37-7
Molecular weight: 326
m/z	intensity
13	1
14	1
15	15
16	1
17	3
18	12
20	1
24	1
25	1
26	5
27	26
28	9
29	103
30	2
31	7
32	4
33	2
37	1
38	1
39	18
40	6
41	194
42	36
43	310
44	12
45	4
49	1
50	1
51	1
52	2
53	9
54	19
55	207
56	41
57	233
58	19
59	62
60	2
61	1
63	1
64	1
65	2
66	3
67	33
68	20
69	118
70	24
71	90
72	6
73	1
74	98
75	10
76	1
77	3
78	1
79	9
80	12
81	33
82	20
83	60
84	78
85	97
86	9
87	5
88	12
89	1
91	2
92	1
93	8
94	15
95	36
96	17
97	88
98	43
99	9
100	2
101	77
102	4
103	4
104	1
105	1
106	1
107	6
108	7
109	20
110	8
111	21
112	14
113	5
114	2
115	1
116	999
117	337
118	20
119	4
120	1
121	7
122	7
123	9
124	5
125	8
126	5
127	2
128	2
129	233
130	23
131	3
132	1
133	1
134	1
135	7
136	5
137	5
138	4
139	6
140	16
141	3
142	1
143	27
144	6
145	1
147	1
148	1
149	4
150	3
151	3
152	3
153	5
154	17
155	3
156	1
157	4
158	25
159	3
160	1
163	2
164	1
165	2
166	3
167	3
168	4
169	1
170	1
171	8
172	10
173	1
177	1
178	1
179	1
180	2
181	2
182	2
183	1
185	12
186	3
187	1
191	1
192	1
193	1
194	1
195	2
196	2
197	1
199	1
200	3
201	1
205	1
206	1
207	1
208	8
209	3
210	6
211	1
213	2
214	2
215	1
219	1
220	1
221	1
222	1
223	2
224	1
225	1
227	2
228	2
229	1
232	1
233	2
234	22
235	7
236	1
237	1
238	1
239	1
240	1
241	2
242	2
243	1
247	1
248	6
249	2
250	1
251	2
252	4
253	79
254	16
255	3
256	1
258	1
265	1
266	1
268	1
269	1
270	3
271	1
276	3
277	1
278	1
279	1
280	1
283	5
284	3
285	1
291	1
292	1
293	1
294	1
295	7
296	2
297	3
298	1
299	1
308	22
309	6
310	1
311	1
312	1
325	1
326	48
327	13
328	2
329	1
