Mass Spectrum: Octadecanoic acid, 17-methoxy-, methyl ester
Formula: C20H40O3
CAS: 55334-46-8
Molecular weight: 328
m/z	intensity
18	7
27	5
28	5
29	12
31	7
39	5
41	31
42	9
43	34
44	5
45	12
53	4
54	6
55	79
56	14
57	22
58	30
59	999
60	32
61	3
67	17
68	7
69	54
70	11
71	28
72	6
73	9
74	77
75	18
79	3
80	2
81	20
82	11
83	49
84	22
85	18
87	56
88	7
93	4
94	3
95	25
96	24
97	52
98	23
99	5
101	11
107	4
108	3
109	18
110	14
111	27
112	8
113	5
114	5
115	9
116	2
119	2
121	7
122	2
123	13
124	8
125	15
126	3
127	4
128	5
129	9
130	3
133	2
135	6
137	8
138	8
139	9
140	2
141	7
142	2
143	13
144	2
151	5
152	6
153	6
157	4
163	3
165	5
166	6
167	9
169	3
171	5
175	2
177	3
178	2
179	4
180	16
181	7
183	3
185	5
186	2
193	3
194	5
195	3
197	2
199	7
200	3
207	4
208	4
209	3
213	5
214	3
220	8
221	6
222	39
223	14
224	2
227	7
228	2
229	3
231	3
235	4
236	12
237	3
239	2
241	4
246	6
247	9
248	2
249	10
250	2
253	7
254	6
255	9
263	3
264	120
265	49
266	8
267	3
268	6
269	2
270	26
271	7
281	140
282	29
283	4
295	2
296	31
297	85
298	160
299	34
300	5
313	310
314	66
315	9
328	11
329	5
330	3
