Mass Spectrum: Octadecanoic acid, 18-methoxy-, methyl ester
Formula: C20H40O3
CAS: 55334-47-9
Molecular weight: 328
m/z	intensity
15	21
16	3
17	14
18	42
25	3
26	12
27	66
28	58
29	130
30	8
31	25
32	7
33	11
37	2
38	4
39	61
40	16
41	440
42	130
43	350
44	110
45	999
46	24
47	7
51	4
52	2
53	35
54	26
55	770
56	120
57	220
58	50
59	210
60	9
61	4
65	6
66	14
67	170
68	120
69	450
70	10
71	180
72	17
73	39
74	750
75	140
76	11
77	7
78	5
79	24
80	26
81	170
82	220
83	450
84	260
85	95
86	9
87	520
88	57
89	7
91	8
92	3
93	22
94	30
95	180
96	240
97	410
98	460
99	59
100	15
101	85
102	13
103	3
104	3
105	6
106	2
107	26
108	22
109	120
110	120
111	210
112	160
113	37
114	26
115	60
116	24
117	3
119	13
120	5
121	39
122	20
123	91
124	74
125	120
126	45
127	31
128	30
129	87
130	80
131	8
133	14
134	12
135	41
136	17
137	63
138	63
139	77
140	34
141	48
142	12
143	180
144	31
145	3
147	13
148	11
149	25
150	8
151	43
152	69
153	55
154	52
155	23
156	6
157	39
158	14
159	3
161	12
162	6
163	28
164	13
165	42
166	45
167	45
168	46
169	6
170	5
171	34
172	20
173	4
175	9
176	4
177	14
178	7
179	28
180	63
181	37
182	21
183	23
184	5
185	45
186	18
187	3
189	7
190	3
191	8
192	13
193	23
194	57
195	26
196	15
197	29
198	6
199	61
200	19
201	4
202	3
203	4
204	2
205	5
206	3
207	19
208	26
209	17
210	20
211	19
212	5
213	32
214	17
215	7
217	3
218	6
219	10
220	29
221	26
222	110
223	37
224	9
225	11
226	4
227	19
228	30
229	17
230	3
235	17
236	120
237	45
238	17
239	14
240	16
241	17
242	3
245	11
246	27
247	26
248	6
249	4
250	5
251	4
252	5
253	80
254	25
255	78
256	16
257	3
261	2
262	3
263	65
264	430
265	39
266	21
267	23
268	25
269	84
270	19
271	4
278	15
279	11
280	4
281	440
282	87
283	10
284	4
285	3
294	4
295	17
296	530
297	330
298	200
299	39
300	7
310	3
311	5
312	3
313	310
314	64
315	9
327	11
328	86
329	31
330	6
