Mass Spectrum: Phenanthrene, 2-dodecyltetradecahydro-
Formula: C26H48
CAS: 55334-22-0
Molecular weight: 360
m/z	intensity
37	3
38	4
39	98
40	25
41	719
42	117
43	791
44	27
45	1
47	1
48	1
49	1
50	3
51	8
52	7
53	86
54	119
55	566
56	79
57	287
58	13
59	1
60	1
61	1
62	1
63	2
64	2
65	24
66	30
67	669
68	148
69	269
70	34
71	68
72	5
73	1
74	2
75	2
76	2
77	47
78	18
79	195
80	102
81	683
82	161
83	196
84	18
85	30
86	2
87	1
88	1
89	2
90	2
91	71
92	23
93	168
94	125
95	999
96	245
97	182
98	16
99	5
103	3
104	4
105	25
106	17
107	85
108	54
109	511
110	124
111	58
112	6
113	3
114	1
115	3
116	2
117	6
118	2
119	18
120	12
121	166
122	121
123	209
124	29
125	16
126	2
127	2
128	2
129	3
130	2
131	3
132	2
133	21
134	15
135	278
136	52
137	32
138	7
139	6
140	2
141	2
142	1
143	1
144	1
145	2
146	1
147	12
148	24
149	93
150	59
151	29
152	7
153	4
154	2
155	1
156	1
157	1
158	1
159	1
160	1
161	9
162	5
163	20
164	7
165	6
166	6
167	3
168	2
169	1
170	1
171	1
172	1
173	1
174	1
175	6
176	2
177	7
178	4
179	4
180	4
181	2
182	1
183	1
184	1
185	1
186	1
187	1
188	1
189	17
190	77
191	611
192	109
193	15
194	3
195	3
196	1
197	1
205	4
206	6
207	5
208	18
209	4
210	2
211	1
217	2
218	1
219	2
220	1
221	5
222	2
223	1
224	1
225	1
231	1
232	1
233	2
234	2
235	63
236	17
237	3
238	1
245	1
246	1
247	2
248	9
249	183
250	41
251	5
252	1
261	2
262	4
263	5
264	31
265	10
266	2
275	2
276	3
277	3
278	4
279	1
289	22
290	13
291	5
292	1
302	2
303	62
304	17
305	3
306	1
317	7
318	8
319	2
320	1
329	1
330	1
331	13
332	9
333	2
334	1
345	1
346	2
347	1
348	1
349	1
350	1
354	1
355	1
356	1
357	1
358	5
359	5
360	359
361	104
362	15
363	2
