Mass Spectrum: Stannane, phenyltripropyl-
Formula: C15H26Sn
CAS: 55335-05-2
Molecular weight: 326
m/z	intensity
14	15
15	87
16	3
17	42
18	215
19	19
25	11
26	45
27	152
28	65
29	54
31	19
32	3
36	19
37	30
38	88
39	229
40	38
41	239
42	111
43	673
44	88
45	319
46	7
49	27
50	166
51	201
52	222
53	18
54	7
55	19
56	15
57	30
58	22
59	22
60	3
61	7
62	7
63	34
64	3
65	7
66	3
67	11
68	3
69	11
70	7
71	15
72	3
73	19
74	61
75	30
76	77
77	263
78	999
79	100
80	3
81	3
82	3
83	7
84	3
85	7
91	11
92	7
93	3
94	11
95	7
97	3
98	3
99	2
101	3
102	11
103	7
104	7
105	15
112	3
113	7
114	3
115	7
116	77
117	152
118	180
119	246
120	239
121	277
122	27
123	57
124	30
125	53
127	3
128	7
129	22
130	3
131	34
132	22
133	54
134	22
135	72
136	3
137	15
139	11
141	7
142	3
143	11
144	3
145	22
146	3
147	15
148	3
149	15
150	3
151	42
152	27
153	81
154	34
155	119
156	15
157	61
158	19
159	208
160	127
161	486
162	218
163	694
164	131
165	90
166	19
167	135
168	7
169	72
170	3
171	3
173	3
175	3
177	3
178	3
179	3
185	3
187	3
189	11
190	3
191	11
192	3
193	65
194	42
195	142
196	77
197	201
198	51
199	107
200	152
201	72
202	34
203	277
204	170
205	430
206	170
207	531
208	38
209	80
210	11
211	83
212	7
213	3
217	3
219	3
221	3
223	3
225	3
227	3
229	3
231	3
232	3
233	15
234	3
235	11
236	7
237	107
238	69
239	201
240	97
241	270
242	34
243	84
244	11
245	222
246	107
247	291
248	134
249	375
250	42
251	61
252	7
253	69
254	7
255	3
259	3
260	2
261	3
262	3
263	7
264	2
265	2
267	3
269	2
271	3
272	2
273	3
274	2
275	11
276	2
277	3
278	2
279	69
280	53
281	119
282	77
283	161
284	50
285	38
286	15
287	34
288	19
289	7
290	15
291	7
292	15
293	3
294	3
296	3
313	2
315	3
317	3
322	10
323	3
324	3
325	2
326	3
327	2
328	3
330	2
