Mass Spectrum: 1,5-Cyclooctanediol
Formula: C8H16O2
CAS: 55343-44-7
Molecular weight: 144
m/z	intensity
26	0
27	214
28	16
29	214
30	15
31	140
33	0
35	0
36	2
37	2
38	7
39	153
40	31
41	454
42	235
43	369
44	309
45	85
46	2
47	78
48	1
49	1
50	6
51	32
52	7
53	59
54	999
55	637
56	153
57	973
58	162
59	26
60	16
61	4
62	9
63	3
64	1
65	14
66	25
67	388
68	118
69	312
70	413
71	200
72	28
73	53
74	5
75	6
76	1
77	16
78	17
79	125
80	741
81	94
82	390
83	358
84	235
85	62
86	10
87	6
88	2
89	5
90	1
91	13
92	2
93	109
94	11
95	35
96	14
97	169
98	353
99	35
100	3
101	189
102	12
103	3
104	0
105	1
106	0
107	10
108	30
109	8
110	1
111	23
112	2
113	1
114	4
115	1
116	94
117	7
118	0
119	0
120	0
121	1
122	0
123	0
124	2
125	7
126	20
127	2
128	0
129	1
131	0
132	0
133	1
134	0
135	3
136	0
138	0
139	0
141	0
142	2
143	0
144	0
145	0
146	0
147	0
148	0
