Mass Spectrum: 4-(Ethoxymethyl)-6-hydroxy-2-mercapto-5-(4-propoxybenzyl)pyrimidine
Formula: C17H22N2O3S
CAS: 55342-45-5
Molecular weight: 334
m/z	intensity
36	31
37	22
39	296
41	323
42	999
43	446
44	91
45	37
50	25
51	63
52	57
53	59
54	33
55	101
57	27
58	34
59	104
60	95
62	21
63	61
65	122
67	47
68	25
69	29
72	28
75	23
77	186
78	63
79	56
82	56
84	29
86	63
89	71
90	80
91	215
92	23
94	98
96	38
100	27
102	47
103	92
104	27
105	43
107	503
108	40
110	135
111	25
112	23
114	23
115	200
116	60
117	46
118	48
119	44
120	27
121	27
122	21
126	37
127	64
128	37
129	27
130	94
131	104
132	37
133	39
136	23
142	54
143	72
144	76
145	61
146	59
147	68
148	21
149	160
150	22
155	31
156	22
158	58
159	66
160	73
169	123
170	113
171	72
172	34
174	22
186	170
187	46
188	52
198	68
200	22
201	40
202	60
213	28
217	24
228	54
229	271
230	43
231	43
245	351
246	108
247	64
248	26
287	228
288	66
290	59
334	264
335	43
