Mass Spectrum: Pregna-1,4-diene-3,20-dione, 9-chloro-11-hydroxy-16-methyl-17,21-bis(1-oxopropoxy)-, (11.beta.,16.beta.)-
Formula: C28H37ClO7
CAS: 5534-09-8
Molecular weight: 520
m/z	intensity
36	6
39	7
41	46
42	11
43	64
44	43
51	5
55	71
56	15
57	999
58	35
59	5
65	18
67	29
69	47
71	16
74	5
77	57
78	12
79	51
81	39
83	19
85	8
87	62
89	5
91	144
92	23
93	46
94	11
95	47
97	16
101	8
103	19
105	53
106	12
107	77
108	31
109	52
111	25
112	5
115	118
116	26
117	35
119	29
120	16
121	355
122	87
123	21
124	16
125	18
127	21
128	32
129	38
130	11
131	58
132	20
133	63
134	50
135	121
136	16
137	20
138	7
139	10
141	25
142	11
143	23
144	18
145	54
146	23
147	165
148	26
149	17
150	25
151	14
152	11
153	28
154	8
155	27
156	7
157	35
158	18
159	81
160	93
161	81
162	19
163	14
165	19
166	12
167	13
168	7
169	17
170	7
171	62
172	13
173	47
175	21
176	7
177	34
178	13
179	16
181	18
182	7
183	15
184	8
185	27
186	31
187	84
189	22
191	11
193	14
194	10
195	30
196	10
197	24
198	11
200	5
201	9
205	18
207	19
208	14
209	23
210	13
211	29
212	10
213	21
215	12
219	7
221	25
222	13
223	62
224	20
225	30
226	11
233	12
235	18
236	23
237	45
238	26
239	39
240	15
241	20
249	15
251	15
252	6
253	20
255	11
257	8
258	3
259	10
261	14
262	19
263	18
265	10
266	9
267	37
268	14
269	12
274	6
275	16
277	256
278	60
279	51
280	13
285	13
291	8
292	10
293	31
294	21
295	393
296	91
297	34
298	49
299	13
300	14
303	6
305	9
307	5
308	8
312	7
313	212
314	47
315	60
316	12
318	11
319	9
320	6
321	8
323	42
324	9
325	10
326	2
331	373
332	74
333	157
334	30
335	10
336	17
337	10
345	7
349	29
350	8
351	23
352	5
353	7
354	30
355	14
359	34
361	17
362	3
369	6
387	5
390	6
397	8
410	31
411	16
433	15
434	4
435	6
484	15
485	9
