Mass Spectrum: Pyrazole, 5-benzoyl-4-bromo-1-methyl-
Formula: C11H9BrN2O
CAS: 55342-96-6
Molecular weight: 264
m/z	intensity
33	1
34	0
37	60
38	59
39	77
40	24
41	22
42	52
43	81
44	8
45	2
47	0
50	303
51	572
52	137
53	89
54	9
55	9
56	3
57	6
58	1
59	0
61	26
62	36
63	50
64	18
65	42
66	8
67	3
68	1
69	2
70	2
71	3
73	24
74	97
75	75
77	999
78	79
79	53
80	81
81	15
83	5
84	3
85	10
86	19
87	29
88	33
89	59
91	85
93	52
95	3
96	1
97	3
98	8
99	6
100	5
101	10
102	19
103	24
105	616
107	86
108	7
109	6
110	2
111	3
112	3
113	24
114	38
115	25
116	22
117	15
118	33
119	14
120	16
121	2
122	2
123	0
126	8
127	8
128	19
129	21
130	41
131	29
132	51
133	23
134	28
135	1
136	0
138	0
139	1
140	6
141	8
142	29
144	19
145	6
147	0
149	0
150	0
151	0
152	2
153	1
154	0
155	9
156	17
157	14
158	15
159	13
160	6
161	10
162	1
164	0
165	1
167	8
168	20
170	21
171	3
172	1
173	1
174	0
175	1
178	0
180	0
181	1
183	10
184	32
185	83
187	94
189	80
190	2
191	0
193	3
194	2
195	3
196	2
197	0
203	1
204	0
205	0
207	0
208	0
209	0
211	0
218	0
219	13
220	7
221	4
222	3
223	0
234	0
235	2
236	1
237	2
238	1
245	0
246	11
247	33
248	17
249	39
251	17
252	1
260	2
261	3
263	434
264	360
265	446
266	305
267	35
268	2
