Mass Spectrum: 1H-Pyrrole-2-carboxamide, N-(3-amino-3-oxopropyl)-1-methyl-4-nitro-
Formula: C9H12N4O4
CAS: 55356-26-8
Molecular weight: 240
m/z	intensity
42	230
43	150
44	500
45	90
51	90
54	120
59	110
64	100
65	80
71	110
78	100
79	250
87	999
89	100
95	60
107	700
123	60
137	160
153	820
169	70
195	50
205	70
221	90
222	110
240	60
