Mass Spectrum: 2,5-Bis[p-cyanophenyl]-1,3,4-oxadiazole
Formula: C16H8N4O
CAS: 55368-85-9
Molecular weight: 272
m/z	intensity
41	4
43	8
44	4
47	5
49	30
50	138
51	173
52	46
53	10
55	2
61	35
62	82
63	121
64	99
65	17
73	8
74	43
75	248
76	154
77	22
84	9
85	5
86	26
87	47
88	96
89	23
90	8
92	5
99	18
100	22
102	999
103	70
104	11
111	14
112	2
114	111
115	21
116	5
120	15
128	27
130	905
131	70
132	4
136	21
139	22
141	5
148	4
150	5
155	8
157	6
183	21
185	20
188	9
189	37
190	44
191	5
215	178
216	163
217	26
271	7
272	351
273	70
274	9
