Mass Spectrum: Aziridine, 1-propyl-
Formula: C5H11N
CAS: 5536-98-1
Molecular weight: 85
m/z	intensity
26	40
27	180
28	530
29	120
30	290
39	130
40	40
41	200
42	150
43	100
44	50
56	999
57	190
70	570
71	40
84	70
85	20
