Mass Spectrum: D-Glucuronic acid, 2,3,4-tris-O-(trimethylsilyl)-, methyl ester, 2-(4-chlorophenoxy)-2-methylpropanoate
Formula: C26H45ClO9Si3
CAS: 55373-82-5
Molecular weight: 620
m/z	intensity
40	7
41	176
42	41
43	47
44	34
45	74
46	7
47	14
50	10
51	14
52	14
53	10
55	27
57	10
58	7
59	54
61	10
63	10
64	7
65	20
66	7
67	7
68	7
69	142
70	88
71	27
72	17
73	999
74	95
75	149
76	17
77	20
78	7
79	20
81	10
83	17
85	10
87	7
89	81
90	7
91	14
93	10
94	10
95	10
97	7
99	17
100	7
101	20
102	7
103	51
104	7
105	34
106	7
111	47
112	7
113	20
115	10
116	20
117	24
119	10
123	7
125	7
127	20
128	101
129	101
130	41
131	47
132	37
133	54
134	20
135	14
139	7
141	30
142	10
143	108
144	27
145	17
146	7
147	128
148	20
149	20
155	7
157	20
158	10
159	88
160	10
161	20
163	10
168	14
169	554
170	61
171	189
172	20
173	14
174	7
175	17
179	7
183	10
185	27
187	44
188	7
189	27
190	7
191	20
193	7
197	7
199	20
200	14
201	10
202	7
203	10
204	51
205	27
206	7
207	10
213	14
214	7
215	34
216	7
217	169
218	34
219	20
221	7
227	27
228	7
229	10
231	14
232	7
233	10
243	10
245	20
246	7
247	14
257	37
258	10
259	14
261	10
273	10
275	95
276	20
277	14
285	14
286	20
287	24
288	10
289	14
291	7
301	10
303	7
305	10
317	675
318	176
319	95
320	17
321	7
331	7
333	7
347	10
391	10
392	3
406	14
407	44
408	17
409	7
605	10
606	7
607	7
620	14
621	7
622	7
