Mass Spectrum: Benzene, 2-(1-decyl-1-undecenyl)-1,4-dimethyl-
Formula: C29H50
CAS: 55373-90-5
Molecular weight: 398
m/z	intensity
16	11
17	5
18	16
24	1
25	2
26	11
27	110
28	28
29	291
30	7
31	1
32	2
36	1
37	2
38	3
39	42
40	8
41	324
42	40
43	476
44	17
45	1
49	1
50	3
51	6
52	2
53	30
54	12
55	197
56	28
57	156
58	7
62	1
63	3
64	1
65	10
66	4
67	86
68	13
69	103
70	13
71	39
72	2
73	1
74	1
75	1
76	1
77	19
78	6
79	28
80	8
81	65
82	15
83	55
84	7
85	18
86	1
87	1
89	2
90	1
91	63
92	7
93	11
94	3
95	56
96	11
97	20
98	3
99	2
100	1
101	1
102	2
103	9
104	5
105	99
106	42
107	14
108	2
109	21
110	6
111	5
112	1
113	1
114	1
115	36
116	21
117	33
118	16
119	999
120	111
121	8
122	1
123	5
124	8
125	3
126	1
127	14
128	59
129	73
130	80
131	160
132	49
133	93
134	39
135	4
136	1
137	13
138	3
139	2
140	1
141	31
142	44
143	130
144	67
145	629
146	999
147	123
148	7
149	1
150	1
151	12
152	4
153	5
154	5
155	18
156	27
157	98
158	42
159	137
160	22
161	9
162	1
163	1
164	1
165	3
166	3
167	3
168	2
169	8
170	5
171	39
172	11
173	21
174	4
175	16
176	3
177	1
178	1
179	2
180	1
181	1
182	1
183	4
184	2
185	11
186	4
187	4
188	1
189	4
190	1
191	1
192	1
193	1
194	1
195	2
196	1
197	1
198	1
199	5
200	2
201	2
202	1
203	2
204	1
205	1
206	1
207	1
208	1
209	3
210	1
211	1
212	1
213	3
214	1
215	2
216	1
217	1
218	1
219	1
220	1
221	1
222	1
223	1
225	1
226	1
227	2
228	1
229	2
230	1
231	1
232	1
233	1
234	1
235	1
236	1
239	1
241	3
242	1
243	4
244	2
245	1
246	1
247	1
249	1
251	1
252	1
253	1
254	1
255	8
256	2
257	448
258	97
259	30
260	23
261	5
262	1
263	1
264	1
265	1
266	1
267	1
268	1
269	3
270	1
271	9
272	47
273	11
274	1
275	1
277	1
279	1
280	1
281	1
282	1
283	11
284	3
285	68
286	15
287	2
288	1
291	1
292	1
293	1
294	1
295	1
296	1
297	4
298	1
299	2
300	1
301	1
309	1
311	1
312	1
313	1
314	1
351	1
367	1
381	5
382	1
383	31
384	8
385	1
386	1
390	1
392	2
393	1
394	1
395	1
396	5
397	1
398	133
399	31
400	5
