Mass Spectrum: Dibenzo[d,j][1,2,7,8]tetrathiacyclododecin,1,2,3,4,5,8,9,10,11,12,13,16-dodecahydro-
Formula: C16H24S4
CAS: 55370-39-3
Molecular weight: 344
m/z	intensity
27	70
28	18
29	46
32	13
34	15
38	13
39	135
40	29
41	124
42	13
43	41
45	60
47	16
50	22
51	56
52	38
53	72
54	21
55	59
56	13
57	46
58	15
59	19
61	29
65	63
67	44
76	11
77	116
78	32
79	302
80	58
81	29
83	15
84	13
85	29
91	423
92	68
93	508
94	55
95	30
96	13
97	159
98	44
99	25
103	15
104	14
105	129
106	50
107	999
108	684
109	171
110	41
111	51
112	15
123	15
125	15
137	20
138	25
139	140
140	48
141	23
142	13
171	10
172	602
173	72
174	63
204	13
236	4
344	8
