Mass Spectrum: Docosanoic acid, 3,4-dimethyl-, methyl ester
Formula: C25H50O2
CAS: 55373-97-2
Molecular weight: 382
m/z	intensity
15	2
16	4
17	29
18	120
27	6
28	8
29	15
30	3
39	6
41	54
42	26
43	110
44	63
45	4
53	5
54	8
55	100
56	35
57	160
58	10
59	29
60	3
64	5
67	19
68	16
69	140
70	87
71	140
72	10
73	18
74	240
76	6
77	3
79	5
80	3
81	25
82	19
83	95
84	26
85	92
86	8
87	130
88	28
89	5
91	3
93	4
94	3
95	21
96	16
97	81
98	17
99	35
100	10
101	999
102	270
103	27
107	4
108	2
109	13
110	8
111	37
112	14
113	76
114	6
115	30
116	8
121	4
122	3
123	8
124	5
125	19
126	7
127	22
128	7
129	27
130	5
131	5
135	4
137	5
138	3
139	10
140	4
141	20
142	5
143	16
144	4
145	3
151	3
152	3
153	7
154	3
155	16
156	3
157	5
158	5
163	3
165	2
167	7
168	3
169	15
170	3
171	4
180	2
181	5
182	2
183	14
184	3
185	3
195	3
197	13
198	3
199	4
200	2
207	3
209	3
211	12
212	2
213	4
222	2
223	3
225	11
226	3
227	2
228	3
236	2
237	2
238	3
239	4
240	2
241	3
253	8
255	4
256	4
257	4
264	3
265	3
267	6
268	3
269	6
270	3
278	4
279	14
280	7
281	3
295	3
298	7
299	10
300	19
301	4
306	3
307	3
308	28
309	230
310	55
311	27
312	10
313	2
333	5
335	2
339	22
340	6
349	3
350	3
351	39
352	11
353	3
368	4
381	5
382	35
383	11
