Mass Spectrum: Benzene, 2-(1-decylundecyl)-1,4-dimethyl-
Formula: C29H52
CAS: 55373-91-6
Molecular weight: 400
m/z	intensity
12	1
13	1
14	2
15	3
16	1
17	1
18	1
25	1
26	3
27	24
28	17
29	70
30	2
36	1
37	1
38	1
39	10
40	2
41	80
42	12
43	106
44	4
50	1
51	1
52	1
53	5
54	4
55	59
56	10
57	34
58	2
63	1
64	1
65	3
66	1
67	10
68	3
69	32
70	5
71	11
72	1
73	1
74	1
75	1
76	1
77	5
78	2
79	5
80	1
81	7
82	2
83	18
84	2
85	5
86	1
89	1
90	1
91	20
92	2
93	2
94	1
95	4
96	1
97	12
98	2
99	1
100	1
101	1
102	1
103	4
104	4
105	23
106	14
107	6
108	1
109	2
110	4
111	7
112	1
113	1
114	1
115	9
116	6
117	23
118	12
119	999
120	109
121	6
122	1
123	1
124	1
125	1
126	1
127	2
128	5
129	8
130	9
131	19
132	32
133	31
134	4
135	1
136	1
137	1
138	1
139	1
140	1
141	2
142	2
143	4
144	3
145	39
146	9
147	4
148	1
149	1
150	1
151	1
152	1
153	1
154	1
155	1
156	1
157	1
158	1
159	7
160	2
161	1
162	1
163	1
164	1
165	1
166	1
167	1
168	1
169	1
170	1
171	1
172	1
173	2
174	1
175	1
176	1
177	1
178	1
179	1
180	1
181	1
182	1
183	1
184	1
185	1
186	1
187	1
188	1
189	1
195	1
196	1
201	1
202	1
203	1
215	1
216	1
217	2
218	1
231	1
232	1
233	1
243	1
244	1
245	1
246	1
257	1
258	7
259	249
260	64
261	8
262	1
263	1
264	1
265	1
272	1
273	1
274	1
287	1
288	1
294	1
295	1
301	1
302	1
398	1
399	1
400	59
401	19
402	3
403	1
