Mass Spectrum: Piperazine, 2,6-dimethyl-1,4-dinitroso-
Formula: C6H12N4O2
CAS: 55380-34-2
Molecular weight: 172
m/z	intensity
30	79
43	239
44	65
45	92
56	399
57	65
58	42
69	265
70	599
71	119
83	239
84	29
85	35
112	999
113	79
142	39
172	79
173	5
