Mass Spectrum: Adenine-9-propanoic acid, .alpha.-t-butoxycarbonylamino-
Formula: C13H18N6O4
CAS: 55387-36-5
Molecular weight: 322
m/z	intensity
25	3
26	33
27	117
28	144
29	67
30	18
31	15
36	4
37	43
38	72
39	444
40	113
41	784
42	50
43	27
44	999
45	12
46	3
48	3
49	20
50	68
51	55
52	18
53	73
54	38
55	185
56	470
57	120
58	7
59	115
60	4
62	4
64	2
65	8
66	21
67	16
68	9
69	5
70	9
71	2
74	3
77	4
78	1
79	8
80	10
81	17
82	2
91	14
92	8
93	4
94	7
95	9
104	1
105	1
106	6
107	4
108	62
109	5
118	2
119	8
120	2
121	7
122	1
133	3
134	7
135	200
136	95
137	6
141	2
147	2
148	77
149	55
150	5
152	0
160	1
161	0
162	0
163	2
174	0
175	3
176	13
177	63
178	10
186	0
188	0
189	0
190	0
191	8
192	3
194	2
203	1
204	2
205	1
219	1
221	17
222	5
226	1
233	1
248	5
249	12
250	1
266	5
267	1
277	9
278	2
305	1
322	2
