Mass Spectrum: Benzimidazol-5-amine, 2-(2-pyridyl)-
Formula: C12H10N4
CAS: 55396-63-9
Molecular weight: 210
m/z	intensity
36	34
37	116
38	286
39	650
40	253
41	269
42	105
43	169
44	118
45	28
50	498
51	999
52	803
53	175
54	74
55	32
61	21
62	213
63	217
64	124
65	206
66	169
67	26
75	55
76	240
77	250
78	927
79	309
80	40
90	15
91	36
92	40
93	30
95	22
103	22
105	475
106	103
132	72
163	19
182	15
195	36
209	19
210	229
211	30
