Mass Spectrum: 1,2,4-Trioxolane-2-octanoic acid, 5-octyl-, methyl ester
Formula: C19H36O5
CAS: 55398-23-7
Molecular weight: 344
m/z	intensity
40	74
41	337
42	540
43	405
44	729
45	337
46	97
47	9
48	5
49	4
50	13
51	31
52	14
53	106
54	202
55	324
56	999
57	567
58	148
59	297
60	202
61	25
62	5
63	10
64	4
65	28
67	513
68	459
69	837
70	689
71	621
72	175
73	216
74	783
75	90
76	12
77	29
78	12
79	32
80	50
81	500
82	581
83	702
84	243
85	283
86	82
87	702
88	62
89	16
90	4
91	39
92	17
93	66
94	81
95	405
96	391
97	364
98	675
99	156
100	33
101	152
102	20
103	16
104	6
105	22
106	9
107	75
108	37
109	216
110	77
111	459
112	97
113	77
114	141
115	270
116	25
117	17
118	9
119	27
120	9
121	17
122	10
123	52
124	160
125	459
126	82
127	77
128	18
129	151
130	27
131	10
132	5
133	10
134	8
135	56
136	102
137	43
138	18
139	32
140	31
141	97
142	31
143	378
144	39
145	12
146	6
147	20
148	6
149	36
150	10
151	18
152	20
153	60
154	64
155	297
156	44
157	229
158	243
159	52
160	8
161	6
162	5
163	9
164	6
165	14
166	13
167	14
168	28
169	22
170	14
171	39
172	8
173	33
174	5
175	6
176	4
177	6
178	6
179	9
180	12
181	10
182	16
183	14
184	18
185	55
186	12
187	27
188	5
189	4
190	2
191	5
192	4
193	5
194	8
195	5
196	10
197	8
198	13
199	8
200	2
201	27
202	5
203	4
204	4
205	5
206	4
207	5
208	5
209	5
210	8
211	5
212	8
213	5
214	2
215	22
216	5
217	4
218	4
219	4
220	2
221	4
222	4
223	5
224	5
225	4
226	5
227	5
228	2
229	2
230	1
231	2
232	2
233	4
234	2
235	2
236	4
237	2
238	4
239	5
240	5
241	8
242	4
243	2
244	2
245	4
246	2
247	2
248	2
249	2
250	4
251	4
252	4
253	2
254	4
255	4
256	4
257	2
258	5
259	9
260	4
261	2
262	2
263	2
264	5
265	2
266	8
267	4
268	4
269	2
270	8
271	4
272	2
273	2
274	2
275	2
276	2
277	4
278	5
279	5
280	4
281	4
282	4
283	4
284	2
285	2
286	2
287	2
288	2
289	2
290	2
291	2
292	2
293	2
294	2
295	2
296	2
297	2
298	2
299	2
300	2
301	2
302	2
303	2
304	2
305	2
306	2
307	2
308	2
309	2
310	2
311	8
312	2
