Mass Spectrum: Benzenamine, 2,2'-azobis-
Formula: C12H12N4
CAS: 554-55-2
Molecular weight: 212
m/z	intensity
26	6
27	26
29	11
30	4
37	3
38	9
39	89
40	9
41	25
42	12
43	5
44	5
50	9
51	37
52	59
53	31
54	13
55	8
56	3
57	7
62	4
63	17
64	27
65	427
66	63
67	7
68	2
69	5
70	2
71	4
74	2
75	5
76	6
77	12
78	22
79	20
80	46
81	11
82	2
83	3
84	2
85	2
88	1
89	3
90	7
91	32
92	999
93	95
94	6
95	3
96	1
97	4
98	2
99	1
103	2
104	3
105	18
106	55
107	20
108	24
109	3
110	1
111	2
114	1
115	4
116	2
117	5
118	6
119	4
120	123
121	9
122	1
123	1
125	2
127	2
128	3
129	3
130	5
131	0
132	1
133	1
134	1
139	5
140	3
141	2
143	4
149	3
154	2
155	1
156	6
157	2
158	1
166	7
167	9
168	5
169	18
170	3
181	4
182	4
183	17
184	8
196	7
210	2
211	2
212	102
213	13
214	2
