Mass Spectrum: Triethylphosphine
Formula: C6H15P
CAS: 554-70-1
Molecular weight: 118
m/z	intensity
25	7
26	53
27	202
28	46
29	148
30	4
31	2
32	3
33	8
34	47
35	4
36	0
37	1
38	2
39	31
40	5
41	125
42	17
43	71
44	16
45	111
46	17
47	49
48	7
49	12
50	3
51	4
52	1
53	7
54	4
55	115
56	20
57	213
58	92
59	259
60	64
61	553
62	999
63	27
64	0
65	1
66	1
67	3
68	2
69	29
70	9
71	13
72	3
73	29
74	7
75	140
76	26
77	5
78	2
86	1
87	11
88	10
89	64
90	703
91	33
92	0
93	1
94	0
101	3
102	4
103	154
104	15
105	2
115	2
116	3
117	39
118	336
119	24
120	0
122	0
