Mass Spectrum: Pregnan-18-ol, 20-[(1-methylethylidene)amino]-
Formula: C24H41NO
CAS: 55400-12-9
Molecular weight: 359
m/z	intensity
41	120
42	70
43	70
44	499
45	20
53	40
54	20
55	130
56	30
57	30
58	519
59	30
65	20
67	120
68	50
69	50
70	70
71	40
77	50
78	20
79	80
80	50
81	100
82	20
83	50
84	300
85	999
86	100
87	50
88	70
90	70
91	20
92	70
93	30
94	70
95	20
96	20
104	70
105	20
106	40
107	30
108	80
109	30
112	40
117	30
119	50
120	20
121	40
122	30
123	30
125	30
131	20
133	50
134	20
135	20
147	40
148	30
149	40
150	30
161	20
162	20
163	20
243	50
244	30
251	10
257	20
258	20
271	40
272	30
273	20
301	20
314	40
315	10
320	10
328	20
329	30
330	10
344	80
345	10
359	80
360	10
