Mass Spectrum: 3-Octyne, 2,2,7-trimethyl-
Formula: C11H20
CAS: 55402-13-6
Molecular weight: 152
m/z	intensity
39	160
40	20
41	390
42	30
43	230
50	20
51	40
52	30
53	120
54	30
55	300
56	70
57	560
58	20
63	10
65	50
66	10
67	260
68	40
69	180
70	60
71	20
77	110
78	20
79	160
80	50
81	999
82	180
83	70
91	50
93	60
94	30
95	650
96	440
97	50
107	20
108	10
109	340
110	50
122	20
123	30
137	380
138	40
152	10
153	1
