Mass Spectrum: Lup-20(29)-en-21-ol, 3,28-bis[(tetrahydro-2H-pyran-2-yl)oxy]-, (3.beta.,21.beta.)-
Formula: C40H66O5
CAS: 55401-93-9
Molecular weight: 626
m/z	intensity
41	40
43	60
55	40
56	10
57	60
67	50
68	10
69	40
70	10
79	10
81	30
83	40
84	20
85	999
86	60
91	10
93	20
95	40
105	11
106	2
107	15
108	4
109	15
111	3
119	11
120	3
121	12
122	4
123	9
131	4
133	7
134	4
135	13
136	7
137	17
143	2
145	5
147	7
148	2
149	6
150	3
151	3
159	5
161	8
163	4
164	2
165	5
173	5
175	6
177	4
178	3
179	3
185	2
187	6
188	2
189	12
190	10
191	15
192	3
199	2
201	5
202	2
203	6
204	2
205	7
206	2
207	7
217	6
218	3
219	5
229	2
231	4
232	2
243	2
245	14
246	2
382	19
383	39
384	20
385	4
391	6
393	4
398	3
402	3
409	3
414	2
422	12
423	79
424	24
425	7
439	4
440	17
441	20
524	4
525	4
541	4
