Mass Spectrum: Morphinan-6-one, 4,5-epoxy-14-hydroxy-8-(2-hydroxyethoxy)-3-methoxy-17-methyl-, (5.alpha.,8.beta.)-
Formula: C20H25NO6
CAS: 55400-10-7
Molecular weight: 375
m/z	intensity
41	130
42	820
43	999
44	810
45	280
46	60
50	40
51	100
52	40
53	70
54	60
55	170
56	60
57	100
58	190
59	50
61	90
62	270
63	100
64	40
65	70
66	30
67	30
68	40
69	30
70	460
71	70
72	10
74	30
75	50
76	50
77	120
78	40
79	40
80	40
81	10
82	50
86	40
87	60
88	30
89	70
90	30
91	80
92	30
94	30
99	50
100	30
101	50
102	80
103	70
104	30
105	30
109	30
110	40
113	30
114	40
115	230
116	70
117	50
118	30
121	40
126	40
127	100
128	120
129	60
130	40
131	70
132	30
138	60
139	70
140	30
141	50
142	30
143	50
144	70
145	50
146	30
151	30
152	60
153	50
154	30
155	60
156	40
157	40
158	40
159	40
160	30
161	60
162	30
165	40
167	30
168	50
169	40
170	40
171	60
172	50
173	50
174	50
175	50
176	30
177	20
178	60
179	60
180	20
181	40
182	30
183	40
184	50
185	70
186	50
187	60
188	100
189	30
197	40
198	50
199	70
200	60
201	50
202	30
210	30
211	40
212	30
213	40
214	120
215	50
216	40
227	40
228	50
229	230
230	80
231	10
242	30
256	30
270	30
313	250
314	60
315	10
