Mass Spectrum: Pregnan-20-ol, 3-[(1-methylethylidene)amino]-, (3.beta.)-
Formula: C24H41NO
CAS: 55400-11-8
Molecular weight: 359
m/z	intensity
41	180
42	80
43	110
44	20
45	200
46	20
53	60
54	20
55	160
56	60
57	50
58	999
59	50
65	20
66	20
67	150
68	110
69	100
70	50
71	120
72	50
77	50
78	20
79	110
80	20
81	170
82	90
83	90
84	90
85	20
91	100
92	20
93	140
94	60
95	150
96	140
97	50
98	100
99	40
105	100
106	40
107	100
108	90
109	100
110	50
112	20
117	30
119	50
120	20
121	50
122	60
123	40
124	20
130	30
131	10
132	50
133	10
134	30
135	10
136	10
243	10
245	10
257	10
269	10
274	50
275	10
284	30
285	30
286	10
300	30
301	10
302	30
303	10
314	20
315	10
316	10
319	20
330	20
332	20
342	10
344	380
345	120
346	20
358	30
359	400
360	100
361	10
