Mass Spectrum: D-Arabino-Hexose, 2-deoxy-3,4,5-tris-O-(trimethylsilyl)-, O-methyloxime, 6-[bis(trimethylsilyl) phosphate]
Formula: C22H56NO8PSi5
CAS: 55401-79-1
Molecular weight: 633
m/z	intensity
41	10
42	10
43	13
44	15
45	51
46	5
47	13
49	3
51	3
52	3
53	5
54	5
55	13
56	3
57	5
58	8
59	38
60	5
61	8
63	3
65	3
66	3
67	5
68	5
69	5
70	15
71	8
72	20
73	999
74	91
75	111
76	8
77	15
79	5
80	5
81	8
82	18
83	3
84	8
85	5
86	5
87	5
89	33
90	5
91	5
93	5
95	3
96	3
98	8
99	8
100	10
101	71
102	13
103	30
104	5
105	30
106	5
107	5
108	8
109	5
110	3
111	5
112	5
113	30
114	8
115	13
116	43
117	35
118	8
119	10
121	5
122	3
126	15
127	13
128	10
129	111
130	15
131	38
132	8
133	86
134	13
135	15
136	3
137	5
139	3
140	15
141	5
142	35
143	15
144	10
145	8
146	3
147	227
148	43
149	25
150	5
151	8
152	3
153	5
154	10
155	15
156	13
157	28
158	10
159	8
160	5
161	3
163	8
164	3
165	5
166	5
167	5
168	8
169	3
170	3
171	5
172	28
173	28
174	51
175	13
176	5
177	5
179	5
180	15
181	10
182	10
183	5
184	3
185	5
186	10
187	5
188	8
189	10
190	5
191	25
192	5
193	15
194	3
195	15
196	5
197	5
198	15
199	5
200	5
201	3
203	15
204	18
205	43
206	13
207	35
208	8
209	10
211	91
212	38
213	10
214	15
215	8
216	5
217	172
218	48
219	20
220	5
221	8
222	3
225	30
226	10
227	40
228	23
229	13
230	8
231	10
232	3
241	5
242	5
243	45
244	45
245	18
246	5
247	23
248	5
253	8
254	5
255	10
256	8
257	3
269	10
270	20
271	10
272	5
275	5
276	116
277	20
278	10
279	3
283	5
284	5
285	25
286	15
287	5
288	15
289	3
299	503
300	111
301	81
302	25
303	8
304	5
305	3
313	23
314	76
315	389
316	136
317	76
318	18
319	10
320	3
328	25
329	8
330	5
331	51
332	13
333	8
334	3
341	15
342	5
343	10
344	3
357	354
358	116
359	51
360	25
361	10
362	3
370	288
371	71
372	40
373	25
374	5
375	3
376	3
387	197
388	71
389	45
390	15
391	5
392	3
403	5
404	2
405	1
406	1
415	3
416	1
417	1
421	1
422	5
423	2
424	1
425	1
429	2
431	2
432	1
433	1
454	4
455	1
456	1
459	27
460	10
461	6
462	2
463	1
471	21
472	6
473	5
474	2
475	1
533	1
561	1
586	3
587	2
588	1
602	6
603	3
604	2
605	1
618	11
619	7
620	3
621	2
622	1
633	1
