Mass Spectrum: 3-Pentyn-2-one, 5,5-diethoxy-
Formula: C9H14O3
CAS: 55402-04-5
Molecular weight: 170
m/z	intensity
41	140
42	140
43	999
44	230
45	20
47	10
50	60
51	50
52	20
53	160
54	70
55	450
56	30
57	50
63	10
65	10
66	10
68	20
69	100
70	20
71	20
81	50
82	120
83	220
84	60
97	260
98	60
99	10
103	10
108	10
111	20
125	170
126	30
127	10
141	10
169	30
