Mass Spectrum: Pyridine, 2-(bromomethyl)-
Formula: C6H6BrN
CAS: 55401-97-3
Molecular weight: 171
m/z	intensity
41	20
44	40
49	20
50	120
51	210
52	200
53	120
61	20
62	40
63	90
64	60
65	440
66	50
78	140
79	130
80	220
81	20
91	20
92	999
93	80
171	110
172	10
173	110
174	10
