Mass Spectrum: 2H-Indeno[1,2-b]oxirene, octahydro-, (1a.alpha.,1b.beta.,5a.alpha.,6a.alpha.)-
Formula: C9H14O
CAS: 55402-31-8
Molecular weight: 138
m/z	intensity
41	700
42	50
43	70
44	20
45	10
50	80
51	210
52	110
53	300
54	330
55	350
56	40
57	50
58	40
59	20
60	10
62	30
63	100
64	20
65	200
66	140
67	900
68	290
69	110
70	30
71	10
74	10
75	10
76	10
77	290
78	210
79	760
80	180
81	710
82	170
83	160
84	20
85	10
86	10
87	10
89	30
90	10
91	999
92	860
93	220
94	740
95	300
96	340
97	40
102	10
103	40
104	20
105	240
106	30
107	40
108	40
109	580
110	70
115	80
116	40
117	80
118	30
119	100
120	570
121	60
122	30
123	20
124	10
125	10
134	20
135	10
136	60
137	30
138	360
139	30
