Mass Spectrum: 2-Butyn-1-one, 1-cyclohexyl-4,4-diethoxy-
Formula: C14H22O3
CAS: 55402-05-6
Molecular weight: 238
m/z	intensity
41	520
42	80
43	240
44	120
45	80
47	140
51	50
52	30
53	220
54	90
55	780
56	50
57	40
63	20
65	50
66	30
67	130
68	30
69	40
70	10
71	20
73	20
75	110
77	60
78	20
79	100
80	20
81	140
82	160
83	999
84	100
85	10
91	60
92	10
93	30
94	80
95	50
96	20
97	40
98	20
99	40
103	160
104	10
105	20
107	150
108	30
109	40
110	100
111	290
112	120
119	30
121	30
122	10
123	20
135	40
136	10
137	30
147	10
150	80
151	20
163	20
164	20
165	50
166	20
193	280
194	90
195	20
209	20
237	5
238	1
