Mass Spectrum: Lup-20(29)-ene-3,21,28-triol, 28-acetate, (3.beta.,21.beta.)-
Formula: C32H52O4
CAS: 55401-94-0
Molecular weight: 500
m/z	intensity
41	640
42	650
43	999
44	360
45	440
46	90
47	520
48	290
49	230
50	190
51	260
52	190
53	170
54	110
55	520
56	730
57	590
58	330
59	260
60	170
61	190
63	60
65	80
67	270
68	340
69	690
70	320
71	420
72	100
73	160
74	390
76	50
77	170
78	460
79	190
81	260
82	90
83	560
84	800
85	480
86	620
87	160
88	160
91	420
92	80
93	50
95	80
103	70
104	60
105	330
106	520
107	60
109	50
111	70
117	70
118	120
119	100
120	130
121	70
123	90
134	50
135	50
136	90
137	100
149	80
199	70
200	90
201	50
202	120
217	15
218	17
222	10
228	20
229	10
231	10
236	20
241	10
242	17
243	10
256	62
257	27
279	15
344	15
347	22
368	12
386	30
410	40
422	15
440	17
482	27
500	27
