Mass Spectrum: Lupane-3,21,28-triol, triacetate, (3.beta.,21.beta.)-
Formula: C36H58O6
CAS: 55401-90-6
Molecular weight: 586
m/z	intensity
41	360
42	140
43	999
44	220
45	340
46	20
50	10
51	30
52	10
53	60
54	40
55	530
56	220
57	510
58	160
59	60
60	340
61	40
64	30
65	30
67	330
68	180
69	560
70	190
71	370
72	30
73	120
74	10
77	90
78	20
79	260
80	90
81	500
82	220
83	420
84	110
85	240
86	20
87	20
91	220
92	70
93	430
94	200
95	500
96	200
97	270
98	60
99	50
100	10
101	10
103	10
104	30
105	330
106	80
107	410
108	180
109	420
110	90
111	140
112	40
113	40
115	10
117	70
118	70
119	400
120	210
121	420
122	260
123	350
124	50
125	70
126	20
127	20
128	10
129	50
130	10
131	200
132	90
133	480
134	510
135	650
136	530
137	260
138	40
139	80
140	10
141	20
142	10
143	70
144	30
145	320
146	110
147	390
148	170
149	250
150	60
151	50
152	10
153	50
154	10
155	20
156	10
157	100
158	30
159	400
160	110
161	380
162	90
163	260
164	40
165	30
167	10
168	10
169	30
171	80
172	10
173	210
174	60
175	340
176	100
177	150
178	30
179	20
182	10
185	90
186	40
187	580
188	250
189	760
190	450
191	410
192	60
193	10
199	30
200	130
201	320
202	680
203	620
204	320
205	160
206	30
207	20
213	30
214	50
215	120
216	110
217	140
218	40
219	40
220	20
227	60
228	10
229	70
231	30
247	60
248	10
249	70
255	10
256	10
257	60
260	10
261	20
262	960
263	210
264	50
270	10
271	30
276	40
289	10
309	10
311	10
320	80
321	20
322	10
323	30
324	10
329	10
330	30
331	10
337	10
342	10
347	10
363	90
364	30
384	10
391	70
392	20
393	120
394	30
405	20
406	100
407	40
410	10
423	120
424	60
425	20
444	50
445	20
451	80
452	40
453	180
454	70
455	20
458	20
466	370
467	150
468	50
469	20
470	30
483	210
484	160
485	40
511	140
512	50
513	20
524	20
526	980
527	390
528	90
529	30
586	110
587	60
