Mass Spectrum: 1-Butanone, 1-cyclohexyl-4,4-diethoxy-
Formula: C14H26O3
CAS: 55402-06-7
Molecular weight: 242
m/z	intensity
41	710
42	80
43	280
44	110
45	170
46	30
47	550
51	20
52	10
53	110
54	70
55	770
56	60
57	530
58	220
59	30
60	20
61	40
65	30
66	20
67	180
68	30
69	70
70	20
71	20
72	90
73	40
75	440
76	10
77	30
79	80
80	20
81	130
82	30
83	790
84	70
85	999
86	120
87	100
88	20
89	140
91	50
93	30
94	10
95	60
103	980
104	70
105	20
107	80
108	20
109	30
111	110
113	40
116	470
117	60
121	10
123	10
124	20
131	10
133	50
141	30
149	30
151	60
152	20
159	110
167	30
196	170
197	430
198	70
