Mass Spectrum: Pentalene, octahydro-2-[(2-octyl)decyl]-
Formula: C26H50
CAS: 55401-65-5
Molecular weight: 362
m/z	intensity
37	3
38	6
39	94
40	24
41	716
42	98
43	999
44	34
45	1
50	4
51	7
52	6
53	65
54	95
55	623
56	149
57	809
58	34
59	1
63	1
64	1
65	18
66	40
67	770
68	130
69	365
70	81
71	435
72	23
73	1
77	30
78	13
79	127
80	95
81	574
82	141
83	365
84	53
85	272
86	17
91	27
92	9
93	64
94	44
95	372
96	67
97	293
98	44
99	62
100	4
103	2
104	1
105	9
106	10
107	82
108	99
109	463
110	59
111	141
112	27
113	40
114	4
115	1
116	1
117	2
118	1
119	4
120	6
121	47
122	117
123	384
124	64
125	71
126	21
127	29
128	4
129	1
133	2
134	2
135	29
136	11
137	221
138	37
139	65
140	19
141	22
142	2
147	1
148	1
149	11
150	7
151	94
152	19
153	71
154	40
155	27
156	3
162	2
163	5
164	4
165	39
166	18
167	70
168	16
169	14
170	2
177	3
178	2
179	27
180	7
181	9
182	5
183	9
184	2
191	2
192	2
193	29
194	7
195	4
196	3
197	5
198	1
205	2
206	1
207	13
208	3
209	2
210	6
211	2
219	1
220	4
221	7
222	3
223	1
224	3
225	1
233	1
234	3
235	7
236	10
237	7
238	100
239	63
240	11
241	1
245	3
246	2
247	16
248	178
249	244
250	49
251	6
252	22
253	14
254	3
255	1
261	1
262	3
263	4
264	22
265	7
266	2
276	1
277	2
278	1
279	1
319	22
320	6
321	1
332	1
333	16
334	5
335	1
360	1
361	1
362	41
363	11
364	2
