Mass Spectrum: 5H-Indolo[2'',3'':3',4']cyclopenta[1',2':5,6]naphtho[2,1-b]carbazole, 5a,5b,6,7,7a,8,13,13a,13b,14,15,15a,16,17-tetradecahydro-5a,7a-dimethyl-8,17-bis(phenylmethyl)-, [5aS-(5a.alpha.,5b.beta.,7a.alpha.,13a.beta.,13b.alpha.,15a.beta.)]-
Formula: C45H46N2
CAS: 55429-05-5
Molecular weight: 614
m/z	intensity
50	8
51	6
53	8
54	7
55	44
56	13
57	36
60	14
61	9
63	5
65	22
67	18
68	8
69	32
70	9
71	18
73	14
74	5
77	10
78	5
79	14
81	21
82	8
83	18
84	7
85	11
89	5
90	5
91	999
92	88
93	16
95	14
96	7
97	13
98	6
103	5
105	16
106	5
107	10
109	8
111	8
115	13
116	7
117	9
119	7
121	9
123	5
125	5
128	8
129	13
130	45
131	16
132	6
133	13
137	5
141	5
142	20
143	27
144	58
145	20
154	8
155	8
156	16
157	9
158	13
159	6
165	5
166	7
167	38
168	37
169	11
170	11
179	6
180	50
181	26
182	32
183	8
184	7
192	7
193	11
194	56
195	14
196	13
204	9
205	7
206	14
207	8
208	11
209	5
210	5
217	13
218	46
219	13
220	110
221	30
222	13
230	11
231	11
232	94
233	101
234	60
235	13
236	6
243	5
244	8
245	7
246	14
247	6
248	8
254	5
256	8
257	7
258	40
259	18
260	20
261	6
270	34
271	14
272	25
273	10
274	11
275	6
284	31
285	13
286	20
287	6
298	8
299	6
300	24
307	56
308	8
310	5
312	5
324	5
366	30
367	9
381	8
395	8
508	6
509	20
510	11
523	6
524	11
597	5
598	8
599	434
600	214
601	47
602	7
612	28
613	34
614	990
615	480
616	120
617	18
