Mass Spectrum: 4,4-Dimethylcholesta-8,24-dien-3-ol, (3.beta.,5.alpha.)-, TMS derivative
Formula: C32H56OSi
CAS: 55429-93-1
Molecular weight: 484
m/z	intensity
61	30
65	30
67	190
68	30
69	999
70	70
71	70
73	920
74	80
75	490
76	40
77	100
78	40
79	150
80	30
81	340
82	90
83	180
84	20
85	40
89	30
91	200
92	40
93	240
94	50
95	390
96	60
97	70
99	20
101	30
103	50
104	20
105	290
106	60
107	230
108	50
109	320
110	50
111	60
115	60
116	20
117	120
118	50
119	200
120	70
121	230
122	80
123	170
124	30
125	30
127	20
128	30
129	220
130	60
131	170
132	80
133	190
134	100
135	770
136	170
137	110
141	40
142	30
143	110
144	50
145	180
146	90
147	260
148	60
149	160
150	30
151	20
155	30
156	30
157	120
158	40
159	150
160	60
161	150
162	50
163	80
164	20
165	20
167	20
169	50
170	20
171	90
172	40
173	150
174	60
175	140
176	50
177	50
183	50
184	20
185	70
186	30
187	130
188	60
189	90
190	30
191	30
193	20
195	30
197	80
199	60
200	20
201	70
202	20
203	80
204	20
205	30
210	20
211	90
212	30
213	50
214	20
215	60
217	30
225	100
226	20
227	50
228	20
229	70
230	20
231	20
239	20
241	140
242	30
243	90
244	30
245	90
246	20
253	20
255	40
256	30
257	90
258	110
259	90
260	20
267	20
269	20
271	20
272	30
282	20
283	50
284	20
285	20
297	20
309	20
311	30
312	30
325	20
351	60
352	20
353	30
379	160
380	60
394	120
395	40
469	70
470	20
484	220
485	100
486	30
