Mass Spectrum: Stannane, bromobutylcyclohexyl(1-methylethyl)-
Formula: C13H27BrSn
CAS: 55429-10-2
Molecular weight: 382
m/z	intensity
15	10
17	40
18	190
26	20
27	220
28	70
29	250
36	10
37	5
38	10
39	180
40	20
41	720
42	60
43	999
44	20
45	30
50	10
51	20
53	60
54	50
55	740
56	100
57	80
58	10
65	10
66	5
67	60
68	5
69	10
70	5
71	10
72	10
77	30
78	20
79	40
80	5
81	60
82	50
83	820
84	290
85	20
100	10
103	10
115	10
116	40
117	120
118	110
119	190
120	140
121	230
122	20
123	40
124	20
125	40
127	5
131	10
132	10
133	20
134	10
135	10
137	5
139	5
143	5
144	5
145	10
146	5
147	20
148	5
149	10
151	10
152	5
153	10
154	5
155	20
157	10
159	30
160	20
161	40
162	20
163	70
164	10
165	40
167	10
168	5
169	30
170	5
171	20
172	10
173	280
174	160
175	460
176	190
177	610
178	30
179	100
180	5
181	110
182	5
191	5
193	10
195	100
196	50
197	240
198	100
199	350
200	60
201	230
202	40
203	100
204	10
205	40
207	20
210	10
217	10
218	10
219	10
220	5
221	5
239	10
240	10
241	30
242	20
243	30
244	10
245	20
246	5
247	10
249	5
251	5
252	5
253	30
254	20
255	60
256	30
257	80
258	30
259	50
260	5
261	10
263	5
279	10
280	10
281	20
282	10
283	20
284	5
285	10
287	5
291	20
292	5
293	20
294	10
295	50
296	20
297	70
298	30
299	100
300	20
301	60
302	10
303	30
304	5
305	10
307	5
309	5
311	5
313	10
315	10
321	20
322	10
323	30
324	20
325	50
326	10
327	30
328	5
329	10
331	20
333	20
334	10
335	170
336	100
337	410
338	220
339	600
340	160
341	390
342	40
343	110
344	10
345	60
346	10
353	5
355	5
357	5
378	5
379	5
380	10
381	10
382	20
383	10
384	20
385	10
386	5
387	10
