Mass Spectrum: Acetamide, N-[2-[(trimethylsilyl)oxy]-1-[[(trimethylsilyl)oxy]methyl]-3,7-heptadecadienyl]-
Formula: C26H53NO3Si2
CAS: 55429-51-1
Molecular weight: 483
m/z	intensity
15	39
18	39
27	52
29	78
30	26
39	26
41	208
42	65
43	325
44	26
45	65
47	39
54	26
55	272
56	65
57	156
58	26
59	52
67	130
68	52
69	156
70	52
71	91
72	39
73	999
74	117
75	325
76	26
77	39
79	78
80	52
81	104
82	65
83	143
84	52
85	78
91	39
93	78
94	39
95	91
96	52
97	104
98	26
99	26
101	39
103	143
105	26
107	52
108	39
109	52
110	26
111	39
115	39
116	272
117	52
119	26
121	39
123	39
124	26
125	26
127	39
128	26
129	286
130	65
131	78
132	259
133	65
134	26
135	52
136	39
137	39
142	208
143	78
144	39
145	39
147	78
148	26
149	39
154	52
155	65
156	52
157	389
158	78
159	39
174	548
175	91
176	39
204	39
217	39
218	65
219	39
247	195
248	52
249	26
282	13
283	13
290	26
309	584
310	156
311	104
312	26
321	13
334	78
335	26
378	39
379	13
380	26
393	26
424	26
425	13
468	26
469	13
