Mass Spectrum: Prostaglandin A1, 2TMS derivative
Formula: C26H48O4Si2
CAS: 55429-54-4
Molecular weight: 480
m/z	intensity
15	1
26	1
27	8
28	3
29	18
30	1
31	1
39	8
40	1
41	56
42	7
43	73
44	12
45	66
46	4
47	24
48	1
50	1
51	2
52	1
53	11
54	3
55	144
56	8
57	16
58	8
59	22
60	5
61	26
62	2
63	2
65	9
66	6
67	44
68	5
69	29
70	4
71	18
72	19
73	999
74	88
75	394
76	27
77	46
78	11
79	48
80	8
81	41
82	6
83	26
84	2
85	9
86	3
87	4
88	2
89	9
90	3
91	78
92	13
93	30
94	10
95	31
96	4
97	9
98	2
99	19
100	2
101	10
102	2
103	39
104	11
105	51
106	8
107	50
108	9
109	14
110	2
111	12
112	2
113	12
114	2
115	28
116	23
117	67
118	25
119	58
120	15
121	20
122	3
123	8
124	1
125	4
126	1
127	20
128	11
129	149
130	86
131	61
132	15
133	59
134	12
135	17
136	3
137	6
138	1
139	2
140	1
141	13
142	7
143	66
144	16
145	42
146	8
147	60
148	12
149	20
150	4
151	21
152	4
153	6
154	6
155	16
156	5
157	17
158	4
159	19
160	4
161	11
162	3
163	11
164	3
165	8
166	4
167	28
168	9
169	12
170	3
171	11
172	4
173	99
174	15
175	11
176	2
177	8
178	2
179	43
180	11
181	16
182	5
183	17
184	3
185	13
186	4
187	10
188	2
189	10
190	17
191	7
192	3
193	21
194	6
195	7
196	2
197	5
198	1
199	106
200	19
201	35
202	6
203	8
204	8
205	12
206	5
207	14
208	6
209	6
210	2
211	5
212	1
213	1
215	3
216	1
217	8
218	3
219	5
220	1
221	9
222	3
223	5
224	1
225	4
226	1
227	1
228	1
229	27
230	5
231	2
232	1
233	2
234	1
235	2
236	1
237	2
238	1
239	1
241	1
243	2
244	1
245	1
246	1
247	2
248	1
249	2
250	1
251	1
253	1
255	1
257	1
258	1
259	3
260	1
261	2
262	1
263	3
264	1
265	1
266	1
267	1
271	1
272	1
273	4
274	1
275	3
276	1
277	14
278	3
279	11
280	3
281	3
282	1
283	1
285	1
287	1
289	1
291	7
292	2
293	3
294	1
299	1
300	7
301	8
302	2
303	10
304	2
305	1
318	1
319	147
320	37
321	25
322	5
323	1
339	1
349	2
351	1
353	1
354	15
355	5
356	2
357	1
362	1
365	11
366	10
367	5
368	2
369	1
375	28
376	8
377	2
380	1
381	30
382	9
383	3
384	1
390	6
391	11
392	4
393	2
394	1
408	1
409	339
410	108
411	42
412	9
413	1
465	24
466	9
467	3
468	1
480	7
481	3
482	1
