Mass Spectrum: 4-Methylcholesta-8,24-dien-3-ol, (3.beta.,4.alpha.,5.alpha.)-, TMS derivative
Formula: C31H54OSi
CAS: 55429-69-1
Molecular weight: 470
m/z	intensity
51	20
53	60
55	570
56	40
57	100
59	40
61	40
65	20
67	230
68	40
69	999
70	60
71	30
73	700
74	70
75	590
76	40
77	100
78	40
79	200
80	30
81	410
82	190
83	150
85	20
89	20
91	270
92	60
93	350
94	80
95	410
96	50
97	80
101	20
103	40
104	20
105	370
106	80
107	300
108	100
109	370
110	60
111	40
115	40
116	30
117	140
118	50
119	310
120	130
121	500
122	170
123	160
124	20
125	20
128	20
129	150
130	50
131	180
132	120
133	260
134	120
135	220
136	90
137	90
141	30
142	20
143	100
144	40
145	220
146	110
147	280
148	90
149	110
150	30
151	20
155	30
156	20
157	100
158	40
159	210
160	60
161	190
162	50
163	60
169	40
171	80
172	40
173	150
174	50
175	90
176	30
177	30
183	30
185	80
186	30
187	110
188	30
189	60
191	20
195	30
196	30
197	100
198	30
199	70
200	30
201	60
202	40
203	20
204	80
205	40
209	20
210	70
211	70
212	20
213	60
214	30
215	110
216	30
217	30
223	30
225	30
227	250
228	70
229	60
230	20
231	20
239	20
241	80
242	70
243	170
244	40
245	50
246	20
253	30
255	40
256	20
257	30
258	70
259	50
267	40
269	80
270	30
271	30
272	20
283	20
297	20
298	30
304	20
311	30
312	30
332	20
333	20
351	20
357	50
358	20
359	30
365	210
366	70
379	20
380	130
381	40
385	20
386	20
455	170
456	80
457	20
470	470
471	190
472	60
