Mass Spectrum: Eicosanoic acid, 2,3-bis(acetyloxy)propyl ester
Formula: C27H50O6
CAS: 55429-67-9
Molecular weight: 470
m/z	intensity
26	10
27	50
28	30
29	110
31	10
39	40
40	10
41	230
42	60
43	999
44	30
45	110
51	10
53	20
54	20
55	270
56	70
57	320
58	30
59	20
60	20
61	20
65	10
66	10
67	70
68	30
69	170
70	50
71	170
72	20
73	180
74	30
75	10
76	10
77	10
78	10
79	20
80	10
81	80
82	40
83	150
84	190
85	120
86	40
87	20
88	10
91	10
92	10
93	20
94	10
95	90
96	40
97	140
98	270
99	110
100	20
101	30
102	10
103	60
104	10
105	10
107	20
108	10
109	50
110	20
111	80
112	90
113	30
114	10
115	30
116	50
117	180
118	10
119	20
121	20
122	10
123	30
124	10
125	40
126	30
127	20
128	10
129	20
135	20
136	10
137	20
138	10
139	20
140	10
141	30
142	10
143	10
145	40
149	40
150	10
151	10
152	10
153	10
154	10
155	10
156	10
158	100
159	440
160	30
161	10
163	10
165	10
167	10
168	10
169	10
171	60
172	10
177	30
178	10
185	10
213	10
227	10
295	20
296	10
