Mass Spectrum: 2-Propanone, 1,3-bis[(trimethylsilyl)oxy]-, O-[bis[(trimethylsilyl)oxy]phosphinyl]oxime
Formula: C15H40NO6PSi4
CAS: 55429-50-0
Molecular weight: 473
m/z	intensity
41	146
42	15
43	27
44	19
45	123
46	8
47	15
49	4
50	4
51	4
52	8
53	4
54	4
55	8
56	8
57	12
58	19
59	46
60	8
61	15
63	4
67	4
68	4
69	4
70	12
71	8
72	35
73	999
74	131
75	146
76	12
77	23
78	8
79	12
83	4
84	27
85	8
86	12
87	8
88	12
89	15
91	4
93	8
95	4
98	15
99	8
100	8
101	8
102	4
103	146
104	19
105	12
106	4
107	4
113	15
114	19
115	19
116	8
117	15
119	15
121	8
123	4
126	4
127	4
128	12
129	12
130	8
131	35
132	8
133	142
134	19
135	42
136	8
137	15
141	4
142	69
143	15
144	15
145	4
147	438
148	54
149	42
150	8
151	12
156	4
157	12
158	15
159	12
160	4
161	4
163	8
164	4
165	8
167	4
172	15
173	4
174	4
175	4
177	8
179	4
181	12
183	4
188	4
189	4
191	15
192	8
193	19
194	8
195	38
196	4
197	8
202	4
205	8
206	4
207	12
208	8
209	12
210	8
211	123
212	15
213	12
214	4
216	12
217	4
218	8
221	8
222	4
223	4
225	169
226	23
227	38
228	4
231	262
232	58
233	31
234	4
236	42
237	8
238	8
240	8
241	15
242	4
243	8
250	4
253	4
255	15
256	8
257	4
266	19
267	12
268	4
269	12
270	4
281	8
282	8
283	19
284	15
285	27
286	12
287	8
298	23
299	768
300	169
301	115
302	23
303	8
310	4
313	27
314	46
315	723
316	231
317	108
318	19
319	12
325	4
328	4
340	12
341	8
342	4
343	4
353	15
354	31
355	15
356	8
357	4
359	4
368	15
369	8
370	12
371	4
372	4
373	19
374	8
375	4
383	12
384	8
385	8
387	19
388	8
389	4
415	4
428	15
429	8
430	4
458	200
459	100
460	50
461	12
462	4
473	8
474	4
