Mass Spectrum: Cyclopentane, 1-(2-decyldodecyl)-2,4-dimethyl-
Formula: C29H58
CAS: 55429-26-0
Molecular weight: 406
m/z	intensity
38	8
39	98
40	23
41	621
42	155
43	999
44	33
45	1
49	1
50	4
51	6
52	4
53	41
54	65
55	968
56	212
57	803
58	35
59	1
61	1
62	1
63	2
64	1
65	7
66	7
67	120
68	84
69	619
70	152
71	432
72	23
73	1
74	1
75	1
76	1
77	9
78	3
79	22
80	9
81	163
82	62
83	365
84	75
85	290
86	18
87	1
88	1
89	1
90	1
91	8
92	2
93	11
94	18
95	233
96	357
97	524
98	62
99	78
100	6
101	1
102	1
103	1
104	1
105	2
106	1
107	5
108	5
109	66
110	69
111	392
112	49
113	51
114	4
115	1
116	1
117	1
118	1
119	1
120	1
121	2
122	2
123	16
124	10
125	157
126	27
127	33
128	4
129	1
130	1
131	1
132	1
133	1
134	1
135	1
136	1
137	6
138	5
139	69
140	15
141	24
142	3
143	1
145	1
146	1
147	1
148	1
149	1
150	1
151	3
152	4
153	40
154	16
155	22
156	3
157	1
163	1
164	1
165	3
166	6
167	39
168	11
169	21
170	3
171	1
177	1
178	1
179	2
180	3
181	24
182	17
183	21
184	3
185	1
193	2
194	2
195	20
196	26
197	8
198	1
207	2
208	2
209	17
210	5
211	6
212	1
221	1
222	3
223	7
224	3
225	4
226	1
235	1
236	2
237	3
238	3
239	3
240	1
249	4
250	4
251	6
252	2
253	2
254	1
261	1
262	1
263	3
264	110
265	154
266	34
267	5
268	1
277	1
278	2
279	3
280	13
281	5
282	1
283	1
292	2
293	3
294	64
295	59
296	12
297	1
298	1
306	1
307	1
308	7
309	5
310	1
311	1
320	1
321	1
322	1
323	1
335	1
336	1
337	1
338	1
349	1
350	1
351	1
363	1
364	3
365	1
