Mass Spectrum: Phosphoric acid, bis(trimethylsilyl) 2-[(trimethylsilyl)oxy]-3-[[(trimethylsilyl)oxy]imino]propyl ester, (.+/-.)-
Formula: C15H40NO6PSi4
CAS: 55429-92-0
Molecular weight: 473
m/z	intensity
41	17
42	14
43	34
44	28
45	152
46	7
47	28
48	3
49	3
50	7
51	7
52	10
53	3
54	3
55	7
56	7
57	10
58	14
59	76
60	10
61	17
62	3
63	3
68	3
69	3
70	7
71	10
72	31
73	999
74	138
75	179
76	21
77	17
78	7
79	14
84	14
85	7
86	7
87	7
88	3
89	24
90	3
91	7
93	10
95	3
98	7
99	10
100	28
101	124
102	17
103	24
104	7
105	7
107	3
112	3
113	7
114	7
115	21
116	24
117	152
118	17
119	21
121	10
123	3
126	24
127	7
128	17
129	7
130	3
131	31
132	7
133	172
134	21
135	41
136	7
137	14
141	3
142	34
143	10
144	17
145	7
147	269
148	41
149	28
150	7
151	10
152	3
153	7
155	3
157	3
158	7
159	3
161	10
163	14
165	7
167	7
172	3
174	3
175	3
179	7
181	14
182	3
183	7
187	3
188	7
189	10
190	3
191	31
192	7
193	38
194	7
195	41
196	7
197	14
198	3
200	7
201	10
203	3
204	21
205	41
206	7
209	14
210	7
211	290
212	41
213	24
214	7
215	3
216	48
217	14
218	41
219	14
220	7
221	10
222	3
223	3
225	97
226	14
227	338
228	59
229	24
230	10
231	14
232	10
233	3
241	10
242	14
243	38
244	10
245	3
253	34
254	7
255	14
256	3
269	24
270	7
271	3
278	21
283	21
284	14
285	97
286	21
287	14
294	7
295	3
298	41
299	689
300	152
301	110
302	21
303	10
310	3
313	17
314	28
315	166
316	52
317	34
318	10
319	3
327	7
328	124
329	24
330	14
331	3
340	7
341	76
342	21
343	24
344	7
345	3
352	7
353	3
357	317
358	103
359	52
360	14
361	7
368	48
369	17
370	14
371	3
373	24
374	7
375	7
383	14
384	462
385	152
386	55
387	34
388	14
389	10
390	3
415	14
416	3
417	3
430	3
431	17
432	7
433	3
442	3
458	124
459	52
460	28
461	7
462	3
