Mass Spectrum: Cyclohexane, 2-(1-decylundecyl)-1,4-dimethyl-
Formula: C29H58
CAS: 55429-27-1
Molecular weight: 406
m/z	intensity
13	0
14	1
15	6
16	1
24	0
25	0
26	4
27	68
28	19
29	191
30	4
36	0
37	0
38	1
39	32
40	8
41	339
42	67
43	567
44	19
45	0
49	0
50	0
51	1
52	1
53	19
54	37
55	599
56	125
57	464
58	20
59	0
63	0
65	3
66	4
67	90
68	92
69	769
70	117
71	209
72	11
73	0
74	0
75	0
76	0
77	8
78	2
79	17
80	7
81	121
82	52
83	175
84	47
85	128
86	8
87	0
89	0
91	6
92	1
93	7
94	3
95	132
96	26
97	163
98	30
99	27
100	2
103	0
104	0
105	2
106	0
107	3
108	3
109	36
110	708
111	999
112	97
113	19
114	1
115	0
117	0
118	0
119	2
120	0
121	0
122	0
123	9
124	5
125	38
126	12
127	11
128	1
129	0
131	0
132	0
133	0
135	0
136	0
137	2
138	3
139	16
140	7
141	8
142	1
143	0
145	0
147	0
149	0
150	0
151	0
152	2
153	10
154	6
155	7
156	0
163	0
165	0
166	2
167	8
168	6
169	7
170	0
177	0
178	0
179	0
180	1
181	6
182	6
183	6
184	0
191	0
193	0
194	1
195	6
196	3
197	3
198	0
207	0
208	2
209	6
210	2
211	2
212	0
221	0
222	1
223	3
224	1
225	2
226	0
235	0
236	1
237	2
238	1
239	1
240	0
249	0
250	0
251	1
252	1
253	1
260	0
261	0
262	0
263	1
264	24
265	63
266	16
267	2
277	0
278	0
279	1
280	1
281	1
282	0
291	0
292	0
294	105
295	52
296	9
297	0
308	1
309	0
321	0
322	0
323	1
347	0
348	0
405	0
406	1
407	0
