Mass Spectrum: Cholest-5-en-24-one, 3-[(trimethylsilyl)oxy]-, (3.beta.)-
Formula: C30H52O2Si
CAS: 55429-61-3
Molecular weight: 472
m/z	intensity
43	50
67	20
69	36
71	140
73	20
75	106
81	67
83	25
93	41
95	92
99	90
105	28
106	27
107	126
108	40
109	86
111	27
119	76
120	76
121	162
122	44
123	50
127	280
128	28
129	999
130	144
131	82
132	31
133	68
134	39
135	90
136	22
137	25
141	20
143	98
144	25
145	115
146	48
147	110
148	50
149	68
153	25
155	69
157	20
158	51
159	88
160	120
161	140
162	38
163	58
169	26
171	30
172	25
173	58
174	28
175	70
177	32
185	36
187	38
189	46
196	22
197	26
199	38
201	44
203	42
211	20
213	122
214	46
215	50
217	20
220	20
221	23
227	26
228	52
229	36
233	23
243	25
245	24
253	40
254	20
255	208
256	58
257	66
261	118
262	25
281	44
283	21
288	20
289	66
296	90
297	43
315	32
325	94
326	30
339	38
340	40
341	40
342	170
343	810
344	220
345	44
349	20
354	28
367	260
368	78
382	810
383	250
384	43
386	54
416	163
417	60
457	84
458	36
472	350
473	135
474	42
