Mass Spectrum: 2-Heneicosenoic acid, 2,4-dimethyl-, ethyl ester, [R-(E)]-
Formula: C25H48O2
CAS: 55429-11-3
Molecular weight: 380
m/z	intensity
15	4
17	10
18	10
25	2
26	16
27	50
28	70
29	210
30	2
31	10
32	10
33	2
34	2
39	36
40	14
41	420
42	84
43	689
44	30
45	30
52	10
53	40
54	40
55	440
56	104
57	420
58	20
59	16
60	2
63	2
65	10
66	14
67	210
68	70
69	579
70	90
71	170
72	4
73	30
74	60
75	14
76	4
77	10
78	4
79	44
80	16
81	180
82	164
83	703
84	80
85	130
86	10
87	124
88	16
91	16
92	10
93	24
94	16
95	260
96	84
97	236
98	36
99	50
100	24
101	36
102	999
103	60
104	4
105	10
107	24
108	16
109	264
110	190
111	200
112	60
113	360
114	70
115	420
116	24
117	4
121	10
122	4
123	80
124	100
125	90
126	20
127	60
128	20
129	20
135	10
136	4
137	36
138	14
139	30
140	10
141	150
142	60
143	30
147	4
149	10
151	20
152	4
153	24
154	4
155	60
156	420
157	44
158	4
165	10
167	4
168	4
169	14
170	10
179	4
180	2
181	2
183	10
184	4
191	2
193	2
195	2
197	4
207	10
221	4
277	14
278	20
279	50
280	4
281	10
284	4
292	4
298	4
305	16
306	16
307	10
311	20
333	4
334	40
335	160
336	40
337	16
351	4
365	10
378	4
379	4
380	529
381	140
382	20
