Mass Spectrum: Gonane-12,17-dione, 3-(acetyloxy)-5,14-dimethyl-, (3.beta.,5.beta.,8.alpha.,9.beta.,10.alpha.,13.xi.,14.beta.)-
Formula: C21H30O4
CAS: 55429-37-3
Molecular weight: 346
m/z	intensity
44	999
45	31
53	60
54	4
55	331
56	89
57	121
67	269
68	29
69	118
77	121
78	35
79	179
80	33
81	152
91	188
92	29
93	152
94	60
95	148
96	62
97	40
105	118
106	31
107	87
108	29
109	60
110	29
119	60
120	38
121	116
122	22
123	775
124	60
125	60
131	60
132	4
133	89
134	31
135	89
136	33
137	31
138	986
139	208
140	35
145	62
146	89
147	130
148	210
149	123
150	26
151	777
152	121
159	35
160	4
161	33
253	89
254	13
269	150
270	33
286	89
287	6
303	62
304	15
331	60
332	13
346	89
347	15
