Mass Spectrum: Silane, [(3,3-dimethyl-3H,7H-furo[3,2-c:5,4-f']bis[1]benzopyran-6b,10(12bH)-diyl)bis(oxy)]bis[trimethyl-, cis-(-)-
Formula: C26H34O5Si2
CAS: 55429-53-3
Molecular weight: 482
m/z	intensity
50	1
51	11
52	1
55	25
57	25
59	15
61	11
65	3
67	3
69	15
71	15
72	9
73	999
74	76
75	242
76	32
77	23
78	9
79	28
81	3
83	9
85	7
89	3
91	15
93	3
95	3
97	7
99	9
103	11
105	9
107	5
109	1
111	3
115	25
116	3
117	28
119	7
127	7
128	11
129	15
130	3
131	15
132	19
133	15
135	15
137	5
139	5
141	5
143	3
144	11
145	19
146	9
147	19
149	11
151	11
152	9
153	5
155	5
157	7
158	7
159	7
161	13
163	5
165	11
167	9
169	5
171	3
173	100
174	13
175	3
177	9
178	7
179	7
181	19
183	3
185	46
186	7
187	17
189	15
191	7
193	7
195	11
197	7
201	9
202	9
203	9
205	3
207	5
209	23
210	7
211	15
213	17
215	9
216	3
217	3
218	3
219	11
221	5
223	3
226	26
227	5
229	15
230	3
231	9
232	3
233	11
234	28
235	11
241	3
243	5
245	5
247	3
249	5
257	3
259	5
260	3
261	15
267	34
268	5
269	3
273	32
274	5
275	3
277	11
281	15
285	3
287	15
288	23
289	9
301	21
302	7
303	3
305	15
307	13
333	3
335	3
349	23
350	7
351	11
364	3
365	3
366	11
375	3
377	86
378	30
379	21
380	3
391	13
392	25
393	28
394	13
409	9
437	15
438	3
439	13
467	615
468	226
469	80
470	19
481	15
482	201
483	73
484	25
485	3
