Mass Spectrum: Tetratriacontanedioic acid, dimethyl ester
Formula: C36H70O4
CAS: 55429-46-4
Molecular weight: 566
m/z	intensity
40	15
41	388
42	91
43	820
44	39
45	28
53	20
54	67
55	840
56	158
57	670
58	57
59	190
60	10
66	10
67	164
68	89
69	660
70	103
71	314
72	23
73	53
74	999
75	183
76	10
79	32
80	44
81	190
82	110
83	501
84	347
85	178
86	11
87	750
88	71
91	10
93	38
94	45
95	182
96	112
97	408
98	970
99	105
100	18
101	72
107	36
108	32
109	110
110	53
111	194
112	300
113	47
114	15
115	41
116	20
121	62
122	22
123	62
124	28
125	113
126	82
127	25
128	12
129	54
130	23
135	60
136	16
137	33
138	21
139	50
140	66
141	21
143	61
144	26
149	34
150	10
151	19
152	18
153	31
154	108
155	20
157	20
158	31
163	21
165	10
166	11
167	22
168	59
169	14
171	20
172	25
177	12
180	10
181	18
182	38
183	10
185	20
186	12
195	16
196	39
197	10
199	18
200	10
209	14
210	39
211	10
213	12
214	10
223	15
224	40
225	10
227	12
237	13
238	36
241	14
242	10
251	13
252	34
255	12
256	20
265	12
266	31
269	11
270	10
278	10
279	14
280	30
283	14
284	10
293	14
294	28
297	10
298	11
307	13
308	27
311	11
312	11
321	13
322	26
325	10
326	13
335	12
336	25
339	10
340	10
349	11
350	24
353	10
354	11
363	12
364	24
368	11
376	10
377	13
378	25
382	18
391	11
392	21
396	10
404	18
405	22
406	25
418	27
419	24
420	50
421	16
437	13
443	10
451	21
460	188
461	158
462	39
474	44
475	22
478	56
479	22
480	36
481	11
483	12
484	16
492	57
493	118
494	37
501	93
502	146
503	74
504	19
507	11
508	18
516	16
522	14
532	14
533	21
534	448
535	417
536	128
537	24
566	225
567	103
568	22
