Mass Spectrum: Methyl 9,10-dihydroxystearate, 2TMS derivative
Formula: C25H54O4Si2
CAS: 55429-57-7
Molecular weight: 474
m/z	intensity
41	90
42	20
43	110
44	20
45	60
47	20
53	10
54	10
55	160
56	10
57	80
58	10
59	80
60	10
61	10
67	80
68	20
69	180
70	20
71	40
72	30
73	999
74	110
75	170
76	20
77	20
79	20
80	10
81	50
82	20
83	120
84	10
85	20
87	20
89	20
91	30
93	20
94	10
95	50
96	10
97	30
99	20
101	40
102	10
103	120
104	20
105	30
107	20
109	90
110	20
111	20
113	10
115	30
116	20
117	20
119	20
121	10
123	10
124	10
125	10
129	100
130	20
131	30
133	50
134	10
135	10
136	10
137	30
138	10
141	10
143	20
145	10
146	30
147	150
148	30
149	40
155	150
156	20
157	10
159	40
160	10
161	10
163	10
169	10
171	10
187	10
199	10
208	10
214	30
215	370
216	70
217	20
226	20
241	30
242	10
258	20
259	360
260	80
261	30
271	10
318	10
332	30
333	20
442	5
443	3
444	2
459	4
460	2
461	1
