Mass Spectrum: L-Adrenaline, 4TMS derivative
Formula: C21H45NO3Si4
CAS: 55429-87-3
Molecular weight: 471
m/z	intensity
28	7
41	1
42	3
43	3
44	5
45	33
46	2
47	1
57	1
58	1
59	9
71	0
72	3
73	390
74	33
75	21
76	1
77	1
86	3
87	0
88	1
89	0
91	1
100	2
101	1
102	1
103	1
105	1
114	1
115	3
116	999
117	115
118	39
119	3
130	1
131	3
132	0
133	4
134	0
135	1
147	27
148	4
149	3
150	0
160	3
161	1
162	1
163	0
174	0
177	2
178	0
179	5
180	1
181	0
191	1
192	2
193	4
194	0
195	0
205	0
206	0
207	1
208	0
209	0
220	1
221	1
222	1
223	1
235	1
236	0
237	1
238	0
251	4
252	1
253	0
265	3
266	1
267	4
268	1
269	0
279	1
280	2
281	4
282	1
283	0
294	3
295	1
296	0
308	1
309	1
310	0
311	0
325	0
326	0
339	2
340	1
341	0
355	110
356	38
357	18
358	4
359	0
366	13
367	4
368	3
369	1
370	0
380	0
381	1
382	2
383	1
384	1
385	0
456	20
457	8
458	4
459	1
460	0
469	0
470	0
471	0
472	0
473	0
