Mass Spectrum: 1-(4-Hydroxybenzoyl)-6,7-dimethoxyisoquinoline
Formula: C18H15NO4
CAS: 5544-57-0
Molecular weight: 309
m/z	intensity
31	5
36	4
38	14
39	171
40	19
41	199
42	61
43	999
44	71
45	21
50	42
51	51
52	17
53	40
54	9
55	199
56	25
57	53
58	9
60	22
62	15
63	69
64	51
65	419
66	35
67	15
68	6
69	67
70	272
71	459
72	25
73	29
74	19
75	69
76	96
77	57
78	17
79	17
81	38
82	15
83	24
84	18
85	10
87	17
88	24
89	49
90	21
91	59
92	69
93	546
94	68
95	17
96	11
97	20
98	9
99	7
100	12
101	29
102	51
103	38
104	27
105	17
107	8
109	71
110	28
111	15
113	12
114	28
115	49
116	41
117	38
118	40
119	20
120	11
121	899
122	81
123	31
124	15
125	12
126	15
127	42
128	36
129	19
130	39
131	17
132	19
133	27
139	119
140	31
141	22
142	22
143	35
144	39
145	19
146	66
147	26
148	10
149	45
150	17
151	21
152	51
153	27
154	11
155	25
156	11
157	19
158	25
159	9
163	14
164	14
165	14
166	21
167	38
168	16
169	7
172	32
173	22
174	49
175	9
177	10
178	38
179	22
180	11
181	7
186	9
188	51
189	97
190	30
191	25
192	10
193	19
194	29
195	48
196	10
199	15
206	29
207	49
208	35
209	97
210	20
211	5
218	5
219	17
220	51
221	37
222	45
223	76
224	12
233	7
234	20
235	162
236	153
237	51
238	79
239	13
246	3
247	31
248	58
249	42
250	179
251	330
252	79
253	11
262	11
263	29
264	221
265	99
266	478
267	90
268	11
276	41
277	26
278	817
279	278
280	415
281	545
282	99
283	14
292	125
293	103
294	645
295	129
296	20
308	390
309	179
310	38
311	4
