Mass Spectrum: Tetradecanedioic acid, 3,6,9,12-tetramethyl-, dimethyl ester
Formula: C20H38O4
CAS: 55448-57-2
Molecular weight: 342
m/z	intensity
15	210
16	8
17	19
18	76
26	7
27	92
28	33
29	260
30	9
31	29
32	5
33	7
38	5
39	120
40	30
41	630
42	170
43	530
44	32
45	41
50	4
51	7
52	5
53	69
54	33
55	999
56	180
57	250
58	14
59	510
60	12
61	6
65	2
66	8
67	110
68	45
69	660
70	77
71	92
72	10
73	180
74	720
75	66
77	12
78	2
79	29
80	7
81	140
82	73
83	480
84	52
85	72
86	9
87	140
88	12
91	7
93	34
94	11
95	150
96	220
97	450
98	280
99	50
100	12
101	450
102	40
103	5
105	5
107	42
108	24
109	160
110	59
111	160
112	92
113	40
114	18
115	120
116	12
117	3
119	7
121	41
122	30
123	140
124	38
125	240
126	900
127	98
128	18
129	130
130	18
131	5
133	6
134	4
135	42
136	15
137	55
138	65
139	180
140	130
141	28
142	2
143	25
144	7
145	3
147	10
148	3
149	9
150	3
151	66
152	46
153	63
154	57
155	21
156	12
157	94
158	30
159	7
161	15
162	5
163	110
164	17
165	20
166	65
167	30
168	43
169	16
170	170
171	150
172	35
173	6
174	2
176	7
177	4
178	24
179	10
180	28
181	120
182	50
183	25
184	9
185	37
186	12
187	5
189	5
191	5
193	14
194	15
195	14
196	19
197	12
198	4
199	26
200	5
201	5
202	2
203	7
204	2
205	4
206	4
207	16
208	73
209	33
210	16
211	21
212	75
213	79
214	14
215	4
217	13
218	9
219	200
220	38
221	15
222	5
223	16
224	8
225	6
226	33
227	36
228	8
229	3
231	4
232	3
233	11
234	10
235	21
236	100
237	280
238	56
239	18
240	5
241	18
242	62
243	46
244	16
245	17
246	3
247	2
248	2
249	7
250	41
251	19
252	11
253	7
254	10
255	4
258	5
259	7
260	7
261	47
262	12
263	76
264	18
265	6
266	400
267	88
268	150
269	700
270	130
271	17
272	3
276	2
277	49
278	100
279	130
280	33
281	8
282	130
283	44
284	8
285	3
291	6
292	150
293	240
294	50
295	51
296	10
297	4
298	3
299	2
308	5
309	32
310	280
311	440
312	97
313	17
314	2
325	2
326	2
327	26
328	6
340	2
341	4
342	46
343	11
344	1
345	0
