Mass Spectrum: Cyclopenta[c]furo[3',2':4,5]furo[2,3-h][1]benzopyran-11(1H)-one, 2,3,6a,9a-tetrahydro-1,3-dihydroxy-4-methoxy-
Formula: C17H14O7
CAS: 55446-27-0
Molecular weight: 330
m/z	intensity
37	8
38	35
39	324
40	48
41	543
42	171
43	999
44	219
45	193
46	17
47	17
50	57
51	175
52	70
53	149
54	61
55	416
56	100
57	293
58	35
59	30
60	118
61	35
62	43
63	131
64	43
65	83
66	30
67	8
68	48
69	236
70	57
71	122
73	87
74	39
75	48
76	35
77	114
78	35
79	78
80	26
81	70
82	39
83	83
84	39
85	61
87	39
89	43
91	48
92	30
93	39
95	57
96	26
97	57
98	39
99	26
101	26
102	35
103	26
105	35
107	39
109	35
111	30
113	30
115	96
121	26
127	35
128	48
129	52
131	35
139	26
213	26
227	39
259	61
312	30
330	61
