Mass Spectrum: 2-Pyrrolidinecarboxamide, N-androst-5-en-17-yl-, (S)-
Formula: C24H38N2O2
CAS: 55448-54-9
Molecular weight: 386
m/z	intensity
93	807
94	538
95	923
96	487
97	282
98	153
99	51
103	205
104	179
105	999
106	397
107	794
108	282
109	538
110	217
111	115
112	128
115	307
116	179
117	589
118	282
119	641
120	358
121	333
122	128
123	153
124	56
125	76
127	51
128	205
129	384
130	217
131	564
132	179
133	474
134	153
135	205
136	64
137	79
141	102
142	107
143	358
144	205
145	525
146	128
147	256
148	64
149	51
155	82
156	74
157	230
158	102
159	333
160	89
161	102
169	56
170	46
171	128
172	56
173	97
183	51
185	76
195	179
196	128
197	807
198	294
199	769
200	243
201	217
202	102
203	71
204	87
207	256
208	56
209	87
210	87
211	346
212	256
213	602
214	230
215	256
216	102
217	89
223	76
224	51
225	128
226	76
227	192
228	128
229	82
230	205
231	107
232	76
237	76
238	53
239	666
240	179
241	102
242	61
243	51
244	82
245	51
253	282
254	192
255	384
256	153
257	102
258	64
259	38
260	53
270	112
271	89
272	153
273	76
274	564
275	102
287	56
288	871
289	230
290	64
344	615
346	153
351	30
358	64
368	76
370	25
383	230
384	179
385	128
386	974
387	282
388	51
