Mass Spectrum: Acetic acid, (4-fluorophenoxy)-, methyl ester
Formula: C9H9FO3
CAS: 55444-93-4
Molecular weight: 184
m/z	intensity
37	20
38	30
39	45
40	15
41	25
42	65
43	48
44	70
45	258
46	4
49	21
50	95
51	60
52	15
53	14
54	9
55	12
56	24
57	110
58	3
59	80
60	4
61	20
62	20
63	46
64	20
65	11
68	21
69	49
70	14
73	40
74	47
75	212
76	23
77	31
78	13
81	31
82	20
83	170
84	29
94	64
95	825
96	90
97	250
98	20
105	11
107	10
109	12
110	11
111	104
112	96
113	78
123	19
124	13
125	999
126	82
127	10
128	3
184	710
185	75
186	12
