Mass Spectrum: Iron, [.mu.-[(1,2,3,4-.eta.:1,2-.eta.)-1,4-bis(ethoxycarbonyl)-1,3-butadiene-1,4-diyl]]di-, (Fe-Fe)
Formula: C16H12Fe2O10
CAS: 55450-73-2
Molecular weight: 476
m/z	intensity
28	999
29	250
31	350
43	100
44	120
45	200
46	60
56	120
81	100
112	390
137	600
138	220
193	520
210	180
236	450
280	20
306	120
308	999
309	140
336	100
362	20
364	250
365	20
390	30
392	390
393	40
431	20
448	20
476	20
