Mass Spectrum: Copper, bis(4-methoxy-3,5-cyclohexadiene-1,2-dione 1-oximato-N1,O2)(pyridine)-
Formula: C19H17CuN3O6
CAS: 55450-70-9
Molecular weight: 446
m/z	intensity
26	70
27	80
28	96
29	150
30	90
31	180
32	13
37	40
38	100
39	300
41	70
44	999
50	150
51	280
52	400
53	130
54	30
55	50
59	130
62	40
63	80
64	40
65	120
67	30
68	90
69	140
77	90
78	90
79	400
80	200
92	20
93	60
94	100
95	80
107	50
108	170
109	300
136	540
137	130
152	110
153	630
157	210
158	100
167	70
198	70
200	40
201	180
202	20
203	90
215	450
216	50
217	210
218	30
229	20
281	20
296	30
322	40
323	6
324	20
335	20
337	10
352	20
361	10
367	360
368	60
369	190
370	30
381	30
