Mass Spectrum: Platinum, bis(1,1,1,5,5,5-hexafluoro-4-thioxo-2-pentanonato-O,S)-
Formula: C10H2F12O2PtS2
CAS: 55450-75-4
Molecular weight: 641
m/z	intensity
69	800
70	20
75	300
76	100
85	420
87	80
91	80
95	100
97	50
107	999
108	50
109	60
113	100
155	150
201	80
223	350
224	70
238	80
239	200
240	110
241	50
242	30
258	120
259	140
260	120
261	40
262	50
263	20
282	50
283	90
284	80
285	100
286	50
287	50
319	30
320	190
321	180
322	130
323	20
324	40
347	50
348	80
349	80
350	50
351	50
352	160
353	160
354	130
355	40
356	50
371	60
372	60
373	50
375	20
377	30
378	30
379	50
380	100
381	110
382	90
383	20
384	30
416	20
417	30
418	30
419	20
421	55
422	50
423	40
445	45
446	50
447	50
448	50
449	90
450	110
451	100
452	40
453	30
454	20
543	190
544	210
545	180
546	50
547	60
608	10
609	10
610	10
621	70
622	80
623	70
624	20
625	30
638	20
640	530
641	580
642	520
643	120
644	180
645	25
646	20
