Mass Spectrum: Spiro-1-(cyclohex-2-ene)-2'-(5'-oxabicyclo[2.1.0]pentane), 1',4',2,6,6-pentamethyl-
Formula: C14H22O
CAS: 55469-37-9
Molecular weight: 206
m/z	intensity
26	2
27	41
28	6
29	44
30	1
31	1
38	1
39	66
40	11
41	154
42	7
43	999
44	14
45	3
50	4
51	21
52	10
53	55
54	5
55	64
56	6
57	22
58	2
59	4
60	0
61	0
62	1
63	7
64	3
65	35
66	7
67	42
68	4
69	54
70	10
71	7
72	1
73	0
74	1
75	1
76	1
77	72
78	17
79	100
80	14
81	37
82	5
83	15
84	1
85	9
86	5
87	2
88	1
89	2
90	2
91	158
92	31
93	106
94	21
95	54
96	14
97	4
98	1
99	1
100	0
101	0
102	1
103	10
104	5
105	88
106	24
107	749
108	51
109	51
110	14
111	11
112	1
113	1
114	0
115	12
116	6
117	17
118	4
119	50
120	15
121	162
122	68
123	71
124	126
125	11
126	2
127	1
128	4
129	6
130	4
131	19
132	10
133	53
134	13
135	564
136	99
137	45
138	7
139	3
140	0
141	4
142	2
143	3
144	1
145	21
146	3
147	13
148	23
149	359
150	415
151	40
152	4
153	1
154	0
155	1
156	0
157	1
158	2
159	2
160	2
161	3
162	3
163	98
164	17
165	2
166	0
167	0
168	0
169	0
170	0
171	0
172	0
173	13
174	2
175	2
176	3
177	9
178	5
179	1
181	0
188	2
189	1
190	1
191	121
192	17
193	1
204	0
205	2
206	34
207	5
208	0
