Mass Spectrum: N-(t-Butoxycarbonyl)alanine, 3-uracil-1-yl-, methyl ester
Formula: C13H19N3O6
CAS: 55461-88-6
Molecular weight: 313
m/z	intensity
25	0
26	3
27	13
28	21
29	41
30	6
31	11
33	4
37	0
38	1
39	15
40	9
41	91
42	20
43	20
44	10
45	4
46	1
47	0
48	0
49	0
50	1
51	1
52	2
53	6
54	7
55	26
56	25
57	999
58	28
59	22
60	2
61	1
62	0
63	4
65	0
66	1
67	1
68	7
69	25
70	23
71	3
72	0
73	1
74	1
75	0
76	0
77	0
78	2
79	0
80	0
81	2
82	77
83	25
84	15
85	6
86	2
87	1
88	108
89	4
90	0
91	0
92	0
93	0
94	1
95	2
96	20
97	6
98	4
99	1
100	3
101	84
102	6
103	0
104	0
105	0
106	0
107	0
108	0
109	3
110	2
111	4
112	9
113	70
114	5
115	1
116	0
117	0
118	0
119	0
120	0
121	0
122	1
123	0
124	0
125	39
126	855
127	23
128	5
129	0
130	0
131	0
132	2
133	3
134	0
135	0
136	1
137	40
138	6
139	1
140	2
141	0
142	0
143	0
144	2
145	9
146	3
147	0
149	3
150	0
151	0
152	3
153	2
154	107
155	8
156	1
157	0
163	0
164	0
165	1
166	0
167	0
168	3
169	0
170	0
171	0
179	0
180	15
181	2
182	0
183	0
184	1
185	0
186	0
187	0
188	1
189	0
193	0
194	0
195	0
196	485
197	16
198	23
199	2
200	0
201	1
202	0
205	0
206	0
207	0
208	7
209	0
210	1
211	0
212	25
213	3
214	4
215	0
216	0
223	0
224	0
225	1
226	9
227	1
228	0
239	0
240	27
241	3
242	0
243	0
252	0
253	0
254	14
255	2
256	0
257	53
258	7
259	1
260	0
268	0
269	0
270	0
271	0
272	0
273	0
310	0
311	0
312	0
313	2
314	0
