Mass Spectrum: Roseotoxin B
Formula: C30H49N5O7
CAS: 55466-29-0
Molecular weight: 591
m/z	intensity
69	155
70	121
71	47
72	29
73	13
77	2
79	3
80	7
81	37
82	60
83	74
84	692
85	99
86	999
87	51
91	2
94	2
95	5
96	4
97	25
98	65
99	12
100	15
110	15
111	4
112	26
113	22
114	15
119	3
123	6
125	16
126	18
127	95
128	32
129	4
131	5
136	8
137	28
138	9
139	10
140	42
141	68
142	22
148	2
151	3
152	1
153	9
154	229
155	51
156	8
157	9
163	11
164	21
165	72
166	11
167	6
168	139
169	91
170	19
180	14
181	6
182	102
183	38
185	6
191	4
192	37
193	18
194	4
195	14
196	8
197	10
198	2
206	2
207	14
208	2
209	3
210	17
211	8
223	5
225	52
226	12
239	2
251	4
252	4
253	38
254	30
255	9
263	3
265	7
266	1
276	2
277	3
279	15
281	11
282	43
283	5
294	4
295	6
304	3
307	15
308	7
309	12
322	6
336	27
337	14
338	8
364	4
365	12
366	23
367	4
392	2
393	29
394	47
395	7
418	5
420	10
421	156
422	43
423	11
434	7
435	2
449	134
450	37
451	5
462	1
463	6
477	14
478	47
479	11
491	9
504	3
505	7
506	190
507	52
508	14
519	6
533	5
534	260
535	80
536	10
563	7
576	143
591	35
592	9
