Mass Spectrum: Octadecanoic acid, 9,10-bis[(trimethylsilyl)oxy]-, ethyl ester
Formula: C26H56O4Si2
CAS: 55470-99-0
Molecular weight: 488
m/z	intensity
41	100
42	20
43	120
44	30
45	70
47	20
53	10
54	20
55	160
56	20
57	100
58	10
59	50
60	30
61	30
67	90
68	20
69	230
70	30
71	50
72	30
73	999
74	90
75	200
76	20
77	20
78	10
79	20
80	10
81	60
82	20
83	140
84	20
85	30
87	10
88	20
89	10
91	40
93	30
94	10
95	60
96	20
97	40
98	10
99	20
101	50
102	10
103	140
104	20
105	20
107	20
108	10
109	110
110	20
111	20
113	20
115	30
116	30
117	30
118	10
119	40
120	10
121	20
123	20
124	20
125	20
127	10
129	130
130	30
131	30
132	20
133	50
134	10
135	20
136	20
137	40
138	10
139	10
141	20
143	30
145	20
147	160
148	30
149	50
150	20
151	20
153	10
155	110
156	20
157	20
159	40
160	20
162	10
164	20
166	20
169	20
170	70
171	20
172	20
174	20
176	10
178	20
179	20
181	20
183	20
185	20
187	10
199	20
207	30
214	40
215	370
216	70
217	30
218	10
228	30
230	10
253	10
257	30
258	10
262	10
273	430
274	100
275	30
276	10
280	10
284	10
301	10
317	10
346	40
347	20
348	10
443	9
444	5
445	2
473	5
474	3
475	2
