Mass Spectrum: Octadecane, 2,2,4,15,17,17-hexamethyl-7,12-bis(3,5,5-trimethylhexyl)-
Formula: C42H86
CAS: 55470-97-8
Molecular weight: 590
m/z	intensity
38	0
39	4
40	1
41	50
42	4
43	64
44	2
45	0
50	0
51	0
52	0
53	1
54	2
55	36
56	88
57	999
58	44
59	1
65	0
66	0
67	5
68	3
69	27
70	13
71	63
72	3
73	0
77	0
78	0
79	0
80	0
81	6
82	3
83	28
84	4
85	35
86	2
87	0
91	0
92	0
93	0
94	0
95	4
96	2
97	15
98	6
99	19
100	1
101	0
103	0
104	0
105	0
106	0
107	0
108	0
109	2
110	1
111	7
112	11
113	16
114	1
115	0
117	0
118	0
119	0
120	0
121	0
122	0
123	1
124	0
125	3
126	1
127	9
128	1
129	0
131	0
133	0
135	0
136	0
137	0
138	0
139	1
140	1
141	6
142	0
143	0
147	0
149	0
150	0
151	0
152	0
153	1
154	2
155	6
156	0
157	0
165	0
166	0
167	0
168	1
169	3
170	0
171	0
179	0
180	0
181	0
182	1
183	3
184	0
185	0
189	0
190	0
191	0
193	0
194	0
195	0
196	1
197	3
198	0
199	0
200	0
201	0
202	0
207	0
208	0
209	0
210	2
211	4
212	0
213	0
221	0
222	0
223	0
224	0
225	2
226	0
235	0
236	0
237	0
238	0
239	2
240	0
241	0
249	0
250	0
251	0
252	1
253	2
254	0
255	0
264	0
265	0
266	1
267	2
268	0
277	0
278	0
279	0
280	0
281	1
282	0
283	0
292	0
293	0
294	0
295	1
296	0
297	0
306	0
307	0
308	1
309	1
310	0
321	0
322	0
323	1
324	0
335	0
336	0
337	0
338	0
348	0
349	0
350	1
351	1
352	0
363	0
364	1
365	1
366	0
378	0
379	0
380	0
393	0
394	0
406	0
407	0
408	0
420	1
421	1
422	0
435	0
436	0
448	0
449	0
462	0
463	0
464	0
476	0
477	0
478	0
491	0
519	0
532	1
533	1
534	0
575	0
576	0
