Mass Spectrum: Tetrahydrohistrionicotoxin 287b
Formula: C19H29NO
CAS: 55475-49-5
Molecular weight: 287
m/z	intensity
41	77
42	24
43	35
44	36
45	8
46	7
47	5
48	11
50	6
51	15
52	12
53	40
54	40
55	81
56	81
57	36
58	4
60	5
63	7
64	9
65	48
66	41
67	106
68	31
69	26
70	23
72	6
74	4
75	26
76	6
77	88
78	27
79	138
80	48
81	60
82	52
83	17
84	17
85	9
87	9
88	6
89	17
91	128
92	26
93	50
94	97
95	57
96	999
97	62
98	8
100	16
103	24
104	16
105	52
106	34
107	77
108	115
109	41
110	40
111	8
112	6
113	7
115	20
116	18
117	66
118	29
119	26
120	45
121	31
122	75
123	13
124	70
125	9
126	22
128	31
129	23
130	6
131	59
132	33
133	21
134	56
135	22
136	26
137	11
138	11
140	4
143	47
144	10
145	10
146	22
148	35
149	23
150	11
151	6
152	20
154	8
155	12
156	5
158	11
159	37
160	32
161	26
162	43
163	140
164	29
165	17
166	16
167	5
168	17
170	4
171	5
172	27
173	7
174	34
175	12
176	97
177	13
178	20
179	5
180	12
182	15
184	12
185	33
186	8
187	11
188	7
189	22
190	21
191	6
192	34
194	7
196	5
197	4
198	5
199	4
200	24
201	16
202	235
203	46
204	16
205	8
206	12
209	12
210	4
211	14
212	8
213	4
214	24
215	12
216	18
218	32
219	9
220	627
221	111
222	9
223	4
224	14
226	11
227	10
228	33
230	21
232	13
233	11
234	3
235	10
236	4
237	8
238	5
240	15
241	9
242	15
244	16
245	5
246	26
248	17
249	4
250	10
251	3
252	8
253	9
254	21
256	12
257	9
258	11
259	8
260	8
263	5
265	9
266	4
268	33
269	19
270	23
271	5
272	25
274	4
276	3
278	4
279	4
282	9
283	3
285	5
286	23
287	78
288	20
289	15
290	3
