Mass Spectrum: Carpesterol acetate
Formula: C39H56O5
CAS: 55487-88-2
Molecular weight: 604
m/z	intensity
41	79
43	999
44	18
45	5
49	1
51	20
53	10
55	153
57	64
58	3
61	8
65	4
67	39
69	141
71	17
77	101
78	2
79	36
81	56
83	32
84	16
85	22
86	2
87	0
91	32
93	40
94	7
95	32
96	3
97	15
98	1
99	1
103	2
105	246
106	5
107	31
108	13
109	56
111	91
112	7
115	3
117	9
119	17
120	1
121	27
122	8
123	18
124	2
125	4
127	3
128	0
129	8
131	10
132	1
133	16
134	11
135	15
136	6
137	13
138	1
141	0
143	4
145	15
146	6
147	19
148	5
149	7
151	1
155	3
157	6
158	1
159	15
160	4
161	13
162	3
166	0
169	2
171	10
173	25
174	5
175	11
183	2
185	5
187	9
188	6
189	6
197	3
199	5
201	5
203	3
211	0
213	6
214	2
215	3
225	2
227	7
228	2
229	4
239	3
241	7
242	2
243	7
244	0
253	2
255	2
256	0
257	23
258	3
266	3
267	2
281	2
282	2
283	3
297	3
309	0
310	0
311	2
312	3
324	0
379	3
403	7
404	3
414	8
415	3
422	4
423	2
434	2
467	7
468	6
469	1
481	1
482	110
483	40
484	7
544	3
