Mass Spectrum: L-Tyrosine, N,O-bis(trifluoroacetyl)-3-[(trifluoroacetyl)oxy]-, butyl ester
Formula: C19H16F9NO7
CAS: 55493-76-0
Molecular weight: 541
m/z	intensity
15	7
18	27
20	6
27	121
29	724
30	21
31	9
39	140
40	8
41	710
42	39
43	75
44	42
45	24
50	43
51	136
52	11
53	22
55	152
56	352
57	919
58	41
63	14
64	15
65	153
66	33
67	18
69	999
70	16
77	290
78	55
79	45
89	48
90	14
92	17
93	67
94	27
95	21
96	74
97	98
104	36
105	200
106	24
107	12
109	29
113	52
114	31
115	27
116	31
117	25
118	7
119	37
120	22
121	9
122	17
123	10
127	13
131	22
132	50
133	153
134	30
135	11
139	20
142	18
143	8
145	18
149	31
153	20
160	11
161	16
162	54
163	26
169	7
170	69
171	21
175	8
176	33
180	7
181	13
182	11
189	16
190	14
191	18
200	24
201	6
202	45
203	22
214	9
215	22
216	8
218	20
219	56
220	16
221	6
228	14
229	11
230	61
231	29
241	13
243	11
245	11
246	79
247	33
256	10
257	15
258	14
259	32
273	19
274	16
275	43
276	13
286	8
287	209
288	16
299	14
300	9
315	244
316	43
326	30
327	57
328	25
342	32
343	106
344	29
354	7
355	142
356	31
370	11
371	13
372	932
373	214
374	31
382	15
388	16
402	10
420	15
422	34
428	425
429	73
439	39
440	136
441	27
