Mass Spectrum: 2-Furanpropanoic acid, TMS derivative
Formula: C10H16O3Si
CAS: 55493-98-6
Molecular weight: 212
m/z	intensity
48	4
49	2
50	7
51	24
52	14
53	132
54	8
55	29
56	2
57	9
58	20
59	34
60	15
61	48
62	5
63	13
64	6
65	62
66	61
67	21
68	16
69	4
70	1
71	3
72	23
73	369
74	45
75	410
76	32
77	24
78	4
79	4
81	471
82	27
83	3
85	4
88	6
89	3
91	2
92	1
93	4
94	999
95	93
96	7
97	1
98	3
101	13
111	3
113	1
116	11
121	8
122	10
123	3
125	4
129	1
137	1
151	2
153	5
155	32
156	5
167	1
168	15
169	5
179	1
197	122
198	19
199	6
212	76
213	11
214	3
