Mass Spectrum: 3-Decene, 2,2-dimethyl-, (E)-
Formula: C12H24
CAS: 55499-02-0
Molecular weight: 168
m/z	intensity
25	2
26	6
27	147
28	10
29	230
30	4
32	1
36	3
38	2
39	111
40	16
41	472
42	51
43	219
44	3
49	1
50	2
51	11
52	4
53	57
54	22
55	704
56	107
57	302
58	15
63	1
65	13
66	6
67	92
68	26
69	999
70	273
71	64
72	3
73	0
75	0
77	13
78	0
79	17
80	3
81	32
82	43
83	943
84	268
85	32
91	3
93	3
95	24
96	7
97	198
98	52
99	4
109	3
110	3
111	28
112	10
123	1
124	5
125	23
126	5
139	2
153	20
154	1
167	0
168	54
169	4
