Mass Spectrum: 2-Furanacetic acid, trimethylsilyl ester
Formula: C9H14O3Si
CAS: 55493-94-2
Molecular weight: 198
m/z	intensity
50	11
51	26
52	39
53	100
54	5
55	9
57	8
58	26
59	26
60	8
61	29
69	5
71	4
72	17
73	999
74	88
75	255
76	17
77	20
79	7
80	12
81	138
82	9
83	3
85	5
91	7
95	3
97	3
98	6
99	4
108	9
109	5
111	14
113	3
117	17
121	14
123	3
125	2
137	24
138	5
139	28
140	3
154	135
155	82
156	13
157	1
183	225
184	30
185	10
198	103
199	15
200	4
