Mass Spectrum: .beta.-D-Galactofuranoside, ethyl 2,3,5,6-tetrakis-O-(trimethylsilyl)-
Formula: C20H48O6Si4
CAS: 55493-81-7
Molecular weight: 496
m/z	intensity
69	10
73	999
74	102
75	123
103	115
104	7
116	12
117	59
129	59
131	20
133	59
147	282
148	25
149	30
157	20
160	2
173	30
175	20
189	20
191	20
203	20
204	51
217	871
218	179
219	46
230	46
231	33
261	7
319	92
320	20
321	12
332	51
333	20
334	7
360	5
391	5
481	2
