Mass Spectrum: Pregnane-15,20-dione, 3,12,14-tris(acetyloxy)-, (3.beta.,5.alpha.,12.beta.,14.beta.)-
Formula: C27H38O8
CAS: 55493-82-8
Molecular weight: 490
m/z	intensity
40	53
41	626
42	273
43	999
44	70
45	213
46	13
50	20
51	33
52	20
53	93
54	80
55	533
56	40
57	80
58	6
59	6
60	193
61	36
62	6
63	13
65	30
66	20
67	206
68	46
69	340
70	30
71	73
72	10
73	13
74	6
75	13
76	33
77	96
78	20
79	213
80	46
81	260
82	46
83	120
84	53
85	96
86	6
87	13
88	23
89	36
91	213
92	60
93	246
94	100
95	230
96	86
97	80
98	60
99	60
100	10
101	6
102	6
103	20
104	20
105	280
106	93
107	286
108	146
109	260
110	70
111	60
112	33
113	23
114	6
115	30
116	20
117	66
118	73
119	153
120	73
121	260
122	186
123	133
124	46
125	93
126	20
127	26
128	26
129	53
130	30
131	136
132	53
133	126
134	213
135	160
136	53
137	66
138	80
139	60
140	13
141	30
142	26
143	80
144	46
145	153
146	70
147	220
148	96
149	106
150	60
151	66
152	33
153	20
154	13
155	126
156	53
157	86
158	53
159	153
160	96
161	146
162	46
163	53
164	33
165	36
166	13
167	36
168	16
169	40
170	20
171	73
172	46
173	146
174	86
175	80
176	73
177	63
178	236
179	53
180	20
181	53
182	20
183	53
184	20
185	66
186	46
187	73
188	33
189	53
190	30
191	46
192	20
193	33
194	13
195	26
196	20
197	500
198	86
199	86
200	40
201	73
202	53
203	63
204	26
205	30
206	13
207	16
208	13
209	20
210	13
211	66
212	86
213	86
214	53
215	106
216	46
217	40
218	13
219	20
220	13
221	16
222	6
223	20
224	13
225	36
226	13
227	33
228	23
229	66
230	666
231	220
232	53
233	20
234	13
235	20
236	6
237	16
238	10
239	113
240	40
241	53
242	20
243	23
244	10
245	13
246	13
247	30
248	53
249	103
250	80
251	36
252	20
253	46
254	16
255	30
256	36
257	60
258	20
259	13
260	10
261	6
262	3
263	13
264	10
265	16
266	20
267	600
268	196
269	86
270	30
271	20
272	126
273	40
274	23
275	13
276	13
277	30
278	6
279	10
280	6
281	30
282	70
283	43
284	36
285	93
286	36
287	13
288	16
289	10
290	246
291	73
292	103
293	40
294	13
295	140
296	36
297	16
298	10
299	66
300	33
301	30
302	30
303	16
304	6
305	10
306	6
307	20
308	10
309	100
310	380
311	126
312	63
313	30
314	13
315	13
316	6
317	23
318	13
319	6
320	3
324	6
325	3
326	13
327	236
328	220
329	113
330	30
331	13
332	180
333	46
334	10
341	6
342	33
343	13
344	20
345	60
346	20
347	6
348	60
349	20
350	80
351	16
352	40
353	10
354	6
355	23
356	10
357	6
358	3
359	40
360	20
361	6
362	3
368	10
369	20
370	333
371	96
372	73
373	20
374	13
375	3
384	6
385	3
386	6
387	53
388	96
389	30
390	6
392	3
402	53
403	13
404	16
405	13
406	3
430	266
431	93
432	36
433	6
444	3
447	40
448	13
449	6
490	393
491	120
492	33
493	6
