Mass Spectrum: 1'H-Androst-16-eno[17,16-b]indol-3-ol, 1'-(phenylmethyl)-, acetate (ester), (3.beta.,5.alpha.)-
Formula: C34H41NO2
CAS: 55493-87-3
Molecular weight: 495
m/z	intensity
53	6
55	22
57	6
60	8
65	16
67	23
69	10
77	11
79	23
81	30
91	999
92	70
93	28
95	18
105	30
106	5
107	27
109	5
115	6
117	11
119	11
121	7
128	6
129	8
130	22
131	13
133	7
143	11
144	18
145	9
154	7
155	6
156	7
157	7
166	5
167	27
168	35
169	11
170	9
180	30
181	20
182	20
183	7
187	6
192	5
193	7
194	23
195	7
196	5
197	5
199	6
203	6
204	8
205	6
206	13
207	7
208	9
210	14
217	7
218	22
219	7
220	121
221	27
222	13
232	7
234	26
235	7
244	6
246	10
256	5
258	24
259	20
260	18
270	7
271	5
272	16
273	6
298	7
312	7
366	8
420	91
421	27
422	7
434	8
435	74
436	31
437	9
452	7
480	691
481	250
482	40
483	6
494	13
495	694
496	253
497	41
498	6
