Mass Spectrum: Pregnane-3,20-diol, 19-[(1-methylethylidene)amino]-, (3.beta.)-
Formula: C24H41NO2
CAS: 55493-80-6
Molecular weight: 375
m/z	intensity
29	130
30	70
31	90
32	50
33	30
39	20
40	10
41	100
42	50
43	100
44	20
45	50
53	30
54	10
55	100
56	40
57	40
58	669
59	40
65	20
67	100
68	20
69	30
70	210
71	999
72	120
73	10
74	10
78	40
79	10
80	100
81	20
82	100
83	20
84	20
85	50
86	10
91	70
92	20
93	60
94	10
95	50
96	10
97	10
98	10
105	50
106	10
107	50
108	20
109	20
110	10
111	10
117	20
119	30
120	20
121	30
122	10
123	10
124	10
131	20
133	30
134	10
135	10
145	10
147	20
159	10
161	20
255	20
259	10
260	10
274	10
288	30
289	10
290	10
301	50
302	20
316	310
317	80
318	10
330	20
331	20
332	10
347	20
359	80
360	20
374	10
375	40
376	10
