Mass Spectrum: Copper, bis(4-bromo-3,5-cyclohexadiene-1,2-dione i-oximato-N2,O1)(pyridine)-
Formula: C17H11Br2CuN3O4
CAS: 55494-17-2
Molecular weight: 542
m/z	intensity
26	120
27	40
28	180
30	70
37	100
38	150
39	110
44	300
49	60
50	180
51	230
52	100
53	170
54	60
61	80
62	170
63	999
64	190
65	90
67	90
75	80
76	180
77	90
78	120
79	230
91	550
92	50
93	170
111	90
117	60
119	60
121	110
138	40
139	40
142	40
143	150
144	40
145	150
156	60
157	40
158	60
159	40
168	100
170	80
171	80
172	80
173	90
174	40
184	170
185	40
186	170
200	80
201	300
202	90
203	300
205	100
207	150
209	40
233	160
234	20
235	230
236	20
237	60
249	40
250	30
251	50
263	250
264	20
265	330
266	30
267	100
326	50
328	60
329	10
330	30
354	170
355	20
356	170
357	30
358	50
394	10
407	20
463	100
464	10
465	260
466	40
467	200
468	30
469	50
