Mass Spectrum: Nonane, 2-methyl-3-methylene-
Formula: C11H22
CAS: 55499-08-6
Molecular weight: 154
m/z	intensity
25	1
26	2
27	152
28	52
29	166
30	7
31	2
33	1
35	2
36	10
37	4
38	5
39	121
40	21
41	542
42	99
43	270
44	19
50	4
51	12
52	13
53	53
54	30
55	590
56	632
57	236
58	10
64	2
65	9
66	11
67	81
68	60
69	999
70	226
71	38
72	1
73	4
76	2
77	9
79	11
80	2
81	24
82	23
83	178
84	275
85	46
86	2
91	3
95	6
96	3
97	46
98	28
99	3
109	3
110	5
111	41
112	10
126	6
127	2
139	5
147	1
154	84
155	12
