Mass Spectrum: Benzenepropanoic acid, .alpha.-(methoxyimino)-, trimethylsilyl ester
Formula: C13H19NO3Si
CAS: 55494-13-8
Molecular weight: 265
m/z	intensity
39	15
40	7
41	8
42	1
43	35
44	35
45	76
47	9
50	3
51	18
52	3
53	1
55	4
56	4
57	6
58	17
59	41
60	5
61	4
63	11
64	4
65	38
66	1
69	42
70	2
71	2
72	15
73	999
74	98
75	109
76	6
77	15
78	1
84	25
85	1
87	8
88	2
89	82
90	38
91	169
92	13
95	1
103	3
105	9
109	13
116	157
117	64
118	7
119	8
121	1
125	4
131	6
134	2
135	10
144	1
146	3
147	18
148	8
151	3
156	1
169	1
174	5
175	9
176	2
181	1
189	52
190	15
191	19
250	102
251	20
252	4
265	68
266	11
