Mass Spectrum: Butanoic acid, 2-(methoxyimino)-3-methyl-, trimethylsilyl ester
Formula: C9H19NO3Si
CAS: 55493-95-3
Molecular weight: 217
m/z	intensity
15	14
26	4
27	35
28	26
29	31
30	12
31	14
33	5
38	3
39	27
40	7
41	84
42	63
43	161
44	25
45	125
46	11
47	23
48	1
51	3
52	6
53	7
54	18
55	16
56	14
57	15
58	65
59	129
60	14
61	13
62	1
63	1
66	2
67	6
68	43
69	29
70	22
71	8
73	999
74	100
75	99
76	9
77	4
79	4
81	1
82	2
83	8
84	57
86	12
87	2
89	380
90	35
91	15
96	6
97	1
98	4
99	20
100	80
101	8
102	1
103	2
105	25
106	3
107	1
112	3
113	2
114	1
116	12
117	16
118	3
119	1
125	1
126	5
127	26
128	9
129	1
140	5
141	13
142	14
143	4
144	2
145	1
157	4
158	2
159	1
170	2
171	1
172	1
186	97
187	15
188	4
189	1
202	32
203	3
204	3
217	10
218	2
