Mass Spectrum: Tricosanoic acid, 3,5-dimethyl-, methyl ester, (R*,R*)-
Formula: C26H52O2
CAS: 55493-78-2
Molecular weight: 396
m/z	intensity
15	7
17	11
18	46
26	4
27	24
28	15
29	60
30	2
31	8
32	4
38	3
39	29
40	7
41	180
42	47
43	280
44	23
45	5
50	6
51	4
52	3
53	15
54	16
55	240
56	88
57	250
58	12
59	62
60	4
65	6
66	3
67	41
68	22
69	270
70	64
71	130
72	9
73	63
74	880
75	320
76	26
77	9
78	7
79	9
80	3
81	31
82	34
83	210
84	66
85	100
86	8
87	48
88	15
91	5
92	2
93	8
94	4
95	33
96	14
97	83
98	16
99	19
100	5
101	999
102	110
103	9
107	9
108	5
109	19
110	8
111	94
112	65
113	19
114	4
115	96
116	22
117	5
119	2
121	6
122	4
123	12
124	6
125	27
126	19
127	13
128	2
129	7
135	4
137	4
138	3
139	10
140	5
141	10
142	2
143	150
144	5
145	2
151	3
153	5
155	5
156	3
157	10
158	2
167	3
169	4
171	10
181	2
183	3
197	3
211	2
223	4
225	2
239	2
279	6
280	3
293	2
294	3
311	8
312	3
320	23
321	8
322	14
323	18
324	4
339	82
340	20
341	3
346	9
347	10
348	2
349	2
365	14
366	5
381	17
382	5
395	2
396	71
397	27
398	4
