Mass Spectrum: Pentanoic acid, 2-(methoxyimino)-, trimethylsilyl ester
Formula: C9H19NO3Si
CAS: 55493-96-4
Molecular weight: 217
m/z	intensity
15	19
26	7
27	56
28	20
29	77
30	13
31	12
33	4
39	28
40	11
41	79
42	28
43	98
44	31
45	139
46	8
47	22
53	8
54	16
55	17
56	17
57	19
58	70
59	131
60	15
61	25
62	1
64	2
66	3
67	5
68	39
69	7
70	24
71	27
73	999
74	123
75	118
76	8
77	8
82	2
83	5
84	52
85	9
86	22
87	4
89	183
90	16
91	8
96	12
97	2
98	11
99	62
100	80
101	10
102	2
103	5
105	1
112	6
113	3
114	8
115	126
116	15
117	15
118	2
119	1
124	1
126	6
127	22
128	15
129	3
130	2
133	3
140	2
141	1
142	8
143	6
147	3
151	6
152	2
153	1
155	2
156	2
158	14
159	3
160	2
168	2
170	2
173	3
175	1
178	1
184	1
186	185
187	27
188	10
189	211
190	30
191	12
193	3
202	275
203	43
204	12
205	3
206	1
207	7
209	2
211	1
216	1
217	1
