Mass Spectrum: 2-Hexenedioic acid, bis(trimethylsilyl) ester, (E)-
Formula: C12H24O4Si2
CAS: 55494-10-5
Molecular weight: 288
m/z	intensity
39	39
43	76
44	42
45	253
46	5
47	76
52	3
53	79
54	160
55	3
57	6
58	21
59	39
60	4
61	49
72	32
73	999
74	92
75	366
76	28
77	19
81	64
82	159
97	25
111	21
112	30
113	3
117	6
133	20
139	5
147	328
148	55
149	35
190	5
229	5
244	49
245	10
273	62
274	17
