Mass Spectrum: Propanedinitrile, [(3-chlorophenyl)hydrazono]-
Formula: C9H5ClN4
CAS: 555-60-2
Molecular weight: 204
m/z	intensity
15	11
38	122
39	88
40	14
44	14
50	183
51	31
62	31
63	421
64	114
73	98
74	69
75	417
89	32
90	508
91	21
99	319
101	17
111	999
112	17
113	296
125	951
126	59
127	201
139	14
204	712
206	238
