Mass Spectrum: Myo-Inositol, pentakis-O-(trimethylsilyl)-, bis(trimethylsilyl) phosphate
Formula: C27H69O9PSi7
CAS: 55518-06-4
Molecular weight: 764
m/z	intensity
28	7
31	3
32	9
37	5
38	5
39	5
40	3
42	4
43	9
44	7
45	7
46	7
47	7
48	3
51	5
52	4
53	7
54	5
55	5
57	3
58	5
59	21
60	5
61	7
63	4
65	5
66	5
68	4
72	15
73	999
74	85
75	97
76	7
77	4
78	3
79	4
81	10
82	5
83	5
85	4
87	4
88	3
89	3
95	5
96	3
101	13
102	4
103	26
104	3
109	5
111	5
113	10
115	5
116	7
117	5
118	3
119	5
126	3
127	13
128	3
129	56
130	13
131	23
132	5
133	61
134	10
139	4
140	3
141	4
142	7
143	30
144	3
145	7
146	3
147	296
148	70
149	32
150	5
151	9
153	7
154	3
155	10
156	10
157	11
159	3
161	7
163	3
167	3
169	5
171	3
173	3
175	5
177	3
179	3
180	3
181	6
182	3
183	6
185	4
187	5
189	10
190	14
191	122
192	23
193	15
194	3
195	7
201	4
202	3
203	5
204	43
205	14
206	6
207	23
208	6
209	5
211	21
212	5
213	4
215	7
216	6
217	171
218	43
219	19
220	4
221	24
222	5
223	3
225	11
226	5
227	13
228	6
229	6
230	25
231	15
232	7
239	5
240	3
241	5
242	4
243	24
244	10
245	13
246	15
247	5
248	3
249	3
253	3
254	3
255	17
256	5
257	7
258	4
259	3
265	14
266	4
267	4
268	3
269	7
270	7
271	15
272	5
283	11
284	7
285	15
286	5
287	4
291	10
292	5
293	11
294	5
295	3
298	16
299	524
300	127
301	72
302	17
303	5
304	5
305	37
306	15
307	5
308	3
313	19
314	16
315	232
316	67
317	44
318	176
319	64
320	30
321	7
327	4
328	3
329	5
330	3
331	7
332	5
341	5
342	10
343	37
344	16
345	37
346	13
347	10
348	3
357	9
358	4
359	5
360	5
361	3
367	5
368	3
369	7
370	5
371	4
372	3
373	15
374	4
375	3
386	7
387	111
388	40
389	86
390	24
391	15
392	5
417	7
418	4
419	4
429	17
430	6
431	6
432	43
433	53
434	26
435	15
436	4
456	5
461	4
470	15
471	10
472	6
473	3
507	7
508	4
509	3
529	4
530	3
569	4
584	4
585	3
586	3
587	3
631	4
659	10
660	5
661	3
749	39
750	25
751	19
752	9
753	5
