Mass Spectrum: 4-Oxoheptanedioic acid, 2TMS derivative
Formula: C13H26O5Si2
CAS: 55517-44-7
Molecular weight: 318
m/z	intensity
39	2
40	8
41	4
42	3
43	27
44	20
45	91
46	5
47	47
48	1
49	4
51	5
52	1
53	3
54	1
55	151
56	60
57	12
58	22
59	18
60	6
61	42
62	2
63	2
64	1
65	6
66	10
67	13
68	1
69	1
70	3
71	4
72	27
73	999
74	91
75	459
76	29
77	52
78	4
79	10
80	0
81	3
82	3
83	33
84	3
85	9
86	26
87	6
88	4
89	16
90	1
91	3
92	0
93	7
94	0
95	5
96	1
97	3
98	1
99	8
100	1
101	9
102	1
103	5
104	0
105	1
107	0
108	0
109	2
110	4
111	644
112	36
113	13
114	3
115	7
116	9
117	18
118	1
119	2
120	0
121	5
123	0
124	0
125	5
126	0
127	16
128	3
129	35
130	22
131	13
132	4
133	20
134	2
135	3
138	14
139	15
140	2
141	9
142	3
143	6
144	17
145	6
146	1
147	113
148	16
149	39
150	5
151	7
152	0
153	0
155	27
156	9
157	89
158	10
159	4
163	1
164	0
165	0
167	3
168	0
169	9
170	1
171	10
172	3
173	605
174	74
175	28
176	1
183	20
184	8
185	278
186	41
187	13
188	0
189	1
190	0
191	0
195	0
199	1
201	7
202	0
203	1
204	2
211	4
212	1
213	42
214	7
215	2
217	5
218	73
219	15
220	6
221	0
228	7
229	5
231	0
243	0
245	0
257	14
258	3
259	4
260	0
275	45
276	9
277	3
278	0
281	0
285	4
286	0
287	2
288	0
299	0
303	63
304	13
305	6
306	1
313	0
